Coordinates from ORCA-job p-CH3O-Ph-N2-OTf-B3LYPG-aug-cc-pVDZ-scan-d09-29-n200
 OpenBabel01151817073D

 25 23  0  0  0  0  0  0  0  0999 V2000
   -1.8967   -0.3546   -6.3422 C   0  0  0  0  0  0  0  0  0  0  0  0
   -0.9220    0.6649   -6.4974 C   0  0  0  0  0  0  0  0  0  0  0  0
   -1.4140    1.7555   -5.9462 C   0  0  0  0  0  0  0  0  0  0  0  0
   -2.4853    2.2379   -5.2912 C   0  0  0  0  0  0  0  0  0  0  0  0
   -3.4166    1.1741   -5.1633 C   0  0  0  0  0  0  0  0  0  0  0  0
   -3.1218   -0.1026   -5.6864 C   0  0  0  0  0  0  0  0  0  0  0  0
   -1.6763   -1.3523   -6.7216 H   0  0  0  0  0  0  0  0  0  0  0  0
    0.1285    0.4828   -6.9656 H   0  0  0  0  0  0  0  0  0  0  0  0
   -2.6533    3.2412   -4.9153 H   0  0  0  0  0  0  0  0  0  0  0  0
   -4.3532    1.3904   -4.6555 H   0  0  0  0  0  0  0  0  0  0  0  0
    0.0030    3.7547   -6.2387 N   0  0  0  0  0  0  0  0  0  0  0  0
    0.6215    4.6587   -6.3678 N   0  0  0  0  0  0  0  0  0  0  0  0
    2.5663    0.8519   -6.4887 S   0  0  0  0  0  0  0  0  0  0  0  0
    3.0515   -0.7045   -5.5217 C   0  0  0  0  0  0  0  0  0  0  0  0
    1.5501    0.2886   -7.4998 O   0  0  0  0  0  0  0  0  0  0  0  0
    3.8226    1.3292   -7.1118 O   0  0  0  0  0  0  0  0  0  0  0  0
    1.9062    1.7236   -5.4640 O   0  0  0  0  0  0  0  0  0  0  0  0
    1.9547   -1.2659   -4.9650 F   0  0  0  0  0  0  0  0  0  0  0  0
    3.6245   -1.6099   -6.3299 F   0  0  0  0  0  0  0  0  0  0  0  0
    3.9127   -0.3955   -4.5395 F   0  0  0  0  0  0  0  0  0  0  0  0
   -3.9589   -1.1642   -5.6046 O   0  0  0  0  0  0  0  0  0  0  0  0
   -5.2119   -1.0024   -4.9365 C   0  0  0  0  0  0  0  0  0  0  0  0
   -5.7008   -1.9787   -4.9892 H   0  0  0  0  0  0  0  0  0  0  0  0
   -5.8345   -0.2510   -5.4449 H   0  0  0  0  0  0  0  0  0  0  0  0
   -5.0620   -0.7216   -3.8834 H   0  0  0  0  0  0  0  0  0  0  0  0
  1  6  1  0  0  0  0
  2  1  2  0  0  0  0
  2  3  1  0  0  0  0
  3  4  2  0  0  0  0
  4  5  1  0  0  0  0
  4  9  1  0  0  0  0
  5 10  1  0  0  0  0
  6 21  1  0  0  0  0
  6  5  2  0  0  0  0
  7  1  1  0  0  0  0
  8  2  1  0  0  0  0
 12 11  3  0  0  0  0
 13 14  1  0  0  0  0
 13 17  1  0  0  0  0
 14 18  1  0  0  0  0
 14 20  1  0  0  0  0
 15 13  2  0  0  0  0
 16 13  2  0  0  0  0
 19 14  1  0  0  0  0
 21 22  1  0  0  0  0
 22 25  1  0  0  0  0
 23 22  1  0  0  0  0
 24 22  1  0  0  0  0
M  RAD  2   3   2  17   2
M  END
