Coordinates from ORCA-job p-CH3O-Ph-N2-OTf-B3LYPG-aug-cc-pVDZ-scan-d09-29-n200
 OpenBabel01151817073D

 25 23  0  0  0  0  0  0  0  0999 V2000
   -1.9119   -0.3416   -6.3175 C   0  0  0  0  0  0  0  0  0  0  0  0
   -0.9336    0.6661   -6.4786 C   0  0  0  0  0  0  0  0  0  0  0  0
   -1.4089    1.7886   -5.9478 C   0  0  0  0  0  0  0  0  0  0  0  0
   -2.5028    2.2546   -5.3069 C   0  0  0  0  0  0  0  0  0  0  0  0
   -3.4392    1.2026   -5.1743 C   0  0  0  0  0  0  0  0  0  0  0  0
   -3.1427   -0.0809   -5.6780 C   0  0  0  0  0  0  0  0  0  0  0  0
   -1.6930   -1.3444   -6.6836 H   0  0  0  0  0  0  0  0  0  0  0  0
    0.0934    0.4785   -6.9390 H   0  0  0  0  0  0  0  0  0  0  0  0
   -2.6726    3.2618   -4.9412 H   0  0  0  0  0  0  0  0  0  0  0  0
   -4.3793    1.4273   -4.6772 H   0  0  0  0  0  0  0  0  0  0  0  0
   -0.0322    3.5184   -6.2125 N   0  0  0  0  0  0  0  0  0  0  0  0
    0.5438    4.4452   -6.3705 N   0  0  0  0  0  0  0  0  0  0  0  0
    2.5806    0.8655   -6.4754 S   0  0  0  0  0  0  0  0  0  0  0  0
    3.1395   -0.6946   -5.5551 C   0  0  0  0  0  0  0  0  0  0  0  0
    1.5986    0.2971   -7.5047 O   0  0  0  0  0  0  0  0  0  0  0  0
    3.8196    1.4341   -7.0589 O   0  0  0  0  0  0  0  0  0  0  0  0
    1.8774    1.6679   -5.4170 O   0  0  0  0  0  0  0  0  0  0  0  0
    2.0715   -1.3288   -5.0207 F   0  0  0  0  0  0  0  0  0  0  0  0
    3.7597   -1.5451   -6.3889 F   0  0  0  0  0  0  0  0  0  0  0  0
    3.9825   -0.3770   -4.5590 F   0  0  0  0  0  0  0  0  0  0  0  0
   -3.9822   -1.1388   -5.5918 O   0  0  0  0  0  0  0  0  0  0  0  0
   -5.2420   -0.9672   -4.9381 C   0  0  0  0  0  0  0  0  0  0  0  0
   -5.7315   -1.9435   -4.9847 H   0  0  0  0  0  0  0  0  0  0  0  0
   -5.8580   -0.2210   -5.4615 H   0  0  0  0  0  0  0  0  0  0  0  0
   -5.1022   -0.6746   -3.8870 H   0  0  0  0  0  0  0  0  0  0  0  0
  1  6  1  0  0  0  0
  2  1  2  0  0  0  0
  2  3  1  0  0  0  0
  3  4  2  0  0  0  0
  4  5  1  0  0  0  0
  4  9  1  0  0  0  0
  5 10  1  0  0  0  0
  6 21  1  0  0  0  0
  6  5  2  0  0  0  0
  7  1  1  0  0  0  0
  8  2  1  0  0  0  0
 12 11  3  0  0  0  0
 13 14  1  0  0  0  0
 13 17  1  0  0  0  0
 14 18  1  0  0  0  0
 14 20  1  0  0  0  0
 15 13  2  0  0  0  0
 16 13  2  0  0  0  0
 19 14  1  0  0  0  0
 21 22  1  0  0  0  0
 22 25  1  0  0  0  0
 23 22  1  0  0  0  0
 24 22  1  0  0  0  0
M  RAD  2   3   2  17   2
M  END
