Coordinates from ORCA-job p-CH3O-Ph-N2-OTf-B3LYPG-aug-cc-pVDZ-scan-d29-49-n200
 OpenBabel01151817073D

 25 24  0  0  0  0  0  0  0  0999 V2000
   -2.1517   -0.0663   -7.2931 C   0  0  0  0  0  0  0  0  0  0  0  0
   -0.8248    0.3468   -7.3177 C   0  0  0  0  0  0  0  0  0  0  0  0
   -0.2219    0.7711   -6.1306 C   0  0  0  0  0  0  0  0  0  0  0  0
   -0.9287    0.8036   -4.9347 C   0  0  0  0  0  0  0  0  0  0  0  0
   -2.2673    0.3957   -4.9093 C   0  0  0  0  0  0  0  0  0  0  0  0
   -2.8802   -0.0474   -6.0906 C   0  0  0  0  0  0  0  0  0  0  0  0
   -2.6471   -0.4060   -8.2013 H   0  0  0  0  0  0  0  0  0  0  0  0
   -0.2588    0.3438   -8.2471 H   0  0  0  0  0  0  0  0  0  0  0  0
   -0.4442    1.1604   -4.0274 H   0  0  0  0  0  0  0  0  0  0  0  0
   -2.8107    0.4307   -3.9688 H   0  0  0  0  0  0  0  0  0  0  0  0
   -1.9451    4.9616   -7.1702 N   0  0  0  0  0  0  0  0  0  0  0  0
   -3.0307    5.1284   -7.0542 N   0  0  0  0  0  0  0  0  0  0  0  0
    2.3950    0.2677   -6.3239 S   0  0  0  0  0  0  0  0  0  0  0  0
    2.8200   -0.0450   -4.4930 C   0  0  0  0  0  0  0  0  0  0  0  0
    1.9836   -1.0234   -6.8999 O   0  0  0  0  0  0  0  0  0  0  0  0
    3.4770    1.0967   -6.8691 O   0  0  0  0  0  0  0  0  0  0  0  0
    1.0894    1.2958   -6.1499 O   0  0  0  0  0  0  0  0  0  0  0  0
    1.8210   -0.7081   -3.8996 F   0  0  0  0  0  0  0  0  0  0  0  0
    3.9349   -0.7781   -4.4429 F   0  0  0  0  0  0  0  0  0  0  0  0
    3.0173    1.1182   -3.8691 F   0  0  0  0  0  0  0  0  0  0  0  0
   -4.1729   -0.4714   -6.1777 O   0  0  0  0  0  0  0  0  0  0  0  0
   -4.9652   -0.4746   -4.9931 C   0  0  0  0  0  0  0  0  0  0  0  0
   -5.9477   -0.8489   -5.2951 H   0  0  0  0  0  0  0  0  0  0  0  0
   -5.0702    0.5409   -4.5818 H   0  0  0  0  0  0  0  0  0  0  0  0
   -4.5367   -1.1419   -4.2299 H   0  0  0  0  0  0  0  0  0  0  0  0
  1  6  1  0  0  0  0
  2  1  2  0  0  0  0
  2  3  1  0  0  0  0
  3  4  2  0  0  0  0
  4  5  1  0  0  0  0
  4  9  1  0  0  0  0
  5 10  1  0  0  0  0
  6  5  2  0  0  0  0
  7  1  1  0  0  0  0
  8  2  1  0  0  0  0
 11 12  3  0  0  0  0
 13 17  1  0  0  0  0
 13 14  1  0  0  0  0
 14 19  1  0  0  0  0
 14 18  1  0  0  0  0
 14 20  1  0  0  0  0
 15 13  2  0  0  0  0
 16 13  2  0  0  0  0
 17  3  1  0  0  0  0
 21  6  1  0  0  0  0
 21 22  1  0  0  0  0
 22 24  1  0  0  0  0
 22 25  1  0  0  0  0
 23 22  1  0  0  0  0
M  END
