Coordinates from ORCA-job p-CH3O-Ph-N2-OTf-B3LYPG-aug-cc-pVDZ-scan-d09-29-n200
 OpenBabel01151817073D

 25 24  0  0  0  0  0  0  0  0999 V2000
   -1.8971   -0.4203   -6.4294 C   0  0  0  0  0  0  0  0  0  0  0  0
   -0.9416    0.5424   -6.7089 C   0  0  0  0  0  0  0  0  0  0  0  0
   -1.2190    1.8193   -6.2301 C   0  0  0  0  0  0  0  0  0  0  0  0
   -2.3319    2.2099   -5.4970 C   0  0  0  0  0  0  0  0  0  0  0  0
   -3.2731    1.2194   -5.2267 C   0  0  0  0  0  0  0  0  0  0  0  0
   -3.0585   -0.0958   -5.6929 C   0  0  0  0  0  0  0  0  0  0  0  0
   -1.7549   -1.4479   -6.7582 H   0  0  0  0  0  0  0  0  0  0  0  0
   -0.0038    0.3490   -7.2336 H   0  0  0  0  0  0  0  0  0  0  0  0
   -2.4631    3.2297   -5.1434 H   0  0  0  0  0  0  0  0  0  0  0  0
   -4.1578    1.4796   -4.6532 H   0  0  0  0  0  0  0  0  0  0  0  0
   -0.1892    2.9415   -6.5348 N   0  0  0  0  0  0  0  0  0  0  0  0
    0.4372    3.8194   -6.7809 N   0  0  0  0  0  0  0  0  0  0  0  0
    2.5681    1.1618   -6.0896 S   0  0  0  0  0  0  0  0  0  0  0  0
    2.8316   -0.6660   -5.6518 C   0  0  0  0  0  0  0  0  0  0  0  0
    1.9185    1.0919   -7.4577 O   0  0  0  0  0  0  0  0  0  0  0  0
    3.9291    1.7550   -6.0432 O   0  0  0  0  0  0  0  0  0  0  0  0
    1.5950    1.6303   -5.0314 O   0  0  0  0  0  0  0  0  0  0  0  0
    1.6516   -1.3377   -5.6980 F   0  0  0  0  0  0  0  0  0  0  0  0
    3.6732   -1.2522   -6.5195 F   0  0  0  0  0  0  0  0  0  0  0  0
    3.3332   -0.7978   -4.4128 F   0  0  0  0  0  0  0  0  0  0  0  0
   -3.9086   -1.1167   -5.4797 O   0  0  0  0  0  0  0  0  0  0  0  0
   -5.0994   -0.8912   -4.7152 C   0  0  0  0  0  0  0  0  0  0  0  0
   -5.6058   -1.8589   -4.6759 H   0  0  0  0  0  0  0  0  0  0  0  0
   -5.7476   -0.1538   -5.2096 H   0  0  0  0  0  0  0  0  0  0  0  0
   -4.8520   -0.5607   -3.6966 H   0  0  0  0  0  0  0  0  0  0  0  0
  1  6  1  0  0  0  0
  2  1  2  0  0  0  0
  2  3  1  0  0  0  0
  3  4  2  0  0  0  0
  4  5  1  0  0  0  0
  4  9  1  0  0  0  0
  5 10  1  0  0  0  0
  6 21  1  0  0  0  0
  6  5  2  0  0  0  0
  7  1  1  0  0  0  0
  8  2  1  0  0  0  0
 11  3  1  0  0  0  0
 12 11  1  0  0  0  0
 13 16  2  0  0  0  0
 13 14  1  0  0  0  0
 13 17  1  0  0  0  0
 14 20  1  0  0  0  0
 15 13  2  0  0  0  0
 18 14  1  0  0  0  0
 19 14  1  0  0  0  0
 21 22  1  0  0  0  0
 22 23  1  0  0  0  0
 22 25  1  0  0  0  0
 24 22  1  0  0  0  0
M  RAD  3  11   2  12   3  17   2
M  END
