Coordinates from ORCA-job p-CH3O-Ph-N2-OTf-B3LYPG-aug-cc-pVDZ-scan-d29-49-n200
 OpenBabel01151817073D

 25 24  0  0  0  0  0  0  0  0999 V2000
   -2.2132   -0.0385   -7.3018 C   0  0  0  0  0  0  0  0  0  0  0  0
   -0.8968    0.4065   -7.3347 C   0  0  0  0  0  0  0  0  0  0  0  0
   -0.2991    0.8500   -6.1523 C   0  0  0  0  0  0  0  0  0  0  0  0
   -0.9997    0.8683   -4.9525 C   0  0  0  0  0  0  0  0  0  0  0  0
   -2.3281    0.4288   -4.9191 C   0  0  0  0  0  0  0  0  0  0  0  0
   -2.9363   -0.0321   -6.0959 C   0  0  0  0  0  0  0  0  0  0  0  0
   -2.7046   -0.3936   -8.2063 H   0  0  0  0  0  0  0  0  0  0  0  0
   -0.3351    0.4131   -8.2666 H   0  0  0  0  0  0  0  0  0  0  0  0
   -0.5187    1.2385   -4.0488 H   0  0  0  0  0  0  0  0  0  0  0  0
   -2.8672    0.4531   -3.9758 H   0  0  0  0  0  0  0  0  0  0  0  0
   -1.2898    4.1424   -6.9214 N   0  0  0  0  0  0  0  0  0  0  0  0
   -2.3164    4.5470   -6.8756 N   0  0  0  0  0  0  0  0  0  0  0  0
    2.3268    0.4069   -6.3630 S   0  0  0  0  0  0  0  0  0  0  0  0
    2.7636    0.0893   -4.5357 C   0  0  0  0  0  0  0  0  0  0  0  0
    1.9433   -0.8888   -6.9479 O   0  0  0  0  0  0  0  0  0  0  0  0
    3.3888    1.2637   -6.9046 O   0  0  0  0  0  0  0  0  0  0  0  0
    1.0000    1.4041   -6.1782 O   0  0  0  0  0  0  0  0  0  0  0  0
    1.7814   -0.6011   -3.9452 F   0  0  0  0  0  0  0  0  0  0  0  0
    3.8950   -0.6186   -4.4941 F   0  0  0  0  0  0  0  0  0  0  0  0
    2.9361    1.2516   -3.9027 F   0  0  0  0  0  0  0  0  0  0  0  0
   -4.2191   -0.4865   -6.1754 O   0  0  0  0  0  0  0  0  0  0  0  0
   -5.0056   -0.5039   -4.9871 C   0  0  0  0  0  0  0  0  0  0  0  0
   -5.9807   -0.9016   -5.2832 H   0  0  0  0  0  0  0  0  0  0  0  0
   -5.1318    0.5104   -4.5786 H   0  0  0  0  0  0  0  0  0  0  0  0
   -4.5584   -1.1587   -4.2237 H   0  0  0  0  0  0  0  0  0  0  0  0
  1  6  1  0  0  0  0
  2  1  2  0  0  0  0
  2  3  1  0  0  0  0
  3  4  2  0  0  0  0
  4  5  1  0  0  0  0
  4  9  1  0  0  0  0
  5 10  1  0  0  0  0
  6  5  2  0  0  0  0
  7  1  1  0  0  0  0
  8  2  1  0  0  0  0
 11 12  3  0  0  0  0
 13 17  1  0  0  0  0
 13 14  1  0  0  0  0
 14 19  1  0  0  0  0
 14 18  1  0  0  0  0
 14 20  1  0  0  0  0
 15 13  2  0  0  0  0
 16 13  2  0  0  0  0
 17  3  1  0  0  0  0
 21  6  1  0  0  0  0
 21 22  1  0  0  0  0
 22 24  1  0  0  0  0
 22 25  1  0  0  0  0
 23 22  1  0  0  0  0
M  END
