Coordinates from ORCA-job p-CH3O-Ph-N2-OTf-B3LYPG-aug-cc-pVDZ-scan-d09-29-n200
 OpenBabel01151817073D

 25 24  0  0  0  0  0  0  0  0999 V2000
   -1.9251   -0.4175   -6.4259 C   0  0  0  0  0  0  0  0  0  0  0  0
   -0.9449    0.5420   -6.6723 C   0  0  0  0  0  0  0  0  0  0  0  0
   -1.2600    1.7709   -6.1527 C   0  0  0  0  0  0  0  0  0  0  0  0
   -2.3391    2.1998   -5.4235 C   0  0  0  0  0  0  0  0  0  0  0  0
   -3.2969    1.2017   -5.1945 C   0  0  0  0  0  0  0  0  0  0  0  0
   -3.0910   -0.0996   -5.6953 C   0  0  0  0  0  0  0  0  0  0  0  0
   -1.7880   -1.4360   -6.7849 H   0  0  0  0  0  0  0  0  0  0  0  0
    0.0031    0.3575   -7.1916 H   0  0  0  0  0  0  0  0  0  0  0  0
   -2.4545    3.2118   -5.0465 H   0  0  0  0  0  0  0  0  0  0  0  0
   -4.1849    1.4603   -4.6251 H   0  0  0  0  0  0  0  0  0  0  0  0
   -0.0823    3.0471   -6.4650 N   0  0  0  0  0  0  0  0  0  0  0  0
    0.4440    3.9804   -6.7295 N   0  0  0  0  0  0  0  0  0  0  0  0
    2.5764    1.1116   -6.2083 S   0  0  0  0  0  0  0  0  0  0  0  0
    2.9046   -0.6568   -5.6041 C   0  0  0  0  0  0  0  0  0  0  0  0
    1.8776    0.8955   -7.5349 O   0  0  0  0  0  0  0  0  0  0  0  0
    3.9174    1.7459   -6.2711 O   0  0  0  0  0  0  0  0  0  0  0  0
    1.6294    1.6546   -5.1576 O   0  0  0  0  0  0  0  0  0  0  0  0
    1.7422   -1.3528   -5.5365 F   0  0  0  0  0  0  0  0  0  0  0  0
    3.7276   -1.3045   -6.4449 F   0  0  0  0  0  0  0  0  0  0  0  0
    3.4580   -0.6520   -4.3803 F   0  0  0  0  0  0  0  0  0  0  0  0
   -3.9575   -1.1204   -5.5221 O   0  0  0  0  0  0  0  0  0  0  0  0
   -5.1514   -0.8975   -4.7656 C   0  0  0  0  0  0  0  0  0  0  0  0
   -5.6745   -1.8571   -4.7573 H   0  0  0  0  0  0  0  0  0  0  0  0
   -5.7839   -0.1364   -5.2456 H   0  0  0  0  0  0  0  0  0  0  0  0
   -4.9120   -0.5982   -3.7350 H   0  0  0  0  0  0  0  0  0  0  0  0
  1  6  1  0  0  0  0
  2  1  2  0  0  0  0
  2  3  1  0  0  0  0
  3  4  2  0  0  0  0
  4  5  1  0  0  0  0
  4  9  1  0  0  0  0
  5 10  1  0  0  0  0
  6 21  1  0  0  0  0
  6  5  2  0  0  0  0
  7  1  1  0  0  0  0
  8  2  1  0  0  0  0
 11  3  1  0  0  0  0
 12 11  1  0  0  0  0
 13 14  1  0  0  0  0
 13 17  1  0  0  0  0
 14 18  1  0  0  0  0
 14 20  1  0  0  0  0
 15 13  2  0  0  0  0
 16 13  2  0  0  0  0
 19 14  1  0  0  0  0
 21 22  1  0  0  0  0
 22 23  1  0  0  0  0
 22 25  1  0  0  0  0
 24 22  1  0  0  0  0
M  RAD  3  11   2  12   3  17   2
M  END
