Coordinates from ORCA-job p-CH3O-Ph-N2-OTf-B3LYPG-aug-cc-pVDZ-scan-d29-49-n200
 OpenBabel01151817073D

 25 24  0  0  0  0  0  0  0  0999 V2000
   -2.1820   -0.0564   -7.2967 C   0  0  0  0  0  0  0  0  0  0  0  0
   -0.8606    0.3736   -7.3259 C   0  0  0  0  0  0  0  0  0  0  0  0
   -0.2602    0.8080   -6.1413 C   0  0  0  0  0  0  0  0  0  0  0  0
   -0.9641    0.8346   -4.9435 C   0  0  0  0  0  0  0  0  0  0  0  0
   -2.2974    0.4099   -4.9138 C   0  0  0  0  0  0  0  0  0  0  0  0
   -2.9077   -0.0438   -6.0924 C   0  0  0  0  0  0  0  0  0  0  0  0
   -2.6753   -0.4052   -8.2026 H   0  0  0  0  0  0  0  0  0  0  0  0
   -0.2967    0.3751   -8.2565 H   0  0  0  0  0  0  0  0  0  0  0  0
   -0.4815    1.1989   -4.0382 H   0  0  0  0  0  0  0  0  0  0  0  0
   -2.8387    0.4398   -3.9718 H   0  0  0  0  0  0  0  0  0  0  0  0
   -1.6200    4.5947   -7.0559 N   0  0  0  0  0  0  0  0  0  0  0  0
   -2.6822    4.8864   -6.9765 N   0  0  0  0  0  0  0  0  0  0  0  0
    2.3613    0.3330   -6.3425 S   0  0  0  0  0  0  0  0  0  0  0  0
    2.7916    0.0190   -4.5131 C   0  0  0  0  0  0  0  0  0  0  0  0
    1.9631   -0.9607   -6.9220 O   0  0  0  0  0  0  0  0  0  0  0  0
    3.4339    1.1749   -6.8865 O   0  0  0  0  0  0  0  0  0  0  0  0
    1.0455    1.3466   -6.1641 O   0  0  0  0  0  0  0  0  0  0  0  0
    1.8003   -0.6564   -3.9207 F   0  0  0  0  0  0  0  0  0  0  0  0
    3.9142   -0.7025   -4.4666 F   0  0  0  0  0  0  0  0  0  0  0  0
    2.9775    1.1822   -3.8857 F   0  0  0  0  0  0  0  0  0  0  0  0
   -4.1948   -0.4851   -6.1749 O   0  0  0  0  0  0  0  0  0  0  0  0
   -4.9839   -0.4959   -4.9883 C   0  0  0  0  0  0  0  0  0  0  0  0
   -5.9622   -0.8838   -5.2868 H   0  0  0  0  0  0  0  0  0  0  0  0
   -5.1012    0.5192   -4.5792 H   0  0  0  0  0  0  0  0  0  0  0  0
   -4.5448   -1.1557   -4.2246 H   0  0  0  0  0  0  0  0  0  0  0  0
  1  6  1  0  0  0  0
  2  1  2  0  0  0  0
  2  3  1  0  0  0  0
  3  4  2  0  0  0  0
  4  5  1  0  0  0  0
  4  9  1  0  0  0  0
  5 10  1  0  0  0  0
  6  5  2  0  0  0  0
  7  1  1  0  0  0  0
  8  2  1  0  0  0  0
 11 12  3  0  0  0  0
 13 17  1  0  0  0  0
 13 14  1  0  0  0  0
 14 19  1  0  0  0  0
 14 18  1  0  0  0  0
 14 20  1  0  0  0  0
 15 13  2  0  0  0  0
 16 13  2  0  0  0  0
 17  3  1  0  0  0  0
 21  6  1  0  0  0  0
 21 22  1  0  0  0  0
 22 24  1  0  0  0  0
 22 25  1  0  0  0  0
 23 22  1  0  0  0  0
M  END
