Coordinates from ORCA-job p-CH3O-Ph-N2-OTf-B3LYPG-aug-cc-pVDZ-scan-d09-29-n200
 OpenBabel01151817073D

 25 24  0  0  0  0  0  0  0  0999 V2000
   -1.9153   -0.4321   -6.4179 C   0  0  0  0  0  0  0  0  0  0  0  0
   -0.9397    0.5250   -6.6778 C   0  0  0  0  0  0  0  0  0  0  0  0
   -1.2440    1.7706   -6.1793 C   0  0  0  0  0  0  0  0  0  0  0  0
   -2.3321    2.1977   -5.4552 C   0  0  0  0  0  0  0  0  0  0  0  0
   -3.2879    1.2046   -5.2100 C   0  0  0  0  0  0  0  0  0  0  0  0
   -3.0811   -0.1044   -5.6911 C   0  0  0  0  0  0  0  0  0  0  0  0
   -1.7781   -1.4562   -6.7602 H   0  0  0  0  0  0  0  0  0  0  0  0
    0.0066    0.3359   -7.1939 H   0  0  0  0  0  0  0  0  0  0  0  0
   -2.4507    3.2148   -5.0924 H   0  0  0  0  0  0  0  0  0  0  0  0
   -4.1759    1.4693   -4.6436 H   0  0  0  0  0  0  0  0  0  0  0  0
   -0.0991    3.0056   -6.4988 N   0  0  0  0  0  0  0  0  0  0  0  0
    0.4546    3.9248   -6.7573 N   0  0  0  0  0  0  0  0  0  0  0  0
    2.5735    1.1448   -6.1532 S   0  0  0  0  0  0  0  0  0  0  0  0
    2.8747   -0.6553   -5.6333 C   0  0  0  0  0  0  0  0  0  0  0  0
    1.8886    1.0009   -7.4977 O   0  0  0  0  0  0  0  0  0  0  0  0
    3.9241    1.7619   -6.1709 O   0  0  0  0  0  0  0  0  0  0  0  0
    1.6203    1.6503   -5.0913 O   0  0  0  0  0  0  0  0  0  0  0  0
    1.7041   -1.3422   -5.6160 F   0  0  0  0  0  0  0  0  0  0  0  0
    3.7024   -1.2703   -6.4939 F   0  0  0  0  0  0  0  0  0  0  0  0
    3.4103   -0.7178   -4.4034 F   0  0  0  0  0  0  0  0  0  0  0  0
   -3.9459   -1.1225   -5.5015 O   0  0  0  0  0  0  0  0  0  0  0  0
   -5.1400   -0.8905   -4.7472 C   0  0  0  0  0  0  0  0  0  0  0  0
   -5.6608   -1.8512   -4.7241 H   0  0  0  0  0  0  0  0  0  0  0  0
   -5.7743   -0.1382   -5.2383 H   0  0  0  0  0  0  0  0  0  0  0  0
   -4.9001   -0.5753   -3.7216 H   0  0  0  0  0  0  0  0  0  0  0  0
  1  6  1  0  0  0  0
  2  1  2  0  0  0  0
  2  3  1  0  0  0  0
  3  4  2  0  0  0  0
  4  5  1  0  0  0  0
  4  9  1  0  0  0  0
  5 10  1  0  0  0  0
  6 21  1  0  0  0  0
  6  5  2  0  0  0  0
  7  1  1  0  0  0  0
  8  2  1  0  0  0  0
 11  3  1  0  0  0  0
 12 11  1  0  0  0  0
 13 14  1  0  0  0  0
 13 17  1  0  0  0  0
 14 18  1  0  0  0  0
 14 20  1  0  0  0  0
 15 13  2  0  0  0  0
 16 13  2  0  0  0  0
 19 14  1  0  0  0  0
 21 22  1  0  0  0  0
 22 23  1  0  0  0  0
 22 25  1  0  0  0  0
 24 22  1  0  0  0  0
M  RAD  3  11   2  12   3  17   2
M  END
