Coordinates from ORCA-job p-CH3O-Ph-N2-OTf-B3LYPG-aug-cc-pVDZ-scan-d09-29-n200
 OpenBabel01151817073D

 25 24  0  0  0  0  0  0  0  0999 V2000
   -1.8549   -0.3779   -6.4420 C   0  0  0  0  0  0  0  0  0  0  0  0
   -0.9375    0.6004   -6.7542 C   0  0  0  0  0  0  0  0  0  0  0  0
   -1.2031    1.9188   -6.3114 C   0  0  0  0  0  0  0  0  0  0  0  0
   -2.3502    2.2538   -5.5632 C   0  0  0  0  0  0  0  0  0  0  0  0
   -3.2568    1.2557   -5.2550 C   0  0  0  0  0  0  0  0  0  0  0  0
   -3.0138   -0.0681   -5.6931 C   0  0  0  0  0  0  0  0  0  0  0  0
   -1.6889   -1.4094   -6.7462 H   0  0  0  0  0  0  0  0  0  0  0  0
   -0.0048    0.4095   -7.2876 H   0  0  0  0  0  0  0  0  0  0  0  0
   -2.5094    3.2774   -5.2288 H   0  0  0  0  0  0  0  0  0  0  0  0
   -4.1397    1.5039   -4.6734 H   0  0  0  0  0  0  0  0  0  0  0  0
   -0.3259    2.8940   -6.5962 N   0  0  0  0  0  0  0  0  0  0  0  0
    0.3836    3.7182   -6.8402 N   0  0  0  0  0  0  0  0  0  0  0  0
    2.5226    1.1394   -5.9915 S   0  0  0  0  0  0  0  0  0  0  0  0
    2.7829   -0.7153   -5.6810 C   0  0  0  0  0  0  0  0  0  0  0  0
    1.9629    1.1654   -7.4001 O   0  0  0  0  0  0  0  0  0  0  0  0
    3.8714    1.7363   -5.8147 O   0  0  0  0  0  0  0  0  0  0  0  0
    1.4802    1.5115   -4.9640 O   0  0  0  0  0  0  0  0  0  0  0  0
    1.6155   -1.3923   -5.8516 F   0  0  0  0  0  0  0  0  0  0  0  0
    3.6827   -1.2289   -6.5365 F   0  0  0  0  0  0  0  0  0  0  0  0
    3.2084   -0.9417   -4.4265 F   0  0  0  0  0  0  0  0  0  0  0  0
   -3.8288   -1.0999   -5.4412 O   0  0  0  0  0  0  0  0  0  0  0  0
   -5.0169   -0.8955   -4.6607 C   0  0  0  0  0  0  0  0  0  0  0  0
   -5.4887   -1.8787   -4.5934 H   0  0  0  0  0  0  0  0  0  0  0  0
   -5.6946   -0.1911   -5.1623 H   0  0  0  0  0  0  0  0  0  0  0  0
   -4.7620   -0.5353   -3.6549 H   0  0  0  0  0  0  0  0  0  0  0  0
  1  6  1  0  0  0  0
  2  1  2  0  0  0  0
  2  3  1  0  0  0  0
  3  4  2  0  0  0  0
  4  5  1  0  0  0  0
  4  9  1  0  0  0  0
  5 10  1  0  0  0  0
  6 21  1  0  0  0  0
  6  5  2  0  0  0  0
  7  1  1  0  0  0  0
  8  2  1  0  0  0  0
 11  3  1  0  0  0  0
 12 11  1  0  0  0  0
 13 16  2  0  0  0  0
 13 14  1  0  0  0  0
 13 17  1  0  0  0  0
 14 20  1  0  0  0  0
 15 13  2  0  0  0  0
 18 14  1  0  0  0  0
 19 14  1  0  0  0  0
 21 22  1  0  0  0  0
 22 23  1  0  0  0  0
 22 25  1  0  0  0  0
 24 22  1  0  0  0  0
M  RAD  3  11   2  12   3  17   2
M  END
