Coordinates from ORCA-job p-CH3O-Ph-N2-OTf-B3LYPG-aug-cc-pVDZ-scan-d09-29-n200
 OpenBabel01151817073D

 25 24  0  0  0  0  0  0  0  0999 V2000
   -1.9301   -0.4073   -6.4258 C   0  0  0  0  0  0  0  0  0  0  0  0
   -0.9478    0.5541   -6.6630 C   0  0  0  0  0  0  0  0  0  0  0  0
   -1.2704    1.7741   -6.1333 C   0  0  0  0  0  0  0  0  0  0  0  0
   -2.3479    2.2034   -5.4049 C   0  0  0  0  0  0  0  0  0  0  0  0
   -3.3066    1.2023   -5.1870 C   0  0  0  0  0  0  0  0  0  0  0  0
   -3.0985   -0.0951   -5.6968 C   0  0  0  0  0  0  0  0  0  0  0  0
   -1.7912   -1.4229   -6.7924 H   0  0  0  0  0  0  0  0  0  0  0  0
    0.0034    0.3727   -7.1817 H   0  0  0  0  0  0  0  0  0  0  0  0
   -2.4634    3.2125   -5.0209 H   0  0  0  0  0  0  0  0  0  0  0  0
   -4.1965    1.4570   -4.6186 H   0  0  0  0  0  0  0  0  0  0  0  0
   -0.0790    3.0678   -6.4349 N   0  0  0  0  0  0  0  0  0  0  0  0
    0.4372    4.0078   -6.6961 N   0  0  0  0  0  0  0  0  0  0  0  0
    2.5772    1.0864   -6.2469 S   0  0  0  0  0  0  0  0  0  0  0  0
    2.9333   -0.6569   -5.5887 C   0  0  0  0  0  0  0  0  0  0  0  0
    1.8665    0.8192   -7.5574 O   0  0  0  0  0  0  0  0  0  0  0  0
    3.9086    1.7358   -6.3462 O   0  0  0  0  0  0  0  0  0  0  0  0
    1.6355    1.6507   -5.2021 O   0  0  0  0  0  0  0  0  0  0  0  0
    1.7801   -1.3623   -5.4828 F   0  0  0  0  0  0  0  0  0  0  0  0
    3.7530   -1.3229   -6.4185 F   0  0  0  0  0  0  0  0  0  0  0  0
    3.5026   -0.6048   -4.3733 F   0  0  0  0  0  0  0  0  0  0  0  0
   -3.9655   -1.1176   -5.5342 O   0  0  0  0  0  0  0  0  0  0  0  0
   -5.1619   -0.9001   -4.7803 C   0  0  0  0  0  0  0  0  0  0  0  0
   -5.6854   -1.8597   -4.7809 H   0  0  0  0  0  0  0  0  0  0  0  0
   -5.7926   -0.1354   -5.2567 H   0  0  0  0  0  0  0  0  0  0  0  0
   -4.9262   -0.6086   -3.7466 H   0  0  0  0  0  0  0  0  0  0  0  0
  1  6  1  0  0  0  0
  2  1  2  0  0  0  0
  2  3  1  0  0  0  0
  3  4  2  0  0  0  0
  4  5  1  0  0  0  0
  4  9  1  0  0  0  0
  5 10  1  0  0  0  0
  6 21  1  0  0  0  0
  6  5  2  0  0  0  0
  7  1  1  0  0  0  0
  8  2  1  0  0  0  0
 11  3  1  0  0  0  0
 12 11  1  0  0  0  0
 13 14  1  0  0  0  0
 13 17  1  0  0  0  0
 14 18  1  0  0  0  0
 14 20  1  0  0  0  0
 15 13  2  0  0  0  0
 16 13  2  0  0  0  0
 19 14  1  0  0  0  0
 21 22  1  0  0  0  0
 22 25  1  0  0  0  0
 23 22  1  0  0  0  0
 24 22  1  0  0  0  0
M  RAD  3  11   2  12   3  17   2
M  END
