Coordinates from ORCA-job p-CH3O-Ph-N2-OTf-B3LYPG-aug-cc-pVDZ-scan-d09-29-n200
 OpenBabel01151817073D

 25 24  0  0  0  0  0  0  0  0999 V2000
   -1.8861   -0.4105   -6.4300 C   0  0  0  0  0  0  0  0  0  0  0  0
   -0.9409    0.5564   -6.7173 C   0  0  0  0  0  0  0  0  0  0  0  0
   -1.2130    1.8469   -6.2501 C   0  0  0  0  0  0  0  0  0  0  0  0
   -2.3386    2.2206   -5.5148 C   0  0  0  0  0  0  0  0  0  0  0  0
   -3.2712    1.2289   -5.2353 C   0  0  0  0  0  0  0  0  0  0  0  0
   -3.0481   -0.0892   -5.6924 C   0  0  0  0  0  0  0  0  0  0  0  0
   -1.7376   -1.4396   -6.7513 H   0  0  0  0  0  0  0  0  0  0  0  0
   -0.0045    0.3634   -7.2441 H   0  0  0  0  0  0  0  0  0  0  0  0
   -2.4784    3.2416   -5.1669 H   0  0  0  0  0  0  0  0  0  0  0  0
   -4.1566    1.4859   -4.6616 H   0  0  0  0  0  0  0  0  0  0  0  0
   -0.2316    2.9189   -6.5442 N   0  0  0  0  0  0  0  0  0  0  0  0
    0.4174    3.7840   -6.7861 N   0  0  0  0  0  0  0  0  0  0  0  0
    2.5655    1.1603   -6.0674 S   0  0  0  0  0  0  0  0  0  0  0  0
    2.8197   -0.6761   -5.6601 C   0  0  0  0  0  0  0  0  0  0  0  0
    1.9309    1.1151   -7.4436 O   0  0  0  0  0  0  0  0  0  0  0  0
    3.9283    1.7473   -5.9973 O   0  0  0  0  0  0  0  0  0  0  0  0
    1.5836    1.6115   -5.0111 O   0  0  0  0  0  0  0  0  0  0  0  0
    1.6381   -1.3441   -5.7306 F   0  0  0  0  0  0  0  0  0  0  0  0
    3.6686   -1.2502   -6.5289 F   0  0  0  0  0  0  0  0  0  0  0  0
    3.3075   -0.8325   -4.4181 F   0  0  0  0  0  0  0  0  0  0  0  0
   -3.8892   -1.1129   -5.4694 O   0  0  0  0  0  0  0  0  0  0  0  0
   -5.0811   -0.8927   -4.7033 C   0  0  0  0  0  0  0  0  0  0  0  0
   -5.5782   -1.8648   -4.6568 H   0  0  0  0  0  0  0  0  0  0  0  0
   -5.7364   -0.1646   -5.2018 H   0  0  0  0  0  0  0  0  0  0  0  0
   -4.8338   -0.5534   -3.6878 H   0  0  0  0  0  0  0  0  0  0  0  0
  1  6  1  0  0  0  0
  2  1  2  0  0  0  0
  2  3  1  0  0  0  0
  3  4  2  0  0  0  0
  4  5  1  0  0  0  0
  4  9  1  0  0  0  0
  5 10  1  0  0  0  0
  6 21  1  0  0  0  0
  6  5  2  0  0  0  0
  7  1  1  0  0  0  0
  8  2  1  0  0  0  0
 11  3  1  0  0  0  0
 12 11  1  0  0  0  0
 13 16  2  0  0  0  0
 13 14  1  0  0  0  0
 13 17  1  0  0  0  0
 14 20  1  0  0  0  0
 15 13  2  0  0  0  0
 18 14  1  0  0  0  0
 19 14  1  0  0  0  0
 21 22  1  0  0  0  0
 22 23  1  0  0  0  0
 22 25  1  0  0  0  0
 24 22  1  0  0  0  0
M  RAD  3  11   2  12   3  17   2
M  END
