Coordinates from ORCA-job p-CH3O-Ph-N2-OTf-B3LYPG-aug-cc-pVDZ-scan-d09-29-n200
 OpenBabel01151817073D

 25 23  0  0  0  0  0  0  0  0999 V2000
   -1.8967   -0.3557   -6.3435 C   0  0  0  0  0  0  0  0  0  0  0  0
   -0.9217    0.6638   -6.4979 C   0  0  0  0  0  0  0  0  0  0  0  0
   -1.4134    1.7534   -5.9455 C   0  0  0  0  0  0  0  0  0  0  0  0
   -2.4838    2.2364   -5.2897 C   0  0  0  0  0  0  0  0  0  0  0  0
   -3.4155    1.1726   -5.1624 C   0  0  0  0  0  0  0  0  0  0  0  0
   -3.1214   -0.1037   -5.6869 C   0  0  0  0  0  0  0  0  0  0  0  0
   -1.6769   -1.3531   -6.7240 H   0  0  0  0  0  0  0  0  0  0  0  0
    0.1296    0.4815   -6.9665 H   0  0  0  0  0  0  0  0  0  0  0  0
   -2.6512    3.2395   -4.9129 H   0  0  0  0  0  0  0  0  0  0  0  0
   -4.3518    1.3889   -4.6540 H   0  0  0  0  0  0  0  0  0  0  0  0
    0.0052    3.7638   -6.2388 N   0  0  0  0  0  0  0  0  0  0  0  0
    0.6253    4.6668   -6.3673 N   0  0  0  0  0  0  0  0  0  0  0  0
    2.5654    0.8512   -6.4901 S   0  0  0  0  0  0  0  0  0  0  0  0
    3.0489   -0.7037   -5.5199 C   0  0  0  0  0  0  0  0  0  0  0  0
    1.5481    0.2866   -7.4999 O   0  0  0  0  0  0  0  0  0  0  0  0
    3.8218    1.3253   -7.1152 O   0  0  0  0  0  0  0  0  0  0  0  0
    1.9065    1.7260   -5.4674 O   0  0  0  0  0  0  0  0  0  0  0  0
    1.9515   -1.2623   -4.9617 F   0  0  0  0  0  0  0  0  0  0  0  0
    3.6205   -1.6115   -6.3263 F   0  0  0  0  0  0  0  0  0  0  0  0
    3.9107   -0.3935   -4.5388 F   0  0  0  0  0  0  0  0  0  0  0  0
   -3.9590   -1.1650   -5.6058 O   0  0  0  0  0  0  0  0  0  0  0  0
   -5.2116   -1.0032   -4.9370 C   0  0  0  0  0  0  0  0  0  0  0  0
   -5.7010   -1.9793   -4.9903 H   0  0  0  0  0  0  0  0  0  0  0  0
   -5.8341   -0.2511   -5.4444 H   0  0  0  0  0  0  0  0  0  0  0  0
   -5.0612   -0.7235   -3.8837 H   0  0  0  0  0  0  0  0  0  0  0  0
  1  6  1  0  0  0  0
  2  1  2  0  0  0  0
  2  3  1  0  0  0  0
  3  4  2  0  0  0  0
  4  5  1  0  0  0  0
  4  9  1  0  0  0  0
  5 10  1  0  0  0  0
  6 21  1  0  0  0  0
  6  5  2  0  0  0  0
  7  1  1  0  0  0  0
  8  2  1  0  0  0  0
 12 11  3  0  0  0  0
 13 14  1  0  0  0  0
 13 17  1  0  0  0  0
 14 18  1  0  0  0  0
 14 20  1  0  0  0  0
 15 13  2  0  0  0  0
 16 13  2  0  0  0  0
 19 14  1  0  0  0  0
 21 22  1  0  0  0  0
 22 25  1  0  0  0  0
 23 22  1  0  0  0  0
 24 22  1  0  0  0  0
M  RAD  2   3   2  17   2
M  END
