Coordinates from ORCA-job p-CH3O-Ph-N2-OTf-B3LYPG-aug-cc-pVDZ-scan-d09-29-n200
 OpenBabel01151817073D

 25 23  0  0  0  0  0  0  0  0999 V2000
   -1.9507   -0.3641   -6.3018 C   0  0  0  0  0  0  0  0  0  0  0  0
   -0.9506    0.6134   -6.4562 C   0  0  0  0  0  0  0  0  0  0  0  0
   -1.3810    1.7770   -5.9387 C   0  0  0  0  0  0  0  0  0  0  0  0
   -2.4893    2.2429   -5.3094 C   0  0  0  0  0  0  0  0  0  0  0  0
   -3.4512    1.2195   -5.1798 C   0  0  0  0  0  0  0  0  0  0  0  0
   -3.1811   -0.0724   -5.6750 C   0  0  0  0  0  0  0  0  0  0  0  0
   -1.7586   -1.3734   -6.6641 H   0  0  0  0  0  0  0  0  0  0  0  0
    0.0547    0.4111   -6.9110 H   0  0  0  0  0  0  0  0  0  0  0  0
   -2.6437    3.2533   -4.9451 H   0  0  0  0  0  0  0  0  0  0  0  0
   -4.3901    1.4662   -4.6915 H   0  0  0  0  0  0  0  0  0  0  0  0
   -0.0568    3.3078   -6.1551 N   0  0  0  0  0  0  0  0  0  0  0  0
    0.4728    4.2636   -6.3020 N   0  0  0  0  0  0  0  0  0  0  0  0
    2.5881    0.8697   -6.4944 S   0  0  0  0  0  0  0  0  0  0  0  0
    3.2660   -0.6454   -5.5783 C   0  0  0  0  0  0  0  0  0  0  0  0
    1.6516    0.2462   -7.5206 O   0  0  0  0  0  0  0  0  0  0  0  0
    3.7835    1.5468   -7.0563 O   0  0  0  0  0  0  0  0  0  0  0  0
    1.8303    1.6094   -5.4192 O   0  0  0  0  0  0  0  0  0  0  0  0
    2.2519   -1.3631   -5.0450 F   0  0  0  0  0  0  0  0  0  0  0  0
    3.9496   -1.4424   -6.4162 F   0  0  0  0  0  0  0  0  0  0  0  0
    4.0842   -0.2688   -4.5812 F   0  0  0  0  0  0  0  0  0  0  0  0
   -4.0455   -1.1088   -5.5923 O   0  0  0  0  0  0  0  0  0  0  0  0
   -5.3079   -0.9061   -4.9519 C   0  0  0  0  0  0  0  0  0  0  0  0
   -5.8188   -1.8712   -5.0005 H   0  0  0  0  0  0  0  0  0  0  0  0
   -5.9012   -0.1478   -5.4840 H   0  0  0  0  0  0  0  0  0  0  0  0
   -5.1719   -0.6132   -3.9004 H   0  0  0  0  0  0  0  0  0  0  0  0
  1  6  1  0  0  0  0
  2  1  2  0  0  0  0
  2  3  1  0  0  0  0
  3  4  2  0  0  0  0
  4  5  1  0  0  0  0
  4  9  1  0  0  0  0
  5 10  1  0  0  0  0
  6 21  1  0  0  0  0
  6  5  2  0  0  0  0
  7  1  1  0  0  0  0
  8  2  1  0  0  0  0
 12 11  3  0  0  0  0
 13 14  1  0  0  0  0
 13 17  1  0  0  0  0
 14 18  1  0  0  0  0
 14 20  1  0  0  0  0
 15 13  2  0  0  0  0
 16 13  2  0  0  0  0
 19 14  1  0  0  0  0
 21 22  1  0  0  0  0
 22 25  1  0  0  0  0
 23 22  1  0  0  0  0
 24 22  1  0  0  0  0
M  RAD  2   3   2  17   2
M  END
