Coordinates from ORCA-job p-CH3O-Ph-N2-OTf-B3LYPG-aug-cc-pVDZ-scan-d09-29-n200
 OpenBabel01151817073D

 25 23  0  0  0  0  0  0  0  0999 V2000
   -1.9140   -0.3426   -6.3159 C   0  0  0  0  0  0  0  0  0  0  0  0
   -0.9329    0.6616   -6.4773 C   0  0  0  0  0  0  0  0  0  0  0  0
   -1.4040    1.7886   -5.9485 C   0  0  0  0  0  0  0  0  0  0  0  0
   -2.4991    2.2558   -5.3092 C   0  0  0  0  0  0  0  0  0  0  0  0
   -3.4384    1.2067   -5.1762 C   0  0  0  0  0  0  0  0  0  0  0  0
   -3.1448   -0.0780   -5.6781 C   0  0  0  0  0  0  0  0  0  0  0  0
   -1.6979   -1.3465   -6.6807 H   0  0  0  0  0  0  0  0  0  0  0  0
    0.0919    0.4711   -6.9371 H   0  0  0  0  0  0  0  0  0  0  0  0
   -2.6670    3.2634   -4.9442 H   0  0  0  0  0  0  0  0  0  0  0  0
   -4.3782    1.4342   -4.6800 H   0  0  0  0  0  0  0  0  0  0  0  0
   -0.0466    3.4836   -6.2033 N   0  0  0  0  0  0  0  0  0  0  0  0
    0.5215    4.4156   -6.3588 N   0  0  0  0  0  0  0  0  0  0  0  0
    2.5785    0.8652   -6.4761 S   0  0  0  0  0  0  0  0  0  0  0  0
    3.1544   -0.6902   -5.5584 C   0  0  0  0  0  0  0  0  0  0  0  0
    1.6035    0.2909   -7.5069 O   0  0  0  0  0  0  0  0  0  0  0  0
    3.8120    1.4495   -7.0561 O   0  0  0  0  0  0  0  0  0  0  0  0
    1.8658    1.6559   -5.4146 O   0  0  0  0  0  0  0  0  0  0  0  0
    2.0934   -1.3377   -5.0259 F   0  0  0  0  0  0  0  0  0  0  0  0
    3.7849   -1.5319   -6.3934 F   0  0  0  0  0  0  0  0  0  0  0  0
    3.9931   -0.3651   -4.5609 F   0  0  0  0  0  0  0  0  0  0  0  0
   -3.9870   -1.1335   -5.5913 O   0  0  0  0  0  0  0  0  0  0  0  0
   -5.2472   -0.9580   -4.9393 C   0  0  0  0  0  0  0  0  0  0  0  0
   -5.7391   -1.9331   -4.9852 H   0  0  0  0  0  0  0  0  0  0  0  0
   -5.8607   -0.2109   -5.4644 H   0  0  0  0  0  0  0  0  0  0  0  0
   -5.1078   -0.6644   -3.8884 H   0  0  0  0  0  0  0  0  0  0  0  0
  1  6  1  0  0  0  0
  2  1  2  0  0  0  0
  2  3  1  0  0  0  0
  3  4  2  0  0  0  0
  4  5  1  0  0  0  0
  4  9  1  0  0  0  0
  5 10  1  0  0  0  0
  6 21  1  0  0  0  0
  6  5  2  0  0  0  0
  7  1  1  0  0  0  0
  8  2  1  0  0  0  0
 12 11  3  0  0  0  0
 13 14  1  0  0  0  0
 13 17  1  0  0  0  0
 14 18  1  0  0  0  0
 14 20  1  0  0  0  0
 15 13  2  0  0  0  0
 16 13  2  0  0  0  0
 19 14  1  0  0  0  0
 21 22  1  0  0  0  0
 22 25  1  0  0  0  0
 23 22  1  0  0  0  0
 24 22  1  0  0  0  0
M  RAD  2   3   2  17   2
M  END
