Coordinates from ORCA-job p-CH3O-Ph-N2-OTf-B3LYPG-aug-cc-pVDZ-scan-d29-49-n200
 OpenBabel01151817073D

 25 24  0  0  0  0  0  0  0  0999 V2000
   -2.2313   -0.0125   -7.3071 C   0  0  0  0  0  0  0  0  0  0  0  0
   -0.9198    0.4461   -7.3419 C   0  0  0  0  0  0  0  0  0  0  0  0
   -0.3272    0.9034   -6.1625 C   0  0  0  0  0  0  0  0  0  0  0  0
   -1.0232    0.9065   -4.9604 C   0  0  0  0  0  0  0  0  0  0  0  0
   -2.3472    0.4543   -4.9244 C   0  0  0  0  0  0  0  0  0  0  0  0
   -2.9538   -0.0109   -6.1007 C   0  0  0  0  0  0  0  0  0  0  0  0
   -2.7197   -0.3752   -8.2102 H   0  0  0  0  0  0  0  0  0  0  0  0
   -0.3592    0.4551   -8.2743 H   0  0  0  0  0  0  0  0  0  0  0  0
   -0.5435    1.2779   -4.0565 H   0  0  0  0  0  0  0  0  0  0  0  0
   -2.8842    0.4709   -3.9798 H   0  0  0  0  0  0  0  0  0  0  0  0
   -1.0704    3.7083   -6.7978 N   0  0  0  0  0  0  0  0  0  0  0  0
   -2.0598    4.1993   -6.7897 N   0  0  0  0  0  0  0  0  0  0  0  0
    2.2988    0.4660   -6.3788 S   0  0  0  0  0  0  0  0  0  0  0  0
    2.7395    0.1396   -4.5539 C   0  0  0  0  0  0  0  0  0  0  0  0
    1.9194   -0.8279   -6.9703 O   0  0  0  0  0  0  0  0  0  0  0  0
    3.3580    1.3285   -6.9168 O   0  0  0  0  0  0  0  0  0  0  0  0
    0.9705    1.4589   -6.1875 O   0  0  0  0  0  0  0  0  0  0  0  0
    1.7603   -0.5564   -3.9651 F   0  0  0  0  0  0  0  0  0  0  0  0
    3.8726   -0.5659   -4.5185 F   0  0  0  0  0  0  0  0  0  0  0  0
    2.9107    1.2988   -3.9147 F   0  0  0  0  0  0  0  0  0  0  0  0
   -4.2323   -0.4765   -6.1783 O   0  0  0  0  0  0  0  0  0  0  0  0
   -5.0177   -0.4989   -4.9892 C   0  0  0  0  0  0  0  0  0  0  0  0
   -5.9902   -0.9036   -5.2844 H   0  0  0  0  0  0  0  0  0  0  0  0
   -5.1505    0.5146   -4.5812 H   0  0  0  0  0  0  0  0  0  0  0  0
   -4.5653   -1.1504   -4.2261 H   0  0  0  0  0  0  0  0  0  0  0  0
  1  6  1  0  0  0  0
  2  1  2  0  0  0  0
  2  3  1  0  0  0  0
  3  4  2  0  0  0  0
  4  5  1  0  0  0  0
  4  9  1  0  0  0  0
  5 10  1  0  0  0  0
  6  5  2  0  0  0  0
  7  1  1  0  0  0  0
  8  2  1  0  0  0  0
 11 12  3  0  0  0  0
 13 17  1  0  0  0  0
 13 14  1  0  0  0  0
 14 19  1  0  0  0  0
 14 18  1  0  0  0  0
 14 20  1  0  0  0  0
 15 13  2  0  0  0  0
 16 13  2  0  0  0  0
 17  3  1  0  0  0  0
 21  6  1  0  0  0  0
 21 22  1  0  0  0  0
 22 24  1  0  0  0  0
 22 25  1  0  0  0  0
 23 22  1  0  0  0  0
M  END
