Coordinates from ORCA-job p-CH3O-Ph-N2-OTf-B3LYPG-aug-cc-pVDZ-scan-d29-49-n200
 OpenBabel01151817073D

 25 24  0  0  0  0  0  0  0  0999 V2000
   -2.2050   -0.0436   -7.3006 C   0  0  0  0  0  0  0  0  0  0  0  0
   -0.8872    0.3972   -7.3326 C   0  0  0  0  0  0  0  0  0  0  0  0
   -0.2885    0.8376   -6.1494 C   0  0  0  0  0  0  0  0  0  0  0  0
   -0.9900    0.8585   -4.9502 C   0  0  0  0  0  0  0  0  0  0  0  0
   -2.3198    0.4231   -4.9177 C   0  0  0  0  0  0  0  0  0  0  0  0
   -2.9286   -0.0359   -6.0950 C   0  0  0  0  0  0  0  0  0  0  0  0
   -2.6970   -0.3971   -8.2054 H   0  0  0  0  0  0  0  0  0  0  0  0
   -0.3249    0.4026   -8.2641 H   0  0  0  0  0  0  0  0  0  0  0  0
   -0.5085    1.2270   -4.0460 H   0  0  0  0  0  0  0  0  0  0  0  0
   -2.8594    0.4488   -3.9747 H   0  0  0  0  0  0  0  0  0  0  0  0
   -1.3797    4.2726   -6.9591 N   0  0  0  0  0  0  0  0  0  0  0  0
   -2.4171    4.6474   -6.9039 N   0  0  0  0  0  0  0  0  0  0  0  0
    2.3363    0.3854   -6.3572 S   0  0  0  0  0  0  0  0  0  0  0  0
    2.7716    0.0704   -4.5291 C   0  0  0  0  0  0  0  0  0  0  0  0
    1.9484   -0.9102   -6.9393 O   0  0  0  0  0  0  0  0  0  0  0  0
    3.4011    1.2375   -6.9004 O   0  0  0  0  0  0  0  0  0  0  0  0
    1.0125    1.3874   -6.1745 O   0  0  0  0  0  0  0  0  0  0  0  0
    1.7867   -0.6148   -3.9371 F   0  0  0  0  0  0  0  0  0  0  0  0
    3.9002   -0.6418   -4.4858 F   0  0  0  0  0  0  0  0  0  0  0  0
    2.9486    1.2335   -3.8988 F   0  0  0  0  0  0  0  0  0  0  0  0
   -4.2125   -0.4870   -6.1752 O   0  0  0  0  0  0  0  0  0  0  0  0
   -4.9996   -0.5029   -4.9873 C   0  0  0  0  0  0  0  0  0  0  0  0
   -5.9755   -0.8981   -5.2840 H   0  0  0  0  0  0  0  0  0  0  0  0
   -5.1236    0.5115   -4.5785 H   0  0  0  0  0  0  0  0  0  0  0  0
   -4.5543   -1.1590   -4.2240 H   0  0  0  0  0  0  0  0  0  0  0  0
  1  6  1  0  0  0  0
  2  1  2  0  0  0  0
  2  3  1  0  0  0  0
  3  4  2  0  0  0  0
  4  5  1  0  0  0  0
  4  9  1  0  0  0  0
  5 10  1  0  0  0  0
  6  5  2  0  0  0  0
  7  1  1  0  0  0  0
  8  2  1  0  0  0  0
 11 12  3  0  0  0  0
 13 17  1  0  0  0  0
 13 14  1  0  0  0  0
 14 19  1  0  0  0  0
 14 18  1  0  0  0  0
 14 20  1  0  0  0  0
 15 13  2  0  0  0  0
 16 13  2  0  0  0  0
 17  3  1  0  0  0  0
 21  6  1  0  0  0  0
 21 22  1  0  0  0  0
 22 24  1  0  0  0  0
 22 25  1  0  0  0  0
 23 22  1  0  0  0  0
M  END
