Coordinates from ORCA-job p-CH3O-Ph-N2-OTf-B3LYPG-aug-cc-pVDZ-scan-d29-49-n200
 OpenBabel01151817073D

 25 24  0  0  0  0  0  0  0  0999 V2000
   -2.1886   -0.0531   -7.2978 C   0  0  0  0  0  0  0  0  0  0  0  0
   -0.8683    0.3802   -7.3278 C   0  0  0  0  0  0  0  0  0  0  0  0
   -0.2683    0.8163   -6.1436 C   0  0  0  0  0  0  0  0  0  0  0  0
   -0.9716    0.8415   -4.9454 C   0  0  0  0  0  0  0  0  0  0  0  0
   -2.3039    0.4137   -4.9149 C   0  0  0  0  0  0  0  0  0  0  0  0
   -2.9136   -0.0419   -6.0930 C   0  0  0  0  0  0  0  0  0  0  0  0
   -2.6815   -0.4035   -8.2033 H   0  0  0  0  0  0  0  0  0  0  0  0
   -0.3049    0.3827   -8.2587 H   0  0  0  0  0  0  0  0  0  0  0  0
   -0.4893    1.2072   -4.0406 H   0  0  0  0  0  0  0  0  0  0  0  0
   -2.8446    0.4424   -3.9726 H   0  0  0  0  0  0  0  0  0  0  0  0
   -1.5509    4.5062   -7.0291 N   0  0  0  0  0  0  0  0  0  0  0  0
   -2.6065    4.8229   -6.9569 N   0  0  0  0  0  0  0  0  0  0  0  0
    2.3541    0.3477   -6.3467 S   0  0  0  0  0  0  0  0  0  0  0  0
    2.7857    0.0333   -4.5176 C   0  0  0  0  0  0  0  0  0  0  0  0
    1.9588   -0.9466   -6.9269 O   0  0  0  0  0  0  0  0  0  0  0  0
    3.4246    1.1925   -6.8903 O   0  0  0  0  0  0  0  0  0  0  0  0
    1.0361    1.3581   -6.1671 O   0  0  0  0  0  0  0  0  0  0  0  0
    1.7961   -0.6448   -3.9254 F   0  0  0  0  0  0  0  0  0  0  0  0
    3.9099   -0.6857   -4.4719 F   0  0  0  0  0  0  0  0  0  0  0  0
    2.9691    1.1965   -3.8893 F   0  0  0  0  0  0  0  0  0  0  0  0
   -4.1997   -0.4865   -6.1748 O   0  0  0  0  0  0  0  0  0  0  0  0
   -4.9882   -0.4988   -4.9877 C   0  0  0  0  0  0  0  0  0  0  0  0
   -5.9657   -0.8892   -5.2856 H   0  0  0  0  0  0  0  0  0  0  0  0
   -5.1077    0.5161   -4.5789 H   0  0  0  0  0  0  0  0  0  0  0  0
   -4.5470   -1.1572   -4.2241 H   0  0  0  0  0  0  0  0  0  0  0  0
  1  6  1  0  0  0  0
  2  1  2  0  0  0  0
  2  3  1  0  0  0  0
  3  4  2  0  0  0  0
  4  5  1  0  0  0  0
  4  9  1  0  0  0  0
  5 10  1  0  0  0  0
  6  5  2  0  0  0  0
  7  1  1  0  0  0  0
  8  2  1  0  0  0  0
 11 12  3  0  0  0  0
 13 17  1  0  0  0  0
 13 14  1  0  0  0  0
 14 19  1  0  0  0  0
 14 18  1  0  0  0  0
 14 20  1  0  0  0  0
 15 13  2  0  0  0  0
 16 13  2  0  0  0  0
 17  3  1  0  0  0  0
 21  6  1  0  0  0  0
 21 22  1  0  0  0  0
 22 24  1  0  0  0  0
 22 25  1  0  0  0  0
 23 22  1  0  0  0  0
M  END
