Coordinates from ORCA-job p-CH3O-Ph-N2-OTf-B3LYPG-aug-cc-pVDZ-scan-d09-29-n200
 OpenBabel01151817073D

 25 23  0  0  0  0  0  0  0  0999 V2000
   -1.8987   -0.3456   -6.3326 C   0  0  0  0  0  0  0  0  0  0  0  0
   -0.9254    0.6714   -6.4936 C   0  0  0  0  0  0  0  0  0  0  0  0
   -1.4146    1.7734   -5.9516 C   0  0  0  0  0  0  0  0  0  0  0  0
   -2.4943    2.2495   -5.3026 C   0  0  0  0  0  0  0  0  0  0  0  0
   -3.4248    1.1876   -5.1697 C   0  0  0  0  0  0  0  0  0  0  0  0
   -3.1263   -0.0920   -5.6828 C   0  0  0  0  0  0  0  0  0  0  0  0
   -1.6763   -1.3457   -6.7046 H   0  0  0  0  0  0  0  0  0  0  0  0
    0.1154    0.4907   -6.9585 H   0  0  0  0  0  0  0  0  0  0  0  0
   -2.6654    3.2544   -4.9322 H   0  0  0  0  0  0  0  0  0  0  0  0
   -4.3629    1.4056   -4.6655 H   0  0  0  0  0  0  0  0  0  0  0  0
   -0.0184    3.6516   -6.2344 N   0  0  0  0  0  0  0  0  0  0  0  0
    0.5811    4.5664   -6.3747 N   0  0  0  0  0  0  0  0  0  0  0  0
    2.5735    0.8599   -6.4767 S   0  0  0  0  0  0  0  0  0  0  0  0
    3.0786   -0.7068   -5.5370 C   0  0  0  0  0  0  0  0  0  0  0  0
    1.5725    0.3048   -7.5022 O   0  0  0  0  0  0  0  0  0  0  0  0
    3.8279    1.3730   -7.0765 O   0  0  0  0  0  0  0  0  0  0  0  0
    1.8955    1.7003   -5.4353 O   0  0  0  0  0  0  0  0  0  0  0  0
    1.9885   -1.2970   -4.9968 F   0  0  0  0  0  0  0  0  0  0  0  0
    3.6703   -1.5877   -6.3593 F   0  0  0  0  0  0  0  0  0  0  0  0
    3.9302   -0.4044   -4.5440 F   0  0  0  0  0  0  0  0  0  0  0  0
   -3.9614   -1.1542   -5.5962 O   0  0  0  0  0  0  0  0  0  0  0  0
   -5.2169   -0.9905   -4.9330 C   0  0  0  0  0  0  0  0  0  0  0  0
   -5.7035   -1.9682   -4.9806 H   0  0  0  0  0  0  0  0  0  0  0  0
   -5.8395   -0.2439   -5.4483 H   0  0  0  0  0  0  0  0  0  0  0  0
   -5.0708   -0.7024   -3.8813 H   0  0  0  0  0  0  0  0  0  0  0  0
  1  6  1  0  0  0  0
  2  1  2  0  0  0  0
  2  3  1  0  0  0  0
  3  4  2  0  0  0  0
  4  5  1  0  0  0  0
  4  9  1  0  0  0  0
  5 10  1  0  0  0  0
  6 21  1  0  0  0  0
  6  5  2  0  0  0  0
  7  1  1  0  0  0  0
  8  2  1  0  0  0  0
 12 11  3  0  0  0  0
 13 14  1  0  0  0  0
 13 17  1  0  0  0  0
 14 18  1  0  0  0  0
 14 20  1  0  0  0  0
 15 13  2  0  0  0  0
 16 13  2  0  0  0  0
 19 14  1  0  0  0  0
 21 22  1  0  0  0  0
 22 25  1  0  0  0  0
 23 22  1  0  0  0  0
 24 22  1  0  0  0  0
M  RAD  2   3   2  17   2
M  END
