Coordinates from ORCA-job p-CH3O-Ph-N2-OTf-B3LYPG-aug-cc-pVDZ-scan-d09-29-n200
 OpenBabel01151817073D

 25 23  0  0  0  0  0  0  0  0999 V2000
   -1.9130   -0.3419   -6.3172 C   0  0  0  0  0  0  0  0  0  0  0  0
   -0.9339    0.6648   -6.4783 C   0  0  0  0  0  0  0  0  0  0  0  0
   -1.4078    1.7887   -5.9480 C   0  0  0  0  0  0  0  0  0  0  0  0
   -2.5022    2.2548   -5.3075 C   0  0  0  0  0  0  0  0  0  0  0  0
   -3.4394    1.2036   -5.1747 C   0  0  0  0  0  0  0  0  0  0  0  0
   -3.1437   -0.0802   -5.6780 C   0  0  0  0  0  0  0  0  0  0  0  0
   -1.6949   -1.3450   -6.6829 H   0  0  0  0  0  0  0  0  0  0  0  0
    0.0924    0.4765   -6.9385 H   0  0  0  0  0  0  0  0  0  0  0  0
   -2.6716    3.2620   -4.9418 H   0  0  0  0  0  0  0  0  0  0  0  0
   -4.3794    1.4290   -4.6777 H   0  0  0  0  0  0  0  0  0  0  0  0
   -0.0349    3.5090   -6.2102 N   0  0  0  0  0  0  0  0  0  0  0  0
    0.5393    4.4369   -6.3677 N   0  0  0  0  0  0  0  0  0  0  0  0
    2.5805    0.8656   -6.4757 S   0  0  0  0  0  0  0  0  0  0  0  0
    3.1439   -0.6932   -5.5560 C   0  0  0  0  0  0  0  0  0  0  0  0
    1.6005    0.2955   -7.5054 O   0  0  0  0  0  0  0  0  0  0  0  0
    3.8181    1.4386   -7.0580 O   0  0  0  0  0  0  0  0  0  0  0  0
    1.8748    1.6652   -5.4165 O   0  0  0  0  0  0  0  0  0  0  0  0
    2.0777   -1.3310   -5.0221 F   0  0  0  0  0  0  0  0  0  0  0  0
    3.7669   -1.5415   -6.3901 F   0  0  0  0  0  0  0  0  0  0  0  0
    3.9858   -0.3737   -4.5595 F   0  0  0  0  0  0  0  0  0  0  0  0
   -3.9839   -1.1374   -5.5917 O   0  0  0  0  0  0  0  0  0  0  0  0
   -5.2438   -0.9649   -4.9384 C   0  0  0  0  0  0  0  0  0  0  0  0
   -5.7340   -1.9408   -4.9848 H   0  0  0  0  0  0  0  0  0  0  0  0
   -5.8592   -0.2183   -5.4621 H   0  0  0  0  0  0  0  0  0  0  0  0
   -5.1040   -0.6721   -3.8872 H   0  0  0  0  0  0  0  0  0  0  0  0
  1  6  1  0  0  0  0
  2  1  2  0  0  0  0
  2  3  1  0  0  0  0
  3  4  2  0  0  0  0
  4  5  1  0  0  0  0
  4  9  1  0  0  0  0
  5 10  1  0  0  0  0
  6 21  1  0  0  0  0
  6  5  2  0  0  0  0
  7  1  1  0  0  0  0
  8  2  1  0  0  0  0
 12 11  3  0  0  0  0
 13 14  1  0  0  0  0
 13 17  1  0  0  0  0
 14 18  1  0  0  0  0
 14 20  1  0  0  0  0
 15 13  2  0  0  0  0
 16 13  2  0  0  0  0
 19 14  1  0  0  0  0
 21 22  1  0  0  0  0
 22 25  1  0  0  0  0
 23 22  1  0  0  0  0
 24 22  1  0  0  0  0
M  RAD  2   3   2  17   2
M  END
