Coordinates from ORCA-job p-CH3O-Ph-N2-OTf-B3LYPG-aug-cc-pVDZ-scan-d29-49-n200
 OpenBabel01151817073D

 25 24  0  0  0  0  0  0  0  0999 V2000
   -2.2003   -0.0463   -7.2999 C   0  0  0  0  0  0  0  0  0  0  0  0
   -0.8817    0.3923   -7.3313 C   0  0  0  0  0  0  0  0  0  0  0  0
   -0.2826    0.8314   -6.1478 C   0  0  0  0  0  0  0  0  0  0  0  0
   -0.9847    0.8538   -4.9489 C   0  0  0  0  0  0  0  0  0  0  0  0
   -2.3152    0.4206   -4.9170 C   0  0  0  0  0  0  0  0  0  0  0  0
   -2.9243   -0.0375   -6.0945 C   0  0  0  0  0  0  0  0  0  0  0  0
   -2.6926   -0.3990   -8.2048 H   0  0  0  0  0  0  0  0  0  0  0  0
   -0.3191    0.3968   -8.2627 H   0  0  0  0  0  0  0  0  0  0  0  0
   -0.5030    1.2215   -4.0446 H   0  0  0  0  0  0  0  0  0  0  0  0
   -2.8552    0.4472   -3.9742 H   0  0  0  0  0  0  0  0  0  0  0  0
   -1.4290    4.3409   -6.9793 N   0  0  0  0  0  0  0  0  0  0  0  0
   -2.4719    4.6994   -6.9192 N   0  0  0  0  0  0  0  0  0  0  0  0
    2.3414    0.3743   -6.3541 S   0  0  0  0  0  0  0  0  0  0  0  0
    2.7756    0.0596   -4.5257 C   0  0  0  0  0  0  0  0  0  0  0  0
    1.9513   -0.9210   -6.9355 O   0  0  0  0  0  0  0  0  0  0  0  0
    3.4080    1.2241   -6.8975 O   0  0  0  0  0  0  0  0  0  0  0  0
    1.0194    1.3788   -6.1725 O   0  0  0  0  0  0  0  0  0  0  0  0
    1.7892   -0.6233   -3.9336 F   0  0  0  0  0  0  0  0  0  0  0  0
    3.9028   -0.6547   -4.4815 F   0  0  0  0  0  0  0  0  0  0  0  0
    2.9545    1.2228   -3.8962 F   0  0  0  0  0  0  0  0  0  0  0  0
   -4.2088   -0.4870   -6.1751 O   0  0  0  0  0  0  0  0  0  0  0  0
   -4.9961   -0.5021   -4.9873 C   0  0  0  0  0  0  0  0  0  0  0  0
   -5.9724   -0.8962   -5.2843 H   0  0  0  0  0  0  0  0  0  0  0  0
   -5.1191    0.5125   -4.5785 H   0  0  0  0  0  0  0  0  0  0  0  0
   -4.5518   -1.1588   -4.2239 H   0  0  0  0  0  0  0  0  0  0  0  0
  1  6  1  0  0  0  0
  2  1  2  0  0  0  0
  2  3  1  0  0  0  0
  3  4  2  0  0  0  0
  4  5  1  0  0  0  0
  4  9  1  0  0  0  0
  5 10  1  0  0  0  0
  6  5  2  0  0  0  0
  7  1  1  0  0  0  0
  8  2  1  0  0  0  0
 11 12  3  0  0  0  0
 13 17  1  0  0  0  0
 13 14  1  0  0  0  0
 14 19  1  0  0  0  0
 14 18  1  0  0  0  0
 14 20  1  0  0  0  0
 15 13  2  0  0  0  0
 16 13  2  0  0  0  0
 17  3  1  0  0  0  0
 21  6  1  0  0  0  0
 21 22  1  0  0  0  0
 22 24  1  0  0  0  0
 22 25  1  0  0  0  0
 23 22  1  0  0  0  0
M  END
