Coordinates from ORCA-job p-CH3O-Ph-N2-OTf-B3LYPG-aug-cc-pVDZ-scan-d29-49-n200
 OpenBabel01151817073D

 25 24  0  0  0  0  0  0  0  0999 V2000
   -2.1639   -0.0623   -7.2941 C   0  0  0  0  0  0  0  0  0  0  0  0
   -0.8394    0.3583   -7.3206 C   0  0  0  0  0  0  0  0  0  0  0  0
   -0.2376    0.7870   -6.1346 C   0  0  0  0  0  0  0  0  0  0  0  0
   -0.9432    0.8170   -4.9380 C   0  0  0  0  0  0  0  0  0  0  0  0
   -2.2795    0.4016   -4.9108 C   0  0  0  0  0  0  0  0  0  0  0  0
   -2.8912   -0.0463   -6.0908 C   0  0  0  0  0  0  0  0  0  0  0  0
   -2.6583   -0.4058   -8.2015 H   0  0  0  0  0  0  0  0  0  0  0  0
   -0.2742    0.3572   -8.2506 H   0  0  0  0  0  0  0  0  0  0  0  0
   -0.4597    1.1773   -4.0316 H   0  0  0  0  0  0  0  0  0  0  0  0
   -2.8220    0.4344   -3.9696 H   0  0  0  0  0  0  0  0  0  0  0  0
   -1.8115    4.8159   -7.1262 N   0  0  0  0  0  0  0  0  0  0  0  0
   -2.8895    5.0344   -7.0260 N   0  0  0  0  0  0  0  0  0  0  0  0
    2.3812    0.2944   -6.3315 S   0  0  0  0  0  0  0  0  0  0  0  0
    2.8078   -0.0202   -4.5013 C   0  0  0  0  0  0  0  0  0  0  0  0
    1.9749   -0.9973   -6.9099 O   0  0  0  0  0  0  0  0  0  0  0  0
    3.4596    1.1288   -6.8754 O   0  0  0  0  0  0  0  0  0  0  0  0
    1.0717    1.3168   -6.1552 O   0  0  0  0  0  0  0  0  0  0  0  0
    1.8115   -0.6884   -3.9090 F   0  0  0  0  0  0  0  0  0  0  0  0
    3.9255   -0.7491   -4.4529 F   0  0  0  0  0  0  0  0  0  0  0  0
    3.0008    1.1425   -3.8751 F   0  0  0  0  0  0  0  0  0  0  0  0
   -4.1813   -0.4782   -6.1760 O   0  0  0  0  0  0  0  0  0  0  0  0
   -4.9723   -0.4847   -4.9906 C   0  0  0  0  0  0  0  0  0  0  0  0
   -5.9529   -0.8653   -5.2911 H   0  0  0  0  0  0  0  0  0  0  0  0
   -5.0829    0.5306   -4.5804 H   0  0  0  0  0  0  0  0  0  0  0  0
   -4.5391   -1.1486   -4.2271 H   0  0  0  0  0  0  0  0  0  0  0  0
  1  6  1  0  0  0  0
  2  1  2  0  0  0  0
  2  3  1  0  0  0  0
  3  4  2  0  0  0  0
  4  5  1  0  0  0  0
  4  9  1  0  0  0  0
  5 10  1  0  0  0  0
  6  5  2  0  0  0  0
  7  1  1  0  0  0  0
  8  2  1  0  0  0  0
 11 12  3  0  0  0  0
 13 17  1  0  0  0  0
 13 14  1  0  0  0  0
 14 19  1  0  0  0  0
 14 18  1  0  0  0  0
 14 20  1  0  0  0  0
 15 13  2  0  0  0  0
 16 13  2  0  0  0  0
 17  3  1  0  0  0  0
 21  6  1  0  0  0  0
 21 22  1  0  0  0  0
 22 24  1  0  0  0  0
 22 25  1  0  0  0  0
 23 22  1  0  0  0  0
M  END
