Coordinates from ORCA-job p-CH3O-Ph-N2-OTf-B3LYPG-aug-cc-pVDZ-scan-d29-49-n200
 OpenBabel01151817073D

 25 24  0  0  0  0  0  0  0  0999 V2000
   -2.2185   -0.0341   -7.3027 C   0  0  0  0  0  0  0  0  0  0  0  0
   -0.9033    0.4142   -7.3363 C   0  0  0  0  0  0  0  0  0  0  0  0
   -0.3066    0.8604   -6.1544 C   0  0  0  0  0  0  0  0  0  0  0  0
   -1.0064    0.8765   -4.9543 C   0  0  0  0  0  0  0  0  0  0  0  0
   -2.3337    0.4338   -4.9203 C   0  0  0  0  0  0  0  0  0  0  0  0
   -2.9416   -0.0287   -6.0967 C   0  0  0  0  0  0  0  0  0  0  0  0
   -2.7093   -0.3908   -8.2069 H   0  0  0  0  0  0  0  0  0  0  0  0
   -0.3420    0.4216   -8.2683 H   0  0  0  0  0  0  0  0  0  0  0  0
   -0.5260    1.2479   -4.0508 H   0  0  0  0  0  0  0  0  0  0  0  0
   -2.8726    0.4574   -3.9768 H   0  0  0  0  0  0  0  0  0  0  0  0
   -1.2278    4.0410   -6.8922 N   0  0  0  0  0  0  0  0  0  0  0  0
   -2.2457    4.4680   -6.8542 N   0  0  0  0  0  0  0  0  0  0  0  0
    2.3200    0.4228   -6.3673 S   0  0  0  0  0  0  0  0  0  0  0  0
    2.7575    0.1026   -4.5406 C   0  0  0  0  0  0  0  0  0  0  0  0
    1.9394   -0.8727   -6.9546 O   0  0  0  0  0  0  0  0  0  0  0  0
    3.3803    1.2827   -6.9072 O   0  0  0  0  0  0  0  0  0  0  0  0
    0.9914    1.4169   -6.1807 O   0  0  0  0  0  0  0  0  0  0  0  0
    1.7769   -0.5911   -3.9515 F   0  0  0  0  0  0  0  0  0  0  0  0
    3.8904   -0.6031   -4.5004 F   0  0  0  0  0  0  0  0  0  0  0  0
    2.9276    1.2640   -3.9053 F   0  0  0  0  0  0  0  0  0  0  0  0
   -4.2234   -0.4855   -6.1756 O   0  0  0  0  0  0  0  0  0  0  0  0
   -5.0096   -0.5036   -4.9871 C   0  0  0  0  0  0  0  0  0  0  0  0
   -5.9841   -0.9031   -5.2829 H   0  0  0  0  0  0  0  0  0  0  0  0
   -5.1375    0.5107   -4.5792 H   0  0  0  0  0  0  0  0  0  0  0  0
   -4.5612   -1.1573   -4.2236 H   0  0  0  0  0  0  0  0  0  0  0  0
  1  6  1  0  0  0  0
  2  1  2  0  0  0  0
  2  3  1  0  0  0  0
  3  4  2  0  0  0  0
  4  5  1  0  0  0  0
  4  9  1  0  0  0  0
  5 10  1  0  0  0  0
  6  5  2  0  0  0  0
  7  1  1  0  0  0  0
  8  2  1  0  0  0  0
 11 12  3  0  0  0  0
 13 17  1  0  0  0  0
 13 14  1  0  0  0  0
 14 19  1  0  0  0  0
 14 18  1  0  0  0  0
 14 20  1  0  0  0  0
 15 13  2  0  0  0  0
 16 13  2  0  0  0  0
 17  3  1  0  0  0  0
 21  6  1  0  0  0  0
 21 22  1  0  0  0  0
 22 24  1  0  0  0  0
 22 25  1  0  0  0  0
 23 22  1  0  0  0  0
M  END
