Coordinates from ORCA-job p-CH3O-Ph-N2-OTf-B3LYPG-aug-cc-pVDZ-scan-d29-49-n200
 OpenBabel01151817073D

 25 24  0  0  0  0  0  0  0  0999 V2000
   -2.2303   -0.0161   -7.3061 C   0  0  0  0  0  0  0  0  0  0  0  0
   -0.9185    0.4417   -7.3407 C   0  0  0  0  0  0  0  0  0  0  0  0
   -0.3256    0.8979   -6.1610 C   0  0  0  0  0  0  0  0  0  0  0  0
   -1.0224    0.9030   -4.9592 C   0  0  0  0  0  0  0  0  0  0  0  0
   -2.3466    0.4515   -4.9236 C   0  0  0  0  0  0  0  0  0  0  0  0
   -2.9531   -0.0140   -6.0998 C   0  0  0  0  0  0  0  0  0  0  0  0
   -2.7188   -0.3784   -8.2093 H   0  0  0  0  0  0  0  0  0  0  0  0
   -0.3576    0.4502   -8.2730 H   0  0  0  0  0  0  0  0  0  0  0  0
   -0.5429    1.2749   -4.0554 H   0  0  0  0  0  0  0  0  0  0  0  0
   -2.8841    0.4692   -3.9792 H   0  0  0  0  0  0  0  0  0  0  0  0
   -1.0818    3.7494   -6.8101 N   0  0  0  0  0  0  0  0  0  0  0  0
   -2.0746    4.2335   -6.7984 N   0  0  0  0  0  0  0  0  0  0  0  0
    2.3008    0.4624   -6.3777 S   0  0  0  0  0  0  0  0  0  0  0  0
    2.7416    0.1356   -4.5530 C   0  0  0  0  0  0  0  0  0  0  0  0
    1.9220   -0.8314   -6.9697 O   0  0  0  0  0  0  0  0  0  0  0  0
    3.3594    1.3258   -6.9154 O   0  0  0  0  0  0  0  0  0  0  0  0
    0.9717    1.4544   -6.1860 O   0  0  0  0  0  0  0  0  0  0  0  0
    1.7624   -0.5606   -3.9644 F   0  0  0  0  0  0  0  0  0  0  0  0
    3.8747   -0.5699   -4.5177 F   0  0  0  0  0  0  0  0  0  0  0  0
    2.9127    1.2946   -3.9135 F   0  0  0  0  0  0  0  0  0  0  0  0
   -4.2318   -0.4789   -6.1776 O   0  0  0  0  0  0  0  0  0  0  0  0
   -5.0175   -0.5006   -4.9888 C   0  0  0  0  0  0  0  0  0  0  0  0
   -5.9900   -0.9050   -5.2840 H   0  0  0  0  0  0  0  0  0  0  0  0
   -5.1500    0.5131   -4.5811 H   0  0  0  0  0  0  0  0  0  0  0  0
   -4.5655   -1.1519   -4.2253 H   0  0  0  0  0  0  0  0  0  0  0  0
  1  6  1  0  0  0  0
  2  1  2  0  0  0  0
  2  3  1  0  0  0  0
  3  4  2  0  0  0  0
  4  5  1  0  0  0  0
  4  9  1  0  0  0  0
  5 10  1  0  0  0  0
  6  5  2  0  0  0  0
  7  1  1  0  0  0  0
  8  2  1  0  0  0  0
 11 12  3  0  0  0  0
 13 17  1  0  0  0  0
 13 14  1  0  0  0  0
 14 19  1  0  0  0  0
 14 18  1  0  0  0  0
 14 20  1  0  0  0  0
 15 13  2  0  0  0  0
 16 13  2  0  0  0  0
 17  3  1  0  0  0  0
 21  6  1  0  0  0  0
 21 22  1  0  0  0  0
 22 24  1  0  0  0  0
 22 25  1  0  0  0  0
 23 22  1  0  0  0  0
M  END
