Coordinates from ORCA-job p-CH3O-Ph-N2-OTf-B3LYPG-aug-cc-pVDZ-scan-d09-29-n200
 OpenBabel01151817073D

 25 24  0  0  0  0  0  0  0  0999 V2000
   -1.8478   -0.3695   -6.4456 C   0  0  0  0  0  0  0  0  0  0  0  0
   -0.9361    0.6111   -6.7626 C   0  0  0  0  0  0  0  0  0  0  0  0
   -1.2006    1.9354   -6.3248 C   0  0  0  0  0  0  0  0  0  0  0  0
   -2.3517    2.2619   -5.5725 C   0  0  0  0  0  0  0  0  0  0  0  0
   -3.2527    1.2622   -5.2588 C   0  0  0  0  0  0  0  0  0  0  0  0
   -3.0058   -0.0625   -5.6939 C   0  0  0  0  0  0  0  0  0  0  0  0
   -1.6781   -1.4013   -6.7471 H   0  0  0  0  0  0  0  0  0  0  0  0
   -0.0039    0.4216   -7.2975 H   0  0  0  0  0  0  0  0  0  0  0  0
   -2.5146    3.2858   -5.2402 H   0  0  0  0  0  0  0  0  0  0  0  0
   -4.1348    1.5084   -4.6752 H   0  0  0  0  0  0  0  0  0  0  0  0
   -0.3455    2.8898   -6.6066 N   0  0  0  0  0  0  0  0  0  0  0  0
    0.3686    3.7117   -6.8536 N   0  0  0  0  0  0  0  0  0  0  0  0
    2.5087    1.1306   -5.9762 S   0  0  0  0  0  0  0  0  0  0  0  0
    2.7777   -0.7260   -5.6839 C   0  0  0  0  0  0  0  0  0  0  0  0
    1.9676    1.1687   -7.3916 O   0  0  0  0  0  0  0  0  0  0  0  0
    3.8510    1.7345   -5.7744 O   0  0  0  0  0  0  0  0  0  0  0  0
    1.4506    1.4826   -4.9579 O   0  0  0  0  0  0  0  0  0  0  0  0
    1.6165   -1.4083   -5.8761 F   0  0  0  0  0  0  0  0  0  0  0  0
    3.6907   -1.2242   -6.5345 F   0  0  0  0  0  0  0  0  0  0  0  0
    3.1898   -0.9644   -4.4271 F   0  0  0  0  0  0  0  0  0  0  0  0
   -3.8152   -1.0958   -5.4362 O   0  0  0  0  0  0  0  0  0  0  0  0
   -5.0020   -0.8952   -4.6519 C   0  0  0  0  0  0  0  0  0  0  0  0
   -5.4685   -1.8806   -4.5807 H   0  0  0  0  0  0  0  0  0  0  0  0
   -5.6845   -0.1954   -5.1532 H   0  0  0  0  0  0  0  0  0  0  0  0
   -4.7449   -0.5312   -3.6480 H   0  0  0  0  0  0  0  0  0  0  0  0
  1  6  1  0  0  0  0
  2  1  2  0  0  0  0
  2  3  1  0  0  0  0
  3  4  2  0  0  0  0
  4  5  1  0  0  0  0
  4  9  1  0  0  0  0
  5 10  1  0  0  0  0
  6 21  1  0  0  0  0
  6  5  2  0  0  0  0
  7  1  1  0  0  0  0
  8  2  1  0  0  0  0
 11  3  1  0  0  0  0
 12 11  1  0  0  0  0
 13 16  2  0  0  0  0
 13 14  1  0  0  0  0
 13 17  1  0  0  0  0
 14 20  1  0  0  0  0
 15 13  2  0  0  0  0
 18 14  1  0  0  0  0
 19 14  1  0  0  0  0
 21 22  1  0  0  0  0
 22 23  1  0  0  0  0
 22 25  1  0  0  0  0
 24 22  1  0  0  0  0
M  RAD  3  11   2  12   3  17   2
M  END
