Coordinates from ORCA-job p-CH3O-Ph-N2-OTf-B3LYPG-aug-cc-pVDZ-scan-d09-29-n200
 OpenBabel01151817073D

 25 24  0  0  0  0  0  0  0  0999 V2000
   -1.9260   -0.4184   -6.4291 C   0  0  0  0  0  0  0  0  0  0  0  0
   -0.9452    0.5400   -6.6765 C   0  0  0  0  0  0  0  0  0  0  0  0
   -1.2560    1.7694   -6.1545 C   0  0  0  0  0  0  0  0  0  0  0  0
   -2.3345    2.1982   -5.4234 C   0  0  0  0  0  0  0  0  0  0  0  0
   -3.2936    1.2016   -5.1940 C   0  0  0  0  0  0  0  0  0  0  0  0
   -3.0903   -0.0996   -5.6964 C   0  0  0  0  0  0  0  0  0  0  0  0
   -1.7910   -1.4368   -6.7892 H   0  0  0  0  0  0  0  0  0  0  0  0
    0.0015    0.3544   -7.1977 H   0  0  0  0  0  0  0  0  0  0  0  0
   -2.4478    3.2097   -5.0445 H   0  0  0  0  0  0  0  0  0  0  0  0
   -4.1803    1.4608   -4.6227 H   0  0  0  0  0  0  0  0  0  0  0  0
   -0.0840    3.0375   -6.4641 N   0  0  0  0  0  0  0  0  0  0  0  0
    0.4436    3.9704   -6.7280 N   0  0  0  0  0  0  0  0  0  0  0  0
    2.5732    1.1141   -6.2071 S   0  0  0  0  0  0  0  0  0  0  0  0
    2.9028   -0.6541   -5.6032 C   0  0  0  0  0  0  0  0  0  0  0  0
    1.8789    0.8987   -7.5360 O   0  0  0  0  0  0  0  0  0  0  0  0
    3.9130    1.7514   -6.2654 O   0  0  0  0  0  0  0  0  0  0  0  0
    1.6216    1.6542   -5.1590 O   0  0  0  0  0  0  0  0  0  0  0  0
    1.7415   -1.3525   -5.5401 F   0  0  0  0  0  0  0  0  0  0  0  0
    3.7300   -1.2997   -6.4417 F   0  0  0  0  0  0  0  0  0  0  0  0
    3.4520   -0.6493   -4.3776 F   0  0  0  0  0  0  0  0  0  0  0  0
   -3.9580   -1.1193   -5.5228 O   0  0  0  0  0  0  0  0  0  0  0  0
   -5.1505   -0.8954   -4.7643 C   0  0  0  0  0  0  0  0  0  0  0  0
   -5.6750   -1.8543   -4.7564 H   0  0  0  0  0  0  0  0  0  0  0  0
   -5.7825   -0.1329   -5.2426 H   0  0  0  0  0  0  0  0  0  0  0  0
   -4.9092   -0.5977   -3.7337 H   0  0  0  0  0  0  0  0  0  0  0  0
  1  6  1  0  0  0  0
  2  1  2  0  0  0  0
  2  3  1  0  0  0  0
  3  4  2  0  0  0  0
  4  5  1  0  0  0  0
  4  9  1  0  0  0  0
  5 10  1  0  0  0  0
  6 21  1  0  0  0  0
  6  5  2  0  0  0  0
  7  1  1  0  0  0  0
  8  2  1  0  0  0  0
 11  3  1  0  0  0  0
 12 11  1  0  0  0  0
 13 14  1  0  0  0  0
 13 17  1  0  0  0  0
 14 18  1  0  0  0  0
 14 20  1  0  0  0  0
 15 13  2  0  0  0  0
 16 13  2  0  0  0  0
 19 14  1  0  0  0  0
 21 22  1  0  0  0  0
 22 23  1  0  0  0  0
 22 25  1  0  0  0  0
 24 22  1  0  0  0  0
M  RAD  3  11   2  12   3  17   2
M  END
