Coordinates from ORCA-job p-CH3O-Ph-N2-OTf-B3LYPG-aug-cc-pVDZ-scan-d29-49-n200
 OpenBabel01151817073D

 25 24  0  0  0  0  0  0  0  0999 V2000
   -2.2225   -0.0301   -7.3035 C   0  0  0  0  0  0  0  0  0  0  0  0
   -0.9082    0.4206   -7.3375 C   0  0  0  0  0  0  0  0  0  0  0  0
   -0.3122    0.8689   -6.1561 C   0  0  0  0  0  0  0  0  0  0  0  0
   -1.0115    0.8832   -4.9557 C   0  0  0  0  0  0  0  0  0  0  0  0
   -2.3380    0.4382   -4.9212 C   0  0  0  0  0  0  0  0  0  0  0  0
   -2.9454   -0.0256   -6.0975 C   0  0  0  0  0  0  0  0  0  0  0  0
   -2.7128   -0.3882   -8.2075 H   0  0  0  0  0  0  0  0  0  0  0  0
   -0.3470    0.4286   -8.2697 H   0  0  0  0  0  0  0  0  0  0  0  0
   -0.5314    1.2554   -4.0523 H   0  0  0  0  0  0  0  0  0  0  0  0
   -2.8766    0.4608   -3.9776 H   0  0  0  0  0  0  0  0  0  0  0  0
   -1.1816    3.9628   -6.8697 N   0  0  0  0  0  0  0  0  0  0  0  0
   -2.1928    4.4057   -6.8373 N   0  0  0  0  0  0  0  0  0  0  0  0
    2.3147    0.4344   -6.3705 S   0  0  0  0  0  0  0  0  0  0  0  0
    2.7531    0.1126   -4.5443 C   0  0  0  0  0  0  0  0  0  0  0  0
    1.9356   -0.8609   -6.9592 O   0  0  0  0  0  0  0  0  0  0  0  0
    3.3737    1.2962   -6.9097 O   0  0  0  0  0  0  0  0  0  0  0  0
    0.9851    1.4266   -6.1823 O   0  0  0  0  0  0  0  0  0  0  0  0
    1.7734   -0.5828   -3.9556 F   0  0  0  0  0  0  0  0  0  0  0  0
    3.8868   -0.5918   -4.5052 F   0  0  0  0  0  0  0  0  0  0  0  0
    2.9221    1.2735   -3.9077 F   0  0  0  0  0  0  0  0  0  0  0  0
   -4.2264   -0.4847   -6.1760 O   0  0  0  0  0  0  0  0  0  0  0  0
   -5.0125   -0.5034   -4.9874 C   0  0  0  0  0  0  0  0  0  0  0  0
   -5.9864   -0.9045   -5.2829 H   0  0  0  0  0  0  0  0  0  0  0  0
   -5.1418    0.5108   -4.5799 H   0  0  0  0  0  0  0  0  0  0  0  0
   -4.5631   -1.1561   -4.2236 H   0  0  0  0  0  0  0  0  0  0  0  0
  1  6  1  0  0  0  0
  2  1  2  0  0  0  0
  2  3  1  0  0  0  0
  3  4  2  0  0  0  0
  4  5  1  0  0  0  0
  4  9  1  0  0  0  0
  5 10  1  0  0  0  0
  6  5  2  0  0  0  0
  7  1  1  0  0  0  0
  8  2  1  0  0  0  0
 11 12  3  0  0  0  0
 13 17  1  0  0  0  0
 13 14  1  0  0  0  0
 14 19  1  0  0  0  0
 14 18  1  0  0  0  0
 14 20  1  0  0  0  0
 15 13  2  0  0  0  0
 16 13  2  0  0  0  0
 17  3  1  0  0  0  0
 21  6  1  0  0  0  0
 21 22  1  0  0  0  0
 22 24  1  0  0  0  0
 22 25  1  0  0  0  0
 23 22  1  0  0  0  0
M  END
