Coordinates from ORCA-job p-CH3O-Ph-N2-OTf-B3LYPG-aug-cc-pVDZ-scan-d09-29-n200
 OpenBabel01151817073D

 25 24  0  0  0  0  0  0  0  0999 V2000
   -1.7918   -0.3078   -6.4663 C   0  0  0  0  0  0  0  0  0  0  0  0
   -0.9179    0.6914   -6.8091 C   0  0  0  0  0  0  0  0  0  0  0  0
   -1.1924    2.0478   -6.4019 C   0  0  0  0  0  0  0  0  0  0  0  0
   -2.3667    2.3179   -5.6236 C   0  0  0  0  0  0  0  0  0  0  0  0
   -3.2247    1.3018   -5.2785 C   0  0  0  0  0  0  0  0  0  0  0  0
   -2.9441   -0.0260   -5.6970 C   0  0  0  0  0  0  0  0  0  0  0  0
   -1.5913   -1.3385   -6.7524 H   0  0  0  0  0  0  0  0  0  0  0  0
    0.0121    0.5178   -7.3545 H   0  0  0  0  0  0  0  0  0  0  0  0
   -2.5575    3.3423   -5.3055 H   0  0  0  0  0  0  0  0  0  0  0  0
   -4.1037    1.5298   -4.6825 H   0  0  0  0  0  0  0  0  0  0  0  0
   -0.4647    2.8987   -6.6698 N   0  0  0  0  0  0  0  0  0  0  0  0
    0.2490    3.7324   -6.9360 N   0  0  0  0  0  0  0  0  0  0  0  0
    2.4093    1.0553   -5.9043 S   0  0  0  0  0  0  0  0  0  0  0  0
    2.7330   -0.8030   -5.6914 C   0  0  0  0  0  0  0  0  0  0  0  0
    1.9994    1.1550   -7.3584 O   0  0  0  0  0  0  0  0  0  0  0  0
    3.6961    1.7007   -5.5381 O   0  0  0  0  0  0  0  0  0  0  0  0
    1.2460    1.2962   -4.9692 O   0  0  0  0  0  0  0  0  0  0  0  0
    1.6218   -1.5162   -6.0204 F   0  0  0  0  0  0  0  0  0  0  0  0
    3.7350   -1.2171   -6.4848 F   0  0  0  0  0  0  0  0  0  0  0  0
    3.0467   -1.0994   -4.4180 F   0  0  0  0  0  0  0  0  0  0  0  0
   -3.7139   -1.0734   -5.4059 O   0  0  0  0  0  0  0  0  0  0  0  0
   -4.8922   -0.9024   -4.5976 C   0  0  0  0  0  0  0  0  0  0  0  0
   -5.3205   -1.9028   -4.5033 H   0  0  0  0  0  0  0  0  0  0  0  0
   -5.6081   -0.2349   -5.0956 H   0  0  0  0  0  0  0  0  0  0  0  0
   -4.6247   -0.5152   -3.6057 H   0  0  0  0  0  0  0  0  0  0  0  0
  1  6  1  0  0  0  0
  2  1  2  0  0  0  0
  2  3  1  0  0  0  0
  3  4  2  0  0  0  0
  4  9  1  0  0  0  0
  4  5  1  0  0  0  0
  5 10  1  0  0  0  0
  6 21  1  0  0  0  0
  6  5  2  0  0  0  0
  7  1  1  0  0  0  0
  8  2  1  0  0  0  0
 11  3  1  0  0  0  0
 12 11  1  0  0  0  0
 13 14  1  0  0  0  0
 13 16  2  0  0  0  0
 13 17  1  0  0  0  0
 14 20  1  0  0  0  0
 15 13  2  0  0  0  0
 18 14  1  0  0  0  0
 19 14  1  0  0  0  0
 21 22  1  0  0  0  0
 22 23  1  0  0  0  0
 22 25  1  0  0  0  0
 24 22  1  0  0  0  0
M  RAD  3  11   2  12   3  17   2
M  END
