Coordinates from ORCA-job p-CH3O-Ph-N2-OTf-B3LYPG-aug-cc-pVDZ-scan-d09-29-n200
 OpenBabel01151817073D

 25 24  0  0  0  0  0  0  0  0999 V2000
   -1.7740   -0.2905   -6.4573 C   0  0  0  0  0  0  0  0  0  0  0  0
   -0.9082    0.7126   -6.8043 C   0  0  0  0  0  0  0  0  0  0  0  0
   -1.1902    2.0827   -6.4170 C   0  0  0  0  0  0  0  0  0  0  0  0
   -2.3782    2.3352   -5.6377 C   0  0  0  0  0  0  0  0  0  0  0  0
   -3.2236    1.3154   -5.2843 C   0  0  0  0  0  0  0  0  0  0  0  0
   -2.9295   -0.0149   -5.6916 C   0  0  0  0  0  0  0  0  0  0  0  0
   -1.5612   -1.3211   -6.7346 H   0  0  0  0  0  0  0  0  0  0  0  0
    0.0226    0.5416   -7.3496 H   0  0  0  0  0  0  0  0  0  0  0  0
   -2.5790    3.3616   -5.3315 H   0  0  0  0  0  0  0  0  0  0  0  0
   -4.1054    1.5401   -4.6912 H   0  0  0  0  0  0  0  0  0  0  0  0
   -0.5043    2.9023   -6.6815 N   0  0  0  0  0  0  0  0  0  0  0  0
    0.2001    3.7476   -6.9583 N   0  0  0  0  0  0  0  0  0  0  0  0
    2.3814    1.0261   -5.8914 S   0  0  0  0  0  0  0  0  0  0  0  0
    2.7407   -0.8280   -5.7028 C   0  0  0  0  0  0  0  0  0  0  0  0
    2.0131    1.1458   -7.3541 O   0  0  0  0  0  0  0  0  0  0  0  0
    3.6388    1.6945   -5.4694 O   0  0  0  0  0  0  0  0  0  0  0  0
    1.1833    1.2201   -4.9874 O   0  0  0  0  0  0  0  0  0  0  0  0
    1.6552   -1.5584   -6.0753 F   0  0  0  0  0  0  0  0  0  0  0  0
    3.7733   -1.2049   -6.4750 F   0  0  0  0  0  0  0  0  0  0  0  0
    3.0259   -1.1407   -4.4265 F   0  0  0  0  0  0  0  0  0  0  0  0
   -3.6890   -1.0652   -5.3923 O   0  0  0  0  0  0  0  0  0  0  0  0
   -4.8705   -0.9001   -4.5857 C   0  0  0  0  0  0  0  0  0  0  0  0
   -5.2875   -1.9046   -4.4840 H   0  0  0  0  0  0  0  0  0  0  0  0
   -5.5924   -0.2445   -5.0901 H   0  0  0  0  0  0  0  0  0  0  0  0
   -4.6070   -0.5024   -3.5970 H   0  0  0  0  0  0  0  0  0  0  0  0
  1  6  1  0  0  0  0
  2  1  2  0  0  0  0
  2  3  1  0  0  0  0
  3  4  2  0  0  0  0
  4  9  1  0  0  0  0
  4  5  1  0  0  0  0
  5 10  1  0  0  0  0
  6 21  1  0  0  0  0
  6  5  2  0  0  0  0
  7  1  1  0  0  0  0
  8  2  1  0  0  0  0
 11  3  1  0  0  0  0
 12 11  1  0  0  0  0
 13 14  1  0  0  0  0
 13 16  2  0  0  0  0
 13 17  1  0  0  0  0
 14 20  1  0  0  0  0
 15 13  2  0  0  0  0
 18 14  1  0  0  0  0
 19 14  1  0  0  0  0
 21 22  1  0  0  0  0
 22 23  1  0  0  0  0
 22 25  1  0  0  0  0
 24 22  1  0  0  0  0
M  RAD  3  11   2  12   3  17   2
M  END
