Coordinates from ORCA-job p-CH3O-Ph-N2-OTf-B3LYPG-aug-cc-pVDZ-scan-d29-49-n200
 OpenBabel01151817073D

 25 24  0  0  0  0  0  0  0  0999 V2000
   -2.1945   -0.0497   -7.2988 C   0  0  0  0  0  0  0  0  0  0  0  0
   -0.8751    0.3863   -7.3296 C   0  0  0  0  0  0  0  0  0  0  0  0
   -0.2755    0.8240   -6.1458 C   0  0  0  0  0  0  0  0  0  0  0  0
   -0.9783    0.8480   -4.9473 C   0  0  0  0  0  0  0  0  0  0  0  0
   -2.3096    0.4174   -4.9160 C   0  0  0  0  0  0  0  0  0  0  0  0
   -2.9190   -0.0398   -6.0937 C   0  0  0  0  0  0  0  0  0  0  0  0
   -2.6870   -0.4015   -8.2040 H   0  0  0  0  0  0  0  0  0  0  0  0
   -0.3121    0.3897   -8.2607 H   0  0  0  0  0  0  0  0  0  0  0  0
   -0.4963    1.2148   -4.0427 H   0  0  0  0  0  0  0  0  0  0  0  0
   -2.8500    0.4450   -3.9735 H   0  0  0  0  0  0  0  0  0  0  0  0
   -1.4893    4.4241   -7.0043 N   0  0  0  0  0  0  0  0  0  0  0  0
   -2.5385    4.7623   -6.9384 N   0  0  0  0  0  0  0  0  0  0  0  0
    2.3477    0.3610   -6.3504 S   0  0  0  0  0  0  0  0  0  0  0  0
    2.7804    0.0463   -4.5217 C   0  0  0  0  0  0  0  0  0  0  0  0
    1.9550   -0.9337   -6.9314 O   0  0  0  0  0  0  0  0  0  0  0  0
    3.4163    1.2083   -6.8937 O   0  0  0  0  0  0  0  0  0  0  0  0
    1.0277    1.3686   -6.1699 O   0  0  0  0  0  0  0  0  0  0  0  0
    1.7923   -0.6343   -3.9296 F   0  0  0  0  0  0  0  0  0  0  0  0
    3.9061   -0.6704   -4.4767 F   0  0  0  0  0  0  0  0  0  0  0  0
    2.9615    1.2094   -3.8926 F   0  0  0  0  0  0  0  0  0  0  0  0
   -4.2041   -0.4872   -6.1748 O   0  0  0  0  0  0  0  0  0  0  0  0
   -4.9920   -0.5009   -4.9874 C   0  0  0  0  0  0  0  0  0  0  0  0
   -5.9688   -0.8934   -5.2847 H   0  0  0  0  0  0  0  0  0  0  0  0
   -5.1135    0.5139   -4.5787 H   0  0  0  0  0  0  0  0  0  0  0  0
   -4.5491   -1.1582   -4.2237 H   0  0  0  0  0  0  0  0  0  0  0  0
  1  6  1  0  0  0  0
  2  1  2  0  0  0  0
  2  3  1  0  0  0  0
  3  4  2  0  0  0  0
  4  5  1  0  0  0  0
  4  9  1  0  0  0  0
  5 10  1  0  0  0  0
  6  5  2  0  0  0  0
  7  1  1  0  0  0  0
  8  2  1  0  0  0  0
 11 12  3  0  0  0  0
 13 17  1  0  0  0  0
 13 14  1  0  0  0  0
 14 19  1  0  0  0  0
 14 18  1  0  0  0  0
 14 20  1  0  0  0  0
 15 13  2  0  0  0  0
 16 13  2  0  0  0  0
 17  3  1  0  0  0  0
 21  6  1  0  0  0  0
 21 22  1  0  0  0  0
 22 24  1  0  0  0  0
 22 25  1  0  0  0  0
 23 22  1  0  0  0  0
M  END
