Coordinates from ORCA-job p-CH3O-Ph-N2-OTf-B3LYPG-aug-cc-pVDZ-scan-d09-29-n200
 OpenBabel01151817073D

 25 24  0  0  0  0  0  0  0  0999 V2000
   -1.8250   -0.3429   -6.4593 C   0  0  0  0  0  0  0  0  0  0  0  0
   -0.9299    0.6453   -6.7889 C   0  0  0  0  0  0  0  0  0  0  0  0
   -1.1942    1.9849   -6.3627 C   0  0  0  0  0  0  0  0  0  0  0  0
   -2.3549    2.2857   -5.5963 C   0  0  0  0  0  0  0  0  0  0  0  0
   -3.2379    1.2799   -5.2677 C   0  0  0  0  0  0  0  0  0  0  0  0
   -2.9789   -0.0463   -5.6971 C   0  0  0  0  0  0  0  0  0  0  0  0
   -1.6436   -1.3744   -6.7549 H   0  0  0  0  0  0  0  0  0  0  0  0
    0.0005    0.4614   -7.3293 H   0  0  0  0  0  0  0  0  0  0  0  0
   -2.5283    3.3096   -5.2684 H   0  0  0  0  0  0  0  0  0  0  0  0
   -4.1171    1.5186   -4.6765 H   0  0  0  0  0  0  0  0  0  0  0  0
   -0.4005    2.8860   -6.6366 N   0  0  0  0  0  0  0  0  0  0  0  0
    0.3185    3.7089   -6.8914 N   0  0  0  0  0  0  0  0  0  0  0  0
    2.4642    1.1011   -5.9385 S   0  0  0  0  0  0  0  0  0  0  0  0
    2.7556   -0.7580   -5.6868 C   0  0  0  0  0  0  0  0  0  0  0  0
    1.9804    1.1684   -7.3729 O   0  0  0  0  0  0  0  0  0  0  0  0
    3.7851    1.7231   -5.6641 O   0  0  0  0  0  0  0  0  0  0  0  0
    1.3592    1.4023   -4.9538 O   0  0  0  0  0  0  0  0  0  0  0  0
    1.6144   -1.4540   -5.9410 F   0  0  0  0  0  0  0  0  0  0  0  0
    3.7084   -1.2178   -6.5151 F   0  0  0  0  0  0  0  0  0  0  0  0
    3.1244   -1.0250   -4.4220 F   0  0  0  0  0  0  0  0  0  0  0  0
   -3.7713   -1.0851   -5.4239 O   0  0  0  0  0  0  0  0  0  0  0  0
   -4.9527   -0.8973   -4.6262 C   0  0  0  0  0  0  0  0  0  0  0  0
   -5.4032   -1.8893   -4.5448 H   0  0  0  0  0  0  0  0  0  0  0  0
   -5.6505   -0.2106   -5.1240 H   0  0  0  0  0  0  0  0  0  0  0  0
   -4.6882   -0.5245   -3.6278 H   0  0  0  0  0  0  0  0  0  0  0  0
  1  6  1  0  0  0  0
  2  1  2  0  0  0  0
  2  3  1  0  0  0  0
  3  4  2  0  0  0  0
  4  9  1  0  0  0  0
  4  5  1  0  0  0  0
  5 10  1  0  0  0  0
  6 21  1  0  0  0  0
  6  5  2  0  0  0  0
  7  1  1  0  0  0  0
  8  2  1  0  0  0  0
 11  3  1  0  0  0  0
 12 11  1  0  0  0  0
 13 14  1  0  0  0  0
 13 16  2  0  0  0  0
 13 17  1  0  0  0  0
 14 20  1  0  0  0  0
 15 13  2  0  0  0  0
 18 14  1  0  0  0  0
 19 14  1  0  0  0  0
 21 22  1  0  0  0  0
 22 23  1  0  0  0  0
 22 25  1  0  0  0  0
 24 22  1  0  0  0  0
M  RAD  3  11   2  12   3  17   2
M  END
