Coordinates from ORCA-job p-CH3O-Ph-N2-OTf-B3LYPG-aug-cc-pVDZ-scan-d09-29-n200
 OpenBabel01151817073D

 25 24  0  0  0  0  0  0  0  0999 V2000
   -2.3249    0.0925   -7.2797 C   0  0  0  0  0  0  0  0  0  0  0  0
   -1.0148    0.5552   -7.3165 C   0  0  0  0  0  0  0  0  0  0  0  0
   -0.3983    0.9400   -6.1259 C   0  0  0  0  0  0  0  0  0  0  0  0
   -1.0593    0.8556   -4.9096 C   0  0  0  0  0  0  0  0  0  0  0  0
   -2.3822    0.3998   -4.8699 C   0  0  0  0  0  0  0  0  0  0  0  0
   -3.0183    0.0143   -6.0589 C   0  0  0  0  0  0  0  0  0  0  0  0
   -2.8347   -0.2123   -8.1923 H   0  0  0  0  0  0  0  0  0  0  0  0
   -0.4779    0.6281   -8.2597 H   0  0  0  0  0  0  0  0  0  0  0  0
   -0.5569    1.1693   -3.9962 H   0  0  0  0  0  0  0  0  0  0  0  0
   -2.8944    0.3503   -3.9127 H   0  0  0  0  0  0  0  0  0  0  0  0
   -0.9673    3.6044   -6.5632 N   0  0  0  0  0  0  0  0  0  0  0  0
   -0.7522    4.6652   -6.7828 N   0  0  0  0  0  0  0  0  0  0  0  0
    2.2263    0.5485   -6.4660 S   0  0  0  0  0  0  0  0  0  0  0  0
    2.6689   -0.0352   -4.7060 C   0  0  0  0  0  0  0  0  0  0  0  0
    1.8527   -0.6491   -7.2361 O   0  0  0  0  0  0  0  0  0  0  0  0
    3.2809    1.4840   -6.8763 O   0  0  0  0  0  0  0  0  0  0  0  0
    0.8974    1.5043   -6.1396 O   0  0  0  0  0  0  0  0  0  0  0  0
    1.7062   -0.8331   -4.2326 F   0  0  0  0  0  0  0  0  0  0  0  0
    3.8191   -0.7104   -4.7691 F   0  0  0  0  0  0  0  0  0  0  0  0
    2.8107    1.0210   -3.9016 F   0  0  0  0  0  0  0  0  0  0  0  0
   -4.2995   -0.4460   -6.1362 O   0  0  0  0  0  0  0  0  0  0  0  0
   -5.0541   -0.5487   -4.9319 C   0  0  0  0  0  0  0  0  0  0  0  0
   -6.0346   -0.9326   -5.2284 H   0  0  0  0  0  0  0  0  0  0  0  0
   -5.1747    0.4350   -4.4528 H   0  0  0  0  0  0  0  0  0  0  0  0
   -4.5835   -1.2499   -4.2260 H   0  0  0  0  0  0  0  0  0  0  0  0
  1  6  1  0  0  0  0
  2  1  2  0  0  0  0
  2  3  1  0  0  0  0
  3  4  2  0  0  0  0
  4  5  1  0  0  0  0
  4  9  1  0  0  0  0
  5 10  1  0  0  0  0
  6  5  2  0  0  0  0
  7  1  1  0  0  0  0
  8  2  1  0  0  0  0
 12 11  3  0  0  0  0
 13 17  1  0  0  0  0
 13 14  1  0  0  0  0
 14 18  1  0  0  0  0
 14 20  1  0  0  0  0
 15 13  2  0  0  0  0
 16 13  2  0  0  0  0
 17  3  1  0  0  0  0
 19 14  1  0  0  0  0
 21  6  1  0  0  0  0
 21 22  1  0  0  0  0
 22 24  1  0  0  0  0
 22 25  1  0  0  0  0
 23 22  1  0  0  0  0
M  END
