Coordinates from ORCA-job p-CH3O-Ph-N2-OTf-B3LYPG-aug-cc-pVDZ-scan-d09-29-n200
 OpenBabel01151817073D

 25 23  0  0  0  0  0  0  0  0999 V2000
   -1.8982   -0.3463   -6.3334 C   0  0  0  0  0  0  0  0  0  0  0  0
   -0.9250    0.6712   -6.4941 C   0  0  0  0  0  0  0  0  0  0  0  0
   -1.4148    1.7721   -5.9514 C   0  0  0  0  0  0  0  0  0  0  0  0
   -2.4937    2.2488   -5.3021 C   0  0  0  0  0  0  0  0  0  0  0  0
   -3.4242    1.1865   -5.1694 C   0  0  0  0  0  0  0  0  0  0  0  0
   -3.1257   -0.0929   -5.6830 C   0  0  0  0  0  0  0  0  0  0  0  0
   -1.6757   -1.3462   -6.7058 H   0  0  0  0  0  0  0  0  0  0  0  0
    0.1167    0.4906   -6.9593 H   0  0  0  0  0  0  0  0  0  0  0  0
   -2.6648    3.2535   -4.9314 H   0  0  0  0  0  0  0  0  0  0  0  0
   -4.3621    1.4042   -4.6648 H   0  0  0  0  0  0  0  0  0  0  0  0
   -0.0165    3.6612   -6.2352 N   0  0  0  0  0  0  0  0  0  0  0  0
    0.5849    4.5750   -6.3739 N   0  0  0  0  0  0  0  0  0  0  0  0
    2.5729    0.8593   -6.4775 S   0  0  0  0  0  0  0  0  0  0  0  0
    3.0755   -0.7071   -5.5358 C   0  0  0  0  0  0  0  0  0  0  0  0
    1.5704    0.3041   -7.5020 O   0  0  0  0  0  0  0  0  0  0  0  0
    3.8277    1.3689   -7.0790 O   0  0  0  0  0  0  0  0  0  0  0  0
    1.8966    1.7024   -5.4373 O   0  0  0  0  0  0  0  0  0  0  0  0
    1.9845   -1.2944   -4.9944 F   0  0  0  0  0  0  0  0  0  0  0  0
    3.6653   -1.5901   -6.3570 F   0  0  0  0  0  0  0  0  0  0  0  0
    3.9279   -0.4047   -4.5435 F   0  0  0  0  0  0  0  0  0  0  0  0
   -3.9607   -1.1553   -5.5967 O   0  0  0  0  0  0  0  0  0  0  0  0
   -5.2160   -0.9918   -4.9330 C   0  0  0  0  0  0  0  0  0  0  0  0
   -5.7025   -1.9696   -4.9809 H   0  0  0  0  0  0  0  0  0  0  0  0
   -5.8387   -0.2451   -5.4479 H   0  0  0  0  0  0  0  0  0  0  0  0
   -5.0695   -0.7041   -3.8813 H   0  0  0  0  0  0  0  0  0  0  0  0
  1  6  1  0  0  0  0
  2  1  2  0  0  0  0
  2  3  1  0  0  0  0
  3  4  2  0  0  0  0
  4  5  1  0  0  0  0
  4  9  1  0  0  0  0
  5 10  1  0  0  0  0
  6 21  1  0  0  0  0
  6  5  2  0  0  0  0
  7  1  1  0  0  0  0
  8  2  1  0  0  0  0
 12 11  3  0  0  0  0
 13 14  1  0  0  0  0
 13 17  1  0  0  0  0
 14 18  1  0  0  0  0
 14 20  1  0  0  0  0
 15 13  2  0  0  0  0
 16 13  2  0  0  0  0
 19 14  1  0  0  0  0
 21 22  1  0  0  0  0
 22 25  1  0  0  0  0
 23 22  1  0  0  0  0
 24 22  1  0  0  0  0
M  RAD  2   3   2  17   2
M  END
