Coordinates from ORCA-job p-CH3O-Ph-N2-OTf-B3LYPG-aug-cc-pVDZ-scan-d09-29-n200
 OpenBabel01151817073D

 25 24  0  0  0  0  0  0  0  0999 V2000
   -2.3161    0.0897   -7.2739 C   0  0  0  0  0  0  0  0  0  0  0  0
   -1.0071    0.5564   -7.3098 C   0  0  0  0  0  0  0  0  0  0  0  0
   -0.3998    0.9592   -6.1206 C   0  0  0  0  0  0  0  0  0  0  0  0
   -1.0629    0.8729   -4.9052 C   0  0  0  0  0  0  0  0  0  0  0  0
   -2.3842    0.4135   -4.8671 C   0  0  0  0  0  0  0  0  0  0  0  0
   -3.0153    0.0200   -6.0563 C   0  0  0  0  0  0  0  0  0  0  0  0
   -2.8203   -0.2276   -8.1854 H   0  0  0  0  0  0  0  0  0  0  0  0
   -0.4670    0.6159   -8.2519 H   0  0  0  0  0  0  0  0  0  0  0  0
   -0.5641    1.1902   -3.9910 H   0  0  0  0  0  0  0  0  0  0  0  0
   -2.8987    0.3655   -3.9110 H   0  0  0  0  0  0  0  0  0  0  0  0
   -0.9664    3.5302   -6.5587 N   0  0  0  0  0  0  0  0  0  0  0  0
   -0.7633    4.5932   -6.7794 N   0  0  0  0  0  0  0  0  0  0  0  0
    2.2266    0.5692   -6.4686 S   0  0  0  0  0  0  0  0  0  0  0  0
    2.6641   -0.0429   -4.7168 C   0  0  0  0  0  0  0  0  0  0  0  0
    1.8553   -0.6143   -7.2605 O   0  0  0  0  0  0  0  0  0  0  0  0
    3.2823    1.5109   -6.8609 O   0  0  0  0  0  0  0  0  0  0  0  0
    0.8984    1.5195   -6.1273 O   0  0  0  0  0  0  0  0  0  0  0  0
    1.6986   -0.8458   -4.2581 F   0  0  0  0  0  0  0  0  0  0  0  0
    3.8131   -0.7195   -4.7874 F   0  0  0  0  0  0  0  0  0  0  0  0
    2.8061    1.0009   -3.8964 F   0  0  0  0  0  0  0  0  0  0  0  0
   -4.2952   -0.4436   -6.1357 O   0  0  0  0  0  0  0  0  0  0  0  0
   -5.0541   -0.5413   -4.9337 C   0  0  0  0  0  0  0  0  0  0  0  0
   -6.0330   -0.9279   -5.2319 H   0  0  0  0  0  0  0  0  0  0  0  0
   -5.1775    0.4445   -4.4599 H   0  0  0  0  0  0  0  0  0  0  0  0
   -4.5852   -1.2386   -4.2227 H   0  0  0  0  0  0  0  0  0  0  0  0
  1  6  1  0  0  0  0
  2  1  2  0  0  0  0
  2  3  1  0  0  0  0
  3  4  2  0  0  0  0
  4  5  1  0  0  0  0
  4  9  1  0  0  0  0
  5 10  1  0  0  0  0
  6  5  2  0  0  0  0
  7  1  1  0  0  0  0
  8  2  1  0  0  0  0
 12 11  3  0  0  0  0
 13 17  1  0  0  0  0
 13 14  1  0  0  0  0
 14 18  1  0  0  0  0
 14 20  1  0  0  0  0
 15 13  2  0  0  0  0
 16 13  2  0  0  0  0
 17  3  1  0  0  0  0
 19 14  1  0  0  0  0
 21  6  1  0  0  0  0
 21 22  1  0  0  0  0
 22 24  1  0  0  0  0
 22 25  1  0  0  0  0
 23 22  1  0  0  0  0
M  END
