Coordinates from ORCA-job p-CH3O-Ph-N2-OTf-B3LYPG-aug-cc-pVDZ-scan-d29-49-n200
 OpenBabel01151817073D

 25 24  0  0  0  0  0  0  0  0999 V2000
   -2.1987   -0.0471   -7.2996 C   0  0  0  0  0  0  0  0  0  0  0  0
   -0.8799    0.3908   -7.3308 C   0  0  0  0  0  0  0  0  0  0  0  0
   -0.2807    0.8295   -6.1473 C   0  0  0  0  0  0  0  0  0  0  0  0
   -0.9830    0.8524   -4.9485 C   0  0  0  0  0  0  0  0  0  0  0  0
   -2.3137    0.4199   -4.9167 C   0  0  0  0  0  0  0  0  0  0  0  0
   -2.9229   -0.0381   -6.0943 C   0  0  0  0  0  0  0  0  0  0  0  0
   -2.6911   -0.3997   -8.2046 H   0  0  0  0  0  0  0  0  0  0  0  0
   -0.3172    0.3949   -8.2622 H   0  0  0  0  0  0  0  0  0  0  0  0
   -0.5012    1.2199   -4.0441 H   0  0  0  0  0  0  0  0  0  0  0  0
   -2.8538    0.4468   -3.9741 H   0  0  0  0  0  0  0  0  0  0  0  0
   -1.4453    4.3637   -6.9862 N   0  0  0  0  0  0  0  0  0  0  0  0
   -2.4899    4.7168   -6.9245 N   0  0  0  0  0  0  0  0  0  0  0  0
    2.3431    0.3706   -6.3531 S   0  0  0  0  0  0  0  0  0  0  0  0
    2.7768    0.0559   -4.5246 C   0  0  0  0  0  0  0  0  0  0  0  0
    1.9522   -0.9245   -6.9345 O   0  0  0  0  0  0  0  0  0  0  0  0
    3.4103    1.2198   -6.8964 O   0  0  0  0  0  0  0  0  0  0  0  0
    1.0217    1.3761   -6.1718 O   0  0  0  0  0  0  0  0  0  0  0  0
    1.7899   -0.6264   -3.9325 F   0  0  0  0  0  0  0  0  0  0  0  0
    3.9036   -0.6591   -4.4802 F   0  0  0  0  0  0  0  0  0  0  0  0
    2.9563    1.2190   -3.8951 F   0  0  0  0  0  0  0  0  0  0  0  0
   -4.2075   -0.4872   -6.1749 O   0  0  0  0  0  0  0  0  0  0  0  0
   -4.9949   -0.5019   -4.9873 C   0  0  0  0  0  0  0  0  0  0  0  0
   -5.9713   -0.8958   -5.2843 H   0  0  0  0  0  0  0  0  0  0  0  0
   -5.1176    0.5127   -4.5786 H   0  0  0  0  0  0  0  0  0  0  0  0
   -4.5509   -1.1587   -4.2237 H   0  0  0  0  0  0  0  0  0  0  0  0
  1  6  1  0  0  0  0
  2  1  2  0  0  0  0
  2  3  1  0  0  0  0
  3  4  2  0  0  0  0
  4  5  1  0  0  0  0
  4  9  1  0  0  0  0
  5 10  1  0  0  0  0
  6  5  2  0  0  0  0
  7  1  1  0  0  0  0
  8  2  1  0  0  0  0
 11 12  3  0  0  0  0
 13 17  1  0  0  0  0
 13 14  1  0  0  0  0
 14 19  1  0  0  0  0
 14 18  1  0  0  0  0
 14 20  1  0  0  0  0
 15 13  2  0  0  0  0
 16 13  2  0  0  0  0
 17  3  1  0  0  0  0
 21  6  1  0  0  0  0
 21 22  1  0  0  0  0
 22 24  1  0  0  0  0
 22 25  1  0  0  0  0
 23 22  1  0  0  0  0
M  END
