Coordinates from ORCA-job p-CH3O-Ph-N2-OTf-B3LYPG-aug-cc-pVDZ-scan-d09-29-n200
 OpenBabel01151817073D

 25 24  0  0  0  0  0  0  0  0999 V2000
   -2.3227    0.0925   -7.2781 C   0  0  0  0  0  0  0  0  0  0  0  0
   -1.0129    0.5562   -7.3147 C   0  0  0  0  0  0  0  0  0  0  0  0
   -0.3985    0.9456   -6.1246 C   0  0  0  0  0  0  0  0  0  0  0  0
   -1.0598    0.8600   -4.9083 C   0  0  0  0  0  0  0  0  0  0  0  0
   -2.3824    0.4035   -4.8691 C   0  0  0  0  0  0  0  0  0  0  0  0
   -3.0175    0.0164   -6.0581 C   0  0  0  0  0  0  0  0  0  0  0  0
   -2.8311   -0.2152   -8.1906 H   0  0  0  0  0  0  0  0  0  0  0  0
   -0.4753    0.6265   -8.2577 H   0  0  0  0  0  0  0  0  0  0  0  0
   -0.5589    1.1729   -3.9938 H   0  0  0  0  0  0  0  0  0  0  0  0
   -2.8950    0.3540   -3.9121 H   0  0  0  0  0  0  0  0  0  0  0  0
   -0.9672    3.5785   -6.5630 N   0  0  0  0  0  0  0  0  0  0  0  0
   -0.7558    4.6399   -6.7834 N   0  0  0  0  0  0  0  0  0  0  0  0
    2.2267    0.5552   -6.4665 S   0  0  0  0  0  0  0  0  0  0  0  0
    2.6674   -0.0371   -4.7088 C   0  0  0  0  0  0  0  0  0  0  0  0
    1.8546   -0.6386   -7.2432 O   0  0  0  0  0  0  0  0  0  0  0  0
    3.2813    1.4931   -6.8710 O   0  0  0  0  0  0  0  0  0  0  0  0
    0.8975    1.5092   -6.1367 O   0  0  0  0  0  0  0  0  0  0  0  0
    1.7043   -0.8375   -4.2406 F   0  0  0  0  0  0  0  0  0  0  0  0
    3.8178   -0.7118   -4.7740 F   0  0  0  0  0  0  0  0  0  0  0  0
    2.8081    1.0152   -3.8991 F   0  0  0  0  0  0  0  0  0  0  0  0
   -4.2985   -0.4445   -6.1359 O   0  0  0  0  0  0  0  0  0  0  0  0
   -5.0541   -0.5458   -4.9322 C   0  0  0  0  0  0  0  0  0  0  0  0
   -6.0344   -0.9302   -5.2291 H   0  0  0  0  0  0  0  0  0  0  0  0
   -5.1751    0.4384   -4.4544 H   0  0  0  0  0  0  0  0  0  0  0  0
   -4.5841   -1.2463   -4.2251 H   0  0  0  0  0  0  0  0  0  0  0  0
  1  6  1  0  0  0  0
  2  1  2  0  0  0  0
  2  3  1  0  0  0  0
  3  4  2  0  0  0  0
  4  5  1  0  0  0  0
  4  9  1  0  0  0  0
  5 10  1  0  0  0  0
  6  5  2  0  0  0  0
  7  1  1  0  0  0  0
  8  2  1  0  0  0  0
 12 11  3  0  0  0  0
 13 17  1  0  0  0  0
 13 14  1  0  0  0  0
 14 18  1  0  0  0  0
 14 20  1  0  0  0  0
 15 13  2  0  0  0  0
 16 13  2  0  0  0  0
 17  3  1  0  0  0  0
 19 14  1  0  0  0  0
 21  6  1  0  0  0  0
 21 22  1  0  0  0  0
 22 24  1  0  0  0  0
 22 25  1  0  0  0  0
 23 22  1  0  0  0  0
M  END
