Coordinates from ORCA-job p-CH3O-Ph-N2-OTf-B3LYPG-aug-cc-pVDZ-scan-d09-29-n200
 OpenBabel01151817073D

 25 23  0  0  0  0  0  0  0  0999 V2000
   -1.9654   -0.3727   -6.3082 C   0  0  0  0  0  0  0  0  0  0  0  0
   -0.9585    0.5942   -6.4617 C   0  0  0  0  0  0  0  0  0  0  0  0
   -1.3664    1.7714   -5.9425 C   0  0  0  0  0  0  0  0  0  0  0  0
   -2.4767    2.2348   -5.3086 C   0  0  0  0  0  0  0  0  0  0  0  0
   -3.4476    1.2224   -5.1782 C   0  0  0  0  0  0  0  0  0  0  0  0
   -3.1911   -0.0709   -5.6770 C   0  0  0  0  0  0  0  0  0  0  0  0
   -1.7863   -1.3830   -6.6740 H   0  0  0  0  0  0  0  0  0  0  0  0
    0.0389    0.3887   -6.9199 H   0  0  0  0  0  0  0  0  0  0  0  0
   -2.6228    3.2450   -4.9400 H   0  0  0  0  0  0  0  0  0  0  0  0
   -4.3827    1.4756   -4.6865 H   0  0  0  0  0  0  0  0  0  0  0  0
   -0.0597    3.2383   -6.1498 N   0  0  0  0  0  0  0  0  0  0  0  0
    0.4572    4.2012   -6.2972 N   0  0  0  0  0  0  0  0  0  0  0  0
    2.5878    0.8760   -6.4947 S   0  0  0  0  0  0  0  0  0  0  0  0
    3.2928   -0.6276   -5.5800 C   0  0  0  0  0  0  0  0  0  0  0  0
    1.6781    0.2409   -7.5339 O   0  0  0  0  0  0  0  0  0  0  0  0
    3.7728    1.5905   -7.0326 O   0  0  0  0  0  0  0  0  0  0  0  0
    1.8018    1.5890   -5.4182 O   0  0  0  0  0  0  0  0  0  0  0  0
    2.2917   -1.3738   -5.0624 F   0  0  0  0  0  0  0  0  0  0  0  0
    4.0052   -1.4015   -6.4157 F   0  0  0  0  0  0  0  0  0  0  0  0
    4.0910   -0.2375   -4.5717 F   0  0  0  0  0  0  0  0  0  0  0  0
   -4.0650   -1.0989   -5.5941 O   0  0  0  0  0  0  0  0  0  0  0  0
   -5.3237   -0.8864   -4.9492 C   0  0  0  0  0  0  0  0  0  0  0  0
   -5.8434   -1.8467   -4.9991 H   0  0  0  0  0  0  0  0  0  0  0  0
   -5.9115   -0.1213   -5.4776 H   0  0  0  0  0  0  0  0  0  0  0  0
   -5.1820   -0.5977   -3.8974 H   0  0  0  0  0  0  0  0  0  0  0  0
  1  6  1  0  0  0  0
  2  1  2  0  0  0  0
  2  3  1  0  0  0  0
  3  4  2  0  0  0  0
  4  5  1  0  0  0  0
  4  9  1  0  0  0  0
  5 10  1  0  0  0  0
  6 21  1  0  0  0  0
  6  5  2  0  0  0  0
  7  1  1  0  0  0  0
  8  2  1  0  0  0  0
 12 11  3  0  0  0  0
 13 14  1  0  0  0  0
 13 17  1  0  0  0  0
 14 18  1  0  0  0  0
 14 20  1  0  0  0  0
 15 13  2  0  0  0  0
 16 13  2  0  0  0  0
 19 14  1  0  0  0  0
 21 22  1  0  0  0  0
 22 25  1  0  0  0  0
 23 22  1  0  0  0  0
 24 22  1  0  0  0  0
M  RAD  2   3   2  17   2
M  END
