Coordinates from ORCA-job p-CH3O-Ph-N2-OTf-B3LYPG-aug-cc-pVDZ-scan-d29-49-n200
 OpenBabel01151817073D

 25 24  0  0  0  0  0  0  0  0999 V2000
   -2.1843   -0.0553   -7.2971 C   0  0  0  0  0  0  0  0  0  0  0  0
   -0.8632    0.3758   -7.3265 C   0  0  0  0  0  0  0  0  0  0  0  0
   -0.2629    0.8108   -6.1420 C   0  0  0  0  0  0  0  0  0  0  0  0
   -0.9666    0.8368   -4.9441 C   0  0  0  0  0  0  0  0  0  0  0  0
   -2.2996    0.4111   -4.9141 C   0  0  0  0  0  0  0  0  0  0  0  0
   -2.9097   -0.0433   -6.0926 C   0  0  0  0  0  0  0  0  0  0  0  0
   -2.6774   -0.4047   -8.2029 H   0  0  0  0  0  0  0  0  0  0  0  0
   -0.2995    0.3776   -8.2573 H   0  0  0  0  0  0  0  0  0  0  0  0
   -0.4841    1.2017   -4.0390 H   0  0  0  0  0  0  0  0  0  0  0  0
   -2.8407    0.4406   -3.9721 H   0  0  0  0  0  0  0  0  0  0  0  0
   -1.5967    4.5653   -7.0470 N   0  0  0  0  0  0  0  0  0  0  0  0
   -2.6567    4.8656   -6.9700 N   0  0  0  0  0  0  0  0  0  0  0  0
    2.3589    0.3379   -6.3439 S   0  0  0  0  0  0  0  0  0  0  0  0
    2.7896    0.0238   -4.5146 C   0  0  0  0  0  0  0  0  0  0  0  0
    1.9616   -0.9560   -6.9236 O   0  0  0  0  0  0  0  0  0  0  0  0
    3.4308    1.1808   -6.8878 O   0  0  0  0  0  0  0  0  0  0  0  0
    1.0424    1.3505   -6.1651 O   0  0  0  0  0  0  0  0  0  0  0  0
    1.7989   -0.6524   -3.9222 F   0  0  0  0  0  0  0  0  0  0  0  0
    3.9128   -0.6969   -4.4683 F   0  0  0  0  0  0  0  0  0  0  0  0
    2.9747    1.1871   -3.8869 F   0  0  0  0  0  0  0  0  0  0  0  0
   -4.1965   -0.4857   -6.1749 O   0  0  0  0  0  0  0  0  0  0  0  0
   -4.9853   -0.4969   -4.9881 C   0  0  0  0  0  0  0  0  0  0  0  0
   -5.9634   -0.8857   -5.2864 H   0  0  0  0  0  0  0  0  0  0  0  0
   -5.1033    0.5181   -4.5790 H   0  0  0  0  0  0  0  0  0  0  0  0
   -4.5455   -1.1563   -4.2244 H   0  0  0  0  0  0  0  0  0  0  0  0
  1  6  1  0  0  0  0
  2  1  2  0  0  0  0
  2  3  1  0  0  0  0
  3  4  2  0  0  0  0
  4  5  1  0  0  0  0
  4  9  1  0  0  0  0
  5 10  1  0  0  0  0
  6  5  2  0  0  0  0
  7  1  1  0  0  0  0
  8  2  1  0  0  0  0
 11 12  3  0  0  0  0
 13 17  1  0  0  0  0
 13 14  1  0  0  0  0
 14 19  1  0  0  0  0
 14 18  1  0  0  0  0
 14 20  1  0  0  0  0
 15 13  2  0  0  0  0
 16 13  2  0  0  0  0
 17  3  1  0  0  0  0
 21  6  1  0  0  0  0
 21 22  1  0  0  0  0
 22 24  1  0  0  0  0
 22 25  1  0  0  0  0
 23 22  1  0  0  0  0
M  END
