Coordinates from ORCA-job p-CH3O-Ph-N2-OTf-B3LYPG-aug-cc-pVDZ-scan-d29-49-n200
 OpenBabel01151817073D

 25 24  0  0  0  0  0  0  0  0999 V2000
   -2.1717   -0.0604   -7.2952 C   0  0  0  0  0  0  0  0  0  0  0  0
   -0.8485    0.3643   -7.3229 C   0  0  0  0  0  0  0  0  0  0  0  0
   -0.2473    0.7955   -6.1376 C   0  0  0  0  0  0  0  0  0  0  0  0
   -0.9523    0.8244   -4.9405 C   0  0  0  0  0  0  0  0  0  0  0  0
   -2.2873    0.4050   -4.9121 C   0  0  0  0  0  0  0  0  0  0  0  0
   -2.8983   -0.0458   -6.0915 C   0  0  0  0  0  0  0  0  0  0  0  0
   -2.6656   -0.4062   -8.2019 H   0  0  0  0  0  0  0  0  0  0  0  0
   -0.2839    0.3642   -8.2532 H   0  0  0  0  0  0  0  0  0  0  0  0
   -0.4692    1.1868   -4.0347 H   0  0  0  0  0  0  0  0  0  0  0  0
   -2.8292    0.4367   -3.9707 H   0  0  0  0  0  0  0  0  0  0  0  0
   -1.7289    4.7245   -7.0962 N   0  0  0  0  0  0  0  0  0  0  0  0
   -2.8007    4.9750   -7.0050 N   0  0  0  0  0  0  0  0  0  0  0  0
    2.3727    0.3107   -6.3362 S   0  0  0  0  0  0  0  0  0  0  0  0
    2.8008   -0.0034   -4.5063 C   0  0  0  0  0  0  0  0  0  0  0  0
    1.9700   -0.9820   -6.9149 O   0  0  0  0  0  0  0  0  0  0  0  0
    3.4486    1.1483   -6.8802 O   0  0  0  0  0  0  0  0  0  0  0  0
    1.0604    1.3293   -6.1592 O   0  0  0  0  0  0  0  0  0  0  0  0
    1.8067   -0.6746   -3.9138 F   0  0  0  0  0  0  0  0  0  0  0  0
    3.9207   -0.7290   -4.4585 F   0  0  0  0  0  0  0  0  0  0  0  0
    2.9907    1.1597   -3.8798 F   0  0  0  0  0  0  0  0  0  0  0  0
   -4.1871   -0.4818   -6.1754 O   0  0  0  0  0  0  0  0  0  0  0  0
   -4.9773   -0.4901   -4.9895 C   0  0  0  0  0  0  0  0  0  0  0  0
   -5.9569   -0.8739   -5.2891 H   0  0  0  0  0  0  0  0  0  0  0  0
   -5.0909    0.5252   -4.5799 H   0  0  0  0  0  0  0  0  0  0  0  0
   -4.5414   -1.1520   -4.2258 H   0  0  0  0  0  0  0  0  0  0  0  0
  1  6  1  0  0  0  0
  2  1  2  0  0  0  0
  2  3  1  0  0  0  0
  3  4  2  0  0  0  0
  4  5  1  0  0  0  0
  4  9  1  0  0  0  0
  5 10  1  0  0  0  0
  6  5  2  0  0  0  0
  7  1  1  0  0  0  0
  8  2  1  0  0  0  0
 11 12  3  0  0  0  0
 13 17  1  0  0  0  0
 13 14  1  0  0  0  0
 14 19  1  0  0  0  0
 14 18  1  0  0  0  0
 14 20  1  0  0  0  0
 15 13  2  0  0  0  0
 16 13  2  0  0  0  0
 17  3  1  0  0  0  0
 21  6  1  0  0  0  0
 21 22  1  0  0  0  0
 22 24  1  0  0  0  0
 22 25  1  0  0  0  0
 23 22  1  0  0  0  0
M  END
