Coordinates from ORCA-job p-CH3O-Ph-N2-OTf-B3LYPG-aug-cc-pVDZ-scan-d09-29-n200
 OpenBabel01151817073D

 25 24  0  0  0  0  0  0  0  0999 V2000
   -1.8727   -0.3958   -6.4325 C   0  0  0  0  0  0  0  0  0  0  0  0
   -0.9405    0.5770   -6.7313 C   0  0  0  0  0  0  0  0  0  0  0  0
   -1.2113    1.8793   -6.2751 C   0  0  0  0  0  0  0  0  0  0  0  0
   -2.3483    2.2362   -5.5376 C   0  0  0  0  0  0  0  0  0  0  0  0
   -3.2687    1.2409   -5.2449 C   0  0  0  0  0  0  0  0  0  0  0  0
   -3.0347   -0.0800   -5.6917 C   0  0  0  0  0  0  0  0  0  0  0  0
   -1.7152   -1.4263   -6.7447 H   0  0  0  0  0  0  0  0  0  0  0  0
   -0.0051    0.3850   -7.2598 H   0  0  0  0  0  0  0  0  0  0  0  0
   -2.4986    3.2588   -5.1975 H   0  0  0  0  0  0  0  0  0  0  0  0
   -4.1541    1.4935   -4.6692 H   0  0  0  0  0  0  0  0  0  0  0  0
   -0.2764    2.9111   -6.5665 N   0  0  0  0  0  0  0  0  0  0  0  0
    0.4122    3.7502   -6.8011 N   0  0  0  0  0  0  0  0  0  0  0  0
    2.5522    1.1520   -6.0361 S   0  0  0  0  0  0  0  0  0  0  0  0
    2.8056   -0.6935   -5.6706 C   0  0  0  0  0  0  0  0  0  0  0  0
    1.9451    1.1379   -7.4253 O   0  0  0  0  0  0  0  0  0  0  0  0
    3.9115    1.7409   -5.9250 O   0  0  0  0  0  0  0  0  0  0  0  0
    1.5482    1.5718   -4.9885 O   0  0  0  0  0  0  0  0  0  0  0  0
    1.6277   -1.3637   -5.7806 F   0  0  0  0  0  0  0  0  0  0  0  0
    3.6729   -1.2436   -6.5368 F   0  0  0  0  0  0  0  0  0  0  0  0
    3.2697   -0.8804   -4.4236 F   0  0  0  0  0  0  0  0  0  0  0  0
   -3.8634   -1.1083   -5.4557 O   0  0  0  0  0  0  0  0  0  0  0  0
   -5.0550   -0.8955   -4.6855 C   0  0  0  0  0  0  0  0  0  0  0  0
   -5.5400   -1.8730   -4.6291 H   0  0  0  0  0  0  0  0  0  0  0  0
   -5.7204   -0.1792   -5.1874 H   0  0  0  0  0  0  0  0  0  0  0  0
   -4.8064   -0.5451   -3.6742 H   0  0  0  0  0  0  0  0  0  0  0  0
  1  6  1  0  0  0  0
  2  1  2  0  0  0  0
  2  3  1  0  0  0  0
  3  4  2  0  0  0  0
  4  5  1  0  0  0  0
  4  9  1  0  0  0  0
  5 10  1  0  0  0  0
  6 21  1  0  0  0  0
  6  5  2  0  0  0  0
  7  1  1  0  0  0  0
  8  2  1  0  0  0  0
 11  3  1  0  0  0  0
 12 11  1  0  0  0  0
 13 16  2  0  0  0  0
 13 14  1  0  0  0  0
 13 17  1  0  0  0  0
 14 20  1  0  0  0  0
 15 13  2  0  0  0  0
 18 14  1  0  0  0  0
 19 14  1  0  0  0  0
 21 22  1  0  0  0  0
 22 23  1  0  0  0  0
 22 25  1  0  0  0  0
 24 22  1  0  0  0  0
M  RAD  3  11   2  12   3  17   2
M  END
