Coordinates from ORCA-job p-CH3O-Ph-N2-OTf-B3LYPG-aug-cc-pVDZ-scan-d29-49-n200
 OpenBabel01151817073D

 25 24  0  0  0  0  0  0  0  0999 V2000
   -2.1966   -0.0484   -7.2992 C   0  0  0  0  0  0  0  0  0  0  0  0
   -0.8775    0.3886   -7.3302 C   0  0  0  0  0  0  0  0  0  0  0  0
   -0.2781    0.8268   -6.1465 C   0  0  0  0  0  0  0  0  0  0  0  0
   -0.9806    0.8503   -4.9479 C   0  0  0  0  0  0  0  0  0  0  0  0
   -2.3117    0.4187   -4.9164 C   0  0  0  0  0  0  0  0  0  0  0  0
   -2.9209   -0.0390   -6.0940 C   0  0  0  0  0  0  0  0  0  0  0  0
   -2.6890   -0.4007   -8.2043 H   0  0  0  0  0  0  0  0  0  0  0  0
   -0.3147    0.3923   -8.2614 H   0  0  0  0  0  0  0  0  0  0  0  0
   -0.4987    1.2175   -4.0434 H   0  0  0  0  0  0  0  0  0  0  0  0
   -2.8519    0.4459   -3.9738 H   0  0  0  0  0  0  0  0  0  0  0  0
   -1.4672    4.3940   -6.9953 N   0  0  0  0  0  0  0  0  0  0  0  0
   -2.5141    4.7398   -6.9315 N   0  0  0  0  0  0  0  0  0  0  0  0
    2.3454    0.3658   -6.3518 S   0  0  0  0  0  0  0  0  0  0  0  0
    2.7785    0.0511   -4.5231 C   0  0  0  0  0  0  0  0  0  0  0  0
    1.9536   -0.9290   -6.9330 O   0  0  0  0  0  0  0  0  0  0  0  0
    3.4133    1.2141   -6.8950 O   0  0  0  0  0  0  0  0  0  0  0  0
    1.0247    1.3723   -6.1709 O   0  0  0  0  0  0  0  0  0  0  0  0
    1.7910   -0.6304   -3.9311 F   0  0  0  0  0  0  0  0  0  0  0  0
    3.9048   -0.6648   -4.4784 F   0  0  0  0  0  0  0  0  0  0  0  0
    2.9589    1.2142   -3.8938 F   0  0  0  0  0  0  0  0  0  0  0  0
   -4.2058   -0.4873   -6.1748 O   0  0  0  0  0  0  0  0  0  0  0  0
   -4.9934   -0.5015   -4.9873 C   0  0  0  0  0  0  0  0  0  0  0  0
   -5.9700   -0.8947   -5.2844 H   0  0  0  0  0  0  0  0  0  0  0  0
   -5.1156    0.5132   -4.5787 H   0  0  0  0  0  0  0  0  0  0  0  0
   -4.5500   -1.1584   -4.2237 H   0  0  0  0  0  0  0  0  0  0  0  0
  1  6  1  0  0  0  0
  2  1  2  0  0  0  0
  2  3  1  0  0  0  0
  3  4  2  0  0  0  0
  4  5  1  0  0  0  0
  4  9  1  0  0  0  0
  5 10  1  0  0  0  0
  6  5  2  0  0  0  0
  7  1  1  0  0  0  0
  8  2  1  0  0  0  0
 11 12  3  0  0  0  0
 13 17  1  0  0  0  0
 13 14  1  0  0  0  0
 14 19  1  0  0  0  0
 14 18  1  0  0  0  0
 14 20  1  0  0  0  0
 15 13  2  0  0  0  0
 16 13  2  0  0  0  0
 17  3  1  0  0  0  0
 21  6  1  0  0  0  0
 21 22  1  0  0  0  0
 22 24  1  0  0  0  0
 22 25  1  0  0  0  0
 23 22  1  0  0  0  0
M  END
