Coordinates from ORCA-job p-CH3O-Ph-N2-OTf-B3LYPG-aug-cc-pVDZ-scan-d09-29-n200
 OpenBabel01151817073D

 25 24  0  0  0  0  0  0  0  0999 V2000
   -1.9775   -0.3797   -6.3162 C   0  0  0  0  0  0  0  0  0  0  0  0
   -0.9650    0.5765   -6.4676 C   0  0  0  0  0  0  0  0  0  0  0  0
   -1.3440    1.7710   -5.9458 C   0  0  0  0  0  0  0  0  0  0  0  0
   -2.4601    2.2258   -5.3064 C   0  0  0  0  0  0  0  0  0  0  0  0
   -3.4397    1.2256   -5.1753 C   0  0  0  0  0  0  0  0  0  0  0  0
   -3.1979   -0.0684   -5.6793 C   0  0  0  0  0  0  0  0  0  0  0  0
   -1.8128   -1.3904   -6.6871 H   0  0  0  0  0  0  0  0  0  0  0  0
    0.0216    0.3670   -6.9312 H   0  0  0  0  0  0  0  0  0  0  0  0
   -2.5987    3.2353   -4.9320 H   0  0  0  0  0  0  0  0  0  0  0  0
   -4.3709    1.4843   -4.6791 H   0  0  0  0  0  0  0  0  0  0  0  0
   -0.0722    3.1622   -6.1406 N   0  0  0  0  0  0  0  0  0  0  0  0
    0.4280    4.1349   -6.2849 N   0  0  0  0  0  0  0  0  0  0  0  0
    2.5903    0.8794   -6.5047 S   0  0  0  0  0  0  0  0  0  0  0  0
    3.3114   -0.6085   -5.5765 C   0  0  0  0  0  0  0  0  0  0  0  0
    1.7114    0.2315   -7.5569 O   0  0  0  0  0  0  0  0  0  0  0  0
    3.7694    1.6249   -7.0137 O   0  0  0  0  0  0  0  0  0  0  0  0
    1.7732    1.5740   -5.4346 O   0  0  0  0  0  0  0  0  0  0  0  0
    2.3181   -1.3757   -5.0752 F   0  0  0  0  0  0  0  0  0  0  0  0
    4.0536   -1.3668   -6.4004 F   0  0  0  0  0  0  0  0  0  0  0  0
    4.0848   -0.2019   -4.5553 F   0  0  0  0  0  0  0  0  0  0  0  0
   -4.0812   -1.0876   -5.5966 O   0  0  0  0  0  0  0  0  0  0  0  0
   -5.3361   -0.8659   -4.9469 C   0  0  0  0  0  0  0  0  0  0  0  0
   -5.8646   -1.8213   -4.9990 H   0  0  0  0  0  0  0  0  0  0  0  0
   -5.9183   -0.0933   -5.4704 H   0  0  0  0  0  0  0  0  0  0  0  0
   -5.1883   -0.5827   -3.8945 H   0  0  0  0  0  0  0  0  0  0  0  0
  1  6  1  0  0  0  0
  2  1  2  0  0  0  0
  2  3  1  0  0  0  0
  3  4  2  0  0  0  0
  4  5  1  0  0  0  0
  4  9  1  0  0  0  0
  5 10  1  0  0  0  0
  6 21  1  0  0  0  0
  6  5  2  0  0  0  0
  7  1  1  0  0  0  0
  8  2  1  0  0  0  0
 11  3  1  0  0  0  0
 12 11  1  0  0  0  0
 13 14  1  0  0  0  0
 13 17  1  0  0  0  0
 14 18  1  0  0  0  0
 14 20  1  0  0  0  0
 15 13  2  0  0  0  0
 16 13  2  0  0  0  0
 19 14  1  0  0  0  0
 21 22  1  0  0  0  0
 22 25  1  0  0  0  0
 23 22  1  0  0  0  0
 24 22  1  0  0  0  0
M  RAD  3  11   2  12   3  17   2
M  END
