Coordinates from ORCA-job p-CH3O-Ph-N2-OTf-B3LYPG-aug-cc-pVDZ-scan-d29-49-n200
 OpenBabel01151817073D

 25 24  0  0  0  0  0  0  0  0999 V2000
   -2.2318   -0.0108   -7.3077 C   0  0  0  0  0  0  0  0  0  0  0  0
   -0.9204    0.4481   -7.3425 C   0  0  0  0  0  0  0  0  0  0  0  0
   -0.3279    0.9057   -6.1633 C   0  0  0  0  0  0  0  0  0  0  0  0
   -1.0234    0.9077   -4.9609 C   0  0  0  0  0  0  0  0  0  0  0  0
   -2.3473    0.4552   -4.9248 C   0  0  0  0  0  0  0  0  0  0  0  0
   -2.9542   -0.0096   -6.1011 C   0  0  0  0  0  0  0  0  0  0  0  0
   -2.7203   -0.3735   -8.2107 H   0  0  0  0  0  0  0  0  0  0  0  0
   -0.3599    0.4573   -8.2751 H   0  0  0  0  0  0  0  0  0  0  0  0
   -0.5436    1.2787   -4.0569 H   0  0  0  0  0  0  0  0  0  0  0  0
   -2.8841    0.4712   -3.9800 H   0  0  0  0  0  0  0  0  0  0  0  0
   -1.0659    3.6920   -6.7928 N   0  0  0  0  0  0  0  0  0  0  0  0
   -2.0539    4.1858   -6.7859 N   0  0  0  0  0  0  0  0  0  0  0  0
    2.2980    0.4671   -6.3792 S   0  0  0  0  0  0  0  0  0  0  0  0
    2.7387    0.1415   -4.5541 C   0  0  0  0  0  0  0  0  0  0  0  0
    1.9180   -0.8270   -6.9699 O   0  0  0  0  0  0  0  0  0  0  0  0
    3.3574    1.3289   -6.9176 O   0  0  0  0  0  0  0  0  0  0  0  0
    0.9700    1.4605   -6.1883 O   0  0  0  0  0  0  0  0  0  0  0  0
    1.7595   -0.5542   -3.9649 F   0  0  0  0  0  0  0  0  0  0  0  0
    3.8718   -0.5640   -4.5185 F   0  0  0  0  0  0  0  0  0  0  0  0
    2.9100    1.3010   -3.9155 F   0  0  0  0  0  0  0  0  0  0  0  0
   -4.2326   -0.4754   -6.1786 O   0  0  0  0  0  0  0  0  0  0  0  0
   -5.0177   -0.4983   -4.9894 C   0  0  0  0  0  0  0  0  0  0  0  0
   -5.9903   -0.9029   -5.2846 H   0  0  0  0  0  0  0  0  0  0  0  0
   -5.1505    0.5151   -4.5810 H   0  0  0  0  0  0  0  0  0  0  0  0
   -4.5652   -1.1500   -4.2266 H   0  0  0  0  0  0  0  0  0  0  0  0
  1  6  1  0  0  0  0
  2  1  2  0  0  0  0
  2  3  1  0  0  0  0
  3  4  2  0  0  0  0
  4  5  1  0  0  0  0
  4  9  1  0  0  0  0
  5 10  1  0  0  0  0
  6  5  2  0  0  0  0
  7  1  1  0  0  0  0
  8  2  1  0  0  0  0
 11 12  3  0  0  0  0
 13 17  1  0  0  0  0
 13 14  1  0  0  0  0
 14 19  1  0  0  0  0
 14 18  1  0  0  0  0
 14 20  1  0  0  0  0
 15 13  2  0  0  0  0
 16 13  2  0  0  0  0
 17  3  1  0  0  0  0
 21  6  1  0  0  0  0
 21 22  1  0  0  0  0
 22 24  1  0  0  0  0
 22 25  1  0  0  0  0
 23 22  1  0  0  0  0
M  END
