Coordinates from ORCA-job p-CH3O-Ph-N2-OTf-B3LYPG-aug-cc-pVDZ-scan-d29-49-n200
 OpenBabel01151817073D

 25 24  0  0  0  0  0  0  0  0999 V2000
   -2.2136   -0.0383   -7.3019 C   0  0  0  0  0  0  0  0  0  0  0  0
   -0.8973    0.4070   -7.3348 C   0  0  0  0  0  0  0  0  0  0  0  0
   -0.2997    0.8508   -6.1524 C   0  0  0  0  0  0  0  0  0  0  0  0
   -1.0002    0.8688   -4.9526 C   0  0  0  0  0  0  0  0  0  0  0  0
   -2.3285    0.4290   -4.9192 C   0  0  0  0  0  0  0  0  0  0  0  0
   -2.9368   -0.0320   -6.0960 C   0  0  0  0  0  0  0  0  0  0  0  0
   -2.7050   -0.3934   -8.2063 H   0  0  0  0  0  0  0  0  0  0  0  0
   -0.3356    0.4137   -8.2667 H   0  0  0  0  0  0  0  0  0  0  0  0
   -0.5193    1.2391   -4.0489 H   0  0  0  0  0  0  0  0  0  0  0  0
   -2.8677    0.4534   -3.9759 H   0  0  0  0  0  0  0  0  0  0  0  0
   -1.2848    4.1346   -6.9191 N   0  0  0  0  0  0  0  0  0  0  0  0
   -2.3107    4.5409   -6.8739 N   0  0  0  0  0  0  0  0  0  0  0  0
    2.3263    0.4082   -6.3634 S   0  0  0  0  0  0  0  0  0  0  0  0
    2.7632    0.0905   -4.5361 C   0  0  0  0  0  0  0  0  0  0  0  0
    1.9430   -0.8876   -6.9483 O   0  0  0  0  0  0  0  0  0  0  0  0
    3.3880    1.2652   -6.9049 O   0  0  0  0  0  0  0  0  0  0  0  0
    0.9993    1.4050   -6.1784 O   0  0  0  0  0  0  0  0  0  0  0  0
    1.7812   -0.6002   -3.9456 F   0  0  0  0  0  0  0  0  0  0  0  0
    3.8947   -0.6173   -4.4946 F   0  0  0  0  0  0  0  0  0  0  0  0
    2.9355    1.2527   -3.9030 F   0  0  0  0  0  0  0  0  0  0  0  0
   -4.2195   -0.4864   -6.1754 O   0  0  0  0  0  0  0  0  0  0  0  0
   -5.0060   -0.5038   -4.9871 C   0  0  0  0  0  0  0  0  0  0  0  0
   -5.9810   -0.9016   -5.2832 H   0  0  0  0  0  0  0  0  0  0  0  0
   -5.1323    0.5104   -4.5787 H   0  0  0  0  0  0  0  0  0  0  0  0
   -4.5588   -1.1586   -4.2238 H   0  0  0  0  0  0  0  0  0  0  0  0
  1  6  1  0  0  0  0
  2  1  2  0  0  0  0
  2  3  1  0  0  0  0
  3  4  2  0  0  0  0
  4  5  1  0  0  0  0
  4  9  1  0  0  0  0
  5 10  1  0  0  0  0
  6  5  2  0  0  0  0
  7  1  1  0  0  0  0
  8  2  1  0  0  0  0
 11 12  3  0  0  0  0
 13 17  1  0  0  0  0
 13 14  1  0  0  0  0
 14 19  1  0  0  0  0
 14 18  1  0  0  0  0
 14 20  1  0  0  0  0
 15 13  2  0  0  0  0
 16 13  2  0  0  0  0
 17  3  1  0  0  0  0
 21  6  1  0  0  0  0
 21 22  1  0  0  0  0
 22 24  1  0  0  0  0
 22 25  1  0  0  0  0
 23 22  1  0  0  0  0
M  END
