Coordinates from ORCA-job p-CH3O-Ph-N2-OTf-B3LYPG-aug-cc-pVDZ-scan-d29-49-n200
 OpenBabel01151817073D

 25 24  0  0  0  0  0  0  0  0999 V2000
   -2.1913   -0.0515   -7.2983 C   0  0  0  0  0  0  0  0  0  0  0  0
   -0.8714    0.3830   -7.3286 C   0  0  0  0  0  0  0  0  0  0  0  0
   -0.2716    0.8199   -6.1446 C   0  0  0  0  0  0  0  0  0  0  0  0
   -0.9746    0.8445   -4.9463 C   0  0  0  0  0  0  0  0  0  0  0  0
   -2.3065    0.4154   -4.9154 C   0  0  0  0  0  0  0  0  0  0  0  0
   -2.9161   -0.0410   -6.0933 C   0  0  0  0  0  0  0  0  0  0  0  0
   -2.6840   -0.4026   -8.2036 H   0  0  0  0  0  0  0  0  0  0  0  0
   -0.3082    0.3859   -8.2597 H   0  0  0  0  0  0  0  0  0  0  0  0
   -0.4925    1.2107   -4.0416 H   0  0  0  0  0  0  0  0  0  0  0  0
   -2.8470    0.4436   -3.9730 H   0  0  0  0  0  0  0  0  0  0  0  0
   -1.5228    4.4690   -7.0179 N   0  0  0  0  0  0  0  0  0  0  0  0
   -2.5755    4.7957   -6.9485 N   0  0  0  0  0  0  0  0  0  0  0  0
    2.3512    0.3537   -6.3484 S   0  0  0  0  0  0  0  0  0  0  0  0
    2.7832    0.0392   -4.5194 C   0  0  0  0  0  0  0  0  0  0  0  0
    1.9570   -0.9407   -6.9290 O   0  0  0  0  0  0  0  0  0  0  0  0
    3.4209    1.1996   -6.8918 O   0  0  0  0  0  0  0  0  0  0  0  0
    1.0323    1.3629   -6.1684 O   0  0  0  0  0  0  0  0  0  0  0  0
    1.7943   -0.6400   -3.9273 F   0  0  0  0  0  0  0  0  0  0  0  0
    3.9081   -0.6787   -4.4740 F   0  0  0  0  0  0  0  0  0  0  0  0
    2.9656    1.2024   -3.8908 F   0  0  0  0  0  0  0  0  0  0  0  0
   -4.2017   -0.4869   -6.1747 O   0  0  0  0  0  0  0  0  0  0  0  0
   -4.9899   -0.4998   -4.9875 C   0  0  0  0  0  0  0  0  0  0  0  0
   -5.9671   -0.8912   -5.2851 H   0  0  0  0  0  0  0  0  0  0  0  0
   -5.1103    0.5150   -4.5788 H   0  0  0  0  0  0  0  0  0  0  0  0
   -4.5479   -1.1577   -4.2239 H   0  0  0  0  0  0  0  0  0  0  0  0
  1  6  1  0  0  0  0
  2  1  2  0  0  0  0
  2  3  1  0  0  0  0
  3  4  2  0  0  0  0
  4  5  1  0  0  0  0
  4  9  1  0  0  0  0
  5 10  1  0  0  0  0
  6  5  2  0  0  0  0
  7  1  1  0  0  0  0
  8  2  1  0  0  0  0
 11 12  3  0  0  0  0
 13 17  1  0  0  0  0
 13 14  1  0  0  0  0
 14 19  1  0  0  0  0
 14 18  1  0  0  0  0
 14 20  1  0  0  0  0
 15 13  2  0  0  0  0
 16 13  2  0  0  0  0
 17  3  1  0  0  0  0
 21  6  1  0  0  0  0
 21 22  1  0  0  0  0
 22 24  1  0  0  0  0
 22 25  1  0  0  0  0
 23 22  1  0  0  0  0
M  END
