Coordinates from ORCA-job p-CH3O-Ph-N2-OTf-B3LYPG-aug-cc-pVDZ-scan-d09-29-n200
 OpenBabel01151817073D

 25 23  0  0  0  0  0  0  0  0999 V2000
   -1.8973   -0.3484   -6.3355 C   0  0  0  0  0  0  0  0  0  0  0  0
   -0.9240    0.6700   -6.4951 C   0  0  0  0  0  0  0  0  0  0  0  0
   -1.4152    1.7677   -5.9503 C   0  0  0  0  0  0  0  0  0  0  0  0
   -2.4920    2.2462   -5.2997 C   0  0  0  0  0  0  0  0  0  0  0  0
   -3.4223    1.1830   -5.1680 C   0  0  0  0  0  0  0  0  0  0  0  0
   -3.1242   -0.0957   -5.6838 C   0  0  0  0  0  0  0  0  0  0  0  0
   -1.6749   -1.3477   -6.7095 H   0  0  0  0  0  0  0  0  0  0  0  0
    0.1204    0.4893   -6.9611 H   0  0  0  0  0  0  0  0  0  0  0  0
   -2.6626    3.2506   -4.9280 H   0  0  0  0  0  0  0  0  0  0  0  0
   -4.3599    1.4002   -4.6626 H   0  0  0  0  0  0  0  0  0  0  0  0
   -0.0108    3.6895   -6.2369 N   0  0  0  0  0  0  0  0  0  0  0  0
    0.5959    4.6004   -6.3717 N   0  0  0  0  0  0  0  0  0  0  0  0
    2.5712    0.8572   -6.4802 S   0  0  0  0  0  0  0  0  0  0  0  0
    3.0677   -0.7072   -5.5320 C   0  0  0  0  0  0  0  0  0  0  0  0
    1.5643    0.3007   -7.5011 O   0  0  0  0  0  0  0  0  0  0  0  0
    3.8268    1.3568   -7.0881 O   0  0  0  0  0  0  0  0  0  0  0  0
    1.9003    1.7087   -5.4441 O   0  0  0  0  0  0  0  0  0  0  0  0
    1.9746   -1.2865   -4.9864 F   0  0  0  0  0  0  0  0  0  0  0  0
    3.6520   -1.5967   -6.3499 F   0  0  0  0  0  0  0  0  0  0  0  0
    3.9229   -0.4039   -4.5425 F   0  0  0  0  0  0  0  0  0  0  0  0
   -3.9594   -1.1582   -5.5984 O   0  0  0  0  0  0  0  0  0  0  0  0
   -5.2142   -0.9955   -4.9337 C   0  0  0  0  0  0  0  0  0  0  0  0
   -5.7009   -1.9731   -4.9826 H   0  0  0  0  0  0  0  0  0  0  0  0
   -5.8371   -0.2479   -5.4470 H   0  0  0  0  0  0  0  0  0  0  0  0
   -5.0670   -0.7093   -3.8816 H   0  0  0  0  0  0  0  0  0  0  0  0
  1  6  1  0  0  0  0
  2  1  2  0  0  0  0
  2  3  1  0  0  0  0
  3  4  2  0  0  0  0
  4  5  1  0  0  0  0
  4  9  1  0  0  0  0
  5 10  1  0  0  0  0
  6 21  1  0  0  0  0
  6  5  2  0  0  0  0
  7  1  1  0  0  0  0
  8  2  1  0  0  0  0
 12 11  3  0  0  0  0
 13 14  1  0  0  0  0
 13 17  1  0  0  0  0
 14 18  1  0  0  0  0
 14 20  1  0  0  0  0
 15 13  2  0  0  0  0
 16 13  2  0  0  0  0
 19 14  1  0  0  0  0
 21 22  1  0  0  0  0
 22 25  1  0  0  0  0
 23 22  1  0  0  0  0
 24 22  1  0  0  0  0
M  RAD  2   3   2  17   2
M  END
