Coordinates from ORCA-job p-CH3O-Ph-N2-OTf-B3LYPG-aug-cc-pVDZ-scan-d09-29-n200
 OpenBabel01151817073D

 25 23  0  0  0  0  0  0  0  0999 V2000
   -1.9601   -0.3700   -6.3063 C   0  0  0  0  0  0  0  0  0  0  0  0
   -0.9555    0.6010   -6.4602 C   0  0  0  0  0  0  0  0  0  0  0  0
   -1.3729    1.7716   -5.9410 C   0  0  0  0  0  0  0  0  0  0  0  0
   -2.4813    2.2374   -5.3085 C   0  0  0  0  0  0  0  0  0  0  0  0
   -3.4489    1.2206   -5.1786 C   0  0  0  0  0  0  0  0  0  0  0  0
   -3.1874   -0.0721   -5.6764 C   0  0  0  0  0  0  0  0  0  0  0  0
   -1.7759   -1.3799   -6.6710 H   0  0  0  0  0  0  0  0  0  0  0  0
    0.0458    0.3970   -6.9172 H   0  0  0  0  0  0  0  0  0  0  0  0
   -2.6300    3.2477   -4.9414 H   0  0  0  0  0  0  0  0  0  0  0  0
   -4.3852    1.4714   -4.6878 H   0  0  0  0  0  0  0  0  0  0  0  0
   -0.0545    3.2679   -6.1532 N   0  0  0  0  0  0  0  0  0  0  0  0
    0.4704    4.2263   -6.3009 N   0  0  0  0  0  0  0  0  0  0  0  0
    2.5865    0.8746   -6.4937 S   0  0  0  0  0  0  0  0  0  0  0  0
    3.2810   -0.6338   -5.5789 C   0  0  0  0  0  0  0  0  0  0  0  0
    1.6661    0.2435   -7.5280 O   0  0  0  0  0  0  0  0  0  0  0  0
    3.7756    1.5740   -7.0419 O   0  0  0  0  0  0  0  0  0  0  0  0
    1.8117    1.5983   -5.4180 O   0  0  0  0  0  0  0  0  0  0  0  0
    2.2748   -1.3689   -5.0550 F   0  0  0  0  0  0  0  0  0  0  0  0
    3.9821   -1.4167   -6.4156 F   0  0  0  0  0  0  0  0  0  0  0  0
    4.0872   -0.2489   -4.5751 F   0  0  0  0  0  0  0  0  0  0  0  0
   -4.0578   -1.1033   -5.5937 O   0  0  0  0  0  0  0  0  0  0  0  0
   -5.3177   -0.8945   -4.9501 C   0  0  0  0  0  0  0  0  0  0  0  0
   -5.8342   -1.8566   -4.9995 H   0  0  0  0  0  0  0  0  0  0  0  0
   -5.9077   -0.1318   -5.4795 H   0  0  0  0  0  0  0  0  0  0  0  0
   -5.1778   -0.6045   -3.8984 H   0  0  0  0  0  0  0  0  0  0  0  0
  1  6  1  0  0  0  0
  2  1  2  0  0  0  0
  2  3  1  0  0  0  0
  3  4  2  0  0  0  0
  4  5  1  0  0  0  0
  4  9  1  0  0  0  0
  5 10  1  0  0  0  0
  6 21  1  0  0  0  0
  6  5  2  0  0  0  0
  7  1  1  0  0  0  0
  8  2  1  0  0  0  0
 12 11  3  0  0  0  0
 13 14  1  0  0  0  0
 13 17  1  0  0  0  0
 14 18  1  0  0  0  0
 14 20  1  0  0  0  0
 15 13  2  0  0  0  0
 16 13  2  0  0  0  0
 19 14  1  0  0  0  0
 21 22  1  0  0  0  0
 22 25  1  0  0  0  0
 23 22  1  0  0  0  0
 24 22  1  0  0  0  0
M  RAD  2   3   2  17   2
M  END
