Coordinates from ORCA-job p-CH3O-Ph-N2-OTf-B3LYPG-aug-cc-pVDZ-scan-d29-49-n200
 OpenBabel01151817073D

 25 24  0  0  0  0  0  0  0  0999 V2000
   -2.1832   -0.0559   -7.2969 C   0  0  0  0  0  0  0  0  0  0  0  0
   -0.8619    0.3747   -7.3262 C   0  0  0  0  0  0  0  0  0  0  0  0
   -0.2615    0.8094   -6.1417 C   0  0  0  0  0  0  0  0  0  0  0  0
   -0.9653    0.8357   -4.9438 C   0  0  0  0  0  0  0  0  0  0  0  0
   -2.2985    0.4105   -4.9139 C   0  0  0  0  0  0  0  0  0  0  0  0
   -2.9087   -0.0436   -6.0925 C   0  0  0  0  0  0  0  0  0  0  0  0
   -2.6764   -0.4050   -8.2027 H   0  0  0  0  0  0  0  0  0  0  0  0
   -0.2981    0.3764   -8.2569 H   0  0  0  0  0  0  0  0  0  0  0  0
   -0.4828    1.2003   -4.0387 H   0  0  0  0  0  0  0  0  0  0  0  0
   -2.8396    0.4402   -3.9719 H   0  0  0  0  0  0  0  0  0  0  0  0
   -1.6083    4.5800   -7.0515 N   0  0  0  0  0  0  0  0  0  0  0  0
   -2.6695    4.8760   -6.9733 N   0  0  0  0  0  0  0  0  0  0  0  0
    2.3601    0.3354   -6.3432 S   0  0  0  0  0  0  0  0  0  0  0  0
    2.7906    0.0214   -4.5138 C   0  0  0  0  0  0  0  0  0  0  0  0
    1.9624   -0.9583   -6.9229 O   0  0  0  0  0  0  0  0  0  0  0  0
    3.4323    1.1779   -6.8871 O   0  0  0  0  0  0  0  0  0  0  0  0
    1.0440    1.3486   -6.1646 O   0  0  0  0  0  0  0  0  0  0  0  0
    1.7996   -0.6545   -3.9215 F   0  0  0  0  0  0  0  0  0  0  0  0
    3.9134   -0.6997   -4.4674 F   0  0  0  0  0  0  0  0  0  0  0  0
    2.9760    1.1846   -3.8863 F   0  0  0  0  0  0  0  0  0  0  0  0
   -4.1956   -0.4854   -6.1749 O   0  0  0  0  0  0  0  0  0  0  0  0
   -4.9846   -0.4964   -4.9882 C   0  0  0  0  0  0  0  0  0  0  0  0
   -5.9628   -0.8848   -5.2866 H   0  0  0  0  0  0  0  0  0  0  0  0
   -5.1022    0.5186   -4.5791 H   0  0  0  0  0  0  0  0  0  0  0  0
   -4.5451   -1.1560   -4.2245 H   0  0  0  0  0  0  0  0  0  0  0  0
  1  6  1  0  0  0  0
  2  1  2  0  0  0  0
  2  3  1  0  0  0  0
  3  4  2  0  0  0  0
  4  5  1  0  0  0  0
  4  9  1  0  0  0  0
  5 10  1  0  0  0  0
  6  5  2  0  0  0  0
  7  1  1  0  0  0  0
  8  2  1  0  0  0  0
 11 12  3  0  0  0  0
 13 17  1  0  0  0  0
 13 14  1  0  0  0  0
 14 19  1  0  0  0  0
 14 18  1  0  0  0  0
 14 20  1  0  0  0  0
 15 13  2  0  0  0  0
 16 13  2  0  0  0  0
 17  3  1  0  0  0  0
 21  6  1  0  0  0  0
 21 22  1  0  0  0  0
 22 24  1  0  0  0  0
 22 25  1  0  0  0  0
 23 22  1  0  0  0  0
M  END
