Coordinates from ORCA-job p-CH3O-Ph-N2-OTf-B3LYPG-aug-cc-pVDZ-scan-d29-49-n200
 OpenBabel01151817073D

 25 24  0  0  0  0  0  0  0  0999 V2000
   -2.2164   -0.0360   -7.3023 C   0  0  0  0  0  0  0  0  0  0  0  0
   -0.9008    0.4110   -7.3356 C   0  0  0  0  0  0  0  0  0  0  0  0
   -0.3038    0.8563   -6.1535 C   0  0  0  0  0  0  0  0  0  0  0  0
   -1.0039    0.8731   -4.9535 C   0  0  0  0  0  0  0  0  0  0  0  0
   -2.3316    0.4315   -4.9198 C   0  0  0  0  0  0  0  0  0  0  0  0
   -2.9397   -0.0303   -6.0964 C   0  0  0  0  0  0  0  0  0  0  0  0
   -2.7075   -0.3920   -8.2066 H   0  0  0  0  0  0  0  0  0  0  0  0
   -0.3393    0.4181   -8.2676 H   0  0  0  0  0  0  0  0  0  0  0  0
   -0.5233    1.2439   -4.0499 H   0  0  0  0  0  0  0  0  0  0  0  0
   -2.8706    0.4556   -3.9764 H   0  0  0  0  0  0  0  0  0  0  0  0
   -1.2513    4.0800   -6.9032 N   0  0  0  0  0  0  0  0  0  0  0  0
   -2.2725    4.4985   -6.8622 N   0  0  0  0  0  0  0  0  0  0  0  0
    2.3226    0.4167   -6.3657 S   0  0  0  0  0  0  0  0  0  0  0  0
    2.7601    0.0977   -4.5388 C   0  0  0  0  0  0  0  0  0  0  0  0
    1.9409   -0.8789   -6.9519 O   0  0  0  0  0  0  0  0  0  0  0  0
    3.3834    1.2755   -6.9064 O   0  0  0  0  0  0  0  0  0  0  0  0
    0.9946    1.4119   -6.1796 O   0  0  0  0  0  0  0  0  0  0  0  0
    1.7790   -0.5946   -3.9489 F   0  0  0  0  0  0  0  0  0  0  0  0
    3.8924   -0.6088   -4.4981 F   0  0  0  0  0  0  0  0  0  0  0  0
    2.9313    1.2596   -3.9045 F   0  0  0  0  0  0  0  0  0  0  0  0
   -4.2220   -0.4858   -6.1756 O   0  0  0  0  0  0  0  0  0  0  0  0
   -5.0083   -0.5036   -4.9872 C   0  0  0  0  0  0  0  0  0  0  0  0
   -5.9831   -0.9022   -5.2832 H   0  0  0  0  0  0  0  0  0  0  0  0
   -5.1353    0.5107   -4.5791 H   0  0  0  0  0  0  0  0  0  0  0  0
   -4.5605   -1.1578   -4.2238 H   0  0  0  0  0  0  0  0  0  0  0  0
  1  6  1  0  0  0  0
  2  1  2  0  0  0  0
  2  3  1  0  0  0  0
  3  4  2  0  0  0  0
  4  5  1  0  0  0  0
  4  9  1  0  0  0  0
  5 10  1  0  0  0  0
  6  5  2  0  0  0  0
  7  1  1  0  0  0  0
  8  2  1  0  0  0  0
 11 12  3  0  0  0  0
 13 17  1  0  0  0  0
 13 14  1  0  0  0  0
 14 19  1  0  0  0  0
 14 18  1  0  0  0  0
 14 20  1  0  0  0  0
 15 13  2  0  0  0  0
 16 13  2  0  0  0  0
 17  3  1  0  0  0  0
 21  6  1  0  0  0  0
 21 22  1  0  0  0  0
 22 24  1  0  0  0  0
 22 25  1  0  0  0  0
 23 22  1  0  0  0  0
M  END
