Coordinates from ORCA-job p-CH3O-Ph-N2-OTf-B3LYPG-aug-cc-pVDZ-scan-d09-29-n200
 OpenBabel01151817073D

 25 24  0  0  0  0  0  0  0  0999 V2000
   -2.3340    0.0884   -7.2845 C   0  0  0  0  0  0  0  0  0  0  0  0
   -1.0230    0.5484   -7.3229 C   0  0  0  0  0  0  0  0  0  0  0  0
   -0.3999    0.9233   -6.1315 C   0  0  0  0  0  0  0  0  0  0  0  0
   -1.0601    0.8382   -4.9134 C   0  0  0  0  0  0  0  0  0  0  0  0
   -2.3834    0.3843   -4.8726 C   0  0  0  0  0  0  0  0  0  0  0  0
   -3.0232    0.0051   -6.0618 C   0  0  0  0  0  0  0  0  0  0  0  0
   -2.8476   -0.2101   -8.1971 H   0  0  0  0  0  0  0  0  0  0  0  0
   -0.4885    0.6231   -8.2675 H   0  0  0  0  0  0  0  0  0  0  0  0
   -0.5553    1.1462   -3.9994 H   0  0  0  0  0  0  0  0  0  0  0  0
   -2.8937    0.3325   -3.9146 H   0  0  0  0  0  0  0  0  0  0  0  0
   -0.9548    3.7161   -6.5630 N   0  0  0  0  0  0  0  0  0  0  0  0
   -0.7228    4.7741   -6.7790 N   0  0  0  0  0  0  0  0  0  0  0  0
    2.2237    0.5247   -6.4651 S   0  0  0  0  0  0  0  0  0  0  0  0
    2.6759   -0.0250   -4.6967 C   0  0  0  0  0  0  0  0  0  0  0  0
    1.8448   -0.6871   -7.2101 O   0  0  0  0  0  0  0  0  0  0  0  0
    3.2768    1.4515   -6.8984 O   0  0  0  0  0  0  0  0  0  0  0  0
    0.8962    1.4864   -6.1498 O   0  0  0  0  0  0  0  0  0  0  0  0
    1.7139   -0.8108   -4.2016 F   0  0  0  0  0  0  0  0  0  0  0  0
    3.8238   -0.7047   -4.7534 F   0  0  0  0  0  0  0  0  0  0  0  0
    2.8254    1.0464   -3.9143 F   0  0  0  0  0  0  0  0  0  0  0  0
   -4.3054   -0.4528   -6.1373 O   0  0  0  0  0  0  0  0  0  0  0  0
   -5.0566   -0.5607   -4.9314 C   0  0  0  0  0  0  0  0  0  0  0  0
   -6.0383   -0.9424   -5.2269 H   0  0  0  0  0  0  0  0  0  0  0  0
   -5.1751    0.4207   -4.4472 H   0  0  0  0  0  0  0  0  0  0  0  0
   -4.5846   -1.2657   -4.2302 H   0  0  0  0  0  0  0  0  0  0  0  0
  1  6  1  0  0  0  0
  2  1  2  0  0  0  0
  2  3  1  0  0  0  0
  3  4  2  0  0  0  0
  4  5  1  0  0  0  0
  4  9  1  0  0  0  0
  5 10  1  0  0  0  0
  6  5  2  0  0  0  0
  7  1  1  0  0  0  0
  8  2  1  0  0  0  0
 12 11  3  0  0  0  0
 13 17  1  0  0  0  0
 13 14  1  0  0  0  0
 14 18  1  0  0  0  0
 14 20  1  0  0  0  0
 15 13  2  0  0  0  0
 16 13  2  0  0  0  0
 17  3  1  0  0  0  0
 19 14  1  0  0  0  0
 21  6  1  0  0  0  0
 21 22  1  0  0  0  0
 22 24  1  0  0  0  0
 22 25  1  0  0  0  0
 23 22  1  0  0  0  0
M  END
