Coordinates from ORCA-job p-CH3O-Ph-N2-OTf-B3LYPG-aug-cc-pVDZ-scan-d09-29-n200
 OpenBabel01151817073D

 25 24  0  0  0  0  0  0  0  0999 V2000
   -1.6141   -0.0756   -6.5930 C   0  0  0  0  0  0  0  0  0  0  0  0
   -0.8466    1.0087   -6.9339 C   0  0  0  0  0  0  0  0  0  0  0  0
   -1.2282    2.3988   -6.5273 C   0  0  0  0  0  0  0  0  0  0  0  0
   -2.3995    2.4555   -5.6117 C   0  0  0  0  0  0  0  0  0  0  0  0
   -3.0947    1.3510   -5.2386 C   0  0  0  0  0  0  0  0  0  0  0  0
   -2.7168    0.0611   -5.7354 C   0  0  0  0  0  0  0  0  0  0  0  0
   -1.3285   -1.0689   -6.9338 H   0  0  0  0  0  0  0  0  0  0  0  0
    0.0195    0.9354   -7.5940 H   0  0  0  0  0  0  0  0  0  0  0  0
   -2.6638    3.4535   -5.2610 H   0  0  0  0  0  0  0  0  0  0  0  0
   -3.9396    1.4637   -4.5644 H   0  0  0  0  0  0  0  0  0  0  0  0
   -0.7690    3.1372   -6.7961 N   0  0  0  0  0  0  0  0  0  0  0  0
   -0.1828    4.0841   -7.1378 N   0  0  0  0  0  0  0  0  0  0  0  0
    2.2358    0.8041   -5.9483 S   0  0  0  0  0  0  0  0  0  0  0  0
    2.3940   -1.0341   -5.5076 C   0  0  0  0  0  0  0  0  0  0  0  0
    2.1510    0.7985   -7.4481 O   0  0  0  0  0  0  0  0  0  0  0  0
    3.4175    1.4438   -5.3206 O   0  0  0  0  0  0  0  0  0  0  0  0
    0.8960    1.1641   -5.3034 O   0  0  0  0  0  0  0  0  0  0  0  0
    1.3359   -1.7279   -6.0012 F   0  0  0  0  0  0  0  0  0  0  0  0
    3.5134   -1.5580   -6.0296 F   0  0  0  0  0  0  0  0  0  0  0  0
    2.4170   -1.2123   -4.1751 F   0  0  0  0  0  0  0  0  0  0  0  0
   -3.3643   -1.0567   -5.4283 O   0  0  0  0  0  0  0  0  0  0  0  0
   -4.4923   -1.0300   -4.5320 C   0  0  0  0  0  0  0  0  0  0  0  0
   -4.8153   -2.0704   -4.4537 H   0  0  0  0  0  0  0  0  0  0  0  0
   -5.3019   -0.4176   -4.9498 H   0  0  0  0  0  0  0  0  0  0  0  0
   -4.1887   -0.6577   -3.5453 H   0  0  0  0  0  0  0  0  0  0  0  0
  1  6  1  0  0  0  0
  2  1  2  0  0  0  0
  2  3  1  0  0  0  0
  3  4  2  0  0  0  0
  4  9  1  0  0  0  0
  4  5  1  0  0  0  0
  5 10  1  0  0  0  0
  6 21  1  0  0  0  0
  6  5  2  0  0  0  0
  7  1  1  0  0  0  0
  8  2  1  0  0  0  0
 11  3  1  0  0  0  0
 12 11  1  0  0  0  0
 13 14  1  0  0  0  0
 13 16  2  0  0  0  0
 13 17  1  0  0  0  0
 14 20  1  0  0  0  0
 15 13  2  0  0  0  0
 18 14  1  0  0  0  0
 19 14  1  0  0  0  0
 21 22  1  0  0  0  0
 22 23  1  0  0  0  0
 22 25  1  0  0  0  0
 24 22  1  0  0  0  0
M  RAD  3  11   2  12   3  17   2
M  END
