Coordinates from ORCA-job p-CH3O-Ph-N2-OTf-B3LYPG-aug-cc-pVDZ-scan-d29-49-n200
 OpenBabel01151817073D

 25 24  0  0  0  0  0  0  0  0999 V2000
   -2.2160   -0.0364   -7.3022 C   0  0  0  0  0  0  0  0  0  0  0  0
   -0.9003    0.4104   -7.3354 C   0  0  0  0  0  0  0  0  0  0  0  0
   -0.3032    0.8554   -6.1533 C   0  0  0  0  0  0  0  0  0  0  0  0
   -1.0034    0.8723   -4.9534 C   0  0  0  0  0  0  0  0  0  0  0  0
   -2.3312    0.4311   -4.9197 C   0  0  0  0  0  0  0  0  0  0  0  0
   -2.9393   -0.0306   -6.0964 C   0  0  0  0  0  0  0  0  0  0  0  0
   -2.7072   -0.3922   -8.2066 H   0  0  0  0  0  0  0  0  0  0  0  0
   -0.3388    0.4175   -8.2674 H   0  0  0  0  0  0  0  0  0  0  0  0
   -0.5228    1.2431   -4.0497 H   0  0  0  0  0  0  0  0  0  0  0  0
   -2.8702    0.4552   -3.9764 H   0  0  0  0  0  0  0  0  0  0  0  0
   -1.2560    4.0878   -6.9054 N   0  0  0  0  0  0  0  0  0  0  0  0
   -2.2779    4.5046   -6.8638 N   0  0  0  0  0  0  0  0  0  0  0  0
    2.3231    0.4155   -6.3654 S   0  0  0  0  0  0  0  0  0  0  0  0
    2.7607    0.0968   -4.5384 C   0  0  0  0  0  0  0  0  0  0  0  0
    1.9412   -0.8802   -6.9513 O   0  0  0  0  0  0  0  0  0  0  0  0
    3.3840    1.2740   -6.9063 O   0  0  0  0  0  0  0  0  0  0  0  0
    0.9952    1.4109   -6.1794 O   0  0  0  0  0  0  0  0  0  0  0  0
    1.7794   -0.5952   -3.9483 F   0  0  0  0  0  0  0  0  0  0  0  0
    3.8928   -0.6100   -4.4976 F   0  0  0  0  0  0  0  0  0  0  0  0
    2.9320    1.2587   -3.9044 F   0  0  0  0  0  0  0  0  0  0  0  0
   -4.2217   -0.4859   -6.1756 O   0  0  0  0  0  0  0  0  0  0  0  0
   -5.0080   -0.5036   -4.9873 C   0  0  0  0  0  0  0  0  0  0  0  0
   -5.9829   -0.9020   -5.2832 H   0  0  0  0  0  0  0  0  0  0  0  0
   -5.1349    0.5107   -4.5790 H   0  0  0  0  0  0  0  0  0  0  0  0
   -4.5603   -1.1579   -4.2238 H   0  0  0  0  0  0  0  0  0  0  0  0
  1  6  1  0  0  0  0
  2  1  2  0  0  0  0
  2  3  1  0  0  0  0
  3  4  2  0  0  0  0
  4  5  1  0  0  0  0
  4  9  1  0  0  0  0
  5 10  1  0  0  0  0
  6  5  2  0  0  0  0
  7  1  1  0  0  0  0
  8  2  1  0  0  0  0
 11 12  3  0  0  0  0
 13 17  1  0  0  0  0
 13 14  1  0  0  0  0
 14 19  1  0  0  0  0
 14 18  1  0  0  0  0
 14 20  1  0  0  0  0
 15 13  2  0  0  0  0
 16 13  2  0  0  0  0
 17  3  1  0  0  0  0
 21  6  1  0  0  0  0
 21 22  1  0  0  0  0
 22 24  1  0  0  0  0
 22 25  1  0  0  0  0
 23 22  1  0  0  0  0
M  END
