Coordinates from ORCA-job p-CH3O-Ph-N2-OTf-B3LYPG-aug-cc-pVDZ-scan-d29-49-n200
 OpenBabel01151817073D

 25 24  0  0  0  0  0  0  0  0999 V2000
   -2.2266   -0.0255   -7.3044 C   0  0  0  0  0  0  0  0  0  0  0  0
   -0.9133    0.4282   -7.3388 C   0  0  0  0  0  0  0  0  0  0  0  0
   -0.3186    0.8797   -6.1580 C   0  0  0  0  0  0  0  0  0  0  0  0
   -1.0172    0.8913   -4.9572 C   0  0  0  0  0  0  0  0  0  0  0  0
   -2.3427    0.4433   -4.9223 C   0  0  0  0  0  0  0  0  0  0  0  0
   -2.9495   -0.0218   -6.0983 C   0  0  0  0  0  0  0  0  0  0  0  0
   -2.7160   -0.3855   -8.2080 H   0  0  0  0  0  0  0  0  0  0  0  0
   -0.3521    0.4363   -8.2709 H   0  0  0  0  0  0  0  0  0  0  0  0
   -0.5376    1.2641   -4.0539 H   0  0  0  0  0  0  0  0  0  0  0  0
   -2.8809    0.4642   -3.9784 H   0  0  0  0  0  0  0  0  0  0  0  0
   -1.1319    3.8776   -6.8453 N   0  0  0  0  0  0  0  0  0  0  0  0
   -2.1361    4.3367   -6.8188 N   0  0  0  0  0  0  0  0  0  0  0  0
    2.3084    0.4468   -6.3738 S   0  0  0  0  0  0  0  0  0  0  0  0
    2.7485    0.1233   -4.5483 C   0  0  0  0  0  0  0  0  0  0  0  0
    1.9302   -0.8482   -6.9637 O   0  0  0  0  0  0  0  0  0  0  0  0
    3.3665    1.3100   -6.9128 O   0  0  0  0  0  0  0  0  0  0  0  0
    0.9783    1.4379   -6.1839 O   0  0  0  0  0  0  0  0  0  0  0  0
    1.7694   -0.5728   -3.9593 F   0  0  0  0  0  0  0  0  0  0  0  0
    3.8823   -0.5810   -4.5111 F   0  0  0  0  0  0  0  0  0  0  0  0
    2.9180    1.2836   -3.9107 F   0  0  0  0  0  0  0  0  0  0  0  0
   -4.2295   -0.4837   -6.1765 O   0  0  0  0  0  0  0  0  0  0  0  0
   -5.0154   -0.5035   -4.9879 C   0  0  0  0  0  0  0  0  0  0  0  0
   -5.9886   -0.9063   -5.2832 H   0  0  0  0  0  0  0  0  0  0  0  0
   -5.1464    0.5107   -4.5807 H   0  0  0  0  0  0  0  0  0  0  0  0
   -4.5648   -1.1551   -4.2239 H   0  0  0  0  0  0  0  0  0  0  0  0
  1  6  1  0  0  0  0
  2  1  2  0  0  0  0
  2  3  1  0  0  0  0
  3  4  2  0  0  0  0
  4  5  1  0  0  0  0
  4  9  1  0  0  0  0
  5 10  1  0  0  0  0
  6  5  2  0  0  0  0
  7  1  1  0  0  0  0
  8  2  1  0  0  0  0
 11 12  3  0  0  0  0
 13 17  1  0  0  0  0
 13 14  1  0  0  0  0
 14 19  1  0  0  0  0
 14 18  1  0  0  0  0
 14 20  1  0  0  0  0
 15 13  2  0  0  0  0
 16 13  2  0  0  0  0
 17  3  1  0  0  0  0
 21  6  1  0  0  0  0
 21 22  1  0  0  0  0
 22 24  1  0  0  0  0
 22 25  1  0  0  0  0
 23 22  1  0  0  0  0
M  END
