Coordinates from ORCA-job p-CH3O-Ph-N2-OTf-B3LYPG-aug-cc-pVDZ-scan-d09-29-n200
 OpenBabel01151817073D

 25 24  0  0  0  0  0  0  0  0999 V2000
   -1.8697   -0.3929   -6.4344 C   0  0  0  0  0  0  0  0  0  0  0  0
   -0.9399    0.5810   -6.7349 C   0  0  0  0  0  0  0  0  0  0  0  0
   -1.2099    1.8851   -6.2800 C   0  0  0  0  0  0  0  0  0  0  0  0
   -2.3480    2.2385   -5.5408 C   0  0  0  0  0  0  0  0  0  0  0  0
   -3.2664    1.2427   -5.2460 C   0  0  0  0  0  0  0  0  0  0  0  0
   -3.0311   -0.0785   -5.6921 C   0  0  0  0  0  0  0  0  0  0  0  0
   -1.7110   -1.4234   -6.7461 H   0  0  0  0  0  0  0  0  0  0  0  0
   -0.0050    0.3896   -7.2644 H   0  0  0  0  0  0  0  0  0  0  0  0
   -2.4996    3.2612   -5.2012 H   0  0  0  0  0  0  0  0  0  0  0  0
   -4.1513    1.4944   -4.6691 H   0  0  0  0  0  0  0  0  0  0  0  0
   -0.2825    2.9101   -6.5711 N   0  0  0  0  0  0  0  0  0  0  0  0
    0.4096    3.7464   -6.8072 N   0  0  0  0  0  0  0  0  0  0  0  0
    2.5470    1.1501   -6.0303 S   0  0  0  0  0  0  0  0  0  0  0  0
    2.8007   -0.6966   -5.6711 C   0  0  0  0  0  0  0  0  0  0  0  0
    1.9457    1.1406   -7.4220 O   0  0  0  0  0  0  0  0  0  0  0  0
    3.9052    1.7399   -5.9113 O   0  0  0  0  0  0  0  0  0  0  0  0
    1.5384    1.5644   -4.9849 O   0  0  0  0  0  0  0  0  0  0  0  0
    1.6238   -1.3674   -5.7882 F   0  0  0  0  0  0  0  0  0  0  0  0
    3.6718   -1.2427   -6.5360 F   0  0  0  0  0  0  0  0  0  0  0  0
    3.2602   -0.8880   -4.4231 F   0  0  0  0  0  0  0  0  0  0  0  0
   -3.8578   -1.1074   -5.4540 O   0  0  0  0  0  0  0  0  0  0  0  0
   -5.0488   -0.8962   -4.6821 C   0  0  0  0  0  0  0  0  0  0  0  0
   -5.5319   -1.8746   -4.6245 H   0  0  0  0  0  0  0  0  0  0  0  0
   -5.7161   -0.1814   -5.1836 H   0  0  0  0  0  0  0  0  0  0  0  0
   -4.7991   -0.5448   -3.6715 H   0  0  0  0  0  0  0  0  0  0  0  0
  1  6  1  0  0  0  0
  2  1  2  0  0  0  0
  2  3  1  0  0  0  0
  3  4  2  0  0  0  0
  4  5  1  0  0  0  0
  4  9  1  0  0  0  0
  5 10  1  0  0  0  0
  6 21  1  0  0  0  0
  6  5  2  0  0  0  0
  7  1  1  0  0  0  0
  8  2  1  0  0  0  0
 11  3  1  0  0  0  0
 12 11  1  0  0  0  0
 13 16  2  0  0  0  0
 13 14  1  0  0  0  0
 13 17  1  0  0  0  0
 14 20  1  0  0  0  0
 15 13  2  0  0  0  0
 18 14  1  0  0  0  0
 19 14  1  0  0  0  0
 21 22  1  0  0  0  0
 22 23  1  0  0  0  0
 22 25  1  0  0  0  0
 24 22  1  0  0  0  0
M  RAD  3  11   2  12   3  17   2
M  END
