Coordinates from ORCA-job p-CH3O-Ph-N2-OTf-B3LYPG-aug-cc-pVDZ-scan-d09-29-n200
 OpenBabel01151817073D

 25 24  0  0  0  0  0  0  0  0999 V2000
   -1.6547   -0.1331   -6.5444 C   0  0  0  0  0  0  0  0  0  0  0  0
   -0.8741    0.9353   -6.9009 C   0  0  0  0  0  0  0  0  0  0  0  0
   -1.2388    2.3001   -6.4957 C   0  0  0  0  0  0  0  0  0  0  0  0
   -2.4186    2.4294   -5.6435 C   0  0  0  0  0  0  0  0  0  0  0  0
   -3.1563    1.3444   -5.2697 C   0  0  0  0  0  0  0  0  0  0  0  0
   -2.7827    0.0418   -5.7196 C   0  0  0  0  0  0  0  0  0  0  0  0
   -1.3757   -1.1390   -6.8518 H   0  0  0  0  0  0  0  0  0  0  0  0
    0.0249    0.8342   -7.5135 H   0  0  0  0  0  0  0  0  0  0  0  0
   -2.6804    3.4349   -5.3137 H   0  0  0  0  0  0  0  0  0  0  0  0
   -4.0217    1.4890   -4.6291 H   0  0  0  0  0  0  0  0  0  0  0  0
   -0.6752    3.1071   -6.7653 N   0  0  0  0  0  0  0  0  0  0  0  0
   -0.0396    4.0129   -7.0672 N   0  0  0  0  0  0  0  0  0  0  0  0
    2.2898    0.8657   -5.9223 S   0  0  0  0  0  0  0  0  0  0  0  0
    2.4956   -0.9883   -5.5751 C   0  0  0  0  0  0  0  0  0  0  0  0
    2.1112    0.9138   -7.4178 O   0  0  0  0  0  0  0  0  0  0  0  0
    3.5160    1.4888   -5.3642 O   0  0  0  0  0  0  0  0  0  0  0  0
    0.9993    1.1846   -5.1827 O   0  0  0  0  0  0  0  0  0  0  0  0
    1.4129   -1.6748   -6.0284 F   0  0  0  0  0  0  0  0  0  0  0  0
    3.5824   -1.4791   -6.1919 F   0  0  0  0  0  0  0  0  0  0  0  0
    2.6083   -1.2263   -4.2562 F   0  0  0  0  0  0  0  0  0  0  0  0
   -3.4498   -1.0627   -5.4030 O   0  0  0  0  0  0  0  0  0  0  0  0
   -4.5983   -1.0000   -4.5356 C   0  0  0  0  0  0  0  0  0  0  0  0
   -4.9343   -2.0345   -4.4357 H   0  0  0  0  0  0  0  0  0  0  0  0
   -5.3912   -0.3916   -4.9899 H   0  0  0  0  0  0  0  0  0  0  0  0
   -4.3148   -0.6023   -3.5528 H   0  0  0  0  0  0  0  0  0  0  0  0
  1  6  1  0  0  0  0
  2  1  2  0  0  0  0
  2  3  1  0  0  0  0
  3  4  2  0  0  0  0
  4  9  1  0  0  0  0
  4  5  1  0  0  0  0
  5 10  1  0  0  0  0
  6 21  1  0  0  0  0
  6  5  2  0  0  0  0
  7  1  1  0  0  0  0
  8  2  1  0  0  0  0
 11  3  1  0  0  0  0
 12 11  1  0  0  0  0
 13 14  1  0  0  0  0
 13 16  2  0  0  0  0
 13 17  1  0  0  0  0
 14 20  1  0  0  0  0
 15 13  2  0  0  0  0
 18 14  1  0  0  0  0
 19 14  1  0  0  0  0
 21 22  1  0  0  0  0
 22 23  1  0  0  0  0
 22 25  1  0  0  0  0
 24 22  1  0  0  0  0
M  RAD  3  11   2  12   3  17   2
M  END
