Coordinates from ORCA-job p-CH3O-Ph-N2-OTf-B3LYPG-aug-cc-pVDZ-scan-d09-29-n200
 OpenBabel01151817073D

 25 24  0  0  0  0  0  0  0  0999 V2000
   -1.8216   -0.3394   -6.4609 C   0  0  0  0  0  0  0  0  0  0  0  0
   -0.9289    0.6498   -6.7923 C   0  0  0  0  0  0  0  0  0  0  0  0
   -1.1935    1.9915   -6.3681 C   0  0  0  0  0  0  0  0  0  0  0  0
   -2.3555    2.2890   -5.5998 C   0  0  0  0  0  0  0  0  0  0  0  0
   -3.2358    1.2823   -5.2691 C   0  0  0  0  0  0  0  0  0  0  0  0
   -2.9749   -0.0441   -5.6973 C   0  0  0  0  0  0  0  0  0  0  0  0
   -1.6385   -1.3708   -6.7556 H   0  0  0  0  0  0  0  0  0  0  0  0
    0.0013    0.4667   -7.3335 H   0  0  0  0  0  0  0  0  0  0  0  0
   -2.5303    3.3130   -5.2728 H   0  0  0  0  0  0  0  0  0  0  0  0
   -4.1146    1.5201   -4.6769 H   0  0  0  0  0  0  0  0  0  0  0  0
   -0.4075    2.8860   -6.6411 N   0  0  0  0  0  0  0  0  0  0  0  0
    0.3115    3.7095   -6.8970 N   0  0  0  0  0  0  0  0  0  0  0  0
    2.4576    1.0969   -5.9332 S   0  0  0  0  0  0  0  0  0  0  0  0
    2.7523   -0.7624   -5.6876 C   0  0  0  0  0  0  0  0  0  0  0  0
    1.9828    1.1691   -7.3702 O   0  0  0  0  0  0  0  0  0  0  0  0
    3.7749    1.7213   -5.6473 O   0  0  0  0  0  0  0  0  0  0  0  0
    1.3454    1.3903   -4.9540 O   0  0  0  0  0  0  0  0  0  0  0  0
    1.6144   -1.4603   -5.9516 F   0  0  0  0  0  0  0  0  0  0  0  0
    3.7112   -1.2164   -6.5121 F   0  0  0  0  0  0  0  0  0  0  0  0
    3.1142   -1.0340   -4.4217 F   0  0  0  0  0  0  0  0  0  0  0  0
   -3.7650   -1.0838   -5.4218 O   0  0  0  0  0  0  0  0  0  0  0  0
   -4.9457   -0.8976   -4.6223 C   0  0  0  0  0  0  0  0  0  0  0  0
   -5.3938   -1.8905   -4.5393 H   0  0  0  0  0  0  0  0  0  0  0  0
   -5.6455   -0.2127   -5.1198 H   0  0  0  0  0  0  0  0  0  0  0  0
   -4.6802   -0.5233   -3.6247 H   0  0  0  0  0  0  0  0  0  0  0  0
  1  6  1  0  0  0  0
  2  1  2  0  0  0  0
  2  3  1  0  0  0  0
  3  4  2  0  0  0  0
  4  9  1  0  0  0  0
  4  5  1  0  0  0  0
  5 10  1  0  0  0  0
  6 21  1  0  0  0  0
  6  5  2  0  0  0  0
  7  1  1  0  0  0  0
  8  2  1  0  0  0  0
 11  3  1  0  0  0  0
 12 11  1  0  0  0  0
 13 14  1  0  0  0  0
 13 16  2  0  0  0  0
 13 17  1  0  0  0  0
 14 20  1  0  0  0  0
 15 13  2  0  0  0  0
 18 14  1  0  0  0  0
 19 14  1  0  0  0  0
 21 22  1  0  0  0  0
 22 23  1  0  0  0  0
 22 25  1  0  0  0  0
 24 22  1  0  0  0  0
M  RAD  3  11   2  12   3  17   2
M  END
