Coordinates from ORCA-job p-CH3O-Ph-N2-OTf-B3LYPG-aug-cc-pVDZ-scan-d29-49-n200
 OpenBabel01151817073D

 25 24  0  0  0  0  0  0  0  0999 V2000
   -2.2247   -0.0277   -7.3040 C   0  0  0  0  0  0  0  0  0  0  0  0
   -0.9109    0.4246   -7.3382 C   0  0  0  0  0  0  0  0  0  0  0  0
   -0.3156    0.8745   -6.1571 C   0  0  0  0  0  0  0  0  0  0  0  0
   -1.0146    0.8876   -4.9565 C   0  0  0  0  0  0  0  0  0  0  0  0
   -2.3406    0.4411   -4.9218 C   0  0  0  0  0  0  0  0  0  0  0  0
   -2.9476   -0.0236   -6.0979 C   0  0  0  0  0  0  0  0  0  0  0  0
   -2.7145   -0.3869   -8.2077 H   0  0  0  0  0  0  0  0  0  0  0  0
   -0.3498    0.4329   -8.2703 H   0  0  0  0  0  0  0  0  0  0  0  0
   -0.5348    1.2604   -4.0532 H   0  0  0  0  0  0  0  0  0  0  0  0
   -2.8790    0.4630   -3.9780 H   0  0  0  0  0  0  0  0  0  0  0  0
   -1.1545    3.9160   -6.8566 N   0  0  0  0  0  0  0  0  0  0  0  0
   -2.1619    4.3678   -6.8275 N   0  0  0  0  0  0  0  0  0  0  0  0
    2.3114    0.4415   -6.3724 S   0  0  0  0  0  0  0  0  0  0  0  0
    2.7504    0.1182   -4.5466 C   0  0  0  0  0  0  0  0  0  0  0  0
    1.9332   -0.8535   -6.9622 O   0  0  0  0  0  0  0  0  0  0  0  0
    3.3699    1.3044   -6.9109 O   0  0  0  0  0  0  0  0  0  0  0  0
    0.9813    1.4328   -6.1832 O   0  0  0  0  0  0  0  0  0  0  0  0
    1.7709   -0.5777   -3.9581 F   0  0  0  0  0  0  0  0  0  0  0  0
    3.8841   -0.5862   -4.5085 F   0  0  0  0  0  0  0  0  0  0  0  0
    2.9197    1.2786   -3.9090 F   0  0  0  0  0  0  0  0  0  0  0  0
   -4.2281   -0.4843   -6.1762 O   0  0  0  0  0  0  0  0  0  0  0  0
   -5.0141   -0.5034   -4.9875 C   0  0  0  0  0  0  0  0  0  0  0  0
   -5.9876   -0.9055   -5.2829 H   0  0  0  0  0  0  0  0  0  0  0  0
   -5.1443    0.5109   -4.5804 H   0  0  0  0  0  0  0  0  0  0  0  0
   -4.5640   -1.1554   -4.2235 H   0  0  0  0  0  0  0  0  0  0  0  0
  1  6  1  0  0  0  0
  2  1  2  0  0  0  0
  2  3  1  0  0  0  0
  3  4  2  0  0  0  0
  4  5  1  0  0  0  0
  4  9  1  0  0  0  0
  5 10  1  0  0  0  0
  6  5  2  0  0  0  0
  7  1  1  0  0  0  0
  8  2  1  0  0  0  0
 11 12  3  0  0  0  0
 13 17  1  0  0  0  0
 13 14  1  0  0  0  0
 14 19  1  0  0  0  0
 14 18  1  0  0  0  0
 14 20  1  0  0  0  0
 15 13  2  0  0  0  0
 16 13  2  0  0  0  0
 17  3  1  0  0  0  0
 21  6  1  0  0  0  0
 21 22  1  0  0  0  0
 22 24  1  0  0  0  0
 22 25  1  0  0  0  0
 23 22  1  0  0  0  0
M  END
