Coordinates from ORCA-job p-CH3O-Ph-N2-OTf-B3LYPG-aug-cc-pVDZ-scan-d09-29-n200
 OpenBabel01151817073D

 25 23  0  0  0  0  0  0  0  0999 V2000
   -1.9246   -0.3488   -6.3083 C   0  0  0  0  0  0  0  0  0  0  0  0
   -0.9391    0.6495   -6.4676 C   0  0  0  0  0  0  0  0  0  0  0  0
   -1.4031    1.7848   -5.9437 C   0  0  0  0  0  0  0  0  0  0  0  0
   -2.5023    2.2526   -5.3097 C   0  0  0  0  0  0  0  0  0  0  0  0
   -3.4468    1.2093   -5.1780 C   0  0  0  0  0  0  0  0  0  0  0  0
   -3.1568   -0.0777   -5.6759 C   0  0  0  0  0  0  0  0  0  0  0  0
   -1.7126   -1.3543   -6.6709 H   0  0  0  0  0  0  0  0  0  0  0  0
    0.0818    0.4567   -6.9246 H   0  0  0  0  0  0  0  0  0  0  0  0
   -2.6682    3.2615   -4.9468 H   0  0  0  0  0  0  0  0  0  0  0  0
   -4.3876    1.4416   -4.6861 H   0  0  0  0  0  0  0  0  0  0  0  0
   -0.0390    3.4495   -6.1907 N   0  0  0  0  0  0  0  0  0  0  0  0
    0.5220    4.3860   -6.3442 N   0  0  0  0  0  0  0  0  0  0  0  0
    2.5835    0.8664   -6.4808 S   0  0  0  0  0  0  0  0  0  0  0  0
    3.1872   -0.6799   -5.5655 C   0  0  0  0  0  0  0  0  0  0  0  0
    1.6121    0.2786   -7.5052 O   0  0  0  0  0  0  0  0  0  0  0  0
    3.8061    1.4717   -7.0632 O   0  0  0  0  0  0  0  0  0  0  0  0
    1.8657    1.6479   -5.4142 O   0  0  0  0  0  0  0  0  0  0  0  0
    2.1392   -1.3428   -5.0264 F   0  0  0  0  0  0  0  0  0  0  0  0
    3.8252   -1.5128   -6.4039 F   0  0  0  0  0  0  0  0  0  0  0  0
    4.0272   -0.3425   -4.5730 F   0  0  0  0  0  0  0  0  0  0  0  0
   -4.0038   -1.1292   -5.5904 O   0  0  0  0  0  0  0  0  0  0  0  0
   -5.2660   -0.9471   -4.9441 C   0  0  0  0  0  0  0  0  0  0  0  0
   -5.7618   -1.9202   -4.9905 H   0  0  0  0  0  0  0  0  0  0  0  0
   -5.8741   -0.1983   -5.4732 H   0  0  0  0  0  0  0  0  0  0  0  0
   -5.1299   -0.6523   -3.8931 H   0  0  0  0  0  0  0  0  0  0  0  0
  1  6  1  0  0  0  0
  2  1  2  0  0  0  0
  2  3  1  0  0  0  0
  3  4  2  0  0  0  0
  4  5  1  0  0  0  0
  4  9  1  0  0  0  0
  5 10  1  0  0  0  0
  6 21  1  0  0  0  0
  6  5  2  0  0  0  0
  7  1  1  0  0  0  0
  8  2  1  0  0  0  0
 12 11  3  0  0  0  0
 13 14  1  0  0  0  0
 13 17  1  0  0  0  0
 14 18  1  0  0  0  0
 14 20  1  0  0  0  0
 15 13  2  0  0  0  0
 16 13  2  0  0  0  0
 19 14  1  0  0  0  0
 21 22  1  0  0  0  0
 22 25  1  0  0  0  0
 23 22  1  0  0  0  0
 24 22  1  0  0  0  0
M  RAD  2   3   2  17   2
M  END
