Coordinates from ORCA-job p-CH3O-Ph-N2-OTf-B3LYPG-aug-cc-pVDZ-scan-d09-29-n200
 OpenBabel01151817073D

 25 23  0  0  0  0  0  0  0  0999 V2000
   -1.9719   -0.3769   -6.3109 C   0  0  0  0  0  0  0  0  0  0  0  0
   -0.9617    0.5853   -6.4633 C   0  0  0  0  0  0  0  0  0  0  0  0
   -1.3599    1.7676   -5.9429 C   0  0  0  0  0  0  0  0  0  0  0  0
   -2.4706    2.2305   -5.3072 C   0  0  0  0  0  0  0  0  0  0  0  0
   -3.4457    1.2230   -5.1772 C   0  0  0  0  0  0  0  0  0  0  0  0
   -3.1956   -0.0706   -5.6780 C   0  0  0  0  0  0  0  0  0  0  0  0
   -1.7986   -1.3874   -6.6787 H   0  0  0  0  0  0  0  0  0  0  0  0
    0.0324    0.3777   -6.9231 H   0  0  0  0  0  0  0  0  0  0  0  0
   -2.6127    3.2406   -4.9364 H   0  0  0  0  0  0  0  0  0  0  0  0
   -4.3793    1.4793   -4.6840 H   0  0  0  0  0  0  0  0  0  0  0  0
   -0.0583    3.2125   -6.1462 N   0  0  0  0  0  0  0  0  0  0  0  0
    0.4524    4.1789   -6.2934 N   0  0  0  0  0  0  0  0  0  0  0  0
    2.5871    0.8770   -6.4972 S   0  0  0  0  0  0  0  0  0  0  0  0
    3.3042   -0.6189   -5.5791 C   0  0  0  0  0  0  0  0  0  0  0  0
    1.6874    0.2344   -7.5388 O   0  0  0  0  0  0  0  0  0  0  0  0
    3.7668    1.6052   -7.0286 O   0  0  0  0  0  0  0  0  0  0  0  0
    1.7909    1.5820   -5.4215 O   0  0  0  0  0  0  0  0  0  0  0  0
    2.3090   -1.3750   -5.0646 F   0  0  0  0  0  0  0  0  0  0  0  0
    4.0271   -1.3857   -6.4122 F   0  0  0  0  0  0  0  0  0  0  0  0
    4.0950   -0.2203   -4.5683 F   0  0  0  0  0  0  0  0  0  0  0  0
   -4.0739   -1.0947   -5.5957 O   0  0  0  0  0  0  0  0  0  0  0  0
   -5.3312   -0.8777   -4.9494 C   0  0  0  0  0  0  0  0  0  0  0  0
   -5.8551   -1.8357   -5.0003 H   0  0  0  0  0  0  0  0  0  0  0  0
   -5.9161   -0.1092   -5.4760 H   0  0  0  0  0  0  0  0  0  0  0  0
   -5.1873   -0.5914   -3.8973 H   0  0  0  0  0  0  0  0  0  0  0  0
  1  6  1  0  0  0  0
  2  1  2  0  0  0  0
  2  3  1  0  0  0  0
  3  4  2  0  0  0  0
  4  5  1  0  0  0  0
  4  9  1  0  0  0  0
  5 10  1  0  0  0  0
  6 21  1  0  0  0  0
  6  5  2  0  0  0  0
  7  1  1  0  0  0  0
  8  2  1  0  0  0  0
 12 11  3  0  0  0  0
 13 14  1  0  0  0  0
 13 17  1  0  0  0  0
 14 18  1  0  0  0  0
 14 20  1  0  0  0  0
 15 13  2  0  0  0  0
 16 13  2  0  0  0  0
 19 14  1  0  0  0  0
 21 22  1  0  0  0  0
 22 25  1  0  0  0  0
 23 22  1  0  0  0  0
 24 22  1  0  0  0  0
M  RAD  2   3   2  17   2
M  END
