Coordinates from ORCA-job p-CH3O-Ph-N2-OTf-B3LYPG-aug-cc-pVDZ-scan-d09-29-n200
 OpenBabel01151817073D

 25 23  0  0  0  0  0  0  0  0999 V2000
   -1.9616   -0.3706   -6.3065 C   0  0  0  0  0  0  0  0  0  0  0  0
   -0.9564    0.5994   -6.4606 C   0  0  0  0  0  0  0  0  0  0  0  0
   -1.3713    1.7721   -5.9417 C   0  0  0  0  0  0  0  0  0  0  0  0
   -2.4804    2.2371   -5.3091 C   0  0  0  0  0  0  0  0  0  0  0  0
   -3.4488    1.2214   -5.1788 C   0  0  0  0  0  0  0  0  0  0  0  0
   -3.1885   -0.0715   -5.6765 C   0  0  0  0  0  0  0  0  0  0  0  0
   -1.7787   -1.3806   -6.6712 H   0  0  0  0  0  0  0  0  0  0  0  0
    0.0437    0.3950   -6.9177 H   0  0  0  0  0  0  0  0  0  0  0  0
   -2.6287    3.2475   -4.9419 H   0  0  0  0  0  0  0  0  0  0  0  0
   -4.3849    1.4729   -4.6879 H   0  0  0  0  0  0  0  0  0  0  0  0
   -0.0573    3.2590   -6.1528 N   0  0  0  0  0  0  0  0  0  0  0  0
    0.4648    4.2189   -6.3008 N   0  0  0  0  0  0  0  0  0  0  0  0
    2.5872    0.8749   -6.4931 S   0  0  0  0  0  0  0  0  0  0  0  0
    3.2851   -0.6328   -5.5797 C   0  0  0  0  0  0  0  0  0  0  0  0
    1.6701    0.2435   -7.5294 O   0  0  0  0  0  0  0  0  0  0  0  0
    3.7750    1.5795   -7.0376 O   0  0  0  0  0  0  0  0  0  0  0  0
    1.8090    1.5943   -5.4164 O   0  0  0  0  0  0  0  0  0  0  0  0
    2.2805   -1.3719   -5.0584 F   0  0  0  0  0  0  0  0  0  0  0  0
    3.9897   -1.4121   -6.4169 F   0  0  0  0  0  0  0  0  0  0  0  0
    4.0889   -0.2471   -4.5742 F   0  0  0  0  0  0  0  0  0  0  0  0
   -4.0597   -1.1019   -5.5934 O   0  0  0  0  0  0  0  0  0  0  0  0
   -5.3194   -0.8921   -4.9496 C   0  0  0  0  0  0  0  0  0  0  0  0
   -5.8366   -1.8538   -4.9989 H   0  0  0  0  0  0  0  0  0  0  0  0
   -5.9088   -0.1290   -5.4790 H   0  0  0  0  0  0  0  0  0  0  0  0
   -5.1790   -0.6021   -3.8979 H   0  0  0  0  0  0  0  0  0  0  0  0
  1  6  1  0  0  0  0
  2  1  2  0  0  0  0
  2  3  1  0  0  0  0
  3  4  2  0  0  0  0
  4  5  1  0  0  0  0
  4  9  1  0  0  0  0
  5 10  1  0  0  0  0
  6 21  1  0  0  0  0
  6  5  2  0  0  0  0
  7  1  1  0  0  0  0
  8  2  1  0  0  0  0
 12 11  3  0  0  0  0
 13 14  1  0  0  0  0
 13 17  1  0  0  0  0
 14 18  1  0  0  0  0
 14 20  1  0  0  0  0
 15 13  2  0  0  0  0
 16 13  2  0  0  0  0
 19 14  1  0  0  0  0
 21 22  1  0  0  0  0
 22 25  1  0  0  0  0
 23 22  1  0  0  0  0
 24 22  1  0  0  0  0
M  RAD  2   3   2  17   2
M  END
