Coordinates from ORCA-job p-CH3O-Ph-N2-OTf-B3LYPG-aug-cc-pVDZ-scan-d29-49-n200
 OpenBabel01151817073D

 25 24  0  0  0  0  0  0  0  0999 V2000
   -2.2127   -0.0388   -7.3018 C   0  0  0  0  0  0  0  0  0  0  0  0
   -0.8963    0.4060   -7.3346 C   0  0  0  0  0  0  0  0  0  0  0  0
   -0.2985    0.8493   -6.1521 C   0  0  0  0  0  0  0  0  0  0  0  0
   -0.9991    0.8678   -4.9524 C   0  0  0  0  0  0  0  0  0  0  0  0
   -2.3276    0.4284   -4.9190 C   0  0  0  0  0  0  0  0  0  0  0  0
   -2.9359   -0.0323   -6.0959 C   0  0  0  0  0  0  0  0  0  0  0  0
   -2.7042   -0.3938   -8.2062 H   0  0  0  0  0  0  0  0  0  0  0  0
   -0.3345    0.4125   -8.2664 H   0  0  0  0  0  0  0  0  0  0  0  0
   -0.5181    1.2378   -4.0486 H   0  0  0  0  0  0  0  0  0  0  0  0
   -2.8668    0.4528   -3.9757 H   0  0  0  0  0  0  0  0  0  0  0  0
   -1.2949    4.1501   -6.9236 N   0  0  0  0  0  0  0  0  0  0  0  0
   -2.3222    4.5530   -6.8773 N   0  0  0  0  0  0  0  0  0  0  0  0
    2.3273    0.4056   -6.3627 S   0  0  0  0  0  0  0  0  0  0  0  0
    2.7640    0.0882   -4.5353 C   0  0  0  0  0  0  0  0  0  0  0  0
    1.9436   -0.8901   -6.9474 O   0  0  0  0  0  0  0  0  0  0  0  0
    3.3895    1.2621   -6.9043 O   0  0  0  0  0  0  0  0  0  0  0  0
    1.0007    1.4031   -6.1780 O   0  0  0  0  0  0  0  0  0  0  0  0
    1.7817   -0.6019   -3.9447 F   0  0  0  0  0  0  0  0  0  0  0  0
    3.8953   -0.6199   -4.4936 F   0  0  0  0  0  0  0  0  0  0  0  0
    2.9368    1.2506   -3.9025 F   0  0  0  0  0  0  0  0  0  0  0  0
   -4.2187   -0.4866   -6.1753 O   0  0  0  0  0  0  0  0  0  0  0  0
   -5.0052   -0.5039   -4.9871 C   0  0  0  0  0  0  0  0  0  0  0  0
   -5.9804   -0.9015   -5.2832 H   0  0  0  0  0  0  0  0  0  0  0  0
   -5.1314    0.5104   -4.5786 H   0  0  0  0  0  0  0  0  0  0  0  0
   -4.5582   -1.1587   -4.2237 H   0  0  0  0  0  0  0  0  0  0  0  0
  1  6  1  0  0  0  0
  2  1  2  0  0  0  0
  2  3  1  0  0  0  0
  3  4  2  0  0  0  0
  4  5  1  0  0  0  0
  4  9  1  0  0  0  0
  5 10  1  0  0  0  0
  6  5  2  0  0  0  0
  7  1  1  0  0  0  0
  8  2  1  0  0  0  0
 11 12  3  0  0  0  0
 13 17  1  0  0  0  0
 13 14  1  0  0  0  0
 14 19  1  0  0  0  0
 14 18  1  0  0  0  0
 14 20  1  0  0  0  0
 15 13  2  0  0  0  0
 16 13  2  0  0  0  0
 17  3  1  0  0  0  0
 21  6  1  0  0  0  0
 21 22  1  0  0  0  0
 22 24  1  0  0  0  0
 22 25  1  0  0  0  0
 23 22  1  0  0  0  0
M  END
