Coordinates from ORCA-job p-CH3O-Ph-N2-OTf-B3LYPG-aug-cc-pVDZ-scan-d09-29-n200
 OpenBabel01151817073D

 25 23  0  0  0  0  0  0  0  0999 V2000
   -1.9447   -0.3610   -6.3012 C   0  0  0  0  0  0  0  0  0  0  0  0
   -0.9466    0.6204   -6.4559 C   0  0  0  0  0  0  0  0  0  0  0  0
   -1.3849    1.7778   -5.9379 C   0  0  0  0  0  0  0  0  0  0  0  0
   -2.4916    2.2458   -5.3093 C   0  0  0  0  0  0  0  0  0  0  0  0
   -3.4504    1.2184   -5.1800 C   0  0  0  0  0  0  0  0  0  0  0  0
   -3.1760   -0.0728   -5.6749 C   0  0  0  0  0  0  0  0  0  0  0  0
   -1.7481   -1.3698   -6.6629 H   0  0  0  0  0  0  0  0  0  0  0  0
    0.0629    0.4192   -6.9100 H   0  0  0  0  0  0  0  0  0  0  0  0
   -2.6483    3.2561   -4.9462 H   0  0  0  0  0  0  0  0  0  0  0  0
   -4.3901    1.4628   -4.6921 H   0  0  0  0  0  0  0  0  0  0  0  0
   -0.0562    3.3308   -6.1590 N   0  0  0  0  0  0  0  0  0  0  0  0
    0.4791    4.2831   -6.3072 N   0  0  0  0  0  0  0  0  0  0  0  0
    2.5848    0.8682   -6.4922 S   0  0  0  0  0  0  0  0  0  0  0  0
    3.2535   -0.6514   -5.5768 C   0  0  0  0  0  0  0  0  0  0  0  0
    1.6401    0.2486   -7.5155 O   0  0  0  0  0  0  0  0  0  0  0  0
    3.7831    1.5326   -7.0623 O   0  0  0  0  0  0  0  0  0  0  0  0
    1.8354    1.6152   -5.4178 O   0  0  0  0  0  0  0  0  0  0  0  0
    2.2353   -1.3603   -5.0398 F   0  0  0  0  0  0  0  0  0  0  0  0
    3.9283   -1.4546   -6.4158 F   0  0  0  0  0  0  0  0  0  0  0  0
    4.0775   -0.2798   -4.5827 F   0  0  0  0  0  0  0  0  0  0  0  0
   -4.0375   -1.1120   -5.5921 O   0  0  0  0  0  0  0  0  0  0  0  0
   -5.3006   -0.9126   -4.9522 C   0  0  0  0  0  0  0  0  0  0  0  0
   -5.8088   -1.8792   -5.0004 H   0  0  0  0  0  0  0  0  0  0  0  0
   -5.8959   -0.1563   -5.4849 H   0  0  0  0  0  0  0  0  0  0  0  0
   -5.1658   -0.6188   -3.9008 H   0  0  0  0  0  0  0  0  0  0  0  0
  1  6  1  0  0  0  0
  2  1  2  0  0  0  0
  2  3  1  0  0  0  0
  3  4  2  0  0  0  0
  4  5  1  0  0  0  0
  4  9  1  0  0  0  0
  5 10  1  0  0  0  0
  6 21  1  0  0  0  0
  6  5  2  0  0  0  0
  7  1  1  0  0  0  0
  8  2  1  0  0  0  0
 12 11  3  0  0  0  0
 13 14  1  0  0  0  0
 13 17  1  0  0  0  0
 14 18  1  0  0  0  0
 14 20  1  0  0  0  0
 15 13  2  0  0  0  0
 16 13  2  0  0  0  0
 19 14  1  0  0  0  0
 21 22  1  0  0  0  0
 22 25  1  0  0  0  0
 23 22  1  0  0  0  0
 24 22  1  0  0  0  0
M  RAD  2   3   2  17   2
M  END
