Coordinates from ORCA-job p-CH3O-Ph-N2-OTf-B3LYPG-aug-cc-pVDZ-scan-d09-29-n200
 OpenBabel01151817073D

 25 23  0  0  0  0  0  0  0  0999 V2000
   -1.8978   -0.3606   -6.3491 C   0  0  0  0  0  0  0  0  0  0  0  0
   -0.9207    0.6583   -6.5001 C   0  0  0  0  0  0  0  0  0  0  0  0
   -1.4106    1.7444   -5.9426 C   0  0  0  0  0  0  0  0  0  0  0  0
   -2.4772    2.2297   -5.2830 C   0  0  0  0  0  0  0  0  0  0  0  0
   -3.4107    1.1667   -5.1586 C   0  0  0  0  0  0  0  0  0  0  0  0
   -3.1206   -0.1082   -5.6892 C   0  0  0  0  0  0  0  0  0  0  0  0
   -1.6808   -1.3569   -6.7341 H   0  0  0  0  0  0  0  0  0  0  0  0
    0.1337    0.4747   -6.9704 H   0  0  0  0  0  0  0  0  0  0  0  0
   -2.6415    3.2318   -4.9023 H   0  0  0  0  0  0  0  0  0  0  0  0
   -4.3459    1.3829   -4.6480 H   0  0  0  0  0  0  0  0  0  0  0  0
    0.0133    3.8001   -6.2385 N   0  0  0  0  0  0  0  0  0  0  0  0
    0.6395    4.6992   -6.3648 N   0  0  0  0  0  0  0  0  0  0  0  0
    2.5619    0.8483   -6.4964 S   0  0  0  0  0  0  0  0  0  0  0  0
    3.0403   -0.6996   -5.5127 C   0  0  0  0  0  0  0  0  0  0  0  0
    1.5408    0.2772   -7.5003 O   0  0  0  0  0  0  0  0  0  0  0  0
    3.8183    1.3107   -7.1294 O   0  0  0  0  0  0  0  0  0  0  0  0
    1.9071    1.7350   -5.4820 O   0  0  0  0  0  0  0  0  0  0  0  0
    1.9414   -1.2484   -4.9482 F   0  0  0  0  0  0  0  0  0  0  0  0
    3.6072   -1.6169   -6.3116 F   0  0  0  0  0  0  0  0  0  0  0  0
    3.9047   -0.3836   -4.5358 F   0  0  0  0  0  0  0  0  0  0  0  0
   -3.9608   -1.1679   -5.6109 O   0  0  0  0  0  0  0  0  0  0  0  0
   -5.2117   -1.0057   -4.9392 C   0  0  0  0  0  0  0  0  0  0  0  0
   -5.7037   -1.9803   -4.9956 H   0  0  0  0  0  0  0  0  0  0  0  0
   -5.8332   -0.2499   -5.4423 H   0  0  0  0  0  0  0  0  0  0  0  0
   -5.0587   -0.7307   -3.8849 H   0  0  0  0  0  0  0  0  0  0  0  0
  1  6  1  0  0  0  0
  2  1  2  0  0  0  0
  2  3  1  0  0  0  0
  3  4  2  0  0  0  0
  4  5  1  0  0  0  0
  4  9  1  0  0  0  0
  5 10  1  0  0  0  0
  6 21  1  0  0  0  0
  6  5  2  0  0  0  0
  7  1  1  0  0  0  0
  8  2  1  0  0  0  0
 12 11  3  0  0  0  0
 13 14  1  0  0  0  0
 13 17  1  0  0  0  0
 14 18  1  0  0  0  0
 14 20  1  0  0  0  0
 15 13  2  0  0  0  0
 16 13  2  0  0  0  0
 19 14  1  0  0  0  0
 21 22  1  0  0  0  0
 22 25  1  0  0  0  0
 23 22  1  0  0  0  0
 24 22  1  0  0  0  0
M  RAD  2   3   2  17   2
M  END
