Coordinates from ORCA-job p-CH3O-Ph-N2-OTf-B3LYPG-aug-cc-pVDZ-scan-d29-49-n200
 OpenBabel01151817073D

 25 24  0  0  0  0  0  0  0  0999 V2000
   -2.2152   -0.0371   -7.3021 C   0  0  0  0  0  0  0  0  0  0  0  0
   -0.8993    0.4092   -7.3352 C   0  0  0  0  0  0  0  0  0  0  0  0
   -0.3021    0.8538   -6.1530 C   0  0  0  0  0  0  0  0  0  0  0  0
   -1.0023    0.8710   -4.9531 C   0  0  0  0  0  0  0  0  0  0  0  0
   -2.3302    0.4302   -4.9195 C   0  0  0  0  0  0  0  0  0  0  0  0
   -2.9385   -0.0311   -6.0963 C   0  0  0  0  0  0  0  0  0  0  0  0
   -2.7064   -0.3926   -8.2065 H   0  0  0  0  0  0  0  0  0  0  0  0
   -0.3378    0.4162   -8.2672 H   0  0  0  0  0  0  0  0  0  0  0  0
   -0.5216    1.2416   -4.0494 H   0  0  0  0  0  0  0  0  0  0  0  0
   -2.8694    0.4545   -3.9762 H   0  0  0  0  0  0  0  0  0  0  0  0
   -1.2655    4.1034   -6.9099 N   0  0  0  0  0  0  0  0  0  0  0  0
   -2.2888    4.5167   -6.8671 N   0  0  0  0  0  0  0  0  0  0  0  0
    2.3242    0.4131   -6.3647 S   0  0  0  0  0  0  0  0  0  0  0  0
    2.7615    0.0948   -4.5377 C   0  0  0  0  0  0  0  0  0  0  0  0
    1.9419   -0.8827   -6.9503 O   0  0  0  0  0  0  0  0  0  0  0  0
    3.3853    1.2712   -6.9059 O   0  0  0  0  0  0  0  0  0  0  0  0
    0.9966    1.4089   -6.1791 O   0  0  0  0  0  0  0  0  0  0  0  0
    1.7801   -0.5969   -3.9475 F   0  0  0  0  0  0  0  0  0  0  0  0
    3.8935   -0.6122   -4.4966 F   0  0  0  0  0  0  0  0  0  0  0  0
    2.9330    1.2568   -3.9039 F   0  0  0  0  0  0  0  0  0  0  0  0
   -4.2210   -0.4860   -6.1756 O   0  0  0  0  0  0  0  0  0  0  0  0
   -5.0074   -0.5036   -4.9872 C   0  0  0  0  0  0  0  0  0  0  0  0
   -5.9823   -0.9017   -5.2832 H   0  0  0  0  0  0  0  0  0  0  0  0
   -5.1340    0.5107   -4.5789 H   0  0  0  0  0  0  0  0  0  0  0  0
   -4.5599   -1.1581   -4.2238 H   0  0  0  0  0  0  0  0  0  0  0  0
  1  6  1  0  0  0  0
  2  1  2  0  0  0  0
  2  3  1  0  0  0  0
  3  4  2  0  0  0  0
  4  5  1  0  0  0  0
  4  9  1  0  0  0  0
  5 10  1  0  0  0  0
  6  5  2  0  0  0  0
  7  1  1  0  0  0  0
  8  2  1  0  0  0  0
 11 12  3  0  0  0  0
 13 17  1  0  0  0  0
 13 14  1  0  0  0  0
 14 19  1  0  0  0  0
 14 18  1  0  0  0  0
 14 20  1  0  0  0  0
 15 13  2  0  0  0  0
 16 13  2  0  0  0  0
 17  3  1  0  0  0  0
 21  6  1  0  0  0  0
 21 22  1  0  0  0  0
 22 24  1  0  0  0  0
 22 25  1  0  0  0  0
 23 22  1  0  0  0  0
M  END
