Coordinates from ORCA-job p-CH3O-Ph-N2-OTf-B3LYPG-aug-cc-pVDZ-scan-d09-29-n200
 OpenBabel01151817073D

 25 24  0  0  0  0  0  0  0  0999 V2000
   -2.3235    0.0926   -7.2787 C   0  0  0  0  0  0  0  0  0  0  0  0
   -1.0136    0.5559   -7.3153 C   0  0  0  0  0  0  0  0  0  0  0  0
   -0.3984    0.9436   -6.1250 C   0  0  0  0  0  0  0  0  0  0  0  0
   -1.0596    0.8585   -4.9088 C   0  0  0  0  0  0  0  0  0  0  0  0
   -2.3823    0.4022   -4.8694 C   0  0  0  0  0  0  0  0  0  0  0  0
   -3.0178    0.0157   -6.0585 C   0  0  0  0  0  0  0  0  0  0  0  0
   -2.8323   -0.2140   -8.1913 H   0  0  0  0  0  0  0  0  0  0  0  0
   -0.4763    0.6273   -8.2584 H   0  0  0  0  0  0  0  0  0  0  0  0
   -0.5581    1.1718   -3.9948 H   0  0  0  0  0  0  0  0  0  0  0  0
   -2.8948    0.3527   -3.9123 H   0  0  0  0  0  0  0  0  0  0  0  0
   -0.9673    3.5871   -6.5630 N   0  0  0  0  0  0  0  0  0  0  0  0
   -0.7547    4.6483   -6.7831 N   0  0  0  0  0  0  0  0  0  0  0  0
    2.2266    0.5529   -6.4663 S   0  0  0  0  0  0  0  0  0  0  0  0
    2.6679   -0.0364   -4.7078 C   0  0  0  0  0  0  0  0  0  0  0  0
    1.8539   -0.6423   -7.2406 O   0  0  0  0  0  0  0  0  0  0  0  0
    3.2811    1.4899   -6.8729 O   0  0  0  0  0  0  0  0  0  0  0  0
    0.8974    1.5075   -6.1377 O   0  0  0  0  0  0  0  0  0  0  0  0
    1.7049   -0.8359   -4.2377 F   0  0  0  0  0  0  0  0  0  0  0  0
    3.8182   -0.7114   -4.7723 F   0  0  0  0  0  0  0  0  0  0  0  0
    2.8091    1.0173   -3.9000 F   0  0  0  0  0  0  0  0  0  0  0  0
   -4.2988   -0.4450   -6.1360 O   0  0  0  0  0  0  0  0  0  0  0  0
   -5.0541   -0.5468   -4.9321 C   0  0  0  0  0  0  0  0  0  0  0  0
   -6.0344   -0.9310   -5.2288 H   0  0  0  0  0  0  0  0  0  0  0  0
   -5.1749    0.4372   -4.4538 H   0  0  0  0  0  0  0  0  0  0  0  0
   -4.5839   -1.2475   -4.2254 H   0  0  0  0  0  0  0  0  0  0  0  0
  1  6  1  0  0  0  0
  2  1  2  0  0  0  0
  2  3  1  0  0  0  0
  3  4  2  0  0  0  0
  4  5  1  0  0  0  0
  4  9  1  0  0  0  0
  5 10  1  0  0  0  0
  6  5  2  0  0  0  0
  7  1  1  0  0  0  0
  8  2  1  0  0  0  0
 12 11  3  0  0  0  0
 13 17  1  0  0  0  0
 13 14  1  0  0  0  0
 14 18  1  0  0  0  0
 14 20  1  0  0  0  0
 15 13  2  0  0  0  0
 16 13  2  0  0  0  0
 17  3  1  0  0  0  0
 19 14  1  0  0  0  0
 21  6  1  0  0  0  0
 21 22  1  0  0  0  0
 22 24  1  0  0  0  0
 22 25  1  0  0  0  0
 23 22  1  0  0  0  0
M  END
