Coordinates from ORCA-job p-CH3O-Ph-N2-OTf-B3LYPG-aug-cc-pVDZ-scan-d29-49-n200
 OpenBabel01151817073D

 25 24  0  0  0  0  0  0  0  0999 V2000
   -2.2297   -0.0181   -7.3056 C   0  0  0  0  0  0  0  0  0  0  0  0
   -0.9176    0.4393   -7.3403 C   0  0  0  0  0  0  0  0  0  0  0  0
   -0.3245    0.8949   -6.1606 C   0  0  0  0  0  0  0  0  0  0  0  0
   -1.0214    0.9012   -4.9589 C   0  0  0  0  0  0  0  0  0  0  0  0
   -2.3458    0.4500   -4.9231 C   0  0  0  0  0  0  0  0  0  0  0  0
   -2.9523   -0.0156   -6.0992 C   0  0  0  0  0  0  0  0  0  0  0  0
   -2.7184   -0.3803   -8.2087 H   0  0  0  0  0  0  0  0  0  0  0  0
   -0.3569    0.4475   -8.2727 H   0  0  0  0  0  0  0  0  0  0  0  0
   -0.5418    1.2732   -4.0552 H   0  0  0  0  0  0  0  0  0  0  0  0
   -2.8833    0.4683   -3.9788 H   0  0  0  0  0  0  0  0  0  0  0  0
   -1.0888    3.7742   -6.8180 N   0  0  0  0  0  0  0  0  0  0  0  0
   -2.0836    4.2542   -6.8041 N   0  0  0  0  0  0  0  0  0  0  0  0
    2.3022    0.4602   -6.3772 S   0  0  0  0  0  0  0  0  0  0  0  0
    2.7414    0.1327   -4.5522 C   0  0  0  0  0  0  0  0  0  0  0  0
    1.9239   -0.8335   -6.9699 O   0  0  0  0  0  0  0  0  0  0  0  0
    3.3610    1.3239   -6.9138 O   0  0  0  0  0  0  0  0  0  0  0  0
    0.9728    1.4518   -6.1859 O   0  0  0  0  0  0  0  0  0  0  0  0
    1.7625   -0.5653   -3.9652 F   0  0  0  0  0  0  0  0  0  0  0  0
    3.8756   -0.5712   -4.5162 F   0  0  0  0  0  0  0  0  0  0  0  0
    2.9101    1.2915   -3.9118 F   0  0  0  0  0  0  0  0  0  0  0  0
   -4.2312   -0.4803   -6.1769 O   0  0  0  0  0  0  0  0  0  0  0  0
   -5.0167   -0.5017   -4.9879 C   0  0  0  0  0  0  0  0  0  0  0  0
   -5.9894   -0.9061   -5.2830 H   0  0  0  0  0  0  0  0  0  0  0  0
   -5.1491    0.5121   -4.5805 H   0  0  0  0  0  0  0  0  0  0  0  0
   -4.5648   -1.1529   -4.2244 H   0  0  0  0  0  0  0  0  0  0  0  0
  1  6  1  0  0  0  0
  2  1  2  0  0  0  0
  2  3  1  0  0  0  0
  3  4  2  0  0  0  0
  4  5  1  0  0  0  0
  4  9  1  0  0  0  0
  5 10  1  0  0  0  0
  6  5  2  0  0  0  0
  7  1  1  0  0  0  0
  8  2  1  0  0  0  0
 11 12  3  0  0  0  0
 13 17  1  0  0  0  0
 13 14  1  0  0  0  0
 14 19  1  0  0  0  0
 14 18  1  0  0  0  0
 14 20  1  0  0  0  0
 15 13  2  0  0  0  0
 16 13  2  0  0  0  0
 17  3  1  0  0  0  0
 21  6  1  0  0  0  0
 21 22  1  0  0  0  0
 22 24  1  0  0  0  0
 22 25  1  0  0  0  0
 23 22  1  0  0  0  0
M  END
