Coordinates from ORCA-job p-CH3O-Ph-N2-OTf-B3LYPG-aug-cc-pVDZ-scan-d09-29-n200
 OpenBabel01151817073D

 25 24  0  0  0  0  0  0  0  0999 V2000
   -2.3262    0.0922   -7.2805 C   0  0  0  0  0  0  0  0  0  0  0  0
   -1.0159    0.5542   -7.3175 C   0  0  0  0  0  0  0  0  0  0  0  0
   -0.3982    0.9367   -6.1267 C   0  0  0  0  0  0  0  0  0  0  0  0
   -1.0591    0.8528   -4.9102 C   0  0  0  0  0  0  0  0  0  0  0  0
   -2.3821    0.3974   -4.8703 C   0  0  0  0  0  0  0  0  0  0  0  0
   -3.0188    0.0129   -6.0594 C   0  0  0  0  0  0  0  0  0  0  0  0
   -2.8368   -0.2112   -8.1932 H   0  0  0  0  0  0  0  0  0  0  0  0
   -0.4794    0.6283   -8.2609 H   0  0  0  0  0  0  0  0  0  0  0  0
   -0.5561    1.1664   -3.9971 H   0  0  0  0  0  0  0  0  0  0  0  0
   -2.8942    0.3479   -3.9130 H   0  0  0  0  0  0  0  0  0  0  0  0
   -0.9672    3.6219   -6.5636 N   0  0  0  0  0  0  0  0  0  0  0  0
   -0.7499    4.6823   -6.7828 N   0  0  0  0  0  0  0  0  0  0  0  0
    2.2261    0.5445   -6.4657 S   0  0  0  0  0  0  0  0  0  0  0  0
    2.6699   -0.0341   -4.7043 C   0  0  0  0  0  0  0  0  0  0  0  0
    1.8517   -0.6553   -7.2321 O   0  0  0  0  0  0  0  0  0  0  0  0
    3.2806    1.4786   -6.8794 O   0  0  0  0  0  0  0  0  0  0  0  0
    0.8974    1.5013   -6.1413 O   0  0  0  0  0  0  0  0  0  0  0  0
    1.7074   -0.8306   -4.2280 F   0  0  0  0  0  0  0  0  0  0  0  0
    3.8200   -0.7097   -4.7664 F   0  0  0  0  0  0  0  0  0  0  0  0
    2.8124    1.0244   -3.9031 F   0  0  0  0  0  0  0  0  0  0  0  0
   -4.3002   -0.4470   -6.1363 O   0  0  0  0  0  0  0  0  0  0  0  0
   -5.0542   -0.5504   -4.9318 C   0  0  0  0  0  0  0  0  0  0  0  0
   -6.0349   -0.9341   -5.2281 H   0  0  0  0  0  0  0  0  0  0  0  0
   -5.1745    0.4329   -4.4520 H   0  0  0  0  0  0  0  0  0  0  0  0
   -4.5834   -1.2521   -4.2265 H   0  0  0  0  0  0  0  0  0  0  0  0
  1  6  1  0  0  0  0
  2  1  2  0  0  0  0
  2  3  1  0  0  0  0
  3  4  2  0  0  0  0
  4  5  1  0  0  0  0
  4  9  1  0  0  0  0
  5 10  1  0  0  0  0
  6  5  2  0  0  0  0
  7  1  1  0  0  0  0
  8  2  1  0  0  0  0
 12 11  3  0  0  0  0
 13 17  1  0  0  0  0
 13 14  1  0  0  0  0
 14 18  1  0  0  0  0
 14 20  1  0  0  0  0
 15 13  2  0  0  0  0
 16 13  2  0  0  0  0
 17  3  1  0  0  0  0
 19 14  1  0  0  0  0
 21  6  1  0  0  0  0
 21 22  1  0  0  0  0
 22 24  1  0  0  0  0
 22 25  1  0  0  0  0
 23 22  1  0  0  0  0
M  END
