Coordinates from ORCA-job p-CH3O-Ph-N2-OTf-B3LYPG-aug-cc-pVDZ-scan-d09-29-n200
 OpenBabel01151817073D

 25 23  0  0  0  0  0  0  0  0999 V2000
   -1.8976   -0.3594   -6.3477 C   0  0  0  0  0  0  0  0  0  0  0  0
   -0.9210    0.6597   -6.4996 C   0  0  0  0  0  0  0  0  0  0  0  0
   -1.4114    1.7466   -5.9434 C   0  0  0  0  0  0  0  0  0  0  0  0
   -2.4789    2.2314   -5.2847 C   0  0  0  0  0  0  0  0  0  0  0  0
   -3.4120    1.1682   -5.1596 C   0  0  0  0  0  0  0  0  0  0  0  0
   -3.1209   -0.1071   -5.6886 C   0  0  0  0  0  0  0  0  0  0  0  0
   -1.6798   -1.3560   -6.7315 H   0  0  0  0  0  0  0  0  0  0  0  0
    0.1327    0.4764   -6.9694 H   0  0  0  0  0  0  0  0  0  0  0  0
   -2.6440    3.2337   -4.9050 H   0  0  0  0  0  0  0  0  0  0  0  0
   -4.3474    1.3844   -4.6495 H   0  0  0  0  0  0  0  0  0  0  0  0
    0.0113    3.7909   -6.2386 N   0  0  0  0  0  0  0  0  0  0  0  0
    0.6361    4.6910   -6.3654 N   0  0  0  0  0  0  0  0  0  0  0  0
    2.5628    0.8490   -6.4948 S   0  0  0  0  0  0  0  0  0  0  0  0
    3.0426   -0.7006   -5.5146 C   0  0  0  0  0  0  0  0  0  0  0  0
    1.5426    0.2796   -7.5002 O   0  0  0  0  0  0  0  0  0  0  0  0
    3.8192    1.3145   -7.1259 O   0  0  0  0  0  0  0  0  0  0  0  0
    1.9070    1.7328   -5.4783 O   0  0  0  0  0  0  0  0  0  0  0  0
    1.9441   -1.2519   -4.9516 F   0  0  0  0  0  0  0  0  0  0  0  0
    3.6106   -1.6155   -6.3154 F   0  0  0  0  0  0  0  0  0  0  0  0
    3.9064   -0.3861   -4.5366 F   0  0  0  0  0  0  0  0  0  0  0  0
   -3.9604   -1.1672   -5.6096 O   0  0  0  0  0  0  0  0  0  0  0  0
   -5.2117   -1.0051   -4.9386 C   0  0  0  0  0  0  0  0  0  0  0  0
   -5.7031   -1.9800   -4.9943 H   0  0  0  0  0  0  0  0  0  0  0  0
   -5.8335   -0.2502   -5.4428 H   0  0  0  0  0  0  0  0  0  0  0  0
   -5.0594   -0.7289   -3.8846 H   0  0  0  0  0  0  0  0  0  0  0  0
  1  6  1  0  0  0  0
  2  1  2  0  0  0  0
  2  3  1  0  0  0  0
  3  4  2  0  0  0  0
  4  5  1  0  0  0  0
  4  9  1  0  0  0  0
  5 10  1  0  0  0  0
  6 21  1  0  0  0  0
  6  5  2  0  0  0  0
  7  1  1  0  0  0  0
  8  2  1  0  0  0  0
 12 11  3  0  0  0  0
 13 14  1  0  0  0  0
 13 17  1  0  0  0  0
 14 18  1  0  0  0  0
 14 20  1  0  0  0  0
 15 13  2  0  0  0  0
 16 13  2  0  0  0  0
 19 14  1  0  0  0  0
 21 22  1  0  0  0  0
 22 25  1  0  0  0  0
 23 22  1  0  0  0  0
 24 22  1  0  0  0  0
M  RAD  2   3   2  17   2
M  END
