Coordinates from ORCA-job p-CH3O-Ph-N2-OTf-B3LYPG-aug-cc-pVDZ-scan-d09-29-n200
 OpenBabel01151817073D

 25 23  0  0  0  0  0  0  0  0999 V2000
   -1.9256   -0.3493   -6.3079 C   0  0  0  0  0  0  0  0  0  0  0  0
   -0.9393    0.6479   -6.4672 C   0  0  0  0  0  0  0  0  0  0  0  0
   -1.4017    1.7846   -5.9437 C   0  0  0  0  0  0  0  0  0  0  0  0
   -2.5014    2.2526   -5.3100 C   0  0  0  0  0  0  0  0  0  0  0  0
   -3.4467    1.2102   -5.1783 C   0  0  0  0  0  0  0  0  0  0  0  0
   -3.1577   -0.0771   -5.6760 C   0  0  0  0  0  0  0  0  0  0  0  0
   -1.7147   -1.3551   -6.6704 H   0  0  0  0  0  0  0  0  0  0  0  0
    0.0810    0.4542   -6.9240 H   0  0  0  0  0  0  0  0  0  0  0  0
   -2.6667    3.2615   -4.9471 H   0  0  0  0  0  0  0  0  0  0  0  0
   -4.3874    1.4433   -4.6866 H   0  0  0  0  0  0  0  0  0  0  0  0
   -0.0418    3.4400   -6.1881 N   0  0  0  0  0  0  0  0  0  0  0  0
    0.5175    4.3777   -6.3409 N   0  0  0  0  0  0  0  0  0  0  0  0
    2.5832    0.8664   -6.4814 S   0  0  0  0  0  0  0  0  0  0  0  0
    3.1917   -0.6781   -5.5662 C   0  0  0  0  0  0  0  0  0  0  0  0
    1.6137    0.2764   -7.5060 O   0  0  0  0  0  0  0  0  0  0  0  0
    3.8041    1.4760   -7.0629 O   0  0  0  0  0  0  0  0  0  0  0  0
    1.8628    1.6451   -5.4142 O   0  0  0  0  0  0  0  0  0  0  0  0
    2.1458   -1.3445   -5.0274 F   0  0  0  0  0  0  0  0  0  0  0  0
    3.8324   -1.5088   -6.4047 F   0  0  0  0  0  0  0  0  0  0  0  0
    4.0305   -0.3382   -4.5736 F   0  0  0  0  0  0  0  0  0  0  0  0
   -4.0057   -1.1278   -5.5905 O   0  0  0  0  0  0  0  0  0  0  0  0
   -5.2680   -0.9445   -4.9446 C   0  0  0  0  0  0  0  0  0  0  0  0
   -5.7646   -1.9172   -4.9909 H   0  0  0  0  0  0  0  0  0  0  0  0
   -5.8752   -0.1953   -5.4739 H   0  0  0  0  0  0  0  0  0  0  0  0
   -5.1319   -0.6497   -3.8936 H   0  0  0  0  0  0  0  0  0  0  0  0
  1  6  1  0  0  0  0
  2  1  2  0  0  0  0
  2  3  1  0  0  0  0
  3  4  2  0  0  0  0
  4  5  1  0  0  0  0
  4  9  1  0  0  0  0
  5 10  1  0  0  0  0
  6 21  1  0  0  0  0
  6  5  2  0  0  0  0
  7  1  1  0  0  0  0
  8  2  1  0  0  0  0
 12 11  3  0  0  0  0
 13 14  1  0  0  0  0
 13 17  1  0  0  0  0
 14 18  1  0  0  0  0
 14 20  1  0  0  0  0
 15 13  2  0  0  0  0
 16 13  2  0  0  0  0
 19 14  1  0  0  0  0
 21 22  1  0  0  0  0
 22 25  1  0  0  0  0
 23 22  1  0  0  0  0
 24 22  1  0  0  0  0
M  RAD  2   3   2  17   2
M  END
