Coordinates from ORCA-job p-CH3O-Ph-N2-OTf-B3LYPG-aug-cc-pVDZ-scan-d09-29-n200
 OpenBabel01151817073D

 25 24  0  0  0  0  0  0  0  0999 V2000
   -1.6428   -0.1253   -6.5484 C   0  0  0  0  0  0  0  0  0  0  0  0
   -0.8621    0.9430   -6.9033 C   0  0  0  0  0  0  0  0  0  0  0  0
   -1.2275    2.3240   -6.5096 C   0  0  0  0  0  0  0  0  0  0  0  0
   -2.4118    2.4347   -5.6414 C   0  0  0  0  0  0  0  0  0  0  0  0
   -3.1404    1.3482   -5.2648 C   0  0  0  0  0  0  0  0  0  0  0  0
   -2.7669    0.0454   -5.7197 C   0  0  0  0  0  0  0  0  0  0  0  0
   -1.3620   -1.1301   -6.8581 H   0  0  0  0  0  0  0  0  0  0  0  0
    0.0322    0.8456   -7.5229 H   0  0  0  0  0  0  0  0  0  0  0  0
   -2.6726    3.4411   -5.3131 H   0  0  0  0  0  0  0  0  0  0  0  0
   -4.0023    1.4894   -4.6184 H   0  0  0  0  0  0  0  0  0  0  0  0
   -0.7024    3.0951   -6.7768 N   0  0  0  0  0  0  0  0  0  0  0  0
   -0.0773    4.0130   -7.0927 N   0  0  0  0  0  0  0  0  0  0  0  0
    2.2714    0.8577   -5.9156 S   0  0  0  0  0  0  0  0  0  0  0  0
    2.4754   -0.9976   -5.5756 C   0  0  0  0  0  0  0  0  0  0  0  0
    2.1265    0.9177   -7.4130 O   0  0  0  0  0  0  0  0  0  0  0  0
    3.4778    1.4825   -5.3189 O   0  0  0  0  0  0  0  0  0  0  0  0
    0.9601    1.1656   -5.2030 O   0  0  0  0  0  0  0  0  0  0  0  0
    1.4062   -1.6842   -6.0591 F   0  0  0  0  0  0  0  0  0  0  0  0
    3.5782   -1.4796   -6.1697 F   0  0  0  0  0  0  0  0  0  0  0  0
    2.5574   -1.2437   -4.2561 F   0  0  0  0  0  0  0  0  0  0  0  0
   -3.4316   -1.0593   -5.4018 O   0  0  0  0  0  0  0  0  0  0  0  0
   -4.5773   -1.0004   -4.5298 C   0  0  0  0  0  0  0  0  0  0  0  0
   -4.9108   -2.0358   -4.4310 H   0  0  0  0  0  0  0  0  0  0  0  0
   -5.3727   -0.3924   -4.9800 H   0  0  0  0  0  0  0  0  0  0  0  0
   -4.2904   -0.6045   -3.5472 H   0  0  0  0  0  0  0  0  0  0  0  0
  1  6  1  0  0  0  0
  2  1  2  0  0  0  0
  2  3  1  0  0  0  0
  3  4  2  0  0  0  0
  4  9  1  0  0  0  0
  4  5  1  0  0  0  0
  5 10  1  0  0  0  0
  6 21  1  0  0  0  0
  6  5  2  0  0  0  0
  7  1  1  0  0  0  0
  8  2  1  0  0  0  0
 11  3  1  0  0  0  0
 12 11  1  0  0  0  0
 13 14  1  0  0  0  0
 13 16  2  0  0  0  0
 13 17  1  0  0  0  0
 14 20  1  0  0  0  0
 15 13  2  0  0  0  0
 18 14  1  0  0  0  0
 19 14  1  0  0  0  0
 21 22  1  0  0  0  0
 22 23  1  0  0  0  0
 22 25  1  0  0  0  0
 24 22  1  0  0  0  0
M  RAD  3  11   2  12   3  17   2
M  END
