Coordinates from ORCA-job p-CH3O-Ph-N2-OTf-B3LYPG-aug-cc-pVDZ-scan-d09-29-n200
 OpenBabel01151817073D

 25 24  0  0  0  0  0  0  0  0999 V2000
   -1.9794   -0.3789   -6.3172 C   0  0  0  0  0  0  0  0  0  0  0  0
   -0.9665    0.5757   -6.4673 C   0  0  0  0  0  0  0  0  0  0  0  0
   -1.3381    1.7749   -5.9444 C   0  0  0  0  0  0  0  0  0  0  0  0
   -2.4582    2.2251   -5.3050 C   0  0  0  0  0  0  0  0  0  0  0  0
   -3.4391    1.2272   -5.1741 C   0  0  0  0  0  0  0  0  0  0  0  0
   -3.1993   -0.0666   -5.6795 C   0  0  0  0  0  0  0  0  0  0  0  0
   -1.8170   -1.3893   -6.6895 H   0  0  0  0  0  0  0  0  0  0  0  0
    0.0169    0.3638   -6.9319 H   0  0  0  0  0  0  0  0  0  0  0  0
   -2.5961    3.2343   -4.9294 H   0  0  0  0  0  0  0  0  0  0  0  0
   -4.3698    1.4861   -4.6773 H   0  0  0  0  0  0  0  0  0  0  0  0
   -0.0846    3.1428   -6.1317 N   0  0  0  0  0  0  0  0  0  0  0  0
    0.4198    4.1147   -6.2678 N   0  0  0  0  0  0  0  0  0  0  0  0
    2.5936    0.8764   -6.5149 S   0  0  0  0  0  0  0  0  0  0  0  0
    3.3163   -0.6030   -5.5744 C   0  0  0  0  0  0  0  0  0  0  0  0
    1.7219    0.2210   -7.5665 O   0  0  0  0  0  0  0  0  0  0  0  0
    3.7728    1.6248   -7.0199 O   0  0  0  0  0  0  0  0  0  0  0  0
    1.7700    1.5742   -5.4506 O   0  0  0  0  0  0  0  0  0  0  0  0
    2.3239   -1.3712   -5.0727 F   0  0  0  0  0  0  0  0  0  0  0  0
    4.0649   -1.3635   -6.3906 F   0  0  0  0  0  0  0  0  0  0  0  0
    4.0838   -0.1875   -4.5523 F   0  0  0  0  0  0  0  0  0  0  0  0
   -4.0838   -1.0844   -5.5976 O   0  0  0  0  0  0  0  0  0  0  0  0
   -5.3387   -0.8618   -4.9480 C   0  0  0  0  0  0  0  0  0  0  0  0
   -5.8683   -1.8166   -5.0013 H   0  0  0  0  0  0  0  0  0  0  0  0
   -5.9197   -0.0880   -5.4709 H   0  0  0  0  0  0  0  0  0  0  0  0
   -5.1908   -0.5800   -3.8953 H   0  0  0  0  0  0  0  0  0  0  0  0
  1  6  1  0  0  0  0
  2  1  2  0  0  0  0
  2  3  1  0  0  0  0
  3  4  2  0  0  0  0
  4  5  1  0  0  0  0
  4  9  1  0  0  0  0
  5 10  1  0  0  0  0
  6 21  1  0  0  0  0
  6  5  2  0  0  0  0
  7  1  1  0  0  0  0
  8  2  1  0  0  0  0
 11  3  1  0  0  0  0
 12 11  1  0  0  0  0
 13 14  1  0  0  0  0
 13 17  1  0  0  0  0
 14 18  1  0  0  0  0
 14 20  1  0  0  0  0
 15 13  2  0  0  0  0
 16 13  2  0  0  0  0
 19 14  1  0  0  0  0
 21 22  1  0  0  0  0
 22 25  1  0  0  0  0
 23 22  1  0  0  0  0
 24 22  1  0  0  0  0
M  RAD  3  11   2  12   3  17   2
M  END
