Coordinates from ORCA-job p-CH3O-Ph-N2-OTf-B3LYPG-aug-cc-pVDZ-scan-d09-29-n200
 OpenBabel01151817073D

 25 24  0  0  0  0  0  0  0  0999 V2000
   -1.8441   -0.3631   -6.4493 C   0  0  0  0  0  0  0  0  0  0  0  0
   -0.9355    0.6190   -6.7678 C   0  0  0  0  0  0  0  0  0  0  0  0
   -1.1989    1.9466   -6.3310 C   0  0  0  0  0  0  0  0  0  0  0  0
   -2.3525    2.2668   -5.5754 C   0  0  0  0  0  0  0  0  0  0  0  0
   -3.2502    1.2660   -5.2598 C   0  0  0  0  0  0  0  0  0  0  0  0
   -3.0012   -0.0587   -5.6952 C   0  0  0  0  0  0  0  0  0  0  0  0
   -1.6724   -1.3946   -6.7507 H   0  0  0  0  0  0  0  0  0  0  0  0
   -0.0034    0.4309   -7.3038 H   0  0  0  0  0  0  0  0  0  0  0  0
   -2.5173    3.2904   -5.2429 H   0  0  0  0  0  0  0  0  0  0  0  0
   -4.1317    1.5104   -4.6745 H   0  0  0  0  0  0  0  0  0  0  0  0
   -0.3587    2.8875   -6.6098 N   0  0  0  0  0  0  0  0  0  0  0  0
    0.3572    3.7093   -6.8578 N   0  0  0  0  0  0  0  0  0  0  0  0
    2.5017    1.1239   -5.9715 S   0  0  0  0  0  0  0  0  0  0  0  0
    2.7749   -0.7324   -5.6822 C   0  0  0  0  0  0  0  0  0  0  0  0
    1.9690    1.1633   -7.3900 O   0  0  0  0  0  0  0  0  0  0  0  0
    3.8407    1.7317   -5.7603 O   0  0  0  0  0  0  0  0  0  0  0  0
    1.4363    1.4693   -4.9585 O   0  0  0  0  0  0  0  0  0  0  0  0
    1.6168   -1.4178   -5.8819 F   0  0  0  0  0  0  0  0  0  0  0  0
    3.6938   -1.2260   -6.5292 F   0  0  0  0  0  0  0  0  0  0  0  0
    3.1813   -0.9727   -4.4239 F   0  0  0  0  0  0  0  0  0  0  0  0
   -3.8076   -1.0930   -5.4356 O   0  0  0  0  0  0  0  0  0  0  0  0
   -4.9934   -0.8956   -4.6485 C   0  0  0  0  0  0  0  0  0  0  0  0
   -5.4570   -1.8822   -4.5765 H   0  0  0  0  0  0  0  0  0  0  0  0
   -5.6787   -0.1976   -5.1485 H   0  0  0  0  0  0  0  0  0  0  0  0
   -4.7349   -0.5310   -3.6453 H   0  0  0  0  0  0  0  0  0  0  0  0
  1  6  1  0  0  0  0
  2  1  2  0  0  0  0
  2  3  1  0  0  0  0
  3  4  2  0  0  0  0
  4  5  1  0  0  0  0
  4  9  1  0  0  0  0
  5 10  1  0  0  0  0
  6 21  1  0  0  0  0
  6  5  2  0  0  0  0
  7  1  1  0  0  0  0
  8  2  1  0  0  0  0
 11  3  1  0  0  0  0
 12 11  1  0  0  0  0
 13 16  2  0  0  0  0
 13 14  1  0  0  0  0
 13 17  1  0  0  0  0
 14 20  1  0  0  0  0
 15 13  2  0  0  0  0
 18 14  1  0  0  0  0
 19 14  1  0  0  0  0
 21 22  1  0  0  0  0
 22 23  1  0  0  0  0
 22 25  1  0  0  0  0
 24 22  1  0  0  0  0
M  RAD  3  11   2  12   3  17   2
M  END
