Coordinates from ORCA-job p-CH3O-Ph-N2-OTf-B3LYPG-aug-cc-pVDZ-scan-d29-49-n200
 OpenBabel01151817073D

 25 24  0  0  0  0  0  0  0  0999 V2000
   -2.2095   -0.0409   -7.3013 C   0  0  0  0  0  0  0  0  0  0  0  0
   -0.8924    0.4022   -7.3338 C   0  0  0  0  0  0  0  0  0  0  0  0
   -0.2943    0.8441   -6.1509 C   0  0  0  0  0  0  0  0  0  0  0  0
   -0.9952    0.8636   -4.9514 C   0  0  0  0  0  0  0  0  0  0  0  0
   -2.3243    0.4260   -4.9184 C   0  0  0  0  0  0  0  0  0  0  0  0
   -2.9328   -0.0339   -6.0955 C   0  0  0  0  0  0  0  0  0  0  0  0
   -2.7012   -0.3952   -8.2059 H   0  0  0  0  0  0  0  0  0  0  0  0
   -0.3305    0.4082   -8.2655 H   0  0  0  0  0  0  0  0  0  0  0  0
   -0.5140    1.2329   -4.0475 H   0  0  0  0  0  0  0  0  0  0  0  0
   -2.8636    0.4508   -3.9753 H   0  0  0  0  0  0  0  0  0  0  0  0
   -1.3312    4.2040   -6.9392 N   0  0  0  0  0  0  0  0  0  0  0  0
   -2.3631    4.5944   -6.8888 N   0  0  0  0  0  0  0  0  0  0  0  0
    2.3312    0.3967   -6.3603 S   0  0  0  0  0  0  0  0  0  0  0  0
    2.7674    0.0807   -4.5326 C   0  0  0  0  0  0  0  0  0  0  0  0
    1.9456   -0.8991   -6.9436 O   0  0  0  0  0  0  0  0  0  0  0  0
    3.3944    1.2513   -6.9028 O   0  0  0  0  0  0  0  0  0  0  0  0
    1.0058    1.3961   -6.1765 O   0  0  0  0  0  0  0  0  0  0  0  0
    1.7841   -0.6074   -3.9412 F   0  0  0  0  0  0  0  0  0  0  0  0
    3.8977   -0.6291   -4.4901 F   0  0  0  0  0  0  0  0  0  0  0  0
    2.9419    1.2435   -3.9010 F   0  0  0  0  0  0  0  0  0  0  0  0
   -4.2161   -0.4868   -6.1753 O   0  0  0  0  0  0  0  0  0  0  0  0
   -5.0028   -0.5036   -4.9872 C   0  0  0  0  0  0  0  0  0  0  0  0
   -5.9783   -0.9001   -5.2836 H   0  0  0  0  0  0  0  0  0  0  0  0
   -5.1280    0.5107   -4.5785 H   0  0  0  0  0  0  0  0  0  0  0  0
   -4.5566   -1.1591   -4.2239 H   0  0  0  0  0  0  0  0  0  0  0  0
  1  6  1  0  0  0  0
  2  1  2  0  0  0  0
  2  3  1  0  0  0  0
  3  4  2  0  0  0  0
  4  5  1  0  0  0  0
  4  9  1  0  0  0  0
  5 10  1  0  0  0  0
  6  5  2  0  0  0  0
  7  1  1  0  0  0  0
  8  2  1  0  0  0  0
 11 12  3  0  0  0  0
 13 17  1  0  0  0  0
 13 14  1  0  0  0  0
 14 19  1  0  0  0  0
 14 18  1  0  0  0  0
 14 20  1  0  0  0  0
 15 13  2  0  0  0  0
 16 13  2  0  0  0  0
 17  3  1  0  0  0  0
 21  6  1  0  0  0  0
 21 22  1  0  0  0  0
 22 24  1  0  0  0  0
 22 25  1  0  0  0  0
 23 22  1  0  0  0  0
M  END
