Coordinates from ORCA-job p-CH3O-Ph-N2-OTf-B3LYPG-aug-cc-pVDZ-scan-d29-49-n200
 OpenBabel01151817073D

 25 24  0  0  0  0  0  0  0  0999 V2000
   -2.2104   -0.0404   -7.3014 C   0  0  0  0  0  0  0  0  0  0  0  0
   -0.8935    0.4032   -7.3340 C   0  0  0  0  0  0  0  0  0  0  0  0
   -0.2955    0.8456   -6.1512 C   0  0  0  0  0  0  0  0  0  0  0  0
   -0.9963    0.8647   -4.9517 C   0  0  0  0  0  0  0  0  0  0  0  0
   -2.3252    0.4266   -4.9186 C   0  0  0  0  0  0  0  0  0  0  0  0
   -2.9337   -0.0336   -6.0956 C   0  0  0  0  0  0  0  0  0  0  0  0
   -2.7021   -0.3948   -8.2060 H   0  0  0  0  0  0  0  0  0  0  0  0
   -0.3316    0.4093   -8.2657 H   0  0  0  0  0  0  0  0  0  0  0  0
   -0.5152    1.2343   -4.0478 H   0  0  0  0  0  0  0  0  0  0  0  0
   -2.8645    0.4512   -3.9753 H   0  0  0  0  0  0  0  0  0  0  0  0
   -1.3207    4.1886   -6.9348 N   0  0  0  0  0  0  0  0  0  0  0  0
   -2.3513    4.5825   -6.8855 N   0  0  0  0  0  0  0  0  0  0  0  0
    2.3301    0.3993   -6.3610 S   0  0  0  0  0  0  0  0  0  0  0  0
    2.7665    0.0829   -4.5334 C   0  0  0  0  0  0  0  0  0  0  0  0
    1.9450   -0.8965   -6.9447 O   0  0  0  0  0  0  0  0  0  0  0  0
    3.3930    1.2544   -6.9033 O   0  0  0  0  0  0  0  0  0  0  0  0
    1.0043    1.3981   -6.1769 O   0  0  0  0  0  0  0  0  0  0  0  0
    1.7835   -0.6058   -3.9422 F   0  0  0  0  0  0  0  0  0  0  0  0
    3.8970   -0.6264   -4.4911 F   0  0  0  0  0  0  0  0  0  0  0  0
    2.9405    1.2456   -3.9015 F   0  0  0  0  0  0  0  0  0  0  0  0
   -4.2169   -0.4867   -6.1753 O   0  0  0  0  0  0  0  0  0  0  0  0
   -5.0036   -0.5036   -4.9872 C   0  0  0  0  0  0  0  0  0  0  0  0
   -5.9790   -0.9003   -5.2835 H   0  0  0  0  0  0  0  0  0  0  0  0
   -5.1289    0.5107   -4.5785 H   0  0  0  0  0  0  0  0  0  0  0  0
   -4.5572   -1.1590   -4.2239 H   0  0  0  0  0  0  0  0  0  0  0  0
  1  6  1  0  0  0  0
  2  1  2  0  0  0  0
  2  3  1  0  0  0  0
  3  4  2  0  0  0  0
  4  5  1  0  0  0  0
  4  9  1  0  0  0  0
  5 10  1  0  0  0  0
  6  5  2  0  0  0  0
  7  1  1  0  0  0  0
  8  2  1  0  0  0  0
 11 12  3  0  0  0  0
 13 17  1  0  0  0  0
 13 14  1  0  0  0  0
 14 19  1  0  0  0  0
 14 18  1  0  0  0  0
 14 20  1  0  0  0  0
 15 13  2  0  0  0  0
 16 13  2  0  0  0  0
 17  3  1  0  0  0  0
 21  6  1  0  0  0  0
 21 22  1  0  0  0  0
 22 24  1  0  0  0  0
 22 25  1  0  0  0  0
 23 22  1  0  0  0  0
M  END
