Coordinates from ORCA-job p-CH3O-Ph-N2-OTf-B3LYPG-aug-cc-pVDZ-scan-d09-29-n200
 OpenBabel01151817073D

 25 24  0  0  0  0  0  0  0  0999 V2000
   -1.7249   -0.1997   -6.5274 C   0  0  0  0  0  0  0  0  0  0  0  0
   -0.9061    0.8443   -6.8681 C   0  0  0  0  0  0  0  0  0  0  0  0
   -1.2259    2.1923   -6.4293 C   0  0  0  0  0  0  0  0  0  0  0  0
   -2.3996    2.3786   -5.6081 C   0  0  0  0  0  0  0  0  0  0  0  0
   -3.1966    1.3181   -5.2651 C   0  0  0  0  0  0  0  0  0  0  0  0
   -2.8664    0.0115   -5.7222 C   0  0  0  0  0  0  0  0  0  0  0  0
   -1.4817   -1.2133   -6.8399 H   0  0  0  0  0  0  0  0  0  0  0  0
    0.0179    0.7203   -7.4410 H   0  0  0  0  0  0  0  0  0  0  0  0
   -2.6273    3.3867   -5.2625 H   0  0  0  0  0  0  0  0  0  0  0  0
   -4.0685    1.4910   -4.6409 H   0  0  0  0  0  0  0  0  0  0  0  0
   -0.5742    3.0307   -6.6795 N   0  0  0  0  0  0  0  0  0  0  0  0
    0.1074    3.9016   -6.9399 N   0  0  0  0  0  0  0  0  0  0  0  0
    2.3731    0.9458   -5.9786 S   0  0  0  0  0  0  0  0  0  0  0  0
    2.5991   -0.8953   -5.5776 C   0  0  0  0  0  0  0  0  0  0  0  0
    2.0323    0.9261   -7.4511 O   0  0  0  0  0  0  0  0  0  0  0  0
    3.6683    1.5696   -5.6055 O   0  0  0  0  0  0  0  0  0  0  0  0
    1.1820    1.3184   -5.1204 O   0  0  0  0  0  0  0  0  0  0  0  0
    1.4678   -1.5867   -5.8817 F   0  0  0  0  0  0  0  0  0  0  0  0
    3.6083   -1.4278   -6.2866 F   0  0  0  0  0  0  0  0  0  0  0  0
    2.8524   -1.0812   -4.2698 F   0  0  0  0  0  0  0  0  0  0  0  0
   -3.5791   -1.0734   -5.4332 O   0  0  0  0  0  0  0  0  0  0  0  0
   -4.7413   -0.9765   -4.5883 C   0  0  0  0  0  0  0  0  0  0  0  0
   -5.1183   -1.9983   -4.5060 H   0  0  0  0  0  0  0  0  0  0  0  0
   -5.5014   -0.3335   -5.0513 H   0  0  0  0  0  0  0  0  0  0  0  0
   -4.4631   -0.5992   -3.5958 H   0  0  0  0  0  0  0  0  0  0  0  0
  1  6  1  0  0  0  0
  2  1  2  0  0  0  0
  2  3  1  0  0  0  0
  3  4  2  0  0  0  0
  4  5  1  0  0  0  0
  4  9  1  0  0  0  0
  5 10  1  0  0  0  0
  6 21  1  0  0  0  0
  6  5  2  0  0  0  0
  7  1  1  0  0  0  0
  8  2  1  0  0  0  0
 11  3  1  0  0  0  0
 12 11  1  0  0  0  0
 13 16  2  0  0  0  0
 13 14  1  0  0  0  0
 13 17  1  0  0  0  0
 14 20  1  0  0  0  0
 15 13  2  0  0  0  0
 18 14  1  0  0  0  0
 19 14  1  0  0  0  0
 21 22  1  0  0  0  0
 22 23  1  0  0  0  0
 22 25  1  0  0  0  0
 24 22  1  0  0  0  0
M  RAD  3  11   2  12   3  17   2
M  END
