Coordinates from ORCA-job p-CH3O-Ph-N2-OTf-B3LYPG-aug-cc-pVDZ-scan-d09-29-n200
 OpenBabel01151817073D

 25 23  0  0  0  0  0  0  0  0999 V2000
   -1.9012   -0.3420   -6.3294 C   0  0  0  0  0  0  0  0  0  0  0  0
   -0.9271    0.6729   -6.4906 C   0  0  0  0  0  0  0  0  0  0  0  0
   -1.4127    1.7804   -5.9508 C   0  0  0  0  0  0  0  0  0  0  0  0
   -2.4961    2.2526   -5.3031 C   0  0  0  0  0  0  0  0  0  0  0  0
   -3.4279    1.1930   -5.1704 C   0  0  0  0  0  0  0  0  0  0  0  0
   -3.1296   -0.0873   -5.6817 C   0  0  0  0  0  0  0  0  0  0  0  0
   -1.6794   -1.3425   -6.7003 H   0  0  0  0  0  0  0  0  0  0  0  0
    0.1093    0.4907   -6.9542 H   0  0  0  0  0  0  0  0  0  0  0  0
   -2.6671    3.2577   -4.9332 H   0  0  0  0  0  0  0  0  0  0  0  0
   -4.3663    1.4120   -4.6674 H   0  0  0  0  0  0  0  0  0  0  0  0
   -0.0272    3.6040   -6.2289 N   0  0  0  0  0  0  0  0  0  0  0  0
    0.5621    4.5232   -6.3820 N   0  0  0  0  0  0  0  0  0  0  0  0
    2.5759    0.8624   -6.4742 S   0  0  0  0  0  0  0  0  0  0  0  0
    3.0940   -0.7047   -5.5422 C   0  0  0  0  0  0  0  0  0  0  0  0
    1.5814    0.3062   -7.5034 O   0  0  0  0  0  0  0  0  0  0  0  0
    3.8274    1.3917   -7.0664 O   0  0  0  0  0  0  0  0  0  0  0  0
    1.8894    1.6902   -5.4271 O   0  0  0  0  0  0  0  0  0  0  0  0
    2.0088   -1.3079   -5.0062 F   0  0  0  0  0  0  0  0  0  0  0  0
    3.6946   -1.5760   -6.3683 F   0  0  0  0  0  0  0  0  0  0  0  0
    3.9418   -0.4003   -4.5463 F   0  0  0  0  0  0  0  0  0  0  0  0
   -3.9654   -1.1487   -5.5954 O   0  0  0  0  0  0  0  0  0  0  0  0
   -5.2218   -0.9837   -4.9340 C   0  0  0  0  0  0  0  0  0  0  0  0
   -5.7088   -1.9613   -4.9816 H   0  0  0  0  0  0  0  0  0  0  0  0
   -5.8432   -0.2372   -5.4507 H   0  0  0  0  0  0  0  0  0  0  0  0
   -5.0769   -0.6950   -3.8824 H   0  0  0  0  0  0  0  0  0  0  0  0
  1  6  1  0  0  0  0
  2  1  2  0  0  0  0
  2  3  1  0  0  0  0
  3  4  2  0  0  0  0
  4  5  1  0  0  0  0
  4  9  1  0  0  0  0
  5 10  1  0  0  0  0
  6 21  1  0  0  0  0
  6  5  2  0  0  0  0
  7  1  1  0  0  0  0
  8  2  1  0  0  0  0
 12 11  3  0  0  0  0
 13 14  1  0  0  0  0
 13 17  1  0  0  0  0
 14 18  1  0  0  0  0
 14 20  1  0  0  0  0
 15 13  2  0  0  0  0
 16 13  2  0  0  0  0
 19 14  1  0  0  0  0
 21 22  1  0  0  0  0
 22 25  1  0  0  0  0
 23 22  1  0  0  0  0
 24 22  1  0  0  0  0
M  RAD  2   3   2  17   2
M  END
