Coordinates from ORCA-job p-CH3O-Ph-N2-OTf-B3LYPG-aug-cc-pVDZ-scan-d09-29-n200
 OpenBabel01151817073D

 25 23  0  0  0  0  0  0  0  0999 V2000
   -1.9264   -0.3497   -6.3075 C   0  0  0  0  0  0  0  0  0  0  0  0
   -0.9392    0.6466   -6.4667 C   0  0  0  0  0  0  0  0  0  0  0  0
   -1.4004    1.7845   -5.9437 C   0  0  0  0  0  0  0  0  0  0  0  0
   -2.5005    2.2528   -5.3105 C   0  0  0  0  0  0  0  0  0  0  0  0
   -3.4466    1.2112   -5.1787 C   0  0  0  0  0  0  0  0  0  0  0  0
   -3.1585   -0.0764   -5.6759 C   0  0  0  0  0  0  0  0  0  0  0  0
   -1.7162   -1.3557   -6.6697 H   0  0  0  0  0  0  0  0  0  0  0  0
    0.0806    0.4521   -6.9233 H   0  0  0  0  0  0  0  0  0  0  0  0
   -2.6653    3.2618   -4.9476 H   0  0  0  0  0  0  0  0  0  0  0  0
   -4.3873    1.4450   -4.6872 H   0  0  0  0  0  0  0  0  0  0  0  0
   -0.0455    3.4313   -6.1856 N   0  0  0  0  0  0  0  0  0  0  0  0
    0.5119    4.3703   -6.3377 N   0  0  0  0  0  0  0  0  0  0  0  0
    2.5829    0.8662   -6.4819 S   0  0  0  0  0  0  0  0  0  0  0  0
    3.1959   -0.6768   -5.5670 C   0  0  0  0  0  0  0  0  0  0  0  0
    1.6153    0.2743   -7.5067 O   0  0  0  0  0  0  0  0  0  0  0  0
    3.8022    1.4798   -7.0626 O   0  0  0  0  0  0  0  0  0  0  0  0
    1.8600    1.6419   -5.4140 O   0  0  0  0  0  0  0  0  0  0  0  0
    2.1521   -1.3467   -5.0288 F   0  0  0  0  0  0  0  0  0  0  0  0
    3.8397   -1.5051   -6.4056 F   0  0  0  0  0  0  0  0  0  0  0  0
    4.0334   -0.3346   -4.5739 F   0  0  0  0  0  0  0  0  0  0  0  0
   -4.0073   -1.1265   -5.5904 O   0  0  0  0  0  0  0  0  0  0  0  0
   -5.2696   -0.9421   -4.9450 C   0  0  0  0  0  0  0  0  0  0  0  0
   -5.7669   -1.9144   -4.9912 H   0  0  0  0  0  0  0  0  0  0  0  0
   -5.8761   -0.1925   -5.4747 H   0  0  0  0  0  0  0  0  0  0  0  0
   -5.1337   -0.6471   -3.8940 H   0  0  0  0  0  0  0  0  0  0  0  0
  1  6  1  0  0  0  0
  2  1  2  0  0  0  0
  2  3  1  0  0  0  0
  3  4  2  0  0  0  0
  4  5  1  0  0  0  0
  4  9  1  0  0  0  0
  5 10  1  0  0  0  0
  6 21  1  0  0  0  0
  6  5  2  0  0  0  0
  7  1  1  0  0  0  0
  8  2  1  0  0  0  0
 12 11  3  0  0  0  0
 13 14  1  0  0  0  0
 13 17  1  0  0  0  0
 14 18  1  0  0  0  0
 14 20  1  0  0  0  0
 15 13  2  0  0  0  0
 16 13  2  0  0  0  0
 19 14  1  0  0  0  0
 21 22  1  0  0  0  0
 22 25  1  0  0  0  0
 23 22  1  0  0  0  0
 24 22  1  0  0  0  0
M  RAD  2   3   2  17   2
M  END
