Coordinates from ORCA-job p-CH3O-Ph-N2-OTf-B3LYPG-aug-cc-pVDZ-scan-d09-29-n200
 OpenBabel01151817073D

 25 23  0  0  0  0  0  0  0  0999 V2000
   -1.9022   -0.3711   -6.3689 C   0  0  0  0  0  0  0  0  0  0  0  0
   -0.9186    0.6471   -6.5093 C   0  0  0  0  0  0  0  0  0  0  0  0
   -1.4046    1.7171   -5.9305 C   0  0  0  0  0  0  0  0  0  0  0  0
   -2.4573    2.2082   -5.2553 C   0  0  0  0  0  0  0  0  0  0  0  0
   -3.3974    1.1483   -5.1430 C   0  0  0  0  0  0  0  0  0  0  0  0
   -3.1189   -0.1203   -5.6969 C   0  0  0  0  0  0  0  0  0  0  0  0
   -1.6940   -1.3629   -6.7702 H   0  0  0  0  0  0  0  0  0  0  0  0
    0.1456    0.4581   -6.9855 H   0  0  0  0  0  0  0  0  0  0  0  0
   -2.6086    3.2065   -4.8601 H   0  0  0  0  0  0  0  0  0  0  0  0
   -4.3287    1.3621   -4.6241 H   0  0  0  0  0  0  0  0  0  0  0  0
    0.0436    3.9131   -6.2409 N   0  0  0  0  0  0  0  0  0  0  0  0
    0.6861    4.8000   -6.3737 N   0  0  0  0  0  0  0  0  0  0  0  0
    2.5499    0.8369   -6.5155 S   0  0  0  0  0  0  0  0  0  0  0  0
    3.0135   -0.6869   -5.4882 C   0  0  0  0  0  0  0  0  0  0  0  0
    1.5181    0.2447   -7.5011 O   0  0  0  0  0  0  0  0  0  0  0  0
    3.8069    1.2621   -7.1714 O   0  0  0  0  0  0  0  0  0  0  0  0
    1.9074    1.7605   -5.5286 O   0  0  0  0  0  0  0  0  0  0  0  0
    1.9099   -1.2053   -4.9050 F   0  0  0  0  0  0  0  0  0  0  0  0
    3.5673   -1.6334   -6.2613 F   0  0  0  0  0  0  0  0  0  0  0  0
    3.8841   -0.3507   -4.5241 F   0  0  0  0  0  0  0  0  0  0  0  0
   -3.9662   -1.1758   -5.6300 O   0  0  0  0  0  0  0  0  0  0  0  0
   -5.2111   -1.0158   -4.9472 C   0  0  0  0  0  0  0  0  0  0  0  0
   -5.7104   -1.9859   -5.0156 H   0  0  0  0  0  0  0  0  0  0  0  0
   -5.8309   -0.2478   -5.4338 H   0  0  0  0  0  0  0  0  0  0  0  0
   -5.0491   -0.7586   -3.8898 H   0  0  0  0  0  0  0  0  0  0  0  0
  1  6  1  0  0  0  0
  2  1  2  0  0  0  0
  2  3  1  0  0  0  0
  3  4  2  0  0  0  0
  4  5  1  0  0  0  0
  4  9  1  0  0  0  0
  5 10  1  0  0  0  0
  6 21  1  0  0  0  0
  6  5  2  0  0  0  0
  7  1  1  0  0  0  0
  8  2  1  0  0  0  0
 12 11  3  0  0  0  0
 13 17  1  0  0  0  0
 13 14  1  0  0  0  0
 14 18  1  0  0  0  0
 14 20  1  0  0  0  0
 15 13  2  0  0  0  0
 16 13  2  0  0  0  0
 19 14  1  0  0  0  0
 21 22  1  0  0  0  0
 22 25  1  0  0  0  0
 23 22  1  0  0  0  0
 24 22  1  0  0  0  0
M  RAD  2   3   2  17   2
M  END
