Coordinates from ORCA-job p-CH3O-Ph-N2-OTf-B3LYPG-aug-cc-pVDZ-scan-d09-29-n200
 OpenBabel01151817073D

 25 24  0  0  0  0  0  0  0  0999 V2000
   -1.7788   -0.2960   -6.4611 C   0  0  0  0  0  0  0  0  0  0  0  0
   -0.9114    0.7066   -6.8074 C   0  0  0  0  0  0  0  0  0  0  0  0
   -1.1923    2.0711   -6.4127 C   0  0  0  0  0  0  0  0  0  0  0  0
   -2.3748    2.3300   -5.6338 C   0  0  0  0  0  0  0  0  0  0  0  0
   -3.2237    1.3105   -5.2829 C   0  0  0  0  0  0  0  0  0  0  0  0
   -2.9330   -0.0187   -5.6938 C   0  0  0  0  0  0  0  0  0  0  0  0
   -1.5696   -1.3266   -6.7410 H   0  0  0  0  0  0  0  0  0  0  0  0
    0.0193    0.5359   -7.3528 H   0  0  0  0  0  0  0  0  0  0  0  0
   -2.5735    3.3553   -5.3230 H   0  0  0  0  0  0  0  0  0  0  0  0
   -4.1046    1.5354   -4.6887 H   0  0  0  0  0  0  0  0  0  0  0  0
   -0.4896    2.9032   -6.6786 N   0  0  0  0  0  0  0  0  0  0  0  0
    0.2195    3.7432   -6.9509 N   0  0  0  0  0  0  0  0  0  0  0  0
    2.3912    1.0366   -5.8952 S   0  0  0  0  0  0  0  0  0  0  0  0
    2.7334   -0.8200   -5.6982 C   0  0  0  0  0  0  0  0  0  0  0  0
    2.0097    1.1501   -7.3554 O   0  0  0  0  0  0  0  0  0  0  0  0
    3.6607    1.6939   -5.4919 O   0  0  0  0  0  0  0  0  0  0  0  0
    1.2051    1.2498   -4.9808 O   0  0  0  0  0  0  0  0  0  0  0  0
    1.6371   -1.5418   -6.0566 F   0  0  0  0  0  0  0  0  0  0  0  0
    3.7550   -1.2123   -6.4773 F   0  0  0  0  0  0  0  0  0  0  0  0
    3.0267   -1.1279   -4.4227 F   0  0  0  0  0  0  0  0  0  0  0  0
   -3.6950   -1.0687   -5.3964 O   0  0  0  0  0  0  0  0  0  0  0  0
   -4.8752   -0.9023   -4.5890 C   0  0  0  0  0  0  0  0  0  0  0  0
   -5.2953   -1.9057   -4.4893 H   0  0  0  0  0  0  0  0  0  0  0  0
   -5.5960   -0.2435   -5.0912 H   0  0  0  0  0  0  0  0  0  0  0  0
   -4.6106   -0.5076   -3.5994 H   0  0  0  0  0  0  0  0  0  0  0  0
  1  6  1  0  0  0  0
  2  1  2  0  0  0  0
  2  3  1  0  0  0  0
  3  4  2  0  0  0  0
  4  9  1  0  0  0  0
  4  5  1  0  0  0  0
  5 10  1  0  0  0  0
  6 21  1  0  0  0  0
  6  5  2  0  0  0  0
  7  1  1  0  0  0  0
  8  2  1  0  0  0  0
 11  3  1  0  0  0  0
 12 11  1  0  0  0  0
 13 14  1  0  0  0  0
 13 16  2  0  0  0  0
 13 17  1  0  0  0  0
 14 20  1  0  0  0  0
 15 13  2  0  0  0  0
 18 14  1  0  0  0  0
 19 14  1  0  0  0  0
 21 22  1  0  0  0  0
 22 23  1  0  0  0  0
 22 25  1  0  0  0  0
 24 22  1  0  0  0  0
M  RAD  3  11   2  12   3  17   2
M  END
