Coordinates from ORCA-job p-CH3O-Ph-N2-OTf-B3LYPG-aug-cc-pVDZ-scan-d29-49-n200
 OpenBabel01151817073D

 25 24  0  0  0  0  0  0  0  0999 V2000
   -2.2300   -0.0169   -7.3059 C   0  0  0  0  0  0  0  0  0  0  0  0
   -0.9181    0.4408   -7.3406 C   0  0  0  0  0  0  0  0  0  0  0  0
   -0.3251    0.8970   -6.1610 C   0  0  0  0  0  0  0  0  0  0  0  0
   -1.0218    0.9026   -4.9593 C   0  0  0  0  0  0  0  0  0  0  0  0
   -2.3461    0.4512   -4.9234 C   0  0  0  0  0  0  0  0  0  0  0  0
   -2.9526   -0.0145   -6.0995 C   0  0  0  0  0  0  0  0  0  0  0  0
   -2.7186   -0.3793   -8.2089 H   0  0  0  0  0  0  0  0  0  0  0  0
   -0.3574    0.4492   -8.2730 H   0  0  0  0  0  0  0  0  0  0  0  0
   -0.5422    1.2747   -4.0556 H   0  0  0  0  0  0  0  0  0  0  0  0
   -2.8835    0.4692   -3.9790 H   0  0  0  0  0  0  0  0  0  0  0  0
   -1.0841    3.7577   -6.8132 N   0  0  0  0  0  0  0  0  0  0  0  0
   -2.0776    4.2404   -6.8008 N   0  0  0  0  0  0  0  0  0  0  0  0
    2.3014    0.4620   -6.3777 S   0  0  0  0  0  0  0  0  0  0  0  0
    2.7406    0.1341   -4.5527 C   0  0  0  0  0  0  0  0  0  0  0  0
    1.9231   -0.8316   -6.9706 O   0  0  0  0  0  0  0  0  0  0  0  0
    3.3604    1.3257   -6.9141 O   0  0  0  0  0  0  0  0  0  0  0  0
    0.9722    1.4537   -6.1863 O   0  0  0  0  0  0  0  0  0  0  0  0
    1.7618   -0.5640   -3.9659 F   0  0  0  0  0  0  0  0  0  0  0  0
    3.8748   -0.5697   -4.5168 F   0  0  0  0  0  0  0  0  0  0  0  0
    2.9093    1.2929   -3.9121 F   0  0  0  0  0  0  0  0  0  0  0  0
   -4.2314   -0.4794   -6.1771 O   0  0  0  0  0  0  0  0  0  0  0  0
   -5.0169   -0.5009   -4.9881 C   0  0  0  0  0  0  0  0  0  0  0  0
   -5.9895   -0.9054   -5.2832 H   0  0  0  0  0  0  0  0  0  0  0  0
   -5.1494    0.5129   -4.5807 H   0  0  0  0  0  0  0  0  0  0  0  0
   -4.5649   -1.1521   -4.2246 H   0  0  0  0  0  0  0  0  0  0  0  0
  1  6  1  0  0  0  0
  2  1  2  0  0  0  0
  2  3  1  0  0  0  0
  3  4  2  0  0  0  0
  4  5  1  0  0  0  0
  4  9  1  0  0  0  0
  5 10  1  0  0  0  0
  6  5  2  0  0  0  0
  7  1  1  0  0  0  0
  8  2  1  0  0  0  0
 11 12  3  0  0  0  0
 13 17  1  0  0  0  0
 13 14  1  0  0  0  0
 14 19  1  0  0  0  0
 14 18  1  0  0  0  0
 14 20  1  0  0  0  0
 15 13  2  0  0  0  0
 16 13  2  0  0  0  0
 17  3  1  0  0  0  0
 21  6  1  0  0  0  0
 21 22  1  0  0  0  0
 22 24  1  0  0  0  0
 22 25  1  0  0  0  0
 23 22  1  0  0  0  0
M  END
