Coordinates from ORCA-job p-CH3O-Ph-N2-OTf-B3LYPG-aug-cc-pVDZ-scan-d09-29-n200
 OpenBabel01151817073D

 25 24  0  0  0  0  0  0  0  0999 V2000
   -2.3197    0.0911   -7.2763 C   0  0  0  0  0  0  0  0  0  0  0  0
   -1.0103    0.5562   -7.3126 C   0  0  0  0  0  0  0  0  0  0  0  0
   -0.3988    0.9515   -6.1230 C   0  0  0  0  0  0  0  0  0  0  0  0
   -1.0609    0.8661   -4.9071 C   0  0  0  0  0  0  0  0  0  0  0  0
   -2.3830    0.4084   -4.8683 C   0  0  0  0  0  0  0  0  0  0  0  0
   -3.0164    0.0180   -6.0573 C   0  0  0  0  0  0  0  0  0  0  0  0
   -2.8262   -0.2206   -8.1884 H   0  0  0  0  0  0  0  0  0  0  0  0
   -0.4718    0.6226   -8.2552 H   0  0  0  0  0  0  0  0  0  0  0  0
   -0.5610    1.1812   -3.9929 H   0  0  0  0  0  0  0  0  0  0  0  0
   -2.8965    0.3600   -3.9117 H   0  0  0  0  0  0  0  0  0  0  0  0
   -0.9671    3.5534   -6.5608 N   0  0  0  0  0  0  0  0  0  0  0  0
   -0.7598    4.6156   -6.7814 N   0  0  0  0  0  0  0  0  0  0  0  0
    2.2269    0.5623   -6.4673 S   0  0  0  0  0  0  0  0  0  0  0  0
    2.6655   -0.0400   -4.7125 C   0  0  0  0  0  0  0  0  0  0  0  0
    1.8561   -0.6269   -7.2516 O   0  0  0  0  0  0  0  0  0  0  0  0
    3.2817    1.5027   -6.8653 O   0  0  0  0  0  0  0  0  0  0  0  0
    0.8976    1.5142   -6.1328 O   0  0  0  0  0  0  0  0  0  0  0  0
    1.7015   -0.8424   -4.2497 F   0  0  0  0  0  0  0  0  0  0  0  0
    3.8157   -0.7148   -4.7801 F   0  0  0  0  0  0  0  0  0  0  0  0
    2.8058    1.0079   -3.8970 F   0  0  0  0  0  0  0  0  0  0  0  0
   -4.2969   -0.4441   -6.1356 O   0  0  0  0  0  0  0  0  0  0  0  0
   -5.0539   -0.5433   -4.9327 C   0  0  0  0  0  0  0  0  0  0  0  0
   -6.0336   -0.9288   -5.2299 H   0  0  0  0  0  0  0  0  0  0  0  0
   -5.1762    0.4419   -4.4571 H   0  0  0  0  0  0  0  0  0  0  0  0
   -4.5845   -1.2419   -4.2234 H   0  0  0  0  0  0  0  0  0  0  0  0
  1  6  1  0  0  0  0
  2  1  2  0  0  0  0
  2  3  1  0  0  0  0
  3  4  2  0  0  0  0
  4  5  1  0  0  0  0
  4  9  1  0  0  0  0
  5 10  1  0  0  0  0
  6  5  2  0  0  0  0
  7  1  1  0  0  0  0
  8  2  1  0  0  0  0
 12 11  3  0  0  0  0
 13 17  1  0  0  0  0
 13 14  1  0  0  0  0
 14 18  1  0  0  0  0
 14 20  1  0  0  0  0
 15 13  2  0  0  0  0
 16 13  2  0  0  0  0
 17  3  1  0  0  0  0
 19 14  1  0  0  0  0
 21  6  1  0  0  0  0
 21 22  1  0  0  0  0
 22 24  1  0  0  0  0
 22 25  1  0  0  0  0
 23 22  1  0  0  0  0
M  END
