Coordinates from ORCA-job p-CH3O-Ph-N2-OTf-B3LYPG-aug-cc-pVDZ-scan-d09-29-n200
 OpenBabel01151817073D

 25 24  0  0  0  0  0  0  0  0999 V2000
   -1.6172   -0.0819   -6.5869 C   0  0  0  0  0  0  0  0  0  0  0  0
   -0.8484    1.0006   -6.9307 C   0  0  0  0  0  0  0  0  0  0  0  0
   -1.2293    2.3881   -6.5265 C   0  0  0  0  0  0  0  0  0  0  0  0
   -2.4015    2.4536   -5.6177 C   0  0  0  0  0  0  0  0  0  0  0  0
   -3.1006    1.3512   -5.2427 C   0  0  0  0  0  0  0  0  0  0  0  0
   -2.7225    0.0595   -5.7329 C   0  0  0  0  0  0  0  0  0  0  0  0
   -1.3314   -1.0769   -6.9227 H   0  0  0  0  0  0  0  0  0  0  0  0
    0.0212    0.9231   -7.5857 H   0  0  0  0  0  0  0  0  0  0  0  0
   -2.6666    3.4526   -5.2706 H   0  0  0  0  0  0  0  0  0  0  0  0
   -3.9476    1.4678   -4.5719 H   0  0  0  0  0  0  0  0  0  0  0  0
   -0.7612    3.1326   -6.7970 N   0  0  0  0  0  0  0  0  0  0  0  0
   -0.1706    4.0751   -7.1367 N   0  0  0  0  0  0  0  0  0  0  0  0
    2.2403    0.8116   -5.9400 S   0  0  0  0  0  0  0  0  0  0  0  0
    2.4032   -1.0309   -5.5191 C   0  0  0  0  0  0  0  0  0  0  0  0
    2.1529    0.8206   -7.4399 O   0  0  0  0  0  0  0  0  0  0  0  0
    3.4229    1.4467   -5.3092 O   0  0  0  0  0  0  0  0  0  0  0  0
    0.9017    1.1624   -5.2897 O   0  0  0  0  0  0  0  0  0  0  0  0
    1.3453   -1.7216   -6.0180 F   0  0  0  0  0  0  0  0  0  0  0  0
    3.5225   -1.5473   -6.0487 F   0  0  0  0  0  0  0  0  0  0  0  0
    2.4291   -1.2234   -4.1886 F   0  0  0  0  0  0  0  0  0  0  0  0
   -3.3716   -1.0569   -5.4233 O   0  0  0  0  0  0  0  0  0  0  0  0
   -4.5014   -1.0259   -4.5294 C   0  0  0  0  0  0  0  0  0  0  0  0
   -4.8250   -2.0659   -4.4471 H   0  0  0  0  0  0  0  0  0  0  0  0
   -5.3099   -0.4150   -4.9514 H   0  0  0  0  0  0  0  0  0  0  0  0
   -4.1997   -0.6495   -3.5437 H   0  0  0  0  0  0  0  0  0  0  0  0
  1  6  1  0  0  0  0
  2  1  2  0  0  0  0
  2  3  1  0  0  0  0
  3  4  2  0  0  0  0
  4  9  1  0  0  0  0
  4  5  1  0  0  0  0
  5 10  1  0  0  0  0
  6 21  1  0  0  0  0
  6  5  2  0  0  0  0
  7  1  1  0  0  0  0
  8  2  1  0  0  0  0
 11  3  1  0  0  0  0
 12 11  1  0  0  0  0
 13 14  1  0  0  0  0
 13 16  2  0  0  0  0
 13 17  1  0  0  0  0
 14 20  1  0  0  0  0
 15 13  2  0  0  0  0
 18 14  1  0  0  0  0
 19 14  1  0  0  0  0
 21 22  1  0  0  0  0
 22 23  1  0  0  0  0
 22 25  1  0  0  0  0
 24 22  1  0  0  0  0
M  RAD  3  11   2  12   3  17   2
M  END
