Coordinates from ORCA-job p-CH3O-Ph-N2-OTf-B3LYPG-aug-cc-pVDZ-scan-d29-49-n200
 OpenBabel01151817073D

 25 24  0  0  0  0  0  0  0  0999 V2000
   -2.1752   -0.0594   -7.2957 C   0  0  0  0  0  0  0  0  0  0  0  0
   -0.8526    0.3672   -7.3239 C   0  0  0  0  0  0  0  0  0  0  0  0
   -0.2517    0.7997   -6.1389 C   0  0  0  0  0  0  0  0  0  0  0  0
   -0.9563    0.8279   -4.9415 C   0  0  0  0  0  0  0  0  0  0  0  0
   -2.2907    0.4067   -4.9127 C   0  0  0  0  0  0  0  0  0  0  0  0
   -2.9014   -0.0453   -6.0917 C   0  0  0  0  0  0  0  0  0  0  0  0
   -2.6688   -0.4067   -8.2020 H   0  0  0  0  0  0  0  0  0  0  0  0
   -0.2883    0.3675   -8.2543 H   0  0  0  0  0  0  0  0  0  0  0  0
   -0.4734    1.1910   -4.0360 H   0  0  0  0  0  0  0  0  0  0  0  0
   -2.8325    0.4378   -3.9711 H   0  0  0  0  0  0  0  0  0  0  0  0
   -1.6915    4.6818   -7.0826 N   0  0  0  0  0  0  0  0  0  0  0  0
   -2.7602    4.9465   -6.9953 N   0  0  0  0  0  0  0  0  0  0  0  0
    2.3688    0.3183   -6.3384 S   0  0  0  0  0  0  0  0  0  0  0  0
    2.7976    0.0042   -4.5086 C   0  0  0  0  0  0  0  0  0  0  0  0
    1.9677   -0.9747   -6.9175 O   0  0  0  0  0  0  0  0  0  0  0  0
    3.4436    1.1575   -6.8822 O   0  0  0  0  0  0  0  0  0  0  0  0
    1.0553    1.3351   -6.1609 O   0  0  0  0  0  0  0  0  0  0  0  0
    1.8044   -0.6686   -3.9163 F   0  0  0  0  0  0  0  0  0  0  0  0
    3.9184   -0.7200   -4.4612 F   0  0  0  0  0  0  0  0  0  0  0  0
    2.9860    1.1673   -3.8817 F   0  0  0  0  0  0  0  0  0  0  0  0
   -4.1897   -0.4832   -6.1752 O   0  0  0  0  0  0  0  0  0  0  0  0
   -4.9795   -0.4923   -4.9890 C   0  0  0  0  0  0  0  0  0  0  0  0
   -5.9586   -0.8776   -5.2882 H   0  0  0  0  0  0  0  0  0  0  0  0
   -5.0944    0.5230   -4.5797 H   0  0  0  0  0  0  0  0  0  0  0  0
   -4.5425   -1.1534   -4.2252 H   0  0  0  0  0  0  0  0  0  0  0  0
  1  6  1  0  0  0  0
  2  1  2  0  0  0  0
  2  3  1  0  0  0  0
  3  4  2  0  0  0  0
  4  5  1  0  0  0  0
  4  9  1  0  0  0  0
  5 10  1  0  0  0  0
  6  5  2  0  0  0  0
  7  1  1  0  0  0  0
  8  2  1  0  0  0  0
 11 12  3  0  0  0  0
 13 17  1  0  0  0  0
 13 14  1  0  0  0  0
 14 19  1  0  0  0  0
 14 18  1  0  0  0  0
 14 20  1  0  0  0  0
 15 13  2  0  0  0  0
 16 13  2  0  0  0  0
 17  3  1  0  0  0  0
 21  6  1  0  0  0  0
 21 22  1  0  0  0  0
 22 24  1  0  0  0  0
 22 25  1  0  0  0  0
 23 22  1  0  0  0  0
M  END
