Coordinates from ORCA-job p-CH3O-Ph-N2-OTf-B3LYPG-aug-cc-pVDZ-scan-d09-29-n200
 OpenBabel01151817073D

 25 23  0  0  0  0  0  0  0  0999 V2000
   -1.9000   -0.3360   -6.3268 C   0  0  0  0  0  0  0  0  0  0  0  0
   -0.9261    0.6786   -6.4881 C   0  0  0  0  0  0  0  0  0  0  0  0
   -1.4094    1.7897   -5.9501 C   0  0  0  0  0  0  0  0  0  0  0  0
   -2.4976    2.2560   -5.3025 C   0  0  0  0  0  0  0  0  0  0  0  0
   -3.4288    1.1975   -5.1704 C   0  0  0  0  0  0  0  0  0  0  0  0
   -3.1291   -0.0827   -5.6808 C   0  0  0  0  0  0  0  0  0  0  0  0
   -1.6769   -1.3364   -6.6969 H   0  0  0  0  0  0  0  0  0  0  0  0
    0.1072    0.4927   -6.9519 H   0  0  0  0  0  0  0  0  0  0  0  0
   -2.6692    3.2613   -4.9332 H   0  0  0  0  0  0  0  0  0  0  0  0
   -4.3677    1.4166   -4.6684 H   0  0  0  0  0  0  0  0  0  0  0  0
   -0.0373    3.5727   -6.2274 N   0  0  0  0  0  0  0  0  0  0  0  0
    0.5484    4.4930   -6.3872 N   0  0  0  0  0  0  0  0  0  0  0  0
    2.5739    0.8617   -6.4729 S   0  0  0  0  0  0  0  0  0  0  0  0
    3.1002   -0.7050   -5.5448 C   0  0  0  0  0  0  0  0  0  0  0  0
    1.5849    0.3060   -7.5056 O   0  0  0  0  0  0  0  0  0  0  0  0
    3.8238    1.4009   -7.0598 O   0  0  0  0  0  0  0  0  0  0  0  0
    1.8804    1.6798   -5.4226 O   0  0  0  0  0  0  0  0  0  0  0  0
    2.0180   -1.3169   -5.0128 F   0  0  0  0  0  0  0  0  0  0  0  0
    3.7080   -1.5699   -6.3725 F   0  0  0  0  0  0  0  0  0  0  0  0
    3.9443   -0.3985   -4.5464 F   0  0  0  0  0  0  0  0  0  0  0  0
   -3.9639   -1.1447   -5.5950 O   0  0  0  0  0  0  0  0  0  0  0  0
   -5.2212   -0.9808   -4.9350 C   0  0  0  0  0  0  0  0  0  0  0  0
   -5.7071   -1.9589   -4.9827 H   0  0  0  0  0  0  0  0  0  0  0  0
   -5.8428   -0.2352   -5.4528 H   0  0  0  0  0  0  0  0  0  0  0  0
   -5.0778   -0.6914   -3.8834 H   0  0  0  0  0  0  0  0  0  0  0  0
  1  6  1  0  0  0  0
  2  1  2  0  0  0  0
  2  3  1  0  0  0  0
  3  4  2  0  0  0  0
  4  5  1  0  0  0  0
  4  9  1  0  0  0  0
  5 10  1  0  0  0  0
  6 21  1  0  0  0  0
  6  5  2  0  0  0  0
  7  1  1  0  0  0  0
  8  2  1  0  0  0  0
 12 11  3  0  0  0  0
 13 14  1  0  0  0  0
 13 17  1  0  0  0  0
 14 18  1  0  0  0  0
 14 20  1  0  0  0  0
 15 13  2  0  0  0  0
 16 13  2  0  0  0  0
 19 14  1  0  0  0  0
 21 22  1  0  0  0  0
 22 25  1  0  0  0  0
 23 22  1  0  0  0  0
 24 22  1  0  0  0  0
M  RAD  2   3   2  17   2
M  END
