Coordinates from ORCA-job p-CH3O-Ph-N2-OTf-B3LYPG-aug-cc-pVDZ-scan-d09-29-n200
 OpenBabel01151817073D

 25 24  0  0  0  0  0  0  0  0999 V2000
   -2.3243    0.0926   -7.2792 C   0  0  0  0  0  0  0  0  0  0  0  0
   -1.0142    0.5556   -7.3159 C   0  0  0  0  0  0  0  0  0  0  0  0
   -0.3984    0.9418   -6.1255 C   0  0  0  0  0  0  0  0  0  0  0  0
   -1.0595    0.8570   -4.9092 C   0  0  0  0  0  0  0  0  0  0  0  0
   -2.3823    0.4009   -4.8697 C   0  0  0  0  0  0  0  0  0  0  0  0
   -3.0181    0.0150   -6.0587 C   0  0  0  0  0  0  0  0  0  0  0  0
   -2.8336   -0.2130   -8.1919 H   0  0  0  0  0  0  0  0  0  0  0  0
   -0.4771    0.6278   -8.2590 H   0  0  0  0  0  0  0  0  0  0  0  0
   -0.5575    1.1705   -3.9955 H   0  0  0  0  0  0  0  0  0  0  0  0
   -2.8946    0.3515   -3.9125 H   0  0  0  0  0  0  0  0  0  0  0  0
   -0.9673    3.5957   -6.5630 N   0  0  0  0  0  0  0  0  0  0  0  0
   -0.7535    4.6567   -6.7828 N   0  0  0  0  0  0  0  0  0  0  0  0
    2.2264    0.5506   -6.4661 S   0  0  0  0  0  0  0  0  0  0  0  0
    2.6685   -0.0357   -4.7068 C   0  0  0  0  0  0  0  0  0  0  0  0
    1.8532   -0.6459   -7.2382 O   0  0  0  0  0  0  0  0  0  0  0  0
    3.2809    1.4868   -6.8747 O   0  0  0  0  0  0  0  0  0  0  0  0
    0.8974    1.5059   -6.1387 O   0  0  0  0  0  0  0  0  0  0  0  0
    1.7056   -0.8342   -4.2349 F   0  0  0  0  0  0  0  0  0  0  0  0
    3.8187   -0.7110   -4.7708 F   0  0  0  0  0  0  0  0  0  0  0  0
    2.8103    1.0193   -3.9009 F   0  0  0  0  0  0  0  0  0  0  0  0
   -4.2992   -0.4455   -6.1361 O   0  0  0  0  0  0  0  0  0  0  0  0
   -5.0541   -0.5478   -4.9321 C   0  0  0  0  0  0  0  0  0  0  0  0
   -6.0346   -0.9318   -5.2287 H   0  0  0  0  0  0  0  0  0  0  0  0
   -5.1748    0.4360   -4.4533 H   0  0  0  0  0  0  0  0  0  0  0  0
   -4.5838   -1.2488   -4.2258 H   0  0  0  0  0  0  0  0  0  0  0  0
  1  6  1  0  0  0  0
  2  1  2  0  0  0  0
  2  3  1  0  0  0  0
  3  4  2  0  0  0  0
  4  5  1  0  0  0  0
  4  9  1  0  0  0  0
  5 10  1  0  0  0  0
  6  5  2  0  0  0  0
  7  1  1  0  0  0  0
  8  2  1  0  0  0  0
 12 11  3  0  0  0  0
 13 17  1  0  0  0  0
 13 14  1  0  0  0  0
 14 18  1  0  0  0  0
 14 20  1  0  0  0  0
 15 13  2  0  0  0  0
 16 13  2  0  0  0  0
 17  3  1  0  0  0  0
 19 14  1  0  0  0  0
 21  6  1  0  0  0  0
 21 22  1  0  0  0  0
 22 24  1  0  0  0  0
 22 25  1  0  0  0  0
 23 22  1  0  0  0  0
M  END
