Coordinates from ORCA-job p-CH3O-Ph-N2-OTf-B3LYPG-aug-cc-pVDZ-scan-d09-29-n200
 OpenBabel01151817073D

 25 23  0  0  0  0  0  0  0  0999 V2000
   -1.9443   -0.3607   -6.2994 C   0  0  0  0  0  0  0  0  0  0  0  0
   -0.9475    0.6224   -6.4539 C   0  0  0  0  0  0  0  0  0  0  0  0
   -1.3890    1.7778   -5.9363 C   0  0  0  0  0  0  0  0  0  0  0  0
   -2.4957    2.2459   -5.3087 C   0  0  0  0  0  0  0  0  0  0  0  0
   -3.4532    1.2170   -5.1799 C   0  0  0  0  0  0  0  0  0  0  0  0
   -3.1765   -0.0740   -5.6742 C   0  0  0  0  0  0  0  0  0  0  0  0
   -1.7457   -1.3693   -6.6605 H   0  0  0  0  0  0  0  0  0  0  0  0
    0.0636    0.4223   -6.9071 H   0  0  0  0  0  0  0  0  0  0  0  0
   -2.6538    3.2563   -4.9462 H   0  0  0  0  0  0  0  0  0  0  0  0
   -4.3937    1.4604   -4.6930 H   0  0  0  0  0  0  0  0  0  0  0  0
   -0.0488    3.3470   -6.1612 N   0  0  0  0  0  0  0  0  0  0  0  0
    0.4901    4.2972   -6.3105 N   0  0  0  0  0  0  0  0  0  0  0  0
    2.5870    0.8677   -6.4922 S   0  0  0  0  0  0  0  0  0  0  0  0
    3.2514   -0.6538   -5.5769 C   0  0  0  0  0  0  0  0  0  0  0  0
    1.6367    0.2495   -7.5122 O   0  0  0  0  0  0  0  0  0  0  0  0
    3.7864    1.5256   -7.0674 O   0  0  0  0  0  0  0  0  0  0  0  0
    1.8439    1.6203   -5.4177 O   0  0  0  0  0  0  0  0  0  0  0  0
    2.2315   -1.3569   -5.0354 F   0  0  0  0  0  0  0  0  0  0  0  0
    3.9194   -1.4615   -6.4169 F   0  0  0  0  0  0  0  0  0  0  0  0
    4.0805   -0.2847   -4.5861 F   0  0  0  0  0  0  0  0  0  0  0  0
   -4.0366   -1.1145   -5.5918 O   0  0  0  0  0  0  0  0  0  0  0  0
   -5.3005   -0.9165   -4.9530 C   0  0  0  0  0  0  0  0  0  0  0  0
   -5.8074   -1.8838   -5.0013 H   0  0  0  0  0  0  0  0  0  0  0  0
   -5.8964   -0.1612   -5.4865 H   0  0  0  0  0  0  0  0  0  0  0  0
   -5.1670   -0.6222   -3.9016 H   0  0  0  0  0  0  0  0  0  0  0  0
  1  6  1  0  0  0  0
  2  1  2  0  0  0  0
  2  3  1  0  0  0  0
  3  4  2  0  0  0  0
  4  5  1  0  0  0  0
  4  9  1  0  0  0  0
  5 10  1  0  0  0  0
  6 21  1  0  0  0  0
  6  5  2  0  0  0  0
  7  1  1  0  0  0  0
  8  2  1  0  0  0  0
 12 11  3  0  0  0  0
 13 14  1  0  0  0  0
 13 17  1  0  0  0  0
 14 18  1  0  0  0  0
 14 20  1  0  0  0  0
 15 13  2  0  0  0  0
 16 13  2  0  0  0  0
 19 14  1  0  0  0  0
 21 22  1  0  0  0  0
 22 25  1  0  0  0  0
 23 22  1  0  0  0  0
 24 22  1  0  0  0  0
M  RAD  2   3   2  17   2
M  END
