Coordinates from ORCA-job p-CH3O-Ph-N2-OTf-B3LYPG-aug-cc-pVDZ-scan-d29-49-n200
 OpenBabel01151817073D

 25 24  0  0  0  0  0  0  0  0999 V2000
   -2.2305   -0.0149   -7.3064 C   0  0  0  0  0  0  0  0  0  0  0  0
   -0.9189    0.4433   -7.3413 C   0  0  0  0  0  0  0  0  0  0  0  0
   -0.3261    0.9002   -6.1619 C   0  0  0  0  0  0  0  0  0  0  0  0
   -1.0224    0.9048   -4.9599 C   0  0  0  0  0  0  0  0  0  0  0  0
   -2.3465    0.4529   -4.9239 C   0  0  0  0  0  0  0  0  0  0  0  0
   -2.9531   -0.0128   -6.0999 C   0  0  0  0  0  0  0  0  0  0  0  0
   -2.7191   -0.3776   -8.2093 H   0  0  0  0  0  0  0  0  0  0  0  0
   -0.3582    0.4519   -8.2737 H   0  0  0  0  0  0  0  0  0  0  0  0
   -0.5427    1.2768   -4.0562 H   0  0  0  0  0  0  0  0  0  0  0  0
   -2.8837    0.4704   -3.9793 H   0  0  0  0  0  0  0  0  0  0  0  0
   -1.0772    3.7329   -6.8059 N   0  0  0  0  0  0  0  0  0  0  0  0
   -2.0686    4.2198   -6.7957 N   0  0  0  0  0  0  0  0  0  0  0  0
    2.3003    0.4644   -6.3784 S   0  0  0  0  0  0  0  0  0  0  0  0
    2.7393    0.1364   -4.5534 C   0  0  0  0  0  0  0  0  0  0  0  0
    1.9218   -0.8291   -6.9714 O   0  0  0  0  0  0  0  0  0  0  0  0
    3.3595    1.3279   -6.9146 O   0  0  0  0  0  0  0  0  0  0  0  0
    0.9713    1.4565   -6.1871 O   0  0  0  0  0  0  0  0  0  0  0  0
    1.7605   -0.5619   -3.9667 F   0  0  0  0  0  0  0  0  0  0  0  0
    3.8736   -0.5674   -4.5175 F   0  0  0  0  0  0  0  0  0  0  0  0
    2.9079    1.2950   -3.9126 F   0  0  0  0  0  0  0  0  0  0  0  0
   -4.2317   -0.4781   -6.1774 O   0  0  0  0  0  0  0  0  0  0  0  0
   -5.0171   -0.4999   -4.9884 C   0  0  0  0  0  0  0  0  0  0  0  0
   -5.9896   -0.9045   -5.2834 H   0  0  0  0  0  0  0  0  0  0  0  0
   -5.1498    0.5139   -4.5809 H   0  0  0  0  0  0  0  0  0  0  0  0
   -4.5648   -1.1509   -4.2249 H   0  0  0  0  0  0  0  0  0  0  0  0
  1  6  1  0  0  0  0
  2  1  2  0  0  0  0
  2  3  1  0  0  0  0
  3  4  2  0  0  0  0
  4  5  1  0  0  0  0
  4  9  1  0  0  0  0
  5 10  1  0  0  0  0
  6  5  2  0  0  0  0
  7  1  1  0  0  0  0
  8  2  1  0  0  0  0
 11 12  3  0  0  0  0
 13 17  1  0  0  0  0
 13 14  1  0  0  0  0
 14 19  1  0  0  0  0
 14 18  1  0  0  0  0
 14 20  1  0  0  0  0
 15 13  2  0  0  0  0
 16 13  2  0  0  0  0
 17  3  1  0  0  0  0
 21  6  1  0  0  0  0
 21 22  1  0  0  0  0
 22 24  1  0  0  0  0
 22 25  1  0  0  0  0
 23 22  1  0  0  0  0
M  END
