Coordinates from ORCA-job p-CH3O-Ph-N2-OTf-B3LYPG-aug-cc-pVDZ-scan-d09-29-n200
 OpenBabel01151817073D

 25 24  0  0  0  0  0  0  0  0999 V2000
   -1.9293   -0.4050   -6.4181 C   0  0  0  0  0  0  0  0  0  0  0  0
   -0.9465    0.5575   -6.6508 C   0  0  0  0  0  0  0  0  0  0  0  0
   -1.2763    1.7758   -6.1238 C   0  0  0  0  0  0  0  0  0  0  0  0
   -2.3556    2.2066   -5.4004 C   0  0  0  0  0  0  0  0  0  0  0  0
   -3.3139    1.2035   -5.1867 C   0  0  0  0  0  0  0  0  0  0  0  0
   -3.1015   -0.0937   -5.6948 C   0  0  0  0  0  0  0  0  0  0  0  0
   -1.7870   -1.4207   -6.7833 H   0  0  0  0  0  0  0  0  0  0  0  0
    0.0085    0.3780   -7.1653 H   0  0  0  0  0  0  0  0  0  0  0  0
   -2.4745    3.2160   -5.0183 H   0  0  0  0  0  0  0  0  0  0  0  0
   -4.2069    1.4575   -4.6228 H   0  0  0  0  0  0  0  0  0  0  0  0
   -0.0785    3.0781   -6.4229 N   0  0  0  0  0  0  0  0  0  0  0  0
    0.4369    4.0193   -6.6810 N   0  0  0  0  0  0  0  0  0  0  0  0
    2.5785    1.0771   -6.2607 S   0  0  0  0  0  0  0  0  0  0  0  0
    2.9468   -0.6583   -5.5890 C   0  0  0  0  0  0  0  0  0  0  0  0
    1.8604    0.7938   -7.5642 O   0  0  0  0  0  0  0  0  0  0  0  0
    3.9064    1.7314   -6.3760 O   0  0  0  0  0  0  0  0  0  0  0  0
    1.6421    1.6468   -5.2143 O   0  0  0  0  0  0  0  0  0  0  0  0
    1.7976   -1.3672   -5.4676 F   0  0  0  0  0  0  0  0  0  0  0  0
    3.7631   -1.3284   -6.4188 F   0  0  0  0  0  0  0  0  0  0  0  0
    3.5253   -0.5921   -4.3786 F   0  0  0  0  0  0  0  0  0  0  0  0
   -3.9680   -1.1174   -5.5357 O   0  0  0  0  0  0  0  0  0  0  0  0
   -5.1681   -0.9011   -4.7873 C   0  0  0  0  0  0  0  0  0  0  0  0
   -5.6901   -1.8614   -4.7895 H   0  0  0  0  0  0  0  0  0  0  0  0
   -5.7978   -0.1377   -5.2673 H   0  0  0  0  0  0  0  0  0  0  0  0
   -4.9374   -0.6083   -3.7528 H   0  0  0  0  0  0  0  0  0  0  0  0
  1  6  1  0  0  0  0
  2  1  2  0  0  0  0
  2  3  1  0  0  0  0
  3  4  2  0  0  0  0
  4  5  1  0  0  0  0
  4  9  1  0  0  0  0
  5 10  1  0  0  0  0
  6 21  1  0  0  0  0
  6  5  2  0  0  0  0
  7  1  1  0  0  0  0
  8  2  1  0  0  0  0
 11  3  1  0  0  0  0
 12 11  1  0  0  0  0
 13 14  1  0  0  0  0
 13 17  1  0  0  0  0
 14 18  1  0  0  0  0
 14 20  1  0  0  0  0
 15 13  2  0  0  0  0
 16 13  2  0  0  0  0
 19 14  1  0  0  0  0
 21 22  1  0  0  0  0
 22 25  1  0  0  0  0
 23 22  1  0  0  0  0
 24 22  1  0  0  0  0
M  RAD  3  11   2  12   3  17   2
M  END
