Coordinates from ORCA-job p-CH3O-Ph-N2-OTf-B3LYPG-aug-cc-pVDZ-scan-d29-49-n200
 OpenBabel01151817073D

 25 24  0  0  0  0  0  0  0  0999 V2000
   -2.2222   -0.0304   -7.3035 C   0  0  0  0  0  0  0  0  0  0  0  0
   -0.9078    0.4200   -7.3373 C   0  0  0  0  0  0  0  0  0  0  0  0
   -0.3118    0.8679   -6.1557 C   0  0  0  0  0  0  0  0  0  0  0  0
   -1.0112    0.8822   -4.9554 C   0  0  0  0  0  0  0  0  0  0  0  0
   -2.3379    0.4375   -4.9212 C   0  0  0  0  0  0  0  0  0  0  0  0
   -2.9453   -0.0259   -6.0975 C   0  0  0  0  0  0  0  0  0  0  0  0
   -2.7125   -0.3882   -8.2076 H   0  0  0  0  0  0  0  0  0  0  0  0
   -0.3465    0.4281   -8.2694 H   0  0  0  0  0  0  0  0  0  0  0  0
   -0.5312    1.2541   -4.0519 H   0  0  0  0  0  0  0  0  0  0  0  0
   -2.8766    0.4601   -3.9776 H   0  0  0  0  0  0  0  0  0  0  0  0
   -1.1861    3.9706   -6.8714 N   0  0  0  0  0  0  0  0  0  0  0  0
   -2.1979    4.4120   -6.8384 N   0  0  0  0  0  0  0  0  0  0  0  0
    2.3151    0.4329   -6.3701 S   0  0  0  0  0  0  0  0  0  0  0  0
    2.7544    0.1122   -4.5440 C   0  0  0  0  0  0  0  0  0  0  0  0
    1.9355   -0.8628   -6.9577 O   0  0  0  0  0  0  0  0  0  0  0  0
    3.3739    1.2942   -6.9104 O   0  0  0  0  0  0  0  0  0  0  0  0
    0.9856    1.4254   -6.1818 O   0  0  0  0  0  0  0  0  0  0  0  0
    1.7745   -0.5817   -3.9539 F   0  0  0  0  0  0  0  0  0  0  0  0
    3.8875   -0.5933   -4.5051 F   0  0  0  0  0  0  0  0  0  0  0  0
    2.9251    1.2735   -3.9085 F   0  0  0  0  0  0  0  0  0  0  0  0
   -4.2264   -0.4847   -6.1763 O   0  0  0  0  0  0  0  0  0  0  0  0
   -5.0125   -0.5035   -4.9878 C   0  0  0  0  0  0  0  0  0  0  0  0
   -5.9865   -0.9043   -5.2834 H   0  0  0  0  0  0  0  0  0  0  0  0
   -5.1416    0.5107   -4.5801 H   0  0  0  0  0  0  0  0  0  0  0  0
   -4.5633   -1.1564   -4.2240 H   0  0  0  0  0  0  0  0  0  0  0  0
  1  6  1  0  0  0  0
  2  1  2  0  0  0  0
  2  3  1  0  0  0  0
  3  4  2  0  0  0  0
  4  5  1  0  0  0  0
  4  9  1  0  0  0  0
  5 10  1  0  0  0  0
  6  5  2  0  0  0  0
  7  1  1  0  0  0  0
  8  2  1  0  0  0  0
 11 12  3  0  0  0  0
 13 17  1  0  0  0  0
 13 14  1  0  0  0  0
 14 19  1  0  0  0  0
 14 18  1  0  0  0  0
 14 20  1  0  0  0  0
 15 13  2  0  0  0  0
 16 13  2  0  0  0  0
 17  3  1  0  0  0  0
 21  6  1  0  0  0  0
 21 22  1  0  0  0  0
 22 24  1  0  0  0  0
 22 25  1  0  0  0  0
 23 22  1  0  0  0  0
M  END
