Coordinates from ORCA-job p-CH3O-Ph-N2-OTf-B3LYPG-aug-cc-pVDZ-scan-d29-49-n200
 OpenBabel01151817073D

 25 24  0  0  0  0  0  0  0  0999 V2000
   -2.1425   -0.0694   -7.2926 C   0  0  0  0  0  0  0  0  0  0  0  0
   -0.8139    0.3381   -7.3158 C   0  0  0  0  0  0  0  0  0  0  0  0
   -0.2101    0.7591   -6.1280 C   0  0  0  0  0  0  0  0  0  0  0  0
   -0.9179    0.7939   -4.9326 C   0  0  0  0  0  0  0  0  0  0  0  0
   -2.2581    0.3916   -4.9087 C   0  0  0  0  0  0  0  0  0  0  0  0
   -2.8719   -0.0483   -6.0907 C   0  0  0  0  0  0  0  0  0  0  0  0
   -2.6386   -0.4064   -8.2015 H   0  0  0  0  0  0  0  0  0  0  0  0
   -0.2471    0.3333   -8.2447 H   0  0  0  0  0  0  0  0  0  0  0  0
   -0.4328    1.1482   -4.0247 H   0  0  0  0  0  0  0  0  0  0  0  0
   -2.8022    0.4285   -3.9686 H   0  0  0  0  0  0  0  0  0  0  0  0
   -2.0479    5.0824   -7.2051 N   0  0  0  0  0  0  0  0  0  0  0  0
   -3.1374    5.2079   -7.0751 N   0  0  0  0  0  0  0  0  0  0  0  0
    2.4051    0.2452   -6.3178 S   0  0  0  0  0  0  0  0  0  0  0  0
    2.8292   -0.0637   -4.4861 C   0  0  0  0  0  0  0  0  0  0  0  0
    1.9887   -1.0459   -6.8901 O   0  0  0  0  0  0  0  0  0  0  0  0
    3.4900    1.0687   -6.8656 O   0  0  0  0  0  0  0  0  0  0  0  0
    1.1032    1.2786   -6.1462 O   0  0  0  0  0  0  0  0  0  0  0  0
    1.8276   -0.7209   -3.8905 F   0  0  0  0  0  0  0  0  0  0  0  0
    3.9411   -0.8012   -4.4341 F   0  0  0  0  0  0  0  0  0  0  0  0
    3.0314    1.1006   -3.8658 F   0  0  0  0  0  0  0  0  0  0  0  0
   -4.1661   -0.4674   -6.1789 O   0  0  0  0  0  0  0  0  0  0  0  0
   -4.9590   -0.4694   -4.9948 C   0  0  0  0  0  0  0  0  0  0  0  0
   -5.9422   -0.8414   -5.2974 H   0  0  0  0  0  0  0  0  0  0  0  0
   -5.0619    0.5462   -4.5831 H   0  0  0  0  0  0  0  0  0  0  0  0
   -4.5324   -1.1380   -4.2316 H   0  0  0  0  0  0  0  0  0  0  0  0
  1  6  1  0  0  0  0
  2  1  2  0  0  0  0
  2  3  1  0  0  0  0
  3  4  2  0  0  0  0
  4  5  1  0  0  0  0
  4  9  1  0  0  0  0
  5 10  1  0  0  0  0
  6  5  2  0  0  0  0
  7  1  1  0  0  0  0
  8  2  1  0  0  0  0
 11 12  3  0  0  0  0
 13 17  1  0  0  0  0
 13 14  1  0  0  0  0
 14 19  1  0  0  0  0
 14 18  1  0  0  0  0
 14 20  1  0  0  0  0
 15 13  2  0  0  0  0
 16 13  2  0  0  0  0
 17  3  1  0  0  0  0
 21  6  1  0  0  0  0
 21 22  1  0  0  0  0
 22 24  1  0  0  0  0
 22 25  1  0  0  0  0
 23 22  1  0  0  0  0
M  END
