Coordinates from ORCA-job p-CH3O-Ph-N2-OTf-B3LYPG-aug-cc-pVDZ-scan-d29-49-n200
 OpenBabel01151817073D

 25 24  0  0  0  0  0  0  0  0999 V2000
   -2.1532   -0.0656   -7.2931 C   0  0  0  0  0  0  0  0  0  0  0  0
   -0.8267    0.3486   -7.3180 C   0  0  0  0  0  0  0  0  0  0  0  0
   -0.2239    0.7735   -6.1311 C   0  0  0  0  0  0  0  0  0  0  0  0
   -0.9306    0.8058   -4.9351 C   0  0  0  0  0  0  0  0  0  0  0  0
   -2.2689    0.3968   -4.9095 C   0  0  0  0  0  0  0  0  0  0  0  0
   -2.8816   -0.0470   -6.0905 C   0  0  0  0  0  0  0  0  0  0  0  0
   -2.6485   -0.4059   -8.2012 H   0  0  0  0  0  0  0  0  0  0  0  0
   -0.2608    0.3459   -8.2475 H   0  0  0  0  0  0  0  0  0  0  0  0
   -0.4463    1.1631   -4.0279 H   0  0  0  0  0  0  0  0  0  0  0  0
   -2.8122    0.4316   -3.9689 H   0  0  0  0  0  0  0  0  0  0  0  0
   -1.9270    4.9404   -7.1644 N   0  0  0  0  0  0  0  0  0  0  0  0
   -3.0118    5.1143   -7.0508 N   0  0  0  0  0  0  0  0  0  0  0  0
    2.3932    0.2716   -6.3250 S   0  0  0  0  0  0  0  0  0  0  0  0
    2.8181   -0.0421   -4.4942 C   0  0  0  0  0  0  0  0  0  0  0  0
    1.9825   -1.0193   -6.9019 O   0  0  0  0  0  0  0  0  0  0  0  0
    3.4748    1.1015   -6.8695 O   0  0  0  0  0  0  0  0  0  0  0  0
    1.0871    1.2990   -6.1505 O   0  0  0  0  0  0  0  0  0  0  0  0
    1.8194   -0.7061   -3.9014 F   0  0  0  0  0  0  0  0  0  0  0  0
    3.9334   -0.7746   -4.4445 F   0  0  0  0  0  0  0  0  0  0  0  0
    3.0147    1.1208   -3.8695 F   0  0  0  0  0  0  0  0  0  0  0  0
   -4.1739   -0.4722   -6.1773 O   0  0  0  0  0  0  0  0  0  0  0  0
   -4.9660   -0.4759   -4.9927 C   0  0  0  0  0  0  0  0  0  0  0  0
   -5.9483   -0.8512   -5.2945 H   0  0  0  0  0  0  0  0  0  0  0  0
   -5.0719    0.5396   -4.5816 H   0  0  0  0  0  0  0  0  0  0  0  0
   -4.5369   -1.1427   -4.2294 H   0  0  0  0  0  0  0  0  0  0  0  0
  1  6  1  0  0  0  0
  2  1  2  0  0  0  0
  2  3  1  0  0  0  0
  3  4  2  0  0  0  0
  4  5  1  0  0  0  0
  4  9  1  0  0  0  0
  5 10  1  0  0  0  0
  6  5  2  0  0  0  0
  7  1  1  0  0  0  0
  8  2  1  0  0  0  0
 11 12  3  0  0  0  0
 13 17  1  0  0  0  0
 13 14  1  0  0  0  0
 14 19  1  0  0  0  0
 14 18  1  0  0  0  0
 14 20  1  0  0  0  0
 15 13  2  0  0  0  0
 16 13  2  0  0  0  0
 17  3  1  0  0  0  0
 21  6  1  0  0  0  0
 21 22  1  0  0  0  0
 22 24  1  0  0  0  0
 22 25  1  0  0  0  0
 23 22  1  0  0  0  0
M  END
