Coordinates from ORCA-job p-CH3O-Ph-N2-OTf-B3LYPG-aug-cc-pVDZ-scan-d09-29-n200
 OpenBabel01151817073D

 25 24  0  0  0  0  0  0  0  0999 V2000
   -2.3274    0.0917   -7.2812 C   0  0  0  0  0  0  0  0  0  0  0  0
   -1.0169    0.5531   -7.3184 C   0  0  0  0  0  0  0  0  0  0  0  0
   -0.3982    0.9333   -6.1274 C   0  0  0  0  0  0  0  0  0  0  0  0
   -1.0590    0.8499   -4.9107 C   0  0  0  0  0  0  0  0  0  0  0  0
   -2.3822    0.3950   -4.8707 C   0  0  0  0  0  0  0  0  0  0  0  0
   -3.0194    0.0115   -6.0598 C   0  0  0  0  0  0  0  0  0  0  0  0
   -2.8387   -0.2103   -8.1939 H   0  0  0  0  0  0  0  0  0  0  0  0
   -0.4807    0.6281   -8.2619 H   0  0  0  0  0  0  0  0  0  0  0  0
   -0.5555    1.1633   -3.9978 H   0  0  0  0  0  0  0  0  0  0  0  0
   -2.8940    0.3455   -3.9133 H   0  0  0  0  0  0  0  0  0  0  0  0
   -0.9671    3.6394   -6.5641 N   0  0  0  0  0  0  0  0  0  0  0  0
   -0.7476    4.6995   -6.7829 N   0  0  0  0  0  0  0  0  0  0  0  0
    2.2259    0.5406   -6.4654 S   0  0  0  0  0  0  0  0  0  0  0  0
    2.6711   -0.0330   -4.7028 C   0  0  0  0  0  0  0  0  0  0  0  0
    1.8507   -0.6613   -7.2282 O   0  0  0  0  0  0  0  0  0  0  0  0
    3.2802    1.4735   -6.8825 O   0  0  0  0  0  0  0  0  0  0  0  0
    0.8974    1.4983   -6.1427 O   0  0  0  0  0  0  0  0  0  0  0  0
    1.7088   -0.8279   -4.2233 F   0  0  0  0  0  0  0  0  0  0  0  0
    3.8210   -0.7091   -4.7639 F   0  0  0  0  0  0  0  0  0  0  0  0
    2.8146    1.0277   -3.9047 F   0  0  0  0  0  0  0  0  0  0  0  0
   -4.3009   -0.4479   -6.1365 O   0  0  0  0  0  0  0  0  0  0  0  0
   -5.0545   -0.5520   -4.9317 C   0  0  0  0  0  0  0  0  0  0  0  0
   -6.0354   -0.9353   -5.2279 H   0  0  0  0  0  0  0  0  0  0  0  0
   -5.1745    0.4310   -4.4512 H   0  0  0  0  0  0  0  0  0  0  0  0
   -4.5835   -1.2543   -4.2271 H   0  0  0  0  0  0  0  0  0  0  0  0
  1  6  1  0  0  0  0
  2  1  2  0  0  0  0
  2  3  1  0  0  0  0
  3  4  2  0  0  0  0
  4  5  1  0  0  0  0
  4  9  1  0  0  0  0
  5 10  1  0  0  0  0
  6  5  2  0  0  0  0
  7  1  1  0  0  0  0
  8  2  1  0  0  0  0
 12 11  3  0  0  0  0
 13 17  1  0  0  0  0
 13 14  1  0  0  0  0
 14 18  1  0  0  0  0
 14 20  1  0  0  0  0
 15 13  2  0  0  0  0
 16 13  2  0  0  0  0
 17  3  1  0  0  0  0
 19 14  1  0  0  0  0
 21  6  1  0  0  0  0
 21 22  1  0  0  0  0
 22 24  1  0  0  0  0
 22 25  1  0  0  0  0
 23 22  1  0  0  0  0
M  END
