Coordinates from ORCA-job p-CH3O-Ph-N2-OTf-B3LYPG-aug-cc-pVDZ-scan-d09-29-n200
 OpenBabel01151817073D

 25 23  0  0  0  0  0  0  0  0999 V2000
   -1.9017   -0.3411   -6.3290 C   0  0  0  0  0  0  0  0  0  0  0  0
   -0.9274    0.6734   -6.4899 C   0  0  0  0  0  0  0  0  0  0  0  0
   -1.4121    1.7818   -5.9503 C   0  0  0  0  0  0  0  0  0  0  0  0
   -2.4963    2.2530   -5.3026 C   0  0  0  0  0  0  0  0  0  0  0  0
   -3.4283    1.1939   -5.1702 C   0  0  0  0  0  0  0  0  0  0  0  0
   -3.1302   -0.0864   -5.6816 C   0  0  0  0  0  0  0  0  0  0  0  0
   -1.6800   -1.3416   -6.6998 H   0  0  0  0  0  0  0  0  0  0  0  0
    0.1083    0.4906   -6.9534 H   0  0  0  0  0  0  0  0  0  0  0  0
   -2.6671    3.2581   -4.9326 H   0  0  0  0  0  0  0  0  0  0  0  0
   -4.3668    1.4131   -4.6674 H   0  0  0  0  0  0  0  0  0  0  0  0
   -0.0287    3.5945   -6.2274 N   0  0  0  0  0  0  0  0  0  0  0  0
    0.5584    4.5145   -6.3843 N   0  0  0  0  0  0  0  0  0  0  0  0
    2.5761    0.8628   -6.4740 S   0  0  0  0  0  0  0  0  0  0  0  0
    3.0969   -0.7041   -5.5429 C   0  0  0  0  0  0  0  0  0  0  0  0
    1.5829    0.3060   -7.5037 O   0  0  0  0  0  0  0  0  0  0  0  0
    3.8269    1.3950   -7.0650 O   0  0  0  0  0  0  0  0  0  0  0  0
    1.8880    1.6882   -5.4259 O   0  0  0  0  0  0  0  0  0  0  0  0
    2.0128   -1.3097   -5.0076 F   0  0  0  0  0  0  0  0  0  0  0  0
    3.6994   -1.5737   -6.3695 F   0  0  0  0  0  0  0  0  0  0  0  0
    3.9439   -0.3988   -4.5467 F   0  0  0  0  0  0  0  0  0  0  0  0
   -3.9662   -1.1476   -5.5956 O   0  0  0  0  0  0  0  0  0  0  0  0
   -5.2228   -0.9824   -4.9344 C   0  0  0  0  0  0  0  0  0  0  0  0
   -5.7099   -1.9598   -4.9823 H   0  0  0  0  0  0  0  0  0  0  0  0
   -5.8439   -0.2357   -5.4513 H   0  0  0  0  0  0  0  0  0  0  0  0
   -5.0781   -0.6938   -3.8828 H   0  0  0  0  0  0  0  0  0  0  0  0
  1  6  1  0  0  0  0
  2  1  2  0  0  0  0
  2  3  1  0  0  0  0
  3  4  2  0  0  0  0
  4  5  1  0  0  0  0
  4  9  1  0  0  0  0
  5 10  1  0  0  0  0
  6 21  1  0  0  0  0
  6  5  2  0  0  0  0
  7  1  1  0  0  0  0
  8  2  1  0  0  0  0
 12 11  3  0  0  0  0
 13 14  1  0  0  0  0
 13 17  1  0  0  0  0
 14 18  1  0  0  0  0
 14 20  1  0  0  0  0
 15 13  2  0  0  0  0
 16 13  2  0  0  0  0
 19 14  1  0  0  0  0
 21 22  1  0  0  0  0
 22 25  1  0  0  0  0
 23 22  1  0  0  0  0
 24 22  1  0  0  0  0
M  RAD  2   3   2  17   2
M  END
