Coordinates from ORCA-job p-CH3O-Ph-N2-OTf-B3LYPG-aug-cc-pVDZ-scan-d29-49-n200
 OpenBabel01151817073D

 25 24  0  0  0  0  0  0  0  0999 V2000
   -2.1386   -0.0709   -7.2922 C   0  0  0  0  0  0  0  0  0  0  0  0
   -0.8093    0.3345   -7.3148 C   0  0  0  0  0  0  0  0  0  0  0  0
   -0.2052    0.7544   -6.1268 C   0  0  0  0  0  0  0  0  0  0  0  0
   -0.9134    0.7903   -4.9317 C   0  0  0  0  0  0  0  0  0  0  0  0
   -2.2543    0.3901   -4.9083 C   0  0  0  0  0  0  0  0  0  0  0  0
   -2.8684   -0.0487   -6.0905 C   0  0  0  0  0  0  0  0  0  0  0  0
   -2.6348   -0.4070   -8.2013 H   0  0  0  0  0  0  0  0  0  0  0  0
   -0.2422    0.3290   -8.2436 H   0  0  0  0  0  0  0  0  0  0  0  0
   -0.4281    1.1438   -4.0235 H   0  0  0  0  0  0  0  0  0  0  0  0
   -2.7987    0.4278   -3.9684 H   0  0  0  0  0  0  0  0  0  0  0  0
   -2.0905    5.1319   -7.2200 N   0  0  0  0  0  0  0  0  0  0  0  0
   -3.1813    5.2398   -7.0841 N   0  0  0  0  0  0  0  0  0  0  0  0
    2.4093    0.2364   -6.3154 S   0  0  0  0  0  0  0  0  0  0  0  0
    2.8327   -0.0719   -4.4834 C   0  0  0  0  0  0  0  0  0  0  0  0
    1.9909   -1.0545   -6.8869 O   0  0  0  0  0  0  0  0  0  0  0  0
    3.4955    1.0578   -6.8636 O   0  0  0  0  0  0  0  0  0  0  0  0
    1.1089    1.2719   -6.1446 O   0  0  0  0  0  0  0  0  0  0  0  0
    1.8300   -0.7271   -3.8874 F   0  0  0  0  0  0  0  0  0  0  0  0
    3.9434   -0.8112   -4.4308 F   0  0  0  0  0  0  0  0  0  0  0  0
    3.0367    1.0925   -3.8639 F   0  0  0  0  0  0  0  0  0  0  0  0
   -4.1632   -0.4658   -6.1793 O   0  0  0  0  0  0  0  0  0  0  0  0
   -4.9563   -0.4671   -4.9953 C   0  0  0  0  0  0  0  0  0  0  0  0
   -5.9399   -0.8379   -5.2983 H   0  0  0  0  0  0  0  0  0  0  0  0
   -5.0581    0.5485   -4.5834 H   0  0  0  0  0  0  0  0  0  0  0  0
   -4.5307   -1.1365   -4.2323 H   0  0  0  0  0  0  0  0  0  0  0  0
  1  6  1  0  0  0  0
  2  1  2  0  0  0  0
  2  3  1  0  0  0  0
  3  4  2  0  0  0  0
  4  5  1  0  0  0  0
  4  9  1  0  0  0  0
  5 10  1  0  0  0  0
  6  5  2  0  0  0  0
  7  1  1  0  0  0  0
  8  2  1  0  0  0  0
 11 12  3  0  0  0  0
 13 17  1  0  0  0  0
 13 14  1  0  0  0  0
 14 19  1  0  0  0  0
 14 18  1  0  0  0  0
 14 20  1  0  0  0  0
 15 13  2  0  0  0  0
 16 13  2  0  0  0  0
 17  3  1  0  0  0  0
 21  6  1  0  0  0  0
 21 22  1  0  0  0  0
 22 24  1  0  0  0  0
 22 25  1  0  0  0  0
 23 22  1  0  0  0  0
M  END
