Coordinates from ORCA-job p-CH3O-Ph-N2-OTf-B3LYPG-aug-cc-pVDZ-scan-d29-49-n200
 OpenBabel01151817073D

 25 24  0  0  0  0  0  0  0  0999 V2000
   -2.1506   -0.0668   -7.2930 C   0  0  0  0  0  0  0  0  0  0  0  0
   -0.8236    0.3457   -7.3175 C   0  0  0  0  0  0  0  0  0  0  0  0
   -0.2205    0.7695   -6.1303 C   0  0  0  0  0  0  0  0  0  0  0  0
   -0.9274    0.8023   -4.9344 C   0  0  0  0  0  0  0  0  0  0  0  0
   -2.2662    0.3950   -4.9092 C   0  0  0  0  0  0  0  0  0  0  0  0
   -2.8792   -0.0476   -6.0906 C   0  0  0  0  0  0  0  0  0  0  0  0
   -2.6461   -0.4061   -8.2014 H   0  0  0  0  0  0  0  0  0  0  0  0
   -0.2575    0.3425   -8.2468 H   0  0  0  0  0  0  0  0  0  0  0  0
   -0.4429    1.1587   -4.0270 H   0  0  0  0  0  0  0  0  0  0  0  0
   -2.8096    0.4302   -3.9688 H   0  0  0  0  0  0  0  0  0  0  0  0
   -1.9572    4.9758   -7.1741 N   0  0  0  0  0  0  0  0  0  0  0  0
   -3.0433    5.1378   -7.0564 N   0  0  0  0  0  0  0  0  0  0  0  0
    2.3963    0.2650   -6.3232 S   0  0  0  0  0  0  0  0  0  0  0  0
    2.8212   -0.0470   -4.4921 C   0  0  0  0  0  0  0  0  0  0  0  0
    1.9843   -1.0262   -6.8986 O   0  0  0  0  0  0  0  0  0  0  0  0
    3.4785    1.0934   -6.8688 O   0  0  0  0  0  0  0  0  0  0  0  0
    1.0910    1.2937   -6.1495 O   0  0  0  0  0  0  0  0  0  0  0  0
    1.8220   -0.7094   -3.8983 F   0  0  0  0  0  0  0  0  0  0  0  0
    3.9358   -0.7805   -4.4418 F   0  0  0  0  0  0  0  0  0  0  0  0
    3.0191    1.1164   -3.8688 F   0  0  0  0  0  0  0  0  0  0  0  0
   -4.1721   -0.4709   -6.1779 O   0  0  0  0  0  0  0  0  0  0  0  0
   -4.9646   -0.4738   -4.9934 C   0  0  0  0  0  0  0  0  0  0  0  0
   -5.9473   -0.8476   -5.2956 H   0  0  0  0  0  0  0  0  0  0  0  0
   -5.0691    0.5417   -4.5820 H   0  0  0  0  0  0  0  0  0  0  0  0
   -4.5366   -1.1415   -4.2302 H   0  0  0  0  0  0  0  0  0  0  0  0
  1  6  1  0  0  0  0
  2  1  2  0  0  0  0
  2  3  1  0  0  0  0
  3  4  2  0  0  0  0
  4  5  1  0  0  0  0
  4  9  1  0  0  0  0
  5 10  1  0  0  0  0
  6  5  2  0  0  0  0
  7  1  1  0  0  0  0
  8  2  1  0  0  0  0
 11 12  3  0  0  0  0
 13 17  1  0  0  0  0
 13 14  1  0  0  0  0
 14 19  1  0  0  0  0
 14 18  1  0  0  0  0
 14 20  1  0  0  0  0
 15 13  2  0  0  0  0
 16 13  2  0  0  0  0
 17  3  1  0  0  0  0
 21  6  1  0  0  0  0
 21 22  1  0  0  0  0
 22 24  1  0  0  0  0
 22 25  1  0  0  0  0
 23 22  1  0  0  0  0
M  END
