Coordinates from ORCA-job p-CH3O-Ph-N2-OTf-B3LYPG-aug-cc-pVDZ-scan-d09-29-n200
 OpenBabel01151817073D

 25 24  0  0  0  0  0  0  0  0999 V2000
   -1.7832   -0.2997   -6.4630 C   0  0  0  0  0  0  0  0  0  0  0  0
   -0.9139    0.7020   -6.8083 C   0  0  0  0  0  0  0  0  0  0  0  0
   -1.1928    2.0635   -6.4094 C   0  0  0  0  0  0  0  0  0  0  0  0
   -2.3724    2.3263   -5.6307 C   0  0  0  0  0  0  0  0  0  0  0  0
   -3.2242    1.3078   -5.2817 C   0  0  0  0  0  0  0  0  0  0  0  0
   -2.9368   -0.0209   -5.6950 C   0  0  0  0  0  0  0  0  0  0  0  0
   -1.5768   -1.3303   -6.7449 H   0  0  0  0  0  0  0  0  0  0  0  0
    0.0167    0.5306   -7.3537 H   0  0  0  0  0  0  0  0  0  0  0  0
   -2.5684    3.3513   -5.3175 H   0  0  0  0  0  0  0  0  0  0  0  0
   -4.1044    1.5337   -4.6868 H   0  0  0  0  0  0  0  0  0  0  0  0
   -0.4814    2.9018   -6.6755 N   0  0  0  0  0  0  0  0  0  0  0  0
    0.2297    3.7392   -6.9452 N   0  0  0  0  0  0  0  0  0  0  0  0
    2.3971    1.0424   -5.8981 S   0  0  0  0  0  0  0  0  0  0  0  0
    2.7336   -0.8147   -5.6959 C   0  0  0  0  0  0  0  0  0  0  0  0
    2.0066    1.1512   -7.3565 O   0  0  0  0  0  0  0  0  0  0  0  0
    3.6721    1.6962   -5.5069 O   0  0  0  0  0  0  0  0  0  0  0  0
    1.2182    1.2645   -4.9771 O   0  0  0  0  0  0  0  0  0  0  0  0
    1.6326   -1.5340   -6.0449 F   0  0  0  0  0  0  0  0  0  0  0  0
    3.7491   -1.2140   -6.4795 F   0  0  0  0  0  0  0  0  0  0  0  0
    3.0334   -1.1187   -4.4210 F   0  0  0  0  0  0  0  0  0  0  0  0
   -3.7012   -1.0702   -5.3995 O   0  0  0  0  0  0  0  0  0  0  0  0
   -4.8807   -0.9023   -4.5917 C   0  0  0  0  0  0  0  0  0  0  0  0
   -5.3034   -1.9048   -4.4937 H   0  0  0  0  0  0  0  0  0  0  0  0
   -5.6000   -0.2407   -5.0925 H   0  0  0  0  0  0  0  0  0  0  0  0
   -4.6151   -0.5100   -3.6014 H   0  0  0  0  0  0  0  0  0  0  0  0
  1  6  1  0  0  0  0
  2  1  2  0  0  0  0
  2  3  1  0  0  0  0
  3  4  2  0  0  0  0
  4  9  1  0  0  0  0
  4  5  1  0  0  0  0
  5 10  1  0  0  0  0
  6 21  1  0  0  0  0
  6  5  2  0  0  0  0
  7  1  1  0  0  0  0
  8  2  1  0  0  0  0
 11  3  1  0  0  0  0
 12 11  1  0  0  0  0
 13 14  1  0  0  0  0
 13 16  2  0  0  0  0
 13 17  1  0  0  0  0
 14 20  1  0  0  0  0
 15 13  2  0  0  0  0
 18 14  1  0  0  0  0
 19 14  1  0  0  0  0
 21 22  1  0  0  0  0
 22 23  1  0  0  0  0
 22 25  1  0  0  0  0
 24 22  1  0  0  0  0
M  RAD  3  11   2  12   3  17   2
M  END
