Coordinates from ORCA-job p-CH3O-Ph-N2-OTf-B3LYPG-aug-cc-pVDZ-scan-d09-29-n200
 OpenBabel01151817073D

 25 24  0  0  0  0  0  0  0  0999 V2000
   -1.7202   -0.1933   -6.5296 C   0  0  0  0  0  0  0  0  0  0  0  0
   -0.9038    0.8523   -6.8699 C   0  0  0  0  0  0  0  0  0  0  0  0
   -1.2251    2.2021   -6.4312 C   0  0  0  0  0  0  0  0  0  0  0  0
   -2.4011    2.3826   -5.6089 C   0  0  0  0  0  0  0  0  0  0  0  0
   -3.1939    1.3203   -5.2646 C   0  0  0  0  0  0  0  0  0  0  0  0
   -2.8607    0.0143   -5.7225 C   0  0  0  0  0  0  0  0  0  0  0  0
   -1.4748   -1.2061   -6.8433 H   0  0  0  0  0  0  0  0  0  0  0  0
    0.0206    0.7306   -7.4435 H   0  0  0  0  0  0  0  0  0  0  0  0
   -2.6317    3.3906   -5.2645 H   0  0  0  0  0  0  0  0  0  0  0  0
   -4.0656    1.4909   -4.6395 H   0  0  0  0  0  0  0  0  0  0  0  0
   -0.5847    3.0354   -6.6837 N   0  0  0  0  0  0  0  0  0  0  0  0
    0.0924    3.9099   -6.9487 N   0  0  0  0  0  0  0  0  0  0  0  0
    2.3686    0.9387   -5.9770 S   0  0  0  0  0  0  0  0  0  0  0  0
    2.5928   -0.9024   -5.5748 C   0  0  0  0  0  0  0  0  0  0  0  0
    2.0349    0.9191   -7.4511 O   0  0  0  0  0  0  0  0  0  0  0  0
    3.6613    1.5631   -5.5967 O   0  0  0  0  0  0  0  0  0  0  0  0
    1.1719    1.3107   -5.1263 O   0  0  0  0  0  0  0  0  0  0  0  0
    1.4632   -1.5938   -5.8850 F   0  0  0  0  0  0  0  0  0  0  0  0
    3.6058   -1.4346   -6.2784 F   0  0  0  0  0  0  0  0  0  0  0  0
    2.8390   -1.0882   -4.2656 F   0  0  0  0  0  0  0  0  0  0  0  0
   -3.5706   -1.0720   -5.4335 O   0  0  0  0  0  0  0  0  0  0  0  0
   -4.7316   -0.9789   -4.5862 C   0  0  0  0  0  0  0  0  0  0  0  0
   -5.1058   -2.0018   -4.5044 H   0  0  0  0  0  0  0  0  0  0  0  0
   -5.4940   -0.3373   -5.0472 H   0  0  0  0  0  0  0  0  0  0  0  0
   -4.4523   -0.6020   -3.5939 H   0  0  0  0  0  0  0  0  0  0  0  0
  1  6  1  0  0  0  0
  2  1  2  0  0  0  0
  2  3  1  0  0  0  0
  3  4  2  0  0  0  0
  4  5  1  0  0  0  0
  4  9  1  0  0  0  0
  5 10  1  0  0  0  0
  6 21  1  0  0  0  0
  6  5  2  0  0  0  0
  7  1  1  0  0  0  0
  8  2  1  0  0  0  0
 11  3  1  0  0  0  0
 12 11  1  0  0  0  0
 13 16  2  0  0  0  0
 13 14  1  0  0  0  0
 13 17  1  0  0  0  0
 14 20  1  0  0  0  0
 15 13  2  0  0  0  0
 18 14  1  0  0  0  0
 19 14  1  0  0  0  0
 21 22  1  0  0  0  0
 22 23  1  0  0  0  0
 22 25  1  0  0  0  0
 24 22  1  0  0  0  0
M  RAD  3  11   2  12   3  17   2
M  END
