Coordinates from ORCA-job p-CH3O-Ph-N2-OTf-B3LYPG-aug-cc-pVDZ-scan-d09-29-n200
 OpenBabel01151817073D

 25 24  0  0  0  0  0  0  0  0999 V2000
   -1.9118   -0.4312   -6.4230 C   0  0  0  0  0  0  0  0  0  0  0  0
   -0.9406    0.5261   -6.6884 C   0  0  0  0  0  0  0  0  0  0  0  0
   -1.2337    1.7814   -6.1945 C   0  0  0  0  0  0  0  0  0  0  0  0
   -2.3282    2.1985   -5.4667 C   0  0  0  0  0  0  0  0  0  0  0  0
   -3.2814    1.2077   -5.2142 C   0  0  0  0  0  0  0  0  0  0  0  0
   -3.0752   -0.1029   -5.6923 C   0  0  0  0  0  0  0  0  0  0  0  0
   -1.7756   -1.4563   -6.7624 H   0  0  0  0  0  0  0  0  0  0  0  0
    0.0022    0.3346   -7.2077 H   0  0  0  0  0  0  0  0  0  0  0  0
   -2.4485    3.2163   -5.1055 H   0  0  0  0  0  0  0  0  0  0  0  0
   -4.1676    1.4721   -4.6448 H   0  0  0  0  0  0  0  0  0  0  0  0
   -0.1243    2.9807   -6.5093 N   0  0  0  0  0  0  0  0  0  0  0  0
    0.4469    3.8907   -6.7646 N   0  0  0  0  0  0  0  0  0  0  0  0
    2.5729    1.1534   -6.1338 S   0  0  0  0  0  0  0  0  0  0  0  0
    2.8614   -0.6557   -5.6386 C   0  0  0  0  0  0  0  0  0  0  0  0
    1.8988    1.0331   -7.4861 O   0  0  0  0  0  0  0  0  0  0  0  0
    3.9271    1.7631   -6.1308 O   0  0  0  0  0  0  0  0  0  0  0  0
    1.6132    1.6482   -5.0732 O   0  0  0  0  0  0  0  0  0  0  0  0
    1.6876   -1.3378   -5.6413 F   0  0  0  0  0  0  0  0  0  0  0  0
    3.6935   -1.2620   -6.5012 F   0  0  0  0  0  0  0  0  0  0  0  0
    3.3862   -0.7394   -4.4052 F   0  0  0  0  0  0  0  0  0  0  0  0
   -3.9376   -1.1207   -5.4960 O   0  0  0  0  0  0  0  0  0  0  0  0
   -5.1296   -0.8889   -4.7377 C   0  0  0  0  0  0  0  0  0  0  0  0
   -5.6482   -1.8507   -4.7102 H   0  0  0  0  0  0  0  0  0  0  0  0
   -5.7670   -0.1393   -5.2285 H   0  0  0  0  0  0  0  0  0  0  0  0
   -4.8861   -0.5705   -3.7139 H   0  0  0  0  0  0  0  0  0  0  0  0
  1  6  1  0  0  0  0
  2  1  2  0  0  0  0
  2  3  1  0  0  0  0
  3  4  2  0  0  0  0
  4  5  1  0  0  0  0
  4  9  1  0  0  0  0
  5 10  1  0  0  0  0
  6 21  1  0  0  0  0
  6  5  2  0  0  0  0
  7  1  1  0  0  0  0
  8  2  1  0  0  0  0
 11  3  1  0  0  0  0
 12 11  1  0  0  0  0
 13 16  2  0  0  0  0
 13 14  1  0  0  0  0
 13 17  1  0  0  0  0
 14 20  1  0  0  0  0
 15 13  2  0  0  0  0
 18 14  1  0  0  0  0
 19 14  1  0  0  0  0
 21 22  1  0  0  0  0
 22 23  1  0  0  0  0
 22 25  1  0  0  0  0
 24 22  1  0  0  0  0
M  RAD  3  11   2  12   3  17   2
M  END
