Coordinates from ORCA-job p-CH3O-Ph-N2-OTf-B3LYPG-aug-cc-pVDZ-scan-d29-49-n200
 OpenBabel01151817073D

 25 24  0  0  0  0  0  0  0  0999 V2000
   -2.1729   -0.0601   -7.2954 C   0  0  0  0  0  0  0  0  0  0  0  0
   -0.8499    0.3652   -7.3233 C   0  0  0  0  0  0  0  0  0  0  0  0
   -0.2488    0.7969   -6.1380 C   0  0  0  0  0  0  0  0  0  0  0  0
   -0.9536    0.8256   -4.9408 C   0  0  0  0  0  0  0  0  0  0  0  0
   -2.2884    0.4055   -4.9123 C   0  0  0  0  0  0  0  0  0  0  0  0
   -2.8993   -0.0456   -6.0916 C   0  0  0  0  0  0  0  0  0  0  0  0
   -2.6667   -0.4063   -8.2020 H   0  0  0  0  0  0  0  0  0  0  0  0
   -0.2854    0.3653   -8.2535 H   0  0  0  0  0  0  0  0  0  0  0  0
   -0.4706    1.1882   -4.0351 H   0  0  0  0  0  0  0  0  0  0  0  0
   -2.8303    0.4370   -3.9708 H   0  0  0  0  0  0  0  0  0  0  0  0
   -1.7164    4.7103   -7.0916 N   0  0  0  0  0  0  0  0  0  0  0  0
   -2.7871    4.9656   -7.0018 N   0  0  0  0  0  0  0  0  0  0  0  0
    2.3714    0.3132   -6.3369 S   0  0  0  0  0  0  0  0  0  0  0  0
    2.7998   -0.0008   -4.5071 C   0  0  0  0  0  0  0  0  0  0  0  0
    1.9693   -0.9796   -6.9158 O   0  0  0  0  0  0  0  0  0  0  0  0
    3.4469    1.1514   -6.8809 O   0  0  0  0  0  0  0  0  0  0  0  0
    1.0587    1.3312   -6.1598 O   0  0  0  0  0  0  0  0  0  0  0  0
    1.8060   -0.6726   -3.9146 F   0  0  0  0  0  0  0  0  0  0  0  0
    3.9200   -0.7260   -4.4594 F   0  0  0  0  0  0  0  0  0  0  0  0
    2.9891    1.1622   -3.8804 F   0  0  0  0  0  0  0  0  0  0  0  0
   -4.1880   -0.4823   -6.1754 O   0  0  0  0  0  0  0  0  0  0  0  0
   -4.9780   -0.4908   -4.9893 C   0  0  0  0  0  0  0  0  0  0  0  0
   -5.9575   -0.8752   -5.2888 H   0  0  0  0  0  0  0  0  0  0  0  0
   -5.0920    0.5245   -4.5798 H   0  0  0  0  0  0  0  0  0  0  0  0
   -4.5418   -1.1525   -4.2256 H   0  0  0  0  0  0  0  0  0  0  0  0
  1  6  1  0  0  0  0
  2  1  2  0  0  0  0
  2  3  1  0  0  0  0
  3  4  2  0  0  0  0
  4  5  1  0  0  0  0
  4  9  1  0  0  0  0
  5 10  1  0  0  0  0
  6  5  2  0  0  0  0
  7  1  1  0  0  0  0
  8  2  1  0  0  0  0
 11 12  3  0  0  0  0
 13 17  1  0  0  0  0
 13 14  1  0  0  0  0
 14 19  1  0  0  0  0
 14 18  1  0  0  0  0
 14 20  1  0  0  0  0
 15 13  2  0  0  0  0
 16 13  2  0  0  0  0
 17  3  1  0  0  0  0
 21  6  1  0  0  0  0
 21 22  1  0  0  0  0
 22 24  1  0  0  0  0
 22 25  1  0  0  0  0
 23 22  1  0  0  0  0
M  END
