Coordinates from ORCA-job p-CH3O-Ph-N2-OTf-B3LYPG-aug-cc-pVDZ-scan-d09-29-n200
 OpenBabel01151817073D

 25 23  0  0  0  0  0  0  0  0999 V2000
   -1.9000   -0.3676   -6.3580 C   0  0  0  0  0  0  0  0  0  0  0  0
   -0.9196    0.6497   -6.5043 C   0  0  0  0  0  0  0  0  0  0  0  0
   -1.4053    1.7317   -5.9391 C   0  0  0  0  0  0  0  0  0  0  0  0
   -2.4663    2.2198   -5.2733 C   0  0  0  0  0  0  0  0  0  0  0  0
   -3.4032    1.1586   -5.1530 C   0  0  0  0  0  0  0  0  0  0  0  0
   -3.1197   -0.1142   -5.6927 C   0  0  0  0  0  0  0  0  0  0  0  0
   -1.6878   -1.3623   -6.7497 H   0  0  0  0  0  0  0  0  0  0  0  0
    0.1382    0.4640   -6.9772 H   0  0  0  0  0  0  0  0  0  0  0  0
   -2.6258    3.2203   -4.8866 H   0  0  0  0  0  0  0  0  0  0  0  0
   -4.3363    1.3752   -4.6387 H   0  0  0  0  0  0  0  0  0  0  0  0
    0.0235    3.8450   -6.2375 N   0  0  0  0  0  0  0  0  0  0  0  0
    0.6572    4.7393   -6.3617 N   0  0  0  0  0  0  0  0  0  0  0  0
    2.5564    0.8448   -6.5050 S   0  0  0  0  0  0  0  0  0  0  0  0
    3.0292   -0.6928   -5.5026 C   0  0  0  0  0  0  0  0  0  0  0  0
    1.5326    0.2637   -7.5024 O   0  0  0  0  0  0  0  0  0  0  0  0
    3.8132    1.2936   -7.1463 O   0  0  0  0  0  0  0  0  0  0  0  0
    1.9046    1.7464   -5.5027 O   0  0  0  0  0  0  0  0  0  0  0  0
    1.9282   -1.2297   -4.9311 F   0  0  0  0  0  0  0  0  0  0  0  0
    3.5919   -1.6218   -6.2904 F   0  0  0  0  0  0  0  0  0  0  0  0
    3.8951   -0.3676   -4.5302 F   0  0  0  0  0  0  0  0  0  0  0  0
   -3.9641   -1.1711   -5.6184 O   0  0  0  0  0  0  0  0  0  0  0  0
   -5.2122   -1.0080   -4.9418 C   0  0  0  0  0  0  0  0  0  0  0  0
   -5.7084   -1.9801   -5.0027 H   0  0  0  0  0  0  0  0  0  0  0  0
   -5.8322   -0.2465   -5.4383 H   0  0  0  0  0  0  0  0  0  0  0  0
   -5.0549   -0.7401   -3.8864 H   0  0  0  0  0  0  0  0  0  0  0  0
  1  6  1  0  0  0  0
  2  1  2  0  0  0  0
  2  3  1  0  0  0  0
  3  4  2  0  0  0  0
  4  5  1  0  0  0  0
  4  9  1  0  0  0  0
  5 10  1  0  0  0  0
  6 21  1  0  0  0  0
  6  5  2  0  0  0  0
  7  1  1  0  0  0  0
  8  2  1  0  0  0  0
 12 11  3  0  0  0  0
 13 17  1  0  0  0  0
 13 14  1  0  0  0  0
 14 18  1  0  0  0  0
 14 20  1  0  0  0  0
 15 13  2  0  0  0  0
 16 13  2  0  0  0  0
 19 14  1  0  0  0  0
 21 22  1  0  0  0  0
 22 25  1  0  0  0  0
 23 22  1  0  0  0  0
 24 22  1  0  0  0  0
M  RAD  2   3   2  17   2
M  END
