Coordinates from ORCA-job p-CH3O-Ph-N2-OTf-B3LYPG-aug-cc-pVDZ-scan-d09-29-n200
 OpenBabel01151817073D

 25 23  0  0  0  0  0  0  0  0999 V2000
   -1.9108   -0.3412   -6.3180 C   0  0  0  0  0  0  0  0  0  0  0  0
   -0.9333    0.6675   -6.4790 C   0  0  0  0  0  0  0  0  0  0  0  0
   -1.4100    1.7885   -5.9477 C   0  0  0  0  0  0  0  0  0  0  0  0
   -2.5033    2.2546   -5.3064 C   0  0  0  0  0  0  0  0  0  0  0  0
   -3.4390    1.2016   -5.1739 C   0  0  0  0  0  0  0  0  0  0  0  0
   -3.1416   -0.0815   -5.6781 C   0  0  0  0  0  0  0  0  0  0  0  0
   -1.6911   -1.3438   -6.6843 H   0  0  0  0  0  0  0  0  0  0  0  0
    0.0946    0.4805   -6.9396 H   0  0  0  0  0  0  0  0  0  0  0  0
   -2.6735    3.2616   -4.9405 H   0  0  0  0  0  0  0  0  0  0  0  0
   -4.3791    1.4256   -4.6766 H   0  0  0  0  0  0  0  0  0  0  0  0
   -0.0298    3.5281   -6.2149 N   0  0  0  0  0  0  0  0  0  0  0  0
    0.5478    4.4538   -6.3733 N   0  0  0  0  0  0  0  0  0  0  0  0
    2.5805    0.8652   -6.4752 S   0  0  0  0  0  0  0  0  0  0  0  0
    3.1350   -0.6961   -5.5542 C   0  0  0  0  0  0  0  0  0  0  0  0
    1.5967    0.2986   -7.5041 O   0  0  0  0  0  0  0  0  0  0  0  0
    3.8209    1.4295   -7.0598 O   0  0  0  0  0  0  0  0  0  0  0  0
    1.8799    1.6704   -5.4174 O   0  0  0  0  0  0  0  0  0  0  0  0
    2.0651   -1.3268   -5.0193 F   0  0  0  0  0  0  0  0  0  0  0  0
    3.7525   -1.5488   -6.3876 F   0  0  0  0  0  0  0  0  0  0  0  0
    3.9790   -0.3804   -4.5583 F   0  0  0  0  0  0  0  0  0  0  0  0
   -3.9803   -1.1401   -5.5919 O   0  0  0  0  0  0  0  0  0  0  0  0
   -5.2401   -0.9696   -4.9379 C   0  0  0  0  0  0  0  0  0  0  0  0
   -5.7290   -1.9462   -4.9845 H   0  0  0  0  0  0  0  0  0  0  0  0
   -5.8568   -0.2236   -5.4609 H   0  0  0  0  0  0  0  0  0  0  0  0
   -5.1001   -0.6771   -3.8867 H   0  0  0  0  0  0  0  0  0  0  0  0
  1  6  1  0  0  0  0
  2  1  2  0  0  0  0
  2  3  1  0  0  0  0
  3  4  2  0  0  0  0
  4  5  1  0  0  0  0
  4  9  1  0  0  0  0
  5 10  1  0  0  0  0
  6 21  1  0  0  0  0
  6  5  2  0  0  0  0
  7  1  1  0  0  0  0
  8  2  1  0  0  0  0
 12 11  3  0  0  0  0
 13 14  1  0  0  0  0
 13 17  1  0  0  0  0
 14 18  1  0  0  0  0
 14 20  1  0  0  0  0
 15 13  2  0  0  0  0
 16 13  2  0  0  0  0
 19 14  1  0  0  0  0
 21 22  1  0  0  0  0
 22 25  1  0  0  0  0
 23 22  1  0  0  0  0
 24 22  1  0  0  0  0
M  RAD  2   3   2  17   2
M  END
