Coordinates from ORCA-job p-CH3O-Ph-N2-OTf-B3LYPG-aug-cc-pVDZ-scan-d29-49-n200
 OpenBabel01151817073D

 25 24  0  0  0  0  0  0  0  0999 V2000
   -2.1998   -0.0465   -7.2998 C   0  0  0  0  0  0  0  0  0  0  0  0
   -0.8811    0.3918   -7.3312 C   0  0  0  0  0  0  0  0  0  0  0  0
   -0.2820    0.8308   -6.1476 C   0  0  0  0  0  0  0  0  0  0  0  0
   -0.9841    0.8534   -4.9488 C   0  0  0  0  0  0  0  0  0  0  0  0
   -2.3147    0.4204   -4.9169 C   0  0  0  0  0  0  0  0  0  0  0  0
   -2.9238   -0.0377   -6.0945 C   0  0  0  0  0  0  0  0  0  0  0  0
   -2.6921   -0.3992   -8.2048 H   0  0  0  0  0  0  0  0  0  0  0  0
   -0.3185    0.3961   -8.2625 H   0  0  0  0  0  0  0  0  0  0  0  0
   -0.5024    1.2210   -4.0445 H   0  0  0  0  0  0  0  0  0  0  0  0
   -2.8547    0.4471   -3.9742 H   0  0  0  0  0  0  0  0  0  0  0  0
   -1.4344    4.3485   -6.9816 N   0  0  0  0  0  0  0  0  0  0  0  0
   -2.4779    4.7052   -6.9210 N   0  0  0  0  0  0  0  0  0  0  0  0
    2.3420    0.3730   -6.3538 S   0  0  0  0  0  0  0  0  0  0  0  0
    2.7760    0.0584   -4.5253 C   0  0  0  0  0  0  0  0  0  0  0  0
    1.9516   -0.9222   -6.9352 O   0  0  0  0  0  0  0  0  0  0  0  0
    3.4088    1.2226   -6.8971 O   0  0  0  0  0  0  0  0  0  0  0  0
    1.0202    1.3779   -6.1723 O   0  0  0  0  0  0  0  0  0  0  0  0
    1.7894   -0.6243   -3.9332 F   0  0  0  0  0  0  0  0  0  0  0  0
    3.9031   -0.6562   -4.4811 F   0  0  0  0  0  0  0  0  0  0  0  0
    2.9551    1.2216   -3.8958 F   0  0  0  0  0  0  0  0  0  0  0  0
   -4.2083   -0.4871   -6.1750 O   0  0  0  0  0  0  0  0  0  0  0  0
   -4.9957   -0.5020   -4.9873 C   0  0  0  0  0  0  0  0  0  0  0  0
   -5.9720   -0.8961   -5.2842 H   0  0  0  0  0  0  0  0  0  0  0  0
   -5.1186    0.5125   -4.5785 H   0  0  0  0  0  0  0  0  0  0  0  0
   -4.5515   -1.1587   -4.2239 H   0  0  0  0  0  0  0  0  0  0  0  0
  1  6  1  0  0  0  0
  2  1  2  0  0  0  0
  2  3  1  0  0  0  0
  3  4  2  0  0  0  0
  4  5  1  0  0  0  0
  4  9  1  0  0  0  0
  5 10  1  0  0  0  0
  6  5  2  0  0  0  0
  7  1  1  0  0  0  0
  8  2  1  0  0  0  0
 11 12  3  0  0  0  0
 13 17  1  0  0  0  0
 13 14  1  0  0  0  0
 14 19  1  0  0  0  0
 14 18  1  0  0  0  0
 14 20  1  0  0  0  0
 15 13  2  0  0  0  0
 16 13  2  0  0  0  0
 17  3  1  0  0  0  0
 21  6  1  0  0  0  0
 21 22  1  0  0  0  0
 22 24  1  0  0  0  0
 22 25  1  0  0  0  0
 23 22  1  0  0  0  0
M  END
