Coordinates from ORCA-job p-CH3O-Ph-N2-OTf-B3LYPG-aug-cc-pVDZ-scan-d09-29-n200
 OpenBabel01151817073D

 25 23  0  0  0  0  0  0  0  0999 V2000
   -1.9748   -0.3781   -6.3134 C   0  0  0  0  0  0  0  0  0  0  0  0
   -0.9631    0.5811   -6.4650 C   0  0  0  0  0  0  0  0  0  0  0  0
   -1.3524    1.7690   -5.9435 C   0  0  0  0  0  0  0  0  0  0  0  0
   -2.4655    2.2282   -5.3059 C   0  0  0  0  0  0  0  0  0  0  0  0
   -3.4430    1.2242   -5.1760 C   0  0  0  0  0  0  0  0  0  0  0  0
   -3.1970   -0.0694   -5.6788 C   0  0  0  0  0  0  0  0  0  0  0  0
   -1.8056   -1.3886   -6.6828 H   0  0  0  0  0  0  0  0  0  0  0  0
    0.0274    0.3722   -6.9264 H   0  0  0  0  0  0  0  0  0  0  0  0
   -2.6058    3.2378   -4.9329 H   0  0  0  0  0  0  0  0  0  0  0  0
   -4.3754    1.4816   -4.6813 H   0  0  0  0  0  0  0  0  0  0  0  0
   -0.0660    3.1875   -6.1420 N   0  0  0  0  0  0  0  0  0  0  0  0
    0.4378    4.1579   -6.2878 N   0  0  0  0  0  0  0  0  0  0  0  0
    2.5891    0.8779   -6.5015 S   0  0  0  0  0  0  0  0  0  0  0  0
    3.3089   -0.6135   -5.5780 C   0  0  0  0  0  0  0  0  0  0  0  0
    1.6980    0.2318   -7.5464 O   0  0  0  0  0  0  0  0  0  0  0  0
    3.7681    1.6136   -7.0244 O   0  0  0  0  0  0  0  0  0  0  0  0
    1.7841    1.5790   -5.4283 O   0  0  0  0  0  0  0  0  0  0  0  0
    2.3150   -1.3743   -5.0681 F   0  0  0  0  0  0  0  0  0  0  0  0
    4.0401   -1.3771   -6.4068 F   0  0  0  0  0  0  0  0  0  0  0  0
    4.0926   -0.2103   -4.5634 F   0  0  0  0  0  0  0  0  0  0  0  0
   -4.0779   -1.0911   -5.5968 O   0  0  0  0  0  0  0  0  0  0  0  0
   -5.3341   -0.8719   -4.9490 C   0  0  0  0  0  0  0  0  0  0  0  0
   -5.8602   -1.8286   -5.0008 H   0  0  0  0  0  0  0  0  0  0  0  0
   -5.9175   -0.1013   -5.4740 H   0  0  0  0  0  0  0  0  0  0  0  0
   -5.1884   -0.5874   -3.8967 H   0  0  0  0  0  0  0  0  0  0  0  0
  1  6  1  0  0  0  0
  2  1  2  0  0  0  0
  2  3  1  0  0  0  0
  3  4  2  0  0  0  0
  4  5  1  0  0  0  0
  4  9  1  0  0  0  0
  5 10  1  0  0  0  0
  6 21  1  0  0  0  0
  6  5  2  0  0  0  0
  7  1  1  0  0  0  0
  8  2  1  0  0  0  0
 12 11  3  0  0  0  0
 13 14  1  0  0  0  0
 13 17  1  0  0  0  0
 14 18  1  0  0  0  0
 14 20  1  0  0  0  0
 15 13  2  0  0  0  0
 16 13  2  0  0  0  0
 19 14  1  0  0  0  0
 21 22  1  0  0  0  0
 22 25  1  0  0  0  0
 23 22  1  0  0  0  0
 24 22  1  0  0  0  0
M  RAD  2   3   2  17   2
M  END
