Coordinates from ORCA-job p-CH3O-Ph-N2-OTf-B3LYPG-aug-cc-pVDZ-scan-d09-29-n200
 OpenBabel01151817073D

 25 24  0  0  0  0  0  0  0  0999 V2000
   -1.8286   -0.3464   -6.4579 C   0  0  0  0  0  0  0  0  0  0  0  0
   -0.9311    0.6406   -6.7855 C   0  0  0  0  0  0  0  0  0  0  0  0
   -1.1949    1.9782   -6.3571 C   0  0  0  0  0  0  0  0  0  0  0  0
   -2.3544    2.2823   -5.5925 C   0  0  0  0  0  0  0  0  0  0  0  0
   -3.2400    1.2774   -5.2662 C   0  0  0  0  0  0  0  0  0  0  0  0
   -2.9829   -0.0485   -5.6969 C   0  0  0  0  0  0  0  0  0  0  0  0
   -1.6491   -1.3779   -6.7548 H   0  0  0  0  0  0  0  0  0  0  0  0
   -0.0004    0.4560   -7.3253 H   0  0  0  0  0  0  0  0  0  0  0  0
   -2.5261    3.3061   -5.2636 H   0  0  0  0  0  0  0  0  0  0  0  0
   -4.1195    1.5171   -4.6759 H   0  0  0  0  0  0  0  0  0  0  0  0
   -0.3933    2.8858   -6.6318 N   0  0  0  0  0  0  0  0  0  0  0  0
    0.3255    3.7082   -6.8853 N   0  0  0  0  0  0  0  0  0  0  0  0
    2.4711    1.1054   -5.9444 S   0  0  0  0  0  0  0  0  0  0  0  0
    2.7590   -0.7533   -5.6857 C   0  0  0  0  0  0  0  0  0  0  0  0
    1.9784    1.1674   -7.3761 O   0  0  0  0  0  0  0  0  0  0  0  0
    3.7955    1.7249   -5.6814 O   0  0  0  0  0  0  0  0  0  0  0  0
    1.3731    1.4147   -4.9544 O   0  0  0  0  0  0  0  0  0  0  0  0
    1.6145   -1.4475   -5.9300 F   0  0  0  0  0  0  0  0  0  0  0  0
    3.7057   -1.2194   -6.5175 F   0  0  0  0  0  0  0  0  0  0  0  0
    3.1346   -1.0153   -4.4219 F   0  0  0  0  0  0  0  0  0  0  0  0
   -3.7779   -1.0865   -5.4262 O   0  0  0  0  0  0  0  0  0  0  0  0
   -4.9600   -0.8971   -4.6301 C   0  0  0  0  0  0  0  0  0  0  0  0
   -5.4128   -1.8881   -4.5505 H   0  0  0  0  0  0  0  0  0  0  0  0
   -5.6556   -0.2081   -5.1282 H   0  0  0  0  0  0  0  0  0  0  0  0
   -4.6964   -0.5259   -3.6308 H   0  0  0  0  0  0  0  0  0  0  0  0
  1  6  1  0  0  0  0
  2  1  2  0  0  0  0
  2  3  1  0  0  0  0
  3  4  2  0  0  0  0
  4  5  1  0  0  0  0
  4  9  1  0  0  0  0
  5 10  1  0  0  0  0
  6 21  1  0  0  0  0
  6  5  2  0  0  0  0
  7  1  1  0  0  0  0
  8  2  1  0  0  0  0
 11  3  1  0  0  0  0
 12 11  1  0  0  0  0
 13 14  1  0  0  0  0
 13 16  2  0  0  0  0
 13 17  1  0  0  0  0
 14 20  1  0  0  0  0
 15 13  2  0  0  0  0
 18 14  1  0  0  0  0
 19 14  1  0  0  0  0
 21 22  1  0  0  0  0
 22 23  1  0  0  0  0
 22 25  1  0  0  0  0
 24 22  1  0  0  0  0
M  RAD  3  11   2  12   3  17   2
M  END
