Coordinates from ORCA-job p-CH3O-Ph-N2-OTf-B3LYPG-aug-cc-pVDZ-scan-d09-29-n200
 OpenBabel01151817073D

 25 24  0  0  0  0  0  0  0  0999 V2000
   -1.6452   -0.1267   -6.5462 C   0  0  0  0  0  0  0  0  0  0  0  0
   -0.8649    0.9420   -6.9016 C   0  0  0  0  0  0  0  0  0  0  0  0
   -1.2304    2.3172   -6.5034 C   0  0  0  0  0  0  0  0  0  0  0  0
   -2.4148    2.4342   -5.6427 C   0  0  0  0  0  0  0  0  0  0  0  0
   -3.1459    1.3478   -5.2669 C   0  0  0  0  0  0  0  0  0  0  0  0
   -2.7709    0.0451   -5.7191 C   0  0  0  0  0  0  0  0  0  0  0  0
   -1.3647   -1.1318   -6.8550 H   0  0  0  0  0  0  0  0  0  0  0  0
    0.0302    0.8433   -7.5199 H   0  0  0  0  0  0  0  0  0  0  0  0
   -2.6775    3.4401   -5.3148 H   0  0  0  0  0  0  0  0  0  0  0  0
   -4.0099    1.4897   -4.6235 H   0  0  0  0  0  0  0  0  0  0  0  0
   -0.6976    3.0953   -6.7712 N   0  0  0  0  0  0  0  0  0  0  0  0
   -0.0704    4.0099   -7.0844 N   0  0  0  0  0  0  0  0  0  0  0  0
    2.2781    0.8596   -5.9177 S   0  0  0  0  0  0  0  0  0  0  0  0
    2.4819   -0.9955   -5.5760 C   0  0  0  0  0  0  0  0  0  0  0  0
    2.1227    0.9163   -7.4145 O   0  0  0  0  0  0  0  0  0  0  0  0
    3.4912    1.4832   -5.3329 O   0  0  0  0  0  0  0  0  0  0  0  0
    0.9734    1.1712   -5.1966 O   0  0  0  0  0  0  0  0  0  0  0  0
    1.4080   -1.6815   -6.0502 F   0  0  0  0  0  0  0  0  0  0  0  0
    3.5794   -1.4806   -6.1775 F   0  0  0  0  0  0  0  0  0  0  0  0
    2.5735   -1.2395   -4.2566 F   0  0  0  0  0  0  0  0  0  0  0  0
   -3.4359   -1.0598   -5.4015 O   0  0  0  0  0  0  0  0  0  0  0  0
   -4.5831   -0.9997   -4.5319 C   0  0  0  0  0  0  0  0  0  0  0  0
   -4.9171   -2.0349   -4.4324 H   0  0  0  0  0  0  0  0  0  0  0  0
   -5.3776   -0.3921   -4.9843 H   0  0  0  0  0  0  0  0  0  0  0  0
   -4.2982   -0.6026   -3.5492 H   0  0  0  0  0  0  0  0  0  0  0  0
  1  6  1  0  0  0  0
  2  1  2  0  0  0  0
  2  3  1  0  0  0  0
  3  4  2  0  0  0  0
  4  9  1  0  0  0  0
  4  5  1  0  0  0  0
  5 10  1  0  0  0  0
  6 21  1  0  0  0  0
  6  5  2  0  0  0  0
  7  1  1  0  0  0  0
  8  2  1  0  0  0  0
 11  3  1  0  0  0  0
 12 11  1  0  0  0  0
 13 14  1  0  0  0  0
 13 16  2  0  0  0  0
 13 17  1  0  0  0  0
 14 20  1  0  0  0  0
 15 13  2  0  0  0  0
 18 14  1  0  0  0  0
 19 14  1  0  0  0  0
 21 22  1  0  0  0  0
 22 23  1  0  0  0  0
 22 25  1  0  0  0  0
 24 22  1  0  0  0  0
M  RAD  3  11   2  12   3  17   2
M  END
