Coordinates from ORCA-job p-CH3O-Ph-N2-OTf-B3LYPG-aug-cc-pVDZ-scan-d09-29-n200
 OpenBabel01151817073D

 25 24  0  0  0  0  0  0  0  0999 V2000
   -1.8581   -0.3821   -6.4387 C   0  0  0  0  0  0  0  0  0  0  0  0
   -0.9371    0.5951   -6.7473 C   0  0  0  0  0  0  0  0  0  0  0  0
   -1.2040    1.9095   -6.3015 C   0  0  0  0  0  0  0  0  0  0  0  0
   -2.3493    2.2496   -5.5568 C   0  0  0  0  0  0  0  0  0  0  0  0
   -3.2595    1.2522   -5.2526 C   0  0  0  0  0  0  0  0  0  0  0  0
   -3.0183   -0.0710   -5.6925 C   0  0  0  0  0  0  0  0  0  0  0  0
   -1.6939   -1.4133   -6.7449 H   0  0  0  0  0  0  0  0  0  0  0  0
   -0.0037    0.4038   -7.2791 H   0  0  0  0  0  0  0  0  0  0  0  0
   -2.5066    3.2730   -5.2212 H   0  0  0  0  0  0  0  0  0  0  0  0
   -4.1433    1.5014   -4.6729 H   0  0  0  0  0  0  0  0  0  0  0  0
   -0.3128    2.8991   -6.5884 N   0  0  0  0  0  0  0  0  0  0  0  0
    0.3924    3.7261   -6.8303 N   0  0  0  0  0  0  0  0  0  0  0  0
    2.5280    1.1422   -6.0030 S   0  0  0  0  0  0  0  0  0  0  0  0
    2.7877   -0.7102   -5.6783 C   0  0  0  0  0  0  0  0  0  0  0  0
    1.9539    1.1571   -7.4060 O   0  0  0  0  0  0  0  0  0  0  0  0
    3.8798    1.7377   -5.8454 O   0  0  0  0  0  0  0  0  0  0  0  0
    1.4970    1.5263   -4.9684 O   0  0  0  0  0  0  0  0  0  0  0  0
    1.6173   -1.3862   -5.8310 F   0  0  0  0  0  0  0  0  0  0  0  0
    3.6778   -1.2330   -6.5383 F   0  0  0  0  0  0  0  0  0  0  0  0
    3.2254   -0.9259   -4.4263 F   0  0  0  0  0  0  0  0  0  0  0  0
   -3.8367   -1.1019   -5.4450 O   0  0  0  0  0  0  0  0  0  0  0  0
   -5.0262   -0.8956   -4.6679 C   0  0  0  0  0  0  0  0  0  0  0  0
   -5.5012   -1.8775   -4.6035 H   0  0  0  0  0  0  0  0  0  0  0  0
   -5.7006   -0.1884   -5.1701 H   0  0  0  0  0  0  0  0  0  0  0  0
   -4.7735   -0.5376   -3.6606 H   0  0  0  0  0  0  0  0  0  0  0  0
  1  6  1  0  0  0  0
  2  1  2  0  0  0  0
  2  3  1  0  0  0  0
  3  4  2  0  0  0  0
  4  5  1  0  0  0  0
  4  9  1  0  0  0  0
  5 10  1  0  0  0  0
  6 21  1  0  0  0  0
  6  5  2  0  0  0  0
  7  1  1  0  0  0  0
  8  2  1  0  0  0  0
 11  3  1  0  0  0  0
 12 11  1  0  0  0  0
 13 16  2  0  0  0  0
 13 14  1  0  0  0  0
 13 17  1  0  0  0  0
 14 20  1  0  0  0  0
 15 13  2  0  0  0  0
 18 14  1  0  0  0  0
 19 14  1  0  0  0  0
 21 22  1  0  0  0  0
 22 23  1  0  0  0  0
 22 25  1  0  0  0  0
 24 22  1  0  0  0  0
M  RAD  3  11   2  12   3  17   2
M  END
