Coordinates from ORCA-job p-CH3O-Ph-N2-OTf-B3LYPG-aug-cc-pVDZ-scan-d09-29-n200
 OpenBabel01151817073D

 25 24  0  0  0  0  0  0  0  0999 V2000
   -1.8795   -0.4005   -6.4338 C   0  0  0  0  0  0  0  0  0  0  0  0
   -0.9426    0.5707   -6.7281 C   0  0  0  0  0  0  0  0  0  0  0  0
   -1.2142    1.8662   -6.2643 C   0  0  0  0  0  0  0  0  0  0  0  0
   -2.3454    2.2300   -5.5270 C   0  0  0  0  0  0  0  0  0  0  0  0
   -3.2704    1.2354   -5.2400 C   0  0  0  0  0  0  0  0  0  0  0  0
   -3.0408   -0.0837   -5.6927 C   0  0  0  0  0  0  0  0  0  0  0  0
   -1.7258   -1.4299   -6.7513 H   0  0  0  0  0  0  0  0  0  0  0  0
   -0.0071    0.3793   -7.2572 H   0  0  0  0  0  0  0  0  0  0  0  0
   -2.4913    3.2516   -5.1825 H   0  0  0  0  0  0  0  0  0  0  0  0
   -4.1554    1.4889   -4.6639 H   0  0  0  0  0  0  0  0  0  0  0  0
   -0.2576    2.9195   -6.5577 N   0  0  0  0  0  0  0  0  0  0  0  0
    0.4201    3.7669   -6.7884 N   0  0  0  0  0  0  0  0  0  0  0  0
    2.5581    1.1537   -6.0529 S   0  0  0  0  0  0  0  0  0  0  0  0
    2.8120   -0.6866   -5.6629 C   0  0  0  0  0  0  0  0  0  0  0  0
    1.9382    1.1215   -7.4360 O   0  0  0  0  0  0  0  0  0  0  0  0
    3.9187    1.7429   -5.9622 O   0  0  0  0  0  0  0  0  0  0  0  0
    1.5640    1.5906   -5.0023 O   0  0  0  0  0  0  0  0  0  0  0  0
    1.6324   -1.3561   -5.7527 F   0  0  0  0  0  0  0  0  0  0  0  0
    3.6708   -1.2501   -6.5290 F   0  0  0  0  0  0  0  0  0  0  0  0
    3.2874   -0.8557   -4.4178 F   0  0  0  0  0  0  0  0  0  0  0  0
   -3.8741   -1.1108   -5.4625 O   0  0  0  0  0  0  0  0  0  0  0  0
   -5.0651   -0.8961   -4.6927 C   0  0  0  0  0  0  0  0  0  0  0  0
   -5.5549   -1.8716   -4.6410 H   0  0  0  0  0  0  0  0  0  0  0  0
   -5.7270   -0.1745   -5.1917 H   0  0  0  0  0  0  0  0  0  0  0  0
   -4.8162   -0.5514   -3.6795 H   0  0  0  0  0  0  0  0  0  0  0  0
  1  6  1  0  0  0  0
  2  1  2  0  0  0  0
  2  3  1  0  0  0  0
  3  4  2  0  0  0  0
  4  5  1  0  0  0  0
  4  9  1  0  0  0  0
  5 10  1  0  0  0  0
  6 21  1  0  0  0  0
  6  5  2  0  0  0  0
  7  1  1  0  0  0  0
  8  2  1  0  0  0  0
 11  3  1  0  0  0  0
 12 11  1  0  0  0  0
 13 16  2  0  0  0  0
 13 14  1  0  0  0  0
 13 17  1  0  0  0  0
 14 20  1  0  0  0  0
 15 13  2  0  0  0  0
 18 14  1  0  0  0  0
 19 14  1  0  0  0  0
 21 22  1  0  0  0  0
 22 23  1  0  0  0  0
 22 25  1  0  0  0  0
 24 22  1  0  0  0  0
M  RAD  3  11   2  12   3  17   2
M  END
