Coordinates from ORCA-job p-CH3O-Ph-N2-OTf-B3LYPG-aug-cc-pVDZ-scan-d09-29-n200
 OpenBabel01151817073D

 25 24  0  0  0  0  0  0  0  0999 V2000
   -1.9045   -0.4267   -6.4270 C   0  0  0  0  0  0  0  0  0  0  0  0
   -0.9411    0.5329   -6.7000 C   0  0  0  0  0  0  0  0  0  0  0  0
   -1.2245    1.7999   -6.2138 C   0  0  0  0  0  0  0  0  0  0  0  0
   -2.3286    2.2032   -5.4828 C   0  0  0  0  0  0  0  0  0  0  0  0
   -3.2760    1.2133   -5.2207 C   0  0  0  0  0  0  0  0  0  0  0  0
   -3.0664   -0.0998   -5.6928 C   0  0  0  0  0  0  0  0  0  0  0  0
   -1.7661   -1.4532   -6.7611 H   0  0  0  0  0  0  0  0  0  0  0  0
   -0.0014    0.3398   -7.2224 H   0  0  0  0  0  0  0  0  0  0  0  0
   -2.4539    3.2221   -5.1253 H   0  0  0  0  0  0  0  0  0  0  0  0
   -4.1610    1.4758   -4.6488 H   0  0  0  0  0  0  0  0  0  0  0  0
   -0.1586    2.9572   -6.5233 N   0  0  0  0  0  0  0  0  0  0  0  0
    0.4420    3.8505   -6.7734 N   0  0  0  0  0  0  0  0  0  0  0  0
    2.5712    1.1602   -6.1095 S   0  0  0  0  0  0  0  0  0  0  0  0
    2.8440   -0.6597   -5.6457 C   0  0  0  0  0  0  0  0  0  0  0  0
    1.9095    1.0685   -7.4703 O   0  0  0  0  0  0  0  0  0  0  0  0
    3.9300    1.7593   -6.0833 O   0  0  0  0  0  0  0  0  0  0  0  0
    1.6053    1.6419   -5.0497 O   0  0  0  0  0  0  0  0  0  0  0  0
    1.6659   -1.3350   -5.6718 F   0  0  0  0  0  0  0  0  0  0  0  0
    3.6802   -1.2560   -6.5116 F   0  0  0  0  0  0  0  0  0  0  0  0
    3.3566   -0.7703   -4.4092 F   0  0  0  0  0  0  0  0  0  0  0  0
   -3.9230   -1.1188   -5.4875 O   0  0  0  0  0  0  0  0  0  0  0  0
   -5.1139   -0.8897   -4.7256 C   0  0  0  0  0  0  0  0  0  0  0  0
   -5.6268   -1.8542   -4.6919 H   0  0  0  0  0  0  0  0  0  0  0  0
   -5.7567   -0.1459   -5.2180 H   0  0  0  0  0  0  0  0  0  0  0  0
   -4.8679   -0.5652   -3.7045 H   0  0  0  0  0  0  0  0  0  0  0  0
  1  6  1  0  0  0  0
  2  1  2  0  0  0  0
  2  3  1  0  0  0  0
  3  4  2  0  0  0  0
  4  5  1  0  0  0  0
  4  9  1  0  0  0  0
  5 10  1  0  0  0  0
  6 21  1  0  0  0  0
  6  5  2  0  0  0  0
  7  1  1  0  0  0  0
  8  2  1  0  0  0  0
 11  3  1  0  0  0  0
 12 11  1  0  0  0  0
 13 16  2  0  0  0  0
 13 14  1  0  0  0  0
 13 17  1  0  0  0  0
 14 20  1  0  0  0  0
 15 13  2  0  0  0  0
 18 14  1  0  0  0  0
 19 14  1  0  0  0  0
 21 22  1  0  0  0  0
 22 23  1  0  0  0  0
 22 25  1  0  0  0  0
 24 22  1  0  0  0  0
M  RAD  3  11   2  12   3  17   2
M  END
