Coordinates from ORCA-job p-CH3O-Ph-N2-OTf-B3LYPG-aug-cc-pVDZ-scan-d09-29-n200
 OpenBabel01151817073D

 25 24  0  0  0  0  0  0  0  0999 V2000
   -1.6360   -0.1218   -6.5464 C   0  0  0  0  0  0  0  0  0  0  0  0
   -0.8559    0.9464   -6.9018 C   0  0  0  0  0  0  0  0  0  0  0  0
   -1.2194    2.3360   -6.5112 C   0  0  0  0  0  0  0  0  0  0  0  0
   -2.4116    2.4384   -5.6416 C   0  0  0  0  0  0  0  0  0  0  0  0
   -3.1370    1.3509   -5.2654 C   0  0  0  0  0  0  0  0  0  0  0  0
   -2.7605    0.0477   -5.7186 C   0  0  0  0  0  0  0  0  0  0  0  0
   -1.3543   -1.1266   -6.8554 H   0  0  0  0  0  0  0  0  0  0  0  0
    0.0378    0.8486   -7.5223 H   0  0  0  0  0  0  0  0  0  0  0  0
   -2.6759    3.4446   -5.3155 H   0  0  0  0  0  0  0  0  0  0  0  0
   -4.0007    1.4907   -4.6210 H   0  0  0  0  0  0  0  0  0  0  0  0
   -0.7148    3.0844   -6.7742 N   0  0  0  0  0  0  0  0  0  0  0  0
   -0.0924    4.0077   -7.0965 N   0  0  0  0  0  0  0  0  0  0  0  0
    2.2658    0.8549   -5.9149 S   0  0  0  0  0  0  0  0  0  0  0  0
    2.4689   -1.0009   -5.5771 C   0  0  0  0  0  0  0  0  0  0  0  0
    2.1271    0.9178   -7.4125 O   0  0  0  0  0  0  0  0  0  0  0  0
    3.4686    1.4789   -5.3106 O   0  0  0  0  0  0  0  0  0  0  0  0
    0.9506    1.1605   -5.2076 O   0  0  0  0  0  0  0  0  0  0  0  0
    1.4021   -1.6868   -6.0669 F   0  0  0  0  0  0  0  0  0  0  0  0
    3.5745   -1.4812   -6.1669 F   0  0  0  0  0  0  0  0  0  0  0  0
    2.5447   -1.2492   -4.2576 F   0  0  0  0  0  0  0  0  0  0  0  0
   -3.4236   -1.0575   -5.4002 O   0  0  0  0  0  0  0  0  0  0  0  0
   -4.5702   -1.0001   -4.5291 C   0  0  0  0  0  0  0  0  0  0  0  0
   -4.9016   -2.0361   -4.4295 H   0  0  0  0  0  0  0  0  0  0  0  0
   -5.3667   -0.3945   -4.9806 H   0  0  0  0  0  0  0  0  0  0  0  0
   -4.2851   -0.6026   -3.5467 H   0  0  0  0  0  0  0  0  0  0  0  0
  1  6  1  0  0  0  0
  2  1  2  0  0  0  0
  2  3  1  0  0  0  0
  3  4  2  0  0  0  0
  4  9  1  0  0  0  0
  4  5  1  0  0  0  0
  5 10  1  0  0  0  0
  6 21  1  0  0  0  0
  6  5  2  0  0  0  0
  7  1  1  0  0  0  0
  8  2  1  0  0  0  0
 11  3  1  0  0  0  0
 12 11  1  0  0  0  0
 13 14  1  0  0  0  0
 13 16  2  0  0  0  0
 13 17  1  0  0  0  0
 14 20  1  0  0  0  0
 15 13  2  0  0  0  0
 18 14  1  0  0  0  0
 19 14  1  0  0  0  0
 21 22  1  0  0  0  0
 22 23  1  0  0  0  0
 22 25  1  0  0  0  0
 24 22  1  0  0  0  0
M  RAD  3  11   2  12   3  17   2
M  END
