Coordinates from ORCA-job p-CH3O-Ph-N2-OTf-B3LYPG-aug-cc-pVDZ-scan-d09-29-n200
 OpenBabel01151817073D

 25 24  0  0  0  0  0  0  0  0999 V2000
   -1.6609   -0.1377   -6.5437 C   0  0  0  0  0  0  0  0  0  0  0  0
   -0.8795    0.9302   -6.9007 C   0  0  0  0  0  0  0  0  0  0  0  0
   -1.2433    2.2891   -6.4912 C   0  0  0  0  0  0  0  0  0  0  0  0
   -2.4200    2.4262   -5.6433 C   0  0  0  0  0  0  0  0  0  0  0  0
   -3.1624    1.3423   -5.2714 C   0  0  0  0  0  0  0  0  0  0  0  0
   -2.7904    0.0397   -5.7206 C   0  0  0  0  0  0  0  0  0  0  0  0
   -1.3834   -1.1442   -6.8502 H   0  0  0  0  0  0  0  0  0  0  0  0
    0.0222    0.8275   -7.5095 H   0  0  0  0  0  0  0  0  0  0  0  0
   -2.6803    3.4314   -5.3118 H   0  0  0  0  0  0  0  0  0  0  0  0
   -4.0286    1.4886   -4.6324 H   0  0  0  0  0  0  0  0  0  0  0  0
   -0.6618    3.1096   -6.7592 N   0  0  0  0  0  0  0  0  0  0  0  0
   -0.0194    4.0099   -7.0530 N   0  0  0  0  0  0  0  0  0  0  0  0
    2.2970    0.8707   -5.9262 S   0  0  0  0  0  0  0  0  0  0  0  0
    2.5042   -0.9823   -5.5746 C   0  0  0  0  0  0  0  0  0  0  0  0
    2.1031    0.9126   -7.4206 O   0  0  0  0  0  0  0  0  0  0  0  0
    3.5313    1.4938   -5.3858 O   0  0  0  0  0  0  0  0  0  0  0  0
    1.0157    1.1945   -5.1748 O   0  0  0  0  0  0  0  0  0  0  0  0
    1.4164   -1.6694   -6.0145 F   0  0  0  0  0  0  0  0  0  0  0  0
    3.5843   -1.4769   -6.2003 F   0  0  0  0  0  0  0  0  0  0  0  0
    2.6298   -1.2159   -4.2560 F   0  0  0  0  0  0  0  0  0  0  0  0
   -3.4593   -1.0643   -5.4045 O   0  0  0  0  0  0  0  0  0  0  0  0
   -4.6084   -0.9996   -4.5385 C   0  0  0  0  0  0  0  0  0  0  0  0
   -4.9461   -2.0335   -4.4382 H   0  0  0  0  0  0  0  0  0  0  0  0
   -5.4001   -0.3903   -4.9938 H   0  0  0  0  0  0  0  0  0  0  0  0
   -4.3255   -0.6016   -3.5555 H   0  0  0  0  0  0  0  0  0  0  0  0
  1  6  1  0  0  0  0
  2  1  2  0  0  0  0
  2  3  1  0  0  0  0
  3  4  2  0  0  0  0
  4  9  1  0  0  0  0
  4  5  1  0  0  0  0
  5 10  1  0  0  0  0
  6 21  1  0  0  0  0
  6  5  2  0  0  0  0
  7  1  1  0  0  0  0
  8  2  1  0  0  0  0
 11  3  1  0  0  0  0
 12 11  1  0  0  0  0
 13 14  1  0  0  0  0
 13 16  2  0  0  0  0
 13 17  1  0  0  0  0
 14 20  1  0  0  0  0
 15 13  2  0  0  0  0
 18 14  1  0  0  0  0
 19 14  1  0  0  0  0
 21 22  1  0  0  0  0
 22 23  1  0  0  0  0
 22 25  1  0  0  0  0
 24 22  1  0  0  0  0
M  RAD  3  11   2  12   3  17   2
M  END
