Coordinates from ORCA-job p-CH3O-Ph-N2-OTf-B3LYPG-aug-cc-pVDZ-scan-d29-49-n200
 OpenBabel01151817073D

 25 24  0  0  0  0  0  0  0  0999 V2000
   -2.2034   -0.0446   -7.3004 C   0  0  0  0  0  0  0  0  0  0  0  0
   -0.8853    0.3955   -7.3321 C   0  0  0  0  0  0  0  0  0  0  0  0
   -0.2865    0.8355   -6.1488 C   0  0  0  0  0  0  0  0  0  0  0  0
   -0.9882    0.8568   -4.9497 C   0  0  0  0  0  0  0  0  0  0  0  0
   -2.3182    0.4221   -4.9175 C   0  0  0  0  0  0  0  0  0  0  0  0
   -2.9272   -0.0365   -6.0949 C   0  0  0  0  0  0  0  0  0  0  0  0
   -2.6955   -0.3978   -8.2052 H   0  0  0  0  0  0  0  0  0  0  0  0
   -0.3230    0.4006   -8.2636 H   0  0  0  0  0  0  0  0  0  0  0  0
   -0.5066    1.2251   -4.0455 H   0  0  0  0  0  0  0  0  0  0  0  0
   -2.8580    0.4481   -3.9746 H   0  0  0  0  0  0  0  0  0  0  0  0
   -1.3962    4.2953   -6.9657 N   0  0  0  0  0  0  0  0  0  0  0  0
   -2.4355    4.6647   -6.9089 N   0  0  0  0  0  0  0  0  0  0  0  0
    2.3380    0.3817   -6.3562 S   0  0  0  0  0  0  0  0  0  0  0  0
    2.7730    0.0669   -4.5280 C   0  0  0  0  0  0  0  0  0  0  0  0
    1.9494   -0.9138   -6.9380 O   0  0  0  0  0  0  0  0  0  0  0  0
    3.4034    1.2331   -6.8995 O   0  0  0  0  0  0  0  0  0  0  0  0
    1.0148    1.3845   -6.1739 O   0  0  0  0  0  0  0  0  0  0  0  0
    1.7877   -0.6176   -3.9359 F   0  0  0  0  0  0  0  0  0  0  0  0
    3.9012   -0.6460   -4.4844 F   0  0  0  0  0  0  0  0  0  0  0  0
    2.9506    1.2301   -3.8980 F   0  0  0  0  0  0  0  0  0  0  0  0
   -4.2113   -0.4869   -6.1752 O   0  0  0  0  0  0  0  0  0  0  0  0
   -4.9985   -0.5025   -4.9874 C   0  0  0  0  0  0  0  0  0  0  0  0
   -5.9746   -0.8972   -5.2842 H   0  0  0  0  0  0  0  0  0  0  0  0
   -5.1220    0.5120   -4.5785 H   0  0  0  0  0  0  0  0  0  0  0  0
   -4.5537   -1.1589   -4.2240 H   0  0  0  0  0  0  0  0  0  0  0  0
  1  6  1  0  0  0  0
  2  1  2  0  0  0  0
  2  3  1  0  0  0  0
  3  4  2  0  0  0  0
  4  5  1  0  0  0  0
  4  9  1  0  0  0  0
  5 10  1  0  0  0  0
  6  5  2  0  0  0  0
  7  1  1  0  0  0  0
  8  2  1  0  0  0  0
 11 12  3  0  0  0  0
 13 17  1  0  0  0  0
 13 14  1  0  0  0  0
 14 19  1  0  0  0  0
 14 18  1  0  0  0  0
 14 20  1  0  0  0  0
 15 13  2  0  0  0  0
 16 13  2  0  0  0  0
 17  3  1  0  0  0  0
 21  6  1  0  0  0  0
 21 22  1  0  0  0  0
 22 24  1  0  0  0  0
 22 25  1  0  0  0  0
 23 22  1  0  0  0  0
M  END
