Coordinates from ORCA-job p-CH3O-Ph-N2-OTf-B3LYPG-aug-cc-pVDZ-scan-d09-29-n200
 OpenBabel01151817073D

 25 24  0  0  0  0  0  0  0  0999 V2000
   -1.8406   -0.3598   -6.4507 C   0  0  0  0  0  0  0  0  0  0  0  0
   -0.9343    0.6234   -6.7712 C   0  0  0  0  0  0  0  0  0  0  0  0
   -1.1979    1.9531   -6.3364 C   0  0  0  0  0  0  0  0  0  0  0  0
   -2.3528    2.2700   -5.5793 C   0  0  0  0  0  0  0  0  0  0  0  0
   -3.2480    1.2684   -5.2614 C   0  0  0  0  0  0  0  0  0  0  0  0
   -2.9973   -0.0566   -5.6953 C   0  0  0  0  0  0  0  0  0  0  0  0
   -1.6671   -1.3913   -6.7509 H   0  0  0  0  0  0  0  0  0  0  0  0
   -0.0026    0.4360   -7.3080 H   0  0  0  0  0  0  0  0  0  0  0  0
   -2.5192    3.2937   -5.2478 H   0  0  0  0  0  0  0  0  0  0  0  0
   -4.1292    1.5119   -4.6752 H   0  0  0  0  0  0  0  0  0  0  0  0
   -0.3655    2.8874   -6.6147 N   0  0  0  0  0  0  0  0  0  0  0  0
    0.3512    3.7090   -6.8640 N   0  0  0  0  0  0  0  0  0  0  0  0
    2.4950    1.1202   -5.9654 S   0  0  0  0  0  0  0  0  0  0  0  0
    2.7712   -0.7368   -5.6834 C   0  0  0  0  0  0  0  0  0  0  0  0
    1.9704    1.1649   -7.3866 O   0  0  0  0  0  0  0  0  0  0  0  0
    3.8312    1.7304   -5.7433 O   0  0  0  0  0  0  0  0  0  0  0  0
    1.4230    1.4577   -4.9567 O   0  0  0  0  0  0  0  0  0  0  0  0
    1.6158   -1.4240   -5.8924 F   0  0  0  0  0  0  0  0  0  0  0  0
    3.6958   -1.2243   -6.5277 F   0  0  0  0  0  0  0  0  0  0  0  0
    3.1714   -0.9822   -4.4240 F   0  0  0  0  0  0  0  0  0  0  0  0
   -3.8012   -1.0917   -5.4334 O   0  0  0  0  0  0  0  0  0  0  0  0
   -4.9864   -0.8959   -4.6447 C   0  0  0  0  0  0  0  0  0  0  0  0
   -5.4477   -1.8835   -4.5708 H   0  0  0  0  0  0  0  0  0  0  0  0
   -5.6738   -0.2000   -5.1445 H   0  0  0  0  0  0  0  0  0  0  0  0
   -4.7270   -0.5297   -3.6423 H   0  0  0  0  0  0  0  0  0  0  0  0
  1  6  1  0  0  0  0
  2  1  2  0  0  0  0
  2  3  1  0  0  0  0
  3  4  2  0  0  0  0
  4  5  1  0  0  0  0
  4  9  1  0  0  0  0
  5 10  1  0  0  0  0
  6 21  1  0  0  0  0
  6  5  2  0  0  0  0
  7  1  1  0  0  0  0
  8  2  1  0  0  0  0
 11  3  1  0  0  0  0
 12 11  1  0  0  0  0
 13 16  2  0  0  0  0
 13 14  1  0  0  0  0
 13 17  1  0  0  0  0
 14 20  1  0  0  0  0
 15 13  2  0  0  0  0
 18 14  1  0  0  0  0
 19 14  1  0  0  0  0
 21 22  1  0  0  0  0
 22 23  1  0  0  0  0
 22 25  1  0  0  0  0
 24 22  1  0  0  0  0
M  RAD  3  11   2  12   3  17   2
M  END
