Coordinates from ORCA-job p-CH3O-Ph-N2-OTf-B3LYPG-aug-cc-pVDZ-scan-d09-29-n200
 OpenBabel01151817073D

 25 24  0  0  0  0  0  0  0  0999 V2000
   -1.8763   -0.4006   -6.4293 C   0  0  0  0  0  0  0  0  0  0  0  0
   -0.9408    0.5707   -6.7259 C   0  0  0  0  0  0  0  0  0  0  0  0
   -1.2134    1.8695   -6.2682 C   0  0  0  0  0  0  0  0  0  0  0  0
   -2.3477    2.2325   -5.5336 C   0  0  0  0  0  0  0  0  0  0  0  0
   -3.2712    1.2379   -5.2435 C   0  0  0  0  0  0  0  0  0  0  0  0
   -3.0390   -0.0828   -5.6907 C   0  0  0  0  0  0  0  0  0  0  0  0
   -1.7206   -1.4311   -6.7423 H   0  0  0  0  0  0  0  0  0  0  0  0
   -0.0046    0.3782   -7.2530 H   0  0  0  0  0  0  0  0  0  0  0  0
   -2.4961    3.2552   -5.1935 H   0  0  0  0  0  0  0  0  0  0  0  0
   -4.1572    1.4922   -4.6694 H   0  0  0  0  0  0  0  0  0  0  0  0
   -0.2643    2.9154   -6.5626 N   0  0  0  0  0  0  0  0  0  0  0  0
    0.4175    3.7592   -6.7958 N   0  0  0  0  0  0  0  0  0  0  0  0
    2.5561    1.1546   -6.0425 S   0  0  0  0  0  0  0  0  0  0  0  0
    2.8119   -0.6893   -5.6709 C   0  0  0  0  0  0  0  0  0  0  0  0
    1.9417    1.1353   -7.4284 O   0  0  0  0  0  0  0  0  0  0  0  0
    3.9157    1.7447   -5.9408 O   0  0  0  0  0  0  0  0  0  0  0  0
    1.5573    1.5787   -4.9915 O   0  0  0  0  0  0  0  0  0  0  0  0
    1.6338   -1.3602   -5.7724 F   0  0  0  0  0  0  0  0  0  0  0  0
    3.6752   -1.2423   -6.5393 F   0  0  0  0  0  0  0  0  0  0  0  0
    3.2824   -0.8708   -4.4256 F   0  0  0  0  0  0  0  0  0  0  0  0
   -3.8707   -1.1100   -5.4572 O   0  0  0  0  0  0  0  0  0  0  0  0
   -5.0631   -0.8945   -4.6895 C   0  0  0  0  0  0  0  0  0  0  0  0
   -5.5509   -1.8708   -4.6344 H   0  0  0  0  0  0  0  0  0  0  0  0
   -5.7258   -0.1762   -5.1922 H   0  0  0  0  0  0  0  0  0  0  0  0
   -4.8158   -0.5453   -3.6774 H   0  0  0  0  0  0  0  0  0  0  0  0
  1  6  1  0  0  0  0
  2  1  2  0  0  0  0
  2  3  1  0  0  0  0
  3  4  2  0  0  0  0
  4  5  1  0  0  0  0
  4  9  1  0  0  0  0
  5 10  1  0  0  0  0
  6 21  1  0  0  0  0
  6  5  2  0  0  0  0
  7  1  1  0  0  0  0
  8  2  1  0  0  0  0
 11  3  1  0  0  0  0
 12 11  1  0  0  0  0
 13 16  2  0  0  0  0
 13 14  1  0  0  0  0
 13 17  1  0  0  0  0
 14 20  1  0  0  0  0
 15 13  2  0  0  0  0
 18 14  1  0  0  0  0
 19 14  1  0  0  0  0
 21 22  1  0  0  0  0
 22 23  1  0  0  0  0
 22 25  1  0  0  0  0
 24 22  1  0  0  0  0
M  RAD  3  11   2  12   3  17   2
M  END
