Coordinates from ORCA-job p-CH3O-Ph-N2-OTf-B3LYPG-aug-cc-pVDZ-scan-d09-29-n200
 OpenBabel01151817073D

 25 24  0  0  0  0  0  0  0  0999 V2000
   -1.9155   -0.4307   -6.4155 C   0  0  0  0  0  0  0  0  0  0  0  0
   -0.9380    0.5264   -6.6736 C   0  0  0  0  0  0  0  0  0  0  0  0
   -1.2488    1.7677   -6.1736 C   0  0  0  0  0  0  0  0  0  0  0  0
   -2.3339    2.1997   -5.4518 C   0  0  0  0  0  0  0  0  0  0  0  0
   -3.2903    1.2050   -5.2092 C   0  0  0  0  0  0  0  0  0  0  0  0
   -3.0826   -0.1034   -5.6908 C   0  0  0  0  0  0  0  0  0  0  0  0
   -1.7771   -1.4545   -6.7582 H   0  0  0  0  0  0  0  0  0  0  0  0
    0.0101    0.3381   -7.1879 H   0  0  0  0  0  0  0  0  0  0  0  0
   -2.4523    3.2168   -5.0891 H   0  0  0  0  0  0  0  0  0  0  0  0
   -4.1794    1.4700   -4.6444 H   0  0  0  0  0  0  0  0  0  0  0  0
   -0.0989    3.0122   -6.4924 N   0  0  0  0  0  0  0  0  0  0  0  0
    0.4461    3.9362   -6.7514 N   0  0  0  0  0  0  0  0  0  0  0  0
    2.5731    1.1387   -6.1606 S   0  0  0  0  0  0  0  0  0  0  0  0
    2.8832   -0.6571   -5.6315 C   0  0  0  0  0  0  0  0  0  0  0  0
    1.8844    0.9857   -7.5020 O   0  0  0  0  0  0  0  0  0  0  0  0
    3.9210    1.7613   -6.1871 O   0  0  0  0  0  0  0  0  0  0  0  0
    1.6215    1.6452   -5.0975 O   0  0  0  0  0  0  0  0  0  0  0  0
    1.7154   -1.3484   -5.6065 F   0  0  0  0  0  0  0  0  0  0  0  0
    3.7106   -1.2736   -6.4914 F   0  0  0  0  0  0  0  0  0  0  0  0
    3.4232   -0.7105   -4.4031 F   0  0  0  0  0  0  0  0  0  0  0  0
   -3.9481   -1.1219   -5.5035 O   0  0  0  0  0  0  0  0  0  0  0  0
   -5.1433   -0.8899   -4.7513 C   0  0  0  0  0  0  0  0  0  0  0  0
   -5.6646   -1.8503   -4.7296 H   0  0  0  0  0  0  0  0  0  0  0  0
   -5.7764   -0.1371   -5.2431 H   0  0  0  0  0  0  0  0  0  0  0  0
   -4.9051   -0.5752   -3.7250 H   0  0  0  0  0  0  0  0  0  0  0  0
  1  6  1  0  0  0  0
  2  1  2  0  0  0  0
  2  3  1  0  0  0  0
  3  4  2  0  0  0  0
  4  5  1  0  0  0  0
  4  9  1  0  0  0  0
  5 10  1  0  0  0  0
  6 21  1  0  0  0  0
  6  5  2  0  0  0  0
  7  1  1  0  0  0  0
  8  2  1  0  0  0  0
 11  3  1  0  0  0  0
 12 11  1  0  0  0  0
 13 14  1  0  0  0  0
 13 17  1  0  0  0  0
 14 18  1  0  0  0  0
 14 20  1  0  0  0  0
 15 13  2  0  0  0  0
 16 13  2  0  0  0  0
 19 14  1  0  0  0  0
 21 22  1  0  0  0  0
 22 23  1  0  0  0  0
 22 25  1  0  0  0  0
 24 22  1  0  0  0  0
M  RAD  3  11   2  12   3  17   2
M  END
