Coordinates from ORCA-job p-CH3O-Ph-N2-OTf-B3LYPG-aug-cc-pVDZ-scan-d29-49-n200
 OpenBabel01151817073D

 25 24  0  0  0  0  0  0  0  0999 V2000
   -2.2309   -0.0139   -7.3067 C   0  0  0  0  0  0  0  0  0  0  0  0
   -0.9192    0.4443   -7.3413 C   0  0  0  0  0  0  0  0  0  0  0  0
   -0.3266    0.9012   -6.1619 C   0  0  0  0  0  0  0  0  0  0  0  0
   -1.0229    0.9052   -4.9599 C   0  0  0  0  0  0  0  0  0  0  0  0
   -2.3470    0.4532   -4.9241 C   0  0  0  0  0  0  0  0  0  0  0  0
   -2.9536   -0.0122   -6.1003 C   0  0  0  0  0  0  0  0  0  0  0  0
   -2.7193   -0.3765   -8.2098 H   0  0  0  0  0  0  0  0  0  0  0  0
   -0.3585    0.4531   -8.2737 H   0  0  0  0  0  0  0  0  0  0  0  0
   -0.5434    1.2768   -4.0560 H   0  0  0  0  0  0  0  0  0  0  0  0
   -2.8842    0.4703   -3.9796 H   0  0  0  0  0  0  0  0  0  0  0  0
   -1.0749    3.7247   -6.8027 N   0  0  0  0  0  0  0  0  0  0  0  0
   -2.0656    4.2130   -6.7932 N   0  0  0  0  0  0  0  0  0  0  0  0
    2.2996    0.4646   -6.3784 S   0  0  0  0  0  0  0  0  0  0  0  0
    2.7404    0.1380   -4.5536 C   0  0  0  0  0  0  0  0  0  0  0  0
    1.9204   -0.8292   -6.9701 O   0  0  0  0  0  0  0  0  0  0  0  0
    3.3585    1.3275   -6.9163 O   0  0  0  0  0  0  0  0  0  0  0  0
    0.9709    1.4571   -6.1868 O   0  0  0  0  0  0  0  0  0  0  0  0
    1.7612   -0.5580   -3.9648 F   0  0  0  0  0  0  0  0  0  0  0  0
    3.8735   -0.5676   -4.5183 F   0  0  0  0  0  0  0  0  0  0  0  0
    2.9117    1.2971   -3.9143 F   0  0  0  0  0  0  0  0  0  0  0  0
   -4.2321   -0.4775   -6.1780 O   0  0  0  0  0  0  0  0  0  0  0  0
   -5.0176   -0.4996   -4.9891 C   0  0  0  0  0  0  0  0  0  0  0  0
   -5.9902   -0.9042   -5.2843 H   0  0  0  0  0  0  0  0  0  0  0  0
   -5.1504    0.5140   -4.5812 H   0  0  0  0  0  0  0  0  0  0  0  0
   -4.5655   -1.1510   -4.2258 H   0  0  0  0  0  0  0  0  0  0  0  0
  1  6  1  0  0  0  0
  2  1  2  0  0  0  0
  2  3  1  0  0  0  0
  3  4  2  0  0  0  0
  4  5  1  0  0  0  0
  4  9  1  0  0  0  0
  5 10  1  0  0  0  0
  6  5  2  0  0  0  0
  7  1  1  0  0  0  0
  8  2  1  0  0  0  0
 11 12  3  0  0  0  0
 13 17  1  0  0  0  0
 13 14  1  0  0  0  0
 14 19  1  0  0  0  0
 14 18  1  0  0  0  0
 14 20  1  0  0  0  0
 15 13  2  0  0  0  0
 16 13  2  0  0  0  0
 17  3  1  0  0  0  0
 21  6  1  0  0  0  0
 21 22  1  0  0  0  0
 22 24  1  0  0  0  0
 22 25  1  0  0  0  0
 23 22  1  0  0  0  0
M  END
