Coordinates from ORCA-job p-CH3O-Ph-N2-OTf-B3LYPG-aug-cc-pVDZ-scan-d29-49-n200
 OpenBabel01151817073D

 25 24  0  0  0  0  0  0  0  0999 V2000
   -2.1848   -0.0551   -7.2972 C   0  0  0  0  0  0  0  0  0  0  0  0
   -0.8638    0.3763   -7.3267 C   0  0  0  0  0  0  0  0  0  0  0  0
   -0.2636    0.8114   -6.1422 C   0  0  0  0  0  0  0  0  0  0  0  0
   -0.9672    0.8374   -4.9443 C   0  0  0  0  0  0  0  0  0  0  0  0
   -2.3001    0.4114   -4.9142 C   0  0  0  0  0  0  0  0  0  0  0  0
   -2.9102   -0.0431   -6.0926 C   0  0  0  0  0  0  0  0  0  0  0  0
   -2.6779   -0.4045   -8.2029 H   0  0  0  0  0  0  0  0  0  0  0  0
   -0.3002    0.3783   -8.2574 H   0  0  0  0  0  0  0  0  0  0  0  0
   -0.4848    1.2023   -4.0392 H   0  0  0  0  0  0  0  0  0  0  0  0
   -2.8412    0.4408   -3.9721 H   0  0  0  0  0  0  0  0  0  0  0  0
   -1.5909    4.5580   -7.0448 N   0  0  0  0  0  0  0  0  0  0  0  0
   -2.6504    4.8603   -6.9684 N   0  0  0  0  0  0  0  0  0  0  0  0
    2.3583    0.3391   -6.3443 S   0  0  0  0  0  0  0  0  0  0  0  0
    2.7891    0.0250   -4.5150 C   0  0  0  0  0  0  0  0  0  0  0  0
    1.9613   -0.9548   -6.9241 O   0  0  0  0  0  0  0  0  0  0  0  0
    3.4300    1.1823   -6.8881 O   0  0  0  0  0  0  0  0  0  0  0  0
    1.0416    1.3514   -6.1653 O   0  0  0  0  0  0  0  0  0  0  0  0
    1.7985   -0.6515   -3.9226 F   0  0  0  0  0  0  0  0  0  0  0  0
    3.9124   -0.6955   -4.4688 F   0  0  0  0  0  0  0  0  0  0  0  0
    2.9740    1.1882   -3.8872 F   0  0  0  0  0  0  0  0  0  0  0  0
   -4.1969   -0.4858   -6.1749 O   0  0  0  0  0  0  0  0  0  0  0  0
   -4.9857   -0.4972   -4.9881 C   0  0  0  0  0  0  0  0  0  0  0  0
   -5.9637   -0.8861   -5.2863 H   0  0  0  0  0  0  0  0  0  0  0  0
   -5.1039    0.5178   -4.5790 H   0  0  0  0  0  0  0  0  0  0  0  0
   -4.5457   -1.1564   -4.2244 H   0  0  0  0  0  0  0  0  0  0  0  0
  1  6  1  0  0  0  0
  2  1  2  0  0  0  0
  2  3  1  0  0  0  0
  3  4  2  0  0  0  0
  4  5  1  0  0  0  0
  4  9  1  0  0  0  0
  5 10  1  0  0  0  0
  6  5  2  0  0  0  0
  7  1  1  0  0  0  0
  8  2  1  0  0  0  0
 11 12  3  0  0  0  0
 13 17  1  0  0  0  0
 13 14  1  0  0  0  0
 14 19  1  0  0  0  0
 14 18  1  0  0  0  0
 14 20  1  0  0  0  0
 15 13  2  0  0  0  0
 16 13  2  0  0  0  0
 17  3  1  0  0  0  0
 21  6  1  0  0  0  0
 21 22  1  0  0  0  0
 22 24  1  0  0  0  0
 22 25  1  0  0  0  0
 23 22  1  0  0  0  0
M  END
