Coordinates from ORCA-job p-CH3O-Ph-N2-OTf-B3LYPG-aug-cc-pVDZ-scan-d29-49-n200
 OpenBabel01151817073D

 25 24  0  0  0  0  0  0  0  0999 V2000
   -2.2039   -0.0443   -7.3005 C   0  0  0  0  0  0  0  0  0  0  0  0
   -0.8860    0.3961   -7.3323 C   0  0  0  0  0  0  0  0  0  0  0  0
   -0.2872    0.8362   -6.1490 C   0  0  0  0  0  0  0  0  0  0  0  0
   -0.9888    0.8574   -4.9499 C   0  0  0  0  0  0  0  0  0  0  0  0
   -2.3188    0.4224   -4.9175 C   0  0  0  0  0  0  0  0  0  0  0  0
   -2.9276   -0.0363   -6.0949 C   0  0  0  0  0  0  0  0  0  0  0  0
   -2.6960   -0.3976   -8.2053 H   0  0  0  0  0  0  0  0  0  0  0  0
   -0.3236    0.4012   -8.2638 H   0  0  0  0  0  0  0  0  0  0  0  0
   -0.5072    1.2257   -4.0457 H   0  0  0  0  0  0  0  0  0  0  0  0
   -2.8585    0.4484   -3.9746 H   0  0  0  0  0  0  0  0  0  0  0  0
   -1.3907    4.2878   -6.9635 N   0  0  0  0  0  0  0  0  0  0  0  0
   -2.4293    4.6589   -6.9072 N   0  0  0  0  0  0  0  0  0  0  0  0
    2.3374    0.3830   -6.3565 S   0  0  0  0  0  0  0  0  0  0  0  0
    2.7725    0.0681   -4.5284 C   0  0  0  0  0  0  0  0  0  0  0  0
    1.9491   -0.9126   -6.9385 O   0  0  0  0  0  0  0  0  0  0  0  0
    3.4026    1.2346   -6.8998 O   0  0  0  0  0  0  0  0  0  0  0  0
    1.0141    1.3855   -6.1741 O   0  0  0  0  0  0  0  0  0  0  0  0
    1.7873   -0.6167   -3.9364 F   0  0  0  0  0  0  0  0  0  0  0  0
    3.9009   -0.6446   -4.4849 F   0  0  0  0  0  0  0  0  0  0  0  0
    2.9499    1.2312   -3.8982 F   0  0  0  0  0  0  0  0  0  0  0  0
   -4.2117   -0.4869   -6.1752 O   0  0  0  0  0  0  0  0  0  0  0  0
   -4.9988   -0.5026   -4.9873 C   0  0  0  0  0  0  0  0  0  0  0  0
   -5.9749   -0.8975   -5.2841 H   0  0  0  0  0  0  0  0  0  0  0  0
   -5.1225    0.5118   -4.5785 H   0  0  0  0  0  0  0  0  0  0  0  0
   -4.5539   -1.1589   -4.2240 H   0  0  0  0  0  0  0  0  0  0  0  0
  1  6  1  0  0  0  0
  2  1  2  0  0  0  0
  2  3  1  0  0  0  0
  3  4  2  0  0  0  0
  4  5  1  0  0  0  0
  4  9  1  0  0  0  0
  5 10  1  0  0  0  0
  6  5  2  0  0  0  0
  7  1  1  0  0  0  0
  8  2  1  0  0  0  0
 11 12  3  0  0  0  0
 13 17  1  0  0  0  0
 13 14  1  0  0  0  0
 14 19  1  0  0  0  0
 14 18  1  0  0  0  0
 14 20  1  0  0  0  0
 15 13  2  0  0  0  0
 16 13  2  0  0  0  0
 17  3  1  0  0  0  0
 21  6  1  0  0  0  0
 21 22  1  0  0  0  0
 22 24  1  0  0  0  0
 22 25  1  0  0  0  0
 23 22  1  0  0  0  0
M  END
