Coordinates from ORCA-job p-CH3O-Ph-N2-OTf-B3LYPG-aug-cc-pVDZ-scan-d09-29-n200
 OpenBabel01151817073D

 25 23  0  0  0  0  0  0  0  0999 V2000
   -1.9546   -0.3667   -6.3048 C   0  0  0  0  0  0  0  0  0  0  0  0
   -0.9529    0.6078   -6.4603 C   0  0  0  0  0  0  0  0  0  0  0  0
   -1.3765    1.7757   -5.9424 C   0  0  0  0  0  0  0  0  0  0  0  0
   -2.4850    2.2409   -5.3109 C   0  0  0  0  0  0  0  0  0  0  0  0
   -3.4491    1.2205   -5.1798 C   0  0  0  0  0  0  0  0  0  0  0  0
   -3.1831   -0.0720   -5.6757 C   0  0  0  0  0  0  0  0  0  0  0  0
   -1.7664   -1.3765   -6.6678 H   0  0  0  0  0  0  0  0  0  0  0  0
    0.0502    0.4057   -6.9164 H   0  0  0  0  0  0  0  0  0  0  0  0
   -2.6370    3.2513   -4.9456 H   0  0  0  0  0  0  0  0  0  0  0  0
   -4.3865    1.4690   -4.6897 H   0  0  0  0  0  0  0  0  0  0  0  0
   -0.0579    3.2848   -6.1583 N   0  0  0  0  0  0  0  0  0  0  0  0
    0.4696    4.2416   -6.3069 N   0  0  0  0  0  0  0  0  0  0  0  0
    2.5871    0.8745   -6.4900 S   0  0  0  0  0  0  0  0  0  0  0  0
    3.2707   -0.6415   -5.5796 C   0  0  0  0  0  0  0  0  0  0  0  0
    1.6617    0.2521   -7.5259 O   0  0  0  0  0  0  0  0  0  0  0  0
    3.7812    1.5653   -7.0383 O   0  0  0  0  0  0  0  0  0  0  0  0
    1.8179    1.6014   -5.4133 O   0  0  0  0  0  0  0  0  0  0  0  0
    2.2590   -1.3702   -5.0571 F   0  0  0  0  0  0  0  0  0  0  0  0
    3.9652   -1.4277   -6.4186 F   0  0  0  0  0  0  0  0  0  0  0  0
    4.0802   -0.2654   -4.5752 F   0  0  0  0  0  0  0  0  0  0  0  0
   -4.0500   -1.1061   -5.5916 O   0  0  0  0  0  0  0  0  0  0  0  0
   -5.3107   -0.9006   -4.9486 C   0  0  0  0  0  0  0  0  0  0  0  0
   -5.8240   -1.8645   -4.9966 H   0  0  0  0  0  0  0  0  0  0  0  0
   -5.9031   -0.1407   -5.4793 H   0  0  0  0  0  0  0  0  0  0  0  0
   -5.1719   -0.6085   -3.8973 H   0  0  0  0  0  0  0  0  0  0  0  0
  1  6  1  0  0  0  0
  2  1  2  0  0  0  0
  2  3  1  0  0  0  0
  3  4  2  0  0  0  0
  4  5  1  0  0  0  0
  4  9  1  0  0  0  0
  5 10  1  0  0  0  0
  6 21  1  0  0  0  0
  6  5  2  0  0  0  0
  7  1  1  0  0  0  0
  8  2  1  0  0  0  0
 12 11  3  0  0  0  0
 13 14  1  0  0  0  0
 13 17  1  0  0  0  0
 14 18  1  0  0  0  0
 14 20  1  0  0  0  0
 15 13  2  0  0  0  0
 16 13  2  0  0  0  0
 19 14  1  0  0  0  0
 21 22  1  0  0  0  0
 22 25  1  0  0  0  0
 23 22  1  0  0  0  0
 24 22  1  0  0  0  0
M  RAD  2   3   2  17   2
M  END
