Coordinates from ORCA-job p-CH3O-Ph-N2-OTf-B3LYPG-aug-cc-pVDZ-scan-d29-49-n200
 OpenBabel01151817073D

 25 24  0  0  0  0  0  0  0  0999 V2000
   -2.1769   -0.0587   -7.2959 C   0  0  0  0  0  0  0  0  0  0  0  0
   -0.8547    0.3688   -7.3244 C   0  0  0  0  0  0  0  0  0  0  0  0
   -0.2538    0.8018   -6.1395 C   0  0  0  0  0  0  0  0  0  0  0  0
   -0.9583    0.8295   -4.9420 C   0  0  0  0  0  0  0  0  0  0  0  0
   -2.2924    0.4074   -4.9130 C   0  0  0  0  0  0  0  0  0  0  0  0
   -2.9030   -0.0450   -6.0919 C   0  0  0  0  0  0  0  0  0  0  0  0
   -2.6705   -0.4064   -8.2022 H   0  0  0  0  0  0  0  0  0  0  0  0
   -0.2904    0.3694   -8.2549 H   0  0  0  0  0  0  0  0  0  0  0  0
   -0.4754    1.1929   -4.0365 H   0  0  0  0  0  0  0  0  0  0  0  0
   -2.8340    0.4383   -3.9713 H   0  0  0  0  0  0  0  0  0  0  0  0
   -1.6734    4.6602   -7.0759 N   0  0  0  0  0  0  0  0  0  0  0  0
   -2.7405    4.9318   -6.9907 N   0  0  0  0  0  0  0  0  0  0  0  0
    2.3669    0.3220   -6.3394 S   0  0  0  0  0  0  0  0  0  0  0  0
    2.7960    0.0079   -4.5097 C   0  0  0  0  0  0  0  0  0  0  0  0
    1.9666   -0.9712   -6.9186 O   0  0  0  0  0  0  0  0  0  0  0  0
    3.4412    1.1619   -6.8833 O   0  0  0  0  0  0  0  0  0  0  0  0
    1.0528    1.3380   -6.1618 O   0  0  0  0  0  0  0  0  0  0  0  0
    1.8033   -0.6655   -3.9174 F   0  0  0  0  0  0  0  0  0  0  0  0
    3.9173   -0.7156   -4.4625 F   0  0  0  0  0  0  0  0  0  0  0  0
    2.9838    1.1710   -3.8827 F   0  0  0  0  0  0  0  0  0  0  0  0
   -4.1910   -0.4837   -6.1751 O   0  0  0  0  0  0  0  0  0  0  0  0
   -4.9806   -0.4932   -4.9888 C   0  0  0  0  0  0  0  0  0  0  0  0
   -5.9595   -0.8793   -5.2878 H   0  0  0  0  0  0  0  0  0  0  0  0
   -5.0961    0.5219   -4.5795 H   0  0  0  0  0  0  0  0  0  0  0  0
   -4.5430   -1.1540   -4.2251 H   0  0  0  0  0  0  0  0  0  0  0  0
  1  6  1  0  0  0  0
  2  1  2  0  0  0  0
  2  3  1  0  0  0  0
  3  4  2  0  0  0  0
  4  5  1  0  0  0  0
  4  9  1  0  0  0  0
  5 10  1  0  0  0  0
  6  5  2  0  0  0  0
  7  1  1  0  0  0  0
  8  2  1  0  0  0  0
 11 12  3  0  0  0  0
 13 17  1  0  0  0  0
 13 14  1  0  0  0  0
 14 19  1  0  0  0  0
 14 18  1  0  0  0  0
 14 20  1  0  0  0  0
 15 13  2  0  0  0  0
 16 13  2  0  0  0  0
 17  3  1  0  0  0  0
 21  6  1  0  0  0  0
 21 22  1  0  0  0  0
 22 24  1  0  0  0  0
 22 25  1  0  0  0  0
 23 22  1  0  0  0  0
M  END
