Coordinates from ORCA-job p-CH3O-Ph-N2-OTf-B3LYPG-aug-cc-pVDZ-scan-d29-49-n200
 OpenBabel01151817073D

 25 24  0  0  0  0  0  0  0  0999 V2000
   -2.1792   -0.0577   -7.2963 C   0  0  0  0  0  0  0  0  0  0  0  0
   -0.8573    0.3709   -7.3251 C   0  0  0  0  0  0  0  0  0  0  0  0
   -0.2567    0.8045   -6.1403 C   0  0  0  0  0  0  0  0  0  0  0  0
   -0.9609    0.8318   -4.9427 C   0  0  0  0  0  0  0  0  0  0  0  0
   -2.2946    0.4085   -4.9133 C   0  0  0  0  0  0  0  0  0  0  0  0
   -2.9051   -0.0445   -6.0921 C   0  0  0  0  0  0  0  0  0  0  0  0
   -2.6726   -0.4059   -8.2024 H   0  0  0  0  0  0  0  0  0  0  0  0
   -0.2933    0.3719   -8.2556 H   0  0  0  0  0  0  0  0  0  0  0  0
   -0.4781    1.1956   -4.0373 H   0  0  0  0  0  0  0  0  0  0  0  0
   -2.8361    0.4389   -3.9715 H   0  0  0  0  0  0  0  0  0  0  0  0
   -1.6495    4.6312   -7.0671 N   0  0  0  0  0  0  0  0  0  0  0  0
   -2.7145    4.9118   -6.9844 N   0  0  0  0  0  0  0  0  0  0  0  0
    2.3644    0.3269   -6.3408 S   0  0  0  0  0  0  0  0  0  0  0  0
    2.7940    0.0128   -4.5112 C   0  0  0  0  0  0  0  0  0  0  0  0
    1.9651   -0.9665   -6.9202 O   0  0  0  0  0  0  0  0  0  0  0  0
    3.4379    1.1677   -6.8847 O   0  0  0  0  0  0  0  0  0  0  0  0
    1.0496    1.3419   -6.1628 O   0  0  0  0  0  0  0  0  0  0  0  0
    1.8019   -0.6615   -3.9189 F   0  0  0  0  0  0  0  0  0  0  0  0
    3.9159   -0.7098   -4.4643 F   0  0  0  0  0  0  0  0  0  0  0  0
    2.9809    1.1760   -3.8840 F   0  0  0  0  0  0  0  0  0  0  0  0
   -4.1927   -0.4844   -6.1750 O   0  0  0  0  0  0  0  0  0  0  0  0
   -4.9821   -0.4945   -4.9886 C   0  0  0  0  0  0  0  0  0  0  0  0
   -5.9607   -0.8813   -5.2873 H   0  0  0  0  0  0  0  0  0  0  0  0
   -5.0983    0.5207   -4.5793 H   0  0  0  0  0  0  0  0  0  0  0  0
   -4.5438   -1.1548   -4.2248 H   0  0  0  0  0  0  0  0  0  0  0  0
  1  6  1  0  0  0  0
  2  1  2  0  0  0  0
  2  3  1  0  0  0  0
  3  4  2  0  0  0  0
  4  5  1  0  0  0  0
  4  9  1  0  0  0  0
  5 10  1  0  0  0  0
  6  5  2  0  0  0  0
  7  1  1  0  0  0  0
  8  2  1  0  0  0  0
 11 12  3  0  0  0  0
 13 17  1  0  0  0  0
 13 14  1  0  0  0  0
 14 19  1  0  0  0  0
 14 18  1  0  0  0  0
 14 20  1  0  0  0  0
 15 13  2  0  0  0  0
 16 13  2  0  0  0  0
 17  3  1  0  0  0  0
 21  6  1  0  0  0  0
 21 22  1  0  0  0  0
 22 24  1  0  0  0  0
 22 25  1  0  0  0  0
 23 22  1  0  0  0  0
M  END
