Coordinates from ORCA-job p-CH3O-Ph-N2-OTf-B3LYPG-aug-cc-pVDZ-scan-d29-49-n200
 OpenBabel01151817073D

 25 24  0  0  0  0  0  0  0  0999 V2000
   -2.2304   -0.0155   -7.3062 C   0  0  0  0  0  0  0  0  0  0  0  0
   -0.9187    0.4425   -7.3409 C   0  0  0  0  0  0  0  0  0  0  0  0
   -0.3259    0.8991   -6.1614 C   0  0  0  0  0  0  0  0  0  0  0  0
   -1.0225    0.9039   -4.9595 C   0  0  0  0  0  0  0  0  0  0  0  0
   -2.3466    0.4522   -4.9237 C   0  0  0  0  0  0  0  0  0  0  0  0
   -2.9531   -0.0134   -6.0999 C   0  0  0  0  0  0  0  0  0  0  0  0
   -2.7189   -0.3780   -8.2093 H   0  0  0  0  0  0  0  0  0  0  0  0
   -0.3579    0.4511   -8.2733 H   0  0  0  0  0  0  0  0  0  0  0  0
   -0.5429    1.2758   -4.0558 H   0  0  0  0  0  0  0  0  0  0  0  0
   -2.8840    0.4698   -3.9793 H   0  0  0  0  0  0  0  0  0  0  0  0
   -1.0796    3.7411   -6.8079 N   0  0  0  0  0  0  0  0  0  0  0  0
   -2.0717    4.2266   -6.7970 N   0  0  0  0  0  0  0  0  0  0  0  0
    2.3005    0.4634   -6.3780 S   0  0  0  0  0  0  0  0  0  0  0  0
    2.7407    0.1360   -4.5532 C   0  0  0  0  0  0  0  0  0  0  0  0
    1.9218   -0.8303   -6.9704 O   0  0  0  0  0  0  0  0  0  0  0  0
    3.3593    1.3268   -6.9152 O   0  0  0  0  0  0  0  0  0  0  0  0
    0.9715    1.4554   -6.1865 O   0  0  0  0  0  0  0  0  0  0  0  0
    1.7616   -0.5608   -3.9652 F   0  0  0  0  0  0  0  0  0  0  0  0
    3.8742   -0.5690   -4.5178 F   0  0  0  0  0  0  0  0  0  0  0  0
    2.9112    1.2949   -3.9132 F   0  0  0  0  0  0  0  0  0  0  0  0
   -4.2318   -0.4785   -6.1776 O   0  0  0  0  0  0  0  0  0  0  0  0
   -5.0174   -0.5003   -4.9887 C   0  0  0  0  0  0  0  0  0  0  0  0
   -5.9899   -0.9048   -5.2838 H   0  0  0  0  0  0  0  0  0  0  0  0
   -5.1500    0.5135   -4.5811 H   0  0  0  0  0  0  0  0  0  0  0  0
   -4.5653   -1.1514   -4.2252 H   0  0  0  0  0  0  0  0  0  0  0  0
  1  6  1  0  0  0  0
  2  1  2  0  0  0  0
  2  3  1  0  0  0  0
  3  4  2  0  0  0  0
  4  5  1  0  0  0  0
  4  9  1  0  0  0  0
  5 10  1  0  0  0  0
  6  5  2  0  0  0  0
  7  1  1  0  0  0  0
  8  2  1  0  0  0  0
 11 12  3  0  0  0  0
 13 17  1  0  0  0  0
 13 14  1  0  0  0  0
 14 19  1  0  0  0  0
 14 18  1  0  0  0  0
 14 20  1  0  0  0  0
 15 13  2  0  0  0  0
 16 13  2  0  0  0  0
 17  3  1  0  0  0  0
 21  6  1  0  0  0  0
 21 22  1  0  0  0  0
 22 24  1  0  0  0  0
 22 25  1  0  0  0  0
 23 22  1  0  0  0  0
M  END
