Coordinates from ORCA-job p-CH3O-Ph-N2-OTf-B3LYPG-aug-cc-pVDZ-scan-d29-49-n200
 OpenBabel01151817073D

 25 24  0  0  0  0  0  0  0  0999 V2000
   -2.1447   -0.0689   -7.2928 C   0  0  0  0  0  0  0  0  0  0  0  0
   -0.8165    0.3400   -7.3162 C   0  0  0  0  0  0  0  0  0  0  0  0
   -0.2129    0.7616   -6.1286 C   0  0  0  0  0  0  0  0  0  0  0  0
   -0.9204    0.7958   -4.9331 C   0  0  0  0  0  0  0  0  0  0  0  0
   -2.2603    0.3922   -4.9088 C   0  0  0  0  0  0  0  0  0  0  0  0
   -2.8739   -0.0483   -6.0907 C   0  0  0  0  0  0  0  0  0  0  0  0
   -2.6406   -0.4064   -8.2015 H   0  0  0  0  0  0  0  0  0  0  0  0
   -0.2499    0.3357   -8.2453 H   0  0  0  0  0  0  0  0  0  0  0  0
   -0.4354    1.1506   -4.0252 H   0  0  0  0  0  0  0  0  0  0  0  0
   -2.8042    0.4285   -3.9686 H   0  0  0  0  0  0  0  0  0  0  0  0
   -2.0238    5.0538   -7.1965 N   0  0  0  0  0  0  0  0  0  0  0  0
   -3.1126    5.1890   -7.0697 N   0  0  0  0  0  0  0  0  0  0  0  0
    2.4028    0.2504   -6.3192 S   0  0  0  0  0  0  0  0  0  0  0  0
    2.8274   -0.0589   -4.4877 C   0  0  0  0  0  0  0  0  0  0  0  0
    1.9876   -1.0408   -6.8921 O   0  0  0  0  0  0  0  0  0  0  0  0
    3.4868    1.0752   -6.8667 O   0  0  0  0  0  0  0  0  0  0  0  0
    1.0999    1.2825   -6.1471 O   0  0  0  0  0  0  0  0  0  0  0  0
    1.8265   -0.7175   -3.8923 F   0  0  0  0  0  0  0  0  0  0  0  0
    3.9400   -0.7954   -4.4361 F   0  0  0  0  0  0  0  0  0  0  0  0
    3.0285    1.1052   -3.8668 F   0  0  0  0  0  0  0  0  0  0  0  0
   -4.1678   -0.4683   -6.1787 O   0  0  0  0  0  0  0  0  0  0  0  0
   -4.9607   -0.4702   -4.9946 C   0  0  0  0  0  0  0  0  0  0  0  0
   -5.9439   -0.8422   -5.2972 H   0  0  0  0  0  0  0  0  0  0  0  0
   -5.0636    0.5454   -4.5829 H   0  0  0  0  0  0  0  0  0  0  0  0
   -4.5341   -1.1388   -4.2314 H   0  0  0  0  0  0  0  0  0  0  0  0
  1  6  1  0  0  0  0
  2  1  2  0  0  0  0
  2  3  1  0  0  0  0
  3  4  2  0  0  0  0
  4  5  1  0  0  0  0
  4  9  1  0  0  0  0
  5 10  1  0  0  0  0
  6  5  2  0  0  0  0
  7  1  1  0  0  0  0
  8  2  1  0  0  0  0
 11 12  3  0  0  0  0
 13 17  1  0  0  0  0
 13 14  1  0  0  0  0
 14 19  1  0  0  0  0
 14 18  1  0  0  0  0
 14 20  1  0  0  0  0
 15 13  2  0  0  0  0
 16 13  2  0  0  0  0
 17  3  1  0  0  0  0
 21  6  1  0  0  0  0
 21 22  1  0  0  0  0
 22 24  1  0  0  0  0
 22 25  1  0  0  0  0
 23 22  1  0  0  0  0
M  END
