Coordinates from ORCA-job p-CH3O-Ph-N2-OTf-B3LYPG-aug-cc-pVDZ-scan-d09-29-n200
 OpenBabel01151817073D

 25 23  0  0  0  0  0  0  0  0999 V2000
   -1.9017   -0.3704   -6.3664 C   0  0  0  0  0  0  0  0  0  0  0  0
   -0.9188    0.6476   -6.5085 C   0  0  0  0  0  0  0  0  0  0  0  0
   -1.4047    1.7201   -5.9329 C   0  0  0  0  0  0  0  0  0  0  0  0
   -2.4590    2.2108   -5.2597 C   0  0  0  0  0  0  0  0  0  0  0  0
   -3.3986    1.1509   -5.1455 C   0  0  0  0  0  0  0  0  0  0  0  0
   -3.1191   -0.1188   -5.6959 C   0  0  0  0  0  0  0  0  0  0  0  0
   -1.6926   -1.3631   -6.7652 H   0  0  0  0  0  0  0  0  0  0  0  0
    0.1437    0.4594   -6.9839 H   0  0  0  0  0  0  0  0  0  0  0  0
   -2.6119    3.2098   -4.8666 H   0  0  0  0  0  0  0  0  0  0  0  0
   -4.3303    1.3657   -4.6277 H   0  0  0  0  0  0  0  0  0  0  0  0
    0.0380    3.8960   -6.2396 N   0  0  0  0  0  0  0  0  0  0  0  0
    0.6785    4.7847   -6.3692 N   0  0  0  0  0  0  0  0  0  0  0  0
    2.5513    0.8387   -6.5134 S   0  0  0  0  0  0  0  0  0  0  0  0
    3.0174   -0.6881   -5.4916 C   0  0  0  0  0  0  0  0  0  0  0  0
    1.5218    0.2488   -7.5019 O   0  0  0  0  0  0  0  0  0  0  0  0
    3.8083    1.2699   -7.1655 O   0  0  0  0  0  0  0  0  0  0  0  0
    1.9061    1.7570   -5.5229 O   0  0  0  0  0  0  0  0  0  0  0  0
    1.9144   -1.2112   -4.9114 F   0  0  0  0  0  0  0  0  0  0  0  0
    3.5739   -1.6303   -6.2679 F   0  0  0  0  0  0  0  0  0  0  0  0
    3.8864   -0.3540   -4.5252 F   0  0  0  0  0  0  0  0  0  0  0  0
   -3.9657   -1.1746   -5.6272 O   0  0  0  0  0  0  0  0  0  0  0  0
   -5.2114   -1.0136   -4.9458 C   0  0  0  0  0  0  0  0  0  0  0  0
   -5.7101   -1.9841   -5.0124 H   0  0  0  0  0  0  0  0  0  0  0  0
   -5.8312   -0.2471   -5.4348 H   0  0  0  0  0  0  0  0  0  0  0  0
   -5.0504   -0.7538   -3.8889 H   0  0  0  0  0  0  0  0  0  0  0  0
  1  6  1  0  0  0  0
  2  1  2  0  0  0  0
  2  3  1  0  0  0  0
  3  4  2  0  0  0  0
  4  5  1  0  0  0  0
  4  9  1  0  0  0  0
  5 10  1  0  0  0  0
  6 21  1  0  0  0  0
  6  5  2  0  0  0  0
  7  1  1  0  0  0  0
  8  2  1  0  0  0  0
 12 11  3  0  0  0  0
 13 17  1  0  0  0  0
 13 14  1  0  0  0  0
 14 18  1  0  0  0  0
 14 20  1  0  0  0  0
 15 13  2  0  0  0  0
 16 13  2  0  0  0  0
 19 14  1  0  0  0  0
 21 22  1  0  0  0  0
 22 25  1  0  0  0  0
 23 22  1  0  0  0  0
 24 22  1  0  0  0  0
M  RAD  2   3   2  17   2
M  END
