Coordinates from ORCA-job p-CH3O-Ph-N2-OTf-B3LYPG-aug-cc-pVDZ-scan-d09-29-n200
 OpenBabel01151817073D

 25 24  0  0  0  0  0  0  0  0999 V2000
   -1.9363   -0.3897   -6.3879 C   0  0  0  0  0  0  0  0  0  0  0  0
   -0.9481    0.5768   -6.5975 C   0  0  0  0  0  0  0  0  0  0  0  0
   -1.3059    1.7800   -6.0690 C   0  0  0  0  0  0  0  0  0  0  0  0
   -2.3934    2.2180   -5.3694 C   0  0  0  0  0  0  0  0  0  0  0  0
   -3.3528    1.2085   -5.1799 C   0  0  0  0  0  0  0  0  0  0  0  0
   -3.1246   -0.0858   -5.6885 C   0  0  0  0  0  0  0  0  0  0  0  0
   -1.7813   -1.4028   -6.7557 H   0  0  0  0  0  0  0  0  0  0  0  0
    0.0199    0.3962   -7.0971 H   0  0  0  0  0  0  0  0  0  0  0  0
   -2.5226    3.2270   -4.9899 H   0  0  0  0  0  0  0  0  0  0  0  0
   -4.2585    1.4589   -4.6349 H   0  0  0  0  0  0  0  0  0  0  0  0
   -0.0746    3.1385   -6.3500 N   0  0  0  0  0  0  0  0  0  0  0  0
    0.4356    4.0882   -6.5843 N   0  0  0  0  0  0  0  0  0  0  0  0
    2.5857    1.0177   -6.3411 S   0  0  0  0  0  0  0  0  0  0  0  0
    3.0381   -0.6586   -5.5780 C   0  0  0  0  0  0  0  0  0  0  0  0
    1.8145    0.6275   -7.5863 O   0  0  0  0  0  0  0  0  0  0  0  0
    3.8852    1.6990   -6.5686 O   0  0  0  0  0  0  0  0  0  0  0  0
    1.6855    1.6288   -5.2873 O   0  0  0  0  0  0  0  0  0  0  0  0
    1.9183   -1.3852   -5.3477 F   0  0  0  0  0  0  0  0  0  0  0  0
    3.8290   -1.3619   -6.4051 F   0  0  0  0  0  0  0  0  0  0  0  0
    3.6781   -0.4956   -4.4081 F   0  0  0  0  0  0  0  0  0  0  0  0
   -3.9908   -1.1137   -5.5521 O   0  0  0  0  0  0  0  0  0  0  0  0
   -5.2081   -0.9033   -4.8308 C   0  0  0  0  0  0  0  0  0  0  0  0
   -5.7271   -1.8650   -4.8476 H   0  0  0  0  0  0  0  0  0  0  0  0
   -5.8292   -0.1403   -5.3227 H   0  0  0  0  0  0  0  0  0  0  0  0
   -5.0021   -0.6129   -3.7903 H   0  0  0  0  0  0  0  0  0  0  0  0
  1  6  1  0  0  0  0
  2  1  2  0  0  0  0
  2  3  1  0  0  0  0
  3  4  2  0  0  0  0
  4  5  1  0  0  0  0
  4  9  1  0  0  0  0
  5 10  1  0  0  0  0
  6 21  1  0  0  0  0
  6  5  2  0  0  0  0
  7  1  1  0  0  0  0
  8  2  1  0  0  0  0
 11  3  1  0  0  0  0
 12 11  1  0  0  0  0
 13 14  1  0  0  0  0
 13 17  1  0  0  0  0
 14 18  1  0  0  0  0
 14 20  1  0  0  0  0
 15 13  2  0  0  0  0
 16 13  2  0  0  0  0
 19 14  1  0  0  0  0
 21 22  1  0  0  0  0
 22 25  1  0  0  0  0
 23 22  1  0  0  0  0
 24 22  1  0  0  0  0
M  RAD  3  11   2  12   3  17   2
M  END
