Coordinates from ORCA-job p-CH3O-Ph-N2-OTf-B3LYPG-aug-cc-pVDZ-scan-d09-29-n200
 OpenBabel01151817073D

 25 24  0  0  0  0  0  0  0  0999 V2000
   -1.9782   -0.3804   -6.3150 C   0  0  0  0  0  0  0  0  0  0  0  0
   -0.9651    0.5764   -6.4662 C   0  0  0  0  0  0  0  0  0  0  0  0
   -1.3487    1.7672   -5.9442 C   0  0  0  0  0  0  0  0  0  0  0  0
   -2.4623    2.2258   -5.3056 C   0  0  0  0  0  0  0  0  0  0  0  0
   -3.4419    1.2245   -5.1754 C   0  0  0  0  0  0  0  0  0  0  0  0
   -3.1993   -0.0694   -5.6793 C   0  0  0  0  0  0  0  0  0  0  0  0
   -1.8122   -1.3910   -6.6856 H   0  0  0  0  0  0  0  0  0  0  0  0
    0.0236    0.3667   -6.9287 H   0  0  0  0  0  0  0  0  0  0  0  0
   -2.6005    3.2354   -4.9316 H   0  0  0  0  0  0  0  0  0  0  0  0
   -4.3735    1.4834   -4.6800 H   0  0  0  0  0  0  0  0  0  0  0  0
   -0.0645    3.1742   -6.1407 N   0  0  0  0  0  0  0  0  0  0  0  0
    0.4374    4.1458   -6.2860 N   0  0  0  0  0  0  0  0  0  0  0  0
    2.5893    0.8785   -6.5034 S   0  0  0  0  0  0  0  0  0  0  0  0
    3.3134   -0.6089   -5.5768 C   0  0  0  0  0  0  0  0  0  0  0  0
    1.7045    0.2290   -7.5506 O   0  0  0  0  0  0  0  0  0  0  0  0
    3.7664    1.6209   -7.0212 O   0  0  0  0  0  0  0  0  0  0  0  0
    1.7781    1.5760   -5.4315 O   0  0  0  0  0  0  0  0  0  0  0  0
    2.3217   -1.3742   -5.0696 F   0  0  0  0  0  0  0  0  0  0  0  0
    4.0507   -1.3693   -6.4032 F   0  0  0  0  0  0  0  0  0  0  0  0
    4.0921   -0.2015   -4.5601 F   0  0  0  0  0  0  0  0  0  0  0  0
   -4.0824   -1.0891   -5.5973 O   0  0  0  0  0  0  0  0  0  0  0  0
   -5.3377   -0.8675   -4.9485 C   0  0  0  0  0  0  0  0  0  0  0  0
   -5.8661   -1.8230   -5.0009 H   0  0  0  0  0  0  0  0  0  0  0  0
   -5.9197   -0.0951   -5.4725 H   0  0  0  0  0  0  0  0  0  0  0  0
   -5.1907   -0.5842   -3.8960 H   0  0  0  0  0  0  0  0  0  0  0  0
  1  6  1  0  0  0  0
  2  1  2  0  0  0  0
  2  3  1  0  0  0  0
  3  4  2  0  0  0  0
  4  5  1  0  0  0  0
  4  9  1  0  0  0  0
  5 10  1  0  0  0  0
  6 21  1  0  0  0  0
  6  5  2  0  0  0  0
  7  1  1  0  0  0  0
  8  2  1  0  0  0  0
 11  3  1  0  0  0  0
 12 11  1  0  0  0  0
 13 14  1  0  0  0  0
 13 17  1  0  0  0  0
 14 18  1  0  0  0  0
 14 20  1  0  0  0  0
 15 13  2  0  0  0  0
 16 13  2  0  0  0  0
 19 14  1  0  0  0  0
 21 22  1  0  0  0  0
 22 25  1  0  0  0  0
 23 22  1  0  0  0  0
 24 22  1  0  0  0  0
M  RAD  3  11   2  12   3  17   2
M  END
