Coordinates from ORCA-job p-CH3O-Ph-N2-OTf-B3LYPG-aug-cc-pVDZ-scan-d29-49-n200
 OpenBabel01151817073D

 25 24  0  0  0  0  0  0  0  0999 V2000
   -2.1950   -0.0494   -7.2989 C   0  0  0  0  0  0  0  0  0  0  0  0
   -0.8757    0.3869   -7.3297 C   0  0  0  0  0  0  0  0  0  0  0  0
   -0.2762    0.8247   -6.1460 C   0  0  0  0  0  0  0  0  0  0  0  0
   -0.9788    0.8486   -4.9474 C   0  0  0  0  0  0  0  0  0  0  0  0
   -2.3101    0.4177   -4.9161 C   0  0  0  0  0  0  0  0  0  0  0  0
   -2.9195   -0.0396   -6.0938 C   0  0  0  0  0  0  0  0  0  0  0  0
   -2.6875   -0.4013   -8.2041 H   0  0  0  0  0  0  0  0  0  0  0  0
   -0.3127    0.3904   -8.2609 H   0  0  0  0  0  0  0  0  0  0  0  0
   -0.4969    1.2155   -4.0429 H   0  0  0  0  0  0  0  0  0  0  0  0
   -2.8505    0.4453   -3.9735 H   0  0  0  0  0  0  0  0  0  0  0  0
   -1.4837    4.4166   -7.0021 N   0  0  0  0  0  0  0  0  0  0  0  0
   -2.5324    4.7567   -6.9367 N   0  0  0  0  0  0  0  0  0  0  0  0
    2.3471    0.3622   -6.3508 S   0  0  0  0  0  0  0  0  0  0  0  0
    2.7799    0.0475   -4.5220 C   0  0  0  0  0  0  0  0  0  0  0  0
    1.9546   -0.9325   -6.9319 O   0  0  0  0  0  0  0  0  0  0  0  0
    3.4156    1.2098   -6.8940 O   0  0  0  0  0  0  0  0  0  0  0  0
    1.0270    1.3695   -6.1702 O   0  0  0  0  0  0  0  0  0  0  0  0
    1.7919   -0.6333   -3.9300 F   0  0  0  0  0  0  0  0  0  0  0  0
    3.9057   -0.6690   -4.4771 F   0  0  0  0  0  0  0  0  0  0  0  0
    2.9608    1.2106   -3.8929 F   0  0  0  0  0  0  0  0  0  0  0  0
   -4.2045   -0.4873   -6.1748 O   0  0  0  0  0  0  0  0  0  0  0  0
   -4.9924   -0.5010   -4.9873 C   0  0  0  0  0  0  0  0  0  0  0  0
   -5.9691   -0.8938   -5.2846 H   0  0  0  0  0  0  0  0  0  0  0  0
   -5.1140    0.5137   -4.5787 H   0  0  0  0  0  0  0  0  0  0  0  0
   -4.5493   -1.1583   -4.2237 H   0  0  0  0  0  0  0  0  0  0  0  0
  1  6  1  0  0  0  0
  2  1  2  0  0  0  0
  2  3  1  0  0  0  0
  3  4  2  0  0  0  0
  4  5  1  0  0  0  0
  4  9  1  0  0  0  0
  5 10  1  0  0  0  0
  6  5  2  0  0  0  0
  7  1  1  0  0  0  0
  8  2  1  0  0  0  0
 11 12  3  0  0  0  0
 13 17  1  0  0  0  0
 13 14  1  0  0  0  0
 14 19  1  0  0  0  0
 14 18  1  0  0  0  0
 14 20  1  0  0  0  0
 15 13  2  0  0  0  0
 16 13  2  0  0  0  0
 17  3  1  0  0  0  0
 21  6  1  0  0  0  0
 21 22  1  0  0  0  0
 22 24  1  0  0  0  0
 22 25  1  0  0  0  0
 23 22  1  0  0  0  0
M  END
