Coordinates from ORCA-job p-CH3O-Ph-N2-OTf-B3LYPG-aug-cc-pVDZ-scan-d29-49-n200
 OpenBabel01151817073D

 25 24  0  0  0  0  0  0  0  0999 V2000
   -2.2218   -0.0309   -7.3034 C   0  0  0  0  0  0  0  0  0  0  0  0
   -0.9072    0.4193   -7.3373 C   0  0  0  0  0  0  0  0  0  0  0  0
   -0.3111    0.8671   -6.1557 C   0  0  0  0  0  0  0  0  0  0  0  0
   -1.0105    0.8817   -4.9554 C   0  0  0  0  0  0  0  0  0  0  0  0
   -2.3372    0.4372   -4.9210 C   0  0  0  0  0  0  0  0  0  0  0  0
   -2.9447   -0.0262   -6.0974 C   0  0  0  0  0  0  0  0  0  0  0  0
   -2.7122   -0.3886   -8.2074 H   0  0  0  0  0  0  0  0  0  0  0  0
   -0.3460    0.4273   -8.2694 H   0  0  0  0  0  0  0  0  0  0  0  0
   -0.5304    1.2537   -4.0520 H   0  0  0  0  0  0  0  0  0  0  0  0
   -2.8759    0.4600   -3.9774 H   0  0  0  0  0  0  0  0  0  0  0  0
   -1.1907    3.9784   -6.8740 N   0  0  0  0  0  0  0  0  0  0  0  0
   -2.2032    4.4183   -6.8405 N   0  0  0  0  0  0  0  0  0  0  0  0
    2.3157    0.4319   -6.3699 S   0  0  0  0  0  0  0  0  0  0  0  0
    2.7542    0.1108   -4.5436 C   0  0  0  0  0  0  0  0  0  0  0  0
    1.9363   -0.8635   -6.9580 O   0  0  0  0  0  0  0  0  0  0  0  0
    3.3749    1.2933   -6.9095 O   0  0  0  0  0  0  0  0  0  0  0  0
    0.9863    1.4246   -6.1819 O   0  0  0  0  0  0  0  0  0  0  0  0
    1.7743   -0.5840   -3.9545 F   0  0  0  0  0  0  0  0  0  0  0  0
    3.8877   -0.5939   -4.5043 F   0  0  0  0  0  0  0  0  0  0  0  0
    2.9236    1.2720   -3.9075 F   0  0  0  0  0  0  0  0  0  0  0  0
   -4.2259   -0.4848   -6.1760 O   0  0  0  0  0  0  0  0  0  0  0  0
   -5.0120   -0.5035   -4.9874 C   0  0  0  0  0  0  0  0  0  0  0  0
   -5.9861   -0.9042   -5.2830 H   0  0  0  0  0  0  0  0  0  0  0  0
   -5.1410    0.5108   -4.5798 H   0  0  0  0  0  0  0  0  0  0  0  0
   -4.5628   -1.1564   -4.2237 H   0  0  0  0  0  0  0  0  0  0  0  0
  1  6  1  0  0  0  0
  2  1  2  0  0  0  0
  2  3  1  0  0  0  0
  3  4  2  0  0  0  0
  4  5  1  0  0  0  0
  4  9  1  0  0  0  0
  5 10  1  0  0  0  0
  6  5  2  0  0  0  0
  7  1  1  0  0  0  0
  8  2  1  0  0  0  0
 11 12  3  0  0  0  0
 13 17  1  0  0  0  0
 13 14  1  0  0  0  0
 14 19  1  0  0  0  0
 14 18  1  0  0  0  0
 14 20  1  0  0  0  0
 15 13  2  0  0  0  0
 16 13  2  0  0  0  0
 17  3  1  0  0  0  0
 21  6  1  0  0  0  0
 21 22  1  0  0  0  0
 22 24  1  0  0  0  0
 22 25  1  0  0  0  0
 23 22  1  0  0  0  0
M  END
