Coordinates from ORCA-job p-CH3O-Ph-N2-OTf-B3LYPG-aug-cc-pVDZ-scan-d29-49-n200
 OpenBabel01151817073D

 25 24  0  0  0  0  0  0  0  0999 V2000
   -2.2277   -0.0234   -7.3046 C   0  0  0  0  0  0  0  0  0  0  0  0
   -0.9148    0.4314   -7.3392 C   0  0  0  0  0  0  0  0  0  0  0  0
   -0.3207    0.8844   -6.1588 C   0  0  0  0  0  0  0  0  0  0  0  0
   -1.0187    0.8945   -4.9579 C   0  0  0  0  0  0  0  0  0  0  0  0
   -2.3438    0.4452   -4.9223 C   0  0  0  0  0  0  0  0  0  0  0  0
   -2.9505   -0.0202   -6.0983 C   0  0  0  0  0  0  0  0  0  0  0  0
   -2.7171   -0.3840   -8.2079 H   0  0  0  0  0  0  0  0  0  0  0  0
   -0.3537    0.4393   -8.2714 H   0  0  0  0  0  0  0  0  0  0  0  0
   -0.5393    1.2675   -4.0545 H   0  0  0  0  0  0  0  0  0  0  0  0
   -2.8818    0.4653   -3.9783 H   0  0  0  0  0  0  0  0  0  0  0  0
   -1.1159    3.8466   -6.8374 N   0  0  0  0  0  0  0  0  0  0  0  0
   -2.1172    4.3122   -6.8145 N   0  0  0  0  0  0  0  0  0  0  0  0
    2.3063    0.4513   -6.3750 S   0  0  0  0  0  0  0  0  0  0  0  0
    2.7458    0.1263   -4.5496 C   0  0  0  0  0  0  0  0  0  0  0  0
    1.9283   -0.8432   -6.9660 O   0  0  0  0  0  0  0  0  0  0  0  0
    3.3646    1.3149   -6.9129 O   0  0  0  0  0  0  0  0  0  0  0  0
    0.9762    1.4425   -6.1848 O   0  0  0  0  0  0  0  0  0  0  0  0
    1.7670   -0.5709   -3.9616 F   0  0  0  0  0  0  0  0  0  0  0  0
    3.8800   -0.5775   -4.5127 F   0  0  0  0  0  0  0  0  0  0  0  0
    2.9145    1.2860   -3.9108 F   0  0  0  0  0  0  0  0  0  0  0  0
   -4.2301   -0.4830   -6.1764 O   0  0  0  0  0  0  0  0  0  0  0  0
   -5.0159   -0.5035   -4.9877 C   0  0  0  0  0  0  0  0  0  0  0  0
   -5.9889   -0.9069   -5.2829 H   0  0  0  0  0  0  0  0  0  0  0  0
   -5.1474    0.5106   -4.5804 H   0  0  0  0  0  0  0  0  0  0  0  0
   -4.5648   -1.1549   -4.2239 H   0  0  0  0  0  0  0  0  0  0  0  0
  1  6  1  0  0  0  0
  2  1  2  0  0  0  0
  2  3  1  0  0  0  0
  3  4  2  0  0  0  0
  4  5  1  0  0  0  0
  4  9  1  0  0  0  0
  5 10  1  0  0  0  0
  6  5  2  0  0  0  0
  7  1  1  0  0  0  0
  8  2  1  0  0  0  0
 11 12  3  0  0  0  0
 13 17  1  0  0  0  0
 13 14  1  0  0  0  0
 14 19  1  0  0  0  0
 14 18  1  0  0  0  0
 14 20  1  0  0  0  0
 15 13  2  0  0  0  0
 16 13  2  0  0  0  0
 17  3  1  0  0  0  0
 21  6  1  0  0  0  0
 21 22  1  0  0  0  0
 22 24  1  0  0  0  0
 22 25  1  0  0  0  0
 23 22  1  0  0  0  0
M  END
