Coordinates from ORCA-job p-CH3O-Ph-N2-OTf-B3LYPG-aug-cc-pVDZ-scan-d09-29-n200
 OpenBabel01151817073D

 25 24  0  0  0  0  0  0  0  0999 V2000
   -1.8981   -0.4210   -6.4285 C   0  0  0  0  0  0  0  0  0  0  0  0
   -0.9421    0.5416   -6.7075 C   0  0  0  0  0  0  0  0  0  0  0  0
   -1.2210    1.8172   -6.2283 C   0  0  0  0  0  0  0  0  0  0  0  0
   -2.3330    2.2092   -5.4958 C   0  0  0  0  0  0  0  0  0  0  0  0
   -3.2745    1.2185   -5.2263 C   0  0  0  0  0  0  0  0  0  0  0  0
   -3.0598   -0.0965   -5.6926 C   0  0  0  0  0  0  0  0  0  0  0  0
   -1.7558   -1.4486   -6.7575 H   0  0  0  0  0  0  0  0  0  0  0  0
   -0.0038    0.3486   -7.2317 H   0  0  0  0  0  0  0  0  0  0  0  0
   -2.4639    3.2291   -5.1422 H   0  0  0  0  0  0  0  0  0  0  0  0
   -4.1595    1.4788   -4.6532 H   0  0  0  0  0  0  0  0  0  0  0  0
   -0.1842    2.9465   -6.5347 N   0  0  0  0  0  0  0  0  0  0  0  0
    0.4406    3.8250   -6.7812 N   0  0  0  0  0  0  0  0  0  0  0  0
    2.5699    1.1617   -6.0914 S   0  0  0  0  0  0  0  0  0  0  0  0
    2.8329   -0.6657   -5.6515 C   0  0  0  0  0  0  0  0  0  0  0  0
    1.9180    1.0901   -7.4583 O   0  0  0  0  0  0  0  0  0  0  0  0
    3.9313    1.7541   -6.0479 O   0  0  0  0  0  0  0  0  0  0  0  0
    1.5988    1.6326   -5.0325 O   0  0  0  0  0  0  0  0  0  0  0  0
    1.6524   -1.3367   -5.6948 F   0  0  0  0  0  0  0  0  0  0  0  0
    3.6727   -1.2536   -6.5197 F   0  0  0  0  0  0  0  0  0  0  0  0
    3.3364   -0.7961   -4.4130 F   0  0  0  0  0  0  0  0  0  0  0  0
   -3.9102   -1.1175   -5.4800 O   0  0  0  0  0  0  0  0  0  0  0  0
   -5.1013   -0.8919   -4.7161 C   0  0  0  0  0  0  0  0  0  0  0  0
   -5.6080   -1.8594   -4.6772 H   0  0  0  0  0  0  0  0  0  0  0  0
   -5.7491   -0.1542   -5.2108 H   0  0  0  0  0  0  0  0  0  0  0  0
   -4.8544   -0.5615   -3.6973 H   0  0  0  0  0  0  0  0  0  0  0  0
  1  6  1  0  0  0  0
  2  1  2  0  0  0  0
  2  3  1  0  0  0  0
  3  4  2  0  0  0  0
  4  5  1  0  0  0  0
  4  9  1  0  0  0  0
  5 10  1  0  0  0  0
  6 21  1  0  0  0  0
  6  5  2  0  0  0  0
  7  1  1  0  0  0  0
  8  2  1  0  0  0  0
 11  3  1  0  0  0  0
 12 11  1  0  0  0  0
 13 16  2  0  0  0  0
 13 14  1  0  0  0  0
 13 17  1  0  0  0  0
 14 20  1  0  0  0  0
 15 13  2  0  0  0  0
 18 14  1  0  0  0  0
 19 14  1  0  0  0  0
 21 22  1  0  0  0  0
 22 23  1  0  0  0  0
 22 25  1  0  0  0  0
 24 22  1  0  0  0  0
M  RAD  3  11   2  12   3  17   2
M  END
