Coordinates from ORCA-job p-CH3O-Ph-N2-OTf-B3LYPG-aug-cc-pVDZ-scan-d09-29-n200
 OpenBabel01151817073D

 25 23  0  0  0  0  0  0  0  0999 V2000
   -1.9084   -0.3405   -6.3190 C   0  0  0  0  0  0  0  0  0  0  0  0
   -0.9322    0.6703   -6.4798 C   0  0  0  0  0  0  0  0  0  0  0  0
   -1.4119    1.7881   -5.9474 C   0  0  0  0  0  0  0  0  0  0  0  0
   -2.5040    2.2545   -5.3052 C   0  0  0  0  0  0  0  0  0  0  0  0
   -3.4381    1.1996   -5.1730 C   0  0  0  0  0  0  0  0  0  0  0  0
   -3.1392   -0.0828   -5.6783 C   0  0  0  0  0  0  0  0  0  0  0  0
   -1.6870   -1.3425   -6.6860 H   0  0  0  0  0  0  0  0  0  0  0  0
    0.0974    0.4843   -6.9409 H   0  0  0  0  0  0  0  0  0  0  0  0
   -2.6751    3.2612   -4.9390 H   0  0  0  0  0  0  0  0  0  0  0  0
   -4.3783    1.4221   -4.6752 H   0  0  0  0  0  0  0  0  0  0  0  0
   -0.0256    3.5480   -6.2197 N   0  0  0  0  0  0  0  0  0  0  0  0
    0.5551    4.4716   -6.3790 N   0  0  0  0  0  0  0  0  0  0  0  0
    2.5801    0.8645   -6.4746 S   0  0  0  0  0  0  0  0  0  0  0  0
    3.1256   -0.6991   -5.5522 C   0  0  0  0  0  0  0  0  0  0  0  0
    1.5926    0.3015   -7.5029 O   0  0  0  0  0  0  0  0  0  0  0  0
    3.8231    1.4199   -7.0618 O   0  0  0  0  0  0  0  0  0  0  0  0
    1.8844    1.6753   -5.4184 O   0  0  0  0  0  0  0  0  0  0  0  0
    2.0520   -1.3229   -5.0165 F   0  0  0  0  0  0  0  0  0  0  0  0
    3.7379   -1.5563   -6.3848 F   0  0  0  0  0  0  0  0  0  0  0  0
    3.9715   -0.3873   -4.5568 F   0  0  0  0  0  0  0  0  0  0  0  0
   -3.9764   -1.1427   -5.5923 O   0  0  0  0  0  0  0  0  0  0  0  0
   -5.2360   -0.9742   -4.9374 C   0  0  0  0  0  0  0  0  0  0  0  0
   -5.7236   -1.9514   -4.9842 H   0  0  0  0  0  0  0  0  0  0  0  0
   -5.8540   -0.2288   -5.4596 H   0  0  0  0  0  0  0  0  0  0  0  0
   -5.0958   -0.6822   -3.8861 H   0  0  0  0  0  0  0  0  0  0  0  0
  1  6  1  0  0  0  0
  2  1  2  0  0  0  0
  2  3  1  0  0  0  0
  3  4  2  0  0  0  0
  4  5  1  0  0  0  0
  4  9  1  0  0  0  0
  5 10  1  0  0  0  0
  6 21  1  0  0  0  0
  6  5  2  0  0  0  0
  7  1  1  0  0  0  0
  8  2  1  0  0  0  0
 12 11  3  0  0  0  0
 13 14  1  0  0  0  0
 13 17  1  0  0  0  0
 14 18  1  0  0  0  0
 14 20  1  0  0  0  0
 15 13  2  0  0  0  0
 16 13  2  0  0  0  0
 19 14  1  0  0  0  0
 21 22  1  0  0  0  0
 22 25  1  0  0  0  0
 23 22  1  0  0  0  0
 24 22  1  0  0  0  0
M  RAD  2   3   2  17   2
M  END
