Coordinates from ORCA-job p-CH3O-Ph-N2-OTf-B3LYPG-aug-cc-pVDZ-scan-d29-49-n200
 OpenBabel01151817073D

 25 24  0  0  0  0  0  0  0  0999 V2000
   -2.2261   -0.0261   -7.3043 C   0  0  0  0  0  0  0  0  0  0  0  0
   -0.9128    0.4274   -7.3387 C   0  0  0  0  0  0  0  0  0  0  0  0
   -0.3179    0.8787   -6.1580 C   0  0  0  0  0  0  0  0  0  0  0  0
   -1.0165    0.8908   -4.9572 C   0  0  0  0  0  0  0  0  0  0  0  0
   -2.3421    0.4431   -4.9222 C   0  0  0  0  0  0  0  0  0  0  0  0
   -2.9489   -0.0222   -6.0981 C   0  0  0  0  0  0  0  0  0  0  0  0
   -2.7157   -0.3861   -8.2078 H   0  0  0  0  0  0  0  0  0  0  0  0
   -0.3517    0.4355   -8.2709 H   0  0  0  0  0  0  0  0  0  0  0  0
   -0.5368    1.2638   -4.0540 H   0  0  0  0  0  0  0  0  0  0  0  0
   -2.8803    0.4644   -3.9782 H   0  0  0  0  0  0  0  0  0  0  0  0
   -1.1364    3.8852   -6.8481 N   0  0  0  0  0  0  0  0  0  0  0  0
   -2.1413    4.3428   -6.8211 N   0  0  0  0  0  0  0  0  0  0  0  0
    2.3092    0.4461   -6.3736 S   0  0  0  0  0  0  0  0  0  0  0  0
    2.7480    0.1217   -4.5480 C   0  0  0  0  0  0  0  0  0  0  0  0
    1.9315   -0.8486   -6.9644 O   0  0  0  0  0  0  0  0  0  0  0  0
    3.3676    1.3097   -6.9114 O   0  0  0  0  0  0  0  0  0  0  0  0
    0.9790    1.4371   -6.1841 O   0  0  0  0  0  0  0  0  0  0  0  0
    1.7692   -0.5759   -3.9604 F   0  0  0  0  0  0  0  0  0  0  0  0
    3.8825   -0.5815   -4.5102 F   0  0  0  0  0  0  0  0  0  0  0  0
    2.9157    1.2817   -3.9093 F   0  0  0  0  0  0  0  0  0  0  0  0
   -4.2290   -0.4839   -6.1761 O   0  0  0  0  0  0  0  0  0  0  0  0
   -5.0149   -0.5034   -4.9874 C   0  0  0  0  0  0  0  0  0  0  0  0
   -5.9881   -0.9062   -5.2826 H   0  0  0  0  0  0  0  0  0  0  0  0
   -5.1457    0.5109   -4.5804 H   0  0  0  0  0  0  0  0  0  0  0  0
   -4.5643   -1.1549   -4.2233 H   0  0  0  0  0  0  0  0  0  0  0  0
  1  6  1  0  0  0  0
  2  1  2  0  0  0  0
  2  3  1  0  0  0  0
  3  4  2  0  0  0  0
  4  5  1  0  0  0  0
  4  9  1  0  0  0  0
  5 10  1  0  0  0  0
  6  5  2  0  0  0  0
  7  1  1  0  0  0  0
  8  2  1  0  0  0  0
 11 12  3  0  0  0  0
 13 17  1  0  0  0  0
 13 14  1  0  0  0  0
 14 19  1  0  0  0  0
 14 18  1  0  0  0  0
 14 20  1  0  0  0  0
 15 13  2  0  0  0  0
 16 13  2  0  0  0  0
 17  3  1  0  0  0  0
 21  6  1  0  0  0  0
 21 22  1  0  0  0  0
 22 24  1  0  0  0  0
 22 25  1  0  0  0  0
 23 22  1  0  0  0  0
M  END
