Coordinates from ORCA-job p-CH3O-Ph-N2-OTf-B3LYPG-aug-cc-pVDZ-scan-d29-49-n200
 OpenBabel01151817073D

 25 24  0  0  0  0  0  0  0  0999 V2000
   -2.1601   -0.0632   -7.2937 C   0  0  0  0  0  0  0  0  0  0  0  0
   -0.8350    0.3554   -7.3196 C   0  0  0  0  0  0  0  0  0  0  0  0
   -0.2329    0.7830   -6.1333 C   0  0  0  0  0  0  0  0  0  0  0  0
   -0.9390    0.8138   -4.9369 C   0  0  0  0  0  0  0  0  0  0  0  0
   -2.2759    0.4004   -4.9103 C   0  0  0  0  0  0  0  0  0  0  0  0
   -2.8878   -0.0464   -6.0907 C   0  0  0  0  0  0  0  0  0  0  0  0
   -2.6547   -0.4058   -8.2013 H   0  0  0  0  0  0  0  0  0  0  0  0
   -0.2695    0.3537   -8.2493 H   0  0  0  0  0  0  0  0  0  0  0  0
   -0.4553    1.1732   -4.0302 H   0  0  0  0  0  0  0  0  0  0  0  0
   -2.8188    0.4341   -3.9694 H   0  0  0  0  0  0  0  0  0  0  0  0
   -1.8510    4.8575   -7.1394 N   0  0  0  0  0  0  0  0  0  0  0  0
   -2.9315    5.0608   -7.0349 N   0  0  0  0  0  0  0  0  0  0  0  0
    2.3852    0.2868   -6.3293 S   0  0  0  0  0  0  0  0  0  0  0  0
    2.8111   -0.0282   -4.4990 C   0  0  0  0  0  0  0  0  0  0  0  0
    1.9773   -1.0044   -6.9077 O   0  0  0  0  0  0  0  0  0  0  0  0
    3.4648    1.1197   -6.8732 O   0  0  0  0  0  0  0  0  0  0  0  0
    1.0771    1.3110   -6.1533 O   0  0  0  0  0  0  0  0  0  0  0  0
    1.8138   -0.6949   -3.9067 F   0  0  0  0  0  0  0  0  0  0  0  0
    3.9279   -0.7586   -4.4503 F   0  0  0  0  0  0  0  0  0  0  0  0
    3.0056    1.1344   -3.8730 F   0  0  0  0  0  0  0  0  0  0  0  0
   -4.1786   -0.4763   -6.1764 O   0  0  0  0  0  0  0  0  0  0  0  0
   -4.9700   -0.4819   -4.9913 C   0  0  0  0  0  0  0  0  0  0  0  0
   -5.9511   -0.8609   -5.2922 H   0  0  0  0  0  0  0  0  0  0  0  0
   -5.0793    0.5336   -4.5810 H   0  0  0  0  0  0  0  0  0  0  0  0
   -4.5381   -1.1465   -4.2277 H   0  0  0  0  0  0  0  0  0  0  0  0
  1  6  1  0  0  0  0
  2  1  2  0  0  0  0
  2  3  1  0  0  0  0
  3  4  2  0  0  0  0
  4  5  1  0  0  0  0
  4  9  1  0  0  0  0
  5 10  1  0  0  0  0
  6  5  2  0  0  0  0
  7  1  1  0  0  0  0
  8  2  1  0  0  0  0
 11 12  3  0  0  0  0
 13 17  1  0  0  0  0
 13 14  1  0  0  0  0
 14 19  1  0  0  0  0
 14 18  1  0  0  0  0
 14 20  1  0  0  0  0
 15 13  2  0  0  0  0
 16 13  2  0  0  0  0
 17  3  1  0  0  0  0
 21  6  1  0  0  0  0
 21 22  1  0  0  0  0
 22 24  1  0  0  0  0
 22 25  1  0  0  0  0
 23 22  1  0  0  0  0
M  END
