Coordinates from ORCA-job p-CH3O-Ph-N2-OTf-B3LYPG-aug-cc-pVDZ-scan-d29-49-n200
 OpenBabel01151817073D

 25 24  0  0  0  0  0  0  0  0999 V2000
   -2.1881   -0.0534   -7.2977 C   0  0  0  0  0  0  0  0  0  0  0  0
   -0.8676    0.3796   -7.3276 C   0  0  0  0  0  0  0  0  0  0  0  0
   -0.2676    0.8156   -6.1434 C   0  0  0  0  0  0  0  0  0  0  0  0
   -0.9710    0.8409   -4.9453 C   0  0  0  0  0  0  0  0  0  0  0  0
   -2.3033    0.4133   -4.9148 C   0  0  0  0  0  0  0  0  0  0  0  0
   -2.9131   -0.0421   -6.0930 C   0  0  0  0  0  0  0  0  0  0  0  0
   -2.6810   -0.4036   -8.2032 H   0  0  0  0  0  0  0  0  0  0  0  0
   -0.3042    0.3821   -8.2585 H   0  0  0  0  0  0  0  0  0  0  0  0
   -0.4887    1.2065   -4.0404 H   0  0  0  0  0  0  0  0  0  0  0  0
   -2.8442    0.4421   -3.9726 H   0  0  0  0  0  0  0  0  0  0  0  0
   -1.5566    4.5136   -7.0314 N   0  0  0  0  0  0  0  0  0  0  0  0
   -2.6127    4.8283   -6.9586 N   0  0  0  0  0  0  0  0  0  0  0  0
    2.3547    0.3465   -6.3463 S   0  0  0  0  0  0  0  0  0  0  0  0
    2.7862    0.0322   -4.5172 C   0  0  0  0  0  0  0  0  0  0  0  0
    1.9592   -0.9477   -6.9265 O   0  0  0  0  0  0  0  0  0  0  0  0
    3.4253    1.1910   -6.8900 O   0  0  0  0  0  0  0  0  0  0  0  0
    1.0369    1.3571   -6.1669 O   0  0  0  0  0  0  0  0  0  0  0  0
    1.7965   -0.6458   -3.9250 F   0  0  0  0  0  0  0  0  0  0  0  0
    3.9103   -0.6871   -4.4715 F   0  0  0  0  0  0  0  0  0  0  0  0
    2.9698    1.1953   -3.8890 F   0  0  0  0  0  0  0  0  0  0  0  0
   -4.1993   -0.4864   -6.1748 O   0  0  0  0  0  0  0  0  0  0  0  0
   -4.9878   -0.4985   -4.9878 C   0  0  0  0  0  0  0  0  0  0  0  0
   -5.9654   -0.8887   -5.2857 H   0  0  0  0  0  0  0  0  0  0  0  0
   -5.1071    0.5164   -4.5789 H   0  0  0  0  0  0  0  0  0  0  0  0
   -4.5468   -1.1571   -4.2241 H   0  0  0  0  0  0  0  0  0  0  0  0
  1  6  1  0  0  0  0
  2  1  2  0  0  0  0
  2  3  1  0  0  0  0
  3  4  2  0  0  0  0
  4  5  1  0  0  0  0
  4  9  1  0  0  0  0
  5 10  1  0  0  0  0
  6  5  2  0  0  0  0
  7  1  1  0  0  0  0
  8  2  1  0  0  0  0
 11 12  3  0  0  0  0
 13 17  1  0  0  0  0
 13 14  1  0  0  0  0
 14 19  1  0  0  0  0
 14 18  1  0  0  0  0
 14 20  1  0  0  0  0
 15 13  2  0  0  0  0
 16 13  2  0  0  0  0
 17  3  1  0  0  0  0
 21  6  1  0  0  0  0
 21 22  1  0  0  0  0
 22 24  1  0  0  0  0
 22 25  1  0  0  0  0
 23 22  1  0  0  0  0
M  END
