Coordinates from ORCA-job p-CH3O-Ph-N2-OTf-B3LYPG-aug-cc-pVDZ-scan-d09-29-n200
 OpenBabel01151817073D

 25 24  0  0  0  0  0  0  0  0999 V2000
   -2.3208    0.0916   -7.2770 C   0  0  0  0  0  0  0  0  0  0  0  0
   -1.0112    0.5562   -7.3133 C   0  0  0  0  0  0  0  0  0  0  0  0
   -0.3987    0.9494   -6.1236 C   0  0  0  0  0  0  0  0  0  0  0  0
   -1.0604    0.8640   -4.9076 C   0  0  0  0  0  0  0  0  0  0  0  0
   -2.3828    0.4067   -4.8686 C   0  0  0  0  0  0  0  0  0  0  0  0
   -3.0167    0.0175   -6.0576 C   0  0  0  0  0  0  0  0  0  0  0  0
   -2.8279   -0.2187   -8.1892 H   0  0  0  0  0  0  0  0  0  0  0  0
   -0.4730    0.6241   -8.2561 H   0  0  0  0  0  0  0  0  0  0  0  0
   -0.5602    1.1784   -3.9933 H   0  0  0  0  0  0  0  0  0  0  0  0
   -2.8959    0.3580   -3.9118 H   0  0  0  0  0  0  0  0  0  0  0  0
   -0.9672    3.5617   -6.5616 N   0  0  0  0  0  0  0  0  0  0  0  0
   -0.7585    4.6236   -6.7821 N   0  0  0  0  0  0  0  0  0  0  0  0
    2.2269    0.5600   -6.4670 S   0  0  0  0  0  0  0  0  0  0  0  0
    2.6661   -0.0390   -4.7112 C   0  0  0  0  0  0  0  0  0  0  0  0
    1.8558   -0.6308   -7.2488 O   0  0  0  0  0  0  0  0  0  0  0  0
    3.2816    1.4995   -6.8671 O   0  0  0  0  0  0  0  0  0  0  0  0
    0.8975    1.5125   -6.1343 O   0  0  0  0  0  0  0  0  0  0  0  0
    1.7024   -0.8409   -4.2467 F   0  0  0  0  0  0  0  0  0  0  0  0
    3.8164   -0.7137   -4.7779 F   0  0  0  0  0  0  0  0  0  0  0  0
    2.8063    1.0103   -3.8976 F   0  0  0  0  0  0  0  0  0  0  0  0
   -4.2974   -0.4443   -6.1357 O   0  0  0  0  0  0  0  0  0  0  0  0
   -5.0540   -0.5441   -4.9325 C   0  0  0  0  0  0  0  0  0  0  0  0
   -6.0338   -0.9293   -5.2296 H   0  0  0  0  0  0  0  0  0  0  0  0
   -5.1758    0.4407   -4.4561 H   0  0  0  0  0  0  0  0  0  0  0  0
   -4.5843   -1.2433   -4.2239 H   0  0  0  0  0  0  0  0  0  0  0  0
  1  6  1  0  0  0  0
  2  1  2  0  0  0  0
  2  3  1  0  0  0  0
  3  4  2  0  0  0  0
  4  5  1  0  0  0  0
  4  9  1  0  0  0  0
  5 10  1  0  0  0  0
  6  5  2  0  0  0  0
  7  1  1  0  0  0  0
  8  2  1  0  0  0  0
 12 11  3  0  0  0  0
 13 17  1  0  0  0  0
 13 14  1  0  0  0  0
 14 18  1  0  0  0  0
 14 20  1  0  0  0  0
 15 13  2  0  0  0  0
 16 13  2  0  0  0  0
 17  3  1  0  0  0  0
 19 14  1  0  0  0  0
 21  6  1  0  0  0  0
 21 22  1  0  0  0  0
 22 24  1  0  0  0  0
 22 25  1  0  0  0  0
 23 22  1  0  0  0  0
M  END
