Coordinates from ORCA-job p-CH3O-Ph-N2-OTf-B3LYPG-aug-cc-pVDZ-scan-d29-49-n200
 OpenBabel01151817073D

 25 24  0  0  0  0  0  0  0  0999 V2000
   -2.1972   -0.0481   -7.2993 C   0  0  0  0  0  0  0  0  0  0  0  0
   -0.8781    0.3891   -7.3304 C   0  0  0  0  0  0  0  0  0  0  0  0
   -0.2788    0.8275   -6.1467 C   0  0  0  0  0  0  0  0  0  0  0  0
   -0.9812    0.8508   -4.9481 C   0  0  0  0  0  0  0  0  0  0  0  0
   -2.3122    0.4190   -4.9165 C   0  0  0  0  0  0  0  0  0  0  0  0
   -2.9214   -0.0388   -6.0941 C   0  0  0  0  0  0  0  0  0  0  0  0
   -2.6895   -0.4004   -8.2044 H   0  0  0  0  0  0  0  0  0  0  0  0
   -0.3153    0.3929   -8.2616 H   0  0  0  0  0  0  0  0  0  0  0  0
   -0.4994    1.2181   -4.0436 H   0  0  0  0  0  0  0  0  0  0  0  0
   -2.8524    0.4462   -3.9738 H   0  0  0  0  0  0  0  0  0  0  0  0
   -1.4617    4.3865   -6.9930 N   0  0  0  0  0  0  0  0  0  0  0  0
   -2.5081    4.7340   -6.9298 N   0  0  0  0  0  0  0  0  0  0  0  0
    2.3448    0.3670   -6.3521 S   0  0  0  0  0  0  0  0  0  0  0  0
    2.7781    0.0523   -4.5235 C   0  0  0  0  0  0  0  0  0  0  0  0
    1.9533   -0.9279   -6.9334 O   0  0  0  0  0  0  0  0  0  0  0  0
    3.4126    1.2155   -6.8954 O   0  0  0  0  0  0  0  0  0  0  0  0
    1.0240    1.3733   -6.1711 O   0  0  0  0  0  0  0  0  0  0  0  0
    1.7907   -0.6294   -3.9315 F   0  0  0  0  0  0  0  0  0  0  0  0
    3.9045   -0.6634   -4.4789 F   0  0  0  0  0  0  0  0  0  0  0  0
    2.9582    1.2154   -3.8942 F   0  0  0  0  0  0  0  0  0  0  0  0
   -4.2062   -0.4873   -6.1748 O   0  0  0  0  0  0  0  0  0  0  0  0
   -4.9938   -0.5016   -4.9873 C   0  0  0  0  0  0  0  0  0  0  0  0
   -5.9703   -0.8950   -5.2844 H   0  0  0  0  0  0  0  0  0  0  0  0
   -5.1161    0.5131   -4.5786 H   0  0  0  0  0  0  0  0  0  0  0  0
   -4.5502   -1.1585   -4.2237 H   0  0  0  0  0  0  0  0  0  0  0  0
  1  6  1  0  0  0  0
  2  1  2  0  0  0  0
  2  3  1  0  0  0  0
  3  4  2  0  0  0  0
  4  5  1  0  0  0  0
  4  9  1  0  0  0  0
  5 10  1  0  0  0  0
  6  5  2  0  0  0  0
  7  1  1  0  0  0  0
  8  2  1  0  0  0  0
 11 12  3  0  0  0  0
 13 17  1  0  0  0  0
 13 14  1  0  0  0  0
 14 19  1  0  0  0  0
 14 18  1  0  0  0  0
 14 20  1  0  0  0  0
 15 13  2  0  0  0  0
 16 13  2  0  0  0  0
 17  3  1  0  0  0  0
 21  6  1  0  0  0  0
 21 22  1  0  0  0  0
 22 24  1  0  0  0  0
 22 25  1  0  0  0  0
 23 22  1  0  0  0  0
M  END
