Coordinates from ORCA-job p-CH3O-Ph-N2-OTf-B3LYPG-aug-cc-pVDZ-scan-d09-29-n200
 OpenBabel01151817073D

 25 24  0  0  0  0  0  0  0  0999 V2000
   -2.3298    0.0916   -7.2826 C   0  0  0  0  0  0  0  0  0  0  0  0
   -1.0191    0.5524   -7.3200 C   0  0  0  0  0  0  0  0  0  0  0  0
   -0.3990    0.9312   -6.1289 C   0  0  0  0  0  0  0  0  0  0  0  0
   -1.0594    0.8458   -4.9117 C   0  0  0  0  0  0  0  0  0  0  0  0
   -2.3826    0.3914   -4.8715 C   0  0  0  0  0  0  0  0  0  0  0  0
   -3.0209    0.0102   -6.0608 C   0  0  0  0  0  0  0  0  0  0  0  0
   -2.8418   -0.2091   -8.1953 H   0  0  0  0  0  0  0  0  0  0  0  0
   -0.4835    0.6268   -8.2639 H   0  0  0  0  0  0  0  0  0  0  0  0
   -0.5554    1.1561   -3.9981 H   0  0  0  0  0  0  0  0  0  0  0  0
   -2.8938    0.3404   -3.9139 H   0  0  0  0  0  0  0  0  0  0  0  0
   -0.9641    3.6595   -6.5618 N   0  0  0  0  0  0  0  0  0  0  0  0
   -0.7392    4.7185   -6.7798 N   0  0  0  0  0  0  0  0  0  0  0  0
    2.2251    0.5351   -6.4654 S   0  0  0  0  0  0  0  0  0  0  0  0
    2.6738   -0.0290   -4.7007 C   0  0  0  0  0  0  0  0  0  0  0  0
    1.8481   -0.6709   -7.2209 O   0  0  0  0  0  0  0  0  0  0  0  0
    3.2784    1.4657   -6.8894 O   0  0  0  0  0  0  0  0  0  0  0  0
    0.8970    1.4941   -6.1450 O   0  0  0  0  0  0  0  0  0  0  0  0
    1.7117   -0.8200   -4.2144 F   0  0  0  0  0  0  0  0  0  0  0  0
    3.8227   -0.7068   -4.7605 F   0  0  0  0  0  0  0  0  0  0  0  0
    2.8203    1.0361   -3.9089 F   0  0  0  0  0  0  0  0  0  0  0  0
   -4.3028   -0.4484   -6.1372 O   0  0  0  0  0  0  0  0  0  0  0  0
   -5.0555   -0.5542   -4.9321 C   0  0  0  0  0  0  0  0  0  0  0  0
   -6.0368   -0.9365   -5.2283 H   0  0  0  0  0  0  0  0  0  0  0  0
   -5.1747    0.4281   -4.4499 H   0  0  0  0  0  0  0  0  0  0  0  0
   -4.5844   -1.2579   -4.2291 H   0  0  0  0  0  0  0  0  0  0  0  0
  1  6  1  0  0  0  0
  2  1  2  0  0  0  0
  2  3  1  0  0  0  0
  3  4  2  0  0  0  0
  4  5  1  0  0  0  0
  4  9  1  0  0  0  0
  5 10  1  0  0  0  0
  6  5  2  0  0  0  0
  7  1  1  0  0  0  0
  8  2  1  0  0  0  0
 12 11  3  0  0  0  0
 13 17  1  0  0  0  0
 13 14  1  0  0  0  0
 14 18  1  0  0  0  0
 14 20  1  0  0  0  0
 15 13  2  0  0  0  0
 16 13  2  0  0  0  0
 17  3  1  0  0  0  0
 19 14  1  0  0  0  0
 21  6  1  0  0  0  0
 21 22  1  0  0  0  0
 22 24  1  0  0  0  0
 22 25  1  0  0  0  0
 23 22  1  0  0  0  0
M  END
