Coordinates from ORCA-job p-CH3O-Ph-N2-OTf-B3LYPG-aug-cc-pVDZ-scan-d09-29-n200
 OpenBabel01151817073D

 25 23  0  0  0  0  0  0  0  0999 V2000
   -1.8996   -0.3444   -6.3313 C   0  0  0  0  0  0  0  0  0  0  0  0
   -0.9260    0.6718   -6.4926 C   0  0  0  0  0  0  0  0  0  0  0  0
   -1.4139    1.7761   -5.9516 C   0  0  0  0  0  0  0  0  0  0  0  0
   -2.4950    2.2508   -5.3032 C   0  0  0  0  0  0  0  0  0  0  0  0
   -3.4260    1.1898   -5.1702 C   0  0  0  0  0  0  0  0  0  0  0  0
   -3.1276   -0.0902   -5.6823 C   0  0  0  0  0  0  0  0  0  0  0  0
   -1.6775   -1.3447   -6.7026 H   0  0  0  0  0  0  0  0  0  0  0  0
    0.1129    0.4908   -6.9570 H   0  0  0  0  0  0  0  0  0  0  0  0
   -2.6661    3.2558   -4.9331 H   0  0  0  0  0  0  0  0  0  0  0  0
   -4.3642    1.4082   -4.6664 H   0  0  0  0  0  0  0  0  0  0  0  0
   -0.0218    3.6323   -6.2325 N   0  0  0  0  0  0  0  0  0  0  0  0
    0.5738    4.5490   -6.3769 N   0  0  0  0  0  0  0  0  0  0  0  0
    2.5744    0.8612   -6.4755 S   0  0  0  0  0  0  0  0  0  0  0  0
    3.0846   -0.7060   -5.5392 C   0  0  0  0  0  0  0  0  0  0  0  0
    1.5762    0.3058   -7.5027 O   0  0  0  0  0  0  0  0  0  0  0  0
    3.8277    1.3809   -7.0719 O   0  0  0  0  0  0  0  0  0  0  0  0
    1.8929    1.6963   -5.4317 O   0  0  0  0  0  0  0  0  0  0  0  0
    1.9964   -1.3015   -5.0010 F   0  0  0  0  0  0  0  0  0  0  0  0
    3.6800   -1.5829   -6.3632 F   0  0  0  0  0  0  0  0  0  0  0  0
    3.9345   -0.4031   -4.5449 F   0  0  0  0  0  0  0  0  0  0  0  0
   -3.9630   -1.1520   -5.5957 O   0  0  0  0  0  0  0  0  0  0  0  0
   -5.2188   -0.9878   -4.9331 C   0  0  0  0  0  0  0  0  0  0  0  0
   -5.7055   -1.9654   -4.9806 H   0  0  0  0  0  0  0  0  0  0  0  0
   -5.8409   -0.2413   -5.4492 H   0  0  0  0  0  0  0  0  0  0  0  0
   -5.0731   -0.6992   -3.8816 H   0  0  0  0  0  0  0  0  0  0  0  0
  1  6  1  0  0  0  0
  2  1  2  0  0  0  0
  2  3  1  0  0  0  0
  3  4  2  0  0  0  0
  4  5  1  0  0  0  0
  4  9  1  0  0  0  0
  5 10  1  0  0  0  0
  6 21  1  0  0  0  0
  6  5  2  0  0  0  0
  7  1  1  0  0  0  0
  8  2  1  0  0  0  0
 12 11  3  0  0  0  0
 13 14  1  0  0  0  0
 13 17  1  0  0  0  0
 14 18  1  0  0  0  0
 14 20  1  0  0  0  0
 15 13  2  0  0  0  0
 16 13  2  0  0  0  0
 19 14  1  0  0  0  0
 21 22  1  0  0  0  0
 22 25  1  0  0  0  0
 23 22  1  0  0  0  0
 24 22  1  0  0  0  0
M  RAD  2   3   2  17   2
M  END
