Coordinates from ORCA-job p-CH3O-Ph-N2-OTf-B3LYPG-aug-cc-pVDZ-scan-d09-29-n200
 OpenBabel01151817073D

 25 24  0  0  0  0  0  0  0  0999 V2000
   -2.3299    0.0920   -7.2825 C   0  0  0  0  0  0  0  0  0  0  0  0
   -1.0193    0.5529   -7.3204 C   0  0  0  0  0  0  0  0  0  0  0  0
   -0.3989    0.9335   -6.1291 C   0  0  0  0  0  0  0  0  0  0  0  0
   -1.0596    0.8471   -4.9111 C   0  0  0  0  0  0  0  0  0  0  0  0
   -2.3827    0.3925   -4.8711 C   0  0  0  0  0  0  0  0  0  0  0  0
   -3.0209    0.0111   -6.0605 C   0  0  0  0  0  0  0  0  0  0  0  0
   -2.8419   -0.2094   -8.1950 H   0  0  0  0  0  0  0  0  0  0  0  0
   -0.4839    0.6262   -8.2647 H   0  0  0  0  0  0  0  0  0  0  0  0
   -0.5559    1.1570   -3.9969 H   0  0  0  0  0  0  0  0  0  0  0  0
   -2.8940    0.3414   -3.9135 H   0  0  0  0  0  0  0  0  0  0  0  0
   -0.9637    3.6514   -6.5618 N   0  0  0  0  0  0  0  0  0  0  0  0
   -0.7395    4.7106   -6.7800 N   0  0  0  0  0  0  0  0  0  0  0  0
    2.2260    0.5371   -6.4655 S   0  0  0  0  0  0  0  0  0  0  0  0
    2.6734   -0.0295   -4.7012 C   0  0  0  0  0  0  0  0  0  0  0  0
    1.8500   -0.6678   -7.2231 O   0  0  0  0  0  0  0  0  0  0  0  0
    3.2796    1.4685   -6.8873 O   0  0  0  0  0  0  0  0  0  0  0  0
    0.8977    1.4955   -6.1449 O   0  0  0  0  0  0  0  0  0  0  0  0
    1.7109   -0.8213   -4.2169 F   0  0  0  0  0  0  0  0  0  0  0  0
    3.8224   -0.7070   -4.7611 F   0  0  0  0  0  0  0  0  0  0  0  0
    2.8191    1.0345   -3.9078 F   0  0  0  0  0  0  0  0  0  0  0  0
   -4.3026   -0.4480   -6.1369 O   0  0  0  0  0  0  0  0  0  0  0  0
   -5.0556   -0.5536   -4.9320 C   0  0  0  0  0  0  0  0  0  0  0  0
   -6.0367   -0.9363   -5.2281 H   0  0  0  0  0  0  0  0  0  0  0  0
   -5.1752    0.4288   -4.4500 H   0  0  0  0  0  0  0  0  0  0  0  0
   -4.5843   -1.2569   -4.2286 H   0  0  0  0  0  0  0  0  0  0  0  0
  1  6  1  0  0  0  0
  2  1  2  0  0  0  0
  2  3  1  0  0  0  0
  3  4  2  0  0  0  0
  4  5  1  0  0  0  0
  4  9  1  0  0  0  0
  5 10  1  0  0  0  0
  6  5  2  0  0  0  0
  7  1  1  0  0  0  0
  8  2  1  0  0  0  0
 12 11  3  0  0  0  0
 13 17  1  0  0  0  0
 13 14  1  0  0  0  0
 14 18  1  0  0  0  0
 14 20  1  0  0  0  0
 15 13  2  0  0  0  0
 16 13  2  0  0  0  0
 17  3  1  0  0  0  0
 19 14  1  0  0  0  0
 21  6  1  0  0  0  0
 21 22  1  0  0  0  0
 22 24  1  0  0  0  0
 22 25  1  0  0  0  0
 23 22  1  0  0  0  0
M  END
