Coordinates from ORCA-job p-CH3O-Ph-N2-OTf-B3LYPG-aug-cc-pVDZ-scan-d29-49-n200
 OpenBabel01151817073D

 25 24  0  0  0  0  0  0  0  0999 V2000
   -2.2008   -0.0461   -7.3000 C   0  0  0  0  0  0  0  0  0  0  0  0
   -0.8823    0.3928   -7.3314 C   0  0  0  0  0  0  0  0  0  0  0  0
   -0.2833    0.8321   -6.1480 C   0  0  0  0  0  0  0  0  0  0  0  0
   -0.9853    0.8542   -4.9490 C   0  0  0  0  0  0  0  0  0  0  0  0
   -2.3157    0.4208   -4.9171 C   0  0  0  0  0  0  0  0  0  0  0  0
   -2.9248   -0.0374   -6.0946 C   0  0  0  0  0  0  0  0  0  0  0  0
   -2.6931   -0.3988   -8.2049 H   0  0  0  0  0  0  0  0  0  0  0  0
   -0.3198    0.3974   -8.2628 H   0  0  0  0  0  0  0  0  0  0  0  0
   -0.5035    1.2220   -4.0448 H   0  0  0  0  0  0  0  0  0  0  0  0
   -2.8556    0.4473   -3.9743 H   0  0  0  0  0  0  0  0  0  0  0  0
   -1.4237    4.3332   -6.9769 N   0  0  0  0  0  0  0  0  0  0  0  0
   -2.4660    4.6935   -6.9174 N   0  0  0  0  0  0  0  0  0  0  0  0
    2.3409    0.3755   -6.3545 S   0  0  0  0  0  0  0  0  0  0  0  0
    2.7752    0.0609   -4.5261 C   0  0  0  0  0  0  0  0  0  0  0  0
    1.9510   -0.9198   -6.9359 O   0  0  0  0  0  0  0  0  0  0  0  0
    3.4072    1.2256   -6.8979 O   0  0  0  0  0  0  0  0  0  0  0  0
    1.0187    1.3797   -6.1728 O   0  0  0  0  0  0  0  0  0  0  0  0
    1.7891   -0.6223   -3.9339 F   0  0  0  0  0  0  0  0  0  0  0  0
    3.9026   -0.6531   -4.4820 F   0  0  0  0  0  0  0  0  0  0  0  0
    2.9539    1.2241   -3.8965 F   0  0  0  0  0  0  0  0  0  0  0  0
   -4.2093   -0.4869   -6.1751 O   0  0  0  0  0  0  0  0  0  0  0  0
   -4.9966   -0.5020   -4.9874 C   0  0  0  0  0  0  0  0  0  0  0  0
   -5.9729   -0.8961   -5.2843 H   0  0  0  0  0  0  0  0  0  0  0  0
   -5.1195    0.5125   -4.5785 H   0  0  0  0  0  0  0  0  0  0  0  0
   -4.5523   -1.1587   -4.2240 H   0  0  0  0  0  0  0  0  0  0  0  0
  1  6  1  0  0  0  0
  2  1  2  0  0  0  0
  2  3  1  0  0  0  0
  3  4  2  0  0  0  0
  4  5  1  0  0  0  0
  4  9  1  0  0  0  0
  5 10  1  0  0  0  0
  6  5  2  0  0  0  0
  7  1  1  0  0  0  0
  8  2  1  0  0  0  0
 11 12  3  0  0  0  0
 13 17  1  0  0  0  0
 13 14  1  0  0  0  0
 14 19  1  0  0  0  0
 14 18  1  0  0  0  0
 14 20  1  0  0  0  0
 15 13  2  0  0  0  0
 16 13  2  0  0  0  0
 17  3  1  0  0  0  0
 21  6  1  0  0  0  0
 21 22  1  0  0  0  0
 22 24  1  0  0  0  0
 22 25  1  0  0  0  0
 23 22  1  0  0  0  0
M  END
