Coordinates from ORCA-job p-CH3O-Ph-N2-OTf-B3LYPG-aug-cc-pVDZ-scan-d29-49-n200
 OpenBabel01151817073D

 25 24  0  0  0  0  0  0  0  0999 V2000
   -2.1542   -0.0651   -7.2932 C   0  0  0  0  0  0  0  0  0  0  0  0
   -0.8280    0.3499   -7.3182 C   0  0  0  0  0  0  0  0  0  0  0  0
   -0.2253    0.7753   -6.1314 C   0  0  0  0  0  0  0  0  0  0  0  0
   -0.9319    0.8074   -4.9353 C   0  0  0  0  0  0  0  0  0  0  0  0
   -2.2700    0.3976   -4.9096 C   0  0  0  0  0  0  0  0  0  0  0  0
   -2.8825   -0.0468   -6.0905 C   0  0  0  0  0  0  0  0  0  0  0  0
   -2.6493   -0.4058   -8.2012 H   0  0  0  0  0  0  0  0  0  0  0  0
   -0.2621    0.3473   -8.2477 H   0  0  0  0  0  0  0  0  0  0  0  0
   -0.4478    1.1651   -4.0282 H   0  0  0  0  0  0  0  0  0  0  0  0
   -2.8132    0.4322   -3.9689 H   0  0  0  0  0  0  0  0  0  0  0  0
   -1.9151    4.9264   -7.1606 N   0  0  0  0  0  0  0  0  0  0  0  0
   -2.9992    5.1050   -7.0486 N   0  0  0  0  0  0  0  0  0  0  0  0
    2.3919    0.2742   -6.3257 S   0  0  0  0  0  0  0  0  0  0  0  0
    2.8167   -0.0402   -4.4950 C   0  0  0  0  0  0  0  0  0  0  0  0
    1.9816   -1.0166   -6.9032 O   0  0  0  0  0  0  0  0  0  0  0  0
    3.4733    1.1046   -6.8698 O   0  0  0  0  0  0  0  0  0  0  0  0
    1.0856    1.3011   -6.1509 O   0  0  0  0  0  0  0  0  0  0  0  0
    1.8182   -0.7048   -3.9026 F   0  0  0  0  0  0  0  0  0  0  0  0
    3.9322   -0.7724   -4.4456 F   0  0  0  0  0  0  0  0  0  0  0  0
    3.0130    1.1225   -3.8698 F   0  0  0  0  0  0  0  0  0  0  0  0
   -4.1745   -0.4728   -6.1771 O   0  0  0  0  0  0  0  0  0  0  0  0
   -4.9666   -0.4768   -4.9924 C   0  0  0  0  0  0  0  0  0  0  0  0
   -5.9486   -0.8528   -5.2940 H   0  0  0  0  0  0  0  0  0  0  0  0
   -5.0731    0.5387   -4.5815 H   0  0  0  0  0  0  0  0  0  0  0  0
   -4.5369   -1.1432   -4.2290 H   0  0  0  0  0  0  0  0  0  0  0  0
  1  6  1  0  0  0  0
  2  1  2  0  0  0  0
  2  3  1  0  0  0  0
  3  4  2  0  0  0  0
  4  5  1  0  0  0  0
  4  9  1  0  0  0  0
  5 10  1  0  0  0  0
  6  5  2  0  0  0  0
  7  1  1  0  0  0  0
  8  2  1  0  0  0  0
 11 12  3  0  0  0  0
 13 17  1  0  0  0  0
 13 14  1  0  0  0  0
 14 19  1  0  0  0  0
 14 18  1  0  0  0  0
 14 20  1  0  0  0  0
 15 13  2  0  0  0  0
 16 13  2  0  0  0  0
 17  3  1  0  0  0  0
 21  6  1  0  0  0  0
 21 22  1  0  0  0  0
 22 24  1  0  0  0  0
 22 25  1  0  0  0  0
 23 22  1  0  0  0  0
M  END
