Coordinates from ORCA-job p-CH3O-Ph-N2-OTf-B3LYPG-aug-cc-pVDZ-scan-d09-29-n200
 OpenBabel01151817073D

 25 24  0  0  0  0  0  0  0  0999 V2000
   -1.9081   -0.4285   -6.4248 C   0  0  0  0  0  0  0  0  0  0  0  0
   -0.9405    0.5302   -6.6951 C   0  0  0  0  0  0  0  0  0  0  0  0
   -1.2320    1.7895   -6.2048 C   0  0  0  0  0  0  0  0  0  0  0  0
   -2.3295    2.2024   -5.4763 C   0  0  0  0  0  0  0  0  0  0  0  0
   -3.2793    1.2108   -5.2184 C   0  0  0  0  0  0  0  0  0  0  0  0
   -3.0707   -0.1010   -5.6926 C   0  0  0  0  0  0  0  0  0  0  0  0
   -1.7700   -1.4545   -6.7607 H   0  0  0  0  0  0  0  0  0  0  0  0
    0.0011    0.3380   -7.2154 H   0  0  0  0  0  0  0  0  0  0  0  0
   -2.4524    3.2209   -5.1179 H   0  0  0  0  0  0  0  0  0  0  0  0
   -4.1651    1.4743   -4.6479 H   0  0  0  0  0  0  0  0  0  0  0  0
   -0.1467    2.9699   -6.5171 N   0  0  0  0  0  0  0  0  0  0  0  0
    0.4386    3.8720   -6.7690 N   0  0  0  0  0  0  0  0  0  0  0  0
    2.5745    1.1562   -6.1198 S   0  0  0  0  0  0  0  0  0  0  0  0
    2.8536   -0.6592   -5.6426 C   0  0  0  0  0  0  0  0  0  0  0  0
    1.9055    1.0536   -7.4762 O   0  0  0  0  0  0  0  0  0  0  0  0
    3.9317    1.7589   -6.1062 O   0  0  0  0  0  0  0  0  0  0  0  0
    1.6130    1.6439   -5.0580 O   0  0  0  0  0  0  0  0  0  0  0  0
    1.6770   -1.3370   -5.6570 F   0  0  0  0  0  0  0  0  0  0  0  0
    3.6866   -1.2602   -6.5081 F   0  0  0  0  0  0  0  0  0  0  0  0
    3.3730   -0.7583   -4.4080 F   0  0  0  0  0  0  0  0  0  0  0  0
   -3.9299   -1.1200   -5.4911 O   0  0  0  0  0  0  0  0  0  0  0  0
   -5.1213   -0.8893   -4.7311 C   0  0  0  0  0  0  0  0  0  0  0  0
   -5.6368   -1.8525   -4.6997 H   0  0  0  0  0  0  0  0  0  0  0  0
   -5.7616   -0.1431   -5.2233 H   0  0  0  0  0  0  0  0  0  0  0  0
   -4.8766   -0.5669   -3.7090 H   0  0  0  0  0  0  0  0  0  0  0  0
  1  6  1  0  0  0  0
  2  1  2  0  0  0  0
  2  3  1  0  0  0  0
  3  4  2  0  0  0  0
  4  5  1  0  0  0  0
  4  9  1  0  0  0  0
  5 10  1  0  0  0  0
  6 21  1  0  0  0  0
  6  5  2  0  0  0  0
  7  1  1  0  0  0  0
  8  2  1  0  0  0  0
 11  3  1  0  0  0  0
 12 11  1  0  0  0  0
 13 16  2  0  0  0  0
 13 14  1  0  0  0  0
 13 17  1  0  0  0  0
 14 20  1  0  0  0  0
 15 13  2  0  0  0  0
 18 14  1  0  0  0  0
 19 14  1  0  0  0  0
 21 22  1  0  0  0  0
 22 23  1  0  0  0  0
 22 25  1  0  0  0  0
 24 22  1  0  0  0  0
M  RAD  3  11   2  12   3  17   2
M  END
