Coordinates from ORCA-job Ph-N2-H-OTf-B3LYPG-6-31G_dp-scan-d09-49-n400
 OpenBabel08281820563D

 21 20  0  0  0  0  0  0  0  0999 V2000
   -1.9026    0.9022   -6.1578 C   0  0  0  0  0  0  0  0  0  0  0  0
   -0.6950    1.2338   -5.4714 C   0  0  0  0  0  0  0  0  0  0  0  0
   -0.4229    0.4055   -4.3132 C   0  0  0  0  0  0  0  0  0  0  0  0
   -1.2441   -0.6882   -3.9132 C   0  0  0  0  0  0  0  0  0  0  0  0
   -2.3730   -0.9586   -4.6381 C   0  0  0  0  0  0  0  0  0  0  0  0
   -2.6973   -0.1458   -5.7592 C   0  0  0  0  0  0  0  0  0  0  0  0
   -2.1450    1.5069   -7.0246 H   0  0  0  0  0  0  0  0  0  0  0  0
    1.2038    2.1609   -5.7119 H   0  0  0  0  0  0  0  0  0  0  0  0
   -0.9584   -1.2773   -3.0487 H   0  0  0  0  0  0  0  0  0  0  0  0
   -3.0152   -1.7864   -4.3602 H   0  0  0  0  0  0  0  0  0  0  0  0
    0.6339    0.7217   -3.5423 N   0  0  0  0  0  0  0  0  0  0  0  0
    1.4894    1.0306   -2.8862 N   0  0  0  0  0  0  0  0  0  0  0  0
    3.1400    0.7938   -5.9861 S   0  0  0  0  0  0  0  0  0  0  0  0
    2.6043    0.6833   -7.7979 C   0  0  0  0  0  0  0  0  0  0  0  0
    2.4022    2.1426   -5.6110 O   0  0  0  0  0  0  0  0  0  0  0  0
    0.0427    2.2045   -5.8545 O   0  0  0  0  0  0  0  0  0  0  0  0
    2.4319   -0.3826   -5.3716 O   0  0  0  0  0  0  0  0  0  0  0  0
    1.2751    0.5272   -7.9214 F   0  0  0  0  0  0  0  0  0  0  0  0
    2.9719    1.7882   -8.4616 F   0  0  0  0  0  0  0  0  0  0  0  0
    3.2092   -0.3746   -8.3630 F   0  0  0  0  0  0  0  0  0  0  0  0
   -3.5990   -0.3668   -6.3230 H   0  0  0  0  0  0  0  0  0  0  0  0
  1  6  2  0  0  0  0
  1  2  1  0  0  0  0
  2  3  2  0  0  0  0
  3  4  1  0  0  0  0
  3 11  1  0  0  0  0
  4  9  1  0  0  0  0
  5 10  1  0  0  0  0
  5  4  2  0  0  0  0
  6  5  1  0  0  0  0
  7  1  1  0  0  0  0
 11 12  1  0  0  0  0
 13 15  1  0  0  0  0
 13 17  1  0  0  0  0
 14 13  1  0  0  0  0
 16  8  1  0  0  0  0
 16  2  1  0  0  0  0
 18 14  1  0  0  0  0
 19 14  1  0  0  0  0
 20 14  1  0  0  0  0
 21  6  1  0  0  0  0
M  RAD  4  11   2  12   3  15   2  17   2
M  END
