Coordinates from ORCA-job Ph-N2-H-OTf-B3LYPG-6-31G_dp-scan-d09-49-n400
 OpenBabel08281820563D

 21 20  0  0  0  0  0  0  0  0999 V2000
   -1.9848    0.8595   -6.1027 C   0  0  0  0  0  0  0  0  0  0  0  0
   -0.8477    1.2914   -5.3101 C   0  0  0  0  0  0  0  0  0  0  0  0
   -0.5800    0.3911   -4.1651 C   0  0  0  0  0  0  0  0  0  0  0  0
   -1.3290   -0.7925   -3.8805 C   0  0  0  0  0  0  0  0  0  0  0  0
   -2.3723   -1.1162   -4.6976 C   0  0  0  0  0  0  0  0  0  0  0  0
   -2.6922   -0.2722   -5.8102 C   0  0  0  0  0  0  0  0  0  0  0  0
   -2.2349    1.4856   -6.9529 H   0  0  0  0  0  0  0  0  0  0  0  0
    2.0081    2.4657   -5.7951 H   0  0  0  0  0  0  0  0  0  0  0  0
   -1.0539   -1.4044   -3.0277 H   0  0  0  0  0  0  0  0  0  0  0  0
   -2.9583   -2.0087   -4.5101 H   0  0  0  0  0  0  0  0  0  0  0  0
    0.4202    0.7545   -3.3697 N   0  0  0  0  0  0  0  0  0  0  0  0
    1.2709    1.1520   -2.7430 N   0  0  0  0  0  0  0  0  0  0  0  0
    3.3331    0.7645   -6.1675 S   0  0  1  0  0  0  0  0  0  0  0  0
    2.5347    0.6649   -7.8788 C   0  0  0  0  0  0  0  0  0  0  0  0
    2.9755    2.3517   -5.9178 O   0  0  0  0  0  0  0  0  0  0  0  0
   -0.1754    2.3085   -5.5457 O   0  0  0  0  0  0  0  0  0  0  0  0
    2.4843   -0.1151   -5.3193 O   0  0  0  0  0  0  0  0  0  0  0  0
    1.2511    1.0295   -7.8518 F   0  0  0  0  0  0  0  0  0  0  0  0
    3.2056    1.4605   -8.7190 F   0  0  0  0  0  0  0  0  0  0  0  0
    2.6270   -0.6002   -8.3078 F   0  0  0  0  0  0  0  0  0  0  0  0
   -3.5303   -0.5493   -6.4448 H   0  0  0  0  0  0  0  0  0  0  0  0
  1  6  1  0  0  0  0
  1  2  1  0  0  0  0
  2  3  1  0  0  0  0
  3  4  2  0  0  0  0
  3 11  1  0  0  0  0
  4  9  1  0  0  0  0
  5 10  1  0  0  0  0
  5  4  1  0  0  0  0
  6  5  2  0  0  0  0
  7  1  1  0  0  0  0
 11 12  1  0  0  0  0
 13 14  1  6  0  0  0
 13 15  1  0  0  0  0
 13 17  1  0  0  0  0
 14 18  1  0  0  0  0
 15  8  1  0  0  0  0
 16  2  2  0  0  0  0
 19 14  1  0  0  0  0
 20 14  1  0  0  0  0
 21  6  1  0  0  0  0
M  RAD  4   1   2  11   2  12   3  17   2
M  END
