Coordinates from ORCA-job Ph-N2-H-OTf-B3LYPG-6-31G_dp-scan-d09-49-n400
 OpenBabel08281820563D

 21 20  0  0  0  0  0  0  0  0999 V2000
   -1.9184    0.8521   -6.1362 C   0  0  0  0  0  0  0  0  0  0  0  0
   -0.7425    1.2289   -5.3843 C   0  0  0  0  0  0  0  0  0  0  0  0
   -0.5183    0.3786   -4.2044 C   0  0  0  0  0  0  0  0  0  0  0  0
   -1.3445   -0.7314   -3.8480 C   0  0  0  0  0  0  0  0  0  0  0  0
   -2.4245   -1.0188   -4.6317 C   0  0  0  0  0  0  0  0  0  0  0  0
   -2.7030   -0.2100   -5.7780 C   0  0  0  0  0  0  0  0  0  0  0  0
   -2.1342    1.4525   -7.0135 H   0  0  0  0  0  0  0  0  0  0  0  0
    1.6441    2.2870   -5.7310 H   0  0  0  0  0  0  0  0  0  0  0  0
   -1.0971   -1.3181   -2.9696 H   0  0  0  0  0  0  0  0  0  0  0  0
   -3.0686   -1.8567   -4.3902 H   0  0  0  0  0  0  0  0  0  0  0  0
    0.5141    0.7045   -3.4267 N   0  0  0  0  0  0  0  0  0  0  0  0
    1.3849    1.0467   -2.7985 N   0  0  0  0  0  0  0  0  0  0  0  0
    3.2462    0.8249   -6.1148 S   0  0  1  0  0  0  0  0  0  0  0  0
    2.5920    0.6996   -7.8847 C   0  0  0  0  0  0  0  0  0  0  0  0
    2.6495    2.3041   -5.7895 O   0  0  0  0  0  0  0  0  0  0  0  0
   -0.0044    2.1895   -5.6939 O   0  0  0  0  0  0  0  0  0  0  0  0
    2.4813   -0.2288   -5.3851 O   0  0  0  0  0  0  0  0  0  0  0  0
    1.2568    0.7091   -7.9321 F   0  0  0  0  0  0  0  0  0  0  0  0
    3.0688    1.7153   -8.6128 F   0  0  0  0  0  0  0  0  0  0  0  0
    3.0388   -0.4534   -8.4053 F   0  0  0  0  0  0  0  0  0  0  0  0
   -3.5695   -0.4545   -6.3868 H   0  0  0  0  0  0  0  0  0  0  0  0
  1  6  1  0  0  0  0
  1  2  1  0  0  0  0
  2  3  1  0  0  0  0
  3  4  2  0  0  0  0
  3 11  1  0  0  0  0
  4  9  1  0  0  0  0
  5 10  1  0  0  0  0
  5  4  1  0  0  0  0
  6  5  2  0  0  0  0
  7  1  1  0  0  0  0
 11 12  1  0  0  0  0
 13 14  1  6  0  0  0
 13 15  1  0  0  0  0
 13 17  1  0  0  0  0
 15  8  1  0  0  0  0
 16  2  2  0  0  0  0
 18 14  1  0  0  0  0
 19 14  1  0  0  0  0
 20 14  1  0  0  0  0
 21  6  1  0  0  0  0
M  RAD  4   1   2  11   2  12   3  17   2
M  END
