Coordinates from ORCA-job Ph-N2-H-OTf-B3LYPG-6-31G_dp-scan-d09-49-n400
 OpenBabel08281820563D

 21 20  0  0  0  0  0  0  0  0999 V2000
   -2.1097    0.8601   -6.0944 C   0  0  0  0  0  0  0  0  0  0  0  0
   -1.0663    1.4071   -5.2373 C   0  0  0  0  0  0  0  0  0  0  0  0
   -0.6735    0.4602   -4.1573 C   0  0  0  0  0  0  0  0  0  0  0  0
   -1.2345   -0.8429   -3.9843 C   0  0  0  0  0  0  0  0  0  0  0  0
   -2.2044   -1.2557   -4.8493 C   0  0  0  0  0  0  0  0  0  0  0  0
   -2.6356   -0.3851   -5.9052 C   0  0  0  0  0  0  0  0  0  0  0  0
   -2.4466    1.5048   -6.8998 H   0  0  0  0  0  0  0  0  0  0  0  0
    2.7910    2.6104   -5.9936 H   0  0  0  0  0  0  0  0  0  0  0  0
   -0.8784   -1.4726   -3.1753 H   0  0  0  0  0  0  0  0  0  0  0  0
   -2.6498   -2.2384   -4.7445 H   0  0  0  0  0  0  0  0  0  0  0  0
    0.2635    0.9087   -3.3341 N   0  0  0  0  0  0  0  0  0  0  0  0
    1.0583    1.4032   -2.7001 N   0  0  0  0  0  0  0  0  0  0  0  0
    3.4129    0.5167   -6.1967 S   0  0  1  0  0  0  0  0  0  0  0  0
    2.3276    0.6506   -7.7415 C   0  0  0  0  0  0  0  0  0  0  0  0
    3.6492    2.1531   -6.0839 O   0  0  0  0  0  0  0  0  0  0  0  0
   -0.5555    2.5240   -5.3639 O   0  0  0  0  0  0  0  0  0  0  0  0
    2.4884    0.0254   -5.1448 O   0  0  0  0  0  0  0  0  0  0  0  0
    1.3621    1.5608   -7.5657 F   0  0  0  0  0  0  0  0  0  0  0  0
    3.0889    1.0087   -8.7807 F   0  0  0  0  0  0  0  0  0  0  0  0
    1.7769   -0.5400   -7.9860 F   0  0  0  0  0  0  0  0  0  0  0  0
   -3.4130   -0.7382   -6.5787 H   0  0  0  0  0  0  0  0  0  0  0  0
  1  6  1  0  0  0  0
  1  2  1  0  0  0  0
  2  3  1  0  0  0  0
  3  4  2  0  0  0  0
  3 11  1  0  0  0  0
  4  9  1  0  0  0  0
  5 10  1  0  0  0  0
  5  4  1  0  0  0  0
  6  5  2  0  0  0  0
  7  1  1  0  0  0  0
 11 12  1  0  0  0  0
 13 14  1  6  0  0  0
 13 15  1  0  0  0  0
 13 17  1  0  0  0  0
 14 18  1  0  0  0  0
 15  8  1  0  0  0  0
 16  2  2  0  0  0  0
 19 14  1  0  0  0  0
 20 14  1  0  0  0  0
 21  6  1  0  0  0  0
M  RAD  4   1   2  11   2  12   3  17   2
M  END
