Coordinates from ORCA-job Ph-N2-H-OTf-B3LYPG-6-31G_dp-scan-d09-49-n400
 OpenBabel08281820563D

 21 20  0  0  0  0  0  0  0  0999 V2000
   -2.1039    0.8475   -6.0780 C   0  0  0  0  0  0  0  0  0  0  0  0
   -1.0066    1.3526   -5.2658 C   0  0  0  0  0  0  0  0  0  0  0  0
   -0.6551    0.4264   -4.1567 C   0  0  0  0  0  0  0  0  0  0  0  0
   -1.2959   -0.8293   -3.9220 C   0  0  0  0  0  0  0  0  0  0  0  0
   -2.3096   -1.2093   -4.7512 C   0  0  0  0  0  0  0  0  0  0  0  0
   -2.7066   -0.3521   -5.8304 C   0  0  0  0  0  0  0  0  0  0  0  0
   -2.4148    1.4826   -6.9013 H   0  0  0  0  0  0  0  0  0  0  0  0
    2.4854    2.5798   -5.9322 H   0  0  0  0  0  0  0  0  0  0  0  0
   -0.9646   -1.4499   -3.0957 H   0  0  0  0  0  0  0  0  0  0  0  0
   -2.8152   -2.1562   -4.6000 H   0  0  0  0  0  0  0  0  0  0  0  0
    0.3216    0.8444   -3.3633 N   0  0  0  0  0  0  0  0  0  0  0  0
    1.1517    1.3079   -2.7520 N   0  0  0  0  0  0  0  0  0  0  0  0
    3.4082    0.6066   -6.1799 S   0  0  1  0  0  0  0  0  0  0  0  0
    2.4947    0.6756   -7.8349 C   0  0  0  0  0  0  0  0  0  0  0  0
    3.4037    2.2485   -5.9716 O   0  0  0  0  0  0  0  0  0  0  0  0
   -0.4261    2.4289   -5.4496 O   0  0  0  0  0  0  0  0  0  0  0  0
    2.4481   -0.0608   -5.2645 O   0  0  0  0  0  0  0  0  0  0  0  0
    1.3847    1.4148   -7.7382 F   0  0  0  0  0  0  0  0  0  0  0  0
    3.3025    1.2082   -8.7581 F   0  0  0  0  0  0  0  0  0  0  0  0
    2.1701   -0.5681   -8.1978 F   0  0  0  0  0  0  0  0  0  0  0  0
   -3.5205   -0.6770   -6.4740 H   0  0  0  0  0  0  0  0  0  0  0  0
  1  6  1  0  0  0  0
  1  2  1  0  0  0  0
  2  3  1  0  0  0  0
  3  4  2  0  0  0  0
  3 11  1  0  0  0  0
  4  9  1  0  0  0  0
  5 10  1  0  0  0  0
  5  4  1  0  0  0  0
  6  5  2  0  0  0  0
  7  1  1  0  0  0  0
 11 12  1  0  0  0  0
 13 14  1  6  0  0  0
 13 15  1  0  0  0  0
 13 17  1  0  0  0  0
 14 18  1  0  0  0  0
 15  8  1  0  0  0  0
 16  2  2  0  0  0  0
 19 14  1  0  0  0  0
 20 14  1  0  0  0  0
 21  6  1  0  0  0  0
M  RAD  4   1   2  11   2  12   3  17   2
M  END
