Coordinates from ORCA-job Ph-N2-H-OTf-B3LYPG-6-31G_dp-scan-d09-49-n400
 OpenBabel08281820563D

 21 20  0  0  0  0  0  0  0  0999 V2000
   -2.0802    0.8425   -6.0795 C   0  0  0  0  0  0  0  0  0  0  0  0
   -0.9585    1.3220   -5.2874 C   0  0  0  0  0  0  0  0  0  0  0  0
   -0.6339    0.4108   -4.1604 C   0  0  0  0  0  0  0  0  0  0  0  0
   -1.3200   -0.8138   -3.8916 C   0  0  0  0  0  0  0  0  0  0  0  0
   -2.3538   -1.1741   -4.7048 C   0  0  0  0  0  0  0  0  0  0  0  0
   -2.7262   -0.3276   -5.8005 C   0  0  0  0  0  0  0  0  0  0  0  0
   -2.3721    1.4699   -6.9155 H   0  0  0  0  0  0  0  0  0  0  0  0
    2.2899    2.5338   -5.8960 H   0  0  0  0  0  0  0  0  0  0  0  0
   -1.0061   -1.4270   -3.0531 H   0  0  0  0  0  0  0  0  0  0  0  0
   -2.8934   -2.0976   -4.5282 H   0  0  0  0  0  0  0  0  0  0  0  0
    0.3615    0.8092   -3.3791 N   0  0  0  0  0  0  0  0  0  0  0  0
    1.2081    1.2492   -2.7739 N   0  0  0  0  0  0  0  0  0  0  0  0
    3.3853    0.6550   -6.1694 S   0  0  1  0  0  0  0  0  0  0  0  0
    2.5581    0.6908   -7.8697 C   0  0  0  0  0  0  0  0  0  0  0  0
    3.2345    2.2814   -5.9189 O   0  0  0  0  0  0  0  0  0  0  0  0
   -0.3403    2.3729   -5.5024 O   0  0  0  0  0  0  0  0  0  0  0  0
    2.4390   -0.1152   -5.3216 O   0  0  0  0  0  0  0  0  0  0  0  0
    1.3722    1.3043   -7.8176 F   0  0  0  0  0  0  0  0  0  0  0  0
    3.3541    1.3377   -8.7279 F   0  0  0  0  0  0  0  0  0  0  0  0
    2.3899   -0.5674   -8.2881 F   0  0  0  0  0  0  0  0  0  0  0  0
   -3.5563   -0.6359   -6.4313 H   0  0  0  0  0  0  0  0  0  0  0  0
  1  6  1  0  0  0  0
  1  2  1  0  0  0  0
  2  3  1  0  0  0  0
  3  4  2  0  0  0  0
  3 11  1  0  0  0  0
  4  9  1  0  0  0  0
  5 10  1  0  0  0  0
  5  4  1  0  0  0  0
  6  5  2  0  0  0  0
  7  1  1  0  0  0  0
 11 12  1  0  0  0  0
 13 14  1  6  0  0  0
 13 15  1  0  0  0  0
 13 17  1  0  0  0  0
 14 18  1  0  0  0  0
 15  8  1  0  0  0  0
 16  2  2  0  0  0  0
 19 14  1  0  0  0  0
 20 14  1  0  0  0  0
 21  6  1  0  0  0  0
M  RAD  4   1   2  11   2  12   3  17   2
M  END
