Coordinates from ORCA-job Ph-N2-H-OTf-B3LYPG-6-31G_dp-scan-d09-49-n400
 OpenBabel08281820563D

 21 20  0  0  0  0  0  0  0  0999 V2000
   -2.1009    0.8630   -6.0961 C   0  0  0  0  0  0  0  0  0  0  0  0
   -1.0532    1.4042   -5.2409 C   0  0  0  0  0  0  0  0  0  0  0  0
   -0.6658    0.4565   -4.1599 C   0  0  0  0  0  0  0  0  0  0  0  0
   -1.2335   -0.8435   -3.9857 C   0  0  0  0  0  0  0  0  0  0  0  0
   -2.2059   -1.2517   -4.8502 C   0  0  0  0  0  0  0  0  0  0  0  0
   -2.6335   -0.3792   -5.9057 C   0  0  0  0  0  0  0  0  0  0  0  0
   -2.4353    1.5092   -6.9014 H   0  0  0  0  0  0  0  0  0  0  0  0
    2.7519    2.6107   -5.9899 H   0  0  0  0  0  0  0  0  0  0  0  0
   -0.8805   -1.4744   -3.1763 H   0  0  0  0  0  0  0  0  0  0  0  0
   -2.6562   -2.2321   -4.7447 H   0  0  0  0  0  0  0  0  0  0  0  0
    0.2708    0.9022   -3.3345 N   0  0  0  0  0  0  0  0  0  0  0  0
    1.0656    1.3934   -2.6982 N   0  0  0  0  0  0  0  0  0  0  0  0
    3.4121    0.5302   -6.1937 S   0  0  1  0  0  0  0  0  0  0  0  0
    2.3264    0.6461   -7.7402 C   0  0  0  0  0  0  0  0  0  0  0  0
    3.6189    2.1704   -6.0795 O   0  0  0  0  0  0  0  0  0  0  0  0
   -0.5349    2.5175   -5.3698 O   0  0  0  0  0  0  0  0  0  0  0  0
    2.4949    0.0230   -5.1429 O   0  0  0  0  0  0  0  0  0  0  0  0
    1.3555    1.5519   -7.5712 F   0  0  0  0  0  0  0  0  0  0  0  0
    3.0861    1.0012   -8.7816 F   0  0  0  0  0  0  0  0  0  0  0  0
    1.7825   -0.5493   -7.9766 F   0  0  0  0  0  0  0  0  0  0  0  0
   -3.4136   -0.7282   -6.5782 H   0  0  0  0  0  0  0  0  0  0  0  0
  1  6  1  0  0  0  0
  1  2  1  0  0  0  0
  2  3  1  0  0  0  0
  3  4  2  0  0  0  0
  3 11  1  0  0  0  0
  4  9  1  0  0  0  0
  5 10  1  0  0  0  0
  5  4  1  0  0  0  0
  6  5  2  0  0  0  0
  7  1  1  0  0  0  0
 11 12  1  0  0  0  0
 13 14  1  6  0  0  0
 13 15  1  0  0  0  0
 13 17  1  0  0  0  0
 14 18  1  0  0  0  0
 15  8  1  0  0  0  0
 16  2  2  0  0  0  0
 19 14  1  0  0  0  0
 20 14  1  0  0  0  0
 21  6  1  0  0  0  0
M  RAD  4   1   2  11   2  12   3  17   2
M  END
