Coordinates from ORCA-job Ph-N2-H-OTf-B3LYPG-6-31G_dp-scan-d09-49-n400
 OpenBabel08281820563D

 21 20  0  0  0  0  0  0  0  0999 V2000
   -2.0637    0.8431   -6.0832 C   0  0  0  0  0  0  0  0  0  0  0  0
   -0.9380    1.3142   -5.2925 C   0  0  0  0  0  0  0  0  0  0  0  0
   -0.6243    0.4062   -4.1607 C   0  0  0  0  0  0  0  0  0  0  0  0
   -1.3234   -0.8099   -3.8865 C   0  0  0  0  0  0  0  0  0  0  0  0
   -2.3599   -1.1637   -4.6991 C   0  0  0  0  0  0  0  0  0  0  0  0
   -2.7223   -0.3190   -5.7993 C   0  0  0  0  0  0  0  0  0  0  0  0
   -2.3477    1.4693   -6.9228 H   0  0  0  0  0  0  0  0  0  0  0  0
    2.2332    2.5227   -5.8822 H   0  0  0  0  0  0  0  0  0  0  0  0
   -1.0170   -1.4219   -3.0444 H   0  0  0  0  0  0  0  0  0  0  0  0
   -2.9091   -2.0807   -4.5186 H   0  0  0  0  0  0  0  0  0  0  0  0
    0.3730    0.7981   -3.3782 N   0  0  0  0  0  0  0  0  0  0  0  0
    1.2214    1.2300   -2.7700 N   0  0  0  0  0  0  0  0  0  0  0  0
    3.3744    0.6735   -6.1677 S   0  0  1  0  0  0  0  0  0  0  0  0
    2.5601    0.6903   -7.8744 C   0  0  0  0  0  0  0  0  0  0  0  0
    3.1842    2.2943   -5.9136 O   0  0  0  0  0  0  0  0  0  0  0  0
   -0.3090    2.3582   -5.5129 O   0  0  0  0  0  0  0  0  0  0  0  0
    2.4405   -0.1200   -5.3273 O   0  0  0  0  0  0  0  0  0  0  0  0
    1.3566    1.2685   -7.8328 F   0  0  0  0  0  0  0  0  0  0  0  0
    3.3449    1.3611   -8.7245 F   0  0  0  0  0  0  0  0  0  0  0  0
    2.4324   -0.5718   -8.2965 F   0  0  0  0  0  0  0  0  0  0  0  0
   -3.5547   -0.6217   -6.4298 H   0  0  0  0  0  0  0  0  0  0  0  0
  1  6  1  0  0  0  0
  1  2  1  0  0  0  0
  2  3  1  0  0  0  0
  3  4  2  0  0  0  0
  3 11  1  0  0  0  0
  4  9  1  0  0  0  0
  5 10  1  0  0  0  0
  5  4  1  0  0  0  0
  6  5  2  0  0  0  0
  7  1  1  0  0  0  0
 11 12  1  0  0  0  0
 13 14  1  6  0  0  0
 13 15  1  0  0  0  0
 13 17  1  0  0  0  0
 14 18  1  0  0  0  0
 15  8  1  0  0  0  0
 16  2  2  0  0  0  0
 19 14  1  0  0  0  0
 20 14  1  0  0  0  0
 21  6  1  0  0  0  0
M  RAD  4   1   2  11   2  12   3  17   2
M  END
