Coordinates from ORCA-job Ph-N2-H-OTf-B3LYPG-6-31G_dp-scan-d09-49-n400
 OpenBabel08281820563D

 21 20  0  0  0  0  0  0  0  0999 V2000
   -2.3678    1.0477   -5.9928 C   0  0  0  0  0  0  0  0  0  0  0  0
   -1.3490    1.6932   -5.1745 C   0  0  0  0  0  0  0  0  0  0  0  0
   -0.5588    0.7080   -4.3793 C   0  0  0  0  0  0  0  0  0  0  0  0
   -0.7302   -0.7100   -4.4492 C   0  0  0  0  0  0  0  0  0  0  0  0
   -1.7038   -1.2050   -5.2649 C   0  0  0  0  0  0  0  0  0  0  0  0
   -2.5247   -0.3074   -6.0283 C   0  0  0  0  0  0  0  0  0  0  0  0
   -2.9924    1.7106   -6.5828 H   0  0  0  0  0  0  0  0  0  0  0  0
    2.7578    2.3057   -5.7636 H   0  0  0  0  0  0  0  0  0  0  0  0
   -0.0784   -1.3513   -3.8664 H   0  0  0  0  0  0  0  0  0  0  0  0
   -1.8611   -2.2753   -5.3420 H   0  0  0  0  0  0  0  0  0  0  0  0
    0.3585    1.2509   -3.5952 N   0  0  0  0  0  0  0  0  0  0  0  0
    1.0948    1.8525   -2.9810 N   0  0  0  0  0  0  0  0  0  0  0  0
    3.3460    0.2080   -6.0209 S   0  0  1  0  0  0  0  0  0  0  0  0
    2.0322    0.3396   -7.3815 C   0  0  0  0  0  0  0  0  0  0  0  0
    3.5972    1.8441   -5.9560 O   0  0  0  0  0  0  0  0  0  0  0  0
   -1.1327    2.9063   -5.1268 O   0  0  0  0  0  0  0  0  0  0  0  0
    2.5906   -0.2721   -4.8357 O   0  0  0  0  0  0  0  0  0  0  0  0
    1.1622    1.3235   -7.1030 F   0  0  0  0  0  0  0  0  0  0  0  0
    2.6321    0.6024   -8.5450 F   0  0  0  0  0  0  0  0  0  0  0  0
    1.3776   -0.8173   -7.4655 F   0  0  0  0  0  0  0  0  0  0  0  0
   -3.2984   -0.7334   -6.6627 H   0  0  0  0  0  0  0  0  0  0  0  0
  1  2  1  0  0  0  0
  2 16  2  0  0  0  0
  2  3  1  0  0  0  0
  3 11  1  0  0  0  0
  4  3  2  0  0  0  0
  4  9  1  0  0  0  0
  5  4  1  0  0  0  0
  6  1  1  0  0  0  0
  6  5  2  0  0  0  0
  7  1  1  0  0  0  0
 10  5  1  0  0  0  0
 11 12  1  0  0  0  0
 13 14  1  6  0  0  0
 13 15  1  0  0  0  0
 13 17  1  0  0  0  0
 14 18  1  0  0  0  0
 15  8  1  0  0  0  0
 19 14  1  0  0  0  0
 20 14  1  0  0  0  0
 21  6  1  0  0  0  0
M  RAD  4   1   2  11   2  12   3  17   2
M  END
