Coordinates from ORCA-job Ph-N2-H-OTf-B3LYPG-6-31G_dp-scan-d09-49-n400
 OpenBabel08281820563D

 21 20  0  0  0  0  0  0  0  0999 V2000
   -2.7046    0.9063   -5.9142 C   0  0  0  0  0  0  0  0  0  0  0  0
   -1.5338    1.6238   -5.4239 C   0  0  0  0  0  0  0  0  0  0  0  0
   -0.6088    0.7361   -4.6468 C   0  0  0  0  0  0  0  0  0  0  0  0
   -0.8145   -0.6684   -4.4490 C   0  0  0  0  0  0  0  0  0  0  0  0
   -1.9397   -1.2324   -4.9671 C   0  0  0  0  0  0  0  0  0  0  0  0
   -2.8847   -0.4268   -5.6943 C   0  0  0  0  0  0  0  0  0  0  0  0
   -3.4242    1.4974   -6.4711 H   0  0  0  0  0  0  0  0  0  0  0  0
    3.0300    1.9286   -5.0664 H   0  0  0  0  0  0  0  0  0  0  0  0
   -0.0642   -1.2416   -3.9164 H   0  0  0  0  0  0  0  0  0  0  0  0
   -2.1270   -2.2927   -4.8393 H   0  0  0  0  0  0  0  0  0  0  0  0
    0.4434    1.3543   -4.1617 N   0  0  0  0  0  0  0  0  0  0  0  0
    1.2949    2.0246   -3.8199 N   0  0  0  0  0  0  0  0  0  0  0  0
    3.4753    0.0141   -6.0291 S   0  0  1  0  0  0  0  0  0  0  0  0
    2.4223    0.6775   -7.4539 C   0  0  0  0  0  0  0  0  0  0  0  0
    3.8408    1.5101   -5.4292 O   0  0  0  0  0  0  0  0  0  0  0  0
   -1.2959    2.8167   -5.6058 O   0  0  0  0  0  0  0  0  0  0  0  0
    2.4931   -0.6818   -5.1547 O   0  0  0  0  0  0  0  0  0  0  0  0
    1.4804    1.5163   -6.9996 F   0  0  0  0  0  0  0  0  0  0  0  0
    3.2073    1.3229   -8.3192 F   0  0  0  0  0  0  0  0  0  0  0  0
    1.8369   -0.3531   -8.0683 F   0  0  0  0  0  0  0  0  0  0  0  0
   -3.7753   -0.9109   -6.0871 H   0  0  0  0  0  0  0  0  0  0  0  0
  1  6  1  0  0  0  0
  1  2  1  0  0  0  0
  2  3  1  0  0  0  0
  3  4  2  0  0  0  0
  3 11  1  0  0  0  0
  4  9  1  0  0  0  0
  5 10  1  0  0  0  0
  5  4  1  0  0  0  0
  6  5  2  0  0  0  0
  7  1  1  0  0  0  0
 11 12  1  0  0  0  0
 13 14  1  6  0  0  0
 13 15  1  0  0  0  0
 13 17  1  0  0  0  0
 14 18  1  0  0  0  0
 15  8  1  0  0  0  0
 16  2  2  0  0  0  0
 19 14  1  0  0  0  0
 20 14  1  0  0  0  0
 21  6  1  0  0  0  0
M  RAD  4   1   2  11   2  12   3  17   2
M  END
