Coordinates from ORCA-job Ph-N2-H-OTf-B3LYPG-6-31G_dp-scan-d09-49-n400
 OpenBabel08281820563D

 21 20  0  0  0  0  0  0  0  0999 V2000
   -1.8903    0.8618   -6.1530 C   0  0  0  0  0  0  0  0  0  0  0  0
   -0.7014    1.2160   -5.4216 C   0  0  0  0  0  0  0  0  0  0  0  0
   -0.4778    0.3835   -4.2384 C   0  0  0  0  0  0  0  0  0  0  0  0
   -1.3197   -0.7051   -3.8574 C   0  0  0  0  0  0  0  0  0  0  0  0
   -2.4169   -0.9805   -4.6230 C   0  0  0  0  0  0  0  0  0  0  0  0
   -2.6943   -0.1802   -5.7726 C   0  0  0  0  0  0  0  0  0  0  0  0
   -2.1026    1.4563   -7.0349 H   0  0  0  0  0  0  0  0  0  0  0  0
    1.4610    2.2077   -5.7122 H   0  0  0  0  0  0  0  0  0  0  0  0
   -1.0716   -1.2851   -2.9750 H   0  0  0  0  0  0  0  0  0  0  0  0
   -3.0736   -1.8026   -4.3622 H   0  0  0  0  0  0  0  0  0  0  0  0
    0.5647    0.6996   -3.4630 N   0  0  0  0  0  0  0  0  0  0  0  0
    1.4333    1.0211   -2.8242 N   0  0  0  0  0  0  0  0  0  0  0  0
    3.1933    0.8307   -6.0719 S   0  0  1  0  0  0  0  0  0  0  0  0
    2.5925    0.7031   -7.8613 C   0  0  0  0  0  0  0  0  0  0  0  0
    2.5132    2.2478   -5.7197 O   0  0  0  0  0  0  0  0  0  0  0  0
    0.0512    2.1655   -5.7628 O   0  0  0  0  0  0  0  0  0  0  0  0
    2.4671   -0.2878   -5.3926 O   0  0  0  0  0  0  0  0  0  0  0  0
    1.2622    0.5752   -7.9402 F   0  0  0  0  0  0  0  0  0  0  0  0
    2.9719    1.7859   -8.5503 F   0  0  0  0  0  0  0  0  0  0  0  0
    3.1628   -0.3798   -8.4132 F   0  0  0  0  0  0  0  0  0  0  0  0
   -3.5733   -0.4122   -6.3678 H   0  0  0  0  0  0  0  0  0  0  0  0
  1  6  1  0  0  0  0
  1  2  1  0  0  0  0
  2  3  1  0  0  0  0
  3  4  2  0  0  0  0
  3 11  1  0  0  0  0
  4  9  1  0  0  0  0
  5 10  1  0  0  0  0
  5  4  1  0  0  0  0
  6  5  2  0  0  0  0
  7  1  1  0  0  0  0
 11 12  1  0  0  0  0
 13 14  1  6  0  0  0
 13 15  1  0  0  0  0
 13 17  1  0  0  0  0
 15  8  1  0  0  0  0
 16  2  2  0  0  0  0
 18 14  1  0  0  0  0
 19 14  1  0  0  0  0
 20 14  1  0  0  0  0
 21  6  1  0  0  0  0
M  RAD  4   1   2  11   2  12   3  17   2
M  END
