Coordinates from ORCA-job Ph-N2-H-OTf-B3LYPG-6-31G_dp-scan-d09-49-n400
 OpenBabel08281820563D

 21 20  0  0  0  0  0  0  0  0999 V2000
   -1.8929    0.8596   -6.1515 C   0  0  0  0  0  0  0  0  0  0  0  0
   -0.7052    1.2162   -5.4175 C   0  0  0  0  0  0  0  0  0  0  0  0
   -0.4829    0.3820   -4.2337 C   0  0  0  0  0  0  0  0  0  0  0  0
   -1.3246   -0.7079   -3.8549 C   0  0  0  0  0  0  0  0  0  0  0  0
   -2.4195   -0.9843   -4.6231 C   0  0  0  0  0  0  0  0  0  0  0  0
   -2.6956   -0.1838   -5.7733 C   0  0  0  0  0  0  0  0  0  0  0  0
   -2.1046    1.4542   -7.0335 H   0  0  0  0  0  0  0  0  0  0  0  0
    1.4866    2.2162   -5.7135 H   0  0  0  0  0  0  0  0  0  0  0  0
   -1.0779   -1.2879   -2.9721 H   0  0  0  0  0  0  0  0  0  0  0  0
   -3.0759   -1.8072   -4.3640 H   0  0  0  0  0  0  0  0  0  0  0  0
    0.5578    0.6995   -3.4576 N   0  0  0  0  0  0  0  0  0  0  0  0
    1.4267    1.0239   -2.8202 N   0  0  0  0  0  0  0  0  0  0  0  0
    3.2006    0.8305   -6.0785 S   0  0  1  0  0  0  0  0  0  0  0  0
    2.5923    0.7035   -7.8653 C   0  0  0  0  0  0  0  0  0  0  0  0
    2.5300    2.2556   -5.7282 O   0  0  0  0  0  0  0  0  0  0  0  0
    0.0467    2.1657   -5.7548 O   0  0  0  0  0  0  0  0  0  0  0  0
    2.4705   -0.2807   -5.3928 O   0  0  0  0  0  0  0  0  0  0  0  0
    1.2612    0.5870   -7.9393 F   0  0  0  0  0  0  0  0  0  0  0  0
    2.9793    1.7813   -8.5576 F   0  0  0  0  0  0  0  0  0  0  0  0
    3.1521   -0.3856   -8.4154 F   0  0  0  0  0  0  0  0  0  0  0  0
   -3.5731   -0.4170   -6.3703 H   0  0  0  0  0  0  0  0  0  0  0  0
  1  6  1  0  0  0  0
  1  2  1  0  0  0  0
  2  3  1  0  0  0  0
  3  4  2  0  0  0  0
  3 11  1  0  0  0  0
  4  9  1  0  0  0  0
  5 10  1  0  0  0  0
  5  4  1  0  0  0  0
  6  5  2  0  0  0  0
  7  1  1  0  0  0  0
 11 12  1  0  0  0  0
 13 14  1  6  0  0  0
 13 15  1  0  0  0  0
 13 17  1  0  0  0  0
 15  8  1  0  0  0  0
 16  2  2  0  0  0  0
 18 14  1  0  0  0  0
 19 14  1  0  0  0  0
 20 14  1  0  0  0  0
 21  6  1  0  0  0  0
M  RAD  4   1   2  11   2  12   3  17   2
M  END
