Coordinates from ORCA-job Ph-N2-H-OTf-B3LYPG-6-31G_dp-scan-d09-49-n400
 OpenBabel08281820563D

 21 20  0  0  0  0  0  0  0  0999 V2000
   -2.1351    0.8625   -6.0998 C   0  0  0  0  0  0  0  0  0  0  0  0
   -1.1108    1.4342   -5.2352 C   0  0  0  0  0  0  0  0  0  0  0  0
   -0.6816    0.4845   -4.1705 C   0  0  0  0  0  0  0  0  0  0  0  0
   -1.1958   -0.8402   -4.0167 C   0  0  0  0  0  0  0  0  0  0  0  0
   -2.1522   -1.2739   -4.8866 C   0  0  0  0  0  0  0  0  0  0  0  0
   -2.6159   -0.4032   -5.9287 C   0  0  0  0  0  0  0  0  0  0  0  0
   -2.4965    1.5069   -6.8948 H   0  0  0  0  0  0  0  0  0  0  0  0
    2.9382    2.5851   -5.9949 H   0  0  0  0  0  0  0  0  0  0  0  0
   -0.8154   -1.4692   -3.2183 H   0  0  0  0  0  0  0  0  0  0  0  0
   -2.5627   -2.2730   -4.7957 H   0  0  0  0  0  0  0  0  0  0  0  0
    0.2423    0.9531   -3.3441 N   0  0  0  0  0  0  0  0  0  0  0  0
    1.0234    1.4665   -2.7080 N   0  0  0  0  0  0  0  0  0  0  0  0
    3.4075    0.4523   -6.1993 S   0  0  1  0  0  0  0  0  0  0  0  0
    2.2668    0.6525   -7.6961 C   0  0  0  0  0  0  0  0  0  0  0  0
    3.7597    2.0701   -6.1126 O   0  0  0  0  0  0  0  0  0  0  0  0
   -0.6400    2.5697   -5.3449 O   0  0  0  0  0  0  0  0  0  0  0  0
    2.4981    0.0343   -5.1037 O   0  0  0  0  0  0  0  0  0  0  0  0
    1.3722    1.6251   -7.4818 F   0  0  0  0  0  0  0  0  0  0  0  0
    3.0025    0.9572   -8.7700 F   0  0  0  0  0  0  0  0  0  0  0  0
    1.6284   -0.4996   -7.9088 F   0  0  0  0  0  0  0  0  0  0  0  0
   -3.3813   -0.7739   -6.6065 H   0  0  0  0  0  0  0  0  0  0  0  0
  1  6  1  0  0  0  0
  1  2  1  0  0  0  0
  2  3  1  0  0  0  0
  3  4  2  0  0  0  0
  3 11  1  0  0  0  0
  4  9  1  0  0  0  0
  5 10  1  0  0  0  0
  5  4  1  0  0  0  0
  6  5  2  0  0  0  0
  7  1  1  0  0  0  0
 11 12  1  0  0  0  0
 13 14  1  6  0  0  0
 13 15  1  0  0  0  0
 13 17  1  0  0  0  0
 14 18  1  0  0  0  0
 15  8  1  0  0  0  0
 16  2  2  0  0  0  0
 19 14  1  0  0  0  0
 20 14  1  0  0  0  0
 21  6  1  0  0  0  0
M  RAD  4   1   2  11   2  12   3  17   2
M  END
