Coordinates from ORCA-job Ph-N2-H-OTf-B3LYPG-6-31G_dp-scan-d09-49-n400
 OpenBabel08281820563D

 21 20  0  0  0  0  0  0  0  0999 V2000
   -2.0532    0.8438   -6.0856 C   0  0  0  0  0  0  0  0  0  0  0  0
   -0.9258    1.3102   -5.2949 C   0  0  0  0  0  0  0  0  0  0  0  0
   -0.6187    0.4038   -4.1606 C   0  0  0  0  0  0  0  0  0  0  0  0
   -1.3245   -0.8078   -3.8842 C   0  0  0  0  0  0  0  0  0  0  0  0
   -2.3620   -1.1581   -4.6972 C   0  0  0  0  0  0  0  0  0  0  0  0
   -2.7185   -0.3141   -5.7997 C   0  0  0  0  0  0  0  0  0  0  0  0
   -2.3326    1.4695   -6.9272 H   0  0  0  0  0  0  0  0  0  0  0  0
    2.2024    2.5171   -5.8733 H   0  0  0  0  0  0  0  0  0  0  0  0
   -1.0224   -1.4193   -3.0402 H   0  0  0  0  0  0  0  0  0  0  0  0
   -2.9163   -2.0717   -4.5152 H   0  0  0  0  0  0  0  0  0  0  0  0
    0.3792    0.7921   -3.3768 N   0  0  0  0  0  0  0  0  0  0  0  0
    1.2283    1.2194   -2.7663 N   0  0  0  0  0  0  0  0  0  0  0  0
    3.3670    0.6841   -6.1668 S   0  0  1  0  0  0  0  0  0  0  0  0
    2.5585    0.6892   -7.8765 C   0  0  0  0  0  0  0  0  0  0  0  0
    3.1563    2.3017   -5.9119 O   0  0  0  0  0  0  0  0  0  0  0  0
   -0.2909    2.3505   -5.5178 O   0  0  0  0  0  0  0  0  0  0  0  0
    2.4408   -0.1210   -5.3286 O   0  0  0  0  0  0  0  0  0  0  0  0
    1.3462    1.2487   -7.8413 F   0  0  0  0  0  0  0  0  0  0  0  0
    3.3372    1.3716   -8.7233 F   0  0  0  0  0  0  0  0  0  0  0  0
    2.4522   -0.5749   -8.2990 F   0  0  0  0  0  0  0  0  0  0  0  0
   -3.5517   -0.6137   -6.4306 H   0  0  0  0  0  0  0  0  0  0  0  0
  1  6  1  0  0  0  0
  1  2  1  0  0  0  0
  2  3  1  0  0  0  0
  3  4  2  0  0  0  0
  3 11  1  0  0  0  0
  4  9  1  0  0  0  0
  5 10  1  0  0  0  0
  5  4  1  0  0  0  0
  6  5  2  0  0  0  0
  7  1  1  0  0  0  0
 11 12  1  0  0  0  0
 13 14  1  6  0  0  0
 13 15  1  0  0  0  0
 13 17  1  0  0  0  0
 14 18  1  0  0  0  0
 15  8  1  0  0  0  0
 16  2  2  0  0  0  0
 19 14  1  0  0  0  0
 20 14  1  0  0  0  0
 21  6  1  0  0  0  0
M  RAD  4   1   2  11   2  12   3  17   2
M  END
