Coordinates from ORCA-job Ph-N2-H-OTf-B3LYPG-6-31G_dp-scan-d09-49-n400
 OpenBabel08281820563D

 21 20  0  0  0  0  0  0  0  0999 V2000
   -2.8350    0.9385   -5.7955 C   0  0  0  0  0  0  0  0  0  0  0  0
   -1.6642    1.6763   -5.3352 C   0  0  0  0  0  0  0  0  0  0  0  0
   -0.6441    0.7813   -4.6985 C   0  0  0  0  0  0  0  0  0  0  0  0
   -0.7749   -0.6423   -4.5873 C   0  0  0  0  0  0  0  0  0  0  0  0
   -1.9104   -1.2217   -5.0645 C   0  0  0  0  0  0  0  0  0  0  0  0
   -2.9402   -0.4140   -5.6628 C   0  0  0  0  0  0  0  0  0  0  0  0
   -3.6184    1.5316   -6.2557 H   0  0  0  0  0  0  0  0  0  0  0  0
    3.0363    1.9599   -5.0975 H   0  0  0  0  0  0  0  0  0  0  0  0
    0.0387   -1.2127   -4.1541 H   0  0  0  0  0  0  0  0  0  0  0  0
   -2.0419   -2.2964   -5.0019 H   0  0  0  0  0  0  0  0  0  0  0  0
    0.4159    1.4093   -4.2433 N   0  0  0  0  0  0  0  0  0  0  0  0
    1.2706    2.0778   -3.9065 N   0  0  0  0  0  0  0  0  0  0  0  0
    3.5405    0.0032   -5.9428 S   0  0  1  0  0  0  0  0  0  0  0  0
    2.5310    0.5727   -7.4377 C   0  0  0  0  0  0  0  0  0  0  0  0
    3.8635    1.5339   -5.4116 O   0  0  0  0  0  0  0  0  0  0  0  0
   -1.4959    2.8901   -5.4399 O   0  0  0  0  0  0  0  0  0  0  0  0
    2.5356   -0.6606   -5.0692 O   0  0  0  0  0  0  0  0  0  0  0  0
    1.5584    1.4152   -7.0604 F   0  0  0  0  0  0  0  0  0  0  0  0
    3.3354    1.1890   -8.3060 F   0  0  0  0  0  0  0  0  0  0  0  0
    1.9861   -0.4982   -8.0190 F   0  0  0  0  0  0  0  0  0  0  0  0
   -3.8351   -0.9121   -6.0275 H   0  0  0  0  0  0  0  0  0  0  0  0
  1  6  1  0  0  0  0
  1  2  1  0  0  0  0
  2  3  1  0  0  0  0
  3  4  2  0  0  0  0
  3 11  1  0  0  0  0
  4  9  1  0  0  0  0
  5 10  1  0  0  0  0
  5  4  1  0  0  0  0
  6  5  2  0  0  0  0
  7  1  1  0  0  0  0
 11 12  1  0  0  0  0
 13 14  1  6  0  0  0
 13 15  1  0  0  0  0
 13 17  1  0  0  0  0
 14 18  1  0  0  0  0
 15  8  1  0  0  0  0
 16  2  2  0  0  0  0
 19 14  1  0  0  0  0
 20 14  1  0  0  0  0
 21  6  1  0  0  0  0
M  RAD  4   1   2  11   2  12   3  17   2
M  END
