Coordinates from ORCA-job Ph-N2-H-OTf-B3LYPG-6-31G_dp-scan-d09-49-n400
 OpenBabel08281820563D

 21 20  0  0  0  0  0  0  0  0999 V2000
   -2.1060    0.8535   -6.0835 C   0  0  0  0  0  0  0  0  0  0  0  0
   -1.0451    1.3834   -5.2377 C   0  0  0  0  0  0  0  0  0  0  0  0
   -0.6751    0.4423   -4.1452 C   0  0  0  0  0  0  0  0  0  0  0  0
   -1.2711   -0.8423   -3.9519 C   0  0  0  0  0  0  0  0  0  0  0  0
   -2.2548   -1.2407   -4.8081 C   0  0  0  0  0  0  0  0  0  0  0  0
   -2.6653   -0.3740   -5.8751 C   0  0  0  0  0  0  0  0  0  0  0  0
   -2.4272    1.4956   -6.8974 H   0  0  0  0  0  0  0  0  0  0  0  0
    2.7005    2.6217   -5.9893 H   0  0  0  0  0  0  0  0  0  0  0  0
   -0.9301   -1.4699   -3.1347 H   0  0  0  0  0  0  0  0  0  0  0  0
   -2.7263   -2.2094   -4.6879 H   0  0  0  0  0  0  0  0  0  0  0  0
    0.2762    0.8761   -3.3303 N   0  0  0  0  0  0  0  0  0  0  0  0
    1.0835    1.3568   -2.7017 N   0  0  0  0  0  0  0  0  0  0  0  0
    3.4145    0.5574   -6.1960 S   0  0  1  0  0  0  0  0  0  0  0  0
    2.3999    0.6577   -7.7895 C   0  0  0  0  0  0  0  0  0  0  0  0
    3.5789    2.2004   -6.0595 O   0  0  0  0  0  0  0  0  0  0  0  0
   -0.5056    2.4849   -5.3822 O   0  0  0  0  0  0  0  0  0  0  0  0
    2.4614    0.0193   -5.1934 O   0  0  0  0  0  0  0  0  0  0  0  0
    1.3652    1.4928   -7.6435 F   0  0  0  0  0  0  0  0  0  0  0  0
    3.1841    1.0932   -8.7810 F   0  0  0  0  0  0  0  0  0  0  0  0
    1.9482   -0.5627   -8.0879 F   0  0  0  0  0  0  0  0  0  0  0  0
   -3.4541   -0.7151   -6.5413 H   0  0  0  0  0  0  0  0  0  0  0  0
  1  6  1  0  0  0  0
  1  2  1  0  0  0  0
  2  3  1  0  0  0  0
  3  4  2  0  0  0  0
  3 11  1  0  0  0  0
  4  9  1  0  0  0  0
  5 10  1  0  0  0  0
  5  4  1  0  0  0  0
  6  5  2  0  0  0  0
  7  1  1  0  0  0  0
 11 12  1  0  0  0  0
 13 14  1  6  0  0  0
 13 15  1  0  0  0  0
 13 17  1  0  0  0  0
 14 18  1  0  0  0  0
 15  8  1  0  0  0  0
 16  2  2  0  0  0  0
 19 14  1  0  0  0  0
 20 14  1  0  0  0  0
 21  6  1  0  0  0  0
M  RAD  4   1   2  11   2  12   3  17   2
M  END
