Coordinates from ORCA-job Ph-N2-H-OTf-B3LYPG-6-31G_dp-scan-d09-49-n400
 OpenBabel08281820563D

 21 20  0  0  0  0  0  0  0  0999 V2000
   -2.7768    0.9252   -5.8505 C   0  0  0  0  0  0  0  0  0  0  0  0
   -1.6064    1.6552   -5.3773 C   0  0  0  0  0  0  0  0  0  0  0  0
   -0.6266    0.7629   -4.6764 C   0  0  0  0  0  0  0  0  0  0  0  0
   -0.7881   -0.6537   -4.5262 C   0  0  0  0  0  0  0  0  0  0  0  0
   -1.9185   -1.2271   -5.0220 C   0  0  0  0  0  0  0  0  0  0  0  0
   -2.9129   -0.4200   -5.6782 C   0  0  0  0  0  0  0  0  0  0  0  0
   -3.5335    1.5178   -6.3542 H   0  0  0  0  0  0  0  0  0  0  0  0
    3.0352    1.9441   -5.0817 H   0  0  0  0  0  0  0  0  0  0  0  0
   -0.0004   -1.2255   -4.0491 H   0  0  0  0  0  0  0  0  0  0  0  0
   -2.0729   -2.2966   -4.9302 H   0  0  0  0  0  0  0  0  0  0  0  0
    0.4290    1.3874   -4.2060 N   0  0  0  0  0  0  0  0  0  0  0  0
    1.2840    2.0551   -3.8671 N   0  0  0  0  0  0  0  0  0  0  0  0
    3.5071    0.0041   -5.9804 S   0  0  1  0  0  0  0  0  0  0  0  0
    2.4772    0.6191   -7.4430 C   0  0  0  0  0  0  0  0  0  0  0  0
    3.8538    1.5187   -5.4181 O   0  0  0  0  0  0  0  0  0  0  0  0
   -1.4095    2.8613   -5.5168 O   0  0  0  0  0  0  0  0  0  0  0  0
    2.5118   -0.6715   -5.1049 O   0  0  0  0  0  0  0  0  0  0  0  0
    1.5199    1.4619   -7.0294 F   0  0  0  0  0  0  0  0  0  0  0  0
    3.2730    1.2478   -8.3106 F   0  0  0  0  0  0  0  0  0  0  0  0
    1.9119   -0.4326   -8.0398 F   0  0  0  0  0  0  0  0  0  0  0  0
   -3.8056   -0.9127   -6.0553 H   0  0  0  0  0  0  0  0  0  0  0  0
  1  6  1  0  0  0  0
  1  2  1  0  0  0  0
  2  3  1  0  0  0  0
  3  4  2  0  0  0  0
  3 11  1  0  0  0  0
  4  9  1  0  0  0  0
  5 10  1  0  0  0  0
  5  4  1  0  0  0  0
  6  5  2  0  0  0  0
  7  1  1  0  0  0  0
 11 12  1  0  0  0  0
 13 14  1  6  0  0  0
 13 15  1  0  0  0  0
 13 17  1  0  0  0  0
 14 18  1  0  0  0  0
 15  8  1  0  0  0  0
 16  2  2  0  0  0  0
 19 14  1  0  0  0  0
 20 14  1  0  0  0  0
 21  6  1  0  0  0  0
M  RAD  4   1   2  11   2  12   3  17   2
M  END
