Coordinates from ORCA-job Ph-N2-H-OTf-B3LYPG-6-31G_dp-scan-d09-49-n400
 OpenBabel08281820563D

 21 20  0  0  0  0  0  0  0  0999 V2000
   -2.3434    0.3678   -6.0988 C   0  0  0  0  0  0  0  0  0  0  0  0
   -0.9924    0.5212   -5.7175 C   0  0  0  0  0  0  0  0  0  0  0  0
   -0.6798    0.1917   -4.3599 C   0  0  0  0  0  0  0  0  0  0  0  0
   -1.6726   -0.2655   -3.4574 C   0  0  0  0  0  0  0  0  0  0  0  0
   -2.9770   -0.4007   -3.8745 C   0  0  0  0  0  0  0  0  0  0  0  0
   -3.3019   -0.0787   -5.2087 C   0  0  0  0  0  0  0  0  0  0  0  0
   -2.5916    0.6150   -7.1247 H   0  0  0  0  0  0  0  0  0  0  0  0
    0.7122    1.0396   -6.3670 H   0  0  0  0  0  0  0  0  0  0  0  0
   -1.3708   -0.5023   -2.4430 H   0  0  0  0  0  0  0  0  0  0  0  0
   -3.7399   -0.7499   -3.1885 H   0  0  0  0  0  0  0  0  0  0  0  0
    0.5932    0.2939   -3.8495 N   0  0  0  0  0  0  0  0  0  0  0  0
    1.7171    0.5086   -3.8367 N   0  0  0  0  0  0  0  0  0  0  0  0
    3.4525    0.4154   -6.2419 S   0  0  0  0  0  0  0  0  0  0  0  0
    3.6530    1.5531   -7.7432 C   0  0  0  0  0  0  0  0  0  0  0  0
    2.2078    1.2441   -5.6737 O   0  0  0  0  0  0  0  0  0  0  0  0
   -0.1537    0.9537   -6.6333 O   0  0  0  0  0  0  0  0  0  0  0  0
    3.0110   -0.8894   -6.8185 O   0  0  0  0  0  0  0  0  0  0  0  0
    2.5106    1.6753   -8.4325 F   0  0  0  0  0  0  0  0  0  0  0  0
    4.0533    2.7696   -7.3432 F   0  0  0  0  0  0  0  0  0  0  0  0
    4.5917    1.0424   -8.5550 F   0  0  0  0  0  0  0  0  0  0  0  0
   -4.3276   -0.1839   -5.5494 H   0  0  0  0  0  0  0  0  0  0  0  0
  1  2  2  0  0  0  0
  1  6  1  0  0  0  0
  2  3  1  0  0  0  0
  3 11  1  0  0  0  0
  3  4  2  0  0  0  0
  4  9  1  0  0  0  0
  5  4  1  0  0  0  0
  5 10  1  0  0  0  0
  6  5  2  0  0  0  0
  7  1  1  0  0  0  0
 11 12  1  0  0  0  0
 13 15  1  0  0  0  0
 14 19  1  0  0  0  0
 14 13  1  0  0  0  0
 16  8  1  0  0  0  0
 16  2  1  0  0  0  0
 17 13  1  0  0  0  0
 18 14  1  0  0  0  0
 20 14  1  0  0  0  0
 21  6  1  0  0  0  0
M  RAD  4  11   2  12   3  15   2  17   2
M  END
