Coordinates from ORCA-job Ph-N2-H-OTf-B3LYPG-6-31G_dp-scan-d09-49-n400
 OpenBabel08281820563D

 21 20  0  0  0  0  0  0  0  0999 V2000
   -1.8886    0.8755   -6.1580 C   0  0  0  0  0  0  0  0  0  0  0  0
   -0.6910    1.2188   -5.4462 C   0  0  0  0  0  0  0  0  0  0  0  0
   -0.4508    0.3927   -4.2696 C   0  0  0  0  0  0  0  0  0  0  0  0
   -1.2882   -0.6935   -3.8762 C   0  0  0  0  0  0  0  0  0  0  0  0
   -2.3992   -0.9661   -4.6245 C   0  0  0  0  0  0  0  0  0  0  0  0
   -2.6927   -0.1644   -5.7661 C   0  0  0  0  0  0  0  0  0  0  0  0
   -2.1106    1.4714   -7.0364 H   0  0  0  0  0  0  0  0  0  0  0  0
    1.3360    2.1723   -5.7094 H   0  0  0  0  0  0  0  0  0  0  0  0
   -1.0270   -1.2742   -2.9982 H   0  0  0  0  0  0  0  0  0  0  0  0
   -3.0532   -1.7870   -4.3532 H   0  0  0  0  0  0  0  0  0  0  0  0
    0.5980    0.7080   -3.4960 N   0  0  0  0  0  0  0  0  0  0  0  0
    1.4616    1.0215   -2.8493 N   0  0  0  0  0  0  0  0  0  0  0  0
    3.1604    0.8169   -6.0338 S   0  0  1  0  0  0  0  0  0  0  0  0
    2.5983    0.6999   -7.8366 C   0  0  0  0  0  0  0  0  0  0  0  0
    2.4458    2.1979   -5.6686 O   0  0  0  0  0  0  0  0  0  0  0  0
    0.0589    2.1733   -5.8090 O   0  0  0  0  0  0  0  0  0  0  0  0
    2.4434   -0.3334   -5.3909 O   0  0  0  0  0  0  0  0  0  0  0  0
    1.2704    0.5451   -7.9424 F   0  0  0  0  0  0  0  0  0  0  0  0
    2.9636    1.8000   -8.5074 F   0  0  0  0  0  0  0  0  0  0  0  0
    3.1983   -0.3628   -8.3972 F   0  0  0  0  0  0  0  0  0  0  0  0
   -3.5817   -0.3911   -6.3481 H   0  0  0  0  0  0  0  0  0  0  0  0
  1  6  1  0  0  0  0
  1  2  1  0  0  0  0
  2  3  1  0  0  0  0
  3  4  2  0  0  0  0
  3 11  1  0  0  0  0
  4  9  1  0  0  0  0
  5 10  1  0  0  0  0
  5  4  1  0  0  0  0
  6  5  2  0  0  0  0
  7  1  1  0  0  0  0
  8 15  1  0  0  0  0
 11 12  1  0  0  0  0
 13 14  1  6  0  0  0
 13 15  1  0  0  0  0
 13 17  1  0  0  0  0
 16  2  2  0  0  0  0
 18 14  1  0  0  0  0
 19 14  1  0  0  0  0
 20 14  1  0  0  0  0
 21  6  1  0  0  0  0
M  RAD  4   1   2  11   2  12   3  17   2
M  END
