Coordinates from ORCA-job Ph-N2-H-OTf-B3LYPG-6-31G_dp-scan-d09-49-n400
 OpenBabel08281820563D

 21 20  0  0  0  0  0  0  0  0999 V2000
   -2.3735    1.0463   -5.9910 C   0  0  0  0  0  0  0  0  0  0  0  0
   -1.3564    1.6940   -5.1722 C   0  0  0  0  0  0  0  0  0  0  0  0
   -0.5616    0.7101   -4.3798 C   0  0  0  0  0  0  0  0  0  0  0  0
   -0.7299   -0.7083   -4.4502 C   0  0  0  0  0  0  0  0  0  0  0  0
   -1.7031   -1.2052   -5.2652 C   0  0  0  0  0  0  0  0  0  0  0  0
   -2.5266   -0.3092   -6.0276 C   0  0  0  0  0  0  0  0  0  0  0  0
   -3.0003    1.7080   -6.5800 H   0  0  0  0  0  0  0  0  0  0  0  0
    2.7749    2.3030   -5.7627 H   0  0  0  0  0  0  0  0  0  0  0  0
   -0.0763   -1.3484   -3.8681 H   0  0  0  0  0  0  0  0  0  0  0  0
   -1.8582   -2.2758   -5.3424 H   0  0  0  0  0  0  0  0  0  0  0  0
    0.3560    1.2546   -3.5974 N   0  0  0  0  0  0  0  0  0  0  0  0
    1.0925    1.8575   -2.9847 N   0  0  0  0  0  0  0  0  0  0  0  0
    3.3468    0.2011   -6.0213 S   0  0  1  0  0  0  0  0  0  0  0  0
    2.0343    0.3408   -7.3819 C   0  0  0  0  0  0  0  0  0  0  0  0
    3.6104    1.8354   -5.9581 O   0  0  0  0  0  0  0  0  0  0  0  0
   -1.1451    2.9078   -5.1220 O   0  0  0  0  0  0  0  0  0  0  0  0
    2.5881   -0.2715   -4.8353 O   0  0  0  0  0  0  0  0  0  0  0  0
    1.1666    1.3259   -7.1008 F   0  0  0  0  0  0  0  0  0  0  0  0
    2.6357    0.6059   -8.5441 F   0  0  0  0  0  0  0  0  0  0  0  0
    1.3769   -0.8143   -7.4702 F   0  0  0  0  0  0  0  0  0  0  0  0
   -3.2995   -0.7368   -6.6620 H   0  0  0  0  0  0  0  0  0  0  0  0
  1  2  1  0  0  0  0
  2 16  2  0  0  0  0
  2  3  1  0  0  0  0
  3 11  1  0  0  0  0
  4  3  2  0  0  0  0
  4  9  1  0  0  0  0
  5  4  1  0  0  0  0
  6  1  1  0  0  0  0
  6  5  2  0  0  0  0
  7  1  1  0  0  0  0
 10  5  1  0  0  0  0
 11 12  1  0  0  0  0
 13 14  1  6  0  0  0
 13 15  1  0  0  0  0
 13 17  1  0  0  0  0
 14 18  1  0  0  0  0
 15  8  1  0  0  0  0
 19 14  1  0  0  0  0
 20 14  1  0  0  0  0
 21  6  1  0  0  0  0
M  RAD  4   1   2  11   2  12   3  17   2
M  END
