Coordinates from ORCA-job Ph-N2-H-OTf-B3LYPG-6-31G_dp-scan-d09-49-n400
 OpenBabel08281820563D

 21 20  0  0  0  0  0  0  0  0999 V2000
   -2.0996    0.8408   -6.0761 C   0  0  0  0  0  0  0  0  0  0  0  0
   -0.9824    1.3304   -5.2830 C   0  0  0  0  0  0  0  0  0  0  0  0
   -0.6452    0.4164   -4.1607 C   0  0  0  0  0  0  0  0  0  0  0  0
   -1.3166   -0.8176   -3.8974 C   0  0  0  0  0  0  0  0  0  0  0  0
   -2.3473   -1.1856   -4.7107 C   0  0  0  0  0  0  0  0  0  0  0  0
   -2.7314   -0.3381   -5.8018 C   0  0  0  0  0  0  0  0  0  0  0  0
   -2.4005    1.4689   -6.9085 H   0  0  0  0  0  0  0  0  0  0  0  0
    2.3628    2.5459   -5.9039 H   0  0  0  0  0  0  0  0  0  0  0  0
   -0.9942   -1.4314   -3.0625 H   0  0  0  0  0  0  0  0  0  0  0  0
   -2.8760   -2.1161   -4.5380 H   0  0  0  0  0  0  0  0  0  0  0  0
    0.3476    0.8226   -3.3809 N   0  0  0  0  0  0  0  0  0  0  0  0
    1.1919    1.2721   -2.7791 N   0  0  0  0  0  0  0  0  0  0  0  0
    3.3976    0.6323   -6.1730 S   0  0  1  0  0  0  0  0  0  0  0  0
    2.5545    0.6919   -7.8646 C   0  0  0  0  0  0  0  0  0  0  0  0
    3.2986    2.2643   -5.9260 O   0  0  0  0  0  0  0  0  0  0  0  0
   -0.3767    2.3888   -5.4926 O   0  0  0  0  0  0  0  0  0  0  0  0
    2.4363   -0.1066   -5.3148 O   0  0  0  0  0  0  0  0  0  0  0  0
    1.3868    1.3385   -7.7978 F   0  0  0  0  0  0  0  0  0  0  0  0
    3.3582    1.3171   -8.7314 F   0  0  0  0  0  0  0  0  0  0  0  0
    2.3462   -0.5606   -8.2814 F   0  0  0  0  0  0  0  0  0  0  0  0
   -3.5590   -0.6530   -6.4327 H   0  0  0  0  0  0  0  0  0  0  0  0
  1  6  1  0  0  0  0
  1  2  1  0  0  0  0
  2  3  1  0  0  0  0
  3  4  2  0  0  0  0
  3 11  1  0  0  0  0
  4  9  1  0  0  0  0
  5 10  1  0  0  0  0
  5  4  1  0  0  0  0
  6  5  2  0  0  0  0
  7  1  1  0  0  0  0
 11 12  1  0  0  0  0
 13 14  1  6  0  0  0
 13 15  1  0  0  0  0
 13 17  1  0  0  0  0
 14 18  1  0  0  0  0
 15  8  1  0  0  0  0
 16  2  2  0  0  0  0
 19 14  1  0  0  0  0
 20 14  1  0  0  0  0
 21  6  1  0  0  0  0
M  RAD  4   1   2  11   2  12   3  17   2
M  END
