Coordinates from ORCA-job Ph-N2-H-OTf-B3LYPG-6-31G_dp-scan-d09-49-n400
 OpenBabel08281820563D

 21 20  0  0  0  0  0  0  0  0999 V2000
   -1.9203    0.8540   -6.1341 C   0  0  0  0  0  0  0  0  0  0  0  0
   -0.7442    1.2305   -5.3819 C   0  0  0  0  0  0  0  0  0  0  0  0
   -0.5184    0.3772   -4.2041 C   0  0  0  0  0  0  0  0  0  0  0  0
   -1.3433   -0.7347   -3.8502 C   0  0  0  0  0  0  0  0  0  0  0  0
   -2.4231   -1.0214   -4.6342 C   0  0  0  0  0  0  0  0  0  0  0  0
   -2.7031   -0.2101   -5.7784 C   0  0  0  0  0  0  0  0  0  0  0  0
   -2.1372    1.4565   -7.0097 H   0  0  0  0  0  0  0  0  0  0  0  0
    1.6507    2.2927   -5.7336 H   0  0  0  0  0  0  0  0  0  0  0  0
   -1.0954   -1.3226   -2.9727 H   0  0  0  0  0  0  0  0  0  0  0  0
   -3.0664   -1.8604   -4.3943 H   0  0  0  0  0  0  0  0  0  0  0  0
    0.5119    0.7046   -3.4244 N   0  0  0  0  0  0  0  0  0  0  0  0
    1.3810    1.0485   -2.7948 N   0  0  0  0  0  0  0  0  0  0  0  0
    3.2478    0.8261   -6.1161 S   0  0  1  0  0  0  0  0  0  0  0  0
    2.5915    0.6967   -7.8849 C   0  0  0  0  0  0  0  0  0  0  0  0
    2.6548    2.3084   -5.7956 O   0  0  0  0  0  0  0  0  0  0  0  0
   -0.0076    2.1928   -5.6890 O   0  0  0  0  0  0  0  0  0  0  0  0
    2.4812   -0.2230   -5.3820 O   0  0  0  0  0  0  0  0  0  0  0  0
    1.2563    0.7119   -7.9312 F   0  0  0  0  0  0  0  0  0  0  0  0
    3.0723    1.7076   -8.6171 F   0  0  0  0  0  0  0  0  0  0  0  0
    3.0329   -0.4602   -8.4014 F   0  0  0  0  0  0  0  0  0  0  0  0
   -3.5696   -0.4541   -6.3874 H   0  0  0  0  0  0  0  0  0  0  0  0
  1  6  1  0  0  0  0
  1  2  1  0  0  0  0
  2  3  1  0  0  0  0
  3  4  2  0  0  0  0
  3 11  1  0  0  0  0
  4  9  1  0  0  0  0
  5 10  1  0  0  0  0
  5  4  1  0  0  0  0
  6  5  2  0  0  0  0
  7  1  1  0  0  0  0
 11 12  1  0  0  0  0
 13 14  1  6  0  0  0
 13 15  1  0  0  0  0
 13 17  1  0  0  0  0
 15  8  1  0  0  0  0
 16  2  2  0  0  0  0
 18 14  1  0  0  0  0
 19 14  1  0  0  0  0
 20 14  1  0  0  0  0
 21  6  1  0  0  0  0
M  RAD  4   1   2  11   2  12   3  17   2
M  END
