Coordinates from ORCA-job Ph-N2-H-OTf-B3LYPG-6-31G_dp-scan-d09-49-n400
 OpenBabel08281820563D

 21 20  0  0  0  0  0  0  0  0999 V2000
   -1.9770    0.8589   -6.1051 C   0  0  0  0  0  0  0  0  0  0  0  0
   -0.8327    1.2812   -5.3188 C   0  0  0  0  0  0  0  0  0  0  0  0
   -0.5724    0.3864   -4.1691 C   0  0  0  0  0  0  0  0  0  0  0  0
   -1.3344   -0.7865   -3.8748 C   0  0  0  0  0  0  0  0  0  0  0  0
   -2.3838   -1.1033   -4.6868 C   0  0  0  0  0  0  0  0  0  0  0  0
   -2.6970   -0.2627   -5.8036 C   0  0  0  0  0  0  0  0  0  0  0  0
   -2.2218    1.4826   -6.9585 H   0  0  0  0  0  0  0  0  0  0  0  0
    1.9562    2.4462   -5.7871 H   0  0  0  0  0  0  0  0  0  0  0  0
   -1.0641   -1.3958   -3.0186 H   0  0  0  0  0  0  0  0  0  0  0  0
   -2.9795   -1.9878   -4.4920 H   0  0  0  0  0  0  0  0  0  0  0  0
    0.4324    0.7433   -3.3757 N   0  0  0  0  0  0  0  0  0  0  0  0
    1.2870    1.1317   -2.7489 N   0  0  0  0  0  0  0  0  0  0  0  0
    3.3242    0.7802   -6.1624 S   0  0  1  0  0  0  0  0  0  0  0  0
    2.5480    0.6686   -7.8831 C   0  0  0  0  0  0  0  0  0  0  0  0
    2.9280    2.3554   -5.9059 O   0  0  0  0  0  0  0  0  0  0  0  0
   -0.1494    2.2896   -5.5647 O   0  0  0  0  0  0  0  0  0  0  0  0
    2.4868   -0.1243   -5.3285 O   0  0  0  0  0  0  0  0  0  0  0  0
    1.2510    0.9827   -7.8681 F   0  0  0  0  0  0  0  0  0  0  0  0
    3.1970    1.4965   -8.7091 F   0  0  0  0  0  0  0  0  0  0  0  0
    2.6934   -0.5884   -8.3221 F   0  0  0  0  0  0  0  0  0  0  0  0
   -3.5401   -0.5337   -6.4341 H   0  0  0  0  0  0  0  0  0  0  0  0
  1  6  1  0  0  0  0
  1  2  1  0  0  0  0
  2  3  1  0  0  0  0
  3  4  2  0  0  0  0
  3 11  1  0  0  0  0
  4  9  1  0  0  0  0
  5 10  1  0  0  0  0
  5  4  1  0  0  0  0
  6  5  2  0  0  0  0
  7  1  1  0  0  0  0
 11 12  1  0  0  0  0
 13 14  1  6  0  0  0
 13 15  1  0  0  0  0
 13 17  1  0  0  0  0
 14 18  1  0  0  0  0
 15  8  1  0  0  0  0
 16  2  2  0  0  0  0
 19 14  1  0  0  0  0
 20 14  1  0  0  0  0
 21  6  1  0  0  0  0
M  RAD  4   1   2  11   2  12   3  17   2
M  END
