Coordinates from ORCA-job Ph-N2-H-OTf-B3LYPG-6-31G_dp-scan-d09-49-n400
 OpenBabel08281820563D

 21 20  0  0  0  0  0  0  0  0999 V2000
   -2.7993    0.9281   -5.8318 C   0  0  0  0  0  0  0  0  0  0  0  0
   -1.6298    1.6631   -5.3641 C   0  0  0  0  0  0  0  0  0  0  0  0
   -0.6340    0.7717   -4.6850 C   0  0  0  0  0  0  0  0  0  0  0  0
   -0.7830   -0.6475   -4.5454 C   0  0  0  0  0  0  0  0  0  0  0  0
   -1.9145   -1.2251   -5.0337 C   0  0  0  0  0  0  0  0  0  0  0  0
   -2.9225   -0.4198   -5.6711 C   0  0  0  0  0  0  0  0  0  0  0  0
   -3.5665    1.5193   -6.3211 H   0  0  0  0  0  0  0  0  0  0  0  0
    3.0410    1.9440   -5.0843 H   0  0  0  0  0  0  0  0  0  0  0  0
    0.0148   -1.2166   -4.0822 H   0  0  0  0  0  0  0  0  0  0  0  0
   -2.0596   -2.2966   -4.9501 H   0  0  0  0  0  0  0  0  0  0  0  0
    0.4234    1.3988   -4.2219 N   0  0  0  0  0  0  0  0  0  0  0  0
    1.2800    2.0658   -3.8863 N   0  0  0  0  0  0  0  0  0  0  0  0
    3.5155   -0.0029   -5.9684 S   0  0  1  0  0  0  0  0  0  0  0  0
    2.4982    0.6063   -7.4422 C   0  0  0  0  0  0  0  0  0  0  0  0
    3.8610    1.5138   -5.4112 O   0  0  0  0  0  0  0  0  0  0  0  0
   -1.4450    2.8724   -5.4927 O   0  0  0  0  0  0  0  0  0  0  0  0
    2.5114   -0.6723   -5.0982 O   0  0  0  0  0  0  0  0  0  0  0  0
    1.5361    1.4488   -7.0391 F   0  0  0  0  0  0  0  0  0  0  0  0
    3.3004    1.2337   -8.3046 F   0  0  0  0  0  0  0  0  0  0  0  0
    1.9395   -0.4479   -8.0406 F   0  0  0  0  0  0  0  0  0  0  0  0
   -3.8153   -0.9161   -6.0431 H   0  0  0  0  0  0  0  0  0  0  0  0
  1  6  1  0  0  0  0
  1  2  1  0  0  0  0
  2  3  1  0  0  0  0
  3  4  2  0  0  0  0
  3 11  1  0  0  0  0
  4  9  1  0  0  0  0
  5 10  1  0  0  0  0
  5  4  1  0  0  0  0
  6  5  2  0  0  0  0
  7  1  1  0  0  0  0
 11 12  1  0  0  0  0
 13 14  1  6  0  0  0
 13 15  1  0  0  0  0
 13 17  1  0  0  0  0
 14 18  1  0  0  0  0
 15  8  1  0  0  0  0
 16  2  2  0  0  0  0
 19 14  1  0  0  0  0
 20 14  1  0  0  0  0
 21  6  1  0  0  0  0
M  RAD  4   1   2  11   2  12   3  17   2
M  END
