Coordinates from ORCA-job Ph-N2-H-OTf-B3LYPG-6-31G_dp-scan-d09-49-n400
 OpenBabel08281820563D

 21 20  0  0  0  0  0  0  0  0999 V2000
   -2.1387    0.8826   -6.1077 C   0  0  0  0  0  0  0  0  0  0  0  0
   -1.1274    1.4631   -5.2334 C   0  0  0  0  0  0  0  0  0  0  0  0
   -0.6696    0.5026   -4.1905 C   0  0  0  0  0  0  0  0  0  0  0  0
   -1.1468   -0.8388   -4.0644 C   0  0  0  0  0  0  0  0  0  0  0  0
   -2.0936   -1.2794   -4.9412 C   0  0  0  0  0  0  0  0  0  0  0  0
   -2.5843   -0.3992   -5.9628 C   0  0  0  0  0  0  0  0  0  0  0  0
   -2.5204    1.5341   -6.8873 H   0  0  0  0  0  0  0  0  0  0  0  0
    2.9774    2.5695   -6.0060 H   0  0  0  0  0  0  0  0  0  0  0  0
   -0.7468   -1.4742   -3.2808 H   0  0  0  0  0  0  0  0  0  0  0  0
   -2.4767   -2.2911   -4.8710 H   0  0  0  0  0  0  0  0  0  0  0  0
    0.2416    0.9795   -3.3547 N   0  0  0  0  0  0  0  0  0  0  0  0
    1.0096    1.5010   -2.7094 N   0  0  0  0  0  0  0  0  0  0  0  0
    3.4038    0.4264   -6.1903 S   0  0  1  0  0  0  0  0  0  0  0  0
    2.1926    0.6256   -7.6320 C   0  0  0  0  0  0  0  0  0  0  0  0
    3.7855    2.0393   -6.1465 O   0  0  0  0  0  0  0  0  0  0  0  0
   -0.6858    2.6120   -5.3206 O   0  0  0  0  0  0  0  0  0  0  0  0
    2.5434    0.0402   -5.0444 O   0  0  0  0  0  0  0  0  0  0  0  0
    1.3502    1.6413   -7.4035 F   0  0  0  0  0  0  0  0  0  0  0  0
    2.8809    0.8666   -8.7523 F   0  0  0  0  0  0  0  0  0  0  0  0
    1.4984   -0.5044   -7.7718 F   0  0  0  0  0  0  0  0  0  0  0  0
   -3.3416   -0.7758   -6.6465 H   0  0  0  0  0  0  0  0  0  0  0  0
  1  6  1  0  0  0  0
  1  2  1  0  0  0  0
  2  3  1  0  0  0  0
  3  4  2  0  0  0  0
  3 11  1  0  0  0  0
  4  9  1  0  0  0  0
  5 10  1  0  0  0  0
  5  4  1  0  0  0  0
  6  5  2  0  0  0  0
  7  1  1  0  0  0  0
 11 12  1  0  0  0  0
 13 14  1  6  0  0  0
 13 15  1  0  0  0  0
 13 17  1  0  0  0  0
 14 18  1  0  0  0  0
 15  8  1  0  0  0  0
 16  2  2  0  0  0  0
 19 14  1  0  0  0  0
 20 14  1  0  0  0  0
 21  6  1  0  0  0  0
M  RAD  4   1   2  11   2  12   3  17   2
M  END
