Coordinates from ORCA-job Ph-N2-H-OTf-B3LYPG-6-31G_dp-scan-d09-49-n400
 OpenBabel08281820563D

 21 20  0  0  0  0  0  0  0  0999 V2000
   -2.6044    0.8944   -5.9776 C   0  0  0  0  0  0  0  0  0  0  0  0
   -1.4325    1.5860   -5.4550 C   0  0  0  0  0  0  0  0  0  0  0  0
   -0.5853    0.6958   -4.5959 C   0  0  0  0  0  0  0  0  0  0  0  0
   -0.8510   -0.6917   -4.3623 C   0  0  0  0  0  0  0  0  0  0  0  0
   -1.9687   -1.2345   -4.9184 C   0  0  0  0  0  0  0  0  0  0  0  0
   -2.8451   -0.4226   -5.7202 C   0  0  0  0  0  0  0  0  0  0  0  0
   -3.2726    1.4896   -6.5913 H   0  0  0  0  0  0  0  0  0  0  0  0
    2.9653    1.9464   -5.0917 H   0  0  0  0  0  0  0  0  0  0  0  0
   -0.1529   -1.2716   -3.7691 H   0  0  0  0  0  0  0  0  0  0  0  0
   -2.2017   -2.2820   -4.7640 H   0  0  0  0  0  0  0  0  0  0  0  0
    0.4588    1.3037   -4.0805 N   0  0  0  0  0  0  0  0  0  0  0  0
    1.2982    1.9876   -3.7347 N   0  0  0  0  0  0  0  0  0  0  0  0
    3.4443    0.0508   -6.0741 S   0  0  1  0  0  0  0  0  0  0  0  0
    2.3639    0.7183   -7.4763 C   0  0  0  0  0  0  0  0  0  0  0  0
    3.7847    1.5452   -5.4547 O   0  0  0  0  0  0  0  0  0  0  0  0
   -1.1331    2.7592   -5.6721 O   0  0  0  0  0  0  0  0  0  0  0  0
    2.4852   -0.6784   -5.2015 O   0  0  0  0  0  0  0  0  0  0  0  0
    1.4262    1.5480   -6.9982 F   0  0  0  0  0  0  0  0  0  0  0  0
    3.1313    1.3753   -8.3492 F   0  0  0  0  0  0  0  0  0  0  0  0
    1.7738   -0.3100   -8.0899 F   0  0  0  0  0  0  0  0  0  0  0  0
   -3.7328   -0.8884   -6.1405 H   0  0  0  0  0  0  0  0  0  0  0  0
  1  6  1  0  0  0  0
  1  2  1  0  0  0  0
  2  3  1  0  0  0  0
  3  4  2  0  0  0  0
  3 11  1  0  0  0  0
  4  9  1  0  0  0  0
  5 10  1  0  0  0  0
  5  4  1  0  0  0  0
  6  5  2  0  0  0  0
  7  1  1  0  0  0  0
 11 12  1  0  0  0  0
 13 14  1  6  0  0  0
 13 15  1  0  0  0  0
 13 17  1  0  0  0  0
 14 18  1  0  0  0  0
 15  8  1  0  0  0  0
 16  2  2  0  0  0  0
 19 14  1  0  0  0  0
 20 14  1  0  0  0  0
 21  6  1  0  0  0  0
M  RAD  4   1   2  11   2  12   3  17   2
M  END
