Coordinates from ORCA-job Ph-N2-H-OTf-B3LYPG-6-31G_dp-scan-d09-49-n400
 OpenBabel08281820563D

 21 20  0  0  0  0  0  0  0  0999 V2000
   -1.9534    0.8560   -6.1138 C   0  0  0  0  0  0  0  0  0  0  0  0
   -0.7924    1.2549   -5.3438 C   0  0  0  0  0  0  0  0  0  0  0  0
   -0.5507    0.3778   -4.1806 C   0  0  0  0  0  0  0  0  0  0  0  0
   -1.3457   -0.7654   -3.8583 C   0  0  0  0  0  0  0  0  0  0  0  0
   -2.4103   -1.0658   -4.6571 C   0  0  0  0  0  0  0  0  0  0  0  0
   -2.7059   -0.2376   -5.7868 C   0  0  0  0  0  0  0  0  0  0  0  0
   -2.1837    1.4708   -6.9775 H   0  0  0  0  0  0  0  0  0  0  0  0
    1.8098    2.3788   -5.7674 H   0  0  0  0  0  0  0  0  0  0  0  0
   -1.0876   -1.3658   -2.9922 H   0  0  0  0  0  0  0  0  0  0  0  0
   -3.0308   -1.9281   -4.4411 H   0  0  0  0  0  0  0  0  0  0  0  0
    0.4672    0.7182   -3.3942 N   0  0  0  0  0  0  0  0  0  0  0  0
    1.3306    1.0835   -2.7669 N   0  0  0  0  0  0  0  0  0  0  0  0
    3.2918    0.8111   -6.1449 S   0  0  1  0  0  0  0  0  0  0  0  0
    2.5820    0.6825   -7.8929 C   0  0  0  0  0  0  0  0  0  0  0  0
    2.7943    2.3466   -5.8644 O   0  0  0  0  0  0  0  0  0  0  0  0
   -0.0817    2.2404   -5.6175 O   0  0  0  0  0  0  0  0  0  0  0  0
    2.4844   -0.1634   -5.3586 O   0  0  0  0  0  0  0  0  0  0  0  0
    1.2602    0.8681   -7.9146 F   0  0  0  0  0  0  0  0  0  0  0  0
    3.1716    1.5934   -8.6752 F   0  0  0  0  0  0  0  0  0  0  0  0
    2.8628   -0.5410   -8.3621 F   0  0  0  0  0  0  0  0  0  0  0  0
   -3.5608   -0.4941   -6.4071 H   0  0  0  0  0  0  0  0  0  0  0  0
  1  6  1  0  0  0  0
  1  2  1  0  0  0  0
  2  3  1  0  0  0  0
  3  4  2  0  0  0  0
  3 11  1  0  0  0  0
  4  9  1  0  0  0  0
  5 10  1  0  0  0  0
  5  4  1  0  0  0  0
  6  5  2  0  0  0  0
  7  1  1  0  0  0  0
 11 12  1  0  0  0  0
 13 14  1  6  0  0  0
 13 15  1  0  0  0  0
 13 17  1  0  0  0  0
 15  8  1  0  0  0  0
 16  2  2  0  0  0  0
 18 14  1  0  0  0  0
 19 14  1  0  0  0  0
 20 14  1  0  0  0  0
 21  6  1  0  0  0  0
M  RAD  4   1   2  11   2  12   3  17   2
M  END
