Coordinates from ORCA-job Ph-N2-H-OTf-B3LYPG-6-31G_dp-scan-d09-49-n400
 OpenBabel08281820563D

 21 20  0  0  0  0  0  0  0  0999 V2000
   -2.0856    0.8420   -6.0784 C   0  0  0  0  0  0  0  0  0  0  0  0
   -0.9651    1.3243   -5.2860 C   0  0  0  0  0  0  0  0  0  0  0  0
   -0.6372    0.4123   -4.1601 C   0  0  0  0  0  0  0  0  0  0  0  0
   -1.3194   -0.8148   -3.8928 C   0  0  0  0  0  0  0  0  0  0  0  0
   -2.3523   -1.1772   -4.7061 C   0  0  0  0  0  0  0  0  0  0  0  0
   -2.7278   -0.3305   -5.8006 C   0  0  0  0  0  0  0  0  0  0  0  0
   -2.3798    1.4695   -6.9135 H   0  0  0  0  0  0  0  0  0  0  0  0
    2.3096    2.5372   -5.8987 H   0  0  0  0  0  0  0  0  0  0  0  0
   -1.0033   -1.4282   -3.0552 H   0  0  0  0  0  0  0  0  0  0  0  0
   -2.8890   -2.1026   -4.5305 H   0  0  0  0  0  0  0  0  0  0  0  0
    0.3576    0.8127   -3.3794 N   0  0  0  0  0  0  0  0  0  0  0  0
    1.2037    1.2553   -2.7752 N   0  0  0  0  0  0  0  0  0  0  0  0
    3.3885    0.6486   -6.1705 S   0  0  1  0  0  0  0  0  0  0  0  0
    2.5578    0.6912   -7.8688 C   0  0  0  0  0  0  0  0  0  0  0  0
    3.2518    2.2768   -5.9207 O   0  0  0  0  0  0  0  0  0  0  0  0
   -0.3503    2.3772   -5.4994 O   0  0  0  0  0  0  0  0  0  0  0  0
    2.4376   -0.1130   -5.3203 O   0  0  0  0  0  0  0  0  0  0  0  0
    1.3765    1.3132   -7.8131 F   0  0  0  0  0  0  0  0  0  0  0  0
    3.3562    1.3329   -8.7286 F   0  0  0  0  0  0  0  0  0  0  0  0
    2.3795   -0.5654   -8.2874 F   0  0  0  0  0  0  0  0  0  0  0  0
   -3.5572   -0.6406   -6.4315 H   0  0  0  0  0  0  0  0  0  0  0  0
  1  6  1  0  0  0  0
  1  2  1  0  0  0  0
  2  3  1  0  0  0  0
  3  4  2  0  0  0  0
  3 11  1  0  0  0  0
  4  9  1  0  0  0  0
  5 10  1  0  0  0  0
  5  4  1  0  0  0  0
  6  5  2  0  0  0  0
  7  1  1  0  0  0  0
 11 12  1  0  0  0  0
 13 14  1  6  0  0  0
 13 15  1  0  0  0  0
 13 17  1  0  0  0  0
 14 18  1  0  0  0  0
 15  8  1  0  0  0  0
 16  2  2  0  0  0  0
 19 14  1  0  0  0  0
 20 14  1  0  0  0  0
 21  6  1  0  0  0  0
M  RAD  4   1   2  11   2  12   3  17   2
M  END
