Coordinates from ORCA-job Ph-N2-H-OTf-B3LYPG-6-31G_dp-scan-d09-49-n400
 OpenBabel08281820563D

 21 20  0  0  0  0  0  0  0  0999 V2000
   -2.1365    0.8623   -6.0998 C   0  0  0  0  0  0  0  0  0  0  0  0
   -1.1129    1.4349   -5.2350 C   0  0  0  0  0  0  0  0  0  0  0  0
   -0.6823    0.4854   -4.1708 C   0  0  0  0  0  0  0  0  0  0  0  0
   -1.1948   -0.8400   -4.0174 C   0  0  0  0  0  0  0  0  0  0  0  0
   -2.1508   -1.2745   -4.8872 C   0  0  0  0  0  0  0  0  0  0  0  0
   -2.6157   -0.4041   -5.9291 C   0  0  0  0  0  0  0  0  0  0  0  0
   -2.4988    1.5065   -6.8945 H   0  0  0  0  0  0  0  0  0  0  0  0
    2.9448    2.5839   -5.9947 H   0  0  0  0  0  0  0  0  0  0  0  0
   -0.8136   -1.4688   -3.2192 H   0  0  0  0  0  0  0  0  0  0  0  0
   -2.5601   -2.2742   -4.7966 H   0  0  0  0  0  0  0  0  0  0  0  0
    0.2412    0.9548   -3.3444 N   0  0  0  0  0  0  0  0  0  0  0  0
    1.0220    1.4689   -2.7084 N   0  0  0  0  0  0  0  0  0  0  0  0
    3.4071    0.4496   -6.1996 S   0  0  1  0  0  0  0  0  0  0  0  0
    2.2656    0.6531   -7.6952 C   0  0  0  0  0  0  0  0  0  0  0  0
    3.7645    2.0664   -6.1136 O   0  0  0  0  0  0  0  0  0  0  0  0
   -0.6436    2.5711   -5.3444 O   0  0  0  0  0  0  0  0  0  0  0  0
    2.4975    0.0347   -5.1030 O   0  0  0  0  0  0  0  0  0  0  0  0
    1.3729    1.6269   -7.4793 F   0  0  0  0  0  0  0  0  0  0  0  0
    3.0008    0.9574   -8.7696 F   0  0  0  0  0  0  0  0  0  0  0  0
    1.6251   -0.4978   -7.9084 F   0  0  0  0  0  0  0  0  0  0  0  0
   -3.3807   -0.7755   -6.6069 H   0  0  0  0  0  0  0  0  0  0  0  0
  1  6  1  0  0  0  0
  1  2  1  0  0  0  0
  2  3  1  0  0  0  0
  3  4  2  0  0  0  0
  3 11  1  0  0  0  0
  4  9  1  0  0  0  0
  5 10  1  0  0  0  0
  5  4  1  0  0  0  0
  6  5  2  0  0  0  0
  7  1  1  0  0  0  0
 11 12  1  0  0  0  0
 13 14  1  6  0  0  0
 13 15  1  0  0  0  0
 13 17  1  0  0  0  0
 14 18  1  0  0  0  0
 15  8  1  0  0  0  0
 16  2  2  0  0  0  0
 19 14  1  0  0  0  0
 20 14  1  0  0  0  0
 21  6  1  0  0  0  0
M  RAD  4   1   2  11   2  12   3  17   2
M  END
