Coordinates from ORCA-job Ph-N2-H-OTf-B3LYPG-6-31G_dp-scan-d09-49-n400
 OpenBabel08281820563D

 21 20  0  0  0  0  0  0  0  0999 V2000
   -1.9400    0.8547   -6.1208 C   0  0  0  0  0  0  0  0  0  0  0  0
   -0.7755    1.2470   -5.3544 C   0  0  0  0  0  0  0  0  0  0  0  0
   -0.5413    0.3778   -4.1856 C   0  0  0  0  0  0  0  0  0  0  0  0
   -1.3467   -0.7554   -3.8541 C   0  0  0  0  0  0  0  0  0  0  0  0
   -2.4149   -1.0516   -4.6500 C   0  0  0  0  0  0  0  0  0  0  0  0
   -2.7031   -0.2293   -5.7854 C   0  0  0  0  0  0  0  0  0  0  0  0
   -2.1644    1.4653   -6.9891 H   0  0  0  0  0  0  0  0  0  0  0  0
    1.7580    2.3522   -5.7588 H   0  0  0  0  0  0  0  0  0  0  0  0
   -1.0932   -1.3520   -2.9841 H   0  0  0  0  0  0  0  0  0  0  0  0
   -3.0431   -1.9066   -4.4273 H   0  0  0  0  0  0  0  0  0  0  0  0
    0.4812    0.7126   -3.4017 N   0  0  0  0  0  0  0  0  0  0  0  0
    1.3473    1.0698   -2.7740 N   0  0  0  0  0  0  0  0  0  0  0  0
    3.2778    0.8180   -6.1370 S   0  0  1  0  0  0  0  0  0  0  0  0
    2.5836    0.6872   -7.8910 C   0  0  0  0  0  0  0  0  0  0  0  0
    2.7478    2.3373   -5.8443 O   0  0  0  0  0  0  0  0  0  0  0  0
   -0.0558    2.2248   -5.6375 O   0  0  0  0  0  0  0  0  0  0  0  0
    2.4846   -0.1810   -5.3659 O   0  0  0  0  0  0  0  0  0  0  0  0
    1.2555    0.8239   -7.9190 F   0  0  0  0  0  0  0  0  0  0  0  0
    3.1431    1.6281   -8.6597 F   0  0  0  0  0  0  0  0  0  0  0  0
    2.9113   -0.5197   -8.3737 F   0  0  0  0  0  0  0  0  0  0  0  0
   -3.5607   -0.4821   -6.4035 H   0  0  0  0  0  0  0  0  0  0  0  0
  1  6  1  0  0  0  0
  1  2  1  0  0  0  0
  2  3  1  0  0  0  0
  3  4  2  0  0  0  0
  3 11  1  0  0  0  0
  4  9  1  0  0  0  0
  5 10  1  0  0  0  0
  5  4  1  0  0  0  0
  6  5  2  0  0  0  0
  7  1  1  0  0  0  0
 11 12  1  0  0  0  0
 13 14  1  6  0  0  0
 13 15  1  0  0  0  0
 13 17  1  0  0  0  0
 15  8  1  0  0  0  0
 16  2  2  0  0  0  0
 18 14  1  0  0  0  0
 19 14  1  0  0  0  0
 20 14  1  0  0  0  0
 21  6  1  0  0  0  0
M  RAD  4   1   2  11   2  12   3  17   2
M  END
