Coordinates from ORCA-job Ph-N2-H-OTf-B3LYPG-6-31G_dp-scan-d09-49-n400
 OpenBabel08281820563D

 21 20  0  0  0  0  0  0  0  0999 V2000
   -1.9431    0.8559   -6.1186 C   0  0  0  0  0  0  0  0  0  0  0  0
   -0.7793    1.2492   -5.3513 C   0  0  0  0  0  0  0  0  0  0  0  0
   -0.5427    0.3768   -4.1849 C   0  0  0  0  0  0  0  0  0  0  0  0
   -1.3454   -0.7592   -3.8565 C   0  0  0  0  0  0  0  0  0  0  0  0
   -2.4128   -1.0559   -4.6531 C   0  0  0  0  0  0  0  0  0  0  0  0
   -2.7033   -0.2309   -5.7863 C   0  0  0  0  0  0  0  0  0  0  0  0
   -2.1693    1.4684   -6.9851 H   0  0  0  0  0  0  0  0  0  0  0  0
    1.7709    2.3604   -5.7626 H   0  0  0  0  0  0  0  0  0  0  0  0
   -1.0909   -1.3572   -2.9877 H   0  0  0  0  0  0  0  0  0  0  0  0
   -3.0392   -1.9128   -4.4326 H   0  0  0  0  0  0  0  0  0  0  0  0
    0.4774    0.7137   -3.3990 N   0  0  0  0  0  0  0  0  0  0  0  0
    1.3418    1.0737   -2.7703 N   0  0  0  0  0  0  0  0  0  0  0  0
    3.2817    0.8178   -6.1392 S   0  0  1  0  0  0  0  0  0  0  0  0
    2.5819    0.6848   -7.8908 C   0  0  0  0  0  0  0  0  0  0  0  0
    2.7593    2.3414   -5.8512 O   0  0  0  0  0  0  0  0  0  0  0  0
   -0.0621    2.2295   -5.6312 O   0  0  0  0  0  0  0  0  0  0  0  0
    2.4861   -0.1744   -5.3621 O   0  0  0  0  0  0  0  0  0  0  0  0
    1.2554    0.8351   -7.9164 F   0  0  0  0  0  0  0  0  0  0  0  0
    3.1494    1.6164   -8.6650 F   0  0  0  0  0  0  0  0  0  0  0  0
    2.8964   -0.5276   -8.3682 F   0  0  0  0  0  0  0  0  0  0  0  0
   -3.5603   -0.4842   -6.4049 H   0  0  0  0  0  0  0  0  0  0  0  0
  1  6  1  0  0  0  0
  1  2  1  0  0  0  0
  2  3  1  0  0  0  0
  3  4  2  0  0  0  0
  3 11  1  0  0  0  0
  4  9  1  0  0  0  0
  5 10  1  0  0  0  0
  5  4  1  0  0  0  0
  6  5  2  0  0  0  0
  7  1  1  0  0  0  0
 11 12  1  0  0  0  0
 13 14  1  6  0  0  0
 13 15  1  0  0  0  0
 13 17  1  0  0  0  0
 15  8  1  0  0  0  0
 16  2  2  0  0  0  0
 18 14  1  0  0  0  0
 19 14  1  0  0  0  0
 20 14  1  0  0  0  0
 21  6  1  0  0  0  0
M  RAD  4   1   2  11   2  12   3  17   2
M  END
