Coordinates from ORCA-job Ph-N2-H-OTf-B3LYPG-6-31G_dp-scan-d09-49-n400
 OpenBabel08281820563D

 21 20  0  0  0  0  0  0  0  0999 V2000
   -2.1309    0.8634   -6.0999 C   0  0  0  0  0  0  0  0  0  0  0  0
   -1.1046    1.4319   -5.2357 C   0  0  0  0  0  0  0  0  0  0  0  0
   -0.6794    0.4818   -4.1700 C   0  0  0  0  0  0  0  0  0  0  0  0
   -1.1983   -0.8409   -4.0152 C   0  0  0  0  0  0  0  0  0  0  0  0
   -2.1561   -1.2719   -4.8849 C   0  0  0  0  0  0  0  0  0  0  0  0
   -2.6164   -0.4004   -5.9279 C   0  0  0  0  0  0  0  0  0  0  0  0
   -2.4898    1.5085   -6.8955 H   0  0  0  0  0  0  0  0  0  0  0  0
    2.9183    2.5891   -5.9958 H   0  0  0  0  0  0  0  0  0  0  0  0
   -0.8205   -1.4706   -3.2161 H   0  0  0  0  0  0  0  0  0  0  0  0
   -2.5701   -2.2695   -4.7934 H   0  0  0  0  0  0  0  0  0  0  0  0
    0.2456    0.9479   -3.3433 N   0  0  0  0  0  0  0  0  0  0  0  0
    1.0279    1.4591   -2.7068 N   0  0  0  0  0  0  0  0  0  0  0  0
    3.4087    0.4608   -6.1983 S   0  0  1  0  0  0  0  0  0  0  0  0
    2.2698    0.6505   -7.6980 C   0  0  0  0  0  0  0  0  0  0  0  0
    3.7450    2.0818   -6.1101 O   0  0  0  0  0  0  0  0  0  0  0  0
   -0.6294    2.5656   -5.3464 O   0  0  0  0  0  0  0  0  0  0  0  0
    2.5009    0.0328   -5.1052 O   0  0  0  0  0  0  0  0  0  0  0  0
    1.3701    1.6196   -7.4892 F   0  0  0  0  0  0  0  0  0  0  0  0
    3.0065    0.9552   -8.7713 F   0  0  0  0  0  0  0  0  0  0  0  0
    1.6374   -0.5052   -7.9083 F   0  0  0  0  0  0  0  0  0  0  0  0
   -3.3830   -0.7687   -6.6055 H   0  0  0  0  0  0  0  0  0  0  0  0
  1  6  1  0  0  0  0
  1  2  1  0  0  0  0
  2  3  1  0  0  0  0
  3  4  2  0  0  0  0
  3 11  1  0  0  0  0
  4  9  1  0  0  0  0
  5 10  1  0  0  0  0
  5  4  1  0  0  0  0
  6  5  2  0  0  0  0
  7  1  1  0  0  0  0
 11 12  1  0  0  0  0
 13 14  1  6  0  0  0
 13 15  1  0  0  0  0
 13 17  1  0  0  0  0
 14 18  1  0  0  0  0
 15  8  1  0  0  0  0
 16  2  2  0  0  0  0
 19 14  1  0  0  0  0
 20 14  1  0  0  0  0
 21  6  1  0  0  0  0
M  RAD  4   1   2  11   2  12   3  17   2
M  END
