Coordinates from ORCA-job Ph-N2-H-OTf-B3LYPG-6-31G_dp-scan-d09-49-n400
 OpenBabel08281820563D

 21 20  0  0  0  0  0  0  0  0999 V2000
   -2.0978    0.8479   -6.0783 C   0  0  0  0  0  0  0  0  0  0  0  0
   -0.9933    1.3453   -5.2717 C   0  0  0  0  0  0  0  0  0  0  0  0
   -0.6479    0.4212   -4.1595 C   0  0  0  0  0  0  0  0  0  0  0  0
   -1.3000   -0.8273   -3.9176 C   0  0  0  0  0  0  0  0  0  0  0  0
   -2.3195   -1.2013   -4.7425 C   0  0  0  0  0  0  0  0  0  0  0  0
   -2.7113   -0.3449   -5.8240 C   0  0  0  0  0  0  0  0  0  0  0  0
   -2.4047    1.4825   -6.9035 H   0  0  0  0  0  0  0  0  0  0  0  0
    2.4305    2.5708   -5.9259 H   0  0  0  0  0  0  0  0  0  0  0  0
   -0.9724   -1.4474   -3.0894 H   0  0  0  0  0  0  0  0  0  0  0  0
   -2.8335   -2.1427   -4.5859 H   0  0  0  0  0  0  0  0  0  0  0  0
    0.3333    0.8339   -3.3687 N   0  0  0  0  0  0  0  0  0  0  0  0
    1.1675    1.2913   -2.7587 N   0  0  0  0  0  0  0  0  0  0  0  0
    3.4052    0.6237   -6.1756 S   0  0  1  0  0  0  0  0  0  0  0  0
    2.5078    0.6773   -7.8401 C   0  0  0  0  0  0  0  0  0  0  0  0
    3.3574    2.2631   -5.9591 O   0  0  0  0  0  0  0  0  0  0  0  0
   -0.4025    2.4151   -5.4626 O   0  0  0  0  0  0  0  0  0  0  0  0
    2.4535   -0.0725   -5.2726 O   0  0  0  0  0  0  0  0  0  0  0  0
    1.3827    1.3949   -7.7559 F   0  0  0  0  0  0  0  0  0  0  0  0
    3.3157    1.2265   -8.7535 F   0  0  0  0  0  0  0  0  0  0  0  0
    2.2114   -0.5720   -8.2079 F   0  0  0  0  0  0  0  0  0  0  0  0
   -3.5301   -0.6646   -6.4640 H   0  0  0  0  0  0  0  0  0  0  0  0
  1  6  1  0  0  0  0
  1  2  1  0  0  0  0
  2  3  1  0  0  0  0
  3  4  2  0  0  0  0
  3 11  1  0  0  0  0
  4  9  1  0  0  0  0
  5 10  1  0  0  0  0
  5  4  1  0  0  0  0
  6  5  2  0  0  0  0
  7  1  1  0  0  0  0
 11 12  1  0  0  0  0
 13 14  1  6  0  0  0
 13 15  1  0  0  0  0
 13 17  1  0  0  0  0
 14 18  1  0  0  0  0
 15  8  1  0  0  0  0
 16  2  2  0  0  0  0
 19 14  1  0  0  0  0
 20 14  1  0  0  0  0
 21  6  1  0  0  0  0
M  RAD  4   1   2  11   2  12   3  17   2
M  END
