Coordinates from ORCA-job Ph-N2-H-OTf-B3LYPG-6-31G_dp-scan-d09-49-n400
 OpenBabel08281820563D

 21 20  0  0  0  0  0  0  0  0999 V2000
   -2.6771    0.8960   -5.9397 C   0  0  0  0  0  0  0  0  0  0  0  0
   -1.5047    1.6084   -5.4462 C   0  0  0  0  0  0  0  0  0  0  0  0
   -0.6033    0.7250   -4.6367 C   0  0  0  0  0  0  0  0  0  0  0  0
   -0.8284   -0.6730   -4.4172 C   0  0  0  0  0  0  0  0  0  0  0  0
   -1.9522   -1.2336   -4.9420 C   0  0  0  0  0  0  0  0  0  0  0  0
   -2.8765   -0.4306   -5.6979 C   0  0  0  0  0  0  0  0  0  0  0  0
   -3.3812    1.4851   -6.5182 H   0  0  0  0  0  0  0  0  0  0  0  0
    3.0321    1.9197   -5.0606 H   0  0  0  0  0  0  0  0  0  0  0  0
   -0.0940   -1.2452   -3.8618 H   0  0  0  0  0  0  0  0  0  0  0  0
   -2.1540   -2.2890   -4.7976 H   0  0  0  0  0  0  0  0  0  0  0  0
    0.4482    1.3407   -4.1464 N   0  0  0  0  0  0  0  0  0  0  0  0
    1.2990    2.0118   -3.8039 N   0  0  0  0  0  0  0  0  0  0  0  0
    3.4644    0.0165   -6.0503 S   0  0  1  0  0  0  0  0  0  0  0  0
    2.4041    0.7050   -7.4580 C   0  0  0  0  0  0  0  0  0  0  0  0
    3.8399    1.5024   -5.4315 O   0  0  0  0  0  0  0  0  0  0  0  0
   -1.2489    2.7945   -5.6478 O   0  0  0  0  0  0  0  0  0  0  0  0
    2.4861   -0.6882   -5.1788 O   0  0  0  0  0  0  0  0  0  0  0  0
    1.4733    1.5463   -6.9858 F   0  0  0  0  0  0  0  0  0  0  0  0
    3.1871    1.3539   -8.3226 F   0  0  0  0  0  0  0  0  0  0  0  0
    1.8048   -0.3134   -8.0792 F   0  0  0  0  0  0  0  0  0  0  0  0
   -3.7670   -0.9113   -6.0949 H   0  0  0  0  0  0  0  0  0  0  0  0
  1  6  1  0  0  0  0
  1  2  1  0  0  0  0
  2  3  1  0  0  0  0
  3  4  2  0  0  0  0
  3 11  1  0  0  0  0
  4  9  1  0  0  0  0
  5 10  1  0  0  0  0
  5  4  1  0  0  0  0
  6  5  2  0  0  0  0
  7  1  1  0  0  0  0
 11 12  1  0  0  0  0
 13 14  1  6  0  0  0
 13 15  1  0  0  0  0
 13 17  1  0  0  0  0
 14 18  1  0  0  0  0
 15  8  1  0  0  0  0
 16  2  2  0  0  0  0
 19 14  1  0  0  0  0
 20 14  1  0  0  0  0
 21  6  1  0  0  0  0
M  RAD  4   1   2  11   2  12   3  17   2
M  END
