Coordinates from ORCA-job Ph-N2-H-OTf-B3LYPG-6-31G_dp-scan-d09-49-n400
 OpenBabel08281820563D

 21 20  0  0  0  0  0  0  0  0999 V2000
   -2.0995    0.8476   -6.0781 C   0  0  0  0  0  0  0  0  0  0  0  0
   -0.9968    1.3471   -5.2702 C   0  0  0  0  0  0  0  0  0  0  0  0
   -0.6499    0.4226   -4.1587 C   0  0  0  0  0  0  0  0  0  0  0  0
   -1.2993   -0.8277   -3.9183 C   0  0  0  0  0  0  0  0  0  0  0  0
   -2.3174   -1.2032   -4.7442 C   0  0  0  0  0  0  0  0  0  0  0  0
   -2.7104   -0.3468   -5.8253 C   0  0  0  0  0  0  0  0  0  0  0  0
   -2.4073    1.4823   -6.9030 H   0  0  0  0  0  0  0  0  0  0  0  0
    2.4440    2.5728   -5.9274 H   0  0  0  0  0  0  0  0  0  0  0  0
   -0.9708   -1.4478   -3.0905 H   0  0  0  0  0  0  0  0  0  0  0  0
   -2.8294   -2.1459   -4.5888 H   0  0  0  0  0  0  0  0  0  0  0  0
    0.3303    0.8365   -3.3673 N   0  0  0  0  0  0  0  0  0  0  0  0
    1.1637    1.2954   -2.7571 N   0  0  0  0  0  0  0  0  0  0  0  0
    3.4059    0.6192   -6.1767 S   0  0  1  0  0  0  0  0  0  0  0  0
    2.5053    0.6771   -7.8393 C   0  0  0  0  0  0  0  0  0  0  0  0
    3.3688    2.2593   -5.9618 O   0  0  0  0  0  0  0  0  0  0  0  0
   -0.4087    2.4186   -5.4594 O   0  0  0  0  0  0  0  0  0  0  0  0
    2.4516   -0.0701   -5.2714 O   0  0  0  0  0  0  0  0  0  0  0  0
    1.3835    1.3995   -7.7521 F   0  0  0  0  0  0  0  0  0  0  0  0
    3.3134    1.2230   -8.7544 F   0  0  0  0  0  0  0  0  0  0  0  0
    2.2026   -0.5708   -8.2068 F   0  0  0  0  0  0  0  0  0  0  0  0
   -3.5280   -0.6679   -6.4662 H   0  0  0  0  0  0  0  0  0  0  0  0
  1  6  1  0  0  0  0
  1  2  1  0  0  0  0
  2  3  1  0  0  0  0
  3  4  2  0  0  0  0
  3 11  1  0  0  0  0
  4  9  1  0  0  0  0
  5 10  1  0  0  0  0
  5  4  1  0  0  0  0
  6  5  2  0  0  0  0
  7  1  1  0  0  0  0
 11 12  1  0  0  0  0
 13 14  1  6  0  0  0
 13 15  1  0  0  0  0
 13 17  1  0  0  0  0
 14 18  1  0  0  0  0
 15  8  1  0  0  0  0
 16  2  2  0  0  0  0
 19 14  1  0  0  0  0
 20 14  1  0  0  0  0
 21  6  1  0  0  0  0
M  RAD  4   1   2  11   2  12   3  17   2
M  END
