Coordinates from ORCA-job Ph-N2-H-OTf-B3LYPG-6-31G_dp-scan-d09-49-n400
 OpenBabel08281820563D

 21 20  0  0  0  0  0  0  0  0999 V2000
   -2.7435    0.9168   -5.8804 C   0  0  0  0  0  0  0  0  0  0  0  0
   -1.5732    1.6413   -5.3991 C   0  0  0  0  0  0  0  0  0  0  0  0
   -0.6179    0.7507   -4.6628 C   0  0  0  0  0  0  0  0  0  0  0  0
   -0.7994   -0.6607   -4.4903 C   0  0  0  0  0  0  0  0  0  0  0  0
   -1.9274   -1.2299   -4.9964 C   0  0  0  0  0  0  0  0  0  0  0  0
   -2.8994   -0.4232   -5.6857 C   0  0  0  0  0  0  0  0  0  0  0  0
   -3.4834    1.5089   -6.4090 H   0  0  0  0  0  0  0  0  0  0  0  0
    3.0328    1.9364   -5.0739 H   0  0  0  0  0  0  0  0  0  0  0  0
   -0.0285   -1.2334   -3.9874 H   0  0  0  0  0  0  0  0  0  0  0  0
   -2.0966   -2.2955   -4.8878 H   0  0  0  0  0  0  0  0  0  0  0  0
    0.4360    1.3725   -4.1855 N   0  0  0  0  0  0  0  0  0  0  0  0
    1.2893    2.0417   -3.8454 N   0  0  0  0  0  0  0  0  0  0  0  0
    3.4914    0.0077   -6.0028 S   0  0  1  0  0  0  0  0  0  0  0  0
    2.4512    0.6463   -7.4480 C   0  0  0  0  0  0  0  0  0  0  0  0
    3.8477    1.5135   -5.4226 O   0  0  0  0  0  0  0  0  0  0  0  0
   -1.3577    2.8417   -5.5588 O   0  0  0  0  0  0  0  0  0  0  0  0
    2.5016   -0.6768   -5.1280 O   0  0  0  0  0  0  0  0  0  0  0  0
    1.5011    1.4875   -7.0152 F   0  0  0  0  0  0  0  0  0  0  0  0
    3.2423    1.2829   -8.3141 F   0  0  0  0  0  0  0  0  0  0  0  0
    1.8764   -0.3953   -8.0536 F   0  0  0  0  0  0  0  0  0  0  0  0
   -3.7911   -0.9121   -6.0702 H   0  0  0  0  0  0  0  0  0  0  0  0
  1  6  1  0  0  0  0
  1  2  1  0  0  0  0
  2  3  1  0  0  0  0
  3  4  2  0  0  0  0
  3 11  1  0  0  0  0
  4  9  1  0  0  0  0
  5 10  1  0  0  0  0
  5  4  1  0  0  0  0
  6  5  2  0  0  0  0
  7  1  1  0  0  0  0
 11 12  1  0  0  0  0
 13 14  1  6  0  0  0
 13 15  1  0  0  0  0
 13 17  1  0  0  0  0
 14 18  1  0  0  0  0
 15  8  1  0  0  0  0
 16  2  2  0  0  0  0
 19 14  1  0  0  0  0
 20 14  1  0  0  0  0
 21  6  1  0  0  0  0
M  RAD  4   1   2  11   2  12   3  17   2
M  END
