Coordinates from ORCA-job Ph-N2-H-OTf-B3LYPG-6-31G_dp-scan-d09-49-n400
 OpenBabel08281820563D

 21 20  0  0  0  0  0  0  0  0999 V2000
   -1.9988    0.8559   -6.1003 C   0  0  0  0  0  0  0  0  0  0  0  0
   -0.8694    1.3010   -5.3025 C   0  0  0  0  0  0  0  0  0  0  0  0
   -0.5908    0.3964   -4.1619 C   0  0  0  0  0  0  0  0  0  0  0  0
   -1.3232   -0.7996   -3.8859 C   0  0  0  0  0  0  0  0  0  0  0  0
   -2.3602   -1.1332   -4.7067 C   0  0  0  0  0  0  0  0  0  0  0  0
   -2.6900   -0.2874   -5.8156 C   0  0  0  0  0  0  0  0  0  0  0  0
   -2.2569    1.4830   -6.9474 H   0  0  0  0  0  0  0  0  0  0  0  0
    2.0799    2.4887   -5.8054 H   0  0  0  0  0  0  0  0  0  0  0  0
   -1.0409   -1.4126   -3.0361 H   0  0  0  0  0  0  0  0  0  0  0  0
   -2.9339   -2.0350   -4.5255 H   0  0  0  0  0  0  0  0  0  0  0  0
    0.4046    0.7695   -3.3663 N   0  0  0  0  0  0  0  0  0  0  0  0
    1.2513    1.1793   -2.7417 N   0  0  0  0  0  0  0  0  0  0  0  0
    3.3446    0.7399   -6.1722 S   0  0  1  0  0  0  0  0  0  0  0  0
    2.5227    0.6672   -7.8739 C   0  0  0  0  0  0  0  0  0  0  0  0
    3.0418    2.3415   -5.9265 O   0  0  0  0  0  0  0  0  0  0  0  0
   -0.2114    2.3283   -5.5288 O   0  0  0  0  0  0  0  0  0  0  0  0
    2.4771   -0.1071   -5.3112 O   0  0  0  0  0  0  0  0  0  0  0  0
    1.2655    1.1138   -7.8370 F   0  0  0  0  0  0  0  0  0  0  0  0
    3.2332    1.4100   -8.7300 F   0  0  0  0  0  0  0  0  0  0  0  0
    2.5295   -0.6052   -8.2888 F   0  0  0  0  0  0  0  0  0  0  0  0
   -3.5229   -0.5732   -6.4532 H   0  0  0  0  0  0  0  0  0  0  0  0
  1  6  1  0  0  0  0
  1  2  1  0  0  0  0
  2  3  1  0  0  0  0
  3  4  2  0  0  0  0
  3 11  1  0  0  0  0
  4  9  1  0  0  0  0
  5 10  1  0  0  0  0
  5  4  1  0  0  0  0
  6  5  2  0  0  0  0
  7  1  1  0  0  0  0
 11 12  1  0  0  0  0
 13 14  1  6  0  0  0
 13 15  1  0  0  0  0
 13 17  1  0  0  0  0
 14 18  1  0  0  0  0
 15  8  1  0  0  0  0
 16  2  2  0  0  0  0
 19 14  1  0  0  0  0
 20 14  1  0  0  0  0
 21  6  1  0  0  0  0
M  RAD  4   1   2  11   2  12   3  17   2
M  END
