Coordinates from ORCA-job Ph-N2-H-OTf-B3LYPG-6-31G_dp-scan-d09-49-n400
 OpenBabel08281820563D

 21 20  0  0  0  0  0  0  0  0999 V2000
   -2.0712    0.8429   -6.0816 C   0  0  0  0  0  0  0  0  0  0  0  0
   -0.9472    1.3178   -5.2903 C   0  0  0  0  0  0  0  0  0  0  0  0
   -0.6285    0.4083   -4.1608 C   0  0  0  0  0  0  0  0  0  0  0  0
   -1.3216   -0.8118   -3.8890 C   0  0  0  0  0  0  0  0  0  0  0  0
   -2.3569   -1.1685   -4.7019 C   0  0  0  0  0  0  0  0  0  0  0  0
   -2.7240   -0.3229   -5.7999 C   0  0  0  0  0  0  0  0  0  0  0  0
   -2.3589    1.4697   -6.9195 H   0  0  0  0  0  0  0  0  0  0  0  0
    2.2581    2.5273   -5.8894 H   0  0  0  0  0  0  0  0  0  0  0  0
   -1.0117   -1.4244   -3.0486 H   0  0  0  0  0  0  0  0  0  0  0  0
   -2.9017   -2.0885   -4.5232 H   0  0  0  0  0  0  0  0  0  0  0  0
    0.3680    0.8032   -3.3788 N   0  0  0  0  0  0  0  0  0  0  0  0
    1.2156    1.2390   -2.7722 N   0  0  0  0  0  0  0  0  0  0  0  0
    3.3795    0.6650   -6.1681 S   0  0  1  0  0  0  0  0  0  0  0  0
    2.5592    0.6906   -7.8718 C   0  0  0  0  0  0  0  0  0  0  0  0
    3.2064    2.2885   -5.9156 O   0  0  0  0  0  0  0  0  0  0  0  0
   -0.3231    2.3650   -5.5082 O   0  0  0  0  0  0  0  0  0  0  0  0
    2.4399   -0.1183   -5.3247 O   0  0  0  0  0  0  0  0  0  0  0  0
    1.3641    1.2861   -7.8250 F   0  0  0  0  0  0  0  0  0  0  0  0
    3.3494    1.3497   -8.7261 F   0  0  0  0  0  0  0  0  0  0  0  0
    2.4117   -0.5698   -8.2920 F   0  0  0  0  0  0  0  0  0  0  0  0
   -3.5554   -0.6282   -6.4305 H   0  0  0  0  0  0  0  0  0  0  0  0
  1  6  1  0  0  0  0
  1  2  1  0  0  0  0
  2  3  1  0  0  0  0
  3  4  2  0  0  0  0
  3 11  1  0  0  0  0
  4  9  1  0  0  0  0
  5 10  1  0  0  0  0
  5  4  1  0  0  0  0
  6  5  2  0  0  0  0
  7  1  1  0  0  0  0
 11 12  1  0  0  0  0
 13 14  1  6  0  0  0
 13 15  1  0  0  0  0
 13 17  1  0  0  0  0
 14 18  1  0  0  0  0
 15  8  1  0  0  0  0
 16  2  2  0  0  0  0
 19 14  1  0  0  0  0
 20 14  1  0  0  0  0
 21  6  1  0  0  0  0
M  RAD  4   1   2  11   2  12   3  17   2
M  END
