Coordinates from ORCA-job Ph-N2-H-OTf-B3LYPG-6-31G_dp-scan-d09-49-n400
 OpenBabel08281820563D

 21 20  0  0  0  0  0  0  0  0999 V2000
   -2.3485    1.0494   -5.9995 C   0  0  0  0  0  0  0  0  0  0  0  0
   -1.3193    1.6824   -5.1847 C   0  0  0  0  0  0  0  0  0  0  0  0
   -0.5550    0.6902   -4.3736 C   0  0  0  0  0  0  0  0  0  0  0  0
   -0.7532   -0.7246   -4.4309 C   0  0  0  0  0  0  0  0  0  0  0  0
   -1.7330   -1.2086   -5.2458 C   0  0  0  0  0  0  0  0  0  0  0  0
   -2.5328   -0.3026   -6.0214 C   0  0  0  0  0  0  0  0  0  0  0  0
   -2.9571    1.7184   -6.5992 H   0  0  0  0  0  0  0  0  0  0  0  0
    2.7091    2.3298   -5.7776 H   0  0  0  0  0  0  0  0  0  0  0  0
   -0.1175   -1.3729   -3.8381 H   0  0  0  0  0  0  0  0  0  0  0  0
   -1.9110   -2.2764   -5.3132 H   0  0  0  0  0  0  0  0  0  0  0  0
    0.3642    1.2236   -3.5848 N   0  0  0  0  0  0  0  0  0  0  0  0
    1.1019    1.8180   -2.9656 N   0  0  0  0  0  0  0  0  0  0  0  0
    3.3542    0.2467   -6.0234 S   0  0  1  0  0  0  0  0  0  0  0  0
    2.0481    0.3439   -7.3940 C   0  0  0  0  0  0  0  0  0  0  0  0
    3.5623    1.8887   -5.9573 O   0  0  0  0  0  0  0  0  0  0  0  0
   -1.0759    2.8911   -5.1509 O   0  0  0  0  0  0  0  0  0  0  0  0
    2.6026   -0.2541   -4.8444 O   0  0  0  0  0  0  0  0  0  0  0  0
    1.1549    1.3098   -7.1262 F   0  0  0  0  0  0  0  0  0  0  0  0
    2.6508    0.6149   -8.5543 F   0  0  0  0  0  0  0  0  0  0  0  0
    1.4193   -0.8272   -7.4778 F   0  0  0  0  0  0  0  0  0  0  0  0
   -3.3126   -0.7195   -6.6544 H   0  0  0  0  0  0  0  0  0  0  0  0
  1  2  1  0  0  0  0
  2 16  2  0  0  0  0
  2  3  1  0  0  0  0
  3 11  1  0  0  0  0
  4  3  2  0  0  0  0
  4  9  1  0  0  0  0
  5  4  1  0  0  0  0
  6  1  1  0  0  0  0
  6  5  2  0  0  0  0
  7  1  1  0  0  0  0
 10  5  1  0  0  0  0
 11 12  1  0  0  0  0
 13 14  1  6  0  0  0
 13 15  1  0  0  0  0
 13 17  1  0  0  0  0
 14 18  1  0  0  0  0
 15  8  1  0  0  0  0
 19 14  1  0  0  0  0
 20 14  1  0  0  0  0
 21  6  1  0  0  0  0
M  RAD  4   1   2  11   2  12   3  17   2
M  END
