Coordinates from ORCA-job Ph-N2-H-OTf-B3LYPG-6-31G_dp-scan-d09-49-n400
 OpenBabel08281820563D

 21 20  0  0  0  0  0  0  0  0999 V2000
   -1.9800    0.8595   -6.1040 C   0  0  0  0  0  0  0  0  0  0  0  0
   -0.8383    1.2853   -5.3153 C   0  0  0  0  0  0  0  0  0  0  0  0
   -0.5752    0.3882   -4.1676 C   0  0  0  0  0  0  0  0  0  0  0  0
   -1.3322   -0.7890   -3.8773 C   0  0  0  0  0  0  0  0  0  0  0  0
   -2.3793   -1.1082   -4.6913 C   0  0  0  0  0  0  0  0  0  0  0  0
   -2.6952   -0.2660   -5.8063 C   0  0  0  0  0  0  0  0  0  0  0  0
   -2.2269    1.4844   -6.9560 H   0  0  0  0  0  0  0  0  0  0  0  0
    1.9756    2.4539   -5.7902 H   0  0  0  0  0  0  0  0  0  0  0  0
   -1.0601   -1.3995   -3.0225 H   0  0  0  0  0  0  0  0  0  0  0  0
   -2.9712   -1.9959   -4.4994 H   0  0  0  0  0  0  0  0  0  0  0  0
    0.4277    0.7475   -3.3733 N   0  0  0  0  0  0  0  0  0  0  0  0
    1.2810    1.1392   -2.7466 N   0  0  0  0  0  0  0  0  0  0  0  0
    3.3277    0.7748   -6.1644 S   0  0  1  0  0  0  0  0  0  0  0  0
    2.5428    0.6666   -7.8813 C   0  0  0  0  0  0  0  0  0  0  0  0
    2.9457    2.3546   -5.9109 O   0  0  0  0  0  0  0  0  0  0  0  0
   -0.1592    2.2970   -5.5572 O   0  0  0  0  0  0  0  0  0  0  0  0
    2.4863   -0.1202   -5.3245 O   0  0  0  0  0  0  0  0  0  0  0  0
    1.2504    0.9990   -7.8615 F   0  0  0  0  0  0  0  0  0  0  0  0
    3.1995    1.4827   -8.7130 F   0  0  0  0  0  0  0  0  0  0  0  0
    2.6690   -0.5937   -8.3163 F   0  0  0  0  0  0  0  0  0  0  0  0
   -3.5364   -0.5392   -6.4383 H   0  0  0  0  0  0  0  0  0  0  0  0
  1  6  1  0  0  0  0
  1  2  1  0  0  0  0
  2  3  1  0  0  0  0
  3  4  2  0  0  0  0
  3 11  1  0  0  0  0
  4  9  1  0  0  0  0
  5 10  1  0  0  0  0
  5  4  1  0  0  0  0
  6  5  2  0  0  0  0
  7  1  1  0  0  0  0
 11 12  1  0  0  0  0
 13 14  1  6  0  0  0
 13 15  1  0  0  0  0
 13 17  1  0  0  0  0
 14 18  1  0  0  0  0
 15  8  1  0  0  0  0
 16  2  2  0  0  0  0
 19 14  1  0  0  0  0
 20 14  1  0  0  0  0
 21  6  1  0  0  0  0
M  RAD  4   1   2  11   2  12   3  17   2
M  END
