Coordinates from ORCA-job Ph-N2-H-OTf-B3LYPG-6-31G_dp-scan-d09-49-n400
 OpenBabel08281820563D

 21 20  0  0  0  0  0  0  0  0999 V2000
   -2.7925    0.9269   -5.8382 C   0  0  0  0  0  0  0  0  0  0  0  0
   -1.6230    1.6605   -5.3681 C   0  0  0  0  0  0  0  0  0  0  0  0
   -0.6324    0.7690   -4.6818 C   0  0  0  0  0  0  0  0  0  0  0  0
   -0.7858   -0.6493   -4.5383 C   0  0  0  0  0  0  0  0  0  0  0  0
   -1.9168   -1.2258   -5.0293 C   0  0  0  0  0  0  0  0  0  0  0  0
   -2.9201   -0.4201   -5.6736 C   0  0  0  0  0  0  0  0  0  0  0  0
   -3.5559    1.5186   -6.3326 H   0  0  0  0  0  0  0  0  0  0  0  0
    3.0407    1.9437   -5.0840 H   0  0  0  0  0  0  0  0  0  0  0  0
    0.0079   -1.2198   -4.0698 H   0  0  0  0  0  0  0  0  0  0  0  0
   -2.0648   -2.2966   -4.9425 H   0  0  0  0  0  0  0  0  0  0  0  0
    0.4243    1.3948   -4.2158 N   0  0  0  0  0  0  0  0  0  0  0  0
    1.2808    2.0609   -3.8784 N   0  0  0  0  0  0  0  0  0  0  0  0
    3.5143   -0.0003   -5.9733 S   0  0  1  0  0  0  0  0  0  0  0  0
    2.4926    0.6110   -7.4432 C   0  0  0  0  0  0  0  0  0  0  0  0
    3.8604    1.5157   -5.4144 O   0  0  0  0  0  0  0  0  0  0  0  0
   -1.4350    2.8688   -5.5002 O   0  0  0  0  0  0  0  0  0  0  0  0
    2.5135   -0.6716   -5.1008 O   0  0  0  0  0  0  0  0  0  0  0  0
    1.5330    1.4548   -7.0367 F   0  0  0  0  0  0  0  0  0  0  0  0
    3.2929    1.2375   -8.3081 F   0  0  0  0  0  0  0  0  0  0  0  0
    1.9303   -0.4422   -8.0402 F   0  0  0  0  0  0  0  0  0  0  0  0
   -3.8127   -0.9154   -6.0476 H   0  0  0  0  0  0  0  0  0  0  0  0
  1  6  1  0  0  0  0
  1  2  1  0  0  0  0
  2  3  1  0  0  0  0
  3  4  2  0  0  0  0
  3 11  1  0  0  0  0
  4  9  1  0  0  0  0
  5 10  1  0  0  0  0
  5  4  1  0  0  0  0
  6  5  2  0  0  0  0
  7  1  1  0  0  0  0
 11 12  1  0  0  0  0
 13 14  1  6  0  0  0
 13 15  1  0  0  0  0
 13 17  1  0  0  0  0
 14 18  1  0  0  0  0
 15  8  1  0  0  0  0
 16  2  2  0  0  0  0
 19 14  1  0  0  0  0
 20 14  1  0  0  0  0
 21  6  1  0  0  0  0
M  RAD  4   1   2  11   2  12   3  17   2
M  END
