Coordinates from ORCA-job Ph-N2-H-OTf-B3LYPG-6-31G_dp-scan-d09-49-n400
 OpenBabel08281820563D

 21 20  0  0  0  0  0  0  0  0999 V2000
   -1.9391    0.8575   -6.1207 C   0  0  0  0  0  0  0  0  0  0  0  0
   -0.7720    1.2459   -5.3568 C   0  0  0  0  0  0  0  0  0  0  0  0
   -0.5375    0.3761   -4.1890 C   0  0  0  0  0  0  0  0  0  0  0  0
   -1.3450   -0.7552   -3.8564 C   0  0  0  0  0  0  0  0  0  0  0  0
   -2.4154   -1.0486   -4.6503 C   0  0  0  0  0  0  0  0  0  0  0  0
   -2.7042   -0.2249   -5.7844 C   0  0  0  0  0  0  0  0  0  0  0  0
   -2.1636    1.4692   -6.9881 H   0  0  0  0  0  0  0  0  0  0  0  0
    1.7438    2.3473   -5.7573 H   0  0  0  0  0  0  0  0  0  0  0  0
   -1.0915   -1.3524   -2.9867 H   0  0  0  0  0  0  0  0  0  0  0  0
   -3.0454   -1.9021   -4.4266 H   0  0  0  0  0  0  0  0  0  0  0  0
    0.4849    0.7099   -3.4042 N   0  0  0  0  0  0  0  0  0  0  0  0
    1.3503    1.0654   -2.7747 N   0  0  0  0  0  0  0  0  0  0  0  0
    3.2758    0.8237   -6.1347 S   0  0  1  0  0  0  0  0  0  0  0  0
    2.5848    0.6850   -7.8893 C   0  0  0  0  0  0  0  0  0  0  0  0
    2.7349    2.3384   -5.8432 O   0  0  0  0  0  0  0  0  0  0  0  0
   -0.0504    2.2224   -5.6417 O   0  0  0  0  0  0  0  0  0  0  0  0
    2.4887   -0.1808   -5.3638 O   0  0  0  0  0  0  0  0  0  0  0  0
    1.2550    0.8035   -7.9185 F   0  0  0  0  0  0  0  0  0  0  0  0
    3.1320    1.6334   -8.6576 F   0  0  0  0  0  0  0  0  0  0  0  0
    2.9291   -0.5174   -8.3722 F   0  0  0  0  0  0  0  0  0  0  0  0
   -3.5636   -0.4752   -6.4009 H   0  0  0  0  0  0  0  0  0  0  0  0
  1  6  1  0  0  0  0
  1  2  1  0  0  0  0
  2  3  1  0  0  0  0
  3  4  2  0  0  0  0
  3 11  1  0  0  0  0
  4  9  1  0  0  0  0
  5 10  1  0  0  0  0
  5  4  1  0  0  0  0
  6  5  2  0  0  0  0
  7  1  1  0  0  0  0
 11 12  1  0  0  0  0
 13 14  1  6  0  0  0
 13 15  1  0  0  0  0
 13 17  1  0  0  0  0
 15  8  1  0  0  0  0
 16  2  2  0  0  0  0
 18 14  1  0  0  0  0
 19 14  1  0  0  0  0
 20 14  1  0  0  0  0
 21  6  1  0  0  0  0
M  RAD  4   1   2  11   2  12   3  17   2
M  END
