Coordinates from ORCA-job Ph-N2-H-OTf-B3LYPG-6-31G_dp-scan-d09-49-n400
 OpenBabel08281820563D

 21 20  0  0  0  0  0  0  0  0999 V2000
   -2.3903    1.0423   -5.9855 C   0  0  0  0  0  0  0  0  0  0  0  0
   -1.3768    1.6966   -5.1672 C   0  0  0  0  0  0  0  0  0  0  0  0
   -0.5688    0.7170   -4.3827 C   0  0  0  0  0  0  0  0  0  0  0  0
   -0.7268   -0.7026   -4.4551 C   0  0  0  0  0  0  0  0  0  0  0  0
   -1.6992   -1.2053   -5.2674 C   0  0  0  0  0  0  0  0  0  0  0  0
   -2.5322   -0.3142   -6.0254 C   0  0  0  0  0  0  0  0  0  0  0  0
   -3.0245    1.7004   -6.5705 H   0  0  0  0  0  0  0  0  0  0  0  0
    2.8206    2.2928   -5.7577 H   0  0  0  0  0  0  0  0  0  0  0  0
   -0.0662   -1.3389   -3.8767 H   0  0  0  0  0  0  0  0  0  0  0  0
   -1.8465   -2.2770   -5.3460 H   0  0  0  0  0  0  0  0  0  0  0  0
    0.3498    1.2664   -3.6051 N   0  0  0  0  0  0  0  0  0  0  0  0
    1.0869    1.8730   -2.9966 N   0  0  0  0  0  0  0  0  0  0  0  0
    3.3485    0.1806   -6.0215 S   0  0  1  0  0  0  0  0  0  0  0  0
    2.0387    0.3441   -7.3813 C   0  0  0  0  0  0  0  0  0  0  0  0
    3.6452    1.8095   -5.9613 O   0  0  0  0  0  0  0  0  0  0  0  0
   -1.1785    2.9122   -5.1117 O   0  0  0  0  0  0  0  0  0  0  0  0
    2.5808   -0.2727   -4.8337 O   0  0  0  0  0  0  0  0  0  0  0  0
    1.1790    1.3333   -7.0915 F   0  0  0  0  0  0  0  0  0  0  0  0
    2.6434    0.6148   -8.5405 F   0  0  0  0  0  0  0  0  0  0  0  0
    1.3721   -0.8049   -7.4810 F   0  0  0  0  0  0  0  0  0  0  0  0
   -3.3034   -0.7466   -6.6586 H   0  0  0  0  0  0  0  0  0  0  0  0
  1  2  1  0  0  0  0
  2 16  2  0  0  0  0
  2  3  1  0  0  0  0
  3 11  1  0  0  0  0
  4  3  2  0  0  0  0
  4  9  1  0  0  0  0
  5  4  1  0  0  0  0
  6  1  1  0  0  0  0
  6  5  2  0  0  0  0
  7  1  1  0  0  0  0
 10  5  1  0  0  0  0
 11 12  1  0  0  0  0
 13 14  1  6  0  0  0
 13 15  1  0  0  0  0
 13 17  1  0  0  0  0
 14 18  1  0  0  0  0
 15  8  1  0  0  0  0
 19 14  1  0  0  0  0
 20 14  1  0  0  0  0
 21  6  1  0  0  0  0
M  RAD  4   1   2  11   2  12   3  17   2
M  END
