Coordinates from ORCA-job Ph-N2-H-OTf-B3LYPG-6-31G_dp-scan-d09-49-n400
 OpenBabel08281820563D

 21 20  0  0  0  0  0  0  0  0999 V2000
   -1.9658    0.8544   -6.1101 C   0  0  0  0  0  0  0  0  0  0  0  0
   -0.8127    1.2658   -5.3327 C   0  0  0  0  0  0  0  0  0  0  0  0
   -0.5630    0.3820   -4.1741 C   0  0  0  0  0  0  0  0  0  0  0  0
   -1.3431   -0.7747   -3.8633 C   0  0  0  0  0  0  0  0  0  0  0  0
   -2.4005   -1.0838   -4.6680 C   0  0  0  0  0  0  0  0  0  0  0  0
   -2.7037   -0.2515   -5.7934 C   0  0  0  0  0  0  0  0  0  0  0  0
   -2.2025    1.4721   -6.9702 H   0  0  0  0  0  0  0  0  0  0  0  0
    1.8846    2.4119   -5.7743 H   0  0  0  0  0  0  0  0  0  0  0  0
   -1.0796   -1.3782   -3.0009 H   0  0  0  0  0  0  0  0  0  0  0  0
   -3.0097   -1.9563   -4.4608 H   0  0  0  0  0  0  0  0  0  0  0  0
    0.4497    0.7302   -3.3858 N   0  0  0  0  0  0  0  0  0  0  0  0
    1.3102    1.1064   -2.7603 N   0  0  0  0  0  0  0  0  0  0  0  0
    3.3092    0.7949   -6.1547 S   0  0  1  0  0  0  0  0  0  0  0  0
    2.5685    0.6790   -7.8907 C   0  0  0  0  0  0  0  0  0  0  0  0
    2.8626    2.3509   -5.8821 O   0  0  0  0  0  0  0  0  0  0  0  0
   -0.1145    2.2613   -5.5947 O   0  0  0  0  0  0  0  0  0  0  0  0
    2.4845   -0.1464   -5.3478 O   0  0  0  0  0  0  0  0  0  0  0  0
    1.2571    0.9275   -7.8951 F   0  0  0  0  0  0  0  0  0  0  0  0
    3.1895    1.5526   -8.6909 F   0  0  0  0  0  0  0  0  0  0  0  0
    2.7840   -0.5614   -8.3490 F   0  0  0  0  0  0  0  0  0  0  0  0
   -3.5530   -0.5158   -6.4182 H   0  0  0  0  0  0  0  0  0  0  0  0
  1  6  1  0  0  0  0
  1  2  1  0  0  0  0
  2  3  1  0  0  0  0
  3  4  2  0  0  0  0
  3 11  1  0  0  0  0
  4  9  1  0  0  0  0
  5 10  1  0  0  0  0
  5  4  1  0  0  0  0
  6  5  2  0  0  0  0
  7  1  1  0  0  0  0
 11 12  1  0  0  0  0
 13 14  1  6  0  0  0
 13 15  1  0  0  0  0
 13 17  1  0  0  0  0
 15  8  1  0  0  0  0
 16  2  2  0  0  0  0
 18 14  1  0  0  0  0
 19 14  1  0  0  0  0
 20 14  1  0  0  0  0
 21  6  1  0  0  0  0
M  RAD  4   1   2  11   2  12   3  17   2
M  END
