Coordinates from ORCA-job Ph-N2-H-OTf-B3LYPG-6-31G_dp-scan-d09-49-n400
 OpenBabel08281820563D

 21 20  0  0  0  0  0  0  0  0999 V2000
   -1.9631    0.8536   -6.1111 C   0  0  0  0  0  0  0  0  0  0  0  0
   -0.8091    1.2634   -5.3346 C   0  0  0  0  0  0  0  0  0  0  0  0
   -0.5615    0.3817   -4.1743 C   0  0  0  0  0  0  0  0  0  0  0  0
   -1.3445   -0.7722   -3.8609 C   0  0  0  0  0  0  0  0  0  0  0  0
   -2.4028   -1.0804   -4.6649 C   0  0  0  0  0  0  0  0  0  0  0  0
   -2.7039   -0.2498   -5.7919 C   0  0  0  0  0  0  0  0  0  0  0  0
   -2.1981    1.4700   -6.9725 H   0  0  0  0  0  0  0  0  0  0  0  0
    1.8713    2.4052   -5.7721 H   0  0  0  0  0  0  0  0  0  0  0  0
   -1.0823   -1.3747   -2.9975 H   0  0  0  0  0  0  0  0  0  0  0  0
   -3.0142   -1.9509   -4.4557 H   0  0  0  0  0  0  0  0  0  0  0  0
    0.4526    0.7284   -3.3870 N   0  0  0  0  0  0  0  0  0  0  0  0
    1.3143    1.1024   -2.7618 N   0  0  0  0  0  0  0  0  0  0  0  0
    3.3053    0.7966   -6.1532 S   0  0  1  0  0  0  0  0  0  0  0  0
    2.5718    0.6810   -7.8923 C   0  0  0  0  0  0  0  0  0  0  0  0
    2.8504    2.3492   -5.8779 O   0  0  0  0  0  0  0  0  0  0  0  0
   -0.1084    2.2569   -5.5990 O   0  0  0  0  0  0  0  0  0  0  0  0
    2.4821   -0.1510   -5.3519 O   0  0  0  0  0  0  0  0  0  0  0  0
    1.2585    0.9193   -7.9008 F   0  0  0  0  0  0  0  0  0  0  0  0
    3.1889    1.5618   -8.6875 F   0  0  0  0  0  0  0  0  0  0  0  0
    2.7985   -0.5563   -8.3539 F   0  0  0  0  0  0  0  0  0  0  0  0
   -3.5539   -0.5132   -6.4162 H   0  0  0  0  0  0  0  0  0  0  0  0
  1  6  1  0  0  0  0
  1  2  1  0  0  0  0
  2  3  1  0  0  0  0
  3  4  2  0  0  0  0
  3 11  1  0  0  0  0
  4  9  1  0  0  0  0
  5 10  1  0  0  0  0
  5  4  1  0  0  0  0
  6  5  2  0  0  0  0
  7  1  1  0  0  0  0
 11 12  1  0  0  0  0
 13 14  1  6  0  0  0
 13 15  1  0  0  0  0
 13 17  1  0  0  0  0
 15  8  1  0  0  0  0
 16  2  2  0  0  0  0
 18 14  1  0  0  0  0
 19 14  1  0  0  0  0
 20 14  1  0  0  0  0
 21  6  1  0  0  0  0
M  RAD  4   1   2  11   2  12   3  17   2
M  END
