Coordinates from ORCA-job Ph-N2-H-OTf-B3LYPG-6-31G_dp-scan-d09-49-n400
 OpenBabel08281820563D

 21 20  0  0  0  0  0  0  0  0999 V2000
   -2.0294    0.8483   -6.0908 C   0  0  0  0  0  0  0  0  0  0  0  0
   -0.9024    1.3068   -5.2960 C   0  0  0  0  0  0  0  0  0  0  0  0
   -0.6066    0.4007   -4.1596 C   0  0  0  0  0  0  0  0  0  0  0  0
   -1.3219   -0.8057   -3.8846 C   0  0  0  0  0  0  0  0  0  0  0  0
   -2.3583   -1.1498   -4.7017 C   0  0  0  0  0  0  0  0  0  0  0  0
   -2.7042   -0.3047   -5.8065 C   0  0  0  0  0  0  0  0  0  0  0  0
   -2.3004    1.4749   -6.9343 H   0  0  0  0  0  0  0  0  0  0  0  0
    2.1449    2.5067   -5.8625 H   0  0  0  0  0  0  0  0  0  0  0  0
   -1.0277   -1.4181   -3.0384 H   0  0  0  0  0  0  0  0  0  0  0  0
   -2.9195   -2.0595   -4.5210 H   0  0  0  0  0  0  0  0  0  0  0  0
    0.3896    0.7838   -3.3704 N   0  0  0  0  0  0  0  0  0  0  0  0
    1.2372    1.2061   -2.7549 N   0  0  0  0  0  0  0  0  0  0  0  0
    3.3534    0.7041   -6.1653 S   0  0  1  0  0  0  0  0  0  0  0  0
    2.5442    0.6828   -7.8750 C   0  0  0  0  0  0  0  0  0  0  0  0
    3.1041    2.3154   -5.9128 O   0  0  0  0  0  0  0  0  0  0  0  0
   -0.2589    2.3428   -5.5185 O   0  0  0  0  0  0  0  0  0  0  0  0
    2.4489   -0.1216   -5.3227 O   0  0  0  0  0  0  0  0  0  0  0  0
    1.3222    1.2210   -7.8469 F   0  0  0  0  0  0  0  0  0  0  0  0
    3.3124    1.3722   -8.7258 F   0  0  0  0  0  0  0  0  0  0  0  0
    2.4606   -0.5862   -8.2885 F   0  0  0  0  0  0  0  0  0  0  0  0
   -3.5365   -0.5993   -6.4408 H   0  0  0  0  0  0  0  0  0  0  0  0
  1  6  1  0  0  0  0
  1  2  1  0  0  0  0
  2  3  1  0  0  0  0
  3  4  2  0  0  0  0
  3 11  1  0  0  0  0
  4  9  1  0  0  0  0
  5 10  1  0  0  0  0
  5  4  1  0  0  0  0
  6  5  2  0  0  0  0
  7  1  1  0  0  0  0
 11 12  1  0  0  0  0
 13 14  1  6  0  0  0
 13 15  1  0  0  0  0
 13 17  1  0  0  0  0
 14 18  1  0  0  0  0
 15  8  1  0  0  0  0
 16  2  2  0  0  0  0
 19 14  1  0  0  0  0
 20 14  1  0  0  0  0
 21  6  1  0  0  0  0
M  RAD  4   1   2  11   2  12   3  17   2
M  END
