Coordinates from ORCA-job Ph-N2-H-OTf-B3LYPG-6-31G_dp-scan-d09-49-n400
 OpenBabel08281820563D

 21 20  0  0  0  0  0  0  0  0999 V2000
   -2.9404    0.9503   -5.6964 C   0  0  0  0  0  0  0  0  0  0  0  0
   -1.7686    1.7060   -5.2682 C   0  0  0  0  0  0  0  0  0  0  0  0
   -0.6802    0.8170   -4.7472 C   0  0  0  0  0  0  0  0  0  0  0  0
   -0.7590   -0.6145   -4.6993 C   0  0  0  0  0  0  0  0  0  0  0  0
   -1.9029   -1.2092   -5.1358 C   0  0  0  0  0  0  0  0  0  0  0  0
   -2.9934   -0.4100   -5.6287 C   0  0  0  0  0  0  0  0  0  0  0  0
   -3.7695    1.5376   -6.0771 H   0  0  0  0  0  0  0  0  0  0  0  0
    3.0608    1.9790   -5.1290 H   0  0  0  0  0  0  0  0  0  0  0  0
    0.0982   -1.1754   -4.3448 H   0  0  0  0  0  0  0  0  0  0  0  0
   -1.9955   -2.2897   -5.1203 H   0  0  0  0  0  0  0  0  0  0  0  0
    0.3886    1.4531   -4.3233 N   0  0  0  0  0  0  0  0  0  0  0  0
    1.2517    2.1154   -3.9966 N   0  0  0  0  0  0  0  0  0  0  0  0
    3.6000   -0.0072   -5.8793 S   0  0  1  0  0  0  0  0  0  0  0  0
    2.6296    0.5041   -7.4206 C   0  0  0  0  0  0  0  0  0  0  0  0
    3.8996    1.5429   -5.3934 O   0  0  0  0  0  0  0  0  0  0  0  0
   -1.6505    2.9293   -5.3145 O   0  0  0  0  0  0  0  0  0  0  0  0
    2.5743   -0.6474   -5.0125 O   0  0  0  0  0  0  0  0  0  0  0  0
    1.6450    1.3567   -7.0992 F   0  0  0  0  0  0  0  0  0  0  0  0
    3.4548    1.0917   -8.2890 F   0  0  0  0  0  0  0  0  0  0  0  0
    2.1018   -0.5881   -7.9771 F   0  0  0  0  0  0  0  0  0  0  0  0
   -3.8925   -0.9207   -5.9648 H   0  0  0  0  0  0  0  0  0  0  0  0
  1  6  1  0  0  0  0
  1  2  1  0  0  0  0
  2  3  1  0  0  0  0
  3  4  2  0  0  0  0
  3 11  1  0  0  0  0
  4  9  1  0  0  0  0
  5 10  1  0  0  0  0
  5  4  1  0  0  0  0
  6  5  2  0  0  0  0
  7  1  1  0  0  0  0
 11 12  1  0  0  0  0
 13 14  1  6  0  0  0
 13 15  1  0  0  0  0
 13 17  1  0  0  0  0
 14 18  1  0  0  0  0
 15  8  1  0  0  0  0
 16  2  2  0  0  0  0
 19 14  1  0  0  0  0
 20 14  1  0  0  0  0
 21  6  1  0  0  0  0
M  RAD  4   1   2  11   2  12   3  17   2
M  END
