Coordinates from ORCA-job Ph-N2-H-OTf-B3LYPG-6-31G_dp-scan-d09-49-n400
 OpenBabel08281820563D

 21 20  0  0  0  0  0  0  0  0999 V2000
   -2.1113    0.8520   -6.0838 C   0  0  0  0  0  0  0  0  0  0  0  0
   -1.0530    1.3862   -5.2373 C   0  0  0  0  0  0  0  0  0  0  0  0
   -0.6784    0.4455   -4.1458 C   0  0  0  0  0  0  0  0  0  0  0  0
   -1.2685   -0.8420   -3.9538 C   0  0  0  0  0  0  0  0  0  0  0  0
   -2.2505   -1.2441   -4.8103 C   0  0  0  0  0  0  0  0  0  0  0  0
   -2.6650   -0.3782   -5.8765 C   0  0  0  0  0  0  0  0  0  0  0  0
   -2.4355    1.4935   -6.8971 H   0  0  0  0  0  0  0  0  0  0  0  0
    2.7282    2.6199   -5.9890 H   0  0  0  0  0  0  0  0  0  0  0  0
   -0.9245   -1.4689   -3.1374 H   0  0  0  0  0  0  0  0  0  0  0  0
   -2.7177   -2.2149   -4.6911 H   0  0  0  0  0  0  0  0  0  0  0  0
    0.2715    0.8826   -3.3312 N   0  0  0  0  0  0  0  0  0  0  0  0
    1.0776    1.3663   -2.7033 N   0  0  0  0  0  0  0  0  0  0  0  0
    3.4155    0.5467   -6.1977 S   0  0  1  0  0  0  0  0  0  0  0  0
    2.3951    0.6600   -7.7865 C   0  0  0  0  0  0  0  0  0  0  0  0
    3.6011    2.1877   -6.0622 O   0  0  0  0  0  0  0  0  0  0  0  0
   -0.5187    2.4904   -5.3803 O   0  0  0  0  0  0  0  0  0  0  0  0
    2.4599    0.0211   -5.1909 O   0  0  0  0  0  0  0  0  0  0  0  0
    1.3684    1.5037   -7.6332 F   0  0  0  0  0  0  0  0  0  0  0  0
    3.1784    1.0913   -8.7805 F   0  0  0  0  0  0  0  0  0  0  0  0
    1.9313   -0.5556   -8.0860 F   0  0  0  0  0  0  0  0  0  0  0  0
   -3.4522   -0.7223   -6.5432 H   0  0  0  0  0  0  0  0  0  0  0  0
  1  6  1  0  0  0  0
  1  2  1  0  0  0  0
  2  3  1  0  0  0  0
  3  4  2  0  0  0  0
  3 11  1  0  0  0  0
  4  9  1  0  0  0  0
  5 10  1  0  0  0  0
  5  4  1  0  0  0  0
  6  5  2  0  0  0  0
  7  1  1  0  0  0  0
 11 12  1  0  0  0  0
 13 14  1  6  0  0  0
 13 15  1  0  0  0  0
 13 17  1  0  0  0  0
 14 18  1  0  0  0  0
 15  8  1  0  0  0  0
 16  2  2  0  0  0  0
 19 14  1  0  0  0  0
 20 14  1  0  0  0  0
 21  6  1  0  0  0  0
M  RAD  4   1   2  11   2  12   3  17   2
M  END
