Coordinates from ORCA-job Ph-N2-H-OTf-B3LYPG-6-31G_dp-scan-d09-49-n400
 OpenBabel08281820563D

 21 20  0  0  0  0  0  0  0  0999 V2000
   -2.0967    0.8481   -6.0784 C   0  0  0  0  0  0  0  0  0  0  0  0
   -0.9914    1.3444   -5.2723 C   0  0  0  0  0  0  0  0  0  0  0  0
   -0.6470    0.4205   -4.1598 C   0  0  0  0  0  0  0  0  0  0  0  0
   -1.3004   -0.8272   -3.9172 C   0  0  0  0  0  0  0  0  0  0  0  0
   -2.3205   -1.2003   -4.7417 C   0  0  0  0  0  0  0  0  0  0  0  0
   -2.7116   -0.3439   -5.8235 C   0  0  0  0  0  0  0  0  0  0  0  0
   -2.4030    1.4827   -6.9038 H   0  0  0  0  0  0  0  0  0  0  0  0
    2.4237    2.5699   -5.9254 H   0  0  0  0  0  0  0  0  0  0  0  0
   -0.9734   -1.4472   -3.0888 H   0  0  0  0  0  0  0  0  0  0  0  0
   -2.8356   -2.1411   -4.5847 H   0  0  0  0  0  0  0  0  0  0  0  0
    0.3347    0.8325   -3.3691 N   0  0  0  0  0  0  0  0  0  0  0  0
    1.1694    1.2891   -2.7592 N   0  0  0  0  0  0  0  0  0  0  0  0
    3.4049    0.6262   -6.1751 S   0  0  1  0  0  0  0  0  0  0  0  0
    2.5088    0.6774   -7.8404 C   0  0  0  0  0  0  0  0  0  0  0  0
    3.3515    2.2652   -5.9580 O   0  0  0  0  0  0  0  0  0  0  0  0
   -0.3995    2.4135   -5.4639 O   0  0  0  0  0  0  0  0  0  0  0  0
    2.4547   -0.0736   -5.2731 O   0  0  0  0  0  0  0  0  0  0  0  0
    1.3822    1.3928   -7.7578 F   0  0  0  0  0  0  0  0  0  0  0  0
    3.3166    1.2277   -8.7532 F   0  0  0  0  0  0  0  0  0  0  0  0
    2.2152   -0.5727   -8.2081 F   0  0  0  0  0  0  0  0  0  0  0  0
   -3.5308   -0.6630   -6.4633 H   0  0  0  0  0  0  0  0  0  0  0  0
  1  6  1  0  0  0  0
  1  2  1  0  0  0  0
  2  3  1  0  0  0  0
  3  4  2  0  0  0  0
  3 11  1  0  0  0  0
  4  9  1  0  0  0  0
  5 10  1  0  0  0  0
  5  4  1  0  0  0  0
  6  5  2  0  0  0  0
  7  1  1  0  0  0  0
 11 12  1  0  0  0  0
 13 14  1  6  0  0  0
 13 15  1  0  0  0  0
 13 17  1  0  0  0  0
 14 18  1  0  0  0  0
 15  8  1  0  0  0  0
 16  2  2  0  0  0  0
 19 14  1  0  0  0  0
 20 14  1  0  0  0  0
 21  6  1  0  0  0  0
M  RAD  4   1   2  11   2  12   3  17   2
M  END
