Coordinates from ORCA-job Ph-N2-H-OTf-B3LYPG-6-31G_dp-scan-d09-49-n400
 OpenBabel08281820563D

 21 20  0  0  0  0  0  0  0  0999 V2000
   -2.8920    0.9479   -5.7404 C   0  0  0  0  0  0  0  0  0  0  0  0
   -1.7189    1.6934   -5.2984 C   0  0  0  0  0  0  0  0  0  0  0  0
   -0.6612    0.7987   -4.7261 C   0  0  0  0  0  0  0  0  0  0  0  0
   -0.7640   -0.6298   -4.6518 C   0  0  0  0  0  0  0  0  0  0  0  0
   -1.9054   -1.2154   -5.1066 C   0  0  0  0  0  0  0  0  0  0  0  0
   -2.9693   -0.4096   -5.6448 C   0  0  0  0  0  0  0  0  0  0  0  0
   -3.7010    1.5400   -6.1555 H   0  0  0  0  0  0  0  0  0  0  0  0
    3.0415    1.9751   -5.1158 H   0  0  0  0  0  0  0  0  0  0  0  0
    0.0745   -1.1970   -4.2642 H   0  0  0  0  0  0  0  0  0  0  0  0
   -2.0162   -2.2938   -5.0715 H   0  0  0  0  0  0  0  0  0  0  0  0
    0.4035    1.4306   -4.2866 N   0  0  0  0  0  0  0  0  0  0  0  0
    1.2610    2.0981   -3.9548 N   0  0  0  0  0  0  0  0  0  0  0  0
    3.5747    0.0023   -5.9051 S   0  0  1  0  0  0  0  0  0  0  0  0
    2.5828    0.5313   -7.4266 C   0  0  0  0  0  0  0  0  0  0  0  0
    3.8771    1.5466   -5.4029 O   0  0  0  0  0  0  0  0  0  0  0  0
   -1.5769    2.9131   -5.3694 O   0  0  0  0  0  0  0  0  0  0  0  0
    2.5621   -0.6519   -5.0331 O   0  0  0  0  0  0  0  0  0  0  0  0
    1.5998    1.3760   -7.0813 F   0  0  0  0  0  0  0  0  0  0  0  0
    3.3952    1.1335   -8.2973 F   0  0  0  0  0  0  0  0  0  0  0  0
    2.0519   -0.5551   -7.9913 F   0  0  0  0  0  0  0  0  0  0  0  0
   -3.8677   -0.9129   -5.9934 H   0  0  0  0  0  0  0  0  0  0  0  0
  1  6  1  0  0  0  0
  1  2  1  0  0  0  0
  2  3  1  0  0  0  0
  3  4  2  0  0  0  0
  3 11  1  0  0  0  0
  4  9  1  0  0  0  0
  5 10  1  0  0  0  0
  5  4  1  0  0  0  0
  6  5  2  0  0  0  0
  7  1  1  0  0  0  0
 11 12  1  0  0  0  0
 13 14  1  6  0  0  0
 13 15  1  0  0  0  0
 13 17  1  0  0  0  0
 14 18  1  0  0  0  0
 15  8  1  0  0  0  0
 16  2  2  0  0  0  0
 19 14  1  0  0  0  0
 20 14  1  0  0  0  0
 21  6  1  0  0  0  0
M  RAD  4   1   2  11   2  12   3  17   2
M  END
