Coordinates from ORCA-job Ph-N2-H-OTf-B3LYPG-6-31G_dp-scan-d09-49-n400
 OpenBabel08281820563D

 21 20  0  0  0  0  0  0  0  0999 V2000
   -1.8893    0.8635   -6.1545 C   0  0  0  0  0  0  0  0  0  0  0  0
   -0.6987    1.2156   -5.4268 C   0  0  0  0  0  0  0  0  0  0  0  0
   -0.4731    0.3858   -4.2437 C   0  0  0  0  0  0  0  0  0  0  0  0
   -1.3153   -0.7012   -3.8592 C   0  0  0  0  0  0  0  0  0  0  0  0
   -2.4152   -0.9760   -4.6215 C   0  0  0  0  0  0  0  0  0  0  0  0
   -2.6945   -0.1767   -5.7708 C   0  0  0  0  0  0  0  0  0  0  0  0
   -2.1025    1.4573   -7.0367 H   0  0  0  0  0  0  0  0  0  0  0  0
    1.4339    2.1975   -5.7109 H   0  0  0  0  0  0  0  0  0  0  0  0
   -1.0651   -1.2808   -2.9772 H   0  0  0  0  0  0  0  0  0  0  0  0
   -3.0720   -1.7971   -4.3580 H   0  0  0  0  0  0  0  0  0  0  0  0
    0.5719    0.7002   -3.4699 N   0  0  0  0  0  0  0  0  0  0  0  0
    1.4408    1.0185   -2.8304 N   0  0  0  0  0  0  0  0  0  0  0  0
    3.1863    0.8286   -6.0645 S   0  0  1  0  0  0  0  0  0  0  0  0
    2.5952    0.7038   -7.8574 C   0  0  0  0  0  0  0  0  0  0  0  0
    2.4966    2.2369   -5.7084 O   0  0  0  0  0  0  0  0  0  0  0  0
    0.0545    2.1649   -5.7732 O   0  0  0  0  0  0  0  0  0  0  0  0
    2.4633   -0.2984   -5.3943 O   0  0  0  0  0  0  0  0  0  0  0  0
    1.2660    0.5650   -7.9431 F   0  0  0  0  0  0  0  0  0  0  0  0
    2.9678    1.7928   -8.5406 F   0  0  0  0  0  0  0  0  0  0  0  0
    3.1764   -0.3717   -8.4124 F   0  0  0  0  0  0  0  0  0  0  0  0
   -3.5754   -0.4076   -6.3635 H   0  0  0  0  0  0  0  0  0  0  0  0
  1  6  1  0  0  0  0
  1  2  1  0  0  0  0
  2  3  1  0  0  0  0
  3  4  2  0  0  0  0
  3 11  1  0  0  0  0
  4  9  1  0  0  0  0
  5 10  1  0  0  0  0
  5  4  1  0  0  0  0
  6  5  2  0  0  0  0
  7  1  1  0  0  0  0
  8 15  1  0  0  0  0
 11 12  1  0  0  0  0
 13 14  1  6  0  0  0
 13 15  1  0  0  0  0
 13 17  1  0  0  0  0
 16  2  2  0  0  0  0
 18 14  1  0  0  0  0
 19 14  1  0  0  0  0
 20 14  1  0  0  0  0
 21  6  1  0  0  0  0
M  RAD  4   1   2  11   2  12   3  17   2
M  END
