Coordinates from ORCA-job Ph-N2-H-OTf-B3LYPG-6-31G_dp-scan-d09-49-n400
 OpenBabel08281820563D

 21 20  0  0  0  0  0  0  0  0999 V2000
   -2.7193    0.9112   -5.9009 C   0  0  0  0  0  0  0  0  0  0  0  0
   -1.5483    1.6308   -5.4138 C   0  0  0  0  0  0  0  0  0  0  0  0
   -0.6122    0.7412   -4.6523 C   0  0  0  0  0  0  0  0  0  0  0  0
   -0.8088   -0.6661   -4.4651 C   0  0  0  0  0  0  0  0  0  0  0  0
   -1.9351   -1.2315   -4.9792 C   0  0  0  0  0  0  0  0  0  0  0  0
   -2.8903   -0.4247   -5.6915 C   0  0  0  0  0  0  0  0  0  0  0  0
   -3.4466    1.5034   -6.4466 H   0  0  0  0  0  0  0  0  0  0  0  0
    3.0290    1.9333   -5.0696 H   0  0  0  0  0  0  0  0  0  0  0  0
   -0.0508   -1.2397   -3.9439 H   0  0  0  0  0  0  0  0  0  0  0  0
   -2.1156   -2.2940   -4.8594 H   0  0  0  0  0  0  0  0  0  0  0  0
    0.4405    1.3605   -4.1695 N   0  0  0  0  0  0  0  0  0  0  0  0
    1.2925    2.0304   -3.8279 N   0  0  0  0  0  0  0  0  0  0  0  0
    3.4824    0.0135   -6.0185 S   0  0  1  0  0  0  0  0  0  0  0  0
    2.4336    0.6639   -7.4523 C   0  0  0  0  0  0  0  0  0  0  0  0
    3.8418    1.5146   -5.4279 O   0  0  0  0  0  0  0  0  0  0  0  0
   -1.3192    2.8269   -5.5855 O   0  0  0  0  0  0  0  0  0  0  0  0
    2.4982   -0.6785   -5.1434 O   0  0  0  0  0  0  0  0  0  0  0  0
    1.4873    1.5030   -7.0076 F   0  0  0  0  0  0  0  0  0  0  0  0
    3.2203    1.3058   -8.3187 F   0  0  0  0  0  0  0  0  0  0  0  0
    1.8539   -0.3726   -8.0620 F   0  0  0  0  0  0  0  0  0  0  0  0
   -3.7814   -0.9102   -6.0814 H   0  0  0  0  0  0  0  0  0  0  0  0
  1  6  1  0  0  0  0
  1  2  1  0  0  0  0
  2  3  1  0  0  0  0
  3  4  2  0  0  0  0
  3 11  1  0  0  0  0
  4  9  1  0  0  0  0
  5 10  1  0  0  0  0
  5  4  1  0  0  0  0
  6  5  2  0  0  0  0
  7  1  1  0  0  0  0
 11 12  1  0  0  0  0
 13 14  1  6  0  0  0
 13 15  1  0  0  0  0
 13 17  1  0  0  0  0
 14 18  1  0  0  0  0
 15  8  1  0  0  0  0
 16  2  2  0  0  0  0
 19 14  1  0  0  0  0
 20 14  1  0  0  0  0
 21  6  1  0  0  0  0
M  RAD  4   1   2  11   2  12   3  17   2
M  END
