Coordinates from ORCA-job Ph-N2-H-OTf-B3LYPG-6-31G_dp-scan-d09-49-n400
 OpenBabel08281820563D

 21 20  0  0  0  0  0  0  0  0999 V2000
   -2.1053    0.8616   -6.0950 C   0  0  0  0  0  0  0  0  0  0  0  0
   -1.0598    1.4055   -5.2387 C   0  0  0  0  0  0  0  0  0  0  0  0
   -0.6699    0.4581   -4.1582 C   0  0  0  0  0  0  0  0  0  0  0  0
   -1.2346   -0.8433   -3.9847 C   0  0  0  0  0  0  0  0  0  0  0  0
   -2.2059   -1.2536   -4.8496 C   0  0  0  0  0  0  0  0  0  0  0  0
   -2.6349   -0.3820   -5.9053 C   0  0  0  0  0  0  0  0  0  0  0  0
   -2.4407    1.5072   -6.9004 H   0  0  0  0  0  0  0  0  0  0  0  0
    2.7712    2.6122   -5.9928 H   0  0  0  0  0  0  0  0  0  0  0  0
   -0.8802   -1.4738   -3.1756 H   0  0  0  0  0  0  0  0  0  0  0  0
   -2.6539   -2.2351   -4.7444 H   0  0  0  0  0  0  0  0  0  0  0  0
    0.2673    0.9047   -3.3343 N   0  0  0  0  0  0  0  0  0  0  0  0
    1.0625    1.3973   -2.6993 N   0  0  0  0  0  0  0  0  0  0  0  0
    3.4128    0.5244   -6.1951 S   0  0  1  0  0  0  0  0  0  0  0  0
    2.3276    0.6481   -7.7410 C   0  0  0  0  0  0  0  0  0  0  0  0
    3.6337    2.1629   -6.0820 O   0  0  0  0  0  0  0  0  0  0  0  0
   -0.5451    2.5205   -5.3663 O   0  0  0  0  0  0  0  0  0  0  0  0
    2.4921    0.0241   -5.1440 O   0  0  0  0  0  0  0  0  0  0  0  0
    1.3587    1.5555   -7.5697 F   0  0  0  0  0  0  0  0  0  0  0  0
    3.0883    1.0049   -8.7812 F   0  0  0  0  0  0  0  0  0  0  0  0
    1.7814   -0.5455   -7.9811 F   0  0  0  0  0  0  0  0  0  0  0  0
   -3.4137   -0.7328   -6.5784 H   0  0  0  0  0  0  0  0  0  0  0  0
  1  6  1  0  0  0  0
  1  2  1  0  0  0  0
  2  3  1  0  0  0  0
  3  4  2  0  0  0  0
  3 11  1  0  0  0  0
  4  9  1  0  0  0  0
  5 10  1  0  0  0  0
  5  4  1  0  0  0  0
  6  5  2  0  0  0  0
  7  1  1  0  0  0  0
 11 12  1  0  0  0  0
 13 14  1  6  0  0  0
 13 15  1  0  0  0  0
 13 17  1  0  0  0  0
 14 18  1  0  0  0  0
 15  8  1  0  0  0  0
 16  2  2  0  0  0  0
 19 14  1  0  0  0  0
 20 14  1  0  0  0  0
 21  6  1  0  0  0  0
M  RAD  4   1   2  11   2  12   3  17   2
M  END
