Coordinates from ORCA-job Ph-N2-H-OTf-B3LYPG-6-31G_dp-scan-d09-49-n400
 OpenBabel08281820563D

 21 20  0  0  0  0  0  0  0  0999 V2000
   -1.8872    0.8652   -6.1553 C   0  0  0  0  0  0  0  0  0  0  0  0
   -0.6960    1.2159   -5.4286 C   0  0  0  0  0  0  0  0  0  0  0  0
   -0.4694    0.3855   -4.2466 C   0  0  0  0  0  0  0  0  0  0  0  0
   -1.3114   -0.7016   -3.8622 C   0  0  0  0  0  0  0  0  0  0  0  0
   -2.4120   -0.9757   -4.6238 C   0  0  0  0  0  0  0  0  0  0  0  0
   -2.6923   -0.1754   -5.7719 C   0  0  0  0  0  0  0  0  0  0  0  0
   -2.1010    1.4599   -7.0367 H   0  0  0  0  0  0  0  0  0  0  0  0
    1.4262    2.1964   -5.7107 H   0  0  0  0  0  0  0  0  0  0  0  0
   -1.0610   -1.2814   -2.9803 H   0  0  0  0  0  0  0  0  0  0  0  0
   -3.0689   -1.7967   -4.3601 H   0  0  0  0  0  0  0  0  0  0  0  0
    0.5740    0.7012   -3.4706 N   0  0  0  0  0  0  0  0  0  0  0  0
    1.4408    1.0202   -2.8288 N   0  0  0  0  0  0  0  0  0  0  0  0
    3.1835    0.8287   -6.0621 S   0  0  1  0  0  0  0  0  0  0  0  0
    2.5915    0.7022   -7.8546 C   0  0  0  0  0  0  0  0  0  0  0  0
    2.4924    2.2352   -5.7059 O   0  0  0  0  0  0  0  0  0  0  0  0
    0.0569    2.1660   -5.7754 O   0  0  0  0  0  0  0  0  0  0  0  0
    2.4619   -0.2992   -5.3914 O   0  0  0  0  0  0  0  0  0  0  0  0
    1.2621    0.5627   -7.9393 F   0  0  0  0  0  0  0  0  0  0  0  0
    2.9629    1.7909   -8.5391 F   0  0  0  0  0  0  0  0  0  0  0  0
    3.1726   -0.3735   -8.4095 F   0  0  0  0  0  0  0  0  0  0  0  0
   -3.5737   -0.4055   -6.3641 H   0  0  0  0  0  0  0  0  0  0  0  0
  1  6  1  0  0  0  0
  1  2  1  0  0  0  0
  2  3  1  0  0  0  0
  3  4  2  0  0  0  0
  3 11  1  0  0  0  0
  4  9  1  0  0  0  0
  5 10  1  0  0  0  0
  5  4  1  0  0  0  0
  6  5  2  0  0  0  0
  7  1  1  0  0  0  0
  8 15  1  0  0  0  0
 11 12  1  0  0  0  0
 13 14  1  6  0  0  0
 13 15  1  0  0  0  0
 13 17  1  0  0  0  0
 16  2  2  0  0  0  0
 18 14  1  0  0  0  0
 19 14  1  0  0  0  0
 20 14  1  0  0  0  0
 21  6  1  0  0  0  0
M  RAD  4   1   2  11   2  12   3  17   2
M  END
