Coordinates from ORCA-job Ph-N2-H-OTf-B3LYPG-6-31G_dp-scan-d09-49-n400
 OpenBabel08281820563D

 21 20  0  0  0  0  0  0  0  0999 V2000
   -1.8932    0.8580   -6.1515 C   0  0  0  0  0  0  0  0  0  0  0  0
   -0.7064    1.2159   -5.4161 C   0  0  0  0  0  0  0  0  0  0  0  0
   -0.4851    0.3817   -4.2316 C   0  0  0  0  0  0  0  0  0  0  0  0
   -1.3268   -0.7084   -3.8534 C   0  0  0  0  0  0  0  0  0  0  0  0
   -2.4207   -0.9854   -4.6226 C   0  0  0  0  0  0  0  0  0  0  0  0
   -2.6958   -0.1854   -5.7737 C   0  0  0  0  0  0  0  0  0  0  0  0
   -2.1043    1.4522   -7.0339 H   0  0  0  0  0  0  0  0  0  0  0  0
    1.4954    2.2189   -5.7137 H   0  0  0  0  0  0  0  0  0  0  0  0
   -1.0809   -1.2880   -2.9701 H   0  0  0  0  0  0  0  0  0  0  0  0
   -3.0772   -1.8084   -4.3640 H   0  0  0  0  0  0  0  0  0  0  0  0
    0.5555    0.6994   -3.4559 N   0  0  0  0  0  0  0  0  0  0  0  0
    1.4250    1.0246   -2.8194 N   0  0  0  0  0  0  0  0  0  0  0  0
    3.2032    0.8300   -6.0809 S   0  0  1  0  0  0  0  0  0  0  0  0
    2.5920    0.7044   -7.8668 C   0  0  0  0  0  0  0  0  0  0  0  0
    2.5362    2.2579   -5.7304 O   0  0  0  0  0  0  0  0  0  0  0  0
    0.0456    2.1653   -5.7522 O   0  0  0  0  0  0  0  0  0  0  0  0
    2.4716   -0.2788   -5.3934 O   0  0  0  0  0  0  0  0  0  0  0  0
    1.2605    0.5924   -7.9391 F   0  0  0  0  0  0  0  0  0  0  0  0
    2.9821    1.7807   -8.5597 F   0  0  0  0  0  0  0  0  0  0  0  0
    3.1476   -0.3868   -8.4169 F   0  0  0  0  0  0  0  0  0  0  0  0
   -3.5725   -0.4194   -6.3716 H   0  0  0  0  0  0  0  0  0  0  0  0
  1  6  1  0  0  0  0
  1  2  1  0  0  0  0
  2  3  1  0  0  0  0
  3  4  2  0  0  0  0
  3 11  1  0  0  0  0
  4  9  1  0  0  0  0
  5 10  1  0  0  0  0
  5  4  1  0  0  0  0
  6  5  2  0  0  0  0
  7  1  1  0  0  0  0
 11 12  1  0  0  0  0
 13 14  1  6  0  0  0
 13 15  1  0  0  0  0
 13 17  1  0  0  0  0
 15  8  1  0  0  0  0
 16  2  2  0  0  0  0
 18 14  1  0  0  0  0
 19 14  1  0  0  0  0
 20 14  1  0  0  0  0
 21  6  1  0  0  0  0
M  RAD  4   1   2  11   2  12   3  17   2
M  END
