Coordinates from ORCA-job Ph-N2-H-OTf-B3LYPG-6-31G_dp-scan-d09-49-n400
 OpenBabel08281820563D

 21 20  0  0  0  0  0  0  0  0999 V2000
   -1.9044    0.8548   -6.1451 C   0  0  0  0  0  0  0  0  0  0  0  0
   -0.7208    1.2197   -5.4041 C   0  0  0  0  0  0  0  0  0  0  0  0
   -0.4989    0.3797   -4.2206 C   0  0  0  0  0  0  0  0  0  0  0  0
   -1.3356   -0.7173   -3.8498 C   0  0  0  0  0  0  0  0  0  0  0  0
   -2.4244   -0.9980   -4.6242 C   0  0  0  0  0  0  0  0  0  0  0  0
   -2.7006   -0.1951   -5.7739 C   0  0  0  0  0  0  0  0  0  0  0  0
   -2.1171    1.4510   -7.0259 H   0  0  0  0  0  0  0  0  0  0  0  0
    1.5564    2.2440   -5.7192 H   0  0  0  0  0  0  0  0  0  0  0  0
   -1.0895   -1.2991   -2.9679 H   0  0  0  0  0  0  0  0  0  0  0  0
   -3.0768   -1.8261   -4.3715 H   0  0  0  0  0  0  0  0  0  0  0  0
    0.5386    0.7008   -3.4446 N   0  0  0  0  0  0  0  0  0  0  0  0
    1.4092    1.0329   -2.8121 N   0  0  0  0  0  0  0  0  0  0  0  0
    3.2209    0.8289   -6.0952 S   0  0  1  0  0  0  0  0  0  0  0  0
    2.5948    0.7038   -7.8756 C   0  0  0  0  0  0  0  0  0  0  0  0
    2.5797    2.2772   -5.7539 O   0  0  0  0  0  0  0  0  0  0  0  0
    0.0266    2.1722   -5.7304 O   0  0  0  0  0  0  0  0  0  0  0  0
    2.4762   -0.2595   -5.3925 O   0  0  0  0  0  0  0  0  0  0  0  0
    1.2610    0.6338   -7.9391 F   0  0  0  0  0  0  0  0  0  0  0  0
    3.0162    1.7603   -8.5800 F   0  0  0  0  0  0  0  0  0  0  0  0
    3.1139   -0.4098   -8.4159 F   0  0  0  0  0  0  0  0  0  0  0  0
   -3.5737   -0.4330   -6.3756 H   0  0  0  0  0  0  0  0  0  0  0  0
  1  6  1  0  0  0  0
  1  2  1  0  0  0  0
  2  3  1  0  0  0  0
  3  4  2  0  0  0  0
  3 11  1  0  0  0  0
  4  9  1  0  0  0  0
  5 10  1  0  0  0  0
  5  4  1  0  0  0  0
  6  5  2  0  0  0  0
  7  1  1  0  0  0  0
 11 12  1  0  0  0  0
 13 14  1  6  0  0  0
 13 15  1  0  0  0  0
 13 17  1  0  0  0  0
 15  8  1  0  0  0  0
 16  2  2  0  0  0  0
 18 14  1  0  0  0  0
 19 14  1  0  0  0  0
 20 14  1  0  0  0  0
 21  6  1  0  0  0  0
M  RAD  4   1   2  11   2  12   3  17   2
M  END
