Coordinates from ORCA-job Ph-N2-H-OTf-B3LYPG-6-31G_dp-scan-d09-49-n400
 OpenBabel08281820563D

 21 20  0  0  0  0  0  0  0  0999 V2000
   -1.9859    0.8580   -6.1031 C   0  0  0  0  0  0  0  0  0  0  0  0
   -0.8515    1.2934   -5.3083 C   0  0  0  0  0  0  0  0  0  0  0  0
   -0.5826    0.3931   -4.1633 C   0  0  0  0  0  0  0  0  0  0  0  0
   -1.3289   -0.7925   -3.8799 C   0  0  0  0  0  0  0  0  0  0  0  0
   -2.3701   -1.1188   -4.6985 C   0  0  0  0  0  0  0  0  0  0  0  0
   -2.6905   -0.2757   -5.8118 C   0  0  0  0  0  0  0  0  0  0  0  0
   -2.2366    1.4836   -6.9535 H   0  0  0  0  0  0  0  0  0  0  0  0
    2.0218    2.4686   -5.7958 H   0  0  0  0  0  0  0  0  0  0  0  0
   -1.0530   -1.4041   -3.0272 H   0  0  0  0  0  0  0  0  0  0  0  0
   -2.9537   -2.0133   -4.5123 H   0  0  0  0  0  0  0  0  0  0  0  0
    0.4171    0.7581   -3.3682 N   0  0  0  0  0  0  0  0  0  0  0  0
    1.2674    1.1578   -2.7422 N   0  0  0  0  0  0  0  0  0  0  0  0
    3.3342    0.7581   -6.1690 S   0  0  1  0  0  0  0  0  0  0  0  0
    2.5318    0.6661   -7.8788 C   0  0  0  0  0  0  0  0  0  0  0  0
    2.9881    2.3481   -5.9182 O   0  0  0  0  0  0  0  0  0  0  0  0
   -0.1815    2.3121   -5.5422 O   0  0  0  0  0  0  0  0  0  0  0  0
    2.4808   -0.1159   -5.3198 O   0  0  0  0  0  0  0  0  0  0  0  0
    1.2522    1.0444   -7.8492 F   0  0  0  0  0  0  0  0  0  0  0  0
    3.2095    1.4547   -8.7202 F   0  0  0  0  0  0  0  0  0  0  0  0
    2.6099   -0.5997   -8.3080 F   0  0  0  0  0  0  0  0  0  0  0  0
   -3.5268   -0.5552   -6.4477 H   0  0  0  0  0  0  0  0  0  0  0  0
  1  6  1  0  0  0  0
  1  2  1  0  0  0  0
  2  3  1  0  0  0  0
  3  4  2  0  0  0  0
  3 11  1  0  0  0  0
  4  9  1  0  0  0  0
  5 10  1  0  0  0  0
  5  4  1  0  0  0  0
  6  5  2  0  0  0  0
  7  1  1  0  0  0  0
 11 12  1  0  0  0  0
 13 14  1  6  0  0  0
 13 15  1  0  0  0  0
 13 17  1  0  0  0  0
 14 18  1  0  0  0  0
 15  8  1  0  0  0  0
 16  2  2  0  0  0  0
 19 14  1  0  0  0  0
 20 14  1  0  0  0  0
 21  6  1  0  0  0  0
M  RAD  4   1   2  11   2  12   3  17   2
M  END
