Coordinates from ORCA-job Ph-N2-H-OTf-B3LYPG-6-31G_dp-scan-d09-49-n400
 OpenBabel08281820563D

 21 20  0  0  0  0  0  0  0  0999 V2000
   -2.6075    0.8937   -5.9768 C   0  0  0  0  0  0  0  0  0  0  0  0
   -1.4359    1.5869   -5.4554 C   0  0  0  0  0  0  0  0  0  0  0  0
   -0.5860    0.6975   -4.5979 C   0  0  0  0  0  0  0  0  0  0  0  0
   -0.8499   -0.6903   -4.3640 C   0  0  0  0  0  0  0  0  0  0  0  0
   -1.9678   -1.2344   -4.9185 C   0  0  0  0  0  0  0  0  0  0  0  0
   -2.8462   -0.4235   -5.7191 C   0  0  0  0  0  0  0  0  0  0  0  0
   -3.2770    1.4881   -6.5898 H   0  0  0  0  0  0  0  0  0  0  0  0
    2.9694    1.9438   -5.0904 H   0  0  0  0  0  0  0  0  0  0  0  0
   -0.1502   -1.2695   -3.7720 H   0  0  0  0  0  0  0  0  0  0  0  0
   -2.1994   -2.2822   -4.7638 H   0  0  0  0  0  0  0  0  0  0  0  0
    0.4585    1.3059   -4.0837 N   0  0  0  0  0  0  0  0  0  0  0  0
    1.2988    1.9890   -3.7383 N   0  0  0  0  0  0  0  0  0  0  0  0
    3.4443    0.0478   -6.0738 S   0  0  1  0  0  0  0  0  0  0  0  0
    2.3651    0.7192   -7.4750 C   0  0  0  0  0  0  0  0  0  0  0  0
    3.7882    1.5406   -5.4527 O   0  0  0  0  0  0  0  0  0  0  0  0
   -1.1381    2.7603   -5.6737 O   0  0  0  0  0  0  0  0  0  0  0  0
    2.4839   -0.6805   -5.2018 O   0  0  0  0  0  0  0  0  0  0  0  0
    1.4290    1.5501   -6.9956 F   0  0  0  0  0  0  0  0  0  0  0  0
    3.1335    1.3759   -8.3471 F   0  0  0  0  0  0  0  0  0  0  0  0
    1.7728   -0.3071   -8.0897 F   0  0  0  0  0  0  0  0  0  0  0  0
   -3.7338   -0.8904   -6.1383 H   0  0  0  0  0  0  0  0  0  0  0  0
  1  6  1  0  0  0  0
  1  2  1  0  0  0  0
  2  3  1  0  0  0  0
  3  4  2  0  0  0  0
  3 11  1  0  0  0  0
  4  9  1  0  0  0  0
  5 10  1  0  0  0  0
  5  4  1  0  0  0  0
  6  5  2  0  0  0  0
  7  1  1  0  0  0  0
 11 12  1  0  0  0  0
 13 14  1  6  0  0  0
 13 15  1  0  0  0  0
 13 17  1  0  0  0  0
 14 18  1  0  0  0  0
 15  8  1  0  0  0  0
 16  2  2  0  0  0  0
 19 14  1  0  0  0  0
 20 14  1  0  0  0  0
 21  6  1  0  0  0  0
M  RAD  4   1   2  11   2  12   3  17   2
M  END
