Coordinates from ORCA-job Ph-N2-H-OTf-B3LYPG-6-31G_dp-scan-d09-49-n400
 OpenBabel08281820563D

 21 20  0  0  0  0  0  0  0  0999 V2000
   -1.9487    0.8553   -6.1164 C   0  0  0  0  0  0  0  0  0  0  0  0
   -0.7873    1.2529   -5.3467 C   0  0  0  0  0  0  0  0  0  0  0  0
   -0.5478    0.3778   -4.1820 C   0  0  0  0  0  0  0  0  0  0  0  0
   -1.3455   -0.7629   -3.8575 C   0  0  0  0  0  0  0  0  0  0  0  0
   -2.4106   -1.0624   -4.6560 C   0  0  0  0  0  0  0  0  0  0  0  0
   -2.7039   -0.2359   -5.7874 C   0  0  0  0  0  0  0  0  0  0  0  0
   -2.1773    1.4689   -6.9814 H   0  0  0  0  0  0  0  0  0  0  0  0
    1.7977    2.3723   -5.7650 H   0  0  0  0  0  0  0  0  0  0  0  0
   -1.0891   -1.3621   -2.9901 H   0  0  0  0  0  0  0  0  0  0  0  0
   -3.0333   -1.9228   -4.4383 H   0  0  0  0  0  0  0  0  0  0  0  0
    0.4706    0.7173   -3.3956 N   0  0  0  0  0  0  0  0  0  0  0  0
    1.3342    1.0810   -2.7677 N   0  0  0  0  0  0  0  0  0  0  0  0
    3.2883    0.8124   -6.1432 S   0  0  1  0  0  0  0  0  0  0  0  0
    2.5800    0.6838   -7.8918 C   0  0  0  0  0  0  0  0  0  0  0  0
    2.7834    2.3442   -5.8589 O   0  0  0  0  0  0  0  0  0  0  0  0
   -0.0745    2.2366   -5.6224 O   0  0  0  0  0  0  0  0  0  0  0  0
    2.4850   -0.1679   -5.3596 O   0  0  0  0  0  0  0  0  0  0  0  0
    1.2567    0.8589   -7.9133 F   0  0  0  0  0  0  0  0  0  0  0  0
    3.1625    1.6014   -8.6715 F   0  0  0  0  0  0  0  0  0  0  0  0
    2.8704   -0.5362   -8.3646 F   0  0  0  0  0  0  0  0  0  0  0  0
   -3.5592   -0.4917   -6.4075 H   0  0  0  0  0  0  0  0  0  0  0  0
  1  6  1  0  0  0  0
  1  2  1  0  0  0  0
  2  3  1  0  0  0  0
  3  4  2  0  0  0  0
  3 11  1  0  0  0  0
  4  9  1  0  0  0  0
  5 10  1  0  0  0  0
  5  4  1  0  0  0  0
  6  5  2  0  0  0  0
  7  1  1  0  0  0  0
 11 12  1  0  0  0  0
 13 14  1  6  0  0  0
 13 15  1  0  0  0  0
 13 17  1  0  0  0  0
 15  8  1  0  0  0  0
 16  2  2  0  0  0  0
 18 14  1  0  0  0  0
 19 14  1  0  0  0  0
 20 14  1  0  0  0  0
 21  6  1  0  0  0  0
M  RAD  4   1   2  11   2  12   3  17   2
M  END
