Coordinates from ORCA-job Ph-N2-H-OTf-B3LYPG-6-31G_dp-scan-d09-49-n400
 OpenBabel08281820563D

 21 20  0  0  0  0  0  0  0  0999 V2000
   -2.0895    0.8585   -6.0835 C   0  0  0  0  0  0  0  0  0  0  0  0
   -1.0200    1.3753   -5.2410 C   0  0  0  0  0  0  0  0  0  0  0  0
   -0.6627    0.4336   -4.1457 C   0  0  0  0  0  0  0  0  0  0  0  0
   -1.2754   -0.8424   -3.9484 C   0  0  0  0  0  0  0  0  0  0  0  0
   -2.2651   -1.2302   -4.8027 C   0  0  0  0  0  0  0  0  0  0  0  0
   -2.6653   -0.3608   -5.8713 C   0  0  0  0  0  0  0  0  0  0  0  0
   -2.4027    1.5029   -6.8988 H   0  0  0  0  0  0  0  0  0  0  0  0
    2.6100    2.6221   -5.9855 H   0  0  0  0  0  0  0  0  0  0  0  0
   -0.9423   -1.4722   -3.1297 H   0  0  0  0  0  0  0  0  0  0  0  0
   -2.7491   -2.1923   -4.6798 H   0  0  0  0  0  0  0  0  0  0  0  0
    0.2924    0.8581   -3.3300 N   0  0  0  0  0  0  0  0  0  0  0  0
    1.1035    1.3294   -2.6994 N   0  0  0  0  0  0  0  0  0  0  0  0
    3.4101    0.5899   -6.1896 S   0  0  1  0  0  0  0  0  0  0  0  0
    2.4118    0.6507   -7.7959 C   0  0  0  0  0  0  0  0  0  0  0  0
    3.5054    2.2370   -6.0483 O   0  0  0  0  0  0  0  0  0  0  0  0
   -0.4648    2.4690   -5.3905 O   0  0  0  0  0  0  0  0  0  0  0  0
    2.4682    0.0100   -5.1994 O   0  0  0  0  0  0  0  0  0  0  0  0
    1.3565    1.4635   -7.6726 F   0  0  0  0  0  0  0  0  0  0  0  0
    3.1986    1.0939   -8.7821 F   0  0  0  0  0  0  0  0  0  0  0  0
    1.9916   -0.5826   -8.0872 F   0  0  0  0  0  0  0  0  0  0  0  0
   -3.4595   -0.6927   -6.5357 H   0  0  0  0  0  0  0  0  0  0  0  0
  1  6  1  0  0  0  0
  1  2  1  0  0  0  0
  2  3  1  0  0  0  0
  3  4  2  0  0  0  0
  3 11  1  0  0  0  0
  4  9  1  0  0  0  0
  5 10  1  0  0  0  0
  5  4  1  0  0  0  0
  6  5  2  0  0  0  0
  7  1  1  0  0  0  0
 11 12  1  0  0  0  0
 13 14  1  6  0  0  0
 13 15  1  0  0  0  0
 13 17  1  0  0  0  0
 14 18  1  0  0  0  0
 15  8  1  0  0  0  0
 16  2  2  0  0  0  0
 19 14  1  0  0  0  0
 20 14  1  0  0  0  0
 21  6  1  0  0  0  0
M  RAD  4   1   2  11   2  12   3  17   2
M  END
