Coordinates from ORCA-job Ph-N2-H-OTf-B3LYPG-6-31G_dp-scan-d09-49-n400
 OpenBabel08281820563D

 21 20  0  0  0  0  0  0  0  0999 V2000
   -2.9511    0.9485   -5.6891 C   0  0  0  0  0  0  0  0  0  0  0  0
   -1.7804    1.7084   -5.2647 C   0  0  0  0  0  0  0  0  0  0  0  0
   -0.6853    0.8229   -4.7520 C   0  0  0  0  0  0  0  0  0  0  0  0
   -0.7585   -0.6092   -4.7061 C   0  0  0  0  0  0  0  0  0  0  0  0
   -1.9020   -1.2077   -5.1383 C   0  0  0  0  0  0  0  0  0  0  0  0
   -2.9981   -0.4121   -5.6246 C   0  0  0  0  0  0  0  0  0  0  0  0
   -3.7845    1.5334   -6.0642 H   0  0  0  0  0  0  0  0  0  0  0  0
    3.0713    1.9744   -5.1300 H   0  0  0  0  0  0  0  0  0  0  0  0
    0.1023   -1.1672   -4.3557 H   0  0  0  0  0  0  0  0  0  0  0  0
   -1.9902   -2.2886   -5.1241 H   0  0  0  0  0  0  0  0  0  0  0  0
    0.3844    1.4606   -4.3324 N   0  0  0  0  0  0  0  0  0  0  0  0
    1.2503    2.1203   -4.0080 N   0  0  0  0  0  0  0  0  0  0  0  0
    3.6028   -0.0151   -5.8764 S   0  0  1  0  0  0  0  0  0  0  0  0
    2.6397    0.5026   -7.4201 C   0  0  0  0  0  0  0  0  0  0  0  0
    3.9091    1.5330   -5.3882 O   0  0  0  0  0  0  0  0  0  0  0  0
   -1.6695    2.9325   -5.3067 O   0  0  0  0  0  0  0  0  0  0  0  0
    2.5708   -0.6503   -5.0134 O   0  0  0  0  0  0  0  0  0  0  0  0
    1.6574    1.3584   -7.1004 F   0  0  0  0  0  0  0  0  0  0  0  0
    3.4701    1.0886   -8.2848 F   0  0  0  0  0  0  0  0  0  0  0  0
    2.1097   -0.5866   -7.9802 F   0  0  0  0  0  0  0  0  0  0  0  0
   -3.8966   -0.9258   -5.9576 H   0  0  0  0  0  0  0  0  0  0  0  0
  1  6  1  0  0  0  0
  1  2  1  0  0  0  0
  2  3  1  0  0  0  0
  3  4  2  0  0  0  0
  3 11  1  0  0  0  0
  4  9  1  0  0  0  0
  5 10  1  0  0  0  0
  5  4  1  0  0  0  0
  6  5  2  0  0  0  0
  7  1  1  0  0  0  0
 11 12  1  0  0  0  0
 13 14  1  6  0  0  0
 13 15  1  0  0  0  0
 13 17  1  0  0  0  0
 14 18  1  0  0  0  0
 15  8  1  0  0  0  0
 16  2  2  0  0  0  0
 19 14  1  0  0  0  0
 20 14  1  0  0  0  0
 21  6  1  0  0  0  0
M  RAD  4   1   2  11   2  12   3  17   2
M  END
