Coordinates from ORCA-job Ph-N2-H-OTf-B3LYPG-6-31G_dp-scan-d09-49-n400
 OpenBabel08281820563D

 21 20  0  0  0  0  0  0  0  0999 V2000
   -1.9056    0.9107   -6.1571 C   0  0  0  0  0  0  0  0  0  0  0  0
   -0.6966    1.2395   -5.4752 C   0  0  0  0  0  0  0  0  0  0  0  0
   -0.4167    0.4083   -4.3231 C   0  0  0  0  0  0  0  0  0  0  0  0
   -1.2332   -0.6888   -3.9245 C   0  0  0  0  0  0  0  0  0  0  0  0
   -2.3656   -0.9582   -4.6451 C   0  0  0  0  0  0  0  0  0  0  0  0
   -2.6972   -0.1408   -5.7598 C   0  0  0  0  0  0  0  0  0  0  0  0
   -2.1529    1.5190   -7.0200 H   0  0  0  0  0  0  0  0  0  0  0  0
    1.1775    2.1645   -5.7121 H   0  0  0  0  0  0  0  0  0  0  0  0
   -0.9418   -1.2814   -3.0644 H   0  0  0  0  0  0  0  0  0  0  0  0
   -3.0044   -1.7889   -4.3679 H   0  0  0  0  0  0  0  0  0  0  0  0
    0.6414    0.7242   -3.5517 N   0  0  0  0  0  0  0  0  0  0  0  0
    1.4938    1.0321   -2.8920 N   0  0  0  0  0  0  0  0  0  0  0  0
    3.1382    0.7900   -5.9762 S   0  0  0  0  0  0  0  0  0  0  0  0
    2.6019    0.6757   -7.7877 C   0  0  0  0  0  0  0  0  0  0  0  0
    2.3977    2.1335   -5.6007 O   0  0  0  0  0  0  0  0  0  0  0  0
    0.0375    2.2157   -5.8599 O   0  0  0  0  0  0  0  0  0  0  0  0
    2.4337   -0.3899   -5.3620 O   0  0  0  0  0  0  0  0  0  0  0  0
    1.2717    0.5211   -7.9101 F   0  0  0  0  0  0  0  0  0  0  0  0
    2.9695    1.7789   -8.4547 F   0  0  0  0  0  0  0  0  0  0  0  0
    3.2043   -0.3839   -8.3524 F   0  0  0  0  0  0  0  0  0  0  0  0
   -3.6013   -0.3603   -6.3203 H   0  0  0  0  0  0  0  0  0  0  0  0
  1  6  2  0  0  0  0
  1  2  1  0  0  0  0
  2  3  2  0  0  0  0
  3  4  1  0  0  0  0
  3 11  1  0  0  0  0
  4  9  1  0  0  0  0
  5 10  1  0  0  0  0
  5  4  2  0  0  0  0
  6  5  1  0  0  0  0
  7  1  1  0  0  0  0
 11 12  1  0  0  0  0
 13 15  1  0  0  0  0
 13 17  1  0  0  0  0
 14 13  1  0  0  0  0
 16  8  1  0  0  0  0
 16  2  1  0  0  0  0
 18 14  1  0  0  0  0
 19 14  1  0  0  0  0
 20 14  1  0  0  0  0
 21  6  1  0  0  0  0
M  RAD  4  11   2  12   3  15   2  17   2
M  END
