Coordinates from ORCA-job Ph-N2-H-OTf-B3LYPG-6-31G_dp-scan-d09-49-n400
 OpenBabel08281820563D

 21 20  0  0  0  0  0  0  0  0999 V2000
   -2.1238    0.8655   -6.1007 C   0  0  0  0  0  0  0  0  0  0  0  0
   -1.0940    1.4289   -5.2374 C   0  0  0  0  0  0  0  0  0  0  0  0
   -0.6745    0.4779   -4.1705 C   0  0  0  0  0  0  0  0  0  0  0  0
   -1.2004   -0.8419   -4.0145 C   0  0  0  0  0  0  0  0  0  0  0  0
   -2.1603   -1.2686   -4.8839 C   0  0  0  0  0  0  0  0  0  0  0  0
   -2.6162   -0.3956   -5.9274 C   0  0  0  0  0  0  0  0  0  0  0  0
   -2.4795    1.5118   -6.8968 H   0  0  0  0  0  0  0  0  0  0  0  0
    2.8853    2.5941   -5.9960 H   0  0  0  0  0  0  0  0  0  0  0  0
   -0.8261   -1.4728   -3.2147 H   0  0  0  0  0  0  0  0  0  0  0  0
   -2.5795   -2.2641   -4.7916 H   0  0  0  0  0  0  0  0  0  0  0  0
    0.2515    0.9405   -3.3429 N   0  0  0  0  0  0  0  0  0  0  0  0
    1.0351    1.4483   -2.7054 N   0  0  0  0  0  0  0  0  0  0  0  0
    3.4101    0.4739   -6.1961 S   0  0  1  0  0  0  0  0  0  0  0  0
    2.2721    0.6468   -7.6990 C   0  0  0  0  0  0  0  0  0  0  0  0
    3.7203    2.0997   -6.1059 O   0  0  0  0  0  0  0  0  0  0  0  0
   -0.6120    2.5595   -5.3498 O   0  0  0  0  0  0  0  0  0  0  0  0
    2.5065    0.0301   -5.1057 O   0  0  0  0  0  0  0  0  0  0  0  0
    1.3661    1.6119   -7.4983 F   0  0  0  0  0  0  0  0  0  0  0  0
    3.0089    0.9492   -8.7729 F   0  0  0  0  0  0  0  0  0  0  0  0
    1.6470   -0.5138   -7.9030 F   0  0  0  0  0  0  0  0  0  0  0  0
   -3.3850   -0.7603   -6.6046 H   0  0  0  0  0  0  0  0  0  0  0  0
  1  6  1  0  0  0  0
  1  2  1  0  0  0  0
  2  3  1  0  0  0  0
  3  4  2  0  0  0  0
  3 11  1  0  0  0  0
  4  9  1  0  0  0  0
  5 10  1  0  0  0  0
  5  4  1  0  0  0  0
  6  5  2  0  0  0  0
  7  1  1  0  0  0  0
 11 12  1  0  0  0  0
 13 14  1  6  0  0  0
 13 15  1  0  0  0  0
 13 17  1  0  0  0  0
 14 18  1  0  0  0  0
 15  8  1  0  0  0  0
 16  2  2  0  0  0  0
 19 14  1  0  0  0  0
 20 14  1  0  0  0  0
 21  6  1  0  0  0  0
M  RAD  4   1   2  11   2  12   3  17   2
M  END
