Coordinates from ORCA-job Ph-N2-H-OTf-B3LYPG-6-31G_dp-scan-d09-49-n400
 OpenBabel08281820563D

 21 20  0  0  0  0  0  0  0  0999 V2000
   -2.0758    0.8609   -6.0861 C   0  0  0  0  0  0  0  0  0  0  0  0
   -0.9963    1.3660   -5.2502 C   0  0  0  0  0  0  0  0  0  0  0  0
   -0.6490    0.4258   -4.1514 C   0  0  0  0  0  0  0  0  0  0  0  0
   -1.2776   -0.8413   -3.9463 C   0  0  0  0  0  0  0  0  0  0  0  0
   -2.2748   -1.2199   -4.7960 C   0  0  0  0  0  0  0  0  0  0  0  0
   -2.6673   -0.3498   -5.8665 C   0  0  0  0  0  0  0  0  0  0  0  0
   -2.3832    1.5058   -6.9031 H   0  0  0  0  0  0  0  0  0  0  0  0
    2.5216    2.6132   -5.9713 H   0  0  0  0  0  0  0  0  0  0  0  0
   -0.9503   -1.4714   -3.1256 H   0  0  0  0  0  0  0  0  0  0  0  0
   -2.7708   -2.1751   -4.6674 H   0  0  0  0  0  0  0  0  0  0  0  0
    0.3108    0.8431   -3.3371 N   0  0  0  0  0  0  0  0  0  0  0  0
    1.1263    1.3066   -2.7067 N   0  0  0  0  0  0  0  0  0  0  0  0
    3.4076    0.6192   -6.1833 S   0  0  1  0  0  0  0  0  0  0  0  0
    2.4214    0.6494   -7.7989 C   0  0  0  0  0  0  0  0  0  0  0  0
    3.4332    2.2669   -6.0296 O   0  0  0  0  0  0  0  0  0  0  0  0
   -0.4260    2.4514   -5.4079 O   0  0  0  0  0  0  0  0  0  0  0  0
    2.4832   -0.0062   -5.2041 O   0  0  0  0  0  0  0  0  0  0  0  0
    1.3547    1.4498   -7.6957 F   0  0  0  0  0  0  0  0  0  0  0  0
    3.2122    1.0924   -8.7823 F   0  0  0  0  0  0  0  0  0  0  0  0
    2.0199   -0.5922   -8.0809 F   0  0  0  0  0  0  0  0  0  0  0  0
   -3.4683   -0.6737   -6.5267 H   0  0  0  0  0  0  0  0  0  0  0  0
  1  6  1  0  0  0  0
  1  2  1  0  0  0  0
  2  3  1  0  0  0  0
  3  4  2  0  0  0  0
  3 11  1  0  0  0  0
  4  9  1  0  0  0  0
  5 10  1  0  0  0  0
  5  4  1  0  0  0  0
  6  5  2  0  0  0  0
  7  1  1  0  0  0  0
 11 12  1  0  0  0  0
 13 14  1  6  0  0  0
 13 15  1  0  0  0  0
 13 17  1  0  0  0  0
 14 18  1  0  0  0  0
 15  8  1  0  0  0  0
 16  2  2  0  0  0  0
 19 14  1  0  0  0  0
 20 14  1  0  0  0  0
 21  6  1  0  0  0  0
M  RAD  4   1   2  11   2  12   3  17   2
M  END
