Coordinates from ORCA-job Ph-N2-H-OTf-B3LYPG-6-31G_dp-scan-d09-49-n400
 OpenBabel08281820563D

 21 20  0  0  0  0  0  0  0  0999 V2000
   -2.1406    0.8616   -6.0999 C   0  0  0  0  0  0  0  0  0  0  0  0
   -1.1190    1.4375   -5.2347 C   0  0  0  0  0  0  0  0  0  0  0  0
   -0.6842    0.4883   -4.1718 C   0  0  0  0  0  0  0  0  0  0  0  0
   -1.1915   -0.8393   -4.0197 C   0  0  0  0  0  0  0  0  0  0  0  0
   -2.1461   -1.2765   -4.8897 C   0  0  0  0  0  0  0  0  0  0  0  0
   -2.6148   -0.4068   -5.9304 C   0  0  0  0  0  0  0  0  0  0  0  0
   -2.5058    1.5053   -6.8938 H   0  0  0  0  0  0  0  0  0  0  0  0
    2.9644    2.5796   -5.9937 H   0  0  0  0  0  0  0  0  0  0  0  0
   -0.8075   -1.4675   -3.2224 H   0  0  0  0  0  0  0  0  0  0  0  0
   -2.5516   -2.2779   -4.8000 H   0  0  0  0  0  0  0  0  0  0  0  0
    0.2381    0.9602   -3.3456 N   0  0  0  0  0  0  0  0  0  0  0  0
    1.0176    1.4766   -2.7098 N   0  0  0  0  0  0  0  0  0  0  0  0
    3.4060    0.4411   -6.2004 S   0  0  1  0  0  0  0  0  0  0  0  0
    2.2613    0.6546   -7.6921 C   0  0  0  0  0  0  0  0  0  0  0  0
    3.7789    2.0546   -6.1163 O   0  0  0  0  0  0  0  0  0  0  0  0
   -0.6545    2.5756   -5.3428 O   0  0  0  0  0  0  0  0  0  0  0  0
    2.4960    0.0359   -5.1006 O   0  0  0  0  0  0  0  0  0  0  0  0
    1.3749    1.6329   -7.4708 F   0  0  0  0  0  0  0  0  0  0  0  0
    2.9948    0.9575   -8.7681 F   0  0  0  0  0  0  0  0  0  0  0  0
    1.6139   -0.4921   -7.9060 F   0  0  0  0  0  0  0  0  0  0  0  0
   -3.3786   -0.7804   -6.6084 H   0  0  0  0  0  0  0  0  0  0  0  0
  1  6  1  0  0  0  0
  1  2  1  0  0  0  0
  2  3  1  0  0  0  0
  3  4  2  0  0  0  0
  3 11  1  0  0  0  0
  4  9  1  0  0  0  0
  5 10  1  0  0  0  0
  5  4  1  0  0  0  0
  6  5  2  0  0  0  0
  7  1  1  0  0  0  0
 11 12  1  0  0  0  0
 13 14  1  6  0  0  0
 13 15  1  0  0  0  0
 13 17  1  0  0  0  0
 14 18  1  0  0  0  0
 15  8  1  0  0  0  0
 16  2  2  0  0  0  0
 19 14  1  0  0  0  0
 20 14  1  0  0  0  0
 21  6  1  0  0  0  0
M  RAD  4   1   2  11   2  12   3  17   2
M  END
