Coordinates from ORCA-job Ph-N2-H-OTf-B3LYPG-6-31G_dp-scan-d09-49-n400
 OpenBabel08281820563D

 21 20  0  0  0  0  0  0  0  0999 V2000
   -2.9606    0.9481   -5.6811 C   0  0  0  0  0  0  0  0  0  0  0  0
   -1.7908    1.7104   -5.2586 C   0  0  0  0  0  0  0  0  0  0  0  0
   -0.6903    0.8268   -4.7549 C   0  0  0  0  0  0  0  0  0  0  0  0
   -0.7588   -0.6058   -4.7128 C   0  0  0  0  0  0  0  0  0  0  0  0
   -1.9023   -1.2065   -5.1419 C   0  0  0  0  0  0  0  0  0  0  0  0
   -3.0029   -0.4129   -5.6210 C   0  0  0  0  0  0  0  0  0  0  0  0
   -3.7975    1.5315   -6.0506 H   0  0  0  0  0  0  0  0  0  0  0  0
    3.0767    1.9736   -5.1317 H   0  0  0  0  0  0  0  0  0  0  0  0
    0.1053   -1.1617   -4.3674 H   0  0  0  0  0  0  0  0  0  0  0  0
   -1.9870   -2.2878   -5.1307 H   0  0  0  0  0  0  0  0  0  0  0  0
    0.3803    1.4655   -4.3391 N   0  0  0  0  0  0  0  0  0  0  0  0
    1.2480    2.1239   -4.0169 N   0  0  0  0  0  0  0  0  0  0  0  0
    3.6070   -0.0185   -5.8726 S   0  0  1  0  0  0  0  0  0  0  0  0
    2.6506    0.4990   -7.4207 C   0  0  0  0  0  0  0  0  0  0  0  0
    3.9146    1.5297   -5.3853 O   0  0  0  0  0  0  0  0  0  0  0  0
   -1.6842    2.9351   -5.2970 O   0  0  0  0  0  0  0  0  0  0  0  0
    2.5704   -0.6507   -5.0129 O   0  0  0  0  0  0  0  0  0  0  0  0
    1.6689    1.3573   -7.1056 F   0  0  0  0  0  0  0  0  0  0  0  0
    3.4853    1.0821   -8.2832 F   0  0  0  0  0  0  0  0  0  0  0  0
    2.1204   -0.5899   -7.9810 F   0  0  0  0  0  0  0  0  0  0  0  0
   -3.9011   -0.9284   -5.9520 H   0  0  0  0  0  0  0  0  0  0  0  0
  1  6  1  0  0  0  0
  1  2  1  0  0  0  0
  2  3  1  0  0  0  0
  3  4  2  0  0  0  0
  3 11  1  0  0  0  0
  4  9  1  0  0  0  0
  5 10  1  0  0  0  0
  5  4  1  0  0  0  0
  6  5  2  0  0  0  0
  7  1  1  0  0  0  0
 11 12  1  0  0  0  0
 13 14  1  6  0  0  0
 13 15  1  0  0  0  0
 13 17  1  0  0  0  0
 14 18  1  0  0  0  0
 15  8  1  0  0  0  0
 16  2  2  0  0  0  0
 19 14  1  0  0  0  0
 20 14  1  0  0  0  0
 21  6  1  0  0  0  0
M  RAD  4   1   2  11   2  12   3  17   2
M  END
