Coordinates from ORCA-job Ph-N2-H-OTf-B3LYPG-6-31G_dp-scan-d09-49-n400
 OpenBabel08281820563D

 21 20  0  0  0  0  0  0  0  0999 V2000
   -1.8955    0.8578   -6.1497 C   0  0  0  0  0  0  0  0  0  0  0  0
   -0.7096    1.2172   -5.4126 C   0  0  0  0  0  0  0  0  0  0  0  0
   -0.4882    0.3809   -4.2288 C   0  0  0  0  0  0  0  0  0  0  0  0
   -1.3286   -0.7112   -3.8530 C   0  0  0  0  0  0  0  0  0  0  0  0
   -2.4211   -0.9889   -4.6239 C   0  0  0  0  0  0  0  0  0  0  0  0
   -2.6964   -0.1876   -5.7742 C   0  0  0  0  0  0  0  0  0  0  0  0
   -2.1071    1.4529   -7.0315 H   0  0  0  0  0  0  0  0  0  0  0  0
    1.5111    2.2260   -5.7152 H   0  0  0  0  0  0  0  0  0  0  0  0
   -1.0828   -1.2917   -2.9703 H   0  0  0  0  0  0  0  0  0  0  0  0
   -3.0766   -1.8133   -4.3672 H   0  0  0  0  0  0  0  0  0  0  0  0
    0.5511    0.6996   -3.4524 N   0  0  0  0  0  0  0  0  0  0  0  0
    1.4205    1.0266   -2.8165 N   0  0  0  0  0  0  0  0  0  0  0  0
    3.2077    0.8310   -6.0848 S   0  0  1  0  0  0  0  0  0  0  0  0
    2.5916    0.7034   -7.8688 C   0  0  0  0  0  0  0  0  0  0  0  0
    2.5468    2.2641   -5.7377 O   0  0  0  0  0  0  0  0  0  0  0  0
    0.0412    2.1675   -5.7456 O   0  0  0  0  0  0  0  0  0  0  0  0
    2.4738   -0.2724   -5.3920 O   0  0  0  0  0  0  0  0  0  0  0  0
    1.2594    0.6007   -7.9377 F   0  0  0  0  0  0  0  0  0  0  0  0
    2.9881    1.7745   -8.5659 F   0  0  0  0  0  0  0  0  0  0  0  0
    3.1386   -0.3936   -8.4158 F   0  0  0  0  0  0  0  0  0  0  0  0
   -3.5721   -0.4224   -6.3733 H   0  0  0  0  0  0  0  0  0  0  0  0
  1  6  1  0  0  0  0
  1  2  1  0  0  0  0
  2  3  1  0  0  0  0
  3  4  2  0  0  0  0
  3 11  1  0  0  0  0
  4  9  1  0  0  0  0
  5 10  1  0  0  0  0
  5  4  1  0  0  0  0
  6  5  2  0  0  0  0
  7  1  1  0  0  0  0
 11 12  1  0  0  0  0
 13 14  1  6  0  0  0
 13 15  1  0  0  0  0
 13 17  1  0  0  0  0
 15  8  1  0  0  0  0
 16  2  2  0  0  0  0
 18 14  1  0  0  0  0
 19 14  1  0  0  0  0
 20 14  1  0  0  0  0
 21  6  1  0  0  0  0
M  RAD  4   1   2  11   2  12   3  17   2
M  END
