Coordinates from ORCA-job Ph-N2-H-OTf-B3LYPG-6-31G_dp-scan-d09-49-n400
 OpenBabel08281820563D

 21 20  0  0  0  0  0  0  0  0999 V2000
   -1.9209    0.8541   -6.1335 C   0  0  0  0  0  0  0  0  0  0  0  0
   -0.7458    1.2315   -5.3800 C   0  0  0  0  0  0  0  0  0  0  0  0
   -0.5198    0.3771   -4.2027 C   0  0  0  0  0  0  0  0  0  0  0  0
   -1.3436   -0.7361   -3.8504 C   0  0  0  0  0  0  0  0  0  0  0  0
   -2.4225   -1.0234   -4.6356 C   0  0  0  0  0  0  0  0  0  0  0  0
   -2.7026   -0.2113   -5.7793 C   0  0  0  0  0  0  0  0  0  0  0  0
   -2.1380    1.4570   -7.0087 H   0  0  0  0  0  0  0  0  0  0  0  0
    1.6579    2.2970   -5.7350 H   0  0  0  0  0  0  0  0  0  0  0  0
   -1.0958   -1.3246   -2.9734 H   0  0  0  0  0  0  0  0  0  0  0  0
   -3.0650   -1.8633   -4.3970 H   0  0  0  0  0  0  0  0  0  0  0  0
    0.5099    0.7049   -3.4225 N   0  0  0  0  0  0  0  0  0  0  0  0
    1.3788    1.0496   -2.7931 N   0  0  0  0  0  0  0  0  0  0  0  0
    3.2500    0.8261   -6.1178 S   0  0  1  0  0  0  0  0  0  0  0  0
    2.5901    0.6958   -7.8852 C   0  0  0  0  0  0  0  0  0  0  0  0
    2.6609    2.3110   -5.7991 O   0  0  0  0  0  0  0  0  0  0  0  0
   -0.0102    2.1948   -5.6852 O   0  0  0  0  0  0  0  0  0  0  0  0
    2.4823   -0.2197   -5.3804 O   0  0  0  0  0  0  0  0  0  0  0  0
    1.2550    0.7184   -7.9292 F   0  0  0  0  0  0  0  0  0  0  0  0
    3.0753    1.7024   -8.6204 F   0  0  0  0  0  0  0  0  0  0  0  0
    3.0243   -0.4646   -8.3994 F   0  0  0  0  0  0  0  0  0  0  0  0
   -3.5684   -0.4559   -6.3892 H   0  0  0  0  0  0  0  0  0  0  0  0
  1  6  1  0  0  0  0
  1  2  1  0  0  0  0
  2  3  1  0  0  0  0
  3  4  2  0  0  0  0
  3 11  1  0  0  0  0
  4  9  1  0  0  0  0
  5 10  1  0  0  0  0
  5  4  1  0  0  0  0
  6  5  2  0  0  0  0
  7  1  1  0  0  0  0
 11 12  1  0  0  0  0
 13 14  1  6  0  0  0
 13 15  1  0  0  0  0
 13 17  1  0  0  0  0
 15  8  1  0  0  0  0
 16  2  2  0  0  0  0
 18 14  1  0  0  0  0
 19 14  1  0  0  0  0
 20 14  1  0  0  0  0
 21  6  1  0  0  0  0
M  RAD  4   1   2  11   2  12   3  17   2
M  END
