Coordinates from ORCA-job Ph-N2-H-OTf-B3LYPG-6-31G_dp-scan-d09-49-n400
 OpenBabel08281820563D

 21 20  0  0  0  0  0  0  0  0999 V2000
   -2.3471    1.0499   -5.9999 C   0  0  0  0  0  0  0  0  0  0  0  0
   -1.3169    1.6820   -5.1857 C   0  0  0  0  0  0  0  0  0  0  0  0
   -0.5539    0.6894   -4.3739 C   0  0  0  0  0  0  0  0  0  0  0  0
   -0.7533   -0.7253   -4.4310 C   0  0  0  0  0  0  0  0  0  0  0  0
   -1.7336   -1.2086   -5.2458 C   0  0  0  0  0  0  0  0  0  0  0  0
   -2.5327   -0.3020   -6.0213 C   0  0  0  0  0  0  0  0  0  0  0  0
   -2.9552    1.7193   -6.5997 H   0  0  0  0  0  0  0  0  0  0  0  0
    2.7038    2.3307   -5.7776 H   0  0  0  0  0  0  0  0  0  0  0  0
   -0.1181   -1.3741   -3.8381 H   0  0  0  0  0  0  0  0  0  0  0  0
   -1.9125   -2.2762   -5.3130 H   0  0  0  0  0  0  0  0  0  0  0  0
    0.3653    1.2222   -3.5848 N   0  0  0  0  0  0  0  0  0  0  0  0
    1.1030    1.8163   -2.9653 N   0  0  0  0  0  0  0  0  0  0  0  0
    3.3543    0.2491   -6.0230 S   0  0  1  0  0  0  0  0  0  0  0  0
    2.0478    0.3436   -7.3935 C   0  0  0  0  0  0  0  0  0  0  0  0
    3.5582    1.8917   -5.9565 O   0  0  0  0  0  0  0  0  0  0  0  0
   -1.0716    2.8903   -5.1531 O   0  0  0  0  0  0  0  0  0  0  0  0
    2.6039   -0.2539   -4.8441 O   0  0  0  0  0  0  0  0  0  0  0  0
    1.1538    1.3090   -7.1265 F   0  0  0  0  0  0  0  0  0  0  0  0
    2.6499    0.6139   -8.5542 F   0  0  0  0  0  0  0  0  0  0  0  0
    1.4199   -0.8281   -7.4760 F   0  0  0  0  0  0  0  0  0  0  0  0
   -3.3132   -0.7183   -6.6540 H   0  0  0  0  0  0  0  0  0  0  0  0
  1  2  1  0  0  0  0
  2 16  2  0  0  0  0
  2  3  1  0  0  0  0
  3 11  1  0  0  0  0
  4  3  2  0  0  0  0
  4  9  1  0  0  0  0
  5  4  1  0  0  0  0
  6  1  1  0  0  0  0
  6  5  2  0  0  0  0
  7  1  1  0  0  0  0
 10  5  1  0  0  0  0
 11 12  1  0  0  0  0
 13 14  1  6  0  0  0
 13 15  1  0  0  0  0
 13 17  1  0  0  0  0
 14 18  1  0  0  0  0
 15  8  1  0  0  0  0
 19 14  1  0  0  0  0
 20 14  1  0  0  0  0
 21  6  1  0  0  0  0
M  RAD  4   1   2  11   2  12   3  17   2
M  END
