Coordinates from ORCA-job Ph-N2-H-OTf-B3LYPG-6-31G_dp-scan-d09-49-n400
 OpenBabel08281820563D

 21 20  0  0  0  0  0  0  0  0999 V2000
   -2.3613    1.0498   -5.9945 C   0  0  0  0  0  0  0  0  0  0  0  0
   -1.3399    1.6926   -5.1774 C   0  0  0  0  0  0  0  0  0  0  0  0
   -0.5551    0.7060   -4.3788 C   0  0  0  0  0  0  0  0  0  0  0  0
   -0.7296   -0.7116   -4.4486 C   0  0  0  0  0  0  0  0  0  0  0  0
   -1.7036   -1.2045   -5.2651 C   0  0  0  0  0  0  0  0  0  0  0  0
   -2.5221   -0.3050   -6.0289 C   0  0  0  0  0  0  0  0  0  0  0  0
   -2.9836    1.7139   -6.5855 H   0  0  0  0  0  0  0  0  0  0  0  0
    2.7342    2.3072   -5.7651 H   0  0  0  0  0  0  0  0  0  0  0  0
   -0.0792   -1.3541   -3.8656 H   0  0  0  0  0  0  0  0  0  0  0  0
   -1.8630   -2.2745   -5.3427 H   0  0  0  0  0  0  0  0  0  0  0  0
    0.3612    1.2470   -3.5923 N   0  0  0  0  0  0  0  0  0  0  0  0
    1.0970    1.8471   -2.9758 N   0  0  0  0  0  0  0  0  0  0  0  0
    3.3445    0.2157   -6.0199 S   0  0  1  0  0  0  0  0  0  0  0  0
    2.0296    0.3375   -7.3807 C   0  0  0  0  0  0  0  0  0  0  0  0
    3.5793    1.8545   -5.9530 O   0  0  0  0  0  0  0  0  0  0  0  0
   -1.1165    2.9046   -5.1336 O   0  0  0  0  0  0  0  0  0  0  0  0
    2.5937   -0.2732   -4.8356 O   0  0  0  0  0  0  0  0  0  0  0  0
    1.1580    1.3207   -7.1043 F   0  0  0  0  0  0  0  0  0  0  0  0
    2.6278    0.5976   -8.5457 F   0  0  0  0  0  0  0  0  0  0  0  0
    1.3773   -0.8210   -7.4604 F   0  0  0  0  0  0  0  0  0  0  0  0
   -3.2968   -0.7292   -6.6633 H   0  0  0  0  0  0  0  0  0  0  0  0
  1  2  1  0  0  0  0
  2 16  2  0  0  0  0
  2  3  1  0  0  0  0
  3 11  1  0  0  0  0
  4  3  2  0  0  0  0
  4  9  1  0  0  0  0
  5  4  1  0  0  0  0
  6  1  1  0  0  0  0
  6  5  2  0  0  0  0
  7  1  1  0  0  0  0
 10  5  1  0  0  0  0
 11 12  1  0  0  0  0
 13 14  1  6  0  0  0
 13 15  1  0  0  0  0
 13 17  1  0  0  0  0
 14 18  1  0  0  0  0
 15  8  1  0  0  0  0
 19 14  1  0  0  0  0
 20 14  1  0  0  0  0
 21  6  1  0  0  0  0
M  RAD  4   1   2  11   2  12   3  17   2
M  END
