Coordinates from ORCA-job Ph-N2-H-OTf-B3LYPG-6-31G_dp-scan-d09-49-n400
 OpenBabel08281820563D

 21 20  0  0  0  0  0  0  0  0999 V2000
   -1.9587    0.8552   -6.1122 C   0  0  0  0  0  0  0  0  0  0  0  0
   -0.8024    1.2608   -5.3374 C   0  0  0  0  0  0  0  0  0  0  0  0
   -0.5569    0.3796   -4.1769 C   0  0  0  0  0  0  0  0  0  0  0  0
   -1.3440   -0.7710   -3.8615 C   0  0  0  0  0  0  0  0  0  0  0  0
   -2.4043   -1.0760   -4.6642 C   0  0  0  0  0  0  0  0  0  0  0  0
   -2.7034   -0.2453   -5.7915 C   0  0  0  0  0  0  0  0  0  0  0  0
   -2.1921    1.4719   -6.9738 H   0  0  0  0  0  0  0  0  0  0  0  0
    1.8514    2.3985   -5.7715 H   0  0  0  0  0  0  0  0  0  0  0  0
   -1.0836   -1.3733   -2.9973 H   0  0  0  0  0  0  0  0  0  0  0  0
   -3.0189   -1.9438   -4.4534 H   0  0  0  0  0  0  0  0  0  0  0  0
    0.4573    0.7245   -3.3886 N   0  0  0  0  0  0  0  0  0  0  0  0
    1.3186    1.0961   -2.7616 N   0  0  0  0  0  0  0  0  0  0  0  0
    3.3016    0.8033   -6.1508 S   0  0  1  0  0  0  0  0  0  0  0  0
    2.5722    0.6799   -7.8911 C   0  0  0  0  0  0  0  0  0  0  0  0
    2.8321    2.3506   -5.8755 O   0  0  0  0  0  0  0  0  0  0  0  0
   -0.0986    2.2521   -5.6038 O   0  0  0  0  0  0  0  0  0  0  0  0
    2.4860   -0.1523   -5.3510 O   0  0  0  0  0  0  0  0  0  0  0  0
    1.2557    0.9004   -7.9016 F   0  0  0  0  0  0  0  0  0  0  0  0
    3.1785    1.5695   -8.6849 F   0  0  0  0  0  0  0  0  0  0  0  0
    2.8162   -0.5539   -8.3536 F   0  0  0  0  0  0  0  0  0  0  0  0
   -3.5550   -0.5059   -6.4147 H   0  0  0  0  0  0  0  0  0  0  0  0
  1  6  1  0  0  0  0
  1  2  1  0  0  0  0
  2  3  1  0  0  0  0
  3  4  2  0  0  0  0
  3 11  1  0  0  0  0
  4  9  1  0  0  0  0
  5 10  1  0  0  0  0
  5  4  1  0  0  0  0
  6  5  2  0  0  0  0
  7  1  1  0  0  0  0
 11 12  1  0  0  0  0
 13 14  1  6  0  0  0
 13 15  1  0  0  0  0
 13 17  1  0  0  0  0
 15  8  1  0  0  0  0
 16  2  2  0  0  0  0
 18 14  1  0  0  0  0
 19 14  1  0  0  0  0
 20 14  1  0  0  0  0
 21  6  1  0  0  0  0
M  RAD  4   1   2  11   2  12   3  17   2
M  END
