Coordinates from ORCA-job Ph-N2-H-OTf-B3LYPG-6-31G_dp-scan-d09-49-n400
 OpenBabel08281820563D

 21 20  0  0  0  0  0  0  0  0999 V2000
   -1.9232    0.8558   -6.1319 C   0  0  0  0  0  0  0  0  0  0  0  0
   -0.7482    1.2332   -5.3781 C   0  0  0  0  0  0  0  0  0  0  0  0
   -0.5210    0.3768   -4.2023 C   0  0  0  0  0  0  0  0  0  0  0  0
   -1.3432   -0.7383   -3.8522 C   0  0  0  0  0  0  0  0  0  0  0  0
   -2.4218   -1.0255   -4.6378 C   0  0  0  0  0  0  0  0  0  0  0  0
   -2.7035   -0.2113   -5.7797 C   0  0  0  0  0  0  0  0  0  0  0  0
   -2.1415    1.4603   -7.0058 H   0  0  0  0  0  0  0  0  0  0  0  0
    1.6642    2.3015   -5.7372 H   0  0  0  0  0  0  0  0  0  0  0  0
   -1.0943   -1.3284   -2.9765 H   0  0  0  0  0  0  0  0  0  0  0  0
   -3.0630   -1.8670   -4.4009 H   0  0  0  0  0  0  0  0  0  0  0  0
    0.5082    0.7046   -3.4216 N   0  0  0  0  0  0  0  0  0  0  0  0
    1.3768    1.0497   -2.7918 N   0  0  0  0  0  0  0  0  0  0  0  0
    3.2533    0.8282   -6.1190 S   0  0  1  0  0  0  0  0  0  0  0  0
    2.5895    0.6934   -7.8846 C   0  0  0  0  0  0  0  0  0  0  0  0
    2.6661    2.3150   -5.8040 O   0  0  0  0  0  0  0  0  0  0  0  0
   -0.0136    2.1976   -5.6816 O   0  0  0  0  0  0  0  0  0  0  0  0
    2.4863   -0.2146   -5.3769 O   0  0  0  0  0  0  0  0  0  0  0  0
    1.2545    0.7207   -7.9259 F   0  0  0  0  0  0  0  0  0  0  0  0
    3.0769    1.6955   -8.6244 F   0  0  0  0  0  0  0  0  0  0  0  0
    3.0186   -0.4705   -8.3952 F   0  0  0  0  0  0  0  0  0  0  0  0
   -3.5691   -0.4558   -6.3898 H   0  0  0  0  0  0  0  0  0  0  0  0
  1  6  1  0  0  0  0
  1  2  1  0  0  0  0
  2  3  1  0  0  0  0
  3  4  2  0  0  0  0
  3 11  1  0  0  0  0
  4  9  1  0  0  0  0
  5 10  1  0  0  0  0
  5  4  1  0  0  0  0
  6  5  2  0  0  0  0
  7  1  1  0  0  0  0
 11 12  1  0  0  0  0
 13 14  1  6  0  0  0
 13 15  1  0  0  0  0
 13 17  1  0  0  0  0
 15  8  1  0  0  0  0
 16  2  2  0  0  0  0
 18 14  1  0  0  0  0
 19 14  1  0  0  0  0
 20 14  1  0  0  0  0
 21  6  1  0  0  0  0
M  RAD  4   1   2  11   2  12   3  17   2
M  END
