Coordinates from ORCA-job Ph-N2-H-OTf-B3LYPG-6-31G_dp-scan-d09-49-n400
 OpenBabel08281820563D

 21 20  0  0  0  0  0  0  0  0999 V2000
   -2.6380    0.8904   -5.9644 C   0  0  0  0  0  0  0  0  0  0  0  0
   -1.4671    1.5954   -5.4571 C   0  0  0  0  0  0  0  0  0  0  0  0
   -0.5938    0.7127   -4.6166 C   0  0  0  0  0  0  0  0  0  0  0  0
   -0.8399   -0.6791   -4.3831 C   0  0  0  0  0  0  0  0  0  0  0  0
   -1.9596   -1.2336   -4.9230 C   0  0  0  0  0  0  0  0  0  0  0  0
   -2.8585   -0.4302   -5.7083 C   0  0  0  0  0  0  0  0  0  0  0  0
   -3.3229    1.4797   -6.5654 H   0  0  0  0  0  0  0  0  0  0  0  0
    3.0029    1.9238   -5.0795 H   0  0  0  0  0  0  0  0  0  0  0  0
   -0.1245   -1.2524   -3.8043 H   0  0  0  0  0  0  0  0  0  0  0  0
   -2.1771   -2.2845   -4.7686 H   0  0  0  0  0  0  0  0  0  0  0  0
    0.4531    1.3264   -4.1142 N   0  0  0  0  0  0  0  0  0  0  0  0
    1.2997    2.0033   -3.7723 N   0  0  0  0  0  0  0  0  0  0  0  0
    3.4469    0.0228   -6.0664 S   0  0  1  0  0  0  0  0  0  0  0  0
    2.3822    0.7213   -7.4656 C   0  0  0  0  0  0  0  0  0  0  0  0
    3.8167    1.5052   -5.4354 O   0  0  0  0  0  0  0  0  0  0  0  0
   -1.1893    2.7741   -5.6728 O   0  0  0  0  0  0  0  0  0  0  0  0
    2.4719   -0.6933   -5.2005 O   0  0  0  0  0  0  0  0  0  0  0  0
    1.4559    1.5616   -6.9826 F   0  0  0  0  0  0  0  0  0  0  0  0
    3.1624    1.3743   -8.3298 F   0  0  0  0  0  0  0  0  0  0  0  0
    1.7774   -0.2914   -8.0905 F   0  0  0  0  0  0  0  0  0  0  0  0
   -3.7467   -0.9056   -6.1165 H   0  0  0  0  0  0  0  0  0  0  0  0
  1  6  1  0  0  0  0
  1  2  1  0  0  0  0
  2  3  1  0  0  0  0
  3  4  2  0  0  0  0
  3 11  1  0  0  0  0
  4  9  1  0  0  0  0
  5 10  1  0  0  0  0
  5  4  1  0  0  0  0
  6  5  2  0  0  0  0
  7  1  1  0  0  0  0
 11 12  1  0  0  0  0
 13 14  1  6  0  0  0
 13 15  1  0  0  0  0
 13 17  1  0  0  0  0
 14 18  1  0  0  0  0
 15  8  1  0  0  0  0
 16  2  2  0  0  0  0
 19 14  1  0  0  0  0
 20 14  1  0  0  0  0
 21  6  1  0  0  0  0
M  RAD  4   1   2  11   2  12   3  17   2
M  END
