Coordinates from ORCA-job Ph-N2-H-OTf-B3LYPG-6-31G_dp-scan-d09-49-n400
 OpenBabel08281820563D

 21 20  0  0  0  0  0  0  0  0999 V2000
   -1.8954    0.8917   -6.1583 C   0  0  0  0  0  0  0  0  0  0  0  0
   -0.6924    1.2288   -5.4611 C   0  0  0  0  0  0  0  0  0  0  0  0
   -0.4328    0.4015   -4.2956 C   0  0  0  0  0  0  0  0  0  0  0  0
   -1.2596   -0.6901   -3.8986 C   0  0  0  0  0  0  0  0  0  0  0  0
   -2.3809   -0.9621   -4.6333 C   0  0  0  0  0  0  0  0  0  0  0  0
   -2.6932   -0.1538   -5.7628 C   0  0  0  0  0  0  0  0  0  0  0  0
   -2.1299    1.4928   -7.0298 H   0  0  0  0  0  0  0  0  0  0  0  0
    1.2534    2.1640   -5.7098 H   0  0  0  0  0  0  0  0  0  0  0  0
   -0.9833   -1.2757   -3.0287 H   0  0  0  0  0  0  0  0  0  0  0  0
   -3.0272   -1.7877   -4.3583 H   0  0  0  0  0  0  0  0  0  0  0  0
    0.6206    0.7178   -3.5235 N   0  0  0  0  0  0  0  0  0  0  0  0
    1.4794    1.0282   -2.8711 N   0  0  0  0  0  0  0  0  0  0  0  0
    3.1443    0.8039   -6.0044 S   0  0  1  0  0  0  0  0  0  0  0  0
    2.6000    0.6892   -7.8130 C   0  0  0  0  0  0  0  0  0  0  0  0
    2.4141    2.1646   -5.6348 O   0  0  0  0  0  0  0  0  0  0  0  0
    0.0495    2.1939   -5.8354 O   0  0  0  0  0  0  0  0  0  0  0  0
    2.4329   -0.3627   -5.3788 O   0  0  0  0  0  0  0  0  0  0  0  0
    1.2712    0.5343   -7.9304 F   0  0  0  0  0  0  0  0  0  0  0  0
    2.9678    1.7914   -8.4803 F   0  0  0  0  0  0  0  0  0  0  0  0
    3.2028   -0.3714   -8.3750 F   0  0  0  0  0  0  0  0  0  0  0  0
   -3.5895   -0.3777   -6.3342 H   0  0  0  0  0  0  0  0  0  0  0  0
  1  6  1  0  0  0  0
  1  2  1  0  0  0  0
  2  3  1  0  0  0  0
  3  4  2  0  0  0  0
  3 11  1  0  0  0  0
  4  9  1  0  0  0  0
  5 10  1  0  0  0  0
  5  4  1  0  0  0  0
  6  5  2  0  0  0  0
  7  1  1  0  0  0  0
  8 15  1  0  0  0  0
 11 12  1  0  0  0  0
 13 14  1  6  0  0  0
 13 15  1  0  0  0  0
 13 17  1  0  0  0  0
 16  2  2  0  0  0  0
 18 14  1  0  0  0  0
 19 14  1  0  0  0  0
 20 14  1  0  0  0  0
 21  6  1  0  0  0  0
M  RAD  4   1   2  11   2  12   3  17   2
M  END
