Coordinates from ORCA-job Ph-N2-H-OTf-B3LYPG-6-31G_dp-scan-d09-49-n400
 OpenBabel08281820563D

 21 20  0  0  0  0  0  0  0  0999 V2000
   -2.3546    1.0478   -5.9976 C   0  0  0  0  0  0  0  0  0  0  0  0
   -1.3291    1.6843   -5.1807 C   0  0  0  0  0  0  0  0  0  0  0  0
   -0.5588    0.6940   -4.3728 C   0  0  0  0  0  0  0  0  0  0  0  0
   -0.7517   -0.7216   -4.4316 C   0  0  0  0  0  0  0  0  0  0  0  0
   -1.7297   -1.2086   -5.2469 C   0  0  0  0  0  0  0  0  0  0  0  0
   -2.5329   -0.3050   -6.0216 C   0  0  0  0  0  0  0  0  0  0  0  0
   -2.9659    1.7151   -6.5964 H   0  0  0  0  0  0  0  0  0  0  0  0
    2.7305    2.3253   -5.7771 H   0  0  0  0  0  0  0  0  0  0  0  0
   -0.1132   -1.3681   -3.8396 H   0  0  0  0  0  0  0  0  0  0  0  0
   -1.9035   -2.2770   -5.3151 H   0  0  0  0  0  0  0  0  0  0  0  0
    0.3601    1.2296   -3.5854 N   0  0  0  0  0  0  0  0  0  0  0  0
    1.0977    1.8255   -2.9673 N   0  0  0  0  0  0  0  0  0  0  0  0
    3.3536    0.2359   -6.0243 S   0  0  1  0  0  0  0  0  0  0  0  0
    2.0490    0.3448   -7.3951 C   0  0  0  0  0  0  0  0  0  0  0  0
    3.5786    1.8759   -5.9602 O   0  0  0  0  0  0  0  0  0  0  0  0
   -1.0933    2.8943   -5.1431 O   0  0  0  0  0  0  0  0  0  0  0  0
    2.5967   -0.2549   -4.8446 O   0  0  0  0  0  0  0  0  0  0  0  0
    1.1596    1.3131   -7.1239 F   0  0  0  0  0  0  0  0  0  0  0  0
    2.6538    0.6181   -8.5537 F   0  0  0  0  0  0  0  0  0  0  0  0
    1.4154   -0.8234   -7.4845 F   0  0  0  0  0  0  0  0  0  0  0  0
   -3.3107   -0.7243   -6.6556 H   0  0  0  0  0  0  0  0  0  0  0  0
  1  2  1  0  0  0  0
  2 16  2  0  0  0  0
  2  3  1  0  0  0  0
  3 11  1  0  0  0  0
  4  3  2  0  0  0  0
  4  9  1  0  0  0  0
  5  4  1  0  0  0  0
  6  1  1  0  0  0  0
  6  5  2  0  0  0  0
  7  1  1  0  0  0  0
 10  5  1  0  0  0  0
 11 12  1  0  0  0  0
 13 14  1  6  0  0  0
 13 15  1  0  0  0  0
 13 17  1  0  0  0  0
 14 18  1  0  0  0  0
 15  8  1  0  0  0  0
 19 14  1  0  0  0  0
 20 14  1  0  0  0  0
 21  6  1  0  0  0  0
M  RAD  4   1   2  11   2  12   3  17   2
M  END
