Coordinates from ORCA-job Ph-N2-H-OTf-B3LYPG-6-31G_dp-scan-d09-49-n400
 OpenBabel08281820563D

 21 20  0  0  0  0  0  0  0  0999 V2000
   -2.1493    0.8809   -6.1057 C   0  0  0  0  0  0  0  0  0  0  0  0
   -1.1419    1.4677   -5.2311 C   0  0  0  0  0  0  0  0  0  0  0  0
   -0.6749    0.5082   -4.1909 C   0  0  0  0  0  0  0  0  0  0  0  0
   -1.1427   -0.8366   -4.0662 C   0  0  0  0  0  0  0  0  0  0  0  0
   -2.0876   -1.2825   -4.9424 C   0  0  0  0  0  0  0  0  0  0  0  0
   -2.5855   -0.4044   -5.9624 C   0  0  0  0  0  0  0  0  0  0  0  0
   -2.5365    1.5308   -6.8839 H   0  0  0  0  0  0  0  0  0  0  0  0
    3.0137    2.5602   -6.0033 H   0  0  0  0  0  0  0  0  0  0  0  0
   -0.7373   -1.4704   -3.2841 H   0  0  0  0  0  0  0  0  0  0  0  0
   -2.4639   -2.2968   -4.8729 H   0  0  0  0  0  0  0  0  0  0  0  0
    0.2352    0.9897   -3.3569 N   0  0  0  0  0  0  0  0  0  0  0  0
    1.0019    1.5153   -2.7131 N   0  0  0  0  0  0  0  0  0  0  0  0
    3.4021    0.4100   -6.1923 S   0  0  1  0  0  0  0  0  0  0  0  0
    2.1921    0.6295   -7.6315 C   0  0  0  0  0  0  0  0  0  0  0  0
    3.8117    2.0162   -6.1490 O   0  0  0  0  0  0  0  0  0  0  0  0
   -0.7101    2.6204   -5.3159 O   0  0  0  0  0  0  0  0  0  0  0  0
    2.5368    0.0391   -5.0451 O   0  0  0  0  0  0  0  0  0  0  0  0
    1.3550    1.6470   -7.3926 F   0  0  0  0  0  0  0  0  0  0  0  0
    2.8811    0.8778   -8.7497 F   0  0  0  0  0  0  0  0  0  0  0  0
    1.4923   -0.4957   -7.7821 F   0  0  0  0  0  0  0  0  0  0  0  0
   -3.3406   -0.7855   -6.6460 H   0  0  0  0  0  0  0  0  0  0  0  0
  1  6  1  0  0  0  0
  1  2  1  0  0  0  0
  2  3  1  0  0  0  0
  3  4  2  0  0  0  0
  3 11  1  0  0  0  0
  4  9  1  0  0  0  0
  5 10  1  0  0  0  0
  5  4  1  0  0  0  0
  6  5  2  0  0  0  0
  7  1  1  0  0  0  0
 11 12  1  0  0  0  0
 13 14  1  6  0  0  0
 13 15  1  0  0  0  0
 13 17  1  0  0  0  0
 14 18  1  0  0  0  0
 15  8  1  0  0  0  0
 16  2  2  0  0  0  0
 19 14  1  0  0  0  0
 20 14  1  0  0  0  0
 21  6  1  0  0  0  0
M  RAD  4   1   2  11   2  12   3  17   2
M  END
