Coordinates from ORCA-job Ph-N2-H-OTf-B3LYPG-6-31G_dp-scan-d09-49-n400
 OpenBabel08281820563D

 21 20  0  0  0  0  0  0  0  0999 V2000
   -2.0812    0.8602   -6.0844 C   0  0  0  0  0  0  0  0  0  0  0  0
   -1.0057    1.3697   -5.2457 C   0  0  0  0  0  0  0  0  0  0  0  0
   -0.6548    0.4287   -4.1484 C   0  0  0  0  0  0  0  0  0  0  0  0
   -1.2774   -0.8418   -3.9466 C   0  0  0  0  0  0  0  0  0  0  0  0
   -2.2717   -1.2238   -4.7982 C   0  0  0  0  0  0  0  0  0  0  0  0
   -2.6668   -0.3537   -5.8679 C   0  0  0  0  0  0  0  0  0  0  0  0
   -2.3907    1.5051   -6.9006 H   0  0  0  0  0  0  0  0  0  0  0  0
    2.5548    2.6172   -5.9779 H   0  0  0  0  0  0  0  0  0  0  0  0
   -0.9481   -1.4720   -3.1266 H   0  0  0  0  0  0  0  0  0  0  0  0
   -2.7632   -2.1817   -4.6720 H   0  0  0  0  0  0  0  0  0  0  0  0
    0.3034    0.8483   -3.3335 N   0  0  0  0  0  0  0  0  0  0  0  0
    1.1174    1.3145   -2.7030 N   0  0  0  0  0  0  0  0  0  0  0  0
    3.4084    0.6083   -6.1858 S   0  0  1  0  0  0  0  0  0  0  0  0
    2.4195    0.6493   -7.7990 C   0  0  0  0  0  0  0  0  0  0  0  0
    3.4605    2.2563   -6.0376 O   0  0  0  0  0  0  0  0  0  0  0  0
   -0.4413    2.4584   -5.3999 O   0  0  0  0  0  0  0  0  0  0  0  0
    2.4757    0.0011   -5.2032 O   0  0  0  0  0  0  0  0  0  0  0  0
    1.3557    1.4527   -7.6888 F   0  0  0  0  0  0  0  0  0  0  0  0
    3.2092    1.0942   -8.7823 F   0  0  0  0  0  0  0  0  0  0  0  0
    2.0132   -0.5897   -8.0858 F   0  0  0  0  0  0  0  0  0  0  0  0
   -3.4652   -0.6805   -6.5299 H   0  0  0  0  0  0  0  0  0  0  0  0
  1  6  1  0  0  0  0
  1  2  1  0  0  0  0
  2  3  1  0  0  0  0
  3  4  2  0  0  0  0
  3 11  1  0  0  0  0
  4  9  1  0  0  0  0
  5 10  1  0  0  0  0
  5  4  1  0  0  0  0
  6  5  2  0  0  0  0
  7  1  1  0  0  0  0
 11 12  1  0  0  0  0
 13 14  1  6  0  0  0
 13 15  1  0  0  0  0
 13 17  1  0  0  0  0
 14 18  1  0  0  0  0
 15  8  1  0  0  0  0
 16  2  2  0  0  0  0
 19 14  1  0  0  0  0
 20 14  1  0  0  0  0
 21  6  1  0  0  0  0
M  RAD  4   1   2  11   2  12   3  17   2
M  END
