Coordinates from ORCA-job Ph-N2-H-OTf-B3LYPG-6-31G_dp-scan-d09-49-n400
 OpenBabel08281820563D

 21 20  0  0  0  0  0  0  0  0999 V2000
   -1.8897    0.8766   -6.1583 C   0  0  0  0  0  0  0  0  0  0  0  0
   -0.6908    1.2188   -5.4490 C   0  0  0  0  0  0  0  0  0  0  0  0
   -0.4486    0.3934   -4.2730 C   0  0  0  0  0  0  0  0  0  0  0  0
   -1.2856   -0.6925   -3.8780 C   0  0  0  0  0  0  0  0  0  0  0  0
   -2.3983   -0.9648   -4.6240 C   0  0  0  0  0  0  0  0  0  0  0  0
   -2.6938   -0.1630   -5.7648 C   0  0  0  0  0  0  0  0  0  0  0  0
   -2.1130    1.4725   -7.0363 H   0  0  0  0  0  0  0  0  0  0  0  0
    1.3253    2.1694   -5.7098 H   0  0  0  0  0  0  0  0  0  0  0  0
   -1.0228   -1.2731   -3.0004 H   0  0  0  0  0  0  0  0  0  0  0  0
   -3.0519   -1.7854   -4.3513 H   0  0  0  0  0  0  0  0  0  0  0  0
    0.6010    0.7087   -3.4999 N   0  0  0  0  0  0  0  0  0  0  0  0
    1.4642    1.0217   -2.8527 N   0  0  0  0  0  0  0  0  0  0  0  0
    3.1585    0.8149   -6.0300 S   0  0  1  0  0  0  0  0  0  0  0  0
    2.6001    0.7002   -7.8342 C   0  0  0  0  0  0  0  0  0  0  0  0
    2.4411    2.1928   -5.6631 O   0  0  0  0  0  0  0  0  0  0  0  0
    0.0587    2.1735   -5.8145 O   0  0  0  0  0  0  0  0  0  0  0  0
    2.4419   -0.3383   -5.3912 O   0  0  0  0  0  0  0  0  0  0  0  0
    1.2725    0.5431   -7.9428 F   0  0  0  0  0  0  0  0  0  0  0  0
    2.9644    1.8021   -8.5026 F   0  0  0  0  0  0  0  0  0  0  0  0
    3.2028   -0.3604   -8.3961 F   0  0  0  0  0  0  0  0  0  0  0  0
   -3.5840   -0.3892   -6.3450 H   0  0  0  0  0  0  0  0  0  0  0  0
  1  6  1  0  0  0  0
  1  2  1  0  0  0  0
  2  3  1  0  0  0  0
  3  4  2  0  0  0  0
  3 11  1  0  0  0  0
  4  9  1  0  0  0  0
  5 10  1  0  0  0  0
  5  4  1  0  0  0  0
  6  5  2  0  0  0  0
  7  1  1  0  0  0  0
  8 15  1  0  0  0  0
 11 12  1  0  0  0  0
 13 14  1  6  0  0  0
 13 15  1  0  0  0  0
 13 17  1  0  0  0  0
 16  2  2  0  0  0  0
 18 14  1  0  0  0  0
 19 14  1  0  0  0  0
 20 14  1  0  0  0  0
 21  6  1  0  0  0  0
M  RAD  4   1   2  11   2  12   3  17   2
M  END
