Coordinates from ORCA-job Ph-N2-H-OTf-B3LYPG-6-31G_dp-scan-d09-49-n400
 OpenBabel08281820563D

 21 20  0  0  0  0  0  0  0  0999 V2000
   -2.6629    0.8945   -5.9497 C   0  0  0  0  0  0  0  0  0  0  0  0
   -1.4889    1.6025   -5.4536 C   0  0  0  0  0  0  0  0  0  0  0  0
   -0.5992    0.7190   -4.6315 C   0  0  0  0  0  0  0  0  0  0  0  0
   -0.8336   -0.6764   -4.4057 C   0  0  0  0  0  0  0  0  0  0  0  0
   -1.9571   -1.2335   -4.9349 C   0  0  0  0  0  0  0  0  0  0  0  0
   -2.8717   -0.4294   -5.7014 C   0  0  0  0  0  0  0  0  0  0  0  0
   -3.3598    1.4844   -6.5360 H   0  0  0  0  0  0  0  0  0  0  0  0
    3.0262    1.9211   -5.0602 H   0  0  0  0  0  0  0  0  0  0  0  0
   -0.1066   -1.2496   -3.8416 H   0  0  0  0  0  0  0  0  0  0  0  0
   -2.1661   -2.2869   -4.7858 H   0  0  0  0  0  0  0  0  0  0  0  0
    0.4513    1.3333   -4.1380 N   0  0  0  0  0  0  0  0  0  0  0  0
    1.3002    2.0067   -3.7955 N   0  0  0  0  0  0  0  0  0  0  0  0
    3.4599    0.0215   -6.0559 S   0  0  1  0  0  0  0  0  0  0  0  0
    2.3944    0.7108   -7.4594 C   0  0  0  0  0  0  0  0  0  0  0  0
    3.8337    1.5069   -5.4351 O   0  0  0  0  0  0  0  0  0  0  0  0
   -1.2242    2.7858   -5.6597 O   0  0  0  0  0  0  0  0  0  0  0  0
    2.4856   -0.6873   -5.1832 O   0  0  0  0  0  0  0  0  0  0  0  0
    1.4650    1.5512   -6.9833 F   0  0  0  0  0  0  0  0  0  0  0  0
    3.1745    1.3607   -8.3259 F   0  0  0  0  0  0  0  0  0  0  0  0
    1.7935   -0.3073   -8.0796 F   0  0  0  0  0  0  0  0  0  0  0  0
   -3.7626   -0.9071   -6.1012 H   0  0  0  0  0  0  0  0  0  0  0  0
  1  6  1  0  0  0  0
  1  2  1  0  0  0  0
  2  3  1  0  0  0  0
  3  4  2  0  0  0  0
  3 11  1  0  0  0  0
  4  9  1  0  0  0  0
  5 10  1  0  0  0  0
  5  4  1  0  0  0  0
  6  5  2  0  0  0  0
  7  1  1  0  0  0  0
 11 12  1  0  0  0  0
 13 14  1  6  0  0  0
 13 15  1  0  0  0  0
 13 17  1  0  0  0  0
 14 18  1  0  0  0  0
 15  8  1  0  0  0  0
 16  2  2  0  0  0  0
 19 14  1  0  0  0  0
 20 14  1  0  0  0  0
 21  6  1  0  0  0  0
M  RAD  4   1   2  11   2  12   3  17   2
M  END
