Coordinates from ORCA-job Ph-N2-H-OTf-B3LYPG-6-31G_dp-scan-d09-49-n400
 OpenBabel08281820563D

 21 20  0  0  0  0  0  0  0  0999 V2000
   -2.8654    0.9392   -5.7715 C   0  0  0  0  0  0  0  0  0  0  0  0
   -1.6954    1.6846   -5.3211 C   0  0  0  0  0  0  0  0  0  0  0  0
   -0.6555    0.7935   -4.7117 C   0  0  0  0  0  0  0  0  0  0  0  0
   -0.7713   -0.6325   -4.6112 C   0  0  0  0  0  0  0  0  0  0  0  0
   -1.9081   -1.2186   -5.0767 C   0  0  0  0  0  0  0  0  0  0  0  0
   -2.9549   -0.4156   -5.6514 C   0  0  0  0  0  0  0  0  0  0  0  0
   -3.6618    1.5290   -6.2132 H   0  0  0  0  0  0  0  0  0  0  0  0
    3.0494    1.9564   -5.1012 H   0  0  0  0  0  0  0  0  0  0  0  0
    0.0541   -1.1983   -4.1947 H   0  0  0  0  0  0  0  0  0  0  0  0
   -2.0283   -2.2950   -5.0219 H   0  0  0  0  0  0  0  0  0  0  0  0
    0.4071    1.4247   -4.2667 N   0  0  0  0  0  0  0  0  0  0  0  0
    1.2669    2.0890   -3.9344 N   0  0  0  0  0  0  0  0  0  0  0  0
    3.5526   -0.0080   -5.9294 S   0  0  1  0  0  0  0  0  0  0  0  0
    2.5612    0.5608   -7.4366 C   0  0  0  0  0  0  0  0  0  0  0  0
    3.8780    1.5230   -5.4006 O   0  0  0  0  0  0  0  0  0  0  0  0
   -1.5435    2.9016   -5.4125 O   0  0  0  0  0  0  0  0  0  0  0  0
    2.5347   -0.6636   -5.0647 O   0  0  0  0  0  0  0  0  0  0  0  0
    1.5862    1.4058   -7.0709 F   0  0  0  0  0  0  0  0  0  0  0  0
    3.3759    1.1741   -8.2973 F   0  0  0  0  0  0  0  0  0  0  0  0
    2.0203   -0.5099   -8.0217 F   0  0  0  0  0  0  0  0  0  0  0  0
   -3.8502   -0.9191   -6.0077 H   0  0  0  0  0  0  0  0  0  0  0  0
  1  6  1  0  0  0  0
  1  2  1  0  0  0  0
  2  3  1  0  0  0  0
  3  4  2  0  0  0  0
  3 11  1  0  0  0  0
  4  9  1  0  0  0  0
  5 10  1  0  0  0  0
  5  4  1  0  0  0  0
  6  5  2  0  0  0  0
  7  1  1  0  0  0  0
 11 12  1  0  0  0  0
 13 14  1  6  0  0  0
 13 15  1  0  0  0  0
 13 17  1  0  0  0  0
 14 18  1  0  0  0  0
 15  8  1  0  0  0  0
 16  2  2  0  0  0  0
 19 14  1  0  0  0  0
 20 14  1  0  0  0  0
 21  6  1  0  0  0  0
M  RAD  4   1   2  11   2  12   3  17   2
M  END
