Coordinates from ORCA-job Ph-N2-H-OTf-B3LYPG-6-31G_dp-scan-d09-49-n400
 OpenBabel08281820563D

 21 20  0  0  0  0  0  0  0  0999 V2000
   -2.1404    0.8823   -6.1073 C   0  0  0  0  0  0  0  0  0  0  0  0
   -1.1299    1.4638   -5.2329 C   0  0  0  0  0  0  0  0  0  0  0  0
   -0.6706    0.5035   -4.1903 C   0  0  0  0  0  0  0  0  0  0  0  0
   -1.1464   -0.8384   -4.0644 C   0  0  0  0  0  0  0  0  0  0  0  0
   -2.0928   -1.2799   -4.9412 C   0  0  0  0  0  0  0  0  0  0  0  0
   -2.5845   -0.4001   -5.9627 C   0  0  0  0  0  0  0  0  0  0  0  0
   -2.5229    1.5335   -6.8868 H   0  0  0  0  0  0  0  0  0  0  0  0
    2.9834    2.5681   -6.0057 H   0  0  0  0  0  0  0  0  0  0  0  0
   -0.7455   -1.4736   -3.2811 H   0  0  0  0  0  0  0  0  0  0  0  0
   -2.4748   -2.2920   -4.8711 H   0  0  0  0  0  0  0  0  0  0  0  0
    0.2405    0.9811   -3.3550 N   0  0  0  0  0  0  0  0  0  0  0  0
    1.0084    1.5033   -2.7099 N   0  0  0  0  0  0  0  0  0  0  0  0
    3.4034    0.4237   -6.1906 S   0  0  1  0  0  0  0  0  0  0  0  0
    2.1928    0.6263   -7.6322 C   0  0  0  0  0  0  0  0  0  0  0  0
    3.7899    2.0355   -6.1469 O   0  0  0  0  0  0  0  0  0  0  0  0
   -0.6899    2.6134   -5.3196 O   0  0  0  0  0  0  0  0  0  0  0  0
    2.5420    0.0401   -5.0447 O   0  0  0  0  0  0  0  0  0  0  0  0
    1.3511    1.6421   -7.4022 F   0  0  0  0  0  0  0  0  0  0  0  0
    2.8815    0.8689   -8.7519 F   0  0  0  0  0  0  0  0  0  0  0  0
    1.4980   -0.5030   -7.7743 F   0  0  0  0  0  0  0  0  0  0  0  0
   -3.3414   -0.7774   -6.6464 H   0  0  0  0  0  0  0  0  0  0  0  0
  1  6  1  0  0  0  0
  1  2  1  0  0  0  0
  2  3  1  0  0  0  0
  3  4  2  0  0  0  0
  3 11  1  0  0  0  0
  4  9  1  0  0  0  0
  5 10  1  0  0  0  0
  5  4  1  0  0  0  0
  6  5  2  0  0  0  0
  7  1  1  0  0  0  0
 11 12  1  0  0  0  0
 13 14  1  6  0  0  0
 13 15  1  0  0  0  0
 13 17  1  0  0  0  0
 14 18  1  0  0  0  0
 15  8  1  0  0  0  0
 16  2  2  0  0  0  0
 19 14  1  0  0  0  0
 20 14  1  0  0  0  0
 21  6  1  0  0  0  0
M  RAD  4   1   2  11   2  12   3  17   2
M  END
