Coordinates from ORCA-job Ph-N2-H-OTf-B3LYPG-6-31G_dp-scan-d09-49-n400
 OpenBabel08281820563D

 21 20  0  0  0  0  0  0  0  0999 V2000
   -2.9800    0.9473   -5.6641 C   0  0  0  0  0  0  0  0  0  0  0  0
   -1.8103    1.7143   -5.2498 C   0  0  0  0  0  0  0  0  0  0  0  0
   -0.6983    0.8342   -4.7652 C   0  0  0  0  0  0  0  0  0  0  0  0
   -0.7580   -0.5991   -4.7309 C   0  0  0  0  0  0  0  0  0  0  0  0
   -1.9025   -1.2041   -5.1509 C   0  0  0  0  0  0  0  0  0  0  0  0
   -3.0133   -0.4142   -5.6126 C   0  0  0  0  0  0  0  0  0  0  0  0
   -3.8247    1.5278   -6.0202 H   0  0  0  0  0  0  0  0  0  0  0  0
    3.0883    1.9728   -5.1350 H   0  0  0  0  0  0  0  0  0  0  0  0
    0.1134   -1.1513   -4.3982 H   0  0  0  0  0  0  0  0  0  0  0  0
   -1.9806   -2.2859   -5.1454 H   0  0  0  0  0  0  0  0  0  0  0  0
    0.3743    1.4751   -4.3571 N   0  0  0  0  0  0  0  0  0  0  0  0
    1.2452    2.1315   -4.0395 N   0  0  0  0  0  0  0  0  0  0  0  0
    3.6159   -0.0251   -5.8631 S   0  0  1  0  0  0  0  0  0  0  0  0
    2.6698    0.4918   -7.4177 C   0  0  0  0  0  0  0  0  0  0  0  0
    3.9261    1.5233   -5.3780 O   0  0  0  0  0  0  0  0  0  0  0  0
   -1.7131    2.9401   -5.2792 O   0  0  0  0  0  0  0  0  0  0  0  0
    2.5724   -0.6520   -5.0081 O   0  0  0  0  0  0  0  0  0  0  0  0
    1.6892    1.3542   -7.1099 F   0  0  0  0  0  0  0  0  0  0  0  0
    3.5110    1.0700   -8.2770 F   0  0  0  0  0  0  0  0  0  0  0  0
    2.1388   -0.5965   -7.9782 F   0  0  0  0  0  0  0  0  0  0  0  0
   -3.9120   -0.9331   -5.9368 H   0  0  0  0  0  0  0  0  0  0  0  0
  1  6  1  0  0  0  0
  1  2  1  0  0  0  0
  2  3  1  0  0  0  0
  3  4  2  0  0  0  0
  3 11  1  0  0  0  0
  4  9  1  0  0  0  0
  5 10  1  0  0  0  0
  5  4  1  0  0  0  0
  6  5  2  0  0  0  0
  7  1  1  0  0  0  0
 11 12  1  0  0  0  0
 13 14  1  6  0  0  0
 13 15  1  0  0  0  0
 13 17  1  0  0  0  0
 14 18  1  0  0  0  0
 15  8  1  0  0  0  0
 16  2  2  0  0  0  0
 19 14  1  0  0  0  0
 20 14  1  0  0  0  0
 21  6  1  0  0  0  0
M  RAD  4   1   2  11   2  12   3  17   2
M  END
