Coordinates from ORCA-job Ph-N2-H-OTf-B3LYPG-6-31G_dp-scan-d09-49-n400
 OpenBabel08281820563D

 21 20  0  0  0  0  0  0  0  0999 V2000
   -2.0459    0.8448   -6.0871 C   0  0  0  0  0  0  0  0  0  0  0  0
   -0.9183    1.3083   -5.2955 C   0  0  0  0  0  0  0  0  0  0  0  0
   -0.6151    0.4025   -4.1601 C   0  0  0  0  0  0  0  0  0  0  0  0
   -1.3247   -0.8069   -3.8834 C   0  0  0  0  0  0  0  0  0  0  0  0
   -2.3622   -1.1549   -4.6973 C   0  0  0  0  0  0  0  0  0  0  0  0
   -2.7149   -0.3110   -5.8010 C   0  0  0  0  0  0  0  0  0  0  0  0
   -2.3224    1.4704   -6.9296 H   0  0  0  0  0  0  0  0  0  0  0  0
    2.1834    2.5140   -5.8694 H   0  0  0  0  0  0  0  0  0  0  0  0
   -1.0254   -1.4184   -3.0384 H   0  0  0  0  0  0  0  0  0  0  0  0
   -2.9193   -2.0668   -4.5151 H   0  0  0  0  0  0  0  0  0  0  0  0
    0.3828    0.7886   -3.3750 N   0  0  0  0  0  0  0  0  0  0  0  0
    1.2318    1.2134   -2.7629 N   0  0  0  0  0  0  0  0  0  0  0  0
    3.3626    0.6910   -6.1665 S   0  0  1  0  0  0  0  0  0  0  0  0
    2.5560    0.6877   -7.8771 C   0  0  0  0  0  0  0  0  0  0  0  0
    3.1391    2.3065   -5.9120 O   0  0  0  0  0  0  0  0  0  0  0  0
   -0.2802    2.3470   -5.5189 O   0  0  0  0  0  0  0  0  0  0  0  0
    2.4423   -0.1211   -5.3283 O   0  0  0  0  0  0  0  0  0  0  0  0
    1.3393    1.2376   -7.8452 F   0  0  0  0  0  0  0  0  0  0  0  0
    3.3308    1.3749   -8.7237 F   0  0  0  0  0  0  0  0  0  0  0  0
    2.4604   -0.5779   -8.2981 F   0  0  0  0  0  0  0  0  0  0  0  0
   -3.5482   -0.6088   -6.4327 H   0  0  0  0  0  0  0  0  0  0  0  0
  1  6  1  0  0  0  0
  1  2  1  0  0  0  0
  2  3  1  0  0  0  0
  3  4  2  0  0  0  0
  3 11  1  0  0  0  0
  4  9  1  0  0  0  0
  5 10  1  0  0  0  0
  5  4  1  0  0  0  0
  6  5  2  0  0  0  0
  7  1  1  0  0  0  0
 11 12  1  0  0  0  0
 13 14  1  6  0  0  0
 13 15  1  0  0  0  0
 13 17  1  0  0  0  0
 14 18  1  0  0  0  0
 15  8  1  0  0  0  0
 16  2  2  0  0  0  0
 19 14  1  0  0  0  0
 20 14  1  0  0  0  0
 21  6  1  0  0  0  0
M  RAD  4   1   2  11   2  12   3  17   2
M  END
