Coordinates from ORCA-job Ph-N2-H-OTf-B3LYPG-6-31G_dp-scan-d09-49-n400
 OpenBabel08281820563D

 21 20  0  0  0  0  0  0  0  0999 V2000
   -2.1008    0.8549   -6.0833 C   0  0  0  0  0  0  0  0  0  0  0  0
   -1.0374    1.3807   -5.2383 C   0  0  0  0  0  0  0  0  0  0  0  0
   -0.6717    0.4394   -4.1448 C   0  0  0  0  0  0  0  0  0  0  0  0
   -1.2732   -0.8425   -3.9502 C   0  0  0  0  0  0  0  0  0  0  0  0
   -2.2587   -1.2374   -4.8060 C   0  0  0  0  0  0  0  0  0  0  0  0
   -2.6657   -0.3698   -5.8736 C   0  0  0  0  0  0  0  0  0  0  0  0
   -2.4192    1.4977   -6.8977 H   0  0  0  0  0  0  0  0  0  0  0  0
    2.6727    2.6228   -5.9890 H   0  0  0  0  0  0  0  0  0  0  0  0
   -0.9349   -1.4707   -3.1325 H   0  0  0  0  0  0  0  0  0  0  0  0
   -2.7344   -2.2039   -4.6849 H   0  0  0  0  0  0  0  0  0  0  0  0
    0.2810    0.8701   -3.3298 N   0  0  0  0  0  0  0  0  0  0  0  0
    1.0896    1.3477   -2.7006 N   0  0  0  0  0  0  0  0  0  0  0  0
    3.4134    0.5679   -6.1942 S   0  0  1  0  0  0  0  0  0  0  0  0
    2.4044    0.6555   -7.7921 C   0  0  0  0  0  0  0  0  0  0  0  0
    3.5564    2.2124   -6.0565 O   0  0  0  0  0  0  0  0  0  0  0  0
   -0.4927    2.4797   -5.3843 O   0  0  0  0  0  0  0  0  0  0  0  0
    2.4633    0.0168   -5.1957 O   0  0  0  0  0  0  0  0  0  0  0  0
    1.3624    1.4827   -7.6534 F   0  0  0  0  0  0  0  0  0  0  0  0
    3.1895    1.0944   -8.7815 F   0  0  0  0  0  0  0  0  0  0  0  0
    1.9637   -0.5693   -8.0890 F   0  0  0  0  0  0  0  0  0  0  0  0
   -3.4561   -0.7080   -6.5395 H   0  0  0  0  0  0  0  0  0  0  0  0
  1  6  1  0  0  0  0
  1  2  1  0  0  0  0
  2  3  1  0  0  0  0
  3  4  2  0  0  0  0
  3 11  1  0  0  0  0
  4  9  1  0  0  0  0
  5 10  1  0  0  0  0
  5  4  1  0  0  0  0
  6  5  2  0  0  0  0
  7  1  1  0  0  0  0
 11 12  1  0  0  0  0
 13 14  1  6  0  0  0
 13 15  1  0  0  0  0
 13 17  1  0  0  0  0
 14 18  1  0  0  0  0
 15  8  1  0  0  0  0
 16  2  2  0  0  0  0
 19 14  1  0  0  0  0
 20 14  1  0  0  0  0
 21  6  1  0  0  0  0
M  RAD  4   1   2  11   2  12   3  17   2
M  END
