Coordinates from ORCA-job Ph-N2-H-OTf-B3LYPG-6-31G_dp-scan-d09-49-n400
 OpenBabel08281820563D

 21 20  0  0  0  0  0  0  0  0999 V2000
   -1.8903    0.8830   -6.1580 C   0  0  0  0  0  0  0  0  0  0  0  0
   -0.6909    1.2239   -5.4514 C   0  0  0  0  0  0  0  0  0  0  0  0
   -0.4429    0.3966   -4.2799 C   0  0  0  0  0  0  0  0  0  0  0  0
   -1.2755   -0.6927   -3.8862 C   0  0  0  0  0  0  0  0  0  0  0  0
   -2.3903   -0.9650   -4.6295 C   0  0  0  0  0  0  0  0  0  0  0  0
   -2.6915   -0.1599   -5.7657 C   0  0  0  0  0  0  0  0  0  0  0  0
   -2.1173    1.4816   -7.0332 H   0  0  0  0  0  0  0  0  0  0  0  0
    1.3016    2.1696   -5.7092 H   0  0  0  0  0  0  0  0  0  0  0  0
   -1.0080   -1.2760   -3.0118 H   0  0  0  0  0  0  0  0  0  0  0  0
   -3.0407   -1.7885   -4.3577 H   0  0  0  0  0  0  0  0  0  0  0  0
    0.6076    0.7121   -3.5065 N   0  0  0  0  0  0  0  0  0  0  0  0
    1.4688    1.0240   -2.8568 N   0  0  0  0  0  0  0  0  0  0  0  0
    3.1524    0.8132   -6.0217 S   0  0  1  0  0  0  0  0  0  0  0  0
    2.5971    0.6941   -7.8265 C   0  0  0  0  0  0  0  0  0  0  0  0
    2.4311    2.1862   -5.6568 O   0  0  0  0  0  0  0  0  0  0  0  0
    0.0555    2.1833   -5.8177 O   0  0  0  0  0  0  0  0  0  0  0  0
    2.4382   -0.3432   -5.3841 O   0  0  0  0  0  0  0  0  0  0  0  0
    1.2686    0.5404   -7.9363 F   0  0  0  0  0  0  0  0  0  0  0  0
    2.9643    1.7934   -8.4981 F   0  0  0  0  0  0  0  0  0  0  0  0
    3.1970   -0.3694   -8.3858 F   0  0  0  0  0  0  0  0  0  0  0  0
   -3.5831   -0.3855   -6.3439 H   0  0  0  0  0  0  0  0  0  0  0  0
  1  6  1  0  0  0  0
  1  2  1  0  0  0  0
  2  3  1  0  0  0  0
  3  4  2  0  0  0  0
  3 11  1  0  0  0  0
  4  9  1  0  0  0  0
  5 10  1  0  0  0  0
  5  4  1  0  0  0  0
  6  5  2  0  0  0  0
  7  1  1  0  0  0  0
  8 15  1  0  0  0  0
 11 12  1  0  0  0  0
 13 14  1  6  0  0  0
 13 15  1  0  0  0  0
 13 17  1  0  0  0  0
 16  2  2  0  0  0  0
 18 14  1  0  0  0  0
 19 14  1  0  0  0  0
 20 14  1  0  0  0  0
 21  6  1  0  0  0  0
M  RAD  4   1   2  11   2  12   3  17   2
M  END
