Coordinates from ORCA-job Ph-N2-H-OTf-B3LYPG-6-31G_dp-scan-d09-49-n400
 OpenBabel08281820563D

 21 20  0  0  0  0  0  0  0  0999 V2000
   -2.0854    0.8595   -6.0836 C   0  0  0  0  0  0  0  0  0  0  0  0
   -1.0131    1.3727   -5.2430 C   0  0  0  0  0  0  0  0  0  0  0  0
   -0.6589    0.4313   -4.1468 C   0  0  0  0  0  0  0  0  0  0  0  0
   -1.2765   -0.8421   -3.9473 C   0  0  0  0  0  0  0  0  0  0  0  0
   -2.2683   -1.2270   -4.8004 C   0  0  0  0  0  0  0  0  0  0  0  0
   -2.6661   -0.3572   -5.8694 C   0  0  0  0  0  0  0  0  0  0  0  0
   -2.3968    1.5042   -6.8993 H   0  0  0  0  0  0  0  0  0  0  0  0
    2.5819    2.6192   -5.9819 H   0  0  0  0  0  0  0  0  0  0  0  0
   -0.9452   -1.4721   -3.1280 H   0  0  0  0  0  0  0  0  0  0  0  0
   -2.7560   -2.1871   -4.6759 H   0  0  0  0  0  0  0  0  0  0  0  0
    0.2978    0.8533   -3.3315 N   0  0  0  0  0  0  0  0  0  0  0  0
    1.1103    1.3222   -2.7010 N   0  0  0  0  0  0  0  0  0  0  0  0
    3.4091    0.5987   -6.1877 S   0  0  1  0  0  0  0  0  0  0  0  0
    2.4164    0.6498   -7.7979 C   0  0  0  0  0  0  0  0  0  0  0  0
    3.4827    2.2466   -6.0430 O   0  0  0  0  0  0  0  0  0  0  0  0
   -0.4534    2.4641   -5.3946 O   0  0  0  0  0  0  0  0  0  0  0  0
    2.4709    0.0058   -5.2017 O   0  0  0  0  0  0  0  0  0  0  0  0
    1.3564    1.4574   -7.6812 F   0  0  0  0  0  0  0  0  0  0  0  0
    3.2048    1.0946   -8.7822 F   0  0  0  0  0  0  0  0  0  0  0  0
    2.0037   -0.5864   -8.0878 F   0  0  0  0  0  0  0  0  0  0  0  0
   -3.4623   -0.6866   -6.5327 H   0  0  0  0  0  0  0  0  0  0  0  0
  1  6  1  0  0  0  0
  1  2  1  0  0  0  0
  2  3  1  0  0  0  0
  3  4  2  0  0  0  0
  3 11  1  0  0  0  0
  4  9  1  0  0  0  0
  5 10  1  0  0  0  0
  5  4  1  0  0  0  0
  6  5  2  0  0  0  0
  7  1  1  0  0  0  0
 11 12  1  0  0  0  0
 13 14  1  6  0  0  0
 13 15  1  0  0  0  0
 13 17  1  0  0  0  0
 14 18  1  0  0  0  0
 15  8  1  0  0  0  0
 16  2  2  0  0  0  0
 19 14  1  0  0  0  0
 20 14  1  0  0  0  0
 21  6  1  0  0  0  0
M  RAD  4   1   2  11   2  12   3  17   2
M  END
