Coordinates from ORCA-job Ph-N2-H-OTf-B3LYPG-6-31G_dp-scan-d09-49-n400
 OpenBabel08281820563D

 21 20  0  0  0  0  0  0  0  0999 V2000
   -1.9143    0.8527   -6.1388 C   0  0  0  0  0  0  0  0  0  0  0  0
   -0.7351    1.2252   -5.3912 C   0  0  0  0  0  0  0  0  0  0  0  0
   -0.5113    0.3781   -4.2102 C   0  0  0  0  0  0  0  0  0  0  0  0
   -1.3414   -0.7272   -3.8484 C   0  0  0  0  0  0  0  0  0  0  0  0
   -2.4248   -1.0120   -4.6285 C   0  0  0  0  0  0  0  0  0  0  0  0
   -2.7028   -0.2052   -5.7759 C   0  0  0  0  0  0  0  0  0  0  0  0
   -2.1293    1.4518   -7.0172 H   0  0  0  0  0  0  0  0  0  0  0  0
    1.6153    2.2723   -5.7266 H   0  0  0  0  0  0  0  0  0  0  0  0
   -1.0947   -1.3118   -2.9685 H   0  0  0  0  0  0  0  0  0  0  0  0
   -3.0721   -1.8461   -4.3827 H   0  0  0  0  0  0  0  0  0  0  0  0
    0.5220    0.7035   -3.4325 N   0  0  0  0  0  0  0  0  0  0  0  0
    1.3921    1.0434   -2.8025 N   0  0  0  0  0  0  0  0  0  0  0  0
    3.2370    0.8256   -6.1083 S   0  0  1  0  0  0  0  0  0  0  0  0
    2.5943    0.7015   -7.8826 C   0  0  0  0  0  0  0  0  0  0  0  0
    2.6258    2.2951   -5.7776 O   0  0  0  0  0  0  0  0  0  0  0  0
    0.0061    2.1829   -5.7067 O   0  0  0  0  0  0  0  0  0  0  0  0
    2.4773   -0.2394   -5.3887 O   0  0  0  0  0  0  0  0  0  0  0  0
    1.2591    0.6845   -7.9370 F   0  0  0  0  0  0  0  0  0  0  0  0
    3.0540    1.7317   -8.6013 F   0  0  0  0  0  0  0  0  0  0  0  0
    3.0662   -0.4385   -8.4101 F   0  0  0  0  0  0  0  0  0  0  0  0
   -3.5719   -0.4472   -6.3819 H   0  0  0  0  0  0  0  0  0  0  0  0
  1  6  1  0  0  0  0
  1  2  1  0  0  0  0
  2  3  1  0  0  0  0
  3  4  2  0  0  0  0
  3 11  1  0  0  0  0
  4  9  1  0  0  0  0
  5 10  1  0  0  0  0
  5  4  1  0  0  0  0
  6  5  2  0  0  0  0
  7  1  1  0  0  0  0
 11 12  1  0  0  0  0
 13 14  1  6  0  0  0
 13 15  1  0  0  0  0
 13 17  1  0  0  0  0
 15  8  1  0  0  0  0
 16  2  2  0  0  0  0
 18 14  1  0  0  0  0
 19 14  1  0  0  0  0
 20 14  1  0  0  0  0
 21  6  1  0  0  0  0
M  RAD  4   1   2  11   2  12   3  17   2
M  END
