Coordinates from ORCA-job Ph-N2-H-OTf-B3LYPG-6-31G_dp-scan-d09-49-n400
 OpenBabel08281820563D

 21 20  0  0  0  0  0  0  0  0999 V2000
   -2.0925    0.8414   -6.0772 C   0  0  0  0  0  0  0  0  0  0  0  0
   -0.9737    1.3273   -5.2843 C   0  0  0  0  0  0  0  0  0  0  0  0
   -0.6413    0.4143   -4.1602 C   0  0  0  0  0  0  0  0  0  0  0  0
   -1.3181   -0.8162   -3.8949 C   0  0  0  0  0  0  0  0  0  0  0  0
   -2.3498   -1.1815   -4.7084 C   0  0  0  0  0  0  0  0  0  0  0  0
   -2.7295   -0.3343   -5.8012 C   0  0  0  0  0  0  0  0  0  0  0  0
   -2.3900    1.4692   -6.9109 H   0  0  0  0  0  0  0  0  0  0  0  0
    2.3361    2.5417   -5.9019 H   0  0  0  0  0  0  0  0  0  0  0  0
   -0.9990   -1.4299   -3.0587 H   0  0  0  0  0  0  0  0  0  0  0  0
   -2.8825   -2.1094   -4.5343 H   0  0  0  0  0  0  0  0  0  0  0  0
    0.3525    0.8176   -3.3799 N   0  0  0  0  0  0  0  0  0  0  0  0
    1.1977    1.2637   -2.7768 N   0  0  0  0  0  0  0  0  0  0  0  0
    3.3929    0.6404   -6.1718 S   0  0  1  0  0  0  0  0  0  0  0  0
    2.5563    0.6915   -7.8669 C   0  0  0  0  0  0  0  0  0  0  0  0
    3.2752    2.2706   -5.9235 O   0  0  0  0  0  0  0  0  0  0  0  0
   -0.3635    2.3830   -5.4957 O   0  0  0  0  0  0  0  0  0  0  0  0
    2.4364   -0.1095   -5.3177 O   0  0  0  0  0  0  0  0  0  0  0  0
    1.3818    1.3260   -7.8057 F   0  0  0  0  0  0  0  0  0  0  0  0
    3.3575    1.3249   -8.7301 F   0  0  0  0  0  0  0  0  0  0  0  0
    2.3629   -0.5631   -8.2848 F   0  0  0  0  0  0  0  0  0  0  0  0
   -3.5579   -0.6468   -6.4322 H   0  0  0  0  0  0  0  0  0  0  0  0
  1  6  1  0  0  0  0
  1  2  1  0  0  0  0
  2  3  1  0  0  0  0
  3  4  2  0  0  0  0
  3 11  1  0  0  0  0
  4  9  1  0  0  0  0
  5 10  1  0  0  0  0
  5  4  1  0  0  0  0
  6  5  2  0  0  0  0
  7  1  1  0  0  0  0
 11 12  1  0  0  0  0
 13 14  1  6  0  0  0
 13 15  1  0  0  0  0
 13 17  1  0  0  0  0
 14 18  1  0  0  0  0
 15  8  1  0  0  0  0
 16  2  2  0  0  0  0
 19 14  1  0  0  0  0
 20 14  1  0  0  0  0
 21  6  1  0  0  0  0
M  RAD  4   1   2  11   2  12   3  17   2
M  END
