Coordinates from ORCA-job Ph-N2-H-OTf-B3LYPG-6-31G_dp-scan-d09-49-n400
 OpenBabel08281820563D

 21 20  0  0  0  0  0  0  0  0999 V2000
   -2.3859    1.0434   -5.9870 C   0  0  0  0  0  0  0  0  0  0  0  0
   -1.3716    1.6959   -5.1683 C   0  0  0  0  0  0  0  0  0  0  0  0
   -0.5671    0.7151   -4.3817 C   0  0  0  0  0  0  0  0  0  0  0  0
   -0.7278   -0.7041   -4.4536 C   0  0  0  0  0  0  0  0  0  0  0  0
   -1.7004   -1.2053   -5.2667 C   0  0  0  0  0  0  0  0  0  0  0  0
   -2.5308   -0.3130   -6.0260 C   0  0  0  0  0  0  0  0  0  0  0  0
   -3.0181    1.7024   -6.5731 H   0  0  0  0  0  0  0  0  0  0  0  0
    2.8092    2.2956   -5.7594 H   0  0  0  0  0  0  0  0  0  0  0  0
   -0.0692   -1.3414   -3.8741 H   0  0  0  0  0  0  0  0  0  0  0  0
   -1.8498   -2.2767   -5.3449 H   0  0  0  0  0  0  0  0  0  0  0  0
    0.3513    1.2633   -3.6029 N   0  0  0  0  0  0  0  0  0  0  0  0
    1.0882    1.8689   -2.9932 N   0  0  0  0  0  0  0  0  0  0  0  0
    3.3481    0.1859   -6.0215 S   0  0  1  0  0  0  0  0  0  0  0  0
    2.0377    0.3432   -7.3816 C   0  0  0  0  0  0  0  0  0  0  0  0
    3.6365    1.8162   -5.9608 O   0  0  0  0  0  0  0  0  0  0  0  0
   -1.1701    2.9111   -5.1140 O   0  0  0  0  0  0  0  0  0  0  0  0
    2.5826   -0.2721   -4.8342 O   0  0  0  0  0  0  0  0  0  0  0  0
    1.1758    1.3313   -7.0942 F   0  0  0  0  0  0  0  0  0  0  0  0
    2.6417    0.6126   -8.5416 F   0  0  0  0  0  0  0  0  0  0  0  0
    1.3736   -0.8074   -7.4786 F   0  0  0  0  0  0  0  0  0  0  0  0
   -3.3023   -0.7441   -6.6596 H   0  0  0  0  0  0  0  0  0  0  0  0
  1  2  1  0  0  0  0
  2 16  2  0  0  0  0
  2  3  1  0  0  0  0
  3 11  1  0  0  0  0
  4  3  2  0  0  0  0
  4  9  1  0  0  0  0
  5  4  1  0  0  0  0
  6  1  1  0  0  0  0
  6  5  2  0  0  0  0
  7  1  1  0  0  0  0
 10  5  1  0  0  0  0
 11 12  1  0  0  0  0
 13 14  1  6  0  0  0
 13 15  1  0  0  0  0
 13 17  1  0  0  0  0
 14 18  1  0  0  0  0
 15  8  1  0  0  0  0
 19 14  1  0  0  0  0
 20 14  1  0  0  0  0
 21  6  1  0  0  0  0
M  RAD  4   1   2  11   2  12   3  17   2
M  END
