Coordinates from ORCA-job Ph-N2-H-OTf-B3LYPG-6-31G_dp-scan-d09-49-n400
 OpenBabel08281820563D

 21 20  0  0  0  0  0  0  0  0999 V2000
   -2.0873    0.8418   -6.0781 C   0  0  0  0  0  0  0  0  0  0  0  0
   -0.9673    1.3250   -5.2855 C   0  0  0  0  0  0  0  0  0  0  0  0
   -0.6382    0.4128   -4.1601 C   0  0  0  0  0  0  0  0  0  0  0  0
   -1.3191   -0.8152   -3.8933 C   0  0  0  0  0  0  0  0  0  0  0  0
   -2.3517   -1.1783   -4.7066 C   0  0  0  0  0  0  0  0  0  0  0  0
   -2.7282   -0.3315   -5.8007 C   0  0  0  0  0  0  0  0  0  0  0  0
   -2.3824    1.4694   -6.9128 H   0  0  0  0  0  0  0  0  0  0  0  0
    2.3162    2.5384   -5.8995 H   0  0  0  0  0  0  0  0  0  0  0  0
   -1.0023   -1.4286   -3.0560 H   0  0  0  0  0  0  0  0  0  0  0  0
   -2.8875   -2.1043   -4.5314 H   0  0  0  0  0  0  0  0  0  0  0  0
    0.3563    0.8139   -3.3795 N   0  0  0  0  0  0  0  0  0  0  0  0
    1.2022    1.2574   -2.7756 N   0  0  0  0  0  0  0  0  0  0  0  0
    3.3896    0.6465   -6.1708 S   0  0  1  0  0  0  0  0  0  0  0  0
    2.5575    0.6913   -7.8684 C   0  0  0  0  0  0  0  0  0  0  0  0
    3.2577    2.2752   -5.9214 O   0  0  0  0  0  0  0  0  0  0  0  0
   -0.3536    2.3787   -5.4985 O   0  0  0  0  0  0  0  0  0  0  0  0
    2.4372   -0.1122   -5.3198 O   0  0  0  0  0  0  0  0  0  0  0  0
    1.3778    1.3164   -7.8113 F   0  0  0  0  0  0  0  0  0  0  0  0
    3.3567    1.3310   -8.7289 F   0  0  0  0  0  0  0  0  0  0  0  0
    2.3756   -0.5648   -8.2869 F   0  0  0  0  0  0  0  0  0  0  0  0
   -3.5574   -0.6422   -6.4317 H   0  0  0  0  0  0  0  0  0  0  0  0
  1  6  1  0  0  0  0
  1  2  1  0  0  0  0
  2  3  1  0  0  0  0
  3  4  2  0  0  0  0
  3 11  1  0  0  0  0
  4  9  1  0  0  0  0
  5 10  1  0  0  0  0
  5  4  1  0  0  0  0
  6  5  2  0  0  0  0
  7  1  1  0  0  0  0
 11 12  1  0  0  0  0
 13 14  1  6  0  0  0
 13 15  1  0  0  0  0
 13 17  1  0  0  0  0
 14 18  1  0  0  0  0
 15  8  1  0  0  0  0
 16  2  2  0  0  0  0
 19 14  1  0  0  0  0
 20 14  1  0  0  0  0
 21  6  1  0  0  0  0
M  RAD  4   1   2  11   2  12   3  17   2
M  END
