Coordinates from ORCA-job Ph-N2-H-OTf-B3LYPG-6-31G_dp-scan-d09-49-n400
 OpenBabel08281820563D

 21 20  0  0  0  0  0  0  0  0999 V2000
   -2.0198    0.8544   -6.0964 C   0  0  0  0  0  0  0  0  0  0  0  0
   -0.8929    1.3087   -5.2993 C   0  0  0  0  0  0  0  0  0  0  0  0
   -0.6022    0.4013   -4.1627 C   0  0  0  0  0  0  0  0  0  0  0  0
   -1.3217   -0.8032   -3.8900 C   0  0  0  0  0  0  0  0  0  0  0  0
   -2.3573   -1.1438   -4.7095 C   0  0  0  0  0  0  0  0  0  0  0  0
   -2.6985   -0.2969   -5.8144 C   0  0  0  0  0  0  0  0  0  0  0  0
   -2.2869    1.4823   -6.9402 H   0  0  0  0  0  0  0  0  0  0  0  0
    2.1449    2.5033   -5.8125 H   0  0  0  0  0  0  0  0  0  0  0  0
   -1.0312   -1.4169   -3.0435 H   0  0  0  0  0  0  0  0  0  0  0  0
   -2.9216   -2.0519   -4.5306 H   0  0  0  0  0  0  0  0  0  0  0  0
    0.3922    0.7812   -3.3697 N   0  0  0  0  0  0  0  0  0  0  0  0
    1.2380    1.1994   -2.7488 N   0  0  0  0  0  0  0  0  0  0  0  0
    3.3600    0.7180   -6.1752 S   0  0  1  0  0  0  0  0  0  0  0  0
    2.5249    0.6684   -7.8711 C   0  0  0  0  0  0  0  0  0  0  0  0
    3.1017    2.3289   -5.9302 O   0  0  0  0  0  0  0  0  0  0  0  0
   -0.2458    2.3427   -5.5214 O   0  0  0  0  0  0  0  0  0  0  0  0
    2.4752   -0.1049   -5.3088 O   0  0  0  0  0  0  0  0  0  0  0  0
    1.2777    1.1410   -7.8218 F   0  0  0  0  0  0  0  0  0  0  0  0
    3.2438    1.3997   -8.7299 F   0  0  0  0  0  0  0  0  0  0  0  0
    2.5019   -0.6022   -8.2903 F   0  0  0  0  0  0  0  0  0  0  0  0
   -3.5303   -0.5886   -6.4508 H   0  0  0  0  0  0  0  0  0  0  0  0
  1  6  1  0  0  0  0
  1  2  1  0  0  0  0
  2  3  1  0  0  0  0
  3  4  2  0  0  0  0
  3 11  1  0  0  0  0
  4  9  1  0  0  0  0
  5 10  1  0  0  0  0
  5  4  1  0  0  0  0
  6  5  2  0  0  0  0
  7  1  1  0  0  0  0
 11 12  1  0  0  0  0
 13 14  1  6  0  0  0
 13 15  1  0  0  0  0
 13 17  1  0  0  0  0
 14 18  1  0  0  0  0
 15  8  1  0  0  0  0
 16  2  2  0  0  0  0
 19 14  1  0  0  0  0
 20 14  1  0  0  0  0
 21  6  1  0  0  0  0
M  RAD  4   1   2  11   2  12   3  17   2
M  END
