Coordinates from ORCA-job Ph-N2-H-OTf-B3LYPG-6-31G_dp-scan-d09-49-n400
 OpenBabel08281820563D

 21 20  0  0  0  0  0  0  0  0999 V2000
   -2.0554    0.8437   -6.0851 C   0  0  0  0  0  0  0  0  0  0  0  0
   -0.9283    1.3109   -5.2946 C   0  0  0  0  0  0  0  0  0  0  0  0
   -0.6198    0.4044   -4.1607 C   0  0  0  0  0  0  0  0  0  0  0  0
   -1.3243   -0.8082   -3.8847 C   0  0  0  0  0  0  0  0  0  0  0  0
   -2.3616   -1.1592   -4.6975 C   0  0  0  0  0  0  0  0  0  0  0  0
   -2.7194   -0.3150   -5.7995 C   0  0  0  0  0  0  0  0  0  0  0  0
   -2.3358    1.4694   -6.9263 H   0  0  0  0  0  0  0  0  0  0  0  0
    2.2087    2.5181   -5.8746 H   0  0  0  0  0  0  0  0  0  0  0  0
   -1.0212   -1.4198   -3.0410 H   0  0  0  0  0  0  0  0  0  0  0  0
   -2.9149   -2.0735   -4.5157 H   0  0  0  0  0  0  0  0  0  0  0  0
    0.3780    0.7934   -3.3772 N   0  0  0  0  0  0  0  0  0  0  0  0
    1.2270    1.2215   -2.7673 N   0  0  0  0  0  0  0  0  0  0  0  0
    3.3685    0.6819   -6.1670 S   0  0  1  0  0  0  0  0  0  0  0  0
    2.5589    0.6895   -7.8761 C   0  0  0  0  0  0  0  0  0  0  0  0
    3.1620    2.3001   -5.9120 O   0  0  0  0  0  0  0  0  0  0  0  0
   -0.2945    2.3520   -5.5172 O   0  0  0  0  0  0  0  0  0  0  0  0
    2.4406   -0.1209   -5.3284 O   0  0  0  0  0  0  0  0  0  0  0  0
    1.3483    1.2525   -7.8397 F   0  0  0  0  0  0  0  0  0  0  0  0
    3.3388    1.3698   -8.7234 F   0  0  0  0  0  0  0  0  0  0  0  0
    2.4486   -0.5742   -8.2988 F   0  0  0  0  0  0  0  0  0  0  0  0
   -3.5525   -0.6154   -6.4302 H   0  0  0  0  0  0  0  0  0  0  0  0
  1  6  1  0  0  0  0
  1  2  1  0  0  0  0
  2  3  1  0  0  0  0
  3  4  2  0  0  0  0
  3 11  1  0  0  0  0
  4  9  1  0  0  0  0
  5 10  1  0  0  0  0
  5  4  1  0  0  0  0
  6  5  2  0  0  0  0
  7  1  1  0  0  0  0
 11 12  1  0  0  0  0
 13 14  1  6  0  0  0
 13 15  1  0  0  0  0
 13 17  1  0  0  0  0
 14 18  1  0  0  0  0
 15  8  1  0  0  0  0
 16  2  2  0  0  0  0
 19 14  1  0  0  0  0
 20 14  1  0  0  0  0
 21  6  1  0  0  0  0
M  RAD  4   1   2  11   2  12   3  17   2
M  END
