Coordinates from ORCA-job Ph-N2-H-OTf-B3LYPG-6-31G_dp-scan-d09-49-n400
 OpenBabel08281820563D

 21 20  0  0  0  0  0  0  0  0999 V2000
   -1.9395    0.8565   -6.1206 C   0  0  0  0  0  0  0  0  0  0  0  0
   -0.7735    1.2465   -5.3556 C   0  0  0  0  0  0  0  0  0  0  0  0
   -0.5388    0.3764   -4.1878 C   0  0  0  0  0  0  0  0  0  0  0  0
   -1.3452   -0.7559   -3.8559 C   0  0  0  0  0  0  0  0  0  0  0  0
   -2.4146   -1.0504   -4.6507 C   0  0  0  0  0  0  0  0  0  0  0  0
   -2.7034   -0.2269   -5.7851 C   0  0  0  0  0  0  0  0  0  0  0  0
   -2.1642    1.4679   -6.9882 H   0  0  0  0  0  0  0  0  0  0  0  0
    1.7510    2.3502   -5.7582 H   0  0  0  0  0  0  0  0  0  0  0  0
   -1.0918   -1.3528   -2.9861 H   0  0  0  0  0  0  0  0  0  0  0  0
   -3.0439   -1.9045   -4.4275 H   0  0  0  0  0  0  0  0  0  0  0  0
    0.4830    0.7113   -3.4028 N   0  0  0  0  0  0  0  0  0  0  0  0
    1.3482    1.0681   -2.7736 N   0  0  0  0  0  0  0  0  0  0  0  0
    3.2767    0.8211   -6.1358 S   0  0  1  0  0  0  0  0  0  0  0  0
    2.5836    0.6856   -7.8899 C   0  0  0  0  0  0  0  0  0  0  0  0
    2.7414    2.3383   -5.8442 O   0  0  0  0  0  0  0  0  0  0  0  0
   -0.0530    2.2239   -5.6394 O   0  0  0  0  0  0  0  0  0  0  0  0
    2.4867   -0.1802   -5.3641 O   0  0  0  0  0  0  0  0  0  0  0  0
    1.2547    0.8135   -7.9181 F   0  0  0  0  0  0  0  0  0  0  0  0
    3.1370    1.6297   -8.6590 F   0  0  0  0  0  0  0  0  0  0  0  0
    2.9192   -0.5194   -8.3721 F   0  0  0  0  0  0  0  0  0  0  0  0
   -3.5621   -0.4783   -6.4023 H   0  0  0  0  0  0  0  0  0  0  0  0
  1  6  1  0  0  0  0
  1  2  1  0  0  0  0
  2  3  1  0  0  0  0
  3  4  2  0  0  0  0
  3 11  1  0  0  0  0
  4  9  1  0  0  0  0
  5 10  1  0  0  0  0
  5  4  1  0  0  0  0
  6  5  2  0  0  0  0
  7  1  1  0  0  0  0
 11 12  1  0  0  0  0
 13 14  1  6  0  0  0
 13 15  1  0  0  0  0
 13 17  1  0  0  0  0
 15  8  1  0  0  0  0
 16  2  2  0  0  0  0
 18 14  1  0  0  0  0
 19 14  1  0  0  0  0
 20 14  1  0  0  0  0
 21  6  1  0  0  0  0
M  RAD  4   1   2  11   2  12   3  17   2
M  END
