Coordinates from ORCA-job Ph-N2-H-OTf-B3LYPG-6-31G_dp-scan-d09-49-n400
 OpenBabel08281820563D

 21 20  0  0  0  0  0  0  0  0999 V2000
   -2.8600    0.9389   -5.7758 C   0  0  0  0  0  0  0  0  0  0  0  0
   -1.6894    1.6831   -5.3251 C   0  0  0  0  0  0  0  0  0  0  0  0
   -0.6531    0.7915   -4.7105 C   0  0  0  0  0  0  0  0  0  0  0  0
   -0.7714   -0.6340   -4.6074 C   0  0  0  0  0  0  0  0  0  0  0  0
   -1.9082   -1.2191   -5.0743 C   0  0  0  0  0  0  0  0  0  0  0  0
   -2.9523   -0.4154   -5.6529 C   0  0  0  0  0  0  0  0  0  0  0  0
   -3.6546    1.5292   -6.2204 H   0  0  0  0  0  0  0  0  0  0  0  0
    3.0476    1.9563   -5.1002 H   0  0  0  0  0  0  0  0  0  0  0  0
    0.0524   -1.2002   -4.1883 H   0  0  0  0  0  0  0  0  0  0  0  0
   -2.0303   -2.2952   -5.0178 H   0  0  0  0  0  0  0  0  0  0  0  0
    0.4090    1.4224   -4.2639 N   0  0  0  0  0  0  0  0  0  0  0  0
    1.2676    2.0876   -3.9311 N   0  0  0  0  0  0  0  0  0  0  0  0
    3.5499   -0.0071   -5.9315 S   0  0  1  0  0  0  0  0  0  0  0  0
    2.5553    0.5633   -7.4360 C   0  0  0  0  0  0  0  0  0  0  0  0
    3.8757    1.5233   -5.4015 O   0  0  0  0  0  0  0  0  0  0  0  0
   -1.5350    2.8996   -5.4185 O   0  0  0  0  0  0  0  0  0  0  0  0
    2.5340   -0.6640   -5.0656 O   0  0  0  0  0  0  0  0  0  0  0  0
    1.5802    1.4069   -7.0672 F   0  0  0  0  0  0  0  0  0  0  0  0
    3.3680    1.1788   -8.2971 F   0  0  0  0  0  0  0  0  0  0  0  0
    2.0143   -0.5069   -8.0219 F   0  0  0  0  0  0  0  0  0  0  0  0
   -3.8478   -0.9181   -6.0099 H   0  0  0  0  0  0  0  0  0  0  0  0
  1  6  1  0  0  0  0
  1  2  1  0  0  0  0
  2  3  1  0  0  0  0
  3  4  2  0  0  0  0
  3 11  1  0  0  0  0
  4  9  1  0  0  0  0
  5 10  1  0  0  0  0
  5  4  1  0  0  0  0
  6  5  2  0  0  0  0
  7  1  1  0  0  0  0
 11 12  1  0  0  0  0
 13 14  1  6  0  0  0
 13 15  1  0  0  0  0
 13 17  1  0  0  0  0
 14 18  1  0  0  0  0
 15  8  1  0  0  0  0
 16  2  2  0  0  0  0
 19 14  1  0  0  0  0
 20 14  1  0  0  0  0
 21  6  1  0  0  0  0
M  RAD  4   1   2  11   2  12   3  17   2
M  END
