Coordinates from ORCA-job Ph-N2-H-OTf-B3LYPG-6-31G_dp-scan-d09-49-n400
 OpenBabel08281820563D

 21 20  0  0  0  0  0  0  0  0999 V2000
   -1.9716    0.8559   -6.1078 C   0  0  0  0  0  0  0  0  0  0  0  0
   -0.8218    1.2720   -5.3272 C   0  0  0  0  0  0  0  0  0  0  0  0
   -0.5674    0.3837   -4.1722 C   0  0  0  0  0  0  0  0  0  0  0  0
   -1.3399   -0.7798   -3.8679 C   0  0  0  0  0  0  0  0  0  0  0  0
   -2.3942   -1.0923   -4.6753 C   0  0  0  0  0  0  0  0  0  0  0  0
   -2.7019   -0.2567   -5.7971 C   0  0  0  0  0  0  0  0  0  0  0  0
   -2.2120    1.4760   -6.9651 H   0  0  0  0  0  0  0  0  0  0  0  0
    1.9177    2.4273   -5.7791 H   0  0  0  0  0  0  0  0  0  0  0  0
   -1.0734   -1.3856   -3.0080 H   0  0  0  0  0  0  0  0  0  0  0  0
   -2.9977   -1.9698   -4.4728 H   0  0  0  0  0  0  0  0  0  0  0  0
    0.4419    0.7359   -3.3820 N   0  0  0  0  0  0  0  0  0  0  0  0
    1.3000    1.1177   -2.7562 N   0  0  0  0  0  0  0  0  0  0  0  0
    3.3163    0.7876   -6.1581 S   0  0  1  0  0  0  0  0  0  0  0  0
    2.5609    0.6752   -7.8880 C   0  0  0  0  0  0  0  0  0  0  0  0
    2.8929    2.3526   -5.8916 O   0  0  0  0  0  0  0  0  0  0  0  0
   -0.1300    2.2729   -5.5828 O   0  0  0  0  0  0  0  0  0  0  0  0
    2.4845   -0.1374   -5.3403 O   0  0  0  0  0  0  0  0  0  0  0  0
    1.2556    0.9536   -7.8844 F   0  0  0  0  0  0  0  0  0  0  0  0
    3.1958    1.5290   -8.6985 F   0  0  0  0  0  0  0  0  0  0  0  0
    2.7449   -0.5729   -8.3387 F   0  0  0  0  0  0  0  0  0  0  0  0
   -3.5489   -0.5239   -6.4239 H   0  0  0  0  0  0  0  0  0  0  0  0
  1  6  1  0  0  0  0
  1  2  1  0  0  0  0
  2  3  1  0  0  0  0
  3  4  2  0  0  0  0
  3 11  1  0  0  0  0
  4  9  1  0  0  0  0
  5 10  1  0  0  0  0
  5  4  1  0  0  0  0
  6  5  2  0  0  0  0
  7  1  1  0  0  0  0
 11 12  1  0  0  0  0
 13 14  1  6  0  0  0
 13 15  1  0  0  0  0
 13 17  1  0  0  0  0
 14 18  1  0  0  0  0
 15  8  1  0  0  0  0
 16  2  2  0  0  0  0
 19 14  1  0  0  0  0
 20 14  1  0  0  0  0
 21  6  1  0  0  0  0
M  RAD  4   1   2  11   2  12   3  17   2
M  END
