Coordinates from ORCA-job Ph-N2-H-OTf-B3LYPG-6-31G_dp-scan-d09-49-n400
 OpenBabel08281820563D

 21 20  0  0  0  0  0  0  0  0999 V2000
   -2.5822    0.9008   -5.9826 C   0  0  0  0  0  0  0  0  0  0  0  0
   -1.4114    1.5837   -5.4464 C   0  0  0  0  0  0  0  0  0  0  0  0
   -0.5791    0.6858   -4.5802 C   0  0  0  0  0  0  0  0  0  0  0  0
   -0.8552   -0.7003   -4.3531 C   0  0  0  0  0  0  0  0  0  0  0  0
   -1.9707   -1.2347   -4.9219 C   0  0  0  0  0  0  0  0  0  0  0  0
   -2.8336   -0.4153   -5.7304 C   0  0  0  0  0  0  0  0  0  0  0  0
   -3.2402    1.5013   -6.6022 H   0  0  0  0  0  0  0  0  0  0  0  0
    2.9349    1.9644   -5.1003 H   0  0  0  0  0  0  0  0  0  0  0  0
   -0.1672   -1.2858   -3.7537 H   0  0  0  0  0  0  0  0  0  0  0  0
   -2.2120   -2.2810   -4.7726 H   0  0  0  0  0  0  0  0  0  0  0  0
    0.4624    1.2900   -4.0549 N   0  0  0  0  0  0  0  0  0  0  0  0
    1.2944    1.9817   -3.7066 N   0  0  0  0  0  0  0  0  0  0  0  0
    3.4423    0.0721   -6.0760 S   0  0  1  0  0  0  0  0  0  0  0  0
    2.3505    0.7076   -7.4838 C   0  0  0  0  0  0  0  0  0  0  0  0
    3.7576    1.5778   -5.4714 O   0  0  0  0  0  0  0  0  0  0  0  0
   -1.0987    2.7539   -5.6606 O   0  0  0  0  0  0  0  0  0  0  0  0
    2.4961   -0.6646   -5.1955 O   0  0  0  0  0  0  0  0  0  0  0  0
    1.4010    1.5280   -7.0138 F   0  0  0  0  0  0  0  0  0  0  0  0
    3.1072    1.3664   -8.3646 F   0  0  0  0  0  0  0  0  0  0  0  0
    1.7757   -0.3364   -8.0856 F   0  0  0  0  0  0  0  0  0  0  0  0
   -3.7199   -0.8745   -6.1608 H   0  0  0  0  0  0  0  0  0  0  0  0
  1  6  1  0  0  0  0
  1  2  1  0  0  0  0
  2  3  1  0  0  0  0
  3  4  2  0  0  0  0
  3 11  1  0  0  0  0
  4  9  1  0  0  0  0
  5 10  1  0  0  0  0
  5  4  1  0  0  0  0
  6  5  2  0  0  0  0
  7  1  1  0  0  0  0
 11 12  1  0  0  0  0
 13 14  1  6  0  0  0
 13 15  1  0  0  0  0
 13 17  1  0  0  0  0
 14 18  1  0  0  0  0
 15  8  1  0  0  0  0
 16  2  2  0  0  0  0
 19 14  1  0  0  0  0
 20 14  1  0  0  0  0
 21  6  1  0  0  0  0
M  RAD  4   1   2  11   2  12   3  17   2
M  END
