Coordinates from ORCA-job Ph-N2-H-OTf-B3LYPG-6-31G_dp-scan-d09-49-n400
 OpenBabel08281820563D

 21 20  0  0  0  0  0  0  0  0999 V2000
   -1.9127    0.9419   -6.1551 C   0  0  0  0  0  0  0  0  0  0  0  0
   -0.7011    1.2619   -5.4840 C   0  0  0  0  0  0  0  0  0  0  0  0
   -0.3958    0.4172   -4.3553 C   0  0  0  0  0  0  0  0  0  0  0  0
   -1.1954   -0.6937   -3.9671 C   0  0  0  0  0  0  0  0  0  0  0  0
   -2.3373   -0.9599   -4.6767 C   0  0  0  0  0  0  0  0  0  0  0  0
   -2.6926   -0.1246   -5.7673 C   0  0  0  0  0  0  0  0  0  0  0  0
   -2.1758    1.5645   -7.0030 H   0  0  0  0  0  0  0  0  0  0  0  0
    1.0967    2.1909   -5.7093 H   0  0  0  0  0  0  0  0  0  0  0  0
   -0.8857   -1.3003   -3.1233 H   0  0  0  0  0  0  0  0  0  0  0  0
   -2.9636   -1.8020   -4.4059 H   0  0  0  0  0  0  0  0  0  0  0  0
    0.6648    0.7326   -3.5801 N   0  0  0  0  0  0  0  0  0  0  0  0
    1.5058    1.0389   -2.9075 N   0  0  0  0  0  0  0  0  0  0  0  0
    3.1371    0.7806   -5.9460 S   0  0  0  0  0  0  0  0  0  0  0  0
    2.5828    0.6431   -7.7509 C   0  0  0  0  0  0  0  0  0  0  0  0
    2.3943    2.1116   -5.5712 O   0  0  0  0  0  0  0  0  0  0  0  0
    0.0199    2.2596   -5.8673 O   0  0  0  0  0  0  0  0  0  0  0  0
    2.4483   -0.4056   -5.3196 O   0  0  0  0  0  0  0  0  0  0  0  0
    1.2484    0.4937   -7.8570 F   0  0  0  0  0  0  0  0  0  0  0  0
    2.9452    1.7360   -8.4389 F   0  0  0  0  0  0  0  0  0  0  0  0
    3.1712   -0.4262   -8.3122 F   0  0  0  0  0  0  0  0  0  0  0  0
   -3.6028   -0.3393   -6.3194 H   0  0  0  0  0  0  0  0  0  0  0  0
  1  6  2  0  0  0  0
  1  2  1  0  0  0  0
  2  3  2  0  0  0  0
  3  4  1  0  0  0  0
  3 11  1  0  0  0  0
  4  9  1  0  0  0  0
  5 10  1  0  0  0  0
  5  4  2  0  0  0  0
  6  5  1  0  0  0  0
  7  1  1  0  0  0  0
 11 12  1  0  0  0  0
 13 15  1  0  0  0  0
 13 17  1  0  0  0  0
 14 13  1  0  0  0  0
 16  8  1  0  0  0  0
 16  2  1  0  0  0  0
 18 14  1  0  0  0  0
 19 14  1  0  0  0  0
 20 14  1  0  0  0  0
 21  6  1  0  0  0  0
M  RAD  4  11   2  12   3  15   2  17   2
M  END
