Coordinates from ORCA-job Ph-N2-H-OTf-B3LYPG-6-31G_dp-scan-d09-49-n400
 OpenBabel08281820563D

 21 20  0  0  0  0  0  0  0  0999 V2000
   -1.8938    0.8815   -6.1579 C   0  0  0  0  0  0  0  0  0  0  0  0
   -0.6919    1.2207   -5.4556 C   0  0  0  0  0  0  0  0  0  0  0  0
   -0.4424    0.3963   -4.2829 C   0  0  0  0  0  0  0  0  0  0  0  0
   -1.2765   -0.6900   -3.8843 C   0  0  0  0  0  0  0  0  0  0  0  0
   -2.3940   -0.9617   -4.6240 C   0  0  0  0  0  0  0  0  0  0  0  0
   -2.6965   -0.1586   -5.7610 C   0  0  0  0  0  0  0  0  0  0  0  0
   -2.1216    1.4784   -7.0341 H   0  0  0  0  0  0  0  0  0  0  0  0
    1.2908    2.1626   -5.7106 H   0  0  0  0  0  0  0  0  0  0  0  0
   -1.0082   -1.2715   -3.0091 H   0  0  0  0  0  0  0  0  0  0  0  0
   -3.0457   -1.7829   -4.3482 H   0  0  0  0  0  0  0  0  0  0  0  0
    0.6097    0.7117   -3.5113 N   0  0  0  0  0  0  0  0  0  0  0  0
    1.4717    1.0234   -2.8628 N   0  0  0  0  0  0  0  0  0  0  0  0
    3.1512    0.8078   -6.0182 S   0  0  1  0  0  0  0  0  0  0  0  0
    2.6066    0.6987   -7.8271 C   0  0  0  0  0  0  0  0  0  0  0  0
    2.4270    2.1772   -5.6485 O   0  0  0  0  0  0  0  0  0  0  0  0
    0.0555    2.1780   -5.8277 O   0  0  0  0  0  0  0  0  0  0  0  0
    2.4338   -0.3528   -5.3915 O   0  0  0  0  0  0  0  0  0  0  0  0
    1.2794    0.5393   -7.9458 F   0  0  0  0  0  0  0  0  0  0  0  0
    2.9722    1.8042   -8.4894 F   0  0  0  0  0  0  0  0  0  0  0  0
    3.2146   -0.3581   -8.3906 F   0  0  0  0  0  0  0  0  0  0  0  0
   -3.5902   -0.3834   -6.3363 H   0  0  0  0  0  0  0  0  0  0  0  0
  1  6  1  0  0  0  0
  1  2  1  0  0  0  0
  2  3  1  0  0  0  0
  3  4  2  0  0  0  0
  3 11  1  0  0  0  0
  4  9  1  0  0  0  0
  5 10  1  0  0  0  0
  5  4  1  0  0  0  0
  6  5  2  0  0  0  0
  7  1  1  0  0  0  0
  8 15  1  0  0  0  0
 11 12  1  0  0  0  0
 13 14  1  6  0  0  0
 13 15  1  0  0  0  0
 13 17  1  0  0  0  0
 16  2  2  0  0  0  0
 18 14  1  0  0  0  0
 19 14  1  0  0  0  0
 20 14  1  0  0  0  0
 21  6  1  0  0  0  0
M  RAD  4   1   2  11   2  12   3  17   2
M  END
