Coordinates from ORCA-job Ph-N2-H-OTf-B3LYPG-6-31G_dp-scan-d09-49-n400
 OpenBabel08281820563D

 21 20  0  0  0  0  0  0  0  0999 V2000
   -2.0484    0.8444   -6.0866 C   0  0  0  0  0  0  0  0  0  0  0  0
   -0.9208    1.3089   -5.2953 C   0  0  0  0  0  0  0  0  0  0  0  0
   -0.6163    0.4029   -4.1603 C   0  0  0  0  0  0  0  0  0  0  0  0
   -1.3248   -0.8072   -3.8835 C   0  0  0  0  0  0  0  0  0  0  0  0
   -2.3623   -1.1559   -4.6971 C   0  0  0  0  0  0  0  0  0  0  0  0
   -2.7163   -0.3120   -5.8004 C   0  0  0  0  0  0  0  0  0  0  0  0
   -2.3258    1.4700   -6.9288 H   0  0  0  0  0  0  0  0  0  0  0  0
    2.1897    2.5150   -5.8707 H   0  0  0  0  0  0  0  0  0  0  0  0
   -1.0245   -1.4187   -3.0388 H   0  0  0  0  0  0  0  0  0  0  0  0
   -2.9185   -2.0684   -4.5149 H   0  0  0  0  0  0  0  0  0  0  0  0
    0.3816    0.7897   -3.3756 N   0  0  0  0  0  0  0  0  0  0  0  0
    1.2307    1.2153   -2.7641 N   0  0  0  0  0  0  0  0  0  0  0  0
    3.3642    0.6887   -6.1666 S   0  0  1  0  0  0  0  0  0  0  0  0
    2.5571    0.6883   -7.8771 C   0  0  0  0  0  0  0  0  0  0  0  0
    3.1449    2.3049   -5.9119 O   0  0  0  0  0  0  0  0  0  0  0  0
   -0.2838    2.3480   -5.5186 O   0  0  0  0  0  0  0  0  0  0  0  0
    2.4417   -0.1211   -5.3286 O   0  0  0  0  0  0  0  0  0  0  0  0
    1.3417    1.2412   -7.8441 F   0  0  0  0  0  0  0  0  0  0  0  0
    3.3332    1.3741   -8.7235 F   0  0  0  0  0  0  0  0  0  0  0  0
    2.4582   -0.5768   -8.2987 F   0  0  0  0  0  0  0  0  0  0  0  0
   -3.5495   -0.6105   -6.4318 H   0  0  0  0  0  0  0  0  0  0  0  0
  1  6  1  0  0  0  0
  1  2  1  0  0  0  0
  2  3  1  0  0  0  0
  3  4  2  0  0  0  0
  3 11  1  0  0  0  0
  4  9  1  0  0  0  0
  5 10  1  0  0  0  0
  5  4  1  0  0  0  0
  6  5  2  0  0  0  0
  7  1  1  0  0  0  0
 11 12  1  0  0  0  0
 13 14  1  6  0  0  0
 13 15  1  0  0  0  0
 13 17  1  0  0  0  0
 14 18  1  0  0  0  0
 15  8  1  0  0  0  0
 16  2  2  0  0  0  0
 19 14  1  0  0  0  0
 20 14  1  0  0  0  0
 21  6  1  0  0  0  0
M  RAD  4   1   2  11   2  12   3  17   2
M  END
