Coordinates from ORCA-job Ph-N2-H-OTf-B3LYPG-6-31G_dp-scan-d09-49-n400
 OpenBabel08281820563D

 21 20  0  0  0  0  0  0  0  0999 V2000
   -2.3499    1.0490   -5.9991 C   0  0  0  0  0  0  0  0  0  0  0  0
   -1.3217    1.6828   -5.1836 C   0  0  0  0  0  0  0  0  0  0  0  0
   -0.5560    0.6911   -4.3733 C   0  0  0  0  0  0  0  0  0  0  0  0
   -0.7530   -0.7239   -4.4309 C   0  0  0  0  0  0  0  0  0  0  0  0
   -1.7323   -1.2086   -5.2460 C   0  0  0  0  0  0  0  0  0  0  0  0
   -2.5328   -0.3032   -6.0215 C   0  0  0  0  0  0  0  0  0  0  0  0
   -2.9591    1.7176   -6.5987 H   0  0  0  0  0  0  0  0  0  0  0  0
    2.7145    2.3288   -5.7775 H   0  0  0  0  0  0  0  0  0  0  0  0
   -0.1167   -1.3718   -3.8382 H   0  0  0  0  0  0  0  0  0  0  0  0
   -1.9094   -2.2765   -5.3135 H   0  0  0  0  0  0  0  0  0  0  0  0
    0.3632    1.2250   -3.5849 N   0  0  0  0  0  0  0  0  0  0  0  0
    1.1008    1.8198   -2.9659 N   0  0  0  0  0  0  0  0  0  0  0  0
    3.3541    0.2441   -6.0237 S   0  0  1  0  0  0  0  0  0  0  0  0
    2.0484    0.3442   -7.3944 C   0  0  0  0  0  0  0  0  0  0  0  0
    3.5664    1.8856   -5.9581 O   0  0  0  0  0  0  0  0  0  0  0  0
   -1.0803    2.8918   -5.1488 O   0  0  0  0  0  0  0  0  0  0  0  0
    2.6012   -0.2543   -4.8445 O   0  0  0  0  0  0  0  0  0  0  0  0
    1.1561    1.3106   -7.1258 F   0  0  0  0  0  0  0  0  0  0  0  0
    2.6517    0.6158   -8.5542 F   0  0  0  0  0  0  0  0  0  0  0  0
    1.4185   -0.8263   -7.4796 F   0  0  0  0  0  0  0  0  0  0  0  0
   -3.3121   -0.7207   -6.6548 H   0  0  0  0  0  0  0  0  0  0  0  0
  1  2  1  0  0  0  0
  2 16  2  0  0  0  0
  2  3  1  0  0  0  0
  3 11  1  0  0  0  0
  4  3  2  0  0  0  0
  4  9  1  0  0  0  0
  5  4  1  0  0  0  0
  6  1  1  0  0  0  0
  6  5  2  0  0  0  0
  7  1  1  0  0  0  0
 10  5  1  0  0  0  0
 11 12  1  0  0  0  0
 13 14  1  6  0  0  0
 13 15  1  0  0  0  0
 13 17  1  0  0  0  0
 14 18  1  0  0  0  0
 15  8  1  0  0  0  0
 19 14  1  0  0  0  0
 20 14  1  0  0  0  0
 21  6  1  0  0  0  0
M  RAD  4   1   2  11   2  12   3  17   2
M  END
