Coordinates from ORCA-job Ph-N2-H-OTf-B3LYPG-6-31G_dp-scan-d09-49-n400
 OpenBabel08281820563D

 21 20  0  0  0  0  0  0  0  0999 V2000
   -2.0826    0.8599   -6.0841 C   0  0  0  0  0  0  0  0  0  0  0  0
   -1.0076    1.3705   -5.2450 C   0  0  0  0  0  0  0  0  0  0  0  0
   -0.6559    0.4292   -4.1479 C   0  0  0  0  0  0  0  0  0  0  0  0
   -1.2775   -0.8419   -3.9465 C   0  0  0  0  0  0  0  0  0  0  0  0
   -2.2713   -1.2245   -4.7984 C   0  0  0  0  0  0  0  0  0  0  0  0
   -2.6671   -0.3546   -5.8680 C   0  0  0  0  0  0  0  0  0  0  0  0
   -2.3926    1.5047   -6.9003 H   0  0  0  0  0  0  0  0  0  0  0  0
    2.5613    2.6175   -5.9786 H   0  0  0  0  0  0  0  0  0  0  0  0
   -0.9476   -1.4720   -3.1268 H   0  0  0  0  0  0  0  0  0  0  0  0
   -2.7620   -2.1829   -4.6725 H   0  0  0  0  0  0  0  0  0  0  0  0
    0.3020    0.8493   -3.3330 N   0  0  0  0  0  0  0  0  0  0  0  0
    1.1157    1.3160   -2.7025 N   0  0  0  0  0  0  0  0  0  0  0  0
    3.4090    0.6066   -6.1864 S   0  0  1  0  0  0  0  0  0  0  0  0
    2.4194    0.6496   -7.7991 C   0  0  0  0  0  0  0  0  0  0  0  0
    3.4661    2.2542   -6.0388 O   0  0  0  0  0  0  0  0  0  0  0  0
   -0.4446    2.4598   -5.3987 O   0  0  0  0  0  0  0  0  0  0  0  0
    2.4749    0.0022   -5.2033 O   0  0  0  0  0  0  0  0  0  0  0  0
    1.3561    1.4537   -7.6879 F   0  0  0  0  0  0  0  0  0  0  0  0
    3.2090    1.0945   -8.7825 F   0  0  0  0  0  0  0  0  0  0  0  0
    2.0119   -0.5888   -8.0865 F   0  0  0  0  0  0  0  0  0  0  0  0
   -3.4650   -0.6820   -6.5302 H   0  0  0  0  0  0  0  0  0  0  0  0
  1  6  1  0  0  0  0
  1  2  1  0  0  0  0
  2  3  1  0  0  0  0
  3  4  2  0  0  0  0
  3 11  1  0  0  0  0
  4  9  1  0  0  0  0
  5 10  1  0  0  0  0
  5  4  1  0  0  0  0
  6  5  2  0  0  0  0
  7  1  1  0  0  0  0
 11 12  1  0  0  0  0
 13 14  1  6  0  0  0
 13 15  1  0  0  0  0
 13 17  1  0  0  0  0
 14 18  1  0  0  0  0
 15  8  1  0  0  0  0
 16  2  2  0  0  0  0
 19 14  1  0  0  0  0
 20 14  1  0  0  0  0
 21  6  1  0  0  0  0
M  RAD  4   1   2  11   2  12   3  17   2
M  END
