Coordinates from ORCA-job Ph-N2-H-OTf-B3LYPG-6-31G_dp-scan-d09-49-n400
 OpenBabel08281820563D

 21 20  0  0  0  0  0  0  0  0999 V2000
   -2.0944    0.8484   -6.0788 C   0  0  0  0  0  0  0  0  0  0  0  0
   -0.9877    1.3428   -5.2736 C   0  0  0  0  0  0  0  0  0  0  0  0
   -0.6450    0.4192   -4.1605 C   0  0  0  0  0  0  0  0  0  0  0  0
   -1.3011   -0.8269   -3.9166 C   0  0  0  0  0  0  0  0  0  0  0  0
   -2.3223   -1.1984   -4.7405 C   0  0  0  0  0  0  0  0  0  0  0  0
   -2.7118   -0.3420   -5.8228 C   0  0  0  0  0  0  0  0  0  0  0  0
   -2.3995    1.4831   -6.9046 H   0  0  0  0  0  0  0  0  0  0  0  0
    2.4099    2.5681   -5.9245 H   0  0  0  0  0  0  0  0  0  0  0  0
   -0.9751   -1.4470   -3.0878 H   0  0  0  0  0  0  0  0  0  0  0  0
   -2.8393   -2.1380   -4.5826 H   0  0  0  0  0  0  0  0  0  0  0  0
    0.3376    0.8297   -3.3700 N   0  0  0  0  0  0  0  0  0  0  0  0
    1.1731    1.2848   -2.7601 N   0  0  0  0  0  0  0  0  0  0  0  0
    3.4043    0.6311   -6.1741 S   0  0  1  0  0  0  0  0  0  0  0  0
    2.5103    0.6773   -7.8408 C   0  0  0  0  0  0  0  0  0  0  0  0
    3.3399    2.2695   -5.9560 O   0  0  0  0  0  0  0  0  0  0  0  0
   -0.3934    2.4104   -5.4664 O   0  0  0  0  0  0  0  0  0  0  0  0
    2.4578   -0.0756   -5.2738 O   0  0  0  0  0  0  0  0  0  0  0  0
    1.3811    1.3890   -7.7610 F   0  0  0  0  0  0  0  0  0  0  0  0
    3.3176    1.2294   -8.7530 F   0  0  0  0  0  0  0  0  0  0  0  0
    2.2216   -0.5742   -8.2075 F   0  0  0  0  0  0  0  0  0  0  0  0
   -3.5320   -0.6597   -6.4621 H   0  0  0  0  0  0  0  0  0  0  0  0
  1  6  1  0  0  0  0
  1  2  1  0  0  0  0
  2  3  1  0  0  0  0
  3  4  2  0  0  0  0
  3 11  1  0  0  0  0
  4  9  1  0  0  0  0
  5 10  1  0  0  0  0
  5  4  1  0  0  0  0
  6  5  2  0  0  0  0
  7  1  1  0  0  0  0
 11 12  1  0  0  0  0
 13 14  1  6  0  0  0
 13 15  1  0  0  0  0
 13 17  1  0  0  0  0
 14 18  1  0  0  0  0
 15  8  1  0  0  0  0
 16  2  2  0  0  0  0
 19 14  1  0  0  0  0
 20 14  1  0  0  0  0
 21  6  1  0  0  0  0
M  RAD  4   1   2  11   2  12   3  17   2
M  END
