Coordinates from ORCA-job Ph-N2-H-OTf-B3LYPG-6-31G_dp-scan-d09-49-n400
 OpenBabel08281820563D

 21 20  0  0  0  0  0  0  0  0999 V2000
   -1.8938    0.8855   -6.1589 C   0  0  0  0  0  0  0  0  0  0  0  0
   -0.6914    1.2243   -5.4586 C   0  0  0  0  0  0  0  0  0  0  0  0
   -0.4379    0.3989   -4.2886 C   0  0  0  0  0  0  0  0  0  0  0  0
   -1.2691   -0.6897   -3.8907 C   0  0  0  0  0  0  0  0  0  0  0  0
   -2.3880   -0.9618   -4.6283 C   0  0  0  0  0  0  0  0  0  0  0  0
   -2.6944   -0.1568   -5.7626 C   0  0  0  0  0  0  0  0  0  0  0  0
   -2.1244    1.4841   -7.0332 H   0  0  0  0  0  0  0  0  0  0  0  0
    1.2782    2.1626   -5.7099 H   0  0  0  0  0  0  0  0  0  0  0  0
   -0.9976   -1.2727   -3.0174 H   0  0  0  0  0  0  0  0  0  0  0  0
   -3.0374   -1.7848   -4.3528 H   0  0  0  0  0  0  0  0  0  0  0  0
    0.6142    0.7149   -3.5162 N   0  0  0  0  0  0  0  0  0  0  0  0
    1.4743    1.0261   -2.8653 N   0  0  0  0  0  0  0  0  0  0  0  0
    3.1489    0.8057   -6.0125 S   0  0  1  0  0  0  0  0  0  0  0  0
    2.6015    0.6950   -7.8204 C   0  0  0  0  0  0  0  0  0  0  0  0
    2.4219    2.1712   -5.6415 O   0  0  0  0  0  0  0  0  0  0  0  0
    0.0536    2.1845   -5.8320 O   0  0  0  0  0  0  0  0  0  0  0  0
    2.4352   -0.3579   -5.3859 O   0  0  0  0  0  0  0  0  0  0  0  0
    1.2736    0.5370   -7.9363 F   0  0  0  0  0  0  0  0  0  0  0  0
    2.9666    1.7995   -8.4849 F   0  0  0  0  0  0  0  0  0  0  0  0
    3.2069   -0.3630   -8.3845 F   0  0  0  0  0  0  0  0  0  0  0  0
   -3.5891   -0.3813   -6.3363 H   0  0  0  0  0  0  0  0  0  0  0  0
  1  6  1  0  0  0  0
  1  2  1  0  0  0  0
  2  3  1  0  0  0  0
  3  4  2  0  0  0  0
  3 11  1  0  0  0  0
  4  9  1  0  0  0  0
  5 10  1  0  0  0  0
  5  4  1  0  0  0  0
  6  5  2  0  0  0  0
  7  1  1  0  0  0  0
  8 15  1  0  0  0  0
 11 12  1  0  0  0  0
 13 14  1  6  0  0  0
 13 15  1  0  0  0  0
 13 17  1  0  0  0  0
 16  2  2  0  0  0  0
 18 14  1  0  0  0  0
 19 14  1  0  0  0  0
 20 14  1  0  0  0  0
 21  6  1  0  0  0  0
M  RAD  4   1   2  11   2  12   3  17   2
M  END
