Coordinates from ORCA-job Ph-N2-H-OTf-B3LYPG-6-31G_dp-scan-d09-49-n400
 OpenBabel08281820563D

 21 20  0  0  0  0  0  0  0  0999 V2000
   -2.1126    0.8591   -6.0942 C   0  0  0  0  0  0  0  0  0  0  0  0
   -1.0705    1.4082   -5.2368 C   0  0  0  0  0  0  0  0  0  0  0  0
   -0.6755    0.4617   -4.1571 C   0  0  0  0  0  0  0  0  0  0  0  0
   -1.2338   -0.8425   -3.9844 C   0  0  0  0  0  0  0  0  0  0  0  0
   -2.2030   -1.2571   -4.8495 C   0  0  0  0  0  0  0  0  0  0  0  0
   -2.6359   -0.3872   -5.9052 C   0  0  0  0  0  0  0  0  0  0  0  0
   -2.4509    1.5033   -6.8995 H   0  0  0  0  0  0  0  0  0  0  0  0
    2.8045    2.6088   -5.9935 H   0  0  0  0  0  0  0  0  0  0  0  0
   -0.8764   -1.4717   -3.1756 H   0  0  0  0  0  0  0  0  0  0  0  0
   -2.6464   -2.2407   -4.7448 H   0  0  0  0  0  0  0  0  0  0  0  0
    0.2611    0.9118   -3.3344 N   0  0  0  0  0  0  0  0  0  0  0  0
    1.0554    1.4076   -2.7008 N   0  0  0  0  0  0  0  0  0  0  0  0
    3.4128    0.5112   -6.1976 S   0  0  1  0  0  0  0  0  0  0  0  0
    2.3270    0.6523   -7.7413 C   0  0  0  0  0  0  0  0  0  0  0  0
    3.6597    2.1462   -6.0850 O   0  0  0  0  0  0  0  0  0  0  0  0
   -0.5623    2.5263   -5.3629 O   0  0  0  0  0  0  0  0  0  0  0  0
    2.4859    0.0262   -5.1449 O   0  0  0  0  0  0  0  0  0  0  0  0
    1.3642    1.5648   -7.5622 F   0  0  0  0  0  0  0  0  0  0  0  0
    3.0884    1.0109   -8.7801 F   0  0  0  0  0  0  0  0  0  0  0  0
    1.7725   -0.5361   -7.9885 F   0  0  0  0  0  0  0  0  0  0  0  0
   -3.4125   -0.7418   -6.5789 H   0  0  0  0  0  0  0  0  0  0  0  0
  1  6  1  0  0  0  0
  1  2  1  0  0  0  0
  2  3  1  0  0  0  0
  3  4  2  0  0  0  0
  3 11  1  0  0  0  0
  4  9  1  0  0  0  0
  5 10  1  0  0  0  0
  5  4  1  0  0  0  0
  6  5  2  0  0  0  0
  7  1  1  0  0  0  0
 11 12  1  0  0  0  0
 13 14  1  6  0  0  0
 13 15  1  0  0  0  0
 13 17  1  0  0  0  0
 14 18  1  0  0  0  0
 15  8  1  0  0  0  0
 16  2  2  0  0  0  0
 19 14  1  0  0  0  0
 20 14  1  0  0  0  0
 21  6  1  0  0  0  0
M  RAD  4   1   2  11   2  12   3  17   2
M  END
