Coordinates from ORCA-job Ph-N2-H-OTf-B3LYPG-6-31G_dp-scan-d09-49-n400
 OpenBabel08281820563D

 21 20  0  0  0  0  0  0  0  0999 V2000
   -2.0941    0.8412   -6.0770 C   0  0  0  0  0  0  0  0  0  0  0  0
   -0.9758    1.3281   -5.2839 C   0  0  0  0  0  0  0  0  0  0  0  0
   -0.6422    0.4149   -4.1603 C   0  0  0  0  0  0  0  0  0  0  0  0
   -1.3177   -0.8166   -3.8955 C   0  0  0  0  0  0  0  0  0  0  0  0
   -2.3491   -1.1825   -4.7090 C   0  0  0  0  0  0  0  0  0  0  0  0
   -2.7298   -0.3353   -5.8015 C   0  0  0  0  0  0  0  0  0  0  0  0
   -2.3924    1.4691   -6.9103 H   0  0  0  0  0  0  0  0  0  0  0  0
    2.3428    2.5428   -5.9026 H   0  0  0  0  0  0  0  0  0  0  0  0
   -0.9978   -1.4303   -3.0596 H   0  0  0  0  0  0  0  0  0  0  0  0
   -2.8808   -2.1111   -4.5353 H   0  0  0  0  0  0  0  0  0  0  0  0
    0.3512    0.8189   -3.3800 N   0  0  0  0  0  0  0  0  0  0  0  0
    1.1961    1.2658   -2.7772 N   0  0  0  0  0  0  0  0  0  0  0  0
    3.3940    0.6383   -6.1721 S   0  0  1  0  0  0  0  0  0  0  0  0
    2.5557    0.6916   -7.8663 C   0  0  0  0  0  0  0  0  0  0  0  0
    3.2811    2.2691   -5.9242 O   0  0  0  0  0  0  0  0  0  0  0  0
   -0.3667    2.3845   -5.4948 O   0  0  0  0  0  0  0  0  0  0  0  0
    2.4363   -0.1086   -5.3169 O   0  0  0  0  0  0  0  0  0  0  0  0
    1.3831    1.3294   -7.8036 F   0  0  0  0  0  0  0  0  0  0  0  0
    3.3577    1.3227   -8.7305 F   0  0  0  0  0  0  0  0  0  0  0  0
    2.3584   -0.5625   -8.2838 F   0  0  0  0  0  0  0  0  0  0  0  0
   -3.5580   -0.6484   -6.4325 H   0  0  0  0  0  0  0  0  0  0  0  0
  1  6  1  0  0  0  0
  1  2  1  0  0  0  0
  2  3  1  0  0  0  0
  3  4  2  0  0  0  0
  3 11  1  0  0  0  0
  4  9  1  0  0  0  0
  5 10  1  0  0  0  0
  5  4  1  0  0  0  0
  6  5  2  0  0  0  0
  7  1  1  0  0  0  0
 11 12  1  0  0  0  0
 13 14  1  6  0  0  0
 13 15  1  0  0  0  0
 13 17  1  0  0  0  0
 14 18  1  0  0  0  0
 15  8  1  0  0  0  0
 16  2  2  0  0  0  0
 19 14  1  0  0  0  0
 20 14  1  0  0  0  0
 21  6  1  0  0  0  0
M  RAD  4   1   2  11   2  12   3  17   2
M  END
