Coordinates from ORCA-job Ph-N2-H-OTf-B3LYPG-6-31G_dp-scan-d09-49-n400
 OpenBabel08281820563D

 21 20  0  0  0  0  0  0  0  0999 V2000
   -1.9117    0.9359   -6.1558 C   0  0  0  0  0  0  0  0  0  0  0  0
   -0.7002    1.2574   -5.4832 C   0  0  0  0  0  0  0  0  0  0  0  0
   -0.3996    0.4157   -4.3499 C   0  0  0  0  0  0  0  0  0  0  0  0
   -1.2025   -0.6922   -3.9589 C   0  0  0  0  0  0  0  0  0  0  0  0
   -2.3430   -0.9590   -4.6701 C   0  0  0  0  0  0  0  0  0  0  0  0
   -2.6939   -0.1275   -5.7655 C   0  0  0  0  0  0  0  0  0  0  0  0
   -2.1719    1.5555   -7.0067 H   0  0  0  0  0  0  0  0  0  0  0  0
    1.1103    2.1850   -5.7103 H   0  0  0  0  0  0  0  0  0  0  0  0
   -0.8961   -1.2959   -3.1118 H   0  0  0  0  0  0  0  0  0  0  0  0
   -2.9717   -1.7988   -4.3975 H   0  0  0  0  0  0  0  0  0  0  0  0
    0.6607    0.7308   -3.5754 N   0  0  0  0  0  0  0  0  0  0  0  0
    1.5039    1.0354   -2.9044 N   0  0  0  0  0  0  0  0  0  0  0  0
    3.1369    0.7822   -5.9510 S   0  0  0  0  0  0  0  0  0  0  0  0
    2.5874    0.6498   -7.7576 C   0  0  0  0  0  0  0  0  0  0  0  0
    2.3939    2.1149   -5.5757 O   0  0  0  0  0  0  0  0  0  0  0  0
    0.0232    2.2508   -5.8678 O   0  0  0  0  0  0  0  0  0  0  0  0
    2.4449   -0.4035   -5.3281 O   0  0  0  0  0  0  0  0  0  0  0  0
    1.2540    0.4987   -7.8680 F   0  0  0  0  0  0  0  0  0  0  0  0
    2.9506    1.7454   -8.4408 F   0  0  0  0  0  0  0  0  0  0  0  0
    3.1795   -0.4169   -8.3199 F   0  0  0  0  0  0  0  0  0  0  0  0
   -3.6032   -0.3429   -6.3188 H   0  0  0  0  0  0  0  0  0  0  0  0
  1  6  2  0  0  0  0
  1  2  1  0  0  0  0
  2  3  2  0  0  0  0
  3  4  1  0  0  0  0
  3 11  1  0  0  0  0
  4  9  1  0  0  0  0
  5 10  1  0  0  0  0
  5  4  2  0  0  0  0
  6  5  1  0  0  0  0
  7  1  1  0  0  0  0
 11 12  1  0  0  0  0
 13 15  1  0  0  0  0
 13 17  1  0  0  0  0
 14 13  1  0  0  0  0
 16  8  1  0  0  0  0
 16  2  1  0  0  0  0
 18 14  1  0  0  0  0
 19 14  1  0  0  0  0
 20 14  1  0  0  0  0
 21  6  1  0  0  0  0
M  RAD  4  11   2  12   3  15   2  17   2
M  END
