Coordinates from ORCA-job Ph-N2-H-OTf-B3LYPG-6-31G_dp-scan-d09-49-n400
 OpenBabel08281820563D

 21 20  0  0  0  0  0  0  0  0999 V2000
   -2.0730    0.8429   -6.0812 C   0  0  0  0  0  0  0  0  0  0  0  0
   -0.9494    1.3187   -5.2898 C   0  0  0  0  0  0  0  0  0  0  0  0
   -0.6294    0.4088   -4.1608 C   0  0  0  0  0  0  0  0  0  0  0  0
   -1.3211   -0.8122   -3.8898 C   0  0  0  0  0  0  0  0  0  0  0  0
   -2.3561   -1.1697   -4.7027 C   0  0  0  0  0  0  0  0  0  0  0  0
   -2.7243   -0.3239   -5.8001 C   0  0  0  0  0  0  0  0  0  0  0  0
   -2.3616    1.4699   -6.9186 H   0  0  0  0  0  0  0  0  0  0  0  0
    2.2644    2.5286   -5.8908 H   0  0  0  0  0  0  0  0  0  0  0  0
   -1.0103   -1.4250   -3.0497 H   0  0  0  0  0  0  0  0  0  0  0  0
   -2.8997   -2.0905   -4.5244 H   0  0  0  0  0  0  0  0  0  0  0  0
    0.3667    0.8045   -3.3790 N   0  0  0  0  0  0  0  0  0  0  0  0
    1.2141    1.2412   -2.7726 N   0  0  0  0  0  0  0  0  0  0  0  0
    3.3807    0.6631   -6.1683 S   0  0  1  0  0  0  0  0  0  0  0  0
    2.5587    0.6906   -7.8712 C   0  0  0  0  0  0  0  0  0  0  0  0
    3.2120    2.2871   -5.9162 O   0  0  0  0  0  0  0  0  0  0  0  0
   -0.3266    2.3668   -5.5070 O   0  0  0  0  0  0  0  0  0  0  0  0
    2.4399   -0.1177   -5.3239 O   0  0  0  0  0  0  0  0  0  0  0  0
    1.3658    1.2903   -7.8230 F   0  0  0  0  0  0  0  0  0  0  0  0
    3.3502    1.3466   -8.7266 F   0  0  0  0  0  0  0  0  0  0  0  0
    2.4064   -0.5695   -8.2906 F   0  0  0  0  0  0  0  0  0  0  0  0
   -3.5555   -0.6297   -6.4308 H   0  0  0  0  0  0  0  0  0  0  0  0
  1  6  1  0  0  0  0
  1  2  1  0  0  0  0
  2  3  1  0  0  0  0
  3  4  2  0  0  0  0
  3 11  1  0  0  0  0
  4  9  1  0  0  0  0
  5 10  1  0  0  0  0
  5  4  1  0  0  0  0
  6  5  2  0  0  0  0
  7  1  1  0  0  0  0
 11 12  1  0  0  0  0
 13 14  1  6  0  0  0
 13 15  1  0  0  0  0
 13 17  1  0  0  0  0
 14 18  1  0  0  0  0
 15  8  1  0  0  0  0
 16  2  2  0  0  0  0
 19 14  1  0  0  0  0
 20 14  1  0  0  0  0
 21  6  1  0  0  0  0
M  RAD  4   1   2  11   2  12   3  17   2
M  END
