Coordinates from ORCA-job Ph-N2-H-OTf-B3LYPG-6-31G_dp-scan-d09-49-n400
 OpenBabel08281820563D

 21 20  0  0  0  0  0  0  0  0999 V2000
   -1.9085    0.9204   -6.1564 C   0  0  0  0  0  0  0  0  0  0  0  0
   -0.6982    1.2462   -5.4786 C   0  0  0  0  0  0  0  0  0  0  0  0
   -0.4102    0.4112   -4.3336 C   0  0  0  0  0  0  0  0  0  0  0  0
   -1.2214   -0.6899   -3.9374 C   0  0  0  0  0  0  0  0  0  0  0  0
   -2.3572   -0.9583   -4.6539 C   0  0  0  0  0  0  0  0  0  0  0  0
   -2.6966   -0.1355   -5.7613 C   0  0  0  0  0  0  0  0  0  0  0  0
   -2.1610    1.5329   -7.0148 H   0  0  0  0  0  0  0  0  0  0  0  0
    1.1507    2.1705   -5.7119 H   0  0  0  0  0  0  0  0  0  0  0  0
   -0.9241   -1.2867   -3.0822 H   0  0  0  0  0  0  0  0  0  0  0  0
   -2.9922   -1.7923   -4.3780 H   0  0  0  0  0  0  0  0  0  0  0  0
    0.6490    0.7268   -3.5614 N   0  0  0  0  0  0  0  0  0  0  0  0
    1.4980    1.0334   -2.8974 N   0  0  0  0  0  0  0  0  0  0  0  0
    3.1372    0.7866   -5.9661 S   0  0  0  0  0  0  0  0  0  0  0  0
    2.5978    0.6664   -7.7764 C   0  0  0  0  0  0  0  0  0  0  0  0
    2.3948    2.1253   -5.5907 O   0  0  0  0  0  0  0  0  0  0  0  0
    0.0319    2.2288   -5.8639 O   0  0  0  0  0  0  0  0  0  0  0  0
    2.4373   -0.3962   -5.3500 O   0  0  0  0  0  0  0  0  0  0  0  0
    1.2664    0.5136   -7.8956 F   0  0  0  0  0  0  0  0  0  0  0  0
    2.9647    1.7670   -8.4487 F   0  0  0  0  0  0  0  0  0  0  0  0
    3.1964   -0.3958   -8.3402 F   0  0  0  0  0  0  0  0  0  0  0  0
   -3.6029   -0.3534   -6.3187 H   0  0  0  0  0  0  0  0  0  0  0  0
  1  6  2  0  0  0  0
  1  2  1  0  0  0  0
  2  3  2  0  0  0  0
  3  4  1  0  0  0  0
  3 11  1  0  0  0  0
  4  9  1  0  0  0  0
  5 10  1  0  0  0  0
  5  4  2  0  0  0  0
  6  5  1  0  0  0  0
  7  1  1  0  0  0  0
 11 12  1  0  0  0  0
 13 15  1  0  0  0  0
 13 17  1  0  0  0  0
 14 13  1  0  0  0  0
 16  8  1  0  0  0  0
 16  2  1  0  0  0  0
 18 14  1  0  0  0  0
 19 14  1  0  0  0  0
 20 14  1  0  0  0  0
 21  6  1  0  0  0  0
M  RAD  4  11   2  12   3  15   2  17   2
M  END
