Coordinates from ORCA-job Ph-N2-H-OTf-B3LYPG-6-31G_dp-scan-d09-49-n400
 OpenBabel08281820563D

 21 20  0  0  0  0  0  0  0  0999 V2000
   -2.0933    0.8573   -6.0833 C   0  0  0  0  0  0  0  0  0  0  0  0
   -1.0259    1.3769   -5.2398 C   0  0  0  0  0  0  0  0  0  0  0  0
   -0.6660    0.4354   -4.1451 C   0  0  0  0  0  0  0  0  0  0  0  0
   -1.2752   -0.8425   -3.9486 C   0  0  0  0  0  0  0  0  0  0  0  0
   -2.2635   -1.2325   -4.8035 C   0  0  0  0  0  0  0  0  0  0  0  0
   -2.6657   -0.3637   -5.8718 C   0  0  0  0  0  0  0  0  0  0  0  0
   -2.4080    1.5011   -6.8984 H   0  0  0  0  0  0  0  0  0  0  0  0
    2.6307    2.6229   -5.9873 H   0  0  0  0  0  0  0  0  0  0  0  0
   -0.9405   -1.4718   -3.1302 H   0  0  0  0  0  0  0  0  0  0  0  0
   -2.7450   -2.1960   -4.6811 H   0  0  0  0  0  0  0  0  0  0  0  0
    0.2885    0.8617   -3.3297 N   0  0  0  0  0  0  0  0  0  0  0  0
    1.0989    1.3350   -2.6996 N   0  0  0  0  0  0  0  0  0  0  0  0
    3.4115    0.5829   -6.1913 S   0  0  1  0  0  0  0  0  0  0  0  0
    2.4100    0.6523   -7.7951 C   0  0  0  0  0  0  0  0  0  0  0  0
    3.5224    2.2293   -6.0513 O   0  0  0  0  0  0  0  0  0  0  0  0
   -0.4741    2.4724   -5.3881 O   0  0  0  0  0  0  0  0  0  0  0  0
    2.4667    0.0123   -5.1985 O   0  0  0  0  0  0  0  0  0  0  0  0
    1.3586    1.4693   -7.6670 F   0  0  0  0  0  0  0  0  0  0  0  0
    3.1964    1.0947   -8.7819 F   0  0  0  0  0  0  0  0  0  0  0  0
    1.9838   -0.5784   -8.0886 F   0  0  0  0  0  0  0  0  0  0  0  0
   -3.4586   -0.6977   -6.5368 H   0  0  0  0  0  0  0  0  0  0  0  0
  1  6  1  0  0  0  0
  1  2  1  0  0  0  0
  2  3  1  0  0  0  0
  3  4  2  0  0  0  0
  3 11  1  0  0  0  0
  4  9  1  0  0  0  0
  5 10  1  0  0  0  0
  5  4  1  0  0  0  0
  6  5  2  0  0  0  0
  7  1  1  0  0  0  0
 11 12  1  0  0  0  0
 13 14  1  6  0  0  0
 13 15  1  0  0  0  0
 13 17  1  0  0  0  0
 14 18  1  0  0  0  0
 15  8  1  0  0  0  0
 16  2  2  0  0  0  0
 19 14  1  0  0  0  0
 20 14  1  0  0  0  0
 21  6  1  0  0  0  0
M  RAD  4   1   2  11   2  12   3  17   2
M  END
