Coordinates from ORCA-job Ph-N2-H-OTf-B3LYPG-6-31G_dp-scan-d09-49-n400
 OpenBabel08281820563D

 21 20  0  0  0  0  0  0  0  0999 V2000
   -1.9071    0.9154   -6.1568 C   0  0  0  0  0  0  0  0  0  0  0  0
   -0.6974    1.2428   -5.4769 C   0  0  0  0  0  0  0  0  0  0  0  0
   -0.4135    0.4097   -4.3283 C   0  0  0  0  0  0  0  0  0  0  0  0
   -1.2274   -0.6893   -3.9308 C   0  0  0  0  0  0  0  0  0  0  0  0
   -2.3615   -0.9582   -4.6493 C   0  0  0  0  0  0  0  0  0  0  0  0
   -2.6969   -0.1382   -5.7604 C   0  0  0  0  0  0  0  0  0  0  0  0
   -2.1569    1.5258   -7.0175 H   0  0  0  0  0  0  0  0  0  0  0  0
    1.1641    2.1673   -5.7120 H   0  0  0  0  0  0  0  0  0  0  0  0
   -0.9330   -1.2839   -3.0730 H   0  0  0  0  0  0  0  0  0  0  0  0
   -2.9984   -1.7905   -4.3727 H   0  0  0  0  0  0  0  0  0  0  0  0
    0.6452    0.7255   -3.5565 N   0  0  0  0  0  0  0  0  0  0  0  0
    1.4959    1.0328   -2.8947 N   0  0  0  0  0  0  0  0  0  0  0  0
    3.1375    0.7882   -5.9712 S   0  0  0  0  0  0  0  0  0  0  0  0
    2.6000    0.6712   -7.7821 C   0  0  0  0  0  0  0  0  0  0  0  0
    2.3961    2.1293   -5.5957 O   0  0  0  0  0  0  0  0  0  0  0  0
    0.0348    2.2221   -5.8621 O   0  0  0  0  0  0  0  0  0  0  0  0
    2.4352   -0.3931   -5.3562 O   0  0  0  0  0  0  0  0  0  0  0  0
    1.2693    0.5175   -7.9032 F   0  0  0  0  0  0  0  0  0  0  0  0
    2.9673    1.7732   -8.4516 F   0  0  0  0  0  0  0  0  0  0  0  0
    3.2006   -0.3896   -8.3465 F   0  0  0  0  0  0  0  0  0  0  0  0
   -3.6021   -0.3569   -6.3194 H   0  0  0  0  0  0  0  0  0  0  0  0
  1  6  2  0  0  0  0
  1  2  1  0  0  0  0
  2  3  2  0  0  0  0
  3  4  1  0  0  0  0
  3 11  1  0  0  0  0
  4  9  1  0  0  0  0
  5 10  1  0  0  0  0
  5  4  2  0  0  0  0
  6  5  1  0  0  0  0
  7  1  1  0  0  0  0
 11 12  1  0  0  0  0
 13 15  1  0  0  0  0
 13 17  1  0  0  0  0
 14 13  1  0  0  0  0
 16  8  1  0  0  0  0
 16  2  1  0  0  0  0
 18 14  1  0  0  0  0
 19 14  1  0  0  0  0
 20 14  1  0  0  0  0
 21  6  1  0  0  0  0
M  RAD  4  11   2  12   3  15   2  17   2
M  END
