Coordinates from ORCA-job Ph-N2-H-OTf-B3LYPG-6-31G_dp-scan-d09-49-n400
 OpenBabel08281820563D

 21 20  0  0  0  0  0  0  0  0999 V2000
   -2.9436    0.9496   -5.6945 C   0  0  0  0  0  0  0  0  0  0  0  0
   -1.7721    1.7067   -5.2676 C   0  0  0  0  0  0  0  0  0  0  0  0
   -0.6817    0.8190   -4.7490 C   0  0  0  0  0  0  0  0  0  0  0  0
   -0.7587   -0.6127   -4.7013 C   0  0  0  0  0  0  0  0  0  0  0  0
   -1.9025   -1.2087   -5.1363 C   0  0  0  0  0  0  0  0  0  0  0  0
   -2.9947   -0.4108   -5.6275 C   0  0  0  0  0  0  0  0  0  0  0  0
   -3.7740    1.5361   -6.0736 H   0  0  0  0  0  0  0  0  0  0  0  0
    3.0647    1.9770   -5.1292 H   0  0  0  0  0  0  0  0  0  0  0  0
    0.0995   -1.1726   -4.3479 H   0  0  0  0  0  0  0  0  0  0  0  0
   -1.9937   -2.2894   -5.1209 H   0  0  0  0  0  0  0  0  0  0  0  0
    0.3873    1.4556   -4.3264 N   0  0  0  0  0  0  0  0  0  0  0  0
    1.2512    2.1171   -4.0003 N   0  0  0  0  0  0  0  0  0  0  0  0
    3.6007   -0.0102   -5.8786 S   0  0  1  0  0  0  0  0  0  0  0  0
    2.6322    0.5040   -7.4202 C   0  0  0  0  0  0  0  0  0  0  0  0
    3.9031    1.5390   -5.3916 O   0  0  0  0  0  0  0  0  0  0  0  0
   -1.6564    2.9303   -5.3126 O   0  0  0  0  0  0  0  0  0  0  0  0
    2.5729   -0.6486   -5.0129 O   0  0  0  0  0  0  0  0  0  0  0  0
    1.6485    1.3575   -7.0986 F   0  0  0  0  0  0  0  0  0  0  0  0
    3.4590    1.0916   -8.2873 F   0  0  0  0  0  0  0  0  0  0  0  0
    2.1036   -0.5869   -7.9783 F   0  0  0  0  0  0  0  0  0  0  0  0
   -3.8936   -0.9226   -5.9625 H   0  0  0  0  0  0  0  0  0  0  0  0
  1  6  1  0  0  0  0
  1  2  1  0  0  0  0
  2  3  1  0  0  0  0
  3  4  2  0  0  0  0
  3 11  1  0  0  0  0
  4  9  1  0  0  0  0
  5 10  1  0  0  0  0
  5  4  1  0  0  0  0
  6  5  2  0  0  0  0
  7  1  1  0  0  0  0
 11 12  1  0  0  0  0
 13 14  1  6  0  0  0
 13 15  1  0  0  0  0
 13 17  1  0  0  0  0
 14 18  1  0  0  0  0
 15  8  1  0  0  0  0
 16  2  2  0  0  0  0
 19 14  1  0  0  0  0
 20 14  1  0  0  0  0
 21  6  1  0  0  0  0
M  RAD  4   1   2  11   2  12   3  17   2
M  END
