Coordinates from ORCA-job Ph-N2-H-OTf-B3LYPG-6-31G_dp-scan-d09-49-n400
 OpenBabel08281820563D

 21 20  0  0  0  0  0  0  0  0999 V2000
   -1.8895    0.8716   -6.1565 C   0  0  0  0  0  0  0  0  0  0  0  0
   -0.6939    1.2179   -5.4399 C   0  0  0  0  0  0  0  0  0  0  0  0
   -0.4585    0.3912   -4.2608 C   0  0  0  0  0  0  0  0  0  0  0  0
   -1.2976   -0.6950   -3.8697 C   0  0  0  0  0  0  0  0  0  0  0  0
   -2.4054   -0.9684   -4.6220 C   0  0  0  0  0  0  0  0  0  0  0  0
   -2.6943   -0.1680   -5.7665 C   0  0  0  0  0  0  0  0  0  0  0  0
   -2.1087    1.4664   -7.0364 H   0  0  0  0  0  0  0  0  0  0  0  0
    1.3654    2.1780   -5.7096 H   0  0  0  0  0  0  0  0  0  0  0  0
   -1.0396   -1.2753   -2.9904 H   0  0  0  0  0  0  0  0  0  0  0  0
   -3.0602   -1.7892   -4.3529 H   0  0  0  0  0  0  0  0  0  0  0  0
    0.5901    0.7052   -3.4882 N   0  0  0  0  0  0  0  0  0  0  0  0
    1.4561    1.0191   -2.8443 N   0  0  0  0  0  0  0  0  0  0  0  0
    3.1674    0.8204   -6.0433 S   0  0  1  0  0  0  0  0  0  0  0  0
    2.6002    0.7018   -7.8443 C   0  0  0  0  0  0  0  0  0  0  0  0
    2.4588    2.2091   -5.6810 O   0  0  0  0  0  0  0  0  0  0  0  0
    0.0574    2.1700   -5.7984 O   0  0  0  0  0  0  0  0  0  0  0  0
    2.4481   -0.3239   -5.3943 O   0  0  0  0  0  0  0  0  0  0  0  0
    1.2724    0.5481   -7.9467 F   0  0  0  0  0  0  0  0  0  0  0  0
    2.9659    1.8004   -8.5168 F   0  0  0  0  0  0  0  0  0  0  0  0
    3.1986   -0.3624   -8.4035 F   0  0  0  0  0  0  0  0  0  0  0  0
   -3.5809   -0.3960   -6.3516 H   0  0  0  0  0  0  0  0  0  0  0  0
  1  6  1  0  0  0  0
  1  2  1  0  0  0  0
  2  3  1  0  0  0  0
  3  4  2  0  0  0  0
  3 11  1  0  0  0  0
  4  9  1  0  0  0  0
  5 10  1  0  0  0  0
  5  4  1  0  0  0  0
  6  5  2  0  0  0  0
  7  1  1  0  0  0  0
  8 15  1  0  0  0  0
 11 12  1  0  0  0  0
 13 14  1  6  0  0  0
 13 15  1  0  0  0  0
 13 17  1  0  0  0  0
 16  2  2  0  0  0  0
 18 14  1  0  0  0  0
 19 14  1  0  0  0  0
 20 14  1  0  0  0  0
 21  6  1  0  0  0  0
M  RAD  4   1   2  11   2  12   3  17   2
M  END
