Coordinates from ORCA-job Ph-N2-H-OTf-B3LYPG-6-31G_dp-scan-d09-49-n400
 OpenBabel08281820563D

 21 20  0  0  0  0  0  0  0  0999 V2000
   -1.9149    0.9547   -6.1541 C   0  0  0  0  0  0  0  0  0  0  0  0
   -0.7028    1.2719   -5.4861 C   0  0  0  0  0  0  0  0  0  0  0  0
   -0.3877    0.4208   -4.3673 C   0  0  0  0  0  0  0  0  0  0  0  0
   -1.1801   -0.6963   -3.9848 C   0  0  0  0  0  0  0  0  0  0  0  0
   -2.3251   -0.9613   -4.6911 C   0  0  0  0  0  0  0  0  0  0  0  0
   -2.6895   -0.1185   -5.7717 C   0  0  0  0  0  0  0  0  0  0  0  0
   -2.1841    1.5834   -6.9955 H   0  0  0  0  0  0  0  0  0  0  0  0
    1.0688    2.2049   -5.7078 H   0  0  0  0  0  0  0  0  0  0  0  0
   -0.8635   -1.3089   -3.1480 H   0  0  0  0  0  0  0  0  0  0  0  0
   -2.9461   -1.8085   -4.4241 H   0  0  0  0  0  0  0  0  0  0  0  0
    0.6735    0.7361   -3.5902 N   0  0  0  0  0  0  0  0  0  0  0  0
    1.5089    1.0414   -2.9109 N   0  0  0  0  0  0  0  0  0  0  0  0
    3.1384    0.7785   -5.9360 S   0  0  0  0  0  0  0  0  0  0  0  0
    2.5721    0.6282   -7.7363 C   0  0  0  0  0  0  0  0  0  0  0  0
    2.3957    2.1060   -5.5624 O   0  0  0  0  0  0  0  0  0  0  0  0
    0.0128    2.2785   -5.8664 O   0  0  0  0  0  0  0  0  0  0  0  0
    2.4575   -0.4087   -5.3005 O   0  0  0  0  0  0  0  0  0  0  0  0
    1.2358    0.4812   -7.8317 F   0  0  0  0  0  0  0  0  0  0  0  0
    2.9307    1.7154   -8.4357 F   0  0  0  0  0  0  0  0  0  0  0  0
    3.1530   -0.4463   -8.2953 F   0  0  0  0  0  0  0  0  0  0  0  0
   -3.6016   -0.3315   -6.3212 H   0  0  0  0  0  0  0  0  0  0  0  0
  1  6  2  0  0  0  0
  1  2  1  0  0  0  0
  2  3  2  0  0  0  0
  3  4  1  0  0  0  0
  3 11  1  0  0  0  0
  4  9  1  0  0  0  0
  5 10  1  0  0  0  0
  5  4  2  0  0  0  0
  6  5  1  0  0  0  0
  7  1  1  0  0  0  0
 11 12  1  0  0  0  0
 13 15  1  0  0  0  0
 13 17  1  0  0  0  0
 14 13  1  0  0  0  0
 16  8  1  0  0  0  0
 16  2  1  0  0  0  0
 18 14  1  0  0  0  0
 19 14  1  0  0  0  0
 20 14  1  0  0  0  0
 21  6  1  0  0  0  0
M  RAD  4  11   2  12   3  15   2  17   2
M  END
