Coordinates from ORCA-job Ph-N2-H-OTf-B3LYPG-6-31G_dp-scan-d09-49-n400
 OpenBabel08281820563D

 21 20  0  0  0  0  0  0  0  0999 V2000
   -2.1156    0.8581   -6.0940 C   0  0  0  0  0  0  0  0  0  0  0  0
   -1.0747    1.4095   -5.2365 C   0  0  0  0  0  0  0  0  0  0  0  0
   -0.6774    0.4634   -4.1572 C   0  0  0  0  0  0  0  0  0  0  0  0
   -1.2329   -0.8422   -3.9848 C   0  0  0  0  0  0  0  0  0  0  0  0
   -2.2013   -1.2586   -4.8499 C   0  0  0  0  0  0  0  0  0  0  0  0
   -2.6361   -0.3894   -5.9054 C   0  0  0  0  0  0  0  0  0  0  0  0
   -2.4553    1.5018   -6.8991 H   0  0  0  0  0  0  0  0  0  0  0  0
    2.8181    2.6069   -5.9931 H   0  0  0  0  0  0  0  0  0  0  0  0
   -0.8740   -1.4708   -3.1762 H   0  0  0  0  0  0  0  0  0  0  0  0
   -2.6426   -2.2432   -4.7454 H   0  0  0  0  0  0  0  0  0  0  0  0
    0.2587    0.9150   -3.3348 N   0  0  0  0  0  0  0  0  0  0  0  0
    1.0525    1.4123   -2.7016 N   0  0  0  0  0  0  0  0  0  0  0  0
    3.4125    0.5056   -6.1985 S   0  0  1  0  0  0  0  0  0  0  0  0
    2.3259    0.6539   -7.7407 C   0  0  0  0  0  0  0  0  0  0  0  0
    3.6703    2.1390   -6.0860 O   0  0  0  0  0  0  0  0  0  0  0  0
   -0.5691    2.5287   -5.3622 O   0  0  0  0  0  0  0  0  0  0  0  0
    2.4837    0.0268   -5.1448 O   0  0  0  0  0  0  0  0  0  0  0  0
    1.3664    1.5691   -7.5583 F   0  0  0  0  0  0  0  0  0  0  0  0
    3.0874    1.0125   -8.7795 F   0  0  0  0  0  0  0  0  0  0  0  0
    1.7673   -0.5320   -7.9902 F   0  0  0  0  0  0  0  0  0  0  0  0
   -3.4119   -0.7455   -6.5791 H   0  0  0  0  0  0  0  0  0  0  0  0
  1  6  1  0  0  0  0
  1  2  1  0  0  0  0
  2  3  1  0  0  0  0
  3  4  2  0  0  0  0
  3 11  1  0  0  0  0
  4  9  1  0  0  0  0
  5 10  1  0  0  0  0
  5  4  1  0  0  0  0
  6  5  2  0  0  0  0
  7  1  1  0  0  0  0
 11 12  1  0  0  0  0
 13 14  1  6  0  0  0
 13 15  1  0  0  0  0
 13 17  1  0  0  0  0
 14 18  1  0  0  0  0
 15  8  1  0  0  0  0
 16  2  2  0  0  0  0
 19 14  1  0  0  0  0
 20 14  1  0  0  0  0
 21  6  1  0  0  0  0
M  RAD  4   1   2  11   2  12   3  17   2
M  END
