Coordinates from ORCA-job Ph-N2-H-OTf-B3LYPG-6-31G_dp-scan-d09-49-n400
 OpenBabel08281820563D

 21 20  0  0  0  0  0  0  0  0999 V2000
   -1.9262    0.8564   -6.1290 C   0  0  0  0  0  0  0  0  0  0  0  0
   -0.7535    1.2366   -5.3720 C   0  0  0  0  0  0  0  0  0  0  0  0
   -0.5250    0.3763   -4.1984 C   0  0  0  0  0  0  0  0  0  0  0  0
   -1.3438   -0.7430   -3.8533 C   0  0  0  0  0  0  0  0  0  0  0  0
   -2.4200   -1.0315   -4.6415 C   0  0  0  0  0  0  0  0  0  0  0  0
   -2.7028   -0.2147   -5.7815 C   0  0  0  0  0  0  0  0  0  0  0  0
   -2.1457    1.4630   -7.0012 H   0  0  0  0  0  0  0  0  0  0  0  0
    1.6847    2.3141   -5.7420 H   0  0  0  0  0  0  0  0  0  0  0  0
   -1.0943   -1.3350   -2.9791 H   0  0  0  0  0  0  0  0  0  0  0  0
   -3.0586   -1.8760   -4.4084 H   0  0  0  0  0  0  0  0  0  0  0  0
    0.5020    0.7056   -3.4161 N   0  0  0  0  0  0  0  0  0  0  0  0
    1.3695    1.0534   -2.7860 N   0  0  0  0  0  0  0  0  0  0  0  0
    3.2586    0.8277   -6.1235 S   0  0  1  0  0  0  0  0  0  0  0  0
    2.5874    0.6906   -7.8861 C   0  0  0  0  0  0  0  0  0  0  0  0
    2.6834    2.3223   -5.8154 O   0  0  0  0  0  0  0  0  0  0  0  0
   -0.0223    2.2043   -5.6700 O   0  0  0  0  0  0  0  0  0  0  0  0
    2.4863   -0.2047   -5.3731 O   0  0  0  0  0  0  0  0  0  0  0  0
    1.2531    0.7416   -7.9239 F   0  0  0  0  0  0  0  0  0  0  0  0
    3.0907    1.6786   -8.6342 F   0  0  0  0  0  0  0  0  0  0  0  0
    2.9945   -0.4844   -8.3888 F   0  0  0  0  0  0  0  0  0  0  0  0
   -3.5666   -0.4605   -6.3936 H   0  0  0  0  0  0  0  0  0  0  0  0
  1  6  1  0  0  0  0
  1  2  1  0  0  0  0
  2  3  1  0  0  0  0
  3  4  2  0  0  0  0
  3 11  1  0  0  0  0
  4  9  1  0  0  0  0
  5 10  1  0  0  0  0
  5  4  1  0  0  0  0
  6  5  2  0  0  0  0
  7  1  1  0  0  0  0
 11 12  1  0  0  0  0
 13 14  1  6  0  0  0
 13 15  1  0  0  0  0
 13 17  1  0  0  0  0
 15  8  1  0  0  0  0
 16  2  2  0  0  0  0
 18 14  1  0  0  0  0
 19 14  1  0  0  0  0
 20 14  1  0  0  0  0
 21  6  1  0  0  0  0
M  RAD  4   1   2  11   2  12   3  17   2
M  END
