Coordinates from ORCA-job Ph-N2-H-OTf-B3LYPG-6-31G_dp-scan-d09-49-n400
 OpenBabel08281820563D

 21 20  0  0  0  0  0  0  0  0999 V2000
   -1.9093    0.8527   -6.1424 C   0  0  0  0  0  0  0  0  0  0  0  0
   -0.7279    1.2218   -5.3984 C   0  0  0  0  0  0  0  0  0  0  0  0
   -0.5051    0.3789   -4.2155 C   0  0  0  0  0  0  0  0  0  0  0  0
   -1.3388   -0.7218   -3.8484 C   0  0  0  0  0  0  0  0  0  0  0  0
   -2.4250   -1.0049   -4.6255 C   0  0  0  0  0  0  0  0  0  0  0  0
   -2.7019   -0.2008   -5.7747 C   0  0  0  0  0  0  0  0  0  0  0  0
   -2.1231    1.4498   -7.0225 H   0  0  0  0  0  0  0  0  0  0  0  0
    1.5863    2.2570   -5.7221 H   0  0  0  0  0  0  0  0  0  0  0  0
   -1.0925   -1.3044   -2.9671 H   0  0  0  0  0  0  0  0  0  0  0  0
   -3.0751   -1.8356   -4.3756 H   0  0  0  0  0  0  0  0  0  0  0  0
    0.5303    0.7025   -3.4390 N   0  0  0  0  0  0  0  0  0  0  0  0
    1.4007    1.0387   -2.8079 N   0  0  0  0  0  0  0  0  0  0  0  0
    3.2291    0.8266   -6.1018 S   0  0  1  0  0  0  0  0  0  0  0  0
    2.5947    0.7039   -7.8794 C   0  0  0  0  0  0  0  0  0  0  0  0
    2.6027    2.2854   -5.7642 O   0  0  0  0  0  0  0  0  0  0  0  0
    0.0167    2.1764   -5.7200 O   0  0  0  0  0  0  0  0  0  0  0  0
    2.4769   -0.2509   -5.3918 O   0  0  0  0  0  0  0  0  0  0  0  0
    1.2600    0.6605   -7.9383 F   0  0  0  0  0  0  0  0  0  0  0  0
    3.0355    1.7484   -8.5897 F   0  0  0  0  0  0  0  0  0  0  0  0
    3.0905   -0.4225   -8.4145 F   0  0  0  0  0  0  0  0  0  0  0  0
   -3.5730   -0.4410   -6.3783 H   0  0  0  0  0  0  0  0  0  0  0  0
  1  6  1  0  0  0  0
  1  2  1  0  0  0  0
  2  3  1  0  0  0  0
  3  4  2  0  0  0  0
  3 11  1  0  0  0  0
  4  9  1  0  0  0  0
  5 10  1  0  0  0  0
  5  4  1  0  0  0  0
  6  5  2  0  0  0  0
  7  1  1  0  0  0  0
 11 12  1  0  0  0  0
 13 14  1  6  0  0  0
 13 15  1  0  0  0  0
 13 17  1  0  0  0  0
 15  8  1  0  0  0  0
 16  2  2  0  0  0  0
 18 14  1  0  0  0  0
 19 14  1  0  0  0  0
 20 14  1  0  0  0  0
 21  6  1  0  0  0  0
M  RAD  4   1   2  11   2  12   3  17   2
M  END
