Coordinates from ORCA-job Ph-N2-H-OTf-B3LYPG-6-31G_dp-scan-d09-49-n400
 OpenBabel08281820563D

 21 20  0  0  0  0  0  0  0  0999 V2000
   -1.9183    0.8531   -6.1362 C   0  0  0  0  0  0  0  0  0  0  0  0
   -0.7408    1.2281   -5.3862 C   0  0  0  0  0  0  0  0  0  0  0  0
   -0.5158    0.3777   -4.2067 C   0  0  0  0  0  0  0  0  0  0  0  0
   -1.3429   -0.7312   -3.8490 C   0  0  0  0  0  0  0  0  0  0  0  0
   -2.4243   -1.0173   -4.6312 C   0  0  0  0  0  0  0  0  0  0  0  0
   -2.7035   -0.2082   -5.7770 C   0  0  0  0  0  0  0  0  0  0  0  0
   -2.1345    1.4539   -7.0131 H   0  0  0  0  0  0  0  0  0  0  0  0
    1.6366    2.2836   -5.7303 H   0  0  0  0  0  0  0  0  0  0  0  0
   -1.0954   -1.3175   -2.9704 H   0  0  0  0  0  0  0  0  0  0  0  0
   -3.0693   -1.8542   -4.3885 H   0  0  0  0  0  0  0  0  0  0  0  0
    0.5160    0.7043   -3.4282 N   0  0  0  0  0  0  0  0  0  0  0  0
    1.3858    1.0465   -2.7988 N   0  0  0  0  0  0  0  0  0  0  0  0
    3.2437    0.8253   -6.1128 S   0  0  1  0  0  0  0  0  0  0  0  0
    2.5934    0.6992   -7.8842 C   0  0  0  0  0  0  0  0  0  0  0  0
    2.6432    2.3022   -5.7873 O   0  0  0  0  0  0  0  0  0  0  0  0
   -0.0022    2.1882   -5.6971 O   0  0  0  0  0  0  0  0  0  0  0  0
    2.4796   -0.2308   -5.3856 O   0  0  0  0  0  0  0  0  0  0  0  0
    1.2582    0.7006   -7.9340 F   0  0  0  0  0  0  0  0  0  0  0  0
    3.0653    1.7190   -8.6099 F   0  0  0  0  0  0  0  0  0  0  0  0
    3.0481   -0.4501   -8.4061 F   0  0  0  0  0  0  0  0  0  0  0  0
   -3.5712   -0.4515   -6.3846 H   0  0  0  0  0  0  0  0  0  0  0  0
  1  6  1  0  0  0  0
  1  2  1  0  0  0  0
  2  3  1  0  0  0  0
  3  4  2  0  0  0  0
  3 11  1  0  0  0  0
  4  9  1  0  0  0  0
  5 10  1  0  0  0  0
  5  4  1  0  0  0  0
  6  5  2  0  0  0  0
  7  1  1  0  0  0  0
 11 12  1  0  0  0  0
 13 14  1  6  0  0  0
 13 15  1  0  0  0  0
 13 17  1  0  0  0  0
 15  8  1  0  0  0  0
 16  2  2  0  0  0  0
 18 14  1  0  0  0  0
 19 14  1  0  0  0  0
 20 14  1  0  0  0  0
 21  6  1  0  0  0  0
M  RAD  4   1   2  11   2  12   3  17   2
M  END
