Coordinates from ORCA-job Ph-N2-H-OTf-B3LYPG-6-31G_dp-scan-d09-49-n400
 OpenBabel08281820563D

 21 20  0  0  0  0  0  0  0  0999 V2000
   -2.7839    0.9271   -5.8440 C   0  0  0  0  0  0  0  0  0  0  0  0
   -1.6137    1.6581   -5.3719 C   0  0  0  0  0  0  0  0  0  0  0  0
   -0.6289    0.7653   -4.6787 C   0  0  0  0  0  0  0  0  0  0  0  0
   -0.7866   -0.6523   -4.5332 C   0  0  0  0  0  0  0  0  0  0  0  0
   -1.9175   -1.2265   -5.0271 C   0  0  0  0  0  0  0  0  0  0  0  0
   -2.9161   -0.4191   -5.6765 C   0  0  0  0  0  0  0  0  0  0  0  0
   -3.5438    1.5198   -6.3426 H   0  0  0  0  0  0  0  0  0  0  0  0
    3.0355    1.9462   -5.0837 H   0  0  0  0  0  0  0  0  0  0  0  0
    0.0044   -1.2239   -4.0615 H   0  0  0  0  0  0  0  0  0  0  0  0
   -2.0689   -2.2967   -4.9391 H   0  0  0  0  0  0  0  0  0  0  0  0
    0.4271    1.3901   -4.2099 N   0  0  0  0  0  0  0  0  0  0  0  0
    1.2821    2.0577   -3.8714 N   0  0  0  0  0  0  0  0  0  0  0  0
    3.5115    0.0040   -5.9759 S   0  0  1  0  0  0  0  0  0  0  0  0
    2.4838    0.6131   -7.4426 C   0  0  0  0  0  0  0  0  0  0  0  0
    3.8551    1.5207   -5.4176 O   0  0  0  0  0  0  0  0  0  0  0  0
   -1.4202    2.8651   -5.5073 O   0  0  0  0  0  0  0  0  0  0  0  0
    2.5152   -0.6703   -5.1005 O   0  0  0  0  0  0  0  0  0  0  0  0
    1.5243    1.4557   -7.0334 F   0  0  0  0  0  0  0  0  0  0  0  0
    3.2804    1.2406   -8.3103 F   0  0  0  0  0  0  0  0  0  0  0  0
    1.9212   -0.4411   -8.0375 F   0  0  0  0  0  0  0  0  0  0  0  0
   -3.8090   -0.9125   -6.0524 H   0  0  0  0  0  0  0  0  0  0  0  0
  1  6  1  0  0  0  0
  1  2  1  0  0  0  0
  2  3  1  0  0  0  0
  3  4  2  0  0  0  0
  3 11  1  0  0  0  0
  4  9  1  0  0  0  0
  5 10  1  0  0  0  0
  5  4  1  0  0  0  0
  6  5  2  0  0  0  0
  7  1  1  0  0  0  0
 11 12  1  0  0  0  0
 13 14  1  6  0  0  0
 13 15  1  0  0  0  0
 13 17  1  0  0  0  0
 14 18  1  0  0  0  0
 15  8  1  0  0  0  0
 16  2  2  0  0  0  0
 19 14  1  0  0  0  0
 20 14  1  0  0  0  0
 21  6  1  0  0  0  0
M  RAD  4   1   2  11   2  12   3  17   2
M  END
