Coordinates from ORCA-job Ph-N2-H-OTf-B3LYPG-6-31G_dp-scan-d09-49-n400
 OpenBabel08281820563D

 21 20  0  0  0  0  0  0  0  0999 V2000
   -1.9327    0.8573   -6.1245 C   0  0  0  0  0  0  0  0  0  0  0  0
   -0.7633    1.2420   -5.3632 C   0  0  0  0  0  0  0  0  0  0  0  0
   -0.5317    0.3759   -4.1931 C   0  0  0  0  0  0  0  0  0  0  0  0
   -1.3441   -0.7503   -3.8556 C   0  0  0  0  0  0  0  0  0  0  0  0
   -2.4169   -1.0415   -4.6474 C   0  0  0  0  0  0  0  0  0  0  0  0
   -2.7028   -0.2204   -5.7839 C   0  0  0  0  0  0  0  0  0  0  0  0
   -2.1548    1.4671   -6.9939 H   0  0  0  0  0  0  0  0  0  0  0  0
    1.7180    2.3333   -5.7505 H   0  0  0  0  0  0  0  0  0  0  0  0
   -1.0927   -1.3455   -2.9840 H   0  0  0  0  0  0  0  0  0  0  0  0
   -3.0506   -1.8911   -4.4200 H   0  0  0  0  0  0  0  0  0  0  0  0
    0.4923    0.7078   -3.4088 N   0  0  0  0  0  0  0  0  0  0  0  0
    1.3583    1.0599   -2.7786 N   0  0  0  0  0  0  0  0  0  0  0  0
    3.2689    0.8270   -6.1303 S   0  0  1  0  0  0  0  0  0  0  0  0
    2.5843    0.6869   -7.8874 C   0  0  0  0  0  0  0  0  0  0  0  0
    2.7121    2.3329   -5.8321 O   0  0  0  0  0  0  0  0  0  0  0  0
   -0.0375    2.2147   -5.6534 O   0  0  0  0  0  0  0  0  0  0  0  0
    2.4899   -0.1897   -5.3665 O   0  0  0  0  0  0  0  0  0  0  0  0
    1.2520    0.7755   -7.9183 F   0  0  0  0  0  0  0  0  0  0  0  0
    3.1113    1.6521   -8.6487 F   0  0  0  0  0  0  0  0  0  0  0  0
    2.9557   -0.5045   -8.3782 F   0  0  0  0  0  0  0  0  0  0  0  0
   -3.5640   -0.4686   -6.3988 H   0  0  0  0  0  0  0  0  0  0  0  0
  1  6  1  0  0  0  0
  1  2  1  0  0  0  0
  2  3  1  0  0  0  0
  3  4  2  0  0  0  0
  3 11  1  0  0  0  0
  4  9  1  0  0  0  0
  5 10  1  0  0  0  0
  5  4  1  0  0  0  0
  6  5  2  0  0  0  0
  7  1  1  0  0  0  0
 11 12  1  0  0  0  0
 13 14  1  6  0  0  0
 13 15  1  0  0  0  0
 13 17  1  0  0  0  0
 15  8  1  0  0  0  0
 16  2  2  0  0  0  0
 18 14  1  0  0  0  0
 19 14  1  0  0  0  0
 20 14  1  0  0  0  0
 21  6  1  0  0  0  0
M  RAD  4   1   2  11   2  12   3  17   2
M  END
