Coordinates from ORCA-job Ph-N2-H-OTf-B3LYPG-6-31G_dp-scan-d09-49-n400
 OpenBabel08281820563D

 21 20  0  0  0  0  0  0  0  0999 V2000
   -1.8869    0.8672   -6.1560 C   0  0  0  0  0  0  0  0  0  0  0  0
   -0.6942    1.2160   -5.4325 C   0  0  0  0  0  0  0  0  0  0  0  0
   -0.4654    0.3867   -4.2511 C   0  0  0  0  0  0  0  0  0  0  0  0
   -1.3071   -0.6996   -3.8646 C   0  0  0  0  0  0  0  0  0  0  0  0
   -2.4099   -0.9732   -4.6235 C   0  0  0  0  0  0  0  0  0  0  0  0
   -2.6924   -0.1728   -5.7706 C   0  0  0  0  0  0  0  0  0  0  0  0
   -2.1021    1.4618   -7.0370 H   0  0  0  0  0  0  0  0  0  0  0  0
    1.4075    2.1903   -5.7103 H   0  0  0  0  0  0  0  0  0  0  0  0
   -1.0549   -1.2793   -2.9833 H   0  0  0  0  0  0  0  0  0  0  0  0
   -3.0667   -1.7937   -4.3580 H   0  0  0  0  0  0  0  0  0  0  0  0
    0.5790    0.7022   -3.4755 N   0  0  0  0  0  0  0  0  0  0  0  0
    1.4450    1.0199   -2.8325 N   0  0  0  0  0  0  0  0  0  0  0  0
    3.1782    0.8264   -6.0564 S   0  0  1  0  0  0  0  0  0  0  0  0
    2.5931    0.7021   -7.8513 C   0  0  0  0  0  0  0  0  0  0  0  0
    2.4816    2.2274   -5.6981 O   0  0  0  0  0  0  0  0  0  0  0  0
    0.0586    2.1663   -5.7829 O   0  0  0  0  0  0  0  0  0  0  0  0
    2.4576   -0.3065   -5.3919 O   0  0  0  0  0  0  0  0  0  0  0  0
    1.2642    0.5577   -7.9409 F   0  0  0  0  0  0  0  0  0  0  0  0
    2.9622    1.7939   -8.5323 F   0  0  0  0  0  0  0  0  0  0  0  0
    3.1797   -0.3700   -8.4076 F   0  0  0  0  0  0  0  0  0  0  0  0
   -3.5755   -0.4020   -6.3607 H   0  0  0  0  0  0  0  0  0  0  0  0
  1  6  1  0  0  0  0
  1  2  1  0  0  0  0
  2  3  1  0  0  0  0
  3  4  2  0  0  0  0
  3 11  1  0  0  0  0
  4  9  1  0  0  0  0
  5 10  1  0  0  0  0
  5  4  1  0  0  0  0
  6  5  2  0  0  0  0
  7  1  1  0  0  0  0
  8 15  1  0  0  0  0
 11 12  1  0  0  0  0
 13 14  1  6  0  0  0
 13 15  1  0  0  0  0
 13 17  1  0  0  0  0
 16  2  2  0  0  0  0
 18 14  1  0  0  0  0
 19 14  1  0  0  0  0
 20 14  1  0  0  0  0
 21  6  1  0  0  0  0
M  RAD  4   1   2  11   2  12   3  17   2
M  END
