Coordinates from ORCA-job Ph-N2-H-OTf-B3LYPG-6-31G_dp-scan-d09-49-n400
 OpenBabel08281820563D

 21 20  0  0  0  0  0  0  0  0999 V2000
   -2.1033    0.8475   -6.0780 C   0  0  0  0  0  0  0  0  0  0  0  0
   -1.0051    1.3517   -5.2666 C   0  0  0  0  0  0  0  0  0  0  0  0
   -0.6543    0.4258   -4.1570 C   0  0  0  0  0  0  0  0  0  0  0  0
   -1.2965   -0.8290   -3.9213 C   0  0  0  0  0  0  0  0  0  0  0  0
   -2.3110   -1.2083   -4.7499 C   0  0  0  0  0  0  0  0  0  0  0  0
   -2.7073   -0.3513   -5.8294 C   0  0  0  0  0  0  0  0  0  0  0  0
   -2.4137    1.4825   -6.9015 H   0  0  0  0  0  0  0  0  0  0  0  0
    2.4785    2.5785   -5.9313 H   0  0  0  0  0  0  0  0  0  0  0  0
   -0.9656   -1.4495   -3.0947 H   0  0  0  0  0  0  0  0  0  0  0  0
   -2.8177   -2.1545   -4.5980 H   0  0  0  0  0  0  0  0  0  0  0  0
    0.3230    0.8432   -3.3640 N   0  0  0  0  0  0  0  0  0  0  0  0
    1.1537    1.3059   -2.7530 N   0  0  0  0  0  0  0  0  0  0  0  0
    3.4078    0.6086   -6.1794 S   0  0  1  0  0  0  0  0  0  0  0  0
    2.4968    0.6759   -7.8358 C   0  0  0  0  0  0  0  0  0  0  0  0
    3.3978    2.2502   -5.9697 O   0  0  0  0  0  0  0  0  0  0  0  0
   -0.4233    2.4272   -5.4513 O   0  0  0  0  0  0  0  0  0  0  0  0
    2.4485   -0.0626   -5.2659 O   0  0  0  0  0  0  0  0  0  0  0  0
    1.3846    1.4121   -7.7407 F   0  0  0  0  0  0  0  0  0  0  0  0
    3.3046    1.2111   -8.7574 F   0  0  0  0  0  0  0  0  0  0  0  0
    2.1761   -0.5685   -8.1998 F   0  0  0  0  0  0  0  0  0  0  0  0
   -3.5219   -0.6755   -6.4725 H   0  0  0  0  0  0  0  0  0  0  0  0
  1  6  1  0  0  0  0
  1  2  1  0  0  0  0
  2  3  1  0  0  0  0
  3  4  2  0  0  0  0
  3 11  1  0  0  0  0
  4  9  1  0  0  0  0
  5 10  1  0  0  0  0
  5  4  1  0  0  0  0
  6  5  2  0  0  0  0
  7  1  1  0  0  0  0
 11 12  1  0  0  0  0
 13 14  1  6  0  0  0
 13 15  1  0  0  0  0
 13 17  1  0  0  0  0
 14 18  1  0  0  0  0
 15  8  1  0  0  0  0
 16  2  2  0  0  0  0
 19 14  1  0  0  0  0
 20 14  1  0  0  0  0
 21  6  1  0  0  0  0
M  RAD  4   1   2  11   2  12   3  17   2
M  END
