Coordinates from ORCA-job Ph-N2-H-OTf-B3LYPG-6-31G_dp-scan-d09-49-n400
 OpenBabel08281820563D

 21 20  0  0  0  0  0  0  0  0999 V2000
   -2.0095    0.8548   -6.0983 C   0  0  0  0  0  0  0  0  0  0  0  0
   -0.8813    1.3044   -5.3010 C   0  0  0  0  0  0  0  0  0  0  0  0
   -0.5968    0.3988   -4.1621 C   0  0  0  0  0  0  0  0  0  0  0  0
   -1.3233   -0.8011   -3.8872 C   0  0  0  0  0  0  0  0  0  0  0  0
   -2.3597   -1.1381   -4.7072 C   0  0  0  0  0  0  0  0  0  0  0  0
   -2.6949   -0.2921   -5.8145 C   0  0  0  0  0  0  0  0  0  0  0  0
   -2.2719    1.4821   -6.9440 H   0  0  0  0  0  0  0  0  0  0  0  0
    2.1127    2.4962   -5.8088 H   0  0  0  0  0  0  0  0  0  0  0  0
   -1.0371   -1.4142   -3.0388 H   0  0  0  0  0  0  0  0  0  0  0  0
   -2.9291   -2.0428   -4.5268 H   0  0  0  0  0  0  0  0  0  0  0  0
    0.3983    0.7750   -3.3679 N   0  0  0  0  0  0  0  0  0  0  0  0
    1.2448    1.1884   -2.7450 N   0  0  0  0  0  0  0  0  0  0  0  0
    3.3524    0.7290   -6.1740 S   0  0  1  0  0  0  0  0  0  0  0  0
    2.5250    0.6681   -7.8733 C   0  0  0  0  0  0  0  0  0  0  0  0
    3.0720    2.3353   -5.9282 O   0  0  0  0  0  0  0  0  0  0  0  0
   -0.2284    2.3348   -5.5255 O   0  0  0  0  0  0  0  0  0  0  0  0
    2.4755   -0.1063   -5.3111 O   0  0  0  0  0  0  0  0  0  0  0  0
    1.2716    1.1247   -7.8307 F   0  0  0  0  0  0  0  0  0  0  0  0
    3.2386    1.4079   -8.7293 F   0  0  0  0  0  0  0  0  0  0  0  0
    2.5203   -0.6030   -8.2919 F   0  0  0  0  0  0  0  0  0  0  0  0
   -3.5274   -0.5809   -6.4513 H   0  0  0  0  0  0  0  0  0  0  0  0
  1  6  1  0  0  0  0
  1  2  1  0  0  0  0
  2  3  1  0  0  0  0
  3  4  2  0  0  0  0
  3 11  1  0  0  0  0
  4  9  1  0  0  0  0
  5 10  1  0  0  0  0
  5  4  1  0  0  0  0
  6  5  2  0  0  0  0
  7  1  1  0  0  0  0
 11 12  1  0  0  0  0
 13 14  1  6  0  0  0
 13 15  1  0  0  0  0
 13 17  1  0  0  0  0
 14 18  1  0  0  0  0
 15  8  1  0  0  0  0
 16  2  2  0  0  0  0
 19 14  1  0  0  0  0
 20 14  1  0  0  0  0
 21  6  1  0  0  0  0
M  RAD  4   1   2  11   2  12   3  17   2
M  END
