Coordinates from ORCA-job Ph-N2-H-OTf-B3LYPG-6-31G_dp-scan-d09-49-n400
 OpenBabel08281820563D

 21 20  0  0  0  0  0  0  0  0999 V2000
   -2.0908    0.8415   -6.0775 C   0  0  0  0  0  0  0  0  0  0  0  0
   -0.9716    1.3265   -5.2847 C   0  0  0  0  0  0  0  0  0  0  0  0
   -0.6403    0.4138   -4.1602 C   0  0  0  0  0  0  0  0  0  0  0  0
   -1.3184   -0.8159   -3.8944 C   0  0  0  0  0  0  0  0  0  0  0  0
   -2.3505   -1.1804   -4.7078 C   0  0  0  0  0  0  0  0  0  0  0  0
   -2.7291   -0.3334   -5.8010 C   0  0  0  0  0  0  0  0  0  0  0  0
   -2.3874    1.4693   -6.9116 H   0  0  0  0  0  0  0  0  0  0  0  0
    2.3295    2.5406   -5.9011 H   0  0  0  0  0  0  0  0  0  0  0  0
   -1.0001   -1.4294   -3.0578 H   0  0  0  0  0  0  0  0  0  0  0  0
   -2.8842   -2.1077   -4.5333 H   0  0  0  0  0  0  0  0  0  0  0  0
    0.3537    0.8164   -3.3797 N   0  0  0  0  0  0  0  0  0  0  0  0
    1.1992    1.2616   -2.7764 N   0  0  0  0  0  0  0  0  0  0  0  0
    3.3918    0.6424   -6.1714 S   0  0  1  0  0  0  0  0  0  0  0  0
    2.5568    0.6915   -7.8674 C   0  0  0  0  0  0  0  0  0  0  0  0
    3.2694    2.2721   -5.9228 O   0  0  0  0  0  0  0  0  0  0  0  0
   -0.3602    2.3816   -5.4966 O   0  0  0  0  0  0  0  0  0  0  0  0
    2.4366   -0.1104   -5.3185 O   0  0  0  0  0  0  0  0  0  0  0  0
    1.3805    1.3228   -7.8076 F   0  0  0  0  0  0  0  0  0  0  0  0
    3.3573    1.3270   -8.7297 F   0  0  0  0  0  0  0  0  0  0  0  0
    2.3673   -0.5637   -8.2856 F   0  0  0  0  0  0  0  0  0  0  0  0
   -3.5578   -0.6453   -6.4320 H   0  0  0  0  0  0  0  0  0  0  0  0
  1  6  1  0  0  0  0
  1  2  1  0  0  0  0
  2  3  1  0  0  0  0
  3  4  2  0  0  0  0
  3 11  1  0  0  0  0
  4  9  1  0  0  0  0
  5 10  1  0  0  0  0
  5  4  1  0  0  0  0
  6  5  2  0  0  0  0
  7  1  1  0  0  0  0
 11 12  1  0  0  0  0
 13 14  1  6  0  0  0
 13 15  1  0  0  0  0
 13 17  1  0  0  0  0
 14 18  1  0  0  0  0
 15  8  1  0  0  0  0
 16  2  2  0  0  0  0
 19 14  1  0  0  0  0
 20 14  1  0  0  0  0
 21  6  1  0  0  0  0
M  RAD  4   1   2  11   2  12   3  17   2
M  END
