Coordinates from ORCA-job Ph-N2-H-OTf-B3LYPG-6-31G_dp-scan-d09-49-n400
 OpenBabel08281820563D

 21 20  0  0  0  0  0  0  0  0999 V2000
   -2.0820    0.8423   -6.0791 C   0  0  0  0  0  0  0  0  0  0  0  0
   -0.9607    1.3228   -5.2869 C   0  0  0  0  0  0  0  0  0  0  0  0
   -0.6350    0.4113   -4.1603 C   0  0  0  0  0  0  0  0  0  0  0  0
   -1.3199   -0.8142   -3.8920 C   0  0  0  0  0  0  0  0  0  0  0  0
   -2.3534   -1.1751   -4.7052 C   0  0  0  0  0  0  0  0  0  0  0  0
   -2.7268   -0.3286   -5.8005 C   0  0  0  0  0  0  0  0  0  0  0  0
   -2.3746    1.4697   -6.9149 H   0  0  0  0  0  0  0  0  0  0  0  0
    2.2965    2.5350   -5.8970 H   0  0  0  0  0  0  0  0  0  0  0  0
   -1.0053   -1.4274   -3.0537 H   0  0  0  0  0  0  0  0  0  0  0  0
   -2.8920   -2.0992   -4.5289 H   0  0  0  0  0  0  0  0  0  0  0  0
    0.3602    0.8103   -3.3792 N   0  0  0  0  0  0  0  0  0  0  0  0
    1.2066    1.2512   -2.7744 N   0  0  0  0  0  0  0  0  0  0  0  0
    3.3863    0.6529   -6.1698 S   0  0  1  0  0  0  0  0  0  0  0  0
    2.5581    0.6910   -7.8695 C   0  0  0  0  0  0  0  0  0  0  0  0
    3.2402    2.2799   -5.9195 O   0  0  0  0  0  0  0  0  0  0  0  0
   -0.3437    2.3744   -5.5014 O   0  0  0  0  0  0  0  0  0  0  0  0
    2.4385   -0.1145   -5.3213 O   0  0  0  0  0  0  0  0  0  0  0  0
    1.3736    1.3072   -7.8163 F   0  0  0  0  0  0  0  0  0  0  0  0
    3.3549    1.3362   -8.7281 F   0  0  0  0  0  0  0  0  0  0  0  0
    2.3867   -0.5667   -8.2880 F   0  0  0  0  0  0  0  0  0  0  0  0
   -3.5566   -0.6375   -6.4314 H   0  0  0  0  0  0  0  0  0  0  0  0
  1  6  1  0  0  0  0
  1  2  1  0  0  0  0
  2  3  1  0  0  0  0
  3  4  2  0  0  0  0
  3 11  1  0  0  0  0
  4  9  1  0  0  0  0
  5 10  1  0  0  0  0
  5  4  1  0  0  0  0
  6  5  2  0  0  0  0
  7  1  1  0  0  0  0
 11 12  1  0  0  0  0
 13 14  1  6  0  0  0
 13 15  1  0  0  0  0
 13 17  1  0  0  0  0
 14 18  1  0  0  0  0
 15  8  1  0  0  0  0
 16  2  2  0  0  0  0
 19 14  1  0  0  0  0
 20 14  1  0  0  0  0
 21  6  1  0  0  0  0
M  RAD  4   1   2  11   2  12   3  17   2
M  END
