Coordinates from ORCA-job Ph-N2-H-OTf-B3LYPG-6-31G_dp-scan-d09-49-n400
 OpenBabel08281820563D

 21 20  0  0  0  0  0  0  0  0999 V2000
   -2.0576    0.8435   -6.0847 C   0  0  0  0  0  0  0  0  0  0  0  0
   -0.9308    1.3118   -5.2942 C   0  0  0  0  0  0  0  0  0  0  0  0
   -0.6209    0.4049   -4.1608 C   0  0  0  0  0  0  0  0  0  0  0  0
   -1.3240   -0.8086   -3.8852 C   0  0  0  0  0  0  0  0  0  0  0  0
   -2.3611   -1.1603   -4.6979 C   0  0  0  0  0  0  0  0  0  0  0  0
   -2.7202   -0.3160   -5.7994 C   0  0  0  0  0  0  0  0  0  0  0  0
   -2.3390    1.4693   -6.9254 H   0  0  0  0  0  0  0  0  0  0  0  0
    2.2149    2.5192   -5.8762 H   0  0  0  0  0  0  0  0  0  0  0  0
   -1.0200   -1.4203   -3.0419 H   0  0  0  0  0  0  0  0  0  0  0  0
   -2.9134   -2.0753   -4.5164 H   0  0  0  0  0  0  0  0  0  0  0  0
    0.3768    0.7946   -3.3776 N   0  0  0  0  0  0  0  0  0  0  0  0
    1.2257    1.2236   -2.7681 N   0  0  0  0  0  0  0  0  0  0  0  0
    3.3699    0.6797   -6.1671 S   0  0  1  0  0  0  0  0  0  0  0  0
    2.5592    0.6897   -7.8757 C   0  0  0  0  0  0  0  0  0  0  0  0
    3.1676    2.2986   -5.9123 O   0  0  0  0  0  0  0  0  0  0  0  0
   -0.2981    2.3535   -5.5163 O   0  0  0  0  0  0  0  0  0  0  0  0
    2.4404   -0.1207   -5.3280 O   0  0  0  0  0  0  0  0  0  0  0  0
    1.3502    1.2564   -7.8380 F   0  0  0  0  0  0  0  0  0  0  0  0
    3.3403    1.3678   -8.7235 F   0  0  0  0  0  0  0  0  0  0  0  0
    2.4447   -0.5736   -8.2983 F   0  0  0  0  0  0  0  0  0  0  0  0
   -3.5531   -0.6170   -6.4300 H   0  0  0  0  0  0  0  0  0  0  0  0
  1  6  1  0  0  0  0
  1  2  1  0  0  0  0
  2  3  1  0  0  0  0
  3  4  2  0  0  0  0
  3 11  1  0  0  0  0
  4  9  1  0  0  0  0
  5 10  1  0  0  0  0
  5  4  1  0  0  0  0
  6  5  2  0  0  0  0
  7  1  1  0  0  0  0
 11 12  1  0  0  0  0
 13 14  1  6  0  0  0
 13 15  1  0  0  0  0
 13 17  1  0  0  0  0
 14 18  1  0  0  0  0
 15  8  1  0  0  0  0
 16  2  2  0  0  0  0
 19 14  1  0  0  0  0
 20 14  1  0  0  0  0
 21  6  1  0  0  0  0
M  RAD  4   1   2  11   2  12   3  17   2
M  END
