Coordinates from ORCA-job Ph-N2-H-OTf-B3LYPG-6-31G_dp-scan-d09-49-n400
 OpenBabel08281820563D

 21 20  0  0  0  0  0  0  0  0999 V2000
   -2.1323    0.8631   -6.0999 C   0  0  0  0  0  0  0  0  0  0  0  0
   -1.1067    1.4327   -5.2355 C   0  0  0  0  0  0  0  0  0  0  0  0
   -0.6802    0.4827   -4.1701 C   0  0  0  0  0  0  0  0  0  0  0  0
   -1.1975   -0.8406   -4.0156 C   0  0  0  0  0  0  0  0  0  0  0  0
   -2.1548   -1.2725   -4.8854 C   0  0  0  0  0  0  0  0  0  0  0  0
   -2.6162   -0.4014   -5.9281 C   0  0  0  0  0  0  0  0  0  0  0  0
   -2.4920    1.5079   -6.8953 H   0  0  0  0  0  0  0  0  0  0  0  0
    2.9249    2.5876   -5.9954 H   0  0  0  0  0  0  0  0  0  0  0  0
   -0.8189   -1.4700   -3.2167 H   0  0  0  0  0  0  0  0  0  0  0  0
   -2.5676   -2.2707   -4.7940 H   0  0  0  0  0  0  0  0  0  0  0  0
    0.2445    0.9497   -3.3436 N   0  0  0  0  0  0  0  0  0  0  0  0
    1.0264    1.4617   -2.7073 N   0  0  0  0  0  0  0  0  0  0  0  0
    3.4082    0.4577   -6.1986 S   0  0  1  0  0  0  0  0  0  0  0  0
    2.2689    0.6513   -7.6975 C   0  0  0  0  0  0  0  0  0  0  0  0
    3.7499    2.0777   -6.1109 O   0  0  0  0  0  0  0  0  0  0  0  0
   -0.6330    2.5670   -5.3459 O   0  0  0  0  0  0  0  0  0  0  0  0
    2.4998    0.0333   -5.1047 O   0  0  0  0  0  0  0  0  0  0  0  0
    1.3709    1.6214   -7.4867 F   0  0  0  0  0  0  0  0  0  0  0  0
    3.0053    0.9562   -8.7709 F   0  0  0  0  0  0  0  0  0  0  0  0
    1.6346   -0.5032   -7.9090 F   0  0  0  0  0  0  0  0  0  0  0  0
   -3.3824   -0.7705   -6.6059 H   0  0  0  0  0  0  0  0  0  0  0  0
  1  6  1  0  0  0  0
  1  2  1  0  0  0  0
  2  3  1  0  0  0  0
  3  4  2  0  0  0  0
  3 11  1  0  0  0  0
  4  9  1  0  0  0  0
  5 10  1  0  0  0  0
  5  4  1  0  0  0  0
  6  5  2  0  0  0  0
  7  1  1  0  0  0  0
 11 12  1  0  0  0  0
 13 14  1  6  0  0  0
 13 15  1  0  0  0  0
 13 17  1  0  0  0  0
 14 18  1  0  0  0  0
 15  8  1  0  0  0  0
 16  2  2  0  0  0  0
 19 14  1  0  0  0  0
 20 14  1  0  0  0  0
 21  6  1  0  0  0  0
M  RAD  4   1   2  11   2  12   3  17   2
M  END
