Coordinates from ORCA-job Ph-N2-H-OTf-B3LYPG-6-31G_dp-scan-d09-49-n400
 OpenBabel08281820563D

 21 20  0  0  0  0  0  0  0  0999 V2000
   -2.1086    0.8528   -6.0836 C   0  0  0  0  0  0  0  0  0  0  0  0
   -1.0491    1.3848   -5.2374 C   0  0  0  0  0  0  0  0  0  0  0  0
   -0.6768    0.4439   -4.1455 C   0  0  0  0  0  0  0  0  0  0  0  0
   -1.2698   -0.8422   -3.9528 C   0  0  0  0  0  0  0  0  0  0  0  0
   -2.2527   -1.2424   -4.8092 C   0  0  0  0  0  0  0  0  0  0  0  0
   -2.6652   -0.3761   -5.8758 C   0  0  0  0  0  0  0  0  0  0  0  0
   -2.4313    1.4945   -6.8972 H   0  0  0  0  0  0  0  0  0  0  0  0
    2.7144    2.6209   -5.9892 H   0  0  0  0  0  0  0  0  0  0  0  0
   -0.9274   -1.4694   -3.1360 H   0  0  0  0  0  0  0  0  0  0  0  0
   -2.7221   -2.2121   -4.6895 H   0  0  0  0  0  0  0  0  0  0  0  0
    0.2738    0.8793   -3.3307 N   0  0  0  0  0  0  0  0  0  0  0  0
    1.0805    1.3615   -2.7024 N   0  0  0  0  0  0  0  0  0  0  0  0
    3.4150    0.5521   -6.1969 S   0  0  1  0  0  0  0  0  0  0  0  0
    2.3976    0.6588   -7.7880 C   0  0  0  0  0  0  0  0  0  0  0  0
    3.5900    2.1941   -6.0609 O   0  0  0  0  0  0  0  0  0  0  0  0
   -0.5121    2.4877   -5.3812 O   0  0  0  0  0  0  0  0  0  0  0  0
    2.4606    0.0203   -5.1922 O   0  0  0  0  0  0  0  0  0  0  0  0
    1.3668    1.4982   -7.6384 F   0  0  0  0  0  0  0  0  0  0  0  0
    3.1813    1.0923   -8.7808 F   0  0  0  0  0  0  0  0  0  0  0  0
    1.9399   -0.5592   -8.0871 F   0  0  0  0  0  0  0  0  0  0  0  0
   -3.4532   -0.7187   -6.5423 H   0  0  0  0  0  0  0  0  0  0  0  0
  1  6  1  0  0  0  0
  1  2  1  0  0  0  0
  2  3  1  0  0  0  0
  3  4  2  0  0  0  0
  3 11  1  0  0  0  0
  4  9  1  0  0  0  0
  5 10  1  0  0  0  0
  5  4  1  0  0  0  0
  6  5  2  0  0  0  0
  7  1  1  0  0  0  0
 11 12  1  0  0  0  0
 13 14  1  6  0  0  0
 13 15  1  0  0  0  0
 13 17  1  0  0  0  0
 14 18  1  0  0  0  0
 15  8  1  0  0  0  0
 16  2  2  0  0  0  0
 19 14  1  0  0  0  0
 20 14  1  0  0  0  0
 21  6  1  0  0  0  0
M  RAD  4   1   2  11   2  12   3  17   2
M  END
