Coordinates from ORCA-job Ph-N2-H-OTf-B3LYPG-6-31G_dp-scan-d09-49-n400
 OpenBabel08281820563D

 21 20  0  0  0  0  0  0  0  0999 V2000
   -2.0869    0.8593   -6.0837 C   0  0  0  0  0  0  0  0  0  0  0  0
   -1.0164    1.3745   -5.2419 C   0  0  0  0  0  0  0  0  0  0  0  0
   -0.6606    0.4328   -4.1463 C   0  0  0  0  0  0  0  0  0  0  0  0
   -1.2752   -0.8422   -3.9483 C   0  0  0  0  0  0  0  0  0  0  0  0
   -2.2656   -1.2287   -4.8024 C   0  0  0  0  0  0  0  0  0  0  0  0
   -2.6648   -0.3590   -5.8709 C   0  0  0  0  0  0  0  0  0  0  0  0
   -2.3994    1.5040   -6.8990 H   0  0  0  0  0  0  0  0  0  0  0  0
    2.5959    2.6199   -5.9836 H   0  0  0  0  0  0  0  0  0  0  0  0
   -0.9429   -1.4721   -3.1294 H   0  0  0  0  0  0  0  0  0  0  0  0
   -2.7511   -2.1901   -4.6790 H   0  0  0  0  0  0  0  0  0  0  0  0
    0.2949    0.8563   -3.3304 N   0  0  0  0  0  0  0  0  0  0  0  0
    1.1064    1.3266   -2.6996 N   0  0  0  0  0  0  0  0  0  0  0  0
    3.4090    0.5936   -6.1886 S   0  0  1  0  0  0  0  0  0  0  0  0
    2.4129    0.6497   -7.7964 C   0  0  0  0  0  0  0  0  0  0  0  0
    3.4941    2.2413   -6.0461 O   0  0  0  0  0  0  0  0  0  0  0  0
   -0.4592    2.4672   -5.3922 O   0  0  0  0  0  0  0  0  0  0  0  0
    2.4688    0.0085   -5.1998 O   0  0  0  0  0  0  0  0  0  0  0  0
    1.3558    1.4604   -7.6755 F   0  0  0  0  0  0  0  0  0  0  0  0
    3.2001    1.0934   -8.7821 F   0  0  0  0  0  0  0  0  0  0  0  0
    1.9957   -0.5848   -8.0869 F   0  0  0  0  0  0  0  0  0  0  0  0
   -3.4598   -0.6897   -6.5350 H   0  0  0  0  0  0  0  0  0  0  0  0
  1  6  1  0  0  0  0
  1  2  1  0  0  0  0
  2  3  1  0  0  0  0
  3  4  2  0  0  0  0
  3 11  1  0  0  0  0
  4  9  1  0  0  0  0
  5 10  1  0  0  0  0
  5  4  1  0  0  0  0
  6  5  2  0  0  0  0
  7  1  1  0  0  0  0
 11 12  1  0  0  0  0
 13 14  1  6  0  0  0
 13 15  1  0  0  0  0
 13 17  1  0  0  0  0
 14 18  1  0  0  0  0
 15  8  1  0  0  0  0
 16  2  2  0  0  0  0
 19 14  1  0  0  0  0
 20 14  1  0  0  0  0
 21  6  1  0  0  0  0
M  RAD  4   1   2  11   2  12   3  17   2
M  END
