Coordinates from ORCA-job Ph-N2-H-OTf-B3LYPG-6-31G_dp-scan-d09-49-n400
 OpenBabel08281820563D

 21 20  0  0  0  0  0  0  0  0999 V2000
   -2.0862    0.8594   -6.0837 C   0  0  0  0  0  0  0  0  0  0  0  0
   -1.0148    1.3736   -5.2424 C   0  0  0  0  0  0  0  0  0  0  0  0
   -0.6598    0.4320   -4.1465 C   0  0  0  0  0  0  0  0  0  0  0  0
   -1.2758   -0.8422   -3.9478 C   0  0  0  0  0  0  0  0  0  0  0  0
   -2.2670   -1.2279   -4.8014 C   0  0  0  0  0  0  0  0  0  0  0  0
   -2.6654   -0.3581   -5.8702 C   0  0  0  0  0  0  0  0  0  0  0  0
   -2.3981    1.5041   -6.8991 H   0  0  0  0  0  0  0  0  0  0  0  0
    2.5889    2.6196   -5.9827 H   0  0  0  0  0  0  0  0  0  0  0  0
   -0.9440   -1.4721   -3.1287 H   0  0  0  0  0  0  0  0  0  0  0  0
   -2.7536   -2.1886   -4.6774 H   0  0  0  0  0  0  0  0  0  0  0  0
    0.2963    0.8548   -3.3310 N   0  0  0  0  0  0  0  0  0  0  0  0
    1.1083    1.3244   -2.7003 N   0  0  0  0  0  0  0  0  0  0  0  0
    3.4090    0.5961   -6.1881 S   0  0  1  0  0  0  0  0  0  0  0  0
    2.4147    0.6498   -7.7972 C   0  0  0  0  0  0  0  0  0  0  0  0
    3.4884    2.2439   -6.0445 O   0  0  0  0  0  0  0  0  0  0  0  0
   -0.4563    2.4656   -5.3934 O   0  0  0  0  0  0  0  0  0  0  0  0
    2.4698    0.0071   -5.2008 O   0  0  0  0  0  0  0  0  0  0  0  0
    1.3561    1.4589   -7.6783 F   0  0  0  0  0  0  0  0  0  0  0  0
    3.2025    1.0941   -8.7821 F   0  0  0  0  0  0  0  0  0  0  0  0
    1.9997   -0.5856   -8.0875 F   0  0  0  0  0  0  0  0  0  0  0  0
   -3.4610   -0.6881   -6.5338 H   0  0  0  0  0  0  0  0  0  0  0  0
  1  6  1  0  0  0  0
  1  2  1  0  0  0  0
  2  3  1  0  0  0  0
  3  4  2  0  0  0  0
  3 11  1  0  0  0  0
  4  9  1  0  0  0  0
  5 10  1  0  0  0  0
  5  4  1  0  0  0  0
  6  5  2  0  0  0  0
  7  1  1  0  0  0  0
 11 12  1  0  0  0  0
 13 14  1  6  0  0  0
 13 15  1  0  0  0  0
 13 17  1  0  0  0  0
 14 18  1  0  0  0  0
 15  8  1  0  0  0  0
 16  2  2  0  0  0  0
 19 14  1  0  0  0  0
 20 14  1  0  0  0  0
 21  6  1  0  0  0  0
M  RAD  4   1   2  11   2  12   3  17   2
M  END
