Coordinates from ORCA-job Ph-N2-H-OTf-B3LYPG-6-31G_dp-scan-d09-49-n400
 OpenBabel08281820563D

 21 20  0  0  0  0  0  0  0  0999 V2000
   -1.9125    0.8524   -6.1406 C   0  0  0  0  0  0  0  0  0  0  0  0
   -0.7319    1.2232   -5.3953 C   0  0  0  0  0  0  0  0  0  0  0  0
   -0.5085    0.3787   -4.2130 C   0  0  0  0  0  0  0  0  0  0  0  0
   -1.3405   -0.7240   -3.8479 C   0  0  0  0  0  0  0  0  0  0  0  0
   -2.4255   -1.0081   -4.6261 C   0  0  0  0  0  0  0  0  0  0  0  0
   -2.7031   -0.2030   -5.7746 C   0  0  0  0  0  0  0  0  0  0  0  0
   -2.1270    1.4501   -7.0200 H   0  0  0  0  0  0  0  0  0  0  0  0
    1.6006    2.2635   -5.7239 H   0  0  0  0  0  0  0  0  0  0  0  0
   -1.0938   -1.3073   -2.9672 H   0  0  0  0  0  0  0  0  0  0  0  0
   -3.0743   -1.8403   -4.3777 H   0  0  0  0  0  0  0  0  0  0  0  0
    0.5263    0.7031   -3.4364 N   0  0  0  0  0  0  0  0  0  0  0  0
    1.3968    1.0411   -2.8062 N   0  0  0  0  0  0  0  0  0  0  0  0
    3.2331    0.8253   -6.1048 S   0  0  1  0  0  0  0  0  0  0  0  0
    2.5959    0.7034   -7.8813 C   0  0  0  0  0  0  0  0  0  0  0  0
    2.6140    2.2892   -5.7698 O   0  0  0  0  0  0  0  0  0  0  0  0
    0.0112    2.1790   -5.7145 O   0  0  0  0  0  0  0  0  0  0  0  0
    2.4765   -0.2465   -5.3915 O   0  0  0  0  0  0  0  0  0  0  0  0
    1.2609    0.6728   -7.9390 F   0  0  0  0  0  0  0  0  0  0  0  0
    3.0463    1.7417   -8.5945 F   0  0  0  0  0  0  0  0  0  0  0  0
    3.0806   -0.4291   -8.4134 F   0  0  0  0  0  0  0  0  0  0  0  0
   -3.5735   -0.4442   -6.3791 H   0  0  0  0  0  0  0  0  0  0  0  0
  1  6  1  0  0  0  0
  1  2  1  0  0  0  0
  2  3  1  0  0  0  0
  3  4  2  0  0  0  0
  3 11  1  0  0  0  0
  4  9  1  0  0  0  0
  5 10  1  0  0  0  0
  5  4  1  0  0  0  0
  6  5  2  0  0  0  0
  7  1  1  0  0  0  0
 11 12  1  0  0  0  0
 13 14  1  6  0  0  0
 13 15  1  0  0  0  0
 13 17  1  0  0  0  0
 15  8  1  0  0  0  0
 16  2  2  0  0  0  0
 18 14  1  0  0  0  0
 19 14  1  0  0  0  0
 20 14  1  0  0  0  0
 21  6  1  0  0  0  0
M  RAD  4   1   2  11   2  12   3  17   2
M  END
