Coordinates from ORCA-job Ph-N2-H-OTf-B3LYPG-6-31G_dp-scan-d09-49-n400
 OpenBabel08281820563D

 21 20  0  0  0  0  0  0  0  0999 V2000
   -2.1369    0.8830   -6.1082 C   0  0  0  0  0  0  0  0  0  0  0  0
   -1.1250    1.4625   -5.2341 C   0  0  0  0  0  0  0  0  0  0  0  0
   -0.6684    0.5018   -4.1908 C   0  0  0  0  0  0  0  0  0  0  0  0
   -1.1469   -0.8391   -4.0645 C   0  0  0  0  0  0  0  0  0  0  0  0
   -2.0941   -1.2789   -4.9414 C   0  0  0  0  0  0  0  0  0  0  0  0
   -2.5839   -0.3983   -5.9631 C   0  0  0  0  0  0  0  0  0  0  0  0
   -2.5180    1.5347   -6.8879 H   0  0  0  0  0  0  0  0  0  0  0  0
    2.9715    2.5704   -6.0056 H   0  0  0  0  0  0  0  0  0  0  0  0
   -0.7476   -1.4748   -3.2809 H   0  0  0  0  0  0  0  0  0  0  0  0
   -2.4782   -2.2902   -4.8710 H   0  0  0  0  0  0  0  0  0  0  0  0
    0.2428    0.9781   -3.3547 N   0  0  0  0  0  0  0  0  0  0  0  0
    1.0109    1.4991   -2.7091 N   0  0  0  0  0  0  0  0  0  0  0  0
    3.4039    0.4288   -6.1899 S   0  0  1  0  0  0  0  0  0  0  0  0
    2.1920    0.6249   -7.6315 C   0  0  0  0  0  0  0  0  0  0  0  0
    3.7813    2.0428   -6.1460 O   0  0  0  0  0  0  0  0  0  0  0  0
   -0.6818    2.6108   -5.3217 O   0  0  0  0  0  0  0  0  0  0  0  0
    2.5446    0.0403   -5.0439 O   0  0  0  0  0  0  0  0  0  0  0  0
    1.3492    1.6406   -7.4045 F   0  0  0  0  0  0  0  0  0  0  0  0
    2.8798    0.8644   -8.7524 F   0  0  0  0  0  0  0  0  0  0  0  0
    1.4982   -0.5056   -7.7692 F   0  0  0  0  0  0  0  0  0  0  0  0
   -3.3416   -0.7743   -6.6466 H   0  0  0  0  0  0  0  0  0  0  0  0
  1  6  1  0  0  0  0
  1  2  1  0  0  0  0
  2  3  1  0  0  0  0
  3  4  2  0  0  0  0
  3 11  1  0  0  0  0
  4  9  1  0  0  0  0
  5 10  1  0  0  0  0
  5  4  1  0  0  0  0
  6  5  2  0  0  0  0
  7  1  1  0  0  0  0
 11 12  1  0  0  0  0
 13 14  1  6  0  0  0
 13 15  1  0  0  0  0
 13 17  1  0  0  0  0
 14 18  1  0  0  0  0
 15  8  1  0  0  0  0
 16  2  2  0  0  0  0
 19 14  1  0  0  0  0
 20 14  1  0  0  0  0
 21  6  1  0  0  0  0
M  RAD  4   1   2  11   2  12   3  17   2
M  END
