Coordinates from ORCA-job Ph-N2-H-OTf-B3LYPG-6-31G_dp-scan-d09-49-n400
 OpenBabel08281820563D

 21 20  0  0  0  0  0  0  0  0999 V2000
   -1.9176    0.9758   -6.1526 C   0  0  0  0  0  0  0  0  0  0  0  0
   -0.7053    1.2888   -5.4886 C   0  0  0  0  0  0  0  0  0  0  0  0
   -0.3744    0.4271   -4.3863 C   0  0  0  0  0  0  0  0  0  0  0  0
   -1.1548   -0.7008   -4.0147 C   0  0  0  0  0  0  0  0  0  0  0  0
   -2.3039   -0.9642   -4.7165 C   0  0  0  0  0  0  0  0  0  0  0  0
   -2.6832   -0.1089   -5.7803 C   0  0  0  0  0  0  0  0  0  0  0  0
   -2.1968    1.6146   -6.9830 H   0  0  0  0  0  0  0  0  0  0  0  0
    1.0267    2.2311   -5.7045 H   0  0  0  0  0  0  0  0  0  0  0  0
   -0.8270   -1.3233   -3.1897 H   0  0  0  0  0  0  0  0  0  0  0  0
   -2.9162   -1.8201   -4.4569 H   0  0  0  0  0  0  0  0  0  0  0  0
    0.6870    0.7423   -3.6055 N   0  0  0  0  0  0  0  0  0  0  0  0
    1.5127    1.0457   -2.9144 N   0  0  0  0  0  0  0  0  0  0  0  0
    3.1411    0.7754   -5.9209 S   0  0  0  0  0  0  0  0  0  0  0  0
    2.5517    0.6025   -7.7120 C   0  0  0  0  0  0  0  0  0  0  0  0
    2.3996    2.0983   -5.5495 O   0  0  0  0  0  0  0  0  0  0  0  0
    0.0015    2.3102   -5.8622 O   0  0  0  0  0  0  0  0  0  0  0  0
    2.4738   -0.4120   -5.2680 O   0  0  0  0  0  0  0  0  0  0  0  0
    1.2124    0.4593   -7.7869 F   0  0  0  0  0  0  0  0  0  0  0  0
    2.9026    1.6795   -8.4314 F   0  0  0  0  0  0  0  0  0  0  0  0
    3.1197   -0.4808   -8.2669 F   0  0  0  0  0  0  0  0  0  0  0  0
   -3.5978   -0.3197   -6.3261 H   0  0  0  0  0  0  0  0  0  0  0  0
  1  6  2  0  0  0  0
  1  2  1  0  0  0  0
  2  3  2  0  0  0  0
  3  4  1  0  0  0  0
  3 11  1  0  0  0  0
  4  9  1  0  0  0  0
  5 10  1  0  0  0  0
  5  4  2  0  0  0  0
  6  5  1  0  0  0  0
  7  1  1  0  0  0  0
 11 12  1  0  0  0  0
 13 15  1  0  0  0  0
 13 17  1  0  0  0  0
 14 13  1  0  0  0  0
 16  8  1  0  0  0  0
 16  2  1  0  0  0  0
 18 14  1  0  0  0  0
 19 14  1  0  0  0  0
 20 14  1  0  0  0  0
 21  6  1  0  0  0  0
M  RAD  4  11   2  12   3  15   2  17   2
M  END
