Coordinates from ORCA-job Ph-N2-H-OTf-B3LYPG-6-31G_dp-scan-d09-49-n400
 OpenBabel08281820563D

 21 20  0  0  0  0  0  0  0  0999 V2000
   -1.8907    0.8796   -6.1583 C   0  0  0  0  0  0  0  0  0  0  0  0
   -0.6911    1.2210   -5.4512 C   0  0  0  0  0  0  0  0  0  0  0  0
   -0.4457    0.3953   -4.2771 C   0  0  0  0  0  0  0  0  0  0  0  0
   -1.2804   -0.6920   -3.8820 C   0  0  0  0  0  0  0  0  0  0  0  0
   -2.3946   -0.9645   -4.6260 C   0  0  0  0  0  0  0  0  0  0  0  0
   -2.6934   -0.1614   -5.7646 C   0  0  0  0  0  0  0  0  0  0  0  0
   -2.1163    1.4765   -7.0350 H   0  0  0  0  0  0  0  0  0  0  0  0
    1.3131    2.1679   -5.7096 H   0  0  0  0  0  0  0  0  0  0  0  0
   -1.0149   -1.2738   -3.0060 H   0  0  0  0  0  0  0  0  0  0  0  0
   -3.0465   -1.7865   -4.3532 H   0  0  0  0  0  0  0  0  0  0  0  0
    0.6045    0.7109   -3.5041 N   0  0  0  0  0  0  0  0  0  0  0  0
    1.4668    1.0235   -2.8559 N   0  0  0  0  0  0  0  0  0  0  0  0
    3.1556    0.8129   -6.0253 S   0  0  1  0  0  0  0  0  0  0  0  0
    2.5994    0.6980   -7.8302 C   0  0  0  0  0  0  0  0  0  0  0  0
    2.4356    2.1875   -5.6578 O   0  0  0  0  0  0  0  0  0  0  0  0
    0.0569    2.1776   -5.8185 O   0  0  0  0  0  0  0  0  0  0  0  0
    2.4404   -0.3430   -5.3888 O   0  0  0  0  0  0  0  0  0  0  0  0
    1.2716    0.5413   -7.9400 F   0  0  0  0  0  0  0  0  0  0  0  0
    2.9642    1.7999   -8.4985 F   0  0  0  0  0  0  0  0  0  0  0  0
    3.2021   -0.3626   -8.3920 F   0  0  0  0  0  0  0  0  0  0  0  0
   -3.5847   -0.3872   -6.3432 H   0  0  0  0  0  0  0  0  0  0  0  0
  1  6  1  0  0  0  0
  1  2  1  0  0  0  0
  2  3  1  0  0  0  0
  3  4  2  0  0  0  0
  3 11  1  0  0  0  0
  4  9  1  0  0  0  0
  5 10  1  0  0  0  0
  5  4  1  0  0  0  0
  6  5  2  0  0  0  0
  7  1  1  0  0  0  0
  8 15  1  0  0  0  0
 11 12  1  0  0  0  0
 13 14  1  6  0  0  0
 13 15  1  0  0  0  0
 13 17  1  0  0  0  0
 16  2  2  0  0  0  0
 18 14  1  0  0  0  0
 19 14  1  0  0  0  0
 20 14  1  0  0  0  0
 21  6  1  0  0  0  0
M  RAD  4   1   2  11   2  12   3  17   2
M  END
