Coordinates from ORCA-job Ph-N2-H-OTf-B3LYPG-6-31G_dp-scan-d09-49-n400
 OpenBabel08281820563D

 21 20  0  0  0  0  0  0  0  0999 V2000
   -2.0694    0.8429   -6.0819 C   0  0  0  0  0  0  0  0  0  0  0  0
   -0.9449    1.3168   -5.2909 C   0  0  0  0  0  0  0  0  0  0  0  0
   -0.6275    0.4077   -4.1607 C   0  0  0  0  0  0  0  0  0  0  0  0
   -1.3221   -0.8113   -3.8883 C   0  0  0  0  0  0  0  0  0  0  0  0
   -2.3578   -1.1673   -4.7011 C   0  0  0  0  0  0  0  0  0  0  0  0
   -2.7237   -0.3219   -5.7997 C   0  0  0  0  0  0  0  0  0  0  0  0
   -2.3561    1.4696   -6.9203 H   0  0  0  0  0  0  0  0  0  0  0  0
    2.2519    2.5261   -5.8877 H   0  0  0  0  0  0  0  0  0  0  0  0
   -1.0131   -1.4237   -3.0474 H   0  0  0  0  0  0  0  0  0  0  0  0
   -2.9037   -2.0865   -4.5219 H   0  0  0  0  0  0  0  0  0  0  0  0
    0.3692    0.8019   -3.3787 N   0  0  0  0  0  0  0  0  0  0  0  0
    1.2171    1.2368   -2.7717 N   0  0  0  0  0  0  0  0  0  0  0  0
    3.3783    0.6671   -6.1680 S   0  0  1  0  0  0  0  0  0  0  0  0
    2.5596    0.6906   -7.8725 C   0  0  0  0  0  0  0  0  0  0  0  0
    3.2008    2.2899   -5.9150 O   0  0  0  0  0  0  0  0  0  0  0  0
   -0.3196    2.3633   -5.5094 O   0  0  0  0  0  0  0  0  0  0  0  0
    2.4401   -0.1188   -5.3255 O   0  0  0  0  0  0  0  0  0  0  0  0
    1.3623    1.2817   -7.8270 F   0  0  0  0  0  0  0  0  0  0  0  0
    3.3485    1.3528   -8.7257 F   0  0  0  0  0  0  0  0  0  0  0  0
    2.4172   -0.5702   -8.2933 F   0  0  0  0  0  0  0  0  0  0  0  0
   -3.5553   -0.6266   -6.4302 H   0  0  0  0  0  0  0  0  0  0  0  0
  1  6  1  0  0  0  0
  1  2  1  0  0  0  0
  2  3  1  0  0  0  0
  3  4  2  0  0  0  0
  3 11  1  0  0  0  0
  4  9  1  0  0  0  0
  5 10  1  0  0  0  0
  5  4  1  0  0  0  0
  6  5  2  0  0  0  0
  7  1  1  0  0  0  0
 11 12  1  0  0  0  0
 13 14  1  6  0  0  0
 13 15  1  0  0  0  0
 13 17  1  0  0  0  0
 14 18  1  0  0  0  0
 15  8  1  0  0  0  0
 16  2  2  0  0  0  0
 19 14  1  0  0  0  0
 20 14  1  0  0  0  0
 21  6  1  0  0  0  0
M  RAD  4   1   2  11   2  12   3  17   2
M  END
