Coordinates from ORCA-job Ph-N2-H-OTf-B3LYPG-6-31G_dp-scan-d09-49-n400
 OpenBabel08281820563D

 21 20  0  0  0  0  0  0  0  0999 V2000
   -2.1026    0.8475   -6.0780 C   0  0  0  0  0  0  0  0  0  0  0  0
   -1.0035    1.3509   -5.2673 C   0  0  0  0  0  0  0  0  0  0  0  0
   -0.6534    0.4252   -4.1573 C   0  0  0  0  0  0  0  0  0  0  0  0
   -1.2971   -0.8287   -3.9206 C   0  0  0  0  0  0  0  0  0  0  0  0
   -2.3123   -1.2072   -4.7486 C   0  0  0  0  0  0  0  0  0  0  0  0
   -2.7080   -0.3504   -5.8285 C   0  0  0  0  0  0  0  0  0  0  0  0
   -2.4125    1.4824   -6.9018 H   0  0  0  0  0  0  0  0  0  0  0  0
    2.4715    2.5772   -5.9303 H   0  0  0  0  0  0  0  0  0  0  0  0
   -0.9666   -1.4491   -3.0938 H   0  0  0  0  0  0  0  0  0  0  0  0
   -2.8200   -2.1528   -4.5960 H   0  0  0  0  0  0  0  0  0  0  0  0
    0.3245    0.8420   -3.3647 N   0  0  0  0  0  0  0  0  0  0  0  0
    1.1557    1.3039   -2.7539 N   0  0  0  0  0  0  0  0  0  0  0  0
    3.4074    0.6106   -6.1789 S   0  0  1  0  0  0  0  0  0  0  0  0
    2.4986    0.6762   -7.8366 C   0  0  0  0  0  0  0  0  0  0  0  0
    3.3920    2.2519   -5.9679 O   0  0  0  0  0  0  0  0  0  0  0  0
   -0.4205    2.4255   -5.4530 O   0  0  0  0  0  0  0  0  0  0  0  0
    2.4489   -0.0643   -5.2672 O   0  0  0  0  0  0  0  0  0  0  0  0
    1.3844    1.4094   -7.7431 F   0  0  0  0  0  0  0  0  0  0  0  0
    3.3066    1.2138   -8.7567 F   0  0  0  0  0  0  0  0  0  0  0  0
    2.1818   -0.5689   -8.2016 F   0  0  0  0  0  0  0  0  0  0  0  0
   -3.5232   -0.6741   -6.4711 H   0  0  0  0  0  0  0  0  0  0  0  0
  1  6  1  0  0  0  0
  1  2  1  0  0  0  0
  2  3  1  0  0  0  0
  3  4  2  0  0  0  0
  3 11  1  0  0  0  0
  4  9  1  0  0  0  0
  5 10  1  0  0  0  0
  5  4  1  0  0  0  0
  6  5  2  0  0  0  0
  7  1  1  0  0  0  0
 11 12  1  0  0  0  0
 13 14  1  6  0  0  0
 13 15  1  0  0  0  0
 13 17  1  0  0  0  0
 14 18  1  0  0  0  0
 15  8  1  0  0  0  0
 16  2  2  0  0  0  0
 19 14  1  0  0  0  0
 20 14  1  0  0  0  0
 21  6  1  0  0  0  0
M  RAD  4   1   2  11   2  12   3  17   2
M  END
