Coordinates from ORCA-job Ph-N2-H-OTf-B3LYPG-6-31G_dp-scan-d09-49-n400
 OpenBabel08281820563D

 21 20  0  0  0  0  0  0  0  0999 V2000
   -2.6173    0.8922   -5.9732 C   0  0  0  0  0  0  0  0  0  0  0  0
   -1.4456    1.5892   -5.4571 C   0  0  0  0  0  0  0  0  0  0  0  0
   -0.5884    0.7025   -4.6043 C   0  0  0  0  0  0  0  0  0  0  0  0
   -0.8466   -0.6865   -4.3698 C   0  0  0  0  0  0  0  0  0  0  0  0
   -1.9651   -1.2342   -4.9194 C   0  0  0  0  0  0  0  0  0  0  0  0
   -2.8502   -0.4261   -5.7154 C   0  0  0  0  0  0  0  0  0  0  0  0
   -3.2919    1.4847   -6.5825 H   0  0  0  0  0  0  0  0  0  0  0  0
    2.9809    1.9364   -5.0865 H   0  0  0  0  0  0  0  0  0  0  0  0
   -0.1418   -1.2635   -3.7817 H   0  0  0  0  0  0  0  0  0  0  0  0
   -2.1921   -2.2830   -4.7642 H   0  0  0  0  0  0  0  0  0  0  0  0
    0.4567    1.3129   -4.0941 N   0  0  0  0  0  0  0  0  0  0  0  0
    1.2991    1.9940   -3.7501 N   0  0  0  0  0  0  0  0  0  0  0  0
    3.4445    0.0388   -6.0716 S   0  0  1  0  0  0  0  0  0  0  0  0
    2.3705    0.7209   -7.4717 C   0  0  0  0  0  0  0  0  0  0  0  0
    3.7980    1.5276   -5.4463 O   0  0  0  0  0  0  0  0  0  0  0  0
   -1.1546    2.7644   -5.6744 O   0  0  0  0  0  0  0  0  0  0  0  0
    2.4788   -0.6854   -5.2022 O   0  0  0  0  0  0  0  0  0  0  0  0
    1.4384    1.5555   -6.9905 F   0  0  0  0  0  0  0  0  0  0  0  0
    3.1432    1.3762   -8.3409 F   0  0  0  0  0  0  0  0  0  0  0  0
    1.7730   -0.3000   -8.0903 F   0  0  0  0  0  0  0  0  0  0  0  0
   -3.7381   -0.8958   -6.1307 H   0  0  0  0  0  0  0  0  0  0  0  0
  1  6  1  0  0  0  0
  1  2  1  0  0  0  0
  2  3  1  0  0  0  0
  3  4  2  0  0  0  0
  3 11  1  0  0  0  0
  4  9  1  0  0  0  0
  5 10  1  0  0  0  0
  5  4  1  0  0  0  0
  6  5  2  0  0  0  0
  7  1  1  0  0  0  0
 11 12  1  0  0  0  0
 13 14  1  6  0  0  0
 13 15  1  0  0  0  0
 13 17  1  0  0  0  0
 14 18  1  0  0  0  0
 15  8  1  0  0  0  0
 16  2  2  0  0  0  0
 19 14  1  0  0  0  0
 20 14  1  0  0  0  0
 21  6  1  0  0  0  0
M  RAD  4   1   2  11   2  12   3  17   2
M  END
