Coordinates from ORCA-job Ph-N2-H-OTf-B3LYPG-6-31G_dp-scan-d09-49-n400
 OpenBabel08281820563D

 21 20  0  0  0  0  0  0  0  0999 V2000
   -1.9124    0.8507   -6.1410 C   0  0  0  0  0  0  0  0  0  0  0  0
   -0.7335    1.2237   -5.3936 C   0  0  0  0  0  0  0  0  0  0  0  0
   -0.5112    0.3796   -4.2104 C   0  0  0  0  0  0  0  0  0  0  0  0
   -1.3426   -0.7238   -3.8463 C   0  0  0  0  0  0  0  0  0  0  0  0
   -2.4262   -1.0093   -4.6260 C   0  0  0  0  0  0  0  0  0  0  0  0
   -2.7026   -0.2052   -5.7756 C   0  0  0  0  0  0  0  0  0  0  0  0
   -2.1261    1.4477   -7.0211 H   0  0  0  0  0  0  0  0  0  0  0  0
    1.6086    2.2665   -5.7242 H   0  0  0  0  0  0  0  0  0  0  0  0
   -1.0964   -1.3071   -2.9654 H   0  0  0  0  0  0  0  0  0  0  0  0
   -3.0743   -1.8423   -4.3786 H   0  0  0  0  0  0  0  0  0  0  0  0
    0.5243    0.7033   -3.4349 N   0  0  0  0  0  0  0  0  0  0  0  0
    1.3961    1.0412   -2.8062 N   0  0  0  0  0  0  0  0  0  0  0  0
    3.2356    0.8245   -6.1070 S   0  0  1  0  0  0  0  0  0  0  0  0
    2.5947    0.7044   -7.8822 C   0  0  0  0  0  0  0  0  0  0  0  0
    2.6205    2.2907   -5.7715 O   0  0  0  0  0  0  0  0  0  0  0  0
    0.0093    2.1797   -5.7115 O   0  0  0  0  0  0  0  0  0  0  0  0
    2.4780   -0.2451   -5.3918 O   0  0  0  0  0  0  0  0  0  0  0  0
    1.2595    0.6819   -7.9375 F   0  0  0  0  0  0  0  0  0  0  0  0
    3.0503    1.7392   -8.5970 F   0  0  0  0  0  0  0  0  0  0  0  0
    3.0717   -0.4316   -8.4138 F   0  0  0  0  0  0  0  0  0  0  0  0
   -3.5716   -0.4477   -6.3814 H   0  0  0  0  0  0  0  0  0  0  0  0
  1  6  1  0  0  0  0
  1  2  1  0  0  0  0
  2  3  1  0  0  0  0
  3  4  2  0  0  0  0
  3 11  1  0  0  0  0
  4  9  1  0  0  0  0
  5 10  1  0  0  0  0
  5  4  1  0  0  0  0
  6  5  2  0  0  0  0
  7  1  1  0  0  0  0
 11 12  1  0  0  0  0
 13 14  1  6  0  0  0
 13 15  1  0  0  0  0
 13 17  1  0  0  0  0
 15  8  1  0  0  0  0
 16  2  2  0  0  0  0
 18 14  1  0  0  0  0
 19 14  1  0  0  0  0
 20 14  1  0  0  0  0
 21  6  1  0  0  0  0
M  RAD  4   1   2  11   2  12   3  17   2
M  END
