Coordinates from ORCA-job Ph-N2-H-OTf-B3LYPG-6-31G_dp-scan-d09-49-n400
 OpenBabel08281820563D

 21 20  0  0  0  0  0  0  0  0999 V2000
   -2.9757    0.9476   -5.6676 C   0  0  0  0  0  0  0  0  0  0  0  0
   -1.8051    1.7133   -5.2534 C   0  0  0  0  0  0  0  0  0  0  0  0
   -0.6960    0.8323   -4.7643 C   0  0  0  0  0  0  0  0  0  0  0  0
   -0.7578   -0.6009   -4.7278 C   0  0  0  0  0  0  0  0  0  0  0  0
   -1.9025   -1.2048   -5.1489 C   0  0  0  0  0  0  0  0  0  0  0  0
   -3.0112   -0.4138   -5.6137 C   0  0  0  0  0  0  0  0  0  0  0  0
   -3.8190    1.5287   -6.0260 H   0  0  0  0  0  0  0  0  0  0  0  0
    3.0856    1.9730   -5.1341 H   0  0  0  0  0  0  0  0  0  0  0  0
    0.1125   -1.1536   -4.3930 H   0  0  0  0  0  0  0  0  0  0  0  0
   -1.9824   -2.2865   -5.1419 H   0  0  0  0  0  0  0  0  0  0  0  0
    0.3759    1.4728   -4.3547 N   0  0  0  0  0  0  0  0  0  0  0  0
    1.2457    2.1301   -4.0365 N   0  0  0  0  0  0  0  0  0  0  0  0
    3.6139   -0.0238   -5.8647 S   0  0  1  0  0  0  0  0  0  0  0  0
    2.6651    0.4938   -7.4174 C   0  0  0  0  0  0  0  0  0  0  0  0
    3.9234    1.5243   -5.3786 O   0  0  0  0  0  0  0  0  0  0  0  0
   -1.7057    2.9387   -5.2842 O   0  0  0  0  0  0  0  0  0  0  0  0
    2.5721   -0.6525   -5.0089 O   0  0  0  0  0  0  0  0  0  0  0  0
    1.6838    1.3545   -7.1074 F   0  0  0  0  0  0  0  0  0  0  0  0
    3.5046    1.0742   -8.2771 F   0  0  0  0  0  0  0  0  0  0  0  0
    2.1349   -0.5946   -7.9787 F   0  0  0  0  0  0  0  0  0  0  0  0
   -3.9103   -0.9319   -5.9383 H   0  0  0  0  0  0  0  0  0  0  0  0
  1  6  1  0  0  0  0
  1  2  1  0  0  0  0
  2  3  1  0  0  0  0
  3  4  2  0  0  0  0
  3 11  1  0  0  0  0
  4  9  1  0  0  0  0
  5 10  1  0  0  0  0
  5  4  1  0  0  0  0
  6  5  2  0  0  0  0
  7  1  1  0  0  0  0
 11 12  1  0  0  0  0
 13 14  1  6  0  0  0
 13 15  1  0  0  0  0
 13 17  1  0  0  0  0
 14 18  1  0  0  0  0
 15  8  1  0  0  0  0
 16  2  2  0  0  0  0
 19 14  1  0  0  0  0
 20 14  1  0  0  0  0
 21  6  1  0  0  0  0
M  RAD  4   1   2  11   2  12   3  17   2
M  END
