Coordinates from ORCA-job Ph-N2-H-OTf-B3LYPG-6-31G_dp-scan-d09-49-n400
 OpenBabel08281820563D

 21 20  0  0  0  0  0  0  0  0999 V2000
   -1.8978    0.8576   -6.1487 C   0  0  0  0  0  0  0  0  0  0  0  0
   -0.7120    1.2178   -5.4113 C   0  0  0  0  0  0  0  0  0  0  0  0
   -0.4902    0.3809   -4.2276 C   0  0  0  0  0  0  0  0  0  0  0  0
   -1.3299   -0.7121   -3.8525 C   0  0  0  0  0  0  0  0  0  0  0  0
   -2.4220   -0.9902   -4.6237 C   0  0  0  0  0  0  0  0  0  0  0  0
   -2.6978   -0.1886   -5.7737 C   0  0  0  0  0  0  0  0  0  0  0  0
   -2.1097    1.4530   -7.0301 H   0  0  0  0  0  0  0  0  0  0  0  0
    1.5182    2.2286   -5.7158 H   0  0  0  0  0  0  0  0  0  0  0  0
   -1.0836   -1.2931   -2.9702 H   0  0  0  0  0  0  0  0  0  0  0  0
   -3.0767   -1.8155   -4.3677 H   0  0  0  0  0  0  0  0  0  0  0  0
    0.5492    0.6996   -3.4517 N   0  0  0  0  0  0  0  0  0  0  0  0
    1.4191    1.0271   -2.8165 N   0  0  0  0  0  0  0  0  0  0  0  0
    3.2101    0.8310   -6.0863 S   0  0  1  0  0  0  0  0  0  0  0  0
    2.5931    0.7033   -7.8699 C   0  0  0  0  0  0  0  0  0  0  0  0
    2.5517    2.2662   -5.7403 O   0  0  0  0  0  0  0  0  0  0  0  0
    0.0382    2.1684   -5.7435 O   0  0  0  0  0  0  0  0  0  0  0  0
    2.4748   -0.2704   -5.3922 O   0  0  0  0  0  0  0  0  0  0  0  0
    1.2607    0.6045   -7.9383 F   0  0  0  0  0  0  0  0  0  0  0  0
    2.9927    1.7725   -8.5681 F   0  0  0  0  0  0  0  0  0  0  0  0
    3.1369   -0.3959   -8.4158 F   0  0  0  0  0  0  0  0  0  0  0  0
   -3.5733   -0.4238   -6.3730 H   0  0  0  0  0  0  0  0  0  0  0  0
  1  6  1  0  0  0  0
  1  2  1  0  0  0  0
  2  3  1  0  0  0  0
  3  4  2  0  0  0  0
  3 11  1  0  0  0  0
  4  9  1  0  0  0  0
  5 10  1  0  0  0  0
  5  4  1  0  0  0  0
  6  5  2  0  0  0  0
  7  1  1  0  0  0  0
 11 12  1  0  0  0  0
 13 14  1  6  0  0  0
 13 15  1  0  0  0  0
 13 17  1  0  0  0  0
 15  8  1  0  0  0  0
 16  2  2  0  0  0  0
 18 14  1  0  0  0  0
 19 14  1  0  0  0  0
 20 14  1  0  0  0  0
 21  6  1  0  0  0  0
M  RAD  4   1   2  11   2  12   3  17   2
M  END
