Coordinates from ORCA-job Ph-N2-H-OTf-B3LYPG-6-31G_dp-scan-d09-49-n400
 OpenBabel08281820563D

 21 20  0  0  0  0  0  0  0  0999 V2000
   -2.6686    0.8925   -5.9468 C   0  0  0  0  0  0  0  0  0  0  0  0
   -1.4964    1.6045   -5.4520 C   0  0  0  0  0  0  0  0  0  0  0  0
   -0.6005    0.7229   -4.6347 C   0  0  0  0  0  0  0  0  0  0  0  0
   -0.8297   -0.6735   -4.4092 C   0  0  0  0  0  0  0  0  0  0  0  0
   -1.9529   -1.2338   -4.9356 C   0  0  0  0  0  0  0  0  0  0  0  0
   -2.8722   -0.4324   -5.6992 C   0  0  0  0  0  0  0  0  0  0  0  0
   -3.3688    1.4803   -6.5313 H   0  0  0  0  0  0  0  0  0  0  0  0
    3.0331    1.9155   -5.0584 H   0  0  0  0  0  0  0  0  0  0  0  0
   -0.0989   -1.2447   -3.8481 H   0  0  0  0  0  0  0  0  0  0  0  0
   -2.1578   -2.2881   -4.7869 H   0  0  0  0  0  0  0  0  0  0  0  0
    0.4503    1.3391   -4.1439 N   0  0  0  0  0  0  0  0  0  0  0  0
    1.3004    2.0116   -3.8024 N   0  0  0  0  0  0  0  0  0  0  0  0
    3.4566    0.0141   -6.0551 S   0  0  1  0  0  0  0  0  0  0  0  0
    2.3966    0.7132   -7.4578 C   0  0  0  0  0  0  0  0  0  0  0  0
    3.8391    1.4957   -5.4303 O   0  0  0  0  0  0  0  0  0  0  0  0
   -1.2361    2.7886   -5.6593 O   0  0  0  0  0  0  0  0  0  0  0  0
    2.4770   -0.6907   -5.1851 O   0  0  0  0  0  0  0  0  0  0  0  0
    1.4696    1.5555   -6.9801 F   0  0  0  0  0  0  0  0  0  0  0  0
    3.1807    1.3635   -8.3204 F   0  0  0  0  0  0  0  0  0  0  0  0
    1.7926   -0.3000   -8.0830 F   0  0  0  0  0  0  0  0  0  0  0  0
   -3.7622   -0.9129   -6.0974 H   0  0  0  0  0  0  0  0  0  0  0  0
  1  6  1  0  0  0  0
  1  2  1  0  0  0  0
  2  3  1  0  0  0  0
  3  4  2  0  0  0  0
  3 11  1  0  0  0  0
  4  9  1  0  0  0  0
  5 10  1  0  0  0  0
  5  4  1  0  0  0  0
  6  5  2  0  0  0  0
  7  1  1  0  0  0  0
 11 12  1  0  0  0  0
 13 14  1  6  0  0  0
 13 15  1  0  0  0  0
 13 17  1  0  0  0  0
 14 18  1  0  0  0  0
 15  8  1  0  0  0  0
 16  2  2  0  0  0  0
 19 14  1  0  0  0  0
 20 14  1  0  0  0  0
 21  6  1  0  0  0  0
M  RAD  4   1   2  11   2  12   3  17   2
M  END
