Coordinates from ORCA-job Ph-N2-H-OTf-B3LYPG-6-31G_dp-scan-d09-49-n400
 OpenBabel08281820563D

 21 20  0  0  0  0  0  0  0  0999 V2000
   -2.8955    0.9476   -5.7381 C   0  0  0  0  0  0  0  0  0  0  0  0
   -1.7229    1.6945   -5.2970 C   0  0  0  0  0  0  0  0  0  0  0  0
   -0.6630    0.8008   -4.7270 C   0  0  0  0  0  0  0  0  0  0  0  0
   -0.7639   -0.6280   -4.6534 C   0  0  0  0  0  0  0  0  0  0  0  0
   -1.9050   -1.2148   -5.1074 C   0  0  0  0  0  0  0  0  0  0  0  0
   -2.9707   -0.4101   -5.6438 C   0  0  0  0  0  0  0  0  0  0  0  0
   -3.7059    1.5389   -6.1515 H   0  0  0  0  0  0  0  0  0  0  0  0
    3.0448    1.9736   -5.1164 H   0  0  0  0  0  0  0  0  0  0  0  0
    0.0755   -1.1944   -4.2668 H   0  0  0  0  0  0  0  0  0  0  0  0
   -2.0143   -2.2933   -5.0729 H   0  0  0  0  0  0  0  0  0  0  0  0
    0.4018    1.4330   -4.2885 N   0  0  0  0  0  0  0  0  0  0  0  0
    1.2603    2.0993   -3.9569 N   0  0  0  0  0  0  0  0  0  0  0  0
    3.5756   -0.0002   -5.9044 S   0  0  1  0  0  0  0  0  0  0  0  0
    2.5865    0.5303   -7.4272 C   0  0  0  0  0  0  0  0  0  0  0  0
    3.8801    1.5437   -5.4019 O   0  0  0  0  0  0  0  0  0  0  0  0
   -1.5835    2.9144   -5.3663 O   0  0  0  0  0  0  0  0  0  0  0  0
    2.5608   -0.6522   -5.0335 O   0  0  0  0  0  0  0  0  0  0  0  0
    1.6029    1.3747   -7.0828 F   0  0  0  0  0  0  0  0  0  0  0  0
    3.4004    1.1333   -8.2959 F   0  0  0  0  0  0  0  0  0  0  0  0
    2.0566   -0.5557   -7.9938 F   0  0  0  0  0  0  0  0  0  0  0  0
   -3.8687   -0.9145   -5.9918 H   0  0  0  0  0  0  0  0  0  0  0  0
  1  6  1  0  0  0  0
  1  2  1  0  0  0  0
  2  3  1  0  0  0  0
  3  4  2  0  0  0  0
  3 11  1  0  0  0  0
  4  9  1  0  0  0  0
  5 10  1  0  0  0  0
  5  4  1  0  0  0  0
  6  5  2  0  0  0  0
  7  1  1  0  0  0  0
 11 12  1  0  0  0  0
 13 14  1  6  0  0  0
 13 15  1  0  0  0  0
 13 17  1  0  0  0  0
 14 18  1  0  0  0  0
 15  8  1  0  0  0  0
 16  2  2  0  0  0  0
 19 14  1  0  0  0  0
 20 14  1  0  0  0  0
 21  6  1  0  0  0  0
M  RAD  4   1   2  11   2  12   3  17   2
M  END
