Coordinates from ORCA-job Ph-N2-H-OTf-B3LYPG-6-31G_dp-scan-d09-49-n400
 OpenBabel08281820563D

 21 20  0  0  0  0  0  0  0  0999 V2000
   -1.9168    0.9685   -6.1531 C   0  0  0  0  0  0  0  0  0  0  0  0
   -0.7045    1.2829   -5.4879 C   0  0  0  0  0  0  0  0  0  0  0  0
   -0.3791    0.4248   -4.3798 C   0  0  0  0  0  0  0  0  0  0  0  0
   -1.1637   -0.6993   -4.0043 C   0  0  0  0  0  0  0  0  0  0  0  0
   -2.3115   -0.9631   -4.7075 C   0  0  0  0  0  0  0  0  0  0  0  0
   -2.6856   -0.1121   -5.7771 C   0  0  0  0  0  0  0  0  0  0  0  0
   -2.1925    1.6038   -6.9874 H   0  0  0  0  0  0  0  0  0  0  0  0
    1.0408    2.2216   -5.7057 H   0  0  0  0  0  0  0  0  0  0  0  0
   -0.8397   -1.3183   -3.1751 H   0  0  0  0  0  0  0  0  0  0  0  0
   -2.9268   -1.8159   -4.4452 H   0  0  0  0  0  0  0  0  0  0  0  0
    0.6824    0.7400   -3.6004 N   0  0  0  0  0  0  0  0  0  0  0  0
    1.5116    1.0441   -2.9136 N   0  0  0  0  0  0  0  0  0  0  0  0
    3.1402    0.7765   -5.9260 S   0  0  0  0  0  0  0  0  0  0  0  0
    2.5591    0.6116   -7.7204 C   0  0  0  0  0  0  0  0  0  0  0  0
    2.3981    2.1008   -5.5537 O   0  0  0  0  0  0  0  0  0  0  0  0
    0.0053    2.2991   -5.8640 O   0  0  0  0  0  0  0  0  0  0  0  0
    2.4682   -0.4110   -5.2793 O   0  0  0  0  0  0  0  0  0  0  0  0
    1.2208    0.4670   -7.8027 F   0  0  0  0  0  0  0  0  0  0  0  0
    2.9128    1.6922   -8.4328 F   0  0  0  0  0  0  0  0  0  0  0  0
    3.1317   -0.4686   -8.2768 F   0  0  0  0  0  0  0  0  0  0  0  0
   -3.5994   -0.3237   -6.3242 H   0  0  0  0  0  0  0  0  0  0  0  0
  1  6  2  0  0  0  0
  1  2  1  0  0  0  0
  2  3  2  0  0  0  0
  3  4  1  0  0  0  0
  3 11  1  0  0  0  0
  4  9  1  0  0  0  0
  5 10  1  0  0  0  0
  5  4  2  0  0  0  0
  6  5  1  0  0  0  0
  7  1  1  0  0  0  0
 11 12  1  0  0  0  0
 13 15  1  0  0  0  0
 13 17  1  0  0  0  0
 14 13  1  0  0  0  0
 16  8  1  0  0  0  0
 16  2  1  0  0  0  0
 18 14  1  0  0  0  0
 19 14  1  0  0  0  0
 20 14  1  0  0  0  0
 21  6  1  0  0  0  0
M  RAD  4  11   2  12   3  15   2  17   2
M  END
