Coordinates from ORCA-job Ph-N2-H-OTf-B3LYPG-6-31G_dp-scan-d09-49-n400
 OpenBabel08281820563D

 21 20  0  0  0  0  0  0  0  0999 V2000
   -2.6342    0.8905   -5.9663 C   0  0  0  0  0  0  0  0  0  0  0  0
   -1.4628    1.5941   -5.4582 C   0  0  0  0  0  0  0  0  0  0  0  0
   -0.5924    0.7110   -4.6150 C   0  0  0  0  0  0  0  0  0  0  0  0
   -0.8405   -0.6803   -4.3810 C   0  0  0  0  0  0  0  0  0  0  0  0
   -1.9600   -1.2337   -4.9223 C   0  0  0  0  0  0  0  0  0  0  0  0
   -2.8568   -0.4296   -5.7094 C   0  0  0  0  0  0  0  0  0  0  0  0
   -3.3176    1.4802   -6.5685 H   0  0  0  0  0  0  0  0  0  0  0  0
    2.9991    1.9254   -5.0801 H   0  0  0  0  0  0  0  0  0  0  0  0
   -0.1269   -1.2540   -3.8005 H   0  0  0  0  0  0  0  0  0  0  0  0
   -2.1792   -2.2842   -4.7674 H   0  0  0  0  0  0  0  0  0  0  0  0
    0.4543    1.3242   -4.1112 N   0  0  0  0  0  0  0  0  0  0  0  0
    1.3002    2.0018   -3.7690 N   0  0  0  0  0  0  0  0  0  0  0  0
    3.4455    0.0249   -6.0670 S   0  0  1  0  0  0  0  0  0  0  0  0
    2.3796    0.7217   -7.4663 C   0  0  0  0  0  0  0  0  0  0  0  0
    3.8133    1.5081   -5.4366 O   0  0  0  0  0  0  0  0  0  0  0  0
   -1.1833    2.7724   -5.6740 O   0  0  0  0  0  0  0  0  0  0  0  0
    2.4716   -0.6921   -5.2008 O   0  0  0  0  0  0  0  0  0  0  0  0
    1.4527    1.5613   -6.9833 F   0  0  0  0  0  0  0  0  0  0  0  0
    3.1589    1.3751   -8.3310 F   0  0  0  0  0  0  0  0  0  0  0  0
    1.7756   -0.2919   -8.0905 F   0  0  0  0  0  0  0  0  0  0  0  0
   -3.7452   -0.9041   -6.1184 H   0  0  0  0  0  0  0  0  0  0  0  0
  1  6  1  0  0  0  0
  1  2  1  0  0  0  0
  2  3  1  0  0  0  0
  3  4  2  0  0  0  0
  3 11  1  0  0  0  0
  4  9  1  0  0  0  0
  5 10  1  0  0  0  0
  5  4  1  0  0  0  0
  6  5  2  0  0  0  0
  7  1  1  0  0  0  0
 11 12  1  0  0  0  0
 13 14  1  6  0  0  0
 13 15  1  0  0  0  0
 13 17  1  0  0  0  0
 14 18  1  0  0  0  0
 15  8  1  0  0  0  0
 16  2  2  0  0  0  0
 19 14  1  0  0  0  0
 20 14  1  0  0  0  0
 21  6  1  0  0  0  0
M  RAD  4   1   2  11   2  12   3  17   2
M  END
