Coordinates from ORCA-job Ph-N2-H-OTf-B3LYPG-6-31G_dp-scan-d09-49-n400
 OpenBabel08281820563D

 21 20  0  0  0  0  0  0  0  0999 V2000
   -1.9193    1.0226   -6.1519 C   0  0  0  0  0  0  0  0  0  0  0  0
   -0.7088    1.3308   -5.4927 C   0  0  0  0  0  0  0  0  0  0  0  0
   -0.3440    0.4456   -4.4270 C   0  0  0  0  0  0  0  0  0  0  0  0
   -1.0952   -0.7084   -4.0843 C   0  0  0  0  0  0  0  0  0  0  0  0
   -2.2498   -0.9716   -4.7805 C   0  0  0  0  0  0  0  0  0  0  0  0
   -2.6615   -0.0898   -5.8067 C   0  0  0  0  0  0  0  0  0  0  0  0
   -2.2206    1.6833   -6.9571 H   0  0  0  0  0  0  0  0  0  0  0  0
    0.9421    2.3029   -5.6925 H   0  0  0  0  0  0  0  0  0  0  0  0
   -0.7430   -1.3520   -3.2860 H   0  0  0  0  0  0  0  0  0  0  0  0
   -2.8402   -1.8486   -4.5416 H   0  0  0  0  0  0  0  0  0  0  0  0
    0.7143    0.7626   -3.6348 N   0  0  0  0  0  0  0  0  0  0  0  0
    1.5169    1.0518   -2.9124 N   0  0  0  0  0  0  0  0  0  0  0  0
    3.1461    0.7672   -5.8909 S   0  0  0  0  0  0  0  0  0  0  0  0
    2.4936    0.5396   -7.6546 C   0  0  0  0  0  0  0  0  0  0  0  0
    2.4105    2.0842   -5.5243 O   0  0  0  0  0  0  0  0  0  0  0  0
   -0.0227    2.3848   -5.8452 O   0  0  0  0  0  0  0  0  0  0  0  0
    2.5127   -0.4160   -5.1918 O   0  0  0  0  0  0  0  0  0  0  0  0
    1.1503    0.3922   -7.6727 F   0  0  0  0  0  0  0  0  0  0  0  0
    2.8100    1.5963   -8.4195 F   0  0  0  0  0  0  0  0  0  0  0  0
    3.0397   -0.5577   -8.2032 F   0  0  0  0  0  0  0  0  0  0  0  0
   -3.5794   -0.2989   -6.3473 H   0  0  0  0  0  0  0  0  0  0  0  0
  1  6  2  0  0  0  0
  1  2  1  0  0  0  0
  2  3  2  0  0  0  0
  3  4  1  0  0  0  0
  3 11  1  0  0  0  0
  4  9  1  0  0  0  0
  5 10  1  0  0  0  0
  5  4  2  0  0  0  0
  6  5  1  0  0  0  0
  7  1  1  0  0  0  0
 11 12  1  0  0  0  0
 13 15  1  0  0  0  0
 13 17  1  0  0  0  0
 14 13  1  0  0  0  0
 16  8  1  0  0  0  0
 16  2  1  0  0  0  0
 18 14  1  0  0  0  0
 19 14  1  0  0  0  0
 20 14  1  0  0  0  0
 21  6  1  0  0  0  0
M  RAD  4  11   2  12   3  15   2  17   2
M  END
