Coordinates from ORCA-job Ph-N2-H-OTf-B3LYPG-6-31G_dp-scan-d09-49-n400
 OpenBabel08281820563D

 21 20  0  0  0  0  0  0  0  0999 V2000
   -2.8988    0.9469   -5.7359 C   0  0  0  0  0  0  0  0  0  0  0  0
   -1.7270    1.6954   -5.2954 C   0  0  0  0  0  0  0  0  0  0  0  0
   -0.6644    0.8028   -4.7286 C   0  0  0  0  0  0  0  0  0  0  0  0
   -0.7630   -0.6262   -4.6558 C   0  0  0  0  0  0  0  0  0  0  0  0
   -1.9039   -1.2144   -5.1084 C   0  0  0  0  0  0  0  0  0  0  0  0
   -2.9716   -0.4110   -5.6426 C   0  0  0  0  0  0  0  0  0  0  0  0
   -3.7108    1.5371   -6.1478 H   0  0  0  0  0  0  0  0  0  0  0  0
    3.0485    1.9718   -5.1167 H   0  0  0  0  0  0  0  0  0  0  0  0
    0.0780   -1.1913   -4.2706 H   0  0  0  0  0  0  0  0  0  0  0  0
   -2.0115   -2.2932   -5.0745 H   0  0  0  0  0  0  0  0  0  0  0  0
    0.4008    1.4360   -4.2918 N   0  0  0  0  0  0  0  0  0  0  0  0
    1.2602    2.1015   -3.9610 N   0  0  0  0  0  0  0  0  0  0  0  0
    3.5754   -0.0036   -5.9033 S   0  0  1  0  0  0  0  0  0  0  0  0
    2.5888    0.5301   -7.4265 C   0  0  0  0  0  0  0  0  0  0  0  0
    3.8833    1.5394   -5.3998 O   0  0  0  0  0  0  0  0  0  0  0  0
   -1.5896    2.9157   -5.3645 O   0  0  0  0  0  0  0  0  0  0  0  0
    2.5581   -0.6534   -5.0336 O   0  0  0  0  0  0  0  0  0  0  0  0
    1.6071    1.3768   -7.0823 F   0  0  0  0  0  0  0  0  0  0  0  0
    3.4048    1.1314   -8.2944 F   0  0  0  0  0  0  0  0  0  0  0  0
    2.0565   -0.5543   -7.9939 F   0  0  0  0  0  0  0  0  0  0  0  0
   -3.8693   -0.9166   -5.9898 H   0  0  0  0  0  0  0  0  0  0  0  0
  1  6  1  0  0  0  0
  1  2  1  0  0  0  0
  2  3  1  0  0  0  0
  3  4  2  0  0  0  0
  3 11  1  0  0  0  0
  4  9  1  0  0  0  0
  5 10  1  0  0  0  0
  5  4  1  0  0  0  0
  6  5  2  0  0  0  0
  7  1  1  0  0  0  0
 11 12  1  0  0  0  0
 13 14  1  6  0  0  0
 13 15  1  0  0  0  0
 13 17  1  0  0  0  0
 14 18  1  0  0  0  0
 15  8  1  0  0  0  0
 16  2  2  0  0  0  0
 19 14  1  0  0  0  0
 20 14  1  0  0  0  0
 21  6  1  0  0  0  0
M  RAD  4   1   2  11   2  12   3  17   2
M  END
