Coordinates from ORCA-job Ph-N2-H-OTf-B3LYPG-6-31G_dp-scan-d09-49-n400
 OpenBabel08281820563D

 21 20  0  0  0  0  0  0  0  0999 V2000
   -2.1215    0.8565   -6.0942 C   0  0  0  0  0  0  0  0  0  0  0  0
   -1.0832    1.4127   -5.2367 C   0  0  0  0  0  0  0  0  0  0  0  0
   -0.6803    0.4675   -4.1585 C   0  0  0  0  0  0  0  0  0  0  0  0
   -1.2288   -0.8411   -3.9870 C   0  0  0  0  0  0  0  0  0  0  0  0
   -2.1954   -1.2618   -4.8520 C   0  0  0  0  0  0  0  0  0  0  0  0
   -2.6354   -0.3939   -5.9065 C   0  0  0  0  0  0  0  0  0  0  0  0
   -2.4651    1.4991   -6.8986 H   0  0  0  0  0  0  0  0  0  0  0  0
    2.8453    2.5999   -5.9898 H   0  0  0  0  0  0  0  0  0  0  0  0
   -0.8661   -1.4686   -3.1793 H   0  0  0  0  0  0  0  0  0  0  0  0
   -2.6316   -2.2487   -4.7481 H   0  0  0  0  0  0  0  0  0  0  0  0
    0.2543    0.9231   -3.3367 N   0  0  0  0  0  0  0  0  0  0  0  0
    1.0465    1.4242   -2.7046 N   0  0  0  0  0  0  0  0  0  0  0  0
    3.4110    0.4922   -6.1999 S   0  0  1  0  0  0  0  0  0  0  0  0
    2.3210    0.6573   -7.7378 C   0  0  0  0  0  0  0  0  0  0  0  0
    3.6915    2.1220   -6.0872 O   0  0  0  0  0  0  0  0  0  0  0  0
   -0.5835    2.5345   -5.3616 O   0  0  0  0  0  0  0  0  0  0  0  0
    2.4792    0.0277   -5.1427 O   0  0  0  0  0  0  0  0  0  0  0  0
    1.3707    1.5802   -7.5469 F   0  0  0  0  0  0  0  0  0  0  0  0
    3.0817    1.0140   -8.7779 F   0  0  0  0  0  0  0  0  0  0  0  0
    1.7509   -0.5225   -7.9909 F   0  0  0  0  0  0  0  0  0  0  0  0
   -3.4096   -0.7536   -6.5801 H   0  0  0  0  0  0  0  0  0  0  0  0
  1  6  1  0  0  0  0
  1  2  1  0  0  0  0
  2  3  1  0  0  0  0
  3  4  2  0  0  0  0
  3 11  1  0  0  0  0
  4  9  1  0  0  0  0
  5 10  1  0  0  0  0
  5  4  1  0  0  0  0
  6  5  2  0  0  0  0
  7  1  1  0  0  0  0
 11 12  1  0  0  0  0
 13 14  1  6  0  0  0
 13 15  1  0  0  0  0
 13 17  1  0  0  0  0
 14 18  1  0  0  0  0
 15  8  1  0  0  0  0
 16  2  2  0  0  0  0
 19 14  1  0  0  0  0
 20 14  1  0  0  0  0
 21  6  1  0  0  0  0
M  RAD  4   1   2  11   2  12   3  17   2
M  END
