Coordinates from ORCA-job Ph-N2-H-OTf-B3LYPG-6-31G_dp-scan-d09-49-n400
 OpenBabel08281820563D

 21 20  0  0  0  0  0  0  0  0999 V2000
   -2.3628    1.0492   -5.9942 C   0  0  0  0  0  0  0  0  0  0  0  0
   -1.3419    1.6927   -5.1769 C   0  0  0  0  0  0  0  0  0  0  0  0
   -0.5559    0.7064   -4.3790 C   0  0  0  0  0  0  0  0  0  0  0  0
   -0.7299   -0.7112   -4.4487 C   0  0  0  0  0  0  0  0  0  0  0  0
   -1.7038   -1.2046   -5.2650 C   0  0  0  0  0  0  0  0  0  0  0  0
   -2.5227   -0.3056   -6.0288 C   0  0  0  0  0  0  0  0  0  0  0  0
   -2.9857    1.7130   -6.5850 H   0  0  0  0  0  0  0  0  0  0  0  0
    2.7405    2.3072   -5.7642 H   0  0  0  0  0  0  0  0  0  0  0  0
   -0.0792   -1.3535   -3.8657 H   0  0  0  0  0  0  0  0  0  0  0  0
   -1.8627   -2.2747   -5.3425 H   0  0  0  0  0  0  0  0  0  0  0  0
    0.3607    1.2478   -3.5931 N   0  0  0  0  0  0  0  0  0  0  0  0
    1.0967    1.8482   -2.9773 N   0  0  0  0  0  0  0  0  0  0  0  0
    3.3449    0.2141   -6.0202 S   0  0  1  0  0  0  0  0  0  0  0  0
    2.0299    0.3381   -7.3809 C   0  0  0  0  0  0  0  0  0  0  0  0
    3.5840    1.8520   -5.9535 O   0  0  0  0  0  0  0  0  0  0  0  0
   -1.1204    2.9050   -5.1323 O   0  0  0  0  0  0  0  0  0  0  0  0
    2.5929   -0.2729   -4.8358 O   0  0  0  0  0  0  0  0  0  0  0  0
    1.1585    1.3214   -7.1042 F   0  0  0  0  0  0  0  0  0  0  0  0
    2.6284    0.5988   -8.5455 F   0  0  0  0  0  0  0  0  0  0  0  0
    1.3774   -0.8201   -7.4611 F   0  0  0  0  0  0  0  0  0  0  0  0
   -3.2972   -0.7303   -6.6631 H   0  0  0  0  0  0  0  0  0  0  0  0
  1  2  1  0  0  0  0
  2 16  2  0  0  0  0
  2  3  1  0  0  0  0
  3 11  1  0  0  0  0
  4  3  2  0  0  0  0
  4  9  1  0  0  0  0
  5  4  1  0  0  0  0
  6  1  1  0  0  0  0
  6  5  2  0  0  0  0
  7  1  1  0  0  0  0
 10  5  1  0  0  0  0
 11 12  1  0  0  0  0
 13 14  1  6  0  0  0
 13 15  1  0  0  0  0
 13 17  1  0  0  0  0
 14 18  1  0  0  0  0
 15  8  1  0  0  0  0
 19 14  1  0  0  0  0
 20 14  1  0  0  0  0
 21  6  1  0  0  0  0
M  RAD  4   1   2  11   2  12   3  17   2
M  END
