Coordinates from ORCA-job Ph-N2-H-OTf-B3LYPG-6-31G_dp-scan-d09-49-n400
 OpenBabel08281820563D

 21 20  0  0  0  0  0  0  0  0999 V2000
   -2.0324    0.8476   -6.0900 C   0  0  0  0  0  0  0  0  0  0  0  0
   -0.9052    1.3069   -5.2959 C   0  0  0  0  0  0  0  0  0  0  0  0
   -0.6082    0.4009   -4.1595 C   0  0  0  0  0  0  0  0  0  0  0  0
   -1.3228   -0.8058   -3.8840 C   0  0  0  0  0  0  0  0  0  0  0  0
   -2.3595   -1.1505   -4.7005 C   0  0  0  0  0  0  0  0  0  0  0  0
   -2.7064   -0.3057   -5.8052 C   0  0  0  0  0  0  0  0  0  0  0  0
   -2.3042    1.4739   -6.9335 H   0  0  0  0  0  0  0  0  0  0  0  0
    2.1511    2.5082   -5.8639 H   0  0  0  0  0  0  0  0  0  0  0  0
   -1.0278   -1.4180   -3.0380 H   0  0  0  0  0  0  0  0  0  0  0  0
   -2.9203   -2.0604   -4.5194 H   0  0  0  0  0  0  0  0  0  0  0  0
    0.3885    0.7842   -3.3712 N   0  0  0  0  0  0  0  0  0  0  0  0
    1.2367    1.2064   -2.7563 N   0  0  0  0  0  0  0  0  0  0  0  0
    3.3549    0.7023   -6.1655 S   0  0  1  0  0  0  0  0  0  0  0  0
    2.5472    0.6837   -7.8758 C   0  0  0  0  0  0  0  0  0  0  0  0
    3.1097    2.3142   -5.9128 O   0  0  0  0  0  0  0  0  0  0  0  0
   -0.2626    2.3433   -5.5185 O   0  0  0  0  0  0  0  0  0  0  0  0
    2.4472   -0.1213   -5.3243 O   0  0  0  0  0  0  0  0  0  0  0  0
    1.3256    1.2229   -7.8476 F   0  0  0  0  0  0  0  0  0  0  0  0
    3.3163    1.3736   -8.7254 F   0  0  0  0  0  0  0  0  0  0  0  0
    2.4628   -0.5847   -8.2908 F   0  0  0  0  0  0  0  0  0  0  0  0
   -3.5390   -0.6008   -6.4390 H   0  0  0  0  0  0  0  0  0  0  0  0
  1  6  1  0  0  0  0
  1  2  1  0  0  0  0
  2  3  1  0  0  0  0
  3  4  2  0  0  0  0
  3 11  1  0  0  0  0
  4  9  1  0  0  0  0
  5 10  1  0  0  0  0
  5  4  1  0  0  0  0
  6  5  2  0  0  0  0
  7  1  1  0  0  0  0
 11 12  1  0  0  0  0
 13 14  1  6  0  0  0
 13 15  1  0  0  0  0
 13 17  1  0  0  0  0
 14 18  1  0  0  0  0
 15  8  1  0  0  0  0
 16  2  2  0  0  0  0
 19 14  1  0  0  0  0
 20 14  1  0  0  0  0
 21  6  1  0  0  0  0
M  RAD  4   1   2  11   2  12   3  17   2
M  END
