Coordinates from ORCA-job Ph-N2-H-OTf-B3LYPG-6-31G_dp-scan-d09-49-n400
 OpenBabel08281820563D

 21 20  0  0  0  0  0  0  0  0999 V2000
   -2.6974    0.9033   -5.9212 C   0  0  0  0  0  0  0  0  0  0  0  0
   -1.5262    1.6196   -5.4301 C   0  0  0  0  0  0  0  0  0  0  0  0
   -0.6073    0.7330   -4.6442 C   0  0  0  0  0  0  0  0  0  0  0  0
   -0.8181   -0.6699   -4.4405 C   0  0  0  0  0  0  0  0  0  0  0  0
   -1.9430   -1.2329   -4.9602 C   0  0  0  0  0  0  0  0  0  0  0  0
   -2.8826   -0.4281   -5.6951 C   0  0  0  0  0  0  0  0  0  0  0  0
   -3.4129    1.4938   -6.4841 H   0  0  0  0  0  0  0  0  0  0  0  0
    3.0311    1.9260   -5.0645 H   0  0  0  0  0  0  0  0  0  0  0  0
   -0.0720   -1.2428   -3.9017 H   0  0  0  0  0  0  0  0  0  0  0  0
   -2.1342   -2.2920   -4.8278 H   0  0  0  0  0  0  0  0  0  0  0  0
    0.4448    1.3506   -4.1578 N   0  0  0  0  0  0  0  0  0  0  0  0
    1.2964    2.0212   -3.8157 N   0  0  0  0  0  0  0  0  0  0  0  0
    3.4723    0.0146   -6.0350 S   0  0  1  0  0  0  0  0  0  0  0  0
    2.4173    0.6855   -7.4549 C   0  0  0  0  0  0  0  0  0  0  0  0
    3.8410    1.5076   -5.4296 O   0  0  0  0  0  0  0  0  0  0  0  0
   -1.2834    2.8107   -5.6179 O   0  0  0  0  0  0  0  0  0  0  0  0
    2.4911   -0.6836   -5.1615 O   0  0  0  0  0  0  0  0  0  0  0  0
    1.4788    1.5253   -6.9952 F   0  0  0  0  0  0  0  0  0  0  0  0
    3.2018    1.3318   -8.3200 F   0  0  0  0  0  0  0  0  0  0  0  0
    1.8276   -0.3414   -8.0712 F   0  0  0  0  0  0  0  0  0  0  0  0
   -3.7732   -0.9114   -6.0889 H   0  0  0  0  0  0  0  0  0  0  0  0
  1  6  1  0  0  0  0
  1  2  1  0  0  0  0
  2  3  1  0  0  0  0
  3  4  2  0  0  0  0
  3 11  1  0  0  0  0
  4  9  1  0  0  0  0
  5 10  1  0  0  0  0
  5  4  1  0  0  0  0
  6  5  2  0  0  0  0
  7  1  1  0  0  0  0
 11 12  1  0  0  0  0
 13 14  1  6  0  0  0
 13 15  1  0  0  0  0
 13 17  1  0  0  0  0
 14 18  1  0  0  0  0
 15  8  1  0  0  0  0
 16  2  2  0  0  0  0
 19 14  1  0  0  0  0
 20 14  1  0  0  0  0
 21  6  1  0  0  0  0
M  RAD  4   1   2  11   2  12   3  17   2
M  END
