Coordinates from ORCA-job p-NO2-Ph-N2-OTf-B3LYPG-6-31G_dp-scan-d09-49-n400
 OpenBabel08281821413D

 23 22  0  0  0  0  0  0  0  0999 V2000
   -2.2994   -0.7891   -5.6658 C   0  0  0  0  0  0  0  0  0  0  0  0
   -1.0030   -0.3654   -5.3923 C   0  0  0  0  0  0  0  0  0  0  0  0
   -0.8633    0.8696   -4.7544 C   0  0  0  0  0  0  0  0  0  0  0  0
   -1.9310    1.7051   -4.3965 C   0  0  0  0  0  0  0  0  0  0  0  0
   -3.2151    1.2691   -4.6967 C   0  0  0  0  0  0  0  0  0  0  0  0
   -3.3715    0.0312   -5.3184 C   0  0  0  0  0  0  0  0  0  0  0  0
   -2.4853   -1.7366   -6.1552 H   0  0  0  0  0  0  0  0  0  0  0  0
   -0.1179   -0.9386   -5.6677 H   0  0  0  0  0  0  0  0  0  0  0  0
   -1.7572    2.6588   -3.9122 H   0  0  0  0  0  0  0  0  0  0  0  0
   -4.0865    1.8644   -4.4570 H   0  0  0  0  0  0  0  0  0  0  0  0
   -4.7479   -0.4287   -5.6246 N   0  0  0  0  0  0  0  0  0  0  0  0
   -5.6684    0.3217   -5.3141 O   0  0  0  0  0  0  0  0  0  0  0  0
   -4.8644   -1.5244   -6.1615 O   0  0  0  0  0  0  0  0  0  0  0  0
    0.4200    1.3189   -4.3772 N   0  0  0  0  0  0  0  0  0  0  0  0
    1.2187    1.7463   -3.7229 N   0  0  0  0  0  0  0  0  0  0  0  0
    2.1137    0.1677   -6.9351 S   0  0  0  0  0  0  0  0  0  0  0  0
    3.7490    0.7532   -6.2775 C   0  0  0  0  0  0  0  0  0  0  0  0
    2.2932    0.0347   -8.3810 O   0  0  0  0  0  0  0  0  0  0  0  0
    1.1883    1.2961   -6.5298 O   0  0  0  0  0  0  0  0  0  0  0  0
    1.8458   -1.0640   -6.1519 O   0  0  0  0  0  0  0  0  0  0  0  0
    4.6925   -0.1754   -6.4500 F   0  0  0  0  0  0  0  0  0  0  0  0
    4.1306    1.8814   -6.8838 F   0  0  0  0  0  0  0  0  0  0  0  0
    3.6382    1.0050   -4.9528 F   0  0  0  0  0  0  0  0  0  0  0  0
  1  2  2  0  0  0  0
  1  6  1  0  0  0  0
  2  3  1  0  0  0  0
  3  4  2  0  0  0  0
  3 14  1  0  0  0  0
  4  9  1  0  0  0  0
  5 10  1  0  0  0  0
  5  4  1  0  0  0  0
  6  5  2  0  0  0  0
  7  1  1  0  0  0  0
  8  2  1  0  0  0  0
 11  6  1  0  0  0  0
 11 12  2  0  0  0  0
 13 11  2  0  0  0  0
 14 15  1  0  0  0  0
 16 19  2  0  0  0  0
 16 17  1  0  0  0  0
 16 20  1  0  0  0  0
 17 23  1  0  0  0  0
 18 16  2  0  0  0  0
 21 17  1  0  0  0  0
 22 17  1  0  0  0  0
M  RAD  3  14   2  15   3  20   2
M  END
