Coordinates from ORCA-job p-NO2-Ph-N2-OTf-B3LYPG-6-31G_dp-scan-d09-49-n400
 OpenBabel08281821413D

 23 23  0  0  1  0  0  0  0  0999 V2000
   -1.2402   -0.4741   -5.4841 C   0  0  0  0  0  0  0  0  0  0  0  0
   -0.2715    0.5804   -5.0388 C   0  0  2  0  0  0  0  0  0  0  0  0
   -0.9130    1.9268   -4.6425 C   0  0  0  0  0  0  0  0  0  0  0  0
   -2.3608    2.0526   -4.7210 C   0  0  0  0  0  0  0  0  0  0  0  0
   -3.1499    1.0302   -5.1176 C   0  0  0  0  0  0  0  0  0  0  0  0
   -2.5602   -0.2417   -5.4924 C   0  0  0  0  0  0  0  0  0  0  0  0
   -0.8386   -1.4203   -5.8239 H   0  0  0  0  0  0  0  0  0  0  0  0
    0.2660    0.2121   -4.1510 H   0  0  0  0  0  0  0  0  0  0  0  0
   -2.7746    3.0184   -4.4541 H   0  0  0  0  0  0  0  0  0  0  0  0
   -4.2267    1.1277   -5.1801 H   0  0  0  0  0  0  0  0  0  0  0  0
   -3.4704   -1.3198   -5.9363 N   0  0  0  0  0  0  0  0  0  0  0  0
   -4.6707   -1.0552   -5.9665 O   0  0  0  0  0  0  0  0  0  0  0  0
   -2.9740   -2.4005   -6.2401 O   0  0  0  0  0  0  0  0  0  0  0  0
   -0.2420    2.9519   -4.2348 N   0  0  0  0  0  0  0  0  0  0  0  0
    1.2139    2.6048   -4.0295 N   0  0  0  0  0  0  0  0  0  0  0  0
    2.2801    0.3400   -5.7717 S   0  0  2  0  0  0  0  0  0  0  0  0
    2.2706   -0.9365   -7.1629 C   0  0  0  0  0  0  0  0  0  0  0  0
    0.6681    0.7777   -6.1186 O   0  0  0  0  0  0  0  0  0  0  0  0
    3.1740    1.4142   -6.2469 O   0  0  0  0  0  0  0  0  0  0  0  0
    1.8666    3.5004   -3.9581 O   0  0  0  0  0  0  0  0  0  0  0  0
    1.4022   -1.9110   -6.8336 F   0  0  0  0  0  0  0  0  0  0  0  0
    1.9341   -0.4134   -8.3342 F   0  0  0  0  0  0  0  0  0  0  0  0
    3.4964   -1.4635   -7.2394 F   0  0  0  0  0  0  0  0  0  0  0  0
  1  2  1  0  0  0  0
  2  3  1  0  0  0  0
  2  8  1  1  0  0  0
  3 14  1  0  0  0  0
  4  3  2  0  0  0  0
  4  9  1  0  0  0  0
  5  4  1  0  0  0  0
  6  1  2  0  0  0  0
  6  5  1  0  0  0  0
  7  1  1  0  0  0  0
 10  5  1  0  0  0  0
 11  6  1  0  0  0  0
 12 11  2  0  0  0  0
 13 11  2  0  0  0  0
 14 15  1  0  0  0  0
 15 20  1  0  0  0  0
 16 17  1  6  0  0  0
 17 21  1  0  0  0  0
 18 16  1  0  0  0  0
 18  2  1  0  0  0  0
 19 16  1  0  0  0  0
 22 17  1  0  0  0  0
 23 17  1  0  0  0  0
M  RAD  5   5   2  14   2  15   2  19   2  20   2
M  END
