Coordinates from ORCA-job p-NO2-Ph-N2-OTf-B3LYPG-6-31G_dp-scan-d09-49-n400
 OpenBabel08281821413D

 23 22  0  0  0  0  0  0  0  0999 V2000
   -2.3361   -0.8714   -5.6285 C   0  0  0  0  0  0  0  0  0  0  0  0
   -1.0345   -0.5689   -5.2491 C   0  0  0  0  0  0  0  0  0  0  0  0
   -0.8248    0.6697   -4.6306 C   0  0  0  0  0  0  0  0  0  0  0  0
   -1.8290    1.6165   -4.3886 C   0  0  0  0  0  0  0  0  0  0  0  0
   -3.1201    1.2957   -4.7873 C   0  0  0  0  0  0  0  0  0  0  0  0
   -3.3467    0.0599   -5.3912 C   0  0  0  0  0  0  0  0  0  0  0  0
   -2.5737   -1.8087   -6.1153 H   0  0  0  0  0  0  0  0  0  0  0  0
   -0.1828   -1.2156   -5.4401 H   0  0  0  0  0  0  0  0  0  0  0  0
   -1.6014    2.5649   -3.9169 H   0  0  0  0  0  0  0  0  0  0  0  0
   -3.9459    1.9792   -4.6374 H   0  0  0  0  0  0  0  0  0  0  0  0
   -4.7313   -0.2756   -5.8017 N   0  0  0  0  0  0  0  0  0  0  0  0
   -5.5957    0.5700   -5.5910 O   0  0  0  0  0  0  0  0  0  0  0  0
   -4.9105   -1.3737   -6.3163 O   0  0  0  0  0  0  0  0  0  0  0  0
    0.4555    0.9790   -4.1574 N   0  0  0  0  0  0  0  0  0  0  0  0
    1.3622    1.2025   -3.5526 N   0  0  0  0  0  0  0  0  0  0  0  0
    2.0234    0.2289   -6.7572 S   0  0  0  0  0  0  0  0  0  0  0  0
    3.6910    0.9849   -6.4474 C   0  0  0  0  0  0  0  0  0  0  0  0
    2.0491   -0.2420   -8.1431 O   0  0  0  0  0  0  0  0  0  0  0  0
    1.0874    1.3722   -6.4771 O   0  0  0  0  0  0  0  0  0  0  0  0
    1.9238   -0.8071   -5.6875 O   0  0  0  0  0  0  0  0  0  0  0  0
    4.6596    0.0723   -6.5685 F   0  0  0  0  0  0  0  0  0  0  0  0
    3.9281    1.9854   -7.3015 F   0  0  0  0  0  0  0  0  0  0  0  0
    3.7319    1.4831   -5.1918 F   0  0  0  0  0  0  0  0  0  0  0  0
  1  6  2  0  0  0  0
  1  2  1  0  0  0  0
  2  3  2  0  0  0  0
  3  4  1  0  0  0  0
  3 14  1  0  0  0  0
  4  9  1  0  0  0  0
  5 10  1  0  0  0  0
  5  4  2  0  0  0  0
  6  5  1  0  0  0  0
  7  1  1  0  0  0  0
  8  2  1  0  0  0  0
 11 12  2  0  0  0  0
 11  6  1  0  0  0  0
 13 11  2  0  0  0  0
 14 15  1  0  0  0  0
 16 19  2  0  0  0  0
 16 17  1  0  0  0  0
 16 20  1  0  0  0  0
 17 23  1  0  0  0  0
 18 16  2  0  0  0  0
 21 17  1  0  0  0  0
 22 17  1  0  0  0  0
M  RAD  3  14   2  15   3  20   2
M  END
