Coordinates from ORCA-job p-NO2-Ph-N2-OTf-B3LYPG-6-31G_dp-scan-d09-49-n400
 OpenBabel08281821413D

 23 23  0  0  1  0  0  0  0  0999 V2000
   -1.2239   -0.4807   -5.3910 C   0  0  0  0  0  0  0  0  0  0  0  0
   -0.2807    0.6038   -4.9620 C   0  0  2  0  0  0  0  0  0  0  0  0
   -0.9412    1.9754   -4.6653 C   0  0  0  0  0  0  0  0  0  0  0  0
   -2.3995    2.0673   -4.8049 C   0  0  0  0  0  0  0  0  0  0  0  0
   -3.1650    1.0214   -5.1755 C   0  0  0  0  0  0  0  0  0  0  0  0
   -2.5437   -0.2607   -5.4616 C   0  0  0  0  0  0  0  0  0  0  0  0
   -0.8110   -1.4441   -5.6638 H   0  0  0  0  0  0  0  0  0  0  0  0
    0.2369    0.2767   -4.0484 H   0  0  0  0  0  0  0  0  0  0  0  0
   -2.8307    3.0424   -4.6066 H   0  0  0  0  0  0  0  0  0  0  0  0
   -4.2391    1.1012   -5.2851 H   0  0  0  0  0  0  0  0  0  0  0  0
   -3.4233   -1.3738   -5.8828 N   0  0  0  0  0  0  0  0  0  0  0  0
   -4.6238   -1.1269   -5.9815 O   0  0  0  0  0  0  0  0  0  0  0  0
   -2.9058   -2.4657   -6.1027 O   0  0  0  0  0  0  0  0  0  0  0  0
   -0.2923    3.0201   -4.3141 N   0  0  0  0  0  0  0  0  0  0  0  0
    1.3569    2.6395   -4.0111 N   0  0  0  0  0  0  0  0  0  0  0  0
    2.2419    0.1547   -5.6924 S   0  0  2  0  0  0  0  0  0  0  0  0
    2.2062   -0.8764   -7.2720 C   0  0  0  0  0  0  0  0  0  0  0  0
    0.7029    0.7818   -6.0186 O   0  0  0  0  0  0  0  0  0  0  0  0
    3.2525    1.2071   -5.9391 O   0  0  0  0  0  0  0  0  0  0  0  0
    1.9447    3.4734   -4.0204 O   0  0  0  0  0  0  0  0  0  0  0  0
    1.2541   -1.8146   -7.1401 F   0  0  0  0  0  0  0  0  0  0  0  0
    1.9695   -0.1415   -8.3504 F   0  0  0  0  0  0  0  0  0  0  0  0
    3.3935   -1.4794   -7.3889 F   0  0  0  0  0  0  0  0  0  0  0  0
  1  2  1  0  0  0  0
  2  3  1  0  0  0  0
  2  8  1  1  0  0  0
  3 14  1  0  0  0  0
  4  3  2  0  0  0  0
  4  9  1  0  0  0  0
  5  4  1  0  0  0  0
  6  1  2  0  0  0  0
  6  5  1  0  0  0  0
  7  1  1  0  0  0  0
 10  5  1  0  0  0  0
 11  6  1  0  0  0  0
 12 11  2  0  0  0  0
 13 11  2  0  0  0  0
 14 15  1  0  0  0  0
 16 17  1  6  0  0  0
 17 21  1  0  0  0  0
 18 16  1  0  0  0  0
 18  2  1  0  0  0  0
 19 16  1  0  0  0  0
 20 15  1  0  0  0  0
 22 17  1  0  0  0  0
 23 17  1  0  0  0  0
M  RAD  5   5   2  14   2  15   2  19   2  20   2
M  END
