Coordinates from ORCA-job p-NO2-Ph-N2-OTf-B3LYPG-6-31G_dp-scan-d09-49-n400
 OpenBabel08281821413D

 23 22  0  0  0  0  0  0  0  0999 V2000
   -2.3444   -0.7416   -5.7269 C   0  0  0  0  0  0  0  0  0  0  0  0
   -1.0717   -0.4444   -5.2550 C   0  0  0  0  0  0  0  0  0  0  0  0
   -0.9310    0.7020   -4.4578 C   0  0  0  0  0  0  0  0  0  0  0  0
   -1.9907    1.5507   -4.1181 C   0  0  0  0  0  0  0  0  0  0  0  0
   -3.2538    1.2459   -4.6093 C   0  0  0  0  0  0  0  0  0  0  0  0
   -3.4017    0.1061   -5.3985 C   0  0  0  0  0  0  0  0  0  0  0  0
   -2.5249   -1.6092   -6.3490 H   0  0  0  0  0  0  0  0  0  0  0  0
   -0.2032   -1.0518   -5.4821 H   0  0  0  0  0  0  0  0  0  0  0  0
   -1.8200    2.4229   -3.4977 H   0  0  0  0  0  0  0  0  0  0  0  0
   -4.1157    1.8631   -4.3921 H   0  0  0  0  0  0  0  0  0  0  0  0
   -4.7557   -0.2219   -5.9095 N   0  0  0  0  0  0  0  0  0  0  0  0
   -5.6657    0.5452   -5.6099 O   0  0  0  0  0  0  0  0  0  0  0  0
   -4.8656   -1.2362   -6.5890 O   0  0  0  0  0  0  0  0  0  0  0  0
    0.3361    1.0028   -3.9540 N   0  0  0  0  0  0  0  0  0  0  0  0
    1.4586    0.9119   -3.8556 N   0  0  0  0  0  0  0  0  0  0  0  0
    2.1513    0.1618   -6.6990 S   0  0  0  0  0  0  0  0  0  0  0  0
    3.7931    1.0249   -6.6057 C   0  0  0  0  0  0  0  0  0  0  0  0
    2.2461   -0.7713   -7.8227 O   0  0  0  0  0  0  0  0  0  0  0  0
    1.1564    1.2516   -6.7692 O   0  0  0  0  0  0  0  0  0  0  0  0
    2.0891   -0.5508   -5.3487 O   0  0  0  0  0  0  0  0  0  0  0  0
    4.7845    0.1408   -6.4663 F   0  0  0  0  0  0  0  0  0  0  0  0
    4.0010    1.7420   -7.7141 F   0  0  0  0  0  0  0  0  0  0  0  0
    3.8071    1.8564   -5.5478 F   0  0  0  0  0  0  0  0  0  0  0  0
  1  6  2  0  0  0  0
  1  2  1  0  0  0  0
  2  3  2  0  0  0  0
  3  4  1  0  0  0  0
  3 14  1  0  0  0  0
  4  9  1  0  0  0  0
  5 10  1  0  0  0  0
  5  4  2  0  0  0  0
  6  5  1  0  0  0  0
  7  1  1  0  0  0  0
  8  2  1  0  0  0  0
 11 12  2  0  0  0  0
 11  6  1  0  0  0  0
 13 11  2  0  0  0  0
 14 15  1  0  0  0  0
 16 17  1  0  0  0  0
 16 20  1  0  0  0  0
 17 21  1  0  0  0  0
 17 23  1  0  0  0  0
 18 16  2  0  0  0  0
 19 16  2  0  0  0  0
 22 17  1  0  0  0  0
M  RAD  3  14   2  15   3  20   2
M  END
