Coordinates from ORCA-job p-NO2-Ph-N2-OTf-B3LYPG-6-31G_dp-scan-d09-49-n400
 OpenBabel08281821413D

 23 23  0  0  1  0  0  0  0  0999 V2000
   -1.2305   -0.5472   -5.4001 C   0  0  0  0  0  0  0  0  0  0  0  0
   -0.2282    0.5011   -5.0116 C   0  0  2  0  0  0  0  0  0  0  0  0
   -0.8721    1.7859   -4.4795 C   0  0  0  0  0  0  0  0  0  0  0  0
   -2.2548    2.0797   -4.8005 C   0  0  0  0  0  0  0  0  0  0  0  0
   -3.0514    1.1133   -5.3068 C   0  0  0  0  0  0  0  0  0  0  0  0
   -2.5213   -0.2186   -5.5520 C   0  0  0  0  0  0  0  0  0  0  0  0
   -0.8718   -1.5413   -5.6333 H   0  0  0  0  0  0  0  0  0  0  0  0
    0.4672    0.1110   -4.2569 H   0  0  0  0  0  0  0  0  0  0  0  0
   -2.6289    3.0726   -4.5793 H   0  0  0  0  0  0  0  0  0  0  0  0
   -4.0957    1.2901   -5.5300 H   0  0  0  0  0  0  0  0  0  0  0  0
   -3.4703   -1.2587   -6.0099 N   0  0  0  0  0  0  0  0  0  0  0  0
   -4.6373   -0.9097   -6.1750 O   0  0  0  0  0  0  0  0  0  0  0  0
   -3.0340   -2.3908   -6.1902 O   0  0  0  0  0  0  0  0  0  0  0  0
   -0.1896    2.6092   -3.7645 N   0  0  0  0  0  0  0  0  0  0  0  0
    0.9723    2.5467   -3.2338 N   0  0  0  0  0  0  0  0  0  0  0  0
    2.1924    0.8385   -6.1728 S   0  0  2  0  0  0  0  0  0  0  0  0
    2.2740   -0.8571   -7.0051 C   0  0  0  0  0  0  0  0  0  0  0  0
    0.4740    0.8166   -6.2379 O   0  0  0  0  0  0  0  0  0  0  0  0
    2.6376    1.7864   -7.2081 O   0  0  0  0  0  0  0  0  0  0  0  0
    2.0309    2.8974   -4.1150 O   0  0  0  0  0  0  0  0  0  0  0  0
    1.6664   -1.7497   -6.1930 F   0  0  0  0  0  0  0  0  0  0  0  0
    1.6909   -0.8733   -8.1960 F   0  0  0  0  0  0  0  0  0  0  0  0
    3.5595   -1.2010   -7.1271 F   0  0  0  0  0  0  0  0  0  0  0  0
  1  2  1  0  0  0  0
  2  3  1  0  0  0  0
  2  8  1  1  0  0  0
  3 14  2  0  0  0  0
  4  9  1  0  0  0  0
  4  3  1  0  0  0  0
  5  4  2  0  0  0  0
  6  1  2  0  0  0  0
  6  5  1  0  0  0  0
  7  1  1  0  0  0  0
 10  5  1  0  0  0  0
 11  6  1  0  0  0  0
 12 11  2  0  0  0  0
 13 11  2  0  0  0  0
 14 15  1  0  0  0  0
 16 19  1  6  0  0  0
 17 21  1  0  0  0  0
 17 16  1  0  0  0  0
 18 16  1  0  0  0  0
 18  2  1  0  0  0  0
 20 15  1  0  0  0  0
 22 17  1  0  0  0  0
 23 17  1  0  0  0  0
M  RAD  3  15   2  19   2  20   2
M  END
