Coordinates from ORCA-job p-NO2-Ph-N2-OTf-B3LYPG-6-31G_dp-scan-d09-49-n400
 OpenBabel08281821413D

 23 22  0  0  0  0  0  0  0  0999 V2000
   -2.3465   -0.7375   -5.7321 C   0  0  0  0  0  0  0  0  0  0  0  0
   -1.0744   -0.4337   -5.2625 C   0  0  0  0  0  0  0  0  0  0  0  0
   -0.9379    0.7090   -4.4592 C   0  0  0  0  0  0  0  0  0  0  0  0
   -2.0036    1.5467   -4.1110 C   0  0  0  0  0  0  0  0  0  0  0  0
   -3.2663    1.2360   -4.5993 C   0  0  0  0  0  0  0  0  0  0  0  0
   -3.4089    0.1003   -5.3951 C   0  0  0  0  0  0  0  0  0  0  0  0
   -2.5228   -1.6030   -6.3584 H   0  0  0  0  0  0  0  0  0  0  0  0
   -0.2032   -1.0350   -5.4953 H   0  0  0  0  0  0  0  0  0  0  0  0
   -1.8370    2.4162   -3.4856 H   0  0  0  0  0  0  0  0  0  0  0  0
   -4.1319    1.8455   -4.3749 H   0  0  0  0  0  0  0  0  0  0  0  0
   -4.7621   -0.2345   -5.9036 N   0  0  0  0  0  0  0  0  0  0  0  0
   -5.6769    0.5235   -5.5957 O   0  0  0  0  0  0  0  0  0  0  0  0
   -4.8668   -1.2449   -6.5898 O   0  0  0  0  0  0  0  0  0  0  0  0
    0.3280    1.0216   -3.9561 N   0  0  0  0  0  0  0  0  0  0  0  0
    1.4542    0.9255   -3.8820 N   0  0  0  0  0  0  0  0  0  0  0  0
    2.1541    0.1863   -6.7012 S   0  0  0  0  0  0  0  0  0  0  0  0
    3.8171    1.0077   -6.6064 C   0  0  0  0  0  0  0  0  0  0  0  0
    2.2310   -0.7628   -7.8125 O   0  0  0  0  0  0  0  0  0  0  0  0
    1.1851    1.2966   -6.7828 O   0  0  0  0  0  0  0  0  0  0  0  0
    2.0699   -0.5165   -5.3430 O   0  0  0  0  0  0  0  0  0  0  0  0
    4.7840    0.0984   -6.4582 F   0  0  0  0  0  0  0  0  0  0  0  0
    4.0461    1.7112   -7.7192 F   0  0  0  0  0  0  0  0  0  0  0  0
    3.8481    1.8445   -5.5542 F   0  0  0  0  0  0  0  0  0  0  0  0
  1  6  2  0  0  0  0
  1  2  1  0  0  0  0
  2  3  2  0  0  0  0
  3  4  1  0  0  0  0
  3 14  1  0  0  0  0
  4  9  1  0  0  0  0
  5 10  1  0  0  0  0
  5  4  2  0  0  0  0
  6  5  1  0  0  0  0
  7  1  1  0  0  0  0
  8  2  1  0  0  0  0
 11 12  2  0  0  0  0
 11  6  1  0  0  0  0
 13 11  2  0  0  0  0
 14 15  2  0  0  0  0
 16 17  1  0  0  0  0
 16 20  1  0  0  0  0
 17 21  1  0  0  0  0
 17 23  1  0  0  0  0
 18 16  2  0  0  0  0
 19 16  2  0  0  0  0
 22 17  1  0  0  0  0
M  RAD  2  15   2  20   2
M  END
