Coordinates from ORCA-job p-NO2-Ph-N2-OTf-B3LYPG-6-31G_dp-scan-d09-49-n400
 OpenBabel08281821413D

 23 22  0  0  0  0  0  0  0  0999 V2000
   -2.2136   -0.6843   -5.7249 C   0  0  0  0  0  0  0  0  0  0  0  0
   -0.9516   -0.1058   -5.6006 C   0  0  0  0  0  0  0  0  0  0  0  0
   -0.8840    1.1215   -4.9382 C   0  0  0  0  0  0  0  0  0  0  0  0
   -1.9970    1.7988   -4.4080 C   0  0  0  0  0  0  0  0  0  0  0  0
   -3.2437    1.2109   -4.5604 C   0  0  0  0  0  0  0  0  0  0  0  0
   -3.3241   -0.0203   -5.2121 C   0  0  0  0  0  0  0  0  0  0  0  0
   -2.3390   -1.6361   -6.2250 H   0  0  0  0  0  0  0  0  0  0  0  0
   -0.0608   -0.5814   -6.0159 H   0  0  0  0  0  0  0  0  0  0  0  0
   -1.8817    2.7529   -3.9074 H   0  0  0  0  0  0  0  0  0  0  0  0
   -4.1434    1.6824   -4.1869 H   0  0  0  0  0  0  0  0  0  0  0  0
   -4.6623   -0.6442   -5.3645 N   0  0  0  0  0  0  0  0  0  0  0  0
   -5.6184   -0.0295   -4.9009 O   0  0  0  0  0  0  0  0  0  0  0  0
   -4.7123   -1.7267   -5.9364 O   0  0  0  0  0  0  0  0  0  0  0  0
    0.3573    1.7526   -4.7049 N   0  0  0  0  0  0  0  0  0  0  0  0
    1.0825    2.4180   -4.1744 N   0  0  0  0  0  0  0  0  0  0  0  0
    2.2032    0.2135   -7.1766 S   0  0  0  0  0  0  0  0  0  0  0  0
    3.6298    0.3985   -6.0001 C   0  0  0  0  0  0  0  0  0  0  0  0
    2.7680    0.3947   -8.5131 O   0  0  0  0  0  0  0  0  0  0  0  0
    1.3039    1.3514   -6.7357 O   0  0  0  0  0  0  0  0  0  0  0  0
    1.6372   -1.1145   -6.8380 O   0  0  0  0  0  0  0  0  0  0  0  0
    4.4792   -0.6248   -6.1026 F   0  0  0  0  0  0  0  0  0  0  0  0
    4.2910    1.5390   -6.2236 F   0  0  0  0  0  0  0  0  0  0  0  0
    3.1590    0.4346   -4.7282 F   0  0  0  0  0  0  0  0  0  0  0  0
  1  2  2  0  0  0  0
  1  6  1  0  0  0  0
  2  3  1  0  0  0  0
  3 14  1  0  0  0  0
  3  4  2  0  0  0  0
  4  9  1  0  0  0  0
  5  4  1  0  0  0  0
  5 10  1  0  0  0  0
  6  5  2  0  0  0  0
  7  1  1  0  0  0  0
  8  2  1  0  0  0  0
 11  6  1  0  0  0  0
 11 12  2  0  0  0  0
 13 11  2  0  0  0  0
 14 15  1  0  0  0  0
 16 20  2  0  0  0  0
 16 19  1  0  0  0  0
 16 17  1  0  0  0  0
 17 23  1  0  0  0  0
 18 16  2  0  0  0  0
 21 17  1  0  0  0  0
 22 17  1  0  0  0  0
M  RAD  3  14   2  15   3  19   2
M  END
