Coordinates from ORCA-job p-NO2-Ph-N2-OTf-B3LYPG-6-31G_dp-scan-d09-49-n400
 OpenBabel08281821413D

 23 22  0  0  0  0  0  0  0  0999 V2000
   -2.3231   -0.8454   -5.6362 C   0  0  0  0  0  0  0  0  0  0  0  0
   -1.0213   -0.4987   -5.2949 C   0  0  0  0  0  0  0  0  0  0  0  0
   -0.8377    0.7412   -4.6747 C   0  0  0  0  0  0  0  0  0  0  0  0
   -1.8662    1.6518   -4.3978 C   0  0  0  0  0  0  0  0  0  0  0  0
   -3.1569    1.2887   -4.7610 C   0  0  0  0  0  0  0  0  0  0  0  0
   -3.3582    0.0488   -5.3651 C   0  0  0  0  0  0  0  0  0  0  0  0
   -2.5422   -1.7890   -6.1196 H   0  0  0  0  0  0  0  0  0  0  0  0
   -0.1545   -1.1189   -5.5124 H   0  0  0  0  0  0  0  0  0  0  0  0
   -1.6583    2.6050   -3.9264 H   0  0  0  0  0  0  0  0  0  0  0  0
   -4.0007    1.9427   -4.5830 H   0  0  0  0  0  0  0  0  0  0  0  0
   -4.7418   -0.3317   -5.7380 N   0  0  0  0  0  0  0  0  0  0  0  0
   -5.6282    0.4829   -5.4978 O   0  0  0  0  0  0  0  0  0  0  0  0
   -4.8985   -1.4324   -6.2542 O   0  0  0  0  0  0  0  0  0  0  0  0
    0.4473    1.1045   -4.2364 N   0  0  0  0  0  0  0  0  0  0  0  0
    1.3030    1.4072   -3.5888 N   0  0  0  0  0  0  0  0  0  0  0  0
    2.0546    0.2030   -6.8258 S   0  0  0  0  0  0  0  0  0  0  0  0
    3.7185    0.9019   -6.3870 C   0  0  0  0  0  0  0  0  0  0  0  0
    2.1231   -0.1212   -8.2513 O   0  0  0  0  0  0  0  0  0  0  0  0
    1.1258    1.3405   -6.4772 O   0  0  0  0  0  0  0  0  0  0  0  0
    1.8975   -0.9258   -5.8691 O   0  0  0  0  0  0  0  0  0  0  0  0
    4.6768   -0.0157   -6.5404 F   0  0  0  0  0  0  0  0  0  0  0  0
    4.0065    1.9633   -7.1467 F   0  0  0  0  0  0  0  0  0  0  0  0
    3.7136    1.2984   -5.0943 F   0  0  0  0  0  0  0  0  0  0  0  0
  1  6  2  0  0  0  0
  1  2  1  0  0  0  0
  2  3  2  0  0  0  0
  3  4  1  0  0  0  0
  3 14  1  0  0  0  0
  4  9  1  0  0  0  0
  5 10  1  0  0  0  0
  5  4  2  0  0  0  0
  6  5  1  0  0  0  0
  7  1  1  0  0  0  0
  8  2  1  0  0  0  0
 11 12  2  0  0  0  0
 11  6  1  0  0  0  0
 13 11  2  0  0  0  0
 14 15  1  0  0  0  0
 16 19  2  0  0  0  0
 16 17  1  0  0  0  0
 16 20  1  0  0  0  0
 17 23  1  0  0  0  0
 18 16  2  0  0  0  0
 21 17  1  0  0  0  0
 22 17  1  0  0  0  0
M  RAD  3  14   2  15   3  20   2
M  END
