Coordinates from ORCA-job p-NO2-Ph-N2-OTf-B3LYPG-6-31G_dp-scan-d09-49-n400
 OpenBabel08281821413D

 23 22  0  0  0  0  0  0  0  0999 V2000
   -2.3030   -0.7961   -5.6621 C   0  0  0  0  0  0  0  0  0  0  0  0
   -1.0052   -0.3825   -5.3804 C   0  0  0  0  0  0  0  0  0  0  0  0
   -0.8599    0.8533   -4.7448 C   0  0  0  0  0  0  0  0  0  0  0  0
   -1.9229    1.6988   -4.3977 C   0  0  0  0  0  0  0  0  0  0  0  0
   -3.2085    1.2725   -4.7059 C   0  0  0  0  0  0  0  0  0  0  0  0
   -3.3708    0.0341   -5.3247 C   0  0  0  0  0  0  0  0  0  0  0  0
   -2.4933   -1.7433   -6.1504 H   0  0  0  0  0  0  0  0  0  0  0  0
   -0.1226   -0.9621   -5.6487 H   0  0  0  0  0  0  0  0  0  0  0  0
   -1.7447    2.6526   -3.9153 H   0  0  0  0  0  0  0  0  0  0  0  0
   -4.0767    1.8758   -4.4743 H   0  0  0  0  0  0  0  0  0  0  0  0
   -4.7487   -0.4156   -5.6392 N   0  0  0  0  0  0  0  0  0  0  0  0
   -5.6653    0.3428   -5.3367 O   0  0  0  0  0  0  0  0  0  0  0  0
   -4.8705   -1.5129   -6.1716 O   0  0  0  0  0  0  0  0  0  0  0  0
    0.4241    1.2919   -4.3594 N   0  0  0  0  0  0  0  0  0  0  0  0
    1.2278    1.7035   -3.7019 N   0  0  0  0  0  0  0  0  0  0  0  0
    2.1074    0.1690   -6.9207 S   0  0  0  0  0  0  0  0  0  0  0  0
    3.7469    0.7734   -6.2916 C   0  0  0  0  0  0  0  0  0  0  0  0
    2.2701    0.0147   -8.3665 O   0  0  0  0  0  0  0  0  0  0  0  0
    1.1802    1.2974   -6.5200 O   0  0  0  0  0  0  0  0  0  0  0  0
    1.8562   -1.0525   -6.1156 O   0  0  0  0  0  0  0  0  0  0  0  0
    4.6946   -0.1506   -6.4658 F   0  0  0  0  0  0  0  0  0  0  0  0
    4.1124    1.8970   -6.9163 F   0  0  0  0  0  0  0  0  0  0  0  0
    3.6516    1.0399   -4.9688 F   0  0  0  0  0  0  0  0  0  0  0  0
  1  2  2  0  0  0  0
  1  6  1  0  0  0  0
  2  3  1  0  0  0  0
  3  4  2  0  0  0  0
  3 14  1  0  0  0  0
  4  9  1  0  0  0  0
  5 10  1  0  0  0  0
  5  4  1  0  0  0  0
  6  5  2  0  0  0  0
  7  1  1  0  0  0  0
  8  2  1  0  0  0  0
 11 12  2  0  0  0  0
 11  6  1  0  0  0  0
 13 11  2  0  0  0  0
 14 15  1  0  0  0  0
 16 19  2  0  0  0  0
 16 17  1  0  0  0  0
 16 20  1  0  0  0  0
 17 23  1  0  0  0  0
 18 16  2  0  0  0  0
 21 17  1  0  0  0  0
 22 17  1  0  0  0  0
M  RAD  3  14   2  15   3  20   2
M  END
