Coordinates from ORCA-job p-NO2-Ph-N2-OTf-B3LYPG-6-31G_dp-scan-d09-49-n400
 OpenBabel08281821413D

 23 22  0  0  0  0  0  0  0  0999 V2000
   -2.3169   -0.8291   -5.6432 C   0  0  0  0  0  0  0  0  0  0  0  0
   -1.0155   -0.4596   -5.3231 C   0  0  0  0  0  0  0  0  0  0  0  0
   -0.8450    0.7794   -4.6986 C   0  0  0  0  0  0  0  0  0  0  0  0
   -1.8858    1.6687   -4.3992 C   0  0  0  0  0  0  0  0  0  0  0  0
   -3.1757    1.2843   -4.7433 C   0  0  0  0  0  0  0  0  0  0  0  0
   -3.3638    0.0441   -5.3507 C   0  0  0  0  0  0  0  0  0  0  0  0
   -2.5263   -1.7745   -6.1271 H   0  0  0  0  0  0  0  0  0  0  0  0
   -0.1436   -1.0671   -5.5580 H   0  0  0  0  0  0  0  0  0  0  0  0
   -1.6879    2.6227   -3.9250 H   0  0  0  0  0  0  0  0  0  0  0  0
   -4.0282    1.9220   -4.5479 H   0  0  0  0  0  0  0  0  0  0  0  0
   -4.7463   -0.3600   -5.7032 N   0  0  0  0  0  0  0  0  0  0  0  0
   -5.6430    0.4383   -5.4473 O   0  0  0  0  0  0  0  0  0  0  0  0
   -4.8908   -1.4591   -6.2262 O   0  0  0  0  0  0  0  0  0  0  0  0
    0.4407    1.1697   -4.2787 N   0  0  0  0  0  0  0  0  0  0  0  0
    1.2753    1.5106   -3.6213 N   0  0  0  0  0  0  0  0  0  0  0  0
    2.0740    0.1861   -6.8578 S   0  0  0  0  0  0  0  0  0  0  0  0
    3.7302    0.8600   -6.3554 C   0  0  0  0  0  0  0  0  0  0  0  0
    2.1704   -0.0747   -8.2944 O   0  0  0  0  0  0  0  0  0  0  0  0
    1.1433    1.3181   -6.4865 O   0  0  0  0  0  0  0  0  0  0  0  0
    1.8902   -0.9790   -5.9536 O   0  0  0  0  0  0  0  0  0  0  0  0
    4.6885   -0.0542   -6.5256 F   0  0  0  0  0  0  0  0  0  0  0  0
    4.0373    1.9508   -7.0644 F   0  0  0  0  0  0  0  0  0  0  0  0
    3.6984    1.2035   -5.0477 F   0  0  0  0  0  0  0  0  0  0  0  0
  1  6  2  0  0  0  0
  1  2  1  0  0  0  0
  2  3  2  0  0  0  0
  3  4  1  0  0  0  0
  3 14  1  0  0  0  0
  4  9  1  0  0  0  0
  5 10  1  0  0  0  0
  5  4  2  0  0  0  0
  6  5  1  0  0  0  0
  7  1  1  0  0  0  0
  8  2  1  0  0  0  0
 11 12  2  0  0  0  0
 11  6  1  0  0  0  0
 13 11  2  0  0  0  0
 14 15  1  0  0  0  0
 16 19  2  0  0  0  0
 16 17  1  0  0  0  0
 16 20  1  0  0  0  0
 17 23  1  0  0  0  0
 18 16  2  0  0  0  0
 21 17  1  0  0  0  0
 22 17  1  0  0  0  0
M  RAD  3  14   2  15   3  20   2
M  END
