Coordinates from ORCA-job p-NO2-Ph-N2-OTf-B3LYPG-6-31G_dp-scan-d09-49-n400
 OpenBabel08281821413D

 23 23  0  0  0  0  0  0  0  0999 V2000
   -2.4861   -0.6779   -5.8231 C   0  0  0  0  0  0  0  0  0  0  0  0
   -1.2458   -0.0568   -5.7162 C   0  0  0  0  0  0  0  0  0  0  0  0
   -1.1292    1.0699   -4.8809 C   0  0  0  0  0  0  0  0  0  0  0  0
   -2.2277    1.5630   -4.1586 C   0  0  0  0  0  0  0  0  0  0  0  0
   -3.4657    0.9445   -4.2769 C   0  0  0  0  0  0  0  0  0  0  0  0
   -3.5686   -0.1677   -5.1093 C   0  0  0  0  0  0  0  0  0  0  0  0
   -2.6254   -1.5485   -6.4516 H   0  0  0  0  0  0  0  0  0  0  0  0
   -0.3894   -0.4259   -6.2608 H   0  0  0  0  0  0  0  0  0  0  0  0
   -2.0925    2.4291   -3.5208 H   0  0  0  0  0  0  0  0  0  0  0  0
   -4.3377    1.2995   -3.7431 H   0  0  0  0  0  0  0  0  0  0  0  0
   -4.8828   -0.8365   -5.2386 N   0  0  0  0  0  0  0  0  0  0  0  0
   -5.8198   -0.3598   -4.6039 O   0  0  0  0  0  0  0  0  0  0  0  0
   -4.9440   -1.8199   -5.9707 O   0  0  0  0  0  0  0  0  0  0  0  0
    0.0643    1.7924   -4.6744 N   0  0  0  0  0  0  0  0  0  0  0  0
    1.1613    1.8508   -5.1043 N   0  0  0  0  0  0  0  0  0  0  0  0
    2.7339    1.0212   -7.1804 S   0  0  0  0  0  0  0  0  0  0  0  0
    4.0269    0.2514   -6.0801 C   0  0  0  0  0  0  0  0  0  0  0  0
    2.6564    0.2017   -8.3803 O   0  0  0  0  0  0  0  0  0  0  0  0
    3.0170    2.4471   -7.2277 O   0  0  0  0  0  0  0  0  0  0  0  0
    1.4170    0.7162   -6.3193 O   0  0  0  0  0  0  0  0  0  0  0  0
    3.7748   -1.0491   -5.9223 F   0  0  0  0  0  0  0  0  0  0  0  0
    5.2222    0.4069   -6.6486 F   0  0  0  0  0  0  0  0  0  0  0  0
    4.0203    0.8496   -4.8862 F   0  0  0  0  0  0  0  0  0  0  0  0
  1  2  2  0  0  0  0
  1  6  1  0  0  0  0
  2  3  1  0  0  0  0
  3 14  1  0  0  0  0
  3  4  2  0  0  0  0
  4  9  1  0  0  0  0
  5  4  1  0  0  0  0
  5 10  1  0  0  0  0
  6  5  2  0  0  0  0
  7  1  1  0  0  0  0
  8  2  1  0  0  0  0
 11  6  1  0  0  0  0
 11 12  2  0  0  0  0
 13 11  2  0  0  0  0
 15 14  1  0  0  0  0
 16 20  1  0  0  0  0
 16 17  1  0  0  0  0
 17 21  1  0  0  0  0
 17 23  1  0  0  0  0
 18 16  2  0  0  0  0
 19 16  2  0  0  0  0
 20 15  1  0  0  0  0
 22 17  1  0  0  0  0
M  RAD  2  14   2  15   2
M  END
