Coordinates from ORCA-job p-NO2-Ph-N2-OTf-B3LYPG-6-31G_dp-scan-d09-49-n400
 OpenBabel08281821413D

 23 22  0  0  0  0  0  0  0  0999 V2000
   -2.3342   -0.7908   -5.6798 C   0  0  0  0  0  0  0  0  0  0  0  0
   -1.0564   -0.5218   -5.2079 C   0  0  0  0  0  0  0  0  0  0  0  0
   -0.8829    0.6617   -4.4724 C   0  0  0  0  0  0  0  0  0  0  0  0
   -1.9039    1.5791   -4.1973 C   0  0  0  0  0  0  0  0  0  0  0  0
   -3.1706    1.2976   -4.6923 C   0  0  0  0  0  0  0  0  0  0  0  0
   -3.3572    0.1199   -5.4153 C   0  0  0  0  0  0  0  0  0  0  0  0
   -2.5435   -1.6816   -6.2584 H   0  0  0  0  0  0  0  0  0  0  0  0
   -0.2025   -1.1640   -5.3970 H   0  0  0  0  0  0  0  0  0  0  0  0
   -1.7046    2.4795   -3.6280 H   0  0  0  0  0  0  0  0  0  0  0  0
   -4.0079    1.9632   -4.5272 H   0  0  0  0  0  0  0  0  0  0  0  0
   -4.7182   -0.1783   -5.9268 N   0  0  0  0  0  0  0  0  0  0  0  0
   -5.5947    0.6479   -5.6922 O   0  0  0  0  0  0  0  0  0  0  0  0
   -4.8661   -1.2306   -6.5374 O   0  0  0  0  0  0  0  0  0  0  0  0
    0.3871    0.9079   -3.9676 N   0  0  0  0  0  0  0  0  0  0  0  0
    1.4676    0.9062   -3.6824 N   0  0  0  0  0  0  0  0  0  0  0  0
    2.1113    0.0847   -6.6961 S   0  0  0  0  0  0  0  0  0  0  0  0
    3.6693    1.0885   -6.5799 C   0  0  0  0  0  0  0  0  0  0  0  0
    2.2270   -0.6906   -7.9337 O   0  0  0  0  0  0  0  0  0  0  0  0
    1.0335    1.1086   -6.6371 O   0  0  0  0  0  0  0  0  0  0  0  0
    2.1544   -0.7335   -5.4316 O   0  0  0  0  0  0  0  0  0  0  0  0
    4.7466    0.2986   -6.5366 F   0  0  0  0  0  0  0  0  0  0  0  0
    3.7794    1.9136   -7.6266 F   0  0  0  0  0  0  0  0  0  0  0  0
    3.6458    1.8354   -5.4548 F   0  0  0  0  0  0  0  0  0  0  0  0
  1  6  2  0  0  0  0
  1  2  1  0  0  0  0
  2  3  2  0  0  0  0
  3  4  1  0  0  0  0
  3 14  1  0  0  0  0
  4  9  1  0  0  0  0
  5 10  1  0  0  0  0
  5  4  2  0  0  0  0
  6  5  1  0  0  0  0
  7  1  1  0  0  0  0
  8  2  1  0  0  0  0
 11 12  2  0  0  0  0
 11  6  1  0  0  0  0
 13 11  2  0  0  0  0
 14 15  1  0  0  0  0
 16 19  2  0  0  0  0
 16 17  1  0  0  0  0
 16 20  1  0  0  0  0
 17 21  1  0  0  0  0
 17 23  1  0  0  0  0
 18 16  2  0  0  0  0
 22 17  1  0  0  0  0
M  RAD  3  14   2  15   3  20   2
M  END
