Coordinates from ORCA-job p-NO2-Ph-N2-OTf-B3LYPG-6-31G_dp-scan-d09-49-n400
 OpenBabel08281821413D

 23 22  0  0  0  0  0  0  0  0999 V2000
   -2.3154   -0.8351   -5.6410 C   0  0  0  0  0  0  0  0  0  0  0  0
   -1.0329   -0.5573   -5.1887 C   0  0  0  0  0  0  0  0  0  0  0  0
   -0.8462    0.6593   -4.5138 C   0  0  0  0  0  0  0  0  0  0  0  0
   -1.8568    1.6005   -4.2783 C   0  0  0  0  0  0  0  0  0  0  0  0
   -3.1283    1.3053   -4.7519 C   0  0  0  0  0  0  0  0  0  0  0  0
   -3.3300    0.0956   -5.4152 C   0  0  0  0  0  0  0  0  0  0  0  0
   -2.5349   -1.7496   -6.1772 H   0  0  0  0  0  0  0  0  0  0  0  0
   -0.1784   -1.2053   -5.3621 H   0  0  0  0  0  0  0  0  0  0  0  0
   -1.6468    2.5268   -3.7568 H   0  0  0  0  0  0  0  0  0  0  0  0
   -3.9583    1.9865   -4.6152 H   0  0  0  0  0  0  0  0  0  0  0  0
   -4.6959   -0.2142   -5.9044 N   0  0  0  0  0  0  0  0  0  0  0  0
   -5.5629    0.6320   -5.7088 O   0  0  0  0  0  0  0  0  0  0  0  0
   -4.8556   -1.2912   -6.4673 O   0  0  0  0  0  0  0  0  0  0  0  0
    0.4196    0.9212   -4.0053 N   0  0  0  0  0  0  0  0  0  0  0  0
    1.4452    1.0163   -3.5858 N   0  0  0  0  0  0  0  0  0  0  0  0
    2.0321    0.1471   -6.7219 S   0  0  0  0  0  0  0  0  0  0  0  0
    3.6446    1.0482   -6.5337 C   0  0  0  0  0  0  0  0  0  0  0  0
    2.0773   -0.4760   -8.0472 O   0  0  0  0  0  0  0  0  0  0  0  0
    1.0184    1.2299   -6.5349 O   0  0  0  0  0  0  0  0  0  0  0  0
    2.0407   -0.7883   -5.5522 O   0  0  0  0  0  0  0  0  0  0  0  0
    4.6774    0.2006   -6.5756 F   0  0  0  0  0  0  0  0  0  0  0  0
    3.7964    1.9621   -7.4985 F   0  0  0  0  0  0  0  0  0  0  0  0
    3.6702    1.6868   -5.3425 F   0  0  0  0  0  0  0  0  0  0  0  0
  1  6  2  0  0  0  0
  1  2  1  0  0  0  0
  2  3  2  0  0  0  0
  3  4  1  0  0  0  0
  3 14  1  0  0  0  0
  4  9  1  0  0  0  0
  5 10  1  0  0  0  0
  5  4  2  0  0  0  0
  6  5  1  0  0  0  0
  7  1  1  0  0  0  0
  8  2  1  0  0  0  0
 11 12  2  0  0  0  0
 11  6  1  0  0  0  0
 13 11  2  0  0  0  0
 14 15  1  0  0  0  0
 16 19  2  0  0  0  0
 16 17  1  0  0  0  0
 16 20  1  0  0  0  0
 17 23  1  0  0  0  0
 18 16  2  0  0  0  0
 21 17  1  0  0  0  0
 22 17  1  0  0  0  0
M  RAD  3  14   2  15   3  20   2
M  END
