Coordinates from ORCA-job p-NO2-Ph-N2-OTf-B3LYPG-6-31G_dp-scan-d09-49-n400
 OpenBabel08281821413D

 23 22  0  0  0  0  0  0  0  0999 V2000
   -2.2970   -0.7856   -5.6674 C   0  0  0  0  0  0  0  0  0  0  0  0
   -1.0011   -0.3570   -5.3983 C   0  0  0  0  0  0  0  0  0  0  0  0
   -0.8643    0.8780   -4.7594 C   0  0  0  0  0  0  0  0  0  0  0  0
   -1.9344    1.7085   -4.3966 C   0  0  0  0  0  0  0  0  0  0  0  0
   -3.2178    1.2675   -4.6927 C   0  0  0  0  0  0  0  0  0  0  0  0
   -3.3712    0.0298   -5.3153 C   0  0  0  0  0  0  0  0  0  0  0  0
   -2.4807   -1.7334   -6.1571 H   0  0  0  0  0  0  0  0  0  0  0  0
   -0.1154   -0.9272   -5.6781 H   0  0  0  0  0  0  0  0  0  0  0  0
   -1.7629    2.6622   -3.9117 H   0  0  0  0  0  0  0  0  0  0  0  0
   -4.0908    1.8590   -4.4491 H   0  0  0  0  0  0  0  0  0  0  0  0
   -4.7468   -0.4355   -5.6171 N   0  0  0  0  0  0  0  0  0  0  0  0
   -5.6693    0.3105   -5.3021 O   0  0  0  0  0  0  0  0  0  0  0  0
   -4.8607   -1.5309   -6.1551 O   0  0  0  0  0  0  0  0  0  0  0  0
    0.4179    1.3335   -4.3857 N   0  0  0  0  0  0  0  0  0  0  0  0
    1.2130    1.7699   -3.7329 N   0  0  0  0  0  0  0  0  0  0  0  0
    2.1163    0.1675   -6.9429 S   0  0  0  0  0  0  0  0  0  0  0  0
    3.7490    0.7422   -6.2698 C   0  0  0  0  0  0  0  0  0  0  0  0
    2.3042    0.0477   -8.3889 O   0  0  0  0  0  0  0  0  0  0  0  0
    1.1918    1.2956   -6.5333 O   0  0  0  0  0  0  0  0  0  0  0  0
    1.8402   -1.0709   -6.1732 O   0  0  0  0  0  0  0  0  0  0  0  0
    4.6899   -0.1892   -6.4409 F   0  0  0  0  0  0  0  0  0  0  0  0
    4.1398    1.8725   -6.8662 F   0  0  0  0  0  0  0  0  0  0  0  0
    3.6293    0.9864   -4.9444 F   0  0  0  0  0  0  0  0  0  0  0  0
  1  2  2  0  0  0  0
  1  6  1  0  0  0  0
  2  3  1  0  0  0  0
  3  4  2  0  0  0  0
  3 14  1  0  0  0  0
  4  9  1  0  0  0  0
  5 10  1  0  0  0  0
  5  4  1  0  0  0  0
  6  5  2  0  0  0  0
  7  1  1  0  0  0  0
  8  2  1  0  0  0  0
 11  6  1  0  0  0  0
 11 12  2  0  0  0  0
 13 11  2  0  0  0  0
 14 15  1  0  0  0  0
 16 19  2  0  0  0  0
 16 17  1  0  0  0  0
 16 20  1  0  0  0  0
 17 23  1  0  0  0  0
 18 16  2  0  0  0  0
 21 17  1  0  0  0  0
 22 17  1  0  0  0  0
M  RAD  3  14   2  15   3  20   2
M  END
