Coordinates from ORCA-job p-NO2-Ph-N2-OTf-B3LYPG-6-31G_dp-scan-d09-49-n400
 OpenBabel08281821413D

 23 22  0  0  0  0  0  0  0  0999 V2000
   -2.2335   -0.7055   -5.7096 C   0  0  0  0  0  0  0  0  0  0  0  0
   -0.9624   -0.1562   -5.5543 C   0  0  0  0  0  0  0  0  0  0  0  0
   -0.8836    1.0736   -4.8980 C   0  0  0  0  0  0  0  0  0  0  0  0
   -1.9924    1.7828   -4.4048 C   0  0  0  0  0  0  0  0  0  0  0  0
   -3.2488    1.2241   -4.5887 C   0  0  0  0  0  0  0  0  0  0  0  0
   -3.3413   -0.0100   -5.2330 C   0  0  0  0  0  0  0  0  0  0  0  0
   -2.3690   -1.6577   -6.2063 H   0  0  0  0  0  0  0  0  0  0  0  0
   -0.0685   -0.6505   -5.9398 H   0  0  0  0  0  0  0  0  0  0  0  0
   -1.8676    2.7378   -3.9080 H   0  0  0  0  0  0  0  0  0  0  0  0
   -4.1468    1.7204   -4.2445 H   0  0  0  0  0  0  0  0  0  0  0  0
   -4.6895   -0.6023   -5.4179 N   0  0  0  0  0  0  0  0  0  0  0  0
   -5.6434    0.0415   -4.9907 O   0  0  0  0  0  0  0  0  0  0  0  0
   -4.7499   -1.6892   -5.9805 O   0  0  0  0  0  0  0  0  0  0  0  0
    0.3697    1.6680   -4.6333 N   0  0  0  0  0  0  0  0  0  0  0  0
    1.1097    2.2906   -4.0721 N   0  0  0  0  0  0  0  0  0  0  0  0
    2.1845    0.1990   -7.1334 S   0  0  0  0  0  0  0  0  0  0  0  0
    3.6754    0.4697   -6.0581 C   0  0  0  0  0  0  0  0  0  0  0  0
    2.6614    0.3344   -8.5091 O   0  0  0  0  0  0  0  0  0  0  0  0
    1.2806    1.3313   -6.6878 O   0  0  0  0  0  0  0  0  0  0  0  0
    1.6760   -1.1253   -6.7029 O   0  0  0  0  0  0  0  0  0  0  0  0
    4.5468   -0.5332   -6.1795 F   0  0  0  0  0  0  0  0  0  0  0  0
    4.2860    1.6186   -6.3649 F   0  0  0  0  0  0  0  0  0  0  0  0
    3.2858    0.5393   -4.7609 F   0  0  0  0  0  0  0  0  0  0  0  0
  1  2  2  0  0  0  0
  1  6  1  0  0  0  0
  2  3  1  0  0  0  0
  3 14  1  0  0  0  0
  3  4  2  0  0  0  0
  4  9  1  0  0  0  0
  5  4  1  0  0  0  0
  5 10  1  0  0  0  0
  6  5  2  0  0  0  0
  7  1  1  0  0  0  0
  8  2  1  0  0  0  0
 11  6  1  0  0  0  0
 11 12  2  0  0  0  0
 13 11  2  0  0  0  0
 14 15  1  0  0  0  0
 16 20  2  0  0  0  0
 16 19  1  0  0  0  0
 16 17  1  0  0  0  0
 17 23  1  0  0  0  0
 18 16  2  0  0  0  0
 21 17  1  0  0  0  0
 22 17  1  0  0  0  0
M  RAD  3  14   2  15   3  19   2
M  END
