Coordinates from ORCA-job p-NO2-Ph-N2-OTf-B3LYPG-6-31G_dp-scan-d09-49-n400
 OpenBabel08281821413D

 23 22  0  0  0  0  0  0  0  0999 V2000
   -2.2521   -0.7258   -5.6969 C   0  0  0  0  0  0  0  0  0  0  0  0
   -0.9731   -0.2063   -5.5118 C   0  0  0  0  0  0  0  0  0  0  0  0
   -0.8813    1.0253   -4.8604 C   0  0  0  0  0  0  0  0  0  0  0  0
   -1.9836    1.7658   -4.4020 C   0  0  0  0  0  0  0  0  0  0  0  0
   -3.2484    1.2366   -4.6161 C   0  0  0  0  0  0  0  0  0  0  0  0
   -3.3546    0.0006   -5.2540 C   0  0  0  0  0  0  0  0  0  0  0  0
   -2.3988   -1.6777   -6.1911 H   0  0  0  0  0  0  0  0  0  0  0  0
   -0.0783   -0.7193   -5.8691 H   0  0  0  0  0  0  0  0  0  0  0  0
   -1.8481    2.7210   -3.9085 H   0  0  0  0  0  0  0  0  0  0  0  0
   -4.1427    1.7573   -4.2994 H   0  0  0  0  0  0  0  0  0  0  0  0
   -4.7115   -0.5599   -5.4702 N   0  0  0  0  0  0  0  0  0  0  0  0
   -5.6604    0.1111   -5.0750 O   0  0  0  0  0  0  0  0  0  0  0  0
   -4.7837   -1.6506   -6.0242 O   0  0  0  0  0  0  0  0  0  0  0  0
    0.3819    1.5837   -4.5660 N   0  0  0  0  0  0  0  0  0  0  0  0
    1.1354    2.1623   -3.9764 N   0  0  0  0  0  0  0  0  0  0  0  0
    2.1671    0.1854   -7.0869 S   0  0  0  0  0  0  0  0  0  0  0  0
    3.7098    0.5403   -6.1140 C   0  0  0  0  0  0  0  0  0  0  0  0
    2.5616    0.2665   -8.4929 O   0  0  0  0  0  0  0  0  0  0  0  0
    1.2581    1.3142   -6.6430 O   0  0  0  0  0  0  0  0  0  0  0  0
    1.7176   -1.1282   -6.5671 O   0  0  0  0  0  0  0  0  0  0  0  0
    4.6032   -0.4405   -6.2551 F   0  0  0  0  0  0  0  0  0  0  0  0
    4.2629    1.6945   -6.4989 F   0  0  0  0  0  0  0  0  0  0  0  0
    3.3982    0.6451   -4.7991 F   0  0  0  0  0  0  0  0  0  0  0  0
  1  2  2  0  0  0  0
  1  6  1  0  0  0  0
  2  3  1  0  0  0  0
  3 14  1  0  0  0  0
  3  4  2  0  0  0  0
  4  9  1  0  0  0  0
  5  4  1  0  0  0  0
  5 10  1  0  0  0  0
  6  5  2  0  0  0  0
  7  1  1  0  0  0  0
  8  2  1  0  0  0  0
 11  6  1  0  0  0  0
 11 12  2  0  0  0  0
 13 11  2  0  0  0  0
 14 15  1  0  0  0  0
 16 19  2  0  0  0  0
 16 20  1  0  0  0  0
 16 17  1  0  0  0  0
 17 23  1  0  0  0  0
 18 16  2  0  0  0  0
 21 17  1  0  0  0  0
 22 17  1  0  0  0  0
M  RAD  3  14   2  15   3  20   2
M  END
