Coordinates from ORCA-job p-NO2-Ph-N2-OTf-B3LYPG-6-31G_dp-scan-d09-49-n400
 OpenBabel08281821413D

 23 23  0  0  1  0  0  0  0  0999 V2000
   -1.2269   -0.5614   -5.3545 C   0  0  0  0  0  0  0  0  0  0  0  0
   -0.2224    0.4912   -4.9811 C   0  0  2  0  0  0  0  0  0  0  0  0
   -0.8702    1.7803   -4.4658 C   0  0  0  0  0  0  0  0  0  0  0  0
   -2.2341    2.0898   -4.8354 C   0  0  0  0  0  0  0  0  0  0  0  0
   -3.0271    1.1227   -5.3492 C   0  0  0  0  0  0  0  0  0  0  0  0
   -2.5096   -0.2218   -5.5473 C   0  0  0  0  0  0  0  0  0  0  0  0
   -0.8747   -1.5658   -5.5513 H   0  0  0  0  0  0  0  0  0  0  0  0
    0.4820    0.1120   -4.2310 H   0  0  0  0  0  0  0  0  0  0  0  0
   -2.6042    3.0897   -4.6405 H   0  0  0  0  0  0  0  0  0  0  0  0
   -4.0617    1.3083   -5.6076 H   0  0  0  0  0  0  0  0  0  0  0  0
   -3.4615   -1.2612   -5.9996 N   0  0  0  0  0  0  0  0  0  0  0  0
   -4.6187   -0.9010   -6.2046 O   0  0  0  0  0  0  0  0  0  0  0  0
   -3.0368   -2.4037   -6.1362 O   0  0  0  0  0  0  0  0  0  0  0  0
   -0.2057    2.5860   -3.7096 N   0  0  0  0  0  0  0  0  0  0  0  0
    0.9375    2.5740   -3.1720 N   0  0  0  0  0  0  0  0  0  0  0  0
    2.1810    0.8496   -6.1751 S   0  0  2  0  0  0  0  0  0  0  0  0
    2.2600   -0.8360   -7.0293 C   0  0  0  0  0  0  0  0  0  0  0  0
    0.4599    0.8000   -6.2190 O   0  0  0  0  0  0  0  0  0  0  0  0
    2.5968    1.8116   -7.2097 O   0  0  0  0  0  0  0  0  0  0  0  0
    2.0369    2.7942   -4.1555 O   0  0  0  0  0  0  0  0  0  0  0  0
    1.6715   -1.7425   -6.2181 F   0  0  0  0  0  0  0  0  0  0  0  0
    1.6609   -0.8458   -8.2126 F   0  0  0  0  0  0  0  0  0  0  0  0
    3.5465   -1.1691   -7.1732 F   0  0  0  0  0  0  0  0  0  0  0  0
  1  2  1  0  0  0  0
  2  3  1  0  0  0  0
  2  8  1  1  0  0  0
  3 14  2  0  0  0  0
  4  9  1  0  0  0  0
  4  3  1  0  0  0  0
  5  4  2  0  0  0  0
  6  1  2  0  0  0  0
  6  5  1  0  0  0  0
  7  1  1  0  0  0  0
 10  5  1  0  0  0  0
 11  6  1  0  0  0  0
 12 11  2  0  0  0  0
 13 11  2  0  0  0  0
 14 15  1  0  0  0  0
 16 19  1  6  0  0  0
 17 21  1  0  0  0  0
 17 16  1  0  0  0  0
 18 16  1  0  0  0  0
 18  2  1  0  0  0  0
 20 15  1  0  0  0  0
 22 17  1  0  0  0  0
 23 17  1  0  0  0  0
M  RAD  3  15   2  19   2  20   2
M  END
