Coordinates from ORCA-job p-NO2-Ph-N2-OTf-B3LYPG-6-31G_dp-scan-d09-49-n400
 OpenBabel08281821413D

 23 22  0  0  0  0  0  0  0  0999 V2000
   -2.3356   -0.7860   -5.6834 C   0  0  0  0  0  0  0  0  0  0  0  0
   -1.0594   -0.5162   -5.2074 C   0  0  0  0  0  0  0  0  0  0  0  0
   -0.8898    0.6630   -4.4642 C   0  0  0  0  0  0  0  0  0  0  0  0
   -1.9143    1.5753   -4.1858 C   0  0  0  0  0  0  0  0  0  0  0  0
   -3.1795    1.2937   -4.6847 C   0  0  0  0  0  0  0  0  0  0  0  0
   -3.3615    0.1201   -5.4154 C   0  0  0  0  0  0  0  0  0  0  0  0
   -2.5414   -1.6742   -6.2674 H   0  0  0  0  0  0  0  0  0  0  0  0
   -0.2047   -1.1567   -5.3980 H   0  0  0  0  0  0  0  0  0  0  0  0
   -1.7183    2.4724   -3.6103 H   0  0  0  0  0  0  0  0  0  0  0  0
   -4.0189    1.9560   -4.5170 H   0  0  0  0  0  0  0  0  0  0  0  0
   -4.7207   -0.1787   -5.9314 N   0  0  0  0  0  0  0  0  0  0  0  0
   -5.5998    0.6440   -5.6944 O   0  0  0  0  0  0  0  0  0  0  0  0
   -4.8641   -1.2266   -6.5507 O   0  0  0  0  0  0  0  0  0  0  0  0
    0.3796    0.9114   -3.9569 N   0  0  0  0  0  0  0  0  0  0  0  0
    1.4672    0.8859   -3.6950 N   0  0  0  0  0  0  0  0  0  0  0  0
    2.1171    0.0920   -6.6900 S   0  0  0  0  0  0  0  0  0  0  0  0
    3.6814    1.0876   -6.5912 C   0  0  0  0  0  0  0  0  0  0  0  0
    2.2276   -0.7082   -7.9120 O   0  0  0  0  0  0  0  0  0  0  0  0
    1.0438    1.1190   -6.6438 O   0  0  0  0  0  0  0  0  0  0  0  0
    2.1598   -0.7097   -5.4116 O   0  0  0  0  0  0  0  0  0  0  0  0
    4.7536    0.2911   -6.5433 F   0  0  0  0  0  0  0  0  0  0  0  0
    3.7914    1.8988   -7.6487 F   0  0  0  0  0  0  0  0  0  0  0  0
    3.6661    1.8472   -5.4755 F   0  0  0  0  0  0  0  0  0  0  0  0
  1  6  2  0  0  0  0
  1  2  1  0  0  0  0
  2  3  2  0  0  0  0
  3  4  1  0  0  0  0
  3 14  1  0  0  0  0
  4  9  1  0  0  0  0
  5 10  1  0  0  0  0
  5  4  2  0  0  0  0
  6  5  1  0  0  0  0
  7  1  1  0  0  0  0
  8  2  1  0  0  0  0
 11 12  2  0  0  0  0
 11  6  1  0  0  0  0
 13 11  2  0  0  0  0
 14 15  1  0  0  0  0
 16 19  2  0  0  0  0
 16 17  1  0  0  0  0
 16 20  1  0  0  0  0
 17 21  1  0  0  0  0
 17 23  1  0  0  0  0
 18 16  2  0  0  0  0
 22 17  1  0  0  0  0
M  RAD  3  14   2  15   3  20   2
M  END
