Coordinates from ORCA-job p-NO2-Ph-N2-OTf-B3LYPG-6-31G_dp-scan-d09-49-n400
 OpenBabel08281821413D

 23 22  0  0  0  0  0  0  0  0999 V2000
   -2.3371   -0.7909   -5.6809 C   0  0  0  0  0  0  0  0  0  0  0  0
   -1.0587   -0.5221   -5.2106 C   0  0  0  0  0  0  0  0  0  0  0  0
   -0.8838    0.6605   -4.4741 C   0  0  0  0  0  0  0  0  0  0  0  0
   -1.9048    1.5774   -4.1968 C   0  0  0  0  0  0  0  0  0  0  0  0
   -3.1722    1.2964   -4.6902 C   0  0  0  0  0  0  0  0  0  0  0  0
   -3.3598    0.1195   -5.4142 C   0  0  0  0  0  0  0  0  0  0  0  0
   -2.5473   -1.6813   -6.2598 H   0  0  0  0  0  0  0  0  0  0  0  0
   -0.2053   -1.1646   -5.4009 H   0  0  0  0  0  0  0  0  0  0  0  0
   -1.7047    2.4771   -3.6267 H   0  0  0  0  0  0  0  0  0  0  0  0
   -4.0092    1.9619   -4.5233 H   0  0  0  0  0  0  0  0  0  0  0  0
   -4.7214   -0.1782   -5.9242 N   0  0  0  0  0  0  0  0  0  0  0  0
   -5.5973    0.6486   -5.6892 O   0  0  0  0  0  0  0  0  0  0  0  0
   -4.8698   -1.2289   -6.5374 O   0  0  0  0  0  0  0  0  0  0  0  0
    0.3868    0.9073   -3.9711 N   0  0  0  0  0  0  0  0  0  0  0  0
    1.4688    0.9028   -3.6907 N   0  0  0  0  0  0  0  0  0  0  0  0
    2.1145    0.0868   -6.6946 S   0  0  0  0  0  0  0  0  0  0  0  0
    3.6730    1.0899   -6.5797 C   0  0  0  0  0  0  0  0  0  0  0  0
    2.2346   -0.6970   -7.9263 O   0  0  0  0  0  0  0  0  0  0  0  0
    1.0353    1.1092   -6.6441 O   0  0  0  0  0  0  0  0  0  0  0  0
    2.1546   -0.7237   -5.4240 O   0  0  0  0  0  0  0  0  0  0  0  0
    4.7492    0.2987   -6.5360 F   0  0  0  0  0  0  0  0  0  0  0  0
    3.7835    1.9136   -7.6276 F   0  0  0  0  0  0  0  0  0  0  0  0
    3.6503    1.8381   -5.4557 F   0  0  0  0  0  0  0  0  0  0  0  0
  1  6  2  0  0  0  0
  1  2  1  0  0  0  0
  2  3  2  0  0  0  0
  3  4  1  0  0  0  0
  3 14  1  0  0  0  0
  4  9  1  0  0  0  0
  5 10  1  0  0  0  0
  5  4  2  0  0  0  0
  6  5  1  0  0  0  0
  7  1  1  0  0  0  0
  8  2  1  0  0  0  0
 11 12  2  0  0  0  0
 11  6  1  0  0  0  0
 13 11  2  0  0  0  0
 14 15  1  0  0  0  0
 16 19  2  0  0  0  0
 16 17  1  0  0  0  0
 16 20  1  0  0  0  0
 17 21  1  0  0  0  0
 17 23  1  0  0  0  0
 18 16  2  0  0  0  0
 22 17  1  0  0  0  0
M  RAD  3  14   2  15   3  20   2
M  END
