Coordinates from ORCA-job p-NO2-Ph-N2-OTf-B3LYPG-6-31G_dp-scan-d09-49-n400
 OpenBabel08281821413D

 23 22  0  0  0  0  0  0  0  0999 V2000
   -2.3127   -0.8176   -5.6499 C   0  0  0  0  0  0  0  0  0  0  0  0
   -1.0123   -0.4331   -5.3430 C   0  0  0  0  0  0  0  0  0  0  0  0
   -0.8506    0.8050   -4.7147 C   0  0  0  0  0  0  0  0  0  0  0  0
   -1.8993    1.6796   -4.3992 C   0  0  0  0  0  0  0  0  0  0  0  0
   -3.1880    1.2809   -4.7312 C   0  0  0  0  0  0  0  0  0  0  0  0
   -3.3672    0.0411   -5.3422 C   0  0  0  0  0  0  0  0  0  0  0  0
   -2.5157   -1.7638   -6.1350 H   0  0  0  0  0  0  0  0  0  0  0  0
   -0.1364   -1.0312   -5.5889 H   0  0  0  0  0  0  0  0  0  0  0  0
   -1.7082    2.6337   -3.9225 H   0  0  0  0  0  0  0  0  0  0  0  0
   -4.0461    1.9070   -4.5237 H   0  0  0  0  0  0  0  0  0  0  0  0
   -4.7483   -0.3785   -5.6817 N   0  0  0  0  0  0  0  0  0  0  0  0
   -5.6524    0.4057   -5.4087 O   0  0  0  0  0  0  0  0  0  0  0  0
   -4.8853   -1.4781   -6.2059 O   0  0  0  0  0  0  0  0  0  0  0  0
    0.4351    1.2121   -4.3066 N   0  0  0  0  0  0  0  0  0  0  0  0
    1.2578    1.5773   -3.6460 N   0  0  0  0  0  0  0  0  0  0  0  0
    2.0867    0.1781   -6.8788 S   0  0  0  0  0  0  0  0  0  0  0  0
    3.7380    0.8309   -6.3341 C   0  0  0  0  0  0  0  0  0  0  0  0
    2.2039   -0.0449   -8.3201 O   0  0  0  0  0  0  0  0  0  0  0  0
    1.1564    1.3084   -6.4962 O   0  0  0  0  0  0  0  0  0  0  0  0
    1.8812   -1.0076   -6.0080 O   0  0  0  0  0  0  0  0  0  0  0  0
    4.6943   -0.0840   -6.5109 F   0  0  0  0  0  0  0  0  0  0  0  0
    4.0614    1.9366   -7.0119 F   0  0  0  0  0  0  0  0  0  0  0  0
    3.6872    1.1435   -5.0192 F   0  0  0  0  0  0  0  0  0  0  0  0
  1  2  2  0  0  0  0
  1  6  1  0  0  0  0
  2  3  1  0  0  0  0
  3  4  2  0  0  0  0
  3 14  1  0  0  0  0
  4  9  1  0  0  0  0
  5 10  1  0  0  0  0
  5  4  1  0  0  0  0
  6  5  2  0  0  0  0
  7  1  1  0  0  0  0
  8  2  1  0  0  0  0
 11 12  2  0  0  0  0
 11  6  1  0  0  0  0
 13 11  2  0  0  0  0
 14 15  1  0  0  0  0
 16 19  2  0  0  0  0
 16 17  1  0  0  0  0
 16 20  1  0  0  0  0
 17 23  1  0  0  0  0
 18 16  2  0  0  0  0
 21 17  1  0  0  0  0
 22 17  1  0  0  0  0
M  RAD  3  14   2  15   3  20   2
M  END
