Coordinates from ORCA-job p-NO2-Ph-N2-OTf-B3LYPG-6-31G_dp-scan-d09-49-n400
 OpenBabel08281821413D

 23 23  0  0  1  0  0  0  0  0999 V2000
   -1.2254   -0.5654   -5.3412 C   0  0  0  0  0  0  0  0  0  0  0  0
   -0.2206    0.4882   -4.9710 C   0  0  2  0  0  0  0  0  0  0  0  0
   -0.8702    1.7782   -4.4609 C   0  0  0  0  0  0  0  0  0  0  0  0
   -2.2280    2.0918   -4.8435 C   0  0  0  0  0  0  0  0  0  0  0  0
   -3.0194    1.1244   -5.3610 C   0  0  0  0  0  0  0  0  0  0  0  0
   -2.5056   -0.2229   -5.5465 C   0  0  0  0  0  0  0  0  0  0  0  0
   -0.8749   -1.5724   -5.5279 H   0  0  0  0  0  0  0  0  0  0  0  0
    0.4858    0.1124   -4.2216 H   0  0  0  0  0  0  0  0  0  0  0  0
   -2.5975    3.0932   -4.6551 H   0  0  0  0  0  0  0  0  0  0  0  0
   -4.0510    1.3124   -5.6294 H   0  0  0  0  0  0  0  0  0  0  0  0
   -3.4578   -1.2619   -5.9988 N   0  0  0  0  0  0  0  0  0  0  0  0
   -4.6119   -0.8985   -6.2160 O   0  0  0  0  0  0  0  0  0  0  0  0
   -3.0365   -2.4069   -6.1233 O   0  0  0  0  0  0  0  0  0  0  0  0
   -0.2101    2.5785   -3.6927 N   0  0  0  0  0  0  0  0  0  0  0  0
    0.9258    2.5880   -3.1550 N   0  0  0  0  0  0  0  0  0  0  0  0
    2.1788    0.8525   -6.1741 S   0  0  2  0  0  0  0  0  0  0  0  0
    2.2540   -0.8301   -7.0358 C   0  0  0  0  0  0  0  0  0  0  0  0
    0.4568    0.7957   -6.2115 O   0  0  0  0  0  0  0  0  0  0  0  0
    2.5859    1.8180   -7.2088 O   0  0  0  0  0  0  0  0  0  0  0  0
    2.0409    2.7649   -4.1750 O   0  0  0  0  0  0  0  0  0  0  0  0
    1.6691   -1.7402   -6.2259 F   0  0  0  0  0  0  0  0  0  0  0  0
    1.6510   -0.8365   -8.2173 F   0  0  0  0  0  0  0  0  0  0  0  0
    3.5402   -1.1623   -7.1857 F   0  0  0  0  0  0  0  0  0  0  0  0
  1  2  1  0  0  0  0
  2  3  1  0  0  0  0
  2  8  1  1  0  0  0
  3 14  2  0  0  0  0
  4  9  1  0  0  0  0
  4  3  1  0  0  0  0
  5  4  2  0  0  0  0
  6  5  1  0  0  0  0
  6  1  2  0  0  0  0
  7  1  1  0  0  0  0
 10  5  1  0  0  0  0
 11  6  1  0  0  0  0
 12 11  2  0  0  0  0
 13 11  2  0  0  0  0
 14 15  1  0  0  0  0
 16 19  1  6  0  0  0
 17 21  1  0  0  0  0
 17 16  1  0  0  0  0
 18 16  1  0  0  0  0
 18  2  1  0  0  0  0
 20 15  1  0  0  0  0
 22 17  1  0  0  0  0
 23 17  1  0  0  0  0
M  RAD  3  15   2  19   2  20   2
M  END
