Coordinates from ORCA-job p-NO2-Ph-N2-OTf-B3LYPG-6-31G_dp-scan-d09-49-n400
 OpenBabel08281821413D

 23 22  0  0  1  0  0  0  0  0999 V2000
   -1.2393   -0.5052   -5.3011 C   0  0  0  0  0  0  0  0  0  0  0  0
   -0.3197    0.5969   -4.8676 C   0  0  2  0  0  0  0  0  0  0  0  0
   -0.9756    2.0032   -4.7024 C   0  0  0  0  0  0  0  0  0  0  0  0
   -2.4439    2.0569   -4.8543 C   0  0  0  0  0  0  0  0  0  0  0  0
   -3.1996    0.9917   -5.1856 C   0  0  0  0  0  0  0  0  0  0  0  0
   -2.5582   -0.2929   -5.4131 C   0  0  0  0  0  0  0  0  0  0  0  0
   -0.8239   -1.4805   -5.5279 H   0  0  0  0  0  0  0  0  0  0  0  0
    0.1391    0.3186   -3.9074 H   0  0  0  0  0  0  0  0  0  0  0  0
   -2.8841    3.0384   -4.7127 H   0  0  0  0  0  0  0  0  0  0  0  0
   -4.2724    1.0550   -5.3145 H   0  0  0  0  0  0  0  0  0  0  0  0
   -3.4162   -1.4287   -5.8216 N   0  0  0  0  0  0  0  0  0  0  0  0
   -4.6165   -1.1996   -5.9587 O   0  0  0  0  0  0  0  0  0  0  0  0
   -2.8845   -2.5232   -5.9954 O   0  0  0  0  0  0  0  0  0  0  0  0
   -0.3159    3.0606   -4.4618 N   0  0  0  0  0  0  0  0  0  0  0  0
    1.5749    2.7456   -4.1477 N   0  0  0  0  0  0  0  0  0  0  0  0
    2.1414   -0.1547   -5.5670 S   0  0  2  0  0  0  0  0  0  0  0  0
    2.2016   -0.7181   -7.3646 C   0  0  0  0  0  0  0  0  0  0  0  0
    0.7493    0.7359   -5.8620 O   0  0  0  0  0  0  0  0  0  0  0  0
    3.2799    0.7859   -5.4049 O   0  0  0  0  0  0  0  0  0  0  0  0
    2.0771    3.4421   -4.4780 O   0  0  0  0  0  0  0  0  0  0  0  0
    1.1482   -1.5109   -7.5926 F   0  0  0  0  0  0  0  0  0  0  0  0
    2.1919    0.3074   -8.2081 F   0  0  0  0  0  0  0  0  0  0  0  0
    3.3256   -1.4234   -7.5291 F   0  0  0  0  0  0  0  0  0  0  0  0
  1  2  1  0  0  0  0
  2  3  1  0  0  0  0
  2  8  1  1  0  0  0
  3 14  2  0  0  0  0
  4  9  1  0  0  0  0
  4  3  1  0  0  0  0
  5  4  2  0  0  0  0
  6  1  2  0  0  0  0
  6  5  1  0  0  0  0
  7  1  1  0  0  0  0
 10  5  1  0  0  0  0
 11  6  1  0  0  0  0
 12 11  2  0  0  0  0
 13 11  2  0  0  0  0
 16 17  1  6  0  0  0
 16 19  1  0  0  0  0
 18 16  1  0  0  0  0
 18  2  1  0  0  0  0
 20 15  2  0  0  0  0
 21 17  1  0  0  0  0
 22 17  1  0  0  0  0
 23 17  1  0  0  0  0
M  RAD  3  14   2  15   2  19   2
M  END
