Coordinates from ORCA-job p-NO2-Ph-N2-OTf-B3LYPG-6-31G_dp-scan-d09-49-n400
 OpenBabel08281821413D

 23 23  0  0  1  0  0  0  0  0999 V2000
   -1.2157   -0.4841   -5.3509 C   0  0  0  0  0  0  0  0  0  0  0  0
   -0.2875    0.6131   -4.9219 C   0  0  2  0  0  0  0  0  0  0  0  0
   -0.9553    1.9945   -4.6795 C   0  0  0  0  0  0  0  0  0  0  0  0
   -2.4168    2.0665   -4.8333 C   0  0  0  0  0  0  0  0  0  0  0  0
   -3.1716    1.0084   -5.1895 C   0  0  0  0  0  0  0  0  0  0  0  0
   -2.5357   -0.2734   -5.4448 C   0  0  0  0  0  0  0  0  0  0  0  0
   -0.7959   -1.4514   -5.6004 H   0  0  0  0  0  0  0  0  0  0  0  0
    0.2079    0.3090   -3.9883 H   0  0  0  0  0  0  0  0  0  0  0  0
   -2.8567    3.0430   -4.6619 H   0  0  0  0  0  0  0  0  0  0  0  0
   -4.2450    1.0769   -5.3125 H   0  0  0  0  0  0  0  0  0  0  0  0
   -3.4002   -1.4008   -5.8603 N   0  0  0  0  0  0  0  0  0  0  0  0
   -4.6010   -1.1658   -5.9818 O   0  0  0  0  0  0  0  0  0  0  0  0
   -2.8716   -2.4927   -6.0538 O   0  0  0  0  0  0  0  0  0  0  0  0
   -0.3096    3.0491   -4.3674 N   0  0  0  0  0  0  0  0  0  0  0  0
    1.4143    2.6770   -4.0324 N   0  0  0  0  0  0  0  0  0  0  0  0
    2.2109    0.0319   -5.6415 S   0  0  2  0  0  0  0  0  0  0  0  0
    2.1768   -0.8287   -7.3190 C   0  0  0  0  0  0  0  0  0  0  0  0
    0.7295    0.7809   -5.9535 O   0  0  0  0  0  0  0  0  0  0  0  0
    3.2903    1.0418   -5.7404 O   0  0  0  0  0  0  0  0  0  0  0  0
    1.9863    3.4770   -4.1475 O   0  0  0  0  0  0  0  0  0  0  0  0
    1.1575   -1.7005   -7.3248 F   0  0  0  0  0  0  0  0  0  0  0  0
    2.0435    0.0305   -8.3210 F   0  0  0  0  0  0  0  0  0  0  0  0
    3.3247   -1.5010   -7.4518 F   0  0  0  0  0  0  0  0  0  0  0  0
  1  2  1  0  0  0  0
  2  3  1  0  0  0  0
  2  8  1  1  0  0  0
  3 14  1  0  0  0  0
  4  3  2  0  0  0  0
  4  9  1  0  0  0  0
  5  4  1  0  0  0  0
  6  1  2  0  0  0  0
  6  5  1  0  0  0  0
  7  1  1  0  0  0  0
 10  5  1  0  0  0  0
 11  6  1  0  0  0  0
 12 11  2  0  0  0  0
 13 11  2  0  0  0  0
 14 15  1  0  0  0  0
 16 17  1  6  0  0  0
 18 16  1  0  0  0  0
 18  2  1  0  0  0  0
 19 16  1  0  0  0  0
 20 15  1  0  0  0  0
 21 17  1  0  0  0  0
 22 17  1  0  0  0  0
 23 17  1  0  0  0  0
M  RAD  5   5   2  14   2  15   2  19   2  20   2
M  END
