Coordinates from ORCA-job p-NO2-Ph-N2-OTf-B3LYPG-6-31G_dp-scan-d09-49-n400
 OpenBabel08281821413D

 23 22  0  0  0  0  0  0  0  0999 V2000
   -2.3206   -0.8389   -5.6388 C   0  0  0  0  0  0  0  0  0  0  0  0
   -1.0189   -0.4835   -5.3058 C   0  0  0  0  0  0  0  0  0  0  0  0
   -0.8405    0.7561   -4.6836 C   0  0  0  0  0  0  0  0  0  0  0  0
   -1.8739    1.6583   -4.3979 C   0  0  0  0  0  0  0  0  0  0  0  0
   -3.1644    1.2870   -4.7538 C   0  0  0  0  0  0  0  0  0  0  0  0
   -3.3605    0.0471   -5.3594 C   0  0  0  0  0  0  0  0  0  0  0  0
   -2.5359   -1.7831   -6.1227 H   0  0  0  0  0  0  0  0  0  0  0  0
   -0.1502   -1.0987   -5.5305 H   0  0  0  0  0  0  0  0  0  0  0  0
   -1.6700    2.6117   -3.9252 H   0  0  0  0  0  0  0  0  0  0  0  0
   -4.0117    1.9346   -4.5689 H   0  0  0  0  0  0  0  0  0  0  0  0
   -4.7437   -0.3426   -5.7245 N   0  0  0  0  0  0  0  0  0  0  0  0
   -5.6341    0.4661   -5.4793 O   0  0  0  0  0  0  0  0  0  0  0  0
   -4.8954   -1.4422   -6.2446 O   0  0  0  0  0  0  0  0  0  0  0  0
    0.4447    1.1301   -4.2521 N   0  0  0  0  0  0  0  0  0  0  0  0
    1.2919    1.4477   -3.6001 N   0  0  0  0  0  0  0  0  0  0  0  0
    2.0623    0.1954   -6.8381 S   0  0  0  0  0  0  0  0  0  0  0  0
    3.7231    0.8860   -6.3753 C   0  0  0  0  0  0  0  0  0  0  0  0
    2.1409   -0.1042   -8.2683 O   0  0  0  0  0  0  0  0  0  0  0  0
    1.1323    1.3305   -6.4803 O   0  0  0  0  0  0  0  0  0  0  0  0
    1.8959   -0.9478   -5.9013 O   0  0  0  0  0  0  0  0  0  0  0  0
    4.6818   -0.0301   -6.5349 F   0  0  0  0  0  0  0  0  0  0  0  0
    4.0180    1.9587   -7.1162 F   0  0  0  0  0  0  0  0  0  0  0  0
    3.7079    1.2629   -5.0767 F   0  0  0  0  0  0  0  0  0  0  0  0
  1  6  2  0  0  0  0
  1  2  1  0  0  0  0
  2  3  2  0  0  0  0
  3  4  1  0  0  0  0
  3 14  1  0  0  0  0
  4  9  1  0  0  0  0
  5 10  1  0  0  0  0
  5  4  2  0  0  0  0
  6  5  1  0  0  0  0
  7  1  1  0  0  0  0
  8  2  1  0  0  0  0
 11 12  2  0  0  0  0
 11  6  1  0  0  0  0
 13 11  2  0  0  0  0
 14 15  1  0  0  0  0
 16 19  2  0  0  0  0
 16 17  1  0  0  0  0
 16 20  1  0  0  0  0
 17 23  1  0  0  0  0
 18 16  2  0  0  0  0
 21 17  1  0  0  0  0
 22 17  1  0  0  0  0
M  RAD  3  14   2  15   3  20   2
M  END
