Coordinates from ORCA-job p-NO2-Ph-N2-OTf-B3LYPG-6-31G_dp-scan-d09-49-n400
 OpenBabel08281821413D

 23 23  0  0  1  0  0  0  0  0999 V2000
   -1.2268   -0.4801   -5.4026 C   0  0  0  0  0  0  0  0  0  0  0  0
   -0.2793    0.6004   -4.9730 C   0  0  2  0  0  0  0  0  0  0  0  0
   -0.9371    1.9691   -4.6621 C   0  0  0  0  0  0  0  0  0  0  0  0
   -2.3943    2.0667   -4.7955 C   0  0  0  0  0  0  0  0  0  0  0  0
   -3.1633    1.0241   -5.1693 C   0  0  0  0  0  0  0  0  0  0  0  0
   -2.5466   -0.2578   -5.4654 C   0  0  0  0  0  0  0  0  0  0  0  0
   -0.8157   -1.4420   -5.6831 H   0  0  0  0  0  0  0  0  0  0  0  0
    0.2429    0.2670   -4.0643 H   0  0  0  0  0  0  0  0  0  0  0  0
   -2.8228    3.0412   -4.5892 H   0  0  0  0  0  0  0  0  0  0  0  0
   -4.2377    1.1071   -5.2737 H   0  0  0  0  0  0  0  0  0  0  0  0
   -3.4307   -1.3665   -5.8880 N   0  0  0  0  0  0  0  0  0  0  0  0
   -4.6312   -1.1165   -5.9784 O   0  0  0  0  0  0  0  0  0  0  0  0
   -2.9165   -2.4579   -6.1172 O   0  0  0  0  0  0  0  0  0  0  0  0
   -0.2863    3.0112   -4.3019 N   0  0  0  0  0  0  0  0  0  0  0  0
    1.3387    2.6308   -4.0123 N   0  0  0  0  0  0  0  0  0  0  0  0
    2.2484    0.1845   -5.7048 S   0  0  2  0  0  0  0  0  0  0  0  0
    2.2164   -0.8859   -7.2583 C   0  0  0  0  0  0  0  0  0  0  0  0
    0.6962    0.7802   -6.0352 O   0  0  0  0  0  0  0  0  0  0  0  0
    3.2409    1.2446   -5.9865 O   0  0  0  0  0  0  0  0  0  0  0  0
    1.9328    3.4725   -3.9992 O   0  0  0  0  0  0  0  0  0  0  0  0
    1.2776   -1.8336   -7.0972 F   0  0  0  0  0  0  0  0  0  0  0  0
    1.9630   -0.1817   -8.3533 F   0  0  0  0  0  0  0  0  0  0  0  0
    3.4107   -1.4761   -7.3680 F   0  0  0  0  0  0  0  0  0  0  0  0
  1  2  1  0  0  0  0
  2  3  1  0  0  0  0
  2  8  1  1  0  0  0
  3 14  1  0  0  0  0
  4  3  2  0  0  0  0
  4  9  1  0  0  0  0
  5  4  1  0  0  0  0
  6  1  2  0  0  0  0
  6  5  1  0  0  0  0
  7  1  1  0  0  0  0
 10  5  1  0  0  0  0
 11  6  1  0  0  0  0
 12 11  2  0  0  0  0
 13 11  2  0  0  0  0
 14 15  1  0  0  0  0
 15 20  1  0  0  0  0
 16 17  1  6  0  0  0
 17 21  1  0  0  0  0
 18 16  1  0  0  0  0
 18  2  1  0  0  0  0
 19 16  1  0  0  0  0
 22 17  1  0  0  0  0
 23 17  1  0  0  0  0
M  RAD  5   5   2  14   2  15   2  19   2  20   2
M  END
