Coordinates from ORCA-job p-NO2-Ph-N2-OTf-B3LYPG-6-31G_dp-scan-d09-49-n400
 OpenBabel08281821413D

 23 22  0  0  0  0  0  0  0  0999 V2000
   -2.2466   -0.7202   -5.6999 C   0  0  0  0  0  0  0  0  0  0  0  0
   -0.9696   -0.1930   -5.5221 C   0  0  0  0  0  0  0  0  0  0  0  0
   -0.8816    1.0384   -4.8696 C   0  0  0  0  0  0  0  0  0  0  0  0
   -1.9862    1.7706   -4.4030 C   0  0  0  0  0  0  0  0  0  0  0  0
   -3.2489    1.2336   -4.6096 C   0  0  0  0  0  0  0  0  0  0  0  0
   -3.3510   -0.0019   -5.2490 C   0  0  0  0  0  0  0  0  0  0  0  0
   -2.3900   -1.6723   -6.1947 H   0  0  0  0  0  0  0  0  0  0  0  0
   -0.0754   -0.7018   -5.8871 H   0  0  0  0  0  0  0  0  0  0  0  0
   -1.8538    2.7259   -3.9088 H   0  0  0  0  0  0  0  0  0  0  0  0
   -4.1444    1.7481   -4.2864 H   0  0  0  0  0  0  0  0  0  0  0  0
   -4.7056   -0.5709   -5.4578 N   0  0  0  0  0  0  0  0  0  0  0  0
   -5.6561    0.0920   -5.0530 O   0  0  0  0  0  0  0  0  0  0  0  0
   -4.7741   -1.6620   -6.0115 O   0  0  0  0  0  0  0  0  0  0  0  0
    0.3786    1.6074   -4.5824 N   0  0  0  0  0  0  0  0  0  0  0  0
    1.1261    2.1997   -3.9988 N   0  0  0  0  0  0  0  0  0  0  0  0
    2.1710    0.1885   -7.0994 S   0  0  0  0  0  0  0  0  0  0  0  0
    3.7016    0.5206   -6.0996 C   0  0  0  0  0  0  0  0  0  0  0  0
    2.5855    0.2877   -8.4984 O   0  0  0  0  0  0  0  0  0  0  0  0
    1.2634    1.3175   -6.6520 O   0  0  0  0  0  0  0  0  0  0  0  0
    1.7067   -1.1301   -6.6055 O   0  0  0  0  0  0  0  0  0  0  0  0
    4.5889   -0.4663   -6.2361 F   0  0  0  0  0  0  0  0  0  0  0  0
    4.2704    1.6737   -6.4646 F   0  0  0  0  0  0  0  0  0  0  0  0
    3.3702    0.6158   -4.7887 F   0  0  0  0  0  0  0  0  0  0  0  0
  1  2  2  0  0  0  0
  1  6  1  0  0  0  0
  2  3  1  0  0  0  0
  3 14  1  0  0  0  0
  3  4  2  0  0  0  0
  4  9  1  0  0  0  0
  5  4  1  0  0  0  0
  5 10  1  0  0  0  0
  6  5  2  0  0  0  0
  7  1  1  0  0  0  0
  8  2  1  0  0  0  0
 11  6  1  0  0  0  0
 11 12  2  0  0  0  0
 13 11  2  0  0  0  0
 14 15  1  0  0  0  0
 16 19  2  0  0  0  0
 16 20  1  0  0  0  0
 16 17  1  0  0  0  0
 17 23  1  0  0  0  0
 18 16  2  0  0  0  0
 21 17  1  0  0  0  0
 22 17  1  0  0  0  0
M  RAD  3  14   2  15   3  20   2
M  END
