Coordinates from ORCA-job p-NO2-Ph-N2-OTf-B3LYPG-6-31G_dp-scan-d09-49-n400
 OpenBabel08281821413D

 23 22  0  0  0  0  0  0  0  0999 V2000
   -2.3062   -0.8026   -5.6585 C   0  0  0  0  0  0  0  0  0  0  0  0
   -1.0075   -0.3980   -5.3690 C   0  0  0  0  0  0  0  0  0  0  0  0
   -0.8573    0.8385   -4.7353 C   0  0  0  0  0  0  0  0  0  0  0  0
   -1.9161    1.6930   -4.3979 C   0  0  0  0  0  0  0  0  0  0  0  0
   -3.2027    1.2751   -4.7135 C   0  0  0  0  0  0  0  0  0  0  0  0
   -3.3700    0.0363   -5.3302 C   0  0  0  0  0  0  0  0  0  0  0  0
   -2.5004   -1.7495   -6.1459 H   0  0  0  0  0  0  0  0  0  0  0  0
   -0.1266   -0.9831   -5.6301 H   0  0  0  0  0  0  0  0  0  0  0  0
   -1.7340    2.6469   -3.9171 H   0  0  0  0  0  0  0  0  0  0  0  0
   -4.0679    1.8854   -4.4893 H   0  0  0  0  0  0  0  0  0  0  0  0
   -4.7490   -0.4041   -5.6523 N   0  0  0  0  0  0  0  0  0  0  0  0
   -5.6619    0.3626   -5.3595 O   0  0  0  0  0  0  0  0  0  0  0  0
   -4.8753   -1.5017   -6.1831 O   0  0  0  0  0  0  0  0  0  0  0  0
    0.4274    1.2672   -4.3429 N   0  0  0  0  0  0  0  0  0  0  0  0
    1.2371    1.6641   -3.6836 N   0  0  0  0  0  0  0  0  0  0  0  0
    2.1012    0.1710   -6.9070 S   0  0  0  0  0  0  0  0  0  0  0  0
    3.7450    0.7915   -6.3053 C   0  0  0  0  0  0  0  0  0  0  0  0
    2.2490   -0.0055   -8.3519 O   0  0  0  0  0  0  0  0  0  0  0  0
    1.1730    1.3002   -6.5123 O   0  0  0  0  0  0  0  0  0  0  0  0
    1.8645   -1.0393   -6.0803 O   0  0  0  0  0  0  0  0  0  0  0  0
    4.6959   -0.1288   -6.4819 F   0  0  0  0  0  0  0  0  0  0  0  0
    4.0960    1.9105   -6.9466 F   0  0  0  0  0  0  0  0  0  0  0  0
    3.6650    1.0715   -4.9844 F   0  0  0  0  0  0  0  0  0  0  0  0
  1  2  2  0  0  0  0
  1  6  1  0  0  0  0
  2  3  1  0  0  0  0
  3  4  2  0  0  0  0
  3 14  1  0  0  0  0
  4  9  1  0  0  0  0
  5 10  1  0  0  0  0
  5  4  1  0  0  0  0
  6  5  2  0  0  0  0
  7  1  1  0  0  0  0
  8  2  1  0  0  0  0
 11 12  2  0  0  0  0
 11  6  1  0  0  0  0
 13 11  2  0  0  0  0
 14 15  1  0  0  0  0
 16 19  2  0  0  0  0
 16 17  1  0  0  0  0
 16 20  1  0  0  0  0
 17 23  1  0  0  0  0
 18 16  2  0  0  0  0
 21 17  1  0  0  0  0
 22 17  1  0  0  0  0
M  RAD  3  14   2  15   3  20   2
M  END
