Coordinates from ORCA-job p-NO2-Ph-N2-OTf-B3LYPG-6-31G_dp-scan-d09-49-n400
 OpenBabel08281821413D

 23 22  0  0  0  0  0  0  0  0999 V2000
   -2.3359   -0.7651   -5.7013 C   0  0  0  0  0  0  0  0  0  0  0  0
   -1.0615   -0.4847   -5.2251 C   0  0  0  0  0  0  0  0  0  0  0  0
   -0.9063    0.6814   -4.4589 C   0  0  0  0  0  0  0  0  0  0  0  0
   -1.9452    1.5691   -4.1556 C   0  0  0  0  0  0  0  0  0  0  0  0
   -3.2086    1.2780   -4.6533 C   0  0  0  0  0  0  0  0  0  0  0  0
   -3.3750    0.1179   -5.4091 C   0  0  0  0  0  0  0  0  0  0  0  0
   -2.5305   -1.6446   -6.3020 H   0  0  0  0  0  0  0  0  0  0  0  0
   -0.1995   -1.1108   -5.4289 H   0  0  0  0  0  0  0  0  0  0  0  0
   -1.7606    2.4564   -3.5612 H   0  0  0  0  0  0  0  0  0  0  0  0
   -4.0580    1.9220   -4.4664 H   0  0  0  0  0  0  0  0  0  0  0  0
   -4.7319   -0.1924   -5.9249 N   0  0  0  0  0  0  0  0  0  0  0  0
   -5.6240    0.6084   -5.6625 O   0  0  0  0  0  0  0  0  0  0  0  0
   -4.8606   -1.2270   -6.5691 O   0  0  0  0  0  0  0  0  0  0  0  0
    0.3632    0.9469   -3.9560 N   0  0  0  0  0  0  0  0  0  0  0  0
    1.4656    0.9060   -3.7529 N   0  0  0  0  0  0  0  0  0  0  0  0
    2.1328    0.1009   -6.6960 S   0  0  0  0  0  0  0  0  0  0  0  0
    3.7165    1.0652   -6.5960 C   0  0  0  0  0  0  0  0  0  0  0  0
    2.2512   -0.7427   -7.8874 O   0  0  0  0  0  0  0  0  0  0  0  0
    1.0775    1.1433   -6.6934 O   0  0  0  0  0  0  0  0  0  0  0  0
    2.1413   -0.6714   -5.3929 O   0  0  0  0  0  0  0  0  0  0  0  0
    4.7697    0.2466   -6.5149 F   0  0  0  0  0  0  0  0  0  0  0  0
    3.8573    1.8477   -7.6711 F   0  0  0  0  0  0  0  0  0  0  0  0
    3.7018    1.8501   -5.4992 F   0  0  0  0  0  0  0  0  0  0  0  0
  1  6  2  0  0  0  0
  1  2  1  0  0  0  0
  2  3  2  0  0  0  0
  3  4  1  0  0  0  0
  3 14  1  0  0  0  0
  4  9  1  0  0  0  0
  5 10  1  0  0  0  0
  5  4  2  0  0  0  0
  6  5  1  0  0  0  0
  7  1  1  0  0  0  0
  8  2  1  0  0  0  0
 11 12  2  0  0  0  0
 11  6  1  0  0  0  0
 13 11  2  0  0  0  0
 14 15  1  0  0  0  0
 16 19  2  0  0  0  0
 16 17  1  0  0  0  0
 16 20  1  0  0  0  0
 17 21  1  0  0  0  0
 17 23  1  0  0  0  0
 18 16  2  0  0  0  0
 22 17  1  0  0  0  0
M  RAD  3  14   2  15   3  20   2
M  END
