Coordinates from ORCA-job p-NO2-Ph-N2-OTf-B3LYPG-6-31G_dp-scan-d09-49-n400
 OpenBabel08281821413D

 23 22  0  0  0  0  0  0  0  0999 V2000
   -2.3491   -0.7325   -5.7375 C   0  0  0  0  0  0  0  0  0  0  0  0
   -1.0778   -0.4175   -5.2727 C   0  0  0  0  0  0  0  0  0  0  0  0
   -0.9485    0.7205   -4.4617 C   0  0  0  0  0  0  0  0  0  0  0  0
   -2.0238    1.5410   -4.1013 C   0  0  0  0  0  0  0  0  0  0  0  0
   -3.2861    1.2198   -4.5840 C   0  0  0  0  0  0  0  0  0  0  0  0
   -3.4200    0.0891   -5.3882 C   0  0  0  0  0  0  0  0  0  0  0  0
   -2.5186   -1.5956   -6.3691 H   0  0  0  0  0  0  0  0  0  0  0  0
   -0.2032   -1.0094   -5.5158 H   0  0  0  0  0  0  0  0  0  0  0  0
   -1.8637    2.4071   -3.4695 H   0  0  0  0  0  0  0  0  0  0  0  0
   -4.1573    1.8171   -4.3490 H   0  0  0  0  0  0  0  0  0  0  0  0
   -4.7716   -0.2582   -5.8916 N   0  0  0  0  0  0  0  0  0  0  0  0
   -5.6931    0.4892   -5.5775 O   0  0  0  0  0  0  0  0  0  0  0  0
   -4.8669   -1.2600   -6.5919 O   0  0  0  0  0  0  0  0  0  0  0  0
    0.3142    1.0541   -3.9596 N   0  0  0  0  0  0  0  0  0  0  0  0
    1.4457    0.9559   -3.9177 N   0  0  0  0  0  0  0  0  0  0  0  0
    2.1579    0.2279   -6.7072 S   0  0  0  0  0  0  0  0  0  0  0  0
    3.8546    0.9769   -6.6068 C   0  0  0  0  0  0  0  0  0  0  0  0
    2.2022   -0.7411   -7.8025 O   0  0  0  0  0  0  0  0  0  0  0  0
    1.2349    1.3731   -6.8027 O   0  0  0  0  0  0  0  0  0  0  0  0
    2.0365   -0.4618   -5.3395 O   0  0  0  0  0  0  0  0  0  0  0  0
    4.7791    0.0263   -6.4497 F   0  0  0  0  0  0  0  0  0  0  0  0
    4.1178    1.6626   -7.7231 F   0  0  0  0  0  0  0  0  0  0  0  0
    3.9161    1.8165   -5.5597 F   0  0  0  0  0  0  0  0  0  0  0  0
  1  6  2  0  0  0  0
  1  2  1  0  0  0  0
  2  3  2  0  0  0  0
  3  4  1  0  0  0  0
  3 14  1  0  0  0  0
  4  9  1  0  0  0  0
  5 10  1  0  0  0  0
  5  4  2  0  0  0  0
  6  5  1  0  0  0  0
  7  1  1  0  0  0  0
  8  2  1  0  0  0  0
 11 12  2  0  0  0  0
 11  6  1  0  0  0  0
 13 11  2  0  0  0  0
 14 15  2  0  0  0  0
 16 17  1  0  0  0  0
 16 20  1  0  0  0  0
 17 21  1  0  0  0  0
 17 23  1  0  0  0  0
 18 16  2  0  0  0  0
 19 16  2  0  0  0  0
 22 17  1  0  0  0  0
M  RAD  2  15   2  20   2
M  END
