Coordinates from ORCA-job p-NO2-Ph-N2-OTf-B3LYPG-6-31G_dp-scan-d09-49-n400
 OpenBabel08281821413D

 23 22  0  0  0  0  0  0  0  0999 V2000
   -2.1808   -0.6462   -5.7541 C   0  0  0  0  0  0  0  0  0  0  0  0
   -0.9381   -0.0175   -5.6797 C   0  0  0  0  0  0  0  0  0  0  0  0
   -0.8896    1.2034   -5.0045 C   0  0  0  0  0  0  0  0  0  0  0  0
   -2.0053    1.8245   -4.4116 C   0  0  0  0  0  0  0  0  0  0  0  0
   -3.2319    1.1870   -4.5130 C   0  0  0  0  0  0  0  0  0  0  0  0
   -3.2922   -0.0376   -5.1802 C   0  0  0  0  0  0  0  0  0  0  0  0
   -2.2887   -1.5961   -6.2619 H   0  0  0  0  0  0  0  0  0  0  0  0
   -0.0541   -0.4594   -6.1427 H   0  0  0  0  0  0  0  0  0  0  0  0
   -1.9065    2.7759   -3.9021 H   0  0  0  0  0  0  0  0  0  0  0  0
   -4.1313    1.6150   -4.0898 H   0  0  0  0  0  0  0  0  0  0  0  0
   -4.6094   -0.7150   -5.2801 N   0  0  0  0  0  0  0  0  0  0  0  0
   -5.5660   -0.1490   -4.7592 O   0  0  0  0  0  0  0  0  0  0  0  0
   -4.6418   -1.7899   -5.8671 O   0  0  0  0  0  0  0  0  0  0  0  0
    0.3271    1.8974   -4.8247 N   0  0  0  0  0  0  0  0  0  0  0  0
    1.0174    2.6353   -4.3456 N   0  0  0  0  0  0  0  0  0  0  0  0
    2.2379    0.2376   -7.2284 S   0  0  0  0  0  0  0  0  0  0  0  0
    3.5524    0.2757   -5.9152 C   0  0  0  0  0  0  0  0  0  0  0  0
    2.9338    0.4740   -8.4923 O   0  0  0  0  0  0  0  0  0  0  0  0
    1.3570    1.3926   -6.7936 O   0  0  0  0  0  0  0  0  0  0  0  0
    1.5821   -1.0782   -7.0343 O   0  0  0  0  0  0  0  0  0  0  0  0
    4.3594   -0.7825   -6.0024 F   0  0  0  0  0  0  0  0  0  0  0  0
    4.2848    1.3914   -6.0026 F   0  0  0  0  0  0  0  0  0  0  0  0
    2.9631    0.2626   -4.6933 F   0  0  0  0  0  0  0  0  0  0  0  0
  1  2  2  0  0  0  0
  1  6  1  0  0  0  0
  2  3  1  0  0  0  0
  3 14  1  0  0  0  0
  3  4  2  0  0  0  0
  4  9  1  0  0  0  0
  5  4  1  0  0  0  0
  5 10  1  0  0  0  0
  6  5  2  0  0  0  0
  7  1  1  0  0  0  0
  8  2  1  0  0  0  0
 11  6  1  0  0  0  0
 11 12  2  0  0  0  0
 13 11  2  0  0  0  0
 14 15  1  0  0  0  0
 16 20  2  0  0  0  0
 16 19  1  0  0  0  0
 16 17  1  0  0  0  0
 17 23  1  0  0  0  0
 18 16  2  0  0  0  0
 21 17  1  0  0  0  0
 22 17  1  0  0  0  0
M  RAD  3  14   2  15   3  19   2
M  END
