Coordinates from ORCA-job p-NO2-Ph-N2-OTf-B3LYPG-6-31G_dp-scan-d09-49-n400
 OpenBabel08281821413D

 23 22  0  0  0  0  0  0  0  0999 V2000
   -2.2979   -0.7861   -5.6684 C   0  0  0  0  0  0  0  0  0  0  0  0
   -1.0019   -0.3590   -5.3982 C   0  0  0  0  0  0  0  0  0  0  0  0
   -0.8639    0.8755   -4.7594 C   0  0  0  0  0  0  0  0  0  0  0  0
   -1.9331    1.7076   -4.3974 C   0  0  0  0  0  0  0  0  0  0  0  0
   -3.2168    1.2684   -4.6946 C   0  0  0  0  0  0  0  0  0  0  0  0
   -3.3714    0.0308   -5.3173 C   0  0  0  0  0  0  0  0  0  0  0  0
   -2.4824   -1.7336   -6.1583 H   0  0  0  0  0  0  0  0  0  0  0  0
   -0.1163   -0.9296   -5.6769 H   0  0  0  0  0  0  0  0  0  0  0  0
   -1.7606    2.6611   -3.9124 H   0  0  0  0  0  0  0  0  0  0  0  0
   -4.0892    1.8610   -4.4518 H   0  0  0  0  0  0  0  0  0  0  0  0
   -4.7474   -0.4326   -5.6204 N   0  0  0  0  0  0  0  0  0  0  0  0
   -5.6695    0.3114   -5.2994 O   0  0  0  0  0  0  0  0  0  0  0  0
   -4.8626   -1.5312   -6.1516 O   0  0  0  0  0  0  0  0  0  0  0  0
    0.4188    1.3286   -4.3848 N   0  0  0  0  0  0  0  0  0  0  0  0
    1.2149    1.7621   -3.7324 N   0  0  0  0  0  0  0  0  0  0  0  0
    2.1161    0.1682   -6.9413 S   0  0  0  0  0  0  0  0  0  0  0  0
    3.7487    0.7452   -6.2701 C   0  0  0  0  0  0  0  0  0  0  0  0
    2.3033    0.0457   -8.3871 O   0  0  0  0  0  0  0  0  0  0  0  0
    1.1913    1.2962   -6.5330 O   0  0  0  0  0  0  0  0  0  0  0  0
    1.8412   -1.0688   -6.1690 O   0  0  0  0  0  0  0  0  0  0  0  0
    4.6899   -0.1863   -6.4395 F   0  0  0  0  0  0  0  0  0  0  0  0
    4.1388    1.8742   -6.8695 F   0  0  0  0  0  0  0  0  0  0  0  0
    3.6293    0.9925   -4.9453 F   0  0  0  0  0  0  0  0  0  0  0  0
  1  2  2  0  0  0  0
  1  6  1  0  0  0  0
  2  3  1  0  0  0  0
  3  4  2  0  0  0  0
  3 14  1  0  0  0  0
  4  9  1  0  0  0  0
  5 10  1  0  0  0  0
  5  4  1  0  0  0  0
  6  5  2  0  0  0  0
  7  1  1  0  0  0  0
  8  2  1  0  0  0  0
 11  6  1  0  0  0  0
 11 12  2  0  0  0  0
 13 11  2  0  0  0  0
 14 15  1  0  0  0  0
 16 19  2  0  0  0  0
 16 17  1  0  0  0  0
 16 20  1  0  0  0  0
 17 23  1  0  0  0  0
 18 16  2  0  0  0  0
 21 17  1  0  0  0  0
 22 17  1  0  0  0  0
M  RAD  3  14   2  15   3  20   2
M  END
