Coordinates from ORCA-job p-NO2-Ph-N2-OTf-B3LYPG-6-31G_dp-scan-d09-49-n400
 OpenBabel08281821413D

 23 22  0  0  0  0  0  0  0  0999 V2000
   -2.2748   -0.7512   -5.6851 C   0  0  0  0  0  0  0  0  0  0  0  0
   -0.9872   -0.2706   -5.4637 C   0  0  0  0  0  0  0  0  0  0  0  0
   -0.8764    0.9622   -4.8169 C   0  0  0  0  0  0  0  0  0  0  0  0
   -1.9663    1.7416   -4.3986 C   0  0  0  0  0  0  0  0  0  0  0  0
   -3.2405    1.2503   -4.6482 C   0  0  0  0  0  0  0  0  0  0  0  0
   -3.3666    0.0137   -5.2806 C   0  0  0  0  0  0  0  0  0  0  0  0
   -2.4374   -1.7014   -6.1776 H   0  0  0  0  0  0  0  0  0  0  0  0
   -0.0937   -0.8075   -5.7858 H   0  0  0  0  0  0  0  0  0  0  0  0
   -1.8155    2.6959   -3.9080 H   0  0  0  0  0  0  0  0  0  0  0  0
   -4.1270    1.8013   -4.3624 H   0  0  0  0  0  0  0  0  0  0  0  0
   -4.7333   -0.5056   -5.5337 N   0  0  0  0  0  0  0  0  0  0  0  0
   -5.6721    0.1977   -5.1722 O   0  0  0  0  0  0  0  0  0  0  0  0
   -4.8232   -1.5980   -6.0818 O   0  0  0  0  0  0  0  0  0  0  0  0
    0.3976    1.4751   -4.4887 N   0  0  0  0  0  0  0  0  0  0  0  0
    1.1692    1.9941   -3.8679 N   0  0  0  0  0  0  0  0  0  0  0  0
    2.1470    0.1728   -7.0251 S   0  0  0  0  0  0  0  0  0  0  0  0
    3.7380    0.6305   -6.1824 C   0  0  0  0  0  0  0  0  0  0  0  0
    2.4464    0.1691   -8.4569 O   0  0  0  0  0  0  0  0  0  0  0  0
    1.2302    1.3004   -6.5954 O   0  0  0  0  0  0  0  0  0  0  0  0
    1.7743   -1.1140   -6.3896 O   0  0  0  0  0  0  0  0  0  0  0  0
    4.6554   -0.3256   -6.3417 F   0  0  0  0  0  0  0  0  0  0  0  0
    4.2193    1.7821   -6.6602 F   0  0  0  0  0  0  0  0  0  0  0  0
    3.5155    0.7882   -4.8556 F   0  0  0  0  0  0  0  0  0  0  0  0
  1  2  2  0  0  0  0
  1  6  1  0  0  0  0
  2  3  1  0  0  0  0
  3 14  1  0  0  0  0
  3  4  2  0  0  0  0
  4  9  1  0  0  0  0
  5  4  1  0  0  0  0
  5 10  1  0  0  0  0
  6  5  2  0  0  0  0
  7  1  1  0  0  0  0
  8  2  1  0  0  0  0
 11  6  1  0  0  0  0
 11 12  2  0  0  0  0
 13 11  2  0  0  0  0
 14 15  1  0  0  0  0
 16 19  2  0  0  0  0
 16 20  1  0  0  0  0
 16 17  1  0  0  0  0
 17 23  1  0  0  0  0
 18 16  2  0  0  0  0
 21 17  1  0  0  0  0
 22 17  1  0  0  0  0
M  RAD  3  14   2  15   3  20   2
M  END
