Coordinates from ORCA-job p-NO2-Ph-N2-OTf-B3LYPG-6-31G_dp-scan-d09-49-n400
 OpenBabel08281821413D

 23 22  0  0  0  0  0  0  0  0999 V2000
   -2.2953   -0.7824   -5.6694 C   0  0  0  0  0  0  0  0  0  0  0  0
   -1.0002   -0.3489   -5.4045 C   0  0  0  0  0  0  0  0  0  0  0  0
   -0.8658    0.8856   -4.7646 C   0  0  0  0  0  0  0  0  0  0  0  0
   -1.9378    1.7114   -4.3963 C   0  0  0  0  0  0  0  0  0  0  0  0
   -3.2204    1.2657   -4.6882 C   0  0  0  0  0  0  0  0  0  0  0  0
   -3.3713    0.0282   -5.3122 C   0  0  0  0  0  0  0  0  0  0  0  0
   -2.4770   -1.7304   -6.1596 H   0  0  0  0  0  0  0  0  0  0  0  0
   -0.1131   -0.9156   -5.6874 H   0  0  0  0  0  0  0  0  0  0  0  0
   -1.7683    2.6651   -3.9106 H   0  0  0  0  0  0  0  0  0  0  0  0
   -4.0949    1.8533   -4.4405 H   0  0  0  0  0  0  0  0  0  0  0  0
   -4.7463   -0.4419   -5.6097 N   0  0  0  0  0  0  0  0  0  0  0  0
   -5.6704    0.3002   -5.2902 O   0  0  0  0  0  0  0  0  0  0  0  0
   -4.8579   -1.5367   -6.1494 O   0  0  0  0  0  0  0  0  0  0  0  0
    0.4163    1.3458   -4.3956 N   0  0  0  0  0  0  0  0  0  0  0  0
    1.2096    1.7895   -3.7456 N   0  0  0  0  0  0  0  0  0  0  0  0
    2.1191    0.1678   -6.9499 S   0  0  0  0  0  0  0  0  0  0  0  0
    3.7492    0.7325   -6.2621 C   0  0  0  0  0  0  0  0  0  0  0  0
    2.3165    0.0576   -8.3953 O   0  0  0  0  0  0  0  0  0  0  0  0
    1.1957    1.2962   -6.5391 O   0  0  0  0  0  0  0  0  0  0  0  0
    1.8340   -1.0747   -6.1906 O   0  0  0  0  0  0  0  0  0  0  0  0
    4.6877   -0.2017   -6.4318 F   0  0  0  0  0  0  0  0  0  0  0  0
    4.1488    1.8645   -6.8492 F   0  0  0  0  0  0  0  0  0  0  0  0
    3.6212    0.9698   -4.9361 F   0  0  0  0  0  0  0  0  0  0  0  0
  1  2  2  0  0  0  0
  1  6  1  0  0  0  0
  2  3  1  0  0  0  0
  3  4  2  0  0  0  0
  3 14  1  0  0  0  0
  4  9  1  0  0  0  0
  5 10  1  0  0  0  0
  5  4  1  0  0  0  0
  6  5  2  0  0  0  0
  7  1  1  0  0  0  0
  8  2  1  0  0  0  0
 11  6  1  0  0  0  0
 11 12  2  0  0  0  0
 13 11  2  0  0  0  0
 14 15  1  0  0  0  0
 16 19  2  0  0  0  0
 16 17  1  0  0  0  0
 16 20  1  0  0  0  0
 17 23  1  0  0  0  0
 18 16  2  0  0  0  0
 21 17  1  0  0  0  0
 22 17  1  0  0  0  0
M  RAD  3  14   2  15   3  20   2
M  END
