Coordinates from ORCA-job p-NO2-Ph-N2-OTf-B3LYPG-6-31G_dp-scan-d09-49-n400
 OpenBabel08281821413D

 23 23  0  0  1  0  0  0  0  0999 V2000
   -1.2260   -0.5744   -5.3203 C   0  0  0  0  0  0  0  0  0  0  0  0
   -0.2194    0.4790   -4.9538 C   0  0  2  0  0  0  0  0  0  0  0  0
   -0.8711    1.7702   -4.4515 C   0  0  0  0  0  0  0  0  0  0  0  0
   -2.2173    2.0931   -4.8530 C   0  0  0  0  0  0  0  0  0  0  0  0
   -3.0072    1.1269   -5.3791 C   0  0  0  0  0  0  0  0  0  0  0  0
   -2.5012   -0.2251   -5.5463 C   0  0  0  0  0  0  0  0  0  0  0  0
   -0.8803   -1.5861   -5.4907 H   0  0  0  0  0  0  0  0  0  0  0  0
    0.4898    0.1075   -4.2058 H   0  0  0  0  0  0  0  0  0  0  0  0
   -2.5853    3.0968   -4.6735 H   0  0  0  0  0  0  0  0  0  0  0  0
   -4.0334    1.3205   -5.6638 H   0  0  0  0  0  0  0  0  0  0  0  0
   -3.4558   -1.2613   -5.9997 N   0  0  0  0  0  0  0  0  0  0  0  0
   -4.6036   -0.8908   -6.2372 O   0  0  0  0  0  0  0  0  0  0  0  0
   -3.0421   -2.4109   -6.1049 O   0  0  0  0  0  0  0  0  0  0  0  0
   -0.2122    2.5595   -3.6655 N   0  0  0  0  0  0  0  0  0  0  0  0
    0.9081    2.6171   -3.1327 N   0  0  0  0  0  0  0  0  0  0  0  0
    2.1740    0.8643   -6.1713 S   0  0  2  0  0  0  0  0  0  0  0  0
    2.2482   -0.8159   -7.0413 C   0  0  0  0  0  0  0  0  0  0  0  0
    0.4504    0.7862   -6.1977 O   0  0  0  0  0  0  0  0  0  0  0  0
    2.5595    1.8339   -7.2104 O   0  0  0  0  0  0  0  0  0  0  0  0
    2.0582    2.7075   -4.2294 O   0  0  0  0  0  0  0  0  0  0  0  0
    1.6685   -1.7310   -6.2327 F   0  0  0  0  0  0  0  0  0  0  0  0
    1.6423   -0.8214   -8.2215 F   0  0  0  0  0  0  0  0  0  0  0  0
    3.5351   -1.1446   -7.1960 F   0  0  0  0  0  0  0  0  0  0  0  0
  1  2  1  0  0  0  0
  2  3  1  0  0  0  0
  2  8  1  1  0  0  0
  3 14  2  0  0  0  0
  4  9  1  0  0  0  0
  4  3  1  0  0  0  0
  5  4  2  0  0  0  0
  6  5  1  0  0  0  0
  6  1  2  0  0  0  0
  7  1  1  0  0  0  0
 10  5  1  0  0  0  0
 11  6  1  0  0  0  0
 12 11  2  0  0  0  0
 13 11  2  0  0  0  0
 14 15  1  0  0  0  0
 16 19  1  6  0  0  0
 17 21  1  0  0  0  0
 17 16  1  0  0  0  0
 18 16  1  0  0  0  0
 18  2  1  0  0  0  0
 20 15  1  0  0  0  0
 22 17  1  0  0  0  0
 23 17  1  0  0  0  0
M  RAD  3  15   2  19   2  20   2
M  END
