Coordinates from ORCA-job p-NO2-Ph-N2-OTf-B3LYPG-6-31G_dp-scan-d09-49-n400
 OpenBabel08281821413D

 23 22  0  0  0  0  0  0  0  0999 V2000
   -2.0639   -0.6409   -5.6933 C   0  0  0  0  0  0  0  0  0  0  0  0
   -0.8527    0.0480   -5.6428 C   0  0  0  0  0  0  0  0  0  0  0  0
   -0.8636    1.2970   -5.0184 C   0  0  0  0  0  0  0  0  0  0  0  0
   -2.0098    1.8882   -4.4515 C   0  0  0  0  0  0  0  0  0  0  0  0
   -3.2035    1.1882   -4.5259 C   0  0  0  0  0  0  0  0  0  0  0  0
   -3.2038   -0.0639   -5.1435 C   0  0  0  0  0  0  0  0  0  0  0  0
   -2.1245   -1.6123   -6.1672 H   0  0  0  0  0  0  0  0  0  0  0  0
    0.0447   -0.3717   -6.0972 H   0  0  0  0  0  0  0  0  0  0  0  0
   -1.9580    2.8635   -3.9818 H   0  0  0  0  0  0  0  0  0  0  0  0
   -4.1231    1.5889   -4.1194 H   0  0  0  0  0  0  0  0  0  0  0  0
   -4.4870   -0.8071   -5.2158 N   0  0  0  0  0  0  0  0  0  0  0  0
   -5.4721   -0.2634   -4.7252 O   0  0  0  0  0  0  0  0  0  0  0  0
   -4.4660   -1.9060   -5.7569 O   0  0  0  0  0  0  0  0  0  0  0  0
    0.3136    2.0560   -4.8732 N   0  0  0  0  0  0  0  0  0  0  0  0
    0.9970    2.8386   -4.4625 N   0  0  0  0  0  0  0  0  0  0  0  0
    2.2261    0.3441   -7.3288 S   0  0  0  0  0  0  0  0  0  0  0  0
    3.3449    0.0944   -5.8656 C   0  0  0  0  0  0  0  0  0  0  0  0
    3.1052    0.6520   -8.4554 O   0  0  0  0  0  0  0  0  0  0  0  0
    1.4003    1.5176   -6.8494 O   0  0  0  0  0  0  0  0  0  0  0  0
    1.4496   -0.9189   -7.3817 O   0  0  0  0  0  0  0  0  0  0  0  0
    4.0670   -1.0208   -5.9779 F   0  0  0  0  0  0  0  0  0  0  0  0
    4.1723    1.1338   -5.7045 F   0  0  0  0  0  0  0  0  0  0  0  0
    2.5866   -0.0042   -4.7401 F   0  0  0  0  0  0  0  0  0  0  0  0
  1  2  2  0  0  0  0
  1  6  1  0  0  0  0
  2  3  1  0  0  0  0
  3 14  1  0  0  0  0
  3  4  2  0  0  0  0
  4  9  1  0  0  0  0
  5  4  1  0  0  0  0
  5 10  1  0  0  0  0
  6  5  2  0  0  0  0
  7  1  1  0  0  0  0
  8  2  1  0  0  0  0
 11  6  1  0  0  0  0
 11 12  2  0  0  0  0
 13 11  2  0  0  0  0
 14 15  1  0  0  0  0
 16 19  1  0  0  0  0
 16 17  1  0  0  0  0
 17 22  1  0  0  0  0
 17 23  1  0  0  0  0
 18 16  2  0  0  0  0
 20 16  2  0  0  0  0
 21 17  1  0  0  0  0
M  RAD  3  14   2  15   3  19   2
M  END
