Coordinates from ORCA-job p-NO2-Ph-N2-OTf-B3LYPG-6-31G_dp-scan-d09-49-n400
 OpenBabel08281821413D

 23 22  0  0  0  0  0  0  0  0999 V2000
   -2.2552   -0.7300   -5.6942 C   0  0  0  0  0  0  0  0  0  0  0  0
   -0.9746   -0.2171   -5.5030 C   0  0  0  0  0  0  0  0  0  0  0  0
   -0.8798    1.0151   -4.8527 C   0  0  0  0  0  0  0  0  0  0  0  0
   -1.9806    1.7621   -4.4019 C   0  0  0  0  0  0  0  0  0  0  0  0
   -3.2472    1.2393   -4.6220 C   0  0  0  0  0  0  0  0  0  0  0  0
   -3.3564    0.0029   -5.2584 C   0  0  0  0  0  0  0  0  0  0  0  0
   -2.4044   -1.6818   -6.1879 H   0  0  0  0  0  0  0  0  0  0  0  0
   -0.0808   -0.7350   -5.8554 H   0  0  0  0  0  0  0  0  0  0  0  0
   -1.8428    2.7174   -3.9092 H   0  0  0  0  0  0  0  0  0  0  0  0
   -4.1403    1.7653   -4.3111 H   0  0  0  0  0  0  0  0  0  0  0  0
   -4.7150   -0.5509   -5.4811 N   0  0  0  0  0  0  0  0  0  0  0  0
   -5.6625    0.1257   -5.0925 O   0  0  0  0  0  0  0  0  0  0  0  0
   -4.7898   -1.6423   -6.0334 O   0  0  0  0  0  0  0  0  0  0  0  0
    0.3846    1.5672   -4.5516 N   0  0  0  0  0  0  0  0  0  0  0  0
    1.1389    2.1378   -3.9550 N   0  0  0  0  0  0  0  0  0  0  0  0
    2.1632    0.1821   -7.0771 S   0  0  0  0  0  0  0  0  0  0  0  0
    3.7149    0.5548   -6.1256 C   0  0  0  0  0  0  0  0  0  0  0  0
    2.5400    0.2533   -8.4885 O   0  0  0  0  0  0  0  0  0  0  0  0
    1.2522    1.3096   -6.6325 O   0  0  0  0  0  0  0  0  0  0  0  0
    1.7279   -1.1298   -6.5406 O   0  0  0  0  0  0  0  0  0  0  0  0
    4.6131   -0.4213   -6.2705 F   0  0  0  0  0  0  0  0  0  0  0  0
    4.2555    1.7096   -6.5260 F   0  0  0  0  0  0  0  0  0  0  0  0
    3.4186    0.6671   -4.8080 F   0  0  0  0  0  0  0  0  0  0  0  0
  1  2  2  0  0  0  0
  1  6  1  0  0  0  0
  2  3  1  0  0  0  0
  3 14  1  0  0  0  0
  3  4  2  0  0  0  0
  4  9  1  0  0  0  0
  5  4  1  0  0  0  0
  5 10  1  0  0  0  0
  6  5  2  0  0  0  0
  7  1  1  0  0  0  0
  8  2  1  0  0  0  0
 11  6  1  0  0  0  0
 11 12  2  0  0  0  0
 13 11  2  0  0  0  0
 14 15  1  0  0  0  0
 16 19  2  0  0  0  0
 16 20  1  0  0  0  0
 16 17  1  0  0  0  0
 17 23  1  0  0  0  0
 18 16  2  0  0  0  0
 21 17  1  0  0  0  0
 22 17  1  0  0  0  0
M  RAD  3  14   2  15   3  20   2
M  END
