Coordinates from ORCA-job p-NO2-Ph-N2-OTf-B3LYPG-6-31G_dp-scan-d09-49-n400
 OpenBabel08281821413D

 23 22  0  0  0  0  0  0  0  0999 V2000
   -2.3008   -0.7920   -5.6642 C   0  0  0  0  0  0  0  0  0  0  0  0
   -1.0038   -0.3725   -5.3871 C   0  0  0  0  0  0  0  0  0  0  0  0
   -0.8619    0.8629   -4.7500 C   0  0  0  0  0  0  0  0  0  0  0  0
   -1.9278    1.7025   -4.3967 C   0  0  0  0  0  0  0  0  0  0  0  0
   -3.2125    1.2704   -4.7004 C   0  0  0  0  0  0  0  0  0  0  0  0
   -3.3711    0.0324   -5.3210 C   0  0  0  0  0  0  0  0  0  0  0  0
   -2.4884   -1.7393   -6.1532 H   0  0  0  0  0  0  0  0  0  0  0  0
   -0.1196   -0.9483   -5.6597 H   0  0  0  0  0  0  0  0  0  0  0  0
   -1.7523    2.6562   -3.9132 H   0  0  0  0  0  0  0  0  0  0  0  0
   -4.0826    1.8691   -4.4642 H   0  0  0  0  0  0  0  0  0  0  0  0
   -4.7482   -0.4233   -5.6308 N   0  0  0  0  0  0  0  0  0  0  0  0
   -5.6671    0.3306   -5.3241 O   0  0  0  0  0  0  0  0  0  0  0  0
   -4.8667   -1.5194   -6.1664 O   0  0  0  0  0  0  0  0  0  0  0  0
    0.4214    1.3079   -4.3690 N   0  0  0  0  0  0  0  0  0  0  0  0
    1.2222    1.7289   -3.7133 N   0  0  0  0  0  0  0  0  0  0  0  0
    2.1110    0.1681   -6.9290 S   0  0  0  0  0  0  0  0  0  0  0  0
    3.7483    0.7615   -6.2838 C   0  0  0  0  0  0  0  0  0  0  0  0
    2.2830    0.0260   -8.3749 O   0  0  0  0  0  0  0  0  0  0  0  0
    1.1849    1.2967   -6.5254 O   0  0  0  0  0  0  0  0  0  0  0  0
    1.8502   -1.0595   -6.1364 O   0  0  0  0  0  0  0  0  0  0  0  0
    4.6934   -0.1653   -6.4571 F   0  0  0  0  0  0  0  0  0  0  0  0
    4.1232    1.8876   -6.8983 F   0  0  0  0  0  0  0  0  0  0  0  0
    3.6445    1.0198   -4.9599 F   0  0  0  0  0  0  0  0  0  0  0  0
  1  2  2  0  0  0  0
  1  6  1  0  0  0  0
  2  3  1  0  0  0  0
  3  4  2  0  0  0  0
  3 14  1  0  0  0  0
  4  9  1  0  0  0  0
  5 10  1  0  0  0  0
  5  4  1  0  0  0  0
  6  5  2  0  0  0  0
  7  1  1  0  0  0  0
  8  2  1  0  0  0  0
 11 12  2  0  0  0  0
 11  6  1  0  0  0  0
 13 11  2  0  0  0  0
 14 15  1  0  0  0  0
 16 19  2  0  0  0  0
 16 17  1  0  0  0  0
 16 20  1  0  0  0  0
 17 23  1  0  0  0  0
 18 16  2  0  0  0  0
 21 17  1  0  0  0  0
 22 17  1  0  0  0  0
M  RAD  3  14   2  15   3  20   2
M  END
