Coordinates from ORCA-job p-NO2-Ph-N2-OTf-B3LYPG-6-31G_dp-scan-d09-49-n400
 OpenBabel08281821413D

 23 22  0  0  0  0  0  0  0  0999 V2000
   -2.3511   -0.7313   -5.7398 C   0  0  0  0  0  0  0  0  0  0  0  0
   -1.0796   -0.4137   -5.2769 C   0  0  0  0  0  0  0  0  0  0  0  0
   -0.9510    0.7230   -4.4639 C   0  0  0  0  0  0  0  0  0  0  0  0
   -2.0286    1.5390   -4.0998 C   0  0  0  0  0  0  0  0  0  0  0  0
   -3.2911    1.2156   -4.5803 C   0  0  0  0  0  0  0  0  0  0  0  0
   -3.4237    0.0864   -5.3867 C   0  0  0  0  0  0  0  0  0  0  0  0
   -2.5195   -1.5937   -6.3726 H   0  0  0  0  0  0  0  0  0  0  0  0
   -0.2049   -1.0038   -5.5233 H   0  0  0  0  0  0  0  0  0  0  0  0
   -1.8695    2.4040   -3.4662 H   0  0  0  0  0  0  0  0  0  0  0  0
   -4.1634    1.8100   -4.3419 H   0  0  0  0  0  0  0  0  0  0  0  0
   -4.7752   -0.2636   -5.8882 N   0  0  0  0  0  0  0  0  0  0  0  0
   -5.6990    0.4783   -5.5675 O   0  0  0  0  0  0  0  0  0  0  0  0
   -4.8697   -1.2661   -6.5877 O   0  0  0  0  0  0  0  0  0  0  0  0
    0.3108    1.0629   -3.9619 N   0  0  0  0  0  0  0  0  0  0  0  0
    1.4435    0.9624   -3.9313 N   0  0  0  0  0  0  0  0  0  0  0  0
    2.1601    0.2412   -6.7103 S   0  0  0  0  0  0  0  0  0  0  0  0
    3.8660    0.9688   -6.6048 C   0  0  0  0  0  0  0  0  0  0  0  0
    2.1971   -0.7349   -7.7992 O   0  0  0  0  0  0  0  0  0  0  0  0
    1.2510    1.3959   -6.8126 O   0  0  0  0  0  0  0  0  0  0  0  0
    2.0251   -0.4436   -5.3392 O   0  0  0  0  0  0  0  0  0  0  0  0
    4.7772    0.0065   -6.4434 F   0  0  0  0  0  0  0  0  0  0  0  0
    4.1408    1.6490   -7.7216 F   0  0  0  0  0  0  0  0  0  0  0  0
    3.9341    1.8089   -5.5590 F   0  0  0  0  0  0  0  0  0  0  0  0
  1  6  2  0  0  0  0
  1  2  1  0  0  0  0
  2  3  2  0  0  0  0
  3  4  1  0  0  0  0
  3 14  1  0  0  0  0
  4  9  1  0  0  0  0
  5 10  1  0  0  0  0
  5  4  2  0  0  0  0
  6  5  1  0  0  0  0
  7  1  1  0  0  0  0
  8  2  1  0  0  0  0
 11 12  2  0  0  0  0
 11  6  1  0  0  0  0
 13 11  2  0  0  0  0
 14 15  2  0  0  0  0
 16 17  1  0  0  0  0
 16 20  1  0  0  0  0
 17 21  1  0  0  0  0
 17 23  1  0  0  0  0
 18 16  2  0  0  0  0
 19 16  2  0  0  0  0
 22 17  1  0  0  0  0
M  RAD  2  15   2  20   2
M  END
