Coordinates from ORCA-job p-NO2-Ph-N2-OTf-B3LYPG-6-31G_dp-scan-d09-49-n400
 OpenBabel08281821413D

 23 22  0  0  0  0  0  0  0  0999 V2000
   -2.3047   -0.7988   -5.6614 C   0  0  0  0  0  0  0  0  0  0  0  0
   -1.0067   -0.3887   -5.3760 C   0  0  0  0  0  0  0  0  0  0  0  0
   -0.8596    0.8470   -4.7404 C   0  0  0  0  0  0  0  0  0  0  0  0
   -1.9208    1.6962   -4.3967 C   0  0  0  0  0  0  0  0  0  0  0  0
   -3.2066    1.2730   -4.7082 C   0  0  0  0  0  0  0  0  0  0  0  0
   -3.3708    0.0348   -5.3271 C   0  0  0  0  0  0  0  0  0  0  0  0
   -2.4965   -1.7456   -6.1499 H   0  0  0  0  0  0  0  0  0  0  0  0
   -0.1234   -0.9693   -5.6401 H   0  0  0  0  0  0  0  0  0  0  0  0
   -1.7411    2.6498   -3.9144 H   0  0  0  0  0  0  0  0  0  0  0  0
   -4.0737    1.8788   -4.4792 H   0  0  0  0  0  0  0  0  0  0  0  0
   -4.7492   -0.4108   -5.6450 N   0  0  0  0  0  0  0  0  0  0  0  0
   -5.6642    0.3511   -5.3465 O   0  0  0  0  0  0  0  0  0  0  0  0
   -4.8728   -1.5075   -6.1782 O   0  0  0  0  0  0  0  0  0  0  0  0
    0.4254    1.2804   -4.3532 N   0  0  0  0  0  0  0  0  0  0  0  0
    1.2336    1.6846   -3.6964 N   0  0  0  0  0  0  0  0  0  0  0  0
    2.1046    0.1704   -6.9139 S   0  0  0  0  0  0  0  0  0  0  0  0
    3.7468    0.7813   -6.2980 C   0  0  0  0  0  0  0  0  0  0  0  0
    2.2619    0.0026   -8.3588 O   0  0  0  0  0  0  0  0  0  0  0  0
    1.1778    1.3005   -6.5187 O   0  0  0  0  0  0  0  0  0  0  0  0
    1.8581   -1.0438   -6.0963 O   0  0  0  0  0  0  0  0  0  0  0  0
    4.6952   -0.1420   -6.4728 F   0  0  0  0  0  0  0  0  0  0  0  0
    4.1066    1.9020   -6.9311 F   0  0  0  0  0  0  0  0  0  0  0  0
    3.6593    1.0551   -4.9761 F   0  0  0  0  0  0  0  0  0  0  0  0
  1  2  2  0  0  0  0
  1  6  1  0  0  0  0
  2  3  1  0  0  0  0
  3  4  2  0  0  0  0
  3 14  1  0  0  0  0
  4  9  1  0  0  0  0
  5 10  1  0  0  0  0
  5  4  1  0  0  0  0
  6  5  2  0  0  0  0
  7  1  1  0  0  0  0
  8  2  1  0  0  0  0
 11 12  2  0  0  0  0
 11  6  1  0  0  0  0
 13 11  2  0  0  0  0
 14 15  1  0  0  0  0
 16 19  2  0  0  0  0
 16 17  1  0  0  0  0
 16 20  1  0  0  0  0
 17 23  1  0  0  0  0
 18 16  2  0  0  0  0
 21 17  1  0  0  0  0
 22 17  1  0  0  0  0
M  RAD  3  14   2  15   3  20   2
M  END
