Coordinates from ORCA-job p-NO2-Ph-N2-OTf-B3LYPG-6-31G_dp-scan-d09-49-n400
 OpenBabel08281821413D

 23 22  0  0  0  0  0  0  0  0999 V2000
   -2.1140   -0.6699   -5.6816 C   0  0  0  0  0  0  0  0  0  0  0  0
   -0.8812   -0.0246   -5.5974 C   0  0  0  0  0  0  0  0  0  0  0  0
   -0.8662    1.2256   -4.9752 C   0  0  0  0  0  0  0  0  0  0  0  0
   -2.0050    1.8616   -4.4456 C   0  0  0  0  0  0  0  0  0  0  0  0
   -3.2211    1.2054   -4.5559 C   0  0  0  0  0  0  0  0  0  0  0  0
   -3.2483   -0.0484   -5.1687 C   0  0  0  0  0  0  0  0  0  0  0  0
   -2.1970   -1.6405   -6.1536 H   0  0  0  0  0  0  0  0  0  0  0  0
    0.0183   -0.4721   -6.0232 H   0  0  0  0  0  0  0  0  0  0  0  0
   -1.9314    2.8361   -3.9774 H   0  0  0  0  0  0  0  0  0  0  0  0
   -4.1377    1.6413   -4.1801 H   0  0  0  0  0  0  0  0  0  0  0  0
   -4.5552   -0.7442   -5.2779 N   0  0  0  0  0  0  0  0  0  0  0  0
   -5.5343   -0.1625   -4.8200 O   0  0  0  0  0  0  0  0  0  0  0  0
   -4.5582   -1.8458   -5.8140 O   0  0  0  0  0  0  0  0  0  0  0  0
    0.3388    1.9312   -4.7906 N   0  0  0  0  0  0  0  0  0  0  0  0
    1.0508    2.6616   -4.3348 N   0  0  0  0  0  0  0  0  0  0  0  0
    2.2016    0.3076   -7.2892 S   0  0  0  0  0  0  0  0  0  0  0  0
    3.4533    0.2096   -5.9189 C   0  0  0  0  0  0  0  0  0  0  0  0
    2.9641    0.5921   -8.5035 O   0  0  0  0  0  0  0  0  0  0  0  0
    1.3478    1.4622   -6.8115 O   0  0  0  0  0  0  0  0  0  0  0  0
    1.4961   -0.9946   -7.2048 O   0  0  0  0  0  0  0  0  0  0  0  0
    4.2340   -0.8645   -6.0395 F   0  0  0  0  0  0  0  0  0  0  0  0
    4.2215    1.3047   -5.8869 F   0  0  0  0  0  0  0  0  0  0  0  0
    2.8023    0.1291   -4.7282 F   0  0  0  0  0  0  0  0  0  0  0  0
  1  2  2  0  0  0  0
  1  6  1  0  0  0  0
  2  3  1  0  0  0  0
  3 14  1  0  0  0  0
  3  4  2  0  0  0  0
  4  9  1  0  0  0  0
  5  4  1  0  0  0  0
  5 10  1  0  0  0  0
  6  5  2  0  0  0  0
  7  1  1  0  0  0  0
  8  2  1  0  0  0  0
 11  6  1  0  0  0  0
 11 12  2  0  0  0  0
 13 11  2  0  0  0  0
 14 15  1  0  0  0  0
 16 20  2  0  0  0  0
 16 19  1  0  0  0  0
 16 17  1  0  0  0  0
 17 22  1  0  0  0  0
 17 23  1  0  0  0  0
 18 16  2  0  0  0  0
 21 17  1  0  0  0  0
M  RAD  3  14   2  15   3  19   2
M  END
