Coordinates from ORCA-job p-NO2-Ph-N2-OTf-B3LYPG-6-31G_dp-scan-d09-49-n400
 OpenBabel08281821413D

 23 22  0  0  1  0  0  0  0  0999 V2000
   -1.2244   -0.4945   -5.3155 C   0  0  0  0  0  0  0  0  0  0  0  0
   -0.3057    0.6086   -4.8820 C   0  0  2  0  0  0  0  0  0  0  0  0
   -0.9699    2.0051   -4.6917 C   0  0  0  0  0  0  0  0  0  0  0  0
   -2.4359    2.0613   -4.8505 C   0  0  0  0  0  0  0  0  0  0  0  0
   -3.1873    0.9968   -5.1934 C   0  0  0  0  0  0  0  0  0  0  0  0
   -2.5436   -0.2854   -5.4275 C   0  0  0  0  0  0  0  0  0  0  0  0
   -0.8047   -1.4665   -5.5478 H   0  0  0  0  0  0  0  0  0  0  0  0
    0.1665    0.3223   -3.9309 H   0  0  0  0  0  0  0  0  0  0  0  0
   -2.8788    3.0402   -4.7005 H   0  0  0  0  0  0  0  0  0  0  0  0
   -4.2600    1.0593   -5.3249 H   0  0  0  0  0  0  0  0  0  0  0  0
   -3.3994   -1.4204   -5.8419 N   0  0  0  0  0  0  0  0  0  0  0  0
   -4.5997   -1.1919   -5.9802 O   0  0  0  0  0  0  0  0  0  0  0  0
   -2.8656   -2.5130   -6.0196 O   0  0  0  0  0  0  0  0  0  0  0  0
   -0.3178    3.0629   -4.4247 N   0  0  0  0  0  0  0  0  0  0  0  0
    1.5224    2.7199   -4.0916 N   0  0  0  0  0  0  0  0  0  0  0  0
    2.1680   -0.0868   -5.5913 S   0  0  2  0  0  0  0  0  0  0  0  0
    2.1757   -0.7643   -7.3502 C   0  0  0  0  0  0  0  0  0  0  0  0
    0.7463    0.7612   -5.8888 O   0  0  0  0  0  0  0  0  0  0  0  0
    3.2941    0.8784   -5.5292 O   0  0  0  0  0  0  0  0  0  0  0  0
    2.0505    3.4565   -4.3413 O   0  0  0  0  0  0  0  0  0  0  0  0
    1.1355   -1.5978   -7.4809 F   0  0  0  0  0  0  0  0  0  0  0  0
    2.1025    0.2005   -8.2589 F   0  0  0  0  0  0  0  0  0  0  0  0
    3.3107   -1.4514   -7.5148 F   0  0  0  0  0  0  0  0  0  0  0  0
  1  2  1  0  0  0  0
  2  3  1  0  0  0  0
  2  8  1  1  0  0  0
  3 14  2  0  0  0  0
  4  9  1  0  0  0  0
  4  3  1  0  0  0  0
  5  4  2  0  0  0  0
  6  1  2  0  0  0  0
  6  5  1  0  0  0  0
  7  1  1  0  0  0  0
 10  5  1  0  0  0  0
 11  6  1  0  0  0  0
 12 11  2  0  0  0  0
 13 11  2  0  0  0  0
 16 17  1  6  0  0  0
 16 19  1  0  0  0  0
 18 16  1  0  0  0  0
 18  2  1  0  0  0  0
 20 15  2  0  0  0  0
 21 17  1  0  0  0  0
 22 17  1  0  0  0  0
 23 17  1  0  0  0  0
M  RAD  3  14   2  15   2  19   2
M  END
