Coordinates from ORCA-job p-NO2-Ph-N2-OTf-B3LYPG-6-31G_dp-scan-d09-49-n400
 OpenBabel08281821413D

 23 22  0  0  0  0  0  0  0  0999 V2000
   -2.3234   -0.8474   -5.6347 C   0  0  0  0  0  0  0  0  0  0  0  0
   -1.0215   -0.5028   -5.2919 C   0  0  0  0  0  0  0  0  0  0  0  0
   -0.8365    0.7378   -4.6730 C   0  0  0  0  0  0  0  0  0  0  0  0
   -1.8637    1.6505   -4.3990 C   0  0  0  0  0  0  0  0  0  0  0  0
   -3.1546    1.2893   -4.7635 C   0  0  0  0  0  0  0  0  0  0  0  0
   -3.3572    0.0491   -5.3663 C   0  0  0  0  0  0  0  0  0  0  0  0
   -2.5435   -1.7911   -6.1173 H   0  0  0  0  0  0  0  0  0  0  0  0
   -0.1558   -1.1249   -5.5078 H   0  0  0  0  0  0  0  0  0  0  0  0
   -1.6547    2.6040   -3.9285 H   0  0  0  0  0  0  0  0  0  0  0  0
   -3.9974    1.9452   -4.5876 H   0  0  0  0  0  0  0  0  0  0  0  0
   -4.7410   -0.3295   -5.7406 N   0  0  0  0  0  0  0  0  0  0  0  0
   -5.6263    0.4870   -5.5028 O   0  0  0  0  0  0  0  0  0  0  0  0
   -4.8989   -1.4307   -6.2555 O   0  0  0  0  0  0  0  0  0  0  0  0
    0.4483    1.0991   -4.2328 N   0  0  0  0  0  0  0  0  0  0  0  0
    1.3052    1.3992   -3.5856 N   0  0  0  0  0  0  0  0  0  0  0  0
    2.0521    0.2052   -6.8235 S   0  0  0  0  0  0  0  0  0  0  0  0
    3.7167    0.9052   -6.3891 C   0  0  0  0  0  0  0  0  0  0  0  0
    2.1180   -0.1221   -8.2483 O   0  0  0  0  0  0  0  0  0  0  0  0
    1.1237    1.3430   -6.4751 O   0  0  0  0  0  0  0  0  0  0  0  0
    1.8973   -0.9219   -5.8642 O   0  0  0  0  0  0  0  0  0  0  0  0
    4.6750   -0.0125   -6.5427 F   0  0  0  0  0  0  0  0  0  0  0  0
    4.0032    1.9652   -7.1513 F   0  0  0  0  0  0  0  0  0  0  0  0
    3.7142    1.3041   -5.0972 F   0  0  0  0  0  0  0  0  0  0  0  0
  1  6  2  0  0  0  0
  1  2  1  0  0  0  0
  2  3  2  0  0  0  0
  3  4  1  0  0  0  0
  3 14  1  0  0  0  0
  4  9  1  0  0  0  0
  5 10  1  0  0  0  0
  5  4  2  0  0  0  0
  6  5  1  0  0  0  0
  7  1  1  0  0  0  0
  8  2  1  0  0  0  0
 11 12  2  0  0  0  0
 11  6  1  0  0  0  0
 13 11  2  0  0  0  0
 14 15  1  0  0  0  0
 16 19  2  0  0  0  0
 16 17  1  0  0  0  0
 16 20  1  0  0  0  0
 17 23  1  0  0  0  0
 18 16  2  0  0  0  0
 21 17  1  0  0  0  0
 22 17  1  0  0  0  0
M  RAD  3  14   2  15   3  20   2
M  END
