Coordinates from ORCA-job p-NO2-Ph-N2-OTf-B3LYPG-6-31G_dp-scan-d09-49-n400
 OpenBabel08281821413D

 23 22  0  0  0  0  0  0  0  0999 V2000
   -2.2321   -0.7037   -5.7110 C   0  0  0  0  0  0  0  0  0  0  0  0
   -0.9618   -0.1517   -5.5586 C   0  0  0  0  0  0  0  0  0  0  0  0
   -0.8838    1.0778   -4.9018 C   0  0  0  0  0  0  0  0  0  0  0  0
   -1.9930    1.7843   -4.4051 C   0  0  0  0  0  0  0  0  0  0  0  0
   -3.2486    1.2229   -4.5860 C   0  0  0  0  0  0  0  0  0  0  0  0
   -3.3401   -0.0109   -5.2310 C   0  0  0  0  0  0  0  0  0  0  0  0
   -2.3667   -1.6560   -6.2078 H   0  0  0  0  0  0  0  0  0  0  0  0
   -0.0681   -0.6444   -5.9465 H   0  0  0  0  0  0  0  0  0  0  0  0
   -1.8690    2.7391   -3.9080 H   0  0  0  0  0  0  0  0  0  0  0  0
   -4.1468    1.7170   -4.2391 H   0  0  0  0  0  0  0  0  0  0  0  0
   -4.6876   -0.6060   -5.4129 N   0  0  0  0  0  0  0  0  0  0  0  0
   -5.6416    0.0354   -4.9825 O   0  0  0  0  0  0  0  0  0  0  0  0
   -4.7471   -1.6925   -5.9764 O   0  0  0  0  0  0  0  0  0  0  0  0
    0.3687    1.6753   -4.6402 N   0  0  0  0  0  0  0  0  0  0  0  0
    1.1077    2.3018   -4.0818 N   0  0  0  0  0  0  0  0  0  0  0  0
    2.1865    0.2002   -7.1376 S   0  0  0  0  0  0  0  0  0  0  0  0
    3.6719    0.4635   -6.0527 C   0  0  0  0  0  0  0  0  0  0  0  0
    2.6714    0.3405   -8.5100 O   0  0  0  0  0  0  0  0  0  0  0  0
    1.2827    1.3324   -6.6923 O   0  0  0  0  0  0  0  0  0  0  0  0
    1.6732   -1.1248   -6.7154 O   0  0  0  0  0  0  0  0  0  0  0  0
    4.5418   -0.5409   -6.1724 F   0  0  0  0  0  0  0  0  0  0  0  0
    4.2870    1.6122   -6.3517 F   0  0  0  0  0  0  0  0  0  0  0  0
    3.2747    0.5296   -4.7575 F   0  0  0  0  0  0  0  0  0  0  0  0
  1  2  2  0  0  0  0
  1  6  1  0  0  0  0
  2  3  1  0  0  0  0
  3 14  1  0  0  0  0
  3  4  2  0  0  0  0
  4  9  1  0  0  0  0
  5  4  1  0  0  0  0
  5 10  1  0  0  0  0
  6  5  2  0  0  0  0
  7  1  1  0  0  0  0
  8  2  1  0  0  0  0
 11  6  1  0  0  0  0
 11 12  2  0  0  0  0
 13 11  2  0  0  0  0
 14 15  1  0  0  0  0
 16 20  2  0  0  0  0
 16 19  1  0  0  0  0
 16 17  1  0  0  0  0
 17 23  1  0  0  0  0
 18 16  2  0  0  0  0
 21 17  1  0  0  0  0
 22 17  1  0  0  0  0
M  RAD  3  14   2  15   3  19   2
M  END
