Coordinates from ORCA-job p-NO2-Ph-N2-OTf-B3LYPG-6-31G_dp-scan-d09-49-n400
 OpenBabel08281821413D

 23 22  0  0  0  0  0  0  0  0999 V2000
   -2.2669   -0.7415   -5.6898 C   0  0  0  0  0  0  0  0  0  0  0  0
   -0.9824   -0.2459   -5.4827 C   0  0  0  0  0  0  0  0  0  0  0  0
   -0.8787    0.9864   -4.8339 C   0  0  0  0  0  0  0  0  0  0  0  0
   -1.9734    1.7509   -4.3999 C   0  0  0  0  0  0  0  0  0  0  0  0
   -3.2443    1.2451   -4.6357 C   0  0  0  0  0  0  0  0  0  0  0  0
   -3.3630    0.0088   -5.2703 C   0  0  0  0  0  0  0  0  0  0  0  0
   -2.4236   -1.6924   -6.1830 H   0  0  0  0  0  0  0  0  0  0  0  0
   -0.0879   -0.7733   -5.8183 H   0  0  0  0  0  0  0  0  0  0  0  0
   -1.8284    2.7056   -3.9081 H   0  0  0  0  0  0  0  0  0  0  0  0
   -4.1340    1.7845   -4.3378 H   0  0  0  0  0  0  0  0  0  0  0  0
   -4.7263   -0.5262   -5.5089 N   0  0  0  0  0  0  0  0  0  0  0  0
   -5.6691    0.1650   -5.1346 O   0  0  0  0  0  0  0  0  0  0  0  0
   -4.8096   -1.6181   -6.0591 O   0  0  0  0  0  0  0  0  0  0  0  0
    0.3919    1.5162   -4.5191 N   0  0  0  0  0  0  0  0  0  0  0  0
    1.1567    2.0582   -3.9094 N   0  0  0  0  0  0  0  0  0  0  0  0
    2.1553    0.1765   -7.0490 S   0  0  0  0  0  0  0  0  0  0  0  0
    3.7292    0.5967   -6.1558 C   0  0  0  0  0  0  0  0  0  0  0  0
    2.4909    0.2061   -8.4723 O   0  0  0  0  0  0  0  0  0  0  0  0
    1.2409    1.3043   -6.6140 O   0  0  0  0  0  0  0  0  0  0  0  0
    1.7530   -1.1219   -6.4570 O   0  0  0  0  0  0  0  0  0  0  0  0
    4.6389   -0.3676   -6.3090 F   0  0  0  0  0  0  0  0  0  0  0  0
    4.2369    1.7512   -6.5982 F   0  0  0  0  0  0  0  0  0  0  0  0
    3.4733    0.7324   -4.8323 F   0  0  0  0  0  0  0  0  0  0  0  0
  1  2  2  0  0  0  0
  1  6  1  0  0  0  0
  2  3  1  0  0  0  0
  3 14  1  0  0  0  0
  3  4  2  0  0  0  0
  4  9  1  0  0  0  0
  5  4  1  0  0  0  0
  5 10  1  0  0  0  0
  6  5  2  0  0  0  0
  7  1  1  0  0  0  0
  8  2  1  0  0  0  0
 11  6  1  0  0  0  0
 11 12  2  0  0  0  0
 13 11  2  0  0  0  0
 14 15  1  0  0  0  0
 16 19  2  0  0  0  0
 16 20  1  0  0  0  0
 16 17  1  0  0  0  0
 17 23  1  0  0  0  0
 18 16  2  0  0  0  0
 21 17  1  0  0  0  0
 22 17  1  0  0  0  0
M  RAD  3  14   2  15   3  20   2
M  END
