Coordinates from ORCA-job p-NO2-Ph-N2-OTf-B3LYPG-6-31G_dp-scan-d09-49-n400
 OpenBabel08281821413D

 23 22  0  0  0  0  0  0  0  0999 V2000
   -2.3358   -0.8721   -5.6266 C   0  0  0  0  0  0  0  0  0  0  0  0
   -1.0339   -0.5677   -5.2496 C   0  0  0  0  0  0  0  0  0  0  0  0
   -0.8244    0.6719   -4.6336 C   0  0  0  0  0  0  0  0  0  0  0  0
   -1.8290    1.6185   -4.3923 C   0  0  0  0  0  0  0  0  0  0  0  0
   -3.1204    1.2959   -4.7886 C   0  0  0  0  0  0  0  0  0  0  0  0
   -3.3468    0.0588   -5.3898 C   0  0  0  0  0  0  0  0  0  0  0  0
   -2.5733   -1.8105   -6.1113 H   0  0  0  0  0  0  0  0  0  0  0  0
   -0.1819   -1.2140   -5.4411 H   0  0  0  0  0  0  0  0  0  0  0  0
   -1.6016    2.5681   -3.9228 H   0  0  0  0  0  0  0  0  0  0  0  0
   -3.9465    1.9791   -4.6389 H   0  0  0  0  0  0  0  0  0  0  0  0
   -4.7318   -0.2786   -5.7976 N   0  0  0  0  0  0  0  0  0  0  0  0
   -5.5966    0.5666   -5.5874 O   0  0  0  0  0  0  0  0  0  0  0  0
   -4.9108   -1.3778   -6.3099 O   0  0  0  0  0  0  0  0  0  0  0  0
    0.4562    0.9839   -4.1617 N   0  0  0  0  0  0  0  0  0  0  0  0
    1.3589    1.2116   -3.5522 N   0  0  0  0  0  0  0  0  0  0  0  0
    2.0235    0.2304   -6.7619 S   0  0  0  0  0  0  0  0  0  0  0  0
    3.6917    0.9810   -6.4431 C   0  0  0  0  0  0  0  0  0  0  0  0
    2.0508   -0.2289   -8.1517 O   0  0  0  0  0  0  0  0  0  0  0  0
    1.0891    1.3738   -6.4751 O   0  0  0  0  0  0  0  0  0  0  0  0
    1.9196   -0.8135   -5.7008 O   0  0  0  0  0  0  0  0  0  0  0  0
    4.6587    0.0672   -6.5678 F   0  0  0  0  0  0  0  0  0  0  0  0
    3.9329    1.9865   -7.2901 F   0  0  0  0  0  0  0  0  0  0  0  0
    3.7306    1.4710   -5.1842 F   0  0  0  0  0  0  0  0  0  0  0  0
  1  6  2  0  0  0  0
  1  2  1  0  0  0  0
  2  3  2  0  0  0  0
  3  4  1  0  0  0  0
  3 14  1  0  0  0  0
  4  9  1  0  0  0  0
  5 10  1  0  0  0  0
  5  4  2  0  0  0  0
  6  5  1  0  0  0  0
  7  1  1  0  0  0  0
  8  2  1  0  0  0  0
 11 12  2  0  0  0  0
 11  6  1  0  0  0  0
 13 11  2  0  0  0  0
 14 15  1  0  0  0  0
 16 19  2  0  0  0  0
 16 17  1  0  0  0  0
 16 20  1  0  0  0  0
 17 23  1  0  0  0  0
 18 16  2  0  0  0  0
 21 17  1  0  0  0  0
 22 17  1  0  0  0  0
M  RAD  3  14   2  15   3  20   2
M  END
