Coordinates from ORCA-job p-NO2-Ph-N2-OTf-B3LYPG-6-31G_dp-scan-d09-49-n400
 OpenBabel08281821413D

 23 22  0  0  0  0  0  0  0  0999 V2000
   -2.3369   -0.8676   -5.6325 C   0  0  0  0  0  0  0  0  0  0  0  0
   -1.0383   -0.5757   -5.2365 C   0  0  0  0  0  0  0  0  0  0  0  0
   -0.8278    0.6579   -4.6066 C   0  0  0  0  0  0  0  0  0  0  0  0
   -1.8288    1.6087   -4.3682 C   0  0  0  0  0  0  0  0  0  0  0  0
   -3.1172    1.2985   -4.7836 C   0  0  0  0  0  0  0  0  0  0  0  0
   -3.3442    0.0688   -5.3995 C   0  0  0  0  0  0  0  0  0  0  0  0
   -2.5750   -1.7994   -6.1295 H   0  0  0  0  0  0  0  0  0  0  0  0
   -0.1891   -1.2271   -5.4218 H   0  0  0  0  0  0  0  0  0  0  0  0
   -1.6005    2.5521   -3.8869 H   0  0  0  0  0  0  0  0  0  0  0  0
   -3.9408    1.9857   -4.6379 H   0  0  0  0  0  0  0  0  0  0  0  0
   -4.7262   -0.2550   -5.8284 N   0  0  0  0  0  0  0  0  0  0  0  0
   -5.5876    0.5944   -5.6213 O   0  0  0  0  0  0  0  0  0  0  0  0
   -4.9061   -1.3482   -6.3529 O   0  0  0  0  0  0  0  0  0  0  0  0
    0.4505    0.9489   -4.1254 N   0  0  0  0  0  0  0  0  0  0  0  0
    1.3855    1.1319   -3.5518 N   0  0  0  0  0  0  0  0  0  0  0  0
    2.0254    0.2126   -6.7343 S   0  0  0  0  0  0  0  0  0  0  0  0
    3.6808    1.0120   -6.4729 C   0  0  0  0  0  0  0  0  0  0  0  0
    2.0448   -0.3100   -8.1021 O   0  0  0  0  0  0  0  0  0  0  0  0
    1.0690    1.3433   -6.4824 O   0  0  0  0  0  0  0  0  0  0  0  0
    1.9611   -0.7876   -5.6272 O   0  0  0  0  0  0  0  0  0  0  0  0
    4.6667    0.1156   -6.5757 F   0  0  0  0  0  0  0  0  0  0  0  0
    3.8866    1.9869   -7.3644 F   0  0  0  0  0  0  0  0  0  0  0  0
    3.7276    1.5544   -5.2362 F   0  0  0  0  0  0  0  0  0  0  0  0
  1  6  2  0  0  0  0
  1  2  1  0  0  0  0
  2  3  2  0  0  0  0
  3  4  1  0  0  0  0
  3 14  1  0  0  0  0
  4  9  1  0  0  0  0
  5 10  1  0  0  0  0
  5  4  2  0  0  0  0
  6  5  1  0  0  0  0
  7  1  1  0  0  0  0
  8  2  1  0  0  0  0
 11 12  2  0  0  0  0
 11  6  1  0  0  0  0
 13 11  2  0  0  0  0
 14 15  1  0  0  0  0
 16 19  2  0  0  0  0
 16 17  1  0  0  0  0
 16 20  1  0  0  0  0
 17 23  1  0  0  0  0
 18 16  2  0  0  0  0
 21 17  1  0  0  0  0
 22 17  1  0  0  0  0
M  RAD  3  14   2  15   3  20   2
M  END
