Coordinates from ORCA-job p-NO2-Ph-N2-OTf-B3LYPG-6-31G_dp-scan-d09-49-n400
 OpenBabel08281821413D

 23 22  0  0  0  0  0  0  0  0999 V2000
   -2.2508   -0.7238   -5.6982 C   0  0  0  0  0  0  0  0  0  0  0  0
   -0.9727   -0.2007   -5.5164 C   0  0  0  0  0  0  0  0  0  0  0  0
   -0.8824    1.0308   -4.8645 C   0  0  0  0  0  0  0  0  0  0  0  0
   -1.9854    1.7680   -4.4022 C   0  0  0  0  0  0  0  0  0  0  0  0
   -3.2493    1.2352   -4.6129 C   0  0  0  0  0  0  0  0  0  0  0  0
   -3.3538   -0.0007   -5.2516 C   0  0  0  0  0  0  0  0  0  0  0  0
   -2.3961   -1.6758   -6.1925 H   0  0  0  0  0  0  0  0  0  0  0  0
   -0.0773   -0.7111   -5.8761 H   0  0  0  0  0  0  0  0  0  0  0  0
   -1.8512    2.7232   -3.9084 H   0  0  0  0  0  0  0  0  0  0  0  0
   -4.1440    1.7531   -4.2932 H   0  0  0  0  0  0  0  0  0  0  0  0
   -4.7099   -0.5647   -5.4641 N   0  0  0  0  0  0  0  0  0  0  0  0
   -5.6594    0.1035   -5.0657 O   0  0  0  0  0  0  0  0  0  0  0  0
   -4.7808   -1.6550   -6.0191 O   0  0  0  0  0  0  0  0  0  0  0  0
    0.3801    1.5924   -4.5736 N   0  0  0  0  0  0  0  0  0  0  0  0
    1.1341    2.1746   -3.9880 N   0  0  0  0  0  0  0  0  0  0  0  0
    2.1697    0.1871   -7.0923 S   0  0  0  0  0  0  0  0  0  0  0  0
    3.7073    0.5327   -6.1080 C   0  0  0  0  0  0  0  0  0  0  0  0
    2.5741    0.2738   -8.4952 O   0  0  0  0  0  0  0  0  0  0  0  0
    1.2614    1.3164   -6.6488 O   0  0  0  0  0  0  0  0  0  0  0  0
    1.7128   -1.1273   -6.5815 O   0  0  0  0  0  0  0  0  0  0  0  0
    4.5986   -0.4504   -6.2472 F   0  0  0  0  0  0  0  0  0  0  0  0
    4.2669    1.6868   -6.4841 F   0  0  0  0  0  0  0  0  0  0  0  0
    3.3875    0.6330   -4.7945 F   0  0  0  0  0  0  0  0  0  0  0  0
  1  2  2  0  0  0  0
  1  6  1  0  0  0  0
  2  3  1  0  0  0  0
  3 14  1  0  0  0  0
  3  4  2  0  0  0  0
  4  9  1  0  0  0  0
  5  4  1  0  0  0  0
  5 10  1  0  0  0  0
  6  5  2  0  0  0  0
  7  1  1  0  0  0  0
  8  2  1  0  0  0  0
 11  6  1  0  0  0  0
 11 12  2  0  0  0  0
 13 11  2  0  0  0  0
 14 15  1  0  0  0  0
 16 19  2  0  0  0  0
 16 20  1  0  0  0  0
 16 17  1  0  0  0  0
 17 23  1  0  0  0  0
 18 16  2  0  0  0  0
 21 17  1  0  0  0  0
 22 17  1  0  0  0  0
M  RAD  3  14   2  15   3  20   2
M  END
