Coordinates from ORCA-job p-NO2-Ph-N2-OTf-B3LYPG-6-31G_dp-scan-d09-49-n400
 OpenBabel08281821413D

 23 22  0  0  0  0  0  0  0  0999 V2000
   -2.3348   -0.8240   -5.6558 C   0  0  0  0  0  0  0  0  0  0  0  0
   -1.0497   -0.5527   -5.2073 C   0  0  0  0  0  0  0  0  0  0  0  0
   -0.8570    0.6541   -4.5163 C   0  0  0  0  0  0  0  0  0  0  0  0
   -1.8640    1.5945   -4.2662 C   0  0  0  0  0  0  0  0  0  0  0  0
   -3.1386    1.3077   -4.7376 C   0  0  0  0  0  0  0  0  0  0  0  0
   -3.3461    0.1065   -5.4141 C   0  0  0  0  0  0  0  0  0  0  0  0
   -2.5591   -1.7321   -6.2010 H   0  0  0  0  0  0  0  0  0  0  0  0
   -0.2008   -1.2048   -5.3880 H   0  0  0  0  0  0  0  0  0  0  0  0
   -1.6495    2.5137   -3.7341 H   0  0  0  0  0  0  0  0  0  0  0  0
   -3.9665    1.9888   -4.5889 H   0  0  0  0  0  0  0  0  0  0  0  0
   -4.7150   -0.1949   -5.9004 N   0  0  0  0  0  0  0  0  0  0  0  0
   -5.5800    0.6494   -5.6882 O   0  0  0  0  0  0  0  0  0  0  0  0
   -4.8803   -1.2663   -6.4722 O   0  0  0  0  0  0  0  0  0  0  0  0
    0.4145    0.8993   -4.0154 N   0  0  0  0  0  0  0  0  0  0  0  0
    1.4506    0.9453   -3.6095 N   0  0  0  0  0  0  0  0  0  0  0  0
    2.0758    0.1145   -6.7038 S   0  0  0  0  0  0  0  0  0  0  0  0
    3.6534    1.0807   -6.5442 C   0  0  0  0  0  0  0  0  0  0  0  0
    2.1496   -0.5570   -8.0037 O   0  0  0  0  0  0  0  0  0  0  0  0
    1.0213    1.1624   -6.5578 O   0  0  0  0  0  0  0  0  0  0  0  0
    2.1137   -0.7796   -5.5009 O   0  0  0  0  0  0  0  0  0  0  0  0
    4.7161    0.2697   -6.5491 F   0  0  0  0  0  0  0  0  0  0  0  0
    3.7764    1.9602   -7.5443 F   0  0  0  0  0  0  0  0  0  0  0  0
    3.6492    1.7655   -5.3793 F   0  0  0  0  0  0  0  0  0  0  0  0
  1  6  2  0  0  0  0
  1  2  1  0  0  0  0
  2  3  2  0  0  0  0
  3  4  1  0  0  0  0
  3 14  1  0  0  0  0
  4  9  1  0  0  0  0
  5 10  1  0  0  0  0
  5  4  2  0  0  0  0
  6  5  1  0  0  0  0
  7  1  1  0  0  0  0
  8  2  1  0  0  0  0
 11 12  2  0  0  0  0
 11  6  1  0  0  0  0
 13 11  2  0  0  0  0
 14 15  1  0  0  0  0
 16 19  2  0  0  0  0
 16 17  1  0  0  0  0
 16 20  1  0  0  0  0
 17 23  1  0  0  0  0
 18 16  2  0  0  0  0
 21 17  1  0  0  0  0
 22 17  1  0  0  0  0
M  RAD  3  14   2  15   3  20   2
M  END
