Coordinates from ORCA-job p-NO2-Ph-N2-OTf-B3LYPG-6-31G_dp-scan-d09-49-n400
 OpenBabel08281821413D

 23 22  0  0  0  0  0  0  0  0999 V2000
   -2.3019   -0.7936   -5.6641 C   0  0  0  0  0  0  0  0  0  0  0  0
   -1.0048   -0.3761   -5.3850 C   0  0  0  0  0  0  0  0  0  0  0  0
   -0.8617    0.8591   -4.7478 C   0  0  0  0  0  0  0  0  0  0  0  0
   -1.9264    1.7009   -4.3962 C   0  0  0  0  0  0  0  0  0  0  0  0
   -3.2113    1.2707   -4.7017 C   0  0  0  0  0  0  0  0  0  0  0  0
   -3.3712    0.0329   -5.3226 C   0  0  0  0  0  0  0  0  0  0  0  0
   -2.4905   -1.7406   -6.1533 H   0  0  0  0  0  0  0  0  0  0  0  0
   -0.1200   -0.9521   -5.6548 H   0  0  0  0  0  0  0  0  0  0  0  0
   -1.7500    2.6545   -3.9127 H   0  0  0  0  0  0  0  0  0  0  0  0
   -4.0808    1.8707   -4.4668 H   0  0  0  0  0  0  0  0  0  0  0  0
   -4.7486   -0.4204   -5.6342 N   0  0  0  0  0  0  0  0  0  0  0  0
   -5.6666    0.3352   -5.3289 O   0  0  0  0  0  0  0  0  0  0  0  0
   -4.8684   -1.5164   -6.1698 O   0  0  0  0  0  0  0  0  0  0  0  0
    0.4225    1.3006   -4.3663 N   0  0  0  0  0  0  0  0  0  0  0  0
    1.2263    1.7169   -3.7114 N   0  0  0  0  0  0  0  0  0  0  0  0
    2.1093    0.1691   -6.9249 S   0  0  0  0  0  0  0  0  0  0  0  0
    3.7481    0.7663   -6.2871 C   0  0  0  0  0  0  0  0  0  0  0  0
    2.2787    0.0187   -8.3703 O   0  0  0  0  0  0  0  0  0  0  0  0
    1.1836    1.2988   -6.5251 O   0  0  0  0  0  0  0  0  0  0  0  0
    1.8508   -1.0539   -6.1246 O   0  0  0  0  0  0  0  0  0  0  0  0
    4.6936   -0.1602   -6.4602 F   0  0  0  0  0  0  0  0  0  0  0  0
    4.1199    1.8907   -6.9067 F   0  0  0  0  0  0  0  0  0  0  0  0
    3.6486    1.0292   -4.9637 F   0  0  0  0  0  0  0  0  0  0  0  0
  1  2  2  0  0  0  0
  1  6  1  0  0  0  0
  2  3  1  0  0  0  0
  3  4  2  0  0  0  0
  3 14  1  0  0  0  0
  4  9  1  0  0  0  0
  5 10  1  0  0  0  0
  5  4  1  0  0  0  0
  6  5  2  0  0  0  0
  7  1  1  0  0  0  0
  8  2  1  0  0  0  0
 11 12  2  0  0  0  0
 11  6  1  0  0  0  0
 13 11  2  0  0  0  0
 14 15  1  0  0  0  0
 16 19  2  0  0  0  0
 16 17  1  0  0  0  0
 16 20  1  0  0  0  0
 17 23  1  0  0  0  0
 18 16  2  0  0  0  0
 21 17  1  0  0  0  0
 22 17  1  0  0  0  0
M  RAD  3  14   2  15   3  20   2
M  END
