Coordinates from ORCA-job p-NO2-Ph-N2-OTf-B3LYPG-6-31G_dp-scan-d09-49-n400
 OpenBabel08281821413D

 23 22  0  0  0  0  0  0  0  0999 V2000
   -2.3190   -0.8336   -5.6423 C   0  0  0  0  0  0  0  0  0  0  0  0
   -1.0176   -0.4710   -5.3152 C   0  0  0  0  0  0  0  0  0  0  0  0
   -0.8434    0.7680   -4.6910 C   0  0  0  0  0  0  0  0  0  0  0  0
   -1.8806    1.6635   -4.3977 C   0  0  0  0  0  0  0  0  0  0  0  0
   -3.1706    1.2855   -4.7481 C   0  0  0  0  0  0  0  0  0  0  0  0
   -3.3625    0.0458   -5.3557 C   0  0  0  0  0  0  0  0  0  0  0  0
   -2.5312   -1.7781   -6.1268 H   0  0  0  0  0  0  0  0  0  0  0  0
   -0.1463   -1.0814   -5.5443 H   0  0  0  0  0  0  0  0  0  0  0  0
   -1.6798    2.6169   -3.9236 H   0  0  0  0  0  0  0  0  0  0  0  0
   -4.0207    1.9277   -4.5575 H   0  0  0  0  0  0  0  0  0  0  0  0
   -4.7452   -0.3508   -5.7150 N   0  0  0  0  0  0  0  0  0  0  0  0
   -5.6392    0.4513   -5.4613 O   0  0  0  0  0  0  0  0  0  0  0  0
   -4.8936   -1.4509   -6.2350 O   0  0  0  0  0  0  0  0  0  0  0  0
    0.4425    1.1494   -4.2659 N   0  0  0  0  0  0  0  0  0  0  0  0
    1.2844    1.4778   -3.6117 N   0  0  0  0  0  0  0  0  0  0  0  0
    2.0684    0.1907   -6.8473 S   0  0  0  0  0  0  0  0  0  0  0  0
    3.7274    0.8731   -6.3656 C   0  0  0  0  0  0  0  0  0  0  0  0
    2.1565   -0.0922   -8.2803 O   0  0  0  0  0  0  0  0  0  0  0  0
    1.1384    1.3249   -6.4848 O   0  0  0  0  0  0  0  0  0  0  0  0
    1.8925   -0.9618   -5.9246 O   0  0  0  0  0  0  0  0  0  0  0  0
    4.6857   -0.0424   -6.5301 F   0  0  0  0  0  0  0  0  0  0  0  0
    4.0285    1.9543   -7.0916 F   0  0  0  0  0  0  0  0  0  0  0  0
    3.7046    1.2344   -5.0626 F   0  0  0  0  0  0  0  0  0  0  0  0
  1  6  2  0  0  0  0
  1  2  1  0  0  0  0
  2  3  2  0  0  0  0
  3  4  1  0  0  0  0
  3 14  1  0  0  0  0
  4  9  1  0  0  0  0
  5 10  1  0  0  0  0
  5  4  2  0  0  0  0
  6  5  1  0  0  0  0
  7  1  1  0  0  0  0
  8  2  1  0  0  0  0
 11 12  2  0  0  0  0
 11  6  1  0  0  0  0
 13 11  2  0  0  0  0
 14 15  1  0  0  0  0
 16 19  2  0  0  0  0
 16 17  1  0  0  0  0
 16 20  1  0  0  0  0
 17 23  1  0  0  0  0
 18 16  2  0  0  0  0
 21 17  1  0  0  0  0
 22 17  1  0  0  0  0
M  RAD  3  14   2  15   3  20   2
M  END
