Coordinates from ORCA-job p-NO2-Ph-N2-OTf-B3LYPG-6-31G_dp-scan-d09-49-n400
 OpenBabel08281821413D

 23 22  0  0  0  0  0  0  0  0999 V2000
   -2.2812   -0.7601   -5.6804 C   0  0  0  0  0  0  0  0  0  0  0  0
   -0.9911   -0.2929   -5.4466 C   0  0  0  0  0  0  0  0  0  0  0  0
   -0.8736    0.9405   -4.8021 C   0  0  0  0  0  0  0  0  0  0  0  0
   -1.9589    1.7331   -4.3982 C   0  0  0  0  0  0  0  0  0  0  0  0
   -3.2359    1.2549   -4.6599 C   0  0  0  0  0  0  0  0  0  0  0  0
   -3.3690    0.0180   -5.2897 C   0  0  0  0  0  0  0  0  0  0  0  0
   -2.4492   -1.7097   -6.1720 H   0  0  0  0  0  0  0  0  0  0  0  0
   -0.0996   -0.8390   -5.7574 H   0  0  0  0  0  0  0  0  0  0  0  0
   -1.8028    2.6873   -3.9090 H   0  0  0  0  0  0  0  0  0  0  0  0
   -4.1192    1.8166   -4.3850 H   0  0  0  0  0  0  0  0  0  0  0  0
   -4.7383   -0.4873   -5.5555 N   0  0  0  0  0  0  0  0  0  0  0  0
   -5.6734    0.2270   -5.2059 O   0  0  0  0  0  0  0  0  0  0  0  0
   -4.8343   -1.5805   -6.1013 O   0  0  0  0  0  0  0  0  0  0  0  0
    0.4030    1.4387   -4.4617 N   0  0  0  0  0  0  0  0  0  0  0  0
    1.1790    1.9374   -3.8303 N   0  0  0  0  0  0  0  0  0  0  0  0
    2.1397    0.1702   -7.0038 S   0  0  0  0  0  0  0  0  0  0  0  0
    3.7439    0.6600   -6.2057 C   0  0  0  0  0  0  0  0  0  0  0  0
    2.4070    0.1385   -8.4416 O   0  0  0  0  0  0  0  0  0  0  0  0
    1.2206    1.2972   -6.5773 O   0  0  0  0  0  0  0  0  0  0  0  0
    1.7937   -1.1060   -6.3325 O   0  0  0  0  0  0  0  0  0  0  0  0
    4.6676   -0.2894   -6.3694 F   0  0  0  0  0  0  0  0  0  0  0  0
    4.2018    1.8076   -6.7151 F   0  0  0  0  0  0  0  0  0  0  0  0
    3.5498    0.8390   -4.8777 F   0  0  0  0  0  0  0  0  0  0  0  0
  1  2  2  0  0  0  0
  1  6  1  0  0  0  0
  2  3  1  0  0  0  0
  3 14  1  0  0  0  0
  3  4  2  0  0  0  0
  4  9  1  0  0  0  0
  5  4  1  0  0  0  0
  5 10  1  0  0  0  0
  6  5  2  0  0  0  0
  7  1  1  0  0  0  0
  8  2  1  0  0  0  0
 11  6  1  0  0  0  0
 11 12  2  0  0  0  0
 13 11  2  0  0  0  0
 14 15  1  0  0  0  0
 16 19  2  0  0  0  0
 16 20  1  0  0  0  0
 16 17  1  0  0  0  0
 17 23  1  0  0  0  0
 18 16  2  0  0  0  0
 21 17  1  0  0  0  0
 22 17  1  0  0  0  0
M  RAD  3  14   2  15   3  20   2
M  END
