Coordinates from ORCA-job p-NO2-Ph-N2-OTf-B3LYPG-6-31G_dp-scan-d09-49-n400
 OpenBabel08281821413D

 23 22  0  0  0  0  0  0  0  0999 V2000
   -2.3337   -0.8694   -5.6258 C   0  0  0  0  0  0  0  0  0  0  0  0
   -1.0311   -0.5560   -5.2579 C   0  0  0  0  0  0  0  0  0  0  0  0
   -0.8260    0.6854   -4.6451 C   0  0  0  0  0  0  0  0  0  0  0  0
   -1.8350    1.6260   -4.3988 C   0  0  0  0  0  0  0  0  0  0  0  0
   -3.1269    1.2945   -4.7862 C   0  0  0  0  0  0  0  0  0  0  0  0
   -3.3493    0.0550   -5.3838 C   0  0  0  0  0  0  0  0  0  0  0  0
   -2.5682   -1.8103   -6.1071 H   0  0  0  0  0  0  0  0  0  0  0  0
   -0.1764   -1.1977   -5.4545 H   0  0  0  0  0  0  0  0  0  0  0  0
   -1.6108    2.5778   -3.9322 H   0  0  0  0  0  0  0  0  0  0  0  0
   -3.9562    1.9727   -4.6320 H   0  0  0  0  0  0  0  0  0  0  0  0
   -4.7347   -0.2920   -5.7819 N   0  0  0  0  0  0  0  0  0  0  0  0
   -5.6036    0.5479   -5.5670 O   0  0  0  0  0  0  0  0  0  0  0  0
   -4.9101   -1.3932   -6.2911 O   0  0  0  0  0  0  0  0  0  0  0  0
    0.4558    1.0101   -4.1800 N   0  0  0  0  0  0  0  0  0  0  0  0
    1.3442    1.2609   -3.5576 N   0  0  0  0  0  0  0  0  0  0  0  0
    2.0281    0.2304   -6.7790 S   0  0  0  0  0  0  0  0  0  0  0  0
    3.6985    0.9618   -6.4280 C   0  0  0  0  0  0  0  0  0  0  0  0
    2.0632   -0.1904   -8.1805 O   0  0  0  0  0  0  0  0  0  0  0  0
    1.0996    1.3748   -6.4714 O   0  0  0  0  0  0  0  0  0  0  0  0
    1.9078   -0.8390   -5.7467 O   0  0  0  0  0  0  0  0  0  0  0  0
    4.6599    0.0435   -6.5619 F   0  0  0  0  0  0  0  0  0  0  0  0
    3.9557    1.9830   -7.2511 F   0  0  0  0  0  0  0  0  0  0  0  0
    3.7284    1.4253   -5.1586 F   0  0  0  0  0  0  0  0  0  0  0  0
  1  6  2  0  0  0  0
  1  2  1  0  0  0  0
  2  3  2  0  0  0  0
  3  4  1  0  0  0  0
  3 14  1  0  0  0  0
  4  9  1  0  0  0  0
  5 10  1  0  0  0  0
  5  4  2  0  0  0  0
  6  5  1  0  0  0  0
  7  1  1  0  0  0  0
  8  2  1  0  0  0  0
 11 12  2  0  0  0  0
 11  6  1  0  0  0  0
 13 11  2  0  0  0  0
 14 15  1  0  0  0  0
 16 19  2  0  0  0  0
 16 17  1  0  0  0  0
 16 20  1  0  0  0  0
 17 23  1  0  0  0  0
 18 16  2  0  0  0  0
 21 17  1  0  0  0  0
 22 17  1  0  0  0  0
M  RAD  3  14   2  15   3  20   2
M  END
