Coordinates from ORCA-job p-NO2-Ph-N2-OTf-B3LYPG-6-31G_dp-scan-d09-49-n400
 OpenBabel08281821413D

 23 22  0  0  0  0  0  0  0  0999 V2000
   -2.0587   -0.6374   -5.6928 C   0  0  0  0  0  0  0  0  0  0  0  0
   -0.8507    0.0575   -5.6469 C   0  0  0  0  0  0  0  0  0  0  0  0
   -0.8656    1.3073   -5.0241 C   0  0  0  0  0  0  0  0  0  0  0  0
   -2.0133    1.8932   -4.4544 C   0  0  0  0  0  0  0  0  0  0  0  0
   -3.2037    1.1872   -4.5241 C   0  0  0  0  0  0  0  0  0  0  0  0
   -3.1999   -0.0656   -5.1403 C   0  0  0  0  0  0  0  0  0  0  0  0
   -2.1158   -1.6097   -6.1652 H   0  0  0  0  0  0  0  0  0  0  0  0
    0.0464   -0.3601   -6.1032 H   0  0  0  0  0  0  0  0  0  0  0  0
   -1.9649    2.8692   -3.9861 H   0  0  0  0  0  0  0  0  0  0  0  0
   -4.1240    1.5839   -4.1153 H   0  0  0  0  0  0  0  0  0  0  0  0
   -4.4795   -0.8154   -5.2077 N   0  0  0  0  0  0  0  0  0  0  0  0
   -5.4658   -0.2758   -4.7150 O   0  0  0  0  0  0  0  0  0  0  0  0
   -4.4546   -1.9148   -5.7475 O   0  0  0  0  0  0  0  0  0  0  0  0
    0.3074    2.0744   -4.8837 N   0  0  0  0  0  0  0  0  0  0  0  0
    0.9803    2.8675   -4.4752 N   0  0  0  0  0  0  0  0  0  0  0  0
    2.2309    0.3492   -7.3302 S   0  0  0  0  0  0  0  0  0  0  0  0
    3.3381    0.0758   -5.8624 C   0  0  0  0  0  0  0  0  0  0  0  0
    3.1194    0.6642   -8.4474 O   0  0  0  0  0  0  0  0  0  0  0  0
    1.4104    1.5241   -6.8435 O   0  0  0  0  0  0  0  0  0  0  0  0
    1.4462   -0.9077   -7.4024 O   0  0  0  0  0  0  0  0  0  0  0  0
    4.0537   -1.0428   -5.9832 F   0  0  0  0  0  0  0  0  0  0  0  0
    4.1713    1.1077   -5.6842 F   0  0  0  0  0  0  0  0  0  0  0  0
    2.5718   -0.0308   -4.7434 F   0  0  0  0  0  0  0  0  0  0  0  0
  1  2  2  0  0  0  0
  1  6  1  0  0  0  0
  2  3  1  0  0  0  0
  3 14  1  0  0  0  0
  3  4  2  0  0  0  0
  4  9  1  0  0  0  0
  5  4  1  0  0  0  0
  5 10  1  0  0  0  0
  6  5  2  0  0  0  0
  7  1  1  0  0  0  0
  8  2  1  0  0  0  0
 11  6  1  0  0  0  0
 11 12  2  0  0  0  0
 13 11  2  0  0  0  0
 14 15  1  0  0  0  0
 16 19  1  0  0  0  0
 16 17  1  0  0  0  0
 17 22  1  0  0  0  0
 17 23  1  0  0  0  0
 18 16  2  0  0  0  0
 20 16  2  0  0  0  0
 21 17  1  0  0  0  0
M  RAD  3  14   2  15   3  19   2
M  END
