Coordinates from ORCA-job p-NO2-Ph-N2-OTf-B3LYPG-6-31G_dp-scan-d09-49-n400
 OpenBabel08281821413D

 23 23  0  0  1  0  0  0  0  0999 V2000
   -1.2179   -0.4869   -5.3349 C   0  0  0  0  0  0  0  0  0  0  0  0
   -0.2970    0.6139   -4.8995 C   0  0  2  0  0  0  0  0  0  0  0  0
   -0.9649    2.0032   -4.6858 C   0  0  0  0  0  0  0  0  0  0  0  0
   -2.4298    2.0627   -4.8392 C   0  0  0  0  0  0  0  0  0  0  0  0
   -3.1810    1.0001   -5.1889 C   0  0  0  0  0  0  0  0  0  0  0  0
   -2.5381   -0.2797   -5.4369 C   0  0  0  0  0  0  0  0  0  0  0  0
   -0.7959   -1.4549   -5.5793 H   0  0  0  0  0  0  0  0  0  0  0  0
    0.1829    0.3186   -3.9550 H   0  0  0  0  0  0  0  0  0  0  0  0
   -2.8733    3.0393   -4.6770 H   0  0  0  0  0  0  0  0  0  0  0  0
   -4.2543    1.0632   -5.3147 H   0  0  0  0  0  0  0  0  0  0  0  0
   -3.3954   -1.4119   -5.8552 N   0  0  0  0  0  0  0  0  0  0  0  0
   -4.5965   -1.1828   -5.9845 O   0  0  0  0  0  0  0  0  0  0  0  0
   -2.8615   -2.5025   -6.0436 O   0  0  0  0  0  0  0  0  0  0  0  0
   -0.3173    3.0609   -4.4008 N   0  0  0  0  0  0  0  0  0  0  0  0
    1.4780    2.7056   -4.0664 N   0  0  0  0  0  0  0  0  0  0  0  0
    2.1875   -0.0365   -5.6097 S   0  0  2  0  0  0  0  0  0  0  0  0
    2.1710   -0.7971   -7.3346 C   0  0  0  0  0  0  0  0  0  0  0  0
    0.7427    0.7753   -5.9140 O   0  0  0  0  0  0  0  0  0  0  0  0
    3.2987    0.9458   -5.6190 O   0  0  0  0  0  0  0  0  0  0  0  0
    2.0237    3.4719   -4.2584 O   0  0  0  0  0  0  0  0  0  0  0  0
    1.1368   -1.6468   -7.4069 F   0  0  0  0  0  0  0  0  0  0  0  0
    2.0712    0.1210   -8.2875 F   0  0  0  0  0  0  0  0  0  0  0  0
    3.3094   -1.4813   -7.4865 F   0  0  0  0  0  0  0  0  0  0  0  0
  1  2  1  0  0  0  0
  2  3  1  0  0  0  0
  2  8  1  1  0  0  0
  3 14  1  0  0  0  0
  4  3  2  0  0  0  0
  4  9  1  0  0  0  0
  5  4  1  0  0  0  0
  6  1  2  0  0  0  0
  6  5  1  0  0  0  0
  7  1  1  0  0  0  0
 10  5  1  0  0  0  0
 11  6  1  0  0  0  0
 12 11  2  0  0  0  0
 13 11  2  0  0  0  0
 14 15  1  0  0  0  0
 16 17  1  6  0  0  0
 18 16  1  0  0  0  0
 18  2  1  0  0  0  0
 19 16  1  0  0  0  0
 20 15  1  0  0  0  0
 21 17  1  0  0  0  0
 22 17  1  0  0  0  0
 23 17  1  0  0  0  0
M  RAD  5   5   2  14   2  15   2  19   2  20   2
M  END
