Coordinates from ORCA-job p-NO2-Ph-N2-OTf-B3LYPG-6-31G_dp-scan-d09-49-n400
 OpenBabel08281821413D

 23 22  0  0  0  0  0  0  0  0999 V2000
   -2.3408   -0.8223   -5.6600 C   0  0  0  0  0  0  0  0  0  0  0  0
   -1.0551   -0.5517   -5.2131 C   0  0  0  0  0  0  0  0  0  0  0  0
   -0.8612    0.6525   -4.5179 C   0  0  0  0  0  0  0  0  0  0  0  0
   -1.8679    1.5918   -4.2635 C   0  0  0  0  0  0  0  0  0  0  0  0
   -3.1433    1.3064   -4.7335 C   0  0  0  0  0  0  0  0  0  0  0  0
   -3.3519    0.1072   -5.4134 C   0  0  0  0  0  0  0  0  0  0  0  0
   -2.5660   -1.7288   -6.2074 H   0  0  0  0  0  0  0  0  0  0  0  0
   -0.2070   -1.2041   -5.3963 H   0  0  0  0  0  0  0  0  0  0  0  0
   -1.6526    2.5094   -3.7288 H   0  0  0  0  0  0  0  0  0  0  0  0
   -3.9711    1.9868   -4.5811 H   0  0  0  0  0  0  0  0  0  0  0  0
   -4.7216   -0.1928   -5.8982 N   0  0  0  0  0  0  0  0  0  0  0  0
   -5.5864    0.6506   -5.6819 O   0  0  0  0  0  0  0  0  0  0  0  0
   -4.8876   -1.2624   -6.4735 O   0  0  0  0  0  0  0  0  0  0  0  0
    0.4118    0.8959   -4.0200 N   0  0  0  0  0  0  0  0  0  0  0  0
    1.4498    0.9339   -3.6175 N   0  0  0  0  0  0  0  0  0  0  0  0
    2.0863    0.1138   -6.6968 S   0  0  0  0  0  0  0  0  0  0  0  0
    3.6617    1.0851   -6.5481 C   0  0  0  0  0  0  0  0  0  0  0  0
    2.1621   -0.5745   -7.9878 O   0  0  0  0  0  0  0  0  0  0  0  0
    1.0286    1.1596   -6.5628 O   0  0  0  0  0  0  0  0  0  0  0  0
    2.1269   -0.7672   -5.4836 O   0  0  0  0  0  0  0  0  0  0  0  0
    4.7262    0.2765   -6.5511 F   0  0  0  0  0  0  0  0  0  0  0  0
    3.7793    1.9582   -7.5544 F   0  0  0  0  0  0  0  0  0  0  0  0
    3.6589    1.7772   -5.3877 F   0  0  0  0  0  0  0  0  0  0  0  0
  1  6  2  0  0  0  0
  1  2  1  0  0  0  0
  2  3  2  0  0  0  0
  3  4  1  0  0  0  0
  3 14  1  0  0  0  0
  4  9  1  0  0  0  0
  5 10  1  0  0  0  0
  5  4  2  0  0  0  0
  6  5  1  0  0  0  0
  7  1  1  0  0  0  0
  8  2  1  0  0  0  0
 11 12  2  0  0  0  0
 11  6  1  0  0  0  0
 13 11  2  0  0  0  0
 14 15  1  0  0  0  0
 16 19  2  0  0  0  0
 16 17  1  0  0  0  0
 16 20  1  0  0  0  0
 17 23  1  0  0  0  0
 18 16  2  0  0  0  0
 21 17  1  0  0  0  0
 22 17  1  0  0  0  0
M  RAD  3  14   2  15   3  20   2
M  END
