Coordinates from ORCA-job p-NO2-Ph-N2-OTf-B3LYPG-6-31G_dp-scan-d09-49-n400
 OpenBabel08281821413D

 23 22  0  0  0  0  0  0  0  0999 V2000
   -2.3333   -0.8686   -5.6262 C   0  0  0  0  0  0  0  0  0  0  0  0
   -1.0307   -0.5539   -5.2595 C   0  0  0  0  0  0  0  0  0  0  0  0
   -0.8263    0.6875   -4.6466 C   0  0  0  0  0  0  0  0  0  0  0  0
   -1.8361    1.6270   -4.3990 C   0  0  0  0  0  0  0  0  0  0  0  0
   -3.1280    1.2942   -4.7852 C   0  0  0  0  0  0  0  0  0  0  0  0
   -3.3497    0.0546   -5.3830 C   0  0  0  0  0  0  0  0  0  0  0  0
   -2.5673   -1.8097   -6.1074 H   0  0  0  0  0  0  0  0  0  0  0  0
   -0.1755   -1.1947   -5.4569 H   0  0  0  0  0  0  0  0  0  0  0  0
   -1.6125    2.5788   -3.9323 H   0  0  0  0  0  0  0  0  0  0  0  0
   -3.9580    1.9715   -4.6301 H   0  0  0  0  0  0  0  0  0  0  0  0
   -4.7351   -0.2938   -5.7798 N   0  0  0  0  0  0  0  0  0  0  0  0
   -5.6046    0.5452   -5.5640 O   0  0  0  0  0  0  0  0  0  0  0  0
   -4.9098   -1.3949   -6.2894 O   0  0  0  0  0  0  0  0  0  0  0  0
    0.4556    1.0139   -4.1826 N   0  0  0  0  0  0  0  0  0  0  0  0
    1.3422    1.2679   -3.5587 N   0  0  0  0  0  0  0  0  0  0  0  0
    2.0290    0.2297   -6.7811 S   0  0  0  0  0  0  0  0  0  0  0  0
    3.6994    0.9592   -6.4261 C   0  0  0  0  0  0  0  0  0  0  0  0
    2.0655   -0.1870   -8.1838 O   0  0  0  0  0  0  0  0  0  0  0  0
    1.1009    1.3742   -6.4717 O   0  0  0  0  0  0  0  0  0  0  0  0
    1.9067   -0.8424   -5.7519 O   0  0  0  0  0  0  0  0  0  0  0  0
    4.6603    0.0406   -6.5608 F   0  0  0  0  0  0  0  0  0  0  0  0
    3.9584    1.9821   -7.2465 F   0  0  0  0  0  0  0  0  0  0  0  0
    3.7279    1.4198   -5.1556 F   0  0  0  0  0  0  0  0  0  0  0  0
  1  6  2  0  0  0  0
  1  2  1  0  0  0  0
  2  3  2  0  0  0  0
  3  4  1  0  0  0  0
  3 14  1  0  0  0  0
  4  9  1  0  0  0  0
  5 10  1  0  0  0  0
  5  4  2  0  0  0  0
  6  5  1  0  0  0  0
  7  1  1  0  0  0  0
  8  2  1  0  0  0  0
 11 12  2  0  0  0  0
 11  6  1  0  0  0  0
 13 11  2  0  0  0  0
 14 15  1  0  0  0  0
 16 19  2  0  0  0  0
 16 17  1  0  0  0  0
 16 20  1  0  0  0  0
 17 23  1  0  0  0  0
 18 16  2  0  0  0  0
 21 17  1  0  0  0  0
 22 17  1  0  0  0  0
M  RAD  3  14   2  15   3  20   2
M  END
