Coordinates from ORCA-job p-NO2-Ph-N2-OTf-B3LYPG-6-31G_dp-scan-d09-49-n400
 OpenBabel08281821413D

 23 22  0  0  0  0  0  0  0  0999 V2000
   -2.2306   -0.7024   -5.7118 C   0  0  0  0  0  0  0  0  0  0  0  0
   -0.9606   -0.1496   -5.5603 C   0  0  0  0  0  0  0  0  0  0  0  0
   -0.8832    1.0799   -4.9031 C   0  0  0  0  0  0  0  0  0  0  0  0
   -1.9929    1.7850   -4.4055 C   0  0  0  0  0  0  0  0  0  0  0  0
   -3.2482    1.2226   -4.5855 C   0  0  0  0  0  0  0  0  0  0  0  0
   -3.3391   -0.0110   -5.2308 C   0  0  0  0  0  0  0  0  0  0  0  0
   -2.3647   -1.6546   -6.2090 H   0  0  0  0  0  0  0  0  0  0  0  0
   -0.0675   -0.6421   -5.9500 H   0  0  0  0  0  0  0  0  0  0  0  0
   -1.8694    2.7399   -3.9082 H   0  0  0  0  0  0  0  0  0  0  0  0
   -4.1466    1.7159   -4.2379 H   0  0  0  0  0  0  0  0  0  0  0  0
   -4.6860   -0.6073   -5.4121 N   0  0  0  0  0  0  0  0  0  0  0  0
   -5.6401    0.0315   -4.9779 O   0  0  0  0  0  0  0  0  0  0  0  0
   -4.7446   -1.6950   -5.9732 O   0  0  0  0  0  0  0  0  0  0  0  0
    0.3682    1.6799   -4.6421 N   0  0  0  0  0  0  0  0  0  0  0  0
    1.1043    2.3096   -4.0837 N   0  0  0  0  0  0  0  0  0  0  0  0
    2.1866    0.2005   -7.1392 S   0  0  0  0  0  0  0  0  0  0  0  0
    3.6698    0.4598   -6.0505 C   0  0  0  0  0  0  0  0  0  0  0  0
    2.6740    0.3445   -8.5104 O   0  0  0  0  0  0  0  0  0  0  0  0
    1.2830    1.3328   -6.6924 O   0  0  0  0  0  0  0  0  0  0  0  0
    1.6716   -1.1257   -6.7223 O   0  0  0  0  0  0  0  0  0  0  0  0
    4.5382   -0.5459   -6.1694 F   0  0  0  0  0  0  0  0  0  0  0  0
    4.2877    1.6078   -6.3468 F   0  0  0  0  0  0  0  0  0  0  0  0
    3.2697    0.5251   -4.7563 F   0  0  0  0  0  0  0  0  0  0  0  0
  1  2  2  0  0  0  0
  1  6  1  0  0  0  0
  2  3  1  0  0  0  0
  3 14  1  0  0  0  0
  3  4  2  0  0  0  0
  4  9  1  0  0  0  0
  5  4  1  0  0  0  0
  5 10  1  0  0  0  0
  6  5  2  0  0  0  0
  7  1  1  0  0  0  0
  8  2  1  0  0  0  0
 11  6  1  0  0  0  0
 11 12  2  0  0  0  0
 13 11  2  0  0  0  0
 14 15  1  0  0  0  0
 16 20  2  0  0  0  0
 16 19  1  0  0  0  0
 16 17  1  0  0  0  0
 17 23  1  0  0  0  0
 18 16  2  0  0  0  0
 21 17  1  0  0  0  0
 22 17  1  0  0  0  0
M  RAD  3  14   2  15   3  19   2
M  END
