Coordinates from ORCA-job p-NO2-Ph-N2-OTf-B3LYPG-6-31G_dp-scan-d09-49-n400
 OpenBabel08281821413D

 23 23  0  0  1  0  0  0  0  0999 V2000
   -1.2318   -0.4669   -5.5263 C   0  0  0  0  0  0  0  0  0  0  0  0
   -0.2645    0.5791   -5.0646 C   0  0  2  0  0  0  0  0  0  0  0  0
   -0.9120    1.8965   -4.6192 C   0  0  0  0  0  0  0  0  0  0  0  0
   -2.3463    2.0418   -4.6859 C   0  0  0  0  0  0  0  0  0  0  0  0
   -3.1391    1.0250   -5.1023 C   0  0  0  0  0  0  0  0  0  0  0  0
   -2.5536   -0.2340   -5.5144 C   0  0  0  0  0  0  0  0  0  0  0  0
   -0.8326   -1.4014   -5.8988 H   0  0  0  0  0  0  0  0  0  0  0  0
    0.2824    0.2072   -4.1794 H   0  0  0  0  0  0  0  0  0  0  0  0
   -2.7582    2.9994   -4.3883 H   0  0  0  0  0  0  0  0  0  0  0  0
   -4.2168    1.1223   -5.1493 H   0  0  0  0  0  0  0  0  0  0  0  0
   -3.4694   -1.2997   -5.9797 N   0  0  0  0  0  0  0  0  0  0  0  0
   -4.6696   -1.0347   -5.9870 O   0  0  0  0  0  0  0  0  0  0  0  0
   -2.9748   -2.3694   -6.3206 O   0  0  0  0  0  0  0  0  0  0  0  0
   -0.2111    2.8922   -4.1633 N   0  0  0  0  0  0  0  0  0  0  0  0
    1.1003    2.5972   -3.9023 N   0  0  0  0  0  0  0  0  0  0  0  0
    2.3029    0.4099   -5.8167 S   0  0  2  0  0  0  0  0  0  0  0  0
    2.2670   -0.9662   -7.1114 C   0  0  0  0  0  0  0  0  0  0  0  0
    0.6682    0.8126   -6.1385 O   0  0  0  0  0  0  0  0  0  0  0  0
    3.1555    1.4593   -6.4025 O   0  0  0  0  0  0  0  0  0  0  0  0
    1.8814    3.5758   -4.0509 O   0  0  0  0  0  0  0  0  0  0  0  0
    1.4221   -1.9248   -6.6819 F   0  0  0  0  0  0  0  0  0  0  0  0
    1.8838   -0.5355   -8.3052 F   0  0  0  0  0  0  0  0  0  0  0  0
    3.4955   -1.4846   -7.1897 F   0  0  0  0  0  0  0  0  0  0  0  0
  1  6  2  0  0  0  0
  1  2  1  0  0  0  0
  2  3  1  0  0  0  0
  2  8  1  1  0  0  0
  3 14  1  0  0  0  0
  4  3  2  0  0  0  0
  4  9  1  0  0  0  0
  5  4  1  0  0  0  0
  6  5  1  0  0  0  0
  7  1  1  0  0  0  0
 10  5  1  0  0  0  0
 11  6  1  0  0  0  0
 12 11  2  0  0  0  0
 13 11  2  0  0  0  0
 14 15  1  0  0  0  0
 16 17  1  6  0  0  0
 17 21  1  0  0  0  0
 18 16  1  0  0  0  0
 18  2  1  0  0  0  0
 19 16  1  0  0  0  0
 20 15  1  0  0  0  0
 22 17  1  0  0  0  0
 23 17  1  0  0  0  0
M  RAD  5   5   2  14   2  15   2  19   2  20   2
M  END
