Coordinates from ORCA-job p-NO2-Ph-N2-OTf-B3LYPG-6-31G_dp-scan-d09-49-n400
 OpenBabel08281821413D

 23 22  0  0  0  0  0  0  0  0999 V2000
   -2.3124   -0.8166   -5.6500 C   0  0  0  0  0  0  0  0  0  0  0  0
   -1.0120   -0.4304   -5.3450 C   0  0  0  0  0  0  0  0  0  0  0  0
   -0.8510    0.8076   -4.7168 C   0  0  0  0  0  0  0  0  0  0  0  0
   -1.9004    1.6807   -4.3995 C   0  0  0  0  0  0  0  0  0  0  0  0
   -3.1891    1.2805   -4.7297 C   0  0  0  0  0  0  0  0  0  0  0  0
   -3.3676    0.0406   -5.3407 C   0  0  0  0  0  0  0  0  0  0  0  0
   -2.5148   -1.7631   -6.1350 H   0  0  0  0  0  0  0  0  0  0  0  0
   -0.1360   -1.0277   -5.5923 H   0  0  0  0  0  0  0  0  0  0  0  0
   -1.7098    2.6349   -3.9227 H   0  0  0  0  0  0  0  0  0  0  0  0
   -4.0477    1.9055   -4.5208 H   0  0  0  0  0  0  0  0  0  0  0  0
   -4.7487   -0.3808   -5.6782 N   0  0  0  0  0  0  0  0  0  0  0  0
   -5.6533    0.4029   -5.4053 O   0  0  0  0  0  0  0  0  0  0  0  0
   -4.8847   -1.4797   -6.2041 O   0  0  0  0  0  0  0  0  0  0  0  0
    0.4348    1.2164   -4.3103 N   0  0  0  0  0  0  0  0  0  0  0  0
    1.2561    1.5843   -3.6497 N   0  0  0  0  0  0  0  0  0  0  0  0
    2.0882    0.1773   -6.8816 S   0  0  0  0  0  0  0  0  0  0  0  0
    3.7384    0.8280   -6.3312 C   0  0  0  0  0  0  0  0  0  0  0  0
    2.2083   -0.0408   -8.3234 O   0  0  0  0  0  0  0  0  0  0  0  0
    1.1577    1.3069   -6.4976 O   0  0  0  0  0  0  0  0  0  0  0  0
    1.8804   -1.0110   -6.0152 O   0  0  0  0  0  0  0  0  0  0  0  0
    4.6947   -0.0869   -6.5079 F   0  0  0  0  0  0  0  0  0  0  0  0
    4.0639    1.9352   -7.0056 F   0  0  0  0  0  0  0  0  0  0  0  0
    3.6844    1.1374   -5.0157 F   0  0  0  0  0  0  0  0  0  0  0  0
  1  2  2  0  0  0  0
  1  6  1  0  0  0  0
  2  3  1  0  0  0  0
  3  4  2  0  0  0  0
  3 14  1  0  0  0  0
  4  9  1  0  0  0  0
  5 10  1  0  0  0  0
  5  4  1  0  0  0  0
  6  5  2  0  0  0  0
  7  1  1  0  0  0  0
  8  2  1  0  0  0  0
 11 12  2  0  0  0  0
 11  6  1  0  0  0  0
 13 11  2  0  0  0  0
 14 15  1  0  0  0  0
 16 19  2  0  0  0  0
 16 17  1  0  0  0  0
 16 20  1  0  0  0  0
 17 23  1  0  0  0  0
 18 16  2  0  0  0  0
 21 17  1  0  0  0  0
 22 17  1  0  0  0  0
M  RAD  3  14   2  15   3  20   2
M  END
