Coordinates from ORCA-job p-NO2-Ph-N2-OTf-B3LYPG-6-31G_dp-scan-d09-49-n400
 OpenBabel08281821413D

 23 22  0  0  0  0  0  0  0  0999 V2000
   -2.3416   -0.7439   -5.7237 C   0  0  0  0  0  0  0  0  0  0  0  0
   -1.0690   -0.4497   -5.2499 C   0  0  0  0  0  0  0  0  0  0  0  0
   -0.9273    0.6995   -4.4568 C   0  0  0  0  0  0  0  0  0  0  0  0
   -1.9839    1.5546   -4.1235 C   0  0  0  0  0  0  0  0  0  0  0  0
   -3.2464    1.2522   -4.6171 C   0  0  0  0  0  0  0  0  0  0  0  0
   -3.3964    0.1094   -5.4017 C   0  0  0  0  0  0  0  0  0  0  0  0
   -2.5236   -1.6131   -6.3432 H   0  0  0  0  0  0  0  0  0  0  0  0
   -0.2010   -1.0599   -5.4727 H   0  0  0  0  0  0  0  0  0  0  0  0
   -1.8116    2.4291   -3.5066 H   0  0  0  0  0  0  0  0  0  0  0  0
   -4.1067    1.8736   -4.4054 H   0  0  0  0  0  0  0  0  0  0  0  0
   -4.7504   -0.2154   -5.9150 N   0  0  0  0  0  0  0  0  0  0  0  0
   -5.6587    0.5544   -5.6178 O   0  0  0  0  0  0  0  0  0  0  0  0
   -4.8633   -1.2351   -6.5858 O   0  0  0  0  0  0  0  0  0  0  0  0
    0.3401    0.9930   -3.9524 N   0  0  0  0  0  0  0  0  0  0  0  0
    1.4595    0.9116   -3.8330 N   0  0  0  0  0  0  0  0  0  0  0  0
    2.1481    0.1480   -6.6973 S   0  0  0  0  0  0  0  0  0  0  0  0
    3.7788    1.0318   -6.6056 C   0  0  0  0  0  0  0  0  0  0  0  0
    2.2472   -0.7686   -7.8345 O   0  0  0  0  0  0  0  0  0  0  0  0
    1.1406    1.2286   -6.7528 O   0  0  0  0  0  0  0  0  0  0  0  0
    2.1013   -0.5760   -5.3557 O   0  0  0  0  0  0  0  0  0  0  0  0
    4.7831    0.1604   -6.4776 F   0  0  0  0  0  0  0  0  0  0  0  0
    3.9729    1.7609   -7.7089 F   0  0  0  0  0  0  0  0  0  0  0  0
    3.7877    1.8558   -5.5410 F   0  0  0  0  0  0  0  0  0  0  0  0
  1  6  2  0  0  0  0
  1  2  1  0  0  0  0
  2  3  2  0  0  0  0
  3  4  1  0  0  0  0
  3 14  1  0  0  0  0
  4  9  1  0  0  0  0
  5 10  1  0  0  0  0
  5  4  2  0  0  0  0
  6  5  1  0  0  0  0
  7  1  1  0  0  0  0
  8  2  1  0  0  0  0
 11 12  2  0  0  0  0
 11  6  1  0  0  0  0
 13 11  2  0  0  0  0
 14 15  1  0  0  0  0
 16 17  1  0  0  0  0
 16 20  1  0  0  0  0
 17 21  1  0  0  0  0
 17 23  1  0  0  0  0
 18 16  2  0  0  0  0
 19 16  2  0  0  0  0
 22 17  1  0  0  0  0
M  RAD  3  14   2  15   3  20   2
M  END
