Coordinates from ORCA-job p-NO2-Ph-N2-OTf-B3LYPG-6-31G_dp-scan-d09-49-n400
 OpenBabel08281821413D

 23 22  0  0  0  0  0  0  0  0999 V2000
   -2.2396   -0.7122   -5.7050 C   0  0  0  0  0  0  0  0  0  0  0  0
   -0.9660   -0.1725   -5.5395 C   0  0  0  0  0  0  0  0  0  0  0  0
   -0.8833    1.0580   -4.8849 C   0  0  0  0  0  0  0  0  0  0  0  0
   -1.9904    1.7775   -4.4035 C   0  0  0  0  0  0  0  0  0  0  0  0
   -3.2496    1.2282   -4.5977 C   0  0  0  0  0  0  0  0  0  0  0  0
   -3.3461   -0.0066   -5.2399 C   0  0  0  0  0  0  0  0  0  0  0  0
   -2.3785   -1.6644   -6.2009 H   0  0  0  0  0  0  0  0  0  0  0  0
   -0.0711   -0.6724   -5.9155 H   0  0  0  0  0  0  0  0  0  0  0  0
   -1.8624    2.7326   -3.9078 H   0  0  0  0  0  0  0  0  0  0  0  0
   -4.1467    1.7325   -4.2630 H   0  0  0  0  0  0  0  0  0  0  0  0
   -4.6972   -0.5886   -5.4355 N   0  0  0  0  0  0  0  0  0  0  0  0
   -5.6499    0.0642   -5.0196 O   0  0  0  0  0  0  0  0  0  0  0  0
   -4.7611   -1.6769   -5.9951 O   0  0  0  0  0  0  0  0  0  0  0  0
    0.3733    1.6404   -4.6101 N   0  0  0  0  0  0  0  0  0  0  0  0
    1.1192    2.2480   -4.0403 N   0  0  0  0  0  0  0  0  0  0  0  0
    2.1785    0.1946   -7.1185 S   0  0  0  0  0  0  0  0  0  0  0  0
    3.6880    0.4927   -6.0769 C   0  0  0  0  0  0  0  0  0  0  0  0
    2.6280    0.3121   -8.5052 O   0  0  0  0  0  0  0  0  0  0  0  0
    1.2736    1.3259   -6.6732 O   0  0  0  0  0  0  0  0  0  0  0  0
    1.6886   -1.1265   -6.6579 O   0  0  0  0  0  0  0  0  0  0  0  0
    4.5665   -0.5031   -6.2050 F   0  0  0  0  0  0  0  0  0  0  0  0
    4.2805    1.6437   -6.4100 F   0  0  0  0  0  0  0  0  0  0  0  0
    3.3249    0.5737   -4.7730 F   0  0  0  0  0  0  0  0  0  0  0  0
  1  2  2  0  0  0  0
  1  6  1  0  0  0  0
  2  3  1  0  0  0  0
  3 14  1  0  0  0  0
  3  4  2  0  0  0  0
  4  9  1  0  0  0  0
  5  4  1  0  0  0  0
  5 10  1  0  0  0  0
  6  5  2  0  0  0  0
  7  1  1  0  0  0  0
  8  2  1  0  0  0  0
 11  6  1  0  0  0  0
 11 12  2  0  0  0  0
 13 11  2  0  0  0  0
 14 15  1  0  0  0  0
 16 19  2  0  0  0  0
 16 20  1  0  0  0  0
 16 17  1  0  0  0  0
 17 23  1  0  0  0  0
 18 16  2  0  0  0  0
 21 17  1  0  0  0  0
 22 17  1  0  0  0  0
M  RAD  3  14   2  15   3  20   2
M  END
