Coordinates from ORCA-job p-NO2-Ph-N2-OTf-B3LYPG-6-31G_dp-scan-d09-49-n400
 OpenBabel08281821413D

 23 22  0  0  0  0  0  0  0  0999 V2000
   -2.3360   -0.8709   -5.6295 C   0  0  0  0  0  0  0  0  0  0  0  0
   -1.0347   -0.5693   -5.2487 C   0  0  0  0  0  0  0  0  0  0  0  0
   -0.8249    0.6686   -4.6286 C   0  0  0  0  0  0  0  0  0  0  0  0
   -1.8292    1.6154   -4.3863 C   0  0  0  0  0  0  0  0  0  0  0  0
   -3.1200    1.2954   -4.7865 C   0  0  0  0  0  0  0  0  0  0  0  0
   -3.3464    0.0605   -5.3921 C   0  0  0  0  0  0  0  0  0  0  0  0
   -2.5735   -1.8076   -6.1176 H   0  0  0  0  0  0  0  0  0  0  0  0
   -0.1831   -1.2163   -5.4394 H   0  0  0  0  0  0  0  0  0  0  0  0
   -1.6016    2.5632   -3.9133 H   0  0  0  0  0  0  0  0  0  0  0  0
   -3.9457    1.9790   -4.6365 H   0  0  0  0  0  0  0  0  0  0  0  0
   -4.7308   -0.2741   -5.8041 N   0  0  0  0  0  0  0  0  0  0  0  0
   -5.5950    0.5717   -5.5936 O   0  0  0  0  0  0  0  0  0  0  0  0
   -4.9099   -1.3714   -6.3205 O   0  0  0  0  0  0  0  0  0  0  0  0
    0.4549    0.9767   -4.1546 N   0  0  0  0  0  0  0  0  0  0  0  0
    1.3636    1.1982   -3.5521 N   0  0  0  0  0  0  0  0  0  0  0  0
    2.0232    0.2282   -6.7544 S   0  0  0  0  0  0  0  0  0  0  0  0
    3.6905    0.9867   -6.4501 C   0  0  0  0  0  0  0  0  0  0  0  0
    2.0473   -0.2493   -8.1382 O   0  0  0  0  0  0  0  0  0  0  0  0
    1.0864    1.3715   -6.4778 O   0  0  0  0  0  0  0  0  0  0  0  0
    1.9260   -0.8036   -5.6801 O   0  0  0  0  0  0  0  0  0  0  0  0
    4.6598    0.0747   -6.5697 F   0  0  0  0  0  0  0  0  0  0  0  0
    3.9251    1.9845   -7.3081 F   0  0  0  0  0  0  0  0  0  0  0  0
    3.7330    1.4893   -5.1964 F   0  0  0  0  0  0  0  0  0  0  0  0
  1  6  2  0  0  0  0
  1  2  1  0  0  0  0
  2  3  2  0  0  0  0
  3  4  1  0  0  0  0
  3 14  1  0  0  0  0
  4  9  1  0  0  0  0
  5 10  1  0  0  0  0
  5  4  2  0  0  0  0
  6  5  1  0  0  0  0
  7  1  1  0  0  0  0
  8  2  1  0  0  0  0
 11 12  2  0  0  0  0
 11  6  1  0  0  0  0
 13 11  2  0  0  0  0
 14 15  1  0  0  0  0
 16 19  2  0  0  0  0
 16 17  1  0  0  0  0
 16 20  1  0  0  0  0
 17 23  1  0  0  0  0
 18 16  2  0  0  0  0
 21 17  1  0  0  0  0
 22 17  1  0  0  0  0
M  RAD  3  14   2  15   3  20   2
M  END
