Coordinates from ORCA-job p-NO2-Ph-N2-OTf-B3LYPG-6-31G_dp-scan-d09-49-n400
 OpenBabel08281821413D

 23 22  0  0  0  0  0  0  0  0999 V2000
   -2.5320   -0.6558   -5.8326 C   0  0  0  0  0  0  0  0  0  0  0  0
   -1.2767   -0.0769   -5.6762 C   0  0  0  0  0  0  0  0  0  0  0  0
   -1.1623    1.0278   -4.8140 C   0  0  0  0  0  0  0  0  0  0  0  0
   -2.2595    1.5515   -4.1151 C   0  0  0  0  0  0  0  0  0  0  0  0
   -3.5091    0.9680   -4.2811 C   0  0  0  0  0  0  0  0  0  0  0  0
   -3.6175   -0.1258   -5.1375 C   0  0  0  0  0  0  0  0  0  0  0  0
   -2.6797   -1.5089   -6.4828 H   0  0  0  0  0  0  0  0  0  0  0  0
   -0.4054   -0.4500   -6.1974 H   0  0  0  0  0  0  0  0  0  0  0  0
   -2.1196    2.4048   -3.4612 H   0  0  0  0  0  0  0  0  0  0  0  0
   -4.3871    1.3376   -3.7676 H   0  0  0  0  0  0  0  0  0  0  0  0
   -4.9480   -0.7538   -5.3153 N   0  0  0  0  0  0  0  0  0  0  0  0
   -5.8868   -0.2599   -4.6972 O   0  0  0  0  0  0  0  0  0  0  0  0
   -5.0157   -1.7212   -6.0666 O   0  0  0  0  0  0  0  0  0  0  0  0
    0.0626    1.6839   -4.5928 N   0  0  0  0  0  0  0  0  0  0  0  0
    1.1772    1.7264   -4.9123 N   0  0  0  0  0  0  0  0  0  0  0  0
    2.6810    0.8674   -7.1435 S   0  0  0  0  0  0  0  0  0  0  0  0
    4.1832    0.3724   -6.1633 C   0  0  0  0  0  0  0  0  0  0  0  0
    2.6452   -0.0011   -8.3147 O   0  0  0  0  0  0  0  0  0  0  0  0
    2.7433    2.3193   -7.2774 O   0  0  0  0  0  0  0  0  0  0  0  0
    1.5372    0.4290   -6.1551 O   0  0  0  0  0  0  0  0  0  0  0  0
    4.1709   -0.9426   -5.9313 F   0  0  0  0  0  0  0  0  0  0  0  0
    5.2827    0.6875   -6.8505 F   0  0  0  0  0  0  0  0  0  0  0  0
    4.1953    1.0215   -4.9927 F   0  0  0  0  0  0  0  0  0  0  0  0
  1  2  2  0  0  0  0
  1  6  1  0  0  0  0
  2  3  1  0  0  0  0
  3 14  1  0  0  0  0
  3  4  2  0  0  0  0
  4  9  1  0  0  0  0
  5  4  1  0  0  0  0
  5 10  1  0  0  0  0
  6  5  2  0  0  0  0
  7  1  1  0  0  0  0
  8  2  1  0  0  0  0
 11  6  1  0  0  0  0
 11 12  2  0  0  0  0
 13 11  2  0  0  0  0
 15 14  2  0  0  0  0
 16 17  1  0  0  0  0
 16 20  1  0  0  0  0
 17 21  1  0  0  0  0
 17 23  1  0  0  0  0
 18 16  2  0  0  0  0
 19 16  2  0  0  0  0
 22 17  1  0  0  0  0
M  RAD  2  15   2  20   2
M  END
