Coordinates from ORCA-job p-NO2-Ph-N2-OTf-B3LYPG-6-31G_dp-scan-d09-49-n400
 OpenBabel08281821413D

 23 22  0  0  0  0  0  0  0  0999 V2000
   -2.3375   -0.7543   -5.7113 C   0  0  0  0  0  0  0  0  0  0  0  0
   -1.0647   -0.4675   -5.2344 C   0  0  0  0  0  0  0  0  0  0  0  0
   -0.9173    0.6904   -4.4549 C   0  0  0  0  0  0  0  0  0  0  0  0
   -1.9649    1.5627   -4.1381 C   0  0  0  0  0  0  0  0  0  0  0  0
   -3.2273    1.2662   -4.6355 C   0  0  0  0  0  0  0  0  0  0  0  0
   -3.3846    0.1145   -5.4058 C   0  0  0  0  0  0  0  0  0  0  0  0
   -2.5253   -1.6288   -6.3216 H   0  0  0  0  0  0  0  0  0  0  0  0
   -0.1992   -1.0859   -5.4459 H   0  0  0  0  0  0  0  0  0  0  0  0
   -1.7870    2.4438   -3.5325 H   0  0  0  0  0  0  0  0  0  0  0  0
   -4.0823    1.8994   -4.4375 H   0  0  0  0  0  0  0  0  0  0  0  0
   -4.7396   -0.2026   -5.9222 N   0  0  0  0  0  0  0  0  0  0  0  0
   -5.6396    0.5843   -5.6452 O   0  0  0  0  0  0  0  0  0  0  0  0
   -4.8593   -1.2287   -6.5817 O   0  0  0  0  0  0  0  0  0  0  0  0
    0.3514    0.9686   -3.9510 N   0  0  0  0  0  0  0  0  0  0  0  0
    1.4628    0.9054   -3.7890 N   0  0  0  0  0  0  0  0  0  0  0  0
    2.1403    0.1205   -6.6961 S   0  0  0  0  0  0  0  0  0  0  0  0
    3.7450    1.0503   -6.6031 C   0  0  0  0  0  0  0  0  0  0  0  0
    2.2506   -0.7586   -7.8622 O   0  0  0  0  0  0  0  0  0  0  0  0
    1.1054    1.1796   -6.7206 O   0  0  0  0  0  0  0  0  0  0  0  0
    2.1254   -0.6288   -5.3743 O   0  0  0  0  0  0  0  0  0  0  0  0
    4.7774    0.2082   -6.5013 F   0  0  0  0  0  0  0  0  0  0  0  0
    3.9083    1.8082   -7.6922 F   0  0  0  0  0  0  0  0  0  0  0  0
    3.7412    1.8542   -5.5215 F   0  0  0  0  0  0  0  0  0  0  0  0
  1  6  2  0  0  0  0
  1  2  1  0  0  0  0
  2  3  2  0  0  0  0
  3  4  1  0  0  0  0
  3 14  1  0  0  0  0
  4  9  1  0  0  0  0
  5 10  1  0  0  0  0
  5  4  2  0  0  0  0
  6  5  1  0  0  0  0
  7  1  1  0  0  0  0
  8  2  1  0  0  0  0
 11 12  2  0  0  0  0
 11  6  1  0  0  0  0
 13 11  2  0  0  0  0
 14 15  1  0  0  0  0
 16 17  1  0  0  0  0
 16 20  1  0  0  0  0
 17 21  1  0  0  0  0
 17 23  1  0  0  0  0
 18 16  2  0  0  0  0
 19 16  2  0  0  0  0
 22 17  1  0  0  0  0
M  RAD  3  14   2  15   3  20   2
M  END
