Coordinates from ORCA-job p-NO2-Ph-N2-OTf-B3LYPG-6-31G_dp-scan-d09-49-n400
 OpenBabel08281821413D

 23 22  0  0  0  0  0  0  0  0999 V2000
   -2.0511   -0.6236   -5.6986 C   0  0  0  0  0  0  0  0  0  0  0  0
   -0.8533    0.0898   -5.6655 C   0  0  0  0  0  0  0  0  0  0  0  0
   -0.8800    1.3385   -5.0406 C   0  0  0  0  0  0  0  0  0  0  0  0
   -2.0306    1.9059   -4.4573 C   0  0  0  0  0  0  0  0  0  0  0  0
   -3.2105    1.1817   -4.5144 C   0  0  0  0  0  0  0  0  0  0  0  0
   -3.1943   -0.0702   -5.1324 C   0  0  0  0  0  0  0  0  0  0  0  0
   -2.0983   -1.5963   -6.1714 H   0  0  0  0  0  0  0  0  0  0  0  0
    0.0453   -0.3149   -6.1304 H   0  0  0  0  0  0  0  0  0  0  0  0
   -1.9918    2.8818   -3.9878 H   0  0  0  0  0  0  0  0  0  0  0  0
   -4.1320    1.5635   -4.0943 H   0  0  0  0  0  0  0  0  0  0  0  0
   -4.4631   -0.8395   -5.1861 N   0  0  0  0  0  0  0  0  0  0  0  0
   -5.4520   -0.3156   -4.6820 O   0  0  0  0  0  0  0  0  0  0  0  0
   -4.4270   -1.9384   -5.7264 O   0  0  0  0  0  0  0  0  0  0  0  0
    0.2812    2.1248   -4.9147 N   0  0  0  0  0  0  0  0  0  0  0  0
    0.9409    2.9380   -4.5243 N   0  0  0  0  0  0  0  0  0  0  0  0
    2.2499    0.3610   -7.3267 S   0  0  0  0  0  0  0  0  0  0  0  0
    3.3339    0.0263   -5.8545 C   0  0  0  0  0  0  0  0  0  0  0  0
    3.1579    0.6780   -8.4274 O   0  0  0  0  0  0  0  0  0  0  0  0
    1.4534    1.5455   -6.8220 O   0  0  0  0  0  0  0  0  0  0  0  0
    1.4330   -0.8728   -7.4340 O   0  0  0  0  0  0  0  0  0  0  0  0
    4.0246   -1.1057   -5.9969 F   0  0  0  0  0  0  0  0  0  0  0  0
    4.1896    1.0332   -5.6431 F   0  0  0  0  0  0  0  0  0  0  0  0
    2.5536   -0.0900   -4.7475 F   0  0  0  0  0  0  0  0  0  0  0  0
  1  2  2  0  0  0  0
  1  6  1  0  0  0  0
  2  3  1  0  0  0  0
  3 14  1  0  0  0  0
  3  4  2  0  0  0  0
  4  9  1  0  0  0  0
  5  4  1  0  0  0  0
  5 10  1  0  0  0  0
  6  5  2  0  0  0  0
  7  1  1  0  0  0  0
  8  2  1  0  0  0  0
 11  6  1  0  0  0  0
 11 12  2  0  0  0  0
 13 11  2  0  0  0  0
 14 15  1  0  0  0  0
 16 19  1  0  0  0  0
 16 17  1  0  0  0  0
 17 22  1  0  0  0  0
 17 23  1  0  0  0  0
 18 16  2  0  0  0  0
 20 16  2  0  0  0  0
 21 17  1  0  0  0  0
M  RAD  3  14   2  15   3  19   2
M  END
