Coordinates from ORCA-job p-NO2-Ph-N2-OTf-B3LYPG-6-31G_dp-scan-d09-49-n400
 OpenBabel08281821413D

 23 22  0  0  0  0  0  0  0  0999 V2000
   -2.1094   -0.6677   -5.6816 C   0  0  0  0  0  0  0  0  0  0  0  0
   -0.8779   -0.0193   -5.6001 C   0  0  0  0  0  0  0  0  0  0  0  0
   -0.8648    1.2312   -4.9789 C   0  0  0  0  0  0  0  0  0  0  0  0
   -2.0045    1.8638   -4.4467 C   0  0  0  0  0  0  0  0  0  0  0  0
   -3.2191    1.2046   -4.5539 C   0  0  0  0  0  0  0  0  0  0  0  0
   -3.2444   -0.0494   -5.1665 C   0  0  0  0  0  0  0  0  0  0  0  0
   -2.1906   -1.6386   -6.1532 H   0  0  0  0  0  0  0  0  0  0  0  0
    0.0201   -0.4667   -6.0286 H   0  0  0  0  0  0  0  0  0  0  0  0
   -1.9324    2.8387   -3.9790 H   0  0  0  0  0  0  0  0  0  0  0  0
   -4.1359    1.6383   -4.1760 H   0  0  0  0  0  0  0  0  0  0  0  0
   -4.5495   -0.7488   -5.2729 N   0  0  0  0  0  0  0  0  0  0  0  0
   -5.5293   -0.1695   -4.8133 O   0  0  0  0  0  0  0  0  0  0  0  0
   -4.5507   -1.8504   -5.8091 O   0  0  0  0  0  0  0  0  0  0  0  0
    0.3375    1.9430   -4.7975 N   0  0  0  0  0  0  0  0  0  0  0  0
    1.0427    2.6815   -4.3439 N   0  0  0  0  0  0  0  0  0  0  0  0
    2.2027    0.3095   -7.2927 S   0  0  0  0  0  0  0  0  0  0  0  0
    3.4445    0.1992   -5.9143 C   0  0  0  0  0  0  0  0  0  0  0  0
    2.9735    0.6024   -8.4998 O   0  0  0  0  0  0  0  0  0  0  0  0
    1.3486    1.4626   -6.8120 O   0  0  0  0  0  0  0  0  0  0  0  0
    1.4949   -0.9920   -7.2234 O   0  0  0  0  0  0  0  0  0  0  0  0
    4.2238   -0.8757   -6.0368 F   0  0  0  0  0  0  0  0  0  0  0  0
    4.2148    1.2924   -5.8692 F   0  0  0  0  0  0  0  0  0  0  0  0
    2.7847    0.1119   -4.7290 F   0  0  0  0  0  0  0  0  0  0  0  0
  1  2  2  0  0  0  0
  1  6  1  0  0  0  0
  2  3  1  0  0  0  0
  3 14  1  0  0  0  0
  3  4  2  0  0  0  0
  4  9  1  0  0  0  0
  5  4  1  0  0  0  0
  5 10  1  0  0  0  0
  6  5  2  0  0  0  0
  7  1  1  0  0  0  0
  8  2  1  0  0  0  0
 11  6  1  0  0  0  0
 11 12  2  0  0  0  0
 13 11  2  0  0  0  0
 14 15  1  0  0  0  0
 16 20  2  0  0  0  0
 16 19  1  0  0  0  0
 16 17  1  0  0  0  0
 17 22  1  0  0  0  0
 17 23  1  0  0  0  0
 18 16  2  0  0  0  0
 21 17  1  0  0  0  0
M  RAD  3  14   2  15   3  19   2
M  END
