Coordinates from ORCA-job p-NO2-Ph-N2-OTf-B3LYPG-6-31G_dp-scan-d09-49-n400
 OpenBabel08281821413D

 23 22  0  0  1  0  0  0  0  0999 V2000
   -1.2331   -0.5023   -5.3003 C   0  0  0  0  0  0  0  0  0  0  0  0
   -0.3133    0.6015   -4.8710 C   0  0  2  0  0  0  0  0  0  0  0  0
   -0.9727    2.0038   -4.6984 C   0  0  0  0  0  0  0  0  0  0  0  0
   -2.4391    2.0603   -4.8599 C   0  0  0  0  0  0  0  0  0  0  0  0
   -3.1930    0.9950   -5.1951 C   0  0  0  0  0  0  0  0  0  0  0  0
   -2.5515   -0.2904   -5.4172 C   0  0  0  0  0  0  0  0  0  0  0  0
   -0.8166   -1.4782   -5.5226 H   0  0  0  0  0  0  0  0  0  0  0  0
    0.1526    0.3226   -3.9146 H   0  0  0  0  0  0  0  0  0  0  0  0
   -2.8798    3.0418   -4.7198 H   0  0  0  0  0  0  0  0  0  0  0  0
   -4.2652    1.0589   -5.3295 H   0  0  0  0  0  0  0  0  0  0  0  0
   -3.4089   -1.4269   -5.8248 N   0  0  0  0  0  0  0  0  0  0  0  0
   -4.6084   -1.1972   -5.9673 O   0  0  0  0  0  0  0  0  0  0  0  0
   -2.8770   -2.5220   -5.9937 O   0  0  0  0  0  0  0  0  0  0  0  0
   -0.3166    3.0612   -4.4439 N   0  0  0  0  0  0  0  0  0  0  0  0
    1.5494    2.7305   -4.1176 N   0  0  0  0  0  0  0  0  0  0  0  0
    2.1512   -0.1306   -5.5788 S   0  0  2  0  0  0  0  0  0  0  0  0
    2.1895   -0.7334   -7.3643 C   0  0  0  0  0  0  0  0  0  0  0  0
    0.7466    0.7439   -5.8729 O   0  0  0  0  0  0  0  0  0  0  0  0
    3.2854    0.8198   -5.4532 O   0  0  0  0  0  0  0  0  0  0  0  0
    2.0663    3.4444   -4.4147 O   0  0  0  0  0  0  0  0  0  0  0  0
    1.1421   -1.5443   -7.5558 F   0  0  0  0  0  0  0  0  0  0  0  0
    2.1524    0.2716   -8.2310 F   0  0  0  0  0  0  0  0  0  0  0  0
    3.3190   -1.4289   -7.5318 F   0  0  0  0  0  0  0  0  0  0  0  0
  1  2  1  0  0  0  0
  2  3  1  0  0  0  0
  2  8  1  1  0  0  0
  3 14  2  0  0  0  0
  4  9  1  0  0  0  0
  4  3  1  0  0  0  0
  5  4  2  0  0  0  0
  6  1  2  0  0  0  0
  6  5  1  0  0  0  0
  7  1  1  0  0  0  0
 10  5  1  0  0  0  0
 11  6  1  0  0  0  0
 12 11  2  0  0  0  0
 13 11  2  0  0  0  0
 16 17  1  6  0  0  0
 16 19  1  0  0  0  0
 18 16  1  0  0  0  0
 18  2  1  0  0  0  0
 20 15  2  0  0  0  0
 21 17  1  0  0  0  0
 22 17  1  0  0  0  0
 23 17  1  0  0  0  0
M  RAD  3  14   2  15   2  19   2
M  END
