Coordinates from ORCA-job p-NO2-Ph-N2-OTf-B3LYPG-6-31G_dp-scan-d09-49-n400
 OpenBabel08281821413D

 23 23  0  0  1  0  0  0  0  0999 V2000
   -1.2359   -0.4984   -5.5319 C   0  0  0  0  0  0  0  0  0  0  0  0
   -0.2441    0.5326   -5.0826 C   0  0  2  0  0  0  0  0  0  0  0  0
   -0.8877    1.8028   -4.5180 C   0  0  0  0  0  0  0  0  0  0  0  0
   -2.3068    2.0370   -4.6814 C   0  0  0  0  0  0  0  0  0  0  0  0
   -3.1080    1.0664   -5.1738 C   0  0  0  0  0  0  0  0  0  0  0  0
   -2.5459   -0.2138   -5.5676 C   0  0  0  0  0  0  0  0  0  0  0  0
   -0.8596   -1.4512   -5.8802 H   0  0  0  0  0  0  0  0  0  0  0  0
    0.4060    0.1172   -4.2950 H   0  0  0  0  0  0  0  0  0  0  0  0
   -2.6979    3.0000   -4.3741 H   0  0  0  0  0  0  0  0  0  0  0  0
   -4.1753    1.2073   -5.2879 H   0  0  0  0  0  0  0  0  0  0  0  0
   -3.4833   -1.2505   -6.0577 N   0  0  0  0  0  0  0  0  0  0  0  0
   -4.6726   -0.9442   -6.1046 O   0  0  0  0  0  0  0  0  0  0  0  0
   -3.0159   -2.3385   -6.3779 O   0  0  0  0  0  0  0  0  0  0  0  0
   -0.1575    2.6747   -3.9129 N   0  0  0  0  0  0  0  0  0  0  0  0
    1.0389    2.5456   -3.4493 N   0  0  0  0  0  0  0  0  0  0  0  0
    2.2501    0.7642   -6.1005 S   0  0  2  0  0  0  0  0  0  0  0  0
    2.2875   -0.9266   -6.9457 C   0  0  0  0  0  0  0  0  0  0  0  0
    0.5423    0.8665   -6.2498 O   0  0  0  0  0  0  0  0  0  0  0  0
    2.8119    1.6932   -7.0948 O   0  0  0  0  0  0  0  0  0  0  0  0
    2.0188    3.2453   -4.1464 O   0  0  0  0  0  0  0  0  0  0  0  0
    1.6074   -1.7962   -6.1666 F   0  0  0  0  0  0  0  0  0  0  0  0
    1.7483   -0.9032   -8.1567 F   0  0  0  0  0  0  0  0  0  0  0  0
    3.5585   -1.3289   -7.0227 F   0  0  0  0  0  0  0  0  0  0  0  0
  1  2  1  0  0  0  0
  2  3  1  0  0  0  0
  2  8  1  1  0  0  0
  3 14  1  0  0  0  0
  4  3  2  0  0  0  0
  4  9  1  0  0  0  0
  5  4  1  0  0  0  0
  6  1  2  0  0  0  0
  6  5  1  0  0  0  0
  7  1  1  0  0  0  0
 10  5  1  0  0  0  0
 11  6  1  0  0  0  0
 12 11  2  0  0  0  0
 13 11  2  0  0  0  0
 14 15  1  0  0  0  0
 16 19  1  6  0  0  0
 17 21  1  0  0  0  0
 17 16  1  0  0  0  0
 18 16  1  0  0  0  0
 18  2  1  0  0  0  0
 20 15  1  0  0  0  0
 22 17  1  0  0  0  0
 23 17  1  0  0  0  0
M  RAD  5   5   2  14   2  15   2  19   2  20   2
M  END
