Coordinates from ORCA-job p-NO2-Ph-N2-OTf-B3LYPG-6-31G_dp-scan-d09-49-n400
 OpenBabel08281821413D

 23 22  0  0  0  0  0  0  0  0999 V2000
   -2.3373   -0.8698   -5.6327 C   0  0  0  0  0  0  0  0  0  0  0  0
   -1.0364   -0.5701   -5.2491 C   0  0  0  0  0  0  0  0  0  0  0  0
   -0.8267    0.6659   -4.6251 C   0  0  0  0  0  0  0  0  0  0  0  0
   -1.8307    1.6125   -4.3808 C   0  0  0  0  0  0  0  0  0  0  0  0
   -3.1211    1.2946   -4.7837 C   0  0  0  0  0  0  0  0  0  0  0  0
   -3.3473    0.0617   -5.3937 C   0  0  0  0  0  0  0  0  0  0  0  0
   -2.5749   -1.8047   -6.1241 H   0  0  0  0  0  0  0  0  0  0  0  0
   -0.1849   -1.2171   -5.4398 H   0  0  0  0  0  0  0  0  0  0  0  0
   -1.6032    2.5587   -3.9046 H   0  0  0  0  0  0  0  0  0  0  0  0
   -3.9467    1.9781   -4.6328 H   0  0  0  0  0  0  0  0  0  0  0  0
   -4.7315   -0.2707   -5.8088 N   0  0  0  0  0  0  0  0  0  0  0  0
   -5.5955    0.5749   -5.5964 O   0  0  0  0  0  0  0  0  0  0  0  0
   -4.9105   -1.3663   -6.3285 O   0  0  0  0  0  0  0  0  0  0  0  0
    0.4528    0.9704   -4.1497 N   0  0  0  0  0  0  0  0  0  0  0  0
    1.3679    1.1873   -3.5557 N   0  0  0  0  0  0  0  0  0  0  0  0
    2.0248    0.2273   -6.7476 S   0  0  0  0  0  0  0  0  0  0  0  0
    3.6920    0.9910   -6.4558 C   0  0  0  0  0  0  0  0  0  0  0  0
    2.0466   -0.2668   -8.1257 O   0  0  0  0  0  0  0  0  0  0  0  0
    1.0871    1.3713   -6.4809 O   0  0  0  0  0  0  0  0  0  0  0  0
    1.9321   -0.7929   -5.6614 O   0  0  0  0  0  0  0  0  0  0  0  0
    4.6623    0.0793   -6.5700 F   0  0  0  0  0  0  0  0  0  0  0  0
    3.9224    1.9809   -7.3242 F   0  0  0  0  0  0  0  0  0  0  0  0
    3.7378    1.5056   -5.2072 F   0  0  0  0  0  0  0  0  0  0  0  0
  1  6  2  0  0  0  0
  1  2  1  0  0  0  0
  2  3  2  0  0  0  0
  3  4  1  0  0  0  0
  3 14  1  0  0  0  0
  4  9  1  0  0  0  0
  5 10  1  0  0  0  0
  5  4  2  0  0  0  0
  6  5  1  0  0  0  0
  7  1  1  0  0  0  0
  8  2  1  0  0  0  0
 11 12  2  0  0  0  0
 11  6  1  0  0  0  0
 13 11  2  0  0  0  0
 14 15  1  0  0  0  0
 16 19  2  0  0  0  0
 16 17  1  0  0  0  0
 16 20  1  0  0  0  0
 17 23  1  0  0  0  0
 18 16  2  0  0  0  0
 21 17  1  0  0  0  0
 22 17  1  0  0  0  0
M  RAD  3  14   2  15   3  20   2
M  END
