Coordinates from ORCA-job p-NO2-Ph-N2-OTf-B3LYPG-6-31G_dp-scan-d09-49-n400
 OpenBabel08281821413D

 23 22  0  0  0  0  0  0  0  0999 V2000
   -2.3603   -0.7293   -5.7459 C   0  0  0  0  0  0  0  0  0  0  0  0
   -1.0876   -0.4012   -5.2931 C   0  0  0  0  0  0  0  0  0  0  0  0
   -0.9597    0.7324   -4.4753 C   0  0  0  0  0  0  0  0  0  0  0  0
   -2.0443    1.5330   -4.0970 C   0  0  0  0  0  0  0  0  0  0  0  0
   -3.3086    1.2004   -4.5665 C   0  0  0  0  0  0  0  0  0  0  0  0
   -3.4381    0.0749   -5.3783 C   0  0  0  0  0  0  0  0  0  0  0  0
   -2.5259   -1.5905   -6.3811 H   0  0  0  0  0  0  0  0  0  0  0  0
   -0.2117   -0.9834   -5.5514 H   0  0  0  0  0  0  0  0  0  0  0  0
   -1.8876    2.3955   -3.4594 H   0  0  0  0  0  0  0  0  0  0  0  0
   -4.1842    1.7846   -4.3155 H   0  0  0  0  0  0  0  0  0  0  0  0
   -4.7903   -0.2860   -5.8692 N   0  0  0  0  0  0  0  0  0  0  0  0
   -5.7194    0.4422   -5.5326 O   0  0  0  0  0  0  0  0  0  0  0  0
   -4.8819   -1.2867   -6.5718 O   0  0  0  0  0  0  0  0  0  0  0  0
    0.2998    1.0939   -3.9775 N   0  0  0  0  0  0  0  0  0  0  0  0
    1.4370    0.9857   -3.9864 N   0  0  0  0  0  0  0  0  0  0  0  0
    2.1704    0.2884   -6.7231 S   0  0  0  0  0  0  0  0  0  0  0  0
    3.9056    0.9403   -6.5937 C   0  0  0  0  0  0  0  0  0  0  0  0
    2.1824   -0.7073   -7.7936 O   0  0  0  0  0  0  0  0  0  0  0  0
    1.3110    1.4755   -6.8468 O   0  0  0  0  0  0  0  0  0  0  0  0
    1.9855   -0.3820   -5.3427 O   0  0  0  0  0  0  0  0  0  0  0  0
    4.7693   -0.0614   -6.4164 F   0  0  0  0  0  0  0  0  0  0  0  0
    4.2236    1.6017   -7.7100 F   0  0  0  0  0  0  0  0  0  0  0  0
    3.9943    1.7803   -5.5510 F   0  0  0  0  0  0  0  0  0  0  0  0
  1  6  2  0  0  0  0
  1  2  1  0  0  0  0
  2  3  2  0  0  0  0
  3  4  1  0  0  0  0
  3 14  1  0  0  0  0
  4  9  1  0  0  0  0
  5 10  1  0  0  0  0
  5  4  2  0  0  0  0
  6  5  1  0  0  0  0
  7  1  1  0  0  0  0
  8  2  1  0  0  0  0
 11 12  2  0  0  0  0
 11  6  1  0  0  0  0
 13 11  2  0  0  0  0
 15 14  2  0  0  0  0
 16 17  1  0  0  0  0
 16 20  1  0  0  0  0
 17 21  1  0  0  0  0
 17 23  1  0  0  0  0
 18 16  2  0  0  0  0
 19 16  2  0  0  0  0
 22 17  1  0  0  0  0
M  RAD  2  15   2  20   2
M  END
