Coordinates from ORCA-job p-NO2-Ph-N2-OTf-B3LYPG-6-31G_dp-scan-d09-49-n400
 OpenBabel08281821413D

 23 22  0  0  0  0  0  0  0  0999 V2000
   -2.3266   -0.8557   -5.6302 C   0  0  0  0  0  0  0  0  0  0  0  0
   -1.0241   -0.5216   -5.2795 C   0  0  0  0  0  0  0  0  0  0  0  0
   -0.8322    0.7199   -4.6639 C   0  0  0  0  0  0  0  0  0  0  0  0
   -1.8534    1.6427   -4.4010 C   0  0  0  0  0  0  0  0  0  0  0  0
   -3.1448    1.2914   -4.7727 C   0  0  0  0  0  0  0  0  0  0  0  0
   -3.3544    0.0506   -5.3719 C   0  0  0  0  0  0  0  0  0  0  0  0
   -2.5517   -1.7990   -6.1113 H   0  0  0  0  0  0  0  0  0  0  0  0
   -0.1625   -1.1507   -5.4899 H   0  0  0  0  0  0  0  0  0  0  0  0
   -1.6392    2.5962   -3.9330 H   0  0  0  0  0  0  0  0  0  0  0  0
   -3.9831    1.9553   -4.6051 H   0  0  0  0  0  0  0  0  0  0  0  0
   -4.7389   -0.3177   -5.7536 N   0  0  0  0  0  0  0  0  0  0  0  0
   -5.6186    0.5072   -5.5249 O   0  0  0  0  0  0  0  0  0  0  0  0
   -4.9028   -1.4196   -6.2651 O   0  0  0  0  0  0  0  0  0  0  0  0
    0.4511    1.0708   -4.2144 N   0  0  0  0  0  0  0  0  0  0  0  0
    1.3147    1.3575   -3.5708 N   0  0  0  0  0  0  0  0  0  0  0  0
    2.0435    0.2146   -6.8101 S   0  0  0  0  0  0  0  0  0  0  0  0
    3.7110    0.9230   -6.4016 C   0  0  0  0  0  0  0  0  0  0  0  0
    2.0972   -0.1380   -8.2295 O   0  0  0  0  0  0  0  0  0  0  0  0
    1.1163    1.3551   -6.4705 O   0  0  0  0  0  0  0  0  0  0  0  0
    1.9002   -0.8977   -5.8306 O   0  0  0  0  0  0  0  0  0  0  0  0
    4.6691    0.0042   -6.5504 F   0  0  0  0  0  0  0  0  0  0  0  0
    3.9891    1.9717   -7.1823 F   0  0  0  0  0  0  0  0  0  0  0  0
    3.7195    1.3410   -5.1159 F   0  0  0  0  0  0  0  0  0  0  0  0
  1  6  2  0  0  0  0
  1  2  1  0  0  0  0
  2  3  2  0  0  0  0
  3  4  1  0  0  0  0
  3 14  1  0  0  0  0
  4  9  1  0  0  0  0
  5 10  1  0  0  0  0
  5  4  2  0  0  0  0
  6  5  1  0  0  0  0
  7  1  1  0  0  0  0
  8  2  1  0  0  0  0
 11 12  2  0  0  0  0
 11  6  1  0  0  0  0
 13 11  2  0  0  0  0
 14 15  1  0  0  0  0
 16 19  2  0  0  0  0
 16 17  1  0  0  0  0
 16 20  1  0  0  0  0
 17 23  1  0  0  0  0
 18 16  2  0  0  0  0
 21 17  1  0  0  0  0
 22 17  1  0  0  0  0
M  RAD  3  14   2  15   3  20   2
M  END
