Coordinates from ORCA-job p-NO2-Ph-N2-OTf-B3LYPG-6-31G_dp-scan-d09-49-n400
 OpenBabel08281821413D

 23 22  0  0  0  0  0  0  0  0999 V2000
   -2.3137   -0.8194   -5.6494 C   0  0  0  0  0  0  0  0  0  0  0  0
   -1.0132   -0.4372   -5.3402 C   0  0  0  0  0  0  0  0  0  0  0  0
   -0.8501    0.8008   -4.7122 C   0  0  0  0  0  0  0  0  0  0  0  0
   -1.8974    1.6778   -4.3988 C   0  0  0  0  0  0  0  0  0  0  0  0
   -3.1862    1.2813   -4.7328 C   0  0  0  0  0  0  0  0  0  0  0  0
   -3.3669    0.0416   -5.3438 C   0  0  0  0  0  0  0  0  0  0  0  0
   -2.5177   -1.7654   -6.1346 H   0  0  0  0  0  0  0  0  0  0  0  0
   -0.1372   -1.0362   -5.5836 H   0  0  0  0  0  0  0  0  0  0  0  0
   -1.7052    2.6317   -3.9222 H   0  0  0  0  0  0  0  0  0  0  0  0
   -4.0435    1.9090   -4.5269 H   0  0  0  0  0  0  0  0  0  0  0  0
   -4.7483   -0.3754   -5.6854 N   0  0  0  0  0  0  0  0  0  0  0  0
   -5.6512    0.4109   -5.4143 O   0  0  0  0  0  0  0  0  0  0  0  0
   -4.8866   -1.4748   -6.2093 O   0  0  0  0  0  0  0  0  0  0  0  0
    0.4362    1.2043   -4.3030 N   0  0  0  0  0  0  0  0  0  0  0  0
    1.2618    1.5648   -3.6437 N   0  0  0  0  0  0  0  0  0  0  0  0
    2.0847    0.1796   -6.8748 S   0  0  0  0  0  0  0  0  0  0  0  0
    3.7370    0.8359   -6.3375 C   0  0  0  0  0  0  0  0  0  0  0  0
    2.1993   -0.0516   -8.3151 O   0  0  0  0  0  0  0  0  0  0  0  0
    1.1546    1.3106   -6.4959 O   0  0  0  0  0  0  0  0  0  0  0  0
    1.8820   -1.0014   -5.9970 O   0  0  0  0  0  0  0  0  0  0  0  0
    4.6936   -0.0790   -6.5131 F   0  0  0  0  0  0  0  0  0  0  0  0
    4.0577    1.9390   -7.0209 F   0  0  0  0  0  0  0  0  0  0  0  0
    3.6898    1.1540   -5.0238 F   0  0  0  0  0  0  0  0  0  0  0  0
  1  6  2  0  0  0  0
  1  2  1  0  0  0  0
  2  3  2  0  0  0  0
  3  4  1  0  0  0  0
  3 14  1  0  0  0  0
  4  9  1  0  0  0  0
  5 10  1  0  0  0  0
  5  4  2  0  0  0  0
  6  5  1  0  0  0  0
  7  1  1  0  0  0  0
  8  2  1  0  0  0  0
 11 12  2  0  0  0  0
 11  6  1  0  0  0  0
 13 11  2  0  0  0  0
 14 15  1  0  0  0  0
 16 19  2  0  0  0  0
 16 17  1  0  0  0  0
 16 20  1  0  0  0  0
 17 23  1  0  0  0  0
 18 16  2  0  0  0  0
 21 17  1  0  0  0  0
 22 17  1  0  0  0  0
M  RAD  3  14   2  15   3  20   2
M  END
