Coordinates from ORCA-job p-NO2-Ph-N2-OTf-B3LYPG-6-31G_dp-scan-d09-49-n400
 OpenBabel08281821413D

 23 22  0  0  0  0  0  0  0  0999 V2000
   -2.3548   -0.7313   -5.7418 C   0  0  0  0  0  0  0  0  0  0  0  0
   -1.0827   -0.4109   -5.2822 C   0  0  0  0  0  0  0  0  0  0  0  0
   -0.9533    0.7250   -4.4682 C   0  0  0  0  0  0  0  0  0  0  0  0
   -2.0325    1.5369   -4.0998 C   0  0  0  0  0  0  0  0  0  0  0  0
   -3.2960    1.2113   -4.5766 C   0  0  0  0  0  0  0  0  0  0  0  0
   -3.4285    0.0831   -5.3843 C   0  0  0  0  0  0  0  0  0  0  0  0
   -2.5230   -1.5935   -6.3749 H   0  0  0  0  0  0  0  0  0  0  0  0
   -0.2079   -0.9990   -5.5319 H   0  0  0  0  0  0  0  0  0  0  0  0
   -1.8736    2.4012   -3.4653 H   0  0  0  0  0  0  0  0  0  0  0  0
   -4.1689    1.8032   -4.3344 H   0  0  0  0  0  0  0  0  0  0  0  0
   -4.7805   -0.2695   -5.8823 N   0  0  0  0  0  0  0  0  0  0  0  0
   -5.7057    0.4676   -5.5550 O   0  0  0  0  0  0  0  0  0  0  0  0
   -4.8752   -1.2728   -6.5807 O   0  0  0  0  0  0  0  0  0  0  0  0
    0.3082    1.0713   -3.9675 N   0  0  0  0  0  0  0  0  0  0  0  0
    1.4425    0.9651   -3.9526 N   0  0  0  0  0  0  0  0  0  0  0  0
    2.1633    0.2569   -6.7142 S   0  0  0  0  0  0  0  0  0  0  0  0
    3.8785    0.9614   -6.6004 C   0  0  0  0  0  0  0  0  0  0  0  0
    2.1940   -0.7270   -7.7958 O   0  0  0  0  0  0  0  0  0  0  0  0
    1.2691    1.4212   -6.8249 O   0  0  0  0  0  0  0  0  0  0  0  0
    2.0118   -0.4229   -5.3392 O   0  0  0  0  0  0  0  0  0  0  0  0
    4.7751   -0.0133   -6.4331 F   0  0  0  0  0  0  0  0  0  0  0  0
    4.1672    1.6355   -7.7172 F   0  0  0  0  0  0  0  0  0  0  0  0
    3.9521    1.8019   -5.5558 F   0  0  0  0  0  0  0  0  0  0  0  0
  1  6  2  0  0  0  0
  1  2  1  0  0  0  0
  2  3  2  0  0  0  0
  3  4  1  0  0  0  0
  3 14  1  0  0  0  0
  4  9  1  0  0  0  0
  5 10  1  0  0  0  0
  5  4  2  0  0  0  0
  6  5  1  0  0  0  0
  7  1  1  0  0  0  0
  8  2  1  0  0  0  0
 11 12  2  0  0  0  0
 11  6  1  0  0  0  0
 13 11  2  0  0  0  0
 14 15  2  0  0  0  0
 16 17  1  0  0  0  0
 16 20  1  0  0  0  0
 17 21  1  0  0  0  0
 17 23  1  0  0  0  0
 18 16  2  0  0  0  0
 19 16  2  0  0  0  0
 22 17  1  0  0  0  0
M  RAD  2  15   2  20   2
M  END
