Coordinates from ORCA-job p-NO2-Ph-N2-OTf-B3LYPG-6-31G_dp-scan-d09-49-n400
 OpenBabel08281821413D

 23 22  0  0  0  0  0  0  0  0999 V2000
   -2.4779   -0.6760   -5.8016 C   0  0  0  0  0  0  0  0  0  0  0  0
   -1.2028   -0.2117   -5.4964 C   0  0  0  0  0  0  0  0  0  0  0  0
   -1.0978    0.8960   -4.6385 C   0  0  0  0  0  0  0  0  0  0  0  0
   -2.2135    1.5374   -4.0842 C   0  0  0  0  0  0  0  0  0  0  0  0
   -3.4814    1.0654   -4.3988 C   0  0  0  0  0  0  0  0  0  0  0  0
   -3.5849   -0.0328   -5.2507 C   0  0  0  0  0  0  0  0  0  0  0  0
   -2.6241   -1.5253   -6.4574 H   0  0  0  0  0  0  0  0  0  0  0  0
   -0.3071   -0.6691   -5.8973 H   0  0  0  0  0  0  0  0  0  0  0  0
   -2.0760    2.3892   -3.4280 H   0  0  0  0  0  0  0  0  0  0  0  0
   -4.3779    1.5236   -4.0024 H   0  0  0  0  0  0  0  0  0  0  0  0
   -4.9378   -0.5405   -5.5835 N   0  0  0  0  0  0  0  0  0  0  0  0
   -5.8933    0.0487   -5.0868 O   0  0  0  0  0  0  0  0  0  0  0  0
   -5.0036   -1.5120   -6.3290 O   0  0  0  0  0  0  0  0  0  0  0  0
    0.1567    1.4236   -4.2881 N   0  0  0  0  0  0  0  0  0  0  0  0
    1.2958    1.3899   -4.4453 N   0  0  0  0  0  0  0  0  0  0  0  0
    2.4293    0.5895   -6.9369 S   0  0  0  0  0  0  0  0  0  0  0  0
    4.2087    0.6367   -6.4010 C   0  0  0  0  0  0  0  0  0  0  0  0
    2.3557   -0.3583   -8.0458 O   0  0  0  0  0  0  0  0  0  0  0  0
    2.0289    1.9862   -7.1276 O   0  0  0  0  0  0  0  0  0  0  0  0
    1.7533   -0.0186   -5.6713 O   0  0  0  0  0  0  0  0  0  0  0  0
    4.6445   -0.5958   -6.1302 F   0  0  0  0  0  0  0  0  0  0  0  0
    4.9549    1.1621   -7.3755 F   0  0  0  0  0  0  0  0  0  0  0  0
    4.3294    1.3927   -5.3018 F   0  0  0  0  0  0  0  0  0  0  0  0
  1  2  2  0  0  0  0
  1  6  1  0  0  0  0
  2  3  1  0  0  0  0
  3 14  1  0  0  0  0
  3  4  2  0  0  0  0
  4  9  1  0  0  0  0
  5  4  1  0  0  0  0
  5 10  1  0  0  0  0
  6  5  2  0  0  0  0
  7  1  1  0  0  0  0
  8  2  1  0  0  0  0
 11  6  1  0  0  0  0
 11 12  2  0  0  0  0
 13 11  2  0  0  0  0
 15 14  2  0  0  0  0
 16 17  1  0  0  0  0
 16 20  1  0  0  0  0
 17 21  1  0  0  0  0
 17 23  1  0  0  0  0
 18 16  2  0  0  0  0
 19 16  2  0  0  0  0
 22 17  1  0  0  0  0
M  RAD  2  15   2  20   2
M  END
