Coordinates from ORCA-job p-NO2-Ph-N2-OTf-B3LYPG-6-31G_dp-scan-d09-49-n400
 OpenBabel08281821413D

 23 22  0  0  0  0  0  0  0  0999 V2000
   -2.3389   -0.7704   -5.6990 C   0  0  0  0  0  0  0  0  0  0  0  0
   -1.0630   -0.4936   -5.2254 C   0  0  0  0  0  0  0  0  0  0  0  0
   -0.9017    0.6753   -4.4647 C   0  0  0  0  0  0  0  0  0  0  0  0
   -1.9360    1.5696   -4.1647 C   0  0  0  0  0  0  0  0  0  0  0  0
   -3.2012    1.2818   -4.6602 C   0  0  0  0  0  0  0  0  0  0  0  0
   -3.3737    0.1189   -5.4100 C   0  0  0  0  0  0  0  0  0  0  0  0
   -2.5382   -1.6518   -6.2953 H   0  0  0  0  0  0  0  0  0  0  0  0
   -0.2037   -1.1238   -5.4274 H   0  0  0  0  0  0  0  0  0  0  0  0
   -1.7469    2.4588   -3.5748 H   0  0  0  0  0  0  0  0  0  0  0  0
   -4.0474    1.9308   -4.4757 H   0  0  0  0  0  0  0  0  0  0  0  0
   -4.7325   -0.1874   -5.9230 N   0  0  0  0  0  0  0  0  0  0  0  0
   -5.6205    0.6189   -5.6641 O   0  0  0  0  0  0  0  0  0  0  0  0
   -4.8667   -1.2248   -6.5618 O   0  0  0  0  0  0  0  0  0  0  0  0
    0.3687    0.9358   -3.9629 N   0  0  0  0  0  0  0  0  0  0  0  0
    1.4673    0.9037   -3.7432 N   0  0  0  0  0  0  0  0  0  0  0  0
    2.1328    0.0957   -6.6932 S   0  0  0  0  0  0  0  0  0  0  0  0
    3.7083    1.0736   -6.5924 C   0  0  0  0  0  0  0  0  0  0  0  0
    2.2575   -0.7426   -7.8877 O   0  0  0  0  0  0  0  0  0  0  0  0
    1.0683    1.1299   -6.6885 O   0  0  0  0  0  0  0  0  0  0  0  0
    2.1482   -0.6772   -5.3923 O   0  0  0  0  0  0  0  0  0  0  0  0
    4.7686    0.2635   -6.5212 F   0  0  0  0  0  0  0  0  0  0  0  0
    3.8388    1.8660   -7.6616 F   0  0  0  0  0  0  0  0  0  0  0  0
    3.6914    1.8505   -5.4893 F   0  0  0  0  0  0  0  0  0  0  0  0
  1  6  2  0  0  0  0
  1  2  1  0  0  0  0
  2  3  2  0  0  0  0
  3  4  1  0  0  0  0
  3 14  1  0  0  0  0
  4  9  1  0  0  0  0
  5 10  1  0  0  0  0
  5  4  2  0  0  0  0
  6  5  1  0  0  0  0
  7  1  1  0  0  0  0
  8  2  1  0  0  0  0
 11 12  2  0  0  0  0
 11  6  1  0  0  0  0
 13 11  2  0  0  0  0
 14 15  1  0  0  0  0
 16 19  2  0  0  0  0
 16 17  1  0  0  0  0
 16 20  1  0  0  0  0
 17 21  1  0  0  0  0
 17 23  1  0  0  0  0
 18 16  2  0  0  0  0
 22 17  1  0  0  0  0
M  RAD  3  14   2  15   3  20   2
M  END
