Coordinates from ORCA-job p-NO2-Ph-N2-OTf-B3LYPG-6-31G_dp-scan-d09-49-n400
 OpenBabel08281821413D

 23 22  0  0  0  0  0  0  0  0999 V2000
   -2.3312   -0.8572   -5.6348 C   0  0  0  0  0  0  0  0  0  0  0  0
   -1.0367   -0.5666   -5.2257 C   0  0  0  0  0  0  0  0  0  0  0  0
   -0.8338    0.6637   -4.5849 C   0  0  0  0  0  0  0  0  0  0  0  0
   -1.8382    1.6110   -4.3481 C   0  0  0  0  0  0  0  0  0  0  0  0
   -3.1225    1.3021   -4.7771 C   0  0  0  0  0  0  0  0  0  0  0  0
   -3.3418    0.0765   -5.4038 C   0  0  0  0  0  0  0  0  0  0  0  0
   -2.5636   -1.7855   -6.1410 H   0  0  0  0  0  0  0  0  0  0  0  0
   -0.1856   -1.2165   -5.4079 H   0  0  0  0  0  0  0  0  0  0  0  0
   -1.6154    2.5510   -3.8577 H   0  0  0  0  0  0  0  0  0  0  0  0
   -3.9487    1.9866   -4.6337 H   0  0  0  0  0  0  0  0  0  0  0  0
   -4.7195   -0.2464   -5.8473 N   0  0  0  0  0  0  0  0  0  0  0  0
   -5.5843    0.5998   -5.6409 O   0  0  0  0  0  0  0  0  0  0  0  0
   -4.8935   -1.3375   -6.3782 O   0  0  0  0  0  0  0  0  0  0  0  0
    0.4413    0.9468   -4.0966 N   0  0  0  0  0  0  0  0  0  0  0  0
    1.4025    1.0844   -3.5549 N   0  0  0  0  0  0  0  0  0  0  0  0
    2.0294    0.1926   -6.7292 S   0  0  0  0  0  0  0  0  0  0  0  0
    3.6734    1.0217   -6.4889 C   0  0  0  0  0  0  0  0  0  0  0  0
    2.0507   -0.3506   -8.0891 O   0  0  0  0  0  0  0  0  0  0  0  0
    1.0568    1.3102   -6.4884 O   0  0  0  0  0  0  0  0  0  0  0  0
    1.9888   -0.7946   -5.6089 O   0  0  0  0  0  0  0  0  0  0  0  0
    4.6729    0.1393   -6.5818 F   0  0  0  0  0  0  0  0  0  0  0  0
    3.8602    1.9848   -7.3975 F   0  0  0  0  0  0  0  0  0  0  0  0
    3.7181    1.5856   -5.2617 F   0  0  0  0  0  0  0  0  0  0  0  0
  1  6  2  0  0  0  0
  1  2  1  0  0  0  0
  2  3  2  0  0  0  0
  3  4  1  0  0  0  0
  3 14  1  0  0  0  0
  4  9  1  0  0  0  0
  5 10  1  0  0  0  0
  5  4  2  0  0  0  0
  6  5  1  0  0  0  0
  7  1  1  0  0  0  0
  8  2  1  0  0  0  0
 11 12  2  0  0  0  0
 11  6  1  0  0  0  0
 13 11  2  0  0  0  0
 14 15  1  0  0  0  0
 16 17  1  0  0  0  0
 16 19  2  0  0  0  0
 16 20  1  0  0  0  0
 17 23  1  0  0  0  0
 18 16  2  0  0  0  0
 21 17  1  0  0  0  0
 22 17  1  0  0  0  0
M  RAD  3  14   2  15   3  20   2
M  END
