Coordinates from ORCA-job p-NO2-Ph-N2-OTf-B3LYPG-6-31G_dp-scan-d09-49-n400
 OpenBabel08281821413D

 23 22  0  0  0  0  0  0  0  0999 V2000
   -2.3367   -0.8679   -5.6316 C   0  0  0  0  0  0  0  0  0  0  0  0
   -1.0378   -0.5748   -5.2373 C   0  0  0  0  0  0  0  0  0  0  0  0
   -0.8276    0.6595   -4.6089 C   0  0  0  0  0  0  0  0  0  0  0  0
   -1.8289    1.6099   -4.3705 C   0  0  0  0  0  0  0  0  0  0  0  0
   -3.1176    1.2985   -4.7843 C   0  0  0  0  0  0  0  0  0  0  0  0
   -3.3444    0.0679   -5.3986 C   0  0  0  0  0  0  0  0  0  0  0  0
   -2.5746   -1.8004   -6.1274 H   0  0  0  0  0  0  0  0  0  0  0  0
   -0.1883   -1.2257   -5.4230 H   0  0  0  0  0  0  0  0  0  0  0  0
   -1.6008    2.5540   -3.8905 H   0  0  0  0  0  0  0  0  0  0  0  0
   -3.9414    1.9852   -4.6384 H   0  0  0  0  0  0  0  0  0  0  0  0
   -4.7266   -0.2573   -5.8256 N   0  0  0  0  0  0  0  0  0  0  0  0
   -5.5884    0.5918   -5.6187 O   0  0  0  0  0  0  0  0  0  0  0  0
   -4.9063   -1.3511   -6.3490 O   0  0  0  0  0  0  0  0  0  0  0  0
    0.4510    0.9522   -4.1283 N   0  0  0  0  0  0  0  0  0  0  0  0
    1.3839    1.1373   -3.5520 N   0  0  0  0  0  0  0  0  0  0  0  0
    2.0250    0.2141   -6.7371 S   0  0  0  0  0  0  0  0  0  0  0  0
    3.6816    1.0093   -6.4701 C   0  0  0  0  0  0  0  0  0  0  0  0
    2.0452   -0.3023   -8.1071 O   0  0  0  0  0  0  0  0  0  0  0  0
    1.0707    1.3460   -6.4817 O   0  0  0  0  0  0  0  0  0  0  0  0
    1.9571   -0.7904   -5.6343 O   0  0  0  0  0  0  0  0  0  0  0  0
    4.6659    0.1113   -6.5752 F   0  0  0  0  0  0  0  0  0  0  0  0
    3.8906    1.9873   -7.3574 F   0  0  0  0  0  0  0  0  0  0  0  0
    3.7278    1.5466   -5.2312 F   0  0  0  0  0  0  0  0  0  0  0  0
  1  6  2  0  0  0  0
  1  2  1  0  0  0  0
  2  3  2  0  0  0  0
  3  4  1  0  0  0  0
  3 14  1  0  0  0  0
  4  9  1  0  0  0  0
  5 10  1  0  0  0  0
  5  4  2  0  0  0  0
  6  5  1  0  0  0  0
  7  1  1  0  0  0  0
  8  2  1  0  0  0  0
 11 12  2  0  0  0  0
 11  6  1  0  0  0  0
 13 11  2  0  0  0  0
 14 15  1  0  0  0  0
 16 19  2  0  0  0  0
 16 17  1  0  0  0  0
 16 20  1  0  0  0  0
 17 23  1  0  0  0  0
 18 16  2  0  0  0  0
 21 17  1  0  0  0  0
 22 17  1  0  0  0  0
M  RAD  3  14   2  15   3  20   2
M  END
