Coordinates from ORCA-job p-NO2-Ph-N2-OTf-B3LYPG-6-31G_dp-scan-d09-49-n400
 OpenBabel08281821413D

 23 22  0  0  0  0  0  0  0  0999 V2000
   -2.3430   -0.7416   -5.7262 C   0  0  0  0  0  0  0  0  0  0  0  0
   -1.0705   -0.4443   -5.2538 C   0  0  0  0  0  0  0  0  0  0  0  0
   -0.9306    0.7023   -4.4568 C   0  0  0  0  0  0  0  0  0  0  0  0
   -1.9905    1.5512   -4.1180 C   0  0  0  0  0  0  0  0  0  0  0  0
   -3.2532    1.2462   -4.6098 C   0  0  0  0  0  0  0  0  0  0  0  0
   -3.4006    0.1061   -5.3987 C   0  0  0  0  0  0  0  0  0  0  0  0
   -2.5230   -1.6094   -6.3483 H   0  0  0  0  0  0  0  0  0  0  0  0
   -0.2019   -1.0519   -5.4807 H   0  0  0  0  0  0  0  0  0  0  0  0
   -1.8202    2.4237   -3.4978 H   0  0  0  0  0  0  0  0  0  0  0  0
   -4.1153    1.8635   -4.3934 H   0  0  0  0  0  0  0  0  0  0  0  0
   -4.7542   -0.2222   -5.9104 N   0  0  0  0  0  0  0  0  0  0  0  0
   -5.6641    0.5460   -5.6132 O   0  0  0  0  0  0  0  0  0  0  0  0
   -4.8634   -1.2358   -6.5909 O   0  0  0  0  0  0  0  0  0  0  0  0
    0.3360    1.0030   -3.9523 N   0  0  0  0  0  0  0  0  0  0  0  0
    1.4581    0.9152   -3.8496 N   0  0  0  0  0  0  0  0  0  0  0  0
    2.1499    0.1603   -6.6989 S   0  0  0  0  0  0  0  0  0  0  0  0
    3.7911    1.0244   -6.6067 C   0  0  0  0  0  0  0  0  0  0  0  0
    2.2433   -0.7701   -7.8251 O   0  0  0  0  0  0  0  0  0  0  0  0
    1.1544    1.2500   -6.7658 O   0  0  0  0  0  0  0  0  0  0  0  0
    2.0900   -0.5543   -5.3501 O   0  0  0  0  0  0  0  0  0  0  0  0
    4.7834    0.1408   -6.4698 F   0  0  0  0  0  0  0  0  0  0  0  0
    3.9973    1.7432   -7.7144 F   0  0  0  0  0  0  0  0  0  0  0  0
    3.8062    1.8546   -5.5477 F   0  0  0  0  0  0  0  0  0  0  0  0
  1  6  2  0  0  0  0
  1  2  1  0  0  0  0
  2  3  2  0  0  0  0
  3  4  1  0  0  0  0
  3 14  1  0  0  0  0
  4  9  1  0  0  0  0
  5 10  1  0  0  0  0
  5  4  2  0  0  0  0
  6  5  1  0  0  0  0
  7  1  1  0  0  0  0
  8  2  1  0  0  0  0
 11 12  2  0  0  0  0
 11  6  1  0  0  0  0
 13 11  2  0  0  0  0
 14 15  1  0  0  0  0
 16 17  1  0  0  0  0
 16 20  1  0  0  0  0
 17 21  1  0  0  0  0
 17 23  1  0  0  0  0
 18 16  2  0  0  0  0
 19 16  2  0  0  0  0
 22 17  1  0  0  0  0
M  RAD  3  14   2  15   3  20   2
M  END
