Coordinates from ORCA-job p-NO2-Ph-N2-OTf-B3LYPG-6-31G_dp-scan-d09-49-n400
 OpenBabel08281821413D

 23 23  0  0  1  0  0  0  0  0999 V2000
   -1.2405   -0.4727   -5.4955 C   0  0  0  0  0  0  0  0  0  0  0  0
   -0.2705    0.5787   -5.0466 C   0  0  2  0  0  0  0  0  0  0  0  0
   -0.9109    1.9207   -4.6394 C   0  0  0  0  0  0  0  0  0  0  0  0
   -2.3565    2.0496   -4.7104 C   0  0  0  0  0  0  0  0  0  0  0  0
   -3.1477    1.0293   -5.1105 C   0  0  0  0  0  0  0  0  0  0  0  0
   -2.5607   -0.2400   -5.4967 C   0  0  0  0  0  0  0  0  0  0  0  0
   -0.8397   -1.4161   -5.8439 H   0  0  0  0  0  0  0  0  0  0  0  0
    0.2675    0.2071   -4.1597 H   0  0  0  0  0  0  0  0  0  0  0  0
   -2.7690    3.0135   -4.4349 H   0  0  0  0  0  0  0  0  0  0  0  0
   -4.2248    1.1275   -5.1669 H   0  0  0  0  0  0  0  0  0  0  0  0
   -3.4736   -1.3141   -5.9446 N   0  0  0  0  0  0  0  0  0  0  0  0
   -4.6738   -1.0487   -5.9667 O   0  0  0  0  0  0  0  0  0  0  0  0
   -2.9788   -2.3924   -6.2592 O   0  0  0  0  0  0  0  0  0  0  0  0
   -0.2354    2.9427   -4.2248 N   0  0  0  0  0  0  0  0  0  0  0  0
    1.1928    2.6042   -4.0257 N   0  0  0  0  0  0  0  0  0  0  0  0
    2.2843    0.3544   -5.7782 S   0  0  2  0  0  0  0  0  0  0  0  0
    2.2746   -0.9425   -7.1507 C   0  0  0  0  0  0  0  0  0  0  0  0
    0.6673    0.7804   -6.1256 O   0  0  0  0  0  0  0  0  0  0  0  0
    3.1696    1.4260   -6.2734 O   0  0  0  0  0  0  0  0  0  0  0  0
    1.8611    3.5144   -3.9692 O   0  0  0  0  0  0  0  0  0  0  0  0
    1.4118   -1.9160   -6.8024 F   0  0  0  0  0  0  0  0  0  0  0  0
    1.9300   -0.4393   -8.3283 F   0  0  0  0  0  0  0  0  0  0  0  0
    3.5021   -1.4656   -7.2249 F   0  0  0  0  0  0  0  0  0  0  0  0
  1  2  1  0  0  0  0
  2  3  1  0  0  0  0
  2  8  1  1  0  0  0
  3 14  1  0  0  0  0
  4  3  2  0  0  0  0
  4  9  1  0  0  0  0
  5  4  1  0  0  0  0
  6  1  2  0  0  0  0
  6  5  1  0  0  0  0
  7  1  1  0  0  0  0
 10  5  1  0  0  0  0
 11  6  1  0  0  0  0
 12 11  2  0  0  0  0
 13 11  2  0  0  0  0
 14 15  1  0  0  0  0
 15 20  1  0  0  0  0
 16 17  1  6  0  0  0
 17 21  1  0  0  0  0
 18 16  1  0  0  0  0
 18  2  1  0  0  0  0
 19 16  1  0  0  0  0
 22 17  1  0  0  0  0
 23 17  1  0  0  0  0
M  RAD  5   5   2  14   2  15   2  19   2  20   2
M  END
