Coordinates from ORCA-job p-NO2-Ph-N2-OTf-B3LYPG-6-31G_dp-scan-d09-49-n400
 OpenBabel08281821413D

 23 22  0  0  0  0  0  0  0  0999 V2000
   -2.3337   -0.8701   -5.6252 C   0  0  0  0  0  0  0  0  0  0  0  0
   -1.0313   -0.5581   -5.2559 C   0  0  0  0  0  0  0  0  0  0  0  0
   -0.8255    0.6832   -4.6429 C   0  0  0  0  0  0  0  0  0  0  0  0
   -1.8340    1.6249   -4.3980 C   0  0  0  0  0  0  0  0  0  0  0  0
   -3.1257    1.2948   -4.7870 C   0  0  0  0  0  0  0  0  0  0  0  0
   -3.3487    0.0555   -5.3847 C   0  0  0  0  0  0  0  0  0  0  0  0
   -2.5687   -1.8107   -6.1069 H   0  0  0  0  0  0  0  0  0  0  0  0
   -0.1774   -1.2008   -5.4517 H   0  0  0  0  0  0  0  0  0  0  0  0
   -1.6093    2.5764   -3.9312 H   0  0  0  0  0  0  0  0  0  0  0  0
   -3.9546    1.9739   -4.6340 H   0  0  0  0  0  0  0  0  0  0  0  0
   -4.7339   -0.2902   -5.7845 N   0  0  0  0  0  0  0  0  0  0  0  0
   -5.6022    0.5509   -5.5714 O   0  0  0  0  0  0  0  0  0  0  0  0
   -4.9097   -1.3910   -6.2944 O   0  0  0  0  0  0  0  0  0  0  0  0
    0.4557    1.0064   -4.1761 N   0  0  0  0  0  0  0  0  0  0  0  0
    1.3455    1.2538   -3.5547 N   0  0  0  0  0  0  0  0  0  0  0  0
    2.0270    0.2310   -6.7765 S   0  0  0  0  0  0  0  0  0  0  0  0
    3.6976    0.9644   -6.4307 C   0  0  0  0  0  0  0  0  0  0  0  0
    2.0599   -0.1949   -8.1766 O   0  0  0  0  0  0  0  0  0  0  0  0
    1.0982    1.3759   -6.4711 O   0  0  0  0  0  0  0  0  0  0  0  0
    1.9093   -0.8352   -5.7403 O   0  0  0  0  0  0  0  0  0  0  0  0
    4.6591    0.0463   -6.5641 F   0  0  0  0  0  0  0  0  0  0  0  0
    3.9524    1.9834   -7.2573 F   0  0  0  0  0  0  0  0  0  0  0  0
    3.7295    1.4314   -5.1628 F   0  0  0  0  0  0  0  0  0  0  0  0
  1  6  2  0  0  0  0
  1  2  1  0  0  0  0
  2  3  2  0  0  0  0
  3  4  1  0  0  0  0
  3 14  1  0  0  0  0
  4  9  1  0  0  0  0
  5 10  1  0  0  0  0
  5  4  2  0  0  0  0
  6  5  1  0  0  0  0
  7  1  1  0  0  0  0
  8  2  1  0  0  0  0
 11 12  2  0  0  0  0
 11  6  1  0  0  0  0
 13 11  2  0  0  0  0
 14 15  1  0  0  0  0
 16 19  2  0  0  0  0
 16 17  1  0  0  0  0
 16 20  1  0  0  0  0
 17 23  1  0  0  0  0
 18 16  2  0  0  0  0
 21 17  1  0  0  0  0
 22 17  1  0  0  0  0
M  RAD  3  14   2  15   3  20   2
M  END
