Coordinates from ORCA-job p-NO2-Ph-N2-OTf-B3LYPG-6-31G_dp-scan-d09-49-n400
 OpenBabel08281821413D

 23 22  0  0  0  0  0  0  0  0999 V2000
   -2.3179   -0.8312   -5.6423 C   0  0  0  0  0  0  0  0  0  0  0  0
   -1.0165   -0.4651   -5.3192 C   0  0  0  0  0  0  0  0  0  0  0  0
   -0.8441    0.7740   -4.6952 C   0  0  0  0  0  0  0  0  0  0  0  0
   -1.8832    1.6663   -4.3989 C   0  0  0  0  0  0  0  0  0  0  0  0
   -3.1733    1.2851   -4.7458 C   0  0  0  0  0  0  0  0  0  0  0  0
   -3.3633    0.0450   -5.3528 C   0  0  0  0  0  0  0  0  0  0  0  0
   -2.5288   -1.7764   -6.1262 H   0  0  0  0  0  0  0  0  0  0  0  0
   -0.1454   -1.0744   -5.5518 H   0  0  0  0  0  0  0  0  0  0  0  0
   -1.6838    2.6201   -3.9250 H   0  0  0  0  0  0  0  0  0  0  0  0
   -4.0245    1.9251   -4.5529 H   0  0  0  0  0  0  0  0  0  0  0  0
   -4.7459   -0.3557   -5.7083 N   0  0  0  0  0  0  0  0  0  0  0  0
   -5.6413    0.4446   -5.4540 O   0  0  0  0  0  0  0  0  0  0  0  0
   -4.8923   -1.4553   -6.2298 O   0  0  0  0  0  0  0  0  0  0  0  0
    0.4415    1.1605   -4.2724 N   0  0  0  0  0  0  0  0  0  0  0  0
    1.2789    1.4960   -3.6160 N   0  0  0  0  0  0  0  0  0  0  0  0
    2.0718    0.1878   -6.8534 S   0  0  0  0  0  0  0  0  0  0  0  0
    3.7289    0.8662   -6.3600 C   0  0  0  0  0  0  0  0  0  0  0  0
    2.1640   -0.0819   -8.2887 O   0  0  0  0  0  0  0  0  0  0  0  0
    1.1410    1.3203   -6.4852 O   0  0  0  0  0  0  0  0  0  0  0  0
    1.8923   -0.9723   -5.9417 O   0  0  0  0  0  0  0  0  0  0  0  0
    4.6876   -0.0481   -6.5279 F   0  0  0  0  0  0  0  0  0  0  0  0
    4.0328    1.9531   -7.0763 F   0  0  0  0  0  0  0  0  0  0  0  0
    3.7008    1.2172   -5.0543 F   0  0  0  0  0  0  0  0  0  0  0  0
  1  6  2  0  0  0  0
  1  2  1  0  0  0  0
  2  3  2  0  0  0  0
  3  4  1  0  0  0  0
  3 14  1  0  0  0  0
  4  9  1  0  0  0  0
  5 10  1  0  0  0  0
  5  4  2  0  0  0  0
  6  5  1  0  0  0  0
  7  1  1  0  0  0  0
  8  2  1  0  0  0  0
 11 12  2  0  0  0  0
 11  6  1  0  0  0  0
 13 11  2  0  0  0  0
 14 15  1  0  0  0  0
 16 19  2  0  0  0  0
 16 17  1  0  0  0  0
 16 20  1  0  0  0  0
 17 23  1  0  0  0  0
 18 16  2  0  0  0  0
 21 17  1  0  0  0  0
 22 17  1  0  0  0  0
M  RAD  3  14   2  15   3  20   2
M  END
