Coordinates from ORCA-job p-NO2-Ph-N2-OTf-B3LYPG-6-31G_dp-scan-d09-49-n400
 OpenBabel08281821413D

 23 22  0  0  0  0  0  0  0  0999 V2000
   -2.3432   -0.7504   -5.7176 C   0  0  0  0  0  0  0  0  0  0  0  0
   -1.0694   -0.4622   -5.2439 C   0  0  0  0  0  0  0  0  0  0  0  0
   -0.9208    0.6912   -4.4580 C   0  0  0  0  0  0  0  0  0  0  0  0
   -1.9707    1.5572   -4.1321 C   0  0  0  0  0  0  0  0  0  0  0  0
   -3.2346    1.2605   -4.6262 C   0  0  0  0  0  0  0  0  0  0  0  0
   -3.3919    0.1133   -5.4029 C   0  0  0  0  0  0  0  0  0  0  0  0
   -2.5310   -1.6222   -6.3317 H   0  0  0  0  0  0  0  0  0  0  0  0
   -0.2045   -1.0786   -5.4614 H   0  0  0  0  0  0  0  0  0  0  0  0
   -1.7931    2.4347   -3.5213 H   0  0  0  0  0  0  0  0  0  0  0  0
   -4.0905    1.8899   -4.4205 H   0  0  0  0  0  0  0  0  0  0  0  0
   -4.7476   -0.2047   -5.9160 N   0  0  0  0  0  0  0  0  0  0  0  0
   -5.6493    0.5772   -5.6304 O   0  0  0  0  0  0  0  0  0  0  0  0
   -4.8667   -1.2264   -6.5827 O   0  0  0  0  0  0  0  0  0  0  0  0
    0.3483    0.9743   -3.9545 N   0  0  0  0  0  0  0  0  0  0  0  0
    1.4644    0.8936   -3.8181 N   0  0  0  0  0  0  0  0  0  0  0  0
    2.1481    0.1303   -6.6963 S   0  0  0  0  0  0  0  0  0  0  0  0
    3.7593    1.0492   -6.6026 C   0  0  0  0  0  0  0  0  0  0  0  0
    2.2647   -0.7749   -7.8410 O   0  0  0  0  0  0  0  0  0  0  0  0
    1.1191    1.1919   -6.7461 O   0  0  0  0  0  0  0  0  0  0  0  0
    2.1175   -0.5997   -5.3596 O   0  0  0  0  0  0  0  0  0  0  0  0
    4.7832    0.1999   -6.4808 F   0  0  0  0  0  0  0  0  0  0  0  0
    3.9360    1.7891   -7.7016 F   0  0  0  0  0  0  0  0  0  0  0  0
    3.7521    1.8677   -5.5331 F   0  0  0  0  0  0  0  0  0  0  0  0
  1  6  2  0  0  0  0
  1  2  1  0  0  0  0
  2  3  2  0  0  0  0
  3  4  1  0  0  0  0
  3 14  1  0  0  0  0
  4  9  1  0  0  0  0
  5 10  1  0  0  0  0
  5  4  2  0  0  0  0
  6  5  1  0  0  0  0
  7  1  1  0  0  0  0
  8  2  1  0  0  0  0
 11 12  2  0  0  0  0
 11  6  1  0  0  0  0
 13 11  2  0  0  0  0
 14 15  1  0  0  0  0
 16 17  1  0  0  0  0
 16 20  1  0  0  0  0
 17 21  1  0  0  0  0
 17 23  1  0  0  0  0
 18 16  2  0  0  0  0
 19 16  2  0  0  0  0
 22 17  1  0  0  0  0
M  RAD  3  14   2  15   3  20   2
M  END
