Coordinates from ORCA-job p-NO2-Ph-N2-OTf-B3LYPG-6-31G_dp-scan-d09-49-n400
 OpenBabel08281821413D

 23 22  0  0  0  0  0  0  0  0999 V2000
   -2.3333   -0.8084   -5.6672 C   0  0  0  0  0  0  0  0  0  0  0  0
   -1.0556   -0.5413   -5.1950 C   0  0  0  0  0  0  0  0  0  0  0  0
   -0.8764    0.6515   -4.4760 C   0  0  0  0  0  0  0  0  0  0  0  0
   -1.8917    1.5805   -4.2186 C   0  0  0  0  0  0  0  0  0  0  0  0
   -3.1585    1.3000   -4.7140 C   0  0  0  0  0  0  0  0  0  0  0  0
   -3.3512    0.1131   -5.4197 C   0  0  0  0  0  0  0  0  0  0  0  0
   -2.5465   -1.7058   -6.2339 H   0  0  0  0  0  0  0  0  0  0  0  0
   -0.2039   -1.1895   -5.3751 H   0  0  0  0  0  0  0  0  0  0  0  0
   -1.6882    2.4880   -3.6625 H   0  0  0  0  0  0  0  0  0  0  0  0
   -3.9915    1.9741   -4.5620 H   0  0  0  0  0  0  0  0  0  0  0  0
   -4.7123   -0.1833   -5.9313 N   0  0  0  0  0  0  0  0  0  0  0  0
   -5.5834    0.6532   -5.7140 O   0  0  0  0  0  0  0  0  0  0  0  0
   -4.8653   -1.2432   -6.5274 O   0  0  0  0  0  0  0  0  0  0  0  0
    0.3916    0.8952   -3.9661 N   0  0  0  0  0  0  0  0  0  0  0  0
    1.4596    0.9100   -3.6428 N   0  0  0  0  0  0  0  0  0  0  0  0
    2.0901    0.1142   -6.6859 S   0  0  0  0  0  0  0  0  0  0  0  0
    3.6692    1.0851   -6.5833 C   0  0  0  0  0  0  0  0  0  0  0  0
    2.1617   -0.6345   -7.9432 O   0  0  0  0  0  0  0  0  0  0  0  0
    1.0324    1.1580   -6.5837 O   0  0  0  0  0  0  0  0  0  0  0  0
    2.1431   -0.7264   -5.4389 O   0  0  0  0  0  0  0  0  0  0  0  0
    4.7305    0.2725   -6.5775 F   0  0  0  0  0  0  0  0  0  0  0  0
    3.7758    1.9285   -7.6161 F   0  0  0  0  0  0  0  0  0  0  0  0
    3.6829    1.8095   -5.4439 F   0  0  0  0  0  0  0  0  0  0  0  0
  1  6  2  0  0  0  0
  1  2  1  0  0  0  0
  2  3  2  0  0  0  0
  3  4  1  0  0  0  0
  3 14  1  0  0  0  0
  4  9  1  0  0  0  0
  5 10  1  0  0  0  0
  5  4  2  0  0  0  0
  6  5  1  0  0  0  0
  7  1  1  0  0  0  0
  8  2  1  0  0  0  0
 11 12  2  0  0  0  0
 11  6  1  0  0  0  0
 13 11  2  0  0  0  0
 14 15  1  0  0  0  0
 16 19  2  0  0  0  0
 16 17  1  0  0  0  0
 16 20  1  0  0  0  0
 17 21  1  0  0  0  0
 17 23  1  0  0  0  0
 18 16  2  0  0  0  0
 22 17  1  0  0  0  0
M  RAD  3  14   2  15   3  20   2
M  END
