Coordinates from ORCA-job p-NO2-Ph-N2-OTf-B3LYPG-6-31G_dp-scan-d09-49-n400
 OpenBabel08281821413D

 23 22  0  0  0  0  0  0  0  0999 V2000
   -2.3153   -0.8234   -5.6472 C   0  0  0  0  0  0  0  0  0  0  0  0
   -1.0144   -0.4469   -5.3331 C   0  0  0  0  0  0  0  0  0  0  0  0
   -0.8482    0.7915   -4.7063 C   0  0  0  0  0  0  0  0  0  0  0  0
   -1.8926    1.6739   -4.3991 C   0  0  0  0  0  0  0  0  0  0  0  0
   -3.1819    1.2828   -4.7377 C   0  0  0  0  0  0  0  0  0  0  0  0
   -3.3658    0.0430   -5.3474 C   0  0  0  0  0  0  0  0  0  0  0  0
   -2.5217   -1.7690   -6.1320 H   0  0  0  0  0  0  0  0  0  0  0  0
   -0.1400   -1.0494   -5.5726 H   0  0  0  0  0  0  0  0  0  0  0  0
   -1.6980    2.6278   -3.9234 H   0  0  0  0  0  0  0  0  0  0  0  0
   -4.0371    1.9149   -4.5365 H   0  0  0  0  0  0  0  0  0  0  0  0
   -4.7477   -0.3681   -5.6941 N   0  0  0  0  0  0  0  0  0  0  0  0
   -5.6483    0.4221   -5.4268 O   0  0  0  0  0  0  0  0  0  0  0  0
   -4.8890   -1.4687   -6.2150 O   0  0  0  0  0  0  0  0  0  0  0  0
    0.4378    1.1891   -4.2922 N   0  0  0  0  0  0  0  0  0  0  0  0
    1.2671    1.5409   -3.6332 N   0  0  0  0  0  0  0  0  0  0  0  0
    2.0806    0.1824   -6.8674 S   0  0  0  0  0  0  0  0  0  0  0  0
    3.7347    0.8464   -6.3454 C   0  0  0  0  0  0  0  0  0  0  0  0
    2.1871   -0.0618   -8.3062 O   0  0  0  0  0  0  0  0  0  0  0  0
    1.1502    1.3139   -6.4917 O   0  0  0  0  0  0  0  0  0  0  0  0
    1.8860   -0.9918   -5.9780 O   0  0  0  0  0  0  0  0  0  0  0  0
    4.6919   -0.0683   -6.5187 F   0  0  0  0  0  0  0  0  0  0  0  0
    4.0495    1.9442   -7.0400 F   0  0  0  0  0  0  0  0  0  0  0  0
    3.6943    1.1756   -5.0342 F   0  0  0  0  0  0  0  0  0  0  0  0
  1  6  2  0  0  0  0
  1  2  1  0  0  0  0
  2  3  2  0  0  0  0
  3  4  1  0  0  0  0
  3 14  1  0  0  0  0
  4  9  1  0  0  0  0
  5 10  1  0  0  0  0
  5  4  2  0  0  0  0
  6  5  1  0  0  0  0
  7  1  1  0  0  0  0
  8  2  1  0  0  0  0
 11 12  2  0  0  0  0
 11  6  1  0  0  0  0
 13 11  2  0  0  0  0
 14 15  1  0  0  0  0
 16 19  2  0  0  0  0
 16 17  1  0  0  0  0
 16 20  1  0  0  0  0
 17 23  1  0  0  0  0
 18 16  2  0  0  0  0
 21 17  1  0  0  0  0
 22 17  1  0  0  0  0
M  RAD  3  14   2  15   3  20   2
M  END
