Coordinates from ORCA-job p-NO2-Ph-N2-OTf-B3LYPG-6-31G_dp-scan-d09-49-n400
 OpenBabel08281821413D

 23 22  0  0  0  0  0  0  0  0999 V2000
   -2.3094   -0.8095   -5.6546 C   0  0  0  0  0  0  0  0  0  0  0  0
   -1.0098   -0.4140   -5.3572 C   0  0  0  0  0  0  0  0  0  0  0  0
   -0.8543    0.8232   -4.7259 C   0  0  0  0  0  0  0  0  0  0  0  0
   -1.9085    1.6869   -4.3986 C   0  0  0  0  0  0  0  0  0  0  0  0
   -3.1962    1.2779   -4.7217 C   0  0  0  0  0  0  0  0  0  0  0  0
   -3.3690    0.0386   -5.3357 C   0  0  0  0  0  0  0  0  0  0  0  0
   -2.5076   -1.7560   -6.1410 H   0  0  0  0  0  0  0  0  0  0  0  0
   -0.1311   -1.0052   -5.6112 H   0  0  0  0  0  0  0  0  0  0  0  0
   -1.7223    2.6409   -3.9196 H   0  0  0  0  0  0  0  0  0  0  0  0
   -4.0582    1.8954   -4.5051 H   0  0  0  0  0  0  0  0  0  0  0  0
   -4.7490   -0.3923   -5.6657 N   0  0  0  0  0  0  0  0  0  0  0  0
   -5.6580    0.3825   -5.3820 O   0  0  0  0  0  0  0  0  0  0  0  0
   -4.8802   -1.4908   -6.1935 O   0  0  0  0  0  0  0  0  0  0  0  0
    0.4310    1.2419   -4.3263 N   0  0  0  0  0  0  0  0  0  0  0  0
    1.2464    1.6241   -3.6658 N   0  0  0  0  0  0  0  0  0  0  0  0
    2.0949    0.1737   -6.8939 S   0  0  0  0  0  0  0  0  0  0  0  0
    3.7422    0.8099   -6.3186 C   0  0  0  0  0  0  0  0  0  0  0  0
    2.2283   -0.0241   -8.3375 O   0  0  0  0  0  0  0  0  0  0  0  0
    1.1655    1.3033   -6.5047 O   0  0  0  0  0  0  0  0  0  0  0  0
    1.8729   -1.0254   -6.0467 O   0  0  0  0  0  0  0  0  0  0  0  0
    4.6961   -0.1074   -6.4962 F   0  0  0  0  0  0  0  0  0  0  0  0
    4.0797    1.9234   -6.9764 F   0  0  0  0  0  0  0  0  0  0  0  0
    3.6761    1.1041   -5.0001 F   0  0  0  0  0  0  0  0  0  0  0  0
  1  2  2  0  0  0  0
  1  6  1  0  0  0  0
  2  3  1  0  0  0  0
  3  4  2  0  0  0  0
  3 14  1  0  0  0  0
  4  9  1  0  0  0  0
  5 10  1  0  0  0  0
  5  4  1  0  0  0  0
  6  5  2  0  0  0  0
  7  1  1  0  0  0  0
  8  2  1  0  0  0  0
 11 12  2  0  0  0  0
 11  6  1  0  0  0  0
 13 11  2  0  0  0  0
 14 15  1  0  0  0  0
 16 19  2  0  0  0  0
 16 17  1  0  0  0  0
 16 20  1  0  0  0  0
 17 23  1  0  0  0  0
 18 16  2  0  0  0  0
 21 17  1  0  0  0  0
 22 17  1  0  0  0  0
M  RAD  3  14   2  15   3  20   2
M  END
