Coordinates from ORCA-job p-NO2-Ph-N2-OTf-B3LYPG-6-31G_dp-scan-d09-49-n400
 OpenBabel08281821413D

 23 22  0  0  0  0  0  0  0  0999 V2000
   -2.1199   -0.6748   -5.6752 C   0  0  0  0  0  0  0  0  0  0  0  0
   -0.8838   -0.0375   -5.5796 C   0  0  0  0  0  0  0  0  0  0  0  0
   -0.8671    1.2139   -4.9601 C   0  0  0  0  0  0  0  0  0  0  0  0
   -2.0068    1.8585   -4.4433 C   0  0  0  0  0  0  0  0  0  0  0  0
   -3.2261    1.2101   -4.5646 C   0  0  0  0  0  0  0  0  0  0  0  0
   -3.2553   -0.0448   -5.1752 C   0  0  0  0  0  0  0  0  0  0  0  0
   -2.2045   -1.6458   -6.1461 H   0  0  0  0  0  0  0  0  0  0  0  0
    0.0172   -0.4907   -5.9961 H   0  0  0  0  0  0  0  0  0  0  0  0
   -1.9314    2.8335   -3.9765 H   0  0  0  0  0  0  0  0  0  0  0  0
   -4.1435    1.6529   -4.1991 H   0  0  0  0  0  0  0  0  0  0  0  0
   -4.5655   -0.7321   -5.2964 N   0  0  0  0  0  0  0  0  0  0  0  0
   -5.5456   -0.1425   -4.8509 O   0  0  0  0  0  0  0  0  0  0  0  0
   -4.5702   -1.8353   -5.8294 O   0  0  0  0  0  0  0  0  0  0  0  0
    0.3410    1.9116   -4.7651 N   0  0  0  0  0  0  0  0  0  0  0  0
    1.0563    2.6342   -4.3022 N   0  0  0  0  0  0  0  0  0  0  0  0
    2.1927    0.2980   -7.2789 S   0  0  0  0  0  0  0  0  0  0  0  0
    3.4759    0.2288   -5.9363 C   0  0  0  0  0  0  0  0  0  0  0  0
    2.9242    0.5804   -8.5127 O   0  0  0  0  0  0  0  0  0  0  0  0
    1.3351    1.4463   -6.7939 O   0  0  0  0  0  0  0  0  0  0  0  0
    1.5057   -1.0120   -7.1681 O   0  0  0  0  0  0  0  0  0  0  0  0
    4.2652   -0.8384   -6.0636 F   0  0  0  0  0  0  0  0  0  0  0  0
    4.2326    1.3322   -5.9344 F   0  0  0  0  0  0  0  0  0  0  0  0
    2.8534    0.1546   -4.7305 F   0  0  0  0  0  0  0  0  0  0  0  0
  1  2  2  0  0  0  0
  1  6  1  0  0  0  0
  2  3  1  0  0  0  0
  3 14  1  0  0  0  0
  3  4  2  0  0  0  0
  4  9  1  0  0  0  0
  5  4  1  0  0  0  0
  5 10  1  0  0  0  0
  6  5  2  0  0  0  0
  7  1  1  0  0  0  0
  8  2  1  0  0  0  0
 11  6  1  0  0  0  0
 11 12  2  0  0  0  0
 13 11  2  0  0  0  0
 14 15  1  0  0  0  0
 16 20  2  0  0  0  0
 16 19  1  0  0  0  0
 16 17  1  0  0  0  0
 17 22  1  0  0  0  0
 17 23  1  0  0  0  0
 18 16  2  0  0  0  0
 21 17  1  0  0  0  0
M  RAD  3  14   2  15   3  19   2
M  END
