Coordinates from ORCA-job p-NO2-Ph-N2-OTf-B3LYPG-6-31G_dp-scan-d09-49-n400
 OpenBabel08281821413D

 23 22  0  0  0  0  0  0  0  0999 V2000
   -2.3352   -0.8724   -5.6256 C   0  0  0  0  0  0  0  0  0  0  0  0
   -1.0333   -0.5671   -5.2495 C   0  0  0  0  0  0  0  0  0  0  0  0
   -0.8241    0.6730   -4.6345 C   0  0  0  0  0  0  0  0  0  0  0  0
   -1.8290    1.6194   -4.3936 C   0  0  0  0  0  0  0  0  0  0  0  0
   -3.1204    1.2959   -4.7890 C   0  0  0  0  0  0  0  0  0  0  0  0
   -3.3466    0.0582   -5.3890 C   0  0  0  0  0  0  0  0  0  0  0  0
   -2.5726   -1.8113   -6.1094 H   0  0  0  0  0  0  0  0  0  0  0  0
   -0.1811   -1.2132   -5.4411 H   0  0  0  0  0  0  0  0  0  0  0  0
   -1.6017    2.5695   -3.9250 H   0  0  0  0  0  0  0  0  0  0  0  0
   -3.9467    1.9789   -4.6395 H   0  0  0  0  0  0  0  0  0  0  0  0
   -4.7316   -0.2802   -5.7958 N   0  0  0  0  0  0  0  0  0  0  0  0
   -5.5964    0.5655   -5.5873 O   0  0  0  0  0  0  0  0  0  0  0  0
   -4.9101   -1.3792   -6.3087 O   0  0  0  0  0  0  0  0  0  0  0  0
    0.4566    0.9865   -4.1632 N   0  0  0  0  0  0  0  0  0  0  0  0
    1.3570    1.2161   -3.5510 N   0  0  0  0  0  0  0  0  0  0  0  0
    2.0230    0.2309   -6.7638 S   0  0  0  0  0  0  0  0  0  0  0  0
    3.6917    0.9791   -6.4417 C   0  0  0  0  0  0  0  0  0  0  0  0
    2.0505   -0.2233   -8.1552 O   0  0  0  0  0  0  0  0  0  0  0  0
    1.0894    1.3745   -6.4737 O   0  0  0  0  0  0  0  0  0  0  0  0
    1.9176   -0.8165   -5.7065 O   0  0  0  0  0  0  0  0  0  0  0  0
    4.6579    0.0648   -6.5684 F   0  0  0  0  0  0  0  0  0  0  0  0
    3.9343    1.9869   -7.2855 F   0  0  0  0  0  0  0  0  0  0  0  0
    3.7301    1.4653   -5.1813 F   0  0  0  0  0  0  0  0  0  0  0  0
  1  6  2  0  0  0  0
  1  2  1  0  0  0  0
  2  3  2  0  0  0  0
  3  4  1  0  0  0  0
  3 14  1  0  0  0  0
  4  9  1  0  0  0  0
  5 10  1  0  0  0  0
  5  4  2  0  0  0  0
  6  5  1  0  0  0  0
  7  1  1  0  0  0  0
  8  2  1  0  0  0  0
 11 12  2  0  0  0  0
 11  6  1  0  0  0  0
 13 11  2  0  0  0  0
 14 15  1  0  0  0  0
 16 19  2  0  0  0  0
 16 17  1  0  0  0  0
 16 20  1  0  0  0  0
 17 23  1  0  0  0  0
 18 16  2  0  0  0  0
 21 17  1  0  0  0  0
 22 17  1  0  0  0  0
M  RAD  3  14   2  15   3  20   2
M  END
