Coordinates from ORCA-job p-NO2-Ph-N2-OTf-B3LYPG-6-31G_dp-scan-d09-49-n400
 OpenBabel08281821413D

 23 22  0  0  0  0  0  0  0  0999 V2000
   -2.5157   -0.6598   -5.8203 C   0  0  0  0  0  0  0  0  0  0  0  0
   -1.2451   -0.1488   -5.5764 C   0  0  0  0  0  0  0  0  0  0  0  0
   -1.1368    0.9515   -4.7090 C   0  0  0  0  0  0  0  0  0  0  0  0
   -2.2467    1.5404   -4.0882 C   0  0  0  0  0  0  0  0  0  0  0  0
   -3.5103    1.0216   -4.3407 C   0  0  0  0  0  0  0  0  0  0  0  0
   -3.6162   -0.0691   -5.2017 C   0  0  0  0  0  0  0  0  0  0  0  0
   -2.6635   -1.5062   -6.4794 H   0  0  0  0  0  0  0  0  0  0  0  0
   -0.3556   -0.5656   -6.0315 H   0  0  0  0  0  0  0  0  0  0  0  0
   -2.1077    2.3891   -3.4282 H   0  0  0  0  0  0  0  0  0  0  0  0
   -4.4013    1.4387   -3.8903 H   0  0  0  0  0  0  0  0  0  0  0  0
   -4.9636   -0.6268   -5.4695 N   0  0  0  0  0  0  0  0  0  0  0  0
   -5.9143   -0.0804   -4.9177 O   0  0  0  0  0  0  0  0  0  0  0  0
   -5.0310   -1.5898   -6.2261 O   0  0  0  0  0  0  0  0  0  0  0  0
    0.1110    1.5293   -4.4159 N   0  0  0  0  0  0  0  0  0  0  0  0
    1.2436    1.5254   -4.6298 N   0  0  0  0  0  0  0  0  0  0  0  0
    2.5383    0.6890   -7.0279 S   0  0  0  0  0  0  0  0  0  0  0  0
    4.2447    0.5355   -6.3058 C   0  0  0  0  0  0  0  0  0  0  0  0
    2.4825   -0.2342   -8.1576 O   0  0  0  0  0  0  0  0  0  0  0  0
    2.3111    2.1215   -7.2224 O   0  0  0  0  0  0  0  0  0  0  0  0
    1.6712    0.1328   -5.8534 O   0  0  0  0  0  0  0  0  0  0  0  0
    4.5160   -0.7412   -6.0230 F   0  0  0  0  0  0  0  0  0  0  0  0
    5.1423    0.9908   -7.1828 F   0  0  0  0  0  0  0  0  0  0  0  0
    4.3266    1.2575   -5.1806 F   0  0  0  0  0  0  0  0  0  0  0  0
  1  2  2  0  0  0  0
  1  6  1  0  0  0  0
  2  3  1  0  0  0  0
  3 14  1  0  0  0  0
  3  4  2  0  0  0  0
  4  9  1  0  0  0  0
  5  4  1  0  0  0  0
  5 10  1  0  0  0  0
  6  5  2  0  0  0  0
  7  1  1  0  0  0  0
  8  2  1  0  0  0  0
 11  6  1  0  0  0  0
 11 12  2  0  0  0  0
 13 11  2  0  0  0  0
 15 14  2  0  0  0  0
 16 17  1  0  0  0  0
 16 20  1  0  0  0  0
 17 21  1  0  0  0  0
 17 23  1  0  0  0  0
 18 16  2  0  0  0  0
 19 16  2  0  0  0  0
 22 17  1  0  0  0  0
M  RAD  2  15   2  20   2
M  END
