Coordinates from ORCA-job p-NO2-Ph-N2-OTf-B3LYPG-6-31G_dp-scan-d09-49-n400
 OpenBabel08281821413D

 23 22  0  0  0  0  0  0  0  0999 V2000
   -2.1007   -0.3896   -5.9745 C   0  0  0  0  0  0  0  0  0  0  0  0
   -1.0348    0.5024   -6.0938 C   0  0  0  0  0  0  0  0  0  0  0  0
   -1.0882    1.6589   -5.3121 C   0  0  0  0  0  0  0  0  0  0  0  0
   -2.1383    1.9641   -4.4214 C   0  0  0  0  0  0  0  0  0  0  0  0
   -3.1806    1.0582   -4.3165 C   0  0  0  0  0  0  0  0  0  0  0  0
   -3.1406   -0.0988   -5.0991 C   0  0  0  0  0  0  0  0  0  0  0  0
   -2.1144   -1.3075   -6.5485 H   0  0  0  0  0  0  0  0  0  0  0  0
   -0.1885    0.2815   -6.7446 H   0  0  0  0  0  0  0  0  0  0  0  0
   -2.1250    2.8776   -3.8381 H   0  0  0  0  0  0  0  0  0  0  0  0
   -4.0164    1.2283   -3.6495 H   0  0  0  0  0  0  0  0  0  0  0  0
   -4.2665   -1.0601   -4.9815 N   0  0  0  0  0  0  0  0  0  0  0  0
   -5.1600   -0.7746   -4.1897 O   0  0  0  0  0  0  0  0  0  0  0  0
   -4.2196   -2.0627   -5.6835 O   0  0  0  0  0  0  0  0  0  0  0  0
   -0.0825    2.6345   -5.3862 N   0  0  0  0  0  0  0  0  0  0  0  0
    0.4633    3.6013   -5.2672 N   0  0  0  0  0  0  0  0  0  0  0  0
    2.3829    0.3613   -7.0535 S   0  0  0  0  0  0  0  0  0  0  0  0
    3.4154   -0.3956   -5.7077 C   0  0  0  0  0  0  0  0  0  0  0  0
    3.3314    0.7589   -8.0950 O   0  0  0  0  0  0  0  0  0  0  0  0
    1.7341    1.5255   -6.3372 O   0  0  0  0  0  0  0  0  0  0  0  0
    1.4033   -0.7032   -7.3886 O   0  0  0  0  0  0  0  0  0  0  0  0
    4.0351   -1.4932   -6.1532 F   0  0  0  0  0  0  0  0  0  0  0  0
    4.3358    0.4741   -5.2707 F   0  0  0  0  0  0  0  0  0  0  0  0
    2.6340   -0.7402   -4.6661 F   0  0  0  0  0  0  0  0  0  0  0  0
  1  6  1  0  0  0  0
  2  1  2  0  0  0  0
  2  3  1  0  0  0  0
  3  4  2  0  0  0  0
  4  5  1  0  0  0  0
  4  9  1  0  0  0  0
  5 10  1  0  0  0  0
  6 11  1  0  0  0  0
  6  5  2  0  0  0  0
  7  1  1  0  0  0  0
  8  2  1  0  0  0  0
 11 12  2  0  0  0  0
 13 11  2  0  0  0  0
 14  3  1  0  0  0  0
 14 15  1  0  0  0  0
 16 19  1  0  0  0  0
 16 17  1  0  0  0  0
 17 22  1  0  0  0  0
 17 23  1  0  0  0  0
 18 16  2  0  0  0  0
 20 16  2  0  0  0  0
 21 17  1  0  0  0  0
M  RAD  3  14   2  15   3  19   2
M  END
