Coordinates from ORCA-job p-NO2-Ph-N2-OTf-B3LYPG-6-31G_dp-scan-d09-49-n400
 OpenBabel08281821413D

 23 22  0  0  0  0  0  0  0  0999 V2000
   -2.3110   -0.8129   -5.6532 C   0  0  0  0  0  0  0  0  0  0  0  0
   -1.0111   -0.4218   -5.3518 C   0  0  0  0  0  0  0  0  0  0  0  0
   -0.8530    0.8156   -4.7216 C   0  0  0  0  0  0  0  0  0  0  0  0
   -1.9048    1.6839   -4.3988 C   0  0  0  0  0  0  0  0  0  0  0  0
   -3.1929    1.2790   -4.7254 C   0  0  0  0  0  0  0  0  0  0  0  0
   -3.3684    0.0396   -5.3386 C   0  0  0  0  0  0  0  0  0  0  0  0
   -2.5112   -1.7593   -6.1391 H   0  0  0  0  0  0  0  0  0  0  0  0
   -0.1329   -1.0152   -5.6017 H   0  0  0  0  0  0  0  0  0  0  0  0
   -1.7166    2.6379   -3.9207 H   0  0  0  0  0  0  0  0  0  0  0  0
   -4.0533    1.8999   -4.5123 H   0  0  0  0  0  0  0  0  0  0  0  0
   -4.7490   -0.3866   -5.6722 N   0  0  0  0  0  0  0  0  0  0  0  0
   -5.6559    0.3919   -5.3922 O   0  0  0  0  0  0  0  0  0  0  0  0
   -4.8827   -1.4855   -6.1986 O   0  0  0  0  0  0  0  0  0  0  0  0
    0.4330    1.2287   -4.3194 N   0  0  0  0  0  0  0  0  0  0  0  0
    1.2524    1.6031   -3.6595 N   0  0  0  0  0  0  0  0  0  0  0  0
    2.0913    0.1759   -6.8872 S   0  0  0  0  0  0  0  0  0  0  0  0
    3.7406    0.8188   -6.3247 C   0  0  0  0  0  0  0  0  0  0  0  0
    2.2188   -0.0339   -8.3296 O   0  0  0  0  0  0  0  0  0  0  0  0
    1.1619    1.3063   -6.5021 O   0  0  0  0  0  0  0  0  0  0  0  0
    1.8752   -1.0165   -6.0289 O   0  0  0  0  0  0  0  0  0  0  0  0
    4.6953   -0.0977   -6.5020 F   0  0  0  0  0  0  0  0  0  0  0  0
    4.0724    1.9290   -6.9910 F   0  0  0  0  0  0  0  0  0  0  0  0
    3.6812    1.1207   -5.0076 F   0  0  0  0  0  0  0  0  0  0  0  0
  1  2  2  0  0  0  0
  1  6  1  0  0  0  0
  2  3  1  0  0  0  0
  3  4  2  0  0  0  0
  3 14  1  0  0  0  0
  4  9  1  0  0  0  0
  5 10  1  0  0  0  0
  5  4  1  0  0  0  0
  6  5  2  0  0  0  0
  7  1  1  0  0  0  0
  8  2  1  0  0  0  0
 11 12  2  0  0  0  0
 11  6  1  0  0  0  0
 13 11  2  0  0  0  0
 14 15  1  0  0  0  0
 16 19  2  0  0  0  0
 16 17  1  0  0  0  0
 16 20  1  0  0  0  0
 17 23  1  0  0  0  0
 18 16  2  0  0  0  0
 21 17  1  0  0  0  0
 22 17  1  0  0  0  0
M  RAD  3  14   2  15   3  20   2
M  END
