Coordinates from ORCA-job p-NO2-Ph-N2-OTf-B3LYPG-6-31G_dp-scan-d09-49-n400
 OpenBabel08281821413D

 23 22  0  0  0  0  0  0  0  0999 V2000
   -2.2707   -0.7469   -5.6862 C   0  0  0  0  0  0  0  0  0  0  0  0
   -0.9843   -0.2595   -5.4717 C   0  0  0  0  0  0  0  0  0  0  0  0
   -0.8768    0.9734   -4.8246 C   0  0  0  0  0  0  0  0  0  0  0  0
   -1.9692    1.7460   -4.3998 C   0  0  0  0  0  0  0  0  0  0  0  0
   -3.2421    1.2482   -4.6429 C   0  0  0  0  0  0  0  0  0  0  0  0
   -3.3647    0.0114   -5.2755 C   0  0  0  0  0  0  0  0  0  0  0  0
   -2.4305   -1.6976   -6.1786 H   0  0  0  0  0  0  0  0  0  0  0  0
   -0.0914   -0.7930   -5.8010 H   0  0  0  0  0  0  0  0  0  0  0  0
   -1.8211    2.7007   -3.9091 H   0  0  0  0  0  0  0  0  0  0  0  0
   -4.1300    1.7942   -4.3521 H   0  0  0  0  0  0  0  0  0  0  0  0
   -4.7298   -0.5153   -5.5219 N   0  0  0  0  0  0  0  0  0  0  0  0
   -5.6707    0.1832   -5.1565 O   0  0  0  0  0  0  0  0  0  0  0  0
   -4.8165   -1.6072   -6.0717 O   0  0  0  0  0  0  0  0  0  0  0  0
    0.3950    1.4950   -4.5014 N   0  0  0  0  0  0  0  0  0  0  0  0
    1.1614    2.0257   -3.8843 N   0  0  0  0  0  0  0  0  0  0  0  0
    2.1507    0.1740   -7.0367 S   0  0  0  0  0  0  0  0  0  0  0  0
    3.7339    0.6147   -6.1703 C   0  0  0  0  0  0  0  0  0  0  0  0
    2.4651    0.1891   -8.4651 O   0  0  0  0  0  0  0  0  0  0  0  0
    1.2343    1.3004   -6.6016 O   0  0  0  0  0  0  0  0  0  0  0  0
    1.7660   -1.1203   -6.4237 O   0  0  0  0  0  0  0  0  0  0  0  0
    4.6478   -0.3451   -6.3268 F   0  0  0  0  0  0  0  0  0  0  0  0
    4.2273    1.7677   -6.6319 F   0  0  0  0  0  0  0  0  0  0  0  0
    3.4956    0.7622   -4.8451 F   0  0  0  0  0  0  0  0  0  0  0  0
  1  2  2  0  0  0  0
  1  6  1  0  0  0  0
  2  3  1  0  0  0  0
  3 14  1  0  0  0  0
  3  4  2  0  0  0  0
  4  9  1  0  0  0  0
  5  4  1  0  0  0  0
  5 10  1  0  0  0  0
  6  5  2  0  0  0  0
  7  1  1  0  0  0  0
  8  2  1  0  0  0  0
 11  6  1  0  0  0  0
 11 12  2  0  0  0  0
 13 11  2  0  0  0  0
 14 15  1  0  0  0  0
 16 19  2  0  0  0  0
 16 20  1  0  0  0  0
 16 17  1  0  0  0  0
 17 23  1  0  0  0  0
 18 16  2  0  0  0  0
 21 17  1  0  0  0  0
 22 17  1  0  0  0  0
M  RAD  3  14   2  15   3  20   2
M  END
