Coordinates from ORCA-job p-NO2-Ph-N2-OTf-B3LYPG-6-31G_dp-scan-d09-49-n400
 OpenBabel08281821413D

 23 23  0  0  1  0  0  0  0  0999 V2000
   -1.2258   -0.5720   -5.3263 C   0  0  0  0  0  0  0  0  0  0  0  0
   -0.2197    0.4814   -4.9587 C   0  0  2  0  0  0  0  0  0  0  0  0
   -0.8707    1.7722   -4.4539 C   0  0  0  0  0  0  0  0  0  0  0  0
   -2.2202    2.0926   -4.8500 C   0  0  0  0  0  0  0  0  0  0  0  0
   -3.0107    1.1261   -5.3736 C   0  0  0  0  0  0  0  0  0  0  0  0
   -2.5025   -0.2245   -5.5463 C   0  0  0  0  0  0  0  0  0  0  0  0
   -0.8787   -1.5824   -5.5016 H   0  0  0  0  0  0  0  0  0  0  0  0
    0.4888    0.1086   -4.2105 H   0  0  0  0  0  0  0  0  0  0  0  0
   -2.5886    3.0956   -4.6678 H   0  0  0  0  0  0  0  0  0  0  0  0
   -4.0384    1.3182   -5.6538 H   0  0  0  0  0  0  0  0  0  0  0  0
   -3.4564   -1.2614   -5.9997 N   0  0  0  0  0  0  0  0  0  0  0  0
   -4.6060   -0.8929   -6.2313 O   0  0  0  0  0  0  0  0  0  0  0  0
   -3.0405   -2.4097   -6.1107 O   0  0  0  0  0  0  0  0  0  0  0  0
   -0.2116    2.5644   -3.6726 N   0  0  0  0  0  0  0  0  0  0  0  0
    0.9135    2.6096   -3.1391 N   0  0  0  0  0  0  0  0  0  0  0  0
    2.1754    0.8601   -6.1715 S   0  0  2  0  0  0  0  0  0  0  0  0
    2.2496   -0.8202   -7.0399 C   0  0  0  0  0  0  0  0  0  0  0  0
    0.4521    0.7888   -6.2016 O   0  0  0  0  0  0  0  0  0  0  0  0
    2.5681    1.8288   -7.2086 O   0  0  0  0  0  0  0  0  0  0  0  0
    2.0524    2.7276   -4.2158 O   0  0  0  0  0  0  0  0  0  0  0  0
    1.6678   -1.7342   -6.2316 F   0  0  0  0  0  0  0  0  0  0  0  0
    1.6450   -0.8252   -8.2207 F   0  0  0  0  0  0  0  0  0  0  0  0
    3.5363   -1.1504   -7.1929 F   0  0  0  0  0  0  0  0  0  0  0  0
  1  2  1  0  0  0  0
  2  3  1  0  0  0  0
  2  8  1  1  0  0  0
  3 14  2  0  0  0  0
  4  9  1  0  0  0  0
  4  3  1  0  0  0  0
  5  4  2  0  0  0  0
  6  5  1  0  0  0  0
  6  1  2  0  0  0  0
  7  1  1  0  0  0  0
 10  5  1  0  0  0  0
 11  6  1  0  0  0  0
 12 11  2  0  0  0  0
 13 11  2  0  0  0  0
 14 15  1  0  0  0  0
 16 19  1  6  0  0  0
 17 21  1  0  0  0  0
 17 16  1  0  0  0  0
 18 16  1  0  0  0  0
 18  2  1  0  0  0  0
 20 15  1  0  0  0  0
 22 17  1  0  0  0  0
 23 17  1  0  0  0  0
M  RAD  3  15   2  19   2  20   2
M  END
