Coordinates from ORCA-job p-NO2-Ph-N2-OTf-B3LYPG-6-31G_dp-scan-d09-49-n400
 OpenBabel08281821413D

 23 23  0  0  1  0  0  0  0  0999 V2000
   -1.2272   -0.5569   -5.3660 C   0  0  0  0  0  0  0  0  0  0  0  0
   -0.2237    0.4953   -4.9899 C   0  0  2  0  0  0  0  0  0  0  0  0
   -0.8704    1.7835   -4.4705 C   0  0  0  0  0  0  0  0  0  0  0  0
   -2.2400    2.0880   -4.8281 C   0  0  0  0  0  0  0  0  0  0  0  0
   -3.0339    1.1206   -5.3384 C   0  0  0  0  0  0  0  0  0  0  0  0
   -2.5124   -0.2208   -5.5477 C   0  0  0  0  0  0  0  0  0  0  0  0
   -0.8729   -1.5588   -5.5718 H   0  0  0  0  0  0  0  0  0  0  0  0
    0.4789    0.1137   -4.2387 H   0  0  0  0  0  0  0  0  0  0  0  0
   -2.6112    3.0864   -4.6273 H   0  0  0  0  0  0  0  0  0  0  0  0
   -4.0712    1.3033   -5.5875 H   0  0  0  0  0  0  0  0  0  0  0  0
   -3.4631   -1.2614   -6.0001 N   0  0  0  0  0  0  0  0  0  0  0  0
   -4.6234   -0.9048   -6.1943 O   0  0  0  0  0  0  0  0  0  0  0  0
   -3.0348   -2.4013   -6.1471 O   0  0  0  0  0  0  0  0  0  0  0  0
   -0.2026    2.5954   -3.7259 N   0  0  0  0  0  0  0  0  0  0  0  0
    0.9480    2.5611   -3.1889 N   0  0  0  0  0  0  0  0  0  0  0  0
    2.1836    0.8463   -6.1761 S   0  0  2  0  0  0  0  0  0  0  0  0
    2.2636   -0.8417   -7.0245 C   0  0  0  0  0  0  0  0  0  0  0  0
    0.4636    0.8051   -6.2254 O   0  0  0  0  0  0  0  0  0  0  0  0
    2.6081    1.8052   -7.2100 O   0  0  0  0  0  0  0  0  0  0  0  0
    2.0323    2.8181   -4.1344 O   0  0  0  0  0  0  0  0  0  0  0  0
    1.6659   -1.7436   -6.2151 F   0  0  0  0  0  0  0  0  0  0  0  0
    1.6724   -0.8518   -8.2117 F   0  0  0  0  0  0  0  0  0  0  0  0
    3.5498   -1.1797   -7.1587 F   0  0  0  0  0  0  0  0  0  0  0  0
  1  2  1  0  0  0  0
  2  3  1  0  0  0  0
  2  8  1  1  0  0  0
  3 14  2  0  0  0  0
  4  9  1  0  0  0  0
  4  3  1  0  0  0  0
  5  4  2  0  0  0  0
  6  1  2  0  0  0  0
  6  5  1  0  0  0  0
  7  1  1  0  0  0  0
 10  5  1  0  0  0  0
 11  6  1  0  0  0  0
 12 11  2  0  0  0  0
 13 11  2  0  0  0  0
 14 15  1  0  0  0  0
 16 19  1  6  0  0  0
 17 21  1  0  0  0  0
 17 16  1  0  0  0  0
 18 16  1  0  0  0  0
 18  2  1  0  0  0  0
 20 15  1  0  0  0  0
 22 17  1  0  0  0  0
 23 17  1  0  0  0  0
M  RAD  3  15   2  19   2  20   2
M  END
