Coordinates from ORCA-job p-NO2-Ph-N2-OTf-B3LYPG-6-31G_dp-scan-d09-49-n400
 OpenBabel08281821413D

 23 22  0  0  0  0  0  0  0  0999 V2000
   -2.3491   -0.7345   -5.7366 C   0  0  0  0  0  0  0  0  0  0  0  0
   -1.0773   -0.4252   -5.2699 C   0  0  0  0  0  0  0  0  0  0  0  0
   -0.9434    0.7144   -4.4617 C   0  0  0  0  0  0  0  0  0  0  0  0
   -2.0139    1.5427   -4.1059 C   0  0  0  0  0  0  0  0  0  0  0  0
   -3.2769    1.2272   -4.5909 C   0  0  0  0  0  0  0  0  0  0  0  0
   -3.4157    0.0948   -5.3919 C   0  0  0  0  0  0  0  0  0  0  0  0
   -2.5224   -1.5983   -6.3661 H   0  0  0  0  0  0  0  0  0  0  0  0
   -0.2044   -1.0214   -5.5083 H   0  0  0  0  0  0  0  0  0  0  0  0
   -1.8503    2.4098   -3.4764 H   0  0  0  0  0  0  0  0  0  0  0  0
   -4.1452    1.8302   -4.3599 H   0  0  0  0  0  0  0  0  0  0  0  0
   -4.7684   -0.2457   -5.8974 N   0  0  0  0  0  0  0  0  0  0  0  0
   -5.6872    0.5044   -5.5818 O   0  0  0  0  0  0  0  0  0  0  0  0
   -4.8694   -1.2531   -6.5887 O   0  0  0  0  0  0  0  0  0  0  0  0
    0.3211    1.0381   -3.9589 N   0  0  0  0  0  0  0  0  0  0  0  0
    1.4506    0.9366   -3.9069 N   0  0  0  0  0  0  0  0  0  0  0  0
    2.1571    0.2097   -6.7040 S   0  0  0  0  0  0  0  0  0  0  0  0
    3.8385    0.9926   -6.6058 C   0  0  0  0  0  0  0  0  0  0  0  0
    2.2185   -0.7549   -7.8023 O   0  0  0  0  0  0  0  0  0  0  0  0
    1.2122    1.3378   -6.7975 O   0  0  0  0  0  0  0  0  0  0  0  0
    2.0513   -0.4828   -5.3377 O   0  0  0  0  0  0  0  0  0  0  0  0
    4.7824    0.0611   -6.4500 F   0  0  0  0  0  0  0  0  0  0  0  0
    4.0867    1.6843   -7.7217 F   0  0  0  0  0  0  0  0  0  0  0  0
    3.8844    1.8331   -5.5580 F   0  0  0  0  0  0  0  0  0  0  0  0
  1  6  2  0  0  0  0
  1  2  1  0  0  0  0
  2  3  2  0  0  0  0
  3  4  1  0  0  0  0
  3 14  1  0  0  0  0
  4  9  1  0  0  0  0
  5 10  1  0  0  0  0
  5  4  2  0  0  0  0
  6  5  1  0  0  0  0
  7  1  1  0  0  0  0
  8  2  1  0  0  0  0
 11 12  2  0  0  0  0
 11  6  1  0  0  0  0
 13 11  2  0  0  0  0
 14 15  2  0  0  0  0
 16 17  1  0  0  0  0
 16 20  1  0  0  0  0
 17 21  1  0  0  0  0
 17 23  1  0  0  0  0
 18 16  2  0  0  0  0
 19 16  2  0  0  0  0
 22 17  1  0  0  0  0
M  RAD  2  15   2  20   2
M  END
