Coordinates from ORCA-job p-NO2-Ph-N2-OTf-B3LYPG-6-31G_dp-scan-d09-49-n400
 OpenBabel08281821413D

 23 22  0  0  0  0  0  0  0  0999 V2000
   -2.2860   -0.7680   -5.6758 C   0  0  0  0  0  0  0  0  0  0  0  0
   -0.9938   -0.3129   -5.4310 C   0  0  0  0  0  0  0  0  0  0  0  0
   -0.8705    0.9212   -4.7885 C   0  0  0  0  0  0  0  0  0  0  0  0
   -1.9517    1.7256   -4.3981 C   0  0  0  0  0  0  0  0  0  0  0  0
   -3.2309    1.2592   -4.6707 C   0  0  0  0  0  0  0  0  0  0  0  0
   -3.3701    0.0218   -5.2978 C   0  0  0  0  0  0  0  0  0  0  0  0
   -2.4588   -1.7172   -6.1666 H   0  0  0  0  0  0  0  0  0  0  0  0
   -0.1048   -0.8676   -5.7326 H   0  0  0  0  0  0  0  0  0  0  0  0
   -1.7909    2.6799   -3.9104 H   0  0  0  0  0  0  0  0  0  0  0  0
   -4.1112    1.8304   -4.4061 H   0  0  0  0  0  0  0  0  0  0  0  0
   -4.7414   -0.4712   -5.5751 N   0  0  0  0  0  0  0  0  0  0  0  0
   -5.6730    0.2529   -5.2366 O   0  0  0  0  0  0  0  0  0  0  0  0
   -4.8427   -1.5653   -6.1182 O   0  0  0  0  0  0  0  0  0  0  0  0
    0.4076    1.4072   -4.4366 N   0  0  0  0  0  0  0  0  0  0  0  0
    1.1869    1.8881   -3.7954 N   0  0  0  0  0  0  0  0  0  0  0  0
    2.1324    0.1685   -6.9849 S   0  0  0  0  0  0  0  0  0  0  0  0
    3.7471    0.6854   -6.2265 C   0  0  0  0  0  0  0  0  0  0  0  0
    2.3717    0.1128   -8.4270 O   0  0  0  0  0  0  0  0  0  0  0  0
    1.2114    1.2949   -6.5602 O   0  0  0  0  0  0  0  0  0  0  0  0
    1.8101   -1.0987   -6.2844 O   0  0  0  0  0  0  0  0  0  0  0  0
    4.6760   -0.2585   -6.3932 F   0  0  0  0  0  0  0  0  0  0  0  0
    4.1843    1.8282   -6.7639 F   0  0  0  0  0  0  0  0  0  0  0  0
    3.5774    0.8844   -4.8984 F   0  0  0  0  0  0  0  0  0  0  0  0
  1  2  2  0  0  0  0
  1  6  1  0  0  0  0
  2  3  1  0  0  0  0
  3 14  1  0  0  0  0
  3  4  2  0  0  0  0
  4  9  1  0  0  0  0
  5 10  1  0  0  0  0
  5  4  1  0  0  0  0
  6  5  2  0  0  0  0
  7  1  1  0  0  0  0
  8  2  1  0  0  0  0
 11  6  1  0  0  0  0
 11 12  2  0  0  0  0
 13 11  2  0  0  0  0
 14 15  1  0  0  0  0
 16 19  2  0  0  0  0
 16 20  1  0  0  0  0
 16 17  1  0  0  0  0
 17 23  1  0  0  0  0
 18 16  2  0  0  0  0
 21 17  1  0  0  0  0
 22 17  1  0  0  0  0
M  RAD  3  14   2  15   3  20   2
M  END
