Coordinates from ORCA-job p-NO2-Ph-N2-OTf-B3LYPG-6-31G_dp-scan-d09-49-n400
 OpenBabel08281821413D

 23 22  0  0  0  0  0  0  0  0999 V2000
   -2.0562   -0.6352   -5.6927 C   0  0  0  0  0  0  0  0  0  0  0  0
   -0.8499    0.0631   -5.6491 C   0  0  0  0  0  0  0  0  0  0  0  0
   -0.8672    1.3131   -5.0272 C   0  0  0  0  0  0  0  0  0  0  0  0
   -2.0157    1.8960   -4.4557 C   0  0  0  0  0  0  0  0  0  0  0  0
   -3.2042    1.1867   -4.5229 C   0  0  0  0  0  0  0  0  0  0  0  0
   -3.1979   -0.0664   -5.1385 C   0  0  0  0  0  0  0  0  0  0  0  0
   -2.1112   -1.6080   -6.1644 H   0  0  0  0  0  0  0  0  0  0  0  0
    0.0472   -0.3530   -6.1064 H   0  0  0  0  0  0  0  0  0  0  0  0
   -1.9692    2.8723   -3.9879 H   0  0  0  0  0  0  0  0  0  0  0  0
   -4.1248    1.5811   -4.1125 H   0  0  0  0  0  0  0  0  0  0  0  0
   -4.4756   -0.8198   -5.2035 N   0  0  0  0  0  0  0  0  0  0  0  0
   -5.4626   -0.2827   -4.7094 O   0  0  0  0  0  0  0  0  0  0  0  0
   -4.4485   -1.9195   -5.7426 O   0  0  0  0  0  0  0  0  0  0  0  0
    0.3035    2.0847   -4.8898 N   0  0  0  0  0  0  0  0  0  0  0  0
    0.9714    2.8836   -4.4838 N   0  0  0  0  0  0  0  0  0  0  0  0
    2.2337    0.3516   -7.3305 S   0  0  0  0  0  0  0  0  0  0  0  0
    3.3352    0.0653   -5.8608 C   0  0  0  0  0  0  0  0  0  0  0  0
    3.1267    0.6711   -8.4428 O   0  0  0  0  0  0  0  0  0  0  0  0
    1.4158    1.5265   -6.8393 O   0  0  0  0  0  0  0  0  0  0  0  0
    1.4451   -0.9019   -7.4130 O   0  0  0  0  0  0  0  0  0  0  0  0
    4.0481   -1.0544   -5.9871 F   0  0  0  0  0  0  0  0  0  0  0  0
    4.1707    1.0936   -5.6729 F   0  0  0  0  0  0  0  0  0  0  0  0
    2.5650   -0.0469   -4.7453 F   0  0  0  0  0  0  0  0  0  0  0  0
  1  2  2  0  0  0  0
  1  6  1  0  0  0  0
  2  3  1  0  0  0  0
  3 14  1  0  0  0  0
  3  4  2  0  0  0  0
  4  9  1  0  0  0  0
  5  4  1  0  0  0  0
  5 10  1  0  0  0  0
  6  5  2  0  0  0  0
  7  1  1  0  0  0  0
  8  2  1  0  0  0  0
 11  6  1  0  0  0  0
 11 12  2  0  0  0  0
 13 11  2  0  0  0  0
 14 15  1  0  0  0  0
 16 19  1  0  0  0  0
 16 17  1  0  0  0  0
 17 22  1  0  0  0  0
 17 23  1  0  0  0  0
 18 16  2  0  0  0  0
 20 16  2  0  0  0  0
 21 17  1  0  0  0  0
M  RAD  3  14   2  15   3  19   2
M  END
