Coordinates from ORCA-job p-NO2-Ph-N2-OTf-B3LYPG-6-31G_dp-scan-d09-49-n400
 OpenBabel08281821413D

 23 22  0  0  0  0  0  0  0  0999 V2000
   -2.3347   -0.8569   -5.6369 C   0  0  0  0  0  0  0  0  0  0  0  0
   -1.0395   -0.5676   -5.2290 C   0  0  0  0  0  0  0  0  0  0  0  0
   -0.8351    0.6614   -4.5861 C   0  0  0  0  0  0  0  0  0  0  0  0
   -1.8386    1.6087   -4.3462 C   0  0  0  0  0  0  0  0  0  0  0  0
   -3.1237    1.3014   -4.7743 C   0  0  0  0  0  0  0  0  0  0  0  0
   -3.3443    0.0770   -5.4030 C   0  0  0  0  0  0  0  0  0  0  0  0
   -2.5683   -1.7841   -6.1445 H   0  0  0  0  0  0  0  0  0  0  0  0
   -0.1890   -1.2178   -5.4126 H   0  0  0  0  0  0  0  0  0  0  0  0
   -1.6147    2.5478   -3.8544 H   0  0  0  0  0  0  0  0  0  0  0  0
   -3.9493    1.9860   -4.6287 H   0  0  0  0  0  0  0  0  0  0  0  0
   -4.7228   -0.2443   -5.8454 N   0  0  0  0  0  0  0  0  0  0  0  0
   -5.5864    0.6029   -5.6382 O   0  0  0  0  0  0  0  0  0  0  0  0
   -4.8976   -1.3333   -6.3802 O   0  0  0  0  0  0  0  0  0  0  0  0
    0.4411    0.9419   -4.0997 N   0  0  0  0  0  0  0  0  0  0  0  0
    1.4050    1.0779   -3.5624 N   0  0  0  0  0  0  0  0  0  0  0  0
    2.0340    0.1910   -6.7261 S   0  0  0  0  0  0  0  0  0  0  0  0
    3.6756    1.0259   -6.4896 C   0  0  0  0  0  0  0  0  0  0  0  0
    2.0590   -0.3623   -8.0819 O   0  0  0  0  0  0  0  0  0  0  0  0
    1.0580    1.3070   -6.4941 O   0  0  0  0  0  0  0  0  0  0  0  0
    1.9947   -0.7888   -5.5988 O   0  0  0  0  0  0  0  0  0  0  0  0
    4.6775    0.1455   -6.5748 F   0  0  0  0  0  0  0  0  0  0  0  0
    3.8611    1.9829   -7.4049 F   0  0  0  0  0  0  0  0  0  0  0  0
    3.7174    1.5988   -5.2664 F   0  0  0  0  0  0  0  0  0  0  0  0
  1  6  2  0  0  0  0
  1  2  1  0  0  0  0
  2  3  2  0  0  0  0
  3  4  1  0  0  0  0
  3 14  1  0  0  0  0
  4  9  1  0  0  0  0
  5 10  1  0  0  0  0
  5  4  2  0  0  0  0
  6  5  1  0  0  0  0
  7  1  1  0  0  0  0
  8  2  1  0  0  0  0
 11 12  2  0  0  0  0
 11  6  1  0  0  0  0
 13 11  2  0  0  0  0
 14 15  1  0  0  0  0
 16 19  2  0  0  0  0
 16 17  1  0  0  0  0
 16 20  1  0  0  0  0
 17 23  1  0  0  0  0
 18 16  2  0  0  0  0
 21 17  1  0  0  0  0
 22 17  1  0  0  0  0
M  RAD  3  14   2  15   3  20   2
M  END
