Coordinates from ORCA-job p-NO2-Ph-N2-OTf-B3LYPG-6-31G_dp-scan-d09-49-n400
 OpenBabel08281821413D

 23 22  0  0  0  0  0  0  0  0999 V2000
   -2.3256   -0.8537   -5.6306 C   0  0  0  0  0  0  0  0  0  0  0  0
   -1.0232   -0.5164   -5.2826 C   0  0  0  0  0  0  0  0  0  0  0  0
   -0.8332    0.7250   -4.6666 C   0  0  0  0  0  0  0  0  0  0  0  0
   -1.8562    1.6452   -4.4009 C   0  0  0  0  0  0  0  0  0  0  0  0
   -3.1475    1.2909   -4.7703 C   0  0  0  0  0  0  0  0  0  0  0  0
   -3.3552    0.0498   -5.3697 C   0  0  0  0  0  0  0  0  0  0  0  0
   -2.5493   -1.7974   -6.1117 H   0  0  0  0  0  0  0  0  0  0  0  0
   -0.1605   -1.1434   -5.4947 H   0  0  0  0  0  0  0  0  0  0  0  0
   -1.6433    2.5988   -3.9327 H   0  0  0  0  0  0  0  0  0  0  0  0
   -3.9871    1.9525   -4.6005 H   0  0  0  0  0  0  0  0  0  0  0  0
   -4.7395   -0.3216   -5.7489 N   0  0  0  0  0  0  0  0  0  0  0  0
   -5.6206    0.5018   -5.5197 O   0  0  0  0  0  0  0  0  0  0  0  0
   -4.9015   -1.4228   -6.2626 O   0  0  0  0  0  0  0  0  0  0  0  0
    0.4506    1.0792   -4.2200 N   0  0  0  0  0  0  0  0  0  0  0  0
    1.3114    1.3704   -3.5748 N   0  0  0  0  0  0  0  0  0  0  0  0
    2.0458    0.2121   -6.8145 S   0  0  0  0  0  0  0  0  0  0  0  0
    3.7125    0.9176   -6.3977 C   0  0  0  0  0  0  0  0  0  0  0  0
    2.1028   -0.1313   -8.2360 O   0  0  0  0  0  0  0  0  0  0  0  0
    1.1185    1.3517   -6.4709 O   0  0  0  0  0  0  0  0  0  0  0  0
    1.8990   -0.9056   -5.8421 O   0  0  0  0  0  0  0  0  0  0  0  0
    4.6705   -0.0009   -6.5485 F   0  0  0  0  0  0  0  0  0  0  0  0
    3.9932    1.9701   -7.1723 F   0  0  0  0  0  0  0  0  0  0  0  0
    3.7176    1.3290   -5.1099 F   0  0  0  0  0  0  0  0  0  0  0  0
  1  6  2  0  0  0  0
  1  2  1  0  0  0  0
  2  3  2  0  0  0  0
  3  4  1  0  0  0  0
  3 14  1  0  0  0  0
  4  9  1  0  0  0  0
  5 10  1  0  0  0  0
  5  4  2  0  0  0  0
  6  5  1  0  0  0  0
  7  1  1  0  0  0  0
  8  2  1  0  0  0  0
 11 12  2  0  0  0  0
 11  6  1  0  0  0  0
 13 11  2  0  0  0  0
 14 15  1  0  0  0  0
 16 19  2  0  0  0  0
 16 17  1  0  0  0  0
 16 20  1  0  0  0  0
 17 23  1  0  0  0  0
 18 16  2  0  0  0  0
 21 17  1  0  0  0  0
 22 17  1  0  0  0  0
M  RAD  3  14   2  15   3  20   2
M  END
