Coordinates from ORCA-job p-NO2-Ph-N2-OTf-B3LYPG-6-31G_dp-scan-d09-49-n400
 OpenBabel08281821413D

 23 22  0  0  0  0  0  0  0  0999 V2000
   -2.3263   -0.8266   -5.6506 C   0  0  0  0  0  0  0  0  0  0  0  0
   -1.0423   -0.5533   -5.2004 C   0  0  0  0  0  0  0  0  0  0  0  0
   -0.8517    0.6569   -4.5148 C   0  0  0  0  0  0  0  0  0  0  0  0
   -1.8597    1.5978   -4.2699 C   0  0  0  0  0  0  0  0  0  0  0  0
   -3.1332    1.3083   -4.7425 C   0  0  0  0  0  0  0  0  0  0  0  0
   -3.3387    0.1042   -5.4146 C   0  0  0  0  0  0  0  0  0  0  0  0
   -2.5490   -1.7368   -6.1928 H   0  0  0  0  0  0  0  0  0  0  0  0
   -0.1914   -1.2041   -5.3783 H   0  0  0  0  0  0  0  0  0  0  0  0
   -1.6469    2.5193   -3.7413 H   0  0  0  0  0  0  0  0  0  0  0  0
   -3.9617    1.9896   -4.5982 H   0  0  0  0  0  0  0  0  0  0  0  0
   -4.7065   -0.1998   -5.9022 N   0  0  0  0  0  0  0  0  0  0  0  0
   -5.5723    0.6449   -5.6952 O   0  0  0  0  0  0  0  0  0  0  0  0
   -4.8701   -1.2737   -6.4698 O   0  0  0  0  0  0  0  0  0  0  0  0
    0.4179    0.9067   -4.0110 N   0  0  0  0  0  0  0  0  0  0  0  0
    1.4509    0.9677   -3.6005 N   0  0  0  0  0  0  0  0  0  0  0  0
    2.0600    0.1196   -6.7137 S   0  0  0  0  0  0  0  0  0  0  0  0
    3.6448    1.0713   -6.5383 C   0  0  0  0  0  0  0  0  0  0  0  0
    2.1300   -0.5300   -8.0250 O   0  0  0  0  0  0  0  0  0  0  0  0
    1.0138    1.1743   -6.5528 O   0  0  0  0  0  0  0  0  0  0  0  0
    2.0895   -0.7919   -5.5246 O   0  0  0  0  0  0  0  0  0  0  0  0
    4.7014    0.2523   -6.5484 F   0  0  0  0  0  0  0  0  0  0  0  0
    3.7784    1.9612   -7.5278 F   0  0  0  0  0  0  0  0  0  0  0  0
    3.6423    1.7434   -5.3656 F   0  0  0  0  0  0  0  0  0  0  0  0
  1  6  2  0  0  0  0
  1  2  1  0  0  0  0
  2  3  2  0  0  0  0
  3  4  1  0  0  0  0
  3 14  1  0  0  0  0
  4  9  1  0  0  0  0
  5 10  1  0  0  0  0
  5  4  2  0  0  0  0
  6  5  1  0  0  0  0
  7  1  1  0  0  0  0
  8  2  1  0  0  0  0
 11 12  2  0  0  0  0
 11  6  1  0  0  0  0
 13 11  2  0  0  0  0
 14 15  1  0  0  0  0
 16 19  2  0  0  0  0
 16 17  1  0  0  0  0
 16 20  1  0  0  0  0
 17 23  1  0  0  0  0
 18 16  2  0  0  0  0
 21 17  1  0  0  0  0
 22 17  1  0  0  0  0
M  RAD  3  14   2  15   3  20   2
M  END
