Coordinates from ORCA-job p-NO2-Ph-N2-OTf-B3LYPG-6-31G_dp-scan-d09-49-n400
 OpenBabel08281821413D

 23 23  0  0  1  0  0  0  0  0999 V2000
   -1.2344   -0.4794   -5.5643 C   0  0  0  0  0  0  0  0  0  0  0  0
   -0.2494    0.5498   -5.0995 C   0  0  2  0  0  0  0  0  0  0  0  0
   -0.8945    1.8197   -4.5380 C   0  0  0  0  0  0  0  0  0  0  0  0
   -2.3203    2.0273   -4.6547 C   0  0  0  0  0  0  0  0  0  0  0  0
   -3.1205    1.0490   -5.1362 C   0  0  0  0  0  0  0  0  0  0  0  0
   -2.5493   -0.2137   -5.5672 C   0  0  0  0  0  0  0  0  0  0  0  0
   -0.8519   -1.4180   -5.9431 H   0  0  0  0  0  0  0  0  0  0  0  0
    0.3810    0.1350   -4.2932 H   0  0  0  0  0  0  0  0  0  0  0  0
   -2.7180    2.9809   -4.3268 H   0  0  0  0  0  0  0  0  0  0  0  0
   -4.1930    1.1735   -5.2164 H   0  0  0  0  0  0  0  0  0  0  0  0
   -3.4812   -1.2526   -6.0634 N   0  0  0  0  0  0  0  0  0  0  0  0
   -4.6753   -0.9625   -6.0812 O   0  0  0  0  0  0  0  0  0  0  0  0
   -3.0047   -2.3262   -6.4171 O   0  0  0  0  0  0  0  0  0  0  0  0
   -0.1601    2.7164   -3.9685 N   0  0  0  0  0  0  0  0  0  0  0  0
    1.0570    2.5345   -3.5461 N   0  0  0  0  0  0  0  0  0  0  0  0
    2.2704    0.7236   -6.0616 S   0  0  2  0  0  0  0  0  0  0  0  0
    2.2844   -0.9490   -6.9428 C   0  0  0  0  0  0  0  0  0  0  0  0
    0.5710    0.8794   -6.2432 O   0  0  0  0  0  0  0  0  0  0  0  0
    2.8807    1.6593   -7.0206 O   0  0  0  0  0  0  0  0  0  0  0  0
    2.0013    3.3381   -4.1315 O   0  0  0  0  0  0  0  0  0  0  0  0
    1.5765   -1.8204   -6.1913 F   0  0  0  0  0  0  0  0  0  0  0  0
    1.7619   -0.8886   -8.1598 F   0  0  0  0  0  0  0  0  0  0  0  0
    3.5478   -1.3752   -7.0118 F   0  0  0  0  0  0  0  0  0  0  0  0
  1  2  1  0  0  0  0
  2  3  1  0  0  0  0
  2  8  1  1  0  0  0
  3 14  1  0  0  0  0
  4  3  2  0  0  0  0
  4  9  1  0  0  0  0
  5  4  1  0  0  0  0
  6  1  2  0  0  0  0
  6  5  1  0  0  0  0
  7  1  1  0  0  0  0
 10  5  1  0  0  0  0
 11  6  1  0  0  0  0
 12 11  2  0  0  0  0
 13 11  2  0  0  0  0
 14 15  1  0  0  0  0
 16 19  1  6  0  0  0
 17 21  1  0  0  0  0
 17 16  1  0  0  0  0
 18 16  1  0  0  0  0
 18  2  1  0  0  0  0
 20 15  1  0  0  0  0
 22 17  1  0  0  0  0
 23 17  1  0  0  0  0
M  RAD  5   5   2  14   2  15   2  19   2  20   2
M  END
