Coordinates from ORCA-job p-NO2-Ph-N2-OTf-B3LYPG-6-31G_dp-scan-d09-49-n400
 OpenBabel08281821413D

 23 22  0  0  0  0  0  0  0  0999 V2000
   -2.3267   -0.8567   -5.6292 C   0  0  0  0  0  0  0  0  0  0  0  0
   -1.0242   -0.5231   -5.2782 C   0  0  0  0  0  0  0  0  0  0  0  0
   -0.8317    0.7183   -4.6629 C   0  0  0  0  0  0  0  0  0  0  0  0
   -1.8524    1.6418   -4.4002 C   0  0  0  0  0  0  0  0  0  0  0  0
   -3.1440    1.2911   -4.7723 C   0  0  0  0  0  0  0  0  0  0  0  0
   -3.3541    0.0502   -5.3712 C   0  0  0  0  0  0  0  0  0  0  0  0
   -2.5522   -1.7999   -6.1101 H   0  0  0  0  0  0  0  0  0  0  0  0
   -0.1628   -1.1523   -5.4877 H   0  0  0  0  0  0  0  0  0  0  0  0
   -1.6377    2.5952   -3.9324 H   0  0  0  0  0  0  0  0  0  0  0  0
   -3.9819    1.9554   -4.6049 H   0  0  0  0  0  0  0  0  0  0  0  0
   -4.7387   -0.3174   -5.7531 N   0  0  0  0  0  0  0  0  0  0  0  0
   -5.6172    0.5105   -5.5303 O   0  0  0  0  0  0  0  0  0  0  0  0
   -4.9023   -1.4169   -6.2700 O   0  0  0  0  0  0  0  0  0  0  0  0
    0.4519    1.0679   -4.2135 N   0  0  0  0  0  0  0  0  0  0  0  0
    1.3170    1.3530   -3.5721 N   0  0  0  0  0  0  0  0  0  0  0  0
    2.0422    0.2154   -6.8086 S   0  0  0  0  0  0  0  0  0  0  0  0
    3.7098    0.9249   -6.4029 C   0  0  0  0  0  0  0  0  0  0  0  0
    2.0953   -0.1410   -8.2271 O   0  0  0  0  0  0  0  0  0  0  0  0
    1.1152    1.3561   -6.4708 O   0  0  0  0  0  0  0  0  0  0  0  0
    1.8997   -0.8945   -5.8260 O   0  0  0  0  0  0  0  0  0  0  0  0
    4.6680    0.0058   -6.5502 F   0  0  0  0  0  0  0  0  0  0  0  0
    3.9872    1.9718   -7.1863 F   0  0  0  0  0  0  0  0  0  0  0  0
    3.7192    1.3458   -5.1182 F   0  0  0  0  0  0  0  0  0  0  0  0
  1  6  2  0  0  0  0
  1  2  1  0  0  0  0
  2  3  2  0  0  0  0
  3  4  1  0  0  0  0
  3 14  1  0  0  0  0
  4  9  1  0  0  0  0
  5 10  1  0  0  0  0
  5  4  2  0  0  0  0
  6  5  1  0  0  0  0
  7  1  1  0  0  0  0
  8  2  1  0  0  0  0
 11 12  2  0  0  0  0
 11  6  1  0  0  0  0
 13 11  2  0  0  0  0
 14 15  1  0  0  0  0
 16 19  2  0  0  0  0
 16 17  1  0  0  0  0
 16 20  1  0  0  0  0
 17 23  1  0  0  0  0
 18 16  2  0  0  0  0
 21 17  1  0  0  0  0
 22 17  1  0  0  0  0
M  RAD  3  14   2  15   3  20   2
M  END
