Coordinates from ORCA-job p-NO2-Ph-N2-OTf-B3LYPG-6-31G_dp-scan-d09-49-n400
 OpenBabel08281821413D

 23 23  0  0  1  0  0  0  0  0999 V2000
   -1.2263   -0.5648   -5.3443 C   0  0  0  0  0  0  0  0  0  0  0  0
   -0.2213    0.4884   -4.9736 C   0  0  2  0  0  0  0  0  0  0  0  0
   -0.8701    1.7785   -4.4623 C   0  0  0  0  0  0  0  0  0  0  0  0
   -2.2294    2.0913   -4.8417 C   0  0  0  0  0  0  0  0  0  0  0  0
   -3.0215    1.1241   -5.3580 C   0  0  0  0  0  0  0  0  0  0  0  0
   -2.5070   -0.2227   -5.5465 C   0  0  0  0  0  0  0  0  0  0  0  0
   -0.8757   -1.5713   -5.5333 H   0  0  0  0  0  0  0  0  0  0  0  0
    0.4846    0.1117   -4.2240 H   0  0  0  0  0  0  0  0  0  0  0  0
   -2.5989    3.0925   -4.6520 H   0  0  0  0  0  0  0  0  0  0  0  0
   -4.0537    1.3118   -5.6240 H   0  0  0  0  0  0  0  0  0  0  0  0
   -3.4595   -1.2616   -5.9985 N   0  0  0  0  0  0  0  0  0  0  0  0
   -4.6143   -0.8988   -6.2126 O   0  0  0  0  0  0  0  0  0  0  0  0
   -3.0377   -2.4062   -6.1256 O   0  0  0  0  0  0  0  0  0  0  0  0
   -0.2087    2.5801   -3.6975 N   0  0  0  0  0  0  0  0  0  0  0  0
    0.9300    2.5844   -3.1607 N   0  0  0  0  0  0  0  0  0  0  0  0
    2.1790    0.8516   -6.1739 S   0  0  2  0  0  0  0  0  0  0  0  0
    2.2565   -0.8312   -7.0345 C   0  0  0  0  0  0  0  0  0  0  0  0
    0.4573    0.7959   -6.2135 O   0  0  0  0  0  0  0  0  0  0  0  0
    2.5884    1.8171   -7.2077 O   0  0  0  0  0  0  0  0  0  0  0  0
    2.0391    2.7719   -4.1703 O   0  0  0  0  0  0  0  0  0  0  0  0
    1.6701   -1.7409   -6.2252 F   0  0  0  0  0  0  0  0  0  0  0  0
    1.6556   -0.8379   -8.2169 F   0  0  0  0  0  0  0  0  0  0  0  0
    3.5430   -1.1632   -7.1818 F   0  0  0  0  0  0  0  0  0  0  0  0
  1  2  1  0  0  0  0
  2  3  1  0  0  0  0
  2  8  1  1  0  0  0
  3 14  2  0  0  0  0
  4  9  1  0  0  0  0
  4  3  1  0  0  0  0
  5  4  2  0  0  0  0
  6  5  1  0  0  0  0
  6  1  2  0  0  0  0
  7  1  1  0  0  0  0
 10  5  1  0  0  0  0
 11  6  1  0  0  0  0
 12 11  2  0  0  0  0
 13 11  2  0  0  0  0
 14 15  1  0  0  0  0
 16 19  1  6  0  0  0
 17 21  1  0  0  0  0
 17 16  1  0  0  0  0
 18 16  1  0  0  0  0
 18  2  1  0  0  0  0
 20 15  1  0  0  0  0
 22 17  1  0  0  0  0
 23 17  1  0  0  0  0
M  RAD  3  15   2  19   2  20   2
M  END
