Coordinates from ORCA-job p-NO2-Ph-N2-OTf-B3LYPG-6-31G_dp-scan-d09-49-n400
 OpenBabel08281821413D

 23 22  0  0  0  0  0  0  0  0999 V2000
   -2.3405   -0.7445   -5.7225 C   0  0  0  0  0  0  0  0  0  0  0  0
   -1.0680   -0.4504   -5.2483 C   0  0  0  0  0  0  0  0  0  0  0  0
   -0.9266    0.6993   -4.4559 C   0  0  0  0  0  0  0  0  0  0  0  0
   -1.9831    1.5550   -4.1235 C   0  0  0  0  0  0  0  0  0  0  0  0
   -3.2455    1.2525   -4.6175 C   0  0  0  0  0  0  0  0  0  0  0  0
   -3.3952    0.1092   -5.4014 C   0  0  0  0  0  0  0  0  0  0  0  0
   -2.5225   -1.6140   -6.3416 H   0  0  0  0  0  0  0  0  0  0  0  0
   -0.2002   -1.0610   -5.4709 H   0  0  0  0  0  0  0  0  0  0  0  0
   -1.8109    2.4298   -3.5072 H   0  0  0  0  0  0  0  0  0  0  0  0
   -4.1057    1.8743   -4.4066 H   0  0  0  0  0  0  0  0  0  0  0  0
   -4.7491   -0.2158   -5.9150 N   0  0  0  0  0  0  0  0  0  0  0  0
   -5.6566    0.5571   -5.6226 O   0  0  0  0  0  0  0  0  0  0  0  0
   -4.8612   -1.2335   -6.5889 O   0  0  0  0  0  0  0  0  0  0  0  0
    0.3405    0.9926   -3.9511 N   0  0  0  0  0  0  0  0  0  0  0  0
    1.4589    0.9144   -3.8273 N   0  0  0  0  0  0  0  0  0  0  0  0
    2.1469    0.1459   -6.6973 S   0  0  0  0  0  0  0  0  0  0  0  0
    3.7763    1.0321   -6.6065 C   0  0  0  0  0  0  0  0  0  0  0  0
    2.2456   -0.7679   -7.8368 O   0  0  0  0  0  0  0  0  0  0  0  0
    1.1380    1.2257   -6.7498 O   0  0  0  0  0  0  0  0  0  0  0  0
    2.1027   -0.5799   -5.3571 O   0  0  0  0  0  0  0  0  0  0  0  0
    4.7822    0.1622   -6.4806 F   0  0  0  0  0  0  0  0  0  0  0  0
    3.9682    1.7630   -7.7091 F   0  0  0  0  0  0  0  0  0  0  0  0
    3.7852    1.8549   -5.5408 F   0  0  0  0  0  0  0  0  0  0  0  0
  1  6  2  0  0  0  0
  1  2  1  0  0  0  0
  2  3  2  0  0  0  0
  3  4  1  0  0  0  0
  3 14  1  0  0  0  0
  4  9  1  0  0  0  0
  5 10  1  0  0  0  0
  5  4  2  0  0  0  0
  6  5  1  0  0  0  0
  7  1  1  0  0  0  0
  8  2  1  0  0  0  0
 11 12  2  0  0  0  0
 11  6  1  0  0  0  0
 13 11  2  0  0  0  0
 14 15  1  0  0  0  0
 16 17  1  0  0  0  0
 16 20  1  0  0  0  0
 17 21  1  0  0  0  0
 17 23  1  0  0  0  0
 18 16  2  0  0  0  0
 19 16  2  0  0  0  0
 22 17  1  0  0  0  0
M  RAD  3  14   2  15   3  20   2
M  END
