Coordinates from ORCA-job p-NO2-Ph-N2-OTf-B3LYPG-6-31G_dp-scan-d09-49-n400
 OpenBabel08281821413D

 23 22  0  0  0  0  0  0  0  0999 V2000
   -2.3535   -0.7312   -5.7414 C   0  0  0  0  0  0  0  0  0  0  0  0
   -1.0817   -0.4121   -5.2805 C   0  0  0  0  0  0  0  0  0  0  0  0
   -0.9523    0.7241   -4.4666 C   0  0  0  0  0  0  0  0  0  0  0  0
   -2.0309    1.5376   -4.0998 C   0  0  0  0  0  0  0  0  0  0  0  0
   -3.2940    1.2130   -4.5781 C   0  0  0  0  0  0  0  0  0  0  0  0
   -3.4267    0.0846   -5.3855 C   0  0  0  0  0  0  0  0  0  0  0  0
   -2.5220   -1.5934   -6.3745 H   0  0  0  0  0  0  0  0  0  0  0  0
   -0.2069   -1.0009   -5.5287 H   0  0  0  0  0  0  0  0  0  0  0  0
   -1.8718    2.4021   -3.4655 H   0  0  0  0  0  0  0  0  0  0  0  0
   -4.1666    1.8059   -4.3373 H   0  0  0  0  0  0  0  0  0  0  0  0
   -4.7786   -0.2667   -5.8849 N   0  0  0  0  0  0  0  0  0  0  0  0
   -5.7033    0.4717   -5.5591 O   0  0  0  0  0  0  0  0  0  0  0  0
   -4.8736   -1.2702   -6.5829 O   0  0  0  0  0  0  0  0  0  0  0  0
    0.3094    1.0675   -3.9655 N   0  0  0  0  0  0  0  0  0  0  0  0
    1.4429    0.9630   -3.9449 N   0  0  0  0  0  0  0  0  0  0  0  0
    2.1623    0.2505   -6.7125 S   0  0  0  0  0  0  0  0  0  0  0  0
    3.8737    0.9647   -6.6020 C   0  0  0  0  0  0  0  0  0  0  0  0
    2.1960   -0.7309   -7.7964 O   0  0  0  0  0  0  0  0  0  0  0  0
    1.2619    1.4107   -6.8206 O   0  0  0  0  0  0  0  0  0  0  0  0
    2.0173   -0.4306   -5.3386 O   0  0  0  0  0  0  0  0  0  0  0  0
    4.7763   -0.0048   -6.4367 F   0  0  0  0  0  0  0  0  0  0  0  0
    4.1567    1.6409   -7.7191 F   0  0  0  0  0  0  0  0  0  0  0  0
    3.9447    1.8054   -5.5573 F   0  0  0  0  0  0  0  0  0  0  0  0
  1  6  2  0  0  0  0
  1  2  1  0  0  0  0
  2  3  2  0  0  0  0
  3  4  1  0  0  0  0
  3 14  1  0  0  0  0
  4  9  1  0  0  0  0
  5 10  1  0  0  0  0
  5  4  2  0  0  0  0
  6  5  1  0  0  0  0
  7  1  1  0  0  0  0
  8  2  1  0  0  0  0
 11 12  2  0  0  0  0
 11  6  1  0  0  0  0
 13 11  2  0  0  0  0
 14 15  2  0  0  0  0
 16 17  1  0  0  0  0
 16 20  1  0  0  0  0
 17 21  1  0  0  0  0
 17 23  1  0  0  0  0
 18 16  2  0  0  0  0
 19 16  2  0  0  0  0
 22 17  1  0  0  0  0
M  RAD  2  15   2  20   2
M  END
