Coordinates from ORCA-job p-NO2-Ph-N2-OTf-B3LYPG-6-31G_dp-scan-d09-49-n400
 OpenBabel08281821413D

 23 22  0  0  0  0  0  0  0  0999 V2000
   -2.1841   -0.6498   -5.7515 C   0  0  0  0  0  0  0  0  0  0  0  0
   -0.9398   -0.0251   -5.6733 C   0  0  0  0  0  0  0  0  0  0  0  0
   -0.8896    1.1962   -4.9992 C   0  0  0  0  0  0  0  0  0  0  0  0
   -2.0050    1.8221   -4.4109 C   0  0  0  0  0  0  0  0  0  0  0  0
   -3.2333    1.1886   -4.5163 C   0  0  0  0  0  0  0  0  0  0  0  0
   -3.2954   -0.0366   -5.1822 C   0  0  0  0  0  0  0  0  0  0  0  0
   -2.2935   -1.6000   -6.2586 H   0  0  0  0  0  0  0  0  0  0  0  0
   -0.0542   -0.4688   -6.1321 H   0  0  0  0  0  0  0  0  0  0  0  0
   -1.9046    2.7737   -3.9020 H   0  0  0  0  0  0  0  0  0  0  0  0
   -4.1329    1.6201   -4.0968 H   0  0  0  0  0  0  0  0  0  0  0  0
   -4.6145   -0.7096   -5.2858 N   0  0  0  0  0  0  0  0  0  0  0  0
   -5.5716   -0.1382   -4.7718 O   0  0  0  0  0  0  0  0  0  0  0  0
   -4.6490   -1.7838   -5.8742 O   0  0  0  0  0  0  0  0  0  0  0  0
    0.3300    1.8836   -4.8151 N   0  0  0  0  0  0  0  0  0  0  0  0
    1.0273    2.6130   -4.3331 N   0  0  0  0  0  0  0  0  0  0  0  0
    2.2352    0.2362   -7.2250 S   0  0  0  0  0  0  0  0  0  0  0  0
    3.5591    0.2872   -5.9217 C   0  0  0  0  0  0  0  0  0  0  0  0
    2.9217    0.4660   -8.4952 O   0  0  0  0  0  0  0  0  0  0  0  0
    1.3532    1.3903   -6.7916 O   0  0  0  0  0  0  0  0  0  0  0  0
    1.5851   -1.0801   -7.0170 O   0  0  0  0  0  0  0  0  0  0  0  0
    4.3692   -0.7688   -6.0080 F   0  0  0  0  0  0  0  0  0  0  0  0
    4.2871    1.4048   -6.0216 F   0  0  0  0  0  0  0  0  0  0  0  0
    2.9791    0.2800   -4.6952 F   0  0  0  0  0  0  0  0  0  0  0  0
  1  2  2  0  0  0  0
  1  6  1  0  0  0  0
  2  3  1  0  0  0  0
  3 14  1  0  0  0  0
  3  4  2  0  0  0  0
  4  9  1  0  0  0  0
  5  4  1  0  0  0  0
  5 10  1  0  0  0  0
  6  5  2  0  0  0  0
  7  1  1  0  0  0  0
  8  2  1  0  0  0  0
 11  6  1  0  0  0  0
 11 12  2  0  0  0  0
 13 11  2  0  0  0  0
 14 15  1  0  0  0  0
 16 20  2  0  0  0  0
 16 19  1  0  0  0  0
 16 17  1  0  0  0  0
 17 23  1  0  0  0  0
 18 16  2  0  0  0  0
 21 17  1  0  0  0  0
 22 17  1  0  0  0  0
M  RAD  3  14   2  15   3  19   2
M  END
