Coordinates from ORCA-job p-NO2-Ph-N2-OTf-B3LYPG-6-31G_dp-scan-d09-49-n400
 OpenBabel08281821413D

 23 23  0  0  1  0  0  0  0  0999 V2000
   -1.2260   -0.5731   -5.3237 C   0  0  0  0  0  0  0  0  0  0  0  0
   -0.2196    0.4802   -4.9564 C   0  0  2  0  0  0  0  0  0  0  0  0
   -0.8709    1.7713   -4.4527 C   0  0  0  0  0  0  0  0  0  0  0  0
   -2.2188    2.0929   -4.8515 C   0  0  0  0  0  0  0  0  0  0  0  0
   -3.0090    1.1267   -5.3765 C   0  0  0  0  0  0  0  0  0  0  0  0
   -2.5020   -0.2246   -5.5466 C   0  0  0  0  0  0  0  0  0  0  0  0
   -0.8796   -1.5840   -5.4967 H   0  0  0  0  0  0  0  0  0  0  0  0
    0.4891    0.1079   -4.2083 H   0  0  0  0  0  0  0  0  0  0  0  0
   -2.5870    3.0962   -4.6706 H   0  0  0  0  0  0  0  0  0  0  0  0
   -4.0360    1.3196   -5.6589 H   0  0  0  0  0  0  0  0  0  0  0  0
   -3.4562   -1.2611   -6.0001 N   0  0  0  0  0  0  0  0  0  0  0  0
   -4.6049   -0.8915   -6.2345 O   0  0  0  0  0  0  0  0  0  0  0  0
   -3.0414   -2.4100   -6.1084 O   0  0  0  0  0  0  0  0  0  0  0  0
   -0.2121    2.5619   -3.6689 N   0  0  0  0  0  0  0  0  0  0  0  0
    0.9103    2.6132   -3.1351 N   0  0  0  0  0  0  0  0  0  0  0  0
    2.1749    0.8618   -6.1714 S   0  0  2  0  0  0  0  0  0  0  0  0
    2.2491   -0.8186   -7.0403 C   0  0  0  0  0  0  0  0  0  0  0  0
    0.4514    0.7875   -6.1997 O   0  0  0  0  0  0  0  0  0  0  0  0
    2.5642    1.8307   -7.2096 O   0  0  0  0  0  0  0  0  0  0  0  0
    2.0551    2.7191   -4.2214 O   0  0  0  0  0  0  0  0  0  0  0  0
    1.6728   -1.7341   -6.2297 F   0  0  0  0  0  0  0  0  0  0  0  0
    1.6399   -0.8252   -8.2188 F   0  0  0  0  0  0  0  0  0  0  0  0
    3.5359   -1.1458   -7.1984 F   0  0  0  0  0  0  0  0  0  0  0  0
  1  2  1  0  0  0  0
  2  3  1  0  0  0  0
  2  8  1  1  0  0  0
  3 14  2  0  0  0  0
  4  9  1  0  0  0  0
  4  3  1  0  0  0  0
  5  4  2  0  0  0  0
  6  5  1  0  0  0  0
  6  1  2  0  0  0  0
  7  1  1  0  0  0  0
 10  5  1  0  0  0  0
 11  6  1  0  0  0  0
 12 11  2  0  0  0  0
 13 11  2  0  0  0  0
 14 15  1  0  0  0  0
 16 19  1  6  0  0  0
 17 21  1  0  0  0  0
 17 16  1  0  0  0  0
 18 16  1  0  0  0  0
 18  2  1  0  0  0  0
 20 15  1  0  0  0  0
 22 17  1  0  0  0  0
 23 17  1  0  0  0  0
M  RAD  3  15   2  19   2  20   2
M  END
