Coordinates from ORCA-job p-NO2-Ph-N2-OTf-B3LYPG-6-31G_dp-scan-d09-49-n400
 OpenBabel08281821413D

 23 23  0  0  0  0  0  0  0  0999 V2000
   -2.5288   -0.6540   -5.8371 C   0  0  0  0  0  0  0  0  0  0  0  0
   -1.2771   -0.0639   -5.6943 C   0  0  0  0  0  0  0  0  0  0  0  0
   -1.1613    1.0408   -4.8320 C   0  0  0  0  0  0  0  0  0  0  0  0
   -2.2560    1.5521   -4.1195 C   0  0  0  0  0  0  0  0  0  0  0  0
   -3.5023    0.9580   -4.2717 C   0  0  0  0  0  0  0  0  0  0  0  0
   -3.6111   -0.1351   -5.1289 C   0  0  0  0  0  0  0  0  0  0  0  0
   -2.6762   -1.5074   -6.4871 H   0  0  0  0  0  0  0  0  0  0  0  0
   -0.4099   -0.4299   -6.2268 H   0  0  0  0  0  0  0  0  0  0  0  0
   -2.1160    2.4052   -3.4655 H   0  0  0  0  0  0  0  0  0  0  0  0
   -4.3774    1.3190   -3.7473 H   0  0  0  0  0  0  0  0  0  0  0  0
   -4.9378   -0.7744   -5.2930 N   0  0  0  0  0  0  0  0  0  0  0  0
   -5.8740   -0.2905   -4.6632 O   0  0  0  0  0  0  0  0  0  0  0  0
   -5.0057   -1.7407   -6.0458 O   0  0  0  0  0  0  0  0  0  0  0  0
    0.0577    1.7117   -4.6205 N   0  0  0  0  0  0  0  0  0  0  0  0
    1.1684    1.7611   -4.9600 N   0  0  0  0  0  0  0  0  0  0  0  0
    2.6995    0.8945   -7.1568 S   0  0  0  0  0  0  0  0  0  0  0  0
    4.1582    0.3460   -6.1395 C   0  0  0  0  0  0  0  0  0  0  0  0
    2.6636    0.0312   -8.3314 O   0  0  0  0  0  0  0  0  0  0  0  0
    2.8098    2.3437   -7.2801 O   0  0  0  0  0  0  0  0  0  0  0  0
    1.5144    0.4852   -6.1997 O   0  0  0  0  0  0  0  0  0  0  0  0
    4.0959   -0.9687   -5.9146 F   0  0  0  0  0  0  0  0  0  0  0  0
    5.2843    0.6276   -6.7971 F   0  0  0  0  0  0  0  0  0  0  0  0
    4.1609    0.9897   -4.9662 F   0  0  0  0  0  0  0  0  0  0  0  0
  1  2  2  0  0  0  0
  1  6  1  0  0  0  0
  2  3  1  0  0  0  0
  3 14  1  0  0  0  0
  3  4  2  0  0  0  0
  4  9  1  0  0  0  0
  5  4  1  0  0  0  0
  5 10  1  0  0  0  0
  6  5  2  0  0  0  0
  7  1  1  0  0  0  0
  8  2  1  0  0  0  0
 11  6  1  0  0  0  0
 11 12  2  0  0  0  0
 13 11  2  0  0  0  0
 15 14  1  0  0  0  0
 16 20  1  0  0  0  0
 16 17  1  0  0  0  0
 17 21  1  0  0  0  0
 17 23  1  0  0  0  0
 18 16  2  0  0  0  0
 19 16  2  0  0  0  0
 20 15  1  0  0  0  0
 22 17  1  0  0  0  0
M  RAD  2  14   2  15   2
M  END
