Coordinates from ORCA-job p-NO2-Ph-N2-OTf-B3LYPG-6-31G_dp-scan-d09-49-n400
 OpenBabel08281821413D

 23 23  0  0  1  0  0  0  0  0999 V2000
   -1.2335   -0.4675   -5.5251 C   0  0  0  0  0  0  0  0  0  0  0  0
   -0.2653    0.5782   -5.0639 C   0  0  2  0  0  0  0  0  0  0  0  0
   -0.9112    1.8984   -4.6222 C   0  0  0  0  0  0  0  0  0  0  0  0
   -2.3463    2.0418   -4.6864 C   0  0  0  0  0  0  0  0  0  0  0  0
   -3.1398    1.0247   -5.1004 C   0  0  0  0  0  0  0  0  0  0  0  0
   -2.5551   -0.2349   -5.5124 C   0  0  0  0  0  0  0  0  0  0  0  0
   -0.8342   -1.4023   -5.8969 H   0  0  0  0  0  0  0  0  0  0  0  0
    0.2786    0.2051   -4.1777 H   0  0  0  0  0  0  0  0  0  0  0  0
   -2.7577    2.9998   -4.3896 H   0  0  0  0  0  0  0  0  0  0  0  0
   -4.2175    1.1223   -5.1460 H   0  0  0  0  0  0  0  0  0  0  0  0
   -3.4715   -1.3006   -5.9760 N   0  0  0  0  0  0  0  0  0  0  0  0
   -4.6716   -1.0355   -5.9823 O   0  0  0  0  0  0  0  0  0  0  0  0
   -2.9773   -2.3707   -6.3165 O   0  0  0  0  0  0  0  0  0  0  0  0
   -0.2129    2.8987   -4.1720 N   0  0  0  0  0  0  0  0  0  0  0  0
    1.1077    2.5995   -3.9258 N   0  0  0  0  0  0  0  0  0  0  0  0
    2.3016    0.4000   -5.8088 S   0  0  2  0  0  0  0  0  0  0  0  0
    2.2695   -0.9643   -7.1159 C   0  0  0  0  0  0  0  0  0  0  0  0
    0.6693    0.8070   -6.1370 O   0  0  0  0  0  0  0  0  0  0  0  0
    3.1603    1.4525   -6.3800 O   0  0  0  0  0  0  0  0  0  0  0  0
    1.8748    3.5805   -4.0437 O   0  0  0  0  0  0  0  0  0  0  0  0
    1.4207   -1.9249   -6.6991 F   0  0  0  0  0  0  0  0  0  0  0  0
    1.8932   -0.5225   -8.3079 F   0  0  0  0  0  0  0  0  0  0  0  0
    3.4975   -1.4843   -7.1927 F   0  0  0  0  0  0  0  0  0  0  0  0
  1  6  2  0  0  0  0
  1  2  1  0  0  0  0
  2  3  1  0  0  0  0
  2  8  1  1  0  0  0
  3 14  1  0  0  0  0
  4  3  2  0  0  0  0
  4  9  1  0  0  0  0
  5  4  1  0  0  0  0
  6  5  1  0  0  0  0
  7  1  1  0  0  0  0
 10  5  1  0  0  0  0
 11  6  1  0  0  0  0
 12 11  2  0  0  0  0
 13 11  2  0  0  0  0
 14 15  1  0  0  0  0
 16 17  1  6  0  0  0
 17 21  1  0  0  0  0
 18 16  1  0  0  0  0
 18  2  1  0  0  0  0
 19 16  1  0  0  0  0
 20 15  1  0  0  0  0
 22 17  1  0  0  0  0
 23 17  1  0  0  0  0
M  RAD  5   5   2  14   2  15   2  19   2  20   2
M  END
