Coordinates from ORCA-job p-NO2-Ph-N2-OTf-B3LYPG-6-31G_dp-scan-d09-49-n400
 OpenBabel08281821413D

 23 22  0  0  0  0  0  0  0  0999 V2000
   -2.2121   -0.6824   -5.7263 C   0  0  0  0  0  0  0  0  0  0  0  0
   -0.9511   -0.1009   -5.6056 C   0  0  0  0  0  0  0  0  0  0  0  0
   -0.8843    1.1260   -4.9428 C   0  0  0  0  0  0  0  0  0  0  0  0
   -1.9972    1.8001   -4.4084 C   0  0  0  0  0  0  0  0  0  0  0  0
   -3.2430    1.2094   -4.5571 C   0  0  0  0  0  0  0  0  0  0  0  0
   -3.3226   -0.0216   -5.2097 C   0  0  0  0  0  0  0  0  0  0  0  0
   -2.3367   -1.6343   -6.2266 H   0  0  0  0  0  0  0  0  0  0  0  0
   -0.0608   -0.5747   -6.0236 H   0  0  0  0  0  0  0  0  0  0  0  0
   -1.8827    2.7542   -3.9073 H   0  0  0  0  0  0  0  0  0  0  0  0
   -4.1426    1.6785   -4.1803 H   0  0  0  0  0  0  0  0  0  0  0  0
   -4.6598   -0.6485   -5.3583 N   0  0  0  0  0  0  0  0  0  0  0  0
   -5.6160   -0.0356   -4.8926 O   0  0  0  0  0  0  0  0  0  0  0  0
   -4.7093   -1.7296   -5.9328 O   0  0  0  0  0  0  0  0  0  0  0  0
    0.3562    1.7605   -4.7133 N   0  0  0  0  0  0  0  0  0  0  0  0
    1.0793    2.4305   -4.1856 N   0  0  0  0  0  0  0  0  0  0  0  0
    2.2057    0.2147   -7.1803 S   0  0  0  0  0  0  0  0  0  0  0  0
    3.6255    0.3918   -5.9943 C   0  0  0  0  0  0  0  0  0  0  0  0
    2.7787    0.4011   -8.5125 O   0  0  0  0  0  0  0  0  0  0  0  0
    1.3065    1.3525   -6.7396 O   0  0  0  0  0  0  0  0  0  0  0  0
    1.6348   -1.1133   -6.8511 O   0  0  0  0  0  0  0  0  0  0  0  0
    4.4732   -0.6331   -6.0954 F   0  0  0  0  0  0  0  0  0  0  0  0
    4.2908    1.5316   -6.2095 F   0  0  0  0  0  0  0  0  0  0  0  0
    3.1469    0.4243   -4.7252 F   0  0  0  0  0  0  0  0  0  0  0  0
  1  2  2  0  0  0  0
  1  6  1  0  0  0  0
  2  3  1  0  0  0  0
  3 14  1  0  0  0  0
  3  4  2  0  0  0  0
  4  9  1  0  0  0  0
  5  4  1  0  0  0  0
  5 10  1  0  0  0  0
  6  5  2  0  0  0  0
  7  1  1  0  0  0  0
  8  2  1  0  0  0  0
 11  6  1  0  0  0  0
 11 12  2  0  0  0  0
 13 11  2  0  0  0  0
 14 15  1  0  0  0  0
 16 20  2  0  0  0  0
 16 19  1  0  0  0  0
 16 17  1  0  0  0  0
 17 23  1  0  0  0  0
 18 16  2  0  0  0  0
 21 17  1  0  0  0  0
 22 17  1  0  0  0  0
M  RAD  3  14   2  15   3  19   2
M  END
