Coordinates from ORCA-job p-NO2-Ph-N2-OTf-B3LYPG-6-31G_dp-scan-d09-49-n400
 OpenBabel08281821413D

 23 22  0  0  0  0  0  0  0  0999 V2000
   -2.2687   -0.7443   -5.6876 C   0  0  0  0  0  0  0  0  0  0  0  0
   -0.9830   -0.2534   -5.4767 C   0  0  0  0  0  0  0  0  0  0  0  0
   -0.8771    0.9794   -4.8292 C   0  0  0  0  0  0  0  0  0  0  0  0
   -1.9708    1.7484   -4.4006 C   0  0  0  0  0  0  0  0  0  0  0  0
   -3.2429    1.2472   -4.6403 C   0  0  0  0  0  0  0  0  0  0  0  0
   -3.3638    0.0104   -5.2732 C   0  0  0  0  0  0  0  0  0  0  0  0
   -2.4272   -1.6953   -6.1800 H   0  0  0  0  0  0  0  0  0  0  0  0
   -0.0904   -0.7851   -5.8096 H   0  0  0  0  0  0  0  0  0  0  0  0
   -1.8239    2.7032   -3.9097 H   0  0  0  0  0  0  0  0  0  0  0  0
   -4.1315    1.7906   -4.3466 H   0  0  0  0  0  0  0  0  0  0  0  0
   -4.7280   -0.5201   -5.5161 N   0  0  0  0  0  0  0  0  0  0  0  0
   -5.6698    0.1747   -5.1458 O   0  0  0  0  0  0  0  0  0  0  0  0
   -4.8131   -1.6128   -6.0645 O   0  0  0  0  0  0  0  0  0  0  0  0
    0.3938    1.5054   -4.5090 N   0  0  0  0  0  0  0  0  0  0  0  0
    1.1574    2.0422   -3.8938 N   0  0  0  0  0  0  0  0  0  0  0  0
    2.1529    0.1747   -7.0426 S   0  0  0  0  0  0  0  0  0  0  0  0
    3.7316    0.6062   -6.1634 C   0  0  0  0  0  0  0  0  0  0  0  0
    2.4759    0.1997   -8.4690 O   0  0  0  0  0  0  0  0  0  0  0  0
    1.2368    1.3007   -6.6053 O   0  0  0  0  0  0  0  0  0  0  0  0
    1.7615   -1.1231   -6.4417 O   0  0  0  0  0  0  0  0  0  0  0  0
    4.6437   -0.3554   -6.3185 F   0  0  0  0  0  0  0  0  0  0  0  0
    4.2314    1.7601   -6.6158 F   0  0  0  0  0  0  0  0  0  0  0  0
    3.4846    0.7478   -4.8391 F   0  0  0  0  0  0  0  0  0  0  0  0
  1  2  2  0  0  0  0
  1  6  1  0  0  0  0
  2  3  1  0  0  0  0
  3 14  1  0  0  0  0
  3  4  2  0  0  0  0
  4  9  1  0  0  0  0
  5  4  1  0  0  0  0
  5 10  1  0  0  0  0
  6  5  2  0  0  0  0
  7  1  1  0  0  0  0
  8  2  1  0  0  0  0
 11  6  1  0  0  0  0
 11 12  2  0  0  0  0
 13 11  2  0  0  0  0
 14 15  1  0  0  0  0
 16 19  2  0  0  0  0
 16 20  1  0  0  0  0
 16 17  1  0  0  0  0
 17 23  1  0  0  0  0
 18 16  2  0  0  0  0
 21 17  1  0  0  0  0
 22 17  1  0  0  0  0
M  RAD  3  14   2  15   3  20   2
M  END
