Coordinates from ORCA-job p-NO2-Ph-N2-OTf-B3LYPG-6-31G_dp-scan-d09-49-n400
 OpenBabel08281821413D

 23 22  0  0  0  0  0  0  0  0999 V2000
   -2.2965   -0.7844   -5.6679 C   0  0  0  0  0  0  0  0  0  0  0  0
   -1.0008   -0.3542   -5.4006 C   0  0  0  0  0  0  0  0  0  0  0  0
   -0.8646    0.8807   -4.7617 C   0  0  0  0  0  0  0  0  0  0  0  0
   -1.9354    1.7095   -4.3969 C   0  0  0  0  0  0  0  0  0  0  0  0
   -3.2186    1.2671   -4.6913 C   0  0  0  0  0  0  0  0  0  0  0  0
   -3.3713    0.0294   -5.3142 C   0  0  0  0  0  0  0  0  0  0  0  0
   -2.4795   -1.7323   -6.1577 H   0  0  0  0  0  0  0  0  0  0  0  0
   -0.1150   -0.9235   -5.6819 H   0  0  0  0  0  0  0  0  0  0  0  0
   -1.7644    2.6633   -3.9119 H   0  0  0  0  0  0  0  0  0  0  0  0
   -4.0920    1.8574   -4.4464 H   0  0  0  0  0  0  0  0  0  0  0  0
   -4.7467   -0.4377   -5.6143 N   0  0  0  0  0  0  0  0  0  0  0  0
   -5.6698    0.3068   -5.2971 O   0  0  0  0  0  0  0  0  0  0  0  0
   -4.8599   -1.5333   -6.1519 O   0  0  0  0  0  0  0  0  0  0  0  0
    0.4174    1.3380   -4.3893 N   0  0  0  0  0  0  0  0  0  0  0  0
    1.2111    1.7774   -3.7370 N   0  0  0  0  0  0  0  0  0  0  0  0
    2.1178    0.1673   -6.9460 S   0  0  0  0  0  0  0  0  0  0  0  0
    3.7490    0.7388   -6.2666 C   0  0  0  0  0  0  0  0  0  0  0  0
    2.3091    0.0525   -8.3919 O   0  0  0  0  0  0  0  0  0  0  0  0
    1.1932    1.2949   -6.5350 O   0  0  0  0  0  0  0  0  0  0  0  0
    1.8388   -1.0734   -6.1813 O   0  0  0  0  0  0  0  0  0  0  0  0
    4.6893   -0.1934   -6.4369 F   0  0  0  0  0  0  0  0  0  0  0  0
    4.1430    1.8699   -6.8593 F   0  0  0  0  0  0  0  0  0  0  0  0
    3.6254    0.9802   -4.9410 F   0  0  0  0  0  0  0  0  0  0  0  0
  1  2  2  0  0  0  0
  1  6  1  0  0  0  0
  2  3  1  0  0  0  0
  3  4  2  0  0  0  0
  3 14  1  0  0  0  0
  4  9  1  0  0  0  0
  5 10  1  0  0  0  0
  5  4  1  0  0  0  0
  6  5  2  0  0  0  0
  7  1  1  0  0  0  0
  8  2  1  0  0  0  0
 11  6  1  0  0  0  0
 11 12  2  0  0  0  0
 13 11  2  0  0  0  0
 14 15  1  0  0  0  0
 16 19  2  0  0  0  0
 16 17  1  0  0  0  0
 16 20  1  0  0  0  0
 17 23  1  0  0  0  0
 18 16  2  0  0  0  0
 21 17  1  0  0  0  0
 22 17  1  0  0  0  0
M  RAD  3  14   2  15   3  20   2
M  END
