Coordinates from ORCA-job p-NO2-Ph-N2-OTf-B3LYPG-6-31G_dp-scan-d09-49-n400
 OpenBabel08281821413D

 23 22  0  0  0  0  0  0  0  0999 V2000
   -2.1824   -0.6477   -5.7532 C   0  0  0  0  0  0  0  0  0  0  0  0
   -0.9392   -0.0201   -5.6780 C   0  0  0  0  0  0  0  0  0  0  0  0
   -0.8900    1.2009   -5.0033 C   0  0  0  0  0  0  0  0  0  0  0  0
   -2.0052    1.8236   -4.4112 C   0  0  0  0  0  0  0  0  0  0  0  0
   -3.2323    1.1872   -4.5135 C   0  0  0  0  0  0  0  0  0  0  0  0
   -3.2935   -0.0376   -5.1804 C   0  0  0  0  0  0  0  0  0  0  0  0
   -2.2909   -1.5978   -6.2607 H   0  0  0  0  0  0  0  0  0  0  0  0
   -0.0544   -0.4622   -6.1394 H   0  0  0  0  0  0  0  0  0  0  0  0
   -1.9057    2.7749   -3.9018 H   0  0  0  0  0  0  0  0  0  0  0  0
   -4.1316    1.6163   -4.0911 H   0  0  0  0  0  0  0  0  0  0  0  0
   -4.6114   -0.7135   -5.2809 N   0  0  0  0  0  0  0  0  0  0  0  0
   -5.5683   -0.1448   -4.7636 O   0  0  0  0  0  0  0  0  0  0  0  0
   -4.6451   -1.7871   -5.8702 O   0  0  0  0  0  0  0  0  0  0  0  0
    0.3282    1.8920   -4.8227 N   0  0  0  0  0  0  0  0  0  0  0  0
    1.0225    2.6263   -4.3434 N   0  0  0  0  0  0  0  0  0  0  0  0
    2.2375    0.2374   -7.2275 S   0  0  0  0  0  0  0  0  0  0  0  0
    3.5545    0.2801   -5.9169 C   0  0  0  0  0  0  0  0  0  0  0  0
    2.9310    0.4712   -8.4931 O   0  0  0  0  0  0  0  0  0  0  0  0
    1.3561    1.3920   -6.7939 O   0  0  0  0  0  0  0  0  0  0  0  0
    1.5832   -1.0780   -7.0283 O   0  0  0  0  0  0  0  0  0  0  0  0
    4.3628   -0.7774   -6.0032 F   0  0  0  0  0  0  0  0  0  0  0  0
    4.2855    1.3965   -6.0082 F   0  0  0  0  0  0  0  0  0  0  0  0
    2.9678    0.2690   -4.6937 F   0  0  0  0  0  0  0  0  0  0  0  0
  1  2  2  0  0  0  0
  1  6  1  0  0  0  0
  2  3  1  0  0  0  0
  3 14  1  0  0  0  0
  3  4  2  0  0  0  0
  4  9  1  0  0  0  0
  5  4  1  0  0  0  0
  5 10  1  0  0  0  0
  6  5  2  0  0  0  0
  7  1  1  0  0  0  0
  8  2  1  0  0  0  0
 11  6  1  0  0  0  0
 11 12  2  0  0  0  0
 13 11  2  0  0  0  0
 14 15  1  0  0  0  0
 16 20  2  0  0  0  0
 16 19  1  0  0  0  0
 16 17  1  0  0  0  0
 17 23  1  0  0  0  0
 18 16  2  0  0  0  0
 21 17  1  0  0  0  0
 22 17  1  0  0  0  0
M  RAD  3  14   2  15   3  19   2
M  END
