Coordinates from ORCA-job p-NO2-Ph-N2-OTf-B3LYPG-6-31G_dp-scan-d09-49-n400
 OpenBabel08281821413D

 23 22  0  0  0  0  0  0  0  0999 V2000
   -2.3202   -0.8375   -5.6399 C   0  0  0  0  0  0  0  0  0  0  0  0
   -1.0186   -0.4806   -5.3079 C   0  0  0  0  0  0  0  0  0  0  0  0
   -0.8412    0.7588   -4.6852 C   0  0  0  0  0  0  0  0  0  0  0  0
   -1.8755    1.6595   -4.3979 C   0  0  0  0  0  0  0  0  0  0  0  0
   -3.1658    1.2868   -4.7528 C   0  0  0  0  0  0  0  0  0  0  0  0
   -3.3609    0.0470   -5.3589 C   0  0  0  0  0  0  0  0  0  0  0  0
   -2.5347   -1.7817   -6.1240 H   0  0  0  0  0  0  0  0  0  0  0  0
   -0.1494   -1.0949   -5.5336 H   0  0  0  0  0  0  0  0  0  0  0  0
   -1.6723    2.6129   -3.9248 H   0  0  0  0  0  0  0  0  0  0  0  0
   -4.0138    1.9333   -4.5668 H   0  0  0  0  0  0  0  0  0  0  0  0
   -4.7439   -0.3442   -5.7231 N   0  0  0  0  0  0  0  0  0  0  0  0
   -5.6354    0.4623   -5.4744 O   0  0  0  0  0  0  0  0  0  0  0  0
   -4.8951   -1.4446   -6.2415 O   0  0  0  0  0  0  0  0  0  0  0  0
    0.4441    1.1346   -4.2548 N   0  0  0  0  0  0  0  0  0  0  0  0
    1.2901    1.4547   -3.6020 N   0  0  0  0  0  0  0  0  0  0  0  0
    2.0637    0.1942   -6.8402 S   0  0  0  0  0  0  0  0  0  0  0  0
    3.7242    0.8830   -6.3732 C   0  0  0  0  0  0  0  0  0  0  0  0
    2.1443   -0.1015   -8.2711 O   0  0  0  0  0  0  0  0  0  0  0  0
    1.1337    1.3290   -6.4812 O   0  0  0  0  0  0  0  0  0  0  0  0
    1.8953   -0.9512   -5.9067 O   0  0  0  0  0  0  0  0  0  0  0  0
    4.6829   -0.0327   -6.5343 F   0  0  0  0  0  0  0  0  0  0  0  0
    4.0203    1.9580   -7.1104 F   0  0  0  0  0  0  0  0  0  0  0  0
    3.7075    1.2559   -5.0734 F   0  0  0  0  0  0  0  0  0  0  0  0
  1  6  2  0  0  0  0
  1  2  1  0  0  0  0
  2  3  2  0  0  0  0
  3  4  1  0  0  0  0
  3 14  1  0  0  0  0
  4  9  1  0  0  0  0
  5 10  1  0  0  0  0
  5  4  2  0  0  0  0
  6  5  1  0  0  0  0
  7  1  1  0  0  0  0
  8  2  1  0  0  0  0
 11 12  2  0  0  0  0
 11  6  1  0  0  0  0
 13 11  2  0  0  0  0
 14 15  1  0  0  0  0
 16 19  2  0  0  0  0
 16 17  1  0  0  0  0
 16 20  1  0  0  0  0
 17 23  1  0  0  0  0
 18 16  2  0  0  0  0
 21 17  1  0  0  0  0
 22 17  1  0  0  0  0
M  RAD  3  14   2  15   3  20   2
M  END
