Coordinates from ORCA-job p-NO2-Ph-N2-OTf-B3LYPG-6-31G_dp-scan-d09-49-n400
 OpenBabel08281821413D

 23 22  0  0  0  0  0  0  0  0999 V2000
   -2.2150   -0.6853   -5.7244 C   0  0  0  0  0  0  0  0  0  0  0  0
   -0.9527   -0.1076   -5.5994 C   0  0  0  0  0  0  0  0  0  0  0  0
   -0.8846    1.1196   -4.9373 C   0  0  0  0  0  0  0  0  0  0  0  0
   -1.9970    1.7981   -4.4078 C   0  0  0  0  0  0  0  0  0  0  0  0
   -3.2441    1.2111   -4.5609 C   0  0  0  0  0  0  0  0  0  0  0  0
   -3.3252   -0.0202   -5.2125 C   0  0  0  0  0  0  0  0  0  0  0  0
   -2.3409   -1.6372   -6.2244 H   0  0  0  0  0  0  0  0  0  0  0  0
   -0.0611   -0.5832   -6.0132 H   0  0  0  0  0  0  0  0  0  0  0  0
   -1.8812    2.7522   -3.9071 H   0  0  0  0  0  0  0  0  0  0  0  0
   -4.1436    1.6834   -4.1880 H   0  0  0  0  0  0  0  0  0  0  0  0
   -4.6639   -0.6429   -5.3654 N   0  0  0  0  0  0  0  0  0  0  0  0
   -5.6198   -0.0266   -4.9038 O   0  0  0  0  0  0  0  0  0  0  0  0
   -4.7146   -1.7248   -5.9383 O   0  0  0  0  0  0  0  0  0  0  0  0
    0.3579    1.7482   -4.7034 N   0  0  0  0  0  0  0  0  0  0  0  0
    1.0863    2.4103   -4.1731 N   0  0  0  0  0  0  0  0  0  0  0  0
    2.2031    0.2135   -7.1754 S   0  0  0  0  0  0  0  0  0  0  0  0
    3.6315    0.4019   -6.0017 C   0  0  0  0  0  0  0  0  0  0  0  0
    2.7661    0.3913   -8.5131 O   0  0  0  0  0  0  0  0  0  0  0  0
    1.3038    1.3514   -6.7361 O   0  0  0  0  0  0  0  0  0  0  0  0
    1.6381   -1.1135   -6.8321 O   0  0  0  0  0  0  0  0  0  0  0  0
    4.4820   -0.6205   -6.1043 F   0  0  0  0  0  0  0  0  0  0  0  0
    4.2910    1.5429   -6.2278 F   0  0  0  0  0  0  0  0  0  0  0  0
    3.1630    0.4390   -4.7289 F   0  0  0  0  0  0  0  0  0  0  0  0
  1  2  2  0  0  0  0
  1  6  1  0  0  0  0
  2  3  1  0  0  0  0
  3 14  1  0  0  0  0
  3  4  2  0  0  0  0
  4  9  1  0  0  0  0
  5  4  1  0  0  0  0
  5 10  1  0  0  0  0
  6  5  2  0  0  0  0
  7  1  1  0  0  0  0
  8  2  1  0  0  0  0
 11  6  1  0  0  0  0
 11 12  2  0  0  0  0
 13 11  2  0  0  0  0
 14 15  1  0  0  0  0
 16 20  2  0  0  0  0
 16 19  1  0  0  0  0
 16 17  1  0  0  0  0
 17 23  1  0  0  0  0
 18 16  2  0  0  0  0
 21 17  1  0  0  0  0
 22 17  1  0  0  0  0
M  RAD  3  14   2  15   3  19   2
M  END
