Coordinates from ORCA-job p-NO2-Ph-N2-OTf-B3LYPG-6-31G_dp-scan-d09-49-n400
 OpenBabel08281821413D

 23 23  0  0  1  0  0  0  0  0999 V2000
   -1.2267   -0.5678   -5.3368 C   0  0  0  0  0  0  0  0  0  0  0  0
   -0.2211    0.4855   -4.9678 C   0  0  2  0  0  0  0  0  0  0  0  0
   -0.8703    1.7764   -4.4596 C   0  0  0  0  0  0  0  0  0  0  0  0
   -2.2260    2.0920   -4.8457 C   0  0  0  0  0  0  0  0  0  0  0  0
   -3.0178    1.1250   -5.3639 C   0  0  0  0  0  0  0  0  0  0  0  0
   -2.5059   -0.2235   -5.5458 C   0  0  0  0  0  0  0  0  0  0  0  0
   -0.8776   -1.5759   -5.5203 H   0  0  0  0  0  0  0  0  0  0  0  0
    0.4857    0.1105   -4.2185 H   0  0  0  0  0  0  0  0  0  0  0  0
   -2.5947    3.0942   -4.6595 H   0  0  0  0  0  0  0  0  0  0  0  0
   -4.0483    1.3143   -5.6352 H   0  0  0  0  0  0  0  0  0  0  0  0
   -3.4591   -1.2617   -5.9977 N   0  0  0  0  0  0  0  0  0  0  0  0
   -4.6119   -0.8966   -6.2185 O   0  0  0  0  0  0  0  0  0  0  0  0
   -3.0397   -2.4078   -6.1185 O   0  0  0  0  0  0  0  0  0  0  0  0
   -0.2098    2.5749   -3.6893 N   0  0  0  0  0  0  0  0  0  0  0  0
    0.9248    2.5925   -3.1541 N   0  0  0  0  0  0  0  0  0  0  0  0
    2.1773    0.8540   -6.1719 S   0  0  2  0  0  0  0  0  0  0  0  0
    2.2551   -0.8266   -7.0375 C   0  0  0  0  0  0  0  0  0  0  0  0
    0.4551    0.7923   -6.2089 O   0  0  0  0  0  0  0  0  0  0  0  0
    2.5812    1.8224   -7.2051 O   0  0  0  0  0  0  0  0  0  0  0  0
    2.0437    2.7549   -4.1872 O   0  0  0  0  0  0  0  0  0  0  0  0
    1.6684   -1.7388   -6.2311 F   0  0  0  0  0  0  0  0  0  0  0  0
    1.6551   -0.8308   -8.2206 F   0  0  0  0  0  0  0  0  0  0  0  0
    3.5418   -1.1581   -7.1847 F   0  0  0  0  0  0  0  0  0  0  0  0
  1  2  1  0  0  0  0
  2  3  1  0  0  0  0
  2  8  1  1  0  0  0
  3 14  2  0  0  0  0
  4  9  1  0  0  0  0
  4  3  1  0  0  0  0
  5  4  2  0  0  0  0
  6  5  1  0  0  0  0
  6  1  2  0  0  0  0
  7  1  1  0  0  0  0
 10  5  1  0  0  0  0
 11  6  1  0  0  0  0
 12 11  2  0  0  0  0
 13 11  2  0  0  0  0
 14 15  1  0  0  0  0
 16 19  1  6  0  0  0
 17 21  1  0  0  0  0
 17 16  1  0  0  0  0
 18 16  1  0  0  0  0
 18  2  1  0  0  0  0
 20 15  1  0  0  0  0
 22 17  1  0  0  0  0
 23 17  1  0  0  0  0
M  RAD  3  15   2  19   2  20   2
M  END
