Coordinates from ORCA-job p-NO2-Ph-N2-OTf-B3LYPG-6-31G_dp-scan-d09-49-n400
 OpenBabel08281821413D

 23 22  0  0  0  0  0  0  0  0999 V2000
   -2.2011   -0.6699   -5.7361 C   0  0  0  0  0  0  0  0  0  0  0  0
   -0.9462   -0.0716   -5.6323 C   0  0  0  0  0  0  0  0  0  0  0  0
   -0.8859    1.1532   -4.9649 C   0  0  0  0  0  0  0  0  0  0  0  0
   -2.0001    1.8088   -4.4095 C   0  0  0  0  0  0  0  0  0  0  0  0
   -3.2395    1.2014   -4.5411 C   0  0  0  0  0  0  0  0  0  0  0  0
   -3.3123   -0.0275   -5.1986 C   0  0  0  0  0  0  0  0  0  0  0  0
   -2.3198   -1.6211   -6.2390 H   0  0  0  0  0  0  0  0  0  0  0  0
   -0.0573   -0.5332   -6.0667 H   0  0  0  0  0  0  0  0  0  0  0  0
   -1.8911    2.7620   -3.9054 H   0  0  0  0  0  0  0  0  0  0  0  0
   -4.1395    1.6559   -4.1477 H   0  0  0  0  0  0  0  0  0  0  0  0
   -4.6428   -0.6725   -5.3292 N   0  0  0  0  0  0  0  0  0  0  0  0
   -5.5996   -0.0760   -4.8440 O   0  0  0  0  0  0  0  0  0  0  0  0
   -4.6865   -1.7509   -5.9091 O   0  0  0  0  0  0  0  0  0  0  0  0
    0.3471    1.8075   -4.7526 N   0  0  0  0  0  0  0  0  0  0  0  0
    1.0632    2.4989   -4.2433 N   0  0  0  0  0  0  0  0  0  0  0  0
    2.2168    0.2236   -7.2002 S   0  0  0  0  0  0  0  0  0  0  0  0
    3.5990    0.3518   -5.9643 C   0  0  0  0  0  0  0  0  0  0  0  0
    2.8372    0.4272   -8.5085 O   0  0  0  0  0  0  0  0  0  0  0  0
    1.3236    1.3677   -6.7642 O   0  0  0  0  0  0  0  0  0  0  0  0
    1.6131   -1.1012   -6.9188 O   0  0  0  0  0  0  0  0  0  0  0  0
    4.4320   -0.6857   -6.0566 F   0  0  0  0  0  0  0  0  0  0  0  0
    4.2905    1.4835   -6.1347 F   0  0  0  0  0  0  0  0  0  0  0  0
    3.0785    0.3693   -4.7114 F   0  0  0  0  0  0  0  0  0  0  0  0
  1  2  2  0  0  0  0
  1  6  1  0  0  0  0
  2  3  1  0  0  0  0
  3 14  1  0  0  0  0
  3  4  2  0  0  0  0
  4  9  1  0  0  0  0
  5  4  1  0  0  0  0
  5 10  1  0  0  0  0
  6  5  2  0  0  0  0
  7  1  1  0  0  0  0
  8  2  1  0  0  0  0
 11  6  1  0  0  0  0
 11 12  2  0  0  0  0
 13 11  2  0  0  0  0
 14 15  1  0  0  0  0
 16 20  2  0  0  0  0
 16 19  1  0  0  0  0
 16 17  1  0  0  0  0
 17 23  1  0  0  0  0
 18 16  2  0  0  0  0
 21 17  1  0  0  0  0
 22 17  1  0  0  0  0
M  RAD  3  14   2  15   3  19   2
M  END
