Coordinates from ORCA-job p-NO2-Ph-N2-OTf-B3LYPG-6-31G_dp-scan-d09-49-n400
 OpenBabel08281821413D

 23 22  0  0  0  0  0  0  0  0999 V2000
   -2.0757   -0.6506   -5.6906 C   0  0  0  0  0  0  0  0  0  0  0  0
   -0.8578    0.0259   -5.6350 C   0  0  0  0  0  0  0  0  0  0  0  0
   -0.8594    1.2757   -5.0122 C   0  0  0  0  0  0  0  0  0  0  0  0
   -2.0023    1.8799   -4.4528 C   0  0  0  0  0  0  0  0  0  0  0  0
   -3.2029    1.1923   -4.5331 C   0  0  0  0  0  0  0  0  0  0  0  0
   -3.2127   -0.0609   -5.1482 C   0  0  0  0  0  0  0  0  0  0  0  0
   -2.1441   -1.6222   -6.1630 H   0  0  0  0  0  0  0  0  0  0  0  0
    0.0377   -0.4036   -6.0848 H   0  0  0  0  0  0  0  0  0  0  0  0
   -1.9427    2.8553   -3.9844 H   0  0  0  0  0  0  0  0  0  0  0  0
   -4.1206    1.6034   -4.1327 H   0  0  0  0  0  0  0  0  0  0  0  0
   -4.5030   -0.7910   -5.2262 N   0  0  0  0  0  0  0  0  0  0  0  0
   -5.4852   -0.2363   -4.7422 O   0  0  0  0  0  0  0  0  0  0  0  0
   -4.4904   -1.8910   -5.7654 O   0  0  0  0  0  0  0  0  0  0  0  0
    0.3264    2.0201   -4.8585 N   0  0  0  0  0  0  0  0  0  0  0  0
    1.0177    2.7884   -4.4343 N   0  0  0  0  0  0  0  0  0  0  0  0
    2.2201    0.3398   -7.3245 S   0  0  0  0  0  0  0  0  0  0  0  0
    3.3604    0.1261   -5.8722 C   0  0  0  0  0  0  0  0  0  0  0  0
    3.0810    0.6445   -8.4659 O   0  0  0  0  0  0  0  0  0  0  0  0
    1.3833    1.5080   -6.8516 O   0  0  0  0  0  0  0  0  0  0  0  0
    1.4608   -0.9341   -7.3507 O   0  0  0  0  0  0  0  0  0  0  0  0
    4.0998   -0.9780   -5.9802 F   0  0  0  0  0  0  0  0  0  0  0  0
    4.1717    1.1811   -5.7332 F   0  0  0  0  0  0  0  0  0  0  0  0
    2.6172    0.0282   -4.7365 F   0  0  0  0  0  0  0  0  0  0  0  0
  1  2  2  0  0  0  0
  1  6  1  0  0  0  0
  2  3  1  0  0  0  0
  3 14  1  0  0  0  0
  3  4  2  0  0  0  0
  4  9  1  0  0  0  0
  5  4  1  0  0  0  0
  5 10  1  0  0  0  0
  6  5  2  0  0  0  0
  7  1  1  0  0  0  0
  8  2  1  0  0  0  0
 11  6  1  0  0  0  0
 11 12  2  0  0  0  0
 13 11  2  0  0  0  0
 14 15  1  0  0  0  0
 16 19  1  0  0  0  0
 16 17  1  0  0  0  0
 17 22  1  0  0  0  0
 17 23  1  0  0  0  0
 18 16  2  0  0  0  0
 20 16  2  0  0  0  0
 21 17  1  0  0  0  0
M  RAD  3  14   2  15   3  19   2
M  END
