Coordinates from ORCA-job p-NO2-Ph-N2-OTf-B3LYPG-6-31G_dp-scan-d09-49-n400
 OpenBabel08281821413D

 23 22  0  0  0  0  0  0  0  0999 V2000
   -2.3147   -0.8223   -5.6475 C   0  0  0  0  0  0  0  0  0  0  0  0
   -1.0139   -0.4442   -5.3348 C   0  0  0  0  0  0  0  0  0  0  0  0
   -0.8486    0.7942   -4.7078 C   0  0  0  0  0  0  0  0  0  0  0  0
   -1.8939    1.6750   -4.3990 C   0  0  0  0  0  0  0  0  0  0  0  0
   -3.1831    1.2824   -4.7363 C   0  0  0  0  0  0  0  0  0  0  0  0
   -3.3660    0.0426   -5.3462 C   0  0  0  0  0  0  0  0  0  0  0  0
   -2.5204   -1.7681   -6.1323 H   0  0  0  0  0  0  0  0  0  0  0  0
   -0.1393   -1.0460   -5.5756 H   0  0  0  0  0  0  0  0  0  0  0  0
   -1.7000    2.6290   -3.9232 H   0  0  0  0  0  0  0  0  0  0  0  0
   -4.0389    1.9133   -4.5339 H   0  0  0  0  0  0  0  0  0  0  0  0
   -4.7477   -0.3704   -5.6914 N   0  0  0  0  0  0  0  0  0  0  0  0
   -5.6489    0.4192   -5.4242 O   0  0  0  0  0  0  0  0  0  0  0  0
   -4.8880   -1.4702   -6.2140 O   0  0  0  0  0  0  0  0  0  0  0  0
    0.4374    1.1938   -4.2949 N   0  0  0  0  0  0  0  0  0  0  0  0
    1.2655    1.5483   -3.6355 N   0  0  0  0  0  0  0  0  0  0  0  0
    2.0816    0.1814   -6.8696 S   0  0  0  0  0  0  0  0  0  0  0  0
    3.7352    0.8434   -6.3433 C   0  0  0  0  0  0  0  0  0  0  0  0
    2.1900   -0.0587   -8.3089 O   0  0  0  0  0  0  0  0  0  0  0  0
    1.1512    1.3126   -6.4925 O   0  0  0  0  0  0  0  0  0  0  0  0
    1.8851   -0.9950   -5.9837 O   0  0  0  0  0  0  0  0  0  0  0  0
    4.6924   -0.0710   -6.5179 F   0  0  0  0  0  0  0  0  0  0  0  0
    4.0513    1.9431   -7.0344 F   0  0  0  0  0  0  0  0  0  0  0  0
    3.6931    1.1689   -5.0313 F   0  0  0  0  0  0  0  0  0  0  0  0
  1  6  2  0  0  0  0
  1  2  1  0  0  0  0
  2  3  2  0  0  0  0
  3  4  1  0  0  0  0
  3 14  1  0  0  0  0
  4  9  1  0  0  0  0
  5 10  1  0  0  0  0
  5  4  2  0  0  0  0
  6  5  1  0  0  0  0
  7  1  1  0  0  0  0
  8  2  1  0  0  0  0
 11 12  2  0  0  0  0
 11  6  1  0  0  0  0
 13 11  2  0  0  0  0
 14 15  1  0  0  0  0
 16 19  2  0  0  0  0
 16 17  1  0  0  0  0
 16 20  1  0  0  0  0
 17 23  1  0  0  0  0
 18 16  2  0  0  0  0
 21 17  1  0  0  0  0
 22 17  1  0  0  0  0
M  RAD  3  14   2  15   3  20   2
M  END
