Coordinates from ORCA-job p-NO2-Ph-N2-OTf-B3LYPG-6-31G_dp-scan-d09-49-n400
 OpenBabel08281821413D

 23 23  0  0  1  0  0  0  0  0999 V2000
   -1.2290   -0.4638   -5.5644 C   0  0  0  0  0  0  0  0  0  0  0  0
   -0.2559    0.5734   -5.0964 C   0  0  2  0  0  0  0  0  0  0  0  0
   -0.9052    1.8572   -4.5731 C   0  0  0  0  0  0  0  0  0  0  0  0
   -2.3349    2.0326   -4.6604 C   0  0  0  0  0  0  0  0  0  0  0  0
   -3.1301    1.0356   -5.1159 C   0  0  0  0  0  0  0  0  0  0  0  0
   -2.5485   -0.2188   -5.5509 C   0  0  0  0  0  0  0  0  0  0  0  0
   -0.8371   -1.3951   -5.9514 H   0  0  0  0  0  0  0  0  0  0  0  0
    0.3432    0.1787   -4.2549 H   0  0  0  0  0  0  0  0  0  0  0  0
   -2.7416    2.9837   -4.3360 H   0  0  0  0  0  0  0  0  0  0  0  0
   -4.2062    1.1422   -5.1734 H   0  0  0  0  0  0  0  0  0  0  0  0
   -3.4708   -1.2703   -6.0375 N   0  0  0  0  0  0  0  0  0  0  0  0
   -4.6690   -0.9971   -6.0431 O   0  0  0  0  0  0  0  0  0  0  0  0
   -2.9828   -2.3373   -6.3958 O   0  0  0  0  0  0  0  0  0  0  0  0
   -0.1818    2.7957   -4.0467 N   0  0  0  0  0  0  0  0  0  0  0  0
    1.0730    2.5290   -3.6892 N   0  0  0  0  0  0  0  0  0  0  0  0
    2.2943    0.6235   -5.9792 S   0  0  2  0  0  0  0  0  0  0  0  0
    2.2727   -0.9705   -6.9951 C   0  0  0  0  0  0  0  0  0  0  0  0
    0.6138    0.8720   -6.2106 O   0  0  0  0  0  0  0  0  0  0  0  0
    2.9918    1.6037   -6.8290 O   0  0  0  0  0  0  0  0  0  0  0  0
    1.9567    3.4251   -4.0564 O   0  0  0  0  0  0  0  0  0  0  0  0
    1.5162   -1.8739   -6.3363 F   0  0  0  0  0  0  0  0  0  0  0  0
    1.7878   -0.7909   -8.2158 F   0  0  0  0  0  0  0  0  0  0  0  0
    3.5229   -1.4337   -7.0666 F   0  0  0  0  0  0  0  0  0  0  0  0
  1  6  2  0  0  0  0
  1  2  1  0  0  0  0
  2  3  1  0  0  0  0
  2  8  1  1  0  0  0
  3 14  2  0  0  0  0
  4  3  1  0  0  0  0
  4  9  1  0  0  0  0
  5  4  2  0  0  0  0
  6  5  1  0  0  0  0
  7  1  1  0  0  0  0
 10  5  1  0  0  0  0
 11  6  1  0  0  0  0
 12 11  2  0  0  0  0
 13 11  2  0  0  0  0
 14 15  1  0  0  0  0
 16 17  1  6  0  0  0
 17 21  1  0  0  0  0
 18 16  1  0  0  0  0
 18  2  1  0  0  0  0
 19 16  1  0  0  0  0
 20 15  1  0  0  0  0
 22 17  1  0  0  0  0
 23 17  1  0  0  0  0
M  RAD  3  15   2  19   2  20   2
M  END
