Coordinates from ORCA-job p-NO2-Ph-N2-OTf-B3LYPG-6-31G_dp-scan-d09-49-n400
 OpenBabel08281821413D

 23 22  0  0  0  0  0  0  0  0999 V2000
   -2.5308   -0.6590   -5.8276 C   0  0  0  0  0  0  0  0  0  0  0  0
   -1.2646   -0.1193   -5.6259 C   0  0  0  0  0  0  0  0  0  0  0  0
   -1.1485    0.9814   -4.7592 C   0  0  0  0  0  0  0  0  0  0  0  0
   -2.2520    1.5402   -4.0991 C   0  0  0  0  0  0  0  0  0  0  0  0
   -3.5120    0.9946   -4.3098 C   0  0  0  0  0  0  0  0  0  0  0  0
   -3.6232   -0.0955   -5.1706 C   0  0  0  0  0  0  0  0  0  0  0  0
   -2.6817   -1.5070   -6.4839 H   0  0  0  0  0  0  0  0  0  0  0  0
   -0.3854   -0.5173   -6.1150 H   0  0  0  0  0  0  0  0  0  0  0  0
   -2.1094    2.3895   -3.4407 H   0  0  0  0  0  0  0  0  0  0  0  0
   -4.3960    1.3907   -3.8275 H   0  0  0  0  0  0  0  0  0  0  0  0
   -4.9656   -0.6825   -5.3954 N   0  0  0  0  0  0  0  0  0  0  0  0
   -5.9095   -0.1603   -4.8093 O   0  0  0  0  0  0  0  0  0  0  0  0
   -5.0365   -1.6469   -6.1500 O   0  0  0  0  0  0  0  0  0  0  0  0
    0.0894    1.5971   -4.4993 N   0  0  0  0  0  0  0  0  0  0  0  0
    1.2147    1.6108   -4.7714 N   0  0  0  0  0  0  0  0  0  0  0  0
    2.6077    0.7763   -7.0888 S   0  0  0  0  0  0  0  0  0  0  0  0
    4.2298    0.4643   -6.2335 C   0  0  0  0  0  0  0  0  0  0  0  0
    2.5596   -0.1304   -8.2310 O   0  0  0  0  0  0  0  0  0  0  0  0
    2.5165    2.2231   -7.2699 O   0  0  0  0  0  0  0  0  0  0  0  0
    1.6006    0.2739   -5.9941 O   0  0  0  0  0  0  0  0  0  0  0  0
    4.3677   -0.8357   -5.9619 F   0  0  0  0  0  0  0  0  0  0  0  0
    5.2297    0.8565   -7.0254 F   0  0  0  0  0  0  0  0  0  0  0  0
    4.2788    1.1566   -5.0887 F   0  0  0  0  0  0  0  0  0  0  0  0
  1  2  2  0  0  0  0
  1  6  1  0  0  0  0
  2  3  1  0  0  0  0
  3 14  1  0  0  0  0
  3  4  2  0  0  0  0
  4  9  1  0  0  0  0
  5  4  1  0  0  0  0
  5 10  1  0  0  0  0
  6  5  2  0  0  0  0
  7  1  1  0  0  0  0
  8  2  1  0  0  0  0
 11  6  1  0  0  0  0
 11 12  2  0  0  0  0
 13 11  2  0  0  0  0
 15 14  2  0  0  0  0
 16 17  1  0  0  0  0
 16 20  1  0  0  0  0
 17 21  1  0  0  0  0
 17 23  1  0  0  0  0
 18 16  2  0  0  0  0
 19 16  2  0  0  0  0
 22 17  1  0  0  0  0
M  RAD  2  15   2  20   2
M  END
