Coordinates from ORCA-job p-NO2-Ph-N2-OTf-B3LYPG-6-31G_dp-scan-d09-49-n400
 OpenBabel08281821413D

 23 22  0  0  0  0  0  0  0  0999 V2000
   -2.3001   -0.7910   -5.6643 C   0  0  0  0  0  0  0  0  0  0  0  0
   -1.0032   -0.3700   -5.3890 C   0  0  0  0  0  0  0  0  0  0  0  0
   -0.8620    0.8654   -4.7520 C   0  0  0  0  0  0  0  0  0  0  0  0
   -1.9286    1.7035   -4.3970 C   0  0  0  0  0  0  0  0  0  0  0  0
   -3.2132    1.2699   -4.6989 C   0  0  0  0  0  0  0  0  0  0  0  0
   -3.3711    0.0318   -5.3196 C   0  0  0  0  0  0  0  0  0  0  0  0
   -2.4871   -1.7386   -6.1532 H   0  0  0  0  0  0  0  0  0  0  0  0
   -0.1191   -0.9449   -5.6631 H   0  0  0  0  0  0  0  0  0  0  0  0
   -1.7536    2.6573   -3.9134 H   0  0  0  0  0  0  0  0  0  0  0  0
   -4.0837    1.8674   -4.4614 H   0  0  0  0  0  0  0  0  0  0  0  0
   -4.7479   -0.4257   -5.6275 N   0  0  0  0  0  0  0  0  0  0  0  0
   -5.6674    0.3277   -5.3210 O   0  0  0  0  0  0  0  0  0  0  0  0
   -4.8657   -1.5211   -6.1648 O   0  0  0  0  0  0  0  0  0  0  0  0
    0.4212    1.3124   -4.3725 N   0  0  0  0  0  0  0  0  0  0  0  0
    1.2205    1.7363   -3.7173 N   0  0  0  0  0  0  0  0  0  0  0  0
    2.1119    0.1678   -6.9318 S   0  0  0  0  0  0  0  0  0  0  0  0
    3.7480    0.7583   -6.2809 C   0  0  0  0  0  0  0  0  0  0  0  0
    2.2869    0.0308   -8.3778 O   0  0  0  0  0  0  0  0  0  0  0  0
    1.1858    1.2958   -6.5266 O   0  0  0  0  0  0  0  0  0  0  0  0
    1.8487   -1.0622   -6.1442 O   0  0  0  0  0  0  0  0  0  0  0  0
    4.6926   -0.1691   -6.4533 F   0  0  0  0  0  0  0  0  0  0  0  0
    4.1257    1.8852   -6.8920 F   0  0  0  0  0  0  0  0  0  0  0  0
    3.6406    1.0141   -4.9568 F   0  0  0  0  0  0  0  0  0  0  0  0
  1  2  2  0  0  0  0
  1  6  1  0  0  0  0
  2  3  1  0  0  0  0
  3  4  2  0  0  0  0
  3 14  1  0  0  0  0
  4  9  1  0  0  0  0
  5 10  1  0  0  0  0
  5  4  1  0  0  0  0
  6  5  2  0  0  0  0
  7  1  1  0  0  0  0
  8  2  1  0  0  0  0
 11 12  2  0  0  0  0
 11  6  1  0  0  0  0
 13 11  2  0  0  0  0
 14 15  1  0  0  0  0
 16 19  2  0  0  0  0
 16 17  1  0  0  0  0
 16 20  1  0  0  0  0
 17 23  1  0  0  0  0
 18 16  2  0  0  0  0
 21 17  1  0  0  0  0
 22 17  1  0  0  0  0
M  RAD  3  14   2  15   3  20   2
M  END
