Coordinates from ORCA-job p-NO2-Ph-N2-OTf-B3LYPG-6-31G_dp-scan-d09-49-n400
 OpenBabel08281821413D

 23 22  0  0  0  0  0  0  0  0999 V2000
   -2.3453   -0.7412   -5.7278 C   0  0  0  0  0  0  0  0  0  0  0  0
   -1.0725   -0.4439   -5.2564 C   0  0  0  0  0  0  0  0  0  0  0  0
   -0.9313    0.7018   -4.4582 C   0  0  0  0  0  0  0  0  0  0  0  0
   -1.9911    1.5498   -4.1174 C   0  0  0  0  0  0  0  0  0  0  0  0
   -3.2544    1.2451   -4.6081 C   0  0  0  0  0  0  0  0  0  0  0  0
   -3.4026    0.1061   -5.3982 C   0  0  0  0  0  0  0  0  0  0  0  0
   -2.5260   -1.6084   -6.3505 H   0  0  0  0  0  0  0  0  0  0  0  0
   -0.2039   -1.0509   -5.4839 H   0  0  0  0  0  0  0  0  0  0  0  0
   -1.8203    2.4215   -3.4963 H   0  0  0  0  0  0  0  0  0  0  0  0
   -4.1164    1.8620   -4.3899 H   0  0  0  0  0  0  0  0  0  0  0  0
   -4.7568   -0.2217   -5.9087 N   0  0  0  0  0  0  0  0  0  0  0  0
   -5.6668    0.5448   -5.6079 O   0  0  0  0  0  0  0  0  0  0  0  0
   -4.8669   -1.2356   -6.5889 O   0  0  0  0  0  0  0  0  0  0  0  0
    0.3359    1.0031   -3.9545 N   0  0  0  0  0  0  0  0  0  0  0  0
    1.4591    0.9095   -3.8604 N   0  0  0  0  0  0  0  0  0  0  0  0
    2.1524    0.1630   -6.6993 S   0  0  0  0  0  0  0  0  0  0  0  0
    3.7946    1.0253   -6.6054 C   0  0  0  0  0  0  0  0  0  0  0  0
    2.2486   -0.7744   -7.8191 O   0  0  0  0  0  0  0  0  0  0  0  0
    1.1579    1.2525   -6.7737 O   0  0  0  0  0  0  0  0  0  0  0  0
    2.0880   -0.5463   -5.3463 O   0  0  0  0  0  0  0  0  0  0  0  0
    4.7850    0.1406   -6.4632 F   0  0  0  0  0  0  0  0  0  0  0  0
    4.0042    1.7399   -7.7151 F   0  0  0  0  0  0  0  0  0  0  0  0
    3.8077    1.8586   -5.5491 F   0  0  0  0  0  0  0  0  0  0  0  0
  1  6  2  0  0  0  0
  1  2  1  0  0  0  0
  2  3  2  0  0  0  0
  3  4  1  0  0  0  0
  3 14  1  0  0  0  0
  4  9  1  0  0  0  0
  5 10  1  0  0  0  0
  5  4  2  0  0  0  0
  6  5  1  0  0  0  0
  7  1  1  0  0  0  0
  8  2  1  0  0  0  0
 11 12  2  0  0  0  0
 11  6  1  0  0  0  0
 13 11  2  0  0  0  0
 14 15  1  0  0  0  0
 16 17  1  0  0  0  0
 16 20  1  0  0  0  0
 17 21  1  0  0  0  0
 17 23  1  0  0  0  0
 18 16  2  0  0  0  0
 19 16  2  0  0  0  0
 22 17  1  0  0  0  0
M  RAD  3  14   2  15   3  20   2
M  END
