Coordinates from ORCA-job p-NO2-Ph-N2-OTf-B3LYPG-6-31G_dp-scan-d09-49-n400
 OpenBabel08281821413D

 23 22  0  0  0  0  0  0  0  0999 V2000
   -2.2730   -0.7497   -5.6849 C   0  0  0  0  0  0  0  0  0  0  0  0
   -0.9857   -0.2671   -5.4659 C   0  0  0  0  0  0  0  0  0  0  0  0
   -0.8760    0.9660   -4.8193 C   0  0  0  0  0  0  0  0  0  0  0  0
   -1.9670    1.7432   -4.3996 C   0  0  0  0  0  0  0  0  0  0  0  0
   -3.2408    1.2500   -4.6472 C   0  0  0  0  0  0  0  0  0  0  0  0
   -3.3657    0.0131   -5.2790 C   0  0  0  0  0  0  0  0  0  0  0  0
   -2.4347   -1.7002   -6.1771 H   0  0  0  0  0  0  0  0  0  0  0  0
   -0.0932   -0.8038   -5.7912 H   0  0  0  0  0  0  0  0  0  0  0  0
   -1.8171    2.6978   -3.9092 H   0  0  0  0  0  0  0  0  0  0  0  0
   -4.1278    1.7996   -4.3602 H   0  0  0  0  0  0  0  0  0  0  0  0
   -4.7317   -0.5088   -5.5301 N   0  0  0  0  0  0  0  0  0  0  0  0
   -5.6714    0.1928   -5.1673 O   0  0  0  0  0  0  0  0  0  0  0  0
   -4.8205   -1.6015   -6.0779 O   0  0  0  0  0  0  0  0  0  0  0  0
    0.3967    1.4827   -4.4916 N   0  0  0  0  0  0  0  0  0  0  0  0
    1.1648    2.0065   -3.8706 N   0  0  0  0  0  0  0  0  0  0  0  0
    2.1481    0.1728   -7.0292 S   0  0  0  0  0  0  0  0  0  0  0  0
    3.7365    0.6249   -6.1786 C   0  0  0  0  0  0  0  0  0  0  0  0
    2.4510    0.1780   -8.4603 O   0  0  0  0  0  0  0  0  0  0  0  0
    1.2310    1.2991   -6.5953 O   0  0  0  0  0  0  0  0  0  0  0  0
    1.7728   -1.1182   -6.4033 O   0  0  0  0  0  0  0  0  0  0  0  0
    4.6528   -0.3323   -6.3372 F   0  0  0  0  0  0  0  0  0  0  0  0
    4.2217    1.7771   -6.6509 F   0  0  0  0  0  0  0  0  0  0  0  0
    3.5087    0.7789   -4.8524 F   0  0  0  0  0  0  0  0  0  0  0  0
  1  2  2  0  0  0  0
  1  6  1  0  0  0  0
  2  3  1  0  0  0  0
  3 14  1  0  0  0  0
  3  4  2  0  0  0  0
  4  9  1  0  0  0  0
  5  4  1  0  0  0  0
  5 10  1  0  0  0  0
  6  5  2  0  0  0  0
  7  1  1  0  0  0  0
  8  2  1  0  0  0  0
 11  6  1  0  0  0  0
 11 12  2  0  0  0  0
 13 11  2  0  0  0  0
 14 15  1  0  0  0  0
 16 19  2  0  0  0  0
 16 20  1  0  0  0  0
 16 17  1  0  0  0  0
 17 23  1  0  0  0  0
 18 16  2  0  0  0  0
 21 17  1  0  0  0  0
 22 17  1  0  0  0  0
M  RAD  3  14   2  15   3  20   2
M  END
