Coordinates from ORCA-job p-NO2-Ph-N2-OTf-B3LYPG-6-31G_dp-scan-d09-49-n400
 OpenBabel08281821413D

 23 22  0  0  0  0  0  0  0  0999 V2000
   -2.3362   -0.7859   -5.6839 C   0  0  0  0  0  0  0  0  0  0  0  0
   -1.0601   -0.5161   -5.2077 C   0  0  0  0  0  0  0  0  0  0  0  0
   -0.8905    0.6625   -4.4638 C   0  0  0  0  0  0  0  0  0  0  0  0
   -1.9152    1.5744   -4.1848 C   0  0  0  0  0  0  0  0  0  0  0  0
   -3.1803    1.2931   -4.6840 C   0  0  0  0  0  0  0  0  0  0  0  0
   -3.3623    0.1200   -5.4155 C   0  0  0  0  0  0  0  0  0  0  0  0
   -2.5420   -1.6738   -6.2684 H   0  0  0  0  0  0  0  0  0  0  0  0
   -0.2056   -1.1568   -5.3986 H   0  0  0  0  0  0  0  0  0  0  0  0
   -1.7193    2.4712   -3.6087 H   0  0  0  0  0  0  0  0  0  0  0  0
   -4.0198    1.9552   -4.5158 H   0  0  0  0  0  0  0  0  0  0  0  0
   -4.7214   -0.1786   -5.9317 N   0  0  0  0  0  0  0  0  0  0  0  0
   -5.6006    0.6440   -5.6945 O   0  0  0  0  0  0  0  0  0  0  0  0
   -4.8646   -1.2259   -6.5521 O   0  0  0  0  0  0  0  0  0  0  0  0
    0.3790    0.9110   -3.9564 N   0  0  0  0  0  0  0  0  0  0  0  0
    1.4674    0.8828   -3.6973 N   0  0  0  0  0  0  0  0  0  0  0  0
    2.1178    0.0939   -6.6885 S   0  0  0  0  0  0  0  0  0  0  0  0
    3.6832    1.0878   -6.5926 C   0  0  0  0  0  0  0  0  0  0  0  0
    2.2278   -0.7101   -7.9080 O   0  0  0  0  0  0  0  0  0  0  0  0
    1.0447    1.1208   -6.6444 O   0  0  0  0  0  0  0  0  0  0  0  0
    2.1603   -0.7045   -5.4072 O   0  0  0  0  0  0  0  0  0  0  0  0
    4.7545    0.2901   -6.5444 F   0  0  0  0  0  0  0  0  0  0  0  0
    3.7931    1.8969   -7.6518 F   0  0  0  0  0  0  0  0  0  0  0  0
    3.6696    1.8490   -5.4783 F   0  0  0  0  0  0  0  0  0  0  0  0
  1  6  2  0  0  0  0
  1  2  1  0  0  0  0
  2  3  2  0  0  0  0
  3  4  1  0  0  0  0
  3 14  1  0  0  0  0
  4  9  1  0  0  0  0
  5 10  1  0  0  0  0
  5  4  2  0  0  0  0
  6  5  1  0  0  0  0
  7  1  1  0  0  0  0
  8  2  1  0  0  0  0
 11 12  2  0  0  0  0
 11  6  1  0  0  0  0
 13 11  2  0  0  0  0
 14 15  1  0  0  0  0
 16 19  2  0  0  0  0
 16 17  1  0  0  0  0
 16 20  1  0  0  0  0
 17 21  1  0  0  0  0
 17 23  1  0  0  0  0
 18 16  2  0  0  0  0
 22 17  1  0  0  0  0
M  RAD  3  14   2  15   3  20   2
M  END
