Coordinates from ORCA-job p-NO2-Ph-N2-OTf-B3LYPG-6-31G_dp-scan-d09-49-n400
 OpenBabel08281821413D

 23 22  0  0  0  0  0  0  0  0999 V2000
   -2.3321   -0.8668   -5.6264 C   0  0  0  0  0  0  0  0  0  0  0  0
   -1.0294   -0.5488   -5.2628 C   0  0  0  0  0  0  0  0  0  0  0  0
   -0.8269    0.6928   -4.6500 C   0  0  0  0  0  0  0  0  0  0  0  0
   -1.8387    1.6297   -4.4002 C   0  0  0  0  0  0  0  0  0  0  0  0
   -3.1306    1.2938   -4.7837 C   0  0  0  0  0  0  0  0  0  0  0  0
   -3.3504    0.0537   -5.3810 C   0  0  0  0  0  0  0  0  0  0  0  0
   -2.5647   -1.8084   -6.1072 H   0  0  0  0  0  0  0  0  0  0  0  0
   -0.1734   -1.1879   -5.4627 H   0  0  0  0  0  0  0  0  0  0  0  0
   -1.6164    2.5820   -3.9337 H   0  0  0  0  0  0  0  0  0  0  0  0
   -3.9618    1.9690   -4.6266 H   0  0  0  0  0  0  0  0  0  0  0  0
   -4.7357   -0.2981   -5.7748 N   0  0  0  0  0  0  0  0  0  0  0  0
   -5.6069    0.5387   -5.5573 O   0  0  0  0  0  0  0  0  0  0  0  0
   -4.9088   -1.3997   -6.2841 O   0  0  0  0  0  0  0  0  0  0  0  0
    0.4551    1.0240   -4.1881 N   0  0  0  0  0  0  0  0  0  0  0  0
    1.3365    1.2851   -3.5595 N   0  0  0  0  0  0  0  0  0  0  0  0
    2.0312    0.2275   -6.7866 S   0  0  0  0  0  0  0  0  0  0  0  0
    3.7014    0.9526   -6.4214 C   0  0  0  0  0  0  0  0  0  0  0  0
    2.0703   -0.1761   -8.1930 O   0  0  0  0  0  0  0  0  0  0  0  0
    1.1037    1.3714   -6.4705 O   0  0  0  0  0  0  0  0  0  0  0  0
    1.9050   -0.8529   -5.7674 O   0  0  0  0  0  0  0  0  0  0  0  0
    4.6614    0.0337   -6.5591 F   0  0  0  0  0  0  0  0  0  0  0  0
    3.9642    1.9806   -7.2343 F   0  0  0  0  0  0  0  0  0  0  0  0
    3.7263    1.4050   -5.1479 F   0  0  0  0  0  0  0  0  0  0  0  0
  1  6  2  0  0  0  0
  1  2  1  0  0  0  0
  2  3  2  0  0  0  0
  3  4  1  0  0  0  0
  3 14  1  0  0  0  0
  4  9  1  0  0  0  0
  5 10  1  0  0  0  0
  5  4  2  0  0  0  0
  6  5  1  0  0  0  0
  7  1  1  0  0  0  0
  8  2  1  0  0  0  0
 11 12  2  0  0  0  0
 11  6  1  0  0  0  0
 13 11  2  0  0  0  0
 14 15  1  0  0  0  0
 16 19  2  0  0  0  0
 16 17  1  0  0  0  0
 16 20  1  0  0  0  0
 17 23  1  0  0  0  0
 18 16  2  0  0  0  0
 21 17  1  0  0  0  0
 22 17  1  0  0  0  0
M  RAD  3  14   2  15   3  20   2
M  END
