Coordinates from ORCA-job p-NO2-Ph-N2-OTf-B3LYPG-6-31G_dp-scan-d09-49-n400
 OpenBabel08281821413D

 23 23  0  0  1  0  0  0  0  0999 V2000
   -1.2253   -0.5752   -5.3145 C   0  0  0  0  0  0  0  0  0  0  0  0
   -0.2189    0.4789   -4.9497 C   0  0  2  0  0  0  0  0  0  0  0  0
   -0.8715    1.7708   -4.4507 C   0  0  0  0  0  0  0  0  0  0  0  0
   -2.2150    2.0948   -4.8580 C   0  0  0  0  0  0  0  0  0  0  0  0
   -3.0042    1.1280   -5.3850 C   0  0  0  0  0  0  0  0  0  0  0  0
   -2.4995   -0.2251   -5.5459 C   0  0  0  0  0  0  0  0  0  0  0  0
   -0.8803   -1.5879   -5.4800 H   0  0  0  0  0  0  0  0  0  0  0  0
    0.4908    0.1095   -4.2014 H   0  0  0  0  0  0  0  0  0  0  0  0
   -2.5830    3.0990   -4.6817 H   0  0  0  0  0  0  0  0  0  0  0  0
   -4.0290    1.3221   -5.6740 H   0  0  0  0  0  0  0  0  0  0  0  0
   -3.4541   -1.2616   -5.9986 N   0  0  0  0  0  0  0  0  0  0  0  0
   -4.6004   -0.8903   -6.2416 O   0  0  0  0  0  0  0  0  0  0  0  0
   -3.0417   -2.4122   -6.0977 O   0  0  0  0  0  0  0  0  0  0  0  0
   -0.2149    2.5590   -3.6605 N   0  0  0  0  0  0  0  0  0  0  0  0
    0.9021    2.6198   -3.1255 N   0  0  0  0  0  0  0  0  0  0  0  0
    2.1733    0.8666   -6.1722 S   0  0  2  0  0  0  0  0  0  0  0  0
    2.2462   -0.8131   -7.0442 C   0  0  0  0  0  0  0  0  0  0  0  0
    0.4496    0.7847   -6.1947 O   0  0  0  0  0  0  0  0  0  0  0  0
    2.5534    1.8373   -7.2122 O   0  0  0  0  0  0  0  0  0  0  0  0
    2.0608    2.6845   -4.2295 O   0  0  0  0  0  0  0  0  0  0  0  0
    1.6745   -1.7307   -6.2327 F   0  0  0  0  0  0  0  0  0  0  0  0
    1.6332   -0.8198   -8.2208 F   0  0  0  0  0  0  0  0  0  0  0  0
    3.5331   -1.1379   -7.2071 F   0  0  0  0  0  0  0  0  0  0  0  0
  1  2  1  0  0  0  0
  2  3  1  0  0  0  0
  2  8  1  1  0  0  0
  3 14  2  0  0  0  0
  4  9  1  0  0  0  0
  4  3  1  0  0  0  0
  5  4  2  0  0  0  0
  6  5  1  0  0  0  0
  6  1  2  0  0  0  0
  7  1  1  0  0  0  0
 10  5  1  0  0  0  0
 11  6  1  0  0  0  0
 12 11  2  0  0  0  0
 13 11  2  0  0  0  0
 14 15  1  0  0  0  0
 16 19  1  6  0  0  0
 17 21  1  0  0  0  0
 17 16  1  0  0  0  0
 18 16  1  0  0  0  0
 18  2  1  0  0  0  0
 20 15  1  0  0  0  0
 22 17  1  0  0  0  0
 23 17  1  0  0  0  0
M  RAD  3  15   2  19   2  20   2
M  END
