Coordinates from ORCA-job p-NO2-Ph-N2-OTf-B3LYPG-6-31G_dp-scan-d09-49-n400
 OpenBabel08281821413D

 23 22  0  0  0  0  0  0  0  0999 V2000
   -2.3288   -0.8599   -5.6286 C   0  0  0  0  0  0  0  0  0  0  0  0
   -1.0262   -0.5308   -5.2738 C   0  0  0  0  0  0  0  0  0  0  0  0
   -0.8306    0.7110   -4.6600 C   0  0  0  0  0  0  0  0  0  0  0  0
   -1.8485    1.6387   -4.4015 C   0  0  0  0  0  0  0  0  0  0  0  0
   -3.1402    1.2922   -4.7766 C   0  0  0  0  0  0  0  0  0  0  0  0
   -3.3533    0.0513   -5.3746 C   0  0  0  0  0  0  0  0  0  0  0  0
   -2.5565   -1.8029   -6.1090 H   0  0  0  0  0  0  0  0  0  0  0  0
   -0.1660   -1.1630   -5.4798 H   0  0  0  0  0  0  0  0  0  0  0  0
   -1.6314    2.5921   -3.9347 H   0  0  0  0  0  0  0  0  0  0  0  0
   -3.9761    1.9600   -4.6126 H   0  0  0  0  0  0  0  0  0  0  0  0
   -4.7382   -0.3116   -5.7598 N   0  0  0  0  0  0  0  0  0  0  0  0
   -5.6151    0.5175   -5.5349 O   0  0  0  0  0  0  0  0  0  0  0  0
   -4.9054   -1.4136   -6.2701 O   0  0  0  0  0  0  0  0  0  0  0  0
    0.4529    1.0549   -4.2073 N   0  0  0  0  0  0  0  0  0  0  0  0
    1.3226    1.3335   -3.5688 N   0  0  0  0  0  0  0  0  0  0  0  0
    2.0395    0.2197   -6.8031 S   0  0  0  0  0  0  0  0  0  0  0  0
    3.7081    0.9326   -6.4072 C   0  0  0  0  0  0  0  0  0  0  0  0
    2.0892   -0.1481   -8.2188 O   0  0  0  0  0  0  0  0  0  0  0  0
    1.1126    1.3612   -6.4703 O   0  0  0  0  0  0  0  0  0  0  0  0
    1.9004   -0.8831   -5.8116 O   0  0  0  0  0  0  0  0  0  0  0  0
    4.6665    0.0134   -6.5524 F   0  0  0  0  0  0  0  0  0  0  0  0
    3.9822    1.9751   -7.1976 F   0  0  0  0  0  0  0  0  0  0  0  0
    3.7216    1.3609   -5.1250 F   0  0  0  0  0  0  0  0  0  0  0  0
  1  6  2  0  0  0  0
  1  2  1  0  0  0  0
  2  3  2  0  0  0  0
  3  4  1  0  0  0  0
  3 14  1  0  0  0  0
  4  9  1  0  0  0  0
  5 10  1  0  0  0  0
  5  4  2  0  0  0  0
  6  5  1  0  0  0  0
  7  1  1  0  0  0  0
  8  2  1  0  0  0  0
 11 12  2  0  0  0  0
 11  6  1  0  0  0  0
 13 11  2  0  0  0  0
 14 15  1  0  0  0  0
 16 19  2  0  0  0  0
 16 17  1  0  0  0  0
 16 20  1  0  0  0  0
 17 23  1  0  0  0  0
 18 16  2  0  0  0  0
 21 17  1  0  0  0  0
 22 17  1  0  0  0  0
M  RAD  3  14   2  15   3  20   2
M  END
