Coordinates from ORCA-job p-NO2-Ph-N2-OTf-B3LYPG-6-31G_dp-scan-d09-49-n400
 OpenBabel08281821413D

 23 22  0  0  0  0  0  0  0  0999 V2000
   -2.3328   -0.8571   -5.6358 C   0  0  0  0  0  0  0  0  0  0  0  0
   -1.0381   -0.5671   -5.2271 C   0  0  0  0  0  0  0  0  0  0  0  0
   -0.8344    0.6624   -4.5851 C   0  0  0  0  0  0  0  0  0  0  0  0
   -1.8385    1.6097   -4.3468 C   0  0  0  0  0  0  0  0  0  0  0  0
   -3.1231    1.3017   -4.7755 C   0  0  0  0  0  0  0  0  0  0  0  0
   -3.3430    0.0767   -5.4033 C   0  0  0  0  0  0  0  0  0  0  0  0
   -2.5658   -1.7848   -6.1428 H   0  0  0  0  0  0  0  0  0  0  0  0
   -0.1873   -1.2172   -5.4100 H   0  0  0  0  0  0  0  0  0  0  0  0
   -1.6151    2.5493   -3.8556 H   0  0  0  0  0  0  0  0  0  0  0  0
   -3.9490    1.9862   -4.6310 H   0  0  0  0  0  0  0  0  0  0  0  0
   -4.7211   -0.2453   -5.8464 N   0  0  0  0  0  0  0  0  0  0  0  0
   -5.5850    0.6018   -5.6406 O   0  0  0  0  0  0  0  0  0  0  0  0
   -4.8952   -1.3349   -6.3804 O   0  0  0  0  0  0  0  0  0  0  0  0
    0.4411    0.9443   -4.0977 N   0  0  0  0  0  0  0  0  0  0  0  0
    1.4037    1.0812   -3.5581 N   0  0  0  0  0  0  0  0  0  0  0  0
    2.0317    0.1916   -6.7274 S   0  0  0  0  0  0  0  0  0  0  0  0
    3.6743    1.0239   -6.4897 C   0  0  0  0  0  0  0  0  0  0  0  0
    2.0545   -0.3572   -8.0850 O   0  0  0  0  0  0  0  0  0  0  0  0
    1.0572    1.3083   -6.4911 O   0  0  0  0  0  0  0  0  0  0  0  0
    1.9921   -0.7915   -5.6033 O   0  0  0  0  0  0  0  0  0  0  0  0
    4.6752    0.1426   -6.5790 F   0  0  0  0  0  0  0  0  0  0  0  0
    3.8600    1.9839   -7.4019 F   0  0  0  0  0  0  0  0  0  0  0  0
    3.7180    1.5925   -5.2646 F   0  0  0  0  0  0  0  0  0  0  0  0
  1  6  2  0  0  0  0
  1  2  1  0  0  0  0
  2  3  2  0  0  0  0
  3  4  1  0  0  0  0
  3 14  1  0  0  0  0
  4  9  1  0  0  0  0
  5 10  1  0  0  0  0
  5  4  2  0  0  0  0
  6  5  1  0  0  0  0
  7  1  1  0  0  0  0
  8  2  1  0  0  0  0
 11 12  2  0  0  0  0
 11  6  1  0  0  0  0
 13 11  2  0  0  0  0
 14 15  1  0  0  0  0
 16 19  2  0  0  0  0
 16 17  1  0  0  0  0
 16 20  1  0  0  0  0
 17 23  1  0  0  0  0
 18 16  2  0  0  0  0
 21 17  1  0  0  0  0
 22 17  1  0  0  0  0
M  RAD  3  14   2  15   3  20   2
M  END
