Coordinates from ORCA-job p-NO2-Ph-N2-OTf-B3LYPG-6-31G_dp-scan-d09-49-n400
 OpenBabel08281821413D

 23 23  0  0  1  0  0  0  0  0999 V2000
   -1.2372   -0.4690   -5.5175 C   0  0  0  0  0  0  0  0  0  0  0  0
   -0.2675    0.5778   -5.0599 C   0  0  2  0  0  0  0  0  0  0  0  0
   -0.9097    1.9069   -4.6308 C   0  0  0  0  0  0  0  0  0  0  0  0
   -2.3488    2.0436   -4.6914 C   0  0  0  0  0  0  0  0  0  0  0  0
   -3.1424    1.0256   -5.0994 C   0  0  0  0  0  0  0  0  0  0  0  0
   -2.5584   -0.2369   -5.5062 C   0  0  0  0  0  0  0  0  0  0  0  0
   -0.8375   -1.4061   -5.8832 H   0  0  0  0  0  0  0  0  0  0  0  0
    0.2713    0.2039   -4.1724 H   0  0  0  0  0  0  0  0  0  0  0  0
   -2.7601    3.0033   -4.3999 H   0  0  0  0  0  0  0  0  0  0  0  0
   -4.2201    1.1234   -5.1453 H   0  0  0  0  0  0  0  0  0  0  0  0
   -3.4746   -1.3047   -5.9638 N   0  0  0  0  0  0  0  0  0  0  0  0
   -4.6748   -1.0394   -5.9720 O   0  0  0  0  0  0  0  0  0  0  0  0
   -2.9809   -2.3770   -6.2988 O   0  0  0  0  0  0  0  0  0  0  0  0
   -0.2208    2.9183   -4.1969 N   0  0  0  0  0  0  0  0  0  0  0  0
    1.1377    2.6040   -3.9837 N   0  0  0  0  0  0  0  0  0  0  0  0
    2.2953    0.3781   -5.7915 S   0  0  2  0  0  0  0  0  0  0  0  0
    2.2744   -0.9565   -7.1285 C   0  0  0  0  0  0  0  0  0  0  0  0
    0.6701    0.7940   -6.1334 O   0  0  0  0  0  0  0  0  0  0  0  0
    3.1679    1.4390   -6.3268 O   0  0  0  0  0  0  0  0  0  0  0  0
    1.8612    3.5618   -4.0163 O   0  0  0  0  0  0  0  0  0  0  0  0
    1.4180   -1.9228   -6.7431 F   0  0  0  0  0  0  0  0  0  0  0  0
    1.9143   -0.4875   -8.3153 F   0  0  0  0  0  0  0  0  0  0  0  0
    3.5020   -1.4786   -7.2021 F   0  0  0  0  0  0  0  0  0  0  0  0
  1  6  2  0  0  0  0
  1  2  1  0  0  0  0
  2  3  1  0  0  0  0
  2  8  1  1  0  0  0
  3 14  1  0  0  0  0
  4  3  2  0  0  0  0
  4  9  1  0  0  0  0
  5  4  1  0  0  0  0
  6  5  1  0  0  0  0
  7  1  1  0  0  0  0
 10  5  1  0  0  0  0
 11  6  1  0  0  0  0
 12 11  2  0  0  0  0
 13 11  2  0  0  0  0
 14 15  1  0  0  0  0
 16 17  1  6  0  0  0
 17 21  1  0  0  0  0
 18 16  1  0  0  0  0
 18  2  1  0  0  0  0
 19 16  1  0  0  0  0
 20 15  1  0  0  0  0
 22 17  1  0  0  0  0
 23 17  1  0  0  0  0
M  RAD  5   5   2  14   2  15   2  19   2  20   2
M  END
