Coordinates from ORCA-job p-NO2-Ph-N2-OTf-B3LYPG-6-31G_dp-scan-d09-49-n400
 OpenBabel08281821413D

 23 23  0  0  1  0  0  0  0  0999 V2000
   -1.2291   -0.4798   -5.4127 C   0  0  0  0  0  0  0  0  0  0  0  0
   -0.2779    0.5973   -4.9826 C   0  0  2  0  0  0  0  0  0  0  0  0
   -0.9332    1.9634   -4.6598 C   0  0  0  0  0  0  0  0  0  0  0  0
   -2.3893    2.0659   -4.7872 C   0  0  0  0  0  0  0  0  0  0  0  0
   -3.1613    1.0262   -5.1634 C   0  0  0  0  0  0  0  0  0  0  0  0
   -2.5489   -0.2554   -5.4684 C   0  0  0  0  0  0  0  0  0  0  0  0
   -0.8196   -1.4403   -5.7000 H   0  0  0  0  0  0  0  0  0  0  0  0
    0.2476    0.2590   -4.0775 H   0  0  0  0  0  0  0  0  0  0  0  0
   -2.8154    3.0399   -4.5737 H   0  0  0  0  0  0  0  0  0  0  0  0
   -4.2361    1.1119   -5.2629 H   0  0  0  0  0  0  0  0  0  0  0  0
   -3.4371   -1.3602   -5.8921 N   0  0  0  0  0  0  0  0  0  0  0  0
   -4.6376   -1.1076   -5.9747 O   0  0  0  0  0  0  0  0  0  0  0  0
   -2.9258   -2.4512   -6.1295 O   0  0  0  0  0  0  0  0  0  0  0  0
   -0.2805    3.0034   -4.2924 N   0  0  0  0  0  0  0  0  0  0  0  0
    1.3196    2.6248   -4.0137 N   0  0  0  0  0  0  0  0  0  0  0  0
    2.2536    0.2081   -5.7150 S   0  0  2  0  0  0  0  0  0  0  0  0
    2.2253   -0.8935   -7.2468 C   0  0  0  0  0  0  0  0  0  0  0  0
    0.6910    0.7783   -6.0489 O   0  0  0  0  0  0  0  0  0  0  0  0
    3.2312    1.2733   -6.0253 O   0  0  0  0  0  0  0  0  0  0  0  0
    1.9211    3.4731   -3.9838 O   0  0  0  0  0  0  0  0  0  0  0  0
    1.2958   -1.8467   -7.0639 F   0  0  0  0  0  0  0  0  0  0  0  0
    1.9616   -0.2135   -8.3547 F   0  0  0  0  0  0  0  0  0  0  0  0
    3.4244   -1.4752   -7.3494 F   0  0  0  0  0  0  0  0  0  0  0  0
  1  2  1  0  0  0  0
  2  3  1  0  0  0  0
  2  8  1  1  0  0  0
  3 14  1  0  0  0  0
  4  3  2  0  0  0  0
  4  9  1  0  0  0  0
  5  4  1  0  0  0  0
  6  1  2  0  0  0  0
  6  5  1  0  0  0  0
  7  1  1  0  0  0  0
 10  5  1  0  0  0  0
 11  6  1  0  0  0  0
 12 11  2  0  0  0  0
 13 11  2  0  0  0  0
 14 15  1  0  0  0  0
 15 20  1  0  0  0  0
 16 17  1  6  0  0  0
 17 21  1  0  0  0  0
 18 16  1  0  0  0  0
 18  2  1  0  0  0  0
 19 16  1  0  0  0  0
 22 17  1  0  0  0  0
 23 17  1  0  0  0  0
M  RAD  5   5   2  14   2  15   2  19   2  20   2
M  END
