Coordinates from ORCA-job p-NO2-Ph-N2-OTf-B3LYPG-6-31G_dp-scan-d09-49-n400
 OpenBabel08281821413D

 23 22  0  0  0  0  0  0  0  0999 V2000
   -2.2264   -0.6974   -5.7156 C   0  0  0  0  0  0  0  0  0  0  0  0
   -0.9586   -0.1367   -5.5727 C   0  0  0  0  0  0  0  0  0  0  0  0
   -0.8841    1.0920   -4.9140 C   0  0  0  0  0  0  0  0  0  0  0  0
   -1.9945    1.7890   -4.4060 C   0  0  0  0  0  0  0  0  0  0  0  0
   -3.2474    1.2189   -4.5774 C   0  0  0  0  0  0  0  0  0  0  0  0
   -3.3353   -0.0141   -5.2246 C   0  0  0  0  0  0  0  0  0  0  0  0
   -2.3580   -1.6495   -6.2136 H   0  0  0  0  0  0  0  0  0  0  0  0
   -0.0654   -0.6234   -5.9695 H   0  0  0  0  0  0  0  0  0  0  0  0
   -1.8733    2.7436   -3.9077 H   0  0  0  0  0  0  0  0  0  0  0  0
   -4.1461    1.7055   -4.2215 H   0  0  0  0  0  0  0  0  0  0  0  0
   -4.6799   -0.6187   -5.3965 N   0  0  0  0  0  0  0  0  0  0  0  0
   -5.6347    0.0141   -4.9552 O   0  0  0  0  0  0  0  0  0  0  0  0
   -4.7364   -1.7036   -5.9633 O   0  0  0  0  0  0  0  0  0  0  0  0
    0.3651    1.7000   -4.6617 N   0  0  0  0  0  0  0  0  0  0  0  0
    1.1011    2.3384   -4.1130 N   0  0  0  0  0  0  0  0  0  0  0  0
    2.1920    0.2048   -7.1509 S   0  0  0  0  0  0  0  0  0  0  0  0
    3.6586    0.4427   -6.0350 C   0  0  0  0  0  0  0  0  0  0  0  0
    2.7039    0.3577   -8.5122 O   0  0  0  0  0  0  0  0  0  0  0  0
    1.2898    1.3393   -6.7081 O   0  0  0  0  0  0  0  0  0  0  0  0
    1.6604   -1.1212   -6.7549 O   0  0  0  0  0  0  0  0  0  0  0  0
    4.5218   -0.5680   -6.1484 F   0  0  0  0  0  0  0  0  0  0  0  0
    4.2898    1.5890   -6.3093 F   0  0  0  0  0  0  0  0  0  0  0  0
    3.2368    0.4988   -4.7469 F   0  0  0  0  0  0  0  0  0  0  0  0
  1  2  2  0  0  0  0
  1  6  1  0  0  0  0
  2  3  1  0  0  0  0
  3 14  1  0  0  0  0
  3  4  2  0  0  0  0
  4  9  1  0  0  0  0
  5  4  1  0  0  0  0
  5 10  1  0  0  0  0
  6  5  2  0  0  0  0
  7  1  1  0  0  0  0
  8  2  1  0  0  0  0
 11  6  1  0  0  0  0
 11 12  2  0  0  0  0
 13 11  2  0  0  0  0
 14 15  1  0  0  0  0
 16 20  2  0  0  0  0
 16 19  1  0  0  0  0
 16 17  1  0  0  0  0
 17 23  1  0  0  0  0
 18 16  2  0  0  0  0
 21 17  1  0  0  0  0
 22 17  1  0  0  0  0
M  RAD  3  14   2  15   3  19   2
M  END
