Coordinates from ORCA-job p-NO2-Ph-N2-OTf-B3LYPG-6-31G_dp-scan-d09-49-n400
 OpenBabel08281821413D

 23 22  0  0  0  0  0  0  0  0999 V2000
   -2.2208   -0.6917   -5.7194 C   0  0  0  0  0  0  0  0  0  0  0  0
   -0.9556   -0.1231   -5.5847 C   0  0  0  0  0  0  0  0  0  0  0  0
   -0.8842    1.1051   -4.9245 C   0  0  0  0  0  0  0  0  0  0  0  0
   -1.9958    1.7934   -4.4067 C   0  0  0  0  0  0  0  0  0  0  0  0
   -3.2460    1.2153   -4.5697 C   0  0  0  0  0  0  0  0  0  0  0  0
   -3.3305   -0.0169   -5.2189 C   0  0  0  0  0  0  0  0  0  0  0  0
   -2.3496   -1.6438   -6.2182 H   0  0  0  0  0  0  0  0  0  0  0  0
   -0.0632   -0.6048   -5.9893 H   0  0  0  0  0  0  0  0  0  0  0  0
   -1.8772    2.7478   -3.9074 H   0  0  0  0  0  0  0  0  0  0  0  0
   -4.1452    1.6953   -4.2060 H   0  0  0  0  0  0  0  0  0  0  0  0
   -4.6724   -0.6300   -5.3821 N   0  0  0  0  0  0  0  0  0  0  0  0
   -5.6279   -0.0049   -4.9316 O   0  0  0  0  0  0  0  0  0  0  0  0
   -4.7260   -1.7135   -5.9518 O   0  0  0  0  0  0  0  0  0  0  0  0
    0.3617    1.7230   -4.6808 N   0  0  0  0  0  0  0  0  0  0  0  0
    1.0944    2.3728   -4.1412 N   0  0  0  0  0  0  0  0  0  0  0  0
    2.1970    0.2087   -7.1630 S   0  0  0  0  0  0  0  0  0  0  0  0
    3.6459    0.4234   -6.0194 C   0  0  0  0  0  0  0  0  0  0  0  0
    2.7329    0.3744   -8.5134 O   0  0  0  0  0  0  0  0  0  0  0  0
    1.2958    1.3441   -6.7211 O   0  0  0  0  0  0  0  0  0  0  0  0
    1.6502   -1.1184   -6.7923 O   0  0  0  0  0  0  0  0  0  0  0  0
    4.5034   -0.5927   -6.1275 F   0  0  0  0  0  0  0  0  0  0  0  0
    4.2907    1.5675   -6.2709 F   0  0  0  0  0  0  0  0  0  0  0  0
    3.2018    0.4703   -4.7383 F   0  0  0  0  0  0  0  0  0  0  0  0
  1  2  2  0  0  0  0
  1  6  1  0  0  0  0
  2  3  1  0  0  0  0
  3 14  1  0  0  0  0
  3  4  2  0  0  0  0
  4  9  1  0  0  0  0
  5  4  1  0  0  0  0
  5 10  1  0  0  0  0
  6  5  2  0  0  0  0
  7  1  1  0  0  0  0
  8  2  1  0  0  0  0
 11  6  1  0  0  0  0
 11 12  2  0  0  0  0
 13 11  2  0  0  0  0
 14 15  1  0  0  0  0
 16 20  2  0  0  0  0
 16 19  1  0  0  0  0
 16 17  1  0  0  0  0
 17 23  1  0  0  0  0
 18 16  2  0  0  0  0
 21 17  1  0  0  0  0
 22 17  1  0  0  0  0
M  RAD  3  14   2  15   3  19   2
M  END
