Coordinates from ORCA-job p-NO2-Ph-N2-OTf-B3LYPG-6-31G_dp-scan-d09-49-n400
 OpenBabel08281821413D

 23 22  0  0  0  0  0  0  0  0999 V2000
   -2.1223   -0.6762   -5.6742 C   0  0  0  0  0  0  0  0  0  0  0  0
   -0.8851   -0.0419   -5.5746 C   0  0  0  0  0  0  0  0  0  0  0  0
   -0.8675    1.2093   -4.9545 C   0  0  0  0  0  0  0  0  0  0  0  0
   -2.0072    1.8568   -4.4414 C   0  0  0  0  0  0  0  0  0  0  0  0
   -3.2277    1.2113   -4.5669 C   0  0  0  0  0  0  0  0  0  0  0  0
   -3.2578   -0.0434   -5.1776 C   0  0  0  0  0  0  0  0  0  0  0  0
   -2.2079   -1.6469   -6.1456 H   0  0  0  0  0  0  0  0  0  0  0  0
    0.0168   -0.4961   -5.9886 H   0  0  0  0  0  0  0  0  0  0  0  0
   -1.9310    2.8316   -3.9743 H   0  0  0  0  0  0  0  0  0  0  0  0
   -4.1453    1.6562   -4.2045 H   0  0  0  0  0  0  0  0  0  0  0  0
   -4.5693   -0.7276   -5.3031 N   0  0  0  0  0  0  0  0  0  0  0  0
   -5.5495   -0.1353   -4.8615 O   0  0  0  0  0  0  0  0  0  0  0  0
   -4.5748   -1.8311   -5.8355 O   0  0  0  0  0  0  0  0  0  0  0  0
    0.3418    1.9030   -4.7551 N   0  0  0  0  0  0  0  0  0  0  0  0
    1.0619    2.6196   -4.2906 N   0  0  0  0  0  0  0  0  0  0  0  0
    2.1896    0.2942   -7.2755 S   0  0  0  0  0  0  0  0  0  0  0  0
    3.4831    0.2377   -5.9422 C   0  0  0  0  0  0  0  0  0  0  0  0
    2.9113    0.5707   -8.5164 O   0  0  0  0  0  0  0  0  0  0  0  0
    1.3311    1.4422   -6.7915 O   0  0  0  0  0  0  0  0  0  0  0  0
    1.5080   -1.0180   -7.1516 O   0  0  0  0  0  0  0  0  0  0  0  0
    4.2749   -0.8277   -6.0687 F   0  0  0  0  0  0  0  0  0  0  0  0
    4.2362    1.3435   -5.9531 F   0  0  0  0  0  0  0  0  0  0  0  0
    2.8702    0.1692   -4.7311 F   0  0  0  0  0  0  0  0  0  0  0  0
  1  2  2  0  0  0  0
  1  6  1  0  0  0  0
  2  3  1  0  0  0  0
  3 14  1  0  0  0  0
  3  4  2  0  0  0  0
  4  9  1  0  0  0  0
  5  4  1  0  0  0  0
  5 10  1  0  0  0  0
  6  5  2  0  0  0  0
  7  1  1  0  0  0  0
  8  2  1  0  0  0  0
 11  6  1  0  0  0  0
 11 12  2  0  0  0  0
 13 11  2  0  0  0  0
 14 15  1  0  0  0  0
 16 20  2  0  0  0  0
 16 19  1  0  0  0  0
 16 17  1  0  0  0  0
 17 23  1  0  0  0  0
 18 16  2  0  0  0  0
 21 17  1  0  0  0  0
 22 17  1  0  0  0  0
M  RAD  3  14   2  15   3  19   2
M  END
