Coordinates from ORCA-job p-NO2-Ph-N2-OTf-B3LYPG-6-31G_dp-scan-d09-49-n400
 OpenBabel08281821413D

 23 22  0  0  0  0  0  0  0  0999 V2000
   -2.3387   -0.8228   -5.6586 C   0  0  0  0  0  0  0  0  0  0  0  0
   -1.0532   -0.5520   -5.2111 C   0  0  0  0  0  0  0  0  0  0  0  0
   -0.8598    0.6531   -4.5173 C   0  0  0  0  0  0  0  0  0  0  0  0
   -1.8665    1.5928   -4.2644 C   0  0  0  0  0  0  0  0  0  0  0  0
   -3.1417    1.3069   -4.7350 C   0  0  0  0  0  0  0  0  0  0  0  0
   -3.3499    0.1071   -5.4138 C   0  0  0  0  0  0  0  0  0  0  0  0
   -2.5636   -1.7298   -6.2053 H   0  0  0  0  0  0  0  0  0  0  0  0
   -0.2049   -1.2044   -5.3934 H   0  0  0  0  0  0  0  0  0  0  0  0
   -1.6515    2.5109   -3.7306 H   0  0  0  0  0  0  0  0  0  0  0  0
   -3.9695    1.9876   -4.5839 H   0  0  0  0  0  0  0  0  0  0  0  0
   -4.7193   -0.1934   -5.8991 N   0  0  0  0  0  0  0  0  0  0  0  0
   -5.5842    0.6503   -5.6841 O   0  0  0  0  0  0  0  0  0  0  0  0
   -4.8851   -1.2637   -6.4730 O   0  0  0  0  0  0  0  0  0  0  0  0
    0.4127    0.8968   -4.0182 N   0  0  0  0  0  0  0  0  0  0  0  0
    1.4501    0.9370   -3.6146 N   0  0  0  0  0  0  0  0  0  0  0  0
    2.0828    0.1138   -6.6990 S   0  0  0  0  0  0  0  0  0  0  0  0
    3.6587    1.0838   -6.5469 C   0  0  0  0  0  0  0  0  0  0  0  0
    2.1578   -0.5686   -7.9931 O   0  0  0  0  0  0  0  0  0  0  0  0
    1.0261    1.1601   -6.5607 O   0  0  0  0  0  0  0  0  0  0  0  0
    2.1230   -0.7717   -5.4893 O   0  0  0  0  0  0  0  0  0  0  0  0
    4.7229    0.2747   -6.5503 F   0  0  0  0  0  0  0  0  0  0  0  0
    3.7779    1.9588   -7.5514 F   0  0  0  0  0  0  0  0  0  0  0  0
    3.6553    1.7736   -5.3852 F   0  0  0  0  0  0  0  0  0  0  0  0
  1  6  2  0  0  0  0
  1  2  1  0  0  0  0
  2  3  2  0  0  0  0
  3  4  1  0  0  0  0
  3 14  1  0  0  0  0
  4  9  1  0  0  0  0
  5 10  1  0  0  0  0
  5  4  2  0  0  0  0
  6  5  1  0  0  0  0
  7  1  1  0  0  0  0
  8  2  1  0  0  0  0
 11 12  2  0  0  0  0
 11  6  1  0  0  0  0
 13 11  2  0  0  0  0
 14 15  1  0  0  0  0
 16 19  2  0  0  0  0
 16 17  1  0  0  0  0
 16 20  1  0  0  0  0
 17 23  1  0  0  0  0
 18 16  2  0  0  0  0
 21 17  1  0  0  0  0
 22 17  1  0  0  0  0
M  RAD  3  14   2  15   3  20   2
M  END
