Coordinates from ORCA-job p-NO2-Ph-N2-OTf-B3LYPG-6-31G_dp-scan-d09-49-n400
 OpenBabel08281821413D

 23 22  0  0  0  0  0  0  0  0999 V2000
   -2.3223   -0.8279   -5.6482 C   0  0  0  0  0  0  0  0  0  0  0  0
   -1.0387   -0.5533   -5.1973 C   0  0  0  0  0  0  0  0  0  0  0  0
   -0.8495    0.6586   -4.5142 C   0  0  0  0  0  0  0  0  0  0  0  0
   -1.8584    1.5993   -4.2716 C   0  0  0  0  0  0  0  0  0  0  0  0
   -3.1313    1.3082   -4.7446 C   0  0  0  0  0  0  0  0  0  0  0  0
   -3.3355    0.1027   -5.4148 C   0  0  0  0  0  0  0  0  0  0  0  0
   -2.5439   -1.7391   -6.1892 H   0  0  0  0  0  0  0  0  0  0  0  0
   -0.1867   -1.2031   -5.3741 H   0  0  0  0  0  0  0  0  0  0  0  0
   -1.6466    2.5220   -3.7445 H   0  0  0  0  0  0  0  0  0  0  0  0
   -3.9604    1.9892   -4.6022 H   0  0  0  0  0  0  0  0  0  0  0  0
   -4.7026   -0.2029   -5.9030 N   0  0  0  0  0  0  0  0  0  0  0  0
   -5.5692    0.6416   -5.6981 O   0  0  0  0  0  0  0  0  0  0  0  0
   -4.8652   -1.2780   -6.4688 O   0  0  0  0  0  0  0  0  0  0  0  0
    0.4190    0.9112   -4.0088 N   0  0  0  0  0  0  0  0  0  0  0  0
    1.4502    0.9805   -3.5959 N   0  0  0  0  0  0  0  0  0  0  0  0
    2.0525    0.1233   -6.7182 S   0  0  0  0  0  0  0  0  0  0  0  0
    3.6421    1.0656   -6.5358 C   0  0  0  0  0  0  0  0  0  0  0  0
    2.1192   -0.5161   -8.0347 O   0  0  0  0  0  0  0  0  0  0  0  0
    1.0119    1.1827   -6.5497 O   0  0  0  0  0  0  0  0  0  0  0  0
    2.0770   -0.7966   -5.5359 O   0  0  0  0  0  0  0  0  0  0  0  0
    4.6945    0.2415   -6.5500 F   0  0  0  0  0  0  0  0  0  0  0  0
    3.7812    1.9610   -7.5196 F   0  0  0  0  0  0  0  0  0  0  0  0
    3.6421    1.7308   -5.3590 F   0  0  0  0  0  0  0  0  0  0  0  0
  1  6  2  0  0  0  0
  1  2  1  0  0  0  0
  2  3  2  0  0  0  0
  3  4  1  0  0  0  0
  3 14  1  0  0  0  0
  4  9  1  0  0  0  0
  5 10  1  0  0  0  0
  5  4  2  0  0  0  0
  6  5  1  0  0  0  0
  7  1  1  0  0  0  0
  8  2  1  0  0  0  0
 11 12  2  0  0  0  0
 11  6  1  0  0  0  0
 13 11  2  0  0  0  0
 14 15  1  0  0  0  0
 16 19  2  0  0  0  0
 16 17  1  0  0  0  0
 16 20  1  0  0  0  0
 17 23  1  0  0  0  0
 18 16  2  0  0  0  0
 21 17  1  0  0  0  0
 22 17  1  0  0  0  0
M  RAD  3  14   2  15   3  20   2
M  END
