Coordinates from ORCA-job p-NO2-Ph-N2-OTf-B3LYPG-6-31G_dp-scan-d09-49-n400
 OpenBabel08281821413D

 23 22  0  0  0  0  0  0  0  0999 V2000
   -2.4860   -0.6696   -5.8095 C   0  0  0  0  0  0  0  0  0  0  0  0
   -1.2110   -0.1977   -5.5155 C   0  0  0  0  0  0  0  0  0  0  0  0
   -1.1042    0.9052   -4.6516 C   0  0  0  0  0  0  0  0  0  0  0  0
   -2.2190    1.5341   -4.0810 C   0  0  0  0  0  0  0  0  0  0  0  0
   -3.4868    1.0545   -4.3839 C   0  0  0  0  0  0  0  0  0  0  0  0
   -3.5917   -0.0386   -5.2421 C   0  0  0  0  0  0  0  0  0  0  0  0
   -2.6332   -1.5156   -6.4694 H   0  0  0  0  0  0  0  0  0  0  0  0
   -0.3169   -0.6467   -5.9290 H   0  0  0  0  0  0  0  0  0  0  0  0
   -2.0803    2.3828   -3.4209 H   0  0  0  0  0  0  0  0  0  0  0  0
   -4.3821    1.5032   -3.9742 H   0  0  0  0  0  0  0  0  0  0  0  0
   -4.9443   -0.5541   -5.5637 N   0  0  0  0  0  0  0  0  0  0  0  0
   -5.8987    0.0246   -5.0526 O   0  0  0  0  0  0  0  0  0  0  0  0
   -5.0112   -1.5209   -6.3151 O   0  0  0  0  0  0  0  0  0  0  0  0
    0.1488    1.4435   -4.3112 N   0  0  0  0  0  0  0  0  0  0  0  0
    1.2873    1.4131   -4.4803 N   0  0  0  0  0  0  0  0  0  0  0  0
    2.4490    0.6034   -6.9542 S   0  0  0  0  0  0  0  0  0  0  0  0
    4.2178    0.6214   -6.3823 C   0  0  0  0  0  0  0  0  0  0  0  0
    2.3799   -0.3492   -8.0590 O   0  0  0  0  0  0  0  0  0  0  0  0
    2.0769    2.0055   -7.1573 O   0  0  0  0  0  0  0  0  0  0  0  0
    1.7368    0.0099   -5.6996 O   0  0  0  0  0  0  0  0  0  0  0  0
    4.6251   -0.6167   -6.0937 F   0  0  0  0  0  0  0  0  0  0  0  0
    4.9927    1.1254   -7.3456 F   0  0  0  0  0  0  0  0  0  0  0  0
    4.3302    1.3835   -5.2866 F   0  0  0  0  0  0  0  0  0  0  0  0
  1  2  2  0  0  0  0
  1  6  1  0  0  0  0
  2  3  1  0  0  0  0
  3 14  1  0  0  0  0
  3  4  2  0  0  0  0
  4  9  1  0  0  0  0
  5  4  1  0  0  0  0
  5 10  1  0  0  0  0
  6  5  2  0  0  0  0
  7  1  1  0  0  0  0
  8  2  1  0  0  0  0
 11  6  1  0  0  0  0
 11 12  2  0  0  0  0
 13 11  2  0  0  0  0
 15 14  2  0  0  0  0
 16 17  1  0  0  0  0
 16 20  1  0  0  0  0
 17 21  1  0  0  0  0
 17 23  1  0  0  0  0
 18 16  2  0  0  0  0
 19 16  2  0  0  0  0
 22 17  1  0  0  0  0
M  RAD  2  15   2  20   2
M  END
