Coordinates from ORCA-job p-NO2-Ph-N2-OTf-B3LYPG-6-31G_dp-scan-d09-49-n400
 OpenBabel08281821413D

 23 23  0  0  1  0  0  0  0  0999 V2000
   -1.2353   -0.4868   -5.5534 C   0  0  0  0  0  0  0  0  0  0  0  0
   -0.2472    0.5424   -5.0939 C   0  0  2  0  0  0  0  0  0  0  0  0
   -0.8916    1.8117   -4.5292 C   0  0  0  0  0  0  0  0  0  0  0  0
   -2.3151    2.0302   -4.6633 C   0  0  0  0  0  0  0  0  0  0  0  0
   -3.1159    1.0557   -5.1499 C   0  0  0  0  0  0  0  0  0  0  0  0
   -2.5484   -0.2135   -5.5682 C   0  0  0  0  0  0  0  0  0  0  0  0
   -0.8553   -1.4307   -5.9214 H   0  0  0  0  0  0  0  0  0  0  0  0
    0.3915    0.1261   -4.2960 H   0  0  0  0  0  0  0  0  0  0  0  0
   -2.7101    2.9872   -4.3421 H   0  0  0  0  0  0  0  0  0  0  0  0
   -4.1866    1.1868   -5.2429 H   0  0  0  0  0  0  0  0  0  0  0  0
   -3.4826   -1.2509   -6.0630 N   0  0  0  0  0  0  0  0  0  0  0  0
   -4.6750   -0.9544   -6.0911 O   0  0  0  0  0  0  0  0  0  0  0  0
   -3.0097   -2.3298   -6.4054 O   0  0  0  0  0  0  0  0  0  0  0  0
   -0.1577    2.6976   -3.9455 N   0  0  0  0  0  0  0  0  0  0  0  0
    1.0502    2.5401   -3.5048 N   0  0  0  0  0  0  0  0  0  0  0  0
    2.2623    0.7425   -6.0791 S   0  0  2  0  0  0  0  0  0  0  0  0
    2.2861   -0.9401   -6.9409 C   0  0  0  0  0  0  0  0  0  0  0  0
    0.5590    0.8753   -6.2471 O   0  0  0  0  0  0  0  0  0  0  0  0
    2.8518    1.6732   -7.0556 O   0  0  0  0  0  0  0  0  0  0  0  0
    2.0098    3.3022   -4.1420 O   0  0  0  0  0  0  0  0  0  0  0  0
    1.5904   -1.8091   -6.1753 F   0  0  0  0  0  0  0  0  0  0  0  0
    1.7560   -0.8984   -8.1554 F   0  0  0  0  0  0  0  0  0  0  0  0
    3.5528   -1.3562   -7.0127 F   0  0  0  0  0  0  0  0  0  0  0  0
  1  2  1  0  0  0  0
  2  3  1  0  0  0  0
  2  8  1  1  0  0  0
  3 14  1  0  0  0  0
  4  3  2  0  0  0  0
  4  9  1  0  0  0  0
  5  4  1  0  0  0  0
  6  1  2  0  0  0  0
  6  5  1  0  0  0  0
  7  1  1  0  0  0  0
 10  5  1  0  0  0  0
 11  6  1  0  0  0  0
 12 11  2  0  0  0  0
 13 11  2  0  0  0  0
 14 15  1  0  0  0  0
 16 19  1  6  0  0  0
 17 21  1  0  0  0  0
 17 16  1  0  0  0  0
 18 16  1  0  0  0  0
 18  2  1  0  0  0  0
 20 15  1  0  0  0  0
 22 17  1  0  0  0  0
 23 17  1  0  0  0  0
M  RAD  5   5   2  14   2  15   2  19   2  20   2
M  END
