Coordinates from ORCA-job p-NO2-Ph-N2-OTf-B3LYPG-6-31G_dp-scan-d09-49-n400
 OpenBabel08281821413D

 23 22  0  0  0  0  0  0  0  0999 V2000
   -2.2891   -0.7724   -5.6740 C   0  0  0  0  0  0  0  0  0  0  0  0
   -0.9960   -0.3240   -5.4223 C   0  0  0  0  0  0  0  0  0  0  0  0
   -0.8695    0.9101   -4.7804 C   0  0  0  0  0  0  0  0  0  0  0  0
   -1.9479    1.7211   -4.3969 C   0  0  0  0  0  0  0  0  0  0  0  0
   -3.2281    1.2612   -4.6760 C   0  0  0  0  0  0  0  0  0  0  0  0
   -3.3708    0.0239   -5.3025 C   0  0  0  0  0  0  0  0  0  0  0  0
   -2.4645   -1.7211   -6.1648 H   0  0  0  0  0  0  0  0  0  0  0  0
   -0.1070   -0.8820   -5.7176 H   0  0  0  0  0  0  0  0  0  0  0  0
   -1.7846    2.6751   -3.9095 H   0  0  0  0  0  0  0  0  0  0  0  0
   -4.1068    1.8374   -4.4167 H   0  0  0  0  0  0  0  0  0  0  0  0
   -4.7433   -0.4619   -5.5866 N   0  0  0  0  0  0  0  0  0  0  0  0
   -5.6727    0.2677   -5.2540 O   0  0  0  0  0  0  0  0  0  0  0  0
   -4.8476   -1.5561   -6.1289 O   0  0  0  0  0  0  0  0  0  0  0  0
    0.4100    1.3876   -4.4229 N   0  0  0  0  0  0  0  0  0  0  0  0
    1.1948    1.8562   -3.7796 N   0  0  0  0  0  0  0  0  0  0  0  0
    2.1283    0.1681   -6.9738 S   0  0  0  0  0  0  0  0  0  0  0  0
    3.7485    0.7005   -6.2384 C   0  0  0  0  0  0  0  0  0  0  0  0
    2.3540    0.0937   -8.4172 O   0  0  0  0  0  0  0  0  0  0  0  0
    1.2069    1.2955   -6.5542 O   0  0  0  0  0  0  0  0  0  0  0  0
    1.8175   -1.0907   -6.2531 O   0  0  0  0  0  0  0  0  0  0  0  0
    4.6804   -0.2405   -6.4061 F   0  0  0  0  0  0  0  0  0  0  0  0
    4.1740    1.8399   -6.7921 F   0  0  0  0  0  0  0  0  0  0  0  0
    3.5928    0.9119   -4.9106 F   0  0  0  0  0  0  0  0  0  0  0  0
  1  2  2  0  0  0  0
  1  6  1  0  0  0  0
  2  3  1  0  0  0  0
  3 14  1  0  0  0  0
  3  4  2  0  0  0  0
  4  9  1  0  0  0  0
  5 10  1  0  0  0  0
  5  4  1  0  0  0  0
  6  5  2  0  0  0  0
  7  1  1  0  0  0  0
  8  2  1  0  0  0  0
 11  6  1  0  0  0  0
 11 12  2  0  0  0  0
 13 11  2  0  0  0  0
 14 15  1  0  0  0  0
 16 19  2  0  0  0  0
 16 20  1  0  0  0  0
 16 17  1  0  0  0  0
 17 23  1  0  0  0  0
 18 16  2  0  0  0  0
 21 17  1  0  0  0  0
 22 17  1  0  0  0  0
M  RAD  3  14   2  15   3  20   2
M  END
