Coordinates from ORCA-job p-NO2-Ph-N2-OTf-B3LYPG-6-31G_dp-scan-d09-49-n400
 OpenBabel08281821413D

 23 22  0  0  0  0  0  0  0  0999 V2000
   -2.3173   -0.8351   -5.6420 C   0  0  0  0  0  0  0  0  0  0  0  0
   -1.0344   -0.5578   -5.1905 C   0  0  0  0  0  0  0  0  0  0  0  0
   -0.8468    0.6586   -4.5152 C   0  0  0  0  0  0  0  0  0  0  0  0
   -1.8571    1.6000   -4.2790 C   0  0  0  0  0  0  0  0  0  0  0  0
   -3.1290    1.3052   -4.7517 C   0  0  0  0  0  0  0  0  0  0  0  0
   -3.3315    0.0958   -5.4153 C   0  0  0  0  0  0  0  0  0  0  0  0
   -2.5375   -1.7495   -6.1783 H   0  0  0  0  0  0  0  0  0  0  0  0
   -0.1802   -1.2059   -5.3645 H   0  0  0  0  0  0  0  0  0  0  0  0
   -1.6465    2.5260   -3.7573 H   0  0  0  0  0  0  0  0  0  0  0  0
   -3.9586    1.9866   -4.6143 H   0  0  0  0  0  0  0  0  0  0  0  0
   -4.6978   -0.2135   -5.9036 N   0  0  0  0  0  0  0  0  0  0  0  0
   -5.5651    0.6316   -5.7046 O   0  0  0  0  0  0  0  0  0  0  0  0
   -4.8588   -1.2915   -6.4642 O   0  0  0  0  0  0  0  0  0  0  0  0
    0.4195    0.9197   -4.0080 N   0  0  0  0  0  0  0  0  0  0  0  0
    1.4460    1.0132   -3.5897 N   0  0  0  0  0  0  0  0  0  0  0  0
    2.0344    0.1479   -6.7211 S   0  0  0  0  0  0  0  0  0  0  0  0
    3.6467    1.0494   -6.5330 C   0  0  0  0  0  0  0  0  0  0  0  0
    2.0819   -0.4789   -8.0445 O   0  0  0  0  0  0  0  0  0  0  0  0
    1.0197    1.2304   -6.5382 O   0  0  0  0  0  0  0  0  0  0  0  0
    2.0418   -0.7844   -5.5486 O   0  0  0  0  0  0  0  0  0  0  0  0
    4.6796    0.2018   -6.5743 F   0  0  0  0  0  0  0  0  0  0  0  0
    3.7985    1.9627   -7.4984 F   0  0  0  0  0  0  0  0  0  0  0  0
    3.6718    1.6887   -5.3421 F   0  0  0  0  0  0  0  0  0  0  0  0
  1  6  2  0  0  0  0
  1  2  1  0  0  0  0
  2  3  2  0  0  0  0
  3  4  1  0  0  0  0
  3 14  1  0  0  0  0
  4  9  1  0  0  0  0
  5 10  1  0  0  0  0
  5  4  2  0  0  0  0
  6  5  1  0  0  0  0
  7  1  1  0  0  0  0
  8  2  1  0  0  0  0
 11 12  2  0  0  0  0
 11  6  1  0  0  0  0
 13 11  2  0  0  0  0
 14 15  1  0  0  0  0
 16 19  2  0  0  0  0
 16 17  1  0  0  0  0
 16 20  1  0  0  0  0
 17 23  1  0  0  0  0
 18 16  2  0  0  0  0
 21 17  1  0  0  0  0
 22 17  1  0  0  0  0
M  RAD  3  14   2  15   3  20   2
M  END
