Coordinates from ORCA-job p-NO2-Ph-N2-OTf-B3LYPG-6-31G_dp-scan-d09-49-n400
 OpenBabel08281821413D

 23 22  0  0  0  0  0  0  0  0999 V2000
   -2.3383   -0.8674   -5.6340 C   0  0  0  0  0  0  0  0  0  0  0  0
   -1.0400   -0.5780   -5.2356 C   0  0  0  0  0  0  0  0  0  0  0  0
   -0.8284    0.6543   -4.6033 C   0  0  0  0  0  0  0  0  0  0  0  0
   -1.8283    1.6061   -4.3646 C   0  0  0  0  0  0  0  0  0  0  0  0
   -3.1166    1.2986   -4.7826 C   0  0  0  0  0  0  0  0  0  0  0  0
   -3.3445    0.0702   -5.4009 C   0  0  0  0  0  0  0  0  0  0  0  0
   -2.5771   -1.7979   -6.1331 H   0  0  0  0  0  0  0  0  0  0  0  0
   -0.1917   -1.2307   -5.4203 H   0  0  0  0  0  0  0  0  0  0  0  0
   -1.5993    2.5484   -3.8815 H   0  0  0  0  0  0  0  0  0  0  0  0
   -3.9393    1.9867   -4.6370 H   0  0  0  0  0  0  0  0  0  0  0  0
   -4.7263   -0.2507   -5.8325 N   0  0  0  0  0  0  0  0  0  0  0  0
   -5.5867    0.5997   -5.6254 O   0  0  0  0  0  0  0  0  0  0  0  0
   -4.9070   -1.3427   -6.3593 O   0  0  0  0  0  0  0  0  0  0  0  0
    0.4498    0.9416   -4.1210 N   0  0  0  0  0  0  0  0  0  0  0  0
    1.3883    1.1213   -3.5523 N   0  0  0  0  0  0  0  0  0  0  0  0
    2.0269    0.2102   -6.7290 S   0  0  0  0  0  0  0  0  0  0  0  0
    3.6799    1.0177   -6.4777 C   0  0  0  0  0  0  0  0  0  0  0  0
    2.0454   -0.3238   -8.0924 O   0  0  0  0  0  0  0  0  0  0  0  0
    1.0668    1.3388   -6.4837 O   0  0  0  0  0  0  0  0  0  0  0  0
    1.9690   -0.7815   -5.6138 O   0  0  0  0  0  0  0  0  0  0  0  0
    4.6689    0.1241   -6.5760 F   0  0  0  0  0  0  0  0  0  0  0  0
    3.8800    1.9864   -7.3772 F   0  0  0  0  0  0  0  0  0  0  0  0
    3.7277    1.5697   -5.2453 F   0  0  0  0  0  0  0  0  0  0  0  0
  1  6  2  0  0  0  0
  1  2  1  0  0  0  0
  2  3  2  0  0  0  0
  3  4  1  0  0  0  0
  3 14  1  0  0  0  0
  4  9  1  0  0  0  0
  5 10  1  0  0  0  0
  5  4  2  0  0  0  0
  6  5  1  0  0  0  0
  7  1  1  0  0  0  0
  8  2  1  0  0  0  0
 11 12  2  0  0  0  0
 11  6  1  0  0  0  0
 13 11  2  0  0  0  0
 14 15  1  0  0  0  0
 16 19  2  0  0  0  0
 16 17  1  0  0  0  0
 16 20  1  0  0  0  0
 17 23  1  0  0  0  0
 18 16  2  0  0  0  0
 21 17  1  0  0  0  0
 22 17  1  0  0  0  0
M  RAD  3  14   2  15   3  20   2
M  END
