Coordinates from ORCA-job p-NO2-Ph-N2-OTf-B3LYPG-6-31G_dp-scan-d09-49-n400
 OpenBabel08281821413D

 23 22  0  0  0  0  0  0  0  0999 V2000
   -2.2220   -0.6932   -5.7183 C   0  0  0  0  0  0  0  0  0  0  0  0
   -0.9561   -0.1267   -5.5810 C   0  0  0  0  0  0  0  0  0  0  0  0
   -0.8842    1.1016   -4.9212 C   0  0  0  0  0  0  0  0  0  0  0  0
   -1.9956    1.7922   -4.4063 C   0  0  0  0  0  0  0  0  0  0  0  0
   -3.2465    1.2163   -4.5718 C   0  0  0  0  0  0  0  0  0  0  0  0
   -3.3317   -0.0162   -5.2205 C   0  0  0  0  0  0  0  0  0  0  0  0
   -2.3515   -1.6452   -6.2170 H   0  0  0  0  0  0  0  0  0  0  0  0
   -0.0632   -0.6093   -5.9836 H   0  0  0  0  0  0  0  0  0  0  0  0
   -1.8765    2.7467   -3.9072 H   0  0  0  0  0  0  0  0  0  0  0  0
   -4.1457    1.6979   -4.2105 H   0  0  0  0  0  0  0  0  0  0  0  0
   -4.6742   -0.6271   -5.3863 N   0  0  0  0  0  0  0  0  0  0  0  0
   -5.6297   -0.0000   -4.9384 O   0  0  0  0  0  0  0  0  0  0  0  0
   -4.7284   -1.7109   -5.9553 O   0  0  0  0  0  0  0  0  0  0  0  0
    0.3624    1.7167   -4.6747 N   0  0  0  0  0  0  0  0  0  0  0  0
    1.0972    2.3626   -4.1334 N   0  0  0  0  0  0  0  0  0  0  0  0
    2.1953    0.2080   -7.1599 S   0  0  0  0  0  0  0  0  0  0  0  0
    3.6491    0.4286   -6.0239 C   0  0  0  0  0  0  0  0  0  0  0  0
    2.7250    0.3687   -8.5133 O   0  0  0  0  0  0  0  0  0  0  0  0
    1.2944    1.3438   -6.7185 O   0  0  0  0  0  0  0  0  0  0  0  0
    1.6517   -1.1185   -6.7814 O   0  0  0  0  0  0  0  0  0  0  0  0
    4.5076   -0.5864   -6.1330 F   0  0  0  0  0  0  0  0  0  0  0  0
    4.2907    1.5730   -6.2819 F   0  0  0  0  0  0  0  0  0  0  0  0
    3.2112    0.4787   -4.7408 F   0  0  0  0  0  0  0  0  0  0  0  0
  1  2  2  0  0  0  0
  1  6  1  0  0  0  0
  2  3  1  0  0  0  0
  3 14  1  0  0  0  0
  3  4  2  0  0  0  0
  4  9  1  0  0  0  0
  5  4  1  0  0  0  0
  5 10  1  0  0  0  0
  6  5  2  0  0  0  0
  7  1  1  0  0  0  0
  8  2  1  0  0  0  0
 11  6  1  0  0  0  0
 11 12  2  0  0  0  0
 13 11  2  0  0  0  0
 14 15  1  0  0  0  0
 16 20  2  0  0  0  0
 16 19  1  0  0  0  0
 16 17  1  0  0  0  0
 17 23  1  0  0  0  0
 18 16  2  0  0  0  0
 21 17  1  0  0  0  0
 22 17  1  0  0  0  0
M  RAD  3  14   2  15   3  19   2
M  END
