Coordinates from ORCA-job p-NO2-Ph-N2-OTf-B3LYPG-6-31G_dp-scan-d09-49-n400
 OpenBabel08281821413D

 23 22  0  0  0  0  0  0  0  0999 V2000
   -2.2629   -0.7369   -5.6919 C   0  0  0  0  0  0  0  0  0  0  0  0
   -0.9799   -0.2345   -5.4907 C   0  0  0  0  0  0  0  0  0  0  0  0
   -0.8799    0.9976   -4.8408 C   0  0  0  0  0  0  0  0  0  0  0  0
   -1.9769    1.7552   -4.4000 C   0  0  0  0  0  0  0  0  0  0  0  0
   -3.2461    1.2426   -4.6300 C   0  0  0  0  0  0  0  0  0  0  0  0
   -3.3609    0.0065   -5.2657 C   0  0  0  0  0  0  0  0  0  0  0  0
   -2.4165   -1.6880   -6.1856 H   0  0  0  0  0  0  0  0  0  0  0  0
   -0.0847   -0.7572   -5.8324 H   0  0  0  0  0  0  0  0  0  0  0  0
   -1.8349    2.7100   -3.9075 H   0  0  0  0  0  0  0  0  0  0  0  0
   -4.1373    1.7765   -4.3269 H   0  0  0  0  0  0  0  0  0  0  0  0
   -4.7225   -0.5358   -5.4983 N   0  0  0  0  0  0  0  0  0  0  0  0
   -5.6672    0.1496   -5.1182 O   0  0  0  0  0  0  0  0  0  0  0  0
   -4.8024   -1.6273   -6.0497 O   0  0  0  0  0  0  0  0  0  0  0  0
    0.3886    1.5352   -4.5315 N   0  0  0  0  0  0  0  0  0  0  0  0
    1.1512    2.0869   -3.9280 N   0  0  0  0  0  0  0  0  0  0  0  0
    2.1586    0.1789   -7.0598 S   0  0  0  0  0  0  0  0  0  0  0  0
    3.7247    0.5809   -6.1445 C   0  0  0  0  0  0  0  0  0  0  0  0
    2.5110    0.2221   -8.4787 O   0  0  0  0  0  0  0  0  0  0  0  0
    1.2461    1.3077   -6.6228 O   0  0  0  0  0  0  0  0  0  0  0  0
    1.7422   -1.1238   -6.4870 O   0  0  0  0  0  0  0  0  0  0  0  0
    4.6294   -0.3886   -6.2937 F   0  0  0  0  0  0  0  0  0  0  0  0
    4.2458    1.7350   -6.5719 F   0  0  0  0  0  0  0  0  0  0  0  0
    3.4537    0.7088   -4.8229 F   0  0  0  0  0  0  0  0  0  0  0  0
  1  2  2  0  0  0  0
  1  6  1  0  0  0  0
  2  3  1  0  0  0  0
  3 14  1  0  0  0  0
  3  4  2  0  0  0  0
  4  9  1  0  0  0  0
  5  4  1  0  0  0  0
  5 10  1  0  0  0  0
  6  5  2  0  0  0  0
  7  1  1  0  0  0  0
  8  2  1  0  0  0  0
 11  6  1  0  0  0  0
 11 12  2  0  0  0  0
 13 11  2  0  0  0  0
 14 15  1  0  0  0  0
 16 19  2  0  0  0  0
 16 20  1  0  0  0  0
 16 17  1  0  0  0  0
 17 23  1  0  0  0  0
 18 16  2  0  0  0  0
 21 17  1  0  0  0  0
 22 17  1  0  0  0  0
M  RAD  3  14   2  15   3  20   2
M  END
