Coordinates from ORCA-job p-NO2-Ph-N2-OTf-B3LYPG-6-31G_dp-scan-d09-49-n400
 OpenBabel08281821413D

 23 23  0  0  1  0  0  0  0  0999 V2000
   -1.2299   -0.4647   -5.5694 C   0  0  0  0  0  0  0  0  0  0  0  0
   -0.2550    0.5705   -5.1004 C   0  0  2  0  0  0  0  0  0  0  0  0
   -0.9035    1.8504   -4.5671 C   0  0  0  0  0  0  0  0  0  0  0  0
   -2.3328    2.0302   -4.6555 C   0  0  0  0  0  0  0  0  0  0  0  0
   -3.1291    1.0367   -5.1161 C   0  0  0  0  0  0  0  0  0  0  0  0
   -2.5490   -0.2173   -5.5552 C   0  0  0  0  0  0  0  0  0  0  0  0
   -0.8396   -1.3957   -5.9586 H   0  0  0  0  0  0  0  0  0  0  0  0
    0.3499    0.1712   -4.2653 H   0  0  0  0  0  0  0  0  0  0  0  0
   -2.7382    2.9805   -4.3272 H   0  0  0  0  0  0  0  0  0  0  0  0
   -4.2049    1.1453   -5.1745 H   0  0  0  0  0  0  0  0  0  0  0  0
   -3.4729   -1.2660   -6.0449 N   0  0  0  0  0  0  0  0  0  0  0  0
   -4.6707   -0.9909   -6.0496 O   0  0  0  0  0  0  0  0  0  0  0  0
   -2.9866   -2.3326   -6.4065 O   0  0  0  0  0  0  0  0  0  0  0  0
   -0.1769    2.7815   -4.0337 N   0  0  0  0  0  0  0  0  0  0  0  0
    1.0713    2.5256   -3.6663 N   0  0  0  0  0  0  0  0  0  0  0  0
    2.2908    0.6466   -5.9972 S   0  0  2  0  0  0  0  0  0  0  0  0
    2.2752   -0.9682   -6.9800 C   0  0  0  0  0  0  0  0  0  0  0  0
    0.6062    0.8769   -6.2192 O   0  0  0  0  0  0  0  0  0  0  0  0
    2.9706    1.6155   -6.8737 O   0  0  0  0  0  0  0  0  0  0  0  0
    1.9660    3.4104   -4.0687 O   0  0  0  0  0  0  0  0  0  0  0  0
    1.5281   -1.8628   -6.2984 F   0  0  0  0  0  0  0  0  0  0  0  0
    1.7822   -0.8172   -8.2014 F   0  0  0  0  0  0  0  0  0  0  0  0
    3.5280   -1.4247   -7.0491 F   0  0  0  0  0  0  0  0  0  0  0  0
  1  6  2  0  0  0  0
  1  2  1  0  0  0  0
  2  3  1  0  0  0  0
  2  8  1  1  0  0  0
  3 14  1  0  0  0  0
  4  3  2  0  0  0  0
  4  9  1  0  0  0  0
  5  4  1  0  0  0  0
  6  5  1  0  0  0  0
  7  1  1  0  0  0  0
 10  5  1  0  0  0  0
 11  6  1  0  0  0  0
 12 11  2  0  0  0  0
 13 11  2  0  0  0  0
 14 15  1  0  0  0  0
 16 17  1  6  0  0  0
 17 21  1  0  0  0  0
 18 16  1  0  0  0  0
 18  2  1  0  0  0  0
 19 16  1  0  0  0  0
 20 15  1  0  0  0  0
 22 17  1  0  0  0  0
 23 17  1  0  0  0  0
M  RAD  5   5   2  14   2  15   2  19   2  20   2
M  END
