Coordinates from ORCA-job p-NO2-Ph-N2-OTf-B3LYPG-6-31G_dp-scan-d09-49-n400
 OpenBabel08281821413D

 23 22  0  0  0  0  0  0  0  0999 V2000
   -2.3409   -0.7520   -5.7149 C   0  0  0  0  0  0  0  0  0  0  0  0
   -1.0675   -0.4642   -5.2400 C   0  0  0  0  0  0  0  0  0  0  0  0
   -0.9196    0.6911   -4.4566 C   0  0  0  0  0  0  0  0  0  0  0  0
   -1.9689    1.5592   -4.1343 C   0  0  0  0  0  0  0  0  0  0  0  0
   -3.2321    1.2624   -4.6297 C   0  0  0  0  0  0  0  0  0  0  0  0
   -3.3892    0.1135   -5.4039 C   0  0  0  0  0  0  0  0  0  0  0  0
   -2.5285   -1.6250   -6.3274 H   0  0  0  0  0  0  0  0  0  0  0  0
   -0.2025   -1.0815   -5.4550 H   0  0  0  0  0  0  0  0  0  0  0  0
   -1.7913    2.4382   -3.5254 H   0  0  0  0  0  0  0  0  0  0  0  0
   -4.0878    1.8931   -4.4270 H   0  0  0  0  0  0  0  0  0  0  0  0
   -4.7445   -0.2046   -5.9184 N   0  0  0  0  0  0  0  0  0  0  0  0
   -5.6457    0.5793   -5.6363 O   0  0  0  0  0  0  0  0  0  0  0  0
   -4.8636   -1.2279   -6.5823 O   0  0  0  0  0  0  0  0  0  0  0  0
    0.3492    0.9728   -3.9529 N   0  0  0  0  0  0  0  0  0  0  0  0
    1.4636    0.8975   -3.8082 N   0  0  0  0  0  0  0  0  0  0  0  0
    2.1446    0.1283   -6.6963 S   0  0  0  0  0  0  0  0  0  0  0  0
    3.7547    1.0489   -6.6030 C   0  0  0  0  0  0  0  0  0  0  0  0
    2.2574   -0.7673   -7.8491 O   0  0  0  0  0  0  0  0  0  0  0  0
    1.1148    1.1904   -6.7365 O   0  0  0  0  0  0  0  0  0  0  0  0
    2.1189   -0.6090   -5.3652 O   0  0  0  0  0  0  0  0  0  0  0  0
    4.7806    0.2007   -6.4885 F   0  0  0  0  0  0  0  0  0  0  0  0
    3.9275    1.7952   -7.6983 F   0  0  0  0  0  0  0  0  0  0  0  0
    3.7500    1.8620   -5.5289 F   0  0  0  0  0  0  0  0  0  0  0  0
  1  6  2  0  0  0  0
  1  2  1  0  0  0  0
  2  3  2  0  0  0  0
  3  4  1  0  0  0  0
  3 14  1  0  0  0  0
  4  9  1  0  0  0  0
  5 10  1  0  0  0  0
  5  4  2  0  0  0  0
  6  5  1  0  0  0  0
  7  1  1  0  0  0  0
  8  2  1  0  0  0  0
 11 12  2  0  0  0  0
 11  6  1  0  0  0  0
 13 11  2  0  0  0  0
 14 15  1  0  0  0  0
 16 17  1  0  0  0  0
 16 20  1  0  0  0  0
 17 21  1  0  0  0  0
 17 23  1  0  0  0  0
 18 16  2  0  0  0  0
 19 16  2  0  0  0  0
 22 17  1  0  0  0  0
M  RAD  3  14   2  15   3  20   2
M  END
