Coordinates from ORCA-job p-NO2-Ph-N2-OTf-B3LYPG-6-31G_dp-scan-d09-49-n400
 OpenBabel08281821413D

 23 22  0  0  0  0  0  0  0  0999 V2000
   -2.3369   -0.8234   -5.6572 C   0  0  0  0  0  0  0  0  0  0  0  0
   -1.0516   -0.5524   -5.2092 C   0  0  0  0  0  0  0  0  0  0  0  0
   -0.8584    0.6535   -4.5167 C   0  0  0  0  0  0  0  0  0  0  0  0
   -1.8653    1.5936   -4.2652 C   0  0  0  0  0  0  0  0  0  0  0  0
   -3.1401    1.3074   -4.7363 C   0  0  0  0  0  0  0  0  0  0  0  0
   -3.3481    0.1068   -5.4139 C   0  0  0  0  0  0  0  0  0  0  0  0
   -2.5615   -1.7310   -6.2031 H   0  0  0  0  0  0  0  0  0  0  0  0
   -0.2030   -1.2047   -5.3906 H   0  0  0  0  0  0  0  0  0  0  0  0
   -1.6505    2.5123   -3.7323 H   0  0  0  0  0  0  0  0  0  0  0  0
   -3.9680    1.9883   -4.5864 H   0  0  0  0  0  0  0  0  0  0  0  0
   -4.7172   -0.1940   -5.8997 N   0  0  0  0  0  0  0  0  0  0  0  0
   -5.5821    0.6501   -5.6864 O   0  0  0  0  0  0  0  0  0  0  0  0
   -4.8827   -1.2648   -6.4728 O   0  0  0  0  0  0  0  0  0  0  0  0
    0.4136    0.8980   -4.0167 N   0  0  0  0  0  0  0  0  0  0  0  0
    1.4503    0.9408   -3.6119 N   0  0  0  0  0  0  0  0  0  0  0  0
    2.0796    0.1140   -6.7013 S   0  0  0  0  0  0  0  0  0  0  0  0
    3.6561    1.0825   -6.5457 C   0  0  0  0  0  0  0  0  0  0  0  0
    2.1539   -0.5632   -7.9982 O   0  0  0  0  0  0  0  0  0  0  0  0
    1.0237    1.1609   -6.5592 O   0  0  0  0  0  0  0  0  0  0  0  0
    2.1188   -0.7758   -5.4950 O   0  0  0  0  0  0  0  0  0  0  0  0
    4.7197    0.2727   -6.5499 F   0  0  0  0  0  0  0  0  0  0  0  0
    3.7768    1.9597   -7.5481 F   0  0  0  0  0  0  0  0  0  0  0  0
    3.6522    1.7700   -5.3825 F   0  0  0  0  0  0  0  0  0  0  0  0
  1  6  2  0  0  0  0
  1  2  1  0  0  0  0
  2  3  2  0  0  0  0
  3  4  1  0  0  0  0
  3 14  1  0  0  0  0
  4  9  1  0  0  0  0
  5 10  1  0  0  0  0
  5  4  2  0  0  0  0
  6  5  1  0  0  0  0
  7  1  1  0  0  0  0
  8  2  1  0  0  0  0
 11 12  2  0  0  0  0
 11  6  1  0  0  0  0
 13 11  2  0  0  0  0
 14 15  1  0  0  0  0
 16 19  2  0  0  0  0
 16 17  1  0  0  0  0
 16 20  1  0  0  0  0
 17 23  1  0  0  0  0
 18 16  2  0  0  0  0
 21 17  1  0  0  0  0
 22 17  1  0  0  0  0
M  RAD  3  14   2  15   3  20   2
M  END
