Coordinates from ORCA-job p-NO2-Ph-N2-OTf-B3LYPG-6-31G_dp-scan-d09-49-n400
 OpenBabel08281821413D

 23 22  0  0  0  0  0  0  0  0999 V2000
   -2.3298   -0.8616   -5.6274 C   0  0  0  0  0  0  0  0  0  0  0  0
   -1.0271   -0.5347   -5.2712 C   0  0  0  0  0  0  0  0  0  0  0  0
   -0.8299    0.7073   -4.6583 C   0  0  0  0  0  0  0  0  0  0  0  0
   -1.8464    1.6371   -4.4021 C   0  0  0  0  0  0  0  0  0  0  0  0
   -3.1383    1.2928   -4.7787 C   0  0  0  0  0  0  0  0  0  0  0  0
   -3.3530    0.0517   -5.3756 C   0  0  0  0  0  0  0  0  0  0  0  0
   -2.5586   -1.8045   -6.1073 H   0  0  0  0  0  0  0  0  0  0  0  0
   -0.1680   -1.1686   -5.4764 H   0  0  0  0  0  0  0  0  0  0  0  0
   -1.6282    2.5905   -3.9359 H   0  0  0  0  0  0  0  0  0  0  0  0
   -3.9731    1.9624   -4.6164 H   0  0  0  0  0  0  0  0  0  0  0  0
   -4.7381   -0.3091   -5.7622 N   0  0  0  0  0  0  0  0  0  0  0  0
   -5.6137    0.5217   -5.5391 O   0  0  0  0  0  0  0  0  0  0  0  0
   -4.9066   -1.4114   -6.2713 O   0  0  0  0  0  0  0  0  0  0  0  0
    0.4533    1.0492   -4.2034 N   0  0  0  0  0  0  0  0  0  0  0  0
    1.3239    1.3253   -3.5653 N   0  0  0  0  0  0  0  0  0  0  0  0
    2.0385    0.2212   -6.8009 S   0  0  0  0  0  0  0  0  0  0  0  0
    3.7072    0.9364   -6.4097 C   0  0  0  0  0  0  0  0  0  0  0  0
    2.0861   -0.1511   -8.2156 O   0  0  0  0  0  0  0  0  0  0  0  0
    1.1114    1.3626   -6.4697 O   0  0  0  0  0  0  0  0  0  0  0  0
    1.9021   -0.8789   -5.8058 O   0  0  0  0  0  0  0  0  0  0  0  0
    4.6662    0.0176   -6.5541 F   0  0  0  0  0  0  0  0  0  0  0  0
    3.9792    1.9771   -7.2031 F   0  0  0  0  0  0  0  0  0  0  0  0
    3.7223    1.3679   -5.1286 F   0  0  0  0  0  0  0  0  0  0  0  0
  1  6  2  0  0  0  0
  1  2  1  0  0  0  0
  2  3  2  0  0  0  0
  3  4  1  0  0  0  0
  3 14  1  0  0  0  0
  4  9  1  0  0  0  0
  5 10  1  0  0  0  0
  5  4  2  0  0  0  0
  6  5  1  0  0  0  0
  7  1  1  0  0  0  0
  8  2  1  0  0  0  0
 11 12  2  0  0  0  0
 11  6  1  0  0  0  0
 13 11  2  0  0  0  0
 14 15  1  0  0  0  0
 16 19  2  0  0  0  0
 16 17  1  0  0  0  0
 16 20  1  0  0  0  0
 17 23  1  0  0  0  0
 18 16  2  0  0  0  0
 21 17  1  0  0  0  0
 22 17  1  0  0  0  0
M  RAD  3  14   2  15   3  20   2
M  END
