Coordinates from ORCA-job p-NO2-Ph-N2-OTf-B3LYPG-6-31G_dp-scan-d09-49-n400
 OpenBabel08281821413D

 23 22  0  0  0  0  0  0  0  0999 V2000
   -2.1885   -0.6551   -5.7474 C   0  0  0  0  0  0  0  0  0  0  0  0
   -0.9413   -0.0372   -5.6628 C   0  0  0  0  0  0  0  0  0  0  0  0
   -0.8885    1.1851   -4.9905 C   0  0  0  0  0  0  0  0  0  0  0  0
   -2.0036    1.8187   -4.4107 C   0  0  0  0  0  0  0  0  0  0  0  0
   -3.2350    1.1919   -4.5227 C   0  0  0  0  0  0  0  0  0  0  0  0
   -3.2998   -0.0343   -5.1863 C   0  0  0  0  0  0  0  0  0  0  0  0
   -2.3003   -1.6056   -6.2534 H   0  0  0  0  0  0  0  0  0  0  0  0
   -0.0549   -0.4855   -6.1155 H   0  0  0  0  0  0  0  0  0  0  0  0
   -1.9010    2.7707   -3.9031 H   0  0  0  0  0  0  0  0  0  0  0  0
   -4.1347    1.6295   -4.1099 H   0  0  0  0  0  0  0  0  0  0  0  0
   -4.6220   -0.7001   -5.2966 N   0  0  0  0  0  0  0  0  0  0  0  0
   -5.5791   -0.1222   -4.7900 O   0  0  0  0  0  0  0  0  0  0  0  0
   -4.6589   -1.7754   -5.8828 O   0  0  0  0  0  0  0  0  0  0  0  0
    0.3348    1.8638   -4.7991 N   0  0  0  0  0  0  0  0  0  0  0  0
    1.0373    2.5833   -4.3099 N   0  0  0  0  0  0  0  0  0  0  0  0
    2.2305    0.2331   -7.2193 S   0  0  0  0  0  0  0  0  0  0  0  0
    3.5693    0.3040   -5.9322 C   0  0  0  0  0  0  0  0  0  0  0  0
    2.9006    0.4568   -8.4993 O   0  0  0  0  0  0  0  0  0  0  0  0
    1.3452    1.3844   -6.7854 O   0  0  0  0  0  0  0  0  0  0  0  0
    1.5919   -1.0859   -6.9929 O   0  0  0  0  0  0  0  0  0  0  0  0
    4.3854   -0.7473   -6.0195 F   0  0  0  0  0  0  0  0  0  0  0  0
    4.2881    1.4255   -6.0499 F   0  0  0  0  0  0  0  0  0  0  0  0
    3.0039    0.3028   -4.6988 F   0  0  0  0  0  0  0  0  0  0  0  0
  1  2  2  0  0  0  0
  1  6  1  0  0  0  0
  2  3  1  0  0  0  0
  3 14  1  0  0  0  0
  3  4  2  0  0  0  0
  4  9  1  0  0  0  0
  5  4  1  0  0  0  0
  5 10  1  0  0  0  0
  6  5  2  0  0  0  0
  7  1  1  0  0  0  0
  8  2  1  0  0  0  0
 11  6  1  0  0  0  0
 11 12  2  0  0  0  0
 13 11  2  0  0  0  0
 14 15  1  0  0  0  0
 16 20  2  0  0  0  0
 16 19  1  0  0  0  0
 16 17  1  0  0  0  0
 17 23  1  0  0  0  0
 18 16  2  0  0  0  0
 21 17  1  0  0  0  0
 22 17  1  0  0  0  0
M  RAD  3  14   2  15   3  19   2
M  END
