Coordinates from ORCA-job p-NO2-Ph-N2-OTf-B3LYPG-6-31G_dp-scan-d09-49-n400
 OpenBabel08281821413D

 23 22  0  0  0  0  0  0  0  0999 V2000
   -2.3326   -0.7914   -5.6787 C   0  0  0  0  0  0  0  0  0  0  0  0
   -1.0550   -0.5221   -5.2066 C   0  0  0  0  0  0  0  0  0  0  0  0
   -0.8816    0.6620   -4.4721 C   0  0  0  0  0  0  0  0  0  0  0  0
   -1.9027    1.5799   -4.1980 C   0  0  0  0  0  0  0  0  0  0  0  0
   -3.1692    1.2980   -4.6933 C   0  0  0  0  0  0  0  0  0  0  0  0
   -3.3556    0.1196   -5.4154 C   0  0  0  0  0  0  0  0  0  0  0  0
   -2.5418   -1.6826   -6.2567 H   0  0  0  0  0  0  0  0  0  0  0  0
   -0.2007   -1.1644   -5.3951 H   0  0  0  0  0  0  0  0  0  0  0  0
   -1.7035    2.4807   -3.6295 H   0  0  0  0  0  0  0  0  0  0  0  0
   -4.0065    1.9638   -4.5292 H   0  0  0  0  0  0  0  0  0  0  0  0
   -4.7165   -0.1789   -5.9271 N   0  0  0  0  0  0  0  0  0  0  0  0
   -5.5926    0.6485   -5.6949 O   0  0  0  0  0  0  0  0  0  0  0  0
   -4.8640   -1.2310   -6.5380 O   0  0  0  0  0  0  0  0  0  0  0  0
    0.3881    0.9083   -3.9670 N   0  0  0  0  0  0  0  0  0  0  0  0
    1.4671    0.9096   -3.6786 N   0  0  0  0  0  0  0  0  0  0  0  0
    2.1087    0.0842   -6.6971 S   0  0  0  0  0  0  0  0  0  0  0  0
    3.6668    1.0876   -6.5792 C   0  0  0  0  0  0  0  0  0  0  0  0
    2.2229   -0.6858   -7.9382 O   0  0  0  0  0  0  0  0  0  0  0  0
    1.0308    1.1081   -6.6333 O   0  0  0  0  0  0  0  0  0  0  0  0
    2.1528   -0.7377   -5.4353 O   0  0  0  0  0  0  0  0  0  0  0  0
    4.7441    0.2975   -6.5367 F   0  0  0  0  0  0  0  0  0  0  0  0
    3.7773    1.9139   -7.6250 F   0  0  0  0  0  0  0  0  0  0  0  0
    3.6430    1.8333   -5.4532 F   0  0  0  0  0  0  0  0  0  0  0  0
  1  6  2  0  0  0  0
  1  2  1  0  0  0  0
  2  3  2  0  0  0  0
  3  4  1  0  0  0  0
  3 14  1  0  0  0  0
  4  9  1  0  0  0  0
  5 10  1  0  0  0  0
  5  4  2  0  0  0  0
  6  5  1  0  0  0  0
  7  1  1  0  0  0  0
  8  2  1  0  0  0  0
 11 12  2  0  0  0  0
 11  6  1  0  0  0  0
 13 11  2  0  0  0  0
 14 15  1  0  0  0  0
 16 19  2  0  0  0  0
 16 17  1  0  0  0  0
 16 20  1  0  0  0  0
 17 21  1  0  0  0  0
 17 23  1  0  0  0  0
 18 16  2  0  0  0  0
 22 17  1  0  0  0  0
M  RAD  3  14   2  15   3  20   2
M  END
