Coordinates from ORCA-job p-NO2-Ph-N2-OTf-B3LYPG-6-31G_dp-scan-d09-49-n400
 OpenBabel08281821413D

 23 22  0  0  0  0  0  0  0  0999 V2000
   -2.2372   -0.7095   -5.7067 C   0  0  0  0  0  0  0  0  0  0  0  0
   -0.9644   -0.1662   -5.5451 C   0  0  0  0  0  0  0  0  0  0  0  0
   -0.8831    1.0640   -4.8900 C   0  0  0  0  0  0  0  0  0  0  0  0
   -1.9910    1.7795   -4.4042 C   0  0  0  0  0  0  0  0  0  0  0  0
   -3.2492    1.2267   -4.5943 C   0  0  0  0  0  0  0  0  0  0  0  0
   -3.3442   -0.0078   -5.2373 C   0  0  0  0  0  0  0  0  0  0  0  0
   -2.3747   -1.6618   -6.2028 H   0  0  0  0  0  0  0  0  0  0  0  0
   -0.0705   -0.6647   -5.9250 H   0  0  0  0  0  0  0  0  0  0  0  0
   -1.8642    2.7346   -3.9081 H   0  0  0  0  0  0  0  0  0  0  0  0
   -4.1466    1.7281   -4.2560 H   0  0  0  0  0  0  0  0  0  0  0  0
   -4.6942   -0.5937   -5.4290 N   0  0  0  0  0  0  0  0  0  0  0  0
   -5.6473    0.0556   -5.0085 O   0  0  0  0  0  0  0  0  0  0  0  0
   -4.7567   -1.6817   -5.9892 O   0  0  0  0  0  0  0  0  0  0  0  0
    0.3722    1.6516   -4.6192 N   0  0  0  0  0  0  0  0  0  0  0  0
    1.1138    2.2665   -4.0519 N   0  0  0  0  0  0  0  0  0  0  0  0
    2.1808    0.1957   -7.1242 S   0  0  0  0  0  0  0  0  0  0  0  0
    3.6833    0.4836   -6.0696 C   0  0  0  0  0  0  0  0  0  0  0  0
    2.6399    0.3226   -8.5068 O   0  0  0  0  0  0  0  0  0  0  0  0
    1.2757    1.3264   -6.6772 O   0  0  0  0  0  0  0  0  0  0  0  0
    1.6850   -1.1276   -6.6768 O   0  0  0  0  0  0  0  0  0  0  0  0
    4.5594   -0.5148   -6.1953 F   0  0  0  0  0  0  0  0  0  0  0  0
    4.2825    1.6340   -6.3927 F   0  0  0  0  0  0  0  0  0  0  0  0
    3.3100    0.5600   -4.7683 F   0  0  0  0  0  0  0  0  0  0  0  0
  1  2  2  0  0  0  0
  1  6  1  0  0  0  0
  2  3  1  0  0  0  0
  3 14  1  0  0  0  0
  3  4  2  0  0  0  0
  4  9  1  0  0  0  0
  5  4  1  0  0  0  0
  5 10  1  0  0  0  0
  6  5  2  0  0  0  0
  7  1  1  0  0  0  0
  8  2  1  0  0  0  0
 11  6  1  0  0  0  0
 11 12  2  0  0  0  0
 13 11  2  0  0  0  0
 14 15  1  0  0  0  0
 16 19  2  0  0  0  0
 16 20  1  0  0  0  0
 16 17  1  0  0  0  0
 17 23  1  0  0  0  0
 18 16  2  0  0  0  0
 21 17  1  0  0  0  0
 22 17  1  0  0  0  0
M  RAD  3  14   2  15   3  20   2
M  END
