Coordinates from ORCA-job p-NO2-Ph-N2-OTf-B3LYPG-6-31G_dp-scan-d09-49-n400
 OpenBabel08281821413D

 23 22  0  0  0  0  0  0  0  0999 V2000
   -2.2456   -0.7188   -5.7007 C   0  0  0  0  0  0  0  0  0  0  0  0
   -0.9692   -0.1888   -5.5258 C   0  0  0  0  0  0  0  0  0  0  0  0
   -0.8821    1.0424   -4.8733 C   0  0  0  0  0  0  0  0  0  0  0  0
   -1.9871    1.7720   -4.4032 C   0  0  0  0  0  0  0  0  0  0  0  0
   -3.2491    1.2324   -4.6068 C   0  0  0  0  0  0  0  0  0  0  0  0
   -3.3503   -0.0030   -5.2467 C   0  0  0  0  0  0  0  0  0  0  0  0
   -2.3881   -1.6710   -6.1955 H   0  0  0  0  0  0  0  0  0  0  0  0
   -0.0750   -0.6962   -5.8930 H   0  0  0  0  0  0  0  0  0  0  0  0
   -1.8555    2.7273   -3.9088 H   0  0  0  0  0  0  0  0  0  0  0  0
   -4.1448    1.7449   -4.2809 H   0  0  0  0  0  0  0  0  0  0  0  0
   -4.7042   -0.5747   -5.4523 N   0  0  0  0  0  0  0  0  0  0  0  0
   -5.6552    0.0871   -5.0468 O   0  0  0  0  0  0  0  0  0  0  0  0
   -4.7720   -1.6644   -6.0088 O   0  0  0  0  0  0  0  0  0  0  0  0
    0.3778    1.6143   -4.5891 N   0  0  0  0  0  0  0  0  0  0  0  0
    1.1243    2.2107   -4.0076 N   0  0  0  0  0  0  0  0  0  0  0  0
    2.1730    0.1892   -7.1033 S   0  0  0  0  0  0  0  0  0  0  0  0
    3.6993    0.5150   -6.0949 C   0  0  0  0  0  0  0  0  0  0  0  0
    2.5943    0.2934   -8.4999 O   0  0  0  0  0  0  0  0  0  0  0  0
    1.2654    1.3180   -6.6559 O   0  0  0  0  0  0  0  0  0  0  0  0
    1.7041   -1.1301   -6.6168 O   0  0  0  0  0  0  0  0  0  0  0  0
    4.5856   -0.4730   -6.2302 F   0  0  0  0  0  0  0  0  0  0  0  0
    4.2721    1.6684   -6.4527 F   0  0  0  0  0  0  0  0  0  0  0  0
    3.3614    0.6061   -4.7852 F   0  0  0  0  0  0  0  0  0  0  0  0
  1  2  2  0  0  0  0
  1  6  1  0  0  0  0
  2  3  1  0  0  0  0
  3 14  1  0  0  0  0
  3  4  2  0  0  0  0
  4  9  1  0  0  0  0
  5  4  1  0  0  0  0
  5 10  1  0  0  0  0
  6  5  2  0  0  0  0
  7  1  1  0  0  0  0
  8  2  1  0  0  0  0
 11  6  1  0  0  0  0
 11 12  2  0  0  0  0
 13 11  2  0  0  0  0
 14 15  1  0  0  0  0
 16 19  2  0  0  0  0
 16 20  1  0  0  0  0
 16 17  1  0  0  0  0
 17 23  1  0  0  0  0
 18 16  2  0  0  0  0
 21 17  1  0  0  0  0
 22 17  1  0  0  0  0
M  RAD  3  14   2  15   3  20   2
M  END
