Coordinates from ORCA-job p-NO2-Ph-N2-OTf-B3LYPG-6-31G_dp-scan-d09-49-n400
 OpenBabel08281821413D

 23 23  0  0  0  0  0  0  0  0999 V2000
   -2.5190   -0.6569   -5.8404 C   0  0  0  0  0  0  0  0  0  0  0  0
   -1.2715   -0.0540   -5.7150 C   0  0  0  0  0  0  0  0  0  0  0  0
   -1.1517    1.0536   -4.8562 C   0  0  0  0  0  0  0  0  0  0  0  0
   -2.2442    1.5518   -4.1301 C   0  0  0  0  0  0  0  0  0  0  0  0
   -3.4873    0.9468   -4.2649 C   0  0  0  0  0  0  0  0  0  0  0  0
   -3.5976   -0.1480   -5.1194 C   0  0  0  0  0  0  0  0  0  0  0  0
   -2.6663   -1.5126   -6.4873 H   0  0  0  0  0  0  0  0  0  0  0  0
   -0.4113   -0.4160   -6.2600 H   0  0  0  0  0  0  0  0  0  0  0  0
   -2.1034    2.4063   -3.4781 H   0  0  0  0  0  0  0  0  0  0  0  0
   -4.3583    1.3005   -3.7289 H   0  0  0  0  0  0  0  0  0  0  0  0
   -4.9197   -0.7996   -5.2666 N   0  0  0  0  0  0  0  0  0  0  0  0
   -5.8528   -0.3245   -4.6253 O   0  0  0  0  0  0  0  0  0  0  0  0
   -4.9884   -1.7670   -6.0182 O   0  0  0  0  0  0  0  0  0  0  0  0
    0.0573    1.7466   -4.6518 N   0  0  0  0  0  0  0  0  0  0  0  0
    1.1628    1.7998   -5.0267 N   0  0  0  0  0  0  0  0  0  0  0  0
    2.7177    0.9378   -7.1698 S   0  0  0  0  0  0  0  0  0  0  0  0
    4.1132    0.3118   -6.1077 C   0  0  0  0  0  0  0  0  0  0  0  0
    2.6713    0.0811   -8.3475 O   0  0  0  0  0  0  0  0  0  0  0  0
    2.8954    2.3800   -7.2758 O   0  0  0  0  0  0  0  0  0  0  0  0
    1.4765    0.5728   -6.2520 O   0  0  0  0  0  0  0  0  0  0  0  0
    3.9785   -0.9995   -5.8974 F   0  0  0  0  0  0  0  0  0  0  0  0
    5.2706    0.5436   -6.7283 F   0  0  0  0  0  0  0  0  0  0  0  0
    4.1075    0.9467   -4.9308 F   0  0  0  0  0  0  0  0  0  0  0  0
  1  2  2  0  0  0  0
  1  6  1  0  0  0  0
  2  3  1  0  0  0  0
  3 14  1  0  0  0  0
  3  4  2  0  0  0  0
  4  9  1  0  0  0  0
  5  4  1  0  0  0  0
  5 10  1  0  0  0  0
  6  5  2  0  0  0  0
  7  1  1  0  0  0  0
  8  2  1  0  0  0  0
 11  6  1  0  0  0  0
 11 12  2  0  0  0  0
 13 11  2  0  0  0  0
 15 14  1  0  0  0  0
 16 20  1  0  0  0  0
 16 17  1  0  0  0  0
 17 21  1  0  0  0  0
 17 23  1  0  0  0  0
 18 16  2  0  0  0  0
 19 16  2  0  0  0  0
 20 15  1  0  0  0  0
 22 17  1  0  0  0  0
M  RAD  2  14   2  15   2
M  END
