Coordinates from ORCA-job p-NO2-Ph-N2-X-BF4-B3LYPG-6-31G_dp-scan-d09-49-n400
 OpenBabel08281821043D

 20 19  0  0  0  0  0  0  0  0999 V2000
   -1.1885    1.1045    1.7773 C   0  0  0  0  0  0  0  0  0  0  0  0
    0.1680    1.3884    1.6967 C   0  0  0  0  0  0  0  0  0  0  0  0
    0.7012    1.6238    0.4255 C   0  0  0  0  0  0  0  0  0  0  0  0
   -0.0289    1.5526   -0.7648 C   0  0  0  0  0  0  0  0  0  0  0  0
   -1.3856    1.2733   -0.6623 C   0  0  0  0  0  0  0  0  0  0  0  0
   -1.9362    1.0640    0.6007 C   0  0  0  0  0  0  0  0  0  0  0  0
   -1.6696    0.9046    2.7260 H   0  0  0  0  0  0  0  0  0  0  0  0
    0.8059    1.3954    2.5713 H   0  0  0  0  0  0  0  0  0  0  0  0
    0.4691    1.6667   -1.7179 H   0  0  0  0  0  0  0  0  0  0  0  0
   -2.0141    1.2007   -1.5406 H   0  0  0  0  0  0  0  0  0  0  0  0
   -3.3863    0.7705    0.6976 N   0  0  0  0  0  0  0  0  0  0  0  0
   -3.8442    0.5828    1.8200 O   0  0  0  0  0  0  0  0  0  0  0  0
   -4.0220    0.7428   -0.3510 O   0  0  0  0  0  0  0  0  0  0  0  0
    2.0474    1.9758    0.3459 N   0  0  0  0  0  0  0  0  0  0  0  0
    3.0946    2.3444    0.3033 N   0  0  0  0  0  0  0  0  0  0  0  0
    3.1068   -0.5389   -0.2683 B   0  0  0  0  0  0  0  0  0  0  0  0
    2.2404    0.0268   -1.2579 F   0  0  0  0  0  0  0  0  0  0  0  0
    3.3918   -1.8465   -0.5353 F   0  0  0  0  0  0  0  0  0  0  0  0
    4.2605    0.2755   -0.2180 F   0  0  0  0  0  0  0  0  0  0  0  0
    2.4327   -0.3886    0.9849 F   0  0  0  0  0  0  0  0  0  0  0  0
  1  7  1  0  0  0  0
  2  1  1  0  0  0  0
  2  8  1  0  0  0  0
  3  2  2  0  0  0  0
  4  5  2  0  0  0  0
  4  3  1  0  0  0  0
  5  6  1  0  0  0  0
  6 11  1  0  0  0  0
  6  1  2  0  0  0  0
  9  4  1  0  0  0  0
 10  5  1  0  0  0  0
 11 12  2  0  0  0  0
 13 11  2  0  0  0  0
 14  3  1  0  0  0  0
 15 14  1  0  0  0  0
 16 19  1  0  0  0  0
 16 20  1  0  0  0  0
 17 16  1  0  0  0  0
 18 16  1  0  0  0  0
M  RAD  2  14   2  15   3
M  END
