Coordinates from ORCA-job p-NO2-Ph-N2-X-BF4-B3LYPG-6-31G_dp-scan-d09-49-n400
 OpenBabel08281821043D

 20 18  0  0  0  0  0  0  0  0999 V2000
   -0.4321    0.6310    0.8130 C   0  0  0  0  0  0  0  0  0  0  0  0
    0.7637    1.1264    0.2395 C   0  0  0  0  0  0  0  0  0  0  0  0
    0.5171    2.1206   -0.7216 C   0  0  0  0  0  0  0  0  0  0  0  0
   -0.7265    2.6527   -1.1525 C   0  0  0  0  0  0  0  0  0  0  0  0
   -1.8456    2.1272   -0.5492 C   0  0  0  0  0  0  0  0  0  0  0  0
   -1.6677    1.1241    0.4241 C   0  0  0  0  0  0  0  0  0  0  0  0
   -0.3715   -0.1516    1.5615 H   0  0  0  0  0  0  0  0  0  0  0  0
    2.0866    0.5901    0.6656 H   0  0  0  0  0  0  0  0  0  0  0  0
   -0.7918    3.4254   -1.9114 H   0  0  0  0  0  0  0  0  0  0  0  0
   -2.8442    2.4581   -0.8008 H   0  0  0  0  0  0  0  0  0  0  0  0
   -2.8975    0.5733    1.0579 N   0  0  0  0  0  0  0  0  0  0  0  0
   -2.7517   -0.2801    1.9229 O   0  0  0  0  0  0  0  0  0  0  0  0
   -3.9743    1.0185    0.6646 O   0  0  0  0  0  0  0  0  0  0  0  0
    1.6555    2.6354   -1.3213 N   0  0  0  0  0  0  0  0  0  0  0  0
    2.5948    3.0231   -1.7830 N   0  0  0  0  0  0  0  0  0  0  0  0
    2.7781   -1.3480    1.5628 B   0  0  0  0  0  0  0  0  0  0  0  0
    2.8033   -2.0990    0.4358 F   0  0  0  0  0  0  0  0  0  0  0  0
    3.8339   -1.4584    2.3938 F   0  0  0  0  0  0  0  0  0  0  0  0
    2.9606    0.2056    0.9637 F   0  0  0  0  0  0  0  0  0  0  0  0
    1.5524   -1.2556    2.1675 F   0  0  0  0  0  0  0  0  0  0  0  0
  1  7  1  0  0  0  0
  2  1  2  0  0  0  0
  3  2  1  0  0  0  0
  4  3  2  0  0  0  0
  4  5  1  0  0  0  0
  5  6  2  0  0  0  0
  6  1  1  0  0  0  0
  6 11  1  0  0  0  0
  8 19  1  0  0  0  0
  9  4  1  0  0  0  0
 10  5  1  0  0  0  0
 11 12  2  0  0  0  0
 13 11  2  0  0  0  0
 14  3  1  0  0  0  0
 15 14  1  0  0  0  0
 16 20  1  0  0  0  0
 16 18  1  0  0  0  0
 17 16  1  0  0  0  0
M  RAD  3   2   2  14   2  15   3
M  END
