Coordinates from ORCA-job p-NO2-Ph-N2-X-BF4-B3LYPG-6-31G_dp-scan-d09-49-n400
 OpenBabel08281821043D

 20 19  0  0  0  0  0  0  0  0999 V2000
   -1.1319    0.9043    1.6604 C   0  0  0  0  0  0  0  0  0  0  0  0
    0.2267    1.1680    1.5302 C   0  0  0  0  0  0  0  0  0  0  0  0
    0.6732    1.6082    0.2792 C   0  0  0  0  0  0  0  0  0  0  0  0
   -0.1547    1.7770   -0.8380 C   0  0  0  0  0  0  0  0  0  0  0  0
   -1.5060    1.5002   -0.6873 C   0  0  0  0  0  0  0  0  0  0  0  0
   -1.9665    1.0767    0.5585 C   0  0  0  0  0  0  0  0  0  0  0  0
   -1.5475    0.5571    2.5976 H   0  0  0  0  0  0  0  0  0  0  0  0
    0.9150    1.0099    2.3485 H   0  0  0  0  0  0  0  0  0  0  0  0
    0.2589    2.0874   -1.7894 H   0  0  0  0  0  0  0  0  0  0  0  0
   -2.2000    1.6011   -1.5118 H   0  0  0  0  0  0  0  0  0  0  0  0
   -3.4133    0.7923    0.7149 N   0  0  0  0  0  0  0  0  0  0  0  0
   -3.7931    0.4206    1.8201 O   0  0  0  0  0  0  0  0  0  0  0  0
   -4.1234    0.9548   -0.2723 O   0  0  0  0  0  0  0  0  0  0  0  0
    2.0147    1.9587    0.1163 N   0  0  0  0  0  0  0  0  0  0  0  0
    3.0410    2.3509   -0.0473 N   0  0  0  0  0  0  0  0  0  0  0  0
    3.2143   -0.5730    0.0258 B   0  0  0  0  0  0  0  0  0  0  0  0
    2.1525   -0.3051   -0.8934 F   0  0  0  0  0  0  0  0  0  0  0  0
    3.5210   -1.9024    0.0731 F   0  0  0  0  0  0  0  0  0  0  0  0
    4.3099    0.2310   -0.3543 F   0  0  0  0  0  0  0  0  0  0  0  0
    2.7521   -0.0988    1.3020 F   0  0  0  0  0  0  0  0  0  0  0  0
  1  7  1  0  0  0  0
  2  1  1  0  0  0  0
  2  8  1  0  0  0  0
  3  2  2  0  0  0  0
  4  5  2  0  0  0  0
  4  3  1  0  0  0  0
  5  6  1  0  0  0  0
  6 11  1  0  0  0  0
  6  1  2  0  0  0  0
  9  4  1  0  0  0  0
 10  5  1  0  0  0  0
 11 12  2  0  0  0  0
 13 11  2  0  0  0  0
 14  3  1  0  0  0  0
 15 14  1  0  0  0  0
 16 18  1  0  0  0  0
 16 20  1  0  0  0  0
 17 16  1  0  0  0  0
 19 16  1  0  0  0  0
M  RAD  2  14   2  15   3
M  END
