Coordinates from ORCA-job p-NO2-Ph-N2-X-BF4-B3LYPG-6-31G_dp-scan-d09-49-n400
 OpenBabel08281821043D

 20 19  0  0  0  0  0  0  0  0999 V2000
   -0.4877    0.5834    0.8845 C   0  0  0  0  0  0  0  0  0  0  0  0
    0.7025    1.0575    0.3189 C   0  0  0  0  0  0  0  0  0  0  0  0
    0.5511    2.0490   -0.6613 C   0  0  0  0  0  0  0  0  0  0  0  0
   -0.6696    2.6024   -1.1151 C   0  0  0  0  0  0  0  0  0  0  0  0
   -1.8155    2.1121   -0.5247 C   0  0  0  0  0  0  0  0  0  0  0  0
   -1.6970    1.1153    0.4603 C   0  0  0  0  0  0  0  0  0  0  0  0
   -0.4284   -0.2007    1.6309 H   0  0  0  0  0  0  0  0  0  0  0  0
    1.7590    0.6642    0.6147 H   0  0  0  0  0  0  0  0  0  0  0  0
   -0.7006    3.3662   -1.8839 H   0  0  0  0  0  0  0  0  0  0  0  0
   -2.7981    2.4704   -0.8023 H   0  0  0  0  0  0  0  0  0  0  0  0
   -2.9579    0.6091    1.0703 N   0  0  0  0  0  0  0  0  0  0  0  0
   -2.8533   -0.2389    1.9447 O   0  0  0  0  0  0  0  0  0  0  0  0
   -4.0080    1.0866    0.6467 O   0  0  0  0  0  0  0  0  0  0  0  0
    1.7277    2.4967   -1.2298 N   0  0  0  0  0  0  0  0  0  0  0  0
    2.6962    2.8308   -1.6691 N   0  0  0  0  0  0  0  0  0  0  0  0
    2.8610   -1.1653    1.4139 B   0  0  0  0  0  0  0  0  0  0  0  0
    2.9863   -2.0412    0.3597 F   0  0  0  0  0  0  0  0  0  0  0  0
    3.8090   -1.3145    2.3899 F   0  0  0  0  0  0  0  0  0  0  0  0
    3.0131    0.2173    0.8450 F   0  0  0  0  0  0  0  0  0  0  0  0
    1.5532   -1.1815    1.9397 F   0  0  0  0  0  0  0  0  0  0  0  0
  1  7  1  0  0  0  0
  2  8  1  0  0  0  0
  2  1  2  0  0  0  0
  3  2  1  0  0  0  0
  4  3  2  0  0  0  0
  4  5  1  0  0  0  0
  5  6  2  0  0  0  0
  6  1  1  0  0  0  0
  6 11  1  0  0  0  0
  9  4  1  0  0  0  0
 10  5  1  0  0  0  0
 11 12  2  0  0  0  0
 13 11  2  0  0  0  0
 14  3  1  0  0  0  0
 15 14  1  0  0  0  0
 16 20  1  0  0  0  0
 16 18  1  0  0  0  0
 17 16  1  0  0  0  0
 19 16  1  0  0  0  0
M  RAD  2  14   2  15   3
M  END
