Coordinates from ORCA-job p-NO2-Ph-N2-X-BF4-B3LYPG-6-31G_dp-scan-d09-49-n400
 OpenBabel08281821043D

 20 19  0  0  0  0  0  0  0  0999 V2000
   -0.9048    0.6860    1.3494 C   0  0  0  0  0  0  0  0  0  0  0  0
    0.4189    0.8510    0.9505 C   0  0  0  0  0  0  0  0  0  0  0  0
    0.6271    1.5185   -0.2637 C   0  0  0  0  0  0  0  0  0  0  0  0
   -0.4005    2.0178   -1.0850 C   0  0  0  0  0  0  0  0  0  0  0  0
   -1.7082    1.8358   -0.6640 C   0  0  0  0  0  0  0  0  0  0  0  0
   -1.9301    1.1765    0.5463 C   0  0  0  0  0  0  0  0  0  0  0  0
   -1.1425    0.1714    2.2719 H   0  0  0  0  0  0  0  0  0  0  0  0
    1.2465    0.4475    1.5271 H   0  0  0  0  0  0  0  0  0  0  0  0
   -0.1729    2.5202   -2.0180 H   0  0  0  0  0  0  0  0  0  0  0  0
   -2.5484    2.1893   -1.2469 H   0  0  0  0  0  0  0  0  0  0  0  0
   -3.3351    0.9889    0.9909 N   0  0  0  0  0  0  0  0  0  0  0  0
   -3.5105    0.4183    2.0604 O   0  0  0  0  0  0  0  0  0  0  0  0
   -4.2136    1.4233    0.2520 O   0  0  0  0  0  0  0  0  0  0  0  0
    1.9231    1.7535   -0.7131 N   0  0  0  0  0  0  0  0  0  0  0  0
    2.9119    2.0408   -1.1245 N   0  0  0  0  0  0  0  0  0  0  0  0
    3.2313   -0.6212    0.7660 B   0  0  0  0  0  0  0  0  0  0  0  0
    2.5203   -0.6398   -0.4760 F   0  0  0  0  0  0  0  0  0  0  0  0
    4.4193   -1.2898    0.6743 F   0  0  0  0  0  0  0  0  0  0  0  0
    3.4301    0.7678    1.0720 F   0  0  0  0  0  0  0  0  0  0  0  0
    2.3810   -1.1372    1.7632 F   0  0  0  0  0  0  0  0  0  0  0  0
  1  7  1  0  0  0  0
  2  1  1  0  0  0  0
  2  8  1  0  0  0  0
  3  2  2  0  0  0  0
  4  5  2  0  0  0  0
  4  3  1  0  0  0  0
  5  6  1  0  0  0  0
  6 11  1  0  0  0  0
  6  1  2  0  0  0  0
  9  4  1  0  0  0  0
 10  5  1  0  0  0  0
 11 12  2  0  0  0  0
 13 11  2  0  0  0  0
 14  3  1  0  0  0  0
 15 14  1  0  0  0  0
 16 19  1  0  0  0  0
 16 20  1  0  0  0  0
 17 16  1  0  0  0  0
 18 16  1  0  0  0  0
M  RAD  2  14   2  15   3
M  END
