Coordinates from ORCA-job p-NO2-Ph-N2-X-BF4-B3LYPG-6-31G_dp-scan-d09-49-n400
 OpenBabel08281821043D

 20 19  0  0  0  0  0  0  0  0999 V2000
   -0.7219    0.8360    1.3725 C   0  0  0  0  0  0  0  0  0  0  0  0
    0.5701    1.1018    0.9137 C   0  0  0  0  0  0  0  0  0  0  0  0
    0.6514    1.6922   -0.3551 C   0  0  0  0  0  0  0  0  0  0  0  0
   -0.4393    2.0299   -1.1824 C   0  0  0  0  0  0  0  0  0  0  0  0
   -1.7015    1.7517   -0.6917 C   0  0  0  0  0  0  0  0  0  0  0  0
   -1.8122    1.1641    0.5756 C   0  0  0  0  0  0  0  0  0  0  0  0
   -0.8808    0.3640    2.3339 H   0  0  0  0  0  0  0  0  0  0  0  0
    1.5483    0.8305    1.4366 H   0  0  0  0  0  0  0  0  0  0  0  0
   -0.2926    2.4779   -2.1582 H   0  0  0  0  0  0  0  0  0  0  0  0
   -2.5957    1.9722   -1.2595 H   0  0  0  0  0  0  0  0  0  0  0  0
   -3.1794    0.8756    1.0838 N   0  0  0  0  0  0  0  0  0  0  0  0
   -3.2681    0.3885    2.2039 O   0  0  0  0  0  0  0  0  0  0  0  0
   -4.1181    1.1520    0.3422 O   0  0  0  0  0  0  0  0  0  0  0  0
    1.9231    1.9806   -0.8288 N   0  0  0  0  0  0  0  0  0  0  0  0
    2.9330    2.2378   -1.2131 N   0  0  0  0  0  0  0  0  0  0  0  0
    2.9479   -0.8091    0.8028 B   0  0  0  0  0  0  0  0  0  0  0  0
    2.8712   -0.3344   -0.5322 F   0  0  0  0  0  0  0  0  0  0  0  0
    4.1145   -1.4706    1.0484 F   0  0  0  0  0  0  0  0  0  0  0  0
    2.8914    0.4110    1.6375 F   0  0  0  0  0  0  0  0  0  0  0  0
    1.8017   -1.5330    1.1030 F   0  0  0  0  0  0  0  0  0  0  0  0
  1  7  1  0  0  0  0
  2  1  1  0  0  0  0
  2  8  1  0  0  0  0
  3  2  2  0  0  0  0
  4  5  2  0  0  0  0
  4  3  1  0  0  0  0
  5  6  1  0  0  0  0
  6 11  1  0  0  0  0
  6  1  2  0  0  0  0
  9  4  1  0  0  0  0
 10  5  1  0  0  0  0
 11 12  2  0  0  0  0
 13 11  2  0  0  0  0
 14  3  1  0  0  0  0
 15 14  1  0  0  0  0
 16 18  1  0  0  0  0
 16 20  1  0  0  0  0
 16 19  1  0  0  0  0
 17 16  1  0  0  0  0
M  RAD  2  14   2  15   3
M  END
