Coordinates from ORCA-job p-NO2-Ph-N2-X-BF4-B3LYPG-6-31G_dp-scan-d09-49-n400
 OpenBabel08281821043D

 20 19  0  0  0  0  0  0  0  0999 V2000
   -1.3078    1.3759    1.8656 C   0  0  0  0  0  0  0  0  0  0  0  0
    0.0557    1.6310    1.8280 C   0  0  0  0  0  0  0  0  0  0  0  0
    0.6950    1.5555    0.5859 C   0  0  0  0  0  0  0  0  0  0  0  0
    0.0670    1.2132   -0.6160 C   0  0  0  0  0  0  0  0  0  0  0  0
   -1.3015    0.9807   -0.5589 C   0  0  0  0  0  0  0  0  0  0  0  0
   -1.9572    1.0727    0.6687 C   0  0  0  0  0  0  0  0  0  0  0  0
   -1.8697    1.4058    2.7903 H   0  0  0  0  0  0  0  0  0  0  0  0
    0.6406    1.8459    2.7138 H   0  0  0  0  0  0  0  0  0  0  0  0
    0.6680    1.0886   -1.5093 H   0  0  0  0  0  0  0  0  0  0  0  0
   -1.8617    0.7099   -1.4447 H   0  0  0  0  0  0  0  0  0  0  0  0
   -3.4184    0.8214    0.7100 N   0  0  0  0  0  0  0  0  0  0  0  0
   -3.9653    0.8895    1.8065 O   0  0  0  0  0  0  0  0  0  0  0  0
   -3.9728    0.5696   -0.3541 O   0  0  0  0  0  0  0  0  0  0  0  0
    2.0507    1.8666    0.5931 N   0  0  0  0  0  0  0  0  0  0  0  0
    3.1193    2.1582    0.6846 N   0  0  0  0  0  0  0  0  0  0  0  0
    3.1396   -0.4568   -0.6433 B   0  0  0  0  0  0  0  0  0  0  0  0
    2.6453    0.5188   -1.5740 F   0  0  0  0  0  0  0  0  0  0  0  0
    3.5585   -1.5887   -1.2779 F   0  0  0  0  0  0  0  0  0  0  0  0
    4.1770    0.1696    0.0940 F   0  0  0  0  0  0  0  0  0  0  0  0
    2.0806   -0.7087    0.2705 F   0  0  0  0  0  0  0  0  0  0  0  0
  1  7  1  0  0  0  0
  2  1  1  0  0  0  0
  2  8  1  0  0  0  0
  3 14  1  0  0  0  0
  3  2  2  0  0  0  0
  4  5  2  0  0  0  0
  4  3  1  0  0  0  0
  5  6  1  0  0  0  0
  6 11  1  0  0  0  0
  6  1  2  0  0  0  0
  9  4  1  0  0  0  0
 10  5  1  0  0  0  0
 11 12  2  0  0  0  0
 13 11  2  0  0  0  0
 14 15  1  0  0  0  0
 16 19  1  0  0  0  0
 16 20  1  0  0  0  0
 17 16  1  0  0  0  0
 18 16  1  0  0  0  0
M  RAD  2  14   2  15   3
M  END
