Coordinates from ORCA-job p-NO2-Ph-N2-X-BF4-B3LYPG-6-31G_dp-scan-d09-49-n400
 OpenBabel08281821043D

 20 18  0  0  0  0  0  0  0  0999 V2000
   -0.4225    0.6689    0.8050 C   0  0  0  0  0  0  0  0  0  0  0  0
    0.7718    1.1761    0.2284 C   0  0  0  0  0  0  0  0  0  0  0  0
    0.4949    2.1533   -0.7415 C   0  0  0  0  0  0  0  0  0  0  0  0
   -0.7569    2.6609   -1.1811 C   0  0  0  0  0  0  0  0  0  0  0  0
   -1.8661    2.1238   -0.5713 C   0  0  0  0  0  0  0  0  0  0  0  0
   -1.6675    1.1348    0.4138 C   0  0  0  0  0  0  0  0  0  0  0  0
   -0.3583   -0.1048    1.5629 H   0  0  0  0  0  0  0  0  0  0  0  0
    2.2236    0.5933    0.7308 H   0  0  0  0  0  0  0  0  0  0  0  0
   -0.8358    3.4231   -1.9497 H   0  0  0  0  0  0  0  0  0  0  0  0
   -2.8709    2.4337   -0.8252 H   0  0  0  0  0  0  0  0  0  0  0  0
   -2.8862    0.5699    1.0560 N   0  0  0  0  0  0  0  0  0  0  0  0
   -2.7256   -0.2725    1.9299 O   0  0  0  0  0  0  0  0  0  0  0  0
   -3.9723    0.9920    0.6620 O   0  0  0  0  0  0  0  0  0  0  0  0
    1.6247    2.6841   -1.3481 N   0  0  0  0  0  0  0  0  0  0  0  0
    2.5592    3.0831   -1.8106 N   0  0  0  0  0  0  0  0  0  0  0  0
    2.7625   -1.4518    1.6039 B   0  0  0  0  0  0  0  0  0  0  0  0
    2.7462   -2.1004    0.4269 F   0  0  0  0  0  0  0  0  0  0  0  0
    3.8420   -1.5876    2.3840 F   0  0  0  0  0  0  0  0  0  0  0  0
    3.0132    0.2315    1.0342 F   0  0  0  0  0  0  0  0  0  0  0  0
    1.5668   -1.2927    2.2226 F   0  0  0  0  0  0  0  0  0  0  0  0
  1  7  1  0  0  0  0
  2  1  2  0  0  0  0
  3  2  1  0  0  0  0
  4  3  2  0  0  0  0
  4  5  1  0  0  0  0
  5  6  2  0  0  0  0
  6  1  1  0  0  0  0
  6 11  1  0  0  0  0
  8 19  1  0  0  0  0
  9  4  1  0  0  0  0
 10  5  1  0  0  0  0
 11 12  2  0  0  0  0
 13 11  2  0  0  0  0
 14  3  1  0  0  0  0
 15 14  1  0  0  0  0
 16 20  1  0  0  0  0
 16 18  1  0  0  0  0
 17 16  1  0  0  0  0
M  RAD  3   2   2  14   2  15   3
M  END
