Coordinates from ORCA-job p-NO2-Ph-N2-X-BF4-B3LYPG-6-31G_dp-scan-d09-49-n400
 OpenBabel08281821043D

 20 18  0  0  0  0  0  0  0  0999 V2000
   -0.4581    0.5975    0.8679 C   0  0  0  0  0  0  0  0  0  0  0  0
    0.7341    1.0787    0.3007 C   0  0  0  0  0  0  0  0  0  0  0  0
    0.5515    2.0675   -0.6782 C   0  0  0  0  0  0  0  0  0  0  0  0
   -0.6776    2.6090   -1.1289 C   0  0  0  0  0  0  0  0  0  0  0  0
   -1.8150    2.1070   -0.5348 C   0  0  0  0  0  0  0  0  0  0  0  0
   -1.6765    1.1122    0.4506 C   0  0  0  0  0  0  0  0  0  0  0  0
   -0.3973   -0.1834    1.6178 H   0  0  0  0  0  0  0  0  0  0  0  0
    1.8520    0.6575    0.6287 H   0  0  0  0  0  0  0  0  0  0  0  0
   -0.7198    3.3726   -1.8977 H   0  0  0  0  0  0  0  0  0  0  0  0
   -2.8032    2.4531   -0.8074 H   0  0  0  0  0  0  0  0  0  0  0  0
   -2.9275    0.5907    1.0682 N   0  0  0  0  0  0  0  0  0  0  0  0
   -2.8092   -0.2546    1.9439 O   0  0  0  0  0  0  0  0  0  0  0  0
   -3.9867    1.0528    0.6493 O   0  0  0  0  0  0  0  0  0  0  0  0
    1.7137    2.5402   -1.2587 N   0  0  0  0  0  0  0  0  0  0  0  0
    2.6699    2.8966   -1.7084 N   0  0  0  0  0  0  0  0  0  0  0  0
    2.8095   -1.2062    1.4552 B   0  0  0  0  0  0  0  0  0  0  0  0
    2.8768   -2.0211    0.3543 F   0  0  0  0  0  0  0  0  0  0  0  0
    3.8170   -1.3702    2.3582 F   0  0  0  0  0  0  0  0  0  0  0  0
    2.9486    0.2296    0.9121 F   0  0  0  0  0  0  0  0  0  0  0  0
    1.5410   -1.2108    2.0400 F   0  0  0  0  0  0  0  0  0  0  0  0
  1  7  1  0  0  0  0
  2  1  2  0  0  0  0
  3  2  1  0  0  0  0
  4  3  2  0  0  0  0
  4  5  1  0  0  0  0
  5  6  2  0  0  0  0
  6  1  1  0  0  0  0
  6 11  1  0  0  0  0
  8 19  1  0  0  0  0
  9  4  1  0  0  0  0
 10  5  1  0  0  0  0
 11 12  2  0  0  0  0
 13 11  2  0  0  0  0
 14  3  1  0  0  0  0
 15 14  1  0  0  0  0
 16 20  1  0  0  0  0
 16 18  1  0  0  0  0
 17 16  1  0  0  0  0
M  RAD  3   2   2  14   2  15   3
M  END
