Coordinates from ORCA-job p-NO2-Ph-N2-X-BF4-B3LYPG-6-31G_dp-scan-d09-49-n400
 OpenBabel08281821043D

 20 19  0  0  0  0  0  0  0  0999 V2000
   -0.7860    0.8398    1.4386 C   0  0  0  0  0  0  0  0  0  0  0  0
    0.5215    1.0856    1.0266 C   0  0  0  0  0  0  0  0  0  0  0  0
    0.6785    1.6433   -0.2492 C   0  0  0  0  0  0  0  0  0  0  0  0
   -0.3714    1.9634   -1.1300 C   0  0  0  0  0  0  0  0  0  0  0  0
   -1.6590    1.7051   -0.6920 C   0  0  0  0  0  0  0  0  0  0  0  0
   -1.8357    1.1541    0.5819 C   0  0  0  0  0  0  0  0  0  0  0  0
   -0.9913    0.3960    2.4044 H   0  0  0  0  0  0  0  0  0  0  0  0
    1.4493    0.8394    1.5686 H   0  0  0  0  0  0  0  0  0  0  0  0
   -0.1773    2.3848   -2.1093 H   0  0  0  0  0  0  0  0  0  0  0  0
   -2.5230    1.9163   -1.3082 H   0  0  0  0  0  0  0  0  0  0  0  0
   -3.2262    0.8887    1.0342 N   0  0  0  0  0  0  0  0  0  0  0  0
   -3.3687    0.4277    2.1600 O   0  0  0  0  0  0  0  0  0  0  0  0
   -4.1281    1.1561    0.2456 O   0  0  0  0  0  0  0  0  0  0  0  0
    1.9705    1.9313   -0.6709 N   0  0  0  0  0  0  0  0  0  0  0  0
    2.9711    2.2385   -1.0392 N   0  0  0  0  0  0  0  0  0  0  0  0
    2.9659   -0.7459    0.6731 B   0  0  0  0  0  0  0  0  0  0  0  0
    2.6634   -0.4569   -0.6864 F   0  0  0  0  0  0  0  0  0  0  0  0
    4.1540   -1.4064    0.8019 F   0  0  0  0  0  0  0  0  0  0  0  0
    3.0501    0.5641    1.3289 F   0  0  0  0  0  0  0  0  0  0  0  0
    1.8853   -1.4062    1.2543 F   0  0  0  0  0  0  0  0  0  0  0  0
  1  7  1  0  0  0  0
  2  1  1  0  0  0  0
  2  8  1  0  0  0  0
  3  2  2  0  0  0  0
  4  5  2  0  0  0  0
  4  3  1  0  0  0  0
  5  6  1  0  0  0  0
  6 11  1  0  0  0  0
  6  1  2  0  0  0  0
  9  4  1  0  0  0  0
 10  5  1  0  0  0  0
 11 12  2  0  0  0  0
 13 11  2  0  0  0  0
 14  3  1  0  0  0  0
 15 14  1  0  0  0  0
 16 18  1  0  0  0  0
 16 20  1  0  0  0  0
 16 19  1  0  0  0  0
 17 16  1  0  0  0  0
M  RAD  2  14   2  15   3
M  END
