Coordinates from ORCA-job p-NO2-Ph-N2-X-BF4-B3LYPG-6-31G_dp-scan-d09-49-n400
 OpenBabel08281821043D

 20 19  0  0  0  0  0  0  0  0999 V2000
   -1.1459    0.9594    1.6987 C   0  0  0  0  0  0  0  0  0  0  0  0
    0.2125    1.2341    1.5902 C   0  0  0  0  0  0  0  0  0  0  0  0
    0.6865    1.6211    0.3322 C   0  0  0  0  0  0  0  0  0  0  0  0
   -0.1105    1.7191   -0.8149 C   0  0  0  0  0  0  0  0  0  0  0  0
   -1.4626    1.4369   -0.6849 C   0  0  0  0  0  0  0  0  0  0  0  0
   -1.9520    1.0696    0.5679 C   0  0  0  0  0  0  0  0  0  0  0  0
   -1.5825    0.6504    2.6396 H   0  0  0  0  0  0  0  0  0  0  0  0
    0.8795    1.1258    2.4345 H   0  0  0  0  0  0  0  0  0  0  0  0
    0.3295    1.9755   -1.7701 H   0  0  0  0  0  0  0  0  0  0  0  0
   -2.1347    1.4862   -1.5320 H   0  0  0  0  0  0  0  0  0  0  0  0
   -3.3991    0.7748    0.6996 N   0  0  0  0  0  0  0  0  0  0  0  0
   -3.8042    0.4499    1.8107 O   0  0  0  0  0  0  0  0  0  0  0  0
   -4.0846    0.8825   -0.3121 O   0  0  0  0  0  0  0  0  0  0  0  0
    2.0298    1.9748    0.1929 N   0  0  0  0  0  0  0  0  0  0  0  0
    3.0580    2.3711    0.0537 N   0  0  0  0  0  0  0  0  0  0  0  0
    3.1688   -0.5662   -0.0606 B   0  0  0  0  0  0  0  0  0  0  0  0
    2.1284   -0.2160   -0.9792 F   0  0  0  0  0  0  0  0  0  0  0  0
    3.4390   -1.9041   -0.0898 F   0  0  0  0  0  0  0  0  0  0  0  0
    4.2886    0.2304   -0.3775 F   0  0  0  0  0  0  0  0  0  0  0  0
    2.6984   -0.1563    1.2341 F   0  0  0  0  0  0  0  0  0  0  0  0
  1  7  1  0  0  0  0
  2  1  1  0  0  0  0
  2  8  1  0  0  0  0
  3  2  2  0  0  0  0
  4  5  2  0  0  0  0
  4  3  1  0  0  0  0
  5  6  1  0  0  0  0
  6 11  1  0  0  0  0
  6  1  2  0  0  0  0
  9  4  1  0  0  0  0
 10  5  1  0  0  0  0
 11 12  2  0  0  0  0
 13 11  2  0  0  0  0
 14  3  1  0  0  0  0
 15 14  1  0  0  0  0
 16 20  1  0  0  0  0
 17 16  1  0  0  0  0
 18 16  1  0  0  0  0
 19 16  1  0  0  0  0
M  RAD  2  14   2  15   3
M  END
