Coordinates from ORCA-job p-NO2-Ph-N2-X-BF4-B3LYPG-6-31G_dp-scan-d09-49-n400
 OpenBabel08281821043D

 20 19  0  0  0  0  0  0  0  0999 V2000
   -1.0235    0.5977    1.3234 C   0  0  0  0  0  0  0  0  0  0  0  0
    0.3132    0.7847    0.9831 C   0  0  0  0  0  0  0  0  0  0  0  0
    0.5670    1.5347   -0.1737 C   0  0  0  0  0  0  0  0  0  0  0  0
   -0.4252    2.0930   -0.9968 C   0  0  0  0  0  0  0  0  0  0  0  0
   -1.7486    1.8795   -0.6418 C   0  0  0  0  0  0  0  0  0  0  0  0
   -2.0165    1.1393    0.5110 C   0  0  0  0  0  0  0  0  0  0  0  0
   -1.3006    0.0307    2.2034 H   0  0  0  0  0  0  0  0  0  0  0  0
    1.1474    0.3785    1.5561 H   0  0  0  0  0  0  0  0  0  0  0  0
   -0.1613    2.6610   -1.8815 H   0  0  0  0  0  0  0  0  0  0  0  0
   -2.5669    2.2716   -1.2311 H   0  0  0  0  0  0  0  0  0  0  0  0
   -3.4375    0.9228    0.8858 N   0  0  0  0  0  0  0  0  0  0  0  0
   -3.6541    0.2769    1.9041 O   0  0  0  0  0  0  0  0  0  0  0  0
   -4.2878    1.4101    0.1470 O   0  0  0  0  0  0  0  0  0  0  0  0
    1.8894    1.7795   -0.5317 N   0  0  0  0  0  0  0  0  0  0  0  0
    2.9363    2.0348   -0.8135 N   0  0  0  0  0  0  0  0  0  0  0  0
    3.4268   -0.5720    0.6868 B   0  0  0  0  0  0  0  0  0  0  0  0
    2.3248   -0.6795   -0.2164 F   0  0  0  0  0  0  0  0  0  0  0  0
    4.0681   -1.7673    0.8391 F   0  0  0  0  0  0  0  0  0  0  0  0
    4.2875    0.4299    0.1612 F   0  0  0  0  0  0  0  0  0  0  0  0
    2.9047   -0.0871    1.9184 F   0  0  0  0  0  0  0  0  0  0  0  0
  1  7  1  0  0  0  0
  2  1  1  0  0  0  0
  2  8  1  0  0  0  0
  3  2  2  0  0  0  0
  4  5  2  0  0  0  0
  4  3  1  0  0  0  0
  5  6  1  0  0  0  0
  6 11  1  0  0  0  0
  6  1  2  0  0  0  0
  9  4  1  0  0  0  0
 10  5  1  0  0  0  0
 11 12  2  0  0  0  0
 13 11  2  0  0  0  0
 14  3  1  0  0  0  0
 15 14  1  0  0  0  0
 16 18  1  0  0  0  0
 16 20  1  0  0  0  0
 17 16  1  0  0  0  0
 19 16  1  0  0  0  0
M  RAD  2  14   2  15   3
M  END
