Coordinates from ORCA-job p-NO2-Ph-N2-X-BF4-B3LYPG-6-31G_dp-scan-d09-49-n400
 OpenBabel08281821043D

 20 19  0  0  0  0  0  0  0  0999 V2000
   -1.0203    0.5900    1.3024 C   0  0  0  0  0  0  0  0  0  0  0  0
    0.3133    0.7575    0.9389 C   0  0  0  0  0  0  0  0  0  0  0  0
    0.5572    1.5100   -0.2192 C   0  0  0  0  0  0  0  0  0  0  0  0
   -0.4426    2.0846   -1.0222 C   0  0  0  0  0  0  0  0  0  0  0  0
   -1.7623    1.8907   -0.6437 C   0  0  0  0  0  0  0  0  0  0  0  0
   -2.0198    1.1514    0.5121 C   0  0  0  0  0  0  0  0  0  0  0  0
   -1.2891    0.0244    2.1858 H   0  0  0  0  0  0  0  0  0  0  0  0
    1.1458    0.3310    1.5015 H   0  0  0  0  0  0  0  0  0  0  0  0
   -0.1864    2.6530   -1.9090 H   0  0  0  0  0  0  0  0  0  0  0  0
   -2.5853    2.2981   -1.2159 H   0  0  0  0  0  0  0  0  0  0  0  0
   -3.4367    0.9598    0.9156 N   0  0  0  0  0  0  0  0  0  0  0  0
   -3.6441    0.3143    1.9360 O   0  0  0  0  0  0  0  0  0  0  0  0
   -4.2927    1.4657    0.1961 O   0  0  0  0  0  0  0  0  0  0  0  0
    1.8748    1.7505   -0.5955 N   0  0  0  0  0  0  0  0  0  0  0  0
    2.9235    2.0000   -0.8758 N   0  0  0  0  0  0  0  0  0  0  0  0
    3.4474   -0.5671    0.7336 B   0  0  0  0  0  0  0  0  0  0  0  0
    2.3980   -0.6811   -0.2303 F   0  0  0  0  0  0  0  0  0  0  0  0
    4.1928   -1.7092    0.7970 F   0  0  0  0  0  0  0  0  0  0  0  0
    4.2361    0.5553    0.3484 F   0  0  0  0  0  0  0  0  0  0  0  0
    2.8335   -0.2603    1.9772 F   0  0  0  0  0  0  0  0  0  0  0  0
  1  7  1  0  0  0  0
  2  1  1  0  0  0  0
  2  8  1  0  0  0  0
  3  2  2  0  0  0  0
  4  5  2  0  0  0  0
  4  3  1  0  0  0  0
  5  6  1  0  0  0  0
  6 11  1  0  0  0  0
  6  1  2  0  0  0  0
  9  4  1  0  0  0  0
 10  5  1  0  0  0  0
 11 12  2  0  0  0  0
 13 11  2  0  0  0  0
 14  3  1  0  0  0  0
 15 14  1  0  0  0  0
 16 18  1  0  0  0  0
 16 20  1  0  0  0  0
 17 16  1  0  0  0  0
 19 16  1  0  0  0  0
M  RAD  2  14   2  15   3
M  END
