Coordinates from ORCA-job p-NO2-Ph-N2-X-BF4-B3LYPG-6-31G_dp-scan-d09-49-n400
 OpenBabel08281821043D

 20 19  0  0  0  0  0  0  0  0999 V2000
   -0.9899    0.6045    1.2924 C   0  0  0  0  0  0  0  0  0  0  0  0
    0.3384    0.7809    0.9126 C   0  0  0  0  0  0  0  0  0  0  0  0
    0.5608    1.5296   -0.2526 C   0  0  0  0  0  0  0  0  0  0  0  0
   -0.4526    2.0977   -1.0431 C   0  0  0  0  0  0  0  0  0  0  0  0
   -1.7657    1.8982   -0.6460 C   0  0  0  0  0  0  0  0  0  0  0  0
   -2.0030    1.1572    0.5133 C   0  0  0  0  0  0  0  0  0  0  0  0
   -1.2433    0.0374    2.1794 H   0  0  0  0  0  0  0  0  0  0  0  0
    1.1779    0.3564    1.4690 H   0  0  0  0  0  0  0  0  0  0  0  0
   -0.2110    2.6649   -1.9347 H   0  0  0  0  0  0  0  0  0  0  0  0
   -2.5987    2.3003   -1.2071 H   0  0  0  0  0  0  0  0  0  0  0  0
   -3.4138    0.9528    0.9322 N   0  0  0  0  0  0  0  0  0  0  0  0
   -3.6047    0.2991    1.9505 O   0  0  0  0  0  0  0  0  0  0  0  0
   -4.2817    1.4570    0.2258 O   0  0  0  0  0  0  0  0  0  0  0  0
    1.8720    1.7613   -0.6507 N   0  0  0  0  0  0  0  0  0  0  0  0
    2.9319    1.9684   -0.9228 N   0  0  0  0  0  0  0  0  0  0  0  0
    3.4112   -0.5847    0.7694 B   0  0  0  0  0  0  0  0  0  0  0  0
    2.4009   -0.6948   -0.2336 F   0  0  0  0  0  0  0  0  0  0  0  0
    4.2383   -1.6711    0.7694 F   0  0  0  0  0  0  0  0  0  0  0  0
    4.1257    0.6201    0.4956 F   0  0  0  0  0  0  0  0  0  0  0  0
    2.7503   -0.4164    2.0139 F   0  0  0  0  0  0  0  0  0  0  0  0
  1  7  1  0  0  0  0
  2  1  1  0  0  0  0
  2  8  1  0  0  0  0
  3  2  2  0  0  0  0
  4  5  2  0  0  0  0
  4  3  1  0  0  0  0
  5  6  1  0  0  0  0
  6 11  1  0  0  0  0
  6  1  2  0  0  0  0
  9  4  1  0  0  0  0
 10  5  1  0  0  0  0
 11 12  2  0  0  0  0
 13 11  2  0  0  0  0
 14  3  1  0  0  0  0
 15 14  1  0  0  0  0
 16 20  1  0  0  0  0
 17 16  1  0  0  0  0
 18 16  1  0  0  0  0
 19 16  1  0  0  0  0
M  RAD  2  14   2  15   3
M  END
