Coordinates from ORCA-job p-NO2-Ph-N2-X-BF4-B3LYPG-6-31G_dp-scan-d09-49-n400
 OpenBabel08281821043D

 20 19  0  0  0  0  0  0  0  0999 V2000
   -0.9747    0.6175    1.2919 C   0  0  0  0  0  0  0  0  0  0  0  0
    0.3504    0.7932    0.9011 C   0  0  0  0  0  0  0  0  0  0  0  0
    0.5630    1.5329   -0.2720 C   0  0  0  0  0  0  0  0  0  0  0  0
   -0.4571    2.0913   -1.0606 C   0  0  0  0  0  0  0  0  0  0  0  0
   -1.7668    1.8937   -0.6515 C   0  0  0  0  0  0  0  0  0  0  0  0
   -1.9943    1.1630    0.5164 C   0  0  0  0  0  0  0  0  0  0  0  0
   -1.2198    0.0570    2.1854 H   0  0  0  0  0  0  0  0  0  0  0  0
    1.1910    0.3698    1.4567 H   0  0  0  0  0  0  0  0  0  0  0  0
   -0.2233    2.6502   -1.9594 H   0  0  0  0  0  0  0  0  0  0  0  0
   -2.6049    2.2893   -1.2098 H   0  0  0  0  0  0  0  0  0  0  0  0
   -3.4016    0.9621    0.9490 N   0  0  0  0  0  0  0  0  0  0  0  0
   -3.5834    0.3203    1.9764 O   0  0  0  0  0  0  0  0  0  0  0  0
   -4.2755    1.4572    0.2438 O   0  0  0  0  0  0  0  0  0  0  0  0
    1.8718    1.7620   -0.6791 N   0  0  0  0  0  0  0  0  0  0  0  0
    2.9375    1.9517   -0.9397 N   0  0  0  0  0  0  0  0  0  0  0  0
    3.3941   -0.5939    0.7820 B   0  0  0  0  0  0  0  0  0  0  0  0
    2.4345   -0.6924   -0.2702 F   0  0  0  0  0  0  0  0  0  0  0  0
    4.2950   -1.6185    0.7381 F   0  0  0  0  0  0  0  0  0  0  0  0
    4.0327    0.6763    0.6305 F   0  0  0  0  0  0  0  0  0  0  0  0
    2.6742   -0.5644    2.0039 F   0  0  0  0  0  0  0  0  0  0  0  0
  1  7  1  0  0  0  0
  2  1  1  0  0  0  0
  2  8  1  0  0  0  0
  3  2  2  0  0  0  0
  4  5  2  0  0  0  0
  4  3  1  0  0  0  0
  5  6  1  0  0  0  0
  6 11  1  0  0  0  0
  6  1  2  0  0  0  0
  9  4  1  0  0  0  0
 10  5  1  0  0  0  0
 11 12  2  0  0  0  0
 13 11  2  0  0  0  0
 14  3  1  0  0  0  0
 15 14  1  0  0  0  0
 16 20  1  0  0  0  0
 17 16  1  0  0  0  0
 18 16  1  0  0  0  0
 19 16  1  0  0  0  0
M  RAD  2  14   2  15   3
M  END
