Coordinates from ORCA-job p-NO2-Ph-N2-X-BF4-B3LYPG-6-31G_dp-scan-d09-49-n400
 OpenBabel08281821043D

 20 19  0  0  0  0  0  0  0  0999 V2000
   -0.9270    0.6565    1.3034 C   0  0  0  0  0  0  0  0  0  0  0  0
    0.3924    0.8310    0.8929 C   0  0  0  0  0  0  0  0  0  0  0  0
    0.5841    1.5424   -0.3014 C   0  0  0  0  0  0  0  0  0  0  0  0
   -0.4502    2.0697   -1.0927 C   0  0  0  0  0  0  0  0  0  0  0  0
   -1.7533    1.8743   -0.6624 C   0  0  0  0  0  0  0  0  0  0  0  0
   -1.9606    1.1753    0.5284 C   0  0  0  0  0  0  0  0  0  0  0  0
   -1.1552    0.1144    2.2125 H   0  0  0  0  0  0  0  0  0  0  0  0
    1.2278    0.4068    1.4512 H   0  0  0  0  0  0  0  0  0  0  0  0
   -0.2315    2.6037   -2.0101 H   0  0  0  0  0  0  0  0  0  0  0  0
   -2.6012    2.2470   -1.2217 H   0  0  0  0  0  0  0  0  0  0  0  0
   -3.3606    0.9765    0.9848 N   0  0  0  0  0  0  0  0  0  0  0  0
   -3.5235    0.3738    2.0386 O   0  0  0  0  0  0  0  0  0  0  0  0
   -4.2476    1.4348    0.2711 O   0  0  0  0  0  0  0  0  0  0  0  0
    1.8852    1.7688   -0.7297 N   0  0  0  0  0  0  0  0  0  0  0  0
    2.9562    1.9349   -0.9772 N   0  0  0  0  0  0  0  0  0  0  0  0
    3.3133   -0.6163    0.7912 B   0  0  0  0  0  0  0  0  0  0  0  0
    2.4994   -0.6864   -0.3773 F   0  0  0  0  0  0  0  0  0  0  0  0
    4.3990   -1.4396    0.7039 F   0  0  0  0  0  0  0  0  0  0  0  0
    3.7010    0.7601    0.9201 F   0  0  0  0  0  0  0  0  0  0  0  0
    2.4951   -0.9088    1.9072 F   0  0  0  0  0  0  0  0  0  0  0  0
  1  7  1  0  0  0  0
  2  1  1  0  0  0  0
  2  8  1  0  0  0  0
  3  2  2  0  0  0  0
  4  5  2  0  0  0  0
  4  3  1  0  0  0  0
  5  6  1  0  0  0  0
  6 11  1  0  0  0  0
  6  1  2  0  0  0  0
  9  4  1  0  0  0  0
 10  5  1  0  0  0  0
 11 12  2  0  0  0  0
 13 11  2  0  0  0  0
 14  3  1  0  0  0  0
 15 14  1  0  0  0  0
 16 19  1  0  0  0  0
 16 20  1  0  0  0  0
 17 16  1  0  0  0  0
 18 16  1  0  0  0  0
M  RAD  2  14   2  15   3
M  END
