Coordinates from ORCA-job p-NO2-Ph-N2-X-BF4-B3LYPG-6-31G_dp-scan-d09-49-n400
 OpenBabel08281821043D

 20 19  0  0  0  0  0  0  0  0999 V2000
   -0.9473    0.6394    1.2952 C   0  0  0  0  0  0  0  0  0  0  0  0
    0.3738    0.8129    0.8902 C   0  0  0  0  0  0  0  0  0  0  0  0
    0.5728    1.5380   -0.2946 C   0  0  0  0  0  0  0  0  0  0  0  0
   -0.4566    2.0807   -1.0819 C   0  0  0  0  0  0  0  0  0  0  0  0
   -1.7619    1.8855   -0.6581 C   0  0  0  0  0  0  0  0  0  0  0  0
   -1.9761    1.1720    0.5228 C   0  0  0  0  0  0  0  0  0  0  0  0
   -1.1814    0.0887    2.1977 H   0  0  0  0  0  0  0  0  0  0  0  0
    1.2109    0.3849    1.4454 H   0  0  0  0  0  0  0  0  0  0  0  0
   -0.2326    2.6260   -1.9914 H   0  0  0  0  0  0  0  0  0  0  0  0
   -2.6064    2.2694   -1.2149 H   0  0  0  0  0  0  0  0  0  0  0  0
   -3.3784    0.9740    0.9723 N   0  0  0  0  0  0  0  0  0  0  0  0
   -3.5478    0.3557    2.0161 O   0  0  0  0  0  0  0  0  0  0  0  0
   -4.2610    1.4482    0.2634 O   0  0  0  0  0  0  0  0  0  0  0  0
    1.8767    1.7635   -0.7162 N   0  0  0  0  0  0  0  0  0  0  0  0
    2.9496    1.9262   -0.9618 N   0  0  0  0  0  0  0  0  0  0  0  0
    3.3515   -0.6070    0.7927 B   0  0  0  0  0  0  0  0  0  0  0  0
    2.4773   -0.6918   -0.3303 F   0  0  0  0  0  0  0  0  0  0  0  0
    4.3735   -1.5080    0.7083 F   0  0  0  0  0  0  0  0  0  0  0  0
    3.8385    0.7419    0.8194 F   0  0  0  0  0  0  0  0  0  0  0  0
    2.5678   -0.7814    1.9587 F   0  0  0  0  0  0  0  0  0  0  0  0
  1  7  1  0  0  0  0
  2  1  1  0  0  0  0
  2  8  1  0  0  0  0
  3  2  2  0  0  0  0
  4  5  2  0  0  0  0
  4  3  1  0  0  0  0
  5  6  1  0  0  0  0
  6 11  1  0  0  0  0
  6  1  2  0  0  0  0
  9  4  1  0  0  0  0
 10  5  1  0  0  0  0
 11 12  2  0  0  0  0
 13 11  2  0  0  0  0
 14  3  1  0  0  0  0
 15 14  1  0  0  0  0
 16 19  1  0  0  0  0
 16 20  1  0  0  0  0
 17 16  1  0  0  0  0
 18 16  1  0  0  0  0
M  RAD  2  14   2  15   3
M  END
