Coordinates from ORCA-job p-NO2-Ph-N2-X-BF4-B3LYPG-6-31G_dp-scan-d09-49-n400
 OpenBabel08281821043D

 20 19  0  0  0  0  0  0  0  0999 V2000
   -0.8910    0.7175    1.3721 C   0  0  0  0  0  0  0  0  0  0  0  0
    0.4321    0.8979    0.9787 C   0  0  0  0  0  0  0  0  0  0  0  0
    0.6383    1.5417   -0.2485 C   0  0  0  0  0  0  0  0  0  0  0  0
   -0.3910    2.0047   -1.0883 C   0  0  0  0  0  0  0  0  0  0  0  0
   -1.6983    1.8089   -0.6724 C   0  0  0  0  0  0  0  0  0  0  0  0
   -1.9181    1.1726    0.5507 C   0  0  0  0  0  0  0  0  0  0  0  0
   -1.1266    0.2179    2.3032 H   0  0  0  0  0  0  0  0  0  0  0  0
    1.2658    0.5228    1.5636 H   0  0  0  0  0  0  0  0  0  0  0  0
   -0.1651    2.4899   -2.0306 H   0  0  0  0  0  0  0  0  0  0  0  0
   -2.5404    2.1346   -1.2688 H   0  0  0  0  0  0  0  0  0  0  0  0
   -3.3230    0.9706    0.9891 N   0  0  0  0  0  0  0  0  0  0  0  0
   -3.4966    0.4217    2.0702 O   0  0  0  0  0  0  0  0  0  0  0  0
   -4.2032    1.3729    0.2343 O   0  0  0  0  0  0  0  0  0  0  0  0
    1.9344    1.7881   -0.6899 N   0  0  0  0  0  0  0  0  0  0  0  0
    2.9251    2.0765   -1.0960 N   0  0  0  0  0  0  0  0  0  0  0  0
    3.1927   -0.6436    0.7386 B   0  0  0  0  0  0  0  0  0  0  0  0
    2.5129   -0.6173   -0.5194 F   0  0  0  0  0  0  0  0  0  0  0  0
    4.3795   -1.3160    0.6543 F   0  0  0  0  0  0  0  0  0  0  0  0
    3.3967    0.7372    1.0909 F   0  0  0  0  0  0  0  0  0  0  0  0
    2.3187   -1.1801    1.7014 F   0  0  0  0  0  0  0  0  0  0  0  0
  1  7  1  0  0  0  0
  2  1  1  0  0  0  0
  2  8  1  0  0  0  0
  3  2  2  0  0  0  0
  4  5  2  0  0  0  0
  4  3  1  0  0  0  0
  5  6  1  0  0  0  0
  6 11  1  0  0  0  0
  6  1  2  0  0  0  0
  9  4  1  0  0  0  0
 10  5  1  0  0  0  0
 11 12  2  0  0  0  0
 13 11  2  0  0  0  0
 14  3  1  0  0  0  0
 15 14  1  0  0  0  0
 16 19  1  0  0  0  0
 16 20  1  0  0  0  0
 17 16  1  0  0  0  0
 18 16  1  0  0  0  0
M  RAD  2  14   2  15   3
M  END
