Coordinates from ORCA-job p-NO2-Ph-N2-X-BF4-B3LYPG-6-31G_dp-scan-d09-49-n400
 OpenBabel08281821043D

 20 19  0  0  0  0  0  0  0  0999 V2000
   -1.0212    0.5978    1.3206 C   0  0  0  0  0  0  0  0  0  0  0  0
    0.3149    0.7842    0.9771 C   0  0  0  0  0  0  0  0  0  0  0  0
    0.5662    1.5347   -0.1800 C   0  0  0  0  0  0  0  0  0  0  0  0
   -0.4278    2.0946   -1.0000 C   0  0  0  0  0  0  0  0  0  0  0  0
   -1.7504    1.8819   -0.6418 C   0  0  0  0  0  0  0  0  0  0  0  0
   -2.0158    1.1405    0.5110 C   0  0  0  0  0  0  0  0  0  0  0  0
   -1.2964    0.0302    2.2007 H   0  0  0  0  0  0  0  0  0  0  0  0
    1.1501    0.3766    1.5482 H   0  0  0  0  0  0  0  0  0  0  0  0
   -0.1657    2.6632   -1.8848 H   0  0  0  0  0  0  0  0  0  0  0  0
   -2.5700    2.2752   -1.2284 H   0  0  0  0  0  0  0  0  0  0  0  0
   -3.4360    0.9241    0.8888 N   0  0  0  0  0  0  0  0  0  0  0  0
   -3.6506    0.2761    1.9062 O   0  0  0  0  0  0  0  0  0  0  0  0
   -4.2878    1.4134    0.1530 O   0  0  0  0  0  0  0  0  0  0  0  0
    1.8877    1.7784   -0.5413 N   0  0  0  0  0  0  0  0  0  0  0  0
    2.9354    2.0307   -0.8229 N   0  0  0  0  0  0  0  0  0  0  0  0
    3.4265   -0.5733    0.6942 B   0  0  0  0  0  0  0  0  0  0  0  0
    2.3290   -0.6808   -0.2144 F   0  0  0  0  0  0  0  0  0  0  0  0
    4.0780   -1.7643    0.8358 F   0  0  0  0  0  0  0  0  0  0  0  0
    4.2807    0.4416    0.1820 F   0  0  0  0  0  0  0  0  0  0  0  0
    2.8962   -0.1061    1.9288 F   0  0  0  0  0  0  0  0  0  0  0  0
  1  7  1  0  0  0  0
  2  1  1  0  0  0  0
  2  8  1  0  0  0  0
  3  2  2  0  0  0  0
  4  5  2  0  0  0  0
  4  3  1  0  0  0  0
  5  6  1  0  0  0  0
  6 11  1  0  0  0  0
  6  1  2  0  0  0  0
  9  4  1  0  0  0  0
 10  5  1  0  0  0  0
 11 12  2  0  0  0  0
 13 11  2  0  0  0  0
 14  3  1  0  0  0  0
 15 14  1  0  0  0  0
 16 18  1  0  0  0  0
 16 20  1  0  0  0  0
 17 16  1  0  0  0  0
 19 16  1  0  0  0  0
M  RAD  2  14   2  15   3
M  END
