Coordinates from ORCA-job p-NO2-Ph-N2-X-BF4-B3LYPG-6-31G_dp-scan-d09-49-n400
 OpenBabel08281821043D

 20 19  0  0  0  0  0  0  0  0999 V2000
   -1.1922    1.1076    1.7793 C   0  0  0  0  0  0  0  0  0  0  0  0
    0.1647    1.3905    1.7011 C   0  0  0  0  0  0  0  0  0  0  0  0
    0.7010    1.6213    0.4305 C   0  0  0  0  0  0  0  0  0  0  0  0
   -0.0270    1.5480   -0.7612 C   0  0  0  0  0  0  0  0  0  0  0  0
   -1.3841    1.2699   -0.6610 C   0  0  0  0  0  0  0  0  0  0  0  0
   -1.9374    1.0639    0.6014 C   0  0  0  0  0  0  0  0  0  0  0  0
   -1.6755    0.9112    2.7276 H   0  0  0  0  0  0  0  0  0  0  0  0
    0.7989    1.4022    2.5783 H   0  0  0  0  0  0  0  0  0  0  0  0
    0.4730    1.6596   -1.7134 H   0  0  0  0  0  0  0  0  0  0  0  0
   -2.0107    1.1958   -1.5405 H   0  0  0  0  0  0  0  0  0  0  0  0
   -3.3879    0.7714    0.6961 N   0  0  0  0  0  0  0  0  0  0  0  0
   -3.8483    0.5876    1.8182 O   0  0  0  0  0  0  0  0  0  0  0  0
   -4.0217    0.7428   -0.3536 O   0  0  0  0  0  0  0  0  0  0  0  0
    2.0474    1.9729    0.3511 N   0  0  0  0  0  0  0  0  0  0  0  0
    3.0937    2.3433    0.3056 N   0  0  0  0  0  0  0  0  0  0  0  0
    3.1104   -0.5383   -0.2747 B   0  0  0  0  0  0  0  0  0  0  0  0
    2.2400    0.0285   -1.2603 F   0  0  0  0  0  0  0  0  0  0  0  0
    3.3938   -1.8457   -0.5444 F   0  0  0  0  0  0  0  0  0  0  0  0
    4.2642    0.2756   -0.2280 F   0  0  0  0  0  0  0  0  0  0  0  0
    2.4407   -0.3894    0.9809 F   0  0  0  0  0  0  0  0  0  0  0  0
  1  7  1  0  0  0  0
  2  1  1  0  0  0  0
  2  8  1  0  0  0  0
  3  2  2  0  0  0  0
  4  5  2  0  0  0  0
  4  3  1  0  0  0  0
  5  6  1  0  0  0  0
  6 11  1  0  0  0  0
  6  1  2  0  0  0  0
  9  4  1  0  0  0  0
 10  5  1  0  0  0  0
 11 12  2  0  0  0  0
 13 11  2  0  0  0  0
 14  3  1  0  0  0  0
 15 14  1  0  0  0  0
 16 19  1  0  0  0  0
 16 20  1  0  0  0  0
 17 16  1  0  0  0  0
 18 16  1  0  0  0  0
M  RAD  2  14   2  15   3
M  END
