Coordinates from ORCA-job p-NO2-Ph-N2-X-BF4-B3LYPG-6-31G_dp-scan-d09-49-n400
 OpenBabel08281821043D

 20 19  0  0  0  0  0  0  0  0999 V2000
   -1.0514    0.5903    1.3431 C   0  0  0  0  0  0  0  0  0  0  0  0
    0.2911    0.7695    1.0239 C   0  0  0  0  0  0  0  0  0  0  0  0
    0.5696    1.5156   -0.1291 C   0  0  0  0  0  0  0  0  0  0  0  0
   -0.4063    2.0728   -0.9718 C   0  0  0  0  0  0  0  0  0  0  0  0
   -1.7369    1.8655   -0.6395 C   0  0  0  0  0  0  0  0  0  0  0  0
   -2.0284    1.1339    0.5127 C   0  0  0  0  0  0  0  0  0  0  0  0
   -1.3460    0.0293    2.2211 H   0  0  0  0  0  0  0  0  0  0  0  0
    1.1130    0.3647    1.6114 H   0  0  0  0  0  0  0  0  0  0  0  0
   -0.1252    2.6357   -1.8544 H   0  0  0  0  0  0  0  0  0  0  0  0
   -2.5429    2.2578   -1.2455 H   0  0  0  0  0  0  0  0  0  0  0  0
   -3.4560    0.9302    0.8676 N   0  0  0  0  0  0  0  0  0  0  0  0
   -3.6922    0.2989    1.8908 O   0  0  0  0  0  0  0  0  0  0  0  0
   -4.2919    1.4133    0.1099 O   0  0  0  0  0  0  0  0  0  0  0  0
    1.8981    1.7675   -0.4641 N   0  0  0  0  0  0  0  0  0  0  0  0
    2.9349    2.0556   -0.7508 N   0  0  0  0  0  0  0  0  0  0  0  0
    3.4480   -0.5540    0.6309 B   0  0  0  0  0  0  0  0  0  0  0  0
    2.3259   -0.6827   -0.2446 F   0  0  0  0  0  0  0  0  0  0  0  0
    4.0397   -1.7605    0.8706 F   0  0  0  0  0  0  0  0  0  0  0  0
    4.3403    0.3680    0.0236 F   0  0  0  0  0  0  0  0  0  0  0  0
    2.9596    0.0473    1.8271 F   0  0  0  0  0  0  0  0  0  0  0  0
  1  7  1  0  0  0  0
  2  1  1  0  0  0  0
  2  8  1  0  0  0  0
  3  2  2  0  0  0  0
  4  5  2  0  0  0  0
  4  3  1  0  0  0  0
  5  6  1  0  0  0  0
  6 11  1  0  0  0  0
  6  1  2  0  0  0  0
  9  4  1  0  0  0  0
 10  5  1  0  0  0  0
 11 12  2  0  0  0  0
 13 11  2  0  0  0  0
 14  3  1  0  0  0  0
 15 14  1  0  0  0  0
 16 18  1  0  0  0  0
 16 20  1  0  0  0  0
 17 16  1  0  0  0  0
 19 16  1  0  0  0  0
M  RAD  2  14   2  15   3
M  END
