Coordinates from ORCA-job p-NO2-Ph-N2-X-BF4-B3LYPG-6-31G_dp-scan-d09-49-n400
 OpenBabel08281821043D

 20 19  0  0  0  0  0  0  0  0999 V2000
   -1.1224    0.7055    1.5069 C   0  0  0  0  0  0  0  0  0  0  0  0
    0.2379    0.9107    1.3056 C   0  0  0  0  0  0  0  0  0  0  0  0
    0.6149    1.5354    0.1093 C   0  0  0  0  0  0  0  0  0  0  0  0
   -0.2914    1.9500   -0.8786 C   0  0  0  0  0  0  0  0  0  0  0  0
   -1.6430    1.7217   -0.6605 C   0  0  0  0  0  0  0  0  0  0  0  0
   -2.0294    1.1084    0.5294 C   0  0  0  0  0  0  0  0  0  0  0  0
   -1.4856    0.2276    2.4080 H   0  0  0  0  0  0  0  0  0  0  0  0
    0.9740    0.5904    2.0306 H   0  0  0  0  0  0  0  0  0  0  0  0
    0.0600    2.4209   -1.7892 H   0  0  0  0  0  0  0  0  0  0  0  0
   -2.3918    2.0099   -1.3867 H   0  0  0  0  0  0  0  0  0  0  0  0
   -3.4758    0.8762    0.7634 N   0  0  0  0  0  0  0  0  0  0  0  0
   -3.7917    0.3446    1.8217 O   0  0  0  0  0  0  0  0  0  0  0  0
   -4.2474    1.2375   -0.1197 O   0  0  0  0  0  0  0  0  0  0  0  0
    1.9552    1.8366   -0.1482 N   0  0  0  0  0  0  0  0  0  0  0  0
    2.9637    2.2198   -0.4138 N   0  0  0  0  0  0  0  0  0  0  0  0
    3.4130   -0.5563    0.3125 B   0  0  0  0  0  0  0  0  0  0  0  0
    2.2316   -0.5818   -0.4943 F   0  0  0  0  0  0  0  0  0  0  0  0
    3.8188   -1.8142    0.6545 F   0  0  0  0  0  0  0  0  0  0  0  0
    4.3980    0.1650   -0.3962 F   0  0  0  0  0  0  0  0  0  0  0  0
    3.0545    0.2109    1.4780 F   0  0  0  0  0  0  0  0  0  0  0  0
  1  7  1  0  0  0  0
  2  1  1  0  0  0  0
  2  8  1  0  0  0  0
  3  2  2  0  0  0  0
  4  5  2  0  0  0  0
  4  3  1  0  0  0  0
  5  6  1  0  0  0  0
  6 11  1  0  0  0  0
  6  1  2  0  0  0  0
  9  4  1  0  0  0  0
 10  5  1  0  0  0  0
 11 12  2  0  0  0  0
 13 11  2  0  0  0  0
 14  3  1  0  0  0  0
 15 14  1  0  0  0  0
 16 18  1  0  0  0  0
 16 20  1  0  0  0  0
 17 16  1  0  0  0  0
 19 16  1  0  0  0  0
M  RAD  2  14   2  15   3
M  END
