Coordinates from ORCA-job p-NO2-Ph-N2-X-BF4-B3LYPG-6-31G_dp-scan-d09-49-n400
 OpenBabel08281821043D

 20 19  0  0  0  0  0  0  0  0999 V2000
   -1.1076    0.6566    1.4578 C   0  0  0  0  0  0  0  0  0  0  0  0
    0.2498    0.8510    1.2275 C   0  0  0  0  0  0  0  0  0  0  0  0
    0.6024    1.5242    0.0503 C   0  0  0  0  0  0  0  0  0  0  0  0
   -0.3232    1.9942   -0.8945 C   0  0  0  0  0  0  0  0  0  0  0  0
   -1.6715    1.7747   -0.6489 C   0  0  0  0  0  0  0  0  0  0  0  0
   -2.0340    1.1148    0.5239 C   0  0  0  0  0  0  0  0  0  0  0  0
   -1.4537    0.1448    2.3470 H   0  0  0  0  0  0  0  0  0  0  0  0
    1.0094    0.4953    1.9116 H   0  0  0  0  0  0  0  0  0  0  0  0
    0.0102    2.5007   -1.7928 H   0  0  0  0  0  0  0  0  0  0  0  0
   -2.4360    2.1039   -1.3405 H   0  0  0  0  0  0  0  0  0  0  0  0
   -3.4774    0.8922    0.7868 N   0  0  0  0  0  0  0  0  0  0  0  0
   -3.7729    0.3205    1.8298 O   0  0  0  0  0  0  0  0  0  0  0  0
   -4.2666    1.3008   -0.0594 O   0  0  0  0  0  0  0  0  0  0  0  0
    1.9415    1.8062   -0.2312 N   0  0  0  0  0  0  0  0  0  0  0  0
    2.9538    2.1670   -0.5151 N   0  0  0  0  0  0  0  0  0  0  0  0
    3.4332   -0.5466    0.4003 B   0  0  0  0  0  0  0  0  0  0  0  0
    2.2518   -0.6296   -0.4014 F   0  0  0  0  0  0  0  0  0  0  0  0
    3.8745   -1.7813    0.7798 F   0  0  0  0  0  0  0  0  0  0  0  0
    4.3971    0.1781   -0.3361 F   0  0  0  0  0  0  0  0  0  0  0  0
    3.0622    0.2512    1.5381 F   0  0  0  0  0  0  0  0  0  0  0  0
  1  7  1  0  0  0  0
  2  1  1  0  0  0  0
  2  8  1  0  0  0  0
  3  2  2  0  0  0  0
  4  5  2  0  0  0  0
  4  3  1  0  0  0  0
  5  6  1  0  0  0  0
  6 11  1  0  0  0  0
  6  1  2  0  0  0  0
  9  4  1  0  0  0  0
 10  5  1  0  0  0  0
 11 12  2  0  0  0  0
 13 11  2  0  0  0  0
 14  3  1  0  0  0  0
 15 14  1  0  0  0  0
 16 18  1  0  0  0  0
 16 20  1  0  0  0  0
 17 16  1  0  0  0  0
 19 16  1  0  0  0  0
M  RAD  2  14   2  15   3
M  END
