Coordinates from ORCA-job p-NO2-Ph-N2-X-BF4-B3LYPG-6-31G_dp-scan-d09-49-n400
 OpenBabel08281821043D

 20 19  0  0  0  0  0  0  0  0999 V2000
   -0.4739    0.5882    0.8770 C   0  0  0  0  0  0  0  0  0  0  0  0
    0.7166    1.0654    0.3103 C   0  0  0  0  0  0  0  0  0  0  0  0
    0.5523    2.0565   -0.6689 C   0  0  0  0  0  0  0  0  0  0  0  0
   -0.6722    2.6051   -1.1204 C   0  0  0  0  0  0  0  0  0  0  0  0
   -1.8143    2.1098   -0.5282 C   0  0  0  0  0  0  0  0  0  0  0  0
   -1.6871    1.1133    0.4564 C   0  0  0  0  0  0  0  0  0  0  0  0
   -0.4132   -0.1950    1.6244 H   0  0  0  0  0  0  0  0  0  0  0  0
    1.7953    0.6631    0.6165 H   0  0  0  0  0  0  0  0  0  0  0  0
   -0.7081    3.3693   -1.8888 H   0  0  0  0  0  0  0  0  0  0  0  0
   -2.7994    2.4633   -0.8031 H   0  0  0  0  0  0  0  0  0  0  0  0
   -2.9437    0.6006    1.0700 N   0  0  0  0  0  0  0  0  0  0  0  0
   -2.8331   -0.2465    1.9447 O   0  0  0  0  0  0  0  0  0  0  0  0
   -3.9977    1.0721    0.6490 O   0  0  0  0  0  0  0  0  0  0  0  0
    1.7225    2.5149   -1.2428 N   0  0  0  0  0  0  0  0  0  0  0  0
    2.6854    2.8590   -1.6871 N   0  0  0  0  0  0  0  0  0  0  0  0
    2.8372   -1.1804    1.4316 B   0  0  0  0  0  0  0  0  0  0  0  0
    2.9422   -2.0321    0.3580 F   0  0  0  0  0  0  0  0  0  0  0  0
    3.8089   -1.3352    2.3800 F   0  0  0  0  0  0  0  0  0  0  0  0
    2.9812    0.2226    0.8740 F   0  0  0  0  0  0  0  0  0  0  0  0
    1.5442   -1.1953    1.9801 F   0  0  0  0  0  0  0  0  0  0  0  0
  1  7  1  0  0  0  0
  2  8  1  0  0  0  0
  2  1  2  0  0  0  0
  3  2  1  0  0  0  0
  4  3  2  0  0  0  0
  4  5  1  0  0  0  0
  5  6  2  0  0  0  0
  6  1  1  0  0  0  0
  6 11  1  0  0  0  0
  9  4  1  0  0  0  0
 10  5  1  0  0  0  0
 11 12  2  0  0  0  0
 13 11  2  0  0  0  0
 14  3  1  0  0  0  0
 15 14  1  0  0  0  0
 16 20  1  0  0  0  0
 16 18  1  0  0  0  0
 17 16  1  0  0  0  0
 19 16  1  0  0  0  0
M  RAD  2  14   2  15   3
M  END
