Coordinates from ORCA-job p-NO2-Ph-N2-X-BF4-B3LYPG-6-31G_dp-scan-d09-49-n400
 OpenBabel08281821043D

 20 19  0  0  0  0  0  0  0  0999 V2000
   -0.9286    0.6558    1.3034 C   0  0  0  0  0  0  0  0  0  0  0  0
    0.3908    0.8303    0.8933 C   0  0  0  0  0  0  0  0  0  0  0  0
    0.5832    1.5420   -0.3006 C   0  0  0  0  0  0  0  0  0  0  0  0
   -0.4506    2.0701   -1.0920 C   0  0  0  0  0  0  0  0  0  0  0  0
   -1.7539    1.8748   -0.6622 C   0  0  0  0  0  0  0  0  0  0  0  0
   -1.9618    1.1753    0.5281 C   0  0  0  0  0  0  0  0  0  0  0  0
   -1.1573    0.1135    2.2123 H   0  0  0  0  0  0  0  0  0  0  0  0
    1.2267    0.4063    1.4511 H   0  0  0  0  0  0  0  0  0  0  0  0
   -0.2314    2.6044   -2.0092 H   0  0  0  0  0  0  0  0  0  0  0  0
   -2.6015    2.2480   -1.2216 H   0  0  0  0  0  0  0  0  0  0  0  0
   -3.3620    0.9767    0.9840 N   0  0  0  0  0  0  0  0  0  0  0  0
   -3.5255    0.3735    2.0375 O   0  0  0  0  0  0  0  0  0  0  0  0
   -4.2486    1.4357    0.2702 O   0  0  0  0  0  0  0  0  0  0  0  0
    1.8846    1.7679   -0.7284 N   0  0  0  0  0  0  0  0  0  0  0  0
    2.9555    1.9336   -0.9764 N   0  0  0  0  0  0  0  0  0  0  0  0
    3.3162   -0.6160    0.7908 B   0  0  0  0  0  0  0  0  0  0  0  0
    2.4994   -0.6863   -0.3754 F   0  0  0  0  0  0  0  0  0  0  0  0
    4.3992   -1.4427    0.7033 F   0  0  0  0  0  0  0  0  0  0  0  0
    3.7094    0.7594    0.9157 F   0  0  0  0  0  0  0  0  0  0  0  0
    2.4992   -0.9036    1.9090 F   0  0  0  0  0  0  0  0  0  0  0  0
  1  7  1  0  0  0  0
  2  1  1  0  0  0  0
  2  8  1  0  0  0  0
  3  2  2  0  0  0  0
  4  5  2  0  0  0  0
  4  3  1  0  0  0  0
  5  6  1  0  0  0  0
  6 11  1  0  0  0  0
  6  1  2  0  0  0  0
  9  4  1  0  0  0  0
 10  5  1  0  0  0  0
 11 12  2  0  0  0  0
 13 11  2  0  0  0  0
 14  3  1  0  0  0  0
 15 14  1  0  0  0  0
 16 19  1  0  0  0  0
 16 20  1  0  0  0  0
 17 16  1  0  0  0  0
 18 16  1  0  0  0  0
M  RAD  2  14   2  15   3
M  END
