Coordinates from ORCA-job p-NO2-Ph-N2-X-BF4-B3LYPG-6-31G_dp-scan-d09-49-n400
 OpenBabel08281821043D

 20 19  0  0  0  0  0  0  0  0999 V2000
   -0.9177    0.6620    1.3103 C   0  0  0  0  0  0  0  0  0  0  0  0
    0.4017    0.8333    0.8988 C   0  0  0  0  0  0  0  0  0  0  0  0
    0.5936    1.5359   -0.3003 C   0  0  0  0  0  0  0  0  0  0  0  0
   -0.4411    2.0593   -1.0947 C   0  0  0  0  0  0  0  0  0  0  0  0
   -1.7440    1.8684   -0.6622 C   0  0  0  0  0  0  0  0  0  0  0  0
   -1.9513    1.1769    0.5329 C   0  0  0  0  0  0  0  0  0  0  0  0
   -1.1456    0.1248    2.2225 H   0  0  0  0  0  0  0  0  0  0  0  0
    1.2359    0.4114    1.4587 H   0  0  0  0  0  0  0  0  0  0  0  0
   -0.2226    2.5870   -2.0158 H   0  0  0  0  0  0  0  0  0  0  0  0
   -2.5916    2.2387   -1.2235 H   0  0  0  0  0  0  0  0  0  0  0  0
   -3.3513    0.9814    0.9907 N   0  0  0  0  0  0  0  0  0  0  0  0
   -3.5144    0.3853    2.0482 O   0  0  0  0  0  0  0  0  0  0  0  0
   -4.2380    1.4387    0.2759 O   0  0  0  0  0  0  0  0  0  0  0  0
    1.8924    1.7615   -0.7360 N   0  0  0  0  0  0  0  0  0  0  0  0
    2.9500    1.9497   -1.0171 N   0  0  0  0  0  0  0  0  0  0  0  0
    3.2909   -0.6168    0.7913 B   0  0  0  0  0  0  0  0  0  0  0  0
    2.5166   -0.6805   -0.4054 F   0  0  0  0  0  0  0  0  0  0  0  0
    4.4182   -1.3830    0.7074 F   0  0  0  0  0  0  0  0  0  0  0  0
    3.6055    0.7709    0.9811 F   0  0  0  0  0  0  0  0  0  0  0  0
    2.4557   -0.9862    1.8699 F   0  0  0  0  0  0  0  0  0  0  0  0
  1  7  1  0  0  0  0
  2  1  1  0  0  0  0
  2  8  1  0  0  0  0
  3  2  2  0  0  0  0
  4  5  2  0  0  0  0
  4  3  1  0  0  0  0
  5  6  1  0  0  0  0
  6 11  1  0  0  0  0
  6  1  2  0  0  0  0
  9  4  1  0  0  0  0
 10  5  1  0  0  0  0
 11 12  2  0  0  0  0
 13 11  2  0  0  0  0
 14  3  1  0  0  0  0
 15 14  1  0  0  0  0
 16 19  1  0  0  0  0
 16 20  1  0  0  0  0
 17 16  1  0  0  0  0
 18 16  1  0  0  0  0
M  RAD  2  14   2  15   3
M  END
