Coordinates from ORCA-job p-NO2-Ph-N2-X-BF4-B3LYPG-6-31G_dp-scan-d09-49-n400
 OpenBabel08281821043D

 20 19  0  0  0  0  0  0  0  0999 V2000
   -1.3448    1.4310    1.8761 C   0  0  0  0  0  0  0  0  0  0  0  0
    0.0223    1.6684    1.8586 C   0  0  0  0  0  0  0  0  0  0  0  0
    0.6901    1.5258    0.6370 C   0  0  0  0  0  0  0  0  0  0  0  0
    0.0849    1.1392   -0.5637 C   0  0  0  0  0  0  0  0  0  0  0  0
   -1.2877    0.9254   -0.5274 C   0  0  0  0  0  0  0  0  0  0  0  0
   -1.9695    1.0782    0.6796 C   0  0  0  0  0  0  0  0  0  0  0  0
   -1.9276    1.5124    2.7845 H   0  0  0  0  0  0  0  0  0  0  0  0
    0.5865    1.9241    2.7469 H   0  0  0  0  0  0  0  0  0  0  0  0
    0.7050    0.9836   -1.4401 H   0  0  0  0  0  0  0  0  0  0  0  0
   -1.8313    0.6240   -1.4138 H   0  0  0  0  0  0  0  0  0  0  0  0
   -3.4343    0.8428    0.6994 N   0  0  0  0  0  0  0  0  0  0  0  0
   -4.0043    0.9668    1.7790 O   0  0  0  0  0  0  0  0  0  0  0  0
   -3.9675    0.5468   -0.3640 O   0  0  0  0  0  0  0  0  0  0  0  0
    2.0512    1.8105    0.6643 N   0  0  0  0  0  0  0  0  0  0  0  0
    3.1232    2.0872    0.7672 N   0  0  0  0  0  0  0  0  0  0  0  0
    3.1693   -0.4315   -0.7294 B   0  0  0  0  0  0  0  0  0  0  0  0
    2.6658    0.5712   -1.6233 F   0  0  0  0  0  0  0  0  0  0  0  0
    3.5966   -1.5380   -1.4025 F   0  0  0  0  0  0  0  0  0  0  0  0
    4.2027    0.1757    0.0290 F   0  0  0  0  0  0  0  0  0  0  0  0
    2.1126   -0.7249    0.1758 F   0  0  0  0  0  0  0  0  0  0  0  0
  1  7  1  0  0  0  0
  2  1  1  0  0  0  0
  2  8  1  0  0  0  0
  3 14  1  0  0  0  0
  3  2  2  0  0  0  0
  4  5  2  0  0  0  0
  4  3  1  0  0  0  0
  5  6  1  0  0  0  0
  6 11  1  0  0  0  0
  6  1  2  0  0  0  0
  9  4  1  0  0  0  0
 10  5  1  0  0  0  0
 11 12  2  0  0  0  0
 13 11  2  0  0  0  0
 14 15  1  0  0  0  0
 16 19  1  0  0  0  0
 16 20  1  0  0  0  0
 17 16  1  0  0  0  0
 18 16  1  0  0  0  0
M  RAD  2  14   2  15   3
M  END
