Coordinates from ORCA-job p-NO2-Ph-N2-X-BF4-B3LYPG-6-31G_dp-scan-d09-49-n400
 OpenBabel08281821043D

 20 19  0  0  0  0  0  0  0  0999 V2000
   -0.8314    0.8530    1.4783 C   0  0  0  0  0  0  0  0  0  0  0  0
    0.4885    1.0853    1.1033 C   0  0  0  0  0  0  0  0  0  0  0  0
    0.6963    1.6141   -0.1769 C   0  0  0  0  0  0  0  0  0  0  0  0
   -0.3273    1.9081   -1.0956 C   0  0  0  0  0  0  0  0  0  0  0  0
   -1.6311    1.6603   -0.6988 C   0  0  0  0  0  0  0  0  0  0  0  0
   -1.8532    1.1452    0.5808 C   0  0  0  0  0  0  0  0  0  0  0  0
   -1.0686    0.4375    2.4492 H   0  0  0  0  0  0  0  0  0  0  0  0
    1.3504    0.8462    1.7168 H   0  0  0  0  0  0  0  0  0  0  0  0
   -0.0997    2.3056   -2.0777 H   0  0  0  0  0  0  0  0  0  0  0  0
   -2.4716    1.8568   -1.3515 H   0  0  0  0  0  0  0  0  0  0  0  0
   -3.2569    0.8976    0.9978 N   0  0  0  0  0  0  0  0  0  0  0  0
   -3.4351    0.4699    2.1319 O   0  0  0  0  0  0  0  0  0  0  0  0
   -4.1332    1.1461    0.1751 O   0  0  0  0  0  0  0  0  0  0  0  0
    1.9916    1.9249   -0.5792 N   0  0  0  0  0  0  0  0  0  0  0  0
    2.9667    2.2917   -0.9604 N   0  0  0  0  0  0  0  0  0  0  0  0
    2.9942   -0.7127    0.5916 B   0  0  0  0  0  0  0  0  0  0  0  0
    2.5760   -0.4441   -0.7468 F   0  0  0  0  0  0  0  0  0  0  0  0
    4.1481   -1.4447    0.6197 F   0  0  0  0  0  0  0  0  0  0  0  0
    3.2042    0.5913    1.1951 F   0  0  0  0  0  0  0  0  0  0  0  0
    1.9353   -1.3137    1.2803 F   0  0  0  0  0  0  0  0  0  0  0  0
  1  7  1  0  0  0  0
  2  1  1  0  0  0  0
  2  8  1  0  0  0  0
  3  2  2  0  0  0  0
  4  5  2  0  0  0  0
  4  3  1  0  0  0  0
  5  6  1  0  0  0  0
  6 11  1  0  0  0  0
  6  1  2  0  0  0  0
  9  4  1  0  0  0  0
 10  5  1  0  0  0  0
 11 12  2  0  0  0  0
 13 11  2  0  0  0  0
 14  3  1  0  0  0  0
 15 14  1  0  0  0  0
 16 18  1  0  0  0  0
 16 19  1  0  0  0  0
 16 20  1  0  0  0  0
 17 16  1  0  0  0  0
M  RAD  2  14   2  15   3
M  END
