Coordinates from ORCA-job p-NO2-Ph-N2-X-BF4-B3LYPG-6-31G_dp-scan-d09-49-n400
 OpenBabel08281821043D

 20 19  0  0  0  0  0  0  0  0999 V2000
   -0.9623    0.6215    1.2870 C   0  0  0  0  0  0  0  0  0  0  0  0
    0.3607    0.7948    0.8873 C   0  0  0  0  0  0  0  0  0  0  0  0
    0.5656    1.5330   -0.2881 C   0  0  0  0  0  0  0  0  0  0  0  0
   -0.4593    2.0929   -1.0694 C   0  0  0  0  0  0  0  0  0  0  0  0
   -1.7664    1.8984   -0.6508 C   0  0  0  0  0  0  0  0  0  0  0  0
   -1.9867    1.1681    0.5187 C   0  0  0  0  0  0  0  0  0  0  0  0
   -1.2016    0.0606    2.1818 H   0  0  0  0  0  0  0  0  0  0  0  0
    1.1998    0.3640    1.4391 H   0  0  0  0  0  0  0  0  0  0  0  0
   -0.2308    2.6505   -1.9703 H   0  0  0  0  0  0  0  0  0  0  0  0
   -2.6078    2.2951   -1.2034 H   0  0  0  0  0  0  0  0  0  0  0  0
   -3.3913    0.9674    0.9601 N   0  0  0  0  0  0  0  0  0  0  0  0
   -3.5668    0.3247    1.9881 O   0  0  0  0  0  0  0  0  0  0  0  0
   -4.2695    1.4633    0.2608 O   0  0  0  0  0  0  0  0  0  0  0  0
    1.8713    1.7556   -0.7069 N   0  0  0  0  0  0  0  0  0  0  0  0
    2.9409    1.9276   -0.9627 N   0  0  0  0  0  0  0  0  0  0  0  0
    3.3784   -0.5964    0.7967 B   0  0  0  0  0  0  0  0  0  0  0  0
    2.4526   -0.7013   -0.2834 F   0  0  0  0  0  0  0  0  0  0  0  0
    4.3363   -1.5668    0.7364 F   0  0  0  0  0  0  0  0  0  0  0  0
    3.9487    0.7140    0.7119 F   0  0  0  0  0  0  0  0  0  0  0  0
    2.6312   -0.6481    2.0000 F   0  0  0  0  0  0  0  0  0  0  0  0
  1  7  1  0  0  0  0
  2  1  1  0  0  0  0
  2  8  1  0  0  0  0
  3  2  2  0  0  0  0
  4  5  2  0  0  0  0
  4  3  1  0  0  0  0
  5  6  1  0  0  0  0
  6 11  1  0  0  0  0
  6  1  2  0  0  0  0
  9  4  1  0  0  0  0
 10  5  1  0  0  0  0
 11 12  2  0  0  0  0
 13 11  2  0  0  0  0
 14  3  1  0  0  0  0
 15 14  1  0  0  0  0
 16 20  1  0  0  0  0
 17 16  1  0  0  0  0
 18 16  1  0  0  0  0
 19 16  1  0  0  0  0
M  RAD  2  14   2  15   3
M  END
