Coordinates from ORCA-job p-NO2-Ph-N2-X-BF4-B3LYPG-6-31G_dp-scan-d09-49-n400
 OpenBabel08281821043D

 20 19  0  0  0  0  0  0  0  0999 V2000
   -1.1271    0.7206    1.5211 C   0  0  0  0  0  0  0  0  0  0  0  0
    0.2340    0.9288    1.3282 C   0  0  0  0  0  0  0  0  0  0  0  0
    0.6184    1.5384    0.1265 C   0  0  0  0  0  0  0  0  0  0  0  0
   -0.2817    1.9364   -0.8737 C   0  0  0  0  0  0  0  0  0  0  0  0
   -1.6342    1.7059   -0.6634 C   0  0  0  0  0  0  0  0  0  0  0  0
   -2.0279    1.1067    0.5313 C   0  0  0  0  0  0  0  0  0  0  0  0
   -1.4956    0.2533    2.4256 H   0  0  0  0  0  0  0  0  0  0  0  0
    0.9628    0.6203    2.0653 H   0  0  0  0  0  0  0  0  0  0  0  0
    0.0753    2.3961   -1.7877 H   0  0  0  0  0  0  0  0  0  0  0  0
   -2.3781    1.9817   -1.3994 H   0  0  0  0  0  0  0  0  0  0  0  0
   -3.4751    0.8718    0.7568 N   0  0  0  0  0  0  0  0  0  0  0  0
   -3.7973    0.3524    1.8193 O   0  0  0  0  0  0  0  0  0  0  0  0
   -4.2410    1.2184   -0.1370 O   0  0  0  0  0  0  0  0  0  0  0  0
    1.9590    1.8444   -0.1245 N   0  0  0  0  0  0  0  0  0  0  0  0
    2.9668    2.2328   -0.3844 N   0  0  0  0  0  0  0  0  0  0  0  0
    3.4067   -0.5588    0.2869 B   0  0  0  0  0  0  0  0  0  0  0  0
    2.2264   -0.5676   -0.5220 F   0  0  0  0  0  0  0  0  0  0  0  0
    3.8048   -1.8232    0.6140 F   0  0  0  0  0  0  0  0  0  0  0  0
    4.3968    0.1650   -0.4115 F   0  0  0  0  0  0  0  0  0  0  0  0
    3.0500    0.1953    1.4617 F   0  0  0  0  0  0  0  0  0  0  0  0
  1  7  1  0  0  0  0
  2  1  1  0  0  0  0
  2  8  1  0  0  0  0
  3  2  2  0  0  0  0
  4  5  2  0  0  0  0
  4  3  1  0  0  0  0
  5  6  1  0  0  0  0
  6 11  1  0  0  0  0
  6  1  2  0  0  0  0
  9  4  1  0  0  0  0
 10  5  1  0  0  0  0
 11 12  2  0  0  0  0
 13 11  2  0  0  0  0
 14  3  1  0  0  0  0
 15 14  1  0  0  0  0
 16 18  1  0  0  0  0
 16 20  1  0  0  0  0
 17 16  1  0  0  0  0
 19 16  1  0  0  0  0
M  RAD  2  14   2  15   3
M  END
