Coordinates from ORCA-job p-NO2-Ph-N2-X-BF4-B3LYPG-6-31G_dp-scan-d09-49-n400
 OpenBabel08281821043D

 20 19  0  0  0  0  0  0  0  0999 V2000
   -0.8521    0.8349    1.4675 C   0  0  0  0  0  0  0  0  0  0  0  0
    0.4714    1.0577    1.0996 C   0  0  0  0  0  0  0  0  0  0  0  0
    0.6889    1.5995   -0.1736 C   0  0  0  0  0  0  0  0  0  0  0  0
   -0.3307    1.9184   -1.0879 C   0  0  0  0  0  0  0  0  0  0  0  0
   -1.6389    1.6812   -0.6979 C   0  0  0  0  0  0  0  0  0  0  0  0
   -1.8697    1.1503    0.5727 C   0  0  0  0  0  0  0  0  0  0  0  0
   -1.0957    0.4082    2.4321 H   0  0  0  0  0  0  0  0  0  0  0  0
    1.3131    0.7930    1.7265 H   0  0  0  0  0  0  0  0  0  0  0  0
   -0.0963    2.3269   -2.0638 H   0  0  0  0  0  0  0  0  0  0  0  0
   -2.4750    1.8979   -1.3499 H   0  0  0  0  0  0  0  0  0  0  0  0
   -3.2766    0.9101    0.9827 N   0  0  0  0  0  0  0  0  0  0  0  0
   -3.4612    0.4606    2.1072 O   0  0  0  0  0  0  0  0  0  0  0  0
   -4.1488    1.1867    0.1646 O   0  0  0  0  0  0  0  0  0  0  0  0
    1.9857    1.9016   -0.5807 N   0  0  0  0  0  0  0  0  0  0  0  0
    2.9576    2.2672   -0.9706 N   0  0  0  0  0  0  0  0  0  0  0  0
    3.0389   -0.7001    0.6056 B   0  0  0  0  0  0  0  0  0  0  0  0
    2.4916   -0.4883   -0.6990 F   0  0  0  0  0  0  0  0  0  0  0  0
    4.1886   -1.4373    0.5505 F   0  0  0  0  0  0  0  0  0  0  0  0
    3.3016    0.6221    1.1302 F   0  0  0  0  0  0  0  0  0  0  0  0
    2.0506   -1.2718    1.4170 F   0  0  0  0  0  0  0  0  0  0  0  0
  1  7  1  0  0  0  0
  2  1  1  0  0  0  0
  2  8  1  0  0  0  0
  3  2  2  0  0  0  0
  4  5  2  0  0  0  0
  4  3  1  0  0  0  0
  5  6  1  0  0  0  0
  6 11  1  0  0  0  0
  6  1  2  0  0  0  0
  9  4  1  0  0  0  0
 10  5  1  0  0  0  0
 11 12  2  0  0  0  0
 13 11  2  0  0  0  0
 14  3  1  0  0  0  0
 15 14  1  0  0  0  0
 16 19  1  0  0  0  0
 16 20  1  0  0  0  0
 17 16  1  0  0  0  0
 18 16  1  0  0  0  0
M  RAD  2  14   2  15   3
M  END
