Coordinates from ORCA-job p-NO2-Ph-N2-X-BF4-B3LYPG-6-31G_dp-scan-d09-49-n400
 OpenBabel08281821043D

 20 19  0  0  0  0  0  0  0  0999 V2000
   -1.3495    1.4371    1.8771 C   0  0  0  0  0  0  0  0  0  0  0  0
    0.0181    1.6720    1.8624 C   0  0  0  0  0  0  0  0  0  0  0  0
    0.6894    1.5216    0.6435 C   0  0  0  0  0  0  0  0  0  0  0  0
    0.0868    1.1304   -0.5572 C   0  0  0  0  0  0  0  0  0  0  0  0
   -1.2864    0.9194   -0.5237 C   0  0  0  0  0  0  0  0  0  0  0  0
   -1.9713    1.0791    0.6807 C   0  0  0  0  0  0  0  0  0  0  0  0
   -1.9348    1.5244    2.7834 H   0  0  0  0  0  0  0  0  0  0  0  0
    0.5796    1.9322    2.7511 H   0  0  0  0  0  0  0  0  0  0  0  0
    0.7091    0.9712   -1.4315 H   0  0  0  0  0  0  0  0  0  0  0  0
   -1.8280    0.6150   -1.4101 H   0  0  0  0  0  0  0  0  0  0  0  0
   -3.4365    0.8459    0.6976 N   0  0  0  0  0  0  0  0  0  0  0  0
   -4.0093    0.9761    1.7751 O   0  0  0  0  0  0  0  0  0  0  0  0
   -3.9671    0.5450   -0.3656 O   0  0  0  0  0  0  0  0  0  0  0  0
    2.0513    1.8027    0.6733 N   0  0  0  0  0  0  0  0  0  0  0  0
    3.1236    2.0779    0.7777 N   0  0  0  0  0  0  0  0  0  0  0  0
    3.1735   -0.4282   -0.7398 B   0  0  0  0  0  0  0  0  0  0  0  0
    2.6659    0.5749   -1.6307 F   0  0  0  0  0  0  0  0  0  0  0  0
    3.6004   -1.5333   -1.4153 F   0  0  0  0  0  0  0  0  0  0  0  0
    4.2082    0.1796    0.0165 F   0  0  0  0  0  0  0  0  0  0  0  0
    2.1198   -0.7246    0.1683 F   0  0  0  0  0  0  0  0  0  0  0  0
  1  7  1  0  0  0  0
  2  1  1  0  0  0  0
  2  8  1  0  0  0  0
  3 14  1  0  0  0  0
  3  2  2  0  0  0  0
  4  5  2  0  0  0  0
  4  3  1  0  0  0  0
  5  6  1  0  0  0  0
  6 11  1  0  0  0  0
  6  1  2  0  0  0  0
  9  4  1  0  0  0  0
 10  5  1  0  0  0  0
 11 12  2  0  0  0  0
 13 11  2  0  0  0  0
 14 15  1  0  0  0  0
 16 19  1  0  0  0  0
 16 20  1  0  0  0  0
 17 16  1  0  0  0  0
 18 16  1  0  0  0  0
M  RAD  2  14   2  15   3
M  END
