Coordinates from ORCA-job p-NO2-Ph-N2-X-BF4-B3LYPG-6-31G_dp-scan-d09-49-n400
 OpenBabel08281821043D

 20 19  0  0  0  0  0  0  0  0999 V2000
   -1.0218    0.5910    1.3055 C   0  0  0  0  0  0  0  0  0  0  0  0
    0.3125    0.7604    0.9454 C   0  0  0  0  0  0  0  0  0  0  0  0
    0.5582    1.5119   -0.2127 C   0  0  0  0  0  0  0  0  0  0  0  0
   -0.4403    2.0839   -1.0192 C   0  0  0  0  0  0  0  0  0  0  0  0
   -1.7607    1.8879   -0.6443 C   0  0  0  0  0  0  0  0  0  0  0  0
   -2.0202    1.1495    0.5117 C   0  0  0  0  0  0  0  0  0  0  0  0
   -1.2921    0.0260    2.1888 H   0  0  0  0  0  0  0  0  0  0  0  0
    1.1444    0.3367    1.5107 H   0  0  0  0  0  0  0  0  0  0  0  0
   -0.1826    2.6516   -1.9059 H   0  0  0  0  0  0  0  0  0  0  0  0
   -2.5827    2.2931   -1.2193 H   0  0  0  0  0  0  0  0  0  0  0  0
   -3.4378    0.9559    0.9115 N   0  0  0  0  0  0  0  0  0  0  0  0
   -3.6467    0.3135    1.9336 O   0  0  0  0  0  0  0  0  0  0  0  0
   -4.2927    1.4602    0.1897 O   0  0  0  0  0  0  0  0  0  0  0  0
    1.8765    1.7541   -0.5858 N   0  0  0  0  0  0  0  0  0  0  0  0
    2.9246    2.0061   -0.8658 N   0  0  0  0  0  0  0  0  0  0  0  0
    3.4466   -0.5675    0.7262 B   0  0  0  0  0  0  0  0  0  0  0  0
    2.3911   -0.6793   -0.2313 F   0  0  0  0  0  0  0  0  0  0  0  0
    4.1786   -1.7175    0.7984 F   0  0  0  0  0  0  0  0  0  0  0  0
    4.2456    0.5415    0.3260 F   0  0  0  0  0  0  0  0  0  0  0  0
    2.8426   -0.2402    1.9695 F   0  0  0  0  0  0  0  0  0  0  0  0
  1  7  1  0  0  0  0
  2  1  1  0  0  0  0
  2  8  1  0  0  0  0
  3  2  2  0  0  0  0
  4  5  2  0  0  0  0
  4  3  1  0  0  0  0
  5  6  1  0  0  0  0
  6 11  1  0  0  0  0
  6  1  2  0  0  0  0
  9  4  1  0  0  0  0
 10  5  1  0  0  0  0
 11 12  2  0  0  0  0
 13 11  2  0  0  0  0
 14  3  1  0  0  0  0
 15 14  1  0  0  0  0
 16 18  1  0  0  0  0
 16 20  1  0  0  0  0
 17 16  1  0  0  0  0
 19 16  1  0  0  0  0
M  RAD  2  14   2  15   3
M  END
