Coordinates from ORCA-job p-NO2-Ph-N2-X-BF4-B3LYPG-6-31G_dp-scan-d09-49-n400
 OpenBabel08281821043D

 20 19  0  0  0  0  0  0  0  0999 V2000
   -1.0988    0.6210    1.4210 C   0  0  0  0  0  0  0  0  0  0  0  0
    0.2562    0.8066    1.1690 C   0  0  0  0  0  0  0  0  0  0  0  0
    0.5930    1.5126    0.0069 C   0  0  0  0  0  0  0  0  0  0  0  0
   -0.3447    2.0239   -0.9046 C   0  0  0  0  0  0  0  0  0  0  0  0
   -1.6903    1.8127   -0.6384 C   0  0  0  0  0  0  0  0  0  0  0  0
   -2.0372    1.1196    0.5204 C   0  0  0  0  0  0  0  0  0  0  0  0
   -1.4337    0.0862    2.3009 H   0  0  0  0  0  0  0  0  0  0  0  0
    1.0317    0.4286    1.8238 H   0  0  0  0  0  0  0  0  0  0  0  0
   -0.0228    2.5552   -1.7928 H   0  0  0  0  0  0  0  0  0  0  0  0
   -2.4645    2.1727   -1.3031 H   0  0  0  0  0  0  0  0  0  0  0  0
   -3.4781    0.9059    0.8045 N   0  0  0  0  0  0  0  0  0  0  0  0
   -3.7609    0.3055    1.8348 O   0  0  0  0  0  0  0  0  0  0  0  0
   -4.2782    1.3494   -0.0135 O   0  0  0  0  0  0  0  0  0  0  0  0
    1.9306    1.7789   -0.2919 N   0  0  0  0  0  0  0  0  0  0  0  0
    2.9447    2.1246   -0.5894 N   0  0  0  0  0  0  0  0  0  0  0  0
    3.4484   -0.5373    0.4632 B   0  0  0  0  0  0  0  0  0  0  0  0
    2.2707   -0.6693   -0.3363 F   0  0  0  0  0  0  0  0  0  0  0  0
    3.9231   -1.7513    0.8687 F   0  0  0  0  0  0  0  0  0  0  0  0
    4.3928    0.1960   -0.2908 F   0  0  0  0  0  0  0  0  0  0  0  0
    3.0610    0.2772    1.5806 F   0  0  0  0  0  0  0  0  0  0  0  0
  1  7  1  0  0  0  0
  2  1  1  0  0  0  0
  2  8  1  0  0  0  0
  3  2  2  0  0  0  0
  4  5  2  0  0  0  0
  4  3  1  0  0  0  0
  5  6  1  0  0  0  0
  6 11  1  0  0  0  0
  6  1  2  0  0  0  0
  9  4  1  0  0  0  0
 10  5  1  0  0  0  0
 11 12  2  0  0  0  0
 13 11  2  0  0  0  0
 14  3  1  0  0  0  0
 15 14  1  0  0  0  0
 16 18  1  0  0  0  0
 16 20  1  0  0  0  0
 17 16  1  0  0  0  0
 19 16  1  0  0  0  0
M  RAD  2  14   2  15   3
M  END
