Coordinates from ORCA-job p-NO2-Ph-N2-X-BF4-B3LYPG-6-31G_dp-scan-d09-49-n400
 OpenBabel08281821043D

 20 19  0  0  0  0  0  0  0  0999 V2000
   -0.8935    0.7112    1.3676 C   0  0  0  0  0  0  0  0  0  0  0  0
    0.4298    0.8886    0.9730 C   0  0  0  0  0  0  0  0  0  0  0  0
    0.6361    1.5372   -0.2516 C   0  0  0  0  0  0  0  0  0  0  0  0
   -0.3928    2.0075   -1.0878 C   0  0  0  0  0  0  0  0  0  0  0  0
   -1.7002    1.8144   -0.6708 C   0  0  0  0  0  0  0  0  0  0  0  0
   -1.9203    1.1734    0.5498 C   0  0  0  0  0  0  0  0  0  0  0  0
   -1.1294    0.2085    2.2970 H   0  0  0  0  0  0  0  0  0  0  0  0
    1.2625    0.5078    1.5560 H   0  0  0  0  0  0  0  0  0  0  0  0
   -0.1667    2.4962   -2.0283 H   0  0  0  0  0  0  0  0  0  0  0  0
   -2.5420    2.1456   -1.2644 H   0  0  0  0  0  0  0  0  0  0  0  0
   -3.3253    0.9742    0.9894 N   0  0  0  0  0  0  0  0  0  0  0  0
   -3.4991    0.4209    2.0682 O   0  0  0  0  0  0  0  0  0  0  0  0
   -4.2052    1.3830    0.2378 O   0  0  0  0  0  0  0  0  0  0  0  0
    1.9324    1.7811   -0.6942 N   0  0  0  0  0  0  0  0  0  0  0  0
    2.9218    2.0702   -1.1028 N   0  0  0  0  0  0  0  0  0  0  0  0
    3.2001   -0.6394    0.7443 B   0  0  0  0  0  0  0  0  0  0  0  0
    2.5142   -0.6222   -0.5107 F   0  0  0  0  0  0  0  0  0  0  0  0
    4.3874   -1.3105    0.6588 F   0  0  0  0  0  0  0  0  0  0  0  0
    3.4024    0.7432    1.0874 F   0  0  0  0  0  0  0  0  0  0  0  0
    2.3309   -1.1723    1.7140 F   0  0  0  0  0  0  0  0  0  0  0  0
  1  7  1  0  0  0  0
  2  1  1  0  0  0  0
  2  8  1  0  0  0  0
  3  2  2  0  0  0  0
  4  5  2  0  0  0  0
  4  3  1  0  0  0  0
  5  6  1  0  0  0  0
  6 11  1  0  0  0  0
  6  1  2  0  0  0  0
  9  4  1  0  0  0  0
 10  5  1  0  0  0  0
 11 12  2  0  0  0  0
 13 11  2  0  0  0  0
 14  3  1  0  0  0  0
 15 14  1  0  0  0  0
 16 19  1  0  0  0  0
 16 20  1  0  0  0  0
 17 16  1  0  0  0  0
 18 16  1  0  0  0  0
M  RAD  2  14   2  15   3
M  END
