Coordinates from ORCA-job p-NO2-Ph-N2-X-BF4-B3LYPG-6-31G_dp-scan-d09-49-n400
 OpenBabel08281821043D

 20 19  0  0  0  0  0  0  0  0999 V2000
   -0.7888    0.8413    1.4428 C   0  0  0  0  0  0  0  0  0  0  0  0
    0.5195    1.0873    1.0340 C   0  0  0  0  0  0  0  0  0  0  0  0
    0.6809    1.6421   -0.2424 C   0  0  0  0  0  0  0  0  0  0  0  0
   -0.3667    1.9589   -1.1269 C   0  0  0  0  0  0  0  0  0  0  0  0
   -1.6556    1.7004   -0.6926 C   0  0  0  0  0  0  0  0  0  0  0  0
   -1.8361    1.1525    0.5820 C   0  0  0  0  0  0  0  0  0  0  0  0
   -0.9967    0.3997    2.4090 H   0  0  0  0  0  0  0  0  0  0  0  0
    1.4425    0.8427    1.5811 H   0  0  0  0  0  0  0  0  0  0  0  0
   -0.1699    2.3782   -2.1065 H   0  0  0  0  0  0  0  0  0  0  0  0
   -2.5177    1.9095   -1.3122 H   0  0  0  0  0  0  0  0  0  0  0  0
   -3.2276    0.8869    1.0307 N   0  0  0  0  0  0  0  0  0  0  0  0
   -3.3731    0.4289    2.1573 O   0  0  0  0  0  0  0  0  0  0  0  0
   -4.1274    1.1519    0.2388 O   0  0  0  0  0  0  0  0  0  0  0  0
    1.9734    1.9322   -0.6618 N   0  0  0  0  0  0  0  0  0  0  0  0
    2.9720    2.2449   -1.0307 N   0  0  0  0  0  0  0  0  0  0  0  0
    2.9650   -0.7429    0.6653 B   0  0  0  0  0  0  0  0  0  0  0  0
    2.6556   -0.4557   -0.6935 F   0  0  0  0  0  0  0  0  0  0  0  0
    4.1499   -1.4102    0.7877 F   0  0  0  0  0  0  0  0  0  0  0  0
    3.0599    0.5670    1.3169 F   0  0  0  0  0  0  0  0  0  0  0  0
    1.8840   -1.3971    1.2539 F   0  0  0  0  0  0  0  0  0  0  0  0
  1  7  1  0  0  0  0
  2  1  1  0  0  0  0
  2  8  1  0  0  0  0
  3  2  2  0  0  0  0
  4  5  2  0  0  0  0
  4  3  1  0  0  0  0
  5  6  1  0  0  0  0
  6 11  1  0  0  0  0
  6  1  2  0  0  0  0
  9  4  1  0  0  0  0
 10  5  1  0  0  0  0
 11 12  2  0  0  0  0
 13 11  2  0  0  0  0
 14  3  1  0  0  0  0
 15 14  1  0  0  0  0
 16 18  1  0  0  0  0
 16 20  1  0  0  0  0
 16 19  1  0  0  0  0
 17 16  1  0  0  0  0
M  RAD  2  14   2  15   3
M  END
