Coordinates from ORCA-job p-NO2-Ph-N2-X-BF4-B3LYPG-6-31G_dp-scan-d09-49-n400
 OpenBabel08281821043D

 20 19  0  0  0  0  0  0  0  0999 V2000
   -0.9837    0.6155    1.2980 C   0  0  0  0  0  0  0  0  0  0  0  0
    0.3437    0.7955    0.9172 C   0  0  0  0  0  0  0  0  0  0  0  0
    0.5631    1.5366   -0.2535 C   0  0  0  0  0  0  0  0  0  0  0  0
   -0.4524    2.0934   -1.0491 C   0  0  0  0  0  0  0  0  0  0  0  0
   -1.7647    1.8909   -0.6506 C   0  0  0  0  0  0  0  0  0  0  0  0
   -1.9990    1.1578    0.5143 C   0  0  0  0  0  0  0  0  0  0  0  0
   -1.2346    0.0538    2.1891 H   0  0  0  0  0  0  0  0  0  0  0  0
    1.1847    0.3795    1.4776 H   0  0  0  0  0  0  0  0  0  0  0  0
   -0.2132    2.6544   -1.9452 H   0  0  0  0  0  0  0  0  0  0  0  0
   -2.5995    2.2848   -1.2150 H   0  0  0  0  0  0  0  0  0  0  0  0
   -3.4090    0.9509    0.9347 N   0  0  0  0  0  0  0  0  0  0  0  0
   -3.5972    0.3051    1.9585 O   0  0  0  0  0  0  0  0  0  0  0  0
   -4.2789    1.4452    0.2239 O   0  0  0  0  0  0  0  0  0  0  0  0
    1.8739    1.7696   -0.6517 N   0  0  0  0  0  0  0  0  0  0  0  0
    2.9360    1.9732   -0.9173 N   0  0  0  0  0  0  0  0  0  0  0  0
    3.4009   -0.5929    0.7662 B   0  0  0  0  0  0  0  0  0  0  0  0
    2.4023   -0.6892   -0.2497 F   0  0  0  0  0  0  0  0  0  0  0  0
    4.2440   -1.6667    0.7445 F   0  0  0  0  0  0  0  0  0  0  0  0
    4.1008    0.6298    0.5333 F   0  0  0  0  0  0  0  0  0  0  0  0
    2.7256   -0.4687    2.0078 F   0  0  0  0  0  0  0  0  0  0  0  0
  1  7  1  0  0  0  0
  2  1  1  0  0  0  0
  2  8  1  0  0  0  0
  3  2  2  0  0  0  0
  4  5  2  0  0  0  0
  4  3  1  0  0  0  0
  5  6  1  0  0  0  0
  6 11  1  0  0  0  0
  6  1  2  0  0  0  0
  9  4  1  0  0  0  0
 10  5  1  0  0  0  0
 11 12  2  0  0  0  0
 13 11  2  0  0  0  0
 14  3  1  0  0  0  0
 15 14  1  0  0  0  0
 16 20  1  0  0  0  0
 17 16  1  0  0  0  0
 18 16  1  0  0  0  0
 19 16  1  0  0  0  0
M  RAD  2  14   2  15   3
M  END
