Coordinates from ORCA-job p-NO2-Ph-N2-X-BF4-B3LYPG-6-31G_dp-scan-d09-49-n400
 OpenBabel08281821043D

 20 19  0  0  0  0  0  0  0  0999 V2000
   -1.1049    0.6516    1.4526 C   0  0  0  0  0  0  0  0  0  0  0  0
    0.2519    0.8458    1.2185 C   0  0  0  0  0  0  0  0  0  0  0  0
    0.6015    1.5240    0.0435 C   0  0  0  0  0  0  0  0  0  0  0  0
   -0.3262    1.9989   -0.8969 C   0  0  0  0  0  0  0  0  0  0  0  0
   -1.6739    1.7795   -0.6480 C   0  0  0  0  0  0  0  0  0  0  0  0
   -2.0335    1.1150    0.5233 C   0  0  0  0  0  0  0  0  0  0  0  0
   -1.4487    0.1363    2.3405 H   0  0  0  0  0  0  0  0  0  0  0  0
    1.0154    0.4867    1.8968 H   0  0  0  0  0  0  0  0  0  0  0  0
    0.0050    2.5090   -1.7940 H   0  0  0  0  0  0  0  0  0  0  0  0
   -2.4402    2.1123   -1.3357 H   0  0  0  0  0  0  0  0  0  0  0  0
   -3.4763    0.8929    0.7895 N   0  0  0  0  0  0  0  0  0  0  0  0
   -3.7695    0.3173    1.8310 O   0  0  0  0  0  0  0  0  0  0  0  0
   -4.2675    1.3059   -0.0526 O   0  0  0  0  0  0  0  0  0  0  0  0
    1.9404    1.8045   -0.2390 N   0  0  0  0  0  0  0  0  0  0  0  0
    2.9532    2.1635   -0.5235 N   0  0  0  0  0  0  0  0  0  0  0  0
    3.4328   -0.5456    0.4098 B   0  0  0  0  0  0  0  0  0  0  0  0
    2.2514   -0.6335   -0.3919 F   0  0  0  0  0  0  0  0  0  0  0  0
    3.8758   -1.7788    0.7927 F   0  0  0  0  0  0  0  0  0  0  0  0
    4.3946    0.1787   -0.3287 F   0  0  0  0  0  0  0  0  0  0  0  0
    3.0614    0.2549    1.5449 F   0  0  0  0  0  0  0  0  0  0  0  0
  1  7  1  0  0  0  0
  2  1  1  0  0  0  0
  2  8  1  0  0  0  0
  3  2  2  0  0  0  0
  4  5  2  0  0  0  0
  4  3  1  0  0  0  0
  5  6  1  0  0  0  0
  6 11  1  0  0  0  0
  6  1  2  0  0  0  0
  9  4  1  0  0  0  0
 10  5  1  0  0  0  0
 11 12  2  0  0  0  0
 13 11  2  0  0  0  0
 14  3  1  0  0  0  0
 15 14  1  0  0  0  0
 16 18  1  0  0  0  0
 16 20  1  0  0  0  0
 17 16  1  0  0  0  0
 19 16  1  0  0  0  0
M  RAD  2  14   2  15   3
M  END
