Coordinates from ORCA-job p-NO2-Ph-N2-X-BF4-B3LYPG-6-31G_dp-scan-d09-49-n400
 OpenBabel08281821043D

 20 19  0  0  0  0  0  0  0  0999 V2000
   -0.9230    0.6586    1.3044 C   0  0  0  0  0  0  0  0  0  0  0  0
    0.3959    0.8315    0.8919 C   0  0  0  0  0  0  0  0  0  0  0  0
    0.5864    1.5401   -0.3041 C   0  0  0  0  0  0  0  0  0  0  0  0
   -0.4488    2.0668   -1.0949 C   0  0  0  0  0  0  0  0  0  0  0  0
   -1.7513    1.8736   -0.6622 C   0  0  0  0  0  0  0  0  0  0  0  0
   -1.9573    1.1769    0.5301 C   0  0  0  0  0  0  0  0  0  0  0  0
   -1.1501    0.1180    2.2147 H   0  0  0  0  0  0  0  0  0  0  0  0
    1.2312    0.4073    1.4497 H   0  0  0  0  0  0  0  0  0  0  0  0
   -0.2309    2.5988   -2.0138 H   0  0  0  0  0  0  0  0  0  0  0  0
   -2.5996    2.2461   -1.2209 H   0  0  0  0  0  0  0  0  0  0  0  0
   -3.3568    0.9798    0.9889 N   0  0  0  0  0  0  0  0  0  0  0  0
   -3.5188    0.3784    2.0436 O   0  0  0  0  0  0  0  0  0  0  0  0
   -4.2445    1.4382    0.2759 O   0  0  0  0  0  0  0  0  0  0  0  0
    1.8866    1.7654   -0.7355 N   0  0  0  0  0  0  0  0  0  0  0  0
    2.9560    1.9336   -0.9869 N   0  0  0  0  0  0  0  0  0  0  0  0
    3.3058   -0.6174    0.7923 B   0  0  0  0  0  0  0  0  0  0  0  0
    2.5123   -0.6881   -0.3897 F   0  0  0  0  0  0  0  0  0  0  0  0
    4.4132   -1.4120    0.7100 F   0  0  0  0  0  0  0  0  0  0  0  0
    3.6580    0.7668    0.9481 F   0  0  0  0  0  0  0  0  0  0  0  0
    2.4787   -0.9438    1.8915 F   0  0  0  0  0  0  0  0  0  0  0  0
  1  7  1  0  0  0  0
  2  1  1  0  0  0  0
  2  8  1  0  0  0  0
  3  2  2  0  0  0  0
  4  5  2  0  0  0  0
  4  3  1  0  0  0  0
  5  6  1  0  0  0  0
  6 11  1  0  0  0  0
  6  1  2  0  0  0  0
  9  4  1  0  0  0  0
 10  5  1  0  0  0  0
 11 12  2  0  0  0  0
 13 11  2  0  0  0  0
 14  3  1  0  0  0  0
 15 14  1  0  0  0  0
 16 19  1  0  0  0  0
 16 20  1  0  0  0  0
 17 16  1  0  0  0  0
 18 16  1  0  0  0  0
M  RAD  2  14   2  15   3
M  END
