Coordinates from ORCA-job p-NO2-Ph-N2-X-BF4-B3LYPG-6-31G_dp-scan-d09-49-n400
 OpenBabel08281821043D

 20 19  0  0  0  0  0  0  0  0999 V2000
   -1.0410    0.5942    1.3360 C   0  0  0  0  0  0  0  0  0  0  0  0
    0.2993    0.7764    1.0086 C   0  0  0  0  0  0  0  0  0  0  0  0
    0.5683    1.5234   -0.1463 C   0  0  0  0  0  0  0  0  0  0  0  0
   -0.4140    2.0797   -0.9823 C   0  0  0  0  0  0  0  0  0  0  0  0
   -1.7419    1.8697   -0.6414 C   0  0  0  0  0  0  0  0  0  0  0  0
   -2.0243    1.1359    0.5119 C   0  0  0  0  0  0  0  0  0  0  0  0
   -1.3289    0.0317    2.2153 H   0  0  0  0  0  0  0  0  0  0  0  0
    1.1258    0.3714    1.5910 H   0  0  0  0  0  0  0  0  0  0  0  0
   -0.1396    2.6439   -1.8662 H   0  0  0  0  0  0  0  0  0  0  0  0
   -2.5527    2.2609   -1.2416 H   0  0  0  0  0  0  0  0  0  0  0  0
   -3.4493    0.9277    0.8748 N   0  0  0  0  0  0  0  0  0  0  0  0
   -3.6779    0.2930    1.8976 O   0  0  0  0  0  0  0  0  0  0  0  0
   -4.2908    1.4106    0.1232 O   0  0  0  0  0  0  0  0  0  0  0  0
    1.8945    1.7735   -0.4895 N   0  0  0  0  0  0  0  0  0  0  0  0
    2.9353    2.0494   -0.7739 N   0  0  0  0  0  0  0  0  0  0  0  0
    3.4409   -0.5616    0.6524 B   0  0  0  0  0  0  0  0  0  0  0  0
    2.3258   -0.6776   -0.2338 F   0  0  0  0  0  0  0  0  0  0  0  0
    4.0504   -1.7666    0.8523 F   0  0  0  0  0  0  0  0  0  0  0  0
    4.3227    0.3931    0.0788 F   0  0  0  0  0  0  0  0  0  0  0  0
    2.9404   -0.0100    1.8662 F   0  0  0  0  0  0  0  0  0  0  0  0
  1  7  1  0  0  0  0
  2  1  1  0  0  0  0
  2  8  1  0  0  0  0
  3  2  2  0  0  0  0
  4  5  2  0  0  0  0
  4  3  1  0  0  0  0
  5  6  1  0  0  0  0
  6 11  1  0  0  0  0
  6  1  2  0  0  0  0
  9  4  1  0  0  0  0
 10  5  1  0  0  0  0
 11 12  2  0  0  0  0
 13 11  2  0  0  0  0
 14  3  1  0  0  0  0
 15 14  1  0  0  0  0
 16 18  1  0  0  0  0
 16 20  1  0  0  0  0
 17 16  1  0  0  0  0
 19 16  1  0  0  0  0
M  RAD  2  14   2  15   3
M  END
