Coordinates from ORCA-job p-NO2-Ph-N2-X-BF4-B3LYPG-6-31G_dp-scan-d09-49-n400
 OpenBabel08281821043D

 20 19  0  0  0  0  0  0  0  0999 V2000
   -1.0069    0.6132    1.3151 C   0  0  0  0  0  0  0  0  0  0  0  0
    0.3257    0.7960    0.9555 C   0  0  0  0  0  0  0  0  0  0  0  0
    0.5635    1.5353   -0.2123 C   0  0  0  0  0  0  0  0  0  0  0  0
   -0.4400    2.0850   -1.0274 C   0  0  0  0  0  0  0  0  0  0  0  0
   -1.7585    1.8774   -0.6518 C   0  0  0  0  0  0  0  0  0  0  0  0
   -2.0106    1.1491    0.5122 C   0  0  0  0  0  0  0  0  0  0  0  0
   -1.2717    0.0552    2.2045 H   0  0  0  0  0  0  0  0  0  0  0  0
    1.1619    0.3904    1.5284 H   0  0  0  0  0  0  0  0  0  0  0  0
   -0.1877    2.6440   -1.9212 H   0  0  0  0  0  0  0  0  0  0  0  0
   -2.5847    2.2654   -1.2327 H   0  0  0  0  0  0  0  0  0  0  0  0
   -3.4265    0.9412    0.9109 N   0  0  0  0  0  0  0  0  0  0  0  0
   -3.6295    0.3052    1.9381 O   0  0  0  0  0  0  0  0  0  0  0  0
   -4.2862    1.4259    0.1813 O   0  0  0  0  0  0  0  0  0  0  0  0
    1.8802    1.7791   -0.5877 N   0  0  0  0  0  0  0  0  0  0  0  0
    2.9343    2.0142   -0.8598 N   0  0  0  0  0  0  0  0  0  0  0  0
    3.4209   -0.5865    0.7234 B   0  0  0  0  0  0  0  0  0  0  0  0
    2.3694   -0.6714   -0.2404 F   0  0  0  0  0  0  0  0  0  0  0  0
    4.1662   -1.7303    0.7520 F   0  0  0  0  0  0  0  0  0  0  0  0
    4.2103    0.5458    0.3670 F   0  0  0  0  0  0  0  0  0  0  0  0
    2.8129   -0.3155    1.9776 F   0  0  0  0  0  0  0  0  0  0  0  0
  1  7  1  0  0  0  0
  2  1  1  0  0  0  0
  2  8  1  0  0  0  0
  3  2  2  0  0  0  0
  4  5  2  0  0  0  0
  4  3  1  0  0  0  0
  5  6  1  0  0  0  0
  6 11  1  0  0  0  0
  6  1  2  0  0  0  0
  9  4  1  0  0  0  0
 10  5  1  0  0  0  0
 11 12  2  0  0  0  0
 13 11  2  0  0  0  0
 14  3  1  0  0  0  0
 15 14  1  0  0  0  0
 16 18  1  0  0  0  0
 16 20  1  0  0  0  0
 17 16  1  0  0  0  0
 19 16  1  0  0  0  0
M  RAD  2  14   2  15   3
M  END
