Coordinates from ORCA-job p-NO2-Ph-N2-X-BF4-B3LYPG-6-31G_dp-scan-d09-49-n400
 OpenBabel08281821043D

 20 18  0  0  0  0  0  0  0  0999 V2000
   -0.4378    0.6137    0.8249 C   0  0  0  0  0  0  0  0  0  0  0  0
    0.7573    1.1038    0.2534 C   0  0  0  0  0  0  0  0  0  0  0  0
    0.5309    2.1021   -0.7080 C   0  0  0  0  0  0  0  0  0  0  0  0
   -0.7079    2.6425   -1.1397 C   0  0  0  0  0  0  0  0  0  0  0  0
   -1.8329    2.1238   -0.5401 C   0  0  0  0  0  0  0  0  0  0  0  0
   -1.6677    1.1180    0.4317 C   0  0  0  0  0  0  0  0  0  0  0  0
   -0.3776   -0.1712    1.5709 H   0  0  0  0  0  0  0  0  0  0  0  0
    2.0018    0.6049    0.6371 H   0  0  0  0  0  0  0  0  0  0  0  0
   -0.7654    3.4168   -1.8974 H   0  0  0  0  0  0  0  0  0  0  0  0
   -2.8280    2.4631   -0.7948 H   0  0  0  0  0  0  0  0  0  0  0  0
   -2.9043    0.5757    1.0599 N   0  0  0  0  0  0  0  0  0  0  0  0
   -2.7673   -0.2795    1.9241 O   0  0  0  0  0  0  0  0  0  0  0  0
   -3.9754    1.0302    0.6622 O   0  0  0  0  0  0  0  0  0  0  0  0
    1.6759    2.6056   -1.3022 N   0  0  0  0  0  0  0  0  0  0  0  0
    2.6193    2.9858   -1.7608 N   0  0  0  0  0  0  0  0  0  0  0  0
    2.7843   -1.2944    1.5321 B   0  0  0  0  0  0  0  0  0  0  0  0
    2.8247   -2.0860    0.4265 F   0  0  0  0  0  0  0  0  0  0  0  0
    3.8285   -1.4047    2.3859 F   0  0  0  0  0  0  0  0  0  0  0  0
    2.9385    0.2045    0.9318 F   0  0  0  0  0  0  0  0  0  0  0  0
    1.5461   -1.2360    2.1354 F   0  0  0  0  0  0  0  0  0  0  0  0
  1  7  1  0  0  0  0
  2  1  2  0  0  0  0
  3  2  1  0  0  0  0
  4  3  2  0  0  0  0
  4  5  1  0  0  0  0
  5  6  2  0  0  0  0
  6  1  1  0  0  0  0
  6 11  1  0  0  0  0
  8 19  1  0  0  0  0
  9  4  1  0  0  0  0
 10  5  1  0  0  0  0
 11 12  2  0  0  0  0
 13 11  2  0  0  0  0
 14  3  1  0  0  0  0
 15 14  1  0  0  0  0
 16 20  1  0  0  0  0
 16 18  1  0  0  0  0
 17 16  1  0  0  0  0
M  RAD  3   2   2  14   2  15   3
M  END
