Coordinates from ORCA-job p-NO2-Ph-N2-X-BF4-B3LYPG-6-31G_dp-scan-d09-49-n400
 OpenBabel08281821043D

 20 19  0  0  0  0  0  0  0  0999 V2000
   -1.0249    0.5974    1.3248 C   0  0  0  0  0  0  0  0  0  0  0  0
    0.3121    0.7844    0.9858 C   0  0  0  0  0  0  0  0  0  0  0  0
    0.5673    1.5342   -0.1708 C   0  0  0  0  0  0  0  0  0  0  0  0
   -0.4240    2.0920   -0.9953 C   0  0  0  0  0  0  0  0  0  0  0  0
   -1.7478    1.8784   -0.6418 C   0  0  0  0  0  0  0  0  0  0  0  0
   -2.0170    1.1387    0.5111 C   0  0  0  0  0  0  0  0  0  0  0  0
   -1.3030    0.0309    2.2046 H   0  0  0  0  0  0  0  0  0  0  0  0
    1.1457    0.3786    1.5598 H   0  0  0  0  0  0  0  0  0  0  0  0
   -0.1592    2.6596   -1.8799 H   0  0  0  0  0  0  0  0  0  0  0  0
   -2.5655    2.2701   -1.2323 H   0  0  0  0  0  0  0  0  0  0  0  0
   -3.4384    0.9227    0.8845 N   0  0  0  0  0  0  0  0  0  0  0  0
   -3.6561    0.2780    1.9034 O   0  0  0  0  0  0  0  0  0  0  0  0
   -4.2879    1.4092    0.1443 O   0  0  0  0  0  0  0  0  0  0  0  0
    1.8900    1.7797   -0.5272 N   0  0  0  0  0  0  0  0  0  0  0  0
    2.9365    2.0367   -0.8092 N   0  0  0  0  0  0  0  0  0  0  0  0
    3.4275   -0.5711    0.6832 B   0  0  0  0  0  0  0  0  0  0  0  0
    2.3237   -0.6791   -0.2177 F   0  0  0  0  0  0  0  0  0  0  0  0
    4.0645   -1.7682    0.8407 F   0  0  0  0  0  0  0  0  0  0  0  0
    4.2910    0.4250    0.1518 F   0  0  0  0  0  0  0  0  0  0  0  0
    2.9085   -0.0785    1.9132 F   0  0  0  0  0  0  0  0  0  0  0  0
  1  7  1  0  0  0  0
  2  1  1  0  0  0  0
  2  8  1  0  0  0  0
  3  2  2  0  0  0  0
  4  5  2  0  0  0  0
  4  3  1  0  0  0  0
  5  6  1  0  0  0  0
  6 11  1  0  0  0  0
  6  1  2  0  0  0  0
  9  4  1  0  0  0  0
 10  5  1  0  0  0  0
 11 12  2  0  0  0  0
 13 11  2  0  0  0  0
 14  3  1  0  0  0  0
 15 14  1  0  0  0  0
 16 18  1  0  0  0  0
 16 20  1  0  0  0  0
 17 16  1  0  0  0  0
 19 16  1  0  0  0  0
M  RAD  2  14   2  15   3
M  END
