Coordinates from ORCA-job p-NO2-Ph-N2-X-BF4-B3LYPG-6-31G_dp-scan-d09-49-n400
 OpenBabel08281821043D

 20 19  0  0  0  0  0  0  0  0999 V2000
   -1.1307    0.7318    1.5314 C   0  0  0  0  0  0  0  0  0  0  0  0
    0.2310    0.9422    1.3445 C   0  0  0  0  0  0  0  0  0  0  0  0
    0.6209    1.5406    0.1390 C   0  0  0  0  0  0  0  0  0  0  0  0
   -0.2746    1.9262   -0.8699 C   0  0  0  0  0  0  0  0  0  0  0  0
   -1.6276    1.6940   -0.6654 C   0  0  0  0  0  0  0  0  0  0  0  0
   -2.0268    1.1053    0.5326 C   0  0  0  0  0  0  0  0  0  0  0  0
   -1.5032    0.2724    2.4383 H   0  0  0  0  0  0  0  0  0  0  0  0
    0.9542    0.6430    2.0907 H   0  0  0  0  0  0  0  0  0  0  0  0
    0.0867    2.3776   -1.7864 H   0  0  0  0  0  0  0  0  0  0  0  0
   -2.3678    1.9606   -1.4087 H   0  0  0  0  0  0  0  0  0  0  0  0
   -3.4746    0.8684    0.7519 N   0  0  0  0  0  0  0  0  0  0  0  0
   -3.8014    0.3583    1.8175 O   0  0  0  0  0  0  0  0  0  0  0  0
   -4.2362    1.2049   -0.1493 O   0  0  0  0  0  0  0  0  0  0  0  0
    1.9617    1.8499   -0.1071 N   0  0  0  0  0  0  0  0  0  0  0  0
    2.9692    2.2419   -0.3624 N   0  0  0  0  0  0  0  0  0  0  0  0
    3.4022   -0.5605    0.2679 B   0  0  0  0  0  0  0  0  0  0  0  0
    2.2227   -0.5569   -0.5422 F   0  0  0  0  0  0  0  0  0  0  0  0
    3.7948   -1.8296    0.5836 F   0  0  0  0  0  0  0  0  0  0  0  0
    4.3958    0.1654   -0.4228 F   0  0  0  0  0  0  0  0  0  0  0  0
    3.0469    0.1833    1.4498 F   0  0  0  0  0  0  0  0  0  0  0  0
  1  7  1  0  0  0  0
  2  1  1  0  0  0  0
  2  8  1  0  0  0  0
  3  2  2  0  0  0  0
  4  5  2  0  0  0  0
  4  3  1  0  0  0  0
  5  6  1  0  0  0  0
  6 11  1  0  0  0  0
  6  1  2  0  0  0  0
  9  4  1  0  0  0  0
 10  5  1  0  0  0  0
 11 12  2  0  0  0  0
 13 11  2  0  0  0  0
 14  3  1  0  0  0  0
 15 14  1  0  0  0  0
 16 18  1  0  0  0  0
 16 20  1  0  0  0  0
 17 16  1  0  0  0  0
 19 16  1  0  0  0  0
M  RAD  2  14   2  15   3
M  END
