Coordinates from ORCA-job p-NO2-Ph-N2-X-BF4-B3LYPG-6-31G_dp-scan-d09-49-n400
 OpenBabel08281821043D

 20 19  0  0  0  0  0  0  0  0999 V2000
   -0.9417    0.6449    1.2979 C   0  0  0  0  0  0  0  0  0  0  0  0
    0.3788    0.8181    0.8909 C   0  0  0  0  0  0  0  0  0  0  0  0
    0.5757    1.5388   -0.2969 C   0  0  0  0  0  0  0  0  0  0  0  0
   -0.4551    2.0761   -1.0860 C   0  0  0  0  0  0  0  0  0  0  0  0
   -1.7598    1.8811   -0.6601 C   0  0  0  0  0  0  0  0  0  0  0  0
   -1.9719    1.1732    0.5245 C   0  0  0  0  0  0  0  0  0  0  0  0
   -1.1741    0.0976    2.2028 H   0  0  0  0  0  0  0  0  0  0  0  0
    1.2153    0.3907    1.4468 H   0  0  0  0  0  0  0  0  0  0  0  0
   -0.2326    2.6174   -1.9983 H   0  0  0  0  0  0  0  0  0  0  0  0
   -2.6053    2.2611   -1.2181 H   0  0  0  0  0  0  0  0  0  0  0  0
   -3.3735    0.9762    0.9768 N   0  0  0  0  0  0  0  0  0  0  0  0
   -3.5408    0.3651    2.0251 O   0  0  0  0  0  0  0  0  0  0  0  0
   -4.2574    1.4440    0.2654 O   0  0  0  0  0  0  0  0  0  0  0  0
    1.8791    1.7654   -0.7194 N   0  0  0  0  0  0  0  0  0  0  0  0
    2.9519    1.9293   -0.9630 N   0  0  0  0  0  0  0  0  0  0  0  0
    3.3413   -0.6097    0.7917 B   0  0  0  0  0  0  0  0  0  0  0  0
    2.4865   -0.6880   -0.3468 F   0  0  0  0  0  0  0  0  0  0  0  0
    4.3835   -1.4871    0.7042 F   0  0  0  0  0  0  0  0  0  0  0  0
    3.7984    0.7488    0.8537 F   0  0  0  0  0  0  0  0  0  0  0  0
    2.5446   -0.8242    1.9416 F   0  0  0  0  0  0  0  0  0  0  0  0
  1  7  1  0  0  0  0
  2  1  1  0  0  0  0
  2  8  1  0  0  0  0
  3  2  2  0  0  0  0
  4  5  2  0  0  0  0
  4  3  1  0  0  0  0
  5  6  1  0  0  0  0
  6 11  1  0  0  0  0
  6  1  2  0  0  0  0
  9  4  1  0  0  0  0
 10  5  1  0  0  0  0
 11 12  2  0  0  0  0
 13 11  2  0  0  0  0
 14  3  1  0  0  0  0
 15 14  1  0  0  0  0
 16 19  1  0  0  0  0
 16 20  1  0  0  0  0
 17 16  1  0  0  0  0
 18 16  1  0  0  0  0
M  RAD  2  14   2  15   3
M  END
