Coordinates from ORCA-job p-NO2-Ph-N2-X-BF4-B3LYPG-6-31G_dp-scan-d09-49-n400
 OpenBabel08281821043D

 20 19  0  0  0  0  0  0  0  0999 V2000
   -1.0267    0.5973    1.3260 C   0  0  0  0  0  0  0  0  0  0  0  0
    0.3107    0.7839    0.9883 C   0  0  0  0  0  0  0  0  0  0  0  0
    0.5674    1.5334   -0.1681 C   0  0  0  0  0  0  0  0  0  0  0  0
   -0.4230    2.0909   -0.9939 C   0  0  0  0  0  0  0  0  0  0  0  0
   -1.7473    1.8775   -0.6418 C   0  0  0  0  0  0  0  0  0  0  0  0
   -2.0178    1.1385    0.5111 C   0  0  0  0  0  0  0  0  0  0  0  0
   -1.3057    0.0311    2.2058 H   0  0  0  0  0  0  0  0  0  0  0  0
    1.1437    0.3784    1.5633 H   0  0  0  0  0  0  0  0  0  0  0  0
   -0.1572    2.6582   -1.8785 H   0  0  0  0  0  0  0  0  0  0  0  0
   -2.5642    2.2691   -1.2333 H   0  0  0  0  0  0  0  0  0  0  0  0
   -3.4396    0.9230    0.8834 N   0  0  0  0  0  0  0  0  0  0  0  0
   -3.6585    0.2792    1.9026 O   0  0  0  0  0  0  0  0  0  0  0  0
   -4.2883    1.4089    0.1418 O   0  0  0  0  0  0  0  0  0  0  0  0
    1.8905    1.7793   -0.5232 N   0  0  0  0  0  0  0  0  0  0  0  0
    2.9364    2.0380   -0.8056 N   0  0  0  0  0  0  0  0  0  0  0  0
    3.4290   -0.5704    0.6800 B   0  0  0  0  0  0  0  0  0  0  0  0
    2.3236   -0.6788   -0.2190 F   0  0  0  0  0  0  0  0  0  0  0  0
    4.0628   -1.7686    0.8417 F   0  0  0  0  0  0  0  0  0  0  0  0
    4.2949    0.4211    0.1437 F   0  0  0  0  0  0  0  0  0  0  0  0
    2.9124   -0.0713    1.9086 F   0  0  0  0  0  0  0  0  0  0  0  0
  1  7  1  0  0  0  0
  2  1  1  0  0  0  0
  2  8  1  0  0  0  0
  3  2  2  0  0  0  0
  4  5  2  0  0  0  0
  4  3  1  0  0  0  0
  5  6  1  0  0  0  0
  6 11  1  0  0  0  0
  6  1  2  0  0  0  0
  9  4  1  0  0  0  0
 10  5  1  0  0  0  0
 11 12  2  0  0  0  0
 13 11  2  0  0  0  0
 14  3  1  0  0  0  0
 15 14  1  0  0  0  0
 16 18  1  0  0  0  0
 16 20  1  0  0  0  0
 17 16  1  0  0  0  0
 19 16  1  0  0  0  0
M  RAD  2  14   2  15   3
M  END
