Coordinates from ORCA-job p-NO2-Ph-N2-X-BF4-B3LYPG-6-31G_dp-scan-d09-49-n400
 OpenBabel08281821043D

 20 19  0  0  0  0  0  0  0  0999 V2000
   -0.9318    0.6537    1.3025 C   0  0  0  0  0  0  0  0  0  0  0  0
    0.3879    0.8284    0.8935 C   0  0  0  0  0  0  0  0  0  0  0  0
    0.5815    1.5420   -0.2991 C   0  0  0  0  0  0  0  0  0  0  0  0
   -0.4516    2.0715   -1.0905 C   0  0  0  0  0  0  0  0  0  0  0  0
   -1.7553    1.8757   -0.6620 C   0  0  0  0  0  0  0  0  0  0  0  0
   -1.9643    1.1746    0.5272 C   0  0  0  0  0  0  0  0  0  0  0  0
   -1.1614    0.1105    2.2106 H   0  0  0  0  0  0  0  0  0  0  0  0
    1.2240    0.4042    1.4512 H   0  0  0  0  0  0  0  0  0  0  0  0
   -0.2316    2.6072   -2.0067 H   0  0  0  0  0  0  0  0  0  0  0  0
   -2.6024    2.2499   -1.2215 H   0  0  0  0  0  0  0  0  0  0  0  0
   -3.3649    0.9759    0.9818 N   0  0  0  0  0  0  0  0  0  0  0  0
   -3.5293    0.3715    2.0344 O   0  0  0  0  0  0  0  0  0  0  0  0
   -4.2508    1.4361    0.2680 O   0  0  0  0  0  0  0  0  0  0  0  0
    1.8834    1.7683   -0.7251 N   0  0  0  0  0  0  0  0  0  0  0  0
    2.9549    1.9336   -0.9718 N   0  0  0  0  0  0  0  0  0  0  0  0
    3.3222   -0.6148    0.7904 B   0  0  0  0  0  0  0  0  0  0  0  0
    2.4944   -0.6857   -0.3682 F   0  0  0  0  0  0  0  0  0  0  0  0
    4.3934   -1.4566    0.7012 F   0  0  0  0  0  0  0  0  0  0  0  0
    3.7344    0.7559    0.8994 F   0  0  0  0  0  0  0  0  0  0  0  0
    2.5106   -0.8830    1.9175 F   0  0  0  0  0  0  0  0  0  0  0  0
  1  7  1  0  0  0  0
  2  1  1  0  0  0  0
  2  8  1  0  0  0  0
  3  2  2  0  0  0  0
  4  5  2  0  0  0  0
  4  3  1  0  0  0  0
  5  6  1  0  0  0  0
  6 11  1  0  0  0  0
  6  1  2  0  0  0  0
  9  4  1  0  0  0  0
 10  5  1  0  0  0  0
 11 12  2  0  0  0  0
 13 11  2  0  0  0  0
 14  3  1  0  0  0  0
 15 14  1  0  0  0  0
 16 19  1  0  0  0  0
 16 20  1  0  0  0  0
 17 16  1  0  0  0  0
 18 16  1  0  0  0  0
M  RAD  2  14   2  15   3
M  END
