Coordinates from ORCA-job p-NO2-Ph-N2-X-BF4-B3LYPG-6-31G_dp-scan-d09-49-n400
 OpenBabel08281821043D

 20 19  0  0  0  0  0  0  0  0999 V2000
   -0.7639    0.8353    1.4093 C   0  0  0  0  0  0  0  0  0  0  0  0
    0.5368    1.0835    0.9724 C   0  0  0  0  0  0  0  0  0  0  0  0
    0.6597    1.6564   -0.3008 C   0  0  0  0  0  0  0  0  0  0  0  0
   -0.4085    1.9871   -1.1572 C   0  0  0  0  0  0  0  0  0  0  0  0
   -1.6850    1.7257   -0.6919 C   0  0  0  0  0  0  0  0  0  0  0  0
   -1.8321    1.1618    0.5815 C   0  0  0  0  0  0  0  0  0  0  0  0
   -0.9487    0.3818    2.3748 H   0  0  0  0  0  0  0  0  0  0  0  0
    1.4929    0.8279    1.4945 H   0  0  0  0  0  0  0  0  0  0  0  0
   -0.2360    2.4189   -2.1361 H   0  0  0  0  0  0  0  0  0  0  0  0
   -2.5634    1.9441   -1.2848 H   0  0  0  0  0  0  0  0  0  0  0  0
   -3.2130    0.8984    1.0646 N   0  0  0  0  0  0  0  0  0  0  0  0
   -3.3312    0.4344    2.1918 O   0  0  0  0  0  0  0  0  0  0  0  0
   -4.1320    1.1712    0.2977 O   0  0  0  0  0  0  0  0  0  0  0  0
    1.9449    1.9438   -0.7396 N   0  0  0  0  0  0  0  0  0  0  0  0
    2.9561    2.2234   -1.1023 N   0  0  0  0  0  0  0  0  0  0  0  0
    2.9760   -0.7727    0.7275 B   0  0  0  0  0  0  0  0  0  0  0  0
    2.8024   -0.4028   -0.6326 F   0  0  0  0  0  0  0  0  0  0  0  0
    4.1563   -1.4257    0.9352 F   0  0  0  0  0  0  0  0  0  0  0  0
    2.9782    0.4988    1.4699 F   0  0  0  0  0  0  0  0  0  0  0  0
    1.8534   -1.4727    1.1590 F   0  0  0  0  0  0  0  0  0  0  0  0
  1  7  1  0  0  0  0
  2  1  1  0  0  0  0
  2  8  1  0  0  0  0
  3  2  2  0  0  0  0
  4  5  2  0  0  0  0
  4  3  1  0  0  0  0
  5  6  1  0  0  0  0
  6 11  1  0  0  0  0
  6  1  2  0  0  0  0
  9  4  1  0  0  0  0
 10  5  1  0  0  0  0
 11 12  2  0  0  0  0
 13 11  2  0  0  0  0
 14  3  1  0  0  0  0
 15 14  1  0  0  0  0
 16 18  1  0  0  0  0
 16 20  1  0  0  0  0
 16 19  1  0  0  0  0
 17 16  1  0  0  0  0
M  RAD  2  14   2  15   3
M  END
