Coordinates from ORCA-job p-NO2-Ph-N2-X-BF4-B3LYPG-6-31G_dp-scan-d09-49-n400
 OpenBabel08281821043D

 20 19  0  0  0  0  0  0  0  0999 V2000
   -0.7786    0.8383    1.4300 C   0  0  0  0  0  0  0  0  0  0  0  0
    0.5267    1.0860    1.0112 C   0  0  0  0  0  0  0  0  0  0  0  0
    0.6738    1.6487   -0.2637 C   0  0  0  0  0  0  0  0  0  0  0  0
   -0.3811    1.9731   -1.1372 C   0  0  0  0  0  0  0  0  0  0  0  0
   -1.6656    1.7134   -0.6914 C   0  0  0  0  0  0  0  0  0  0  0  0
   -1.8337    1.1566    0.5815 C   0  0  0  0  0  0  0  0  0  0  0  0
   -0.9780    0.3899    2.3950 H   0  0  0  0  0  0  0  0  0  0  0  0
    1.4649    0.8379    1.5440 H   0  0  0  0  0  0  0  0  0  0  0  0
   -0.1934    2.3986   -2.1160 H   0  0  0  0  0  0  0  0  0  0  0  0
   -2.5339    1.9275   -1.3005 H   0  0  0  0  0  0  0  0  0  0  0  0
   -3.2214    0.8893    1.0415 N   0  0  0  0  0  0  0  0  0  0  0  0
   -3.3570    0.4234    2.1661 O   0  0  0  0  0  0  0  0  0  0  0  0
   -4.1284    1.1605    0.2598 O   0  0  0  0  0  0  0  0  0  0  0  0
    1.9645    1.9335   -0.6902 N   0  0  0  0  0  0  0  0  0  0  0  0
    2.9699    2.2293   -1.0550 N   0  0  0  0  0  0  0  0  0  0  0  0
    2.9650   -0.7545    0.6894 B   0  0  0  0  0  0  0  0  0  0  0  0
    2.6838   -0.4556   -0.6716 F   0  0  0  0  0  0  0  0  0  0  0  0
    4.1558   -1.4065    0.8338 F   0  0  0  0  0  0  0  0  0  0  0  0
    3.0301    0.5530    1.3580 F   0  0  0  0  0  0  0  0  0  0  0  0
    1.8797   -1.4240    1.2483 F   0  0  0  0  0  0  0  0  0  0  0  0
  1  7  1  0  0  0  0
  2  1  1  0  0  0  0
  2  8  1  0  0  0  0
  3  2  2  0  0  0  0
  4  5  2  0  0  0  0
  4  3  1  0  0  0  0
  5  6  1  0  0  0  0
  6 11  1  0  0  0  0
  6  1  2  0  0  0  0
  9  4  1  0  0  0  0
 10  5  1  0  0  0  0
 11 12  2  0  0  0  0
 13 11  2  0  0  0  0
 14  3  1  0  0  0  0
 15 14  1  0  0  0  0
 16 18  1  0  0  0  0
 16 20  1  0  0  0  0
 16 19  1  0  0  0  0
 17 16  1  0  0  0  0
M  RAD  2  14   2  15   3
M  END
