Coordinates from ORCA-job p-NO2-Ph-N2-X-BF4-B3LYPG-6-31G_dp-scan-d09-49-n400
 OpenBabel08281821043D

 20 19  0  0  0  0  0  0  0  0999 V2000
   -1.0575    0.5718    1.3435 C   0  0  0  0  0  0  0  0  0  0  0  0
    0.2876    0.7578    1.0398 C   0  0  0  0  0  0  0  0  0  0  0  0
    0.5766    1.5184   -0.1008 C   0  0  0  0  0  0  0  0  0  0  0  0
   -0.3920    2.0920   -0.9411 C   0  0  0  0  0  0  0  0  0  0  0  0
   -1.7254    1.8806   -0.6233 C   0  0  0  0  0  0  0  0  0  0  0  0
   -2.0270    1.1273    0.5121 C   0  0  0  0  0  0  0  0  0  0  0  0
   -1.3602   -0.0047    2.2087 H   0  0  0  0  0  0  0  0  0  0  0  0
    1.1076    0.3520    1.6260 H   0  0  0  0  0  0  0  0  0  0  0  0
   -0.1031    2.6689   -1.8122 H   0  0  0  0  0  0  0  0  0  0  0  0
   -2.5258    2.2843   -1.2290 H   0  0  0  0  0  0  0  0  0  0  0  0
   -3.4578    0.9115    0.8461 N   0  0  0  0  0  0  0  0  0  0  0  0
   -3.7038    0.2531    1.8497 O   0  0  0  0  0  0  0  0  0  0  0  0
   -4.2866    1.4115    0.0915 O   0  0  0  0  0  0  0  0  0  0  0  0
    1.9071    1.7615   -0.4343 N   0  0  0  0  0  0  0  0  0  0  0  0
    2.9400    2.0404   -0.7426 N   0  0  0  0  0  0  0  0  0  0  0  0
    3.4387   -0.5413    0.6102 B   0  0  0  0  0  0  0  0  0  0  0  0
    2.2810   -0.7331   -0.2021 F   0  0  0  0  0  0  0  0  0  0  0  0
    3.9966   -1.7282    0.9870 F   0  0  0  0  0  0  0  0  0  0  0  0
    4.3354    0.2665   -0.1328 F   0  0  0  0  0  0  0  0  0  0  0  0
    3.0118    0.2282    1.7365 F   0  0  0  0  0  0  0  0  0  0  0  0
  1  7  1  0  0  0  0
  2  1  1  0  0  0  0
  2  8  1  0  0  0  0
  3  2  2  0  0  0  0
  4  5  2  0  0  0  0
  4  3  1  0  0  0  0
  5  6  1  0  0  0  0
  6 11  1  0  0  0  0
  6  1  2  0  0  0  0
  9  4  1  0  0  0  0
 10  5  1  0  0  0  0
 11 12  2  0  0  0  0
 13 11  2  0  0  0  0
 14  3  1  0  0  0  0
 15 14  1  0  0  0  0
 16 18  1  0  0  0  0
 16 20  1  0  0  0  0
 17 16  1  0  0  0  0
 19 16  1  0  0  0  0
M  RAD  2  14   2  15   3
M  END
