Coordinates from ORCA-job p-NO2-Ph-N2-X-BF4-B3LYPG-6-31G_dp-scan-d09-49-n400
 OpenBabel08281821043D

 20 19  0  0  0  0  0  0  0  0999 V2000
   -1.0980    0.6074    1.4079 C   0  0  0  0  0  0  0  0  0  0  0  0
    0.2565    0.7868    1.1480 C   0  0  0  0  0  0  0  0  0  0  0  0
    0.5891    1.5038   -0.0088 C   0  0  0  0  0  0  0  0  0  0  0  0
   -0.3518    2.0307   -0.9082 C   0  0  0  0  0  0  0  0  0  0  0  0
   -1.6966    1.8248   -0.6348 C   0  0  0  0  0  0  0  0  0  0  0  0
   -2.0394    1.1218    0.5195 C   0  0  0  0  0  0  0  0  0  0  0  0
   -1.4302    0.0653    2.2844 H   0  0  0  0  0  0  0  0  0  0  0  0
    1.0362    0.3965    1.7908 H   0  0  0  0  0  0  0  0  0  0  0  0
   -0.0329    2.5706   -1.7924 H   0  0  0  0  0  0  0  0  0  0  0  0
   -2.4734    2.1966   -1.2898 H   0  0  0  0  0  0  0  0  0  0  0  0
   -3.4798    0.9147    0.8117 N   0  0  0  0  0  0  0  0  0  0  0  0
   -3.7592    0.3057    1.8378 O   0  0  0  0  0  0  0  0  0  0  0  0
   -4.2827    1.3724    0.0043 O   0  0  0  0  0  0  0  0  0  0  0  0
    1.9260    1.7678   -0.3118 N   0  0  0  0  0  0  0  0  0  0  0  0
    2.9405    2.1100   -0.6124 N   0  0  0  0  0  0  0  0  0  0  0  0
    3.4569   -0.5313    0.4842 B   0  0  0  0  0  0  0  0  0  0  0  0
    2.2815   -0.6840   -0.3144 F   0  0  0  0  0  0  0  0  0  0  0  0
    3.9457   -1.7359    0.9007 F   0  0  0  0  0  0  0  0  0  0  0  0
    4.3934    0.2053   -0.2772 F   0  0  0  0  0  0  0  0  0  0  0  0
    3.0612    0.2897    1.5933 F   0  0  0  0  0  0  0  0  0  0  0  0
  1  7  1  0  0  0  0
  2  1  1  0  0  0  0
  2  8  1  0  0  0  0
  3  2  2  0  0  0  0
  4  5  2  0  0  0  0
  4  3  1  0  0  0  0
  5  6  1  0  0  0  0
  6 11  1  0  0  0  0
  6  1  2  0  0  0  0
  9  4  1  0  0  0  0
 10  5  1  0  0  0  0
 11 12  2  0  0  0  0
 13 11  2  0  0  0  0
 14  3  1  0  0  0  0
 15 14  1  0  0  0  0
 16 18  1  0  0  0  0
 16 20  1  0  0  0  0
 17 16  1  0  0  0  0
 19 16  1  0  0  0  0
M  RAD  2  14   2  15   3
M  END
