Coordinates from ORCA-job p-NO2-Ph-N2-X-BF4-B3LYPG-6-31G_dp-scan-d09-49-n400
 OpenBabel08281821043D

 20 19  0  0  0  0  0  0  0  0999 V2000
   -0.9641    0.6227    1.2898 C   0  0  0  0  0  0  0  0  0  0  0  0
    0.3592    0.7994    0.8931 C   0  0  0  0  0  0  0  0  0  0  0  0
    0.5655    1.5369   -0.2825 C   0  0  0  0  0  0  0  0  0  0  0  0
   -0.4586    2.0935   -1.0671 C   0  0  0  0  0  0  0  0  0  0  0  0
   -1.7662    1.8957   -0.6517 C   0  0  0  0  0  0  0  0  0  0  0  0
   -1.9877    1.1660    0.5180 C   0  0  0  0  0  0  0  0  0  0  0  0
   -1.2043    0.0623    2.1846 H   0  0  0  0  0  0  0  0  0  0  0  0
    1.2002    0.3739    1.4462 H   0  0  0  0  0  0  0  0  0  0  0  0
   -0.2292    2.6508   -1.9680 H   0  0  0  0  0  0  0  0  0  0  0  0
   -2.6072    2.2898   -1.2066 H   0  0  0  0  0  0  0  0  0  0  0  0
   -3.3929    0.9625    0.9561 N   0  0  0  0  0  0  0  0  0  0  0  0
   -3.5695    0.3205    1.9843 O   0  0  0  0  0  0  0  0  0  0  0  0
   -4.2706    1.4557    0.2540 O   0  0  0  0  0  0  0  0  0  0  0  0
    1.8722    1.7614   -0.6973 N   0  0  0  0  0  0  0  0  0  0  0  0
    2.9410    1.9365   -0.9547 N   0  0  0  0  0  0  0  0  0  0  0  0
    3.3796   -0.5981    0.7915 B   0  0  0  0  0  0  0  0  0  0  0  0
    2.4430   -0.6977   -0.2800 F   0  0  0  0  0  0  0  0  0  0  0  0
    4.3174   -1.5882    0.7351 F   0  0  0  0  0  0  0  0  0  0  0  0
    3.9749    0.6990    0.6871 F   0  0  0  0  0  0  0  0  0  0  0  0
    2.6403   -0.6241    2.0011 F   0  0  0  0  0  0  0  0  0  0  0  0
  1  7  1  0  0  0  0
  2  1  1  0  0  0  0
  2  8  1  0  0  0  0
  3  2  2  0  0  0  0
  4  5  2  0  0  0  0
  4  3  1  0  0  0  0
  5  6  1  0  0  0  0
  6 11  1  0  0  0  0
  6  1  2  0  0  0  0
  9  4  1  0  0  0  0
 10  5  1  0  0  0  0
 11 12  2  0  0  0  0
 13 11  2  0  0  0  0
 14  3  1  0  0  0  0
 15 14  1  0  0  0  0
 16 20  1  0  0  0  0
 17 16  1  0  0  0  0
 18 16  1  0  0  0  0
 19 16  1  0  0  0  0
M  RAD  2  14   2  15   3
M  END
