Coordinates from ORCA-job p-NO2-Ph-N2-X-BF4-B3LYPG-6-31G_dp-scan-d09-49-n400
 OpenBabel08281821043D

 20 19  0  0  0  0  0  0  0  0999 V2000
   -1.0027    0.6124    1.3109 C   0  0  0  0  0  0  0  0  0  0  0  0
    0.3289    0.7953    0.9475 C   0  0  0  0  0  0  0  0  0  0  0  0
    0.5632    1.5362   -0.2201 C   0  0  0  0  0  0  0  0  0  0  0  0
   -0.4428    2.0885   -1.0308 C   0  0  0  0  0  0  0  0  0  0  0  0
   -1.7600    1.8813   -0.6509 C   0  0  0  0  0  0  0  0  0  0  0  0
   -2.0086    1.1504    0.5123 C   0  0  0  0  0  0  0  0  0  0  0  0
   -1.2648    0.0526    2.1999 H   0  0  0  0  0  0  0  0  0  0  0  0
    1.1665    0.3876    1.5173 H   0  0  0  0  0  0  0  0  0  0  0  0
   -0.1930    2.6490   -1.9243 H   0  0  0  0  0  0  0  0  0  0  0  0
   -2.5879    2.2712   -1.2281 H   0  0  0  0  0  0  0  0  0  0  0  0
   -3.4235    0.9418    0.9147 N   0  0  0  0  0  0  0  0  0  0  0  0
   -3.6236    0.3020    1.9401 O   0  0  0  0  0  0  0  0  0  0  0  0
   -4.2852    1.4295    0.1895 O   0  0  0  0  0  0  0  0  0  0  0  0
    1.8788    1.7777   -0.6001 N   0  0  0  0  0  0  0  0  0  0  0  0
    2.9344    2.0063   -0.8720 N   0  0  0  0  0  0  0  0  0  0  0  0
    3.4177   -0.5875    0.7327 B   0  0  0  0  0  0  0  0  0  0  0  0
    2.3730   -0.6760   -0.2379 F   0  0  0  0  0  0  0  0  0  0  0  0
    4.1773   -1.7220    0.7547 F   0  0  0  0  0  0  0  0  0  0  0  0
    4.1953    0.5582    0.3912 F   0  0  0  0  0  0  0  0  0  0  0  0
    2.8001   -0.3356    1.9862 F   0  0  0  0  0  0  0  0  0  0  0  0
  1  7  1  0  0  0  0
  2  1  1  0  0  0  0
  2  8  1  0  0  0  0
  3  2  2  0  0  0  0
  4  5  2  0  0  0  0
  4  3  1  0  0  0  0
  5  6  1  0  0  0  0
  6 11  1  0  0  0  0
  6  1  2  0  0  0  0
  9  4  1  0  0  0  0
 10  5  1  0  0  0  0
 11 12  2  0  0  0  0
 13 11  2  0  0  0  0
 14  3  1  0  0  0  0
 15 14  1  0  0  0  0
 16 18  1  0  0  0  0
 16 20  1  0  0  0  0
 17 16  1  0  0  0  0
 19 16  1  0  0  0  0
M  RAD  2  14   2  15   3
M  END
