Coordinates from ORCA-job p-NO2-Ph-N2-X-BF4-B3LYPG-6-31G_dp-scan-d09-49-n400
 OpenBabel08281821043D

 20 19  0  0  0  0  0  0  0  0999 V2000
   -0.9378    0.6493    1.3004 C   0  0  0  0  0  0  0  0  0  0  0  0
    0.3825    0.8237    0.8931 C   0  0  0  0  0  0  0  0  0  0  0  0
    0.5781    1.5410   -0.2970 C   0  0  0  0  0  0  0  0  0  0  0  0
   -0.4535    2.0740   -1.0878 C   0  0  0  0  0  0  0  0  0  0  0  0
   -1.7579    1.8781   -0.6613 C   0  0  0  0  0  0  0  0  0  0  0  0
   -1.9688    1.1736    0.5255 C   0  0  0  0  0  0  0  0  0  0  0  0
   -1.1691    0.1041    2.2069 H   0  0  0  0  0  0  0  0  0  0  0  0
    1.2189    0.3986    1.4502 H   0  0  0  0  0  0  0  0  0  0  0  0
   -0.2320    2.6126   -2.0019 H   0  0  0  0  0  0  0  0  0  0  0  0
   -2.6040    2.2549   -1.2205 H   0  0  0  0  0  0  0  0  0  0  0  0
   -3.3701    0.9754    0.9783 N   0  0  0  0  0  0  0  0  0  0  0  0
   -3.5363    0.3680    2.0290 O   0  0  0  0  0  0  0  0  0  0  0  0
   -4.2549    1.4389    0.2652 O   0  0  0  0  0  0  0  0  0  0  0  0
    1.8810    1.7676   -0.7204 N   0  0  0  0  0  0  0  0  0  0  0  0
    2.9535    1.9320   -0.9647 N   0  0  0  0  0  0  0  0  0  0  0  0
    3.3333   -0.6124    0.7902 B   0  0  0  0  0  0  0  0  0  0  0  0
    2.4882   -0.6862   -0.3557 F   0  0  0  0  0  0  0  0  0  0  0  0
    4.3859   -1.4772    0.7004 F   0  0  0  0  0  0  0  0  0  0  0  0
    3.7750    0.7505    0.8713 F   0  0  0  0  0  0  0  0  0  0  0  0
    2.5312   -0.8478    1.9317 F   0  0  0  0  0  0  0  0  0  0  0  0
  1  7  1  0  0  0  0
  2  1  1  0  0  0  0
  2  8  1  0  0  0  0
  3  2  2  0  0  0  0
  4  5  2  0  0  0  0
  4  3  1  0  0  0  0
  5  6  1  0  0  0  0
  6 11  1  0  0  0  0
  6  1  2  0  0  0  0
  9  4  1  0  0  0  0
 10  5  1  0  0  0  0
 11 12  2  0  0  0  0
 13 11  2  0  0  0  0
 14  3  1  0  0  0  0
 15 14  1  0  0  0  0
 16 19  1  0  0  0  0
 16 20  1  0  0  0  0
 17 16  1  0  0  0  0
 18 16  1  0  0  0  0
M  RAD  2  14   2  15   3
M  END
