Coordinates from ORCA-job p-NO2-Ph-N2-X-BF4-B3LYPG-6-31G_dp-scan-d09-49-n400
 OpenBabel08281821043D

 20 19  0  0  0  0  0  0  0  0999 V2000
   -1.1000    0.6299    1.4299 C   0  0  0  0  0  0  0  0  0  0  0  0
    0.2555    0.8179    1.1827 C   0  0  0  0  0  0  0  0  0  0  0  0
    0.5954    1.5163    0.0168 C   0  0  0  0  0  0  0  0  0  0  0  0
   -0.3398    2.0169   -0.9030 C   0  0  0  0  0  0  0  0  0  0  0  0
   -1.6859    1.8031   -0.6415 C   0  0  0  0  0  0  0  0  0  0  0  0
   -2.0360    1.1183    0.5212 C   0  0  0  0  0  0  0  0  0  0  0  0
   -1.4371    0.1005    2.3122 H   0  0  0  0  0  0  0  0  0  0  0  0
    1.0280    0.4445    1.8433 H   0  0  0  0  0  0  0  0  0  0  0  0
   -0.0156    2.5422   -1.7938 H   0  0  0  0  0  0  0  0  0  0  0  0
   -2.4582    2.1551   -1.3127 H   0  0  0  0  0  0  0  0  0  0  0  0
   -3.4774    0.9021    0.8006 N   0  0  0  0  0  0  0  0  0  0  0  0
   -3.7627    0.3089    1.8343 O   0  0  0  0  0  0  0  0  0  0  0  0
   -4.2753    1.3367   -0.0243 O   0  0  0  0  0  0  0  0  0  0  0  0
    1.9334    1.7871   -0.2774 N   0  0  0  0  0  0  0  0  0  0  0  0
    2.9474    2.1362   -0.5707 N   0  0  0  0  0  0  0  0  0  0  0  0
    3.4435   -0.5399    0.4488 B   0  0  0  0  0  0  0  0  0  0  0  0
    2.2648   -0.6576   -0.3520 F   0  0  0  0  0  0  0  0  0  0  0  0
    3.9084   -1.7603    0.8462 F   0  0  0  0  0  0  0  0  0  0  0  0
    4.3934    0.1914   -0.2996 F   0  0  0  0  0  0  0  0  0  0  0  0
    3.0611    0.2695    1.5721 F   0  0  0  0  0  0  0  0  0  0  0  0
  1  7  1  0  0  0  0
  2  1  1  0  0  0  0
  2  8  1  0  0  0  0
  3  2  2  0  0  0  0
  4  5  2  0  0  0  0
  4  3  1  0  0  0  0
  5  6  1  0  0  0  0
  6 11  1  0  0  0  0
  6  1  2  0  0  0  0
  9  4  1  0  0  0  0
 10  5  1  0  0  0  0
 11 12  2  0  0  0  0
 13 11  2  0  0  0  0
 14  3  1  0  0  0  0
 15 14  1  0  0  0  0
 16 18  1  0  0  0  0
 16 20  1  0  0  0  0
 17 16  1  0  0  0  0
 19 16  1  0  0  0  0
M  RAD  2  14   2  15   3
M  END
