Coordinates from ORCA-job p-NO2-Ph-N2-X-BF4-B3LYPG-6-31G_dp-scan-d09-49-n400
 OpenBabel08281821043D

 20 19  0  0  0  0  0  0  0  0999 V2000
   -0.9919    0.6074    1.2973 C   0  0  0  0  0  0  0  0  0  0  0  0
    0.3371    0.7872    0.9220 C   0  0  0  0  0  0  0  0  0  0  0  0
    0.5618    1.5338   -0.2441 C   0  0  0  0  0  0  0  0  0  0  0  0
   -0.4501    2.0969   -1.0399 C   0  0  0  0  0  0  0  0  0  0  0  0
   -1.7641    1.8939   -0.6473 C   0  0  0  0  0  0  0  0  0  0  0  0
   -2.0036    1.1550    0.5129 C   0  0  0  0  0  0  0  0  0  0  0  0
   -1.2470    0.0418    2.1848 H   0  0  0  0  0  0  0  0  0  0  0  0
    1.1772    0.3687    1.4816 H   0  0  0  0  0  0  0  0  0  0  0  0
   -0.2070    2.6626   -1.9320 H   0  0  0  0  0  0  0  0  0  0  0  0
   -2.5963    2.2920   -1.2126 H   0  0  0  0  0  0  0  0  0  0  0  0
   -3.4154    0.9473    0.9269 N   0  0  0  0  0  0  0  0  0  0  0  0
   -3.6081    0.2960    1.9465 O   0  0  0  0  0  0  0  0  0  0  0  0
   -4.2821    1.4468    0.2159 O   0  0  0  0  0  0  0  0  0  0  0  0
    1.8741    1.7679   -0.6376 N   0  0  0  0  0  0  0  0  0  0  0  0
    2.9333    1.9794   -0.9094 N   0  0  0  0  0  0  0  0  0  0  0  0
    3.4105   -0.5868    0.7604 B   0  0  0  0  0  0  0  0  0  0  0  0
    2.3893   -0.6906   -0.2324 F   0  0  0  0  0  0  0  0  0  0  0  0
    4.2173   -1.6885    0.7664 F   0  0  0  0  0  0  0  0  0  0  0  0
    4.1450    0.6004    0.4650 F   0  0  0  0  0  0  0  0  0  0  0  0
    2.7632   -0.3926    2.0085 F   0  0  0  0  0  0  0  0  0  0  0  0
  1  7  1  0  0  0  0
  2  1  1  0  0  0  0
  2  8  1  0  0  0  0
  3  2  2  0  0  0  0
  4  5  2  0  0  0  0
  4  3  1  0  0  0  0
  5  6  1  0  0  0  0
  6 11  1  0  0  0  0
  6  1  2  0  0  0  0
  9  4  1  0  0  0  0
 10  5  1  0  0  0  0
 11 12  2  0  0  0  0
 13 11  2  0  0  0  0
 14  3  1  0  0  0  0
 15 14  1  0  0  0  0
 16 18  1  0  0  0  0
 16 20  1  0  0  0  0
 17 16  1  0  0  0  0
 19 16  1  0  0  0  0
M  RAD  2  14   2  15   3
M  END
