Coordinates from ORCA-job p-NO2-Ph-N2-X-BF4-B3LYPG-6-31G_dp-scan-d09-49-n400
 OpenBabel08281821043D

 20 19  0  0  0  0  0  0  0  0999 V2000
   -0.9838    0.6132    1.2950 C   0  0  0  0  0  0  0  0  0  0  0  0
    0.3433    0.7894    0.9112 C   0  0  0  0  0  0  0  0  0  0  0  0
    0.5620    1.5313   -0.2591 C   0  0  0  0  0  0  0  0  0  0  0  0
   -0.4539    2.0916   -1.0518 C   0  0  0  0  0  0  0  0  0  0  0  0
   -1.7658    1.8927   -0.6503 C   0  0  0  0  0  0  0  0  0  0  0  0
   -1.9995    1.1596    0.5148 C   0  0  0  0  0  0  0  0  0  0  0  0
   -1.2340    0.0515    2.1863 H   0  0  0  0  0  0  0  0  0  0  0  0
    1.1832    0.3687    1.4697 H   0  0  0  0  0  0  0  0  0  0  0  0
   -0.2153    2.6527   -1.9479 H   0  0  0  0  0  0  0  0  0  0  0  0
   -2.6008    2.2895   -1.2123 H   0  0  0  0  0  0  0  0  0  0  0  0
   -3.4090    0.9574    0.9392 N   0  0  0  0  0  0  0  0  0  0  0  0
   -3.5963    0.3126    1.9638 O   0  0  0  0  0  0  0  0  0  0  0  0
   -4.2792    1.4546    0.2308 O   0  0  0  0  0  0  0  0  0  0  0  0
    1.8724    1.7635   -0.6594 N   0  0  0  0  0  0  0  0  0  0  0  0
    2.9346    1.9661   -0.9248 N   0  0  0  0  0  0  0  0  0  0  0  0
    3.4039   -0.5904    0.7712 B   0  0  0  0  0  0  0  0  0  0  0  0
    2.4160   -0.6896   -0.2549 F   0  0  0  0  0  0  0  0  0  0  0  0
    4.2635   -1.6506    0.7443 F   0  0  0  0  0  0  0  0  0  0  0  0
    4.0867    0.6462    0.5596 F   0  0  0  0  0  0  0  0  0  0  0  0
    2.7152   -0.4913    2.0075 F   0  0  0  0  0  0  0  0  0  0  0  0
  1  7  1  0  0  0  0
  2  1  1  0  0  0  0
  2  8  1  0  0  0  0
  3  2  2  0  0  0  0
  4  5  2  0  0  0  0
  4  3  1  0  0  0  0
  5  6  1  0  0  0  0
  6 11  1  0  0  0  0
  6  1  2  0  0  0  0
  9  4  1  0  0  0  0
 10  5  1  0  0  0  0
 11 12  2  0  0  0  0
 13 11  2  0  0  0  0
 14  3  1  0  0  0  0
 15 14  1  0  0  0  0
 16 20  1  0  0  0  0
 17 16  1  0  0  0  0
 18 16  1  0  0  0  0
 19 16  1  0  0  0  0
M  RAD  2  14   2  15   3
M  END
