Coordinates from ORCA-job p-NO2-Ph-N2-X-BF4-B3LYPG-6-31G_dp-scan-d09-49-n400
 OpenBabel08281821043D

 20 19  0  0  0  0  0  0  0  0999 V2000
   -1.0193    0.5890    1.3007 C   0  0  0  0  0  0  0  0  0  0  0  0
    0.3140    0.7563    0.9359 C   0  0  0  0  0  0  0  0  0  0  0  0
    0.5568    1.5094   -0.2219 C   0  0  0  0  0  0  0  0  0  0  0  0
   -0.4435    2.0854   -1.0234 C   0  0  0  0  0  0  0  0  0  0  0  0
   -1.7629    1.8921   -0.6434 C   0  0  0  0  0  0  0  0  0  0  0  0
   -2.0194    1.1517    0.5120 C   0  0  0  0  0  0  0  0  0  0  0  0
   -1.2874    0.0226    2.1838 H   0  0  0  0  0  0  0  0  0  0  0  0
    1.1473    0.3289    1.4968 H   0  0  0  0  0  0  0  0  0  0  0  0
   -0.1880    2.6543   -1.9100 H   0  0  0  0  0  0  0  0  0  0  0  0
   -2.5863    2.3005   -1.2141 H   0  0  0  0  0  0  0  0  0  0  0  0
   -3.4360    0.9603    0.9168 N   0  0  0  0  0  0  0  0  0  0  0  0
   -3.6425    0.3148    1.9373 O   0  0  0  0  0  0  0  0  0  0  0  0
   -4.2924    1.4687    0.1996 O   0  0  0  0  0  0  0  0  0  0  0  0
    1.8742    1.7485   -0.6000 N   0  0  0  0  0  0  0  0  0  0  0  0
    2.9229    1.9966   -0.8807 N   0  0  0  0  0  0  0  0  0  0  0  0
    3.4471   -0.5666    0.7371 B   0  0  0  0  0  0  0  0  0  0  0  0
    2.4002   -0.6815   -0.2295 F   0  0  0  0  0  0  0  0  0  0  0  0
    4.1979   -1.7053    0.7976 F   0  0  0  0  0  0  0  0  0  0  0  0
    4.2315    0.5608    0.3578 F   0  0  0  0  0  0  0  0  0  0  0  0
    2.8291   -0.2676    1.9805 F   0  0  0  0  0  0  0  0  0  0  0  0
  1  7  1  0  0  0  0
  2  1  1  0  0  0  0
  2  8  1  0  0  0  0
  3  2  2  0  0  0  0
  4  5  2  0  0  0  0
  4  3  1  0  0  0  0
  5  6  1  0  0  0  0
  6 11  1  0  0  0  0
  6  1  2  0  0  0  0
  9  4  1  0  0  0  0
 10  5  1  0  0  0  0
 11 12  2  0  0  0  0
 13 11  2  0  0  0  0
 14  3  1  0  0  0  0
 15 14  1  0  0  0  0
 16 18  1  0  0  0  0
 16 20  1  0  0  0  0
 17 16  1  0  0  0  0
 19 16  1  0  0  0  0
M  RAD  2  14   2  15   3
M  END
