Coordinates from ORCA-job p-NO2-Ph-N2-X-BF4-B3LYPG-6-31G_dp-scan-d09-49-n400
 OpenBabel08281821043D

 20 19  0  0  0  0  0  0  0  0999 V2000
   -1.1016    0.6370    1.4373 C   0  0  0  0  0  0  0  0  0  0  0  0
    0.2543    0.8270    1.1945 C   0  0  0  0  0  0  0  0  0  0  0  0
    0.5973    1.5188    0.0255 C   0  0  0  0  0  0  0  0  0  0  0  0
   -0.3355    2.0111   -0.9010 C   0  0  0  0  0  0  0  0  0  0  0  0
   -1.6821    1.7955   -0.6437 C   0  0  0  0  0  0  0  0  0  0  0  0
   -2.0353    1.1173    0.5219 C   0  0  0  0  0  0  0  0  0  0  0  0
   -1.4409    0.1122    2.3215 H   0  0  0  0  0  0  0  0  0  0  0  0
    1.0238    0.4582    1.8610 H   0  0  0  0  0  0  0  0  0  0  0  0
   -0.0090    2.5315   -1.7939 H   0  0  0  0  0  0  0  0  0  0  0  0
   -2.4525    2.1412   -1.3204 H   0  0  0  0  0  0  0  0  0  0  0  0
   -3.4772    0.8991    0.7969 N   0  0  0  0  0  0  0  0  0  0  0  0
   -3.7650    0.3117    1.8333 O   0  0  0  0  0  0  0  0  0  0  0  0
   -4.2730    1.3266   -0.0336 O   0  0  0  0  0  0  0  0  0  0  0  0
    1.9356    1.7928   -0.2650 N   0  0  0  0  0  0  0  0  0  0  0  0
    2.9494    2.1450   -0.5553 N   0  0  0  0  0  0  0  0  0  0  0  0
    3.4403   -0.5419    0.4361 B   0  0  0  0  0  0  0  0  0  0  0  0
    2.2606   -0.6495   -0.3649 F   0  0  0  0  0  0  0  0  0  0  0  0
    3.8979   -1.7666    0.8286 F   0  0  0  0  0  0  0  0  0  0  0  0
    4.3942    0.1871   -0.3091 F   0  0  0  0  0  0  0  0  0  0  0  0
    3.0617    0.2647    1.5634 F   0  0  0  0  0  0  0  0  0  0  0  0
  1  7  1  0  0  0  0
  2  1  1  0  0  0  0
  2  8  1  0  0  0  0
  3  2  2  0  0  0  0
  4  5  2  0  0  0  0
  4  3  1  0  0  0  0
  5  6  1  0  0  0  0
  6 11  1  0  0  0  0
  6  1  2  0  0  0  0
  9  4  1  0  0  0  0
 10  5  1  0  0  0  0
 11 12  2  0  0  0  0
 13 11  2  0  0  0  0
 14  3  1  0  0  0  0
 15 14  1  0  0  0  0
 16 18  1  0  0  0  0
 16 20  1  0  0  0  0
 17 16  1  0  0  0  0
 19 16  1  0  0  0  0
M  RAD  2  14   2  15   3
M  END
