Coordinates from ORCA-job p-NO2-Ph-N2-X-BF4-B3LYPG-6-31G_dp-scan-d09-49-n400
 OpenBabel08281821043D

 20 19  0  0  0  0  0  0  0  0999 V2000
   -0.7831    0.8382    1.4342 C   0  0  0  0  0  0  0  0  0  0  0  0
    0.5235    1.0842    1.0188 C   0  0  0  0  0  0  0  0  0  0  0  0
    0.6760    1.6448   -0.2563 C   0  0  0  0  0  0  0  0  0  0  0  0
   -0.3763    1.9682   -1.1333 C   0  0  0  0  0  0  0  0  0  0  0  0
   -1.6625    1.7099   -0.6915 C   0  0  0  0  0  0  0  0  0  0  0  0
   -1.8353    1.1556    0.5818 C   0  0  0  0  0  0  0  0  0  0  0  0
   -0.9857    0.3919    2.3994 H   0  0  0  0  0  0  0  0  0  0  0  0
    1.4563    0.8363    1.5559 H   0  0  0  0  0  0  0  0  0  0  0  0
   -0.1851    2.3920   -2.1121 H   0  0  0  0  0  0  0  0  0  0  0  0
   -2.5285    1.9235   -1.3040 H   0  0  0  0  0  0  0  0  0  0  0  0
   -3.2246    0.8899    1.0377 N   0  0  0  0  0  0  0  0  0  0  0  0
   -3.3639    0.4262    2.1628 O   0  0  0  0  0  0  0  0  0  0  0  0
   -4.1289    1.1601    0.2527 O   0  0  0  0  0  0  0  0  0  0  0  0
    1.9675    1.9308   -0.6804 N   0  0  0  0  0  0  0  0  0  0  0  0
    2.9702    2.2323   -1.0476 N   0  0  0  0  0  0  0  0  0  0  0  0
    2.9670   -0.7493    0.6813 B   0  0  0  0  0  0  0  0  0  0  0  0
    2.6734   -0.4574   -0.6791 F   0  0  0  0  0  0  0  0  0  0  0  0
    4.1576   -1.4035    0.8177 F   0  0  0  0  0  0  0  0  0  0  0  0
    3.0401    0.5604    1.3417 F   0  0  0  0  0  0  0  0  0  0  0  0
    1.8855   -1.4152    1.2533 F   0  0  0  0  0  0  0  0  0  0  0  0
  1  7  1  0  0  0  0
  2  1  1  0  0  0  0
  2  8  1  0  0  0  0
  3  2  2  0  0  0  0
  4  5  2  0  0  0  0
  4  3  1  0  0  0  0
  5  6  1  0  0  0  0
  6 11  1  0  0  0  0
  6  1  2  0  0  0  0
  9  4  1  0  0  0  0
 10  5  1  0  0  0  0
 11 12  2  0  0  0  0
 13 11  2  0  0  0  0
 14  3  1  0  0  0  0
 15 14  1  0  0  0  0
 16 18  1  0  0  0  0
 16 20  1  0  0  0  0
 16 19  1  0  0  0  0
 17 16  1  0  0  0  0
M  RAD  2  14   2  15   3
M  END
