Coordinates from ORCA-job p-NO2-Ph-N2-X-BF4-B3LYPG-6-31G_dp-scan-d09-49-n400
 OpenBabel08281821043D

 20 19  0  0  0  0  0  0  0  0999 V2000
   -1.0731    0.5784    1.3637 C   0  0  0  0  0  0  0  0  0  0  0  0
    0.2757    0.7608    1.0756 C   0  0  0  0  0  0  0  0  0  0  0  0
    0.5810    1.5100   -0.0681 C   0  0  0  0  0  0  0  0  0  0  0  0
   -0.3775    2.0724   -0.9271 C   0  0  0  0  0  0  0  0  0  0  0  0
   -1.7154    1.8647   -0.6250 C   0  0  0  0  0  0  0  0  0  0  0  0
   -2.0324    1.1250    0.5146 C   0  0  0  0  0  0  0  0  0  0  0  0
   -1.3868    0.0113    2.2311 H   0  0  0  0  0  0  0  0  0  0  0  0
    1.0817    0.3586    1.6808 H   0  0  0  0  0  0  0  0  0  0  0  0
   -0.0774    2.6390   -1.8011 H   0  0  0  0  0  0  0  0  0  0  0  0
   -2.5073    2.2615   -1.2464 H   0  0  0  0  0  0  0  0  0  0  0  0
   -3.4670    0.9141    0.8338 N   0  0  0  0  0  0  0  0  0  0  0  0
   -3.7254    0.2695    1.8433 O   0  0  0  0  0  0  0  0  0  0  0  0
   -4.2863    1.4042    0.0627 O   0  0  0  0  0  0  0  0  0  0  0  0
    1.9141    1.7582   -0.3917 N   0  0  0  0  0  0  0  0  0  0  0  0
    2.9401    2.0611   -0.6984 N   0  0  0  0  0  0  0  0  0  0  0  0
    3.4471   -0.5340    0.5662 B   0  0  0  0  0  0  0  0  0  0  0  0
    2.2824   -0.7232   -0.2375 F   0  0  0  0  0  0  0  0  0  0  0  0
    3.9795   -1.7221    0.9757 F   0  0  0  0  0  0  0  0  0  0  0  0
    4.3584    0.2376   -0.1943 F   0  0  0  0  0  0  0  0  0  0  0  0
    3.0317    0.2715    1.6749 F   0  0  0  0  0  0  0  0  0  0  0  0
  1  7  1  0  0  0  0
  2  1  1  0  0  0  0
  2  8  1  0  0  0  0
  3  2  2  0  0  0  0
  4  5  2  0  0  0  0
  4  3  1  0  0  0  0
  5  6  1  0  0  0  0
  6 11  1  0  0  0  0
  6  1  2  0  0  0  0
  9  4  1  0  0  0  0
 10  5  1  0  0  0  0
 11 12  2  0  0  0  0
 13 11  2  0  0  0  0
 14  3  1  0  0  0  0
 15 14  1  0  0  0  0
 16 18  1  0  0  0  0
 16 20  1  0  0  0  0
 17 16  1  0  0  0  0
 19 16  1  0  0  0  0
M  RAD  2  14   2  15   3
M  END
