Coordinates from ORCA-job p-NO2-Ph-N2-X-BF4-B3LYPG-6-31G_dp-scan-d09-49-n400
 OpenBabel08281821043D

 20 19  0  0  0  0  0  0  0  0999 V2000
   -0.9163    0.6637    1.3114 C   0  0  0  0  0  0  0  0  0  0  0  0
    0.4030    0.8354    0.8996 C   0  0  0  0  0  0  0  0  0  0  0  0
    0.5945    1.5367   -0.3003 C   0  0  0  0  0  0  0  0  0  0  0  0
   -0.4405    2.0587   -1.0952 C   0  0  0  0  0  0  0  0  0  0  0  0
   -1.7433    1.8676   -0.6624 C   0  0  0  0  0  0  0  0  0  0  0  0
   -1.9502    1.1772    0.5335 C   0  0  0  0  0  0  0  0  0  0  0  0
   -1.1438    0.1273    2.2240 H   0  0  0  0  0  0  0  0  0  0  0  0
    1.2375    0.4145    1.4597 H   0  0  0  0  0  0  0  0  0  0  0  0
   -0.2223    2.5854   -2.0170 H   0  0  0  0  0  0  0  0  0  0  0  0
   -2.5911    2.2369   -1.2240 H   0  0  0  0  0  0  0  0  0  0  0  0
   -3.3501    0.9816    0.9916 N   0  0  0  0  0  0  0  0  0  0  0  0
   -3.5128    0.3849    2.0488 O   0  0  0  0  0  0  0  0  0  0  0  0
   -4.2371    1.4360    0.2753 O   0  0  0  0  0  0  0  0  0  0  0  0
    1.8931    1.7624   -0.7362 N   0  0  0  0  0  0  0  0  0  0  0  0
    2.9505    1.9514   -1.0177 N   0  0  0  0  0  0  0  0  0  0  0  0
    3.2879   -0.6180    0.7907 B   0  0  0  0  0  0  0  0  0  0  0  0
    2.5167   -0.6802   -0.4080 F   0  0  0  0  0  0  0  0  0  0  0  0
    4.4179   -1.3804    0.7072 F   0  0  0  0  0  0  0  0  0  0  0  0
    3.5980    0.7703    0.9854 F   0  0  0  0  0  0  0  0  0  0  0  0
    2.4514   -0.9927    1.8664 F   0  0  0  0  0  0  0  0  0  0  0  0
  1  7  1  0  0  0  0
  2  1  1  0  0  0  0
  2  8  1  0  0  0  0
  3  2  2  0  0  0  0
  4  5  2  0  0  0  0
  4  3  1  0  0  0  0
  5  6  1  0  0  0  0
  6 11  1  0  0  0  0
  6  1  2  0  0  0  0
  9  4  1  0  0  0  0
 10  5  1  0  0  0  0
 11 12  2  0  0  0  0
 13 11  2  0  0  0  0
 14  3  1  0  0  0  0
 15 14  1  0  0  0  0
 16 19  1  0  0  0  0
 16 20  1  0  0  0  0
 17 16  1  0  0  0  0
 18 16  1  0  0  0  0
M  RAD  2  14   2  15   3
M  END
