Coordinates from ORCA-job p-NO2-Ph-N2-X-BF4-B3LYPG-6-31G_dp-scan-d09-49-n400
 OpenBabel08281821043D

 20 19  0  0  0  0  0  0  0  0999 V2000
   -1.1964    1.1127    1.7821 C   0  0  0  0  0  0  0  0  0  0  0  0
    0.1609    1.3946    1.7062 C   0  0  0  0  0  0  0  0  0  0  0  0
    0.7009    1.6192    0.4359 C   0  0  0  0  0  0  0  0  0  0  0  0
   -0.0244    1.5418   -0.7573 C   0  0  0  0  0  0  0  0  0  0  0  0
   -1.3819    1.2650   -0.6593 C   0  0  0  0  0  0  0  0  0  0  0  0
   -1.9386    1.0644    0.6025 C   0  0  0  0  0  0  0  0  0  0  0  0
   -1.6823    0.9208    2.7300 H   0  0  0  0  0  0  0  0  0  0  0  0
    0.7919    1.4112    2.5857 H   0  0  0  0  0  0  0  0  0  0  0  0
    0.4784    1.6488   -1.7086 H   0  0  0  0  0  0  0  0  0  0  0  0
   -2.0063    1.1880   -1.5401 H   0  0  0  0  0  0  0  0  0  0  0  0
   -3.3895    0.7731    0.6947 N   0  0  0  0  0  0  0  0  0  0  0  0
   -3.8525    0.5925    1.8162 O   0  0  0  0  0  0  0  0  0  0  0  0
   -4.0205    0.7399   -0.3565 O   0  0  0  0  0  0  0  0  0  0  0  0
    2.0476    1.9701    0.3581 N   0  0  0  0  0  0  0  0  0  0  0  0
    3.0937    2.3412    0.3127 N   0  0  0  0  0  0  0  0  0  0  0  0
    3.1132   -0.5373   -0.2834 B   0  0  0  0  0  0  0  0  0  0  0  0
    2.2408    0.0328   -1.2656 F   0  0  0  0  0  0  0  0  0  0  0  0
    3.3944   -1.8443   -0.5574 F   0  0  0  0  0  0  0  0  0  0  0  0
    4.2676    0.2755   -0.2370 F   0  0  0  0  0  0  0  0  0  0  0  0
    2.4458   -0.3914    0.9740 F   0  0  0  0  0  0  0  0  0  0  0  0
  1  7  1  0  0  0  0
  2  1  1  0  0  0  0
  2  8  1  0  0  0  0
  3  2  2  0  0  0  0
  4  5  2  0  0  0  0
  4  3  1  0  0  0  0
  5  6  1  0  0  0  0
  6 11  1  0  0  0  0
  6  1  2  0  0  0  0
  9  4  1  0  0  0  0
 10  5  1  0  0  0  0
 11 12  2  0  0  0  0
 13 11  2  0  0  0  0
 14  3  1  0  0  0  0
 15 14  1  0  0  0  0
 16 19  1  0  0  0  0
 16 20  1  0  0  0  0
 17 16  1  0  0  0  0
 18 16  1  0  0  0  0
M  RAD  2  14   2  15   3
M  END
