Coordinates from ORCA-job p-NO2-Ph-N2-X-BF4-B3LYPG-6-31G_dp-scan-d09-49-n400
 OpenBabel08281821043D

 20 19  0  0  0  0  0  0  0  0999 V2000
   -1.0301    0.5968    1.3286 C   0  0  0  0  0  0  0  0  0  0  0  0
    0.3080    0.7826    0.9936 C   0  0  0  0  0  0  0  0  0  0  0  0
    0.5677    1.5314   -0.1626 C   0  0  0  0  0  0  0  0  0  0  0  0
   -0.4208    2.0883   -0.9910 C   0  0  0  0  0  0  0  0  0  0  0  0
   -1.7460    1.8754   -0.6418 C   0  0  0  0  0  0  0  0  0  0  0  0
   -2.0194    1.1377    0.5112 C   0  0  0  0  0  0  0  0  0  0  0  0
   -1.3113    0.0316    2.2083 H   0  0  0  0  0  0  0  0  0  0  0  0
    1.1395    0.3775    1.5704 H   0  0  0  0  0  0  0  0  0  0  0  0
   -0.1529    2.6547   -1.8755 H   0  0  0  0  0  0  0  0  0  0  0  0
   -2.5614    2.2665   -1.2357 H   0  0  0  0  0  0  0  0  0  0  0  0
   -3.4419    0.9237    0.8811 N   0  0  0  0  0  0  0  0  0  0  0  0
   -3.6631    0.2825    1.9014 O   0  0  0  0  0  0  0  0  0  0  0  0
   -4.2889    1.4085    0.1368 O   0  0  0  0  0  0  0  0  0  0  0  0
    1.8915    1.7784   -0.5146 N   0  0  0  0  0  0  0  0  0  0  0  0
    2.9363    2.0411   -0.7974 N   0  0  0  0  0  0  0  0  0  0  0  0
    3.4317   -0.5684    0.6731 B   0  0  0  0  0  0  0  0  0  0  0  0
    2.3234   -0.6779   -0.2223 F   0  0  0  0  0  0  0  0  0  0  0  0
    4.0587   -1.7690    0.8437 F   0  0  0  0  0  0  0  0  0  0  0  0
    4.3019    0.4135    0.1270 F   0  0  0  0  0  0  0  0  0  0  0  0
    2.9200   -0.0561    1.8985 F   0  0  0  0  0  0  0  0  0  0  0  0
  1  7  1  0  0  0  0
  2  1  1  0  0  0  0
  2  8  1  0  0  0  0
  3  2  2  0  0  0  0
  4  5  2  0  0  0  0
  4  3  1  0  0  0  0
  5  6  1  0  0  0  0
  6 11  1  0  0  0  0
  6  1  2  0  0  0  0
  9  4  1  0  0  0  0
 10  5  1  0  0  0  0
 11 12  2  0  0  0  0
 13 11  2  0  0  0  0
 14  3  1  0  0  0  0
 15 14  1  0  0  0  0
 16 18  1  0  0  0  0
 16 20  1  0  0  0  0
 17 16  1  0  0  0  0
 19 16  1  0  0  0  0
M  RAD  2  14   2  15   3
M  END
