Coordinates from ORCA-job p-NO2-Ph-N2-X-BF4-B3LYPG-6-31G_dp-scan-d09-49-n400
 OpenBabel08281821043D

 20 19  0  0  0  0  0  0  0  0999 V2000
   -0.8135    0.8432    1.4613 C   0  0  0  0  0  0  0  0  0  0  0  0
    0.5013    1.0831    1.0730 C   0  0  0  0  0  0  0  0  0  0  0  0
    0.6905    1.6270   -0.2040 C   0  0  0  0  0  0  0  0  0  0  0  0
   -0.3428    1.9336   -1.1079 C   0  0  0  0  0  0  0  0  0  0  0  0
   -1.6406    1.6799   -0.6963 C   0  0  0  0  0  0  0  0  0  0  0  0
   -1.8457    1.1465    0.5795 C   0  0  0  0  0  0  0  0  0  0  0  0
   -1.0385    0.4131    2.4288 H   0  0  0  0  0  0  0  0  0  0  0  0
    1.3898    0.8411    1.6555 H   0  0  0  0  0  0  0  0  0  0  0  0
   -0.1279    2.3435   -2.0877 H   0  0  0  0  0  0  0  0  0  0  0  0
   -2.4902    1.8838   -1.3348 H   0  0  0  0  0  0  0  0  0  0  0  0
   -3.2446    0.8893    1.0082 N   0  0  0  0  0  0  0  0  0  0  0  0
   -3.4095    0.4446    2.1376 O   0  0  0  0  0  0  0  0  0  0  0  0
   -4.1305    1.1474    0.1988 O   0  0  0  0  0  0  0  0  0  0  0  0
    1.9855    1.9291   -0.6108 N   0  0  0  0  0  0  0  0  0  0  0  0
    2.9719    2.2739   -0.9836 N   0  0  0  0  0  0  0  0  0  0  0  0
    2.9799   -0.7228    0.6250 B   0  0  0  0  0  0  0  0  0  0  0  0
    2.6076   -0.4486   -0.7236 F   0  0  0  0  0  0  0  0  0  0  0  0
    4.1508   -1.4234    0.6931 F   0  0  0  0  0  0  0  0  0  0  0  0
    3.1374    0.5850    1.2497 F   0  0  0  0  0  0  0  0  0  0  0  0
    1.9121   -1.3503    1.2713 F   0  0  0  0  0  0  0  0  0  0  0  0
  1  7  1  0  0  0  0
  2  1  1  0  0  0  0
  2  8  1  0  0  0  0
  3  2  2  0  0  0  0
  4  5  2  0  0  0  0
  4  3  1  0  0  0  0
  5  6  1  0  0  0  0
  6 11  1  0  0  0  0
  6  1  2  0  0  0  0
  9  4  1  0  0  0  0
 10  5  1  0  0  0  0
 11 12  2  0  0  0  0
 13 11  2  0  0  0  0
 14  3  1  0  0  0  0
 15 14  1  0  0  0  0
 16 18  1  0  0  0  0
 16 19  1  0  0  0  0
 16 20  1  0  0  0  0
 17 16  1  0  0  0  0
M  RAD  2  14   2  15   3
M  END
