Coordinates from ORCA-job p-NO2-Ph-N2-X-BF4-B3LYPG-6-31G_dp-scan-d09-49-n400
 OpenBabel08281821043D

 20 19  0  0  0  0  0  0  0  0999 V2000
   -1.0558    0.5722    1.3423 C   0  0  0  0  0  0  0  0  0  0  0  0
    0.2890    0.7588    1.0372 C   0  0  0  0  0  0  0  0  0  0  0  0
    0.5764    1.5197   -0.1035 C   0  0  0  0  0  0  0  0  0  0  0  0
   -0.3931    2.0932   -0.9428 C   0  0  0  0  0  0  0  0  0  0  0  0
   -1.7261    1.8813   -0.6236 C   0  0  0  0  0  0  0  0  0  0  0  0
   -2.0263    1.1275    0.5120 C   0  0  0  0  0  0  0  0  0  0  0  0
   -1.3574   -0.0046    2.2076 H   0  0  0  0  0  0  0  0  0  0  0  0
    1.1101    0.3532    1.6222 H   0  0  0  0  0  0  0  0  0  0  0  0
   -0.1053    2.6704   -1.8140 H   0  0  0  0  0  0  0  0  0  0  0  0
   -2.5274    2.2848   -1.2283 H   0  0  0  0  0  0  0  0  0  0  0  0
   -3.4567    0.9110    0.8472 N   0  0  0  0  0  0  0  0  0  0  0  0
   -3.7015    0.2520    1.8508 O   0  0  0  0  0  0  0  0  0  0  0  0
   -4.2864    1.4109    0.0936 O   0  0  0  0  0  0  0  0  0  0  0  0
    1.9066    1.7624   -0.4379 N   0  0  0  0  0  0  0  0  0  0  0  0
    2.9402    2.0391   -0.7457 N   0  0  0  0  0  0  0  0  0  0  0  0
    3.4372   -0.5423    0.6137 B   0  0  0  0  0  0  0  0  0  0  0  0
    2.2805   -0.7320   -0.2005 F   0  0  0  0  0  0  0  0  0  0  0  0
    3.9970   -1.7302    0.9845 F   0  0  0  0  0  0  0  0  0  0  0  0
    4.3328    0.2704   -0.1253 F   0  0  0  0  0  0  0  0  0  0  0  0
    3.0092    0.2209    1.7433 F   0  0  0  0  0  0  0  0  0  0  0  0
  1  7  1  0  0  0  0
  2  1  1  0  0  0  0
  2  8  1  0  0  0  0
  3  2  2  0  0  0  0
  4  5  2  0  0  0  0
  4  3  1  0  0  0  0
  5  6  1  0  0  0  0
  6 11  1  0  0  0  0
  6  1  2  0  0  0  0
  9  4  1  0  0  0  0
 10  5  1  0  0  0  0
 11 12  2  0  0  0  0
 13 11  2  0  0  0  0
 14  3  1  0  0  0  0
 15 14  1  0  0  0  0
 16 18  1  0  0  0  0
 16 20  1  0  0  0  0
 17 16  1  0  0  0  0
 19 16  1  0  0  0  0
M  RAD  2  14   2  15   3
M  END
