Coordinates from ORCA-job p-NO2-Ph-N2-X-BF4-B3LYPG-6-31G_dp-scan-d09-49-n400
 OpenBabel08281821043D

 20 19  0  0  0  0  0  0  0  0999 V2000
   -0.7870    0.8363    1.4356 C   0  0  0  0  0  0  0  0  0  0  0  0
    0.5204    1.0796    1.0215 C   0  0  0  0  0  0  0  0  0  0  0  0
    0.6761    1.6404   -0.2531 C   0  0  0  0  0  0  0  0  0  0  0  0
   -0.3746    1.9657   -1.1312 C   0  0  0  0  0  0  0  0  0  0  0  0
   -1.6619    1.7095   -0.6912 C   0  0  0  0  0  0  0  0  0  0  0  0
   -1.8376    1.1556    0.5817 C   0  0  0  0  0  0  0  0  0  0  0  0
   -0.9916    0.3906    2.4006 H   0  0  0  0  0  0  0  0  0  0  0  0
    1.4505    0.8307    1.5606 H   0  0  0  0  0  0  0  0  0  0  0  0
   -0.1814    2.3895   -2.1096 H   0  0  0  0  0  0  0  0  0  0  0  0
   -2.5266    1.9247   -1.3050 H   0  0  0  0  0  0  0  0  0  0  0  0
   -3.2279    0.8925    1.0359 N   0  0  0  0  0  0  0  0  0  0  0  0
   -3.3695    0.4296    2.1611 O   0  0  0  0  0  0  0  0  0  0  0  0
   -4.1306    1.1637    0.2495 O   0  0  0  0  0  0  0  0  0  0  0  0
    1.9682    1.9266   -0.6760 N   0  0  0  0  0  0  0  0  0  0  0  0
    2.9688    2.2319   -1.0458 N   0  0  0  0  0  0  0  0  0  0  0  0
    2.9720   -0.7456    0.6780 B   0  0  0  0  0  0  0  0  0  0  0  0
    2.6723   -0.4573   -0.6818 F   0  0  0  0  0  0  0  0  0  0  0  0
    4.1646   -1.3972    0.8109 F   0  0  0  0  0  0  0  0  0  0  0  0
    3.0448    0.5651    1.3356 F   0  0  0  0  0  0  0  0  0  0  0  0
    1.8940   -1.4131    1.2555 F   0  0  0  0  0  0  0  0  0  0  0  0
  1  7  1  0  0  0  0
  2  1  1  0  0  0  0
  2  8  1  0  0  0  0
  3  2  2  0  0  0  0
  4  5  2  0  0  0  0
  4  3  1  0  0  0  0
  5  6  1  0  0  0  0
  6 11  1  0  0  0  0
  6  1  2  0  0  0  0
  9  4  1  0  0  0  0
 10  5  1  0  0  0  0
 11 12  2  0  0  0  0
 13 11  2  0  0  0  0
 14  3  1  0  0  0  0
 15 14  1  0  0  0  0
 16 18  1  0  0  0  0
 16 20  1  0  0  0  0
 16 19  1  0  0  0  0
 17 16  1  0  0  0  0
M  RAD  2  14   2  15   3
M  END
