Coordinates from ORCA-job p-NO2-Ph-N2-X-BF4-B3LYPG-6-31G_dp-scan-d09-49-n400
 OpenBabel08281821043D

 20 19  0  0  0  0  0  0  0  0999 V2000
   -0.9949    0.6096    1.3021 C   0  0  0  0  0  0  0  0  0  0  0  0
    0.3349    0.7914    0.9309 C   0  0  0  0  0  0  0  0  0  0  0  0
    0.5624    1.5360   -0.2358 C   0  0  0  0  0  0  0  0  0  0  0  0
   -0.4477    2.0947   -1.0369 C   0  0  0  0  0  0  0  0  0  0  0  0
   -1.7627    1.8896   -0.6486 C   0  0  0  0  0  0  0  0  0  0  0  0
   -2.0050    1.1532    0.5126 C   0  0  0  0  0  0  0  0  0  0  0  0
   -1.2520    0.0459    2.1901 H   0  0  0  0  0  0  0  0  0  0  0  0
    1.1747    0.3775    1.4940 H   0  0  0  0  0  0  0  0  0  0  0  0
   -0.2027    2.6587   -1.9295 H   0  0  0  0  0  0  0  0  0  0  0  0
   -2.5937    2.2843   -1.2180 H   0  0  0  0  0  0  0  0  0  0  0  0
   -3.4177    0.9442    0.9224 N   0  0  0  0  0  0  0  0  0  0  0  0
   -3.6126    0.2964    1.9438 O   0  0  0  0  0  0  0  0  0  0  0  0
   -4.2830    1.4393    0.2066 O   0  0  0  0  0  0  0  0  0  0  0  0
    1.8759    1.7725   -0.6248 N   0  0  0  0  0  0  0  0  0  0  0  0
    2.9341    1.9890   -0.8963 N   0  0  0  0  0  0  0  0  0  0  0  0
    3.4118   -0.5878    0.7511 B   0  0  0  0  0  0  0  0  0  0  0  0
    2.3817   -0.6856   -0.2334 F   0  0  0  0  0  0  0  0  0  0  0  0
    4.2011   -1.7021    0.7625 F   0  0  0  0  0  0  0  0  0  0  0  0
    4.1627    0.5843    0.4386 F   0  0  0  0  0  0  0  0  0  0  0  0
    2.7756   -0.3724    2.0017 F   0  0  0  0  0  0  0  0  0  0  0  0
  1  7  1  0  0  0  0
  2  1  1  0  0  0  0
  2  8  1  0  0  0  0
  3  2  2  0  0  0  0
  4  5  2  0  0  0  0
  4  3  1  0  0  0  0
  5  6  1  0  0  0  0
  6 11  1  0  0  0  0
  6  1  2  0  0  0  0
  9  4  1  0  0  0  0
 10  5  1  0  0  0  0
 11 12  2  0  0  0  0
 13 11  2  0  0  0  0
 14  3  1  0  0  0  0
 15 14  1  0  0  0  0
 16 18  1  0  0  0  0
 16 20  1  0  0  0  0
 17 16  1  0  0  0  0
 19 16  1  0  0  0  0
M  RAD  2  14   2  15   3
M  END
