Coordinates from ORCA-job p-NO2-Ph-N2-X-BF4-B3LYPG-6-31G_dp-scan-d09-49-n400
 OpenBabel08281821043D

 20 19  0  0  0  0  0  0  0  0999 V2000
   -0.9189    0.6606    1.3090 C   0  0  0  0  0  0  0  0  0  0  0  0
    0.4004    0.8314    0.8971 C   0  0  0  0  0  0  0  0  0  0  0  0
    0.5923    1.5354   -0.3012 C   0  0  0  0  0  0  0  0  0  0  0  0
   -0.4422    2.0607   -1.0944 C   0  0  0  0  0  0  0  0  0  0  0  0
   -1.7451    1.8702   -0.6617 C   0  0  0  0  0  0  0  0  0  0  0  0
   -1.9524    1.1773    0.5327 C   0  0  0  0  0  0  0  0  0  0  0  0
   -1.1468    0.1225    2.2205 H   0  0  0  0  0  0  0  0  0  0  0  0
    1.2346    0.4080    1.4561 H   0  0  0  0  0  0  0  0  0  0  0  0
   -0.2237    2.5895   -2.0149 H   0  0  0  0  0  0  0  0  0  0  0  0
   -2.5926    2.2419   -1.2221 H   0  0  0  0  0  0  0  0  0  0  0  0
   -3.3524    0.9824    0.9909 N   0  0  0  0  0  0  0  0  0  0  0  0
   -3.5156    0.3835    2.0468 O   0  0  0  0  0  0  0  0  0  0  0  0
   -4.2391    1.4398    0.2761 O   0  0  0  0  0  0  0  0  0  0  0  0
    1.8913    1.7604   -0.7366 N   0  0  0  0  0  0  0  0  0  0  0  0
    2.9499    1.9468   -1.0158 N   0  0  0  0  0  0  0  0  0  0  0  0
    3.2942   -0.6159    0.7925 B   0  0  0  0  0  0  0  0  0  0  0  0
    2.5166   -0.6821   -0.4019 F   0  0  0  0  0  0  0  0  0  0  0  0
    4.4188   -1.3861    0.7090 F   0  0  0  0  0  0  0  0  0  0  0  0
    3.6135    0.7714    0.9763 F   0  0  0  0  0  0  0  0  0  0  0  0
    2.4604   -0.9790    1.8747 F   0  0  0  0  0  0  0  0  0  0  0  0
  1  7  1  0  0  0  0
  2  1  1  0  0  0  0
  2  8  1  0  0  0  0
  3  2  2  0  0  0  0
  4  5  2  0  0  0  0
  4  3  1  0  0  0  0
  5  6  1  0  0  0  0
  6 11  1  0  0  0  0
  6  1  2  0  0  0  0
  9  4  1  0  0  0  0
 10  5  1  0  0  0  0
 11 12  2  0  0  0  0
 13 11  2  0  0  0  0
 14  3  1  0  0  0  0
 15 14  1  0  0  0  0
 16 19  1  0  0  0  0
 16 20  1  0  0  0  0
 17 16  1  0  0  0  0
 18 16  1  0  0  0  0
M  RAD  2  14   2  15   3
M  END
