Coordinates from ORCA-job p-NO2-Ph-N2-X-BF4-B3LYPG-6-31G_dp-scan-d09-49-n400
 OpenBabel08281821043D

 20 19  0  0  0  0  0  0  0  0999 V2000
   -1.1870    1.1036    1.7767 C   0  0  0  0  0  0  0  0  0  0  0  0
    0.1692    1.3879    1.6950 C   0  0  0  0  0  0  0  0  0  0  0  0
    0.7010    1.6251    0.4234 C   0  0  0  0  0  0  0  0  0  0  0  0
   -0.0295    1.5538   -0.7665 C   0  0  0  0  0  0  0  0  0  0  0  0
   -1.3860    1.2740   -0.6629 C   0  0  0  0  0  0  0  0  0  0  0  0
   -1.9355    1.0640    0.6005 C   0  0  0  0  0  0  0  0  0  0  0  0
   -1.6672    0.9022    2.7255 H   0  0  0  0  0  0  0  0  0  0  0  0
    0.8097    1.3928    2.5676 H   0  0  0  0  0  0  0  0  0  0  0  0
    0.4680    1.6683   -1.7198 H   0  0  0  0  0  0  0  0  0  0  0  0
   -2.0153    1.2014   -1.5407 H   0  0  0  0  0  0  0  0  0  0  0  0
   -3.3856    0.7700    0.6983 N   0  0  0  0  0  0  0  0  0  0  0  0
   -3.8427    0.5819    1.8210 O   0  0  0  0  0  0  0  0  0  0  0  0
   -4.0220    0.7429   -0.3498 O   0  0  0  0  0  0  0  0  0  0  0  0
    2.0472    1.9773    0.3446 N   0  0  0  0  0  0  0  0  0  0  0  0
    3.0948    2.3448    0.3044 N   0  0  0  0  0  0  0  0  0  0  0  0
    3.1052   -0.5389   -0.2662 B   0  0  0  0  0  0  0  0  0  0  0  0
    2.2410    0.0271   -1.2578 F   0  0  0  0  0  0  0  0  0  0  0  0
    3.3904   -1.8465   -0.5326 F   0  0  0  0  0  0  0  0  0  0  0  0
    4.2587    0.2755   -0.2132 F   0  0  0  0  0  0  0  0  0  0  0  0
    2.4285   -0.3885    0.9855 F   0  0  0  0  0  0  0  0  0  0  0  0
  1  7  1  0  0  0  0
  2  1  1  0  0  0  0
  2  8  1  0  0  0  0
  3  2  2  0  0  0  0
  4  5  2  0  0  0  0
  4  3  1  0  0  0  0
  5  6  1  0  0  0  0
  6 11  1  0  0  0  0
  6  1  2  0  0  0  0
  9  4  1  0  0  0  0
 10  5  1  0  0  0  0
 11 12  2  0  0  0  0
 13 11  2  0  0  0  0
 14  3  1  0  0  0  0
 15 14  1  0  0  0  0
 16 19  1  0  0  0  0
 16 20  1  0  0  0  0
 17 16  1  0  0  0  0
 18 16  1  0  0  0  0
M  RAD  2  14   2  15   3
M  END
