Coordinates from ORCA-job p-NO2-Ph-N2-X-BF4-B3LYPG-6-31G_dp-scan-d09-49-n400
 OpenBabel08281821043D

 20 19  0  0  0  0  0  0  0  0999 V2000
   -0.8244    0.8493    1.4723 C   0  0  0  0  0  0  0  0  0  0  0  0
    0.4935    1.0848    1.0924 C   0  0  0  0  0  0  0  0  0  0  0  0
    0.6946    1.6190   -0.1867 C   0  0  0  0  0  0  0  0  0  0  0  0
   -0.3325    1.9174   -1.1002 C   0  0  0  0  0  0  0  0  0  0  0  0
   -1.6341    1.6672   -0.6980 C   0  0  0  0  0  0  0  0  0  0  0  0
   -1.8500    1.1454    0.5803 C   0  0  0  0  0  0  0  0  0  0  0  0
   -1.0571    0.4284    2.4419 H   0  0  0  0  0  0  0  0  0  0  0  0
    1.3655    0.8449    1.6939 H   0  0  0  0  0  0  0  0  0  0  0  0
   -0.1096    2.3193   -2.0815 H   0  0  0  0  0  0  0  0  0  0  0  0
   -2.4780    1.8662   -1.3455 H   0  0  0  0  0  0  0  0  0  0  0  0
   -3.2520    0.8943    1.0016 N   0  0  0  0  0  0  0  0  0  0  0  0
   -3.4253    0.4606    2.1341 O   0  0  0  0  0  0  0  0  0  0  0  0
   -4.1318    1.1460    0.1836 O   0  0  0  0  0  0  0  0  0  0  0  0
    1.9899    1.9268   -0.5903 N   0  0  0  0  0  0  0  0  0  0  0  0
    2.9692    2.2858   -0.9682 N   0  0  0  0  0  0  0  0  0  0  0  0
    2.9875   -0.7163    0.6036 B   0  0  0  0  0  0  0  0  0  0  0  0
    2.5852   -0.4464   -0.7385 F   0  0  0  0  0  0  0  0  0  0  0  0
    4.1483   -1.4362    0.6459 F   0  0  0  0  0  0  0  0  0  0  0  0
    3.1784    0.5896    1.2145 F   0  0  0  0  0  0  0  0  0  0  0  0
    1.9258   -1.3273    1.2777 F   0  0  0  0  0  0  0  0  0  0  0  0
  1  7  1  0  0  0  0
  2  1  1  0  0  0  0
  2  8  1  0  0  0  0
  3  2  2  0  0  0  0
  4  5  2  0  0  0  0
  4  3  1  0  0  0  0
  5  6  1  0  0  0  0
  6 11  1  0  0  0  0
  6  1  2  0  0  0  0
  9  4  1  0  0  0  0
 10  5  1  0  0  0  0
 11 12  2  0  0  0  0
 13 11  2  0  0  0  0
 14  3  1  0  0  0  0
 15 14  1  0  0  0  0
 16 18  1  0  0  0  0
 16 19  1  0  0  0  0
 16 20  1  0  0  0  0
 17 16  1  0  0  0  0
M  RAD  2  14   2  15   3
M  END
