Coordinates from ORCA-job p-NO2-Ph-N2-X-BF4-B3LYPG-6-31G_dp-scan-d09-49-n400
 OpenBabel08281821043D

 20 19  0  0  0  0  0  0  0  0999 V2000
   -0.9960    0.6103    1.3036 C   0  0  0  0  0  0  0  0  0  0  0  0
    0.3340    0.7924    0.9338 C   0  0  0  0  0  0  0  0  0  0  0  0
    0.5626    1.5364   -0.2331 C   0  0  0  0  0  0  0  0  0  0  0  0
   -0.4469    2.0938   -1.0359 C   0  0  0  0  0  0  0  0  0  0  0  0
   -1.7623    1.8881   -0.6491 C   0  0  0  0  0  0  0  0  0  0  0  0
   -2.0055    1.1526    0.5125 C   0  0  0  0  0  0  0  0  0  0  0  0
   -1.2540    0.0472    2.1918 H   0  0  0  0  0  0  0  0  0  0  0  0
    1.1736    0.3798    1.4980 H   0  0  0  0  0  0  0  0  0  0  0  0
   -0.2011    2.6572   -1.9286 H   0  0  0  0  0  0  0  0  0  0  0  0
   -2.5928    2.2819   -1.2198 H   0  0  0  0  0  0  0  0  0  0  0  0
   -3.4185    0.9435    0.9211 N   0  0  0  0  0  0  0  0  0  0  0  0
   -3.6143    0.2971    1.9432 O   0  0  0  0  0  0  0  0  0  0  0  0
   -4.2833    1.4370    0.2035 O   0  0  0  0  0  0  0  0  0  0  0  0
    1.8764    1.7738   -0.6205 N   0  0  0  0  0  0  0  0  0  0  0  0
    2.9343    1.9920   -0.8921 N   0  0  0  0  0  0  0  0  0  0  0  0
    3.4125   -0.5880    0.7480 B   0  0  0  0  0  0  0  0  0  0  0  0
    2.3797   -0.6839   -0.2340 F   0  0  0  0  0  0  0  0  0  0  0  0
    4.1965   -1.7060    0.7610 F   0  0  0  0  0  0  0  0  0  0  0  0
    4.1684    0.5795    0.4303 F   0  0  0  0  0  0  0  0  0  0  0  0
    2.7797   -0.3661    1.9992 F   0  0  0  0  0  0  0  0  0  0  0  0
  1  7  1  0  0  0  0
  2  1  1  0  0  0  0
  2  8  1  0  0  0  0
  3  2  2  0  0  0  0
  4  5  2  0  0  0  0
  4  3  1  0  0  0  0
  5  6  1  0  0  0  0
  6 11  1  0  0  0  0
  6  1  2  0  0  0  0
  9  4  1  0  0  0  0
 10  5  1  0  0  0  0
 11 12  2  0  0  0  0
 13 11  2  0  0  0  0
 14  3  1  0  0  0  0
 15 14  1  0  0  0  0
 16 18  1  0  0  0  0
 16 20  1  0  0  0  0
 17 16  1  0  0  0  0
 19 16  1  0  0  0  0
M  RAD  2  14   2  15   3
M  END
