Coordinates from ORCA-job p-NO2-Ph-N2-X-BF4-B3LYPG-6-31G_dp-scan-d09-49-n400
 OpenBabel08281821043D

 20 19  0  0  0  0  0  0  0  0999 V2000
   -0.7702    0.8359    1.4181 C   0  0  0  0  0  0  0  0  0  0  0  0
    0.5325    1.0839    0.9894 C   0  0  0  0  0  0  0  0  0  0  0  0
    0.6664    1.6532   -0.2843 C   0  0  0  0  0  0  0  0  0  0  0  0
   -0.3954    1.9839   -1.1476 C   0  0  0  0  0  0  0  0  0  0  0  0
   -1.6756    1.7235   -0.6910 C   0  0  0  0  0  0  0  0  0  0  0  0
   -1.8324    1.1603    0.5810 C   0  0  0  0  0  0  0  0  0  0  0  0
   -0.9618    0.3832    2.3826 H   0  0  0  0  0  0  0  0  0  0  0  0
    1.4829    0.8320    1.5136 H   0  0  0  0  0  0  0  0  0  0  0  0
   -0.2160    2.4145   -2.1257 H   0  0  0  0  0  0  0  0  0  0  0  0
   -2.5495    1.9418   -1.2905 H   0  0  0  0  0  0  0  0  0  0  0  0
   -3.2166    0.8935    1.0523 N   0  0  0  0  0  0  0  0  0  0  0  0
   -3.3430    0.4249    2.1768 O   0  0  0  0  0  0  0  0  0  0  0  0
   -4.1300    1.1680    0.2793 O   0  0  0  0  0  0  0  0  0  0  0  0
    1.9549    1.9364   -0.7175 N   0  0  0  0  0  0  0  0  0  0  0  0
    2.9647    2.2198   -1.0805 N   0  0  0  0  0  0  0  0  0  0  0  0
    2.9689   -0.7649    0.7122 B   0  0  0  0  0  0  0  0  0  0  0  0
    2.7276   -0.4383   -0.6498 F   0  0  0  0  0  0  0  0  0  0  0  0
    4.1610   -1.4080    0.8806 F   0  0  0  0  0  0  0  0  0  0  0  0
    3.0014    0.5294    1.4123 F   0  0  0  0  0  0  0  0  0  0  0  0
    1.8731   -1.4542    1.2216 F   0  0  0  0  0  0  0  0  0  0  0  0
  1  7  1  0  0  0  0
  2  1  1  0  0  0  0
  2  8  1  0  0  0  0
  3  2  2  0  0  0  0
  4  5  2  0  0  0  0
  4  3  1  0  0  0  0
  5  6  1  0  0  0  0
  6 11  1  0  0  0  0
  6  1  2  0  0  0  0
  9  4  1  0  0  0  0
 10  5  1  0  0  0  0
 11 12  2  0  0  0  0
 13 11  2  0  0  0  0
 14  3  1  0  0  0  0
 15 14  1  0  0  0  0
 16 18  1  0  0  0  0
 16 20  1  0  0  0  0
 16 19  1  0  0  0  0
 17 16  1  0  0  0  0
M  RAD  2  14   2  15   3
M  END
