Coordinates from ORCA-job p-NO2-Ph-N2-X-BF4-B3LYPG-6-31G_dp-scan-d09-49-n400
 OpenBabel08281821043D

 20 19  0  0  0  0  0  0  0  0999 V2000
   -1.3540    1.4432    1.8781 C   0  0  0  0  0  0  0  0  0  0  0  0
    0.0140    1.6755    1.8662 C   0  0  0  0  0  0  0  0  0  0  0  0
    0.6888    1.5173    0.6500 C   0  0  0  0  0  0  0  0  0  0  0  0
    0.0888    1.1218   -0.5505 C   0  0  0  0  0  0  0  0  0  0  0  0
   -1.2849    0.9133   -0.5198 C   0  0  0  0  0  0  0  0  0  0  0  0
   -1.9729    1.0798    0.6818 C   0  0  0  0  0  0  0  0  0  0  0  0
   -1.9418    1.5364    2.7822 H   0  0  0  0  0  0  0  0  0  0  0  0
    0.5727    1.9404    2.7553 H   0  0  0  0  0  0  0  0  0  0  0  0
    0.7131    0.9592   -1.4229 H   0  0  0  0  0  0  0  0  0  0  0  0
   -1.8246    0.6060   -1.4065 H   0  0  0  0  0  0  0  0  0  0  0  0
   -3.4386    0.8489    0.6958 N   0  0  0  0  0  0  0  0  0  0  0  0
   -4.0141    0.9851    1.7711 O   0  0  0  0  0  0  0  0  0  0  0  0
   -3.9668    0.5438   -0.3674 O   0  0  0  0  0  0  0  0  0  0  0  0
    2.0514    1.7950    0.6822 N   0  0  0  0  0  0  0  0  0  0  0  0
    3.1240    2.0690    0.7878 N   0  0  0  0  0  0  0  0  0  0  0  0
    3.1776   -0.4248   -0.7500 B   0  0  0  0  0  0  0  0  0  0  0  0
    2.6658    0.5785   -1.6376 F   0  0  0  0  0  0  0  0  0  0  0  0
    3.6041   -1.5286   -1.4281 F   0  0  0  0  0  0  0  0  0  0  0  0
    4.2135    0.1834    0.0041 F   0  0  0  0  0  0  0  0  0  0  0  0
    2.1270   -0.7244    0.1610 F   0  0  0  0  0  0  0  0  0  0  0  0
  1  7  1  0  0  0  0
  2  1  1  0  0  0  0
  2  8  1  0  0  0  0
  3 14  1  0  0  0  0
  3  2  2  0  0  0  0
  4  5  2  0  0  0  0
  4  3  1  0  0  0  0
  5  6  1  0  0  0  0
  6 11  1  0  0  0  0
  6  1  2  0  0  0  0
  9  4  1  0  0  0  0
 10  5  1  0  0  0  0
 11 12  2  0  0  0  0
 13 11  2  0  0  0  0
 14 15  1  0  0  0  0
 16 19  1  0  0  0  0
 16 20  1  0  0  0  0
 17 16  1  0  0  0  0
 18 16  1  0  0  0  0
M  RAD  2  14   2  15   3
M  END
