Coordinates from ORCA-job p-NO2-Ph-N2-X-BF4-B3LYPG-6-31G_dp-scan-d09-49-n400
 OpenBabel08281821043D

 20 19  0  0  0  0  0  0  0  0999 V2000
   -1.0373    0.5952    1.3336 C   0  0  0  0  0  0  0  0  0  0  0  0
    0.3023    0.7787    1.0037 C   0  0  0  0  0  0  0  0  0  0  0  0
    0.5681    1.5263   -0.1517 C   0  0  0  0  0  0  0  0  0  0  0  0
   -0.4163    2.0826   -0.9853 C   0  0  0  0  0  0  0  0  0  0  0  0
   -1.7433    1.8715   -0.6417 C   0  0  0  0  0  0  0  0  0  0  0  0
   -2.0226    1.1365    0.5116 C   0  0  0  0  0  0  0  0  0  0  0  0
   -1.3229    0.0318    2.2131 H   0  0  0  0  0  0  0  0  0  0  0  0
    1.1305    0.3737    1.5842 H   0  0  0  0  0  0  0  0  0  0  0  0
   -0.1441    2.6474   -1.8695 H   0  0  0  0  0  0  0  0  0  0  0  0
   -2.5557    2.2625   -1.2398 H   0  0  0  0  0  0  0  0  0  0  0  0
   -3.4468    0.9263    0.8768 N   0  0  0  0  0  0  0  0  0  0  0  0
   -3.6729    0.2896    1.8989 O   0  0  0  0  0  0  0  0  0  0  0  0
   -4.2902    1.4096    0.1276 O   0  0  0  0  0  0  0  0  0  0  0  0
    1.8935    1.7754   -0.4979 N   0  0  0  0  0  0  0  0  0  0  0  0
    2.9357    2.0468   -0.7817 N   0  0  0  0  0  0  0  0  0  0  0  0
    3.4378   -0.5640    0.6593 B   0  0  0  0  0  0  0  0  0  0  0  0
    2.3248   -0.6773   -0.2298 F   0  0  0  0  0  0  0  0  0  0  0  0
    4.0529   -1.7679    0.8489 F   0  0  0  0  0  0  0  0  0  0  0  0
    4.3160    0.3998    0.0950 F   0  0  0  0  0  0  0  0  0  0  0  0
    2.9338   -0.0259    1.8774 F   0  0  0  0  0  0  0  0  0  0  0  0
  1  7  1  0  0  0  0
  2  1  1  0  0  0  0
  2  8  1  0  0  0  0
  3  2  2  0  0  0  0
  4  5  2  0  0  0  0
  4  3  1  0  0  0  0
  5  6  1  0  0  0  0
  6 11  1  0  0  0  0
  6  1  2  0  0  0  0
  9  4  1  0  0  0  0
 10  5  1  0  0  0  0
 11 12  2  0  0  0  0
 13 11  2  0  0  0  0
 14  3  1  0  0  0  0
 15 14  1  0  0  0  0
 16 18  1  0  0  0  0
 16 20  1  0  0  0  0
 17 16  1  0  0  0  0
 19 16  1  0  0  0  0
M  RAD  2  14   2  15   3
M  END
