Coordinates from ORCA-job p-NO2-Ph-N2-X-BF4-B3LYPG-6-31G_dp-scan-d09-49-n400
 OpenBabel08281821043D

 20 19  0  0  0  0  0  0  0  0999 V2000
   -1.0686    0.5713    1.3525 C   0  0  0  0  0  0  0  0  0  0  0  0
    0.2788    0.7527    1.0569 C   0  0  0  0  0  0  0  0  0  0  0  0
    0.5780    1.5093   -0.0837 C   0  0  0  0  0  0  0  0  0  0  0  0
   -0.3843    2.0812   -0.9321 C   0  0  0  0  0  0  0  0  0  0  0  0
   -1.7205    1.8745   -0.6226 C   0  0  0  0  0  0  0  0  0  0  0  0
   -2.0317    1.1265    0.5135 C   0  0  0  0  0  0  0  0  0  0  0  0
   -1.3781   -0.0015    2.2177 H   0  0  0  0  0  0  0  0  0  0  0  0
    1.0905    0.3457    1.6519 H   0  0  0  0  0  0  0  0  0  0  0  0
   -0.0885    2.6542   -1.8035 H   0  0  0  0  0  0  0  0  0  0  0  0
   -2.5157    2.2781   -1.2353 H   0  0  0  0  0  0  0  0  0  0  0  0
   -3.4649    0.9164    0.8399 N   0  0  0  0  0  0  0  0  0  0  0  0
   -3.7187    0.2634    1.8452 O   0  0  0  0  0  0  0  0  0  0  0  0
   -4.2878    1.4154    0.0783 O   0  0  0  0  0  0  0  0  0  0  0  0
    1.9101    1.7544   -0.4120 N   0  0  0  0  0  0  0  0  0  0  0  0
    2.9384    2.0481   -0.7208 N   0  0  0  0  0  0  0  0  0  0  0  0
    3.4480   -0.5339    0.5873 B   0  0  0  0  0  0  0  0  0  0  0  0
    2.2865   -0.7332   -0.2180 F   0  0  0  0  0  0  0  0  0  0  0  0
    3.9947   -1.7172    0.9914 F   0  0  0  0  0  0  0  0  0  0  0  0
    4.3511    0.2501   -0.1717 F   0  0  0  0  0  0  0  0  0  0  0  0
    3.0254    0.2632    1.6978 F   0  0  0  0  0  0  0  0  0  0  0  0
  1  7  1  0  0  0  0
  2  1  1  0  0  0  0
  2  8  1  0  0  0  0
  3  2  2  0  0  0  0
  4  5  2  0  0  0  0
  4  3  1  0  0  0  0
  5  6  1  0  0  0  0
  6 11  1  0  0  0  0
  6  1  2  0  0  0  0
  9  4  1  0  0  0  0
 10  5  1  0  0  0  0
 11 12  2  0  0  0  0
 13 11  2  0  0  0  0
 14  3  1  0  0  0  0
 15 14  1  0  0  0  0
 16 18  1  0  0  0  0
 16 20  1  0  0  0  0
 17 16  1  0  0  0  0
 19 16  1  0  0  0  0
M  RAD  2  14   2  15   3
M  END
