Coordinates from ORCA-job p-NO2-Ph-N2-X-BF4-B3LYPG-6-31G_dp-scan-d09-49-n400
 OpenBabel08281821043D

 20 19  0  0  0  0  0  0  0  0999 V2000
   -1.1350    0.7658    1.5608 C   0  0  0  0  0  0  0  0  0  0  0  0
    0.2273    0.9857    1.3899 C   0  0  0  0  0  0  0  0  0  0  0  0
    0.6311    1.5515    0.1732 C   0  0  0  0  0  0  0  0  0  0  0  0
   -0.2508    1.8959   -0.8618 C   0  0  0  0  0  0  0  0  0  0  0  0
   -1.6044    1.6558   -0.6722 C   0  0  0  0  0  0  0  0  0  0  0  0
   -2.0179    1.0998    0.5365 C   0  0  0  0  0  0  0  0  0  0  0  0
   -1.5179    0.3291    2.4744 H   0  0  0  0  0  0  0  0  0  0  0  0
    0.9393    0.7139    2.1571 H   0  0  0  0  0  0  0  0  0  0  0  0
    0.1218    2.3214   -1.7860 H   0  0  0  0  0  0  0  0  0  0  0  0
   -2.3346    1.8915   -1.4355 H   0  0  0  0  0  0  0  0  0  0  0  0
   -3.4666    0.8547    0.7392 N   0  0  0  0  0  0  0  0  0  0  0  0
   -3.8060    0.3711    1.8133 O   0  0  0  0  0  0  0  0  0  0  0  0
   -4.2167    1.1583   -0.1830 O   0  0  0  0  0  0  0  0  0  0  0  0
    1.9719    1.8733   -0.0560 N   0  0  0  0  0  0  0  0  0  0  0  0
    2.9808    2.2734   -0.2924 N   0  0  0  0  0  0  0  0  0  0  0  0
    3.3734   -0.5654    0.2147 B   0  0  0  0  0  0  0  0  0  0  0  0
    2.1989   -0.5186   -0.6017 F   0  0  0  0  0  0  0  0  0  0  0  0
    3.7472   -1.8500    0.4881 F   0  0  0  0  0  0  0  0  0  0  0  0
    4.3800    0.1703   -0.4460 F   0  0  0  0  0  0  0  0  0  0  0  0
    3.0212    0.1412    1.4205 F   0  0  0  0  0  0  0  0  0  0  0  0
  1  7  1  0  0  0  0
  2  1  1  0  0  0  0
  2  8  1  0  0  0  0
  3  2  2  0  0  0  0
  4  5  2  0  0  0  0
  4  3  1  0  0  0  0
  5  6  1  0  0  0  0
  6 11  1  0  0  0  0
  6  1  2  0  0  0  0
  9  4  1  0  0  0  0
 10  5  1  0  0  0  0
 11 12  2  0  0  0  0
 13 11  2  0  0  0  0
 14  3  1  0  0  0  0
 15 14  1  0  0  0  0
 16 18  1  0  0  0  0
 16 20  1  0  0  0  0
 17 16  1  0  0  0  0
 19 16  1  0  0  0  0
M  RAD  2  14   2  15   3
M  END
