Coordinates from ORCA-job p-NO2-Ph-N2-X-BF4-B3LYPG-6-31G_dp-scan-d09-49-n400
 OpenBabel08281821043D

 20 19  0  0  0  0  0  0  0  0999 V2000
   -0.8014    0.8449    1.4558 C   0  0  0  0  0  0  0  0  0  0  0  0
    0.5106    1.0892    1.0597 C   0  0  0  0  0  0  0  0  0  0  0  0
    0.6885    1.6356   -0.2179 C   0  0  0  0  0  0  0  0  0  0  0  0
   -0.3506    1.9428   -1.1154 C   0  0  0  0  0  0  0  0  0  0  0  0
   -1.6446    1.6852   -0.6952 C   0  0  0  0  0  0  0  0  0  0  0  0
   -1.8397    1.1476    0.5810 C   0  0  0  0  0  0  0  0  0  0  0  0
   -1.0194    0.4112    2.4233 H   0  0  0  0  0  0  0  0  0  0  0  0
    1.4137    0.8488    1.6280 H   0  0  0  0  0  0  0  0  0  0  0  0
   -0.1431    2.3553   -2.0957 H   0  0  0  0  0  0  0  0  0  0  0  0
   -2.4992    1.8884   -1.3270 H   0  0  0  0  0  0  0  0  0  0  0  0
   -3.2354    0.8845    1.0169 N   0  0  0  0  0  0  0  0  0  0  0  0
   -3.3924    0.4352    2.1456 O   0  0  0  0  0  0  0  0  0  0  0  0
   -4.1269    1.1425    0.2135 O   0  0  0  0  0  0  0  0  0  0  0  0
    1.9823    1.9347   -0.6288 N   0  0  0  0  0  0  0  0  0  0  0  0
    2.9733    2.2690   -0.9993 N   0  0  0  0  0  0  0  0  0  0  0  0
    2.9675   -0.7320    0.6385 B   0  0  0  0  0  0  0  0  0  0  0  0
    2.6301   -0.4486   -0.7162 F   0  0  0  0  0  0  0  0  0  0  0  0
    4.1425   -1.4216    0.7345 F   0  0  0  0  0  0  0  0  0  0  0  0
    3.0983    0.5752    1.2784 F   0  0  0  0  0  0  0  0  0  0  0  0
    1.8888   -1.3694    1.2531 F   0  0  0  0  0  0  0  0  0  0  0  0
  1  7  1  0  0  0  0
  2  1  1  0  0  0  0
  2  8  1  0  0  0  0
  3  2  2  0  0  0  0
  4  5  2  0  0  0  0
  4  3  1  0  0  0  0
  5  6  1  0  0  0  0
  6 11  1  0  0  0  0
  6  1  2  0  0  0  0
  9  4  1  0  0  0  0
 10  5  1  0  0  0  0
 11 12  2  0  0  0  0
 13 11  2  0  0  0  0
 14  3  1  0  0  0  0
 15 14  1  0  0  0  0
 16 18  1  0  0  0  0
 16 20  1  0  0  0  0
 16 19  1  0  0  0  0
 17 16  1  0  0  0  0
M  RAD  2  14   2  15   3
M  END
