Coordinates from ORCA-job p-NO2-Ph-N2-X-BF4-B3LYPG-6-31G_dp-scan-d09-49-n400
 OpenBabel08281821043D

 20 19  0  0  0  0  0  0  0  0999 V2000
   -0.8047    0.8456    1.4587 C   0  0  0  0  0  0  0  0  0  0  0  0
    0.5083    1.0894    1.0658 C   0  0  0  0  0  0  0  0  0  0  0  0
    0.6902    1.6340   -0.2119 C   0  0  0  0  0  0  0  0  0  0  0  0
   -0.3467    1.9391   -1.1125 C   0  0  0  0  0  0  0  0  0  0  0  0
   -1.6420    1.6818   -0.6958 C   0  0  0  0  0  0  0  0  0  0  0  0
   -1.8407    1.1465    0.5806 C   0  0  0  0  0  0  0  0  0  0  0  0
   -1.0253    0.4136    2.4264 H   0  0  0  0  0  0  0  0  0  0  0  0
    1.4066    0.8498    1.6395 H   0  0  0  0  0  0  0  0  0  0  0  0
   -0.1365    2.3502   -2.0929 H   0  0  0  0  0  0  0  0  0  0  0  0
   -2.4947    1.8837   -1.3306 H   0  0  0  0  0  0  0  0  0  0  0  0
   -3.2374    0.8842    1.0134 N   0  0  0  0  0  0  0  0  0  0  0  0
   -3.3973    0.4369    2.1425 O   0  0  0  0  0  0  0  0  0  0  0  0
   -4.1268    1.1407    0.2072 O   0  0  0  0  0  0  0  0  0  0  0  0
    1.9844    1.9354   -0.6208 N   0  0  0  0  0  0  0  0  0  0  0  0
    2.9734    2.2746   -0.9917 N   0  0  0  0  0  0  0  0  0  0  0  0
    2.9685   -0.7295    0.6322 B   0  0  0  0  0  0  0  0  0  0  0  0
    2.6244   -0.4462   -0.7213 F   0  0  0  0  0  0  0  0  0  0  0  0
    4.1410   -1.4243    0.7216 F   0  0  0  0  0  0  0  0  0  0  0  0
    3.1078    0.5767    1.2699 F   0  0  0  0  0  0  0  0  0  0  0  0
    1.8905   -1.3632    1.2526 F   0  0  0  0  0  0  0  0  0  0  0  0
  1  7  1  0  0  0  0
  2  1  1  0  0  0  0
  2  8  1  0  0  0  0
  3  2  2  0  0  0  0
  4  5  2  0  0  0  0
  4  3  1  0  0  0  0
  5  6  1  0  0  0  0
  6 11  1  0  0  0  0
  6  1  2  0  0  0  0
  9  4  1  0  0  0  0
 10  5  1  0  0  0  0
 11 12  2  0  0  0  0
 13 11  2  0  0  0  0
 14  3  1  0  0  0  0
 15 14  1  0  0  0  0
 16 18  1  0  0  0  0
 16 20  1  0  0  0  0
 16 19  1  0  0  0  0
 17 16  1  0  0  0  0
M  RAD  2  14   2  15   3
M  END
