Coordinates from ORCA-job p-NO2-Ph-N2-X-BF4-B3LYPG-6-31G_dp-scan-d09-49-n400
 OpenBabel08281821043D

 20 19  0  0  0  0  0  0  0  0999 V2000
   -1.0055    0.6129    1.3137 C   0  0  0  0  0  0  0  0  0  0  0  0
    0.3267    0.7958    0.9528 C   0  0  0  0  0  0  0  0  0  0  0  0
    0.5634    1.5356   -0.2150 C   0  0  0  0  0  0  0  0  0  0  0  0
   -0.4410    2.0862   -1.0286 C   0  0  0  0  0  0  0  0  0  0  0  0
   -1.7591    1.8788   -0.6515 C   0  0  0  0  0  0  0  0  0  0  0  0
   -2.0100    1.1495    0.5122 C   0  0  0  0  0  0  0  0  0  0  0  0
   -1.2694    0.0543    2.2029 H   0  0  0  0  0  0  0  0  0  0  0  0
    1.1634    0.3895    1.5247 H   0  0  0  0  0  0  0  0  0  0  0  0
   -0.1896    2.6457   -1.9223 H   0  0  0  0  0  0  0  0  0  0  0  0
   -2.5858    2.2674   -1.2312 H   0  0  0  0  0  0  0  0  0  0  0  0
   -3.4255    0.9415    0.9122 N   0  0  0  0  0  0  0  0  0  0  0  0
   -3.6276    0.3042    1.9389 O   0  0  0  0  0  0  0  0  0  0  0  0
   -4.2859    1.4271    0.1841 O   0  0  0  0  0  0  0  0  0  0  0  0
    1.8797    1.7787   -0.5920 N   0  0  0  0  0  0  0  0  0  0  0  0
    2.9343    2.0116   -0.8641 N   0  0  0  0  0  0  0  0  0  0  0  0
    3.4200   -0.5869    0.7267 B   0  0  0  0  0  0  0  0  0  0  0  0
    2.3707   -0.6731   -0.2395 F   0  0  0  0  0  0  0  0  0  0  0  0
    4.1703   -1.7275    0.7528 F   0  0  0  0  0  0  0  0  0  0  0  0
    4.2055    0.5501    0.3754 F   0  0  0  0  0  0  0  0  0  0  0  0
    2.8084   -0.3227    1.9807 F   0  0  0  0  0  0  0  0  0  0  0  0
  1  7  1  0  0  0  0
  2  1  1  0  0  0  0
  2  8  1  0  0  0  0
  3  2  2  0  0  0  0
  4  5  2  0  0  0  0
  4  3  1  0  0  0  0
  5  6  1  0  0  0  0
  6 11  1  0  0  0  0
  6  1  2  0  0  0  0
  9  4  1  0  0  0  0
 10  5  1  0  0  0  0
 11 12  2  0  0  0  0
 13 11  2  0  0  0  0
 14  3  1  0  0  0  0
 15 14  1  0  0  0  0
 16 18  1  0  0  0  0
 16 20  1  0  0  0  0
 17 16  1  0  0  0  0
 19 16  1  0  0  0  0
M  RAD  2  14   2  15   3
M  END
