Coordinates from ORCA-job p-NO2-Ph-N2-X-BF4-B3LYPG-6-31G_dp-scan-d09-49-n400
 OpenBabel08281821043D

 20 19  0  0  0  0  0  0  0  0999 V2000
   -0.8325    0.8533    1.4790 C   0  0  0  0  0  0  0  0  0  0  0  0
    0.4875    1.0855    1.1049 C   0  0  0  0  0  0  0  0  0  0  0  0
    0.6962    1.6136   -0.1753 C   0  0  0  0  0  0  0  0  0  0  0  0
   -0.3267    1.9068   -1.0950 C   0  0  0  0  0  0  0  0  0  0  0  0
   -1.6308    1.6590   -0.6992 C   0  0  0  0  0  0  0  0  0  0  0  0
   -1.8538    1.1447    0.5805 C   0  0  0  0  0  0  0  0  0  0  0  0
   -1.0704    0.4384    2.4500 H   0  0  0  0  0  0  0  0  0  0  0  0
    1.3479    0.8467    1.7203 H   0  0  0  0  0  0  0  0  0  0  0  0
   -0.0983    2.3038   -2.0770 H   0  0  0  0  0  0  0  0  0  0  0  0
   -2.4708    1.8551   -1.3527 H   0  0  0  0  0  0  0  0  0  0  0  0
   -3.2578    0.8973    0.9967 N   0  0  0  0  0  0  0  0  0  0  0  0
   -3.4367    0.4723    2.1317 O   0  0  0  0  0  0  0  0  0  0  0  0
   -4.1337    1.1472    0.1741 O   0  0  0  0  0  0  0  0  0  0  0  0
    1.9914    1.9251   -0.5770 N   0  0  0  0  0  0  0  0  0  0  0  0
    2.9659    2.2930   -0.9585 N   0  0  0  0  0  0  0  0  0  0  0  0
    2.9958   -0.7123    0.5898 B   0  0  0  0  0  0  0  0  0  0  0  0
    2.5738   -0.4443   -0.7477 F   0  0  0  0  0  0  0  0  0  0  0  0
    4.1480   -1.4472    0.6149 F   0  0  0  0  0  0  0  0  0  0  0  0
    3.2102    0.5914    1.1916 F   0  0  0  0  0  0  0  0  0  0  0  0
    1.9379   -1.3107    1.2820 F   0  0  0  0  0  0  0  0  0  0  0  0
  1  7  1  0  0  0  0
  2  1  1  0  0  0  0
  2  8  1  0  0  0  0
  3  2  2  0  0  0  0
  4  5  2  0  0  0  0
  4  3  1  0  0  0  0
  5  6  1  0  0  0  0
  6 11  1  0  0  0  0
  6  1  2  0  0  0  0
  9  4  1  0  0  0  0
 10  5  1  0  0  0  0
 11 12  2  0  0  0  0
 13 11  2  0  0  0  0
 14  3  1  0  0  0  0
 15 14  1  0  0  0  0
 16 18  1  0  0  0  0
 16 19  1  0  0  0  0
 16 20  1  0  0  0  0
 17 16  1  0  0  0  0
M  RAD  2  14   2  15   3
M  END
