Coordinates from ORCA-job p-NO2-Ph-N2-X-BF4-B3LYPG-6-31G_dp-scan-d09-49-n400
 OpenBabel08281821043D

 20 19  0  0  0  0  0  0  0  0999 V2000
   -1.0649    0.5710    1.3492 C   0  0  0  0  0  0  0  0  0  0  0  0
    0.2817    0.7539    1.0509 C   0  0  0  0  0  0  0  0  0  0  0  0
    0.5776    1.5122   -0.0894 C   0  0  0  0  0  0  0  0  0  0  0  0
   -0.3869    2.0851   -0.9350 C   0  0  0  0  0  0  0  0  0  0  0  0
   -1.7221    1.8769   -0.6226 C   0  0  0  0  0  0  0  0  0  0  0  0
   -2.0302    1.1267    0.5130 C   0  0  0  0  0  0  0  0  0  0  0  0
   -1.3722   -0.0033    2.2142 H   0  0  0  0  0  0  0  0  0  0  0  0
    1.0963    0.3473    1.6428 H   0  0  0  0  0  0  0  0  0  0  0  0
   -0.0933    2.6596   -1.8060 H   0  0  0  0  0  0  0  0  0  0  0  0
   -2.5191    2.2808   -1.2327 H   0  0  0  0  0  0  0  0  0  0  0  0
   -3.4626    0.9148    0.8420 N   0  0  0  0  0  0  0  0  0  0  0  0
   -3.7138    0.2596    1.8464 O   0  0  0  0  0  0  0  0  0  0  0  0
   -4.2874    1.4146    0.0830 O   0  0  0  0  0  0  0  0  0  0  0  0
    1.9091    1.7563   -0.4196 N   0  0  0  0  0  0  0  0  0  0  0  0
    2.9390    2.0450   -0.7282 N   0  0  0  0  0  0  0  0  0  0  0  0
    3.4449   -0.5361    0.5951 B   0  0  0  0  0  0  0  0  0  0  0  0
    2.2845   -0.7338   -0.2120 F   0  0  0  0  0  0  0  0  0  0  0  0
    3.9953   -1.7202    0.9915 F   0  0  0  0  0  0  0  0  0  0  0  0
    4.3457    0.2550   -0.1597 F   0  0  0  0  0  0  0  0  0  0  0  0
    3.0212    0.2533    1.7101 F   0  0  0  0  0  0  0  0  0  0  0  0
  1  7  1  0  0  0  0
  2  1  1  0  0  0  0
  2  8  1  0  0  0  0
  3  2  2  0  0  0  0
  4  5  2  0  0  0  0
  4  3  1  0  0  0  0
  5  6  1  0  0  0  0
  6 11  1  0  0  0  0
  6  1  2  0  0  0  0
  9  4  1  0  0  0  0
 10  5  1  0  0  0  0
 11 12  2  0  0  0  0
 13 11  2  0  0  0  0
 14  3  1  0  0  0  0
 15 14  1  0  0  0  0
 16 18  1  0  0  0  0
 16 20  1  0  0  0  0
 17 16  1  0  0  0  0
 19 16  1  0  0  0  0
M  RAD  2  14   2  15   3
M  END
