Coordinates from ORCA-job p-NO2-Ph-N2-X-BF4-B3LYPG-6-31G_dp-scan-d09-49-n400
 OpenBabel08281821043D

 20 19  0  0  0  0  0  0  0  0999 V2000
   -0.9973    0.6108    1.3051 C   0  0  0  0  0  0  0  0  0  0  0  0
    0.3331    0.7933    0.9366 C   0  0  0  0  0  0  0  0  0  0  0  0
    0.5627    1.5365   -0.2305 C   0  0  0  0  0  0  0  0  0  0  0  0
   -0.4461    2.0928   -1.0349 C   0  0  0  0  0  0  0  0  0  0  0  0
   -1.7618    1.8867   -0.6495 C   0  0  0  0  0  0  0  0  0  0  0  0
   -2.0060    1.1521    0.5124 C   0  0  0  0  0  0  0  0  0  0  0  0
   -1.2560    0.0484    2.1935 H   0  0  0  0  0  0  0  0  0  0  0  0
    1.1723    0.3819    1.5020 H   0  0  0  0  0  0  0  0  0  0  0  0
   -0.1995    2.6556   -1.9278 H   0  0  0  0  0  0  0  0  0  0  0  0
   -2.5918    2.2795   -1.2216 H   0  0  0  0  0  0  0  0  0  0  0  0
   -3.4195    0.9429    0.9197 N   0  0  0  0  0  0  0  0  0  0  0  0
   -3.6160    0.2978    1.9425 O   0  0  0  0  0  0  0  0  0  0  0  0
   -4.2836    1.4353    0.2006 O   0  0  0  0  0  0  0  0  0  0  0  0
    1.8769    1.7748   -0.6163 N   0  0  0  0  0  0  0  0  0  0  0  0
    2.9344    1.9950   -0.8878 N   0  0  0  0  0  0  0  0  0  0  0  0
    3.4133   -0.5880    0.7448 B   0  0  0  0  0  0  0  0  0  0  0  0
    2.3780   -0.6822   -0.2347 F   0  0  0  0  0  0  0  0  0  0  0  0
    4.1921   -1.7096    0.7596 F   0  0  0  0  0  0  0  0  0  0  0  0
    4.1739    0.5749    0.4222 F   0  0  0  0  0  0  0  0  0  0  0  0
    2.7838   -0.3599    1.9967 F   0  0  0  0  0  0  0  0  0  0  0  0
  1  7  1  0  0  0  0
  2  1  1  0  0  0  0
  2  8  1  0  0  0  0
  3  2  2  0  0  0  0
  4  5  2  0  0  0  0
  4  3  1  0  0  0  0
  5  6  1  0  0  0  0
  6 11  1  0  0  0  0
  6  1  2  0  0  0  0
  9  4  1  0  0  0  0
 10  5  1  0  0  0  0
 11 12  2  0  0  0  0
 13 11  2  0  0  0  0
 14  3  1  0  0  0  0
 15 14  1  0  0  0  0
 16 18  1  0  0  0  0
 16 20  1  0  0  0  0
 17 16  1  0  0  0  0
 19 16  1  0  0  0  0
M  RAD  2  14   2  15   3
M  END
