Coordinates from ORCA-job p-NO2-Ph-N2-X-BF4-B3LYPG-6-31G_dp-scan-d09-49-n400
 OpenBabel08281821043D

 20 19  0  0  0  0  0  0  0  0999 V2000
   -1.1118    0.6699    1.4716 C   0  0  0  0  0  0  0  0  0  0  0  0
    0.2465    0.8674    1.2493 C   0  0  0  0  0  0  0  0  0  0  0  0
    0.6058    1.5275    0.0668 C   0  0  0  0  0  0  0  0  0  0  0  0
   -0.3147    1.9823   -0.8903 C   0  0  0  0  0  0  0  0  0  0  0  0
   -1.6640    1.7602   -0.6524 C   0  0  0  0  0  0  0  0  0  0  0  0
   -2.0330    1.1130    0.5254 C   0  0  0  0  0  0  0  0  0  0  0  0
   -1.4624    0.1674    2.3642 H   0  0  0  0  0  0  0  0  0  0  0  0
    0.9997    0.5211    1.9449 H   0  0  0  0  0  0  0  0  0  0  0  0
    0.0236    2.4792   -1.7920 H   0  0  0  0  0  0  0  0  0  0  0  0
   -2.4242    2.0782   -1.3538 H   0  0  0  0  0  0  0  0  0  0  0  0
   -3.4773    0.8877    0.7801 N   0  0  0  0  0  0  0  0  0  0  0  0
   -3.7783    0.3266    1.8274 O   0  0  0  0  0  0  0  0  0  0  0  0
   -4.2618    1.2834   -0.0764 O   0  0  0  0  0  0  0  0  0  0  0  0
    1.9453    1.8150   -0.2075 N   0  0  0  0  0  0  0  0  0  0  0  0
    2.9564    2.1826   -0.4866 N   0  0  0  0  0  0  0  0  0  0  0  0
    3.4284   -0.5495    0.3759 B   0  0  0  0  0  0  0  0  0  0  0  0
    2.2461   -0.6165   -0.4266 F   0  0  0  0  0  0  0  0  0  0  0  0
    3.8583   -1.7910    0.7465 F   0  0  0  0  0  0  0  0  0  0  0  0
    4.3983    0.1723   -0.3542 F   0  0  0  0  0  0  0  0  0  0  0  0
    3.0623    0.2418    1.5205 F   0  0  0  0  0  0  0  0  0  0  0  0
  1  7  1  0  0  0  0
  2  1  1  0  0  0  0
  2  8  1  0  0  0  0
  3  2  2  0  0  0  0
  4  5  2  0  0  0  0
  4  3  1  0  0  0  0
  5  6  1  0  0  0  0
  6 11  1  0  0  0  0
  6  1  2  0  0  0  0
  9  4  1  0  0  0  0
 10  5  1  0  0  0  0
 11 12  2  0  0  0  0
 13 11  2  0  0  0  0
 14  3  1  0  0  0  0
 15 14  1  0  0  0  0
 16 18  1  0  0  0  0
 16 20  1  0  0  0  0
 17 16  1  0  0  0  0
 19 16  1  0  0  0  0
M  RAD  2  14   2  15   3
M  END
