Coordinates from ORCA-job p-NO2-Ph-N2-X-BF4-B3LYPG-6-31G_dp-scan-d09-49-n400
 OpenBabel08281821043D

 20 19  0  0  0  0  0  0  0  0999 V2000
   -1.0836    0.5937    1.3863 C   0  0  0  0  0  0  0  0  0  0  0  0
    0.2678    0.7764    1.1124 C   0  0  0  0  0  0  0  0  0  0  0  0
    0.5858    1.5098   -0.0382 C   0  0  0  0  0  0  0  0  0  0  0  0
   -0.3644    2.0528   -0.9182 C   0  0  0  0  0  0  0  0  0  0  0  0
   -1.7056    1.8441   -0.6305 C   0  0  0  0  0  0  0  0  0  0  0  0
   -2.0346    1.1227    0.5168 C   0  0  0  0  0  0  0  0  0  0  0  0
   -1.4059    0.0388    2.2584 H   0  0  0  0  0  0  0  0  0  0  0  0
    1.0624    0.3816    1.7358 H   0  0  0  0  0  0  0  0  0  0  0  0
   -0.0556    2.6060   -1.7977 H   0  0  0  0  0  0  0  0  0  0  0  0
   -2.4906    2.2270   -1.2692 H   0  0  0  0  0  0  0  0  0  0  0  0
   -3.4719    0.9119    0.8223 N   0  0  0  0  0  0  0  0  0  0  0  0
   -3.7402    0.2855    1.8408 O   0  0  0  0  0  0  0  0  0  0  0  0
   -4.2837    1.3840    0.0322 O   0  0  0  0  0  0  0  0  0  0  0  0
    1.9210    1.7663   -0.3507 N   0  0  0  0  0  0  0  0  0  0  0  0
    2.9424    2.0879   -0.6523 N   0  0  0  0  0  0  0  0  0  0  0  0
    3.4481   -0.5341    0.5249 B   0  0  0  0  0  0  0  0  0  0  0  0
    2.2766   -0.7026   -0.2749 F   0  0  0  0  0  0  0  0  0  0  0  0
    3.9562   -1.7318    0.9378 F   0  0  0  0  0  0  0  0  0  0  0  0
    4.3730    0.2179   -0.2371 F   0  0  0  0  0  0  0  0  0  0  0  0
    3.0457    0.2807    1.6339 F   0  0  0  0  0  0  0  0  0  0  0  0
  1  7  1  0  0  0  0
  2  1  1  0  0  0  0
  2  8  1  0  0  0  0
  3  2  2  0  0  0  0
  4  5  2  0  0  0  0
  4  3  1  0  0  0  0
  5  6  1  0  0  0  0
  6 11  1  0  0  0  0
  6  1  2  0  0  0  0
  9  4  1  0  0  0  0
 10  5  1  0  0  0  0
 11 12  2  0  0  0  0
 13 11  2  0  0  0  0
 14  3  1  0  0  0  0
 15 14  1  0  0  0  0
 16 18  1  0  0  0  0
 16 20  1  0  0  0  0
 17 16  1  0  0  0  0
 19 16  1  0  0  0  0
M  RAD  2  14   2  15   3
M  END
