Coordinates from ORCA-job p-NO2-Ph-N2-X-BF4-B3LYPG-6-31G_dp-scan-d09-49-n400
 OpenBabel08281821043D

 20 19  0  0  0  0  0  0  0  0999 V2000
   -1.1299    0.9025    1.6588 C   0  0  0  0  0  0  0  0  0  0  0  0
    0.2284    1.1672    1.5276 C   0  0  0  0  0  0  0  0  0  0  0  0
    0.6733    1.6098    0.2768 C   0  0  0  0  0  0  0  0  0  0  0  0
   -0.1560    1.7803   -0.8392 C   0  0  0  0  0  0  0  0  0  0  0  0
   -1.5069    1.5024   -0.6875 C   0  0  0  0  0  0  0  0  0  0  0  0
   -1.9658    1.0765    0.5581 C   0  0  0  0  0  0  0  0  0  0  0  0
   -1.5443    0.5533    2.5958 H   0  0  0  0  0  0  0  0  0  0  0  0
    0.9186    1.0070    2.3438 H   0  0  0  0  0  0  0  0  0  0  0  0
    0.2563    2.0930   -1.7905 H   0  0  0  0  0  0  0  0  0  0  0  0
   -2.2019    1.6045   -1.5110 H   0  0  0  0  0  0  0  0  0  0  0  0
   -3.4123    0.7910    0.7156 N   0  0  0  0  0  0  0  0  0  0  0  0
   -3.7907    0.4173    1.8205 O   0  0  0  0  0  0  0  0  0  0  0  0
   -4.1235    0.9549   -0.2706 O   0  0  0  0  0  0  0  0  0  0  0  0
    2.0146    1.9603    0.1134 N   0  0  0  0  0  0  0  0  0  0  0  0
    3.0418    2.3501   -0.0502 N   0  0  0  0  0  0  0  0  0  0  0  0
    3.2123   -0.5738    0.0294 B   0  0  0  0  0  0  0  0  0  0  0  0
    2.1518   -0.3080   -0.8914 F   0  0  0  0  0  0  0  0  0  0  0  0
    3.5201   -1.9028    0.0795 F   0  0  0  0  0  0  0  0  0  0  0  0
    4.3082    0.2305   -0.3501 F   0  0  0  0  0  0  0  0  0  0  0  0
    2.7488   -0.0977    1.3044 F   0  0  0  0  0  0  0  0  0  0  0  0
  1  7  1  0  0  0  0
  2  1  1  0  0  0  0
  2  8  1  0  0  0  0
  3  2  2  0  0  0  0
  4  5  2  0  0  0  0
  4  3  1  0  0  0  0
  5  6  1  0  0  0  0
  6 11  1  0  0  0  0
  6  1  2  0  0  0  0
  9  4  1  0  0  0  0
 10  5  1  0  0  0  0
 11 12  2  0  0  0  0
 13 11  2  0  0  0  0
 14  3  1  0  0  0  0
 15 14  1  0  0  0  0
 16 18  1  0  0  0  0
 16 20  1  0  0  0  0
 17 16  1  0  0  0  0
 19 16  1  0  0  0  0
M  RAD  2  14   2  15   3
M  END
