Coordinates from ORCA-job p-NO2-Ph-N2-X-BF4-B3LYPG-6-31G_dp-scan-d09-49-n400
 OpenBabel08281821043D

 20 19  0  0  0  0  0  0  0  0999 V2000
   -1.1319    0.7360    1.5351 C   0  0  0  0  0  0  0  0  0  0  0  0
    0.2300    0.9474    1.3503 C   0  0  0  0  0  0  0  0  0  0  0  0
    0.6218    1.5416    0.1435 C   0  0  0  0  0  0  0  0  0  0  0  0
   -0.2720    1.9225   -0.8687 C   0  0  0  0  0  0  0  0  0  0  0  0
   -1.6252    1.6897   -0.6662 C   0  0  0  0  0  0  0  0  0  0  0  0
   -2.0263    1.1049    0.5331 C   0  0  0  0  0  0  0  0  0  0  0  0
   -1.5057    0.2796    2.4429 H   0  0  0  0  0  0  0  0  0  0  0  0
    0.9513    0.6516    2.0996 H   0  0  0  0  0  0  0  0  0  0  0  0
    0.0907    2.3708   -1.7861 H   0  0  0  0  0  0  0  0  0  0  0  0
   -2.3641    1.9528   -1.4120 H   0  0  0  0  0  0  0  0  0  0  0  0
   -3.4742    0.8672    0.7502 N   0  0  0  0  0  0  0  0  0  0  0  0
   -3.8027    0.3601    1.8168 O   0  0  0  0  0  0  0  0  0  0  0  0
   -4.2344    1.1994   -0.1538 O   0  0  0  0  0  0  0  0  0  0  0  0
    1.9626    1.8521   -0.1010 N   0  0  0  0  0  0  0  0  0  0  0  0
    2.9703    2.2451   -0.3543 N   0  0  0  0  0  0  0  0  0  0  0  0
    3.4003   -0.5612    0.2613 B   0  0  0  0  0  0  0  0  0  0  0  0
    2.2210   -0.5527   -0.5491 F   0  0  0  0  0  0  0  0  0  0  0  0
    3.7911   -1.8322    0.5717 F   0  0  0  0  0  0  0  0  0  0  0  0
    4.3951    0.1658   -0.4265 F   0  0  0  0  0  0  0  0  0  0  0  0
    3.0454    0.1782    1.4460 F   0  0  0  0  0  0  0  0  0  0  0  0
  1  7  1  0  0  0  0
  2  1  1  0  0  0  0
  2  8  1  0  0  0  0
  3  2  2  0  0  0  0
  4  5  2  0  0  0  0
  4  3  1  0  0  0  0
  5  6  1  0  0  0  0
  6 11  1  0  0  0  0
  6  1  2  0  0  0  0
  9  4  1  0  0  0  0
 10  5  1  0  0  0  0
 11 12  2  0  0  0  0
 13 11  2  0  0  0  0
 14  3  1  0  0  0  0
 15 14  1  0  0  0  0
 16 18  1  0  0  0  0
 16 20  1  0  0  0  0
 17 16  1  0  0  0  0
 19 16  1  0  0  0  0
M  RAD  2  14   2  15   3
M  END
