Coordinates from ORCA-job p-NO2-Ph-N2-X-BF4-B3LYPG-6-31G_dp-scan-d09-49-n400
 OpenBabel08281821043D

 20 18  0  0  0  0  0  0  0  0999 V2000
   -0.4361    0.6172    0.8183 C   0  0  0  0  0  0  0  0  0  0  0  0
    0.7592    1.1088    0.2459 C   0  0  0  0  0  0  0  0  0  0  0  0
    0.5263    2.1082   -0.7129 C   0  0  0  0  0  0  0  0  0  0  0  0
   -0.7140    2.6482   -1.1418 C   0  0  0  0  0  0  0  0  0  0  0  0
   -1.8370    2.1269   -0.5412 C   0  0  0  0  0  0  0  0  0  0  0  0
   -1.6678    1.1197    0.4287 C   0  0  0  0  0  0  0  0  0  0  0  0
   -0.3758   -0.1683    1.5638 H   0  0  0  0  0  0  0  0  0  0  0  0
    2.0280    0.5959    0.6401 H   0  0  0  0  0  0  0  0  0  0  0  0
   -0.7740    3.4239   -1.8979 H   0  0  0  0  0  0  0  0  0  0  0  0
   -2.8333    2.4651   -0.7933 H   0  0  0  0  0  0  0  0  0  0  0  0
   -2.9022    0.5743    1.0585 N   0  0  0  0  0  0  0  0  0  0  0  0
   -2.7623   -0.2824    1.9209 O   0  0  0  0  0  0  0  0  0  0  0  0
   -3.9750    1.0276    0.6642 O   0  0  0  0  0  0  0  0  0  0  0  0
    1.6689    2.6158   -1.3089 N   0  0  0  0  0  0  0  0  0  0  0  0
    2.6108    2.9988   -1.7686 N   0  0  0  0  0  0  0  0  0  0  0  0
    2.7832   -1.3105    1.5446 B   0  0  0  0  0  0  0  0  0  0  0  0
    2.8221   -2.0984    0.4386 F   0  0  0  0  0  0  0  0  0  0  0  0
    3.8300   -1.4126    2.3939 F   0  0  0  0  0  0  0  0  0  0  0  0
    2.9441    0.1999    0.9339 F   0  0  0  0  0  0  0  0  0  0  0  0
    1.5478   -1.2396    2.1460 F   0  0  0  0  0  0  0  0  0  0  0  0
  1  7  1  0  0  0  0
  2  1  2  0  0  0  0
  3  2  1  0  0  0  0
  4  3  2  0  0  0  0
  4  5  1  0  0  0  0
  5  6  2  0  0  0  0
  6  1  1  0  0  0  0
  6 11  1  0  0  0  0
  8 19  1  0  0  0  0
  9  4  1  0  0  0  0
 10  5  1  0  0  0  0
 11 12  2  0  0  0  0
 13 11  2  0  0  0  0
 14  3  1  0  0  0  0
 15 14  1  0  0  0  0
 16 20  1  0  0  0  0
 16 18  1  0  0  0  0
 17 16  1  0  0  0  0
M  RAD  3   2   2  14   2  15   3
M  END
