Coordinates from ORCA-job p-NO2-Ph-N2-X-BF4-B3LYPG-6-31G_dp-scan-d09-49-n400
 OpenBabel08281821043D

 20 19  0  0  0  0  0  0  0  0999 V2000
   -0.8441    0.8555    1.4843 C   0  0  0  0  0  0  0  0  0  0  0  0
    0.4789    1.0837    1.1179 C   0  0  0  0  0  0  0  0  0  0  0  0
    0.6972    1.6072   -0.1625 C   0  0  0  0  0  0  0  0  0  0  0  0
   -0.3209    1.8993   -1.0878 C   0  0  0  0  0  0  0  0  0  0  0  0
   -1.6283    1.6555   -0.7000 C   0  0  0  0  0  0  0  0  0  0  0  0
   -1.8601    1.1456    0.5795 C   0  0  0  0  0  0  0  0  0  0  0  0
   -1.0884    0.4446    2.4554 H   0  0  0  0  0  0  0  0  0  0  0  0
    1.3239    0.8421    1.7500 H   0  0  0  0  0  0  0  0  0  0  0  0
   -0.0857    2.2929   -2.0696 H   0  0  0  0  0  0  0  0  0  0  0  0
   -2.4634    1.8517   -1.3596 H   0  0  0  0  0  0  0  0  0  0  0  0
   -3.2666    0.9020    0.9887 N   0  0  0  0  0  0  0  0  0  0  0  0
   -3.4524    0.4771    2.1226 O   0  0  0  0  0  0  0  0  0  0  0  0
   -4.1374    1.1507    0.1602 O   0  0  0  0  0  0  0  0  0  0  0  0
    1.9929    1.9199   -0.5642 N   0  0  0  0  0  0  0  0  0  0  0  0
    2.9620    2.2958   -0.9514 N   0  0  0  0  0  0  0  0  0  0  0  0
    3.0102   -0.7070    0.5785 B   0  0  0  0  0  0  0  0  0  0  0  0
    2.5398   -0.4512   -0.7469 F   0  0  0  0  0  0  0  0  0  0  0  0
    4.1520   -1.4588    0.5675 F   0  0  0  0  0  0  0  0  0  0  0  0
    3.2626    0.5978    1.1540 F   0  0  0  0  0  0  0  0  0  0  0  0
    1.9706   -1.2855    1.3162 F   0  0  0  0  0  0  0  0  0  0  0  0
  1  7  1  0  0  0  0
  2  1  1  0  0  0  0
  2  8  1  0  0  0  0
  3  2  2  0  0  0  0
  4  5  2  0  0  0  0
  4  3  1  0  0  0  0
  5  6  1  0  0  0  0
  6 11  1  0  0  0  0
  6  1  2  0  0  0  0
  9  4  1  0  0  0  0
 10  5  1  0  0  0  0
 11 12  2  0  0  0  0
 13 11  2  0  0  0  0
 14  3  1  0  0  0  0
 15 14  1  0  0  0  0
 16 19  1  0  0  0  0
 16 20  1  0  0  0  0
 17 16  1  0  0  0  0
 18 16  1  0  0  0  0
M  RAD  2  14   2  15   3
M  END
