Coordinates from ORCA-job p-NO2-Ph-N2-X-BF4-B3LYPG-6-31G_dp-scan-d09-49-n400
 OpenBabel08281821043D

 20 19  0  0  0  0  0  0  0  0999 V2000
   -1.1905    1.1062    1.7784 C   0  0  0  0  0  0  0  0  0  0  0  0
    0.1662    1.3894    1.6990 C   0  0  0  0  0  0  0  0  0  0  0  0
    0.7011    1.6225    0.4280 C   0  0  0  0  0  0  0  0  0  0  0  0
   -0.0280    1.5503   -0.7630 C   0  0  0  0  0  0  0  0  0  0  0  0
   -1.3849    1.2717   -0.6616 C   0  0  0  0  0  0  0  0  0  0  0  0
   -1.9369    1.0642    0.6011 C   0  0  0  0  0  0  0  0  0  0  0  0
   -1.6727    0.9080    2.7269 H   0  0  0  0  0  0  0  0  0  0  0  0
    0.8025    1.3987    2.5748 H   0  0  0  0  0  0  0  0  0  0  0  0
    0.4711    1.6631   -1.7157 H   0  0  0  0  0  0  0  0  0  0  0  0
   -2.0124    1.1984   -1.5406 H   0  0  0  0  0  0  0  0  0  0  0  0
   -3.3873    0.7713    0.6968 N   0  0  0  0  0  0  0  0  0  0  0  0
   -3.8463    0.5850    1.8190 O   0  0  0  0  0  0  0  0  0  0  0  0
   -4.0218    0.7427   -0.3524 O   0  0  0  0  0  0  0  0  0  0  0  0
    2.0474    1.9743    0.3485 N   0  0  0  0  0  0  0  0  0  0  0  0
    3.0941    2.3440    0.3042 N   0  0  0  0  0  0  0  0  0  0  0  0
    3.1088   -0.5387   -0.2715 B   0  0  0  0  0  0  0  0  0  0  0  0
    2.2401    0.0275   -1.2590 F   0  0  0  0  0  0  0  0  0  0  0  0
    3.3929   -1.8462   -0.5400 F   0  0  0  0  0  0  0  0  0  0  0  0
    4.2625    0.2756   -0.2231 F   0  0  0  0  0  0  0  0  0  0  0  0
    2.4371   -0.3891    0.9830 F   0  0  0  0  0  0  0  0  0  0  0  0
  1  7  1  0  0  0  0
  2  1  1  0  0  0  0
  2  8  1  0  0  0  0
  3  2  2  0  0  0  0
  4  5  2  0  0  0  0
  4  3  1  0  0  0  0
  5  6  1  0  0  0  0
  6 11  1  0  0  0  0
  6  1  2  0  0  0  0
  9  4  1  0  0  0  0
 10  5  1  0  0  0  0
 11 12  2  0  0  0  0
 13 11  2  0  0  0  0
 14  3  1  0  0  0  0
 15 14  1  0  0  0  0
 16 19  1  0  0  0  0
 16 20  1  0  0  0  0
 17 16  1  0  0  0  0
 18 16  1  0  0  0  0
M  RAD  2  14   2  15   3
M  END
