Coordinates from ORCA-job p-NO2-Ph-N2-X-BF4-B3LYPG-6-31G_dp-scan-d09-49-n400
 OpenBabel08281821043D

 20 19  0  0  0  0  0  0  0  0999 V2000
   -1.0890    0.5968    1.3924 C   0  0  0  0  0  0  0  0  0  0  0  0
    0.2634    0.7775    1.1226 C   0  0  0  0  0  0  0  0  0  0  0  0
    0.5863    1.5066   -0.0294 C   0  0  0  0  0  0  0  0  0  0  0  0
   -0.3609    2.0460   -0.9148 C   0  0  0  0  0  0  0  0  0  0  0  0
   -1.7033    1.8391   -0.6313 C   0  0  0  0  0  0  0  0  0  0  0  0
   -2.0369    1.1229    0.5177 C   0  0  0  0  0  0  0  0  0  0  0  0
   -1.4147    0.0456    2.2656 H   0  0  0  0  0  0  0  0  0  0  0  0
    1.0531    0.3830    1.7518 H   0  0  0  0  0  0  0  0  0  0  0  0
   -0.0488    2.5956   -1.7954 H   0  0  0  0  0  0  0  0  0  0  0  0
   -2.4856    2.2198   -1.2746 H   0  0  0  0  0  0  0  0  0  0  0  0
   -3.4753    0.9143    0.8195 N   0  0  0  0  0  0  0  0  0  0  0  0
   -3.7472    0.2928    1.8400 O   0  0  0  0  0  0  0  0  0  0  0  0
   -4.2841    1.3826    0.0241 O   0  0  0  0  0  0  0  0  0  0  0  0
    1.9221    1.7650   -0.3394 N   0  0  0  0  0  0  0  0  0  0  0  0
    2.9411    2.0932   -0.6413 N   0  0  0  0  0  0  0  0  0  0  0  0
    3.4531   -0.5325    0.5128 B   0  0  0  0  0  0  0  0  0  0  0  0
    2.2808   -0.6989   -0.2866 F   0  0  0  0  0  0  0  0  0  0  0  0
    3.9566   -1.7309    0.9292 F   0  0  0  0  0  0  0  0  0  0  0  0
    4.3812    0.2145   -0.2501 F   0  0  0  0  0  0  0  0  0  0  0  0
    3.0513    0.2859    1.6201 F   0  0  0  0  0  0  0  0  0  0  0  0
  1  7  1  0  0  0  0
  2  1  1  0  0  0  0
  2  8  1  0  0  0  0
  3  2  2  0  0  0  0
  4  5  2  0  0  0  0
  4  3  1  0  0  0  0
  5  6  1  0  0  0  0
  6 11  1  0  0  0  0
  6  1  2  0  0  0  0
  9  4  1  0  0  0  0
 10  5  1  0  0  0  0
 11 12  2  0  0  0  0
 13 11  2  0  0  0  0
 14  3  1  0  0  0  0
 15 14  1  0  0  0  0
 16 18  1  0  0  0  0
 16 20  1  0  0  0  0
 17 16  1  0  0  0  0
 19 16  1  0  0  0  0
M  RAD  2  14   2  15   3
M  END
