Coordinates from ORCA-job p-NO2-Ph-N2-X-BF4-B3LYPG-6-31G_dp-scan-d09-49-n400
 OpenBabel08281821043D

 20 19  0  0  0  0  0  0  0  0999 V2000
   -1.1352    0.9085    1.6639 C   0  0  0  0  0  0  0  0  0  0  0  0
    0.2238    1.1715    1.5362 C   0  0  0  0  0  0  0  0  0  0  0  0
    0.6737    1.6064    0.2845 C   0  0  0  0  0  0  0  0  0  0  0  0
   -0.1515    1.7709   -0.8353 C   0  0  0  0  0  0  0  0  0  0  0  0
   -1.5033    1.4951   -0.6869 C   0  0  0  0  0  0  0  0  0  0  0  0
   -1.9670    1.0764    0.5592 C   0  0  0  0  0  0  0  0  0  0  0  0
   -1.5532    0.5653    2.6015 H   0  0  0  0  0  0  0  0  0  0  0  0
    0.9081    1.0182    2.3588 H   0  0  0  0  0  0  0  0  0  0  0  0
    0.2646    2.0772   -1.7869 H   0  0  0  0  0  0  0  0  0  0  0  0
   -2.1951    1.5930   -1.5136 H   0  0  0  0  0  0  0  0  0  0  0  0
   -3.4142    0.7928    0.7132 N   0  0  0  0  0  0  0  0  0  0  0  0
   -3.7968    0.4256    1.8189 O   0  0  0  0  0  0  0  0  0  0  0  0
   -4.1219    0.9516   -0.2763 O   0  0  0  0  0  0  0  0  0  0  0  0
    2.0156    1.9571    0.1228 N   0  0  0  0  0  0  0  0  0  0  0  0
    3.0406    2.3524   -0.0403 N   0  0  0  0  0  0  0  0  0  0  0  0
    3.2155   -0.5719    0.0177 B   0  0  0  0  0  0  0  0  0  0  0  0
    2.1523   -0.2985   -0.8986 F   0  0  0  0  0  0  0  0  0  0  0  0
    3.5187   -1.9022    0.0599 F   0  0  0  0  0  0  0  0  0  0  0  0
    4.3124    0.2303   -0.3623 F   0  0  0  0  0  0  0  0  0  0  0  0
    2.7559   -0.1009    1.2963 F   0  0  0  0  0  0  0  0  0  0  0  0
  1  7  1  0  0  0  0
  2  1  1  0  0  0  0
  2  8  1  0  0  0  0
  3  2  2  0  0  0  0
  4  5  2  0  0  0  0
  4  3  1  0  0  0  0
  5  6  1  0  0  0  0
  6 11  1  0  0  0  0
  6  1  2  0  0  0  0
  9  4  1  0  0  0  0
 10  5  1  0  0  0  0
 11 12  2  0  0  0  0
 13 11  2  0  0  0  0
 14  3  1  0  0  0  0
 15 14  1  0  0  0  0
 16 18  1  0  0  0  0
 16 20  1  0  0  0  0
 17 16  1  0  0  0  0
 19 16  1  0  0  0  0
M  RAD  2  14   2  15   3
M  END
