Coordinates from ORCA-job p-NO2-Ph-N2-X-BF4-B3LYPG-6-31G_dp-scan-d09-49-n400
 OpenBabel08281821043D

 20 19  0  0  0  0  0  0  0  0999 V2000
   -0.7355    0.8376    1.3850 C   0  0  0  0  0  0  0  0  0  0  0  0
    0.5598    1.0962    0.9327 C   0  0  0  0  0  0  0  0  0  0  0  0
    0.6527    1.6802   -0.3383 C   0  0  0  0  0  0  0  0  0  0  0  0
   -0.4310    2.0150   -1.1754 C   0  0  0  0  0  0  0  0  0  0  0  0
   -1.6975    1.7430   -0.6919 C   0  0  0  0  0  0  0  0  0  0  0  0
   -1.8192    1.1647    0.5786 C   0  0  0  0  0  0  0  0  0  0  0  0
   -0.9029    0.3730    2.3486 H   0  0  0  0  0  0  0  0  0  0  0  0
    1.5370    0.8270    1.4521 H   0  0  0  0  0  0  0  0  0  0  0  0
   -0.2764    2.4567   -2.1528 H   0  0  0  0  0  0  0  0  0  0  0  0
   -2.5871    1.9621   -1.2675 H   0  0  0  0  0  0  0  0  0  0  0  0
   -3.1907    0.8857    1.0800 N   0  0  0  0  0  0  0  0  0  0  0  0
   -3.2886    0.4088    2.2038 O   0  0  0  0  0  0  0  0  0  0  0  0
   -4.1236    1.1598    0.3303 O   0  0  0  0  0  0  0  0  0  0  0  0
    1.9286    1.9687   -0.8013 N   0  0  0  0  0  0  0  0  0  0  0  0
    2.9387    2.2358   -1.1778 N   0  0  0  0  0  0  0  0  0  0  0  0
    2.9585   -0.8009    0.7765 B   0  0  0  0  0  0  0  0  0  0  0  0
    2.8673   -0.3538   -0.5661 F   0  0  0  0  0  0  0  0  0  0  0  0
    4.1291   -1.4546    1.0247 F   0  0  0  0  0  0  0  0  0  0  0  0
    2.9069    0.4352    1.5883 F   0  0  0  0  0  0  0  0  0  0  0  0
    1.8170   -1.5217    1.1034 F   0  0  0  0  0  0  0  0  0  0  0  0
  1  7  1  0  0  0  0
  2  1  1  0  0  0  0
  2  8  1  0  0  0  0
  3  2  2  0  0  0  0
  4  5  2  0  0  0  0
  4  3  1  0  0  0  0
  5  6  1  0  0  0  0
  6 11  1  0  0  0  0
  6  1  2  0  0  0  0
  9  4  1  0  0  0  0
 10  5  1  0  0  0  0
 11 12  2  0  0  0  0
 13 11  2  0  0  0  0
 14  3  1  0  0  0  0
 15 14  1  0  0  0  0
 16 18  1  0  0  0  0
 16 20  1  0  0  0  0
 16 19  1  0  0  0  0
 17 16  1  0  0  0  0
M  RAD  2  14   2  15   3
M  END
