Coordinates from ORCA-job p-NO2-Ph-N2-X-BF4-B3LYPG-6-31G_dp-scan-d09-49-n400
 OpenBabel08281821043D

 20 19  0  0  0  0  0  0  0  0999 V2000
   -0.4624    0.5943    0.8718 C   0  0  0  0  0  0  0  0  0  0  0  0
    0.7288    1.0745    0.3046 C   0  0  0  0  0  0  0  0  0  0  0  0
    0.5526    2.0636   -0.6750 C   0  0  0  0  0  0  0  0  0  0  0  0
   -0.6751    2.6068   -1.1262 C   0  0  0  0  0  0  0  0  0  0  0  0
   -1.8140    2.1068   -0.5327 C   0  0  0  0  0  0  0  0  0  0  0  0
   -1.6792    1.1119    0.4529 C   0  0  0  0  0  0  0  0  0  0  0  0
   -0.4011   -0.1870    1.6212 H   0  0  0  0  0  0  0  0  0  0  0  0
    1.8303    0.6620    0.6241 H   0  0  0  0  0  0  0  0  0  0  0  0
   -0.7153    3.3703   -1.8952 H   0  0  0  0  0  0  0  0  0  0  0  0
   -2.8012    2.4549   -0.8064 H   0  0  0  0  0  0  0  0  0  0  0  0
   -2.9320    0.5932    1.0691 N   0  0  0  0  0  0  0  0  0  0  0  0
   -2.8161   -0.2523    1.9447 O   0  0  0  0  0  0  0  0  0  0  0  0
   -3.9895    1.0580    0.6491 O   0  0  0  0  0  0  0  0  0  0  0  0
    1.7175    2.5316   -1.2531 N   0  0  0  0  0  0  0  0  0  0  0  0
    2.6759    2.8840   -1.7011 N   0  0  0  0  0  0  0  0  0  0  0  0
    2.8170   -1.1958    1.4465 B   0  0  0  0  0  0  0  0  0  0  0  0
    2.8943   -2.0218    0.3529 F   0  0  0  0  0  0  0  0  0  0  0  0
    3.8129   -1.3614    2.3641 F   0  0  0  0  0  0  0  0  0  0  0  0
    2.9594    0.2284    0.9015 F   0  0  0  0  0  0  0  0  0  0  0  0
    1.5403   -1.2033    2.0203 F   0  0  0  0  0  0  0  0  0  0  0  0
  1  7  1  0  0  0  0
  2  8  1  0  0  0  0
  2  1  2  0  0  0  0
  3  2  1  0  0  0  0
  4  3  2  0  0  0  0
  4  5  1  0  0  0  0
  5  6  2  0  0  0  0
  6  1  1  0  0  0  0
  6 11  1  0  0  0  0
  9  4  1  0  0  0  0
 10  5  1  0  0  0  0
 11 12  2  0  0  0  0
 13 11  2  0  0  0  0
 14  3  1  0  0  0  0
 15 14  1  0  0  0  0
 16 20  1  0  0  0  0
 16 18  1  0  0  0  0
 17 16  1  0  0  0  0
 19 16  1  0  0  0  0
M  RAD  2  14   2  15   3
M  END
