Coordinates from ORCA-job p-NO2-Ph-N2-X-BF4-B3LYPG-6-31G_dp-scan-d09-49-n400
 OpenBabel08281821043D

 20 19  0  0  0  0  0  0  0  0999 V2000
   -0.8102    0.8419    1.4582 C   0  0  0  0  0  0  0  0  0  0  0  0
    0.5038    1.0820    1.0667 C   0  0  0  0  0  0  0  0  0  0  0  0
    0.6890    1.6286   -0.2097 C   0  0  0  0  0  0  0  0  0  0  0  0
   -0.3464    1.9382   -1.1104 C   0  0  0  0  0  0  0  0  0  0  0  0
   -1.6430    1.6841   -0.6955 C   0  0  0  0  0  0  0  0  0  0  0  0
   -1.8446    1.1476    0.5798 C   0  0  0  0  0  0  0  0  0  0  0  0
   -1.0328    0.4094    2.4252 H   0  0  0  0  0  0  0  0  0  0  0  0
    1.3982    0.8387    1.6428 H   0  0  0  0  0  0  0  0  0  0  0  0
   -0.1341    2.3504   -2.0898 H   0  0  0  0  0  0  0  0  0  0  0  0
   -2.4944    1.8897   -1.3309 H   0  0  0  0  0  0  0  0  0  0  0  0
   -3.2425    0.8894    1.0113 N   0  0  0  0  0  0  0  0  0  0  0  0
   -3.4045    0.4401    2.1393 O   0  0  0  0  0  0  0  0  0  0  0  0
   -4.1303    1.1478    0.2040 O   0  0  0  0  0  0  0  0  0  0  0  0
    1.9838    1.9292   -0.6181 N   0  0  0  0  0  0  0  0  0  0  0  0
    2.9711    2.2714   -0.9908 N   0  0  0  0  0  0  0  0  0  0  0  0
    2.9783   -0.7256    0.6315 B   0  0  0  0  0  0  0  0  0  0  0  0
    2.6215   -0.4481   -0.7199 F   0  0  0  0  0  0  0  0  0  0  0  0
    4.1528   -1.4182    0.7127 F   0  0  0  0  0  0  0  0  0  0  0  0
    3.1206    0.5824    1.2635 F   0  0  0  0  0  0  0  0  0  0  0  0
    1.9066   -1.3601    1.2632 F   0  0  0  0  0  0  0  0  0  0  0  0
  1  7  1  0  0  0  0
  2  1  1  0  0  0  0
  2  8  1  0  0  0  0
  3  2  2  0  0  0  0
  4  5  2  0  0  0  0
  4  3  1  0  0  0  0
  5  6  1  0  0  0  0
  6 11  1  0  0  0  0
  6  1  2  0  0  0  0
  9  4  1  0  0  0  0
 10  5  1  0  0  0  0
 11 12  2  0  0  0  0
 13 11  2  0  0  0  0
 14  3  1  0  0  0  0
 15 14  1  0  0  0  0
 16 18  1  0  0  0  0
 16 20  1  0  0  0  0
 16 19  1  0  0  0  0
 17 16  1  0  0  0  0
M  RAD  2  14   2  15   3
M  END
