Coordinates from ORCA-job p-NO2-Ph-N2-X-BF4-B3LYPG-6-31G_dp-scan-d09-49-n400
 OpenBabel08281821043D

 20 19  0  0  0  0  0  0  0  0999 V2000
   -0.9928    0.6082    1.2989 C   0  0  0  0  0  0  0  0  0  0  0  0
    0.3365    0.7888    0.9250 C   0  0  0  0  0  0  0  0  0  0  0  0
    0.5620    1.5348   -0.2413 C   0  0  0  0  0  0  0  0  0  0  0  0
   -0.4493    2.0963   -1.0389 C   0  0  0  0  0  0  0  0  0  0  0  0
   -1.7637    1.8925   -0.6478 C   0  0  0  0  0  0  0  0  0  0  0  0
   -2.0040    1.1543    0.5128 C   0  0  0  0  0  0  0  0  0  0  0  0
   -1.2485    0.0432    2.1865 H   0  0  0  0  0  0  0  0  0  0  0  0
    1.1765    0.3720    1.4858 H   0  0  0  0  0  0  0  0  0  0  0  0
   -0.2056    2.6615   -1.9311 H   0  0  0  0  0  0  0  0  0  0  0  0
   -2.5955    2.2894   -1.2144 H   0  0  0  0  0  0  0  0  0  0  0  0
   -3.4161    0.9461    0.9254 N   0  0  0  0  0  0  0  0  0  0  0  0
   -3.6095    0.2959    1.9455 O   0  0  0  0  0  0  0  0  0  0  0  0
   -4.2824    1.4440    0.2127 O   0  0  0  0  0  0  0  0  0  0  0  0
    1.8747    1.7696   -0.6333 N   0  0  0  0  0  0  0  0  0  0  0  0
    2.9336    1.9827   -0.9050 N   0  0  0  0  0  0  0  0  0  0  0  0
    3.4107   -0.5873    0.7573 B   0  0  0  0  0  0  0  0  0  0  0  0
    2.3864   -0.6890   -0.2325 F   0  0  0  0  0  0  0  0  0  0  0  0
    4.2114   -1.6934    0.7652 F   0  0  0  0  0  0  0  0  0  0  0  0
    4.1510    0.5947    0.4558 F   0  0  0  0  0  0  0  0  0  0  0  0
    2.7674   -0.3855    2.0063 F   0  0  0  0  0  0  0  0  0  0  0  0
  1  7  1  0  0  0  0
  2  1  1  0  0  0  0
  2  8  1  0  0  0  0
  3  2  2  0  0  0  0
  4  5  2  0  0  0  0
  4  3  1  0  0  0  0
  5  6  1  0  0  0  0
  6 11  1  0  0  0  0
  6  1  2  0  0  0  0
  9  4  1  0  0  0  0
 10  5  1  0  0  0  0
 11 12  2  0  0  0  0
 13 11  2  0  0  0  0
 14  3  1  0  0  0  0
 15 14  1  0  0  0  0
 16 18  1  0  0  0  0
 16 20  1  0  0  0  0
 17 16  1  0  0  0  0
 19 16  1  0  0  0  0
M  RAD  2  14   2  15   3
M  END
