Coordinates from ORCA-job p-NO2-Ph-N2-X-BF4-B3LYPG-6-31G_dp-scan-d09-49-n400
 OpenBabel08281821043D

 20 18  0  0  0  0  0  0  0  0999 V2000
   -0.4515    0.6016    0.8594 C   0  0  0  0  0  0  0  0  0  0  0  0
    0.7416    1.0848    0.2915 C   0  0  0  0  0  0  0  0  0  0  0  0
    0.5485    2.0746   -0.6846 C   0  0  0  0  0  0  0  0  0  0  0  0
   -0.6830    2.6148   -1.1321 C   0  0  0  0  0  0  0  0  0  0  0  0
   -1.8175    2.1090   -0.5367 C   0  0  0  0  0  0  0  0  0  0  0  0
   -1.6727    1.1127    0.4467 C   0  0  0  0  0  0  0  0  0  0  0  0
   -0.3909   -0.1796    1.6091 H   0  0  0  0  0  0  0  0  0  0  0  0
    1.8850    0.6483    0.6320 H   0  0  0  0  0  0  0  0  0  0  0  0
   -0.7286    3.3800   -1.8992 H   0  0  0  0  0  0  0  0  0  0  0  0
   -2.8074    2.4528   -0.8060 H   0  0  0  0  0  0  0  0  0  0  0  0
   -2.9204    0.5865    1.0668 N   0  0  0  0  0  0  0  0  0  0  0  0
   -2.7977   -0.2599    1.9410 O   0  0  0  0  0  0  0  0  0  0  0  0
   -3.9824    1.0457    0.6517 O   0  0  0  0  0  0  0  0  0  0  0  0
    1.7064    2.5550   -1.2687 N   0  0  0  0  0  0  0  0  0  0  0  0
    2.6591    2.9178   -1.7211 N   0  0  0  0  0  0  0  0  0  0  0  0
    2.7995   -1.2243    1.4712 B   0  0  0  0  0  0  0  0  0  0  0  0
    2.8569   -2.0282    0.3646 F   0  0  0  0  0  0  0  0  0  0  0  0
    3.8196   -1.3804    2.3582 F   0  0  0  0  0  0  0  0  0  0  0  0
    2.9378    0.2272    0.9231 F   0  0  0  0  0  0  0  0  0  0  0  0
    1.5405   -1.2196    2.0660 F   0  0  0  0  0  0  0  0  0  0  0  0
  1  7  1  0  0  0  0
  2  1  2  0  0  0  0
  3  2  1  0  0  0  0
  4  3  2  0  0  0  0
  4  5  1  0  0  0  0
  5  6  2  0  0  0  0
  6  1  1  0  0  0  0
  6 11  1  0  0  0  0
  8 19  1  0  0  0  0
  9  4  1  0  0  0  0
 10  5  1  0  0  0  0
 11 12  2  0  0  0  0
 13 11  2  0  0  0  0
 14  3  1  0  0  0  0
 15 14  1  0  0  0  0
 16 20  1  0  0  0  0
 16 18  1  0  0  0  0
 17 16  1  0  0  0  0
M  RAD  3   2   2  14   2  15   3
M  END
