Coordinates from ORCA-job p-NO2-Ph-N2-X-BF4-B3LYPG-6-31G_dp-scan-d09-49-n400
 OpenBabel08281821043D

 20 19  0  0  0  0  0  0  0  0999 V2000
   -0.9009    0.6936    1.3549 C   0  0  0  0  0  0  0  0  0  0  0  0
    0.4227    0.8624    0.9569 C   0  0  0  0  0  0  0  0  0  0  0  0
    0.6300    1.5243   -0.2605 C   0  0  0  0  0  0  0  0  0  0  0  0
   -0.3982    2.0149   -1.0861 C   0  0  0  0  0  0  0  0  0  0  0  0
   -1.7057    1.8295   -0.6660 C   0  0  0  0  0  0  0  0  0  0  0  0
   -1.9268    1.1756    0.5474 C   0  0  0  0  0  0  0  0  0  0  0  0
   -1.1378    0.1826    2.2795 H   0  0  0  0  0  0  0  0  0  0  0  0
    1.2522    0.4663    1.5354 H   0  0  0  0  0  0  0  0  0  0  0  0
   -0.1713    2.5132   -2.0214 H   0  0  0  0  0  0  0  0  0  0  0  0
   -2.5466    2.1764   -1.2520 H   0  0  0  0  0  0  0  0  0  0  0  0
   -3.3318    0.9844    0.9906 N   0  0  0  0  0  0  0  0  0  0  0  0
   -3.5065    0.4190    2.0630 O   0  0  0  0  0  0  0  0  0  0  0  0
   -4.2109    1.4112    0.2480 O   0  0  0  0  0  0  0  0  0  0  0  0
    1.9261    1.7616   -0.7078 N   0  0  0  0  0  0  0  0  0  0  0  0
    2.9149    2.0498   -1.1186 N   0  0  0  0  0  0  0  0  0  0  0  0
    3.2212   -0.6271    0.7599 B   0  0  0  0  0  0  0  0  0  0  0  0
    2.5183   -0.6351   -0.4866 F   0  0  0  0  0  0  0  0  0  0  0  0
    4.4103   -1.2941    0.6703 F   0  0  0  0  0  0  0  0  0  0  0  0
    3.4183    0.7604    1.0782 F   0  0  0  0  0  0  0  0  0  0  0  0
    2.3655   -1.1503    1.7480 F   0  0  0  0  0  0  0  0  0  0  0  0
  1  7  1  0  0  0  0
  2  1  1  0  0  0  0
  2  8  1  0  0  0  0
  3  2  2  0  0  0  0
  4  5  2  0  0  0  0
  4  3  1  0  0  0  0
  5  6  1  0  0  0  0
  6 11  1  0  0  0  0
  6  1  2  0  0  0  0
  9  4  1  0  0  0  0
 10  5  1  0  0  0  0
 11 12  2  0  0  0  0
 13 11  2  0  0  0  0
 14  3  1  0  0  0  0
 15 14  1  0  0  0  0
 16 19  1  0  0  0  0
 16 20  1  0  0  0  0
 17 16  1  0  0  0  0
 18 16  1  0  0  0  0
M  RAD  2  14   2  15   3
M  END
