Coordinates from ORCA-job p-NO2-Ph-N2-X-BF4-B3LYPG-6-31G_dp-scan-d09-49-n400
 OpenBabel08281821043D

 20 19  0  0  0  0  0  0  0  0999 V2000
   -0.9911    0.6065    1.2957 C   0  0  0  0  0  0  0  0  0  0  0  0
    0.3377    0.7853    0.9189 C   0  0  0  0  0  0  0  0  0  0  0  0
    0.5615    1.5327   -0.2468 C   0  0  0  0  0  0  0  0  0  0  0  0
   -0.4509    2.0973   -1.0410 C   0  0  0  0  0  0  0  0  0  0  0  0
   -1.7646    1.8954   -0.6469 C   0  0  0  0  0  0  0  0  0  0  0  0
   -2.0033    1.1557    0.5130 C   0  0  0  0  0  0  0  0  0  0  0  0
   -1.2456    0.0404    2.1830 H   0  0  0  0  0  0  0  0  0  0  0  0
    1.1776    0.3650    1.4775 H   0  0  0  0  0  0  0  0  0  0  0  0
   -0.2084    2.6636   -1.9329 H   0  0  0  0  0  0  0  0  0  0  0  0
   -2.5971    2.2947   -1.2107 H   0  0  0  0  0  0  0  0  0  0  0  0
   -3.4148    0.9489    0.9286 N   0  0  0  0  0  0  0  0  0  0  0  0
   -3.6068    0.2966    1.9476 O   0  0  0  0  0  0  0  0  0  0  0  0
   -4.2819    1.4499    0.2191 O   0  0  0  0  0  0  0  0  0  0  0  0
    1.8735    1.7659   -0.6420 N   0  0  0  0  0  0  0  0  0  0  0  0
    2.9329    1.9759   -0.9139 N   0  0  0  0  0  0  0  0  0  0  0  0
    3.4105   -0.5862    0.7634 B   0  0  0  0  0  0  0  0  0  0  0  0
    2.3926   -0.6921   -0.2325 F   0  0  0  0  0  0  0  0  0  0  0  0
    4.2236   -1.6832    0.7675 F   0  0  0  0  0  0  0  0  0  0  0  0
    4.1387    0.6065    0.4747 F   0  0  0  0  0  0  0  0  0  0  0  0
    2.7590   -0.4000    2.0105 F   0  0  0  0  0  0  0  0  0  0  0  0
  1  7  1  0  0  0  0
  2  1  1  0  0  0  0
  2  8  1  0  0  0  0
  3  2  2  0  0  0  0
  4  5  2  0  0  0  0
  4  3  1  0  0  0  0
  5  6  1  0  0  0  0
  6 11  1  0  0  0  0
  6  1  2  0  0  0  0
  9  4  1  0  0  0  0
 10  5  1  0  0  0  0
 11 12  2  0  0  0  0
 13 11  2  0  0  0  0
 14  3  1  0  0  0  0
 15 14  1  0  0  0  0
 16 18  1  0  0  0  0
 16 20  1  0  0  0  0
 17 16  1  0  0  0  0
 19 16  1  0  0  0  0
M  RAD  2  14   2  15   3
M  END
