Coordinates from ORCA-job p-NO2-Ph-N2-X-BF4-B3LYPG-6-31G_dp-scan-d09-49-n400
 OpenBabel08281821043D

 20 18  0  0  0  0  0  0  0  0999 V2000
   -0.4564    0.5982    0.8656 C   0  0  0  0  0  0  0  0  0  0  0  0
    0.7361    1.0799    0.2983 C   0  0  0  0  0  0  0  0  0  0  0  0
    0.5509    2.0692   -0.6798 C   0  0  0  0  0  0  0  0  0  0  0  0
   -0.6788    2.6105   -1.1294 C   0  0  0  0  0  0  0  0  0  0  0  0
   -1.8154    2.1075   -0.5352 C   0  0  0  0  0  0  0  0  0  0  0  0
   -1.6755    1.1121    0.4496 C   0  0  0  0  0  0  0  0  0  0  0  0
   -0.3956   -0.1829    1.6154 H   0  0  0  0  0  0  0  0  0  0  0  0
    1.8599    0.6551    0.6289 H   0  0  0  0  0  0  0  0  0  0  0  0
   -0.7218    3.3748   -1.8976 H   0  0  0  0  0  0  0  0  0  0  0  0
   -2.8041    2.4531   -0.8069 H   0  0  0  0  0  0  0  0  0  0  0  0
   -2.9257    0.5893    1.0676 N   0  0  0  0  0  0  0  0  0  0  0  0
   -2.8062   -0.2565    1.9427 O   0  0  0  0  0  0  0  0  0  0  0  0
   -3.9855    1.0509    0.6498 O   0  0  0  0  0  0  0  0  0  0  0  0
    1.7120    2.5439   -1.2610 N   0  0  0  0  0  0  0  0  0  0  0  0
    2.6674    2.9020   -1.7114 N   0  0  0  0  0  0  0  0  0  0  0  0
    2.8067   -1.2101    1.4593 B   0  0  0  0  0  0  0  0  0  0  0  0
    2.8697   -2.0232    0.3574 F   0  0  0  0  0  0  0  0  0  0  0  0
    3.8183   -1.3724    2.3573 F   0  0  0  0  0  0  0  0  0  0  0  0
    2.9457    0.2288    0.9140 F   0  0  0  0  0  0  0  0  0  0  0  0
    1.5413   -1.2116    2.0482 F   0  0  0  0  0  0  0  0  0  0  0  0
  1  7  1  0  0  0  0
  2  1  2  0  0  0  0
  3  2  1  0  0  0  0
  4  3  2  0  0  0  0
  4  5  1  0  0  0  0
  5  6  2  0  0  0  0
  6  1  1  0  0  0  0
  6 11  1  0  0  0  0
  8 19  1  0  0  0  0
  9  4  1  0  0  0  0
 10  5  1  0  0  0  0
 11 12  2  0  0  0  0
 13 11  2  0  0  0  0
 14  3  1  0  0  0  0
 15 14  1  0  0  0  0
 16 20  1  0  0  0  0
 16 18  1  0  0  0  0
 17 16  1  0  0  0  0
M  RAD  3   2   2  14   2  15   3
M  END
