Coordinates from ORCA-job p-NO2-Ph-N2-X-BF4-B3LYPG-6-31G_dp-scan-d09-49-n400
 OpenBabel08281821043D

 20 19  0  0  0  0  0  0  0  0999 V2000
   -1.1385    0.9145    1.6688 C   0  0  0  0  0  0  0  0  0  0  0  0
    0.2208    1.1776    1.5439 C   0  0  0  0  0  0  0  0  0  0  0  0
    0.6746    1.6061    0.2913 C   0  0  0  0  0  0  0  0  0  0  0  0
   -0.1468    1.7632   -0.8324 C   0  0  0  0  0  0  0  0  0  0  0  0
   -1.4989    1.4878   -0.6867 C   0  0  0  0  0  0  0  0  0  0  0  0
   -1.9666    1.0759    0.5604 C   0  0  0  0  0  0  0  0  0  0  0  0
   -1.5595    0.5763    2.6069 H   0  0  0  0  0  0  0  0  0  0  0  0
    0.9018    1.0300    2.3705 H   0  0  0  0  0  0  0  0  0  0  0  0
    0.2726    2.0630   -1.7846 H   0  0  0  0  0  0  0  0  0  0  0  0
   -2.1880    1.5804   -1.5163 H   0  0  0  0  0  0  0  0  0  0  0  0
   -3.4141    0.7924    0.7112 N   0  0  0  0  0  0  0  0  0  0  0  0
   -3.8002    0.4312    1.8177 O   0  0  0  0  0  0  0  0  0  0  0  0
   -4.1185    0.9454   -0.2815 O   0  0  0  0  0  0  0  0  0  0  0  0
    2.0168    1.9575    0.1325 N   0  0  0  0  0  0  0  0  0  0  0  0
    3.0411    2.3556   -0.0281 N   0  0  0  0  0  0  0  0  0  0  0  0
    3.2142   -0.5708    0.0069 B   0  0  0  0  0  0  0  0  0  0  0  0
    2.1503   -0.2889   -0.9070 F   0  0  0  0  0  0  0  0  0  0  0  0
    3.5117   -1.9029    0.0417 F   0  0  0  0  0  0  0  0  0  0  0  0
    4.3134    0.2294   -0.3703 F   0  0  0  0  0  0  0  0  0  0  0  0
    2.7568   -0.1050    1.2883 F   0  0  0  0  0  0  0  0  0  0  0  0
  1  7  1  0  0  0  0
  2  1  1  0  0  0  0
  2  8  1  0  0  0  0
  3  2  2  0  0  0  0
  4  5  2  0  0  0  0
  4  3  1  0  0  0  0
  5  6  1  0  0  0  0
  6 11  1  0  0  0  0
  6  1  2  0  0  0  0
  9  4  1  0  0  0  0
 10  5  1  0  0  0  0
 11 12  2  0  0  0  0
 13 11  2  0  0  0  0
 14  3  1  0  0  0  0
 15 14  1  0  0  0  0
 16 18  1  0  0  0  0
 16 20  1  0  0  0  0
 17 16  1  0  0  0  0
 19 16  1  0  0  0  0
M  RAD  2  14   2  15   3
M  END
