Coordinates from ORCA-job p-NO2-Ph-N2-X-BF4-B3LYPG-6-31G_dp-scan-d09-49-n400
 OpenBabel08281821043D

 20 19  0  0  0  0  0  0  0  0999 V2000
   -0.8565    0.8294    1.4639 C   0  0  0  0  0  0  0  0  0  0  0  0
    0.4676    1.0489    1.0964 C   0  0  0  0  0  0  0  0  0  0  0  0
    0.6861    1.5949   -0.1746 C   0  0  0  0  0  0  0  0  0  0  0  0
   -0.3334    1.9217   -1.0864 C   0  0  0  0  0  0  0  0  0  0  0  0
   -1.6425    1.6881   -0.6968 C   0  0  0  0  0  0  0  0  0  0  0  0
   -1.8741    1.1522    0.5715 C   0  0  0  0  0  0  0  0  0  0  0  0
   -1.1007    0.3998    2.4270 H   0  0  0  0  0  0  0  0  0  0  0  0
    1.3064    0.7779    1.7244 H   0  0  0  0  0  0  0  0  0  0  0  0
   -0.0983    2.3335   -2.0607 H   0  0  0  0  0  0  0  0  0  0  0  0
   -2.4780    1.9109   -1.3474 H   0  0  0  0  0  0  0  0  0  0  0  0
   -3.2814    0.9146    0.9817 N   0  0  0  0  0  0  0  0  0  0  0  0
   -3.4663    0.4600    2.1042 O   0  0  0  0  0  0  0  0  0  0  0  0
   -4.1532    1.1968    0.1652 O   0  0  0  0  0  0  0  0  0  0  0  0
    1.9827    1.8932   -0.5849 N   0  0  0  0  0  0  0  0  0  0  0  0
    2.9533    2.2577   -0.9788 N   0  0  0  0  0  0  0  0  0  0  0  0
    3.0514   -0.6968    0.6108 B   0  0  0  0  0  0  0  0  0  0  0  0
    2.4924   -0.4940   -0.6908 F   0  0  0  0  0  0  0  0  0  0  0  0
    4.2010   -1.4342    0.5502 F   0  0  0  0  0  0  0  0  0  0  0  0
    3.3164    0.6283    1.1240 F   0  0  0  0  0  0  0  0  0  0  0  0
    2.0701   -1.2640    1.4341 F   0  0  0  0  0  0  0  0  0  0  0  0
  1  7  1  0  0  0  0
  2  1  1  0  0  0  0
  2  8  1  0  0  0  0
  3  2  2  0  0  0  0
  4  5  2  0  0  0  0
  4  3  1  0  0  0  0
  5  6  1  0  0  0  0
  6 11  1  0  0  0  0
  6  1  2  0  0  0  0
  9  4  1  0  0  0  0
 10  5  1  0  0  0  0
 11 12  2  0  0  0  0
 13 11  2  0  0  0  0
 14  3  1  0  0  0  0
 15 14  1  0  0  0  0
 16 19  1  0  0  0  0
 16 20  1  0  0  0  0
 17 16  1  0  0  0  0
 18 16  1  0  0  0  0
M  RAD  2  14   2  15   3
M  END
