Coordinates from ORCA-job p-NO2-Ph-N2-X-BF4-B3LYPG-6-31G_dp-scan-d09-49-n400
 OpenBabel08281821043D

 20 19  0  0  0  0  0  0  0  0999 V2000
   -0.4762    0.5872    0.8781 C   0  0  0  0  0  0  0  0  0  0  0  0
    0.7142    1.0639    0.3115 C   0  0  0  0  0  0  0  0  0  0  0  0
    0.5521    2.0552   -0.6678 C   0  0  0  0  0  0  0  0  0  0  0  0
   -0.6718    2.6048   -1.1194 C   0  0  0  0  0  0  0  0  0  0  0  0
   -1.8145    2.1103   -0.5274 C   0  0  0  0  0  0  0  0  0  0  0  0
   -1.6888    1.1137    0.4571 C   0  0  0  0  0  0  0  0  0  0  0  0
   -0.4157   -0.1961    1.6252 H   0  0  0  0  0  0  0  0  0  0  0  0
    1.7888    0.6632    0.6155 H   0  0  0  0  0  0  0  0  0  0  0  0
   -0.7069    3.3690   -1.8878 H   0  0  0  0  0  0  0  0  0  0  0  0
   -2.7992    2.4648   -0.8026 H   0  0  0  0  0  0  0  0  0  0  0  0
   -2.9461    0.6022    1.0703 N   0  0  0  0  0  0  0  0  0  0  0  0
   -2.8364   -0.2452    1.9448 O   0  0  0  0  0  0  0  0  0  0  0  0
   -3.9994    1.0748    0.6490 O   0  0  0  0  0  0  0  0  0  0  0  0
    1.7234    2.5118   -1.2408 N   0  0  0  0  0  0  0  0  0  0  0  0
    2.6872    2.8542   -1.6844 N   0  0  0  0  0  0  0  0  0  0  0  0
    2.8413   -1.1779    1.4287 B   0  0  0  0  0  0  0  0  0  0  0  0
    2.9520   -2.0341    0.3589 F   0  0  0  0  0  0  0  0  0  0  0  0
    3.8079   -1.3306    2.3832 F   0  0  0  0  0  0  0  0  0  0  0  0
    2.9860    0.2214    0.8688 F   0  0  0  0  0  0  0  0  0  0  0  0
    1.5450   -1.1941    1.9717 F   0  0  0  0  0  0  0  0  0  0  0  0
  1  7  1  0  0  0  0
  2  8  1  0  0  0  0
  2  1  2  0  0  0  0
  3  2  1  0  0  0  0
  4  3  2  0  0  0  0
  4  5  1  0  0  0  0
  5  6  2  0  0  0  0
  6  1  1  0  0  0  0
  6 11  1  0  0  0  0
  9  4  1  0  0  0  0
 10  5  1  0  0  0  0
 11 12  2  0  0  0  0
 13 11  2  0  0  0  0
 14  3  1  0  0  0  0
 15 14  1  0  0  0  0
 16 20  1  0  0  0  0
 16 18  1  0  0  0  0
 17 16  1  0  0  0  0
 19 16  1  0  0  0  0
M  RAD  2  14   2  15   3
M  END
