Coordinates from ORCA-job p-NO2-Ph-N2-X-BF4-B3LYPG-6-31G_dp-scan-d09-49-n400
 OpenBabel08281821043D

 20 19  0  0  0  0  0  0  0  0999 V2000
   -0.9354    0.6512    1.3013 C   0  0  0  0  0  0  0  0  0  0  0  0
    0.3847    0.8258    0.8933 C   0  0  0  0  0  0  0  0  0  0  0  0
    0.5795    1.5415   -0.2978 C   0  0  0  0  0  0  0  0  0  0  0  0
   -0.4528    2.0729   -1.0889 C   0  0  0  0  0  0  0  0  0  0  0  0
   -1.7569    1.8770   -0.6617 C   0  0  0  0  0  0  0  0  0  0  0  0
   -1.9670    1.1740    0.5262 C   0  0  0  0  0  0  0  0  0  0  0  0
   -1.1659    0.1068    2.2085 H   0  0  0  0  0  0  0  0  0  0  0  0
    1.2210    0.4010    1.4507 H   0  0  0  0  0  0  0  0  0  0  0  0
   -0.2319    2.6103   -2.0039 H   0  0  0  0  0  0  0  0  0  0  0  0
   -2.6034    2.2526   -1.2210 H   0  0  0  0  0  0  0  0  0  0  0  0
   -3.3680    0.9756    0.9797 N   0  0  0  0  0  0  0  0  0  0  0  0
   -3.5334    0.3695    2.0313 O   0  0  0  0  0  0  0  0  0  0  0  0
   -4.2532    1.4376    0.2662 O   0  0  0  0  0  0  0  0  0  0  0  0
    1.8820    1.7680   -0.7222 N   0  0  0  0  0  0  0  0  0  0  0  0
    2.9541    1.9328   -0.9673 N   0  0  0  0  0  0  0  0  0  0  0  0
    3.3288   -0.6135    0.7902 B   0  0  0  0  0  0  0  0  0  0  0  0
    2.4906   -0.6858   -0.3608 F   0  0  0  0  0  0  0  0  0  0  0  0
    4.3887   -1.4692    0.7004 F   0  0  0  0  0  0  0  0  0  0  0  0
    3.7589    0.7527    0.8828 F   0  0  0  0  0  0  0  0  0  0  0  0
    2.5227   -0.8622    1.9259 F   0  0  0  0  0  0  0  0  0  0  0  0
  1  7  1  0  0  0  0
  2  1  1  0  0  0  0
  2  8  1  0  0  0  0
  3  2  2  0  0  0  0
  4  5  2  0  0  0  0
  4  3  1  0  0  0  0
  5  6  1  0  0  0  0
  6 11  1  0  0  0  0
  6  1  2  0  0  0  0
  9  4  1  0  0  0  0
 10  5  1  0  0  0  0
 11 12  2  0  0  0  0
 13 11  2  0  0  0  0
 14  3  1  0  0  0  0
 15 14  1  0  0  0  0
 16 19  1  0  0  0  0
 16 20  1  0  0  0  0
 17 16  1  0  0  0  0
 18 16  1  0  0  0  0
M  RAD  2  14   2  15   3
M  END
