Coordinates from ORCA-job p-NO2-Ph-N2-X-BF4-B3LYPG-6-31G_dp-scan-d09-49-n400
 OpenBabel08281821043D

 20 18  0  0  0  0  0  0  0  0999 V2000
   -0.4435    0.6073    0.8422 C   0  0  0  0  0  0  0  0  0  0  0  0
    0.7509    1.0937    0.2726 C   0  0  0  0  0  0  0  0  0  0  0  0
    0.5407    2.0879   -0.6962 C   0  0  0  0  0  0  0  0  0  0  0  0
   -0.6945    2.6281   -1.1359 C   0  0  0  0  0  0  0  0  0  0  0  0
   -1.8243    2.1159   -0.5385 C   0  0  0  0  0  0  0  0  0  0  0  0
   -1.6691    1.1149    0.4392 C   0  0  0  0  0  0  0  0  0  0  0  0
   -0.3834   -0.1757    1.5902 H   0  0  0  0  0  0  0  0  0  0  0  0
    1.9432    0.6269    0.6343 H   0  0  0  0  0  0  0  0  0  0  0  0
   -0.7460    3.3980   -1.8983 H   0  0  0  0  0  0  0  0  0  0  0  0
   -2.8168    2.4574   -0.8005 H   0  0  0  0  0  0  0  0  0  0  0  0
   -2.9113    0.5805    1.0635 N   0  0  0  0  0  0  0  0  0  0  0  0
   -2.7813   -0.2702    1.9328 O   0  0  0  0  0  0  0  0  0  0  0  0
   -3.9779    1.0372    0.6570 O   0  0  0  0  0  0  0  0  0  0  0  0
    1.6918    2.5805   -1.2857 N   0  0  0  0  0  0  0  0  0  0  0  0
    2.6395    2.9528   -1.7415 N   0  0  0  0  0  0  0  0  0  0  0  0
    2.7895   -1.2581    1.5012 B   0  0  0  0  0  0  0  0  0  0  0  0
    2.8366   -2.0547    0.3941 F   0  0  0  0  0  0  0  0  0  0  0  0
    3.8243   -1.3913    2.3691 F   0  0  0  0  0  0  0  0  0  0  0  0
    2.9321    0.2168    0.9294 F   0  0  0  0  0  0  0  0  0  0  0  0
    1.5425   -1.2292    2.1038 F   0  0  0  0  0  0  0  0  0  0  0  0
  1  7  1  0  0  0  0
  2  1  2  0  0  0  0
  3  2  1  0  0  0  0
  4  3  2  0  0  0  0
  4  5  1  0  0  0  0
  5  6  2  0  0  0  0
  6  1  1  0  0  0  0
  6 11  1  0  0  0  0
  8 19  1  0  0  0  0
  9  4  1  0  0  0  0
 10  5  1  0  0  0  0
 11 12  2  0  0  0  0
 13 11  2  0  0  0  0
 14  3  1  0  0  0  0
 15 14  1  0  0  0  0
 16 20  1  0  0  0  0
 16 18  1  0  0  0  0
 17 16  1  0  0  0  0
M  RAD  3   2   2  14   2  15   3
M  END
