Coordinates from ORCA-job p-NO2-Ph-N2-X-BF4-B3LYPG-6-31G_dp-scan-d09-49-n400
 OpenBabel08281821043D

 20 19  0  0  0  0  0  0  0  0999 V2000
   -1.0718    0.5766    1.3609 C   0  0  0  0  0  0  0  0  0  0  0  0
    0.2766    0.7588    1.0710 C   0  0  0  0  0  0  0  0  0  0  0  0
    0.5803    1.5100   -0.0719 C   0  0  0  0  0  0  0  0  0  0  0  0
   -0.3792    2.0748   -0.9283 C   0  0  0  0  0  0  0  0  0  0  0  0
   -1.7166    1.8672   -0.6243 C   0  0  0  0  0  0  0  0  0  0  0  0
   -2.0321    1.1253    0.5143 C   0  0  0  0  0  0  0  0  0  0  0  0
   -1.3844    0.0079    2.2277 H   0  0  0  0  0  0  0  0  0  0  0  0
    1.0840    0.3556    1.6738 H   0  0  0  0  0  0  0  0  0  0  0  0
   -0.0801    2.6430   -1.8016 H   0  0  0  0  0  0  0  0  0  0  0  0
   -2.5094    2.2658   -1.2435 H   0  0  0  0  0  0  0  0  0  0  0  0
   -3.4664    0.9145    0.8353 N   0  0  0  0  0  0  0  0  0  0  0  0
   -3.7236    0.2676    1.8437 O   0  0  0  0  0  0  0  0  0  0  0  0
   -4.2866    1.4069    0.0666 O   0  0  0  0  0  0  0  0  0  0  0  0
    1.9132    1.7571   -0.3969 N   0  0  0  0  0  0  0  0  0  0  0  0
    2.9398    2.0576   -0.7044 N   0  0  0  0  0  0  0  0  0  0  0  0
    3.4471   -0.5339    0.5715 B   0  0  0  0  0  0  0  0  0  0  0  0
    2.2833   -0.7256   -0.2330 F   0  0  0  0  0  0  0  0  0  0  0  0
    3.9826   -1.7209    0.9800 F   0  0  0  0  0  0  0  0  0  0  0  0
    4.3567    0.2405   -0.1885 F   0  0  0  0  0  0  0  0  0  0  0  0
    3.0298    0.2698    1.6803 F   0  0  0  0  0  0  0  0  0  0  0  0
  1  7  1  0  0  0  0
  2  1  1  0  0  0  0
  2  8  1  0  0  0  0
  3  2  2  0  0  0  0
  4  5  2  0  0  0  0
  4  3  1  0  0  0  0
  5  6  1  0  0  0  0
  6 11  1  0  0  0  0
  6  1  2  0  0  0  0
  9  4  1  0  0  0  0
 10  5  1  0  0  0  0
 11 12  2  0  0  0  0
 13 11  2  0  0  0  0
 14  3  1  0  0  0  0
 15 14  1  0  0  0  0
 16 18  1  0  0  0  0
 16 20  1  0  0  0  0
 17 16  1  0  0  0  0
 19 16  1  0  0  0  0
M  RAD  2  14   2  15   3
M  END
