Coordinates from ORCA-job p-NO2-Ph-N2-X-BF4-B3LYPG-6-31G_dp-scan-d09-49-n400
 OpenBabel08281821043D

 20 19  0  0  0  0  0  0  0  0999 V2000
   -0.9986    0.6113    1.3066 C   0  0  0  0  0  0  0  0  0  0  0  0
    0.3321    0.7940    0.9394 C   0  0  0  0  0  0  0  0  0  0  0  0
    0.5629    1.5366   -0.2279 C   0  0  0  0  0  0  0  0  0  0  0  0
   -0.4452    2.0918   -1.0338 C   0  0  0  0  0  0  0  0  0  0  0  0
   -1.7614    1.8853   -0.6499 C   0  0  0  0  0  0  0  0  0  0  0  0
   -2.0067    1.1517    0.5124 C   0  0  0  0  0  0  0  0  0  0  0  0
   -1.2581    0.0495    2.1951 H   0  0  0  0  0  0  0  0  0  0  0  0
    1.1710    0.3836    1.5059 H   0  0  0  0  0  0  0  0  0  0  0  0
   -0.1979    2.6540   -1.9270 H   0  0  0  0  0  0  0  0  0  0  0  0
   -2.5909    2.2773   -1.2233 H   0  0  0  0  0  0  0  0  0  0  0  0
   -3.4204    0.9425    0.9184 N   0  0  0  0  0  0  0  0  0  0  0  0
   -3.6179    0.2987    1.9418 O   0  0  0  0  0  0  0  0  0  0  0  0
   -4.2840    1.4337    0.1978 O   0  0  0  0  0  0  0  0  0  0  0  0
    1.8774    1.7757   -0.6122 N   0  0  0  0  0  0  0  0  0  0  0  0
    2.9344    1.9979   -0.8838 N   0  0  0  0  0  0  0  0  0  0  0  0
    3.4143   -0.5879    0.7418 B   0  0  0  0  0  0  0  0  0  0  0  0
    2.3766   -0.6806   -0.2354 F   0  0  0  0  0  0  0  0  0  0  0  0
    4.1882   -1.7129    0.7583 F   0  0  0  0  0  0  0  0  0  0  0  0
    4.1794    0.5706    0.4144 F   0  0  0  0  0  0  0  0  0  0  0  0
    2.7878   -0.3538    1.9942 F   0  0  0  0  0  0  0  0  0  0  0  0
  1  7  1  0  0  0  0
  2  1  1  0  0  0  0
  2  8  1  0  0  0  0
  3  2  2  0  0  0  0
  4  5  2  0  0  0  0
  4  3  1  0  0  0  0
  5  6  1  0  0  0  0
  6 11  1  0  0  0  0
  6  1  2  0  0  0  0
  9  4  1  0  0  0  0
 10  5  1  0  0  0  0
 11 12  2  0  0  0  0
 13 11  2  0  0  0  0
 14  3  1  0  0  0  0
 15 14  1  0  0  0  0
 16 18  1  0  0  0  0
 16 20  1  0  0  0  0
 17 16  1  0  0  0  0
 19 16  1  0  0  0  0
M  RAD  2  14   2  15   3
M  END
