Coordinates from ORCA-job p-NO2-Ph-N2-X-BF4-B3LYPG-6-31G_dp-scan-d09-49-n400
 OpenBabel08281821043D

 20 19  0  0  0  0  0  0  0  0999 V2000
   -0.7800    0.8355    1.4271 C   0  0  0  0  0  0  0  0  0  0  0  0
    0.5254    1.0803    1.0062 C   0  0  0  0  0  0  0  0  0  0  0  0
    0.6712    1.6456   -0.2676 C   0  0  0  0  0  0  0  0  0  0  0  0
   -0.3846    1.9748   -1.1385 C   0  0  0  0  0  0  0  0  0  0  0  0
   -1.6688    1.7176   -0.6907 C   0  0  0  0  0  0  0  0  0  0  0  0
   -1.8359    1.1586    0.5815 C   0  0  0  0  0  0  0  0  0  0  0  0
   -0.9787    0.3858    2.3916 H   0  0  0  0  0  0  0  0  0  0  0  0
    1.4657    0.8295    1.5367 H   0  0  0  0  0  0  0  0  0  0  0  0
   -0.1976    2.4021   -2.1166 H   0  0  0  0  0  0  0  0  0  0  0  0
   -2.5377    1.9354   -1.2976 H   0  0  0  0  0  0  0  0  0  0  0  0
   -3.2235    0.8944    1.0438 N   0  0  0  0  0  0  0  0  0  0  0  0
   -3.3581    0.4269    2.1678 O   0  0  0  0  0  0  0  0  0  0  0  0
   -4.1311    1.1697    0.2644 O   0  0  0  0  0  0  0  0  0  0  0  0
    1.9619    1.9288   -0.6953 N   0  0  0  0  0  0  0  0  0  0  0  0
    2.9676    2.2222   -1.0613 N   0  0  0  0  0  0  0  0  0  0  0  0
    2.9720   -0.7549    0.6935 B   0  0  0  0  0  0  0  0  0  0  0  0
    2.6955   -0.4549   -0.6675 F   0  0  0  0  0  0  0  0  0  0  0  0
    4.1672   -1.3975    0.8436 F   0  0  0  0  0  0  0  0  0  0  0  0
    3.0237    0.5521    1.3661 F   0  0  0  0  0  0  0  0  0  0  0  0
    1.8888   -1.4331    1.2457 F   0  0  0  0  0  0  0  0  0  0  0  0
  1  7  1  0  0  0  0
  2  1  1  0  0  0  0
  2  8  1  0  0  0  0
  3  2  2  0  0  0  0
  4  5  2  0  0  0  0
  4  3  1  0  0  0  0
  5  6  1  0  0  0  0
  6 11  1  0  0  0  0
  6  1  2  0  0  0  0
  9  4  1  0  0  0  0
 10  5  1  0  0  0  0
 11 12  2  0  0  0  0
 13 11  2  0  0  0  0
 14  3  1  0  0  0  0
 15 14  1  0  0  0  0
 16 18  1  0  0  0  0
 16 20  1  0  0  0  0
 16 19  1  0  0  0  0
 17 16  1  0  0  0  0
M  RAD  2  14   2  15   3
M  END
