Coordinates from ORCA-job p-NO2-Ph-N2-X-BF4-B3LYPG-6-31G_dp-scan-d09-49-n400
 OpenBabel08281821043D

 20 19  0  0  0  0  0  0  0  0999 V2000
   -1.0540    0.5726    1.3410 C   0  0  0  0  0  0  0  0  0  0  0  0
    0.2903    0.7598    1.0345 C   0  0  0  0  0  0  0  0  0  0  0  0
    0.5761    1.5210   -0.1064 C   0  0  0  0  0  0  0  0  0  0  0  0
   -0.3945    2.0945   -0.9446 C   0  0  0  0  0  0  0  0  0  0  0  0
   -1.7270    1.8820   -0.6239 C   0  0  0  0  0  0  0  0  0  0  0  0
   -2.0256    1.1277    0.5118 C   0  0  0  0  0  0  0  0  0  0  0  0
   -1.3545   -0.0045    2.2065 H   0  0  0  0  0  0  0  0  0  0  0  0
    1.1127    0.3544    1.6183 H   0  0  0  0  0  0  0  0  0  0  0  0
   -0.1077    2.6721   -1.8159 H   0  0  0  0  0  0  0  0  0  0  0  0
   -2.5291    2.2853   -1.2277 H   0  0  0  0  0  0  0  0  0  0  0  0
   -3.4556    0.9105    0.8484 N   0  0  0  0  0  0  0  0  0  0  0  0
   -3.6991    0.2511    1.8520 O   0  0  0  0  0  0  0  0  0  0  0  0
   -4.2863    1.4103    0.0958 O   0  0  0  0  0  0  0  0  0  0  0  0
    1.9060    1.7635   -0.4416 N   0  0  0  0  0  0  0  0  0  0  0  0
    2.9404    2.0380   -0.7491 N   0  0  0  0  0  0  0  0  0  0  0  0
    3.4359   -0.5436    0.6173 B   0  0  0  0  0  0  0  0  0  0  0  0
    2.2803   -0.7312   -0.1990 F   0  0  0  0  0  0  0  0  0  0  0  0
    3.9979   -1.7323    0.9820 F   0  0  0  0  0  0  0  0  0  0  0  0
    4.3305    0.2745   -0.1171 F   0  0  0  0  0  0  0  0  0  0  0  0
    3.0063    0.2129    1.7505 F   0  0  0  0  0  0  0  0  0  0  0  0
  1  7  1  0  0  0  0
  2  1  1  0  0  0  0
  2  8  1  0  0  0  0
  3  2  2  0  0  0  0
  4  5  2  0  0  0  0
  4  3  1  0  0  0  0
  5  6  1  0  0  0  0
  6 11  1  0  0  0  0
  6  1  2  0  0  0  0
  9  4  1  0  0  0  0
 10  5  1  0  0  0  0
 11 12  2  0  0  0  0
 13 11  2  0  0  0  0
 14  3  1  0  0  0  0
 15 14  1  0  0  0  0
 16 18  1  0  0  0  0
 16 20  1  0  0  0  0
 17 16  1  0  0  0  0
 19 16  1  0  0  0  0
M  RAD  2  14   2  15   3
M  END
