Coordinates from ORCA-job p-NO2-Ph-N2-X-BF4-B3LYPG-6-31G_dp-scan-d09-49-n400
 OpenBabel08281821043D

 20 19  0  0  0  0  0  0  0  0999 V2000
   -1.0212    0.5938    1.3109 C   0  0  0  0  0  0  0  0  0  0  0  0
    0.3137    0.7691    0.9564 C   0  0  0  0  0  0  0  0  0  0  0  0
    0.5611    1.5200   -0.2016 C   0  0  0  0  0  0  0  0  0  0  0  0
   -0.4360    2.0875   -1.0129 C   0  0  0  0  0  0  0  0  0  0  0  0
   -1.7572    1.8857   -0.6435 C   0  0  0  0  0  0  0  0  0  0  0  0
   -2.0185    1.1466    0.5116 C   0  0  0  0  0  0  0  0  0  0  0  0
   -1.2931    0.0281    2.1933 H   0  0  0  0  0  0  0  0  0  0  0  0
    1.1469    0.3513    1.5240 H   0  0  0  0  0  0  0  0  0  0  0  0
   -0.1770    2.6552   -1.8991 H   0  0  0  0  0  0  0  0  0  0  0  0
   -2.5785    2.2866   -1.2225 H   0  0  0  0  0  0  0  0  0  0  0  0
   -3.4370    0.9451    0.9040 N   0  0  0  0  0  0  0  0  0  0  0  0
   -3.6479    0.2999    1.9240 O   0  0  0  0  0  0  0  0  0  0  0  0
   -4.2910    1.4431    0.1768 O   0  0  0  0  0  0  0  0  0  0  0  0
    1.8805    1.7627   -0.5709 N   0  0  0  0  0  0  0  0  0  0  0  0
    2.9282    2.0158   -0.8516 N   0  0  0  0  0  0  0  0  0  0  0  0
    3.4394   -0.5699    0.7154 B   0  0  0  0  0  0  0  0  0  0  0  0
    2.3693   -0.6793   -0.2260 F   0  0  0  0  0  0  0  0  0  0  0  0
    4.1426   -1.7361    0.8094 F   0  0  0  0  0  0  0  0  0  0  0  0
    4.2592    0.5082    0.2777 F   0  0  0  0  0  0  0  0  0  0  0  0
    2.8597   -0.1947    1.9575 F   0  0  0  0  0  0  0  0  0  0  0  0
  1  7  1  0  0  0  0
  2  1  1  0  0  0  0
  2  8  1  0  0  0  0
  3  2  2  0  0  0  0
  4  5  2  0  0  0  0
  4  3  1  0  0  0  0
  5  6  1  0  0  0  0
  6 11  1  0  0  0  0
  6  1  2  0  0  0  0
  9  4  1  0  0  0  0
 10  5  1  0  0  0  0
 11 12  2  0  0  0  0
 13 11  2  0  0  0  0
 14  3  1  0  0  0  0
 15 14  1  0  0  0  0
 16 18  1  0  0  0  0
 16 20  1  0  0  0  0
 17 16  1  0  0  0  0
 19 16  1  0  0  0  0
M  RAD  2  14   2  15   3
M  END
