Coordinates from ORCA-job p-NO2-Ph-N2-X-BF4-B3LYPG-6-31G_dp-scan-d09-49-n400
 OpenBabel08281821043D

 20 19  0  0  0  0  0  0  0  0999 V2000
   -1.3160    1.3895    1.8682 C   0  0  0  0  0  0  0  0  0  0  0  0
    0.0485    1.6398    1.8339 C   0  0  0  0  0  0  0  0  0  0  0  0
    0.6935    1.5477    0.5958 C   0  0  0  0  0  0  0  0  0  0  0  0
    0.0705    1.1932   -0.6053 C   0  0  0  0  0  0  0  0  0  0  0  0
   -1.2990    0.9660   -0.5517 C   0  0  0  0  0  0  0  0  0  0  0  0
   -1.9602    1.0743    0.6716 C   0  0  0  0  0  0  0  0  0  0  0  0
   -1.8824    1.4323    2.7897 H   0  0  0  0  0  0  0  0  0  0  0  0
    0.6313    1.8633    2.7189 H   0  0  0  0  0  0  0  0  0  0  0  0
    0.6760    1.0594   -1.4944 H   0  0  0  0  0  0  0  0  0  0  0  0
   -1.8562    0.6870   -1.4369 H   0  0  0  0  0  0  0  0  0  0  0  0
   -3.4226    0.8280    0.7089 N   0  0  0  0  0  0  0  0  0  0  0  0
   -3.9744    0.9107    1.8019 O   0  0  0  0  0  0  0  0  0  0  0  0
   -3.9727    0.5652   -0.3547 O   0  0  0  0  0  0  0  0  0  0  0  0
    2.0503    1.8534    0.6085 N   0  0  0  0  0  0  0  0  0  0  0  0
    3.1192    2.1419    0.7075 N   0  0  0  0  0  0  0  0  0  0  0  0
    3.1471   -0.4498   -0.6636 B   0  0  0  0  0  0  0  0  0  0  0  0
    2.6552    0.5357   -1.5847 F   0  0  0  0  0  0  0  0  0  0  0  0
    3.5736   -1.5726   -1.3092 F   0  0  0  0  0  0  0  0  0  0  0  0
    4.1782    0.1701    0.0880 F   0  0  0  0  0  0  0  0  0  0  0  0
    2.0832   -0.7163    0.2405 F   0  0  0  0  0  0  0  0  0  0  0  0
  1  7  1  0  0  0  0
  2  1  1  0  0  0  0
  2  8  1  0  0  0  0
  3 14  1  0  0  0  0
  3  2  2  0  0  0  0
  4  5  2  0  0  0  0
  4  3  1  0  0  0  0
  5  6  1  0  0  0  0
  6 11  1  0  0  0  0
  6  1  2  0  0  0  0
  9  4  1  0  0  0  0
 10  5  1  0  0  0  0
 11 12  2  0  0  0  0
 13 11  2  0  0  0  0
 14 15  1  0  0  0  0
 16 19  1  0  0  0  0
 16 20  1  0  0  0  0
 17 16  1  0  0  0  0
 18 16  1  0  0  0  0
M  RAD  2  14   2  15   3
M  END
