Coordinates from ORCA-job p-NO2-Ph-N2-X-BF4-B3LYPG-6-31G_dp-scan-d09-49-n400
 OpenBabel08281821043D

 20 19  0  0  0  0  0  0  0  0999 V2000
   -0.8625    0.8105    1.4473 C   0  0  0  0  0  0  0  0  0  0  0  0
    0.4612    1.0257    1.0758 C   0  0  0  0  0  0  0  0  0  0  0  0
    0.6762    1.5901   -0.1880 C   0  0  0  0  0  0  0  0  0  0  0  0
   -0.3460    1.9407   -1.0878 C   0  0  0  0  0  0  0  0  0  0  0  0
   -1.6546    1.7113   -0.6940 C   0  0  0  0  0  0  0  0  0  0  0  0
   -1.8829    1.1560    0.5665 C   0  0  0  0  0  0  0  0  0  0  0  0
   -1.1041    0.3667    2.4046 H   0  0  0  0  0  0  0  0  0  0  0  0
    1.2993    0.7350    1.6962 H   0  0  0  0  0  0  0  0  0  0  0  0
   -0.1136    2.3666   -2.0567 H   0  0  0  0  0  0  0  0  0  0  0  0
   -2.4924    1.9514   -1.3355 H   0  0  0  0  0  0  0  0  0  0  0  0
   -3.2896    0.9215    0.9808 N   0  0  0  0  0  0  0  0  0  0  0  0
   -3.4713    0.4485    2.0961 O   0  0  0  0  0  0  0  0  0  0  0  0
   -4.1640    1.2239    0.1744 O   0  0  0  0  0  0  0  0  0  0  0  0
    1.9732    1.8792   -0.6026 N   0  0  0  0  0  0  0  0  0  0  0  0
    2.9515    2.2241   -0.9950 N   0  0  0  0  0  0  0  0  0  0  0  0
    3.0788   -0.6900    0.6354 B   0  0  0  0  0  0  0  0  0  0  0  0
    2.4839   -0.5190   -0.6548 F   0  0  0  0  0  0  0  0  0  0  0  0
    4.2292   -1.4250    0.5610 F   0  0  0  0  0  0  0  0  0  0  0  0
    3.3487    0.6459    1.1111 F   0  0  0  0  0  0  0  0  0  0  0  0
    2.1220   -1.2442    1.4981 F   0  0  0  0  0  0  0  0  0  0  0  0
  1  7  1  0  0  0  0
  2  1  1  0  0  0  0
  2  8  1  0  0  0  0
  3  2  2  0  0  0  0
  4  5  2  0  0  0  0
  4  3  1  0  0  0  0
  5  6  1  0  0  0  0
  6 11  1  0  0  0  0
  6  1  2  0  0  0  0
  9  4  1  0  0  0  0
 10  5  1  0  0  0  0
 11 12  2  0  0  0  0
 13 11  2  0  0  0  0
 14  3  1  0  0  0  0
 15 14  1  0  0  0  0
 16 19  1  0  0  0  0
 16 20  1  0  0  0  0
 17 16  1  0  0  0  0
 18 16  1  0  0  0  0
M  RAD  2  14   2  15   3
M  END
