Coordinates from ORCA-job p-NO2-Ph-N2-X-BF4-B3LYPG-6-31G_dp-scan-d09-49-n400
 OpenBabel08281821043D

 20 19  0  0  0  0  0  0  0  0999 V2000
   -1.0197    0.5930    1.3091 C   0  0  0  0  0  0  0  0  0  0  0  0
    0.3150    0.7682    0.9533 C   0  0  0  0  0  0  0  0  0  0  0  0
    0.5610    1.5199   -0.2045 C   0  0  0  0  0  0  0  0  0  0  0  0
   -0.4369    2.0883   -1.0141 C   0  0  0  0  0  0  0  0  0  0  0  0
   -1.7577    1.8869   -0.6432 C   0  0  0  0  0  0  0  0  0  0  0  0
   -2.0178    1.1468    0.5116 C   0  0  0  0  0  0  0  0  0  0  0  0
   -1.2907    0.0267    2.1914 H   0  0  0  0  0  0  0  0  0  0  0  0
    1.1484    0.3495    1.5204 H   0  0  0  0  0  0  0  0  0  0  0  0
   -0.1787    2.6567   -1.9002 H   0  0  0  0  0  0  0  0  0  0  0  0
   -2.5795    2.2887   -1.2209 H   0  0  0  0  0  0  0  0  0  0  0  0
   -3.4359    0.9456    0.9057 N   0  0  0  0  0  0  0  0  0  0  0  0
   -3.6457    0.2998    1.9254 O   0  0  0  0  0  0  0  0  0  0  0  0
   -4.2906    1.4446    0.1799 O   0  0  0  0  0  0  0  0  0  0  0  0
    1.8800    1.7618   -0.5755 N   0  0  0  0  0  0  0  0  0  0  0  0
    2.9278    2.0142   -0.8567 N   0  0  0  0  0  0  0  0  0  0  0  0
    3.4384   -0.5700    0.7186 B   0  0  0  0  0  0  0  0  0  0  0  0
    2.3712   -0.6803   -0.2261 F   0  0  0  0  0  0  0  0  0  0  0  0
    4.1459   -1.7335    0.8106 F   0  0  0  0  0  0  0  0  0  0  0  0
    4.2547    0.5132    0.2872 F   0  0  0  0  0  0  0  0  0  0  0  0
    2.8539   -0.2015    1.9609 F   0  0  0  0  0  0  0  0  0  0  0  0
  1  7  1  0  0  0  0
  2  1  1  0  0  0  0
  2  8  1  0  0  0  0
  3  2  2  0  0  0  0
  4  5  2  0  0  0  0
  4  3  1  0  0  0  0
  5  6  1  0  0  0  0
  6 11  1  0  0  0  0
  6  1  2  0  0  0  0
  9  4  1  0  0  0  0
 10  5  1  0  0  0  0
 11 12  2  0  0  0  0
 13 11  2  0  0  0  0
 14  3  1  0  0  0  0
 15 14  1  0  0  0  0
 16 18  1  0  0  0  0
 16 20  1  0  0  0  0
 17 16  1  0  0  0  0
 19 16  1  0  0  0  0
M  RAD  2  14   2  15   3
M  END
