Coordinates from ORCA-job p-NO2-Ph-N2-X-BF4-B3LYPG-6-31G_dp-scan-d09-49-n400
 OpenBabel08281821043D

 20 18  0  0  0  0  0  0  0  0999 V2000
   -0.4423    0.6083    0.8388 C   0  0  0  0  0  0  0  0  0  0  0  0
    0.7523    1.0954    0.2689 C   0  0  0  0  0  0  0  0  0  0  0  0
    0.5390    2.0905   -0.6985 C   0  0  0  0  0  0  0  0  0  0  0  0
   -0.6969    2.6309   -1.1365 C   0  0  0  0  0  0  0  0  0  0  0  0
   -1.8258    2.1174   -0.5387 C   0  0  0  0  0  0  0  0  0  0  0  0
   -1.6687    1.1154    0.4378 C   0  0  0  0  0  0  0  0  0  0  0  0
   -0.3822   -0.1751    1.5864 H   0  0  0  0  0  0  0  0  0  0  0  0
    1.9541    0.6226    0.6345 H   0  0  0  0  0  0  0  0  0  0  0  0
   -0.7496    3.4017   -1.8979 H   0  0  0  0  0  0  0  0  0  0  0  0
   -2.8188    2.4586   -0.7993 H   0  0  0  0  0  0  0  0  0  0  0  0
   -2.9098    0.5795    1.0628 N   0  0  0  0  0  0  0  0  0  0  0  0
   -2.7786   -0.2721    1.9311 O   0  0  0  0  0  0  0  0  0  0  0  0
   -3.9773    1.0359    0.6580 O   0  0  0  0  0  0  0  0  0  0  0  0
    1.6888    2.5853   -1.2888 N   0  0  0  0  0  0  0  0  0  0  0  0
    2.6357    2.9592   -1.7452 N   0  0  0  0  0  0  0  0  0  0  0  0
    2.7882   -1.2646    1.5071 B   0  0  0  0  0  0  0  0  0  0  0  0
    2.8341   -2.0607    0.4005 F   0  0  0  0  0  0  0  0  0  0  0  0
    3.8251   -1.3931    2.3721 F   0  0  0  0  0  0  0  0  0  0  0  0
    2.9325    0.2143    0.9296 F   0  0  0  0  0  0  0  0  0  0  0  0
    1.5431   -1.2304    2.1102 F   0  0  0  0  0  0  0  0  0  0  0  0
  1  7  1  0  0  0  0
  2  1  2  0  0  0  0
  3  2  1  0  0  0  0
  4  3  2  0  0  0  0
  4  5  1  0  0  0  0
  5  6  2  0  0  0  0
  6  1  1  0  0  0  0
  6 11  1  0  0  0  0
  8 19  1  0  0  0  0
  9  4  1  0  0  0  0
 10  5  1  0  0  0  0
 11 12  2  0  0  0  0
 13 11  2  0  0  0  0
 14  3  1  0  0  0  0
 15 14  1  0  0  0  0
 16 20  1  0  0  0  0
 16 18  1  0  0  0  0
 17 16  1  0  0  0  0
M  RAD  3   2   2  14   2  15   3
M  END
