Coordinates from ORCA-job p-NO2-Ph-N2-X-BF4-B3LYPG-6-31G_dp-scan-d09-49-n400
 OpenBabel08281821043D

 20 19  0  0  0  0  0  0  0  0999 V2000
   -0.4829    0.5846    0.8815 C   0  0  0  0  0  0  0  0  0  0  0  0
    0.7072    1.0598    0.3153 C   0  0  0  0  0  0  0  0  0  0  0  0
    0.5515    2.0516   -0.6642 C   0  0  0  0  0  0  0  0  0  0  0  0
   -0.6705    2.6038   -1.1165 C   0  0  0  0  0  0  0  0  0  0  0  0
   -1.8151    2.1118   -0.5254 C   0  0  0  0  0  0  0  0  0  0  0  0
   -1.6935    1.1146    0.4590 C   0  0  0  0  0  0  0  0  0  0  0  0
   -0.4230   -0.1994    1.6279 H   0  0  0  0  0  0  0  0  0  0  0  0
    1.7706    0.6636    0.6137 H   0  0  0  0  0  0  0  0  0  0  0  0
   -0.7033    3.3680   -1.8849 H   0  0  0  0  0  0  0  0  0  0  0  0
   -2.7986    2.4687   -0.8016 H   0  0  0  0  0  0  0  0  0  0  0  0
   -2.9529    0.6063    1.0705 N   0  0  0  0  0  0  0  0  0  0  0  0
   -2.8462   -0.2417    1.9447 O   0  0  0  0  0  0  0  0  0  0  0  0
   -4.0043    1.0821    0.6482 O   0  0  0  0  0  0  0  0  0  0  0  0
    1.7259    2.5030   -1.2346 N   0  0  0  0  0  0  0  0  0  0  0  0
    2.6924    2.8405   -1.6758 N   0  0  0  0  0  0  0  0  0  0  0  0
    2.8530   -1.1704    1.4202 B   0  0  0  0  0  0  0  0  0  0  0  0
    2.9747   -2.0397    0.3609 F   0  0  0  0  0  0  0  0  0  0  0  0
    3.8073   -1.3194    2.3892 F   0  0  0  0  0  0  0  0  0  0  0  0
    3.0017    0.2181    0.8537 F   0  0  0  0  0  0  0  0  0  0  0  0
    1.5491   -1.1872    1.9513 F   0  0  0  0  0  0  0  0  0  0  0  0
  1  7  1  0  0  0  0
  2  8  1  0  0  0  0
  2  1  2  0  0  0  0
  3  2  1  0  0  0  0
  4  3  2  0  0  0  0
  4  5  1  0  0  0  0
  5  6  2  0  0  0  0
  6  1  1  0  0  0  0
  6 11  1  0  0  0  0
  9  4  1  0  0  0  0
 10  5  1  0  0  0  0
 11 12  2  0  0  0  0
 13 11  2  0  0  0  0
 14  3  1  0  0  0  0
 15 14  1  0  0  0  0
 16 20  1  0  0  0  0
 16 18  1  0  0  0  0
 17 16  1  0  0  0  0
 19 16  1  0  0  0  0
M  RAD  2  14   2  15   3
M  END
