Coordinates from ORCA-job p-NO2-Ph-N2-X-BF4-B3LYPG-6-31G_dp-scan-d09-49-n400
 OpenBabel08281821043D

 20 19  0  0  0  0  0  0  0  0999 V2000
   -0.8482    0.8513    1.4816 C   0  0  0  0  0  0  0  0  0  0  0  0
    0.4755    1.0779    1.1167 C   0  0  0  0  0  0  0  0  0  0  0  0
    0.6955    1.6048   -0.1622 C   0  0  0  0  0  0  0  0  0  0  0  0
   -0.3220    1.9026   -1.0862 C   0  0  0  0  0  0  0  0  0  0  0  0
   -1.6302    1.6610   -0.6996 C   0  0  0  0  0  0  0  0  0  0  0  0
   -1.8635    1.1468    0.5776 C   0  0  0  0  0  0  0  0  0  0  0  0
   -1.0936    0.4372    2.4511 H   0  0  0  0  0  0  0  0  0  0  0  0
    1.3167    0.8303    1.7506 H   0  0  0  0  0  0  0  0  0  0  0  0
   -0.0856    2.2991   -2.0665 H   0  0  0  0  0  0  0  0  0  0  0  0
   -2.4645    1.8619   -1.3588 H   0  0  0  0  0  0  0  0  0  0  0  0
   -3.2706    0.9040    0.9853 N   0  0  0  0  0  0  0  0  0  0  0  0
   -3.4575    0.4731    2.1167 O   0  0  0  0  0  0  0  0  0  0  0  0
   -4.1406    1.1589    0.1580 O   0  0  0  0  0  0  0  0  0  0  0  0
    1.9915    1.9147   -0.5654 N   0  0  0  0  0  0  0  0  0  0  0  0
    2.9602    2.2897   -0.9547 N   0  0  0  0  0  0  0  0  0  0  0  0
    3.0195   -0.7044    0.5825 B   0  0  0  0  0  0  0  0  0  0  0  0
    2.5205   -0.4614   -0.7354 F   0  0  0  0  0  0  0  0  0  0  0  0
    4.1597   -1.4581    0.5537 F   0  0  0  0  0  0  0  0  0  0  0  0
    3.2846    0.6047    1.1396 F   0  0  0  0  0  0  0  0  0  0  0  0
    1.9954   -1.2754    1.3481 F   0  0  0  0  0  0  0  0  0  0  0  0
  1  7  1  0  0  0  0
  2  1  1  0  0  0  0
  2  8  1  0  0  0  0
  3  2  2  0  0  0  0
  4  5  2  0  0  0  0
  4  3  1  0  0  0  0
  5  6  1  0  0  0  0
  6 11  1  0  0  0  0
  6  1  2  0  0  0  0
  9  4  1  0  0  0  0
 10  5  1  0  0  0  0
 11 12  2  0  0  0  0
 13 11  2  0  0  0  0
 14  3  1  0  0  0  0
 15 14  1  0  0  0  0
 16 19  1  0  0  0  0
 16 20  1  0  0  0  0
 17 16  1  0  0  0  0
 18 16  1  0  0  0  0
M  RAD  2  14   2  15   3
M  END
