Coordinates from ORCA-job p-NO2-Ph-N2-X-BF4-B3LYPG-6-31G_dp-scan-d09-49-n400
 OpenBabel08281821043D

 20 19  0  0  0  0  0  0  0  0999 V2000
   -0.9073    0.6765    1.3347 C   0  0  0  0  0  0  0  0  0  0  0  0
    0.4147    0.8416    0.9293 C   0  0  0  0  0  0  0  0  0  0  0  0
    0.6159    1.5214   -0.2801 C   0  0  0  0  0  0  0  0  0  0  0  0
   -0.4150    2.0309   -1.0903 C   0  0  0  0  0  0  0  0  0  0  0  0
   -1.7205    1.8482   -0.6628 C   0  0  0  0  0  0  0  0  0  0  0  0
   -1.9361    1.1776    0.5426 C   0  0  0  0  0  0  0  0  0  0  0  0
   -1.1404    0.1541    2.2539 H   0  0  0  0  0  0  0  0  0  0  0  0
    1.2446    0.4305    1.4990 H   0  0  0  0  0  0  0  0  0  0  0  0
   -0.1916    2.5419   -2.0196 H   0  0  0  0  0  0  0  0  0  0  0  0
   -2.5638    2.2093   -1.2364 H   0  0  0  0  0  0  0  0  0  0  0  0
   -3.3389    0.9896    0.9945 N   0  0  0  0  0  0  0  0  0  0  0  0
   -3.5089    0.4089    2.0594 O   0  0  0  0  0  0  0  0  0  0  0  0
   -4.2208    1.4339    0.2657 O   0  0  0  0  0  0  0  0  0  0  0  0
    1.9119    1.7520   -0.7273 N   0  0  0  0  0  0  0  0  0  0  0  0
    2.9260    2.0092   -1.0952 N   0  0  0  0  0  0  0  0  0  0  0  0
    3.2497   -0.6179    0.7783 B   0  0  0  0  0  0  0  0  0  0  0  0
    2.5306   -0.6529   -0.4574 F   0  0  0  0  0  0  0  0  0  0  0  0
    4.4268   -1.3065    0.6954 F   0  0  0  0  0  0  0  0  0  0  0  0
    3.4690    0.7726    1.0574 F   0  0  0  0  0  0  0  0  0  0  0  0
    2.3970   -1.1022    1.7917 F   0  0  0  0  0  0  0  0  0  0  0  0
  1  7  1  0  0  0  0
  2  1  1  0  0  0  0
  2  8  1  0  0  0  0
  3  2  2  0  0  0  0
  4  5  2  0  0  0  0
  4  3  1  0  0  0  0
  5  6  1  0  0  0  0
  6 11  1  0  0  0  0
  6  1  2  0  0  0  0
  9  4  1  0  0  0  0
 10  5  1  0  0  0  0
 11 12  2  0  0  0  0
 13 11  2  0  0  0  0
 14  3  1  0  0  0  0
 15 14  1  0  0  0  0
 16 19  1  0  0  0  0
 16 20  1  0  0  0  0
 17 16  1  0  0  0  0
 18 16  1  0  0  0  0
M  RAD  2  14   2  15   3
M  END
