Coordinates from ORCA-job p-NO2-Ph-N2-X-BF4-B3LYPG-6-31G_dp-scan-d09-49-n400
 OpenBabel08281821043D

 20 19  0  0  0  0  0  0  0  0999 V2000
   -0.9628    0.6220    1.2880 C   0  0  0  0  0  0  0  0  0  0  0  0
    0.3603    0.7965    0.8893 C   0  0  0  0  0  0  0  0  0  0  0  0
    0.5657    1.5345   -0.2862 C   0  0  0  0  0  0  0  0  0  0  0  0
   -0.4591    2.0932   -1.0686 C   0  0  0  0  0  0  0  0  0  0  0  0
   -1.7663    1.8975   -0.6511 C   0  0  0  0  0  0  0  0  0  0  0  0
   -1.9870    1.1673    0.5185 C   0  0  0  0  0  0  0  0  0  0  0  0
   -1.2024    0.0612    2.1828 H   0  0  0  0  0  0  0  0  0  0  0  0
    1.2001    0.3676    1.4416 H   0  0  0  0  0  0  0  0  0  0  0  0
   -0.2302    2.6507   -1.9695 H   0  0  0  0  0  0  0  0  0  0  0  0
   -2.6075    2.2933   -1.2045 H   0  0  0  0  0  0  0  0  0  0  0  0
   -3.3918    0.9655    0.9587 N   0  0  0  0  0  0  0  0  0  0  0  0
   -3.5676    0.3230    1.9867 O   0  0  0  0  0  0  0  0  0  0  0  0
   -4.2698    1.4605    0.2584 O   0  0  0  0  0  0  0  0  0  0  0  0
    1.8716    1.7577   -0.7036 N   0  0  0  0  0  0  0  0  0  0  0  0
    2.9409    1.9307   -0.9603 N   0  0  0  0  0  0  0  0  0  0  0  0
    3.3786   -0.5970    0.7950 B   0  0  0  0  0  0  0  0  0  0  0  0
    2.4490   -0.7001   -0.2822 F   0  0  0  0  0  0  0  0  0  0  0  0
    4.3295   -1.5743    0.7359 F   0  0  0  0  0  0  0  0  0  0  0  0
    3.9577    0.7088    0.7035 F   0  0  0  0  0  0  0  0  0  0  0  0
    2.6341   -0.6399    2.0004 F   0  0  0  0  0  0  0  0  0  0  0  0
  1  7  1  0  0  0  0
  2  1  1  0  0  0  0
  2  8  1  0  0  0  0
  3  2  2  0  0  0  0
  4  5  2  0  0  0  0
  4  3  1  0  0  0  0
  5  6  1  0  0  0  0
  6 11  1  0  0  0  0
  6  1  2  0  0  0  0
  9  4  1  0  0  0  0
 10  5  1  0  0  0  0
 11 12  2  0  0  0  0
 13 11  2  0  0  0  0
 14  3  1  0  0  0  0
 15 14  1  0  0  0  0
 16 20  1  0  0  0  0
 17 16  1  0  0  0  0
 18 16  1  0  0  0  0
 19 16  1  0  0  0  0
M  RAD  2  14   2  15   3
M  END
