Coordinates from ORCA-job p-NO2-Ph-N2-X-BF4-B3LYPG-6-31G_dp-scan-d09-49-n400
 OpenBabel08281821043D

 20 19  0  0  0  0  0  0  0  0999 V2000
   -1.0995    0.6256    1.4257 C   0  0  0  0  0  0  0  0  0  0  0  0
    0.2558    0.8122    1.1761 C   0  0  0  0  0  0  0  0  0  0  0  0
    0.5942    1.5142    0.0119 C   0  0  0  0  0  0  0  0  0  0  0  0
   -0.3422    2.0199   -0.9039 C   0  0  0  0  0  0  0  0  0  0  0  0
   -1.6880    1.8074   -0.6402 C   0  0  0  0  0  0  0  0  0  0  0  0
   -2.0366    1.1189    0.5208 C   0  0  0  0  0  0  0  0  0  0  0  0
   -1.4356    0.0937    2.3068 H   0  0  0  0  0  0  0  0  0  0  0  0
    1.0297    0.4361    1.8336 H   0  0  0  0  0  0  0  0  0  0  0  0
   -0.0190    2.5480   -1.7935 H   0  0  0  0  0  0  0  0  0  0  0  0
   -2.4612    2.1632   -1.3083 H   0  0  0  0  0  0  0  0  0  0  0  0
   -3.4778    0.9041    0.8025 N   0  0  0  0  0  0  0  0  0  0  0  0
   -3.7619    0.3079    1.8349 O   0  0  0  0  0  0  0  0  0  0  0  0
   -4.2768    1.3434   -0.0188 O   0  0  0  0  0  0  0  0  0  0  0  0
    1.9320    1.7832   -0.2843 N   0  0  0  0  0  0  0  0  0  0  0  0
    2.9461    2.1309   -0.5795 N   0  0  0  0  0  0  0  0  0  0  0  0
    3.4460   -0.5385    0.4558 B   0  0  0  0  0  0  0  0  0  0  0  0
    2.2679   -0.6627   -0.3447 F   0  0  0  0  0  0  0  0  0  0  0  0
    3.9156   -1.7560    0.8564 F   0  0  0  0  0  0  0  0  0  0  0  0
    4.3933    0.1942   -0.2948 F   0  0  0  0  0  0  0  0  0  0  0  0
    3.0610    0.2728    1.5766 F   0  0  0  0  0  0  0  0  0  0  0  0
  1  7  1  0  0  0  0
  2  1  1  0  0  0  0
  2  8  1  0  0  0  0
  3  2  2  0  0  0  0
  4  5  2  0  0  0  0
  4  3  1  0  0  0  0
  5  6  1  0  0  0  0
  6 11  1  0  0  0  0
  6  1  2  0  0  0  0
  9  4  1  0  0  0  0
 10  5  1  0  0  0  0
 11 12  2  0  0  0  0
 13 11  2  0  0  0  0
 14  3  1  0  0  0  0
 15 14  1  0  0  0  0
 16 18  1  0  0  0  0
 16 20  1  0  0  0  0
 17 16  1  0  0  0  0
 19 16  1  0  0  0  0
M  RAD  2  14   2  15   3
M  END
