Coordinates from ORCA-job p-NO2-Ph-N2-X-BF4-B3LYPG-6-31G_dp-scan-d09-49-n400
 OpenBabel08281821043D

 20 19  0  0  0  0  0  0  0  0999 V2000
   -0.8194    0.8465    1.4675 C   0  0  0  0  0  0  0  0  0  0  0  0
    0.4972    1.0835    1.0836 C   0  0  0  0  0  0  0  0  0  0  0  0
    0.6930    1.6220   -0.1945 C   0  0  0  0  0  0  0  0  0  0  0  0
   -0.3370    1.9243   -1.1036 C   0  0  0  0  0  0  0  0  0  0  0  0
   -1.6369    1.6728   -0.6971 C   0  0  0  0  0  0  0  0  0  0  0  0
   -1.8480    1.1460    0.5802 C   0  0  0  0  0  0  0  0  0  0  0  0
   -1.0486    0.4216    2.4362 H   0  0  0  0  0  0  0  0  0  0  0  0
    1.3767    0.8423    1.6765 H   0  0  0  0  0  0  0  0  0  0  0  0
   -0.1176    2.3298   -2.0843 H   0  0  0  0  0  0  0  0  0  0  0  0
   -2.4833    1.8742   -1.3405 H   0  0  0  0  0  0  0  0  0  0  0  0
   -3.2486    0.8925    1.0049 N   0  0  0  0  0  0  0  0  0  0  0  0
   -3.4181    0.4539    2.1360 O   0  0  0  0  0  0  0  0  0  0  0  0
   -4.1311    1.1471    0.1907 O   0  0  0  0  0  0  0  0  0  0  0  0
    1.9881    1.9274   -0.5997 N   0  0  0  0  0  0  0  0  0  0  0  0
    2.9701    2.2808   -0.9757 N   0  0  0  0  0  0  0  0  0  0  0  0
    2.9837   -0.7191    0.6131 B   0  0  0  0  0  0  0  0  0  0  0  0
    2.5972   -0.4474   -0.7327 F   0  0  0  0  0  0  0  0  0  0  0  0
    4.1501   -1.4286    0.6689 F   0  0  0  0  0  0  0  0  0  0  0  0
    3.1567    0.5880    1.2309 F   0  0  0  0  0  0  0  0  0  0  0  0
    1.9188   -1.3389    1.2726 F   0  0  0  0  0  0  0  0  0  0  0  0
  1  7  1  0  0  0  0
  2  1  1  0  0  0  0
  2  8  1  0  0  0  0
  3  2  2  0  0  0  0
  4  5  2  0  0  0  0
  4  3  1  0  0  0  0
  5  6  1  0  0  0  0
  6 11  1  0  0  0  0
  6  1  2  0  0  0  0
  9  4  1  0  0  0  0
 10  5  1  0  0  0  0
 11 12  2  0  0  0  0
 13 11  2  0  0  0  0
 14  3  1  0  0  0  0
 15 14  1  0  0  0  0
 16 18  1  0  0  0  0
 16 19  1  0  0  0  0
 16 20  1  0  0  0  0
 17 16  1  0  0  0  0
M  RAD  2  14   2  15   3
M  END
