Coordinates from ORCA-job p-NO2-Ph-N2-X-BF4-B3LYPG-6-31G_dp-scan-d09-49-n400
 OpenBabel08281821043D

 20 19  0  0  0  0  0  0  0  0999 V2000
   -0.9109    0.6706    1.3241 C   0  0  0  0  0  0  0  0  0  0  0  0
    0.4098    0.8380    0.9153 C   0  0  0  0  0  0  0  0  0  0  0  0
    0.6064    1.5275   -0.2900 C   0  0  0  0  0  0  0  0  0  0  0  0
   -0.4264    2.0427   -1.0932 C   0  0  0  0  0  0  0  0  0  0  0  0
   -1.7306    1.8566   -0.6629 C   0  0  0  0  0  0  0  0  0  0  0  0
   -1.9421    1.1775    0.5385 C   0  0  0  0  0  0  0  0  0  0  0  0
   -1.1415    0.1420    2.2405 H   0  0  0  0  0  0  0  0  0  0  0  0
    1.2416    0.4217    1.4804 H   0  0  0  0  0  0  0  0  0  0  0  0
   -0.2055    2.5606   -2.0194 H   0  0  0  0  0  0  0  0  0  0  0  0
   -2.5760    2.2215   -1.2309 H   0  0  0  0  0  0  0  0  0  0  0  0
   -3.3435    0.9866    0.9937 N   0  0  0  0  0  0  0  0  0  0  0  0
   -3.5101    0.3996    2.0556 O   0  0  0  0  0  0  0  0  0  0  0  0
   -4.2278    1.4351    0.2703 O   0  0  0  0  0  0  0  0  0  0  0  0
    1.9034    1.7559   -0.7317 N   0  0  0  0  0  0  0  0  0  0  0  0
    2.9376    1.9859   -1.0610 N   0  0  0  0  0  0  0  0  0  0  0  0
    3.2664   -0.6174    0.7847 B   0  0  0  0  0  0  0  0  0  0  0  0
    2.5236   -0.6640   -0.4352 F   0  0  0  0  0  0  0  0  0  0  0  0
    4.4235   -1.3384    0.6989 F   0  0  0  0  0  0  0  0  0  0  0  0
    3.5247    0.7727    1.0291 F   0  0  0  0  0  0  0  0  0  0  0  0
    2.4203   -1.0560    1.8260 F   0  0  0  0  0  0  0  0  0  0  0  0
  1  7  1  0  0  0  0
  2  1  1  0  0  0  0
  2  8  1  0  0  0  0
  3  2  2  0  0  0  0
  4  5  2  0  0  0  0
  4  3  1  0  0  0  0
  5  6  1  0  0  0  0
  6 11  1  0  0  0  0
  6  1  2  0  0  0  0
  9  4  1  0  0  0  0
 10  5  1  0  0  0  0
 11 12  2  0  0  0  0
 13 11  2  0  0  0  0
 14  3  1  0  0  0  0
 15 14  1  0  0  0  0
 16 19  1  0  0  0  0
 16 20  1  0  0  0  0
 17 16  1  0  0  0  0
 18 16  1  0  0  0  0
M  RAD  2  14   2  15   3
M  END
