Coordinates from ORCA-job p-NO2-Ph-N2-X-BF4-B3LYPG-6-31G_dp-scan-d09-49-n400
 OpenBabel08281821043D

 20 19  0  0  0  0  0  0  0  0999 V2000
   -0.9265    0.6573    1.3044 C   0  0  0  0  0  0  0  0  0  0  0  0
    0.3928    0.8318    0.8939 C   0  0  0  0  0  0  0  0  0  0  0  0
    0.5848    1.5421   -0.3009 C   0  0  0  0  0  0  0  0  0  0  0  0
   -0.4495    2.0690   -1.0927 C   0  0  0  0  0  0  0  0  0  0  0  0
   -1.7526    1.8738   -0.6623 C   0  0  0  0  0  0  0  0  0  0  0  0
   -1.9600    1.1756    0.5288 C   0  0  0  0  0  0  0  0  0  0  0  0
   -1.1547    0.1158    2.2138 H   0  0  0  0  0  0  0  0  0  0  0  0
    1.2286    0.4086    1.4521 H   0  0  0  0  0  0  0  0  0  0  0  0
   -0.2307    2.6023   -2.0106 H   0  0  0  0  0  0  0  0  0  0  0  0
   -2.6004    2.2461   -1.2220 H   0  0  0  0  0  0  0  0  0  0  0  0
   -3.3600    0.9769    0.9851 N   0  0  0  0  0  0  0  0  0  0  0  0
   -3.5231    0.3747    2.0393 O   0  0  0  0  0  0  0  0  0  0  0  0
   -4.2469    1.4351    0.2712 O   0  0  0  0  0  0  0  0  0  0  0  0
    1.8857    1.7679   -0.7298 N   0  0  0  0  0  0  0  0  0  0  0  0
    2.9555    1.9344   -0.9813 N   0  0  0  0  0  0  0  0  0  0  0  0
    3.3118   -0.6167    0.7909 B   0  0  0  0  0  0  0  0  0  0  0  0
    2.5018   -0.6861   -0.3803 F   0  0  0  0  0  0  0  0  0  0  0  0
    4.4021   -1.4340    0.7038 F   0  0  0  0  0  0  0  0  0  0  0  0
    3.6927    0.7612    0.9263 F   0  0  0  0  0  0  0  0  0  0  0  0
    2.4916   -0.9171    1.9031 F   0  0  0  0  0  0  0  0  0  0  0  0
  1  7  1  0  0  0  0
  2  1  1  0  0  0  0
  2  8  1  0  0  0  0
  3  2  2  0  0  0  0
  4  5  2  0  0  0  0
  4  3  1  0  0  0  0
  5  6  1  0  0  0  0
  6 11  1  0  0  0  0
  6  1  2  0  0  0  0
  9  4  1  0  0  0  0
 10  5  1  0  0  0  0
 11 12  2  0  0  0  0
 13 11  2  0  0  0  0
 14  3  1  0  0  0  0
 15 14  1  0  0  0  0
 16 19  1  0  0  0  0
 16 20  1  0  0  0  0
 17 16  1  0  0  0  0
 18 16  1  0  0  0  0
M  RAD  2  14   2  15   3
M  END
