Coordinates from ORCA-job p-NO2-Ph-N2-X-BF4-B3LYPG-6-31G_dp-scan-d09-49-n400
 OpenBabel08281821043D

 20 19  0  0  0  0  0  0  0  0999 V2000
   -1.1335    0.7626    1.5579 C   0  0  0  0  0  0  0  0  0  0  0  0
    0.2286    0.9823    1.3854 C   0  0  0  0  0  0  0  0  0  0  0  0
    0.6306    1.5513    0.1697 C   0  0  0  0  0  0  0  0  0  0  0  0
   -0.2528    1.8993   -0.8629 C   0  0  0  0  0  0  0  0  0  0  0  0
   -1.6063    1.6593   -0.6717 C   0  0  0  0  0  0  0  0  0  0  0  0
   -2.0180    1.1001    0.5361 C   0  0  0  0  0  0  0  0  0  0  0  0
   -1.5151    0.3234    2.4709 H   0  0  0  0  0  0  0  0  0  0  0  0
    0.9425    0.7078    2.1498 H   0  0  0  0  0  0  0  0  0  0  0  0
    0.1184    2.3275   -1.7864 H   0  0  0  0  0  0  0  0  0  0  0  0
   -2.3376    1.8977   -1.4331 H   0  0  0  0  0  0  0  0  0  0  0  0
   -3.4664    0.8550    0.7404 N   0  0  0  0  0  0  0  0  0  0  0  0
   -3.8043    0.3686    1.8137 O   0  0  0  0  0  0  0  0  0  0  0  0
   -4.2179    1.1614   -0.1798 O   0  0  0  0  0  0  0  0  0  0  0  0
    1.9713    1.8723   -0.0610 N   0  0  0  0  0  0  0  0  0  0  0  0
    2.9802    2.2714   -0.2988 N   0  0  0  0  0  0  0  0  0  0  0  0
    3.3739   -0.5652    0.2202 B   0  0  0  0  0  0  0  0  0  0  0  0
    2.1995   -0.5217   -0.5963 F   0  0  0  0  0  0  0  0  0  0  0  0
    3.7487   -1.8487    0.4978 F   0  0  0  0  0  0  0  0  0  0  0  0
    4.3797    0.1692   -0.4424 F   0  0  0  0  0  0  0  0  0  0  0  0
    3.0215    0.1450    1.4236 F   0  0  0  0  0  0  0  0  0  0  0  0
  1  7  1  0  0  0  0
  2  1  1  0  0  0  0
  2  8  1  0  0  0  0
  3  2  2  0  0  0  0
  4  5  2  0  0  0  0
  4  3  1  0  0  0  0
  5  6  1  0  0  0  0
  6 11  1  0  0  0  0
  6  1  2  0  0  0  0
  9  4  1  0  0  0  0
 10  5  1  0  0  0  0
 11 12  2  0  0  0  0
 13 11  2  0  0  0  0
 14  3  1  0  0  0  0
 15 14  1  0  0  0  0
 16 18  1  0  0  0  0
 16 20  1  0  0  0  0
 17 16  1  0  0  0  0
 19 16  1  0  0  0  0
M  RAD  2  14   2  15   3
M  END
