Coordinates from ORCA-job p-NO2-Ph-N2-X-BF4-B3LYPG-6-31G_dp-scan-d09-49-n400
 OpenBabel08281821043D

 20 19  0  0  0  0  0  0  0  0999 V2000
   -0.9535    0.6327    1.2925 C   0  0  0  0  0  0  0  0  0  0  0  0
    0.3685    0.8100    0.8916 C   0  0  0  0  0  0  0  0  0  0  0  0
    0.5698    1.5409   -0.2890 C   0  0  0  0  0  0  0  0  0  0  0  0
   -0.4577    2.0894   -1.0747 C   0  0  0  0  0  0  0  0  0  0  0  0
   -1.7639    1.8914   -0.6547 C   0  0  0  0  0  0  0  0  0  0  0  0
   -1.9805    1.1689    0.5203 C   0  0  0  0  0  0  0  0  0  0  0  0
   -1.1897    0.0767    2.1911 H   0  0  0  0  0  0  0  0  0  0  0  0
    1.2083    0.3848    1.4461 H   0  0  0  0  0  0  0  0  0  0  0  0
   -0.2319    2.6409   -1.9801 H   0  0  0  0  0  0  0  0  0  0  0  0
   -2.6072    2.2795   -1.2104 H   0  0  0  0  0  0  0  0  0  0  0  0
   -3.3841    0.9649    0.9634 N   0  0  0  0  0  0  0  0  0  0  0  0
   -3.5562    0.3324    1.9983 O   0  0  0  0  0  0  0  0  0  0  0  0
   -4.2648    1.4482    0.2585 O   0  0  0  0  0  0  0  0  0  0  0  0
    1.8747    1.7644   -0.7088 N   0  0  0  0  0  0  0  0  0  0  0  0
    2.9463    1.9298   -0.9597 N   0  0  0  0  0  0  0  0  0  0  0  0
    3.3620   -0.6047    0.7933 B   0  0  0  0  0  0  0  0  0  0  0  0
    2.4537   -0.6977   -0.3020 F   0  0  0  0  0  0  0  0  0  0  0  0
    4.3420   -1.5519    0.7193 F   0  0  0  0  0  0  0  0  0  0  0  0
    3.9052    0.7206    0.7529 F   0  0  0  0  0  0  0  0  0  0  0  0
    2.6021   -0.7026    1.9851 F   0  0  0  0  0  0  0  0  0  0  0  0
  1  7  1  0  0  0  0
  2  1  1  0  0  0  0
  2  8  1  0  0  0  0
  3  2  2  0  0  0  0
  4  5  2  0  0  0  0
  4  3  1  0  0  0  0
  5  6  1  0  0  0  0
  6 11  1  0  0  0  0
  6  1  2  0  0  0  0
  9  4  1  0  0  0  0
 10  5  1  0  0  0  0
 11 12  2  0  0  0  0
 13 11  2  0  0  0  0
 14  3  1  0  0  0  0
 15 14  1  0  0  0  0
 16 20  1  0  0  0  0
 17 16  1  0  0  0  0
 18 16  1  0  0  0  0
 19 16  1  0  0  0  0
M  RAD  2  14   2  15   3
M  END
