Coordinates from ORCA-job p-NO2-Ph-N2-X-BF4-B3LYPG-6-31G_dp-scan-d09-49-n400
 OpenBabel08281821043D

 20 19  0  0  0  0  0  0  0  0999 V2000
   -0.8093    0.8413    1.4575 C   0  0  0  0  0  0  0  0  0  0  0  0
    0.5046    1.0812    1.0653 C   0  0  0  0  0  0  0  0  0  0  0  0
    0.6889    1.6284   -0.2110 C   0  0  0  0  0  0  0  0  0  0  0  0
   -0.3470    1.9387   -1.1110 C   0  0  0  0  0  0  0  0  0  0  0  0
   -1.6432    1.6846   -0.6953 C   0  0  0  0  0  0  0  0  0  0  0  0
   -1.8441    1.1474    0.5799 C   0  0  0  0  0  0  0  0  0  0  0  0
   -1.0313    0.4083    2.4244 H   0  0  0  0  0  0  0  0  0  0  0  0
    1.4004    0.8375    1.6402 H   0  0  0  0  0  0  0  0  0  0  0  0
   -0.1352    2.3515   -2.0903 H   0  0  0  0  0  0  0  0  0  0  0  0
   -2.4950    1.8907   -1.3301 H   0  0  0  0  0  0  0  0  0  0  0  0
   -3.2418    0.8888    1.0118 N   0  0  0  0  0  0  0  0  0  0  0  0
   -3.4035    0.4407    2.1403 O   0  0  0  0  0  0  0  0  0  0  0  0
   -4.1301    1.1490    0.2056 O   0  0  0  0  0  0  0  0  0  0  0  0
    1.9836    1.9290   -0.6197 N   0  0  0  0  0  0  0  0  0  0  0  0
    2.9710    2.2711   -0.9923 N   0  0  0  0  0  0  0  0  0  0  0  0
    2.9773   -0.7258    0.6326 B   0  0  0  0  0  0  0  0  0  0  0  0
    2.6253   -0.4472   -0.7196 F   0  0  0  0  0  0  0  0  0  0  0  0
    4.1534   -1.4154    0.7179 F   0  0  0  0  0  0  0  0  0  0  0  0
    3.1139    0.5823    1.2669 F   0  0  0  0  0  0  0  0  0  0  0  0
    1.9051   -1.3633    1.2599 F   0  0  0  0  0  0  0  0  0  0  0  0
  1  7  1  0  0  0  0
  2  1  1  0  0  0  0
  2  8  1  0  0  0  0
  3  2  2  0  0  0  0
  4  5  2  0  0  0  0
  4  3  1  0  0  0  0
  5  6  1  0  0  0  0
  6 11  1  0  0  0  0
  6  1  2  0  0  0  0
  9  4  1  0  0  0  0
 10  5  1  0  0  0  0
 11 12  2  0  0  0  0
 13 11  2  0  0  0  0
 14  3  1  0  0  0  0
 15 14  1  0  0  0  0
 16 18  1  0  0  0  0
 16 20  1  0  0  0  0
 16 19  1  0  0  0  0
 17 16  1  0  0  0  0
M  RAD  2  14   2  15   3
M  END
