Coordinates from ORCA-job p-NO2-Ph-N2-X-BF4-B3LYPG-6-31G_dp-scan-d09-49-n400
 OpenBabel08281821043D

 20 19  0  0  0  0  0  0  0  0999 V2000
   -1.1103    0.6680    1.4695 C   0  0  0  0  0  0  0  0  0  0  0  0
    0.2477    0.8656    1.2457 C   0  0  0  0  0  0  0  0  0  0  0  0
    0.6055    1.5279    0.0640 C   0  0  0  0  0  0  0  0  0  0  0  0
   -0.3160    1.9845   -0.8913 C   0  0  0  0  0  0  0  0  0  0  0  0
   -1.6650    1.7623   -0.6520 C   0  0  0  0  0  0  0  0  0  0  0  0
   -2.0326    1.1131    0.5251 C   0  0  0  0  0  0  0  0  0  0  0  0
   -1.4599    0.1637    2.3615 H   0  0  0  0  0  0  0  0  0  0  0  0
    1.0027    0.5177    1.9385 H   0  0  0  0  0  0  0  0  0  0  0  0
    0.0213    2.4828   -1.7926 H   0  0  0  0  0  0  0  0  0  0  0  0
   -2.4261    2.0816   -1.3518 H   0  0  0  0  0  0  0  0  0  0  0  0
   -3.4766    0.8876    0.7813 N   0  0  0  0  0  0  0  0  0  0  0  0
   -3.7765    0.3250    1.8281 O   0  0  0  0  0  0  0  0  0  0  0  0
   -4.2621    1.2853   -0.0734 O   0  0  0  0  0  0  0  0  0  0  0  0
    1.9449    1.8145   -0.2114 N   0  0  0  0  0  0  0  0  0  0  0  0
    2.9564    2.1805   -0.4910 N   0  0  0  0  0  0  0  0  0  0  0  0
    3.4275   -0.5493    0.3801 B   0  0  0  0  0  0  0  0  0  0  0  0
    2.2460   -0.6177   -0.4234 F   0  0  0  0  0  0  0  0  0  0  0  0
    3.8584   -1.7902    0.7516 F   0  0  0  0  0  0  0  0  0  0  0  0
    4.3972    0.1732   -0.3495 F   0  0  0  0  0  0  0  0  0  0  0  0
    3.0605    0.2424    1.5240 F   0  0  0  0  0  0  0  0  0  0  0  0
  1  7  1  0  0  0  0
  2  1  1  0  0  0  0
  2  8  1  0  0  0  0
  3  2  2  0  0  0  0
  4  5  2  0  0  0  0
  4  3  1  0  0  0  0
  5  6  1  0  0  0  0
  6 11  1  0  0  0  0
  6  1  2  0  0  0  0
  9  4  1  0  0  0  0
 10  5  1  0  0  0  0
 11 12  2  0  0  0  0
 13 11  2  0  0  0  0
 14  3  1  0  0  0  0
 15 14  1  0  0  0  0
 16 18  1  0  0  0  0
 16 20  1  0  0  0  0
 17 16  1  0  0  0  0
 19 16  1  0  0  0  0
M  RAD  2  14   2  15   3
M  END
