Coordinates from ORCA-job p-NO2-Ph-N2-X-BF4-B3LYPG-6-31G_dp-scan-d09-49-n400
 OpenBabel08281821043D

 20 19  0  0  0  0  0  0  0  0999 V2000
   -1.3224    1.4000    1.8699 C   0  0  0  0  0  0  0  0  0  0  0  0
    0.0427    1.6479    1.8399 C   0  0  0  0  0  0  0  0  0  0  0  0
    0.6933    1.5436    0.6060 C   0  0  0  0  0  0  0  0  0  0  0  0
    0.0747    1.1812   -0.5950 C   0  0  0  0  0  0  0  0  0  0  0  0
   -1.2955    0.9564   -0.5460 C   0  0  0  0  0  0  0  0  0  0  0  0
   -1.9619    1.0753    0.6734 C   0  0  0  0  0  0  0  0  0  0  0  0
   -1.8927    1.4522    2.7885 H   0  0  0  0  0  0  0  0  0  0  0  0
    0.6190    1.8808    2.7267 H   0  0  0  0  0  0  0  0  0  0  0  0
    0.6839    1.0412   -1.4810 H   0  0  0  0  0  0  0  0  0  0  0  0
   -1.8489    0.6715   -1.4317 H   0  0  0  0  0  0  0  0  0  0  0  0
   -3.4248    0.8311    0.7066 N   0  0  0  0  0  0  0  0  0  0  0  0
   -3.9806    0.9214    1.7969 O   0  0  0  0  0  0  0  0  0  0  0  0
   -3.9703    0.5575   -0.3566 O   0  0  0  0  0  0  0  0  0  0  0  0
    2.0507    1.8458    0.6208 N   0  0  0  0  0  0  0  0  0  0  0  0
    3.1206    2.1301    0.7198 N   0  0  0  0  0  0  0  0  0  0  0  0
    3.1506   -0.4465   -0.6791 B   0  0  0  0  0  0  0  0  0  0  0  0
    2.6593    0.5475   -1.5911 F   0  0  0  0  0  0  0  0  0  0  0  0
    3.5767   -1.5636   -1.3349 F   0  0  0  0  0  0  0  0  0  0  0  0
    4.1823    0.1660    0.0779 F   0  0  0  0  0  0  0  0  0  0  0  0
    2.0864   -0.7209    0.2222 F   0  0  0  0  0  0  0  0  0  0  0  0
  1  7  1  0  0  0  0
  2  1  1  0  0  0  0
  2  8  1  0  0  0  0
  3 14  1  0  0  0  0
  3  2  2  0  0  0  0
  4  5  2  0  0  0  0
  4  3  1  0  0  0  0
  5  6  1  0  0  0  0
  6 11  1  0  0  0  0
  6  1  2  0  0  0  0
  9  4  1  0  0  0  0
 10  5  1  0  0  0  0
 11 12  2  0  0  0  0
 13 11  2  0  0  0  0
 14 15  1  0  0  0  0
 16 19  1  0  0  0  0
 16 20  1  0  0  0  0
 17 16  1  0  0  0  0
 18 16  1  0  0  0  0
M  RAD  2  14   2  15   3
M  END
