Coordinates from ORCA-job p-NO2-Ph-N2-X-BF4-B3LYPG-6-31G_dp-scan-d09-49-n400
 OpenBabel08281821043D

 20 19  0  0  0  0  0  0  0  0999 V2000
   -1.1284    0.7240    1.5243 C   0  0  0  0  0  0  0  0  0  0  0  0
    0.2330    0.9328    1.3333 C   0  0  0  0  0  0  0  0  0  0  0  0
    0.6191    1.5389    0.1304 C   0  0  0  0  0  0  0  0  0  0  0  0
   -0.2796    1.9332   -0.8724 C   0  0  0  0  0  0  0  0  0  0  0  0
   -1.6322    1.7022   -0.6640 C   0  0  0  0  0  0  0  0  0  0  0  0
   -2.0277    1.1063    0.5316 C   0  0  0  0  0  0  0  0  0  0  0  0
   -1.4982    0.2592    2.4295 H   0  0  0  0  0  0  0  0  0  0  0  0
    0.9598    0.6272    2.0734 H   0  0  0  0  0  0  0  0  0  0  0  0
    0.0788    2.3904   -1.7872 H   0  0  0  0  0  0  0  0  0  0  0  0
   -2.3749    1.9753   -1.4023 H   0  0  0  0  0  0  0  0  0  0  0  0
   -3.4751    0.8708    0.7552 N   0  0  0  0  0  0  0  0  0  0  0  0
   -3.7988    0.3545    1.8188 O   0  0  0  0  0  0  0  0  0  0  0  0
   -4.2397    1.2146   -0.1408 O   0  0  0  0  0  0  0  0  0  0  0  0
    1.9598    1.8459   -0.1192 N   0  0  0  0  0  0  0  0  0  0  0  0
    2.9675    2.2355   -0.3777 N   0  0  0  0  0  0  0  0  0  0  0  0
    3.4056   -0.5593    0.2809 B   0  0  0  0  0  0  0  0  0  0  0  0
    2.2255   -0.5645   -0.5282 F   0  0  0  0  0  0  0  0  0  0  0  0
    3.8023   -1.8251    0.6046 F   0  0  0  0  0  0  0  0  0  0  0  0
    4.3967    0.1652   -0.4153 F   0  0  0  0  0  0  0  0  0  0  0  0
    3.0494    0.1917    1.4579 F   0  0  0  0  0  0  0  0  0  0  0  0
  1  7  1  0  0  0  0
  2  1  1  0  0  0  0
  2  8  1  0  0  0  0
  3  2  2  0  0  0  0
  4  5  2  0  0  0  0
  4  3  1  0  0  0  0
  5  6  1  0  0  0  0
  6 11  1  0  0  0  0
  6  1  2  0  0  0  0
  9  4  1  0  0  0  0
 10  5  1  0  0  0  0
 11 12  2  0  0  0  0
 13 11  2  0  0  0  0
 14  3  1  0  0  0  0
 15 14  1  0  0  0  0
 16 18  1  0  0  0  0
 16 20  1  0  0  0  0
 17 16  1  0  0  0  0
 19 16  1  0  0  0  0
M  RAD  2  14   2  15   3
M  END
