Coordinates from ORCA-job p-NO2-Ph-N2-X-BF4-B3LYPG-6-31G_dp-scan-d09-49-n400
 OpenBabel08281821043D

 20 19  0  0  0  0  0  0  0  0999 V2000
   -0.8960    0.7060    1.3637 C   0  0  0  0  0  0  0  0  0  0  0  0
    0.4274    0.8802    0.9681 C   0  0  0  0  0  0  0  0  0  0  0  0
    0.6342    1.5329   -0.2541 C   0  0  0  0  0  0  0  0  0  0  0  0
   -0.3944    2.0100   -1.0869 C   0  0  0  0  0  0  0  0  0  0  0  0
   -1.7020    1.8198   -0.6691 C   0  0  0  0  0  0  0  0  0  0  0  0
   -1.9226    1.1748    0.5492 C   0  0  0  0  0  0  0  0  0  0  0  0
   -1.1323    0.2008    2.2917 H   0  0  0  0  0  0  0  0  0  0  0  0
    1.2589    0.4942    1.5498 H   0  0  0  0  0  0  0  0  0  0  0  0
   -0.1678    2.5017   -2.0258 H   0  0  0  0  0  0  0  0  0  0  0  0
   -2.5433    2.1563   -1.2604 H   0  0  0  0  0  0  0  0  0  0  0  0
   -3.3275    0.9785    0.9901 N   0  0  0  0  0  0  0  0  0  0  0  0
   -3.5017    0.4190    2.0656 O   0  0  0  0  0  0  0  0  0  0  0  0
   -4.2072    1.3908    0.2401 O   0  0  0  0  0  0  0  0  0  0  0  0
    1.9301    1.7744   -0.6987 N   0  0  0  0  0  0  0  0  0  0  0  0
    2.9191    2.0634   -1.1086 N   0  0  0  0  0  0  0  0  0  0  0  0
    3.2073   -0.6357    0.7492 B   0  0  0  0  0  0  0  0  0  0  0  0
    2.5146   -0.6269   -0.5023 F   0  0  0  0  0  0  0  0  0  0  0  0
    4.3955   -1.3053    0.6617 F   0  0  0  0  0  0  0  0  0  0  0  0
    3.4076    0.7487    1.0840 F   0  0  0  0  0  0  0  0  0  0  0  0
    2.3431   -1.1649    1.7255 F   0  0  0  0  0  0  0  0  0  0  0  0
  1  7  1  0  0  0  0
  2  1  1  0  0  0  0
  2  8  1  0  0  0  0
  3  2  2  0  0  0  0
  4  5  2  0  0  0  0
  4  3  1  0  0  0  0
  5  6  1  0  0  0  0
  6 11  1  0  0  0  0
  6  1  2  0  0  0  0
  9  4  1  0  0  0  0
 10  5  1  0  0  0  0
 11 12  2  0  0  0  0
 13 11  2  0  0  0  0
 14  3  1  0  0  0  0
 15 14  1  0  0  0  0
 16 19  1  0  0  0  0
 16 20  1  0  0  0  0
 17 16  1  0  0  0  0
 18 16  1  0  0  0  0
M  RAD  2  14   2  15   3
M  END
