Coordinates from ORCA-job p-NO2-Ph-N2-X-BF4-B3LYPG-6-31G_dp-scan-d09-49-n400
 OpenBabel08281821043D

 20 19  0  0  0  0  0  0  0  0999 V2000
   -0.9060    0.6798    1.3339 C   0  0  0  0  0  0  0  0  0  0  0  0
    0.4152    0.8490    0.9282 C   0  0  0  0  0  0  0  0  0  0  0  0
    0.6138    1.5289   -0.2819 C   0  0  0  0  0  0  0  0  0  0  0  0
   -0.4184    2.0340   -1.0927 C   0  0  0  0  0  0  0  0  0  0  0  0
   -1.7233    1.8467   -0.6650 C   0  0  0  0  0  0  0  0  0  0  0  0
   -1.9364    1.1767    0.5411 C   0  0  0  0  0  0  0  0  0  0  0  0
   -1.1375    0.1572    2.2535 H   0  0  0  0  0  0  0  0  0  0  0  0
    1.2469    0.4402    1.4975 H   0  0  0  0  0  0  0  0  0  0  0  0
   -0.1965    2.5449   -2.0224 H   0  0  0  0  0  0  0  0  0  0  0  0
   -2.5680    2.2040   -1.2389 H   0  0  0  0  0  0  0  0  0  0  0  0
   -3.3386    0.9842    0.9931 N   0  0  0  0  0  0  0  0  0  0  0  0
   -3.5066    0.4052    2.0593 O   0  0  0  0  0  0  0  0  0  0  0  0
   -4.2222    1.4237    0.2633 O   0  0  0  0  0  0  0  0  0  0  0  0
    1.9104    1.7613   -0.7244 N   0  0  0  0  0  0  0  0  0  0  0  0
    2.9348    2.0076   -1.0713 N   0  0  0  0  0  0  0  0  0  0  0  0
    3.2498   -0.6219    0.7765 B   0  0  0  0  0  0  0  0  0  0  0  0
    2.5179   -0.6537   -0.4514 F   0  0  0  0  0  0  0  0  0  0  0  0
    4.4154   -1.3287    0.6866 F   0  0  0  0  0  0  0  0  0  0  0  0
    3.4923    0.7668    1.0462 F   0  0  0  0  0  0  0  0  0  0  0  0
    2.4000   -1.0873    1.8016 F   0  0  0  0  0  0  0  0  0  0  0  0
  1  7  1  0  0  0  0
  2  1  1  0  0  0  0
  2  8  1  0  0  0  0
  3  2  2  0  0  0  0
  4  5  2  0  0  0  0
  4  3  1  0  0  0  0
  5  6  1  0  0  0  0
  6 11  1  0  0  0  0
  6  1  2  0  0  0  0
  9  4  1  0  0  0  0
 10  5  1  0  0  0  0
 11 12  2  0  0  0  0
 13 11  2  0  0  0  0
 14  3  1  0  0  0  0
 15 14  1  0  0  0  0
 16 19  1  0  0  0  0
 16 20  1  0  0  0  0
 17 16  1  0  0  0  0
 18 16  1  0  0  0  0
M  RAD  2  14   2  15   3
M  END
