Coordinates from ORCA-job p-NO2-Ph-N2-X-BF4-B3LYPG-6-31G_dp-scan-d09-49-n400
 OpenBabel08281821043D

 20 19  0  0  0  0  0  0  0  0999 V2000
   -1.3048    1.3720    1.8646 C   0  0  0  0  0  0  0  0  0  0  0  0
    0.0584    1.6287    1.8258 C   0  0  0  0  0  0  0  0  0  0  0  0
    0.6956    1.5582    0.5826 C   0  0  0  0  0  0  0  0  0  0  0  0
    0.0661    1.2193   -0.6194 C   0  0  0  0  0  0  0  0  0  0  0  0
   -1.3021    0.9848   -0.5610 C   0  0  0  0  0  0  0  0  0  0  0  0
   -1.9559    1.0721    0.6678 C   0  0  0  0  0  0  0  0  0  0  0  0
   -1.8652    1.3982    2.7904 H   0  0  0  0  0  0  0  0  0  0  0  0
    0.6440    1.8412    2.7117 H   0  0  0  0  0  0  0  0  0  0  0  0
    0.6656    1.0977   -1.5139 H   0  0  0  0  0  0  0  0  0  0  0  0
   -1.8633    0.7162   -1.4468 H   0  0  0  0  0  0  0  0  0  0  0  0
   -3.4168    0.8191    0.7107 N   0  0  0  0  0  0  0  0  0  0  0  0
   -3.9620    0.8832    1.8082 O   0  0  0  0  0  0  0  0  0  0  0  0
   -3.9726    0.5702   -0.3534 O   0  0  0  0  0  0  0  0  0  0  0  0
    2.0507    1.8713    0.5881 N   0  0  0  0  0  0  0  0  0  0  0  0
    3.1193    2.1635    0.6776 N   0  0  0  0  0  0  0  0  0  0  0  0
    3.1365   -0.4591   -0.6370 B   0  0  0  0  0  0  0  0  0  0  0  0
    2.6430    0.5149   -1.5699 F   0  0  0  0  0  0  0  0  0  0  0  0
    3.5554   -1.5924   -1.2692 F   0  0  0  0  0  0  0  0  0  0  0  0
    4.1741    0.1682    0.0993 F   0  0  0  0  0  0  0  0  0  0  0  0
    2.0771   -0.7086    0.2768 F   0  0  0  0  0  0  0  0  0  0  0  0
  1  7  1  0  0  0  0
  2  1  1  0  0  0  0
  2  8  1  0  0  0  0
  3 14  1  0  0  0  0
  3  2  2  0  0  0  0
  4  5  2  0  0  0  0
  4  3  1  0  0  0  0
  5  6  1  0  0  0  0
  6 11  1  0  0  0  0
  6  1  2  0  0  0  0
  9  4  1  0  0  0  0
 10  5  1  0  0  0  0
 11 12  2  0  0  0  0
 13 11  2  0  0  0  0
 14 15  1  0  0  0  0
 16 19  1  0  0  0  0
 16 20  1  0  0  0  0
 17 16  1  0  0  0  0
 18 16  1  0  0  0  0
M  RAD  2  14   2  15   3
M  END
