Coordinates from ORCA-job p-NO2-Ph-N2-X-BF4-B3LYPG-6-31G_dp-scan-d09-49-n400
 OpenBabel08281821043D

 20 19  0  0  0  0  0  0  0  0999 V2000
   -1.2978    1.3636    1.8625 C   0  0  0  0  0  0  0  0  0  0  0  0
    0.0645    1.6243    1.8203 C   0  0  0  0  0  0  0  0  0  0  0  0
    0.6969    1.5650    0.5741 C   0  0  0  0  0  0  0  0  0  0  0  0
    0.0636    1.2327   -0.6277 C   0  0  0  0  0  0  0  0  0  0  0  0
   -1.3035    0.9938   -0.5659 C   0  0  0  0  0  0  0  0  0  0  0  0
   -1.9528    1.0708    0.6661 C   0  0  0  0  0  0  0  0  0  0  0  0
   -1.8546    1.3810    2.7906 H   0  0  0  0  0  0  0  0  0  0  0  0
    0.6535    1.8306    2.7054 H   0  0  0  0  0  0  0  0  0  0  0  0
    0.6596    1.1177   -1.5253 H   0  0  0  0  0  0  0  0  0  0  0  0
   -1.8675    0.7296   -1.4513 H   0  0  0  0  0  0  0  0  0  0  0  0
   -3.4129    0.8139    0.7127 N   0  0  0  0  0  0  0  0  0  0  0  0
   -3.9541    0.8689    1.8127 O   0  0  0  0  0  0  0  0  0  0  0  0
   -3.9721    0.5711   -0.3510 O   0  0  0  0  0  0  0  0  0  0  0  0
    2.0508    1.8826    0.5760 N   0  0  0  0  0  0  0  0  0  0  0  0
    3.1196    2.1745    0.6627 N   0  0  0  0  0  0  0  0  0  0  0  0
    3.1289   -0.4642   -0.6224 B   0  0  0  0  0  0  0  0  0  0  0  0
    2.6400    0.5075   -1.5603 F   0  0  0  0  0  0  0  0  0  0  0  0
    3.5506   -1.5991   -1.2500 F   0  0  0  0  0  0  0  0  0  0  0  0
    4.1643    0.1648    0.1164 F   0  0  0  0  0  0  0  0  0  0  0  0
    2.0659   -0.7106    0.2873 F   0  0  0  0  0  0  0  0  0  0  0  0
  1  7  1  0  0  0  0
  2  1  1  0  0  0  0
  2  8  1  0  0  0  0
  3 14  1  0  0  0  0
  3  2  2  0  0  0  0
  4  5  2  0  0  0  0
  4  3  1  0  0  0  0
  5  6  1  0  0  0  0
  6 11  1  0  0  0  0
  6  1  2  0  0  0  0
  9  4  1  0  0  0  0
 10  5  1  0  0  0  0
 11 12  2  0  0  0  0
 13 11  2  0  0  0  0
 14 15  1  0  0  0  0
 16 19  1  0  0  0  0
 16 20  1  0  0  0  0
 17 16  1  0  0  0  0
 18 16  1  0  0  0  0
M  RAD  2  14   2  15   3
M  END
