Coordinates from ORCA-job p-NO2-Ph-N2-X-BF4-B3LYPG-6-31G_dp-scan-d09-49-n400
 OpenBabel08281821043D

 20 18  0  0  0  0  0  0  0  0999 V2000
   -0.4412    0.6095    0.8355 C   0  0  0  0  0  0  0  0  0  0  0  0
    0.7535    1.0973    0.2652 C   0  0  0  0  0  0  0  0  0  0  0  0
    0.5371    2.0931   -0.7007 C   0  0  0  0  0  0  0  0  0  0  0  0
   -0.6994    2.6336   -1.1372 C   0  0  0  0  0  0  0  0  0  0  0  0
   -1.8274    2.1189   -0.5390 C   0  0  0  0  0  0  0  0  0  0  0  0
   -1.6685    1.1160    0.4363 C   0  0  0  0  0  0  0  0  0  0  0  0
   -0.3811   -0.1743    1.5827 H   0  0  0  0  0  0  0  0  0  0  0  0
    1.9654    0.6183    0.6350 H   0  0  0  0  0  0  0  0  0  0  0  0
   -0.7532    3.4052   -1.8977 H   0  0  0  0  0  0  0  0  0  0  0  0
   -2.8209    2.4597   -0.7982 H   0  0  0  0  0  0  0  0  0  0  0  0
   -2.9085    0.5786    1.0621 N   0  0  0  0  0  0  0  0  0  0  0  0
   -2.7759   -0.2738    1.9295 O   0  0  0  0  0  0  0  0  0  0  0  0
   -3.9768    1.0345    0.6591 O   0  0  0  0  0  0  0  0  0  0  0  0
    1.6858    2.5900   -1.2920 N   0  0  0  0  0  0  0  0  0  0  0  0
    2.6318    2.9655   -1.7489 N   0  0  0  0  0  0  0  0  0  0  0  0
    2.7873   -1.2715    1.5129 B   0  0  0  0  0  0  0  0  0  0  0  0
    2.8322   -2.0667    0.4067 F   0  0  0  0  0  0  0  0  0  0  0  0
    3.8258   -1.3953    2.3755 F   0  0  0  0  0  0  0  0  0  0  0  0
    2.9334    0.2120    0.9301 F   0  0  0  0  0  0  0  0  0  0  0  0
    1.5437   -1.2321    2.1160 F   0  0  0  0  0  0  0  0  0  0  0  0
  1  7  1  0  0  0  0
  2  1  2  0  0  0  0
  3  2  1  0  0  0  0
  4  3  2  0  0  0  0
  4  5  1  0  0  0  0
  5  6  2  0  0  0  0
  6  1  1  0  0  0  0
  6 11  1  0  0  0  0
  8 19  1  0  0  0  0
  9  4  1  0  0  0  0
 10  5  1  0  0  0  0
 11 12  2  0  0  0  0
 13 11  2  0  0  0  0
 14  3  1  0  0  0  0
 15 14  1  0  0  0  0
 16 20  1  0  0  0  0
 16 18  1  0  0  0  0
 17 16  1  0  0  0  0
M  RAD  3   2   2  14   2  15   3
M  END
