Coordinates from ORCA-job p-NO2-Ph-N2-X-BF4-B3LYPG-6-31G_dp-scan-d09-49-n400
 OpenBabel08281821043D

 20 19  0  0  0  0  0  0  0  0999 V2000
   -1.1296    0.7278    1.5278 C   0  0  0  0  0  0  0  0  0  0  0  0
    0.2319    0.9374    1.3388 C   0  0  0  0  0  0  0  0  0  0  0  0
    0.6199    1.5397    0.1347 C   0  0  0  0  0  0  0  0  0  0  0  0
   -0.2772    1.9298   -0.8712 C   0  0  0  0  0  0  0  0  0  0  0  0
   -1.6300    1.6983   -0.6647 C   0  0  0  0  0  0  0  0  0  0  0  0
   -2.0273    1.1059    0.5321 C   0  0  0  0  0  0  0  0  0  0  0  0
   -1.5007    0.2657    2.4338 H   0  0  0  0  0  0  0  0  0  0  0  0
    0.9570    0.6348    2.0820 H   0  0  0  0  0  0  0  0  0  0  0  0
    0.0826    2.3842   -1.7868 H   0  0  0  0  0  0  0  0  0  0  0  0
   -2.3715    1.9682   -1.4054 H   0  0  0  0  0  0  0  0  0  0  0  0
   -3.4749    0.8698    0.7536 N   0  0  0  0  0  0  0  0  0  0  0  0
   -3.8001    0.3562    1.8181 O   0  0  0  0  0  0  0  0  0  0  0  0
   -4.2380    1.2097   -0.1450 O   0  0  0  0  0  0  0  0  0  0  0  0
    1.9607    1.8478   -0.1133 N   0  0  0  0  0  0  0  0  0  0  0  0
    2.9683    2.2386   -0.3703 N   0  0  0  0  0  0  0  0  0  0  0  0
    3.4041   -0.5599    0.2746 B   0  0  0  0  0  0  0  0  0  0  0  0
    2.2242   -0.5609   -0.5350 F   0  0  0  0  0  0  0  0  0  0  0  0
    3.7989   -1.8273    0.5944 F   0  0  0  0  0  0  0  0  0  0  0  0
    4.3964    0.1652   -0.4191 F   0  0  0  0  0  0  0  0  0  0  0  0
    3.0483    0.1877    1.4539 F   0  0  0  0  0  0  0  0  0  0  0  0
  1  7  1  0  0  0  0
  2  1  1  0  0  0  0
  2  8  1  0  0  0  0
  3  2  2  0  0  0  0
  4  5  2  0  0  0  0
  4  3  1  0  0  0  0
  5  6  1  0  0  0  0
  6 11  1  0  0  0  0
  6  1  2  0  0  0  0
  9  4  1  0  0  0  0
 10  5  1  0  0  0  0
 11 12  2  0  0  0  0
 13 11  2  0  0  0  0
 14  3  1  0  0  0  0
 15 14  1  0  0  0  0
 16 18  1  0  0  0  0
 16 20  1  0  0  0  0
 17 16  1  0  0  0  0
 19 16  1  0  0  0  0
M  RAD  2  14   2  15   3
M  END
