Coordinates from ORCA-job p-NO2-Ph-N2-X-BF4-B3LYPG-6-31G_dp-scan-d09-49-n400
 OpenBabel08281821043D

 20 19  0  0  0  0  0  0  0  0999 V2000
   -0.4676    0.5918    0.8746 C   0  0  0  0  0  0  0  0  0  0  0  0
    0.7235    1.0705    0.3077 C   0  0  0  0  0  0  0  0  0  0  0  0
    0.5526    2.0601   -0.6722 C   0  0  0  0  0  0  0  0  0  0  0  0
   -0.6736    2.6055   -1.1240 C   0  0  0  0  0  0  0  0  0  0  0  0
   -1.8140    2.1077   -0.5311 C   0  0  0  0  0  0  0  0  0  0  0  0
   -1.6828    1.1125    0.4545 C   0  0  0  0  0  0  0  0  0  0  0  0
   -0.4067   -0.1901    1.6233 H   0  0  0  0  0  0  0  0  0  0  0  0
    1.8153    0.6627    0.6217 H   0  0  0  0  0  0  0  0  0  0  0  0
   -0.7118    3.3690   -1.8930 H   0  0  0  0  0  0  0  0  0  0  0  0
   -2.8002    2.4581   -0.8056 H   0  0  0  0  0  0  0  0  0  0  0  0
   -2.9374    0.5967    1.0695 N   0  0  0  0  0  0  0  0  0  0  0  0
   -2.8239   -0.2491    1.9452 O   0  0  0  0  0  0  0  0  0  0  0  0
   -3.9932    1.0644    0.6488 O   0  0  0  0  0  0  0  0  0  0  0  0
    1.7199    2.5237   -1.2484 N   0  0  0  0  0  0  0  0  0  0  0  0
    2.6803    2.8724   -1.6949 N   0  0  0  0  0  0  0  0  0  0  0  0
    2.8258   -1.1886    1.4395 B   0  0  0  0  0  0  0  0  0  0  0  0
    2.9159   -2.0238    0.3529 F   0  0  0  0  0  0  0  0  0  0  0  0
    3.8116   -1.3505    2.3702 F   0  0  0  0  0  0  0  0  0  0  0  0
    2.9674    0.2273    0.8916 F   0  0  0  0  0  0  0  0  0  0  0  0
    1.5420   -1.2016    2.0024 F   0  0  0  0  0  0  0  0  0  0  0  0
  1  7  1  0  0  0  0
  2  8  1  0  0  0  0
  2  1  2  0  0  0  0
  3  2  1  0  0  0  0
  4  3  2  0  0  0  0
  4  5  1  0  0  0  0
  5  6  2  0  0  0  0
  6  1  1  0  0  0  0
  6 11  1  0  0  0  0
  9  4  1  0  0  0  0
 10  5  1  0  0  0  0
 11 12  2  0  0  0  0
 13 11  2  0  0  0  0
 14  3  1  0  0  0  0
 15 14  1  0  0  0  0
 16 20  1  0  0  0  0
 16 18  1  0  0  0  0
 17 16  1  0  0  0  0
 19 16  1  0  0  0  0
M  RAD  2  14   2  15   3
M  END
