Coordinates from ORCA-job p-NO2-Ph-N2-X-BF4-B3LYPG-6-31G_dp-scan-d09-49-n400
 OpenBabel08281821043D

 20 19  0  0  0  0  0  0  0  0999 V2000
   -0.7766    0.8331    1.4201 C   0  0  0  0  0  0  0  0  0  0  0  0
    0.5276    1.0771    0.9937 C   0  0  0  0  0  0  0  0  0  0  0  0
    0.6663    1.6467   -0.2792 C   0  0  0  0  0  0  0  0  0  0  0  0
   -0.3932    1.9807   -1.1442 C   0  0  0  0  0  0  0  0  0  0  0  0
   -1.6751    1.7240   -0.6904 C   0  0  0  0  0  0  0  0  0  0  0  0
   -1.8362    1.1610    0.5812 C   0  0  0  0  0  0  0  0  0  0  0  0
   -0.9714    0.3809    2.3841 H   0  0  0  0  0  0  0  0  0  0  0  0
    1.4751    0.8235    1.5188 H   0  0  0  0  0  0  0  0  0  0  0  0
   -0.2105    2.4111   -2.1217 H   0  0  0  0  0  0  0  0  0  0  0  0
   -2.5470    1.9452   -1.2917 H   0  0  0  0  0  0  0  0  0  0  0  0
   -3.2220    0.8984    1.0499 N   0  0  0  0  0  0  0  0  0  0  0  0
   -3.3519    0.4282    2.1734 O   0  0  0  0  0  0  0  0  0  0  0  0
   -4.1332    1.1776    0.2760 O   0  0  0  0  0  0  0  0  0  0  0  0
    1.9560    1.9287   -0.7105 N   0  0  0  0  0  0  0  0  0  0  0  0
    2.9641    2.2152   -1.0755 N   0  0  0  0  0  0  0  0  0  0  0  0
    2.9772   -0.7604    0.7063 B   0  0  0  0  0  0  0  0  0  0  0  0
    2.7223   -0.4466   -0.6555 F   0  0  0  0  0  0  0  0  0  0  0  0
    4.1754   -1.3933    0.8713 F   0  0  0  0  0  0  0  0  0  0  0  0
    3.0059    0.5405    1.3955 F   0  0  0  0  0  0  0  0  0  0  0  0
    1.8905   -1.4528    1.2312 F   0  0  0  0  0  0  0  0  0  0  0  0
  1  7  1  0  0  0  0
  2  1  1  0  0  0  0
  2  8  1  0  0  0  0
  3  2  2  0  0  0  0
  4  5  2  0  0  0  0
  4  3  1  0  0  0  0
  5  6  1  0  0  0  0
  6 11  1  0  0  0  0
  6  1  2  0  0  0  0
  9  4  1  0  0  0  0
 10  5  1  0  0  0  0
 11 12  2  0  0  0  0
 13 11  2  0  0  0  0
 14  3  1  0  0  0  0
 15 14  1  0  0  0  0
 16 18  1  0  0  0  0
 16 20  1  0  0  0  0
 16 19  1  0  0  0  0
 17 16  1  0  0  0  0
M  RAD  2  14   2  15   3
M  END
