Coordinates from ORCA-job p-NO2-Ph-N2-X-BF4-B3LYPG-6-31G_dp-scan-d09-49-n400
 OpenBabel08281821043D

 20 19  0  0  0  0  0  0  0  0999 V2000
   -0.9499    0.6367    1.2940 C   0  0  0  0  0  0  0  0  0  0  0  0
    0.3716    0.8113    0.8905 C   0  0  0  0  0  0  0  0  0  0  0  0
    0.5715    1.5387   -0.2927 C   0  0  0  0  0  0  0  0  0  0  0  0
   -0.4571    2.0840   -1.0792 C   0  0  0  0  0  0  0  0  0  0  0  0
   -1.7628    1.8880   -0.6568 C   0  0  0  0  0  0  0  0  0  0  0  0
   -1.9780    1.1710    0.5219 C   0  0  0  0  0  0  0  0  0  0  0  0
   -1.1849    0.0840    2.1950 H   0  0  0  0  0  0  0  0  0  0  0  0
    1.2095    0.3840    1.4454 H   0  0  0  0  0  0  0  0  0  0  0  0
   -0.2324    2.6317   -1.9871 H   0  0  0  0  0  0  0  0  0  0  0  0
   -2.6068    2.2737   -1.2131 H   0  0  0  0  0  0  0  0  0  0  0  0
   -3.3808    0.9710    0.9690 N   0  0  0  0  0  0  0  0  0  0  0  0
   -3.5513    0.3474    2.0095 O   0  0  0  0  0  0  0  0  0  0  0  0
   -4.2626    1.4489    0.2617 O   0  0  0  0  0  0  0  0  0  0  0  0
    1.8757    1.7633   -0.7138 N   0  0  0  0  0  0  0  0  0  0  0  0
    2.9483    1.9263   -0.9612 N   0  0  0  0  0  0  0  0  0  0  0  0
    3.3561   -0.6060    0.7931 B   0  0  0  0  0  0  0  0  0  0  0  0
    2.4690   -0.6945   -0.3195 F   0  0  0  0  0  0  0  0  0  0  0  0
    4.3635   -1.5234    0.7116 F   0  0  0  0  0  0  0  0  0  0  0  0
    3.8632    0.7352    0.7955 F   0  0  0  0  0  0  0  0  0  0  0  0
    2.5813   -0.7526    1.9692 F   0  0  0  0  0  0  0  0  0  0  0  0
  1  7  1  0  0  0  0
  2  1  1  0  0  0  0
  2  8  1  0  0  0  0
  3  2  2  0  0  0  0
  4  5  2  0  0  0  0
  4  3  1  0  0  0  0
  5  6  1  0  0  0  0
  6 11  1  0  0  0  0
  6  1  2  0  0  0  0
  9  4  1  0  0  0  0
 10  5  1  0  0  0  0
 11 12  2  0  0  0  0
 13 11  2  0  0  0  0
 14  3  1  0  0  0  0
 15 14  1  0  0  0  0
 16 19  1  0  0  0  0
 16 20  1  0  0  0  0
 17 16  1  0  0  0  0
 18 16  1  0  0  0  0
M  RAD  2  14   2  15   3
M  END
