Coordinates from ORCA-job p-NO2-Ph-N2-X-BF4-B3LYPG-6-31G_dp-scan-d09-49-n400
 OpenBabel08281821043D

 20 19  0  0  0  0  0  0  0  0999 V2000
   -0.8984    0.7019    1.3614 C   0  0  0  0  0  0  0  0  0  0  0  0
    0.4253    0.8742    0.9657 C   0  0  0  0  0  0  0  0  0  0  0  0
    0.6330    1.5298   -0.2551 C   0  0  0  0  0  0  0  0  0  0  0  0
   -0.3952    2.0108   -1.0861 C   0  0  0  0  0  0  0  0  0  0  0  0
   -1.7030    1.8223   -0.6682 C   0  0  0  0  0  0  0  0  0  0  0  0
   -1.9243    1.1748    0.5486 C   0  0  0  0  0  0  0  0  0  0  0  0
   -1.1354    0.1948    2.2881 H   0  0  0  0  0  0  0  0  0  0  0  0
    1.2555    0.4845    1.5466 H   0  0  0  0  0  0  0  0  0  0  0  0
   -0.1682    2.5044   -2.0239 H   0  0  0  0  0  0  0  0  0  0  0  0
   -2.5439    2.1620   -1.2583 H   0  0  0  0  0  0  0  0  0  0  0  0
   -3.3295    0.9802    0.9895 N   0  0  0  0  0  0  0  0  0  0  0  0
   -3.5044    0.4206    2.0649 O   0  0  0  0  0  0  0  0  0  0  0  0
   -4.2086    1.3986    0.2422 O   0  0  0  0  0  0  0  0  0  0  0  0
    1.9290    1.7705   -0.7012 N   0  0  0  0  0  0  0  0  0  0  0  0
    2.9175    2.0597   -1.1120 N   0  0  0  0  0  0  0  0  0  0  0  0
    3.2123   -0.6325    0.7520 B   0  0  0  0  0  0  0  0  0  0  0  0
    2.5156   -0.6293   -0.4976 F   0  0  0  0  0  0  0  0  0  0  0  0
    4.4006   -1.3013    0.6625 F   0  0  0  0  0  0  0  0  0  0  0  0
    3.4129    0.7528    1.0812 F   0  0  0  0  0  0  0  0  0  0  0  0
    2.3521   -1.1602    1.7330 F   0  0  0  0  0  0  0  0  0  0  0  0
  1  7  1  0  0  0  0
  2  1  1  0  0  0  0
  2  8  1  0  0  0  0
  3  2  2  0  0  0  0
  4  5  2  0  0  0  0
  4  3  1  0  0  0  0
  5  6  1  0  0  0  0
  6 11  1  0  0  0  0
  6  1  2  0  0  0  0
  9  4  1  0  0  0  0
 10  5  1  0  0  0  0
 11 12  2  0  0  0  0
 13 11  2  0  0  0  0
 14  3  1  0  0  0  0
 15 14  1  0  0  0  0
 16 19  1  0  0  0  0
 16 20  1  0  0  0  0
 17 16  1  0  0  0  0
 18 16  1  0  0  0  0
M  RAD  2  14   2  15   3
M  END
