Coordinates from ORCA-job p-NO2-Ph-N2-X-BF4-B3LYPG-6-31G_dp-scan-d09-49-n400
 OpenBabel08281821043D

 20 19  0  0  0  0  0  0  0  0999 V2000
   -0.9891    0.6021    1.2888 C   0  0  0  0  0  0  0  0  0  0  0  0
    0.3387    0.7757    0.9059 C   0  0  0  0  0  0  0  0  0  0  0  0
    0.5599    1.5260   -0.2586 C   0  0  0  0  0  0  0  0  0  0  0  0
   -0.4544    2.0980   -1.0454 C   0  0  0  0  0  0  0  0  0  0  0  0
   -1.7669    1.9012   -0.6451 C   0  0  0  0  0  0  0  0  0  0  0  0
   -2.0030    1.1588    0.5136 C   0  0  0  0  0  0  0  0  0  0  0  0
   -1.2414    0.0339    2.1754 H   0  0  0  0  0  0  0  0  0  0  0  0
    1.1775    0.3466    1.4599 H   0  0  0  0  0  0  0  0  0  0  0  0
   -0.2138    2.6662   -1.9365 H   0  0  0  0  0  0  0  0  0  0  0  0
   -2.6004    2.3063   -1.2033 H   0  0  0  0  0  0  0  0  0  0  0  0
   -3.4131    0.9574    0.9361 N   0  0  0  0  0  0  0  0  0  0  0  0
   -3.6028    0.3028    1.9541 O   0  0  0  0  0  0  0  0  0  0  0  0
   -4.2816    1.4649    0.2329 O   0  0  0  0  0  0  0  0  0  0  0  0
    1.8704    1.7563   -0.6598 N   0  0  0  0  0  0  0  0  0  0  0  0
    2.9310    1.9596   -0.9318 N   0  0  0  0  0  0  0  0  0  0  0  0
    3.4127   -0.5828    0.7756 B   0  0  0  0  0  0  0  0  0  0  0  0
    2.4109   -0.6978   -0.2351 F   0  0  0  0  0  0  0  0  0  0  0  0
    4.2550   -1.6573    0.7716 F   0  0  0  0  0  0  0  0  0  0  0  0
    4.1120    0.6349    0.5178 F   0  0  0  0  0  0  0  0  0  0  0  0
    2.7414   -0.4341    2.0168 F   0  0  0  0  0  0  0  0  0  0  0  0
  1  7  1  0  0  0  0
  2  1  1  0  0  0  0
  2  8  1  0  0  0  0
  3  2  2  0  0  0  0
  4  5  2  0  0  0  0
  4  3  1  0  0  0  0
  5  6  1  0  0  0  0
  6 11  1  0  0  0  0
  6  1  2  0  0  0  0
  9  4  1  0  0  0  0
 10  5  1  0  0  0  0
 11 12  2  0  0  0  0
 13 11  2  0  0  0  0
 14  3  1  0  0  0  0
 15 14  1  0  0  0  0
 16 20  1  0  0  0  0
 17 16  1  0  0  0  0
 18 16  1  0  0  0  0
 19 16  1  0  0  0  0
M  RAD  2  14   2  15   3
M  END
