Coordinates from ORCA-job p-NO2-Ph-N2-X-BF4-B3LYPG-6-31G_dp-scan-d09-49-n400
 OpenBabel08281821043D

 20 19  0  0  0  0  0  0  0  0999 V2000
   -0.7468    0.8368    1.3951 C   0  0  0  0  0  0  0  0  0  0  0  0
    0.5502    1.0912    0.9481 C   0  0  0  0  0  0  0  0  0  0  0  0
    0.6552    1.6703   -0.3240 C   0  0  0  0  0  0  0  0  0  0  0  0
   -0.4226    2.0018   -1.1692 C   0  0  0  0  0  0  0  0  0  0  0  0
   -1.6929    1.7339   -0.6924 C   0  0  0  0  0  0  0  0  0  0  0  0
   -1.8245    1.1631    0.5801 C   0  0  0  0  0  0  0  0  0  0  0  0
   -0.9207    0.3777    2.3601 H   0  0  0  0  0  0  0  0  0  0  0  0
    1.5177    0.8297    1.4682 H   0  0  0  0  0  0  0  0  0  0  0  0
   -0.2612    2.4386   -2.1478 H   0  0  0  0  0  0  0  0  0  0  0  0
   -2.5783    1.9518   -1.2750 H   0  0  0  0  0  0  0  0  0  0  0  0
   -3.1997    0.8920    1.0755 N   0  0  0  0  0  0  0  0  0  0  0  0
   -3.3054    0.4230    2.2019 O   0  0  0  0  0  0  0  0  0  0  0  0
   -4.1273    1.1637    0.3184 O   0  0  0  0  0  0  0  0  0  0  0  0
    1.9350    1.9600   -0.7756 N   0  0  0  0  0  0  0  0  0  0  0  0
    2.9469    2.2322   -1.1430 N   0  0  0  0  0  0  0  0  0  0  0  0
    2.9660   -0.7888    0.7560 B   0  0  0  0  0  0  0  0  0  0  0  0
    2.8513   -0.3692   -0.5949 F   0  0  0  0  0  0  0  0  0  0  0  0
    4.1354   -1.4505    0.9919 F   0  0  0  0  0  0  0  0  0  0  0  0
    2.9397    0.4587    1.5433 F   0  0  0  0  0  0  0  0  0  0  0  0
    1.8250   -1.4974    1.1162 F   0  0  0  0  0  0  0  0  0  0  0  0
  1  7  1  0  0  0  0
  2  1  1  0  0  0  0
  2  8  1  0  0  0  0
  3  2  2  0  0  0  0
  4  5  2  0  0  0  0
  4  3  1  0  0  0  0
  5  6  1  0  0  0  0
  6 11  1  0  0  0  0
  6  1  2  0  0  0  0
  9  4  1  0  0  0  0
 10  5  1  0  0  0  0
 11 12  2  0  0  0  0
 13 11  2  0  0  0  0
 14  3  1  0  0  0  0
 15 14  1  0  0  0  0
 16 18  1  0  0  0  0
 16 20  1  0  0  0  0
 16 19  1  0  0  0  0
 17 16  1  0  0  0  0
M  RAD  2  14   2  15   3
M  END
