Coordinates from ORCA-job p-NO2-Ph-N2-X-BF4-B3LYPG-6-31G_dp-scan-d09-49-n400
 OpenBabel08281821043D

 20 19  0  0  0  0  0  0  0  0999 V2000
   -0.9732    0.6162    1.2895 C   0  0  0  0  0  0  0  0  0  0  0  0
    0.3515    0.7898    0.8962 C   0  0  0  0  0  0  0  0  0  0  0  0
    0.5629    1.5305   -0.2765 C   0  0  0  0  0  0  0  0  0  0  0  0
   -0.4579    2.0918   -1.0622 C   0  0  0  0  0  0  0  0  0  0  0  0
   -1.7672    1.8962   -0.6506 C   0  0  0  0  0  0  0  0  0  0  0  0
   -1.9935    1.1644    0.5168 C   0  0  0  0  0  0  0  0  0  0  0  0
   -1.2173    0.0548    2.1826 H   0  0  0  0  0  0  0  0  0  0  0  0
    1.1914    0.3628    1.4500 H   0  0  0  0  0  0  0  0  0  0  0  0
   -0.2249    2.6513   -1.9608 H   0  0  0  0  0  0  0  0  0  0  0  0
   -2.6056    2.2941   -1.2066 H   0  0  0  0  0  0  0  0  0  0  0  0
   -3.4002    0.9650    0.9519 N   0  0  0  0  0  0  0  0  0  0  0  0
   -3.5810    0.3214    1.9784 O   0  0  0  0  0  0  0  0  0  0  0  0
   -4.2748    1.4627    0.2493 O   0  0  0  0  0  0  0  0  0  0  0  0
    1.8709    1.7576   -0.6865 N   0  0  0  0  0  0  0  0  0  0  0  0
    2.9370    1.9445   -0.9474 N   0  0  0  0  0  0  0  0  0  0  0  0
    3.3933   -0.5924    0.7868 B   0  0  0  0  0  0  0  0  0  0  0  0
    2.4407   -0.6943   -0.2712 F   0  0  0  0  0  0  0  0  0  0  0  0
    4.3068   -1.6055    0.7405 F   0  0  0  0  0  0  0  0  0  0  0  0
    4.0171    0.6868    0.6477 F   0  0  0  0  0  0  0  0  0  0  0  0
    2.6669   -0.5789    2.0048 F   0  0  0  0  0  0  0  0  0  0  0  0
  1  7  1  0  0  0  0
  2  1  1  0  0  0  0
  2  8  1  0  0  0  0
  3  2  2  0  0  0  0
  4  5  2  0  0  0  0
  4  3  1  0  0  0  0
  5  6  1  0  0  0  0
  6 11  1  0  0  0  0
  6  1  2  0  0  0  0
  9  4  1  0  0  0  0
 10  5  1  0  0  0  0
 11 12  2  0  0  0  0
 13 11  2  0  0  0  0
 14  3  1  0  0  0  0
 15 14  1  0  0  0  0
 16 20  1  0  0  0  0
 17 16  1  0  0  0  0
 18 16  1  0  0  0  0
 19 16  1  0  0  0  0
M  RAD  2  14   2  15   3
M  END
