Coordinates from ORCA-job p-NO2-Ph-N2-X-BF4-B3LYPG-6-31G_dp-scan-d09-49-n400
 OpenBabel08281821043D

 20 19  0  0  0  0  0  0  0  0999 V2000
   -1.0793    0.5884    1.3783 C   0  0  0  0  0  0  0  0  0  0  0  0
    0.2711    0.7714    1.0993 C   0  0  0  0  0  0  0  0  0  0  0  0
    0.5843    1.5106   -0.0488 C   0  0  0  0  0  0  0  0  0  0  0  0
   -0.3691    2.0603   -0.9214 C   0  0  0  0  0  0  0  0  0  0  0  0
   -1.7090    1.8516   -0.6286 C   0  0  0  0  0  0  0  0  0  0  0  0
   -2.0335    1.1234    0.5160 C   0  0  0  0  0  0  0  0  0  0  0  0
   -1.3983    0.0289    2.2487 H   0  0  0  0  0  0  0  0  0  0  0  0
    1.0701    0.3746    1.7163 H   0  0  0  0  0  0  0  0  0  0  0  0
   -0.0635    2.6184   -1.7990 H   0  0  0  0  0  0  0  0  0  0  0  0
   -2.4966    2.2392   -1.2611 H   0  0  0  0  0  0  0  0  0  0  0  0
   -3.4698    0.9120    0.8263 N   0  0  0  0  0  0  0  0  0  0  0  0
   -3.7343    0.2789    1.8416 O   0  0  0  0  0  0  0  0  0  0  0  0
   -4.2844    1.3902    0.0428 O   0  0  0  0  0  0  0  0  0  0  0  0
    1.9187    1.7640   -0.3654 N   0  0  0  0  0  0  0  0  0  0  0  0
    2.9420    2.0785   -0.6685 N   0  0  0  0  0  0  0  0  0  0  0  0
    3.4467   -0.5344    0.5397 B   0  0  0  0  0  0  0  0  0  0  0  0
    2.2773   -0.7100   -0.2612 F   0  0  0  0  0  0  0  0  0  0  0  0
    3.9631   -1.7289    0.9516 F   0  0  0  0  0  0  0  0  0  0  0  0
    4.3668    0.2241   -0.2221 F   0  0  0  0  0  0  0  0  0  0  0  0
    3.0406    0.2776    1.6485 F   0  0  0  0  0  0  0  0  0  0  0  0
  1  7  1  0  0  0  0
  2  1  1  0  0  0  0
  2  8  1  0  0  0  0
  3  2  2  0  0  0  0
  4  5  2  0  0  0  0
  4  3  1  0  0  0  0
  5  6  1  0  0  0  0
  6 11  1  0  0  0  0
  6  1  2  0  0  0  0
  9  4  1  0  0  0  0
 10  5  1  0  0  0  0
 11 12  2  0  0  0  0
 13 11  2  0  0  0  0
 14  3  1  0  0  0  0
 15 14  1  0  0  0  0
 16 18  1  0  0  0  0
 16 20  1  0  0  0  0
 17 16  1  0  0  0  0
 19 16  1  0  0  0  0
M  RAD  2  14   2  15   3
M  END
