Coordinates from ORCA-job p-NO2-Ph-N2-X-BF4-B3LYPG-6-31G_dp-scan-d09-49-n400
 OpenBabel08281821043D

 20 19  0  0  0  0  0  0  0  0999 V2000
   -0.7221    0.8361    1.3707 C   0  0  0  0  0  0  0  0  0  0  0  0
    0.5704    1.1008    0.9113 C   0  0  0  0  0  0  0  0  0  0  0  0
    0.6492    1.6925   -0.3572 C   0  0  0  0  0  0  0  0  0  0  0  0
   -0.4420    2.0327   -1.1830 C   0  0  0  0  0  0  0  0  0  0  0  0
   -1.7037    1.7551   -0.6912 C   0  0  0  0  0  0  0  0  0  0  0  0
   -1.8132    1.1659    0.5756 C   0  0  0  0  0  0  0  0  0  0  0  0
   -0.8812    0.3633    2.3318 H   0  0  0  0  0  0  0  0  0  0  0  0
    1.5544    0.8238    1.4327 H   0  0  0  0  0  0  0  0  0  0  0  0
   -0.2959    2.4820   -2.1583 H   0  0  0  0  0  0  0  0  0  0  0  0
   -2.5986    1.9771   -1.2574 H   0  0  0  0  0  0  0  0  0  0  0  0
   -3.1800    0.8773    1.0847 N   0  0  0  0  0  0  0  0  0  0  0  0
   -3.2679    0.3864    2.2033 O   0  0  0  0  0  0  0  0  0  0  0  0
   -4.1195    1.1574    0.3455 O   0  0  0  0  0  0  0  0  0  0  0  0
    1.9207    1.9794   -0.8326 N   0  0  0  0  0  0  0  0  0  0  0  0
    2.9320    2.2324   -1.2161 N   0  0  0  0  0  0  0  0  0  0  0  0
    2.9509   -0.8120    0.8044 B   0  0  0  0  0  0  0  0  0  0  0  0
    2.8797   -0.3367   -0.5298 F   0  0  0  0  0  0  0  0  0  0  0  0
    4.1224   -1.4604    1.0600 F   0  0  0  0  0  0  0  0  0  0  0  0
    2.8773    0.4106    1.6395 F   0  0  0  0  0  0  0  0  0  0  0  0
    1.8103   -1.5449    1.0990 F   0  0  0  0  0  0  0  0  0  0  0  0
  1  7  1  0  0  0  0
  2  1  1  0  0  0  0
  2  8  1  0  0  0  0
  3  2  2  0  0  0  0
  4  5  2  0  0  0  0
  4  3  1  0  0  0  0
  5  6  1  0  0  0  0
  6 11  1  0  0  0  0
  6  1  2  0  0  0  0
  9  4  1  0  0  0  0
 10  5  1  0  0  0  0
 11 12  2  0  0  0  0
 13 11  2  0  0  0  0
 14  3  1  0  0  0  0
 15 14  1  0  0  0  0
 16 18  1  0  0  0  0
 16 20  1  0  0  0  0
 16 19  1  0  0  0  0
 17 16  1  0  0  0  0
M  RAD  2  14   2  15   3
M  END
