Coordinates from ORCA-job p-NO2-Ph-N2-X-BF4-B3LYPG-6-31G_dp-scan-d09-49-n400
 OpenBabel08281821043D

 20 19  0  0  0  0  0  0  0  0999 V2000
   -0.9453    0.6414    1.2961 C   0  0  0  0  0  0  0  0  0  0  0  0
    0.3756    0.8145    0.8902 C   0  0  0  0  0  0  0  0  0  0  0  0
    0.5739    1.5379   -0.2957 C   0  0  0  0  0  0  0  0  0  0  0  0
   -0.4560    2.0787   -1.0836 C   0  0  0  0  0  0  0  0  0  0  0  0
   -1.7612    1.8837   -0.6589 C   0  0  0  0  0  0  0  0  0  0  0  0
   -1.9745    1.1726    0.5235 C   0  0  0  0  0  0  0  0  0  0  0  0
   -1.1787    0.0921    2.1996 H   0  0  0  0  0  0  0  0  0  0  0  0
    1.2124    0.3864    1.4457 H   0  0  0  0  0  0  0  0  0  0  0  0
   -0.2326    2.6224   -1.9942 H   0  0  0  0  0  0  0  0  0  0  0  0
   -2.6060    2.2663   -1.2161 H   0  0  0  0  0  0  0  0  0  0  0  0
   -3.3766    0.9753    0.9742 N   0  0  0  0  0  0  0  0  0  0  0  0
   -3.5452    0.3601    2.0200 O   0  0  0  0  0  0  0  0  0  0  0  0
   -4.2597    1.4471    0.2644 O   0  0  0  0  0  0  0  0  0  0  0  0
    1.8775    1.7639   -0.7176 N   0  0  0  0  0  0  0  0  0  0  0  0
    2.9504    1.9271   -0.9622 N   0  0  0  0  0  0  0  0  0  0  0  0
    3.3479   -0.6078    0.7924 B   0  0  0  0  0  0  0  0  0  0  0  0
    2.4817   -0.6901   -0.3371 F   0  0  0  0  0  0  0  0  0  0  0  0
    4.3785   -1.4988    0.7065 F   0  0  0  0  0  0  0  0  0  0  0  0
    3.8223    0.7453    0.8340 F   0  0  0  0  0  0  0  0  0  0  0  0
    2.5586   -0.7993    1.9517 F   0  0  0  0  0  0  0  0  0  0  0  0
  1  7  1  0  0  0  0
  2  1  1  0  0  0  0
  2  8  1  0  0  0  0
  3  2  2  0  0  0  0
  4  5  2  0  0  0  0
  4  3  1  0  0  0  0
  5  6  1  0  0  0  0
  6 11  1  0  0  0  0
  6  1  2  0  0  0  0
  9  4  1  0  0  0  0
 10  5  1  0  0  0  0
 11 12  2  0  0  0  0
 13 11  2  0  0  0  0
 14  3  1  0  0  0  0
 15 14  1  0  0  0  0
 16 19  1  0  0  0  0
 16 20  1  0  0  0  0
 17 16  1  0  0  0  0
 18 16  1  0  0  0  0
M  RAD  2  14   2  15   3
M  END
