Coordinates from ORCA-job p-NO2-Ph-N2-X-BF4-B3LYPG-6-31G_dp-scan-d09-49-n400
 OpenBabel08281821043D

 20 19  0  0  0  0  0  0  0  0999 V2000
   -0.9330    0.6529    1.3021 C   0  0  0  0  0  0  0  0  0  0  0  0
    0.3868    0.8276    0.8935 C   0  0  0  0  0  0  0  0  0  0  0  0
    0.5808    1.5419   -0.2986 C   0  0  0  0  0  0  0  0  0  0  0  0
   -0.4520    2.0720   -1.0900 C   0  0  0  0  0  0  0  0  0  0  0  0
   -1.7558    1.8761   -0.6619 C   0  0  0  0  0  0  0  0  0  0  0  0
   -1.9651    1.1744    0.5268 C   0  0  0  0  0  0  0  0  0  0  0  0
   -1.1629    0.1093    2.2099 H   0  0  0  0  0  0  0  0  0  0  0  0
    1.2230    0.4033    1.4511 H   0  0  0  0  0  0  0  0  0  0  0  0
   -0.2317    2.6082   -2.0058 H   0  0  0  0  0  0  0  0  0  0  0  0
   -2.6027    2.2507   -1.2214 H   0  0  0  0  0  0  0  0  0  0  0  0
   -3.3659    0.9758    0.9811 N   0  0  0  0  0  0  0  0  0  0  0  0
   -3.5307    0.3709    2.0334 O   0  0  0  0  0  0  0  0  0  0  0  0
   -4.2516    1.4365    0.2674 O   0  0  0  0  0  0  0  0  0  0  0  0
    1.8829    1.7683   -0.7241 N   0  0  0  0  0  0  0  0  0  0  0  0
    2.9546    1.9334   -0.9702 N   0  0  0  0  0  0  0  0  0  0  0  0
    3.3244   -0.6144    0.7903 B   0  0  0  0  0  0  0  0  0  0  0  0
    2.4931   -0.6857   -0.3658 F   0  0  0  0  0  0  0  0  0  0  0  0
    4.3917   -1.4609    0.7008 F   0  0  0  0  0  0  0  0  0  0  0  0
    3.7426    0.7548    0.8940 F   0  0  0  0  0  0  0  0  0  0  0  0
    2.5145   -0.8762    1.9203 F   0  0  0  0  0  0  0  0  0  0  0  0
  1  7  1  0  0  0  0
  2  1  1  0  0  0  0
  2  8  1  0  0  0  0
  3  2  2  0  0  0  0
  4  5  2  0  0  0  0
  4  3  1  0  0  0  0
  5  6  1  0  0  0  0
  6 11  1  0  0  0  0
  6  1  2  0  0  0  0
  9  4  1  0  0  0  0
 10  5  1  0  0  0  0
 11 12  2  0  0  0  0
 13 11  2  0  0  0  0
 14  3  1  0  0  0  0
 15 14  1  0  0  0  0
 16 19  1  0  0  0  0
 16 20  1  0  0  0  0
 17 16  1  0  0  0  0
 18 16  1  0  0  0  0
M  RAD  2  14   2  15   3
M  END
