Coordinates from ORCA-job p-NO2-Ph-N2-X-BF4-B3LYPG-6-31G_dp-scan-d09-49-n400
 OpenBabel08281821043D

 20 18  0  0  0  0  0  0  0  0999 V2000
   -0.4485    0.6034    0.8542 C   0  0  0  0  0  0  0  0  0  0  0  0
    0.7450    1.0876    0.2858 C   0  0  0  0  0  0  0  0  0  0  0  0
    0.5464    2.0787   -0.6882 C   0  0  0  0  0  0  0  0  0  0  0  0
   -0.6863    2.6187   -1.1333 C   0  0  0  0  0  0  0  0  0  0  0  0
   -1.8193    2.1109   -0.5373 C   0  0  0  0  0  0  0  0  0  0  0  0
   -1.6712    1.1132    0.4444 C   0  0  0  0  0  0  0  0  0  0  0  0
   -0.3880   -0.1782    1.6036 H   0  0  0  0  0  0  0  0  0  0  0  0
    1.9032    0.6419    0.6326 H   0  0  0  0  0  0  0  0  0  0  0  0
   -0.7339    3.3854   -1.8990 H   0  0  0  0  0  0  0  0  0  0  0  0
   -2.8101    2.4538   -0.8044 H   0  0  0  0  0  0  0  0  0  0  0  0
   -2.9171    0.5843    1.0659 N   0  0  0  0  0  0  0  0  0  0  0  0
   -2.7920   -0.2633    1.9386 O   0  0  0  0  0  0  0  0  0  0  0  0
   -3.9806    1.0425    0.6533 O   0  0  0  0  0  0  0  0  0  0  0  0
    1.7020    2.5631   -1.2741 N   0  0  0  0  0  0  0  0  0  0  0  0
    2.6531    2.9291   -1.7277 N   0  0  0  0  0  0  0  0  0  0  0  0
    2.7954   -1.2344    1.4804 B   0  0  0  0  0  0  0  0  0  0  0  0
    2.8491   -2.0356    0.3731 F   0  0  0  0  0  0  0  0  0  0  0  0
    3.8207   -1.3839    2.3609 F   0  0  0  0  0  0  0  0  0  0  0  0
    2.9345    0.2243    0.9258 F   0  0  0  0  0  0  0  0  0  0  0  0
    1.5405   -1.2228    2.0784 F   0  0  0  0  0  0  0  0  0  0  0  0
  1  7  1  0  0  0  0
  2  1  2  0  0  0  0
  3  2  1  0  0  0  0
  4  3  2  0  0  0  0
  4  5  1  0  0  0  0
  5  6  2  0  0  0  0
  6  1  1  0  0  0  0
  6 11  1  0  0  0  0
  8 19  1  0  0  0  0
  9  4  1  0  0  0  0
 10  5  1  0  0  0  0
 11 12  2  0  0  0  0
 13 11  2  0  0  0  0
 14  3  1  0  0  0  0
 15 14  1  0  0  0  0
 16 20  1  0  0  0  0
 16 18  1  0  0  0  0
 17 16  1  0  0  0  0
M  RAD  3   2   2  14   2  15   3
M  END
