Coordinates from ORCA-job p-NO2-Ph-N2-X-BF4-B3LYPG-6-31G_dp-scan-d09-49-n400
 OpenBabel08281821043D

 20 19  0  0  0  0  0  0  0  0999 V2000
   -0.8220    0.8480    1.4701 C   0  0  0  0  0  0  0  0  0  0  0  0
    0.4953    1.0840    1.0883 C   0  0  0  0  0  0  0  0  0  0  0  0
    0.6939    1.6202   -0.1904 C   0  0  0  0  0  0  0  0  0  0  0  0
   -0.3346    1.9205   -1.1018 C   0  0  0  0  0  0  0  0  0  0  0  0
   -1.6354    1.6698   -0.6975 C   0  0  0  0  0  0  0  0  0  0  0  0
   -1.8490    1.1457    0.5803 C   0  0  0  0  0  0  0  0  0  0  0  0
   -1.0531    0.4252    2.4393 H   0  0  0  0  0  0  0  0  0  0  0  0
    1.3708    0.8434    1.6857 H   0  0  0  0  0  0  0  0  0  0  0  0
   -0.1134    2.3240   -2.0828 H   0  0  0  0  0  0  0  0  0  0  0  0
   -2.4805    1.8700   -1.3431 H   0  0  0  0  0  0  0  0  0  0  0  0
   -3.2504    0.8936    1.0033 N   0  0  0  0  0  0  0  0  0  0  0  0
   -3.4220    0.4577    2.1352 O   0  0  0  0  0  0  0  0  0  0  0  0
   -4.1315    1.1468    0.1871 O   0  0  0  0  0  0  0  0  0  0  0  0
    1.9891    1.9269   -0.5949 N   0  0  0  0  0  0  0  0  0  0  0  0
    2.9694    2.2837   -0.9722 N   0  0  0  0  0  0  0  0  0  0  0  0
    2.9858   -0.7176    0.6080 B   0  0  0  0  0  0  0  0  0  0  0  0
    2.5919   -0.4467   -0.7361 F   0  0  0  0  0  0  0  0  0  0  0  0
    4.1495   -1.4321    0.6575 F   0  0  0  0  0  0  0  0  0  0  0  0
    3.1672    0.5888    1.2227 F   0  0  0  0  0  0  0  0  0  0  0  0
    1.9222   -1.3333    1.2742 F   0  0  0  0  0  0  0  0  0  0  0  0
  1  7  1  0  0  0  0
  2  1  1  0  0  0  0
  2  8  1  0  0  0  0
  3  2  2  0  0  0  0
  4  5  2  0  0  0  0
  4  3  1  0  0  0  0
  5  6  1  0  0  0  0
  6 11  1  0  0  0  0
  6  1  2  0  0  0  0
  9  4  1  0  0  0  0
 10  5  1  0  0  0  0
 11 12  2  0  0  0  0
 13 11  2  0  0  0  0
 14  3  1  0  0  0  0
 15 14  1  0  0  0  0
 16 18  1  0  0  0  0
 16 19  1  0  0  0  0
 16 20  1  0  0  0  0
 17 16  1  0  0  0  0
M  RAD  2  14   2  15   3
M  END
