Coordinates from ORCA-job p-NO2-Ph-N2-X-BF4-B3LYPG-6-31G_dp-scan-d09-49-n400
 OpenBabel08281821043D

 20 19  0  0  0  0  0  0  0  0999 V2000
   -0.9834    0.6107    1.2917 C   0  0  0  0  0  0  0  0  0  0  0  0
    0.3433    0.7835    0.9048 C   0  0  0  0  0  0  0  0  0  0  0  0
    0.5611    1.5269   -0.2650 C   0  0  0  0  0  0  0  0  0  0  0  0
   -0.4556    2.0908   -1.0542 C   0  0  0  0  0  0  0  0  0  0  0  0
   -1.7670    1.8951   -0.6496 C   0  0  0  0  0  0  0  0  0  0  0  0
   -1.9996    1.1613    0.5152 C   0  0  0  0  0  0  0  0  0  0  0  0
   -1.2327    0.0484    2.1829 H   0  0  0  0  0  0  0  0  0  0  0  0
    1.1822    0.3579    1.4612 H   0  0  0  0  0  0  0  0  0  0  0  0
   -0.2178    2.6526   -1.9502 H   0  0  0  0  0  0  0  0  0  0  0  0
   -2.6023    2.2950   -1.2089 H   0  0  0  0  0  0  0  0  0  0  0  0
   -3.4085    0.9631    0.9435 N   0  0  0  0  0  0  0  0  0  0  0  0
   -3.5948    0.3181    1.9682 O   0  0  0  0  0  0  0  0  0  0  0  0
   -4.2792    1.4634    0.2380 O   0  0  0  0  0  0  0  0  0  0  0  0
    1.8709    1.7578   -0.6680 N   0  0  0  0  0  0  0  0  0  0  0  0
    2.9335    1.9589   -0.9333 N   0  0  0  0  0  0  0  0  0  0  0  0
    3.4060   -0.5880    0.7769 B   0  0  0  0  0  0  0  0  0  0  0  0
    2.4280   -0.6914   -0.2583 F   0  0  0  0  0  0  0  0  0  0  0  0
    4.2814   -1.6352    0.7464 F   0  0  0  0  0  0  0  0  0  0  0  0
    4.0721    0.6610    0.5836 F   0  0  0  0  0  0  0  0  0  0  0  0
    2.7053   -0.5114    2.0080 F   0  0  0  0  0  0  0  0  0  0  0  0
  1  7  1  0  0  0  0
  2  1  1  0  0  0  0
  2  8  1  0  0  0  0
  3  2  2  0  0  0  0
  4  5  2  0  0  0  0
  4  3  1  0  0  0  0
  5  6  1  0  0  0  0
  6 11  1  0  0  0  0
  6  1  2  0  0  0  0
  9  4  1  0  0  0  0
 10  5  1  0  0  0  0
 11 12  2  0  0  0  0
 13 11  2  0  0  0  0
 14  3  1  0  0  0  0
 15 14  1  0  0  0  0
 16 20  1  0  0  0  0
 17 16  1  0  0  0  0
 18 16  1  0  0  0  0
 19 16  1  0  0  0  0
M  RAD  2  14   2  15   3
M  END
