Coordinates from ORCA-job p-NO2-Ph-N2-X-BF4-B3LYPG-6-31G_dp-scan-d09-49-n400
 OpenBabel08281821043D

 20 19  0  0  0  0  0  0  0  0999 V2000
   -1.0769    0.5842    1.3723 C   0  0  0  0  0  0  0  0  0  0  0  0
    0.2729    0.7669    1.0897 C   0  0  0  0  0  0  0  0  0  0  0  0
    0.5829    1.5102   -0.0566 C   0  0  0  0  0  0  0  0  0  0  0  0
   -0.3725    2.0653   -0.9237 C   0  0  0  0  0  0  0  0  0  0  0  0
   -1.7116    1.8570   -0.6271 C   0  0  0  0  0  0  0  0  0  0  0  0
   -2.0331    1.1240    0.5154 C   0  0  0  0  0  0  0  0  0  0  0  0
   -1.3938    0.0215    2.2415 H   0  0  0  0  0  0  0  0  0  0  0  0
    1.0747    0.3678    1.7019 H   0  0  0  0  0  0  0  0  0  0  0  0
   -0.0691    2.6269   -1.7997 H   0  0  0  0  0  0  0  0  0  0  0  0
   -2.5010    2.2485   -1.2551 H   0  0  0  0  0  0  0  0  0  0  0  0
   -3.4687    0.9129    0.8293 N   0  0  0  0  0  0  0  0  0  0  0  0
   -3.7308    0.2751    1.8422 O   0  0  0  0  0  0  0  0  0  0  0  0
   -4.2852    1.3961    0.0509 O   0  0  0  0  0  0  0  0  0  0  0  0
    1.9169    1.7615   -0.3760 N   0  0  0  0  0  0  0  0  0  0  0  0
    2.9412    2.0714   -0.6806 N   0  0  0  0  0  0  0  0  0  0  0  0
    3.4470   -0.5342    0.5505 B   0  0  0  0  0  0  0  0  0  0  0  0
    2.2795   -0.7157   -0.2514 F   0  0  0  0  0  0  0  0  0  0  0  0
    3.9700   -1.7259    0.9618 F   0  0  0  0  0  0  0  0  0  0  0  0
    4.3635    0.2294   -0.2112 F   0  0  0  0  0  0  0  0  0  0  0  0
    3.0371    0.2758    1.6588 F   0  0  0  0  0  0  0  0  0  0  0  0
  1  7  1  0  0  0  0
  2  1  1  0  0  0  0
  2  8  1  0  0  0  0
  3  2  2  0  0  0  0
  4  5  2  0  0  0  0
  4  3  1  0  0  0  0
  5  6  1  0  0  0  0
  6 11  1  0  0  0  0
  6  1  2  0  0  0  0
  9  4  1  0  0  0  0
 10  5  1  0  0  0  0
 11 12  2  0  0  0  0
 13 11  2  0  0  0  0
 14  3  1  0  0  0  0
 15 14  1  0  0  0  0
 16 18  1  0  0  0  0
 16 20  1  0  0  0  0
 17 16  1  0  0  0  0
 19 16  1  0  0  0  0
M  RAD  2  14   2  15   3
M  END
