Coordinates from ORCA-job p-NO2-Ph-N2-X-BF4-B3LYPG-6-31G_dp-scan-d09-49-n400
 OpenBabel08281821043D

 20 19  0  0  0  0  0  0  0  0999 V2000
   -0.9819    0.6071    1.2866 C   0  0  0  0  0  0  0  0  0  0  0  0
    0.3441    0.7756    0.8951 C   0  0  0  0  0  0  0  0  0  0  0  0
    0.5601    1.5212   -0.2735 C   0  0  0  0  0  0  0  0  0  0  0  0
   -0.4577    2.0908   -1.0574 C   0  0  0  0  0  0  0  0  0  0  0  0
   -1.7683    1.8993   -0.6482 C   0  0  0  0  0  0  0  0  0  0  0  0
   -1.9991    1.1637    0.5158 C   0  0  0  0  0  0  0  0  0  0  0  0
   -1.2298    0.0434    2.1773 H   0  0  0  0  0  0  0  0  0  0  0  0
    1.1818    0.3428    1.4482 H   0  0  0  0  0  0  0  0  0  0  0  0
   -0.2212    2.6539   -1.9529 H   0  0  0  0  0  0  0  0  0  0  0  0
   -2.6042    2.3037   -1.2033 H   0  0  0  0  0  0  0  0  0  0  0  0
   -3.4070    0.9697    0.9493 N   0  0  0  0  0  0  0  0  0  0  0  0
   -3.5917    0.3230    1.9732 O   0  0  0  0  0  0  0  0  0  0  0  0
   -4.2786    1.4752    0.2485 O   0  0  0  0  0  0  0  0  0  0  0  0
    1.8690    1.7497   -0.6810 N   0  0  0  0  0  0  0  0  0  0  0  0
    2.9323    1.9476   -0.9453 N   0  0  0  0  0  0  0  0  0  0  0  0
    3.4073   -0.5847    0.7856 B   0  0  0  0  0  0  0  0  0  0  0  0
    2.4423   -0.6947   -0.2609 F   0  0  0  0  0  0  0  0  0  0  0  0
    4.3041   -1.6132    0.7516 F   0  0  0  0  0  0  0  0  0  0  0  0
    4.0492    0.6806    0.6144 F   0  0  0  0  0  0  0  0  0  0  0  0
    2.6925   -0.5362    2.0098 F   0  0  0  0  0  0  0  0  0  0  0  0
  1  7  1  0  0  0  0
  2  1  1  0  0  0  0
  2  8  1  0  0  0  0
  3  2  2  0  0  0  0
  4  5  2  0  0  0  0
  4  3  1  0  0  0  0
  5  6  1  0  0  0  0
  6 11  1  0  0  0  0
  6  1  2  0  0  0  0
  9  4  1  0  0  0  0
 10  5  1  0  0  0  0
 11 12  2  0  0  0  0
 13 11  2  0  0  0  0
 14  3  1  0  0  0  0
 15 14  1  0  0  0  0
 16 20  1  0  0  0  0
 17 16  1  0  0  0  0
 18 16  1  0  0  0  0
 19 16  1  0  0  0  0
M  RAD  2  14   2  15   3
M  END
