Coordinates from ORCA-job p-NO2-Ph-N2-X-BF4-B3LYPG-6-31G_dp-scan-d09-49-n400
 OpenBabel08281821043D

 20 19  0  0  0  0  0  0  0  0999 V2000
   -1.3175    1.3920    1.8685 C   0  0  0  0  0  0  0  0  0  0  0  0
    0.0471    1.6419    1.8356 C   0  0  0  0  0  0  0  0  0  0  0  0
    0.6937    1.5470    0.5987 C   0  0  0  0  0  0  0  0  0  0  0  0
    0.0718    1.1911   -0.6024 C   0  0  0  0  0  0  0  0  0  0  0  0
   -1.2979    0.9642   -0.5504 C   0  0  0  0  0  0  0  0  0  0  0  0
   -1.9605    1.0746    0.6719 C   0  0  0  0  0  0  0  0  0  0  0  0
   -1.8849    1.4368    2.7893 H   0  0  0  0  0  0  0  0  0  0  0  0
    0.6272    1.8682    2.7217 H   0  0  0  0  0  0  0  0  0  0  0  0
    0.6781    1.0560   -1.4909 H   0  0  0  0  0  0  0  0  0  0  0  0
   -1.8539    0.6840   -1.4360 H   0  0  0  0  0  0  0  0  0  0  0  0
   -3.4230    0.8285    0.7081 N   0  0  0  0  0  0  0  0  0  0  0  0
   -3.9757    0.9122    1.8005 O   0  0  0  0  0  0  0  0  0  0  0  0
   -3.9717    0.5624   -0.3554 O   0  0  0  0  0  0  0  0  0  0  0  0
    2.0505    1.8521    0.6112 N   0  0  0  0  0  0  0  0  0  0  0  0
    3.1197    2.1397    0.7094 N   0  0  0  0  0  0  0  0  0  0  0  0
    3.1475   -0.4496   -0.6672 B   0  0  0  0  0  0  0  0  0  0  0  0
    2.6552    0.5380   -1.5858 F   0  0  0  0  0  0  0  0  0  0  0  0
    3.5732   -1.5711   -1.3155 F   0  0  0  0  0  0  0  0  0  0  0  0
    4.1797    0.1684    0.0846 F   0  0  0  0  0  0  0  0  0  0  0  0
    2.0843   -0.7177    0.2371 F   0  0  0  0  0  0  0  0  0  0  0  0
  1  7  1  0  0  0  0
  2  1  1  0  0  0  0
  2  8  1  0  0  0  0
  3 14  1  0  0  0  0
  3  2  2  0  0  0  0
  4  5  2  0  0  0  0
  4  3  1  0  0  0  0
  5  6  1  0  0  0  0
  6 11  1  0  0  0  0
  6  1  2  0  0  0  0
  9  4  1  0  0  0  0
 10  5  1  0  0  0  0
 11 12  2  0  0  0  0
 13 11  2  0  0  0  0
 14 15  1  0  0  0  0
 16 19  1  0  0  0  0
 16 20  1  0  0  0  0
 17 16  1  0  0  0  0
 18 16  1  0  0  0  0
M  RAD  2  14   2  15   3
M  END
