Coordinates from ORCA-job p-NO2-Ph-N2-X-BF4-B3LYPG-6-31G_dp-scan-d09-49-n400
 OpenBabel08281821043D

 20 19  0  0  0  0  0  0  0  0999 V2000
   -0.8168    0.8452    1.4650 C   0  0  0  0  0  0  0  0  0  0  0  0
    0.4992    1.0830    1.0791 C   0  0  0  0  0  0  0  0  0  0  0  0
    0.6921    1.6236   -0.1986 C   0  0  0  0  0  0  0  0  0  0  0  0
   -0.3393    1.9278   -1.1055 C   0  0  0  0  0  0  0  0  0  0  0  0
   -1.6384    1.6757   -0.6967 C   0  0  0  0  0  0  0  0  0  0  0  0
   -1.8469    1.1463    0.5801 C   0  0  0  0  0  0  0  0  0  0  0  0
   -1.0442    0.4182    2.4333 H   0  0  0  0  0  0  0  0  0  0  0  0
    1.3826    0.8412    1.6674 H   0  0  0  0  0  0  0  0  0  0  0  0
   -0.1218    2.3352   -2.0858 H   0  0  0  0  0  0  0  0  0  0  0  0
   -2.4861    1.8782   -1.3380 H   0  0  0  0  0  0  0  0  0  0  0  0
   -3.2468    0.8915    1.0066 N   0  0  0  0  0  0  0  0  0  0  0  0
   -3.4144    0.4503    2.1370 O   0  0  0  0  0  0  0  0  0  0  0  0
   -4.1308    1.1475    0.1944 O   0  0  0  0  0  0  0  0  0  0  0  0
    1.9872    1.9280   -0.6044 N   0  0  0  0  0  0  0  0  0  0  0  0
    2.9708    2.2783   -0.9791 N   0  0  0  0  0  0  0  0  0  0  0  0
    2.9817   -0.7206    0.6179 B   0  0  0  0  0  0  0  0  0  0  0  0
    2.6026   -0.4479   -0.7295 F   0  0  0  0  0  0  0  0  0  0  0  0
    4.1507   -1.4250    0.6803 F   0  0  0  0  0  0  0  0  0  0  0  0
    3.1460    0.5870    1.2392 F   0  0  0  0  0  0  0  0  0  0  0  0
    1.9155   -1.3448    1.2704 F   0  0  0  0  0  0  0  0  0  0  0  0
  1  7  1  0  0  0  0
  2  1  1  0  0  0  0
  2  8  1  0  0  0  0
  3  2  2  0  0  0  0
  4  5  2  0  0  0  0
  4  3  1  0  0  0  0
  5  6  1  0  0  0  0
  6 11  1  0  0  0  0
  6  1  2  0  0  0  0
  9  4  1  0  0  0  0
 10  5  1  0  0  0  0
 11 12  2  0  0  0  0
 13 11  2  0  0  0  0
 14  3  1  0  0  0  0
 15 14  1  0  0  0  0
 16 18  1  0  0  0  0
 16 19  1  0  0  0  0
 16 20  1  0  0  0  0
 17 16  1  0  0  0  0
M  RAD  2  14   2  15   3
M  END
