Coordinates from ORCA-job p-NO2-Ph-N2-X-BF4-B3LYPG-6-31G_dp-scan-d09-49-n400
 OpenBabel08281821043D

 20 19  0  0  0  0  0  0  0  0999 V2000
   -0.8705    0.7961    1.4368 C   0  0  0  0  0  0  0  0  0  0  0  0
    0.4538    1.0048    1.0634 C   0  0  0  0  0  0  0  0  0  0  0  0
    0.6691    1.5812   -0.1950 C   0  0  0  0  0  0  0  0  0  0  0  0
   -0.3536    1.9490   -1.0873 C   0  0  0  0  0  0  0  0  0  0  0  0
   -1.6628    1.7258   -0.6917 C   0  0  0  0  0  0  0  0  0  0  0  0
   -1.8913    1.1591    0.5635 C   0  0  0  0  0  0  0  0  0  0  0  0
   -1.1123    0.3438    2.3901 H   0  0  0  0  0  0  0  0  0  0  0  0
    1.2880    0.6961    1.6805 H   0  0  0  0  0  0  0  0  0  0  0  0
   -0.1211    2.3835   -2.0524 H   0  0  0  0  0  0  0  0  0  0  0  0
   -2.5005    1.9794   -1.3280 H   0  0  0  0  0  0  0  0  0  0  0  0
   -3.2984    0.9307    0.9802 N   0  0  0  0  0  0  0  0  0  0  0  0
   -3.4799    0.4466    2.0906 O   0  0  0  0  0  0  0  0  0  0  0  0
   -4.1730    1.2489    0.1801 O   0  0  0  0  0  0  0  0  0  0  0  0
    1.9669    1.8642   -0.6119 N   0  0  0  0  0  0  0  0  0  0  0  0
    2.9452    2.2058   -1.0074 N   0  0  0  0  0  0  0  0  0  0  0  0
    3.1040   -0.6817    0.6500 B   0  0  0  0  0  0  0  0  0  0  0  0
    2.4842   -0.5319   -0.6318 F   0  0  0  0  0  0  0  0  0  0  0  0
    4.2513   -1.4198    0.5654 F   0  0  0  0  0  0  0  0  0  0  0  0
    3.3814    0.6601    1.0983 F   0  0  0  0  0  0  0  0  0  0  0  0
    2.1624   -1.2230    1.5396 F   0  0  0  0  0  0  0  0  0  0  0  0
  1  7  1  0  0  0  0
  2  1  1  0  0  0  0
  2  8  1  0  0  0  0
  3  2  2  0  0  0  0
  4  5  2  0  0  0  0
  4  3  1  0  0  0  0
  5  6  1  0  0  0  0
  6 11  1  0  0  0  0
  6  1  2  0  0  0  0
  9  4  1  0  0  0  0
 10  5  1  0  0  0  0
 11 12  2  0  0  0  0
 13 11  2  0  0  0  0
 14  3  1  0  0  0  0
 15 14  1  0  0  0  0
 16 19  1  0  0  0  0
 16 20  1  0  0  0  0
 17 16  1  0  0  0  0
 18 16  1  0  0  0  0
M  RAD  2  14   2  15   3
M  END
