Coordinates from ORCA-job p-NO2-Ph-N2-X-BF4-B3LYPG-6-31G_dp-scan-d09-49-n400
 OpenBabel08281821043D

 20 18  0  0  0  0  0  0  0  0999 V2000
   -0.4473    0.6043    0.8515 C   0  0  0  0  0  0  0  0  0  0  0  0
    0.7465    1.0891    0.2828 C   0  0  0  0  0  0  0  0  0  0  0  0
    0.5452    2.0808   -0.6901 C   0  0  0  0  0  0  0  0  0  0  0  0
   -0.6881    2.6208   -1.1340 C   0  0  0  0  0  0  0  0  0  0  0  0
   -1.8204    2.1119   -0.5377 C   0  0  0  0  0  0  0  0  0  0  0  0
   -1.6706    1.1136    0.4432 C   0  0  0  0  0  0  0  0  0  0  0  0
   -0.3869   -0.1776    1.6005 H   0  0  0  0  0  0  0  0  0  0  0  0
    1.9126    0.6386    0.6333 H   0  0  0  0  0  0  0  0  0  0  0  0
   -0.7366    3.3881   -1.8990 H   0  0  0  0  0  0  0  0  0  0  0  0
   -2.8116    2.4545   -0.8036 H   0  0  0  0  0  0  0  0  0  0  0  0
   -2.9157    0.5834    1.0653 N   0  0  0  0  0  0  0  0  0  0  0  0
   -2.7894   -0.2647    1.9375 O   0  0  0  0  0  0  0  0  0  0  0  0
   -3.9799    1.0412    0.6541 O   0  0  0  0  0  0  0  0  0  0  0  0
    1.6997    2.5672   -1.2769 N   0  0  0  0  0  0  0  0  0  0  0  0
    2.6499    2.9347   -1.7310 N   0  0  0  0  0  0  0  0  0  0  0  0
    2.7938   -1.2400    1.4852 B   0  0  0  0  0  0  0  0  0  0  0  0
    2.8457   -2.0394    0.3775 F   0  0  0  0  0  0  0  0  0  0  0  0
    3.8217   -1.3859    2.3622 F   0  0  0  0  0  0  0  0  0  0  0  0
    2.9333    0.2229    0.9273 F   0  0  0  0  0  0  0  0  0  0  0  0
    1.5411   -1.2248    2.0848 F   0  0  0  0  0  0  0  0  0  0  0  0
  1  7  1  0  0  0  0
  2  1  2  0  0  0  0
  3  2  1  0  0  0  0
  4  3  2  0  0  0  0
  4  5  1  0  0  0  0
  5  6  2  0  0  0  0
  6  1  1  0  0  0  0
  6 11  1  0  0  0  0
  8 19  1  0  0  0  0
  9  4  1  0  0  0  0
 10  5  1  0  0  0  0
 11 12  2  0  0  0  0
 13 11  2  0  0  0  0
 14  3  1  0  0  0  0
 15 14  1  0  0  0  0
 16 20  1  0  0  0  0
 16 18  1  0  0  0  0
 17 16  1  0  0  0  0
M  RAD  3   2   2  14   2  15   3
M  END
