Coordinates from ORCA-job p-NO2-Ph-N2-X-BF4-B3LYPG-6-31G_dp-scan-d09-49-n400
 OpenBabel08281821043D

 20 19  0  0  0  0  0  0  0  0999 V2000
   -0.8233    0.8482    1.4708 C   0  0  0  0  0  0  0  0  0  0  0  0
    0.4943    1.0842    1.0899 C   0  0  0  0  0  0  0  0  0  0  0  0
    0.6939    1.6198   -0.1889 C   0  0  0  0  0  0  0  0  0  0  0  0
   -0.3340    1.9192   -1.1012 C   0  0  0  0  0  0  0  0  0  0  0  0
   -1.6351    1.6685   -0.6978 C   0  0  0  0  0  0  0  0  0  0  0  0
   -1.8496    1.1452    0.5802 C   0  0  0  0  0  0  0  0  0  0  0  0
   -1.0550    0.4261    2.4402 H   0  0  0  0  0  0  0  0  0  0  0  0
    1.3684    0.8440    1.6892 H   0  0  0  0  0  0  0  0  0  0  0  0
   -0.1120    2.3222   -2.0822 H   0  0  0  0  0  0  0  0  0  0  0  0
   -2.4797    1.8681   -1.3443 H   0  0  0  0  0  0  0  0  0  0  0  0
   -3.2513    0.8934    1.0023 N   0  0  0  0  0  0  0  0  0  0  0  0
   -3.4237    0.4599    2.1350 O   0  0  0  0  0  0  0  0  0  0  0  0
   -4.1319    1.1476    0.1860 O   0  0  0  0  0  0  0  0  0  0  0  0
    1.9891    1.9270   -0.5931 N   0  0  0  0  0  0  0  0  0  0  0  0
    2.9690    2.2848   -0.9706 N   0  0  0  0  0  0  0  0  0  0  0  0
    2.9872   -0.7172    0.6063 B   0  0  0  0  0  0  0  0  0  0  0  0
    2.5900   -0.4461   -0.7369 F   0  0  0  0  0  0  0  0  0  0  0  0
    4.1493   -1.4345    0.6527 F   0  0  0  0  0  0  0  0  0  0  0  0
    3.1734    0.5888    1.2197 F   0  0  0  0  0  0  0  0  0  0  0  0
    1.9239   -1.3305    1.2755 F   0  0  0  0  0  0  0  0  0  0  0  0
  1  7  1  0  0  0  0
  2  1  1  0  0  0  0
  2  8  1  0  0  0  0
  3  2  2  0  0  0  0
  4  5  2  0  0  0  0
  4  3  1  0  0  0  0
  5  6  1  0  0  0  0
  6 11  1  0  0  0  0
  6  1  2  0  0  0  0
  9  4  1  0  0  0  0
 10  5  1  0  0  0  0
 11 12  2  0  0  0  0
 13 11  2  0  0  0  0
 14  3  1  0  0  0  0
 15 14  1  0  0  0  0
 16 18  1  0  0  0  0
 16 19  1  0  0  0  0
 16 20  1  0  0  0  0
 17 16  1  0  0  0  0
M  RAD  2  14   2  15   3
M  END
