Coordinates from ORCA-job p-NO2-Ph-N2-X-BF4-B3LYPG-6-31G_dp-scan-d09-49-n400
 OpenBabel08281821043D

 20 19  0  0  0  0  0  0  0  0999 V2000
   -1.0917    0.6000    1.3975 C   0  0  0  0  0  0  0  0  0  0  0  0
    0.2614    0.7803    1.1311 C   0  0  0  0  0  0  0  0  0  0  0  0
    0.5875    1.5056   -0.0224 C   0  0  0  0  0  0  0  0  0  0  0  0
   -0.3576    2.0409   -0.9126 C   0  0  0  0  0  0  0  0  0  0  0  0
   -1.7008    1.8342   -0.6325 C   0  0  0  0  0  0  0  0  0  0  0  0
   -2.0375    1.1222    0.5183 C   0  0  0  0  0  0  0  0  0  0  0  0
   -1.4195    0.0516    2.2717 H   0  0  0  0  0  0  0  0  0  0  0  0
    1.0476    0.3870    1.7649 H   0  0  0  0  0  0  0  0  0  0  0  0
   -0.0432    2.5873   -1.7943 H   0  0  0  0  0  0  0  0  0  0  0  0
   -2.4813    2.2119   -1.2797 H   0  0  0  0  0  0  0  0  0  0  0  0
   -3.4766    0.9142    0.8168 N   0  0  0  0  0  0  0  0  0  0  0  0
   -3.7510    0.2972    1.8395 O   0  0  0  0  0  0  0  0  0  0  0  0
   -4.2834    1.3791    0.0175 O   0  0  0  0  0  0  0  0  0  0  0  0
    1.9237    1.7660   -0.3299 N   0  0  0  0  0  0  0  0  0  0  0  0
    2.9411    2.0994   -0.6314 N   0  0  0  0  0  0  0  0  0  0  0  0
    3.4537   -0.5316    0.5031 B   0  0  0  0  0  0  0  0  0  0  0  0
    2.2802   -0.6933   -0.2961 F   0  0  0  0  0  0  0  0  0  0  0  0
    3.9509   -1.7324    0.9207 F   0  0  0  0  0  0  0  0  0  0  0  0
    4.3850    0.2106   -0.2597 F   0  0  0  0  0  0  0  0  0  0  0  0
    3.0543    0.2887    1.6104 F   0  0  0  0  0  0  0  0  0  0  0  0
  1  7  1  0  0  0  0
  2  1  1  0  0  0  0
  2  8  1  0  0  0  0
  3  2  2  0  0  0  0
  4  5  2  0  0  0  0
  4  3  1  0  0  0  0
  5  6  1  0  0  0  0
  6 11  1  0  0  0  0
  6  1  2  0  0  0  0
  9  4  1  0  0  0  0
 10  5  1  0  0  0  0
 11 12  2  0  0  0  0
 13 11  2  0  0  0  0
 14  3  1  0  0  0  0
 15 14  1  0  0  0  0
 16 18  1  0  0  0  0
 16 20  1  0  0  0  0
 17 16  1  0  0  0  0
 19 16  1  0  0  0  0
M  RAD  2  14   2  15   3
M  END
