Coordinates from ORCA-job p-NO2-Ph-N2-X-BF4-B3LYPG-6-31G_dp-scan-d09-49-n400
 OpenBabel08281821043D

 20 19  0  0  0  0  0  0  0  0999 V2000
   -1.0756    0.5822    1.3695 C   0  0  0  0  0  0  0  0  0  0  0  0
    0.2738    0.7648    1.0850 C   0  0  0  0  0  0  0  0  0  0  0  0
    0.5823    1.5102   -0.0604 C   0  0  0  0  0  0  0  0  0  0  0  0
   -0.3742    2.0677   -0.9248 C   0  0  0  0  0  0  0  0  0  0  0  0
   -1.7129    1.8596   -0.6264 C   0  0  0  0  0  0  0  0  0  0  0  0
   -2.0328    1.1243    0.5151 C   0  0  0  0  0  0  0  0  0  0  0  0
   -1.3914    0.0181    2.2380 H   0  0  0  0  0  0  0  0  0  0  0  0
    1.0771    0.3647    1.6948 H   0  0  0  0  0  0  0  0  0  0  0  0
   -0.0719    2.6309   -1.8002 H   0  0  0  0  0  0  0  0  0  0  0  0
   -2.5031    2.2529   -1.2522 H   0  0  0  0  0  0  0  0  0  0  0  0
   -3.4681    0.9133    0.8308 N   0  0  0  0  0  0  0  0  0  0  0  0
   -3.7290    0.2732    1.8426 O   0  0  0  0  0  0  0  0  0  0  0  0
   -4.2856    1.3988    0.0548 O   0  0  0  0  0  0  0  0  0  0  0  0
    1.9160    1.7604   -0.3812 N   0  0  0  0  0  0  0  0  0  0  0  0
    2.9409    2.0680   -0.6864 N   0  0  0  0  0  0  0  0  0  0  0  0
    3.4470   -0.5341    0.5557 B   0  0  0  0  0  0  0  0  0  0  0  0
    2.2804   -0.7182   -0.2468 F   0  0  0  0  0  0  0  0  0  0  0  0
    3.9730   -1.7246    0.9666 F   0  0  0  0  0  0  0  0  0  0  0  0
    4.3618    0.2320   -0.2057 F   0  0  0  0  0  0  0  0  0  0  0  0
    3.0354    0.2745    1.6640 F   0  0  0  0  0  0  0  0  0  0  0  0
  1  7  1  0  0  0  0
  2  1  1  0  0  0  0
  2  8  1  0  0  0  0
  3  2  2  0  0  0  0
  4  5  2  0  0  0  0
  4  3  1  0  0  0  0
  5  6  1  0  0  0  0
  6 11  1  0  0  0  0
  6  1  2  0  0  0  0
  9  4  1  0  0  0  0
 10  5  1  0  0  0  0
 11 12  2  0  0  0  0
 13 11  2  0  0  0  0
 14  3  1  0  0  0  0
 15 14  1  0  0  0  0
 16 18  1  0  0  0  0
 16 20  1  0  0  0  0
 17 16  1  0  0  0  0
 19 16  1  0  0  0  0
M  RAD  2  14   2  15   3
M  END
