Coordinates from ORCA-job p-NO2-Ph-N2-X-BF4-B3LYPG-6-31G_dp-scan-d09-49-n400
 OpenBabel08281821043D

 20 19  0  0  0  0  0  0  0  0999 V2000
   -0.9096    0.6739    1.3299 C   0  0  0  0  0  0  0  0  0  0  0  0
    0.4119    0.8402    0.9235 C   0  0  0  0  0  0  0  0  0  0  0  0
    0.6114    1.5246   -0.2839 C   0  0  0  0  0  0  0  0  0  0  0  0
   -0.4201    2.0362   -1.0914 C   0  0  0  0  0  0  0  0  0  0  0  0
   -1.7252    1.8514   -0.6634 C   0  0  0  0  0  0  0  0  0  0  0  0
   -1.9393    1.1772    0.5402 C   0  0  0  0  0  0  0  0  0  0  0  0
   -1.1419    0.1486    2.2478 H   0  0  0  0  0  0  0  0  0  0  0  0
    1.2422    0.4260    1.4914 H   0  0  0  0  0  0  0  0  0  0  0  0
   -0.1975    2.5503   -2.0192 H   0  0  0  0  0  0  0  0  0  0  0  0
   -2.5693    2.2138   -1.2351 H   0  0  0  0  0  0  0  0  0  0  0  0
   -3.3417    0.9874    0.9929 N   0  0  0  0  0  0  0  0  0  0  0  0
   -3.5104    0.4046    2.0569 O   0  0  0  0  0  0  0  0  0  0  0  0
   -4.2245    1.4326    0.2658 O   0  0  0  0  0  0  0  0  0  0  0  0
    1.9080    1.7554   -0.7274 N   0  0  0  0  0  0  0  0  0  0  0  0
    2.9322    2.0010   -1.0755 N   0  0  0  0  0  0  0  0  0  0  0  0
    3.2583   -0.6175    0.7807 B   0  0  0  0  0  0  0  0  0  0  0  0
    2.5192   -0.6568   -0.4428 F   0  0  0  0  0  0  0  0  0  0  0  0
    4.4214   -1.3282    0.6894 F   0  0  0  0  0  0  0  0  0  0  0  0
    3.5052    0.7719    1.0393 F   0  0  0  0  0  0  0  0  0  0  0  0
    2.4128   -1.0740    1.8138 F   0  0  0  0  0  0  0  0  0  0  0  0
  1  7  1  0  0  0  0
  2  1  1  0  0  0  0
  2  8  1  0  0  0  0
  3  2  2  0  0  0  0
  4  5  2  0  0  0  0
  4  3  1  0  0  0  0
  5  6  1  0  0  0  0
  6 11  1  0  0  0  0
  6  1  2  0  0  0  0
  9  4  1  0  0  0  0
 10  5  1  0  0  0  0
 11 12  2  0  0  0  0
 13 11  2  0  0  0  0
 14  3  1  0  0  0  0
 15 14  1  0  0  0  0
 16 19  1  0  0  0  0
 16 20  1  0  0  0  0
 17 16  1  0  0  0  0
 18 16  1  0  0  0  0
M  RAD  2  14   2  15   3
M  END
