Coordinates from ORCA-job p-NO2-Ph-N2-X-BF4-B3LYPG-6-31G_dp-scan-d09-49-n400
 OpenBabel08281821043D

 20 19  0  0  0  0  0  0  0  0999 V2000
   -0.8301    0.8524    1.4770 C   0  0  0  0  0  0  0  0  0  0  0  0
    0.4894    1.0851    1.1009 C   0  0  0  0  0  0  0  0  0  0  0  0
    0.6957    1.6150   -0.1789 C   0  0  0  0  0  0  0  0  0  0  0  0
   -0.3286    1.9100   -1.0966 C   0  0  0  0  0  0  0  0  0  0  0  0
   -1.6319    1.6619   -0.6987 C   0  0  0  0  0  0  0  0  0  0  0  0
   -1.8527    1.1456    0.5807 C   0  0  0  0  0  0  0  0  0  0  0  0
   -1.0663    0.4359    2.4478 H   0  0  0  0  0  0  0  0  0  0  0  0
    1.3534    0.8457    1.7121 H   0  0  0  0  0  0  0  0  0  0  0  0
   -0.1018    2.3084   -2.0784 H   0  0  0  0  0  0  0  0  0  0  0  0
   -2.4731    1.8592   -1.3502 H   0  0  0  0  0  0  0  0  0  0  0  0
   -3.2561    0.8976    0.9988 N   0  0  0  0  0  0  0  0  0  0  0  0
   -3.4331    0.4678    2.1322 O   0  0  0  0  0  0  0  0  0  0  0  0
   -4.1331    1.1459    0.1768 O   0  0  0  0  0  0  0  0  0  0  0  0
    1.9908    1.9252   -0.5814 N   0  0  0  0  0  0  0  0  0  0  0  0
    2.9665    2.2907   -0.9622 N   0  0  0  0  0  0  0  0  0  0  0  0
    2.9935   -0.7137    0.5941 B   0  0  0  0  0  0  0  0  0  0  0  0
    2.5791   -0.4450   -0.7453 F   0  0  0  0  0  0  0  0  0  0  0  0
    4.1486   -1.4433    0.6258 F   0  0  0  0  0  0  0  0  0  0  0  0
    3.1991    0.5908    1.1992 F   0  0  0  0  0  0  0  0  0  0  0  0
    1.9338   -1.3166    1.2791 F   0  0  0  0  0  0  0  0  0  0  0  0
  1  7  1  0  0  0  0
  2  1  1  0  0  0  0
  2  8  1  0  0  0  0
  3  2  2  0  0  0  0
  4  5  2  0  0  0  0
  4  3  1  0  0  0  0
  5  6  1  0  0  0  0
  6 11  1  0  0  0  0
  6  1  2  0  0  0  0
  9  4  1  0  0  0  0
 10  5  1  0  0  0  0
 11 12  2  0  0  0  0
 13 11  2  0  0  0  0
 14  3  1  0  0  0  0
 15 14  1  0  0  0  0
 16 18  1  0  0  0  0
 16 19  1  0  0  0  0
 16 20  1  0  0  0  0
 17 16  1  0  0  0  0
M  RAD  2  14   2  15   3
M  END
