Coordinates from ORCA-job p-NO2-Ph-N2-X-BF4-B3LYPG-6-31G_dp-scan-d09-49-n400
 OpenBabel08281821043D

 20 19  0  0  0  0  0  0  0  0999 V2000
   -1.0781    0.5863    1.3753 C   0  0  0  0  0  0  0  0  0  0  0  0
    0.2721    0.7692    1.0946 C   0  0  0  0  0  0  0  0  0  0  0  0
    0.5836    1.5105   -0.0527 C   0  0  0  0  0  0  0  0  0  0  0  0
   -0.3707    2.0628   -0.9225 C   0  0  0  0  0  0  0  0  0  0  0  0
   -1.7103    1.8542   -0.6279 C   0  0  0  0  0  0  0  0  0  0  0  0
   -2.0332    1.1237    0.5157 C   0  0  0  0  0  0  0  0  0  0  0  0
   -1.3960    0.0253    2.2451 H   0  0  0  0  0  0  0  0  0  0  0  0
    1.0724    0.3713    1.7092 H   0  0  0  0  0  0  0  0  0  0  0  0
   -0.0663    2.6226   -1.7994 H   0  0  0  0  0  0  0  0  0  0  0  0
   -2.4988    2.2438   -1.2582 H   0  0  0  0  0  0  0  0  0  0  0  0
   -3.4692    0.9124    0.8278 N   0  0  0  0  0  0  0  0  0  0  0  0
   -3.7326    0.2770    1.8419 O   0  0  0  0  0  0  0  0  0  0  0  0
   -4.2848    1.3931    0.0468 O   0  0  0  0  0  0  0  0  0  0  0  0
    1.9178    1.7628   -0.3705 N   0  0  0  0  0  0  0  0  0  0  0  0
    2.9417    2.0751   -0.6744 N   0  0  0  0  0  0  0  0  0  0  0  0
    3.4468   -0.5343    0.5450 B   0  0  0  0  0  0  0  0  0  0  0  0
    2.2783   -0.7128   -0.2564 F   0  0  0  0  0  0  0  0  0  0  0  0
    3.9663   -1.7274    0.9567 F   0  0  0  0  0  0  0  0  0  0  0  0
    4.3651    0.2266   -0.2168 F   0  0  0  0  0  0  0  0  0  0  0  0
    3.0389    0.2768    1.6535 F   0  0  0  0  0  0  0  0  0  0  0  0
  1  7  1  0  0  0  0
  2  1  1  0  0  0  0
  2  8  1  0  0  0  0
  3  2  2  0  0  0  0
  4  5  2  0  0  0  0
  4  3  1  0  0  0  0
  5  6  1  0  0  0  0
  6 11  1  0  0  0  0
  6  1  2  0  0  0  0
  9  4  1  0  0  0  0
 10  5  1  0  0  0  0
 11 12  2  0  0  0  0
 13 11  2  0  0  0  0
 14  3  1  0  0  0  0
 15 14  1  0  0  0  0
 16 18  1  0  0  0  0
 16 20  1  0  0  0  0
 17 16  1  0  0  0  0
 19 16  1  0  0  0  0
M  RAD  2  14   2  15   3
M  END
