Coordinates from ORCA-job p-NO2-Ph-N2-X-BF4-B3LYPG-6-31G_dp-scan-d09-49-n400
 OpenBabel08281821043D

 20 19  0  0  0  0  0  0  0  0999 V2000
   -0.9706    0.6137    1.2846 C   0  0  0  0  0  0  0  0  0  0  0  0
    0.3535    0.7822    0.8864 C   0  0  0  0  0  0  0  0  0  0  0  0
    0.5628    1.5246   -0.2856 C   0  0  0  0  0  0  0  0  0  0  0  0
   -0.4595    2.0914   -1.0656 C   0  0  0  0  0  0  0  0  0  0  0  0
   -1.7678    1.9009   -0.6491 C   0  0  0  0  0  0  0  0  0  0  0  0
   -1.9922    1.1675    0.5177 C   0  0  0  0  0  0  0  0  0  0  0  0
   -1.2132    0.0510    2.1774 H   0  0  0  0  0  0  0  0  0  0  0  0
    1.1904    0.3466    1.4384 H   0  0  0  0  0  0  0  0  0  0  0  0
   -0.2278    2.6520   -1.9639 H   0  0  0  0  0  0  0  0  0  0  0  0
   -2.6069    2.3034   -1.2009 H   0  0  0  0  0  0  0  0  0  0  0  0
   -3.3978    0.9718    0.9578 N   0  0  0  0  0  0  0  0  0  0  0  0
   -3.5769    0.3257    1.9830 O   0  0  0  0  0  0  0  0  0  0  0  0
   -4.2734    1.4751    0.2603 O   0  0  0  0  0  0  0  0  0  0  0  0
    1.8693    1.7485   -0.7020 N   0  0  0  0  0  0  0  0  0  0  0  0
    2.9369    1.9318   -0.9587 N   0  0  0  0  0  0  0  0  0  0  0  0
    3.3919   -0.5897    0.7956 B   0  0  0  0  0  0  0  0  0  0  0  0
    2.4539   -0.7009   -0.2738 F   0  0  0  0  0  0  0  0  0  0  0  0
    4.3338   -1.5762    0.7440 F   0  0  0  0  0  0  0  0  0  0  0  0
    3.9820    0.7091    0.6814 F   0  0  0  0  0  0  0  0  0  0  0  0
    2.6545   -0.6099    2.0058 F   0  0  0  0  0  0  0  0  0  0  0  0
  1  7  1  0  0  0  0
  2  1  1  0  0  0  0
  2  8  1  0  0  0  0
  3  2  2  0  0  0  0
  4  5  2  0  0  0  0
  4  3  1  0  0  0  0
  5  6  1  0  0  0  0
  6 11  1  0  0  0  0
  6  1  2  0  0  0  0
  9  4  1  0  0  0  0
 10  5  1  0  0  0  0
 11 12  2  0  0  0  0
 13 11  2  0  0  0  0
 14  3  1  0  0  0  0
 15 14  1  0  0  0  0
 16 20  1  0  0  0  0
 17 16  1  0  0  0  0
 18 16  1  0  0  0  0
 19 16  1  0  0  0  0
M  RAD  2  14   2  15   3
M  END
