Coordinates from ORCA-job p-NO2-Ph-N2-X-BF4-B3LYPG-6-31G_dp-scan-d09-49-n400
 OpenBabel08281821043D

 20 19  0  0  0  0  0  0  0  0999 V2000
   -1.1132    0.6722    1.4741 C   0  0  0  0  0  0  0  0  0  0  0  0
    0.2453    0.8699    1.2536 C   0  0  0  0  0  0  0  0  0  0  0  0
    0.6062    1.5274    0.0701 C   0  0  0  0  0  0  0  0  0  0  0  0
   -0.3131    1.9798   -0.8892 C   0  0  0  0  0  0  0  0  0  0  0  0
   -1.6627    1.7576   -0.6530 C   0  0  0  0  0  0  0  0  0  0  0  0
   -2.0333    1.1127    0.5255 C   0  0  0  0  0  0  0  0  0  0  0  0
   -1.4649    0.1715    2.3673 H   0  0  0  0  0  0  0  0  0  0  0  0
    0.9967    0.5255    1.9519 H   0  0  0  0  0  0  0  0  0  0  0  0
    0.0262    2.4749   -1.7915 H   0  0  0  0  0  0  0  0  0  0  0  0
   -2.4220    2.0738   -1.3562 H   0  0  0  0  0  0  0  0  0  0  0  0
   -3.4777    0.8873    0.7787 N   0  0  0  0  0  0  0  0  0  0  0  0
   -3.7800    0.3286    1.8269 O   0  0  0  0  0  0  0  0  0  0  0  0
   -4.2612    1.2811   -0.0796 O   0  0  0  0  0  0  0  0  0  0  0  0
    1.9459    1.8159   -0.2030 N   0  0  0  0  0  0  0  0  0  0  0  0
    2.9565    2.1849   -0.4815 N   0  0  0  0  0  0  0  0  0  0  0  0
    3.4286   -0.5497    0.3711 B   0  0  0  0  0  0  0  0  0  0  0  0
    2.2458   -0.6144   -0.4309 F   0  0  0  0  0  0  0  0  0  0  0  0
    3.8571   -1.7922    0.7403 F   0  0  0  0  0  0  0  0  0  0  0  0
    4.3992    0.1714   -0.3586 F   0  0  0  0  0  0  0  0  0  0  0  0
    3.0635    0.2406    1.5168 F   0  0  0  0  0  0  0  0  0  0  0  0
  1  7  1  0  0  0  0
  2  1  1  0  0  0  0
  2  8  1  0  0  0  0
  3  2  2  0  0  0  0
  4  5  2  0  0  0  0
  4  3  1  0  0  0  0
  5  6  1  0  0  0  0
  6 11  1  0  0  0  0
  6  1  2  0  0  0  0
  9  4  1  0  0  0  0
 10  5  1  0  0  0  0
 11 12  2  0  0  0  0
 13 11  2  0  0  0  0
 14  3  1  0  0  0  0
 15 14  1  0  0  0  0
 16 18  1  0  0  0  0
 16 20  1  0  0  0  0
 17 16  1  0  0  0  0
 19 16  1  0  0  0  0
M  RAD  2  14   2  15   3
M  END
