Coordinates from ORCA-job p-NO2-Ph-N2-X-BF4-B3LYPG-6-31G_dp-scan-d09-49-n400
 OpenBabel08281821043D

 20 19  0  0  0  0  0  0  0  0999 V2000
   -1.1184    0.6900    1.4920 C   0  0  0  0  0  0  0  0  0  0  0  0
    0.2411    0.8916    1.2818 C   0  0  0  0  0  0  0  0  0  0  0  0
    0.6107    1.5316    0.0913 C   0  0  0  0  0  0  0  0  0  0  0  0
   -0.3016    1.9638   -0.8836 C   0  0  0  0  0  0  0  0  0  0  0  0
   -1.6523    1.7384   -0.6571 C   0  0  0  0  0  0  0  0  0  0  0  0
   -2.0315    1.1104    0.5277 C   0  0  0  0  0  0  0  0  0  0  0  0
   -1.4763    0.2014    2.3895 H   0  0  0  0  0  0  0  0  0  0  0  0
    0.9843    0.5597    1.9946 H   0  0  0  0  0  0  0  0  0  0  0  0
    0.0442    2.4458   -1.7905 H   0  0  0  0  0  0  0  0  0  0  0  0
   -2.4061    2.0396   -1.3729 H   0  0  0  0  0  0  0  0  0  0  0  0
   -3.4771    0.8815    0.7704 N   0  0  0  0  0  0  0  0  0  0  0  0
   -3.7867    0.3374    1.8241 O   0  0  0  0  0  0  0  0  0  0  0  0
   -4.2541    1.2580   -0.1015 O   0  0  0  0  0  0  0  0  0  0  0  0
    1.9509    1.8269   -0.1730 N   0  0  0  0  0  0  0  0  0  0  0  0
    2.9602    2.2041   -0.4446 N   0  0  0  0  0  0  0  0  0  0  0  0
    3.4211   -0.5532    0.3394 B   0  0  0  0  0  0  0  0  0  0  0  0
    2.2384   -0.5965   -0.4649 F   0  0  0  0  0  0  0  0  0  0  0  0
    3.8364   -1.8043    0.6948 F   0  0  0  0  0  0  0  0  0  0  0  0
    4.3996    0.1668   -0.3799 F   0  0  0  0  0  0  0  0  0  0  0  0
    3.0602    0.2256    1.4955 F   0  0  0  0  0  0  0  0  0  0  0  0
  1  7  1  0  0  0  0
  2  1  1  0  0  0  0
  2  8  1  0  0  0  0
  3  2  2  0  0  0  0
  4  5  2  0  0  0  0
  4  3  1  0  0  0  0
  5  6  1  0  0  0  0
  6 11  1  0  0  0  0
  6  1  2  0  0  0  0
  9  4  1  0  0  0  0
 10  5  1  0  0  0  0
 11 12  2  0  0  0  0
 13 11  2  0  0  0  0
 14  3  1  0  0  0  0
 15 14  1  0  0  0  0
 16 18  1  0  0  0  0
 16 20  1  0  0  0  0
 17 16  1  0  0  0  0
 19 16  1  0  0  0  0
M  RAD  2  14   2  15   3
M  END
