Ph-N2+.log
 OpenBabel05181815553D
Gaussian home/ubuntu/g09/g09 # opt freq rb3lyp/6-31G(d,p)
 13 13  0  0  0  0  0  0  0  0999 V2000
    1.4825    1.2234    0.0000 C   0  0  0  0  0  0  0  0  0  0  0  0
    0.0966    1.2464   -0.0000 C   0  0  0  0  0  0  0  0  0  0  0  0
   -0.5645   -0.0000   -0.0000 C   0  0  0  0  0  0  0  0  0  0  0  0
    0.0966   -1.2464   -0.0000 C   0  0  0  0  0  0  0  0  0  0  0  0
    1.4825   -1.2234   -0.0000 C   0  0  0  0  0  0  0  0  0  0  0  0
    2.1685    0.0000    0.0000 C   0  0  0  0  0  0  0  0  0  0  0  0
    2.0317    2.1583    0.0000 H   0  0  0  0  0  0  0  0  0  0  0  0
   -0.4640    2.1744   -0.0000 H   0  0  0  0  0  0  0  0  0  0  0  0
   -1.9396    0.0000    0.0000 N   0  0  0  0  0  0  0  0  0  0  0  0
   -3.0550   -0.0000    0.0000 N   0  0  0  0  0  0  0  0  0  0  0  0
    3.2537    0.0000    0.0000 H   0  0  0  0  0  0  0  0  0  0  0  0
    2.0317   -2.1583    0.0000 H   0  0  0  0  0  0  0  0  0  0  0  0
   -0.4640   -2.1744   -0.0000 H   0  0  0  0  0  0  0  0  0  0  0  0
  1  6  2  0  0  0  0
  1  7  1  0  0  0  0
  2  3  2  0  0  0  0
  2  8  1  0  0  0  0
  2  1  1  0  0  0  0
  3  4  1  0  0  0  0
  3  9  1  0  0  0  0
  4  5  2  0  0  0  0
  5  6  1  0  0  0  0
  5 12  1  0  0  0  0
  6 11  1  0  0  0  0
  9 10  1  0  0  0  0
 13  4  1  0  0  0  0
M  RAD  2   9   2  10   3
M  END
