x2-2-HOOC-Ph-N2-OTf-v2.log
 OpenBabel05181815563D
Gaussian home/ubuntu/g09/g09 # opt freq rb3lyp/6-31G(d,p)
 40 39  0  0  0  0  0  0  0  0999 V2000
    3.7663    0.0018    1.7046 C   0  0  0  0  0  0  0  0  0  0  0  0
    4.2188   -0.2963    0.4091 C   0  0  0  0  0  0  0  0  0  0  0  0
    5.4779   -0.8910    0.1354 C   0  0  0  0  0  0  0  0  0  0  0  0
    6.2755   -1.1847    1.2368 C   0  0  0  0  0  0  0  0  0  0  0  0
    5.8495   -0.8983    2.5391 C   0  0  0  0  0  0  0  0  0  0  0  0
    4.6063   -0.3088    2.7708 C   0  0  0  0  0  0  0  0  0  0  0  0
    2.7928    0.4722    1.8286 H   0  0  0  0  0  0  0  0  0  0  0  0
    7.2406   -1.6415    1.0484 H   0  0  0  0  0  0  0  0  0  0  0  0
    6.4994   -1.1376    3.3745 H   0  0  0  0  0  0  0  0  0  0  0  0
    4.2820   -0.0842    3.7810 H   0  0  0  0  0  0  0  0  0  0  0  0
    3.3541    0.0338   -0.6239 N   0  0  0  0  0  0  0  0  0  0  0  0
    2.6265    0.3032   -1.4216 N   0  0  0  0  0  0  0  0  0  0  0  0
    0.0103    1.0808    0.3922 S   0  0  0  0  0  0  0  0  0  0  0  0
    0.1860   -0.0905   -0.5198 O   0  0  0  0  0  0  0  0  0  0  0  0
   -1.2057    0.9939    1.2326 O   0  0  0  0  0  0  0  0  0  0  0  0
    1.2582    1.4976    1.0718 O   0  0  0  0  0  0  0  0  0  0  0  0
   -0.3474    2.4883   -0.7698 C   0  0  0  0  0  0  0  0  0  0  0  0
   -1.5062    2.2447   -1.4205 F   0  0  0  0  0  0  0  0  0  0  0  0
    0.6291    2.6047   -1.6789 F   0  0  0  0  0  0  0  0  0  0  0  0
   -0.4684    3.6378   -0.1090 F   0  0  0  0  0  0  0  0  0  0  0  0
   -1.8455   -0.8401   -0.3808 H   0  0  0  0  0  0  0  0  0  0  0  0
   -2.8015   -1.3589   -0.3565 C   0  0  0  0  0  0  0  0  0  0  0  0
   -3.9869   -0.6945   -0.0126 C   0  0  0  0  0  0  0  0  0  0  0  0
   -2.8999   -2.7159   -0.6616 C   0  0  0  0  0  0  0  0  0  0  0  0
   -5.2528   -1.3232    0.0390 C   0  0  0  0  0  0  0  0  0  0  0  0
   -4.1318   -3.3686   -0.6178 C   0  0  0  0  0  0  0  0  0  0  0  0
   -1.9996   -3.2560   -0.9327 H   0  0  0  0  0  0  0  0  0  0  0  0
   -5.3001   -2.6779   -0.2694 C   0  0  0  0  0  0  0  0  0  0  0  0
   -4.1919   -4.4254   -0.8565 H   0  0  0  0  0  0  0  0  0  0  0  0
   -6.2551   -3.1881   -0.2369 H   0  0  0  0  0  0  0  0  0  0  0  0
   -3.8740    0.6605    0.2800 N   0  0  0  0  0  0  0  0  0  0  0  0
   -3.6070    1.7188    0.4890 N   0  0  0  0  0  0  0  0  0  0  0  0
   -6.4621   -0.5291    0.4131 C   0  0  0  0  0  0  0  0  0  0  0  0
   -6.4099    0.6553    0.6727 O   0  0  0  0  0  0  0  0  0  0  0  0
   -7.5775   -1.2650    0.4244 O   0  0  0  0  0  0  0  0  0  0  0  0
   -8.3179   -0.6844    0.6744 H   0  0  0  0  0  0  0  0  0  0  0  0
    6.0276   -1.2313   -1.2193 C   0  0  0  0  0  0  0  0  0  0  0  0
    7.1070   -1.7462   -1.3787 O   0  0  0  0  0  0  0  0  0  0  0  0
    5.1898   -0.8992   -2.2220 O   0  0  0  0  0  0  0  0  0  0  0  0
    5.6220   -1.1441   -3.0593 H   0  0  0  0  0  0  0  0  0  0  0  0
  1  7  1  0  0  0  0
  1  6  2  0  0  0  0
  2  1  1  0  0  0  0
  3  2  2  0  0  0  0
  3  4  1  0  0  0  0
  4  5  2  0  0  0  0
  5  6  1  0  0  0  0
  5  9  1  0  0  0  0
  6 10  1  0  0  0  0
  8  4  1  0  0  0  0
 11  2  1  0  0  0  0
 12 11  1  0  0  0  0
 13 16  2  0  0  0  0
 13 15  1  0  0  0  0
 14 13  2  0  0  0  0
 17 20  1  0  0  0  0
 17 13  1  0  0  0  0
 18 17  1  0  0  0  0
 19 17  1  0  0  0  0
 21 22  1  0  0  0  0
 22 23  2  0  0  0  0
 23 25  1  0  0  0  0
 23 31  1  0  0  0  0
 24 26  2  0  0  0  0
 24 22  1  0  0  0  0
 25 33  1  0  0  0  0
 26 28  1  0  0  0  0
 27 24  1  0  0  0  0
 28 30  1  0  0  0  0
 28 25  2  0  0  0  0
 29 26  1  0  0  0  0
 31 32  1  0  0  0  0
 33 35  1  0  0  0  0
 33 34  2  0  0  0  0
 35 36  1  0  0  0  0
 37  3  1  0  0  0  0
 38 37  2  0  0  0  0
 39 37  1  0  0  0  0
 40 39  1  0  0  0  0
M  RAD  5  11   2  12   3  15   2  31   2  32   3
M  END
