x2-4-Br-Ph-N2-OTf-v1.log
 OpenBabel05181815563D
Gaussian home/ubuntu/g09/g09 # opt freq rb3lyp/6-31G(d,p)
 34 33  0  0  0  0  0  0  0  0999 V2000
   -4.1378   -0.2839   -0.1724 C   0  0  0  0  0  0  0  0  0  0  0  0
   -4.3769    1.0393    0.2423 C   0  0  0  0  0  0  0  0  0  0  0  0
   -5.6526    1.5249    0.5985 C   0  0  0  0  0  0  0  0  0  0  0  0
   -6.7177    0.6456    0.5408 C   0  0  0  0  0  0  0  0  0  0  0  0
   -6.5010   -0.6819    0.1328 C   0  0  0  0  0  0  0  0  0  0  0  0
   -5.2251   -1.1419   -0.2222 C   0  0  0  0  0  0  0  0  0  0  0  0
   -3.1315   -0.5829   -0.4522 H   0  0  0  0  0  0  0  0  0  0  0  0
   -5.7890    2.5544    0.9100 H   0  0  0  0  0  0  0  0  0  0  0  0
   -7.7141    0.9767    0.8074 H   0  0  0  0  0  0  0  0  0  0  0  0
   -5.0879   -2.1688   -0.5390 H   0  0  0  0  0  0  0  0  0  0  0  0
   -3.3245    1.9258    0.3162 N   0  0  0  0  0  0  0  0  0  0  0  0
   -2.5058    2.6786    0.4103 N   0  0  0  0  0  0  0  0  0  0  0  0
   -0.0771    0.5114   -0.2895 S   0  0  0  0  0  0  0  0  0  0  0  0
   -0.2874    1.4135    0.8809 O   0  0  0  0  0  0  0  0  0  0  0  0
    0.8475   -0.6118   -0.0118 O   0  0  0  0  0  0  0  0  0  0  0  0
   -1.3243    0.1753   -1.0120 O   0  0  0  0  0  0  0  0  0  0  0  0
    0.8752    1.5693   -1.4850 C   0  0  0  0  0  0  0  0  0  0  0  0
    2.0599    1.9048   -0.9204 F   0  0  0  0  0  0  0  0  0  0  0  0
    0.2094    2.6915   -1.7664 F   0  0  0  0  0  0  0  0  0  0  0  0
    1.1258    0.9098   -2.6164 F   0  0  0  0  0  0  0  0  0  0  0  0
    2.8546   -0.8104   -0.2794 H   0  0  0  0  0  0  0  0  0  0  0  0
    3.8209   -0.5971    0.1672 C   0  0  0  0  0  0  0  0  0  0  0  0
    3.8910    0.2130    1.3150 C   0  0  0  0  0  0  0  0  0  0  0  0
    5.0125   -1.0957   -0.3348 C   0  0  0  0  0  0  0  0  0  0  0  0
    5.1006    0.5340    1.9670 C   0  0  0  0  0  0  0  0  0  0  0  0
    6.2260   -0.7862    0.2952 C   0  0  0  0  0  0  0  0  0  0  0  0
    5.0050   -1.7255   -1.2162 H   0  0  0  0  0  0  0  0  0  0  0  0
    6.2735    0.0252    1.4417 C   0  0  0  0  0  0  0  0  0  0  0  0
    5.1062    1.1626    2.8504 H   0  0  0  0  0  0  0  0  0  0  0  0
    7.2239    0.2496    1.9105 H   0  0  0  0  0  0  0  0  0  0  0  0
    2.7362    0.7324    1.8598 N   0  0  0  0  0  0  0  0  0  0  0  0
    1.8580    1.1974    2.3694 N   0  0  0  0  0  0  0  0  0  0  0  0
    7.8308   -1.4711   -0.4055 Br  0  0  0  0  0  0  0  0  0  0  0  0
   -7.9609   -1.8642    0.0600 Br  0  0  0  0  0  0  0  0  0  0  0  0
  1  2  1  0  0  0  0
  2 11  1  0  0  0  0
  2  3  2  0  0  0  0
  3  8  1  0  0  0  0
  4  3  1  0  0  0  0
  4  9  1  0  0  0  0
  5  4  2  0  0  0  0
  6  1  2  0  0  0  0
  6  5  1  0  0  0  0
  7  1  1  0  0  0  0
 10  6  1  0  0  0  0
 11 12  1  0  0  0  0
 13 15  2  0  0  0  0
 13 14  1  0  0  0  0
 16 13  2  0  0  0  0
 17 18  1  0  0  0  0
 17 13  1  0  0  0  0
 19 17  1  0  0  0  0
 20 17  1  0  0  0  0
 21 22  1  0  0  0  0
 22 23  1  0  0  0  0
 23 31  1  0  0  0  0
 23 25  2  0  0  0  0
 24 22  2  0  0  0  0
 24 26  1  0  0  0  0
 25 29  1  0  0  0  0
 26 28  2  0  0  0  0
 27 24  1  0  0  0  0
 28 30  1  0  0  0  0
 28 25  1  0  0  0  0
 31 32  1  0  0  0  0
 33 26  1  0  0  0  0
 34  5  1  0  0  0  0
M  RAD  5  11   2  12   3  14   2  31   2  32   3
M  END
