2-NO2-Ph-N2+.log
 OpenBabel05181815553D
Gaussian home/ubuntu/g09/g09 # opt freq rb3lyp/6-31G(d,p)
 15 15  0  0  0  0  0  0  0  0999 V2000
    2.6324    0.2406    0.0000 C   0  0  0  0  0  0  0  0  0  0  0  0
    1.6405    1.2185   -0.0007 C   0  0  0  0  0  0  0  0  0  0  0  0
    0.2997    0.7994   -0.0005 C   0  0  0  0  0  0  0  0  0  0  0  0
   -0.0499   -0.5669   -0.0002 C   0  0  0  0  0  0  0  0  0  0  0  0
    0.9471   -1.5215    0.0005 C   0  0  0  0  0  0  0  0  0  0  0  0
    2.2902   -1.1143    0.0006 C   0  0  0  0  0  0  0  0  0  0  0  0
    3.6738    0.5435    0.0005 H   0  0  0  0  0  0  0  0  0  0  0  0
    1.8854    2.2751   -0.0014 H   0  0  0  0  0  0  0  0  0  0  0  0
   -0.6629    1.7980   -0.0008 N   0  0  0  0  0  0  0  0  0  0  0  0
   -1.2757    2.7278    0.0013 N   0  0  0  0  0  0  0  0  0  0  0  0
    3.0708   -1.8680    0.0010 H   0  0  0  0  0  0  0  0  0  0  0  0
    0.6652   -2.5685    0.0008 H   0  0  0  0  0  0  0  0  0  0  0  0
   -1.4699   -0.9697   -0.0001 N   0  0  0  0  0  0  0  0  0  0  0  0
   -2.2817   -0.0418    0.0001 O   0  0  0  0  0  0  0  0  0  0  0  0
   -1.7178   -2.1594   -0.0003 O   0  0  0  0  0  0  0  0  0  0  0  0
  1  7  1  0  0  0  0
  1  6  2  0  0  0  0
  2  3  2  0  0  0  0
  2  1  1  0  0  0  0
  3  4  1  0  0  0  0
  4 13  1  0  0  0  0
  4  5  2  0  0  0  0
  5  6  1  0  0  0  0
  5 12  1  0  0  0  0
  6 11  1  0  0  0  0
  8  2  1  0  0  0  0
  9  3  1  0  0  0  0
  9 10  1  0  0  0  0
 13 14  2  0  0  0  0
 15 13  2  0  0  0  0
M  RAD  2   9   2  10   3
M  END
