Ph-N2-OTf.log
 OpenBabel05181815553D
Gaussian home/ubuntu/g09/g09 # opt freq rb3lyp/6-31G(d,p)
 21 20  0  0  0  0  0  0  0  0999 V2000
    4.4029   -0.0359    0.4361 C   0  0  0  0  0  0  0  0  0  0  0  0
    3.4305    0.9340    0.6459 C   0  0  0  0  0  0  0  0  0  0  0  0
    2.1772    0.7516    0.0474 C   0  0  0  0  0  0  0  0  0  0  0  0
    1.8581   -0.3585   -0.7525 C   0  0  0  0  0  0  0  0  0  0  0  0
    2.8530   -1.3116   -0.9418 C   0  0  0  0  0  0  0  0  0  0  0  0
    4.1128   -1.1528   -0.3550 C   0  0  0  0  0  0  0  0  0  0  0  0
    5.3827    0.0767    0.8869 H   0  0  0  0  0  0  0  0  0  0  0  0
    3.6192    1.8111    1.2545 H   0  0  0  0  0  0  0  0  0  0  0  0
    0.8673   -0.4420   -1.1832 H   0  0  0  0  0  0  0  0  0  0  0  0
    2.6410   -2.1836   -1.5510 H   0  0  0  0  0  0  0  0  0  0  0  0
    1.2078    1.7321    0.2670 N   0  0  0  0  0  0  0  0  0  0  0  0
    0.1646    2.1717    0.1538 N   0  0  0  0  0  0  0  0  0  0  0  0
   -2.2376    0.4654   -0.4212 S   0  0  0  0  0  0  0  0  0  0  0  0
   -1.6496   -1.0002    0.5681 C   0  0  0  0  0  0  0  0  0  0  0  0
   -2.7070    1.4225    0.5834 O   0  0  0  0  0  0  0  0  0  0  0  0
   -3.1757   -0.0829   -1.3997 O   0  0  0  0  0  0  0  0  0  0  0  0
   -0.9122    0.8871   -1.0749 O   0  0  0  0  0  0  0  0  0  0  0  0
   -0.6570   -0.6180    1.4059 F   0  0  0  0  0  0  0  0  0  0  0  0
   -2.6335   -1.5297    1.2937 F   0  0  0  0  0  0  0  0  0  0  0  0
   -1.1474   -1.9525   -0.2393 F   0  0  0  0  0  0  0  0  0  0  0  0
    4.8767   -1.9071   -0.5153 H   0  0  0  0  0  0  0  0  0  0  0  0
  1  2  1  0  0  0  0
  1  7  1  0  0  0  0
  2  8  1  0  0  0  0
  3 11  1  0  0  0  0
  3  2  2  0  0  0  0
  4  3  1  0  0  0  0
  5  4  2  0  0  0  0
  5  6  1  0  0  0  0
  6  1  2  0  0  0  0
  9  4  1  0  0  0  0
 10  5  1  0  0  0  0
 12 11  2  0  0  0  0
 13 14  1  0  0  0  0
 13 15  1  0  0  0  0
 14 19  1  0  0  0  0
 14 18  1  0  0  0  0
 16 13  2  0  0  0  0
 17 13  2  0  0  0  0
 20 14  1  0  0  0  0
 21  6  1  0  0  0  0
M  RAD  2  12   2  15   2
M  END
