22
Coordinates from ORCA-job p-CH3O-Ph-N2-BF4-B3LYPG-aug-cc-pVDZ-scan-d09-49-n400
  C   -1.04531123132212      0.23734196634795      1.28852335145980
  C   0.33949254464615      0.45766168279073      1.27751328532612
  C   0.81099030423632      1.72661647254601      0.98850187055838
  C   -0.03742090938624      2.79160085839673      0.70253634161152
  C   -1.41214169264377      2.56863484252080      0.71410186885017
  C   -1.92346070986455      1.29316581062666      1.00743812310922
  H   -1.41465054985575     -0.75912816832664      1.51643228746830
  H   1.03638813650728     -0.35090526790109      1.49021705912756
  H   0.37567870935347      3.77265430209922      0.47403231335742
  H   -2.10913661215744      3.37639876854086      0.49558733097190
  N   1.53936593442569      0.47447915854713     -3.69248313219154
  N   0.91772501700351      0.01889966887282     -4.48373366010201
  B   4.18672338078245      0.41674852605328      1.30596226535607
  F   3.85093754689500     -0.37055876164671      0.28896340818630
  F   3.78485733734085      0.10372807921894      2.53432312527401
  F   4.99096650641175      1.45291012116079      1.11100172392207
  F   2.16763386824812      1.95033451796444      0.96830471282612
  O   -3.28672624620596      1.18445022449114      0.99228841437506
  C   -3.86207861246690     -0.08486401622729      1.28174659008980
  H   -4.94497885050496      0.05726096780078      1.21556026316798
  H   -3.59816472742614     -0.42097317776037      2.29654993731670
  H   -3.54678914401664     -0.84305657611615      0.54813251993904
