Coordinates from ORCA-job p-NO2-Ph-N2-BF4-B3LYPG-aug-cc-pVDZ-scan-d09-49-n400
 OpenBabel10311713223D

 20 18  0  0  0  0  0  0  0  0999 V2000
   -1.4082   -0.6320    0.2046 C   0  0  0  0  0  0  0  0  0  0  0  0
   -0.0142   -0.6568    0.1974 C   0  0  0  0  0  0  0  0  0  0  0  0
    0.6663    0.5349    0.4281 C   0  0  0  0  0  0  0  0  0  0  0  0
    0.0282    1.7487    0.6648 C   0  0  0  0  0  0  0  0  0  0  0  0
   -1.3660    1.7685    0.6718 C   0  0  0  0  0  0  0  0  0  0  0  0
   -2.0619    0.5794    0.4419 C   0  0  0  0  0  0  0  0  0  0  0  0
   -1.9905   -1.5329    0.0300 H   0  0  0  0  0  0  0  0  0  0  0  0
    0.5398   -1.5756    0.0156 H   0  0  0  0  0  0  0  0  0  0  0  0
    0.6136    2.6489    0.8398 H   0  0  0  0  0  0  0  0  0  0  0  0
   -1.9167    2.6882    0.8515 H   0  0  0  0  0  0  0  0  0  0  0  0
   -3.5361    0.6037    0.4484 N   0  0  0  0  0  0  0  0  0  0  0  0
   -4.1255   -0.4548    0.2437 O   0  0  0  0  0  0  0  0  0  0  0  0
   -4.0886    1.6804    0.6599 O   0  0  0  0  0  0  0  0  0  0  0  0
    2.2813    1.4703   -3.6104 N   0  0  0  0  0  0  0  0  0  0  0  0
    2.8079    1.4779   -4.5812 N   0  0  0  0  0  0  0  0  0  0  0  0
    3.6893    1.5573    2.1684 B   0  0  0  0  0  0  0  0  0  0  0  0
    2.0282    0.5101    0.4116 F   0  0  0  0  0  0  0  0  0  0  0  0
    3.2648    0.7193    3.1060 F   0  0  0  0  0  0  0  0  0  0  0  0
    4.7177    1.2332    1.3975 F   0  0  0  0  0  0  0  0  0  0  0  0
    3.1139    2.7505    2.0437 F   0  0  0  0  0  0  0  0  0  0  0  0
  1  6  1  0  0  0  0
  2  1  2  0  0  0  0
  2  3  1  0  0  0  0
  3  4  2  0  0  0  0
  4  5  1  0  0  0  0
  4  9  1  0  0  0  0
  5 10  1  0  0  0  0
  6 11  1  0  0  0  0
  6  5  2  0  0  0  0
  7  1  1  0  0  0  0
  8  2  1  0  0  0  0
 11 13  2  0  0  0  0
 12 11  2  0  0  0  0
 15 14  3  0  0  0  0
 16 18  1  0  0  0  0
 17  3  1  0  0  0  0
 19 16  1  0  0  0  0
 20 16  1  0  0  0  0
M  END
