Coordinates from ORCA-job p-NO2-Ph-N2-BF4-B3LYPG-aug-cc-pVDZ-scan-d09-49-n400
 OpenBabel10311713223D

 20 18  0  0  0  0  0  0  0  0999 V2000
   -1.4133   -0.6340    0.2142 C   0  0  0  0  0  0  0  0  0  0  0  0
   -0.0193   -0.6592    0.2061 C   0  0  0  0  0  0  0  0  0  0  0  0
    0.6611    0.5326    0.4351 C   0  0  0  0  0  0  0  0  0  0  0  0
    0.0240    1.7471    0.6699 C   0  0  0  0  0  0  0  0  0  0  0  0
   -1.3702    1.7673    0.6777 C   0  0  0  0  0  0  0  0  0  0  0  0
   -2.0665    0.5779    0.4503 C   0  0  0  0  0  0  0  0  0  0  0  0
   -1.9961   -1.5350    0.0410 H   0  0  0  0  0  0  0  0  0  0  0  0
    0.5347   -1.5781    0.0248 H   0  0  0  0  0  0  0  0  0  0  0  0
    0.6101    2.6474    0.8426 H   0  0  0  0  0  0  0  0  0  0  0  0
   -1.9206    2.6874    0.8560 H   0  0  0  0  0  0  0  0  0  0  0  0
   -3.5407    0.6026    0.4578 N   0  0  0  0  0  0  0  0  0  0  0  0
   -4.1305   -0.4548    0.2487 O   0  0  0  0  0  0  0  0  0  0  0  0
   -4.0927    1.6810    0.6616 O   0  0  0  0  0  0  0  0  0  0  0  0
    2.3166    1.4825   -3.6611 N   0  0  0  0  0  0  0  0  0  0  0  0
    2.8465    1.4897   -4.6302 N   0  0  0  0  0  0  0  0  0  0  0  0
    3.6871    1.5564    2.1700 B   0  0  0  0  0  0  0  0  0  0  0  0
    2.0235    0.5075    0.4169 F   0  0  0  0  0  0  0  0  0  0  0  0
    3.2678    0.7158    3.1076 F   0  0  0  0  0  0  0  0  0  0  0  0
    4.7138    1.2364    1.3953 F   0  0  0  0  0  0  0  0  0  0  0  0
    3.1081    2.7483    2.0491 F   0  0  0  0  0  0  0  0  0  0  0  0
  1  6  1  0  0  0  0
  2  1  2  0  0  0  0
  2  3  1  0  0  0  0
  3  4  2  0  0  0  0
  4  5  1  0  0  0  0
  4  9  1  0  0  0  0
  5 10  1  0  0  0  0
  6 11  1  0  0  0  0
  6  5  2  0  0  0  0
  7  1  1  0  0  0  0
  8  2  1  0  0  0  0
 11 13  2  0  0  0  0
 12 11  2  0  0  0  0
 15 14  3  0  0  0  0
 16 18  1  0  0  0  0
 17  3  1  0  0  0  0
 19 16  1  0  0  0  0
 20 16  1  0  0  0  0
M  END
