Coordinates from ORCA-job p-NO2-Ph-N2-BF4-B3LYPG-aug-cc-pVDZ-scan-d09-49-n400
 OpenBabel10311713223D

 20 19  0  0  0  0  0  0  0  0999 V2000
   -0.9952   -0.4588   -0.0189 C   0  0  0  0  0  0  0  0  0  0  0  0
    0.2253   -0.2573   -0.6567 C   0  0  0  0  0  0  0  0  0  0  0  0
    0.6411    1.0655   -0.7768 C   0  0  0  0  0  0  0  0  0  0  0  0
   -0.0199    2.1921   -0.2962 C   0  0  0  0  0  0  0  0  0  0  0  0
   -1.2376    1.9623    0.3374 C   0  0  0  0  0  0  0  0  0  0  0  0
   -1.6970    0.6500    0.4561 C   0  0  0  0  0  0  0  0  0  0  0  0
   -1.3937   -1.4586    0.1297 H   0  0  0  0  0  0  0  0  0  0  0  0
    0.8407   -1.0823   -1.0029 H   0  0  0  0  0  0  0  0  0  0  0  0
    0.4137    3.1846   -0.3746 H   0  0  0  0  0  0  0  0  0  0  0  0
   -1.8181    2.7810    0.7537 H   0  0  0  0  0  0  0  0  0  0  0  0
   -3.0001    0.4192    1.1372 N   0  0  0  0  0  0  0  0  0  0  0  0
   -3.3888   -0.7387    1.2235 O   0  0  0  0  0  0  0  0  0  0  0  0
   -3.6036    1.4059    1.5391 O   0  0  0  0  0  0  0  0  0  0  0  0
    1.9610    1.2942   -1.4325 N   0  0  0  0  0  0  0  0  0  0  0  0
    2.9031    1.4697   -1.9845 N   0  0  0  0  0  0  0  0  0  0  0  0
    2.6984    0.9334    1.5628 B   0  0  0  0  0  0  0  0  0  0  0  0
    2.9255   -0.0657    0.5419 F   0  0  0  0  0  0  0  0  0  0  0  0
    1.4049    0.7244    2.0976 F   0  0  0  0  0  0  0  0  0  0  0  0
    3.6877    0.8932    2.5237 F   0  0  0  0  0  0  0  0  0  0  0  0
    2.6958    2.2048    0.8734 F   0  0  0  0  0  0  0  0  0  0  0  0
  1  7  1  0  0  0  0
  1  6  2  0  0  0  0
  2  1  1  0  0  0  0
  3  2  2  0  0  0  0
  3  4  1  0  0  0  0
  4  5  2  0  0  0  0
  5  6  1  0  0  0  0
  5 10  1  0  0  0  0
  6 11  1  0  0  0  0
  8  2  1  0  0  0  0
  9  4  1  0  0  0  0
 11 12  2  0  0  0  0
 11 13  2  0  0  0  0
 14  3  1  0  0  0  0
 15 14  1  0  0  0  0
 16 18  1  0  0  0  0
 16 19  1  0  0  0  0
 17 16  1  0  0  0  0
 20 16  1  0  0  0  0
M  RAD  2  14   2  15   3
M  END
