Coordinates from ORCA-job p-NO2-Ph-N2-BF4-B3LYPG-aug-cc-pVDZ-scan-d09-49-n400
 OpenBabel10311713223D

 20 18  0  0  0  0  0  0  0  0999 V2000
   -1.0386   -0.4704    0.0273 C   0  0  0  0  0  0  0  0  0  0  0  0
    0.2156   -0.2908   -0.5933 C   0  0  0  0  0  0  0  0  0  0  0  0
    0.4854    1.0288   -0.6312 C   0  0  0  0  0  0  0  0  0  0  0  0
   -0.0348    2.2042   -0.2267 C   0  0  0  0  0  0  0  0  0  0  0  0
   -1.2817    1.9518    0.3833 C   0  0  0  0  0  0  0  0  0  0  0  0
   -1.7496    0.6403    0.4859 C   0  0  0  0  0  0  0  0  0  0  0  0
   -1.4305   -1.4761    0.1641 H   0  0  0  0  0  0  0  0  0  0  0  0
    0.8683   -1.0960   -0.9119 H   0  0  0  0  0  0  0  0  0  0  0  0
    0.4395    3.1777   -0.2836 H   0  0  0  0  0  0  0  0  0  0  0  0
   -1.8577    2.7806    0.7897 H   0  0  0  0  0  0  0  0  0  0  0  0
   -3.0638    0.4132    1.1341 N   0  0  0  0  0  0  0  0  0  0  0  0
   -3.4570   -0.7442    1.2096 O   0  0  0  0  0  0  0  0  0  0  0  0
   -3.6724    1.4014    1.5248 O   0  0  0  0  0  0  0  0  0  0  0  0
    2.3289    1.3696   -1.6901 N   0  0  0  0  0  0  0  0  0  0  0  0
    3.2708    1.5442   -2.2355 N   0  0  0  0  0  0  0  0  0  0  0  0
    2.6645    0.9335    1.5344 B   0  0  0  0  0  0  0  0  0  0  0  0
    2.8517   -0.0733    0.5175 F   0  0  0  0  0  0  0  0  0  0  0  0
    1.3921    0.7197    2.1259 F   0  0  0  0  0  0  0  0  0  0  0  0
    3.6894    0.9014    2.4596 F   0  0  0  0  0  0  0  0  0  0  0  0
    2.6235    2.2032    0.8494 F   0  0  0  0  0  0  0  0  0  0  0  0
  1  7  1  0  0  0  0
  1  6  2  0  0  0  0
  2  1  1  0  0  0  0
  3  2  2  0  0  0  0
  3  4  1  0  0  0  0
  4  5  2  0  0  0  0
  5  6  1  0  0  0  0
  5 10  1  0  0  0  0
  6 11  1  0  0  0  0
  8  2  1  0  0  0  0
  9  4  1  0  0  0  0
 11 12  2  0  0  0  0
 11 13  2  0  0  0  0
 15 14  3  0  0  0  0
 16 18  1  0  0  0  0
 16 19  1  0  0  0  0
 17 16  1  0  0  0  0
 20 16  1  0  0  0  0
M  RAD  1   3   2
M  END
