Coordinates from ORCA-job p-NO2-Ph-N2-BF4-B3LYPG-aug-cc-pVDZ-scan-d09-49-n400
 OpenBabel10311713223D

 20 18  0  0  0  0  0  0  0  0999 V2000
   -1.3522   -0.6136    0.1048 C   0  0  0  0  0  0  0  0  0  0  0  0
    0.0417   -0.6358    0.1013 C   0  0  0  0  0  0  0  0  0  0  0  0
    0.7196    0.5507    0.3634 C   0  0  0  0  0  0  0  0  0  0  0  0
    0.0786    1.7570    0.6285 C   0  0  0  0  0  0  0  0  0  0  0  0
   -1.3156    1.7743    0.6321 C   0  0  0  0  0  0  0  0  0  0  0  0
   -2.0088    0.5903    0.3703 C   0  0  0  0  0  0  0  0  0  0  0  0
   -1.9325   -1.5109   -0.0938 H   0  0  0  0  0  0  0  0  0  0  0  0
    0.5975   -1.5491   -0.1016 H   0  0  0  0  0  0  0  0  0  0  0  0
    0.6616    2.6539    0.8267 H   0  0  0  0  0  0  0  0  0  0  0  0
   -1.8684    2.6883    0.8333 H   0  0  0  0  0  0  0  0  0  0  0  0
   -3.4829    0.6119    0.3730 N   0  0  0  0  0  0  0  0  0  0  0  0
   -4.0700   -0.4418    0.1389 O   0  0  0  0  0  0  0  0  0  0  0  0
   -4.0381    1.6823    0.6089 O   0  0  0  0  0  0  0  0  0  0  0  0
    1.8943    1.3468   -3.0505 N   0  0  0  0  0  0  0  0  0  0  0  0
    2.3820    1.3452   -4.0412 N   0  0  0  0  0  0  0  0  0  0  0  0
    3.7069    1.5774    2.1364 B   0  0  0  0  0  0  0  0  0  0  0  0
    2.0815    0.5280    0.3511 F   0  0  0  0  0  0  0  0  0  0  0  0
    3.2034    0.7992    3.0864 F   0  0  0  0  0  0  0  0  0  0  0  0
    4.7530    1.1768    1.4280 F   0  0  0  0  0  0  0  0  0  0  0  0
    3.1917    2.7879    1.9370 F   0  0  0  0  0  0  0  0  0  0  0  0
  1  6  1  0  0  0  0
  2  1  2  0  0  0  0
  2  3  1  0  0  0  0
  3  4  2  0  0  0  0
  4  5  1  0  0  0  0
  4  9  1  0  0  0  0
  5 10  1  0  0  0  0
  6 11  1  0  0  0  0
  6  5  2  0  0  0  0
  7  1  1  0  0  0  0
  8  2  1  0  0  0  0
 11 13  2  0  0  0  0
 12 11  2  0  0  0  0
 15 14  3  0  0  0  0
 16 18  1  0  0  0  0
 17  3  1  0  0  0  0
 19 16  1  0  0  0  0
 20 16  1  0  0  0  0
M  END
