Coordinates from ORCA-job p-NO2-Ph-N2-BF4-B3LYPG-aug-cc-pVDZ-scan-d09-49-n400
 OpenBabel10311713223D

 20 18  0  0  0  0  0  0  0  0999 V2000
   -1.4263   -0.6382    0.2340 C   0  0  0  0  0  0  0  0  0  0  0  0
   -0.0323   -0.6645    0.2255 C   0  0  0  0  0  0  0  0  0  0  0  0
    0.6493    0.5277    0.4490 C   0  0  0  0  0  0  0  0  0  0  0  0
    0.0133    1.7437    0.6789 C   0  0  0  0  0  0  0  0  0  0  0  0
   -1.3809    1.7651    0.6871 C   0  0  0  0  0  0  0  0  0  0  0  0
   -2.0783    0.5754    0.4649 C   0  0  0  0  0  0  0  0  0  0  0  0
   -2.0098   -1.5394    0.0650 H   0  0  0  0  0  0  0  0  0  0  0  0
    0.5209   -1.5848    0.0482 H   0  0  0  0  0  0  0  0  0  0  0  0
    0.6002    2.6441    0.8479 H   0  0  0  0  0  0  0  0  0  0  0  0
   -1.9304    2.6865    0.8617 H   0  0  0  0  0  0  0  0  0  0  0  0
   -3.5525    0.6014    0.4727 N   0  0  0  0  0  0  0  0  0  0  0  0
   -4.1432   -0.4580    0.2769 O   0  0  0  0  0  0  0  0  0  0  0  0
   -4.1035    1.6796    0.6804 O   0  0  0  0  0  0  0  0  0  0  0  0
    2.4056    1.5130   -3.7861 N   0  0  0  0  0  0  0  0  0  0  0  0
    2.9437    1.5191   -4.7506 N   0  0  0  0  0  0  0  0  0  0  0  0
    3.6818    1.5539    2.1763 B   0  0  0  0  0  0  0  0  0  0  0  0
    2.0116    0.5013    0.4308 F   0  0  0  0  0  0  0  0  0  0  0  0
    3.2738    0.7077    3.1138 F   0  0  0  0  0  0  0  0  0  0  0  0
    4.7050    1.2425    1.3934 F   0  0  0  0  0  0  0  0  0  0  0  0
    3.0951    2.7429    2.0635 F   0  0  0  0  0  0  0  0  0  0  0  0
  1  6  1  0  0  0  0
  2  1  2  0  0  0  0
  2  3  1  0  0  0  0
  3  4  2  0  0  0  0
  4  5  1  0  0  0  0
  4  9  1  0  0  0  0
  5 10  1  0  0  0  0
  6 11  1  0  0  0  0
  6  5  2  0  0  0  0
  7  1  1  0  0  0  0
  8  2  1  0  0  0  0
 11 13  2  0  0  0  0
 12 11  2  0  0  0  0
 15 14  3  0  0  0  0
 16 18  1  0  0  0  0
 17  3  1  0  0  0  0
 19 16  1  0  0  0  0
 20 16  1  0  0  0  0
M  END
