Coordinates from ORCA-job p-NO2-Ph-N2-BF4-B3LYPG-aug-cc-pVDZ-scan-d09-49-n400
 OpenBabel10311713223D

 20 18  0  0  0  0  0  0  0  0999 V2000
   -1.0484   -0.4748    0.0510 C   0  0  0  0  0  0  0  0  0  0  0  0
    0.2235   -0.3014   -0.5457 C   0  0  0  0  0  0  0  0  0  0  0  0
    0.4647    1.0158   -0.5589 C   0  0  0  0  0  0  0  0  0  0  0  0
   -0.0274    2.2016   -0.1781 C   0  0  0  0  0  0  0  0  0  0  0  0
   -1.2913    1.9470    0.4067 C   0  0  0  0  0  0  0  0  0  0  0  0
   -1.7649    0.6366    0.5001 C   0  0  0  0  0  0  0  0  0  0  0  0
   -1.4421   -1.4821    0.1752 H   0  0  0  0  0  0  0  0  0  0  0  0
    0.8844   -1.1029   -0.8564 H   0  0  0  0  0  0  0  0  0  0  0  0
    0.4560    3.1709   -0.2283 H   0  0  0  0  0  0  0  0  0  0  0  0
   -1.8696    2.7807    0.8012 H   0  0  0  0  0  0  0  0  0  0  0  0
   -3.0890    0.4119    1.1260 N   0  0  0  0  0  0  0  0  0  0  0  0
   -3.4852   -0.7448    1.1937 O   0  0  0  0  0  0  0  0  0  0  0  0
   -3.7005    1.4014    1.5087 O   0  0  0  0  0  0  0  0  0  0  0  0
    2.4564    1.4082   -1.8650 N   0  0  0  0  0  0  0  0  0  0  0  0
    3.4182    1.5800   -2.3754 N   0  0  0  0  0  0  0  0  0  0  0  0
    2.6344    0.9310    1.5333 B   0  0  0  0  0  0  0  0  0  0  0  0
    2.7896   -0.0744    0.5107 F   0  0  0  0  0  0  0  0  0  0  0  0
    1.3823    0.7127    2.1682 F   0  0  0  0  0  0  0  0  0  0  0  0
    3.6891    0.9058    2.4231 F   0  0  0  0  0  0  0  0  0  0  0  0
    2.5630    2.1954    0.8432 F   0  0  0  0  0  0  0  0  0  0  0  0
  1  7  1  0  0  0  0
  1  6  2  0  0  0  0
  2  1  1  0  0  0  0
  3  2  2  0  0  0  0
  3  4  1  0  0  0  0
  4  5  2  0  0  0  0
  5  6  1  0  0  0  0
  5 10  1  0  0  0  0
  6 11  1  0  0  0  0
  8  2  1  0  0  0  0
  9  4  1  0  0  0  0
 11 12  2  0  0  0  0
 11 13  2  0  0  0  0
 15 14  3  0  0  0  0
 16 18  1  0  0  0  0
 16 19  1  0  0  0  0
 17 16  1  0  0  0  0
 20 16  1  0  0  0  0
M  RAD  1   3   2
M  END
