Coordinates from ORCA-job p-NO2-Ph-N2-BF4-B3LYPG-aug-cc-pVDZ-scan-d09-49-n400
 OpenBabel10311713223D

 20 18  0  0  0  0  0  0  0  0999 V2000
   -1.3005   -0.5951   -0.0033 C   0  0  0  0  0  0  0  0  0  0  0  0
    0.0935   -0.6136   -0.0010 C   0  0  0  0  0  0  0  0  0  0  0  0
    0.7670    0.5653    0.2979 C   0  0  0  0  0  0  0  0  0  0  0  0
    0.1225    1.7587    0.6035 C   0  0  0  0  0  0  0  0  0  0  0  0
   -1.2716    1.7737    0.6016 C   0  0  0  0  0  0  0  0  0  0  0  0
   -1.9617    0.5980    0.2970 C   0  0  0  0  0  0  0  0  0  0  0  0
   -1.8775   -1.4875   -0.2316 H   0  0  0  0  0  0  0  0  0  0  0  0
    0.6525   -1.5186   -0.2303 H   0  0  0  0  0  0  0  0  0  0  0  0
    0.7025    2.6503    0.8321 H   0  0  0  0  0  0  0  0  0  0  0  0
   -1.8269    2.6793    0.8315 H   0  0  0  0  0  0  0  0  0  0  0  0
   -3.4354    0.6164    0.2936 N   0  0  0  0  0  0  0  0  0  0  0  0
   -4.0191   -0.4281    0.0142 O   0  0  0  0  0  0  0  0  0  0  0  0
   -3.9940    1.6796    0.5530 O   0  0  0  0  0  0  0  0  0  0  0  0
    1.5147    1.2332   -2.4500 N   0  0  0  0  0  0  0  0  0  0  0  0
    1.9695    1.2101   -3.4558 N   0  0  0  0  0  0  0  0  0  0  0  0
    3.7381    1.6056    2.0843 B   0  0  0  0  0  0  0  0  0  0  0  0
    2.1284    0.5425    0.3024 F   0  0  0  0  0  0  0  0  0  0  0  0
    3.1396    0.9370    3.0627 F   0  0  0  0  0  0  0  0  0  0  0  0
    4.7814    1.0818    1.4565 F   0  0  0  0  0  0  0  0  0  0  0  0
    3.3204    2.8301    1.7750 F   0  0  0  0  0  0  0  0  0  0  0  0
  1  2  2  0  0  0  0
  1  6  1  0  0  0  0
  2  3  1  0  0  0  0
  3 17  1  0  0  0  0
  3  4  2  0  0  0  0
  4  9  1  0  0  0  0
  5  4  1  0  0  0  0
  5 10  1  0  0  0  0
  6  5  2  0  0  0  0
  7  1  1  0  0  0  0
  8  2  1  0  0  0  0
 11  6  1  0  0  0  0
 11 13  2  0  0  0  0
 12 11  2  0  0  0  0
 15 14  3  0  0  0  0
 16 18  1  0  0  0  0
 19 16  1  0  0  0  0
 20 16  1  0  0  0  0
M  END
