Coordinates from ORCA-job p-NO2-Ph-N2-BF4-B3LYPG-aug-cc-pVDZ-scan-d09-49-n400
 OpenBabel10311713223D

 20 18  0  0  0  0  0  0  0  0999 V2000
   -1.3209   -0.6039    0.0437 C   0  0  0  0  0  0  0  0  0  0  0  0
    0.0731   -0.6272    0.0458 C   0  0  0  0  0  0  0  0  0  0  0  0
    0.7509    0.5538    0.3309 C   0  0  0  0  0  0  0  0  0  0  0  0
    0.1099    1.7552    0.6155 C   0  0  0  0  0  0  0  0  0  0  0  0
   -1.2842    1.7741    0.6135 C   0  0  0  0  0  0  0  0  0  0  0  0
   -1.9777    0.5958    0.3272 C   0  0  0  0  0  0  0  0  0  0  0  0
   -1.9009   -1.4972   -0.1726 H   0  0  0  0  0  0  0  0  0  0  0  0
    0.6287   -1.5376   -0.1702 H   0  0  0  0  0  0  0  0  0  0  0  0
    0.6925    2.6483    0.8317 H   0  0  0  0  0  0  0  0  0  0  0  0
   -1.8369    2.6849    0.8288 H   0  0  0  0  0  0  0  0  0  0  0  0
   -3.4516    0.6189    0.3237 N   0  0  0  0  0  0  0  0  0  0  0  0
   -4.0387   -0.4312    0.0741 O   0  0  0  0  0  0  0  0  0  0  0  0
   -4.0068    1.6842    0.5815 O   0  0  0  0  0  0  0  0  0  0  0  0
    1.6695    1.2846   -2.7383 N   0  0  0  0  0  0  0  0  0  0  0  0
    2.1287    1.2726   -3.7425 N   0  0  0  0  0  0  0  0  0  0  0  0
    3.7171    1.5957    2.1179 B   0  0  0  0  0  0  0  0  0  0  0  0
    2.1126    0.5288    0.3267 F   0  0  0  0  0  0  0  0  0  0  0  0
    3.1578    0.8737    3.0813 F   0  0  0  0  0  0  0  0  0  0  0  0
    4.7694    1.1318    1.4591 F   0  0  0  0  0  0  0  0  0  0  0  0
    3.2508    2.8138    1.8553 F   0  0  0  0  0  0  0  0  0  0  0  0
  1  2  2  0  0  0  0
  1  6  1  0  0  0  0
  2  3  1  0  0  0  0
  3  4  2  0  0  0  0
  4  9  1  0  0  0  0
  5  4  1  0  0  0  0
  5 10  1  0  0  0  0
  6  5  2  0  0  0  0
  7  1  1  0  0  0  0
  8  2  1  0  0  0  0
 11  6  1  0  0  0  0
 11 13  2  0  0  0  0
 12 11  2  0  0  0  0
 15 14  3  0  0  0  0
 16 18  1  0  0  0  0
 17  3  1  0  0  0  0
 19 16  1  0  0  0  0
 20 16  1  0  0  0  0
M  END
