Coordinates from ORCA-job p-NO2-Ph-N2-BF4-B3LYPG-aug-cc-pVDZ-scan-d09-49-n400
 OpenBabel10311713223D

 20 18  0  0  0  0  0  0  0  0999 V2000
   -1.0444   -0.4689    0.0131 C   0  0  0  0  0  0  0  0  0  0  0  0
    0.2075   -0.2854   -0.6009 C   0  0  0  0  0  0  0  0  0  0  0  0
    0.5111    1.0348   -0.6539 C   0  0  0  0  0  0  0  0  0  0  0  0
   -0.0419    2.1997   -0.2355 C   0  0  0  0  0  0  0  0  0  0  0  0
   -1.2875    1.9534    0.3692 C   0  0  0  0  0  0  0  0  0  0  0  0
   -1.7562    0.6421    0.4693 C   0  0  0  0  0  0  0  0  0  0  0  0
   -1.4414   -1.4723    0.1493 H   0  0  0  0  0  0  0  0  0  0  0  0
    0.8549   -1.0952   -0.9194 H   0  0  0  0  0  0  0  0  0  0  0  0
    0.4264    3.1764   -0.2912 H   0  0  0  0  0  0  0  0  0  0  0  0
   -1.8680    2.7791    0.7743 H   0  0  0  0  0  0  0  0  0  0  0  0
   -3.0744    0.4153    1.1122 N   0  0  0  0  0  0  0  0  0  0  0  0
   -3.4654   -0.7424    1.1935 O   0  0  0  0  0  0  0  0  0  0  0  0
   -3.6808    1.4027    1.5086 O   0  0  0  0  0  0  0  0  0  0  0  0
    2.2435    1.3429   -1.5675 N   0  0  0  0  0  0  0  0  0  0  0  0
    3.1596    1.5207   -2.1524 N   0  0  0  0  0  0  0  0  0  0  0  0
    2.7186    0.9394    1.5319 B   0  0  0  0  0  0  0  0  0  0  0  0
    2.9071   -0.0673    0.5124 F   0  0  0  0  0  0  0  0  0  0  0  0
    1.4491    0.7258    2.1232 F   0  0  0  0  0  0  0  0  0  0  0  0
    3.7469    0.9084    2.4528 F   0  0  0  0  0  0  0  0  0  0  0  0
    2.6786    2.2098    0.8442 F   0  0  0  0  0  0  0  0  0  0  0  0
  1  7  1  0  0  0  0
  1  6  2  0  0  0  0
  2  1  1  0  0  0  0
  3  2  2  0  0  0  0
  3  4  1  0  0  0  0
  4  5  2  0  0  0  0
  5  6  1  0  0  0  0
  5 10  1  0  0  0  0
  6 11  1  0  0  0  0
  8  2  1  0  0  0  0
  9  4  1  0  0  0  0
 11 12  2  0  0  0  0
 11 13  2  0  0  0  0
 15 14  3  0  0  0  0
 16 18  1  0  0  0  0
 16 19  1  0  0  0  0
 17 16  1  0  0  0  0
 20 16  1  0  0  0  0
M  RAD  1   3   2
M  END
