Coordinates from ORCA-job p-NO2-Ph-N2-BF4-B3LYPG-aug-cc-pVDZ-scan-d09-49-n400
 OpenBabel10311713223D

 20 18  0  0  0  0  0  0  0  0999 V2000
   -1.3746   -0.6209    0.1460 C   0  0  0  0  0  0  0  0  0  0  0  0
    0.0194   -0.6437    0.1403 C   0  0  0  0  0  0  0  0  0  0  0  0
    0.6979    0.5456    0.3888 C   0  0  0  0  0  0  0  0  0  0  0  0
    0.0578    1.7551    0.6418 C   0  0  0  0  0  0  0  0  0  0  0  0
   -1.3364    1.7728    0.6475 C   0  0  0  0  0  0  0  0  0  0  0  0
   -2.0303    0.5860    0.3999 C   0  0  0  0  0  0  0  0  0  0  0  0
   -1.9555   -1.5200   -0.0422 H   0  0  0  0  0  0  0  0  0  0  0  0
    0.5748   -1.5590   -0.0543 H   0  0  0  0  0  0  0  0  0  0  0  0
    0.6417    2.6538    0.8294 H   0  0  0  0  0  0  0  0  0  0  0  0
   -1.8887    2.6890    0.8396 H   0  0  0  0  0  0  0  0  0  0  0  0
   -3.5045    0.6081    0.4049 N   0  0  0  0  0  0  0  0  0  0  0  0
   -4.0921   -0.4479    0.1831 O   0  0  0  0  0  0  0  0  0  0  0  0
   -4.0589    1.6811    0.6300 O   0  0  0  0  0  0  0  0  0  0  0  0
    2.0530    1.3930   -3.2755 N   0  0  0  0  0  0  0  0  0  0  0  0
    2.5561    1.4003   -4.2585 N   0  0  0  0  0  0  0  0  0  0  0  0
    3.6989    1.5678    2.1491 B   0  0  0  0  0  0  0  0  0  0  0  0
    2.0599    0.5229    0.3736 F   0  0  0  0  0  0  0  0  0  0  0  0
    3.2281    0.7618    3.0927 F   0  0  0  0  0  0  0  0  0  0  0  0
    4.7388    1.2010    1.4137 F   0  0  0  0  0  0  0  0  0  0  0  0
    3.1578    2.7720    1.9833 F   0  0  0  0  0  0  0  0  0  0  0  0
  1  6  1  0  0  0  0
  2  1  2  0  0  0  0
  2  3  1  0  0  0  0
  3  4  2  0  0  0  0
  4  5  1  0  0  0  0
  4  9  1  0  0  0  0
  5 10  1  0  0  0  0
  6 11  1  0  0  0  0
  6  5  2  0  0  0  0
  7  1  1  0  0  0  0
  8  2  1  0  0  0  0
 11 13  2  0  0  0  0
 12 11  2  0  0  0  0
 15 14  3  0  0  0  0
 16 18  1  0  0  0  0
 17  3  1  0  0  0  0
 19 16  1  0  0  0  0
 20 16  1  0  0  0  0
M  END
