Coordinates from ORCA-job p-NO2-Ph-N2-BF4-B3LYPG-aug-cc-pVDZ-scan-d09-49-n400
 OpenBabel10311713223D

 20 19  0  0  0  0  0  0  0  0999 V2000
   -1.0460   -0.4678    0.0048 C   0  0  0  0  0  0  0  0  0  0  0  0
    0.2040   -0.2805   -0.6032 C   0  0  0  0  0  0  0  0  0  0  0  0
    0.5384    1.0397   -0.6690 C   0  0  0  0  0  0  0  0  0  0  0  0
   -0.0443    2.1950   -0.2392 C   0  0  0  0  0  0  0  0  0  0  0  0
   -1.2891    1.9543    0.3610 C   0  0  0  0  0  0  0  0  0  0  0  0
   -1.7583    0.6433    0.4598 C   0  0  0  0  0  0  0  0  0  0  0  0
   -1.4472   -1.4693    0.1396 H   0  0  0  0  0  0  0  0  0  0  0  0
    0.8453   -1.0946   -0.9239 H   0  0  0  0  0  0  0  0  0  0  0  0
    0.4171    3.1751   -0.2957 H   0  0  0  0  0  0  0  0  0  0  0  0
   -1.8733    2.7778    0.7641 H   0  0  0  0  0  0  0  0  0  0  0  0
   -3.0794    0.4167    1.0992 N   0  0  0  0  0  0  0  0  0  0  0  0
   -3.4728   -0.7405    1.1766 O   0  0  0  0  0  0  0  0  0  0  0  0
   -3.6882    1.4042    1.4916 O   0  0  0  0  0  0  0  0  0  0  0  0
    2.1726    1.3248   -1.4933 N   0  0  0  0  0  0  0  0  0  0  0  0
    3.0804    1.5037   -2.0911 N   0  0  0  0  0  0  0  0  0  0  0  0
    2.7541    0.9431    1.5317 B   0  0  0  0  0  0  0  0  0  0  0  0
    2.9407   -0.0625    0.5084 F   0  0  0  0  0  0  0  0  0  0  0  0
    1.4890    0.7294    2.1264 F   0  0  0  0  0  0  0  0  0  0  0  0
    3.7880    0.9138    2.4455 F   0  0  0  0  0  0  0  0  0  0  0  0
    2.7121    2.2131    0.8399 F   0  0  0  0  0  0  0  0  0  0  0  0
  1  7  1  0  0  0  0
  1  6  2  0  0  0  0
  2  1  1  0  0  0  0
  3  2  2  0  0  0  0
  3  4  1  0  0  0  0
  4  5  2  0  0  0  0
  5  6  1  0  0  0  0
  5 10  1  0  0  0  0
  6 11  1  0  0  0  0
  8  2  1  0  0  0  0
  9  4  1  0  0  0  0
 11 12  2  0  0  0  0
 11 13  2  0  0  0  0
 14  3  1  0  0  0  0
 15 14  1  0  0  0  0
 16 18  1  0  0  0  0
 16 19  1  0  0  0  0
 17 16  1  0  0  0  0
 20 16  1  0  0  0  0
M  RAD  2  14   2  15   3
M  END
