Coordinates from ORCA-job p-NO2-Ph-N2-BF4-B3LYPG-aug-cc-pVDZ-scan-d09-49-n400
 OpenBabel10311713223D

 20 18  0  0  0  0  0  0  0  0999 V2000
   -1.3529   -0.6139    0.1062 C   0  0  0  0  0  0  0  0  0  0  0  0
    0.0411   -0.6362    0.1027 C   0  0  0  0  0  0  0  0  0  0  0  0
    0.7186    0.5504    0.3648 C   0  0  0  0  0  0  0  0  0  0  0  0
    0.0781    1.7568    0.6292 C   0  0  0  0  0  0  0  0  0  0  0  0
   -1.3162    1.7742    0.6329 C   0  0  0  0  0  0  0  0  0  0  0  0
   -2.0095    0.5901    0.3716 C   0  0  0  0  0  0  0  0  0  0  0  0
   -1.9332   -1.5112   -0.0923 H   0  0  0  0  0  0  0  0  0  0  0  0
    0.5971   -1.5493   -0.1004 H   0  0  0  0  0  0  0  0  0  0  0  0
    0.6613    2.6538    0.8266 H   0  0  0  0  0  0  0  0  0  0  0  0
   -1.8689    2.6883    0.8336 H   0  0  0  0  0  0  0  0  0  0  0  0
   -3.4836    0.6117    0.3744 N   0  0  0  0  0  0  0  0  0  0  0  0
   -4.0706   -0.4417    0.1394 O   0  0  0  0  0  0  0  0  0  0  0  0
   -4.0386    1.6824    0.6089 O   0  0  0  0  0  0  0  0  0  0  0  0
    1.8989    1.3482   -3.0575 N   0  0  0  0  0  0  0  0  0  0  0  0
    2.3870    1.3470   -4.0481 N   0  0  0  0  0  0  0  0  0  0  0  0
    3.7066    1.5772    2.1367 B   0  0  0  0  0  0  0  0  0  0  0  0
    2.0808    0.5277    0.3519 F   0  0  0  0  0  0  0  0  0  0  0  0
    3.2041    0.7982    3.0867 F   0  0  0  0  0  0  0  0  0  0  0  0
    4.7526    1.1776    1.4275 F   0  0  0  0  0  0  0  0  0  0  0  0
    3.1907    2.7875    1.9382 F   0  0  0  0  0  0  0  0  0  0  0  0
  1  6  1  0  0  0  0
  2  1  2  0  0  0  0
  2  3  1  0  0  0  0
  3  4  2  0  0  0  0
  4  5  1  0  0  0  0
  4  9  1  0  0  0  0
  5 10  1  0  0  0  0
  6 11  1  0  0  0  0
  6  5  2  0  0  0  0
  7  1  1  0  0  0  0
  8  2  1  0  0  0  0
 11 13  2  0  0  0  0
 12 11  2  0  0  0  0
 15 14  3  0  0  0  0
 16 18  1  0  0  0  0
 17  3  1  0  0  0  0
 19 16  1  0  0  0  0
 20 16  1  0  0  0  0
M  END
