Coordinates from ORCA-job p-NO2-Ph-N2-BF4-B3LYPG-aug-cc-pVDZ-scan-d09-49-n400
 OpenBabel10311713223D

 20 18  0  0  0  0  0  0  0  0999 V2000
   -1.3126   -0.6007    0.0261 C   0  0  0  0  0  0  0  0  0  0  0  0
    0.0815   -0.6233    0.0297 C   0  0  0  0  0  0  0  0  0  0  0  0
    0.7574    0.5558    0.3228 C   0  0  0  0  0  0  0  0  0  0  0  0
    0.1167    1.7553    0.6122 C   0  0  0  0  0  0  0  0  0  0  0  0
   -1.2774    1.7739    0.6088 C   0  0  0  0  0  0  0  0  0  0  0  0
   -1.9703    0.5970    0.3156 C   0  0  0  0  0  0  0  0  0  0  0  0
   -1.8920   -1.4929   -0.1964 H   0  0  0  0  0  0  0  0  0  0  0  0
    0.6388   -1.5311   -0.1924 H   0  0  0  0  0  0  0  0  0  0  0  0
    0.6996    2.6473    0.8316 H   0  0  0  0  0  0  0  0  0  0  0  0
   -1.8306    2.6836    0.8278 H   0  0  0  0  0  0  0  0  0  0  0  0
   -3.4442    0.6197    0.3104 N   0  0  0  0  0  0  0  0  0  0  0  0
   -4.0306   -0.4295    0.0551 O   0  0  0  0  0  0  0  0  0  0  0  0
   -4.0000    1.6832    0.5741 O   0  0  0  0  0  0  0  0  0  0  0  0
    1.6101    1.2666   -2.6418 N   0  0  0  0  0  0  0  0  0  0  0  0
    2.0630    1.2502   -3.6486 N   0  0  0  0  0  0  0  0  0  0  0  0
    3.7218    1.6001    2.1090 B   0  0  0  0  0  0  0  0  0  0  0  0
    2.1196    0.5308    0.3202 F   0  0  0  0  0  0  0  0  0  0  0  0
    3.1472    0.8970    3.0774 F   0  0  0  0  0  0  0  0  0  0  0  0
    4.7727    1.1154    1.4630 F   0  0  0  0  0  0  0  0  0  0  0  0
    3.2723    2.8204    1.8286 F   0  0  0  0  0  0  0  0  0  0  0  0
  1  2  2  0  0  0  0
  1  6  1  0  0  0  0
  2  3  1  0  0  0  0
  3  4  2  0  0  0  0
  4  9  1  0  0  0  0
  5  4  1  0  0  0  0
  5 10  1  0  0  0  0
  6  5  2  0  0  0  0
  7  1  1  0  0  0  0
  8  2  1  0  0  0  0
 11  6  1  0  0  0  0
 11 13  2  0  0  0  0
 12 11  2  0  0  0  0
 15 14  3  0  0  0  0
 16 18  1  0  0  0  0
 17  3  1  0  0  0  0
 19 16  1  0  0  0  0
 20 16  1  0  0  0  0
M  END
