Coordinates from ORCA-job p-NO2-Ph-N2-BF4-B3LYPG-aug-cc-pVDZ-scan-d09-49-n400
 OpenBabel10311713223D

 20 19  0  0  0  0  0  0  0  0999 V2000
   -1.0196   -0.4623   -0.0117 C   0  0  0  0  0  0  0  0  0  0  0  0
    0.2141   -0.2650   -0.6319 C   0  0  0  0  0  0  0  0  0  0  0  0
    0.6098    1.0561   -0.7330 C   0  0  0  0  0  0  0  0  0  0  0  0
   -0.0319    2.1903   -0.2706 C   0  0  0  0  0  0  0  0  0  0  0  0
   -1.2623    1.9589    0.3446 C   0  0  0  0  0  0  0  0  0  0  0  0
   -1.7268    0.6474    0.4532 C   0  0  0  0  0  0  0  0  0  0  0  0
   -1.4217   -1.4619    0.1293 H   0  0  0  0  0  0  0  0  0  0  0  0
    0.8379   -1.0876   -0.9674 H   0  0  0  0  0  0  0  0  0  0  0  0
    0.4106    3.1792   -0.3393 H   0  0  0  0  0  0  0  0  0  0  0  0
   -1.8467    2.7787    0.7533 H   0  0  0  0  0  0  0  0  0  0  0  0
   -3.0403    0.4187    1.1126 N   0  0  0  0  0  0  0  0  0  0  0  0
   -3.4323   -0.7387    1.1931 O   0  0  0  0  0  0  0  0  0  0  0  0
   -3.6474    1.4058    1.5084 O   0  0  0  0  0  0  0  0  0  0  0  0
    2.0211    1.2997   -1.4277 N   0  0  0  0  0  0  0  0  0  0  0  0
    2.9482    1.4766   -1.9991 N   0  0  0  0  0  0  0  0  0  0  0  0
    2.7421    0.9398    1.5476 B   0  0  0  0  0  0  0  0  0  0  0  0
    2.9500   -0.0612    0.5229 F   0  0  0  0  0  0  0  0  0  0  0  0
    1.4632    0.7288    2.1108 F   0  0  0  0  0  0  0  0  0  0  0  0
    3.7544    0.9054    2.4841 F   0  0  0  0  0  0  0  0  0  0  0  0
    2.7211    2.2101    0.8539 F   0  0  0  0  0  0  0  0  0  0  0  0
  1  7  1  0  0  0  0
  1  6  2  0  0  0  0
  2  1  1  0  0  0  0
  3  2  2  0  0  0  0
  3  4  1  0  0  0  0
  4  5  2  0  0  0  0
  5  6  1  0  0  0  0
  5 10  1  0  0  0  0
  6 11  1  0  0  0  0
  8  2  1  0  0  0  0
  9  4  1  0  0  0  0
 11 12  2  0  0  0  0
 11 13  2  0  0  0  0
 14  3  1  0  0  0  0
 15 14  1  0  0  0  0
 16 18  1  0  0  0  0
 16 19  1  0  0  0  0
 17 16  1  0  0  0  0
 20 16  1  0  0  0  0
M  RAD  2  14   2  15   3
M  END
