Coordinates from ORCA-job p-NO2-Ph-N2-BF4-B3LYPG-aug-cc-pVDZ-scan-d09-49-n400
 OpenBabel10311713223D

 20 18  0  0  0  0  0  0  0  0999 V2000
   -1.2929   -0.5894   -0.0361 C   0  0  0  0  0  0  0  0  0  0  0  0
    0.1011   -0.6001   -0.0312 C   0  0  0  0  0  0  0  0  0  0  0  0
    0.7684    0.5825    0.2660 C   0  0  0  0  0  0  0  0  0  0  0  0
    0.1158    1.7667    0.5893 C   0  0  0  0  0  0  0  0  0  0  0  0
   -1.2779    1.7747    0.5849 C   0  0  0  0  0  0  0  0  0  0  0  0
   -1.9618    0.5983    0.2680 C   0  0  0  0  0  0  0  0  0  0  0  0
   -1.8641   -1.4847   -0.2673 H   0  0  0  0  0  0  0  0  0  0  0  0
    0.6645   -1.5021   -0.2615 H   0  0  0  0  0  0  0  0  0  0  0  0
    0.6888    2.6599    0.8297 H   0  0  0  0  0  0  0  0  0  0  0  0
   -1.8382    2.6747    0.8242 H   0  0  0  0  0  0  0  0  0  0  0  0
   -3.4350    0.6088    0.2616 N   0  0  0  0  0  0  0  0  0  0  0  0
   -4.0128   -0.4410   -0.0109 O   0  0  0  0  0  0  0  0  0  0  0  0
   -4.0002    1.6633    0.5420 O   0  0  0  0  0  0  0  0  0  0  0  0
    1.4218    1.1992   -2.2317 N   0  0  0  0  0  0  0  0  0  0  0  0
    1.9106    1.1957   -3.2219 N   0  0  0  0  0  0  0  0  0  0  0  0
    3.7746    1.6047    2.0489 B   0  0  0  0  0  0  0  0  0  0  0  0
    2.1289    0.5629    0.2927 F   0  0  0  0  0  0  0  0  0  0  0  0
    3.1438    0.9972    3.0469 F   0  0  0  0  0  0  0  0  0  0  0  0
    4.7951    1.0130    1.4443 F   0  0  0  0  0  0  0  0  0  0  0  0
    3.4127    2.8347    1.6953 F   0  0  0  0  0  0  0  0  0  0  0  0
  1  2  2  0  0  0  0
  1  6  1  0  0  0  0
  2  3  1  0  0  0  0
  3 17  1  0  0  0  0
  3  4  2  0  0  0  0
  4  9  1  0  0  0  0
  5  4  1  0  0  0  0
  5 10  1  0  0  0  0
  6  5  2  0  0  0  0
  7  1  1  0  0  0  0
  8  2  1  0  0  0  0
 11  6  1  0  0  0  0
 11 13  2  0  0  0  0
 12 11  2  0  0  0  0
 15 14  3  0  0  0  0
 16 18  1  0  0  0  0
 19 16  1  0  0  0  0
 20 16  1  0  0  0  0
M  END
