Coordinates from ORCA-job p-NO2-Ph-N2-BF4-B3LYPG-aug-cc-pVDZ-scan-d09-49-n400
 OpenBabel10311713223D

 20 18  0  0  0  0  0  0  0  0999 V2000
   -1.2932   -0.5897   -0.0332 C   0  0  0  0  0  0  0  0  0  0  0  0
    0.1009   -0.6014   -0.0287 C   0  0  0  0  0  0  0  0  0  0  0  0
    0.7687    0.5801    0.2707 C   0  0  0  0  0  0  0  0  0  0  0  0
    0.1175    1.7655    0.5924 C   0  0  0  0  0  0  0  0  0  0  0  0
   -1.2763    1.7743    0.5885 C   0  0  0  0  0  0  0  0  0  0  0  0
   -1.9611    0.5983    0.2721 C   0  0  0  0  0  0  0  0  0  0  0  0
   -1.8652   -1.4843   -0.2654 H   0  0  0  0  0  0  0  0  0  0  0  0
    0.6642   -1.5031   -0.2608 H   0  0  0  0  0  0  0  0  0  0  0  0
    0.6911    2.6584    0.8322 H   0  0  0  0  0  0  0  0  0  0  0  0
   -1.8360    2.6748    0.8275 H   0  0  0  0  0  0  0  0  0  0  0  0
   -3.4344    0.6097    0.2663 N   0  0  0  0  0  0  0  0  0  0  0  0
   -4.0129   -0.4383   -0.0114 O   0  0  0  0  0  0  0  0  0  0  0  0
   -3.9986    1.6659    0.5420 O   0  0  0  0  0  0  0  0  0  0  0  0
    1.4298    1.2008   -2.2559 N   0  0  0  0  0  0  0  0  0  0  0  0
    1.9128    1.1932   -3.2490 N   0  0  0  0  0  0  0  0  0  0  0  0
    3.7696    1.6059    2.0531 B   0  0  0  0  0  0  0  0  0  0  0  0
    2.1296    0.5602    0.2934 F   0  0  0  0  0  0  0  0  0  0  0  0
    3.1417    0.9921    3.0491 F   0  0  0  0  0  0  0  0  0  0  0  0
    4.7931    1.0213    1.4467 F   0  0  0  0  0  0  0  0  0  0  0  0
    3.4018    2.8352    1.7036 F   0  0  0  0  0  0  0  0  0  0  0  0
  1  2  2  0  0  0  0
  1  6  1  0  0  0  0
  2  3  1  0  0  0  0
  3 17  1  0  0  0  0
  3  4  2  0  0  0  0
  4  9  1  0  0  0  0
  5  4  1  0  0  0  0
  5 10  1  0  0  0  0
  6  5  2  0  0  0  0
  7  1  1  0  0  0  0
  8  2  1  0  0  0  0
 11  6  1  0  0  0  0
 11 13  2  0  0  0  0
 12 11  2  0  0  0  0
 15 14  3  0  0  0  0
 16 18  1  0  0  0  0
 19 16  1  0  0  0  0
 20 16  1  0  0  0  0
M  END
