Coordinates from ORCA-job p-NO2-Ph-N2-BF4-B3LYPG-aug-cc-pVDZ-scan-d09-49-n400
 OpenBabel10311713223D

 20 18  0  0  0  0  0  0  0  0999 V2000
   -1.0507   -0.4752    0.0515 C   0  0  0  0  0  0  0  0  0  0  0  0
    0.2234   -0.3025   -0.5415 C   0  0  0  0  0  0  0  0  0  0  0  0
    0.4633    1.0147   -0.5527 C   0  0  0  0  0  0  0  0  0  0  0  0
   -0.0276    2.2012   -0.1737 C   0  0  0  0  0  0  0  0  0  0  0  0
   -1.2936    1.9468    0.4072 C   0  0  0  0  0  0  0  0  0  0  0  0
   -1.7680    0.6365    0.4989 C   0  0  0  0  0  0  0  0  0  0  0  0
   -1.4451   -1.4825    0.1740 H   0  0  0  0  0  0  0  0  0  0  0  0
    0.8858   -1.1033   -0.8508 H   0  0  0  0  0  0  0  0  0  0  0  0
    0.4575    3.1698   -0.2229 H   0  0  0  0  0  0  0  0  0  0  0  0
   -1.8726    2.7808    0.8001 H   0  0  0  0  0  0  0  0  0  0  0  0
   -3.0938    0.4122    1.1211 N   0  0  0  0  0  0  0  0  0  0  0  0
   -3.4866   -0.7452    1.1958 O   0  0  0  0  0  0  0  0  0  0  0  0
   -3.7020    1.4010    1.5107 O   0  0  0  0  0  0  0  0  0  0  0  0
    2.4678    1.4109   -1.8751 N   0  0  0  0  0  0  0  0  0  0  0  0
    3.4300    1.5827   -2.3849 N   0  0  0  0  0  0  0  0  0  0  0  0
    2.6340    0.9311    1.5329 B   0  0  0  0  0  0  0  0  0  0  0  0
    2.7857   -0.0743    0.5097 F   0  0  0  0  0  0  0  0  0  0  0  0
    1.3843    0.7124    2.1722 F   0  0  0  0  0  0  0  0  0  0  0  0
    3.6921    0.9067    2.4185 F   0  0  0  0  0  0  0  0  0  0  0  0
    2.5593    2.1951    0.8424 F   0  0  0  0  0  0  0  0  0  0  0  0
  1  7  1  0  0  0  0
  1  6  2  0  0  0  0
  2  1  1  0  0  0  0
  3  2  2  0  0  0  0
  3  4  1  0  0  0  0
  4  5  2  0  0  0  0
  5  6  1  0  0  0  0
  5 10  1  0  0  0  0
  6 11  1  0  0  0  0
  8  2  1  0  0  0  0
  9  4  1  0  0  0  0
 11 12  2  0  0  0  0
 11 13  2  0  0  0  0
 15 14  3  0  0  0  0
 16 18  1  0  0  0  0
 16 19  1  0  0  0  0
 17 16  1  0  0  0  0
 20 16  1  0  0  0  0
M  RAD  1   3   2
M  END
