Coordinates from ORCA-job p-NO2-Ph-N2-BF4-B3LYPG-aug-cc-pVDZ-scan-d09-49-n400
 OpenBabel10311713223D

 20 18  0  0  0  0  0  0  0  0999 V2000
   -1.3398   -0.6100    0.0821 C   0  0  0  0  0  0  0  0  0  0  0  0
    0.0541   -0.6326    0.0802 C   0  0  0  0  0  0  0  0  0  0  0  0
    0.7321    0.5521    0.3505 C   0  0  0  0  0  0  0  0  0  0  0  0
    0.0911    1.7569    0.6225 C   0  0  0  0  0  0  0  0  0  0  0  0
   -1.3031    1.7746    0.6245 C   0  0  0  0  0  0  0  0  0  0  0  0
   -1.9964    0.5925    0.3543 C   0  0  0  0  0  0  0  0  0  0  0  0
   -1.9201   -1.5058   -0.1227 H   0  0  0  0  0  0  0  0  0  0  0  0
    0.6098   -1.5448   -0.1277 H   0  0  0  0  0  0  0  0  0  0  0  0
    0.6740    2.6525    0.8269 H   0  0  0  0  0  0  0  0  0  0  0  0
   -1.8559    2.6875    0.8308 H   0  0  0  0  0  0  0  0  0  0  0  0
   -3.4705    0.6146    0.3553 N   0  0  0  0  0  0  0  0  0  0  0  0
   -4.0576   -0.4374    0.1136 O   0  0  0  0  0  0  0  0  0  0  0  0
   -4.0256    1.6837    0.5969 O   0  0  0  0  0  0  0  0  0  0  0  0
    1.8065    1.3225   -2.9297 N   0  0  0  0  0  0  0  0  0  0  0  0
    2.2839    1.3166   -3.9254 N   0  0  0  0  0  0  0  0  0  0  0  0
    3.7099    1.5838    2.1297 B   0  0  0  0  0  0  0  0  0  0  0  0
    2.0939    0.5288    0.3402 F   0  0  0  0  0  0  0  0  0  0  0  0
    3.1866    0.8236    3.0836 F   0  0  0  0  0  0  0  0  0  0  0  0
    4.7596    1.1625    1.4388 F   0  0  0  0  0  0  0  0  0  0  0  0
    3.2108    2.7973    1.9089 F   0  0  0  0  0  0  0  0  0  0  0  0
  1  6  1  0  0  0  0
  2  1  2  0  0  0  0
  2  3  1  0  0  0  0
  3  4  2  0  0  0  0
  4  5  1  0  0  0  0
  4  9  1  0  0  0  0
  5 10  1  0  0  0  0
  6 11  1  0  0  0  0
  6  5  2  0  0  0  0
  7  1  1  0  0  0  0
  8  2  1  0  0  0  0
 11 13  2  0  0  0  0
 12 11  2  0  0  0  0
 15 14  3  0  0  0  0
 16 18  1  0  0  0  0
 17  3  1  0  0  0  0
 19 16  1  0  0  0  0
 20 16  1  0  0  0  0
M  END
