Coordinates from ORCA-job p-NO2-Ph-N2-BF4-B3LYPG-aug-cc-pVDZ-scan-d09-49-n400
 OpenBabel10311713223D

 20 18  0  0  0  0  0  0  0  0999 V2000
   -1.3620   -0.6168    0.1226 C   0  0  0  0  0  0  0  0  0  0  0  0
    0.0320   -0.6393    0.1184 C   0  0  0  0  0  0  0  0  0  0  0  0
    0.7101    0.5486    0.3747 C   0  0  0  0  0  0  0  0  0  0  0  0
    0.0695    1.7564    0.6342 C   0  0  0  0  0  0  0  0  0  0  0  0
   -1.3248    1.7737    0.6386 C   0  0  0  0  0  0  0  0  0  0  0  0
   -2.0182    0.5884    0.3831 C   0  0  0  0  0  0  0  0  0  0  0  0
   -1.9425   -1.5149   -0.0715 H   0  0  0  0  0  0  0  0  0  0  0  0
    0.5877   -1.5534   -0.0810 H   0  0  0  0  0  0  0  0  0  0  0  0
    0.6528    2.6541    0.8276 H   0  0  0  0  0  0  0  0  0  0  0  0
   -1.8774    2.6887    0.8356 H   0  0  0  0  0  0  0  0  0  0  0  0
   -3.4924    0.6102    0.3867 N   0  0  0  0  0  0  0  0  0  0  0  0
   -4.0796   -0.4445    0.1578 O   0  0  0  0  0  0  0  0  0  0  0  0
   -4.0472    1.6817    0.6177 O   0  0  0  0  0  0  0  0  0  0  0  0
    1.9625    1.3668   -3.1482 N   0  0  0  0  0  0  0  0  0  0  0  0
    2.4570    1.3691   -4.1354 N   0  0  0  0  0  0  0  0  0  0  0  0
    3.7040    1.5731    2.1422 B   0  0  0  0  0  0  0  0  0  0  0  0
    2.0720    0.5259    0.3611 F   0  0  0  0  0  0  0  0  0  0  0  0
    3.2152    0.7826    3.0898 F   0  0  0  0  0  0  0  0  0  0  0  0
    4.7473    1.1873    1.4215 F   0  0  0  0  0  0  0  0  0  0  0  0
    3.1772    2.7809    1.9576 F   0  0  0  0  0  0  0  0  0  0  0  0
  1  6  1  0  0  0  0
  2  1  2  0  0  0  0
  2  3  1  0  0  0  0
  3  4  2  0  0  0  0
  4  5  1  0  0  0  0
  4  9  1  0  0  0  0
  5 10  1  0  0  0  0
  6 11  1  0  0  0  0
  6  5  2  0  0  0  0
  7  1  1  0  0  0  0
  8  2  1  0  0  0  0
 11 13  2  0  0  0  0
 12 11  2  0  0  0  0
 15 14  3  0  0  0  0
 16 18  1  0  0  0  0
 17  3  1  0  0  0  0
 19 16  1  0  0  0  0
 20 16  1  0  0  0  0
M  END
