Coordinates from ORCA-job p-NO2-Ph-N2-BF4-B3LYPG-aug-cc-pVDZ-scan-d09-49-n400
 OpenBabel10311713223D

 20 18  0  0  0  0  0  0  0  0999 V2000
   -1.0399   -0.4720    0.0374 C   0  0  0  0  0  0  0  0  0  0  0  0
    0.2214   -0.2956   -0.5758 C   0  0  0  0  0  0  0  0  0  0  0  0
    0.4737    1.0232   -0.6013 C   0  0  0  0  0  0  0  0  0  0  0  0
   -0.0295    2.2047   -0.2084 C   0  0  0  0  0  0  0  0  0  0  0  0
   -1.2830    1.9502    0.3932 C   0  0  0  0  0  0  0  0  0  0  0  0
   -1.7525    0.6390    0.4932 C   0  0  0  0  0  0  0  0  0  0  0  0
   -1.4316   -1.4788    0.1694 H   0  0  0  0  0  0  0  0  0  0  0  0
    0.8781   -1.0985   -0.8917 H   0  0  0  0  0  0  0  0  0  0  0  0
    0.4493    3.1760   -0.2634 H   0  0  0  0  0  0  0  0  0  0  0  0
   -1.8592    2.7814    0.7952 H   0  0  0  0  0  0  0  0  0  0  0  0
   -3.0695    0.4126    1.1341 N   0  0  0  0  0  0  0  0  0  0  0  0
   -3.4598   -0.7453    1.2146 O   0  0  0  0  0  0  0  0  0  0  0  0
   -3.6753    1.4007    1.5296 O   0  0  0  0  0  0  0  0  0  0  0  0
    2.3922    1.3898   -1.7841 N   0  0  0  0  0  0  0  0  0  0  0  0
    3.3486    1.5622   -2.3039 N   0  0  0  0  0  0  0  0  0  0  0  0
    2.6376    0.9307    1.5358 B   0  0  0  0  0  0  0  0  0  0  0  0
    2.8148   -0.0757    0.5176 F   0  0  0  0  0  0  0  0  0  0  0  0
    1.3702    0.7154    2.1403 F   0  0  0  0  0  0  0  0  0  0  0  0
    3.6704    0.9003    2.4517 F   0  0  0  0  0  0  0  0  0  0  0  0
    2.5872    2.1985    0.8497 F   0  0  0  0  0  0  0  0  0  0  0  0
  1  7  1  0  0  0  0
  1  6  2  0  0  0  0
  2  1  1  0  0  0  0
  3  2  2  0  0  0  0
  3  4  1  0  0  0  0
  4  5  2  0  0  0  0
  5  6  1  0  0  0  0
  5 10  1  0  0  0  0
  6 11  1  0  0  0  0
  8  2  1  0  0  0  0
  9  4  1  0  0  0  0
 11 12  2  0  0  0  0
 11 13  2  0  0  0  0
 15 14  3  0  0  0  0
 16 18  1  0  0  0  0
 16 19  1  0  0  0  0
 17 16  1  0  0  0  0
 20 16  1  0  0  0  0
M  RAD  1   3   2
M  END
