Coordinates from ORCA-job p-NO2-Ph-N2-BF4-B3LYPG-aug-cc-pVDZ-scan-d09-49-n400
 OpenBabel10311713223D

 20 19  0  0  0  0  0  0  0  0999 V2000
   -1.0343   -0.4646   -0.0068 C   0  0  0  0  0  0  0  0  0  0  0  0
    0.2076   -0.2711   -0.6178 C   0  0  0  0  0  0  0  0  0  0  0  0
    0.5833    1.0494   -0.7046 C   0  0  0  0  0  0  0  0  0  0  0  0
   -0.0392    2.1908   -0.2556 C   0  0  0  0  0  0  0  0  0  0  0  0
   -1.2771    1.9568    0.3494 C   0  0  0  0  0  0  0  0  0  0  0  0
   -1.7445    0.6458    0.4522 C   0  0  0  0  0  0  0  0  0  0  0  0
   -1.4377   -1.4645    0.1300 H   0  0  0  0  0  0  0  0  0  0  0  0
    0.8382   -1.0909   -0.9463 H   0  0  0  0  0  0  0  0  0  0  0  0
    0.4105    3.1765   -0.3182 H   0  0  0  0  0  0  0  0  0  0  0  0
   -1.8630    2.7778    0.7541 H   0  0  0  0  0  0  0  0  0  0  0  0
   -3.0634    0.4183    1.0991 N   0  0  0  0  0  0  0  0  0  0  0  0
   -3.4546   -0.7393    1.1816 O   0  0  0  0  0  0  0  0  0  0  0  0
   -3.6699    1.4052    1.4967 O   0  0  0  0  0  0  0  0  0  0  0  0
    2.0751    1.3067   -1.4376 N   0  0  0  0  0  0  0  0  0  0  0  0
    2.9915    1.4846   -2.0226 N   0  0  0  0  0  0  0  0  0  0  0  0
    2.7604    0.9427    1.5394 B   0  0  0  0  0  0  0  0  0  0  0  0
    2.9562   -0.0600    0.5136 F   0  0  0  0  0  0  0  0  0  0  0  0
    1.4903    0.7303    2.1205 F   0  0  0  0  0  0  0  0  0  0  0  0
    3.7863    0.9117    2.4612 F   0  0  0  0  0  0  0  0  0  0  0  0
    2.7275    2.2125    0.8446 F   0  0  0  0  0  0  0  0  0  0  0  0
  1  7  1  0  0  0  0
  1  6  2  0  0  0  0
  2  1  1  0  0  0  0
  3  2  2  0  0  0  0
  3  4  1  0  0  0  0
  4  5  2  0  0  0  0
  5  6  1  0  0  0  0
  5 10  1  0  0  0  0
  6 11  1  0  0  0  0
  8  2  1  0  0  0  0
  9  4  1  0  0  0  0
 11 12  2  0  0  0  0
 11 13  2  0  0  0  0
 14  3  1  0  0  0  0
 15 14  1  0  0  0  0
 16 18  1  0  0  0  0
 16 19  1  0  0  0  0
 17 16  1  0  0  0  0
 20 16  1  0  0  0  0
M  RAD  2  14   2  15   3
M  END
