Coordinates from ORCA-job p-NO2-Ph-N2-BF4-B3LYPG-aug-cc-pVDZ-scan-d09-49-n400
 OpenBabel10311713223D

 20 18  0  0  0  0  0  0  0  0999 V2000
   -1.0386   -0.4705    0.0284 C   0  0  0  0  0  0  0  0  0  0  0  0
    0.2169   -0.2917   -0.5912 C   0  0  0  0  0  0  0  0  0  0  0  0
    0.4821    1.0278   -0.6261 C   0  0  0  0  0  0  0  0  0  0  0  0
   -0.0336    2.2047   -0.2244 C   0  0  0  0  0  0  0  0  0  0  0  0
   -1.2817    1.9517    0.3843 C   0  0  0  0  0  0  0  0  0  0  0  0
   -1.7500    0.6402    0.4866 C   0  0  0  0  0  0  0  0  0  0  0  0
   -1.4303   -1.4766    0.1644 H   0  0  0  0  0  0  0  0  0  0  0  0
    0.8706   -1.0963   -0.9092 H   0  0  0  0  0  0  0  0  0  0  0  0
    0.4418    3.1776   -0.2809 H   0  0  0  0  0  0  0  0  0  0  0  0
   -1.8576    2.7810    0.7900 H   0  0  0  0  0  0  0  0  0  0  0  0
   -3.0645    0.4132    1.1336 N   0  0  0  0  0  0  0  0  0  0  0  0
   -3.4541   -0.7449    1.2161 O   0  0  0  0  0  0  0  0  0  0  0  0
   -3.6696    1.4008    1.5312 O   0  0  0  0  0  0  0  0  0  0  0  0
    2.3446    1.3743   -1.7113 N   0  0  0  0  0  0  0  0  0  0  0  0
    3.2900    1.5482   -2.2495 N   0  0  0  0  0  0  0  0  0  0  0  0
    2.6560    0.9326    1.5351 B   0  0  0  0  0  0  0  0  0  0  0  0
    2.8422   -0.0741    0.5182 F   0  0  0  0  0  0  0  0  0  0  0  0
    1.3837    0.7186    2.1276 F   0  0  0  0  0  0  0  0  0  0  0  0
    3.6812    0.9005    2.4599 F   0  0  0  0  0  0  0  0  0  0  0  0
    2.6141    2.2019    0.8502 F   0  0  0  0  0  0  0  0  0  0  0  0
  1  7  1  0  0  0  0
  1  6  2  0  0  0  0
  2  1  1  0  0  0  0
  3  2  2  0  0  0  0
  3  4  1  0  0  0  0
  4  5  2  0  0  0  0
  5  6  1  0  0  0  0
  5 10  1  0  0  0  0
  6 11  1  0  0  0  0
  8  2  1  0  0  0  0
  9  4  1  0  0  0  0
 11 12  2  0  0  0  0
 11 13  2  0  0  0  0
 15 14  3  0  0  0  0
 16 18  1  0  0  0  0
 16 19  1  0  0  0  0
 17 16  1  0  0  0  0
 20 16  1  0  0  0  0
M  RAD  1   3   2
M  END
