Coordinates from ORCA-job p-NO2-Ph-N2-BF4-B3LYPG-aug-cc-pVDZ-scan-d09-49-n400
 OpenBabel10311713223D

 20 18  0  0  0  0  0  0  0  0999 V2000
   -1.3784   -0.6220    0.1528 C   0  0  0  0  0  0  0  0  0  0  0  0
    0.0156   -0.6448    0.1469 C   0  0  0  0  0  0  0  0  0  0  0  0
    0.6942    0.5448    0.3929 C   0  0  0  0  0  0  0  0  0  0  0  0
    0.0542    1.7546    0.6439 C   0  0  0  0  0  0  0  0  0  0  0  0
   -1.3401    1.7725    0.6497 C   0  0  0  0  0  0  0  0  0  0  0  0
   -2.0341    0.5854    0.4044 C   0  0  0  0  0  0  0  0  0  0  0  0
   -1.9593   -1.5215   -0.0335 H   0  0  0  0  0  0  0  0  0  0  0  0
    0.5708   -1.5607   -0.0458 H   0  0  0  0  0  0  0  0  0  0  0  0
    0.6380    2.6536    0.8300 H   0  0  0  0  0  0  0  0  0  0  0  0
   -1.8922    2.6891    0.8402 H   0  0  0  0  0  0  0  0  0  0  0  0
   -3.5082    0.6075    0.4096 N   0  0  0  0  0  0  0  0  0  0  0  0
   -4.0960   -0.4490    0.1905 O   0  0  0  0  0  0  0  0  0  0  0  0
   -4.0625    1.6809    0.6334 O   0  0  0  0  0  0  0  0  0  0  0  0
    2.0792    1.4009   -3.3131 N   0  0  0  0  0  0  0  0  0  0  0  0
    2.5847    1.4096   -4.2949 N   0  0  0  0  0  0  0  0  0  0  0  0
    3.6984    1.5662    2.1515 B   0  0  0  0  0  0  0  0  0  0  0  0
    2.0561    0.5219    0.3778 F   0  0  0  0  0  0  0  0  0  0  0  0
    3.2336    0.7554    3.0940 F   0  0  0  0  0  0  0  0  0  0  0  0
    4.7368    1.2054    1.4111 F   0  0  0  0  0  0  0  0  0  0  0  0
    3.1526    2.7691    1.9917 F   0  0  0  0  0  0  0  0  0  0  0  0
  1  6  1  0  0  0  0
  2  1  2  0  0  0  0
  2  3  1  0  0  0  0
  3  4  2  0  0  0  0
  4  5  1  0  0  0  0
  4  9  1  0  0  0  0
  5 10  1  0  0  0  0
  6 11  1  0  0  0  0
  6  5  2  0  0  0  0
  7  1  1  0  0  0  0
  8  2  1  0  0  0  0
 11 13  2  0  0  0  0
 12 11  2  0  0  0  0
 15 14  3  0  0  0  0
 16 18  1  0  0  0  0
 17  3  1  0  0  0  0
 19 16  1  0  0  0  0
 20 16  1  0  0  0  0
M  END
