Coordinates from ORCA-job p-NO2-Ph-N2-BF4-B3LYPG-aug-cc-pVDZ-scan-d09-49-n400
 OpenBabel10311713223D

 20 18  0  0  0  0  0  0  0  0999 V2000
   -1.3973   -0.6286    0.1869 C   0  0  0  0  0  0  0  0  0  0  0  0
   -0.0032   -0.6527    0.1805 C   0  0  0  0  0  0  0  0  0  0  0  0
    0.6761    0.5383    0.4167 C   0  0  0  0  0  0  0  0  0  0  0  0
    0.0378    1.7511    0.6572 C   0  0  0  0  0  0  0  0  0  0  0  0
   -1.3565    1.7701    0.6634 C   0  0  0  0  0  0  0  0  0  0  0  0
   -2.0517    0.5815    0.4286 C   0  0  0  0  0  0  0  0  0  0  0  0
   -1.9791   -1.5291    0.0081 H   0  0  0  0  0  0  0  0  0  0  0  0
    0.5516   -1.5702   -0.0051 H   0  0  0  0  0  0  0  0  0  0  0  0
    0.6228    2.6509    0.8352 H   0  0  0  0  0  0  0  0  0  0  0  0
   -1.9078    2.6889    0.8460 H   0  0  0  0  0  0  0  0  0  0  0  0
   -3.5258    0.6051    0.4343 N   0  0  0  0  0  0  0  0  0  0  0  0
   -4.1146   -0.4527    0.2246 O   0  0  0  0  0  0  0  0  0  0  0  0
   -4.0790    1.6808    0.6491 O   0  0  0  0  0  0  0  0  0  0  0  0
    2.2076    1.4461   -3.5068 N   0  0  0  0  0  0  0  0  0  0  0  0
    2.7265    1.4545   -4.4817 N   0  0  0  0  0  0  0  0  0  0  0  0
    3.6923    1.5598    2.1635 B   0  0  0  0  0  0  0  0  0  0  0  0
    2.0384    0.5142    0.4004 F   0  0  0  0  0  0  0  0  0  0  0  0
    3.2539    0.7305    3.1024 F   0  0  0  0  0  0  0  0  0  0  0  0
    4.7244    1.2237    1.4029 F   0  0  0  0  0  0  0  0  0  0  0  0
    3.1268    2.7565    2.0273 F   0  0  0  0  0  0  0  0  0  0  0  0
  1  6  1  0  0  0  0
  2  1  2  0  0  0  0
  2  3  1  0  0  0  0
  3  4  2  0  0  0  0
  4  5  1  0  0  0  0
  4  9  1  0  0  0  0
  5 10  1  0  0  0  0
  6 11  1  0  0  0  0
  6  5  2  0  0  0  0
  7  1  1  0  0  0  0
  8  2  1  0  0  0  0
 11 13  2  0  0  0  0
 12 11  2  0  0  0  0
 15 14  3  0  0  0  0
 16 18  1  0  0  0  0
 17  3  1  0  0  0  0
 19 16  1  0  0  0  0
 20 16  1  0  0  0  0
M  END
