Coordinates from ORCA-job p-NO2-Ph-N2-BF4-B3LYPG-aug-cc-pVDZ-scan-d09-49-n400
 OpenBabel10311713223D

 20 18  0  0  0  0  0  0  0  0999 V2000
   -1.3813   -0.6230    0.1578 C   0  0  0  0  0  0  0  0  0  0  0  0
    0.0127   -0.6459    0.1521 C   0  0  0  0  0  0  0  0  0  0  0  0
    0.6910    0.5439    0.3970 C   0  0  0  0  0  0  0  0  0  0  0  0
    0.0516    1.7544    0.6458 C   0  0  0  0  0  0  0  0  0  0  0  0
   -1.3427    1.7723    0.6514 C   0  0  0  0  0  0  0  0  0  0  0  0
   -2.0368    0.5849    0.4079 C   0  0  0  0  0  0  0  0  0  0  0  0
   -1.9623   -1.5226   -0.0276 H   0  0  0  0  0  0  0  0  0  0  0  0
    0.5684   -1.5616   -0.0398 H   0  0  0  0  0  0  0  0  0  0  0  0
    0.6357    2.6535    0.8302 H   0  0  0  0  0  0  0  0  0  0  0  0
   -1.8948    2.6893    0.8404 H   0  0  0  0  0  0  0  0  0  0  0  0
   -3.5110    0.6072    0.4129 N   0  0  0  0  0  0  0  0  0  0  0  0
   -4.0988   -0.4499    0.1969 O   0  0  0  0  0  0  0  0  0  0  0  0
   -4.0652    1.6806    0.6368 O   0  0  0  0  0  0  0  0  0  0  0  0
    2.0991    1.4075   -3.3424 N   0  0  0  0  0  0  0  0  0  0  0  0
    2.6068    1.4165   -4.3232 N   0  0  0  0  0  0  0  0  0  0  0  0
    3.6974    1.5650    2.1533 B   0  0  0  0  0  0  0  0  0  0  0  0
    2.0533    0.5209    0.3814 F   0  0  0  0  0  0  0  0  0  0  0  0
    3.2368    0.7511    3.0952 F   0  0  0  0  0  0  0  0  0  0  0  0
    4.7349    1.2082    1.4096 F   0  0  0  0  0  0  0  0  0  0  0  0
    3.1486    2.7670    1.9975 F   0  0  0  0  0  0  0  0  0  0  0  0
  1  6  1  0  0  0  0
  2  1  2  0  0  0  0
  2  3  1  0  0  0  0
  3  4  2  0  0  0  0
  4  5  1  0  0  0  0
  4  9  1  0  0  0  0
  5 10  1  0  0  0  0
  6 11  1  0  0  0  0
  6  5  2  0  0  0  0
  7  1  1  0  0  0  0
  8  2  1  0  0  0  0
 11 13  2  0  0  0  0
 12 11  2  0  0  0  0
 15 14  3  0  0  0  0
 16 18  1  0  0  0  0
 17  3  1  0  0  0  0
 19 16  1  0  0  0  0
 20 16  1  0  0  0  0
M  END
