Coordinates from ORCA-job p-NO2-Ph-N2-BF4-B3LYPG-aug-cc-pVDZ-scan-d09-49-n400
 OpenBabel10311713223D

 20 19  0  0  0  0  0  0  0  0999 V2000
   -1.0353   -0.4650   -0.0052 C   0  0  0  0  0  0  0  0  0  0  0  0
    0.2071   -0.2718   -0.6160 C   0  0  0  0  0  0  0  0  0  0  0  0
    0.5802    1.0486   -0.7015 C   0  0  0  0  0  0  0  0  0  0  0  0
   -0.0398    2.1909   -0.2537 C   0  0  0  0  0  0  0  0  0  0  0  0
   -1.2782    1.9565    0.3510 C   0  0  0  0  0  0  0  0  0  0  0  0
   -1.7457    0.6454    0.4536 C   0  0  0  0  0  0  0  0  0  0  0  0
   -1.4386   -1.4649    0.1314 H   0  0  0  0  0  0  0  0  0  0  0  0
    0.8383   -1.0913   -0.9440 H   0  0  0  0  0  0  0  0  0  0  0  0
    0.4106    3.1762   -0.3159 H   0  0  0  0  0  0  0  0  0  0  0  0
   -1.8640    2.7777    0.7555 H   0  0  0  0  0  0  0  0  0  0  0  0
   -3.0647    0.4181    1.1000 N   0  0  0  0  0  0  0  0  0  0  0  0
   -3.4584   -0.7390    1.1774 O   0  0  0  0  0  0  0  0  0  0  0  0
   -3.6737    1.4055    1.4924 O   0  0  0  0  0  0  0  0  0  0  0  0
    2.0805    1.3076   -1.4396 N   0  0  0  0  0  0  0  0  0  0  0  0
    2.9961    1.4856   -2.0266 N   0  0  0  0  0  0  0  0  0  0  0  0
    2.7620    0.9430    1.5384 B   0  0  0  0  0  0  0  0  0  0  0  0
    2.9566   -0.0599    0.5125 F   0  0  0  0  0  0  0  0  0  0  0  0
    1.4929    0.7304    2.1214 F   0  0  0  0  0  0  0  0  0  0  0  0
    3.7894    0.9124    2.4587 F   0  0  0  0  0  0  0  0  0  0  0  0
    2.7279    2.2128    0.8436 F   0  0  0  0  0  0  0  0  0  0  0  0
  1  7  1  0  0  0  0
  1  6  2  0  0  0  0
  2  1  1  0  0  0  0
  3  2  2  0  0  0  0
  3  4  1  0  0  0  0
  4  5  2  0  0  0  0
  5  6  1  0  0  0  0
  5 10  1  0  0  0  0
  6 11  1  0  0  0  0
  8  2  1  0  0  0  0
  9  4  1  0  0  0  0
 11 12  2  0  0  0  0
 11 13  2  0  0  0  0
 14  3  1  0  0  0  0
 15 14  1  0  0  0  0
 16 18  1  0  0  0  0
 16 19  1  0  0  0  0
 17 16  1  0  0  0  0
 20 16  1  0  0  0  0
M  RAD  2  14   2  15   3
M  END
