Coordinates from ORCA-job p-NO2-Ph-N2-BF4-B3LYPG-aug-cc-pVDZ-scan-d09-49-n400
 OpenBabel10311713223D

 20 18  0  0  0  0  0  0  0  0999 V2000
   -1.4339   -0.6408    0.2463 C   0  0  0  0  0  0  0  0  0  0  0  0
   -0.0399   -0.6679    0.2371 C   0  0  0  0  0  0  0  0  0  0  0  0
    0.6423    0.5244    0.4580 C   0  0  0  0  0  0  0  0  0  0  0  0
    0.0070    1.7413    0.6857 C   0  0  0  0  0  0  0  0  0  0  0  0
   -1.3873    1.7633    0.6946 C   0  0  0  0  0  0  0  0  0  0  0  0
   -2.0852    0.5735    0.4751 C   0  0  0  0  0  0  0  0  0  0  0  0
   -2.0180   -1.5421    0.0793 H   0  0  0  0  0  0  0  0  0  0  0  0
    0.5128   -1.5886    0.0613 H   0  0  0  0  0  0  0  0  0  0  0  0
    0.5944    2.6417    0.8527 H   0  0  0  0  0  0  0  0  0  0  0  0
   -1.9363    2.6853    0.8676 H   0  0  0  0  0  0  0  0  0  0  0  0
   -3.5594    0.6002    0.4837 N   0  0  0  0  0  0  0  0  0  0  0  0
   -4.1508   -0.4588    0.2878 O   0  0  0  0  0  0  0  0  0  0  0  0
   -4.1099    1.6795    0.6871 O   0  0  0  0  0  0  0  0  0  0  0  0
    2.4575    1.5308   -3.8586 N   0  0  0  0  0  0  0  0  0  0  0  0
    3.0000    1.5361   -4.8207 N   0  0  0  0  0  0  0  0  0  0  0  0
    3.6792    1.5530    2.1789 B   0  0  0  0  0  0  0  0  0  0  0  0
    2.0046    0.4975    0.4390 F   0  0  0  0  0  0  0  0  0  0  0  0
    3.2776    0.7047    3.1172 F   0  0  0  0  0  0  0  0  0  0  0  0
    4.6999    1.2453    1.3913 F   0  0  0  0  0  0  0  0  0  0  0  0
    3.0887    2.7404    2.0696 F   0  0  0  0  0  0  0  0  0  0  0  0
  1  6  1  0  0  0  0
  2  1  2  0  0  0  0
  2  3  1  0  0  0  0
  3  4  2  0  0  0  0
  4  5  1  0  0  0  0
  4  9  1  0  0  0  0
  5 10  1  0  0  0  0
  6 11  1  0  0  0  0
  6  5  2  0  0  0  0
  7  1  1  0  0  0  0
  8  2  1  0  0  0  0
 11 13  2  0  0  0  0
 12 11  2  0  0  0  0
 15 14  3  0  0  0  0
 16 18  1  0  0  0  0
 17  3  1  0  0  0  0
 19 16  1  0  0  0  0
 20 16  1  0  0  0  0
M  END
