Coordinates from ORCA-job p-NO2-Ph-N2-BF4-B3LYPG-aug-cc-pVDZ-scan-d09-49-n400
 OpenBabel10311713223D

 20 18  0  0  0  0  0  0  0  0999 V2000
   -1.3723   -0.6202    0.1420 C   0  0  0  0  0  0  0  0  0  0  0  0
    0.0216   -0.6428    0.1366 C   0  0  0  0  0  0  0  0  0  0  0  0
    0.7000    0.5462    0.3864 C   0  0  0  0  0  0  0  0  0  0  0  0
    0.0598    1.7554    0.6404 C   0  0  0  0  0  0  0  0  0  0  0  0
   -1.3345    1.7730    0.6458 C   0  0  0  0  0  0  0  0  0  0  0  0
   -2.0282    0.5865    0.3969 C   0  0  0  0  0  0  0  0  0  0  0  0
   -1.9532   -1.5192   -0.0472 H   0  0  0  0  0  0  0  0  0  0  0  0
    0.5771   -1.5580   -0.0588 H   0  0  0  0  0  0  0  0  0  0  0  0
    0.6435    2.6540    0.8290 H   0  0  0  0  0  0  0  0  0  0  0  0
   -1.8868    2.6890    0.8387 H   0  0  0  0  0  0  0  0  0  0  0  0
   -3.5024    0.6084    0.4017 N   0  0  0  0  0  0  0  0  0  0  0  0
   -4.0899   -0.4474    0.1787 O   0  0  0  0  0  0  0  0  0  0  0  0
   -4.0569    1.6812    0.6277 O   0  0  0  0  0  0  0  0  0  0  0  0
    2.0371    1.3885   -3.2530 N   0  0  0  0  0  0  0  0  0  0  0  0
    2.5388    1.3949   -4.2367 N   0  0  0  0  0  0  0  0  0  0  0  0
    3.6999    1.5686    2.1478 B   0  0  0  0  0  0  0  0  0  0  0  0
    2.0620    0.5235    0.3715 F   0  0  0  0  0  0  0  0  0  0  0  0
    3.2261    0.7650    3.0920 F   0  0  0  0  0  0  0  0  0  0  0  0
    4.7404    1.1988    1.4147 F   0  0  0  0  0  0  0  0  0  0  0  0
    3.1612    2.7735    1.9791 F   0  0  0  0  0  0  0  0  0  0  0  0
  1  6  1  0  0  0  0
  2  1  2  0  0  0  0
  2  3  1  0  0  0  0
  3  4  2  0  0  0  0
  4  5  1  0  0  0  0
  4  9  1  0  0  0  0
  5 10  1  0  0  0  0
  6 11  1  0  0  0  0
  6  5  2  0  0  0  0
  7  1  1  0  0  0  0
  8  2  1  0  0  0  0
 11 13  2  0  0  0  0
 12 11  2  0  0  0  0
 15 14  3  0  0  0  0
 16 18  1  0  0  0  0
 17  3  1  0  0  0  0
 19 16  1  0  0  0  0
 20 16  1  0  0  0  0
M  END
