Coordinates from ORCA-job p-NO2-Ph-N2-BF4-B3LYPG-aug-cc-pVDZ-scan-d09-49-n400
 OpenBabel10311713223D

 20 18  0  0  0  0  0  0  0  0999 V2000
   -1.0457   -0.4686    0.0103 C   0  0  0  0  0  0  0  0  0  0  0  0
    0.2056   -0.2837   -0.6012 C   0  0  0  0  0  0  0  0  0  0  0  0
    0.5207    1.0365   -0.6589 C   0  0  0  0  0  0  0  0  0  0  0  0
   -0.0434    2.1978   -0.2363 C   0  0  0  0  0  0  0  0  0  0  0  0
   -1.2888    1.9536    0.3664 C   0  0  0  0  0  0  0  0  0  0  0  0
   -1.7578    0.6425    0.4658 C   0  0  0  0  0  0  0  0  0  0  0  0
   -1.4444   -1.4713    0.1459 H   0  0  0  0  0  0  0  0  0  0  0  0
    0.8508   -1.0951   -0.9203 H   0  0  0  0  0  0  0  0  0  0  0  0
    0.4225    3.1757   -0.2921 H   0  0  0  0  0  0  0  0  0  0  0  0
   -1.8709    2.7785    0.7707 H   0  0  0  0  0  0  0  0  0  0  0  0
   -3.0772    0.4158    1.1071 N   0  0  0  0  0  0  0  0  0  0  0  0
   -3.4704   -0.7415    1.1843 O   0  0  0  0  0  0  0  0  0  0  0  0
   -3.6858    1.4034    1.4994 O   0  0  0  0  0  0  0  0  0  0  0  0
    2.2166    1.3356   -1.5361 N   0  0  0  0  0  0  0  0  0  0  0  0
    3.1279    1.5141   -2.1287 N   0  0  0  0  0  0  0  0  0  0  0  0
    2.7348    0.9412    1.5313 B   0  0  0  0  0  0  0  0  0  0  0  0
    2.9221   -0.0652    0.5103 F   0  0  0  0  0  0  0  0  0  0  0  0
    1.4674    0.7275    2.1247 F   0  0  0  0  0  0  0  0  0  0  0  0
    3.7659    0.9110    2.4488 F   0  0  0  0  0  0  0  0  0  0  0  0
    2.6936    2.2114    0.8420 F   0  0  0  0  0  0  0  0  0  0  0  0
  1  7  1  0  0  0  0
  1  6  2  0  0  0  0
  2  1  1  0  0  0  0
  3  2  2  0  0  0  0
  3  4  1  0  0  0  0
  4  5  2  0  0  0  0
  5  6  1  0  0  0  0
  5 10  1  0  0  0  0
  6 11  1  0  0  0  0
  8  2  1  0  0  0  0
  9  4  1  0  0  0  0
 11 12  2  0  0  0  0
 11 13  2  0  0  0  0
 15 14  3  0  0  0  0
 16 18  1  0  0  0  0
 16 19  1  0  0  0  0
 17 16  1  0  0  0  0
 20 16  1  0  0  0  0
M  RAD  1   3   2
M  END
