Coordinates from ORCA-job p-NO2-Ph-N2-BF4-B3LYPG-aug-cc-pVDZ-scan-d09-49-n400
 OpenBabel10311713223D

 20 18  0  0  0  0  0  0  0  0999 V2000
   -1.3091   -0.5991    0.0182 C   0  0  0  0  0  0  0  0  0  0  0  0
    0.0849   -0.6205    0.0209 C   0  0  0  0  0  0  0  0  0  0  0  0
    0.7607    0.5587    0.3147 C   0  0  0  0  0  0  0  0  0  0  0  0
    0.1185    1.7563    0.6094 C   0  0  0  0  0  0  0  0  0  0  0  0
   -1.2756    1.7739    0.6068 C   0  0  0  0  0  0  0  0  0  0  0  0
   -1.9678    0.5974    0.3106 C   0  0  0  0  0  0  0  0  0  0  0  0
   -1.8879   -1.4916   -0.2052 H   0  0  0  0  0  0  0  0  0  0  0  0
    0.6421   -1.5282   -0.2023 H   0  0  0  0  0  0  0  0  0  0  0  0
    0.7002    2.6482    0.8323 H   0  0  0  0  0  0  0  0  0  0  0  0
   -1.8293    2.6823    0.8295 H   0  0  0  0  0  0  0  0  0  0  0  0
   -3.4416    0.6188    0.3064 N   0  0  0  0  0  0  0  0  0  0  0  0
   -4.0273   -0.4285    0.0418 O   0  0  0  0  0  0  0  0  0  0  0  0
   -3.9982    1.6829    0.5660 O   0  0  0  0  0  0  0  0  0  0  0  0
    1.5829    1.2570   -2.5868 N   0  0  0  0  0  0  0  0  0  0  0  0
    2.0353    1.2376   -3.5938 N   0  0  0  0  0  0  0  0  0  0  0  0
    3.7266    1.6018    2.1022 B   0  0  0  0  0  0  0  0  0  0  0  0
    2.1223    0.5343    0.3142 F   0  0  0  0  0  0  0  0  0  0  0  0
    3.1467    0.9058    3.0726 F   0  0  0  0  0  0  0  0  0  0  0  0
    4.7760    1.1086    1.4600 F   0  0  0  0  0  0  0  0  0  0  0  0
    3.2838    2.8231    1.8156 F   0  0  0  0  0  0  0  0  0  0  0  0
  1  2  2  0  0  0  0
  1  6  1  0  0  0  0
  2  3  1  0  0  0  0
  3  4  2  0  0  0  0
  4  9  1  0  0  0  0
  5  4  1  0  0  0  0
  5 10  1  0  0  0  0
  6  5  2  0  0  0  0
  7  1  1  0  0  0  0
  8  2  1  0  0  0  0
 11  6  1  0  0  0  0
 11 13  2  0  0  0  0
 12 11  2  0  0  0  0
 15 14  3  0  0  0  0
 16 18  1  0  0  0  0
 17  3  1  0  0  0  0
 19 16  1  0  0  0  0
 20 16  1  0  0  0  0
M  END
