Coordinates from ORCA-job p-NO2-Ph-N2-BF4-B3LYPG-aug-cc-pVDZ-scan-d09-49-n400
 OpenBabel10311713223D

 20 18  0  0  0  0  0  0  0  0999 V2000
   -1.4150   -0.6342    0.2149 C   0  0  0  0  0  0  0  0  0  0  0  0
   -0.0209   -0.6596    0.2073 C   0  0  0  0  0  0  0  0  0  0  0  0
    0.6597    0.5322    0.4358 C   0  0  0  0  0  0  0  0  0  0  0  0
    0.0227    1.7470    0.6698 C   0  0  0  0  0  0  0  0  0  0  0  0
   -1.3715    1.7674    0.6772 C   0  0  0  0  0  0  0  0  0  0  0  0
   -2.0679    0.5781    0.4500 C   0  0  0  0  0  0  0  0  0  0  0  0
   -1.9978   -1.5351    0.0420 H   0  0  0  0  0  0  0  0  0  0  0  0
    0.5330   -1.5787    0.0267 H   0  0  0  0  0  0  0  0  0  0  0  0
    0.6089    2.6472    0.8423 H   0  0  0  0  0  0  0  0  0  0  0  0
   -1.9218    2.6877    0.8548 H   0  0  0  0  0  0  0  0  0  0  0  0
   -3.5421    0.6031    0.4568 N   0  0  0  0  0  0  0  0  0  0  0  0
   -4.1320   -0.4565    0.2595 O   0  0  0  0  0  0  0  0  0  0  0  0
   -4.0940    1.6795    0.6712 O   0  0  0  0  0  0  0  0  0  0  0  0
    2.3292    1.4858   -3.6760 N   0  0  0  0  0  0  0  0  0  0  0  0
    2.8606    1.4928   -4.6442 N   0  0  0  0  0  0  0  0  0  0  0  0
    3.6855    1.5560    2.1713 B   0  0  0  0  0  0  0  0  0  0  0  0
    2.0220    0.5069    0.4182 F   0  0  0  0  0  0  0  0  0  0  0  0
    3.2669    0.7147    3.1086 F   0  0  0  0  0  0  0  0  0  0  0  0
    4.7122    1.2369    1.3961 F   0  0  0  0  0  0  0  0  0  0  0  0
    3.1058    2.7476    2.0510 F   0  0  0  0  0  0  0  0  0  0  0  0
  1  6  1  0  0  0  0
  2  1  2  0  0  0  0
  2  3  1  0  0  0  0
  3  4  2  0  0  0  0
  4  5  1  0  0  0  0
  4  9  1  0  0  0  0
  5 10  1  0  0  0  0
  6 11  1  0  0  0  0
  6  5  2  0  0  0  0
  7  1  1  0  0  0  0
  8  2  1  0  0  0  0
 11 13  2  0  0  0  0
 12 11  2  0  0  0  0
 15 14  3  0  0  0  0
 16 18  1  0  0  0  0
 17  3  1  0  0  0  0
 19 16  1  0  0  0  0
 20 16  1  0  0  0  0
M  END
