Coordinates from ORCA-job p-NO2-Ph-N2-BF4-B3LYPG-aug-cc-pVDZ-scan-d09-49-n400
 OpenBabel10311713223D

 20 18  0  0  0  0  0  0  0  0999 V2000
   -1.0450   -0.4687    0.0111 C   0  0  0  0  0  0  0  0  0  0  0  0
    0.2071   -0.2850   -0.6018 C   0  0  0  0  0  0  0  0  0  0  0  0
    0.5130    1.0352   -0.6555 C   0  0  0  0  0  0  0  0  0  0  0  0
   -0.0422    2.1994   -0.2366 C   0  0  0  0  0  0  0  0  0  0  0  0
   -1.2881    1.9536    0.3671 C   0  0  0  0  0  0  0  0  0  0  0  0
   -1.7571    0.6424    0.4667 C   0  0  0  0  0  0  0  0  0  0  0  0
   -1.4425   -1.4719    0.1469 H   0  0  0  0  0  0  0  0  0  0  0  0
    0.8542   -1.0951   -0.9201 H   0  0  0  0  0  0  0  0  0  0  0  0
    0.4257    3.1763   -0.2919 H   0  0  0  0  0  0  0  0  0  0  0  0
   -1.8691    2.7792    0.7718 H   0  0  0  0  0  0  0  0  0  0  0  0
   -3.0759    0.4157    1.1086 N   0  0  0  0  0  0  0  0  0  0  0  0
   -3.4634   -0.7427    1.1967 O   0  0  0  0  0  0  0  0  0  0  0  0
   -3.6789    1.4024    1.5118 O   0  0  0  0  0  0  0  0  0  0  0  0
    2.2388    1.3414   -1.5606 N   0  0  0  0  0  0  0  0  0  0  0  0
    3.1540    1.5195   -2.1478 N   0  0  0  0  0  0  0  0  0  0  0  0
    2.7210    0.9395    1.5325 B   0  0  0  0  0  0  0  0  0  0  0  0
    2.9097   -0.0671    0.5128 F   0  0  0  0  0  0  0  0  0  0  0  0
    1.4516    0.7260    2.1236 F   0  0  0  0  0  0  0  0  0  0  0  0
    3.7494    0.9086    2.4533 F   0  0  0  0  0  0  0  0  0  0  0  0
    2.6811    2.2100    0.8446 F   0  0  0  0  0  0  0  0  0  0  0  0
  1  7  1  0  0  0  0
  1  6  2  0  0  0  0
  2  1  1  0  0  0  0
  3  2  2  0  0  0  0
  3  4  1  0  0  0  0
  4  5  2  0  0  0  0
  5  6  1  0  0  0  0
  5 10  1  0  0  0  0
  6 11  1  0  0  0  0
  8  2  1  0  0  0  0
  9  4  1  0  0  0  0
 11 12  2  0  0  0  0
 11 13  2  0  0  0  0
 15 14  3  0  0  0  0
 16 18  1  0  0  0  0
 16 19  1  0  0  0  0
 17 16  1  0  0  0  0
 20 16  1  0  0  0  0
M  RAD  1   3   2
M  END
