Coordinates from ORCA-job p-NO2-Ph-N2-BF4-B3LYPG-aug-cc-pVDZ-scan-d09-49-n400
 OpenBabel10311713223D

 20 18  0  0  0  0  0  0  0  0999 V2000
   -1.0478   -0.4744    0.0487 C   0  0  0  0  0  0  0  0  0  0  0  0
    0.2239   -0.3011   -0.5481 C   0  0  0  0  0  0  0  0  0  0  0  0
    0.4663    1.0164   -0.5620 C   0  0  0  0  0  0  0  0  0  0  0  0
   -0.0271    2.2021   -0.1804 C   0  0  0  0  0  0  0  0  0  0  0  0
   -1.2907    1.9475    0.4045 C   0  0  0  0  0  0  0  0  0  0  0  0
   -1.7643    0.6370    0.4978 C   0  0  0  0  0  0  0  0  0  0  0  0
   -1.4416   -1.4816    0.1731 H   0  0  0  0  0  0  0  0  0  0  0  0
    0.8840   -1.1034   -0.8584 H   0  0  0  0  0  0  0  0  0  0  0  0
    0.4554    3.1718   -0.2302 H   0  0  0  0  0  0  0  0  0  0  0  0
   -1.8691    2.7810    0.7991 H   0  0  0  0  0  0  0  0  0  0  0  0
   -3.0884    0.4124    1.1234 N   0  0  0  0  0  0  0  0  0  0  0  0
   -3.4808   -0.7452    1.1993 O   0  0  0  0  0  0  0  0  0  0  0  0
   -3.6962    1.4010    1.5143 O   0  0  0  0  0  0  0  0  0  0  0  0
    2.4514    1.4070   -1.8600 N   0  0  0  0  0  0  0  0  0  0  0  0
    3.4135    1.5787   -2.3699 N   0  0  0  0  0  0  0  0  0  0  0  0
    2.6336    0.9308    1.5341 B   0  0  0  0  0  0  0  0  0  0  0  0
    2.7903   -0.0747    0.5116 F   0  0  0  0  0  0  0  0  0  0  0  0
    1.3805    0.7128    2.1667 F   0  0  0  0  0  0  0  0  0  0  0  0
    3.6870    0.9053    2.4254 F   0  0  0  0  0  0  0  0  0  0  0  0
    2.5636    2.1955    0.8441 F   0  0  0  0  0  0  0  0  0  0  0  0
  1  7  1  0  0  0  0
  1  6  2  0  0  0  0
  2  1  1  0  0  0  0
  3  2  2  0  0  0  0
  3  4  1  0  0  0  0
  4  5  2  0  0  0  0
  5  6  1  0  0  0  0
  5 10  1  0  0  0  0
  6 11  1  0  0  0  0
  8  2  1  0  0  0  0
  9  4  1  0  0  0  0
 11 12  2  0  0  0  0
 11 13  2  0  0  0  0
 15 14  3  0  0  0  0
 16 18  1  0  0  0  0
 16 19  1  0  0  0  0
 17 16  1  0  0  0  0
 20 16  1  0  0  0  0
M  RAD  1   3   2
M  END
