Coordinates from ORCA-job p-NO2-Ph-N2-BF4-B3LYPG-aug-cc-pVDZ-scan-d09-49-n400
 OpenBabel10311713223D

 20 19  0  0  0  0  0  0  0  0999 V2000
   -0.8796   -0.4438   -0.0463 C   0  0  0  0  0  0  0  0  0  0  0  0
    0.2885   -0.2353   -0.7530 C   0  0  0  0  0  0  0  0  0  0  0  0
    0.7616    1.1015   -0.9482 C   0  0  0  0  0  0  0  0  0  0  0  0
    0.0461    2.2092   -0.3917 C   0  0  0  0  0  0  0  0  0  0  0  0
   -1.1199    1.9777    0.3116 C   0  0  0  0  0  0  0  0  0  0  0  0
   -1.5585    0.6622    0.4671 C   0  0  0  0  0  0  0  0  0  0  0  0
   -1.2583   -1.4461    0.1335 H   0  0  0  0  0  0  0  0  0  0  0  0
    0.8789   -1.0623   -1.1393 H   0  0  0  0  0  0  0  0  0  0  0  0
    0.4553    3.2095   -0.5076 H   0  0  0  0  0  0  0  0  0  0  0  0
   -1.6789    2.7942    0.7604 H   0  0  0  0  0  0  0  0  0  0  0  0
   -2.8159    0.4243    1.2320 N   0  0  0  0  0  0  0  0  0  0  0  0
   -3.1810   -0.7373    1.3543 O   0  0  0  0  0  0  0  0  0  0  0  0
   -3.3946    1.4092    1.6708 O   0  0  0  0  0  0  0  0  0  0  0  0
    1.7584    1.2841   -1.5141 N   0  0  0  0  0  0  0  0  0  0  0  0
    2.7199    1.4616   -2.0677 N   0  0  0  0  0  0  0  0  0  0  0  0
    2.4624    0.8982    1.6525 B   0  0  0  0  0  0  0  0  0  0  0  0
    2.7278   -0.0995    0.6457 F   0  0  0  0  0  0  0  0  0  0  0  0
    1.1383    0.6913    2.1285 F   0  0  0  0  0  0  0  0  0  0  0  0
    3.4001    0.8462    2.6642 F   0  0  0  0  0  0  0  0  0  0  0  0
    2.4930    2.1739    0.9805 F   0  0  0  0  0  0  0  0  0  0  0  0
  1  7  1  0  0  0  0
  1  6  2  0  0  0  0
  2  1  1  0  0  0  0
  3  2  2  0  0  0  0
  3  4  1  0  0  0  0
  4  5  2  0  0  0  0
  5  6  1  0  0  0  0
  5 10  1  0  0  0  0
  6 11  1  0  0  0  0
  8  2  1  0  0  0  0
  9  4  1  0  0  0  0
 11 12  2  0  0  0  0
 11 13  2  0  0  0  0
 14  3  1  0  0  0  0
 15 14  1  0  0  0  0
 16 18  1  0  0  0  0
 16 19  1  0  0  0  0
 17 16  1  0  0  0  0
 20 16  1  0  0  0  0
M  RAD  2  14   2  15   3
M  END
