Coordinates from ORCA-job p-NO2-Ph-N2-BF4-B3LYPG-aug-cc-pVDZ-scan-d09-49-n400
 OpenBabel10311713223D

 20 18  0  0  0  0  0  0  0  0999 V2000
   -1.4331   -0.6405    0.2453 C   0  0  0  0  0  0  0  0  0  0  0  0
   -0.0392   -0.6675    0.2360 C   0  0  0  0  0  0  0  0  0  0  0  0
    0.6433    0.5249    0.4567 C   0  0  0  0  0  0  0  0  0  0  0  0
    0.0076    1.7415    0.6850 C   0  0  0  0  0  0  0  0  0  0  0  0
   -1.3867    1.7634    0.6939 C   0  0  0  0  0  0  0  0  0  0  0  0
   -2.0846    0.5737    0.4742 C   0  0  0  0  0  0  0  0  0  0  0  0
   -2.0171   -1.5419    0.0785 H   0  0  0  0  0  0  0  0  0  0  0  0
    0.5132   -1.5885    0.0605 H   0  0  0  0  0  0  0  0  0  0  0  0
    0.5947    2.6420    0.8526 H   0  0  0  0  0  0  0  0  0  0  0  0
   -1.9357    2.6853    0.8673 H   0  0  0  0  0  0  0  0  0  0  0  0
   -3.5587    0.6002    0.4828 N   0  0  0  0  0  0  0  0  0  0  0  0
   -4.1500   -0.4587    0.2863 O   0  0  0  0  0  0  0  0  0  0  0  0
   -4.1093    1.6796    0.6859 O   0  0  0  0  0  0  0  0  0  0  0  0
    2.4525    1.5292   -3.8519 N   0  0  0  0  0  0  0  0  0  0  0  0
    2.9945    1.5346   -4.8142 N   0  0  0  0  0  0  0  0  0  0  0  0
    3.6796    1.5531    2.1787 B   0  0  0  0  0  0  0  0  0  0  0  0
    2.0052    0.4980    0.4382 F   0  0  0  0  0  0  0  0  0  0  0  0
    3.2774    0.7049    3.1169 F   0  0  0  0  0  0  0  0  0  0  0  0
    4.7005    1.2451    1.3915 F   0  0  0  0  0  0  0  0  0  0  0  0
    3.0893    2.7406    2.0692 F   0  0  0  0  0  0  0  0  0  0  0  0
  1  6  1  0  0  0  0
  2  1  2  0  0  0  0
  2  3  1  0  0  0  0
  3  4  2  0  0  0  0
  4  5  1  0  0  0  0
  4  9  1  0  0  0  0
  5 10  1  0  0  0  0
  6 11  1  0  0  0  0
  6  5  2  0  0  0  0
  7  1  1  0  0  0  0
  8  2  1  0  0  0  0
 11 13  2  0  0  0  0
 12 11  2  0  0  0  0
 15 14  3  0  0  0  0
 16 18  1  0  0  0  0
 17  3  1  0  0  0  0
 19 16  1  0  0  0  0
 20 16  1  0  0  0  0
M  END
