Coordinates from ORCA-job p-NO2-Ph-N2-BF4-B3LYPG-aug-cc-pVDZ-scan-d09-49-n400
 OpenBabel10311713223D

 20 18  0  0  0  0  0  0  0  0999 V2000
   -1.3067   -0.5978    0.0118 C   0  0  0  0  0  0  0  0  0  0  0  0
    0.0873   -0.6189    0.0148 C   0  0  0  0  0  0  0  0  0  0  0  0
    0.7626    0.5599    0.3108 C   0  0  0  0  0  0  0  0  0  0  0  0
    0.1202    1.7567    0.6076 C   0  0  0  0  0  0  0  0  0  0  0  0
   -1.2738    1.7740    0.6049 C   0  0  0  0  0  0  0  0  0  0  0  0
   -1.9657    0.5979    0.3062 C   0  0  0  0  0  0  0  0  0  0  0  0
   -1.8852   -1.4900   -0.2135 H   0  0  0  0  0  0  0  0  0  0  0  0
    0.6450   -1.5258   -0.2104 H   0  0  0  0  0  0  0  0  0  0  0  0
    0.7019    2.6484    0.8318 H   0  0  0  0  0  0  0  0  0  0  0  0
   -1.8278    2.6819    0.8290 H   0  0  0  0  0  0  0  0  0  0  0  0
   -3.4395    0.6190    0.3017 N   0  0  0  0  0  0  0  0  0  0  0  0
   -4.0250   -0.4290    0.0395 O   0  0  0  0  0  0  0  0  0  0  0  0
   -3.9964    1.6814    0.5677 O   0  0  0  0  0  0  0  0  0  0  0  0
    1.5664    1.2511   -2.5548 N   0  0  0  0  0  0  0  0  0  0  0  0
    2.0188    1.2303   -3.5618 N   0  0  0  0  0  0  0  0  0  0  0  0
    3.7276    1.6030    2.0988 B   0  0  0  0  0  0  0  0  0  0  0  0
    2.1243    0.5356    0.3111 F   0  0  0  0  0  0  0  0  0  0  0  0
    3.1415    0.9145    3.0708 F   0  0  0  0  0  0  0  0  0  0  0  0
    4.7762    1.1016    1.4618 F   0  0  0  0  0  0  0  0  0  0  0  0
    3.2918    2.8251    1.8054 F   0  0  0  0  0  0  0  0  0  0  0  0
  1  2  2  0  0  0  0
  1  6  1  0  0  0  0
  2  3  1  0  0  0  0
  3 17  1  0  0  0  0
  3  4  2  0  0  0  0
  4  9  1  0  0  0  0
  5  4  1  0  0  0  0
  5 10  1  0  0  0  0
  6  5  2  0  0  0  0
  7  1  1  0  0  0  0
  8  2  1  0  0  0  0
 11  6  1  0  0  0  0
 11 13  2  0  0  0  0
 12 11  2  0  0  0  0
 15 14  3  0  0  0  0
 16 18  1  0  0  0  0
 19 16  1  0  0  0  0
 20 16  1  0  0  0  0
M  END
