Coordinates from ORCA-job p-NO2-Ph-N2-BF4-B3LYPG-aug-cc-pVDZ-scan-d09-49-n400
 OpenBabel10311713223D

 20 18  0  0  0  0  0  0  0  0999 V2000
   -1.3544   -0.6143    0.1087 C   0  0  0  0  0  0  0  0  0  0  0  0
    0.0396   -0.6366    0.1052 C   0  0  0  0  0  0  0  0  0  0  0  0
    0.7172    0.5501    0.3664 C   0  0  0  0  0  0  0  0  0  0  0  0
    0.0766    1.7568    0.6299 C   0  0  0  0  0  0  0  0  0  0  0  0
   -1.3176    1.7742    0.6336 C   0  0  0  0  0  0  0  0  0  0  0  0
   -2.0110    0.5899    0.3732 C   0  0  0  0  0  0  0  0  0  0  0  0
   -1.9347   -1.5117   -0.0891 H   0  0  0  0  0  0  0  0  0  0  0  0
    0.5956   -1.5499   -0.0973 H   0  0  0  0  0  0  0  0  0  0  0  0
    0.6600    2.6539    0.8266 H   0  0  0  0  0  0  0  0  0  0  0  0
   -1.8703    2.6885    0.8336 H   0  0  0  0  0  0  0  0  0  0  0  0
   -3.4851    0.6116    0.3760 N   0  0  0  0  0  0  0  0  0  0  0  0
   -4.0721   -0.4424    0.1436 O   0  0  0  0  0  0  0  0  0  0  0  0
   -4.0401    1.6821    0.6114 O   0  0  0  0  0  0  0  0  0  0  0  0
    1.9097    1.3512   -3.0726 N   0  0  0  0  0  0  0  0  0  0  0  0
    2.3991    1.3506   -4.0626 N   0  0  0  0  0  0  0  0  0  0  0  0
    3.7060    1.5765    2.1377 B   0  0  0  0  0  0  0  0  0  0  0  0
    2.0793    0.5274    0.3534 F   0  0  0  0  0  0  0  0  0  0  0  0
    3.2057    0.7956    3.0873 F   0  0  0  0  0  0  0  0  0  0  0  0
    4.7516    1.1792    1.4266 F   0  0  0  0  0  0  0  0  0  0  0  0
    3.1883    2.7863    1.9416 F   0  0  0  0  0  0  0  0  0  0  0  0
  1  6  1  0  0  0  0
  2  1  2  0  0  0  0
  2  3  1  0  0  0  0
  3  4  2  0  0  0  0
  4  5  1  0  0  0  0
  4  9  1  0  0  0  0
  5 10  1  0  0  0  0
  6 11  1  0  0  0  0
  6  5  2  0  0  0  0
  7  1  1  0  0  0  0
  8  2  1  0  0  0  0
 11 13  2  0  0  0  0
 12 11  2  0  0  0  0
 15 14  3  0  0  0  0
 16 18  1  0  0  0  0
 17  3  1  0  0  0  0
 19 16  1  0  0  0  0
 20 16  1  0  0  0  0
M  END
