Coordinates from ORCA-job p-NO2-Ph-N2-BF4-B3LYPG-aug-cc-pVDZ-scan-d09-49-n400
 OpenBabel10311713223D

 20 18  0  0  0  0  0  0  0  0999 V2000
   -1.4141   -0.6340    0.2147 C   0  0  0  0  0  0  0  0  0  0  0  0
   -0.0202   -0.6593    0.2067 C   0  0  0  0  0  0  0  0  0  0  0  0
    0.6607    0.5325    0.4349 C   0  0  0  0  0  0  0  0  0  0  0  0
    0.0233    1.7470    0.6697 C   0  0  0  0  0  0  0  0  0  0  0  0
   -1.3709    1.7673    0.6774 C   0  0  0  0  0  0  0  0  0  0  0  0
   -2.0672    0.5780    0.4501 C   0  0  0  0  0  0  0  0  0  0  0  0
   -1.9969   -1.5351    0.0419 H   0  0  0  0  0  0  0  0  0  0  0  0
    0.5335   -1.5785    0.0261 H   0  0  0  0  0  0  0  0  0  0  0  0
    0.6092    2.6473    0.8427 H   0  0  0  0  0  0  0  0  0  0  0  0
   -1.9212    2.6875    0.8556 H   0  0  0  0  0  0  0  0  0  0  0  0
   -3.5414    0.6028    0.4574 N   0  0  0  0  0  0  0  0  0  0  0  0
   -4.1313   -0.4556    0.2541 O   0  0  0  0  0  0  0  0  0  0  0  0
   -4.0935    1.6803    0.6663 O   0  0  0  0  0  0  0  0  0  0  0  0
    2.3233    1.4843   -3.6690 N   0  0  0  0  0  0  0  0  0  0  0  0
    2.8539    1.4913   -4.6375 N   0  0  0  0  0  0  0  0  0  0  0  0
    3.6863    1.5562    2.1707 B   0  0  0  0  0  0  0  0  0  0  0  0
    2.0227    0.5073    0.4174 F   0  0  0  0  0  0  0  0  0  0  0  0
    3.2674    0.7151    3.1081 F   0  0  0  0  0  0  0  0  0  0  0  0
    4.7130    1.2367    1.3957 F   0  0  0  0  0  0  0  0  0  0  0  0
    3.1068    2.7479    2.0502 F   0  0  0  0  0  0  0  0  0  0  0  0
  1  6  1  0  0  0  0
  2  1  2  0  0  0  0
  2  3  1  0  0  0  0
  3  4  2  0  0  0  0
  4  5  1  0  0  0  0
  4  9  1  0  0  0  0
  5 10  1  0  0  0  0
  6 11  1  0  0  0  0
  6  5  2  0  0  0  0
  7  1  1  0  0  0  0
  8  2  1  0  0  0  0
 11 13  2  0  0  0  0
 12 11  2  0  0  0  0
 15 14  3  0  0  0  0
 16 18  1  0  0  0  0
 17  3  1  0  0  0  0
 19 16  1  0  0  0  0
 20 16  1  0  0  0  0
M  END
