Coordinates from ORCA-job p-NO2-Ph-N2-BF4-B3LYPG-aug-cc-pVDZ-scan-d09-49-n400
 OpenBabel10311713223D

 20 19  0  0  0  0  0  0  0  0999 V2000
   -1.0136   -0.4612   -0.0150 C   0  0  0  0  0  0  0  0  0  0  0  0
    0.2170   -0.2627   -0.6389 C   0  0  0  0  0  0  0  0  0  0  0  0
    0.6194    1.0589   -0.7455 C   0  0  0  0  0  0  0  0  0  0  0  0
   -0.0288    2.1906   -0.2779 C   0  0  0  0  0  0  0  0  0  0  0  0
   -1.2562    1.9600    0.3413 C   0  0  0  0  0  0  0  0  0  0  0  0
   -1.7195    0.6483    0.4522 C   0  0  0  0  0  0  0  0  0  0  0  0
   -1.4150   -1.4607    0.1277 H   0  0  0  0  0  0  0  0  0  0  0  0
    0.8384   -1.0861   -0.9770 H   0  0  0  0  0  0  0  0  0  0  0  0
    0.4111    3.1806   -0.3488 H   0  0  0  0  0  0  0  0  0  0  0  0
   -1.8399    2.7794    0.7517 H   0  0  0  0  0  0  0  0  0  0  0  0
   -3.0308    0.4191    1.1164 N   0  0  0  0  0  0  0  0  0  0  0  0
   -3.4188   -0.7390    1.2049 O   0  0  0  0  0  0  0  0  0  0  0  0
   -3.6338    1.4055    1.5202 O   0  0  0  0  0  0  0  0  0  0  0  0
    2.0041    1.2978   -1.4267 N   0  0  0  0  0  0  0  0  0  0  0  0
    2.9345    1.4743   -1.9928 N   0  0  0  0  0  0  0  0  0  0  0  0
    2.7309    0.9381    1.5519 B   0  0  0  0  0  0  0  0  0  0  0  0
    2.9447   -0.0623    0.5281 F   0  0  0  0  0  0  0  0  0  0  0  0
    1.4477    0.7277    2.1066 F   0  0  0  0  0  0  0  0  0  0  0  0
    3.7364    0.9019    2.4957 F   0  0  0  0  0  0  0  0  0  0  0  0
    2.7155    2.2088    0.8592 F   0  0  0  0  0  0  0  0  0  0  0  0
  1  7  1  0  0  0  0
  1  6  2  0  0  0  0
  2  1  1  0  0  0  0
  3  2  2  0  0  0  0
  3  4  1  0  0  0  0
  4  5  2  0  0  0  0
  5  6  1  0  0  0  0
  5 10  1  0  0  0  0
  6 11  1  0  0  0  0
  8  2  1  0  0  0  0
  9  4  1  0  0  0  0
 11 12  2  0  0  0  0
 11 13  2  0  0  0  0
 14  3  1  0  0  0  0
 15 14  1  0  0  0  0
 16 18  1  0  0  0  0
 16 19  1  0  0  0  0
 17 16  1  0  0  0  0
 20 16  1  0  0  0  0
M  RAD  2  14   2  15   3
M  END
