Coordinates from ORCA-job p-NO2-Ph-N2-BF4-B3LYPG-aug-cc-pVDZ-scan-d09-49-n400
 OpenBabel10311713223D

 20 19  0  0  0  0  0  0  0  0999 V2000
   -0.8440   -0.4403   -0.0471 C   0  0  0  0  0  0  0  0  0  0  0  0
    0.3127   -0.2336   -0.7643 C   0  0  0  0  0  0  0  0  0  0  0  0
    0.8085    1.1120   -0.9904 C   0  0  0  0  0  0  0  0  0  0  0  0
    0.0708    2.2150   -0.4014 C   0  0  0  0  0  0  0  0  0  0  0  0
   -1.0836    1.9812    0.3116 C   0  0  0  0  0  0  0  0  0  0  0  0
   -1.5204    0.6653    0.4715 C   0  0  0  0  0  0  0  0  0  0  0  0
   -1.2190   -1.4435    0.1372 H   0  0  0  0  0  0  0  0  0  0  0  0
    0.9012   -1.0572   -1.1619 H   0  0  0  0  0  0  0  0  0  0  0  0
    0.4789    3.2148   -0.5289 H   0  0  0  0  0  0  0  0  0  0  0  0
   -1.6384    2.7980    0.7654 H   0  0  0  0  0  0  0  0  0  0  0  0
   -2.7727    0.4269    1.2445 N   0  0  0  0  0  0  0  0  0  0  0  0
   -3.1350   -0.7351    1.3691 O   0  0  0  0  0  0  0  0  0  0  0  0
   -3.3487    1.4122    1.6852 O   0  0  0  0  0  0  0  0  0  0  0  0
    1.6855    1.2780   -1.5248 N   0  0  0  0  0  0  0  0  0  0  0  0
    2.6422    1.4596   -2.1107 N   0  0  0  0  0  0  0  0  0  0  0  0
    2.4007    0.8895    1.6732 B   0  0  0  0  0  0  0  0  0  0  0  0
    2.6638   -0.1106    0.6683 F   0  0  0  0  0  0  0  0  0  0  0  0
    1.0754    0.6822    2.1487 F   0  0  0  0  0  0  0  0  0  0  0  0
    3.3375    0.8379    2.6845 F   0  0  0  0  0  0  0  0  0  0  0  0
    2.4279    2.1665    1.0035 F   0  0  0  0  0  0  0  0  0  0  0  0
  1  7  1  0  0  0  0
  1  6  2  0  0  0  0
  2  1  1  0  0  0  0
  3  2  2  0  0  0  0
  3  4  1  0  0  0  0
  4  5  2  0  0  0  0
  5  6  1  0  0  0  0
  5 10  1  0  0  0  0
  6 11  1  0  0  0  0
  8  2  1  0  0  0  0
  9  4  1  0  0  0  0
 11 12  2  0  0  0  0
 11 13  2  0  0  0  0
 14  3  1  0  0  0  0
 15 14  1  0  0  0  0
 16 18  1  0  0  0  0
 16 19  1  0  0  0  0
 17 16  1  0  0  0  0
 20 16  1  0  0  0  0
M  RAD  2  14   2  15   3
M  END
