Coordinates from ORCA-job p-NO2-Ph-N2-BF4-B3LYPG-aug-cc-pVDZ-scan-d09-49-n400
 OpenBabel10311713223D

 20 18  0  0  0  0  0  0  0  0999 V2000
   -1.2930   -0.5893   -0.0426 C   0  0  0  0  0  0  0  0  0  0  0  0
    0.1009   -0.5958   -0.0372 C   0  0  0  0  0  0  0  0  0  0  0  0
    0.7650    0.5901    0.2546 C   0  0  0  0  0  0  0  0  0  0  0  0
    0.1080    1.7703    0.5843 C   0  0  0  0  0  0  0  0  0  0  0  0
   -1.2855    1.7743    0.5795 C   0  0  0  0  0  0  0  0  0  0  0  0
   -1.9661    0.5964    0.2606 C   0  0  0  0  0  0  0  0  0  0  0  0
   -1.8613   -1.4870   -0.2718 H   0  0  0  0  0  0  0  0  0  0  0  0
    0.6657   -1.4976   -0.2648 H   0  0  0  0  0  0  0  0  0  0  0  0
    0.6782    2.6646    0.8273 H   0  0  0  0  0  0  0  0  0  0  0  0
   -1.8485    2.6719    0.8216 H   0  0  0  0  0  0  0  0  0  0  0  0
   -3.4390    0.6023    0.2539 N   0  0  0  0  0  0  0  0  0  0  0  0
   -4.0136   -0.4469   -0.0276 O   0  0  0  0  0  0  0  0  0  0  0  0
   -4.0076    1.6571    0.5265 O   0  0  0  0  0  0  0  0  0  0  0  0
    1.3938    1.1908   -2.1576 N   0  0  0  0  0  0  0  0  0  0  0  0
    1.9053    1.2071   -3.1362 N   0  0  0  0  0  0  0  0  0  0  0  0
    3.7969    1.6022    2.0328 B   0  0  0  0  0  0  0  0  0  0  0  0
    2.1251    0.5724    0.2932 F   0  0  0  0  0  0  0  0  0  0  0  0
    3.1547    1.0217    3.0395 F   0  0  0  0  0  0  0  0  0  0  0  0
    4.8054    0.9814    1.4369 F   0  0  0  0  0  0  0  0  0  0  0  0
    3.4587    2.8332    1.6603 F   0  0  0  0  0  0  0  0  0  0  0  0
  1  2  2  0  0  0  0
  1  6  1  0  0  0  0
  2  3  1  0  0  0  0
  3 17  1  0  0  0  0
  3  4  2  0  0  0  0
  4  9  1  0  0  0  0
  5  4  1  0  0  0  0
  5 10  1  0  0  0  0
  6  5  2  0  0  0  0
  7  1  1  0  0  0  0
  8  2  1  0  0  0  0
 11  6  1  0  0  0  0
 11 13  2  0  0  0  0
 12 11  2  0  0  0  0
 15 14  3  0  0  0  0
 16 18  1  0  0  0  0
 19 16  1  0  0  0  0
 20 16  1  0  0  0  0
M  END
