Coordinates from ORCA-job p-NO2-Ph-N2-BF4-B3LYPG-aug-cc-pVDZ-scan-d09-49-n400
 OpenBabel10311713223D

 20 19  0  0  0  0  0  0  0  0999 V2000
   -0.9421   -0.4513   -0.0356 C   0  0  0  0  0  0  0  0  0  0  0  0
    0.2520   -0.2445   -0.7097 C   0  0  0  0  0  0  0  0  0  0  0  0
    0.6965    1.0832   -0.8630 C   0  0  0  0  0  0  0  0  0  0  0  0
    0.0083    2.1995   -0.3494 C   0  0  0  0  0  0  0  0  0  0  0  0
   -1.1837    1.9701    0.3213 C   0  0  0  0  0  0  0  0  0  0  0  0
   -1.6313    0.6558    0.4611 C   0  0  0  0  0  0  0  0  0  0  0  0
   -1.3305   -1.4522    0.1302 H   0  0  0  0  0  0  0  0  0  0  0  0
    0.8539   -1.0719   -1.0752 H   0  0  0  0  0  0  0  0  0  0  0  0
    0.4284    3.1969   -0.4456 H   0  0  0  0  0  0  0  0  0  0  0  0
   -1.7533    2.7871    0.7552 H   0  0  0  0  0  0  0  0  0  0  0  0
   -2.9088    0.4208    1.1908 N   0  0  0  0  0  0  0  0  0  0  0  0
   -3.2860   -0.7390    1.2961 O   0  0  0  0  0  0  0  0  0  0  0  0
   -3.5002    1.4063    1.6121 O   0  0  0  0  0  0  0  0  0  0  0  0
    1.8649    1.2888   -1.4667 N   0  0  0  0  0  0  0  0  0  0  0  0
    2.8277    1.4633   -1.9971 N   0  0  0  0  0  0  0  0  0  0  0  0
    2.5860    0.9170    1.6024 B   0  0  0  0  0  0  0  0  0  0  0  0
    2.8406   -0.0799    0.5894 F   0  0  0  0  0  0  0  0  0  0  0  0
    1.2719    0.7101    2.0964 F   0  0  0  0  0  0  0  0  0  0  0  0
    3.5406    0.8685    2.5981 F   0  0  0  0  0  0  0  0  0  0  0  0
    2.6085    2.1906    0.9226 F   0  0  0  0  0  0  0  0  0  0  0  0
  1  7  1  0  0  0  0
  1  6  2  0  0  0  0
  2  1  1  0  0  0  0
  3  2  2  0  0  0  0
  3  4  1  0  0  0  0
  4  5  2  0  0  0  0
  5  6  1  0  0  0  0
  5 10  1  0  0  0  0
  6 11  1  0  0  0  0
  8  2  1  0  0  0  0
  9  4  1  0  0  0  0
 11 12  2  0  0  0  0
 11 13  2  0  0  0  0
 14  3  1  0  0  0  0
 15 14  1  0  0  0  0
 16 18  1  0  0  0  0
 16 19  1  0  0  0  0
 17 16  1  0  0  0  0
 20 16  1  0  0  0  0
M  RAD  2  14   2  15   3
M  END
