Coordinates from ORCA-job p-NO2-Ph-N2-BF4-B3LYPG-aug-cc-pVDZ-scan-d09-49-n400
 OpenBabel10311713223D

 20 18  0  0  0  0  0  0  0  0999 V2000
   -1.2928   -0.5890   -0.0420 C   0  0  0  0  0  0  0  0  0  0  0  0
    0.1012   -0.5967   -0.0363 C   0  0  0  0  0  0  0  0  0  0  0  0
    0.7662    0.5884    0.2566 C   0  0  0  0  0  0  0  0  0  0  0  0
    0.1102    1.7696    0.5846 C   0  0  0  0  0  0  0  0  0  0  0  0
   -1.2833    1.7748    0.5795 C   0  0  0  0  0  0  0  0  0  0  0  0
   -1.9648    0.5973    0.2610 C   0  0  0  0  0  0  0  0  0  0  0  0
   -1.8619   -1.4861   -0.2716 H   0  0  0  0  0  0  0  0  0  0  0  0
    0.6653   -1.4989   -0.2640 H   0  0  0  0  0  0  0  0  0  0  0  0
    0.6812    2.6635    0.8270 H   0  0  0  0  0  0  0  0  0  0  0  0
   -1.8456    2.6731    0.8207 H   0  0  0  0  0  0  0  0  0  0  0  0
   -3.4378    0.6046    0.2538 N   0  0  0  0  0  0  0  0  0  0  0  0
   -4.0132   -0.4463   -0.0196 O   0  0  0  0  0  0  0  0  0  0  0  0
   -4.0055    1.6578    0.5340 O   0  0  0  0  0  0  0  0  0  0  0  0
    1.4010    1.1931   -2.1743 N   0  0  0  0  0  0  0  0  0  0  0  0
    1.9066    1.2034   -3.1561 N   0  0  0  0  0  0  0  0  0  0  0  0
    3.7905    1.6026    2.0371 B   0  0  0  0  0  0  0  0  0  0  0  0
    2.1263    0.5700    0.2927 F   0  0  0  0  0  0  0  0  0  0  0  0
    3.1514    1.0146    3.0414 F   0  0  0  0  0  0  0  0  0  0  0  0
    4.8022    0.9896    1.4386 F   0  0  0  0  0  0  0  0  0  0  0  0
    3.4460    2.8335    1.6700 F   0  0  0  0  0  0  0  0  0  0  0  0
  1  2  2  0  0  0  0
  1  6  1  0  0  0  0
  2  3  1  0  0  0  0
  3 17  1  0  0  0  0
  3  4  2  0  0  0  0
  4  9  1  0  0  0  0
  5  4  1  0  0  0  0
  5 10  1  0  0  0  0
  6  5  2  0  0  0  0
  7  1  1  0  0  0  0
  8  2  1  0  0  0  0
 11  6  1  0  0  0  0
 11 13  2  0  0  0  0
 12 11  2  0  0  0  0
 15 14  3  0  0  0  0
 16 18  1  0  0  0  0
 19 16  1  0  0  0  0
 20 16  1  0  0  0  0
M  END
