Coordinates from ORCA-job p-NO2-Ph-N2-BF4-B3LYPG-aug-cc-pVDZ-scan-d09-49-n400
 OpenBabel10311713223D

 20 18  0  0  0  0  0  0  0  0999 V2000
   -1.3656   -0.6180    0.1298 C   0  0  0  0  0  0  0  0  0  0  0  0
    0.0284   -0.6405    0.1251 C   0  0  0  0  0  0  0  0  0  0  0  0
    0.7066    0.5480    0.3787 C   0  0  0  0  0  0  0  0  0  0  0  0
    0.0659    1.7562    0.6363 C   0  0  0  0  0  0  0  0  0  0  0  0
   -1.3283    1.7736    0.6410 C   0  0  0  0  0  0  0  0  0  0  0  0
   -2.0218    0.5878    0.3880 C   0  0  0  0  0  0  0  0  0  0  0  0
   -1.9462   -1.5165   -0.0624 H   0  0  0  0  0  0  0  0  0  0  0  0
    0.5839   -1.5551   -0.0725 H   0  0  0  0  0  0  0  0  0  0  0  0
    0.6492    2.6544    0.8281 H   0  0  0  0  0  0  0  0  0  0  0  0
   -1.8809    2.6889    0.8365 H   0  0  0  0  0  0  0  0  0  0  0  0
   -3.4960    0.6095    0.3920 N   0  0  0  0  0  0  0  0  0  0  0  0
   -4.0833   -0.4457    0.1654 O   0  0  0  0  0  0  0  0  0  0  0  0
   -4.0507    1.6815    0.6211 O   0  0  0  0  0  0  0  0  0  0  0  0
    1.9894    1.3747   -3.1858 N   0  0  0  0  0  0  0  0  0  0  0  0
    2.4866    1.3785   -4.1716 N   0  0  0  0  0  0  0  0  0  0  0  0
    3.7025    1.5712    2.1440 B   0  0  0  0  0  0  0  0  0  0  0  0
    2.0684    0.5253    0.3650 F   0  0  0  0  0  0  0  0  0  0  0  0
    3.2193    0.7757    3.0902 F   0  0  0  0  0  0  0  0  0  0  0  0
    4.7447    1.1914    1.4186 F   0  0  0  0  0  0  0  0  0  0  0  0
    3.1712    2.7780    1.9656 F   0  0  0  0  0  0  0  0  0  0  0  0
  1  6  1  0  0  0  0
  2  1  2  0  0  0  0
  2  3  1  0  0  0  0
  3  4  2  0  0  0  0
  4  5  1  0  0  0  0
  4  9  1  0  0  0  0
  5 10  1  0  0  0  0
  6 11  1  0  0  0  0
  6  5  2  0  0  0  0
  7  1  1  0  0  0  0
  8  2  1  0  0  0  0
 11 13  2  0  0  0  0
 12 11  2  0  0  0  0
 15 14  3  0  0  0  0
 16 18  1  0  0  0  0
 17  3  1  0  0  0  0
 19 16  1  0  0  0  0
 20 16  1  0  0  0  0
M  END
