Coordinates from ORCA-job p-NO2-Ph-N2-BF4-B3LYPG-aug-cc-pVDZ-scan-d09-49-n400
 OpenBabel10311713223D

 20 18  0  0  0  0  0  0  0  0999 V2000
   -1.0469   -0.4744    0.0481 C   0  0  0  0  0  0  0  0  0  0  0  0
    0.2243   -0.3010   -0.5495 C   0  0  0  0  0  0  0  0  0  0  0  0
    0.4675    1.0169   -0.5642 C   0  0  0  0  0  0  0  0  0  0  0  0
   -0.0268    2.2025   -0.1818 C   0  0  0  0  0  0  0  0  0  0  0  0
   -1.2899    1.9479    0.4039 C   0  0  0  0  0  0  0  0  0  0  0  0
   -1.7631    0.6372    0.4975 C   0  0  0  0  0  0  0  0  0  0  0  0
   -1.4407   -1.4816    0.1729 H   0  0  0  0  0  0  0  0  0  0  0  0
    0.8842   -1.1034   -0.8602 H   0  0  0  0  0  0  0  0  0  0  0  0
    0.4555    3.1724   -0.2318 H   0  0  0  0  0  0  0  0  0  0  0  0
   -1.8682    2.7812    0.7990 H   0  0  0  0  0  0  0  0  0  0  0  0
   -3.0870    0.4124    1.1239 N   0  0  0  0  0  0  0  0  0  0  0  0
   -3.4797   -0.7450    1.1990 O   0  0  0  0  0  0  0  0  0  0  0  0
   -3.6951    1.4012    1.5140 O   0  0  0  0  0  0  0  0  0  0  0  0
    2.4452    1.4057   -1.8555 N   0  0  0  0  0  0  0  0  0  0  0  0
    3.4073    1.5774   -2.3654 N   0  0  0  0  0  0  0  0  0  0  0  0
    2.6340    0.9308    1.5343 B   0  0  0  0  0  0  0  0  0  0  0  0
    2.7914   -0.0748    0.5121 F   0  0  0  0  0  0  0  0  0  0  0  0
    1.3802    0.7129    2.1655 F   0  0  0  0  0  0  0  0  0  0  0  0
    3.6865    0.9051    2.4267 F   0  0  0  0  0  0  0  0  0  0  0  0
    2.5647    2.1956    0.8446 F   0  0  0  0  0  0  0  0  0  0  0  0
  1  7  1  0  0  0  0
  1  6  2  0  0  0  0
  2  1  1  0  0  0  0
  3  2  2  0  0  0  0
  3  4  1  0  0  0  0
  4  5  2  0  0  0  0
  5  6  1  0  0  0  0
  5 10  1  0  0  0  0
  6 11  1  0  0  0  0
  8  2  1  0  0  0  0
  9  4  1  0  0  0  0
 11 12  2  0  0  0  0
 11 13  2  0  0  0  0
 15 14  3  0  0  0  0
 16 18  1  0  0  0  0
 16 19  1  0  0  0  0
 17 16  1  0  0  0  0
 20 16  1  0  0  0  0
M  RAD  1   3   2
M  END
