Coordinates from ORCA-job p-NO2-Ph-N2-BF4-B3LYPG-aug-cc-pVDZ-scan-d09-49-n400
 OpenBabel10311713223D

 20 18  0  0  0  0  0  0  0  0999 V2000
   -1.0427   -0.4739    0.0485 C   0  0  0  0  0  0  0  0  0  0  0  0
    0.2249   -0.2994   -0.5549 C   0  0  0  0  0  0  0  0  0  0  0  0
    0.4713    1.0188   -0.5737 C   0  0  0  0  0  0  0  0  0  0  0  0
   -0.0261    2.2028   -0.1874 C   0  0  0  0  0  0  0  0  0  0  0  0
   -1.2856    1.9482    0.4042 C   0  0  0  0  0  0  0  0  0  0  0  0
   -1.7574    0.6373    0.5008 C   0  0  0  0  0  0  0  0  0  0  0  0
   -1.4360   -1.4809    0.1752 H   0  0  0  0  0  0  0  0  0  0  0  0
    0.8835   -1.1017   -0.8686 H   0  0  0  0  0  0  0  0  0  0  0  0
    0.4548    3.1732   -0.2404 H   0  0  0  0  0  0  0  0  0  0  0  0
   -1.8635    2.7809    0.8011 H   0  0  0  0  0  0  0  0  0  0  0  0
   -3.0785    0.4120    1.1329 N   0  0  0  0  0  0  0  0  0  0  0  0
   -3.4796   -0.7437    1.1905 O   0  0  0  0  0  0  0  0  0  0  0  0
   -3.6950    1.4022    1.5055 O   0  0  0  0  0  0  0  0  0  0  0  0
    2.4201    1.4005   -1.8370 N   0  0  0  0  0  0  0  0  0  0  0  0
    3.3828    1.5726   -2.3493 N   0  0  0  0  0  0  0  0  0  0  0  0
    2.6363    0.9308    1.5346 B   0  0  0  0  0  0  0  0  0  0  0  0
    2.7993   -0.0751    0.5136 F   0  0  0  0  0  0  0  0  0  0  0  0
    1.3787    0.7138    2.1581 F   0  0  0  0  0  0  0  0  0  0  0  0
    3.6836    0.9040    2.4334 F   0  0  0  0  0  0  0  0  0  0  0  0
    2.5722    2.1966    0.8459 F   0  0  0  0  0  0  0  0  0  0  0  0
  1  7  1  0  0  0  0
  1  6  2  0  0  0  0
  2  1  1  0  0  0  0
  3  2  2  0  0  0  0
  3  4  1  0  0  0  0
  4  5  2  0  0  0  0
  5  6  1  0  0  0  0
  5 10  1  0  0  0  0
  6 11  1  0  0  0  0
  8  2  1  0  0  0  0
  9  4  1  0  0  0  0
 11 12  2  0  0  0  0
 11 13  2  0  0  0  0
 15 14  3  0  0  0  0
 16 18  1  0  0  0  0
 16 19  1  0  0  0  0
 17 16  1  0  0  0  0
 20 16  1  0  0  0  0
M  RAD  1   3   2
M  END
