Coordinates from ORCA-job p-NO2-Ph-N2-BF4-B3LYPG-aug-cc-pVDZ-scan-d09-49-n400
 OpenBabel10311713223D

 20 19  0  0  0  0  0  0  0  0999 V2000
   -0.9923   -0.4581   -0.0213 C   0  0  0  0  0  0  0  0  0  0  0  0
    0.2268   -0.2563   -0.6611 C   0  0  0  0  0  0  0  0  0  0  0  0
    0.6450    1.0668   -0.7832 C   0  0  0  0  0  0  0  0  0  0  0  0
   -0.0184    2.1926   -0.3006 C   0  0  0  0  0  0  0  0  0  0  0  0
   -1.2346    1.9630    0.3351 C   0  0  0  0  0  0  0  0  0  0  0  0
   -1.6934    0.6505    0.4548 C   0  0  0  0  0  0  0  0  0  0  0  0
   -1.3903   -1.4579    0.1283 H   0  0  0  0  0  0  0  0  0  0  0  0
    0.8412   -1.0816   -1.0082 H   0  0  0  0  0  0  0  0  0  0  0  0
    0.4143    3.1855   -0.3798 H   0  0  0  0  0  0  0  0  0  0  0  0
   -1.8147    2.7814    0.7523 H   0  0  0  0  0  0  0  0  0  0  0  0
   -2.9953    0.4196    1.1383 N   0  0  0  0  0  0  0  0  0  0  0  0
   -3.3793   -0.7392    1.2334 O   0  0  0  0  0  0  0  0  0  0  0  0
   -3.5941    1.4055    1.5489 O   0  0  0  0  0  0  0  0  0  0  0  0
    1.9560    1.2940   -1.4347 N   0  0  0  0  0  0  0  0  0  0  0  0
    2.8996    1.4691   -1.9828 N   0  0  0  0  0  0  0  0  0  0  0  0
    2.6905    0.9322    1.5655 B   0  0  0  0  0  0  0  0  0  0  0  0
    2.9207   -0.0667    0.5452 F   0  0  0  0  0  0  0  0  0  0  0  0
    1.3949    0.7235    2.0959 F   0  0  0  0  0  0  0  0  0  0  0  0
    3.6760    0.8911    2.5302 F   0  0  0  0  0  0  0  0  0  0  0  0
    2.6908    2.2040    0.8769 F   0  0  0  0  0  0  0  0  0  0  0  0
  1  7  1  0  0  0  0
  1  6  2  0  0  0  0
  2  1  1  0  0  0  0
  3  2  2  0  0  0  0
  3  4  1  0  0  0  0
  4  5  2  0  0  0  0
  5  6  1  0  0  0  0
  5 10  1  0  0  0  0
  6 11  1  0  0  0  0
  8  2  1  0  0  0  0
  9  4  1  0  0  0  0
 11 12  2  0  0  0  0
 11 13  2  0  0  0  0
 14  3  1  0  0  0  0
 15 14  1  0  0  0  0
 16 18  1  0  0  0  0
 16 19  1  0  0  0  0
 17 16  1  0  0  0  0
 20 16  1  0  0  0  0
M  RAD  2  14   2  15   3
M  END
