Coordinates from ORCA-job p-NO2-Ph-N2-BF4-B3LYPG-aug-cc-pVDZ-scan-d09-49-n400
 OpenBabel10311713223D

 20 18  0  0  0  0  0  0  0  0999 V2000
   -1.4209   -0.6364    0.2258 C   0  0  0  0  0  0  0  0  0  0  0  0
   -0.0270   -0.6623    0.2175 C   0  0  0  0  0  0  0  0  0  0  0  0
    0.6541    0.5298    0.4431 C   0  0  0  0  0  0  0  0  0  0  0  0
    0.0177    1.7452    0.6749 C   0  0  0  0  0  0  0  0  0  0  0  0
   -1.3766    1.7661    0.6829 C   0  0  0  0  0  0  0  0  0  0  0  0
   -2.0735    0.5765    0.4587 C   0  0  0  0  0  0  0  0  0  0  0  0
   -2.0041   -1.5376    0.0552 H   0  0  0  0  0  0  0  0  0  0  0  0
    0.5266   -1.5819    0.0386 H   0  0  0  0  0  0  0  0  0  0  0  0
    0.6042    2.6456    0.8454 H   0  0  0  0  0  0  0  0  0  0  0  0
   -1.9265    2.6870    0.8590 H   0  0  0  0  0  0  0  0  0  0  0  0
   -3.5476    0.6019    0.4663 N   0  0  0  0  0  0  0  0  0  0  0  0
   -4.1380   -0.4569    0.2662 O   0  0  0  0  0  0  0  0  0  0  0  0
   -4.0991    1.6800    0.6733 O   0  0  0  0  0  0  0  0  0  0  0  0
    2.3693    1.5004   -3.7347 N   0  0  0  0  0  0  0  0  0  0  0  0
    2.9042    1.5070   -4.7010 N   0  0  0  0  0  0  0  0  0  0  0  0
    3.6839    1.5548    2.1738 B   0  0  0  0  0  0  0  0  0  0  0  0
    2.0164    0.5040    0.4250 F   0  0  0  0  0  0  0  0  0  0  0  0
    3.2715    0.7104    3.1110 F   0  0  0  0  0  0  0  0  0  0  0  0
    4.7085    1.2404    1.3940 F   0  0  0  0  0  0  0  0  0  0  0  0
    3.1001    2.7449    2.0580 F   0  0  0  0  0  0  0  0  0  0  0  0
  1  6  1  0  0  0  0
  2  1  2  0  0  0  0
  2  3  1  0  0  0  0
  3  4  2  0  0  0  0
  4  5  1  0  0  0  0
  4  9  1  0  0  0  0
  5 10  1  0  0  0  0
  6 11  1  0  0  0  0
  6  5  2  0  0  0  0
  7  1  1  0  0  0  0
  8  2  1  0  0  0  0
 11 13  2  0  0  0  0
 12 11  2  0  0  0  0
 15 14  3  0  0  0  0
 16 18  1  0  0  0  0
 17  3  1  0  0  0  0
 19 16  1  0  0  0  0
 20 16  1  0  0  0  0
M  END
