Coordinates from ORCA-job p-NO2-Ph-N2-BF4-B3LYPG-aug-cc-pVDZ-scan-d09-49-n400
 OpenBabel10311713223D

 20 18  0  0  0  0  0  0  0  0999 V2000
   -1.3158   -0.6022    0.0337 C   0  0  0  0  0  0  0  0  0  0  0  0
    0.0782   -0.6256    0.0376 C   0  0  0  0  0  0  0  0  0  0  0  0
    0.7547    0.5537    0.3287 C   0  0  0  0  0  0  0  0  0  0  0  0
    0.1147    1.7544    0.6147 C   0  0  0  0  0  0  0  0  0  0  0  0
   -1.2795    1.7737    0.6110 C   0  0  0  0  0  0  0  0  0  0  0  0
   -1.9729    0.5965    0.3205 C   0  0  0  0  0  0  0  0  0  0  0  0
   -1.8957   -1.4945   -0.1871 H   0  0  0  0  0  0  0  0  0  0  0  0
    0.6351   -1.5341   -0.1826 H   0  0  0  0  0  0  0  0  0  0  0  0
    0.6981    2.6466    0.8321 H   0  0  0  0  0  0  0  0  0  0  0  0
   -1.8322    2.6842    0.8277 H   0  0  0  0  0  0  0  0  0  0  0  0
   -3.4468    0.6199    0.3151 N   0  0  0  0  0  0  0  0  0  0  0  0
   -4.0337   -0.4300    0.0644 O   0  0  0  0  0  0  0  0  0  0  0  0
   -4.0021    1.6837    0.5786 O   0  0  0  0  0  0  0  0  0  0  0  0
    1.6346    1.2753   -2.6898 N   0  0  0  0  0  0  0  0  0  0  0  0
    2.0887    1.2618   -3.6961 N   0  0  0  0  0  0  0  0  0  0  0  0
    3.7186    1.5987    2.1144 B   0  0  0  0  0  0  0  0  0  0  0  0
    2.1170    0.5283    0.3249 F   0  0  0  0  0  0  0  0  0  0  0  0
    3.1488    0.8894    3.0812 F   0  0  0  0  0  0  0  0  0  0  0  0
    4.7704    1.1211    1.4646 F   0  0  0  0  0  0  0  0  0  0  0  0
    3.2633    2.8180    1.8395 F   0  0  0  0  0  0  0  0  0  0  0  0
  1  2  2  0  0  0  0
  1  6  1  0  0  0  0
  2  3  1  0  0  0  0
  3  4  2  0  0  0  0
  4  9  1  0  0  0  0
  5  4  1  0  0  0  0
  5 10  1  0  0  0  0
  6  5  2  0  0  0  0
  7  1  1  0  0  0  0
  8  2  1  0  0  0  0
 11  6  1  0  0  0  0
 11 13  2  0  0  0  0
 12 11  2  0  0  0  0
 15 14  3  0  0  0  0
 16 18  1  0  0  0  0
 17  3  1  0  0  0  0
 19 16  1  0  0  0  0
 20 16  1  0  0  0  0
M  END
