Coordinates from ORCA-job p-NO2-Ph-N2-BF4-B3LYPG-aug-cc-pVDZ-scan-d09-49-n400
 OpenBabel10311713223D

 20 18  0  0  0  0  0  0  0  0999 V2000
   -1.2927   -0.5896   -0.0400 C   0  0  0  0  0  0  0  0  0  0  0  0
    0.1012   -0.5977   -0.0350 C   0  0  0  0  0  0  0  0  0  0  0  0
    0.7670    0.5873    0.2582 C   0  0  0  0  0  0  0  0  0  0  0  0
    0.1113    1.7691    0.5859 C   0  0  0  0  0  0  0  0  0  0  0  0
   -1.2822    1.7746    0.5814 C   0  0  0  0  0  0  0  0  0  0  0  0
   -1.9641    0.5971    0.2634 C   0  0  0  0  0  0  0  0  0  0  0  0
   -1.8623   -1.4864   -0.2697 H   0  0  0  0  0  0  0  0  0  0  0  0
    0.6649   -1.5000   -0.2632 H   0  0  0  0  0  0  0  0  0  0  0  0
    0.6827    2.6630    0.8277 H   0  0  0  0  0  0  0  0  0  0  0  0
   -1.8443    2.6731    0.8224 H   0  0  0  0  0  0  0  0  0  0  0  0
   -3.4372    0.6048    0.2571 N   0  0  0  0  0  0  0  0  0  0  0  0
   -4.0130   -0.4442   -0.0225 O   0  0  0  0  0  0  0  0  0  0  0  0
   -4.0044    1.6599    0.5310 O   0  0  0  0  0  0  0  0  0  0  0  0
    1.4034    1.1944   -2.1824 N   0  0  0  0  0  0  0  0  0  0  0  0
    1.9056    1.2018   -3.1660 N   0  0  0  0  0  0  0  0  0  0  0  0
    3.7881    1.6031    2.0385 B   0  0  0  0  0  0  0  0  0  0  0  0
    2.1270    0.5690    0.2924 F   0  0  0  0  0  0  0  0  0  0  0  0
    3.1514    1.0110    3.0417 F   0  0  0  0  0  0  0  0  0  0  0  0
    4.8012    0.9946    1.4380 F   0  0  0  0  0  0  0  0  0  0  0  0
    3.4397    2.8339    1.6745 F   0  0  0  0  0  0  0  0  0  0  0  0
  1  2  2  0  0  0  0
  1  6  1  0  0  0  0
  2  3  1  0  0  0  0
  3 17  1  0  0  0  0
  3  4  2  0  0  0  0
  4  9  1  0  0  0  0
  5  4  1  0  0  0  0
  5 10  1  0  0  0  0
  6  5  2  0  0  0  0
  7  1  1  0  0  0  0
  8  2  1  0  0  0  0
 11  6  1  0  0  0  0
 11 13  2  0  0  0  0
 12 11  2  0  0  0  0
 15 14  3  0  0  0  0
 16 18  1  0  0  0  0
 19 16  1  0  0  0  0
 20 16  1  0  0  0  0
M  END
