Coordinates from ORCA-job p-NO2-Ph-N2-BF4-B3LYPG-aug-cc-pVDZ-scan-d09-49-n400
 OpenBabel10311713223D

 20 19  0  0  0  0  0  0  0  0999 V2000
   -1.0038   -0.4598   -0.0181 C   0  0  0  0  0  0  0  0  0  0  0  0
    0.2214   -0.2595   -0.6492 C   0  0  0  0  0  0  0  0  0  0  0  0
    0.6319    1.0627   -0.7634 C   0  0  0  0  0  0  0  0  0  0  0  0
   -0.0240    2.1914   -0.2885 C   0  0  0  0  0  0  0  0  0  0  0  0
   -1.2463    1.9614    0.3382 C   0  0  0  0  0  0  0  0  0  0  0  0
   -1.7075    0.6493    0.4533 C   0  0  0  0  0  0  0  0  0  0  0  0
   -1.4037   -1.4594    0.1278 H   0  0  0  0  0  0  0  0  0  0  0  0
    0.8394   -1.0840   -0.9917 H   0  0  0  0  0  0  0  0  0  0  0  0
    0.4123    3.1828   -0.3634 H   0  0  0  0  0  0  0  0  0  0  0  0
   -1.8283    2.7803    0.7518 H   0  0  0  0  0  0  0  0  0  0  0  0
   -3.0145    0.4193    1.1264 N   0  0  0  0  0  0  0  0  0  0  0  0
   -3.4007   -0.7391    1.2179 O   0  0  0  0  0  0  0  0  0  0  0  0
   -3.6156    1.4055    1.5333 O   0  0  0  0  0  0  0  0  0  0  0  0
    1.9801    1.2957   -1.4291 N   0  0  0  0  0  0  0  0  0  0  0  0
    2.9168    1.4715   -1.9866 N   0  0  0  0  0  0  0  0  0  0  0  0
    2.7130    0.9354    1.5581 B   0  0  0  0  0  0  0  0  0  0  0  0
    2.9347   -0.0642    0.5359 F   0  0  0  0  0  0  0  0  0  0  0  0
    1.4238    0.7259    2.1011 F   0  0  0  0  0  0  0  0  0  0  0  0
    3.7090    0.8969    2.5120 F   0  0  0  0  0  0  0  0  0  0  0  0
    2.7053    2.2066    0.8672 F   0  0  0  0  0  0  0  0  0  0  0  0
  1  7  1  0  0  0  0
  1  6  2  0  0  0  0
  2  1  1  0  0  0  0
  3  2  2  0  0  0  0
  3  4  1  0  0  0  0
  4  5  2  0  0  0  0
  5  6  1  0  0  0  0
  5 10  1  0  0  0  0
  6 11  1  0  0  0  0
  8  2  1  0  0  0  0
  9  4  1  0  0  0  0
 11 12  2  0  0  0  0
 11 13  2  0  0  0  0
 14  3  1  0  0  0  0
 15 14  1  0  0  0  0
 16 18  1  0  0  0  0
 16 19  1  0  0  0  0
 17 16  1  0  0  0  0
 20 16  1  0  0  0  0
M  RAD  2  14   2  15   3
M  END
