Coordinates from ORCA-job p-NO2-Ph-N2-BF4-B3LYPG-aug-cc-pVDZ-scan-d09-49-n400
 OpenBabel10311713223D

 20 18  0  0  0  0  0  0  0  0999 V2000
   -1.4180   -0.6353    0.2203 C   0  0  0  0  0  0  0  0  0  0  0  0
   -0.0240   -0.6608    0.2123 C   0  0  0  0  0  0  0  0  0  0  0  0
    0.6569    0.5311    0.4391 C   0  0  0  0  0  0  0  0  0  0  0  0
    0.0202    1.7461    0.6722 C   0  0  0  0  0  0  0  0  0  0  0  0
   -1.3741    1.7667    0.6800 C   0  0  0  0  0  0  0  0  0  0  0  0
   -2.0708    0.5773    0.4543 C   0  0  0  0  0  0  0  0  0  0  0  0
   -2.0010   -1.5364    0.0487 H   0  0  0  0  0  0  0  0  0  0  0  0
    0.5297   -1.5803    0.0326 H   0  0  0  0  0  0  0  0  0  0  0  0
    0.6064    2.6464    0.8438 H   0  0  0  0  0  0  0  0  0  0  0  0
   -1.9241    2.6874    0.8569 H   0  0  0  0  0  0  0  0  0  0  0  0
   -3.5449    0.6025    0.4616 N   0  0  0  0  0  0  0  0  0  0  0  0
   -4.1351   -0.4568    0.2634 O   0  0  0  0  0  0  0  0  0  0  0  0
   -4.0966    1.6797    0.6728 O   0  0  0  0  0  0  0  0  0  0  0  0
    2.3497    1.4931   -3.7056 N   0  0  0  0  0  0  0  0  0  0  0  0
    2.8829    1.4999   -4.6728 N   0  0  0  0  0  0  0  0  0  0  0  0
    3.6846    1.5554    2.1726 B   0  0  0  0  0  0  0  0  0  0  0  0
    2.0192    0.5055    0.4214 F   0  0  0  0  0  0  0  0  0  0  0  0
    3.2690    0.7125    3.1098 F   0  0  0  0  0  0  0  0  0  0  0  0
    4.7104    1.2387    1.3952 F   0  0  0  0  0  0  0  0  0  0  0  0
    3.1029    2.7462    2.0546 F   0  0  0  0  0  0  0  0  0  0  0  0
  1  6  1  0  0  0  0
  2  1  2  0  0  0  0
  2  3  1  0  0  0  0
  3  4  2  0  0  0  0
  4  5  1  0  0  0  0
  4  9  1  0  0  0  0
  5 10  1  0  0  0  0
  6 11  1  0  0  0  0
  6  5  2  0  0  0  0
  7  1  1  0  0  0  0
  8  2  1  0  0  0  0
 11 13  2  0  0  0  0
 12 11  2  0  0  0  0
 15 14  3  0  0  0  0
 16 18  1  0  0  0  0
 17  3  1  0  0  0  0
 19 16  1  0  0  0  0
 20 16  1  0  0  0  0
M  END
