Coordinates from ORCA-job p-NO2-Ph-N2-BF4-B3LYPG-aug-cc-pVDZ-scan-d09-49-n400
 OpenBabel10311713223D

 20 19  0  0  0  0  0  0  0  0999 V2000
   -0.8636   -0.4421   -0.0458 C   0  0  0  0  0  0  0  0  0  0  0  0
    0.2987   -0.2333   -0.7590 C   0  0  0  0  0  0  0  0  0  0  0  0
    0.7788    1.1057   -0.9659 C   0  0  0  0  0  0  0  0  0  0  0  0
    0.0567    2.2108   -0.3973 C   0  0  0  0  0  0  0  0  0  0  0  0
   -1.1035    1.9790    0.3124 C   0  0  0  0  0  0  0  0  0  0  0  0
   -1.5407    0.6634    0.4710 C   0  0  0  0  0  0  0  0  0  0  0  0
   -1.2400   -1.4449    0.1366 H   0  0  0  0  0  0  0  0  0  0  0  0
    0.8876   -1.0592   -1.1507 H   0  0  0  0  0  0  0  0  0  0  0  0
    0.4647    3.2113   -0.5187 H   0  0  0  0  0  0  0  0  0  0  0  0
   -1.6600    2.7956    0.7640 H   0  0  0  0  0  0  0  0  0  0  0  0
   -2.7943    0.4250    1.2422 N   0  0  0  0  0  0  0  0  0  0  0  0
   -3.1640   -0.7359    1.3562 O   0  0  0  0  0  0  0  0  0  0  0  0
   -3.3775    1.4108    1.6728 O   0  0  0  0  0  0  0  0  0  0  0  0
    1.7250    1.2815   -1.5201 N   0  0  0  0  0  0  0  0  0  0  0  0
    2.6870    1.4613   -2.0897 N   0  0  0  0  0  0  0  0  0  0  0  0
    2.4365    0.8943    1.6630 B   0  0  0  0  0  0  0  0  0  0  0  0
    2.7006   -0.1038    0.6569 F   0  0  0  0  0  0  0  0  0  0  0  0
    1.1121    0.6871    2.1391 F   0  0  0  0  0  0  0  0  0  0  0  0
    3.3739    0.8425    2.6746 F   0  0  0  0  0  0  0  0  0  0  0  0
    2.4653    2.1699    0.9918 F   0  0  0  0  0  0  0  0  0  0  0  0
  1  7  1  0  0  0  0
  1  6  2  0  0  0  0
  2  1  1  0  0  0  0
  3  2  2  0  0  0  0
  3  4  1  0  0  0  0
  4  5  2  0  0  0  0
  5  6  1  0  0  0  0
  5 10  1  0  0  0  0
  6 11  1  0  0  0  0
  8  2  1  0  0  0  0
  9  4  1  0  0  0  0
 11 12  2  0  0  0  0
 11 13  2  0  0  0  0
 14  3  1  0  0  0  0
 15 14  1  0  0  0  0
 16 18  1  0  0  0  0
 16 19  1  0  0  0  0
 17 16  1  0  0  0  0
 20 16  1  0  0  0  0
M  RAD  2  14   2  15   3
M  END
