Coordinates from ORCA-job p-NO2-Ph-N2-BF4-B3LYPG-aug-cc-pVDZ-scan-d09-49-n400
 OpenBabel10311713223D

 20 19  0  0  0  0  0  0  0  0999 V2000
   -0.8328   -0.4388   -0.0482 C   0  0  0  0  0  0  0  0  0  0  0  0
    0.3222   -0.2337   -0.7646 C   0  0  0  0  0  0  0  0  0  0  0  0
    0.8301    1.1161   -1.0037 C   0  0  0  0  0  0  0  0  0  0  0  0
    0.0804    2.2169   -0.4009 C   0  0  0  0  0  0  0  0  0  0  0  0
   -1.0722    1.9823    0.3107 C   0  0  0  0  0  0  0  0  0  0  0  0
   -1.5101    0.6665    0.4703 C   0  0  0  0  0  0  0  0  0  0  0  0
   -1.2076   -1.4423    0.1356 H   0  0  0  0  0  0  0  0  0  0  0  0
    0.9130   -1.0542   -1.1657 H   0  0  0  0  0  0  0  0  0  0  0  0
    0.4915    3.2153   -0.5324 H   0  0  0  0  0  0  0  0  0  0  0  0
   -1.6269    2.7995    0.7643 H   0  0  0  0  0  0  0  0  0  0  0  0
   -2.7636    0.4283    1.2407 N   0  0  0  0  0  0  0  0  0  0  0  0
   -3.1175   -0.7348    1.3779 O   0  0  0  0  0  0  0  0  0  0  0  0
   -3.3326    1.4130    1.6920 O   0  0  0  0  0  0  0  0  0  0  0  0
    1.6518    1.2731   -1.5145 N   0  0  0  0  0  0  0  0  0  0  0  0
    2.6118    1.4571   -2.1146 N   0  0  0  0  0  0  0  0  0  0  0  0
    2.3818    0.8873    1.6749 B   0  0  0  0  0  0  0  0  0  0  0  0
    2.6435   -0.1135    0.6706 F   0  0  0  0  0  0  0  0  0  0  0  0
    1.0556    0.6804    2.1485 F   0  0  0  0  0  0  0  0  0  0  0  0
    3.3174    0.8356    2.6865 F   0  0  0  0  0  0  0  0  0  0  0  0
    2.4075    2.1648    1.0059 F   0  0  0  0  0  0  0  0  0  0  0  0
  1  7  1  0  0  0  0
  1  6  2  0  0  0  0
  2  1  1  0  0  0  0
  3  2  2  0  0  0  0
  3  4  1  0  0  0  0
  4  5  2  0  0  0  0
  5  6  1  0  0  0  0
  5 10  1  0  0  0  0
  6 11  1  0  0  0  0
  8  2  1  0  0  0  0
  9  4  1  0  0  0  0
 11 12  2  0  0  0  0
 11 13  2  0  0  0  0
 14  3  1  0  0  0  0
 15 14  1  0  0  0  0
 16 18  1  0  0  0  0
 16 19  1  0  0  0  0
 17 16  1  0  0  0  0
 20 16  1  0  0  0  0
M  RAD  2  14   2  15   3
M  END
