Coordinates from ORCA-job p-NO2-Ph-N2-BF4-B3LYPG-aug-cc-pVDZ-scan-d09-49-n400
 OpenBabel10311713223D

 20 18  0  0  0  0  0  0  0  0999 V2000
   -1.4074   -0.6319    0.2039 C   0  0  0  0  0  0  0  0  0  0  0  0
   -0.0134   -0.6566    0.1966 C   0  0  0  0  0  0  0  0  0  0  0  0
    0.6667    0.5350    0.4279 C   0  0  0  0  0  0  0  0  0  0  0  0
    0.0289    1.7488    0.6647 C   0  0  0  0  0  0  0  0  0  0  0  0
   -1.3653    1.7685    0.6718 C   0  0  0  0  0  0  0  0  0  0  0  0
   -2.0611    0.5794    0.4418 C   0  0  0  0  0  0  0  0  0  0  0  0
   -1.9896   -1.5328    0.0289 H   0  0  0  0  0  0  0  0  0  0  0  0
    0.5410   -1.5751    0.0141 H   0  0  0  0  0  0  0  0  0  0  0  0
    0.6145    2.6490    0.8395 H   0  0  0  0  0  0  0  0  0  0  0  0
   -1.9161    2.6881    0.8517 H   0  0  0  0  0  0  0  0  0  0  0  0
   -3.5353    0.6035    0.4485 N   0  0  0  0  0  0  0  0  0  0  0  0
   -4.1246   -0.4541    0.2396 O   0  0  0  0  0  0  0  0  0  0  0  0
   -4.0878    1.6809    0.6564 O   0  0  0  0  0  0  0  0  0  0  0  0
    2.2750    1.4685   -3.6027 N   0  0  0  0  0  0  0  0  0  0  0  0
    2.8009    1.4762   -4.5739 N   0  0  0  0  0  0  0  0  0  0  0  0
    3.6899    1.5575    2.1679 B   0  0  0  0  0  0  0  0  0  0  0  0
    2.0290    0.5103    0.4109 F   0  0  0  0  0  0  0  0  0  0  0  0
    3.2646    0.7202    3.1057 F   0  0  0  0  0  0  0  0  0  0  0  0
    4.7184    1.2326    1.3975 F   0  0  0  0  0  0  0  0  0  0  0  0
    3.1151    2.7510    2.0424 F   0  0  0  0  0  0  0  0  0  0  0  0
  1  6  1  0  0  0  0
  2  1  2  0  0  0  0
  2  3  1  0  0  0  0
  3  4  2  0  0  0  0
  4  5  1  0  0  0  0
  4  9  1  0  0  0  0
  5 10  1  0  0  0  0
  6 11  1  0  0  0  0
  6  5  2  0  0  0  0
  7  1  1  0  0  0  0
  8  2  1  0  0  0  0
 11 13  2  0  0  0  0
 12 11  2  0  0  0  0
 15 14  3  0  0  0  0
 16 18  1  0  0  0  0
 17  3  1  0  0  0  0
 19 16  1  0  0  0  0
 20 16  1  0  0  0  0
M  END
