Coordinates from ORCA-job p-NO2-Ph-N2-BF4-B3LYPG-aug-cc-pVDZ-scan-d09-49-n400
 OpenBabel10311713223D

 20 19  0  0  0  0  0  0  0  0999 V2000
   -1.0445   -0.4666   -0.0019 C   0  0  0  0  0  0  0  0  0  0  0  0
    0.2044   -0.2774   -0.6079 C   0  0  0  0  0  0  0  0  0  0  0  0
    0.5533    1.0427   -0.6797 C   0  0  0  0  0  0  0  0  0  0  0  0
   -0.0435    2.1934   -0.2445 C   0  0  0  0  0  0  0  0  0  0  0  0
   -1.2875    1.9553    0.3542 C   0  0  0  0  0  0  0  0  0  0  0  0
   -1.7569    0.6444    0.4528 C   0  0  0  0  0  0  0  0  0  0  0  0
   -1.4473   -1.4673    0.1323 H   0  0  0  0  0  0  0  0  0  0  0  0
    0.8424   -1.0936   -0.9299 H   0  0  0  0  0  0  0  0  0  0  0  0
    0.4144    3.1753   -0.3018 H   0  0  0  0  0  0  0  0  0  0  0  0
   -1.8732    2.7780    0.7566 H   0  0  0  0  0  0  0  0  0  0  0  0
   -3.0790    0.4179    1.0911 N   0  0  0  0  0  0  0  0  0  0  0  0
   -3.4648   -0.7407    1.1840 O   0  0  0  0  0  0  0  0  0  0  0  0
   -3.6802    1.4039    1.4990 O   0  0  0  0  0  0  0  0  0  0  0  0
    2.1394    1.3177   -1.4676 N   0  0  0  0  0  0  0  0  0  0  0  0
    3.0488    1.4966   -2.0643 N   0  0  0  0  0  0  0  0  0  0  0  0
    2.7603    0.9433    1.5345 B   0  0  0  0  0  0  0  0  0  0  0  0
    2.9487   -0.0613    0.5098 F   0  0  0  0  0  0  0  0  0  0  0  0
    1.4947    0.7299    2.1263 F   0  0  0  0  0  0  0  0  0  0  0  0
    3.7934    0.9140    2.4489 F   0  0  0  0  0  0  0  0  0  0  0  0
    2.7201    2.2132    0.8412 F   0  0  0  0  0  0  0  0  0  0  0  0
  1  7  1  0  0  0  0
  1  6  2  0  0  0  0
  2  1  1  0  0  0  0
  3  2  2  0  0  0  0
  3  4  1  0  0  0  0
  4  5  2  0  0  0  0
  5  6  1  0  0  0  0
  5 10  1  0  0  0  0
  6 11  1  0  0  0  0
  8  2  1  0  0  0  0
  9  4  1  0  0  0  0
 11 12  2  0  0  0  0
 11 13  2  0  0  0  0
 14  3  1  0  0  0  0
 15 14  1  0  0  0  0
 16 18  1  0  0  0  0
 16 19  1  0  0  0  0
 17 16  1  0  0  0  0
 20 16  1  0  0  0  0
M  RAD  2  14   2  15   3
M  END
