Coordinates from ORCA-job p-NO2-Ph-N2-BF4-B3LYPG-aug-cc-pVDZ-scan-d09-49-n400
 OpenBabel10311713223D

 20 19  0  0  0  0  0  0  0  0999 V2000
   -0.8394   -0.4399   -0.0465 C   0  0  0  0  0  0  0  0  0  0  0  0
    0.3162   -0.2338   -0.7641 C   0  0  0  0  0  0  0  0  0  0  0  0
    0.8164    1.1135   -0.9955 C   0  0  0  0  0  0  0  0  0  0  0  0
    0.0744    2.2158   -0.4009 C   0  0  0  0  0  0  0  0  0  0  0  0
   -1.0789    1.9815    0.3123 C   0  0  0  0  0  0  0  0  0  0  0  0
   -1.5159    0.6656    0.4724 C   0  0  0  0  0  0  0  0  0  0  0  0
   -1.2141   -1.4432    0.1379 H   0  0  0  0  0  0  0  0  0  0  0  0
    0.9053   -1.0563   -1.1632 H   0  0  0  0  0  0  0  0  0  0  0  0
    0.4833    3.2151   -0.5301 H   0  0  0  0  0  0  0  0  0  0  0  0
   -1.6335    2.7985    0.7663 H   0  0  0  0  0  0  0  0  0  0  0  0
   -2.7682    0.4272    1.2451 N   0  0  0  0  0  0  0  0  0  0  0  0
   -3.1303   -0.7348    1.3697 O   0  0  0  0  0  0  0  0  0  0  0  0
   -3.3444    1.4127    1.6853 O   0  0  0  0  0  0  0  0  0  0  0  0
    1.6743    1.2766   -1.5231 N   0  0  0  0  0  0  0  0  0  0  0  0
    2.6311    1.4590   -2.1138 N   0  0  0  0  0  0  0  0  0  0  0  0
    2.3933    0.8887    1.6738 B   0  0  0  0  0  0  0  0  0  0  0  0
    2.6559   -0.1119    0.6691 F   0  0  0  0  0  0  0  0  0  0  0  0
    1.0679    0.6814    2.1492 F   0  0  0  0  0  0  0  0  0  0  0  0
    3.3302    0.8372    2.6848 F   0  0  0  0  0  0  0  0  0  0  0  0
    2.4198    2.1660    1.0044 F   0  0  0  0  0  0  0  0  0  0  0  0
  1  7  1  0  0  0  0
  1  6  2  0  0  0  0
  2  1  1  0  0  0  0
  3  2  2  0  0  0  0
  3  4  1  0  0  0  0
  4  5  2  0  0  0  0
  5  6  1  0  0  0  0
  5 10  1  0  0  0  0
  6 11  1  0  0  0  0
  8  2  1  0  0  0  0
  9  4  1  0  0  0  0
 11 12  2  0  0  0  0
 11 13  2  0  0  0  0
 14  3  1  0  0  0  0
 15 14  1  0  0  0  0
 16 18  1  0  0  0  0
 16 19  1  0  0  0  0
 17 16  1  0  0  0  0
 20 16  1  0  0  0  0
M  RAD  2  14   2  15   3
M  END
