Coordinates from ORCA-job p-NO2-Ph-N2-BF4-B3LYPG-aug-cc-pVDZ-scan-d09-49-n400
 OpenBabel10311713223D

 20 18  0  0  0  0  0  0  0  0999 V2000
   -1.0427   -0.4691    0.0158 C   0  0  0  0  0  0  0  0  0  0  0  0
    0.2098   -0.2869   -0.6007 C   0  0  0  0  0  0  0  0  0  0  0  0
    0.5023    1.0332   -0.6490 C   0  0  0  0  0  0  0  0  0  0  0  0
   -0.0400    2.2015   -0.2350 C   0  0  0  0  0  0  0  0  0  0  0  0
   -1.2858    1.9532    0.3718 C   0  0  0  0  0  0  0  0  0  0  0  0
   -1.7542    0.6418    0.4728 C   0  0  0  0  0  0  0  0  0  0  0  0
   -1.4379   -1.4733    0.1525 H   0  0  0  0  0  0  0  0  0  0  0  0
    0.8590   -1.0951   -0.9190 H   0  0  0  0  0  0  0  0  0  0  0  0
    0.4304    3.1771   -0.2908 H   0  0  0  0  0  0  0  0  0  0  0  0
   -1.8648    2.7798    0.7777 H   0  0  0  0  0  0  0  0  0  0  0  0
   -3.0710    0.4148    1.1176 N   0  0  0  0  0  0  0  0  0  0  0  0
   -3.4591   -0.7435    1.2043 O   0  0  0  0  0  0  0  0  0  0  0  0
   -3.6745    1.4018    1.5194 O   0  0  0  0  0  0  0  0  0  0  0  0
    2.2696    1.3507   -1.6021 N   0  0  0  0  0  0  0  0  0  0  0  0
    3.1942    1.5275   -2.1748 N   0  0  0  0  0  0  0  0  0  0  0  0
    2.7006    0.9374    1.5328 B   0  0  0  0  0  0  0  0  0  0  0  0
    2.8903   -0.0694    0.5146 F   0  0  0  0  0  0  0  0  0  0  0  0
    1.4290    0.7240    2.1219 F   0  0  0  0  0  0  0  0  0  0  0  0
    3.7262    0.9056    2.4570 F   0  0  0  0  0  0  0  0  0  0  0  0
    2.6618    2.2079    0.8465 F   0  0  0  0  0  0  0  0  0  0  0  0
  1  7  1  0  0  0  0
  1  6  2  0  0  0  0
  2  1  1  0  0  0  0
  3  2  2  0  0  0  0
  3  4  1  0  0  0  0
  4  5  2  0  0  0  0
  5  6  1  0  0  0  0
  5 10  1  0  0  0  0
  6 11  1  0  0  0  0
  8  2  1  0  0  0  0
  9  4  1  0  0  0  0
 11 12  2  0  0  0  0
 11 13  2  0  0  0  0
 15 14  3  0  0  0  0
 16 18  1  0  0  0  0
 16 19  1  0  0  0  0
 17 16  1  0  0  0  0
 20 16  1  0  0  0  0
M  RAD  1   3   2
M  END
