Coordinates from ORCA-job p-NO2-Ph-N2-BF4-B3LYPG-aug-cc-pVDZ-scan-d09-49-n400
 OpenBabel10311713223D

 20 19  0  0  0  0  0  0  0  0999 V2000
   -0.8306   -0.4392   -0.0455 C   0  0  0  0  0  0  0  0  0  0  0  0
    0.3231   -0.2355   -0.7628 C   0  0  0  0  0  0  0  0  0  0  0  0
    0.8357    1.1172   -1.0069 C   0  0  0  0  0  0  0  0  0  0  0  0
    0.0811    2.2182   -0.3986 C   0  0  0  0  0  0  0  0  0  0  0  0
   -1.0699    1.9823    0.3136 C   0  0  0  0  0  0  0  0  0  0  0  0
   -1.5076    0.6663    0.4736 C   0  0  0  0  0  0  0  0  0  0  0  0
   -1.2053   -1.4427    0.1390 H   0  0  0  0  0  0  0  0  0  0  0  0
    0.9144   -1.0550   -1.1650 H   0  0  0  0  0  0  0  0  0  0  0  0
    0.4928    3.2161   -0.5313 H   0  0  0  0  0  0  0  0  0  0  0  0
   -1.6245    2.7993    0.7678 H   0  0  0  0  0  0  0  0  0  0  0  0
   -2.7604    0.4281    1.2448 N   0  0  0  0  0  0  0  0  0  0  0  0
   -3.1210   -0.7342    1.3710 O   0  0  0  0  0  0  0  0  0  0  0  0
   -3.3369    1.4138    1.6839 O   0  0  0  0  0  0  0  0  0  0  0  0
    1.6477    1.2727   -1.5146 N   0  0  0  0  0  0  0  0  0  0  0  0
    2.6059    1.4567   -2.1154 N   0  0  0  0  0  0  0  0  0  0  0  0
    2.3805    0.8874    1.6735 B   0  0  0  0  0  0  0  0  0  0  0  0
    2.6417   -0.1140    0.6690 F   0  0  0  0  0  0  0  0  0  0  0  0
    1.0544    0.6803    2.1481 F   0  0  0  0  0  0  0  0  0  0  0  0
    3.3167    0.8358    2.6844 F   0  0  0  0  0  0  0  0  0  0  0  0
    2.4056    2.1653    1.0046 F   0  0  0  0  0  0  0  0  0  0  0  0
  1  7  1  0  0  0  0
  1  6  2  0  0  0  0
  2  1  1  0  0  0  0
  3  2  2  0  0  0  0
  3  4  1  0  0  0  0
  4  5  2  0  0  0  0
  5  6  1  0  0  0  0
  5 10  1  0  0  0  0
  6 11  1  0  0  0  0
  8  2  1  0  0  0  0
  9  4  1  0  0  0  0
 11 12  2  0  0  0  0
 11 13  2  0  0  0  0
 14  3  1  0  0  0  0
 15 14  1  0  0  0  0
 16 18  1  0  0  0  0
 16 19  1  0  0  0  0
 17 16  1  0  0  0  0
 20 16  1  0  0  0  0
M  RAD  2  14   2  15   3
M  END
