Coordinates from ORCA-job p-NO2-Ph-N2-BF4-B3LYPG-aug-cc-pVDZ-scan-d09-49-n400
 OpenBabel10311713223D

 20 19  0  0  0  0  0  0  0  0999 V2000
   -0.8515   -0.4411   -0.0457 C   0  0  0  0  0  0  0  0  0  0  0  0
    0.3069   -0.2331   -0.7623 C   0  0  0  0  0  0  0  0  0  0  0  0
    0.7951    1.1093   -0.9803 C   0  0  0  0  0  0  0  0  0  0  0  0
    0.0650    2.2129   -0.4001 C   0  0  0  0  0  0  0  0  0  0  0  0
   -1.0912    1.9802    0.3128 C   0  0  0  0  0  0  0  0  0  0  0  0
   -1.5278    0.6644    0.4728 C   0  0  0  0  0  0  0  0  0  0  0  0
   -1.2267   -1.4441    0.1383 H   0  0  0  0  0  0  0  0  0  0  0  0
    0.8950   -1.0579   -1.1579 H   0  0  0  0  0  0  0  0  0  0  0  0
    0.4726    3.2133   -0.5253 H   0  0  0  0  0  0  0  0  0  0  0  0
   -1.6464    2.7969    0.7662 H   0  0  0  0  0  0  0  0  0  0  0  0
   -2.7797    0.4258    1.2465 N   0  0  0  0  0  0  0  0  0  0  0  0
   -3.1492   -0.7351    1.3600 O   0  0  0  0  0  0  0  0  0  0  0  0
   -3.3627    1.4119    1.6765 O   0  0  0  0  0  0  0  0  0  0  0  0
    1.7011    1.2796   -1.5242 N   0  0  0  0  0  0  0  0  0  0  0  0
    2.6598    1.4605   -2.1042 N   0  0  0  0  0  0  0  0  0  0  0  0
    2.4159    0.8914    1.6697 B   0  0  0  0  0  0  0  0  0  0  0  0
    2.6791   -0.1076    0.6643 F   0  0  0  0  0  0  0  0  0  0  0  0
    1.0912    0.6841    2.1461 F   0  0  0  0  0  0  0  0  0  0  0  0
    3.3534    0.8399    2.6808 F   0  0  0  0  0  0  0  0  0  0  0  0
    2.4434    2.1676    0.9992 F   0  0  0  0  0  0  0  0  0  0  0  0
  1  7  1  0  0  0  0
  1  6  2  0  0  0  0
  2  1  1  0  0  0  0
  3  2  2  0  0  0  0
  3  4  1  0  0  0  0
  4  5  2  0  0  0  0
  5  6  1  0  0  0  0
  5 10  1  0  0  0  0
  6 11  1  0  0  0  0
  8  2  1  0  0  0  0
  9  4  1  0  0  0  0
 11 12  2  0  0  0  0
 11 13  2  0  0  0  0
 14  3  1  0  0  0  0
 15 14  1  0  0  0  0
 16 18  1  0  0  0  0
 16 19  1  0  0  0  0
 17 16  1  0  0  0  0
 20 16  1  0  0  0  0
M  RAD  2  14   2  15   3
M  END
