Coordinates from ORCA-job p-NO2-Ph-N2-BF4-B3LYPG-aug-cc-pVDZ-scan-d09-49-n400
 OpenBabel10311713223D

 20 18  0  0  0  0  0  0  0  0999 V2000
   -1.3988   -0.6292    0.1899 C   0  0  0  0  0  0  0  0  0  0  0  0
   -0.0047   -0.6533    0.1833 C   0  0  0  0  0  0  0  0  0  0  0  0
    0.6747    0.5378    0.4185 C   0  0  0  0  0  0  0  0  0  0  0  0
    0.0365    1.7506    0.6586 C   0  0  0  0  0  0  0  0  0  0  0  0
   -1.3578    1.7698    0.6651 C   0  0  0  0  0  0  0  0  0  0  0  0
   -2.0531    0.5811    0.4312 C   0  0  0  0  0  0  0  0  0  0  0  0
   -1.9807   -1.5298    0.0119 H   0  0  0  0  0  0  0  0  0  0  0  0
    0.5501   -1.5710   -0.0020 H   0  0  0  0  0  0  0  0  0  0  0  0
    0.6216    2.6506    0.8360 H   0  0  0  0  0  0  0  0  0  0  0  0
   -1.9090    2.6887    0.8474 H   0  0  0  0  0  0  0  0  0  0  0  0
   -3.5272    0.6047    0.4373 N   0  0  0  0  0  0  0  0  0  0  0  0
   -4.1161   -0.4526    0.2250 O   0  0  0  0  0  0  0  0  0  0  0  0
   -4.0803    1.6812    0.6483 O   0  0  0  0  0  0  0  0  0  0  0  0
    2.2174    1.4496   -3.5217 N   0  0  0  0  0  0  0  0  0  0  0  0
    2.7373    1.4579   -4.4961 N   0  0  0  0  0  0  0  0  0  0  0  0
    3.6920    1.5595    2.1641 B   0  0  0  0  0  0  0  0  0  0  0  0
    2.0370    0.5136    0.4019 F   0  0  0  0  0  0  0  0  0  0  0  0
    3.2556    0.7289    3.1029 F   0  0  0  0  0  0  0  0  0  0  0  0
    4.7236    1.2251    1.4019 F   0  0  0  0  0  0  0  0  0  0  0  0
    3.1251    2.7557    2.0295 F   0  0  0  0  0  0  0  0  0  0  0  0
  1  6  1  0  0  0  0
  2  1  2  0  0  0  0
  2  3  1  0  0  0  0
  3  4  2  0  0  0  0
  4  5  1  0  0  0  0
  4  9  1  0  0  0  0
  5 10  1  0  0  0  0
  6 11  1  0  0  0  0
  6  5  2  0  0  0  0
  7  1  1  0  0  0  0
  8  2  1  0  0  0  0
 11 13  2  0  0  0  0
 12 11  2  0  0  0  0
 15 14  3  0  0  0  0
 16 18  1  0  0  0  0
 17  3  1  0  0  0  0
 19 16  1  0  0  0  0
 20 16  1  0  0  0  0
M  END
