Coordinates from ORCA-job p-NO2-Ph-N2-BF4-B3LYPG-aug-cc-pVDZ-scan-d09-49-n400
 OpenBabel10311713223D

 20 18  0  0  0  0  0  0  0  0999 V2000
   -1.2967   -0.5924   -0.0181 C   0  0  0  0  0  0  0  0  0  0  0  0
    0.0973   -0.6086   -0.0151 C   0  0  0  0  0  0  0  0  0  0  0  0
    0.7693    0.5715    0.2848 C   0  0  0  0  0  0  0  0  0  0  0  0
    0.1219    1.7619    0.5977 C   0  0  0  0  0  0  0  0  0  0  0  0
   -1.2720    1.7746    0.5950 C   0  0  0  0  0  0  0  0  0  0  0  0
   -1.9601    0.5989    0.2850 C   0  0  0  0  0  0  0  0  0  0  0  0
   -1.8720   -1.4852   -0.2486 H   0  0  0  0  0  0  0  0  0  0  0  0
    0.6574   -1.5125   -0.2459 H   0  0  0  0  0  0  0  0  0  0  0  0
    0.6999    2.6537    0.8307 H   0  0  0  0  0  0  0  0  0  0  0  0
   -1.8291    2.6781    0.8288 H   0  0  0  0  0  0  0  0  0  0  0  0
   -3.4337    0.6149    0.2807 N   0  0  0  0  0  0  0  0  0  0  0  0
   -4.0156   -0.4319    0.0057 O   0  0  0  0  0  0  0  0  0  0  0  0
   -3.9944    1.6740    0.5519 O   0  0  0  0  0  0  0  0  0  0  0  0
    1.4767    1.2181   -2.3618 N   0  0  0  0  0  0  0  0  0  0  0  0
    1.9393    1.1965   -3.3642 N   0  0  0  0  0  0  0  0  0  0  0  0
    3.7494    1.6065    2.0723 B   0  0  0  0  0  0  0  0  0  0  0  0
    2.1302    0.5498    0.2968 F   0  0  0  0  0  0  0  0  0  0  0  0
    3.1405    0.9570    3.0569 F   0  0  0  0  0  0  0  0  0  0  0  0
    4.7861    1.0612    1.4519 F   0  0  0  0  0  0  0  0  0  0  0  0
    3.3490    2.8331    1.7486 F   0  0  0  0  0  0  0  0  0  0  0  0
  1  2  2  0  0  0  0
  1  6  1  0  0  0  0
  2  3  1  0  0  0  0
  3 17  1  0  0  0  0
  3  4  2  0  0  0  0
  4  9  1  0  0  0  0
  5  4  1  0  0  0  0
  5 10  1  0  0  0  0
  6  5  2  0  0  0  0
  7  1  1  0  0  0  0
  8  2  1  0  0  0  0
 11  6  1  0  0  0  0
 11 13  2  0  0  0  0
 12 11  2  0  0  0  0
 15 14  3  0  0  0  0
 16 18  1  0  0  0  0
 19 16  1  0  0  0  0
 20 16  1  0  0  0  0
M  END
