Coordinates from ORCA-job p-NO2-Ph-N2-BF4-B3LYPG-aug-cc-pVDZ-scan-d09-49-n400
 OpenBabel10311713223D

 20 18  0  0  0  0  0  0  0  0999 V2000
   -1.4386   -0.6425    0.2539 C   0  0  0  0  0  0  0  0  0  0  0  0
   -0.0446   -0.6699    0.2439 C   0  0  0  0  0  0  0  0  0  0  0  0
    0.6380    0.5225    0.4631 C   0  0  0  0  0  0  0  0  0  0  0  0
    0.0032    1.7397    0.6900 C   0  0  0  0  0  0  0  0  0  0  0  0
   -1.3911    1.7621    0.6997 C   0  0  0  0  0  0  0  0  0  0  0  0
   -2.0895    0.5722    0.4819 C   0  0  0  0  0  0  0  0  0  0  0  0
   -2.0229   -1.5438    0.0883 H   0  0  0  0  0  0  0  0  0  0  0  0
    0.5077   -1.5910    0.0689 H   0  0  0  0  0  0  0  0  0  0  0  0
    0.5909    2.6402    0.8558 H   0  0  0  0  0  0  0  0  0  0  0  0
   -1.9398    2.6844    0.8721 H   0  0  0  0  0  0  0  0  0  0  0  0
   -3.5636    0.5993    0.4914 N   0  0  0  0  0  0  0  0  0  0  0  0
   -4.1554   -0.4592    0.2936 O   0  0  0  0  0  0  0  0  0  0  0  0
   -4.1137    1.6796    0.6905 O   0  0  0  0  0  0  0  0  0  0  0  0
    2.4894    1.5416   -3.9021 N   0  0  0  0  0  0  0  0  0  0  0  0
    3.0344    1.5464   -4.8627 N   0  0  0  0  0  0  0  0  0  0  0  0
    3.6775    1.5527    2.1801 B   0  0  0  0  0  0  0  0  0  0  0  0
    2.0003    0.4952    0.4434 F   0  0  0  0  0  0  0  0  0  0  0  0
    3.2791    0.7036    3.1191 F   0  0  0  0  0  0  0  0  0  0  0  0
    4.6969    1.2465    1.3901 F   0  0  0  0  0  0  0  0  0  0  0  0
    3.0851    2.7393    2.0724 F   0  0  0  0  0  0  0  0  0  0  0  0
  1  6  1  0  0  0  0
  2  1  2  0  0  0  0
  2  3  1  0  0  0  0
  3  4  2  0  0  0  0
  4  5  1  0  0  0  0
  4  9  1  0  0  0  0
  5 10  1  0  0  0  0
  6 11  1  0  0  0  0
  6  5  2  0  0  0  0
  7  1  1  0  0  0  0
  8  2  1  0  0  0  0
 11 13  2  0  0  0  0
 12 11  2  0  0  0  0
 15 14  3  0  0  0  0
 16 18  1  0  0  0  0
 17  3  1  0  0  0  0
 19 16  1  0  0  0  0
 20 16  1  0  0  0  0
M  END
