Coordinates from ORCA-job p-NO2-Ph-N2-BF4-B3LYPG-aug-cc-pVDZ-scan-d09-49-n400
 OpenBabel10311713223D

 20 19  0  0  0  0  0  0  0  0999 V2000
   -0.9194   -0.4487   -0.0378 C   0  0  0  0  0  0  0  0  0  0  0  0
    0.2643   -0.2405   -0.7259 C   0  0  0  0  0  0  0  0  0  0  0  0
    0.7176    1.0895   -0.8933 C   0  0  0  0  0  0  0  0  0  0  0  0
    0.0212    2.2023   -0.3655 C   0  0  0  0  0  0  0  0  0  0  0  0
   -1.1605    1.9725    0.3194 C   0  0  0  0  0  0  0  0  0  0  0  0
   -1.6043    0.6578    0.4661 C   0  0  0  0  0  0  0  0  0  0  0  0
   -1.3039   -1.4502    0.1337 H   0  0  0  0  0  0  0  0  0  0  0  0
    0.8613   -1.0681   -1.0998 H   0  0  0  0  0  0  0  0  0  0  0  0
    0.4365    3.2012   -0.4696 H   0  0  0  0  0  0  0  0  0  0  0  0
   -1.7259    2.7892    0.7593 H   0  0  0  0  0  0  0  0  0  0  0  0
   -2.8732    0.4215    1.2112 N   0  0  0  0  0  0  0  0  0  0  0  0
   -3.2524   -0.7379    1.3120 O   0  0  0  0  0  0  0  0  0  0  0  0
   -3.4663    1.4076    1.6283 O   0  0  0  0  0  0  0  0  0  0  0  0
    1.8259    1.2869   -1.4831 N   0  0  0  0  0  0  0  0  0  0  0  0
    2.7926    1.4625   -2.0188 N   0  0  0  0  0  0  0  0  0  0  0  0
    2.5429    0.9106    1.6191 B   0  0  0  0  0  0  0  0  0  0  0  0
    2.8025   -0.0862    0.6085 F   0  0  0  0  0  0  0  0  0  0  0  0
    1.2248    0.7037    2.1051 F   0  0  0  0  0  0  0  0  0  0  0  0
    3.4902    0.8604    2.6219 F   0  0  0  0  0  0  0  0  0  0  0  0
    2.5695    2.1848    0.9423 F   0  0  0  0  0  0  0  0  0  0  0  0
  1  7  1  0  0  0  0
  1  6  2  0  0  0  0
  2  1  1  0  0  0  0
  3  2  2  0  0  0  0
  3  4  1  0  0  0  0
  4  5  2  0  0  0  0
  5  6  1  0  0  0  0
  5 10  1  0  0  0  0
  6 11  1  0  0  0  0
  8  2  1  0  0  0  0
  9  4  1  0  0  0  0
 11 12  2  0  0  0  0
 11 13  2  0  0  0  0
 14  3  1  0  0  0  0
 15 14  1  0  0  0  0
 16 18  1  0  0  0  0
 16 19  1  0  0  0  0
 17 16  1  0  0  0  0
 20 16  1  0  0  0  0
M  RAD  2  14   2  15   3
M  END
