Coordinates from ORCA-job p-NO2-Ph-N2-BF4-B3LYPG-aug-cc-pVDZ-scan-d09-49-n400
 OpenBabel10311713223D

 20 18  0  0  0  0  0  0  0  0999 V2000
   -1.3634   -0.6170    0.1247 C   0  0  0  0  0  0  0  0  0  0  0  0
    0.0306   -0.6395    0.1207 C   0  0  0  0  0  0  0  0  0  0  0  0
    0.7084    0.5484    0.3762 C   0  0  0  0  0  0  0  0  0  0  0  0
    0.0680    1.7563    0.6345 C   0  0  0  0  0  0  0  0  0  0  0  0
   -1.3263    1.7739    0.6387 C   0  0  0  0  0  0  0  0  0  0  0  0
   -2.0198    0.5884    0.3840 C   0  0  0  0  0  0  0  0  0  0  0  0
   -1.9439   -1.5153   -0.0688 H   0  0  0  0  0  0  0  0  0  0  0  0
    0.5864   -1.5537   -0.0779 H   0  0  0  0  0  0  0  0  0  0  0  0
    0.6515    2.6542    0.8272 H   0  0  0  0  0  0  0  0  0  0  0  0
   -1.8788    2.6891    0.8348 H   0  0  0  0  0  0  0  0  0  0  0  0
   -3.4939    0.6103    0.3872 N   0  0  0  0  0  0  0  0  0  0  0  0
   -4.0811   -0.4457    0.1643 O   0  0  0  0  0  0  0  0  0  0  0  0
   -4.0487    1.6809    0.6223 O   0  0  0  0  0  0  0  0  0  0  0  0
    1.9738    1.3698   -3.1630 N   0  0  0  0  0  0  0  0  0  0  0  0
    2.4697    1.3727   -4.1498 N   0  0  0  0  0  0  0  0  0  0  0  0
    3.7031    1.5722    2.1433 B   0  0  0  0  0  0  0  0  0  0  0  0
    2.0705    0.5256    0.3628 F   0  0  0  0  0  0  0  0  0  0  0  0
    3.2164    0.7798    3.0903 F   0  0  0  0  0  0  0  0  0  0  0  0
    4.7461    1.1888    1.4208 F   0  0  0  0  0  0  0  0  0  0  0  0
    3.1747    2.7796    1.9610 F   0  0  0  0  0  0  0  0  0  0  0  0
  1  6  1  0  0  0  0
  2  1  2  0  0  0  0
  2  3  1  0  0  0  0
  3  4  2  0  0  0  0
  4  5  1  0  0  0  0
  4  9  1  0  0  0  0
  5 10  1  0  0  0  0
  6 11  1  0  0  0  0
  6  5  2  0  0  0  0
  7  1  1  0  0  0  0
  8  2  1  0  0  0  0
 11 13  2  0  0  0  0
 12 11  2  0  0  0  0
 15 14  3  0  0  0  0
 16 18  1  0  0  0  0
 17  3  1  0  0  0  0
 19 16  1  0  0  0  0
 20 16  1  0  0  0  0
M  END
