Coordinates from ORCA-job p-NO2-Ph-N2-BF4-B3LYPG-aug-cc-pVDZ-scan-d09-49-n400
 OpenBabel10311713223D

 20 18  0  0  0  0  0  0  0  0999 V2000
   -1.0452   -0.4737    0.0463 C   0  0  0  0  0  0  0  0  0  0  0  0
    0.2244   -0.2997   -0.5538 C   0  0  0  0  0  0  0  0  0  0  0  0
    0.4691    1.0180   -0.5702 C   0  0  0  0  0  0  0  0  0  0  0  0
   -0.0266    2.2026   -0.1862 C   0  0  0  0  0  0  0  0  0  0  0  0
   -1.2881    1.9481    0.4020 C   0  0  0  0  0  0  0  0  0  0  0  0
   -1.7609    0.6376    0.4968 C   0  0  0  0  0  0  0  0  0  0  0  0
   -1.4386   -1.4809    0.1721 H   0  0  0  0  0  0  0  0  0  0  0  0
    0.8836   -1.1021   -0.8657 H   0  0  0  0  0  0  0  0  0  0  0  0
    0.4550    3.1727   -0.2375 H   0  0  0  0  0  0  0  0  0  0  0  0
   -1.8662    2.7812    0.7980 H   0  0  0  0  0  0  0  0  0  0  0  0
   -3.0838    0.4126    1.1252 N   0  0  0  0  0  0  0  0  0  0  0  0
   -3.4758   -0.7450    1.2018 O   0  0  0  0  0  0  0  0  0  0  0  0
   -3.6913    1.4011    1.5168 O   0  0  0  0  0  0  0  0  0  0  0  0
    2.4338    1.4031   -1.8455 N   0  0  0  0  0  0  0  0  0  0  0  0
    3.3959    1.5748   -2.3553 N   0  0  0  0  0  0  0  0  0  0  0  0
    2.6339    0.9306    1.5353 B   0  0  0  0  0  0  0  0  0  0  0  0
    2.7951   -0.0750    0.5136 F   0  0  0  0  0  0  0  0  0  0  0  0
    1.3776    0.7132    2.1618 F   0  0  0  0  0  0  0  0  0  0  0  0
    3.6830    0.9041    2.4318 F   0  0  0  0  0  0  0  0  0  0  0  0
    2.5682    2.1959    0.8459 F   0  0  0  0  0  0  0  0  0  0  0  0
  1  7  1  0  0  0  0
  1  6  2  0  0  0  0
  2  1  1  0  0  0  0
  3  2  2  0  0  0  0
  3  4  1  0  0  0  0
  4  5  2  0  0  0  0
  5  6  1  0  0  0  0
  5 10  1  0  0  0  0
  6 11  1  0  0  0  0
  8  2  1  0  0  0  0
  9  4  1  0  0  0  0
 11 12  2  0  0  0  0
 11 13  2  0  0  0  0
 15 14  3  0  0  0  0
 16 18  1  0  0  0  0
 16 19  1  0  0  0  0
 17 16  1  0  0  0  0
 20 16  1  0  0  0  0
M  RAD  1   3   2
M  END
