Coordinates from ORCA-job p-NO2-Ph-N2-BF4-B3LYPG-aug-cc-pVDZ-scan-d09-49-n400
 OpenBabel10311713223D

 20 18  0  0  0  0  0  0  0  0999 V2000
   -1.4119   -0.6332    0.2100 C   0  0  0  0  0  0  0  0  0  0  0  0
   -0.0179   -0.6584    0.2029 C   0  0  0  0  0  0  0  0  0  0  0  0
    0.6624    0.5333    0.4330 C   0  0  0  0  0  0  0  0  0  0  0  0
    0.0253    1.7478    0.6677 C   0  0  0  0  0  0  0  0  0  0  0  0
   -1.3690    1.7679    0.6746 C   0  0  0  0  0  0  0  0  0  0  0  0
   -2.0652    0.5787    0.4462 C   0  0  0  0  0  0  0  0  0  0  0  0
   -1.9946   -1.5340    0.0359 H   0  0  0  0  0  0  0  0  0  0  0  0
    0.5364   -1.5771    0.0212 H   0  0  0  0  0  0  0  0  0  0  0  0
    0.6113    2.6480    0.8409 H   0  0  0  0  0  0  0  0  0  0  0  0
   -1.9195    2.6881    0.8528 H   0  0  0  0  0  0  0  0  0  0  0  0
   -3.5394    0.6035    0.4525 N   0  0  0  0  0  0  0  0  0  0  0  0
   -4.1290   -0.4559    0.2533 O   0  0  0  0  0  0  0  0  0  0  0  0
   -4.0915    1.6797    0.6672 O   0  0  0  0  0  0  0  0  0  0  0  0
    2.3077    1.4787   -3.6462 N   0  0  0  0  0  0  0  0  0  0  0  0
    2.8370    1.4859   -4.6156 N   0  0  0  0  0  0  0  0  0  0  0  0
    3.6870    1.5566    2.1699 B   0  0  0  0  0  0  0  0  0  0  0  0
    2.0248    0.5082    0.4154 F   0  0  0  0  0  0  0  0  0  0  0  0
    3.2659    0.7168    3.1075 F   0  0  0  0  0  0  0  0  0  0  0  0
    4.7144    1.2353    1.3966 F   0  0  0  0  0  0  0  0  0  0  0  0
    3.1092    2.7489    2.0476 F   0  0  0  0  0  0  0  0  0  0  0  0
  1  6  1  0  0  0  0
  2  1  2  0  0  0  0
  2  3  1  0  0  0  0
  3  4  2  0  0  0  0
  4  5  1  0  0  0  0
  4  9  1  0  0  0  0
  5 10  1  0  0  0  0
  6 11  1  0  0  0  0
  6  5  2  0  0  0  0
  7  1  1  0  0  0  0
  8  2  1  0  0  0  0
 11 13  2  0  0  0  0
 12 11  2  0  0  0  0
 15 14  3  0  0  0  0
 16 18  1  0  0  0  0
 17  3  1  0  0  0  0
 19 16  1  0  0  0  0
 20 16  1  0  0  0  0
M  END
