Coordinates from ORCA-job p-NO2-Ph-N2-BF4-B3LYPG-aug-cc-pVDZ-scan-d09-49-n400
 OpenBabel10311713223D

 20 19  0  0  0  0  0  0  0  0999 V2000
   -0.8570   -0.4415   -0.0471 C   0  0  0  0  0  0  0  0  0  0  0  0
    0.3032   -0.2334   -0.7619 C   0  0  0  0  0  0  0  0  0  0  0  0
    0.7884    1.1079   -0.9750 C   0  0  0  0  0  0  0  0  0  0  0  0
    0.0613    2.2124   -0.3998 C   0  0  0  0  0  0  0  0  0  0  0  0
   -1.0968    1.9799    0.3113 C   0  0  0  0  0  0  0  0  0  0  0  0
   -1.5337    0.6641    0.4704 C   0  0  0  0  0  0  0  0  0  0  0  0
   -1.2329   -1.4444    0.1361 H   0  0  0  0  0  0  0  0  0  0  0  0
    0.8916   -1.0587   -1.1555 H   0  0  0  0  0  0  0  0  0  0  0  0
    0.4689    3.2128   -0.5230 H   0  0  0  0  0  0  0  0  0  0  0  0
   -1.6527    2.7965    0.7639 H   0  0  0  0  0  0  0  0  0  0  0  0
   -2.7866    0.4257    1.2426 N   0  0  0  0  0  0  0  0  0  0  0  0
   -3.1516   -0.7359    1.3638 O   0  0  0  0  0  0  0  0  0  0  0  0
   -3.3651    1.4110    1.6804 O   0  0  0  0  0  0  0  0  0  0  0  0
    1.7143    1.2810   -1.5245 N   0  0  0  0  0  0  0  0  0  0  0  0
    2.6731    1.4610   -2.0979 N   0  0  0  0  0  0  0  0  0  0  0  0
    2.4227    0.8923    1.6676 B   0  0  0  0  0  0  0  0  0  0  0  0
    2.6872   -0.1064    0.6620 F   0  0  0  0  0  0  0  0  0  0  0  0
    1.0978    0.6852    2.1431 F   0  0  0  0  0  0  0  0  0  0  0  0
    3.3596    0.8406    2.6795 F   0  0  0  0  0  0  0  0  0  0  0  0
    2.4516    2.1686    0.9970 F   0  0  0  0  0  0  0  0  0  0  0  0
  1  7  1  0  0  0  0
  1  6  2  0  0  0  0
  2  1  1  0  0  0  0
  3  2  2  0  0  0  0
  3  4  1  0  0  0  0
  4  5  2  0  0  0  0
  5  6  1  0  0  0  0
  5 10  1  0  0  0  0
  6 11  1  0  0  0  0
  8  2  1  0  0  0  0
  9  4  1  0  0  0  0
 11 12  2  0  0  0  0
 11 13  2  0  0  0  0
 14  3  1  0  0  0  0
 15 14  1  0  0  0  0
 16 18  1  0  0  0  0
 16 19  1  0  0  0  0
 17 16  1  0  0  0  0
 20 16  1  0  0  0  0
M  RAD  2  14   2  15   3
M  END
