Coordinates from ORCA-job p-NO2-Ph-N2-BF4-B3LYPG-aug-cc-pVDZ-scan-d09-49-n400
 OpenBabel10311713223D

 20 18  0  0  0  0  0  0  0  0999 V2000
   -1.4247   -0.6377    0.2322 C   0  0  0  0  0  0  0  0  0  0  0  0
   -0.0307   -0.6639    0.2234 C   0  0  0  0  0  0  0  0  0  0  0  0
    0.6511    0.5283    0.4469 C   0  0  0  0  0  0  0  0  0  0  0  0
    0.0146    1.7441    0.6778 C   0  0  0  0  0  0  0  0  0  0  0  0
   -1.3797    1.7652    0.6863 C   0  0  0  0  0  0  0  0  0  0  0  0
   -2.0769    0.5756    0.4636 C   0  0  0  0  0  0  0  0  0  0  0  0
   -2.0081   -1.5390    0.0630 H   0  0  0  0  0  0  0  0  0  0  0  0
    0.5222   -1.5842    0.0459 H   0  0  0  0  0  0  0  0  0  0  0  0
    0.6011    2.6446    0.8477 H   0  0  0  0  0  0  0  0  0  0  0  0
   -1.9293    2.6864    0.8617 H   0  0  0  0  0  0  0  0  0  0  0  0
   -3.5510    0.6014    0.4718 N   0  0  0  0  0  0  0  0  0  0  0  0
   -4.1417   -0.4574    0.2723 O   0  0  0  0  0  0  0  0  0  0  0  0
   -4.1023    1.6800    0.6768 O   0  0  0  0  0  0  0  0  0  0  0  0
    2.3954    1.5096   -3.7719 N   0  0  0  0  0  0  0  0  0  0  0  0
    2.9324    1.5159   -4.7369 N   0  0  0  0  0  0  0  0  0  0  0  0
    3.6823    1.5542    2.1755 B   0  0  0  0  0  0  0  0  0  0  0  0
    2.0130    0.5021    0.4290 F   0  0  0  0  0  0  0  0  0  0  0  0
    3.2731    0.7084    3.1128 F   0  0  0  0  0  0  0  0  0  0  0  0
    4.7060    1.2419    1.3935 F   0  0  0  0  0  0  0  0  0  0  0  0
    3.0964    2.7434    2.0618 F   0  0  0  0  0  0  0  0  0  0  0  0
  1  6  1  0  0  0  0
  2  1  2  0  0  0  0
  2  3  1  0  0  0  0
  3  4  2  0  0  0  0
  4  5  1  0  0  0  0
  4  9  1  0  0  0  0
  5 10  1  0  0  0  0
  6 11  1  0  0  0  0
  6  5  2  0  0  0  0
  7  1  1  0  0  0  0
  8  2  1  0  0  0  0
 11 13  2  0  0  0  0
 12 11  2  0  0  0  0
 15 14  3  0  0  0  0
 16 18  1  0  0  0  0
 17  3  1  0  0  0  0
 19 16  1  0  0  0  0
 20 16  1  0  0  0  0
M  END
