Coordinates from ORCA-job p-NO2-Ph-N2-BF4-B3LYPG-aug-cc-pVDZ-scan-d09-49-n400
 OpenBabel10311713223D

 20 19  0  0  0  0  0  0  0  0999 V2000
   -1.0316   -0.4641   -0.0081 C   0  0  0  0  0  0  0  0  0  0  0  0
    0.2088   -0.2697   -0.6206 C   0  0  0  0  0  0  0  0  0  0  0  0
    0.5891    1.0508   -0.7103 C   0  0  0  0  0  0  0  0  0  0  0  0
   -0.0379    2.1906   -0.2586 C   0  0  0  0  0  0  0  0  0  0  0  0
   -1.2744    1.9573    0.3481 C   0  0  0  0  0  0  0  0  0  0  0  0
   -1.7413    0.6461    0.4520 C   0  0  0  0  0  0  0  0  0  0  0  0
   -1.4349   -1.4639    0.1294 H   0  0  0  0  0  0  0  0  0  0  0  0
    0.8379   -1.0903   -0.9504 H   0  0  0  0  0  0  0  0  0  0  0  0
    0.4103    3.1770   -0.3223 H   0  0  0  0  0  0  0  0  0  0  0  0
   -1.8602    2.7780    0.7535 H   0  0  0  0  0  0  0  0  0  0  0  0
   -3.0593    0.4185    1.1010 N   0  0  0  0  0  0  0  0  0  0  0  0
   -3.4502   -0.7392    1.1842 O   0  0  0  0  0  0  0  0  0  0  0  0
   -3.6654    1.4053    1.4993 O   0  0  0  0  0  0  0  0  0  0  0  0
    2.0633    1.3051   -1.4343 N   0  0  0  0  0  0  0  0  0  0  0  0
    2.9819    1.4827   -2.0163 N   0  0  0  0  0  0  0  0  0  0  0  0
    2.7576    0.9422    1.5410 B   0  0  0  0  0  0  0  0  0  0  0  0
    2.9558   -0.0601    0.5153 F   0  0  0  0  0  0  0  0  0  0  0  0
    1.4859    0.7301    2.1187 F   0  0  0  0  0  0  0  0  0  0  0  0
    3.7810    0.9106    2.4655 F   0  0  0  0  0  0  0  0  0  0  0  0
    2.7270    2.2121    0.8463 F   0  0  0  0  0  0  0  0  0  0  0  0
  1  7  1  0  0  0  0
  1  6  2  0  0  0  0
  2  1  1  0  0  0  0
  3  2  2  0  0  0  0
  3  4  1  0  0  0  0
  4  5  2  0  0  0  0
  5  6  1  0  0  0  0
  5 10  1  0  0  0  0
  6 11  1  0  0  0  0
  8  2  1  0  0  0  0
  9  4  1  0  0  0  0
 11 12  2  0  0  0  0
 11 13  2  0  0  0  0
 14  3  1  0  0  0  0
 15 14  1  0  0  0  0
 16 18  1  0  0  0  0
 16 19  1  0  0  0  0
 17 16  1  0  0  0  0
 20 16  1  0  0  0  0
M  RAD  2  14   2  15   3
M  END
