Coordinates from ORCA-job p-NO2-Ph-N2-BF4-B3LYPG-aug-cc-pVDZ-scan-d09-49-n400
 OpenBabel10311713223D

 20 18  0  0  0  0  0  0  0  0999 V2000
   -1.2947   -0.5911   -0.0252 C   0  0  0  0  0  0  0  0  0  0  0  0
    0.0993   -0.6052   -0.0219 C   0  0  0  0  0  0  0  0  0  0  0  0
    0.7695    0.5752    0.2782 C   0  0  0  0  0  0  0  0  0  0  0  0
    0.1206    1.7630    0.5956 C   0  0  0  0  0  0  0  0  0  0  0  0
   -1.2733    1.7741    0.5928 C   0  0  0  0  0  0  0  0  0  0  0  0
   -1.9600    0.5986    0.2797 C   0  0  0  0  0  0  0  0  0  0  0  0
   -1.8686   -1.4846   -0.2566 H   0  0  0  0  0  0  0  0  0  0  0  0
    0.6607   -1.5081   -0.2537 H   0  0  0  0  0  0  0  0  0  0  0  0
    0.6975    2.6549    0.8313 H   0  0  0  0  0  0  0  0  0  0  0  0
   -1.8314    2.6763    0.8295 H   0  0  0  0  0  0  0  0  0  0  0  0
   -3.4335    0.6126    0.2752 N   0  0  0  0  0  0  0  0  0  0  0  0
   -4.0140   -0.4340   -0.0036 O   0  0  0  0  0  0  0  0  0  0  0  0
   -3.9957    1.6708    0.5469 O   0  0  0  0  0  0  0  0  0  0  0  0
    1.4540    1.2099   -2.3134 N   0  0  0  0  0  0  0  0  0  0  0  0
    1.9249    1.1939   -3.3121 N   0  0  0  0  0  0  0  0  0  0  0  0
    3.7576    1.6068    2.0639 B   0  0  0  0  0  0  0  0  0  0  0  0
    2.1303    0.5543    0.2945 F   0  0  0  0  0  0  0  0  0  0  0  0
    3.1390    0.9740    3.0536 F   0  0  0  0  0  0  0  0  0  0  0  0
    4.7887    1.0430    1.4507 F   0  0  0  0  0  0  0  0  0  0  0  0
    3.3724    2.8347    1.7276 F   0  0  0  0  0  0  0  0  0  0  0  0
  1  2  2  0  0  0  0
  1  6  1  0  0  0  0
  2  3  1  0  0  0  0
  3 17  1  0  0  0  0
  3  4  2  0  0  0  0
  4  9  1  0  0  0  0
  5  4  1  0  0  0  0
  5 10  1  0  0  0  0
  6  5  2  0  0  0  0
  7  1  1  0  0  0  0
  8  2  1  0  0  0  0
 11  6  1  0  0  0  0
 11 13  2  0  0  0  0
 12 11  2  0  0  0  0
 15 14  3  0  0  0  0
 16 18  1  0  0  0  0
 19 16  1  0  0  0  0
 20 16  1  0  0  0  0
M  END
