Coordinates from ORCA-job p-NO2-Ph-N2-BF4-B3LYPG-aug-cc-pVDZ-scan-d09-49-n400
 OpenBabel10311713223D

 20 18  0  0  0  0  0  0  0  0999 V2000
   -1.3053   -0.5974    0.0084 C   0  0  0  0  0  0  0  0  0  0  0  0
    0.0886   -0.6181    0.0110 C   0  0  0  0  0  0  0  0  0  0  0  0
    0.7643    0.5611    0.3073 C   0  0  0  0  0  0  0  0  0  0  0  0
    0.1209    1.7573    0.6068 C   0  0  0  0  0  0  0  0  0  0  0  0
   -1.2731    1.7740    0.6043 C   0  0  0  0  0  0  0  0  0  0  0  0
   -1.9645    0.5980    0.3042 C   0  0  0  0  0  0  0  0  0  0  0  0
   -1.8837   -1.4895   -0.2173 H   0  0  0  0  0  0  0  0  0  0  0  0
    0.6460   -1.5248   -0.2147 H   0  0  0  0  0  0  0  0  0  0  0  0
    0.7018    2.6489    0.8324 H   0  0  0  0  0  0  0  0  0  0  0  0
   -1.8274    2.6812    0.8300 H   0  0  0  0  0  0  0  0  0  0  0  0
   -3.4383    0.6186    0.3002 N   0  0  0  0  0  0  0  0  0  0  0  0
   -4.0236   -0.4285    0.0335 O   0  0  0  0  0  0  0  0  0  0  0  0
   -3.9956    1.6813    0.5642 O   0  0  0  0  0  0  0  0  0  0  0  0
    1.5551    1.2470   -2.5312 N   0  0  0  0  0  0  0  0  0  0  0  0
    2.0076    1.2254   -3.5381 N   0  0  0  0  0  0  0  0  0  0  0  0
    3.7296    1.6037    2.0955 B   0  0  0  0  0  0  0  0  0  0  0  0
    2.1255    0.5373    0.3087 F   0  0  0  0  0  0  0  0  0  0  0  0
    3.1409    0.9190    3.0686 F   0  0  0  0  0  0  0  0  0  0  0  0
    4.7773    1.0979    1.4606 F   0  0  0  0  0  0  0  0  0  0  0  0
    3.2973    2.8265    1.7988 F   0  0  0  0  0  0  0  0  0  0  0  0
  1  2  2  0  0  0  0
  1  6  1  0  0  0  0
  2  3  1  0  0  0  0
  3 17  1  0  0  0  0
  3  4  2  0  0  0  0
  4  9  1  0  0  0  0
  5  4  1  0  0  0  0
  5 10  1  0  0  0  0
  6  5  2  0  0  0  0
  7  1  1  0  0  0  0
  8  2  1  0  0  0  0
 11  6  1  0  0  0  0
 11 13  2  0  0  0  0
 12 11  2  0  0  0  0
 15 14  3  0  0  0  0
 16 18  1  0  0  0  0
 19 16  1  0  0  0  0
 20 16  1  0  0  0  0
M  END
