Coordinates from ORCA-job p-NO2-Ph-N2-BF4-B3LYPG-aug-cc-pVDZ-scan-d09-49-n400
 OpenBabel10311713223D

 20 18  0  0  0  0  0  0  0  0999 V2000
   -1.3150   -0.6023    0.0327 C   0  0  0  0  0  0  0  0  0  0  0  0
    0.0790   -0.6254    0.0356 C   0  0  0  0  0  0  0  0  0  0  0  0
    0.7564    0.5546    0.3258 C   0  0  0  0  0  0  0  0  0  0  0  0
    0.1151    1.7549    0.6145 C   0  0  0  0  0  0  0  0  0  0  0  0
   -1.2790    1.7736    0.6116 C   0  0  0  0  0  0  0  0  0  0  0  0
   -1.9721    0.5963    0.3204 C   0  0  0  0  0  0  0  0  0  0  0  0
   -1.8949   -1.4947   -0.1877 H   0  0  0  0  0  0  0  0  0  0  0  0
    0.6351   -1.5345   -0.1843 H   0  0  0  0  0  0  0  0  0  0  0  0
    0.6975    2.6473    0.8336 H   0  0  0  0  0  0  0  0  0  0  0  0
   -1.8321    2.6835    0.8297 H   0  0  0  0  0  0  0  0  0  0  0  0
   -3.4460    0.6192    0.3160 N   0  0  0  0  0  0  0  0  0  0  0  0
   -4.0328   -0.4287    0.0565 O   0  0  0  0  0  0  0  0  0  0  0  0
   -4.0015    1.6848    0.5720 O   0  0  0  0  0  0  0  0  0  0  0  0
    1.6270    1.2729   -2.6747 N   0  0  0  0  0  0  0  0  0  0  0  0
    2.0807    1.2585   -3.6812 N   0  0  0  0  0  0  0  0  0  0  0  0
    3.7203    1.5992    2.1120 B   0  0  0  0  0  0  0  0  0  0  0  0
    2.1180    0.5296    0.3228 F   0  0  0  0  0  0  0  0  0  0  0  0
    3.1502    0.8908    3.0790 F   0  0  0  0  0  0  0  0  0  0  0  0
    4.7718    1.1204    1.4626 F   0  0  0  0  0  0  0  0  0  0  0  0
    3.2657    2.8189    1.8364 F   0  0  0  0  0  0  0  0  0  0  0  0
  1  2  2  0  0  0  0
  1  6  1  0  0  0  0
  2  3  1  0  0  0  0
  3  4  2  0  0  0  0
  4  9  1  0  0  0  0
  5  4  1  0  0  0  0
  5 10  1  0  0  0  0
  6  5  2  0  0  0  0
  7  1  1  0  0  0  0
  8  2  1  0  0  0  0
 11  6  1  0  0  0  0
 11 13  2  0  0  0  0
 12 11  2  0  0  0  0
 15 14  3  0  0  0  0
 16 18  1  0  0  0  0
 17  3  1  0  0  0  0
 19 16  1  0  0  0  0
 20 16  1  0  0  0  0
M  END
