Coordinates from ORCA-job p-NO2-Ph-N2-BF4-B3LYPG-aug-cc-pVDZ-scan-d09-49-n400
 OpenBabel10311713223D

 20 19  0  0  0  0  0  0  0  0999 V2000
   -1.0434   -0.4667   -0.0002 C   0  0  0  0  0  0  0  0  0  0  0  0
    0.2046   -0.2771   -0.6073 C   0  0  0  0  0  0  0  0  0  0  0  0
    0.5557    1.0431   -0.6806 C   0  0  0  0  0  0  0  0  0  0  0  0
   -0.0431    2.1930   -0.2440 C   0  0  0  0  0  0  0  0  0  0  0  0
   -1.2863    1.9552    0.3560 C   0  0  0  0  0  0  0  0  0  0  0  0
   -1.7553    0.6442    0.4552 C   0  0  0  0  0  0  0  0  0  0  0  0
   -1.4461   -1.4673    0.1345 H   0  0  0  0  0  0  0  0  0  0  0  0
    0.8419   -1.0936   -0.9301 H   0  0  0  0  0  0  0  0  0  0  0  0
    0.4139    3.1753   -0.3020 H   0  0  0  0  0  0  0  0  0  0  0  0
   -1.8719    2.7776    0.7588 H   0  0  0  0  0  0  0  0  0  0  0  0
   -3.0768    0.4176    1.0951 N   0  0  0  0  0  0  0  0  0  0  0  0
   -3.4690   -0.7399    1.1755 O   0  0  0  0  0  0  0  0  0  0  0  0
   -3.6843    1.4047    1.4905 O   0  0  0  0  0  0  0  0  0  0  0  0
    2.1328    1.3166   -1.4644 N   0  0  0  0  0  0  0  0  0  0  0  0
    3.0412    1.4953   -2.0609 N   0  0  0  0  0  0  0  0  0  0  0  0
    2.7628    0.9437    1.5339 B   0  0  0  0  0  0  0  0  0  0  0  0
    2.9507   -0.0609    0.5089 F   0  0  0  0  0  0  0  0  0  0  0  0
    1.4975    0.7302    2.1262 F   0  0  0  0  0  0  0  0  0  0  0  0
    3.7964    0.9145    2.4476 F   0  0  0  0  0  0  0  0  0  0  0  0
    2.7221    2.2134    0.8402 F   0  0  0  0  0  0  0  0  0  0  0  0
  1  7  1  0  0  0  0
  1  6  2  0  0  0  0
  2  1  1  0  0  0  0
  3  2  2  0  0  0  0
  3  4  1  0  0  0  0
  4  5  2  0  0  0  0
  5  6  1  0  0  0  0
  5 10  1  0  0  0  0
  6 11  1  0  0  0  0
  8  2  1  0  0  0  0
  9  4  1  0  0  0  0
 11 12  2  0  0  0  0
 11 13  2  0  0  0  0
 14  3  1  0  0  0  0
 15 14  1  0  0  0  0
 16 18  1  0  0  0  0
 16 19  1  0  0  0  0
 17 16  1  0  0  0  0
 20 16  1  0  0  0  0
M  RAD  2  14   2  15   3
M  END
