Coordinates from ORCA-job p-NO2-Ph-N2-BF4-B3LYPG-aug-cc-pVDZ-scan-d09-49-n400
 OpenBabel10311713223D

 20 18  0  0  0  0  0  0  0  0999 V2000
   -1.2954   -0.5914   -0.0227 C   0  0  0  0  0  0  0  0  0  0  0  0
    0.0987   -0.6062   -0.0196 C   0  0  0  0  0  0  0  0  0  0  0  0
    0.7694    0.5740    0.2802 C   0  0  0  0  0  0  0  0  0  0  0  0
    0.1211    1.7625    0.5961 C   0  0  0  0  0  0  0  0  0  0  0  0
   -1.2728    1.7743    0.5934 C   0  0  0  0  0  0  0  0  0  0  0  0
   -1.9601    0.5987    0.2815 C   0  0  0  0  0  0  0  0  0  0  0  0
   -1.8697   -1.4848   -0.2536 H   0  0  0  0  0  0  0  0  0  0  0  0
    0.6596   -1.5095   -0.2509 H   0  0  0  0  0  0  0  0  0  0  0  0
    0.6984    2.6543    0.8310 H   0  0  0  0  0  0  0  0  0  0  0  0
   -1.8304    2.6769    0.8294 H   0  0  0  0  0  0  0  0  0  0  0  0
   -3.4336    0.6134    0.2773 N   0  0  0  0  0  0  0  0  0  0  0  0
   -4.0146   -0.4332   -0.0006 O   0  0  0  0  0  0  0  0  0  0  0  0
   -3.9952    1.6721    0.5483 O   0  0  0  0  0  0  0  0  0  0  0  0
    1.4618    1.2127   -2.3297 N   0  0  0  0  0  0  0  0  0  0  0  0
    1.9294    1.1941   -3.3298 N   0  0  0  0  0  0  0  0  0  0  0  0
    3.7548    1.6067    2.0669 B   0  0  0  0  0  0  0  0  0  0  0  0
    2.1303    0.5527    0.2950 F   0  0  0  0  0  0  0  0  0  0  0  0
    3.1400    0.9673    3.0548 F   0  0  0  0  0  0  0  0  0  0  0  0
    4.7880    1.0501    1.4507 F   0  0  0  0  0  0  0  0  0  0  0  0
    3.3637    2.8341    1.7356 F   0  0  0  0  0  0  0  0  0  0  0  0
  1  2  2  0  0  0  0
  1  6  1  0  0  0  0
  2  3  1  0  0  0  0
  3 17  1  0  0  0  0
  3  4  2  0  0  0  0
  4  9  1  0  0  0  0
  5  4  1  0  0  0  0
  5 10  1  0  0  0  0
  6  5  2  0  0  0  0
  7  1  1  0  0  0  0
  8  2  1  0  0  0  0
 11  6  1  0  0  0  0
 11 13  2  0  0  0  0
 12 11  2  0  0  0  0
 15 14  3  0  0  0  0
 16 18  1  0  0  0  0
 19 16  1  0  0  0  0
 20 16  1  0  0  0  0
M  END
