Coordinates from ORCA-job p-NO2-Ph-N2-BF4-B3LYPG-aug-cc-pVDZ-scan-d09-49-n400
 OpenBabel10311713223D

 20 18  0  0  0  0  0  0  0  0999 V2000
   -1.3709   -0.6197    0.1393 C   0  0  0  0  0  0  0  0  0  0  0  0
    0.0231   -0.6423    0.1341 C   0  0  0  0  0  0  0  0  0  0  0  0
    0.7015    0.5467    0.3846 C   0  0  0  0  0  0  0  0  0  0  0  0
    0.0611    1.7556    0.6395 C   0  0  0  0  0  0  0  0  0  0  0  0
   -1.3332    1.7731    0.6448 C   0  0  0  0  0  0  0  0  0  0  0  0
   -2.0268    0.5868    0.3949 C   0  0  0  0  0  0  0  0  0  0  0  0
   -1.9516   -1.5186   -0.0505 H   0  0  0  0  0  0  0  0  0  0  0  0
    0.5786   -1.5573   -0.0617 H   0  0  0  0  0  0  0  0  0  0  0  0
    0.6447    2.6541    0.8288 H   0  0  0  0  0  0  0  0  0  0  0  0
   -1.8856    2.6890    0.8381 H   0  0  0  0  0  0  0  0  0  0  0  0
   -3.5010    0.6087    0.3995 N   0  0  0  0  0  0  0  0  0  0  0  0
   -4.0885   -0.4470    0.1757 O   0  0  0  0  0  0  0  0  0  0  0  0
   -4.0556    1.6812    0.6262 O   0  0  0  0  0  0  0  0  0  0  0  0
    2.0266    1.3854   -3.2381 N   0  0  0  0  0  0  0  0  0  0  0  0
    2.5273    1.3913   -4.2222 N   0  0  0  0  0  0  0  0  0  0  0  0
    3.7006    1.5691    2.1469 B   0  0  0  0  0  0  0  0  0  0  0  0
    2.0634    0.5240    0.3701 F   0  0  0  0  0  0  0  0  0  0  0  0
    3.2248    0.7672    3.0915 F   0  0  0  0  0  0  0  0  0  0  0  0
    4.7414    1.1972    1.4154 F   0  0  0  0  0  0  0  0  0  0  0  0
    3.1634    2.7744    1.9762 F   0  0  0  0  0  0  0  0  0  0  0  0
  1  6  1  0  0  0  0
  2  1  2  0  0  0  0
  2  3  1  0  0  0  0
  3  4  2  0  0  0  0
  4  5  1  0  0  0  0
  4  9  1  0  0  0  0
  5 10  1  0  0  0  0
  6 11  1  0  0  0  0
  6  5  2  0  0  0  0
  7  1  1  0  0  0  0
  8  2  1  0  0  0  0
 11 13  2  0  0  0  0
 12 11  2  0  0  0  0
 15 14  3  0  0  0  0
 16 18  1  0  0  0  0
 17  3  1  0  0  0  0
 19 16  1  0  0  0  0
 20 16  1  0  0  0  0
M  END
