Coordinates from ORCA-job p-NO2-Ph-N2-BF4-B3LYPG-aug-cc-pVDZ-scan-d09-49-n400
 OpenBabel10311713223D

 20 18  0  0  0  0  0  0  0  0999 V2000
   -1.3443   -0.6115    0.0911 C   0  0  0  0  0  0  0  0  0  0  0  0
    0.0497   -0.6339    0.0883 C   0  0  0  0  0  0  0  0  0  0  0  0
    0.7272    0.5513    0.3561 C   0  0  0  0  0  0  0  0  0  0  0  0
    0.0867    1.7567    0.6253 C   0  0  0  0  0  0  0  0  0  0  0  0
   -1.3075    1.7743    0.6282 C   0  0  0  0  0  0  0  0  0  0  0  0
   -2.0009    0.5915    0.3613 C   0  0  0  0  0  0  0  0  0  0  0  0
   -1.9246   -1.5078   -0.1117 H   0  0  0  0  0  0  0  0  0  0  0  0
    0.6057   -1.5462   -0.1184 H   0  0  0  0  0  0  0  0  0  0  0  0
    0.6700    2.6528    0.8266 H   0  0  0  0  0  0  0  0  0  0  0  0
   -1.8602    2.6876    0.8325 H   0  0  0  0  0  0  0  0  0  0  0  0
   -3.4749    0.6133    0.3633 N   0  0  0  0  0  0  0  0  0  0  0  0
   -4.0620   -0.4384    0.1205 O   0  0  0  0  0  0  0  0  0  0  0  0
   -4.0299    1.6837    0.5992 O   0  0  0  0  0  0  0  0  0  0  0  0
    1.8383    1.3315   -2.9745 N   0  0  0  0  0  0  0  0  0  0  0  0
    2.3195    1.3273   -3.9686 N   0  0  0  0  0  0  0  0  0  0  0  0
    3.7085    1.5816    2.1319 B   0  0  0  0  0  0  0  0  0  0  0  0
    2.0894    0.5283    0.3441 F   0  0  0  0  0  0  0  0  0  0  0  0
    3.1923    0.8148    3.0845 F   0  0  0  0  0  0  0  0  0  0  0  0
    4.7570    1.1679    1.4347 F   0  0  0  0  0  0  0  0  0  0  0  0
    3.2035    2.7940    1.9188 F   0  0  0  0  0  0  0  0  0  0  0  0
  1  6  1  0  0  0  0
  2  1  2  0  0  0  0
  2  3  1  0  0  0  0
  3  4  2  0  0  0  0
  4  5  1  0  0  0  0
  4  9  1  0  0  0  0
  5 10  1  0  0  0  0
  6 11  1  0  0  0  0
  6  5  2  0  0  0  0
  7  1  1  0  0  0  0
  8  2  1  0  0  0  0
 11 13  2  0  0  0  0
 12 11  2  0  0  0  0
 15 14  3  0  0  0  0
 16 18  1  0  0  0  0
 17  3  1  0  0  0  0
 19 16  1  0  0  0  0
 20 16  1  0  0  0  0
M  END
