Coordinates from ORCA-job p-NO2-Ph-N2-BF4-B3LYPG-aug-cc-pVDZ-scan-d09-49-n400
 OpenBabel10311713223D

 20 19  0  0  0  0  0  0  0  0999 V2000
   -0.9008   -0.4462   -0.0436 C   0  0  0  0  0  0  0  0  0  0  0  0
    0.2754   -0.2378   -0.7407 C   0  0  0  0  0  0  0  0  0  0  0  0
    0.7385    1.0954   -0.9208 C   0  0  0  0  0  0  0  0  0  0  0  0
    0.0326    2.2059   -0.3798 C   0  0  0  0  0  0  0  0  0  0  0  0
   -1.1416    1.9753    0.3140 C   0  0  0  0  0  0  0  0  0  0  0  0
   -1.5827    0.6601    0.4649 C   0  0  0  0  0  0  0  0  0  0  0  0
   -1.2826   -1.4480    0.1321 H   0  0  0  0  0  0  0  0  0  0  0  0
    0.8690   -1.0654   -1.1202 H   0  0  0  0  0  0  0  0  0  0  0  0
    0.4447    3.2056   -0.4892 H   0  0  0  0  0  0  0  0  0  0  0  0
   -1.7040    2.7918    0.7582 H   0  0  0  0  0  0  0  0  0  0  0  0
   -2.8460    0.4230    1.2199 N   0  0  0  0  0  0  0  0  0  0  0  0
   -3.2140   -0.7382    1.3386 O   0  0  0  0  0  0  0  0  0  0  0  0
   -3.4278    1.4079    1.6550 O   0  0  0  0  0  0  0  0  0  0  0  0
    1.7964    1.2861   -1.4994 N   0  0  0  0  0  0  0  0  0  0  0  0
    2.7602    1.4620   -2.0398 N   0  0  0  0  0  0  0  0  0  0  0  0
    2.5025    0.9044    1.6358 B   0  0  0  0  0  0  0  0  0  0  0  0
    2.7666   -0.0928    0.6272 F   0  0  0  0  0  0  0  0  0  0  0  0
    1.1806    0.6976    2.1150 F   0  0  0  0  0  0  0  0  0  0  0  0
    3.4436    0.8529    2.6444 F   0  0  0  0  0  0  0  0  0  0  0  0
    2.5326    2.1795    0.9616 F   0  0  0  0  0  0  0  0  0  0  0  0
  1  7  1  0  0  0  0
  1  6  2  0  0  0  0
  2  1  1  0  0  0  0
  3  2  2  0  0  0  0
  3  4  1  0  0  0  0
  4  5  2  0  0  0  0
  5  6  1  0  0  0  0
  5 10  1  0  0  0  0
  6 11  1  0  0  0  0
  8  2  1  0  0  0  0
  9  4  1  0  0  0  0
 11 12  2  0  0  0  0
 11 13  2  0  0  0  0
 14  3  1  0  0  0  0
 15 14  1  0  0  0  0
 16 18  1  0  0  0  0
 16 19  1  0  0  0  0
 17 16  1  0  0  0  0
 20 16  1  0  0  0  0
M  RAD  2  14   2  15   3
M  END
