Coordinates from ORCA-job p-NO2-Ph-N2-BF4-B3LYPG-aug-cc-pVDZ-scan-d09-49-n400
 OpenBabel10311713223D

 20 18  0  0  0  0  0  0  0  0999 V2000
   -1.0527   -0.4761    0.0538 C   0  0  0  0  0  0  0  0  0  0  0  0
    0.2234   -0.3041   -0.5356 C   0  0  0  0  0  0  0  0  0  0  0  0
    0.4625    1.0134   -0.5452 C   0  0  0  0  0  0  0  0  0  0  0  0
   -0.0276    2.2010   -0.1676 C   0  0  0  0  0  0  0  0  0  0  0  0
   -1.2956    1.9465    0.4096 C   0  0  0  0  0  0  0  0  0  0  0  0
   -1.7706    0.6361    0.4997 C   0  0  0  0  0  0  0  0  0  0  0  0
   -1.4479   -1.4833    0.1749 H   0  0  0  0  0  0  0  0  0  0  0  0
    0.8868   -1.1047   -0.8436 H   0  0  0  0  0  0  0  0  0  0  0  0
    0.4585    3.1691   -0.2156 H   0  0  0  0  0  0  0  0  0  0  0  0
   -1.8754    2.7807    0.8010 H   0  0  0  0  0  0  0  0  0  0  0  0
   -3.0978    0.4122    1.1186 N   0  0  0  0  0  0  0  0  0  0  0  0
   -3.4919   -0.7450    1.1910 O   0  0  0  0  0  0  0  0  0  0  0  0
   -3.7071    1.4012    1.5059 O   0  0  0  0  0  0  0  0  0  0  0  0
    2.4783    1.4136   -1.8861 N   0  0  0  0  0  0  0  0  0  0  0  0
    3.4406    1.5854   -2.3958 N   0  0  0  0  0  0  0  0  0  0  0  0
    2.6351    0.9315    1.5316 B   0  0  0  0  0  0  0  0  0  0  0  0
    2.7825   -0.0740    0.5077 F   0  0  0  0  0  0  0  0  0  0  0  0
    1.3885    0.7123    2.1762 F   0  0  0  0  0  0  0  0  0  0  0  0
    3.6974    0.9080    2.4120 F   0  0  0  0  0  0  0  0  0  0  0  0
    2.5562    2.1950    0.8406 F   0  0  0  0  0  0  0  0  0  0  0  0
  1  7  1  0  0  0  0
  1  6  2  0  0  0  0
  2  1  1  0  0  0  0
  3  2  2  0  0  0  0
  3  4  1  0  0  0  0
  4  5  2  0  0  0  0
  5  6  1  0  0  0  0
  5 10  1  0  0  0  0
  6 11  1  0  0  0  0
  8  2  1  0  0  0  0
  9  4  1  0  0  0  0
 11 12  2  0  0  0  0
 11 13  2  0  0  0  0
 15 14  3  0  0  0  0
 16 18  1  0  0  0  0
 16 19  1  0  0  0  0
 17 16  1  0  0  0  0
 20 16  1  0  0  0  0
M  RAD  1   3   2
M  END
