Coordinates from ORCA-job p-NO2-Ph-N2-BF4-B3LYPG-aug-cc-pVDZ-scan-d09-49-n400
 OpenBabel10311713223D

 20 18  0  0  0  0  0  0  0  0999 V2000
   -1.2951   -0.5894   -0.0481 C   0  0  0  0  0  0  0  0  0  0  0  0
    0.0987   -0.5919   -0.0421 C   0  0  0  0  0  0  0  0  0  0  0  0
    0.7605    0.5969    0.2440 C   0  0  0  0  0  0  0  0  0  0  0  0
    0.0993    1.7730    0.5806 C   0  0  0  0  0  0  0  0  0  0  0  0
   -1.2939    1.7737    0.5753 C   0  0  0  0  0  0  0  0  0  0  0  0
   -1.9717    0.5947    0.2541 C   0  0  0  0  0  0  0  0  0  0  0  0
   -1.8608   -1.4891   -0.2759 H   0  0  0  0  0  0  0  0  0  0  0  0
    0.6657   -1.4928   -0.2683 H   0  0  0  0  0  0  0  0  0  0  0  0
    0.6677    2.6678    0.8267 H   0  0  0  0  0  0  0  0  0  0  0  0
   -1.8593    2.6691    0.8203 H   0  0  0  0  0  0  0  0  0  0  0  0
   -3.4443    0.5968    0.2471 N   0  0  0  0  0  0  0  0  0  0  0  0
   -4.0161   -0.4526   -0.0400 O   0  0  0  0  0  0  0  0  0  0  0  0
   -4.0158    1.6513    0.5149 O   0  0  0  0  0  0  0  0  0  0  0  0
    1.3744    1.1817   -2.1014 N   0  0  0  0  0  0  0  0  0  0  0  0
    1.9064    1.2170   -3.0687 N   0  0  0  0  0  0  0  0  0  0  0  0
    3.8199    1.6009    2.0211 B   0  0  0  0  0  0  0  0  0  0  0  0
    2.1198    0.5805    0.2938 F   0  0  0  0  0  0  0  0  0  0  0  0
    3.1679    1.0425    3.0336 F   0  0  0  0  0  0  0  0  0  0  0  0
    4.8194    0.9570    1.4344 F   0  0  0  0  0  0  0  0  0  0  0  0
    3.5006    2.8317    1.6319 F   0  0  0  0  0  0  0  0  0  0  0  0
  1  2  2  0  0  0  0
  1  6  1  0  0  0  0
  2  3  1  0  0  0  0
  3 17  1  0  0  0  0
  3  4  2  0  0  0  0
  4  9  1  0  0  0  0
  5  4  1  0  0  0  0
  5 10  1  0  0  0  0
  6  5  2  0  0  0  0
  7  1  1  0  0  0  0
  8  2  1  0  0  0  0
 11  6  1  0  0  0  0
 11 13  2  0  0  0  0
 12 11  2  0  0  0  0
 15 14  3  0  0  0  0
 16 18  1  0  0  0  0
 19 16  1  0  0  0  0
 20 16  1  0  0  0  0
M  END
