Coordinates from ORCA-job p-NO2-Ph-N2-BF4-B3LYPG-aug-cc-pVDZ-scan-d09-49-n400
 OpenBabel10311713223D

 20 19  0  0  0  0  0  0  0  0999 V2000
   -0.8249   -0.4386   -0.0450 C   0  0  0  0  0  0  0  0  0  0  0  0
    0.3269   -0.2375   -0.7614 C   0  0  0  0  0  0  0  0  0  0  0  0
    0.8547    1.1209   -1.0177 C   0  0  0  0  0  0  0  0  0  0  0  0
    0.0848    2.2208   -0.3958 C   0  0  0  0  0  0  0  0  0  0  0  0
   -1.0640    1.9827    0.3145 C   0  0  0  0  0  0  0  0  0  0  0  0
   -1.5026    0.6667    0.4746 C   0  0  0  0  0  0  0  0  0  0  0  0
   -1.1996   -1.4424    0.1391 H   0  0  0  0  0  0  0  0  0  0  0  0
    0.9221   -1.0531   -1.1663 H   0  0  0  0  0  0  0  0  0  0  0  0
    0.5011    3.2165   -0.5320 H   0  0  0  0  0  0  0  0  0  0  0  0
   -1.6189    2.8000    0.7686 H   0  0  0  0  0  0  0  0  0  0  0  0
   -2.7555    0.4286    1.2443 N   0  0  0  0  0  0  0  0  0  0  0  0
   -3.1139   -0.7341    1.3734 O   0  0  0  0  0  0  0  0  0  0  0  0
   -3.3342    1.4150    1.6794 O   0  0  0  0  0  0  0  0  0  0  0  0
    1.6224    1.2686   -1.5027 N   0  0  0  0  0  0  0  0  0  0  0  0
    2.5853    1.4538   -2.1111 N   0  0  0  0  0  0  0  0  0  0  0  0
    2.3735    0.8867    1.6721 B   0  0  0  0  0  0  0  0  0  0  0  0
    2.6338   -0.1140    0.6673 F   0  0  0  0  0  0  0  0  0  0  0  0
    1.0461    0.6800    2.1450 F   0  0  0  0  0  0  0  0  0  0  0  0
    3.3078    0.8343    2.6839 F   0  0  0  0  0  0  0  0  0  0  0  0
    2.3983    2.1640    1.0031 F   0  0  0  0  0  0  0  0  0  0  0  0
  1  7  1  0  0  0  0
  1  6  2  0  0  0  0
  2  1  1  0  0  0  0
  3  2  2  0  0  0  0
  3  4  1  0  0  0  0
  4  5  2  0  0  0  0
  5  6  1  0  0  0  0
  5 10  1  0  0  0  0
  6 11  1  0  0  0  0
  8  2  1  0  0  0  0
  9  4  1  0  0  0  0
 11 12  2  0  0  0  0
 11 13  2  0  0  0  0
 14  3  1  0  0  0  0
 15 14  1  0  0  0  0
 16 18  1  0  0  0  0
 16 19  1  0  0  0  0
 17 16  1  0  0  0  0
 20 16  1  0  0  0  0
M  RAD  2  14   2  15   3
M  END
