Coordinates from ORCA-job p-NO2-Ph-N2-BF4-B3LYPG-aug-cc-pVDZ-scan-d09-49-n400
 OpenBabel10311713223D

 20 18  0  0  0  0  0  0  0  0999 V2000
   -1.3514   -0.6133    0.1030 C   0  0  0  0  0  0  0  0  0  0  0  0
    0.0426   -0.6356    0.0998 C   0  0  0  0  0  0  0  0  0  0  0  0
    0.7201    0.5507    0.3629 C   0  0  0  0  0  0  0  0  0  0  0  0
    0.0795    1.7570    0.6281 C   0  0  0  0  0  0  0  0  0  0  0  0
   -1.3148    1.7744    0.6314 C   0  0  0  0  0  0  0  0  0  0  0  0
   -2.0080    0.5905    0.3691 C   0  0  0  0  0  0  0  0  0  0  0  0
   -1.9317   -1.5105   -0.0962 H   0  0  0  0  0  0  0  0  0  0  0  0
    0.5985   -1.5486   -0.1038 H   0  0  0  0  0  0  0  0  0  0  0  0
    0.6627    2.6538    0.8263 H   0  0  0  0  0  0  0  0  0  0  0  0
   -1.8675    2.6884    0.8327 H   0  0  0  0  0  0  0  0  0  0  0  0
   -3.4821    0.6122    0.3715 N   0  0  0  0  0  0  0  0  0  0  0  0
   -4.0692   -0.4417    0.1383 O   0  0  0  0  0  0  0  0  0  0  0  0
   -4.0372    1.6822    0.6093 O   0  0  0  0  0  0  0  0  0  0  0  0
    1.8887    1.3451   -3.0426 N   0  0  0  0  0  0  0  0  0  0  0  0
    2.3759    1.3433   -4.0336 N   0  0  0  0  0  0  0  0  0  0  0  0
    3.7069    1.5779    2.1361 B   0  0  0  0  0  0  0  0  0  0  0  0
    2.0823    0.5279    0.3504 F   0  0  0  0  0  0  0  0  0  0  0  0
    3.2018    0.8010    3.0864 F   0  0  0  0  0  0  0  0  0  0  0  0
    4.7533    1.1758    1.4290 F   0  0  0  0  0  0  0  0  0  0  0  0
    3.1929    2.7885    1.9351 F   0  0  0  0  0  0  0  0  0  0  0  0
  1  6  1  0  0  0  0
  2  1  2  0  0  0  0
  2  3  1  0  0  0  0
  3  4  2  0  0  0  0
  4  5  1  0  0  0  0
  4  9  1  0  0  0  0
  5 10  1  0  0  0  0
  6 11  1  0  0  0  0
  6  5  2  0  0  0  0
  7  1  1  0  0  0  0
  8  2  1  0  0  0  0
 11 13  2  0  0  0  0
 12 11  2  0  0  0  0
 15 14  3  0  0  0  0
 16 18  1  0  0  0  0
 17  3  1  0  0  0  0
 19 16  1  0  0  0  0
 20 16  1  0  0  0  0
M  END
