Coordinates from ORCA-job p-NO2-Ph-N2-BF4-B3LYPG-aug-cc-pVDZ-scan-d09-49-n400
 OpenBabel10311713223D

 20 19  0  0  0  0  0  0  0  0999 V2000
   -1.0218   -0.4625   -0.0121 C   0  0  0  0  0  0  0  0  0  0  0  0
    0.2132   -0.2656   -0.6306 C   0  0  0  0  0  0  0  0  0  0  0  0
    0.6071    1.0554   -0.7300 C   0  0  0  0  0  0  0  0  0  0  0  0
   -0.0329    2.1904   -0.2692 C   0  0  0  0  0  0  0  0  0  0  0  0
   -1.2645    1.9588    0.3441 C   0  0  0  0  0  0  0  0  0  0  0  0
   -1.7295    0.6473    0.4518 C   0  0  0  0  0  0  0  0  0  0  0  0
   -1.4242   -1.4620    0.1282 H   0  0  0  0  0  0  0  0  0  0  0  0
    0.8378   -1.0880   -0.9651 H   0  0  0  0  0  0  0  0  0  0  0  0
    0.4104    3.1789   -0.3369 H   0  0  0  0  0  0  0  0  0  0  0  0
   -1.8492    2.7787    0.7522 H   0  0  0  0  0  0  0  0  0  0  0  0
   -3.0440    0.4189    1.1089 N   0  0  0  0  0  0  0  0  0  0  0  0
   -3.4333   -0.7390    1.1949 O   0  0  0  0  0  0  0  0  0  0  0  0
   -3.6484    1.4055    1.5101 O   0  0  0  0  0  0  0  0  0  0  0  0
    2.0276    1.3005   -1.4282 N   0  0  0  0  0  0  0  0  0  0  0  0
    2.9534    1.4774   -2.0004 N   0  0  0  0  0  0  0  0  0  0  0  0
    2.7442    0.9401    1.5469 B   0  0  0  0  0  0  0  0  0  0  0  0
    2.9510   -0.0611    0.5220 F   0  0  0  0  0  0  0  0  0  0  0  0
    1.4662    0.7290    2.1120 F   0  0  0  0  0  0  0  0  0  0  0  0
    3.7580    0.9060    2.4819 F   0  0  0  0  0  0  0  0  0  0  0  0
    2.7221    2.2104    0.8530 F   0  0  0  0  0  0  0  0  0  0  0  0
  1  7  1  0  0  0  0
  1  6  2  0  0  0  0
  2  1  1  0  0  0  0
  3  2  2  0  0  0  0
  3  4  1  0  0  0  0
  4  5  2  0  0  0  0
  5  6  1  0  0  0  0
  5 10  1  0  0  0  0
  6 11  1  0  0  0  0
  8  2  1  0  0  0  0
  9  4  1  0  0  0  0
 11 12  2  0  0  0  0
 11 13  2  0  0  0  0
 14  3  1  0  0  0  0
 15 14  1  0  0  0  0
 16 18  1  0  0  0  0
 16 19  1  0  0  0  0
 17 16  1  0  0  0  0
 20 16  1  0  0  0  0
M  RAD  2  14   2  15   3
M  END
