Coordinates from ORCA-job p-NO2-Ph-N2-BF4-B3LYPG-aug-cc-pVDZ-scan-d09-49-n400
 OpenBabel10311713223D

 20 18  0  0  0  0  0  0  0  0999 V2000
   -1.4370   -0.6419    0.2511 C   0  0  0  0  0  0  0  0  0  0  0  0
   -0.0430   -0.6692    0.2415 C   0  0  0  0  0  0  0  0  0  0  0  0
    0.6394    0.5232    0.4613 C   0  0  0  0  0  0  0  0  0  0  0  0
    0.0045    1.7403    0.6884 C   0  0  0  0  0  0  0  0  0  0  0  0
   -1.3898    1.7626    0.6976 C   0  0  0  0  0  0  0  0  0  0  0  0
   -2.0881    0.5727    0.4792 C   0  0  0  0  0  0  0  0  0  0  0  0
   -2.0213   -1.5431    0.0849 H   0  0  0  0  0  0  0  0  0  0  0  0
    0.5094   -1.5902    0.0662 H   0  0  0  0  0  0  0  0  0  0  0  0
    0.5921    2.6407    0.8546 H   0  0  0  0  0  0  0  0  0  0  0  0
   -1.9386    2.6848    0.8701 H   0  0  0  0  0  0  0  0  0  0  0  0
   -3.5622    0.5997    0.4882 N   0  0  0  0  0  0  0  0  0  0  0  0
   -4.1538   -0.4593    0.2931 O   0  0  0  0  0  0  0  0  0  0  0  0
   -4.1124    1.6793    0.6908 O   0  0  0  0  0  0  0  0  0  0  0  0
    2.4791    1.5379   -3.8876 N   0  0  0  0  0  0  0  0  0  0  0  0
    3.0233    1.5429   -4.8487 N   0  0  0  0  0  0  0  0  0  0  0  0
    3.6778    1.5528    2.1797 B   0  0  0  0  0  0  0  0  0  0  0  0
    2.0017    0.4960    0.4419 F   0  0  0  0  0  0  0  0  0  0  0  0
    3.2783    0.7040    3.1185 F   0  0  0  0  0  0  0  0  0  0  0  0
    4.6977    1.2460    1.3907 F   0  0  0  0  0  0  0  0  0  0  0  0
    3.0861    2.7397    2.0715 F   0  0  0  0  0  0  0  0  0  0  0  0
  1  6  1  0  0  0  0
  2  1  2  0  0  0  0
  2  3  1  0  0  0  0
  3  4  2  0  0  0  0
  4  5  1  0  0  0  0
  4  9  1  0  0  0  0
  5 10  1  0  0  0  0
  6 11  1  0  0  0  0
  6  5  2  0  0  0  0
  7  1  1  0  0  0  0
  8  2  1  0  0  0  0
 11 13  2  0  0  0  0
 12 11  2  0  0  0  0
 15 14  3  0  0  0  0
 16 18  1  0  0  0  0
 17  3  1  0  0  0  0
 19 16  1  0  0  0  0
 20 16  1  0  0  0  0
M  END
