Coordinates from ORCA-job p-NO2-Ph-N2-BF4-B3LYPG-aug-cc-pVDZ-scan-d09-49-n400
 OpenBabel10311713223D

 20 18  0  0  0  0  0  0  0  0999 V2000
   -1.3184   -0.6035    0.0400 C   0  0  0  0  0  0  0  0  0  0  0  0
    0.0755   -0.6267    0.0422 C   0  0  0  0  0  0  0  0  0  0  0  0
    0.7536    0.5539    0.3285 C   0  0  0  0  0  0  0  0  0  0  0  0
    0.1123    1.7547    0.6156 C   0  0  0  0  0  0  0  0  0  0  0  0
   -1.2818    1.7735    0.6135 C   0  0  0  0  0  0  0  0  0  0  0  0
   -1.9753    0.5958    0.3252 C   0  0  0  0  0  0  0  0  0  0  0  0
   -1.8985   -1.4965   -0.1775 H   0  0  0  0  0  0  0  0  0  0  0  0
    0.6309   -1.5371   -0.1747 H   0  0  0  0  0  0  0  0  0  0  0  0
    0.6946    2.6474    0.8338 H   0  0  0  0  0  0  0  0  0  0  0  0
   -1.8346    2.6839    0.8305 H   0  0  0  0  0  0  0  0  0  0  0  0
   -3.4492    0.6189    0.3217 N   0  0  0  0  0  0  0  0  0  0  0  0
   -4.0363   -0.4295    0.0647 O   0  0  0  0  0  0  0  0  0  0  0  0
   -4.0044    1.6851    0.5754 O   0  0  0  0  0  0  0  0  0  0  0  0
    1.6519    1.2805   -2.7155 N   0  0  0  0  0  0  0  0  0  0  0  0
    2.1084    1.2680   -3.7209 N   0  0  0  0  0  0  0  0  0  0  0  0
    3.7182    1.5974    2.1159 B   0  0  0  0  0  0  0  0  0  0  0  0
    2.1150    0.5288    0.3253 F   0  0  0  0  0  0  0  0  0  0  0  0
    3.1540    0.8814    3.0808 F   0  0  0  0  0  0  0  0  0  0  0  0
    4.7704    1.1269    1.4615 F   0  0  0  0  0  0  0  0  0  0  0  0
    3.2570    2.8161    1.8473 F   0  0  0  0  0  0  0  0  0  0  0  0
  1  2  2  0  0  0  0
  1  6  1  0  0  0  0
  2  3  1  0  0  0  0
  3  4  2  0  0  0  0
  4  9  1  0  0  0  0
  5  4  1  0  0  0  0
  5 10  1  0  0  0  0
  6  5  2  0  0  0  0
  7  1  1  0  0  0  0
  8  2  1  0  0  0  0
 11  6  1  0  0  0  0
 11 13  2  0  0  0  0
 12 11  2  0  0  0  0
 15 14  3  0  0  0  0
 16 18  1  0  0  0  0
 17  3  1  0  0  0  0
 19 16  1  0  0  0  0
 20 16  1  0  0  0  0
M  END
