Coordinates from ORCA-job p-NO2-Ph-N2-BF4-B3LYPG-aug-cc-pVDZ-scan-d09-49-n400
 OpenBabel10311713223D

 20 18  0  0  0  0  0  0  0  0999 V2000
   -1.3106   -0.5999    0.0220 C   0  0  0  0  0  0  0  0  0  0  0  0
    0.0835   -0.6218    0.0250 C   0  0  0  0  0  0  0  0  0  0  0  0
    0.7593    0.5574    0.3185 C   0  0  0  0  0  0  0  0  0  0  0  0
    0.1178    1.7558    0.6109 C   0  0  0  0  0  0  0  0  0  0  0  0
   -1.2764    1.7738    0.6082 C   0  0  0  0  0  0  0  0  0  0  0  0
   -1.9688    0.5971    0.3133 C   0  0  0  0  0  0  0  0  0  0  0  0
   -1.8897   -1.4923   -0.2009 H   0  0  0  0  0  0  0  0  0  0  0  0
    0.6407   -1.5295   -0.1979 H   0  0  0  0  0  0  0  0  0  0  0  0
    0.7000    2.6479    0.8321 H   0  0  0  0  0  0  0  0  0  0  0  0
   -1.8299    2.6827    0.8292 H   0  0  0  0  0  0  0  0  0  0  0  0
   -3.4427    0.6189    0.3090 N   0  0  0  0  0  0  0  0  0  0  0  0
   -4.0287   -0.4284    0.0455 O   0  0  0  0  0  0  0  0  0  0  0  0
   -3.9989    1.6835    0.5674 O   0  0  0  0  0  0  0  0  0  0  0  0
    1.5941    1.2611   -2.6101 N   0  0  0  0  0  0  0  0  0  0  0  0
    2.0465    1.2430   -3.6172 N   0  0  0  0  0  0  0  0  0  0  0  0
    3.7248    1.6011    2.1049 B   0  0  0  0  0  0  0  0  0  0  0  0
    2.1212    0.5328    0.3168 F   0  0  0  0  0  0  0  0  0  0  0  0
    3.1476    0.9018    3.0745 F   0  0  0  0  0  0  0  0  0  0  0  0
    4.7748    1.1120    1.4607 F   0  0  0  0  0  0  0  0  0  0  0  0
    3.2788    2.8219    1.8213 F   0  0  0  0  0  0  0  0  0  0  0  0
  1  2  2  0  0  0  0
  1  6  1  0  0  0  0
  2  3  1  0  0  0  0
  3  4  2  0  0  0  0
  4  9  1  0  0  0  0
  5  4  1  0  0  0  0
  5 10  1  0  0  0  0
  6  5  2  0  0  0  0
  7  1  1  0  0  0  0
  8  2  1  0  0  0  0
 11  6  1  0  0  0  0
 11 13  2  0  0  0  0
 12 11  2  0  0  0  0
 15 14  3  0  0  0  0
 16 18  1  0  0  0  0
 17  3  1  0  0  0  0
 19 16  1  0  0  0  0
 20 16  1  0  0  0  0
M  END
