Coordinates from ORCA-job p-NO2-Ph-N2-BF4-B3LYPG-aug-cc-pVDZ-scan-d09-49-n400
 OpenBabel10311713223D

 20 18  0  0  0  0  0  0  0  0999 V2000
   -1.0451   -0.4686    0.0104 C   0  0  0  0  0  0  0  0  0  0  0  0
    0.2066   -0.2842   -0.6014 C   0  0  0  0  0  0  0  0  0  0  0  0
    0.5188    1.0361   -0.6578 C   0  0  0  0  0  0  0  0  0  0  0  0
   -0.0425    2.1985   -0.2364 C   0  0  0  0  0  0  0  0  0  0  0  0
   -1.2882    1.9537    0.3665 C   0  0  0  0  0  0  0  0  0  0  0  0
   -1.7572    0.6425    0.4659 C   0  0  0  0  0  0  0  0  0  0  0  0
   -1.4434   -1.4714    0.1461 H   0  0  0  0  0  0  0  0  0  0  0  0
    0.8524   -1.0952   -0.9201 H   0  0  0  0  0  0  0  0  0  0  0  0
    0.4240    3.1761   -0.2919 H   0  0  0  0  0  0  0  0  0  0  0  0
   -1.8699    2.7787    0.7709 H   0  0  0  0  0  0  0  0  0  0  0  0
   -3.0765    0.4158    1.1071 N   0  0  0  0  0  0  0  0  0  0  0  0
   -3.4680   -0.7418    1.1878 O   0  0  0  0  0  0  0  0  0  0  0  0
   -3.6834    1.4032    1.5029 O   0  0  0  0  0  0  0  0  0  0  0  0
    2.2215    1.3371   -1.5432 N   0  0  0  0  0  0  0  0  0  0  0  0
    3.1332    1.5154   -2.1344 N   0  0  0  0  0  0  0  0  0  0  0  0
    2.7304    0.9406    1.5320 B   0  0  0  0  0  0  0  0  0  0  0  0
    2.9177   -0.0658    0.5113 F   0  0  0  0  0  0  0  0  0  0  0  0
    1.4625    0.7270    2.1247 F   0  0  0  0  0  0  0  0  0  0  0  0
    3.7611    0.9103    2.4500 F   0  0  0  0  0  0  0  0  0  0  0  0
    2.6892    2.2108    0.8430 F   0  0  0  0  0  0  0  0  0  0  0  0
  1  7  1  0  0  0  0
  1  6  2  0  0  0  0
  2  1  1  0  0  0  0
  3  2  2  0  0  0  0
  3  4  1  0  0  0  0
  4  5  2  0  0  0  0
  5  6  1  0  0  0  0
  5 10  1  0  0  0  0
  6 11  1  0  0  0  0
  8  2  1  0  0  0  0
  9  4  1  0  0  0  0
 11 12  2  0  0  0  0
 11 13  2  0  0  0  0
 15 14  3  0  0  0  0
 16 18  1  0  0  0  0
 16 19  1  0  0  0  0
 17 16  1  0  0  0  0
 20 16  1  0  0  0  0
M  RAD  1   3   2
M  END
