Coordinates from ORCA-job p-NO2-Ph-N2-BF4-B3LYPG-aug-cc-pVDZ-scan-d09-49-n400
 OpenBabel10311713223D

 20 19  0  0  0  0  0  0  0  0999 V2000
   -0.9232   -0.4489   -0.0401 C   0  0  0  0  0  0  0  0  0  0  0  0
    0.2625   -0.2413   -0.7254 C   0  0  0  0  0  0  0  0  0  0  0  0
    0.7158    1.0890   -0.8909 C   0  0  0  0  0  0  0  0  0  0  0  0
    0.0192    2.2026   -0.3649 C   0  0  0  0  0  0  0  0  0  0  0  0
   -1.1643    1.9726    0.3171 C   0  0  0  0  0  0  0  0  0  0  0  0
   -1.6088    0.6579    0.4623 C   0  0  0  0  0  0  0  0  0  0  0  0
   -1.3086   -1.4502    0.1305 H   0  0  0  0  0  0  0  0  0  0  0  0
    0.8600   -1.0691   -1.0975 H   0  0  0  0  0  0  0  0  0  0  0  0
    0.4351    3.2012   -0.4672 H   0  0  0  0  0  0  0  0  0  0  0  0
   -1.7307    2.7893    0.7560 H   0  0  0  0  0  0  0  0  0  0  0  0
   -2.8795    0.4219    1.2042 N   0  0  0  0  0  0  0  0  0  0  0  0
   -3.2505   -0.7389    1.3192 O   0  0  0  0  0  0  0  0  0  0  0  0
   -3.4645    1.4068    1.6354 O   0  0  0  0  0  0  0  0  0  0  0  0
    1.8346    1.2877   -1.4823 N   0  0  0  0  0  0  0  0  0  0  0  0
    2.7985    1.4624   -2.0135 N   0  0  0  0  0  0  0  0  0  0  0  0
    2.5462    0.9110    1.6179 B   0  0  0  0  0  0  0  0  0  0  0  0
    2.8066   -0.0860    0.6071 F   0  0  0  0  0  0  0  0  0  0  0  0
    1.2279    0.7043    2.1035 F   0  0  0  0  0  0  0  0  0  0  0  0
    3.4934    0.8608    2.6208 F   0  0  0  0  0  0  0  0  0  0  0  0
    2.5735    2.1856    0.9410 F   0  0  0  0  0  0  0  0  0  0  0  0
  1  7  1  0  0  0  0
  1  6  2  0  0  0  0
  2  1  1  0  0  0  0
  3  2  2  0  0  0  0
  3  4  1  0  0  0  0
  4  5  2  0  0  0  0
  5  6  1  0  0  0  0
  5 10  1  0  0  0  0
  6 11  1  0  0  0  0
  8  2  1  0  0  0  0
  9  4  1  0  0  0  0
 11 12  2  0  0  0  0
 11 13  2  0  0  0  0
 14  3  1  0  0  0  0
 15 14  1  0  0  0  0
 16 18  1  0  0  0  0
 16 19  1  0  0  0  0
 17 16  1  0  0  0  0
 20 16  1  0  0  0  0
M  RAD  2  14   2  15   3
M  END
