Coordinates from ORCA-job p-NO2-Ph-N2-BF4-B3LYPG-aug-cc-pVDZ-scan-d09-49-n400
 OpenBabel10311713223D

 20 18  0  0  0  0  0  0  0  0999 V2000
   -1.3436   -0.6110    0.0891 C   0  0  0  0  0  0  0  0  0  0  0  0
    0.0504   -0.6335    0.0867 C   0  0  0  0  0  0  0  0  0  0  0  0
    0.7279    0.5516    0.3549 C   0  0  0  0  0  0  0  0  0  0  0  0
    0.0873    1.7569    0.6243 C   0  0  0  0  0  0  0  0  0  0  0  0
   -1.3069    1.7745    0.6269 C   0  0  0  0  0  0  0  0  0  0  0  0
   -2.0002    0.5918    0.3594 C   0  0  0  0  0  0  0  0  0  0  0  0
   -1.9239   -1.5073   -0.1139 H   0  0  0  0  0  0  0  0  0  0  0  0
    0.6063   -1.5458   -0.1199 H   0  0  0  0  0  0  0  0  0  0  0  0
    0.6704    2.6528    0.8263 H   0  0  0  0  0  0  0  0  0  0  0  0
   -1.8597    2.6878    0.8314 H   0  0  0  0  0  0  0  0  0  0  0  0
   -3.4743    0.6138    0.3609 N   0  0  0  0  0  0  0  0  0  0  0  0
   -4.0614   -0.4388    0.1217 O   0  0  0  0  0  0  0  0  0  0  0  0
   -4.0294    1.6832    0.6009 O   0  0  0  0  0  0  0  0  0  0  0  0
    1.8338    1.3299   -2.9672 N   0  0  0  0  0  0  0  0  0  0  0  0
    2.3143    1.3254   -3.9610 N   0  0  0  0  0  0  0  0  0  0  0  0
    3.7087    1.5818    2.1317 B   0  0  0  0  0  0  0  0  0  0  0  0
    2.0900    0.5285    0.3434 F   0  0  0  0  0  0  0  0  0  0  0  0
    3.1915    0.8159    3.0844 F   0  0  0  0  0  0  0  0  0  0  0  0
    4.7574    1.1670    1.4354 F   0  0  0  0  0  0  0  0  0  0  0  0
    3.2045    2.7943    1.9176 F   0  0  0  0  0  0  0  0  0  0  0  0
  1  6  1  0  0  0  0
  2  1  2  0  0  0  0
  2  3  1  0  0  0  0
  3  4  2  0  0  0  0
  4  5  1  0  0  0  0
  4  9  1  0  0  0  0
  5 10  1  0  0  0  0
  6 11  1  0  0  0  0
  6  5  2  0  0  0  0
  7  1  1  0  0  0  0
  8  2  1  0  0  0  0
 11 13  2  0  0  0  0
 12 11  2  0  0  0  0
 15 14  3  0  0  0  0
 16 18  1  0  0  0  0
 17  3  1  0  0  0  0
 19 16  1  0  0  0  0
 20 16  1  0  0  0  0
M  END
