Coordinates from ORCA-job p-NO2-Ph-N2-BF4-B3LYPG-aug-cc-pVDZ-scan-d09-49-n400
 OpenBabel10311713223D

 20 18  0  0  0  0  0  0  0  0999 V2000
   -1.2935   -0.5904   -0.0299 C   0  0  0  0  0  0  0  0  0  0  0  0
    0.1005   -0.6026   -0.0264 C   0  0  0  0  0  0  0  0  0  0  0  0
    0.7692    0.5786    0.2733 C   0  0  0  0  0  0  0  0  0  0  0  0
    0.1186    1.7643    0.5945 C   0  0  0  0  0  0  0  0  0  0  0  0
   -1.2752    1.7737    0.5915 C   0  0  0  0  0  0  0  0  0  0  0  0
   -1.9606    0.5979    0.2761 C   0  0  0  0  0  0  0  0  0  0  0  0
   -1.8660   -1.4847   -0.2620 H   0  0  0  0  0  0  0  0  0  0  0  0
    0.6632   -1.5045   -0.2590 H   0  0  0  0  0  0  0  0  0  0  0  0
    0.6936    2.6568    0.8327 H   0  0  0  0  0  0  0  0  0  0  0  0
   -1.8344    2.6746    0.8304 H   0  0  0  0  0  0  0  0  0  0  0  0
   -3.4339    0.6100    0.2715 N   0  0  0  0  0  0  0  0  0  0  0  0
   -4.0130   -0.4354   -0.0149 O   0  0  0  0  0  0  0  0  0  0  0  0
   -3.9975    1.6688    0.5384 O   0  0  0  0  0  0  0  0  0  0  0  0
    1.4354    1.2031   -2.2724 N   0  0  0  0  0  0  0  0  0  0  0  0
    1.9140    1.1924   -3.2675 N   0  0  0  0  0  0  0  0  0  0  0  0
    3.7663    1.6067    2.0558 B   0  0  0  0  0  0  0  0  0  0  0  0
    2.1299    0.5586    0.2935 F   0  0  0  0  0  0  0  0  0  0  0  0
    3.1418    0.9869    3.0501 F   0  0  0  0  0  0  0  0  0  0  0  0
    4.7921    1.0287    1.4469 F   0  0  0  0  0  0  0  0  0  0  0  0
    3.3928    2.8356    1.7106 F   0  0  0  0  0  0  0  0  0  0  0  0
  1  2  2  0  0  0  0
  1  6  1  0  0  0  0
  2  3  1  0  0  0  0
  3 17  1  0  0  0  0
  3  4  2  0  0  0  0
  4  9  1  0  0  0  0
  5  4  1  0  0  0  0
  5 10  1  0  0  0  0
  6  5  2  0  0  0  0
  7  1  1  0  0  0  0
  8  2  1  0  0  0  0
 11  6  1  0  0  0  0
 11 13  2  0  0  0  0
 12 11  2  0  0  0  0
 15 14  3  0  0  0  0
 16 18  1  0  0  0  0
 19 16  1  0  0  0  0
 20 16  1  0  0  0  0
M  END
