Coordinates from ORCA-job p-NO2-Ph-N2-BF4-B3LYPG-aug-cc-pVDZ-scan-d09-49-n400
 OpenBabel10311713223D

 20 19  0  0  0  0  0  0  0  0999 V2000
   -1.0375   -0.4654   -0.0037 C   0  0  0  0  0  0  0  0  0  0  0  0
    0.2062   -0.2730   -0.6135 C   0  0  0  0  0  0  0  0  0  0  0  0
    0.5746    1.0473   -0.6962 C   0  0  0  0  0  0  0  0  0  0  0  0
   -0.0409    2.1912   -0.2509 C   0  0  0  0  0  0  0  0  0  0  0  0
   -1.2804    1.9561    0.3524 C   0  0  0  0  0  0  0  0  0  0  0  0
   -1.7483    0.6451    0.4542 C   0  0  0  0  0  0  0  0  0  0  0  0
   -1.4408   -1.4655    0.1324 H   0  0  0  0  0  0  0  0  0  0  0  0
    0.8388   -1.0919   -0.9403 H   0  0  0  0  0  0  0  0  0  0  0  0
    0.4111    3.1759   -0.3122 H   0  0  0  0  0  0  0  0  0  0  0  0
   -1.8663    2.7775    0.7566 H   0  0  0  0  0  0  0  0  0  0  0  0
   -3.0679    0.4179    1.0991 N   0  0  0  0  0  0  0  0  0  0  0  0
   -3.4624   -0.7391    1.1749 O   0  0  0  0  0  0  0  0  0  0  0  0
   -3.6777    1.4054    1.4899 O   0  0  0  0  0  0  0  0  0  0  0  0
    2.0922    1.3094   -1.4440 N   0  0  0  0  0  0  0  0  0  0  0  0
    3.0059    1.4877   -2.0337 N   0  0  0  0  0  0  0  0  0  0  0  0
    2.7637    0.9434    1.5370 B   0  0  0  0  0  0  0  0  0  0  0  0
    2.9564   -0.0599    0.5111 F   0  0  0  0  0  0  0  0  0  0  0  0
    1.4959    0.7305    2.1228 F   0  0  0  0  0  0  0  0  0  0  0  0
    3.7931    0.9132    2.4551 F   0  0  0  0  0  0  0  0  0  0  0  0
    2.7277    2.2131    0.8422 F   0  0  0  0  0  0  0  0  0  0  0  0
  1  7  1  0  0  0  0
  1  6  2  0  0  0  0
  2  1  1  0  0  0  0
  3  2  2  0  0  0  0
  3  4  1  0  0  0  0
  4  5  2  0  0  0  0
  5  6  1  0  0  0  0
  5 10  1  0  0  0  0
  6 11  1  0  0  0  0
  8  2  1  0  0  0  0
  9  4  1  0  0  0  0
 11 12  2  0  0  0  0
 11 13  2  0  0  0  0
 14  3  1  0  0  0  0
 15 14  1  0  0  0  0
 16 18  1  0  0  0  0
 16 19  1  0  0  0  0
 17 16  1  0  0  0  0
 20 16  1  0  0  0  0
M  RAD  2  14   2  15   3
M  END
