Coordinates from ORCA-job p-NO2-Ph-N2-BF4-B3LYPG-aug-cc-pVDZ-scan-d09-49-n400
 OpenBabel10311713223D

 20 18  0  0  0  0  0  0  0  0999 V2000
   -1.3453   -0.6115    0.0922 C   0  0  0  0  0  0  0  0  0  0  0  0
    0.0486   -0.6338    0.0894 C   0  0  0  0  0  0  0  0  0  0  0  0
    0.7267    0.5518    0.3554 C   0  0  0  0  0  0  0  0  0  0  0  0
    0.0854    1.7571    0.6247 C   0  0  0  0  0  0  0  0  0  0  0  0
   -1.3088    1.7745    0.6277 C   0  0  0  0  0  0  0  0  0  0  0  0
   -2.0020    0.5916    0.3613 C   0  0  0  0  0  0  0  0  0  0  0  0
   -1.9255   -1.5081   -0.1095 H   0  0  0  0  0  0  0  0  0  0  0  0
    0.6042   -1.5467   -0.1158 H   0  0  0  0  0  0  0  0  0  0  0  0
    0.6682    2.6534    0.8266 H   0  0  0  0  0  0  0  0  0  0  0  0
   -1.8616    2.6878    0.8319 H   0  0  0  0  0  0  0  0  0  0  0  0
   -3.4761    0.6133    0.3633 N   0  0  0  0  0  0  0  0  0  0  0  0
   -4.0631   -0.4395    0.1254 O   0  0  0  0  0  0  0  0  0  0  0  0
   -4.0313    1.6829    0.6026 O   0  0  0  0  0  0  0  0  0  0  0  0
    1.8459    1.3332   -2.9831 N   0  0  0  0  0  0  0  0  0  0  0  0
    2.3281    1.3292   -3.9764 N   0  0  0  0  0  0  0  0  0  0  0  0
    3.7086    1.5808    2.1327 B   0  0  0  0  0  0  0  0  0  0  0  0
    2.0883    0.5287    0.3446 F   0  0  0  0  0  0  0  0  0  0  0  0
    3.1941    0.8122    3.0847 F   0  0  0  0  0  0  0  0  0  0  0  0
    4.7568    1.1689    1.4339 F   0  0  0  0  0  0  0  0  0  0  0  0
    3.2022    2.7930    1.9217 F   0  0  0  0  0  0  0  0  0  0  0  0
  1  6  1  0  0  0  0
  2  1  2  0  0  0  0
  2  3  1  0  0  0  0
  3  4  2  0  0  0  0
  4  5  1  0  0  0  0
  4  9  1  0  0  0  0
  5 10  1  0  0  0  0
  6 11  1  0  0  0  0
  6  5  2  0  0  0  0
  7  1  1  0  0  0  0
  8  2  1  0  0  0  0
 11 13  2  0  0  0  0
 12 11  2  0  0  0  0
 15 14  3  0  0  0  0
 16 18  1  0  0  0  0
 17  3  1  0  0  0  0
 19 16  1  0  0  0  0
 20 16  1  0  0  0  0
M  END
