Coordinates from ORCA-job p-NO2-Ph-N2-BF4-B3LYPG-aug-cc-pVDZ-scan-d09-49-n400
 OpenBabel10311713223D

 20 18  0  0  0  0  0  0  0  0999 V2000
   -1.3314   -0.6073    0.0656 C   0  0  0  0  0  0  0  0  0  0  0  0
    0.0626   -0.6302    0.0652 C   0  0  0  0  0  0  0  0  0  0  0  0
    0.7403    0.5528    0.3420 C   0  0  0  0  0  0  0  0  0  0  0  0
    0.0996    1.7563    0.6191 C   0  0  0  0  0  0  0  0  0  0  0  0
   -1.2946    1.7745    0.6196 C   0  0  0  0  0  0  0  0  0  0  0  0
   -1.9881    0.5940    0.3428 C   0  0  0  0  0  0  0  0  0  0  0  0
   -1.9117   -1.5020   -0.1442 H   0  0  0  0  0  0  0  0  0  0  0  0
    0.6184   -1.5415   -0.1465 H   0  0  0  0  0  0  0  0  0  0  0  0
    0.6826    2.6508    0.8281 H   0  0  0  0  0  0  0  0  0  0  0  0
   -1.8473    2.6866    0.8296 H   0  0  0  0  0  0  0  0  0  0  0  0
   -3.4621    0.6166    0.3421 N   0  0  0  0  0  0  0  0  0  0  0  0
   -4.0492   -0.4345    0.0966 O   0  0  0  0  0  0  0  0  0  0  0  0
   -4.0171    1.6842    0.5900 O   0  0  0  0  0  0  0  0  0  0  0  0
    1.7464    1.3055   -2.8456 N   0  0  0  0  0  0  0  0  0  0  0  0
    2.2162    1.2968   -3.8449 N   0  0  0  0  0  0  0  0  0  0  0  0
    3.7123    1.5888    2.1246 B   0  0  0  0  0  0  0  0  0  0  0  0
    2.1023    0.5288    0.3336 F   0  0  0  0  0  0  0  0  0  0  0  0
    3.1742    0.8435    3.0820 F   0  0  0  0  0  0  0  0  0  0  0  0
    4.7638    1.1508    1.4469 F   0  0  0  0  0  0  0  0  0  0  0  0
    3.2260    2.8043    1.8869 F   0  0  0  0  0  0  0  0  0  0  0  0
  1  6  1  0  0  0  0
  2  1  2  0  0  0  0
  2  3  1  0  0  0  0
  3  4  2  0  0  0  0
  4  5  1  0  0  0  0
  4  9  1  0  0  0  0
  5 10  1  0  0  0  0
  6  5  2  0  0  0  0
  7  1  1  0  0  0  0
  8  2  1  0  0  0  0
 11  6  1  0  0  0  0
 11 13  2  0  0  0  0
 12 11  2  0  0  0  0
 15 14  3  0  0  0  0
 16 18  1  0  0  0  0
 17  3  1  0  0  0  0
 19 16  1  0  0  0  0
 20 16  1  0  0  0  0
M  END
