Coordinates from ORCA-job p-NO2-Ph-N2-BF4-B3LYPG-aug-cc-pVDZ-scan-d09-49-n400
 OpenBabel10311713223D

 20 18  0  0  0  0  0  0  0  0999 V2000
   -1.3322   -0.6076    0.0675 C   0  0  0  0  0  0  0  0  0  0  0  0
    0.0617   -0.6303    0.0667 C   0  0  0  0  0  0  0  0  0  0  0  0
    0.7397    0.5530    0.3423 C   0  0  0  0  0  0  0  0  0  0  0  0
    0.0987    1.7564    0.6193 C   0  0  0  0  0  0  0  0  0  0  0  0
   -1.2955    1.7745    0.6202 C   0  0  0  0  0  0  0  0  0  0  0  0
   -1.9889    0.5938    0.3441 C   0  0  0  0  0  0  0  0  0  0  0  0
   -1.9125   -1.5025   -0.1414 H   0  0  0  0  0  0  0  0  0  0  0  0
    0.6172   -1.5420   -0.1441 H   0  0  0  0  0  0  0  0  0  0  0  0
    0.6814    2.6511    0.8282 H   0  0  0  0  0  0  0  0  0  0  0  0
   -1.8483    2.6865    0.8300 H   0  0  0  0  0  0  0  0  0  0  0  0
   -3.4629    0.6162    0.3438 N   0  0  0  0  0  0  0  0  0  0  0  0
   -4.0500   -0.4346    0.0973 O   0  0  0  0  0  0  0  0  0  0  0  0
   -4.0181    1.6843    0.5896 O   0  0  0  0  0  0  0  0  0  0  0  0
    1.7523    1.3072   -2.8537 N   0  0  0  0  0  0  0  0  0  0  0  0
    2.2229    1.2988   -3.8526 N   0  0  0  0  0  0  0  0  0  0  0  0
    3.7124    1.5883    2.1250 B   0  0  0  0  0  0  0  0  0  0  0  0
    2.1014    0.5291    0.3340 F   0  0  0  0  0  0  0  0  0  0  0  0
    3.1761    0.8410    3.0820 F   0  0  0  0  0  0  0  0  0  0  0  0
    4.7636    1.1523    1.4457 F   0  0  0  0  0  0  0  0  0  0  0  0
    3.2245    2.8035    1.8894 F   0  0  0  0  0  0  0  0  0  0  0  0
  1  6  1  0  0  0  0
  2  1  2  0  0  0  0
  2  3  1  0  0  0  0
  3  4  2  0  0  0  0
  4  5  1  0  0  0  0
  4  9  1  0  0  0  0
  5 10  1  0  0  0  0
  6  5  2  0  0  0  0
  7  1  1  0  0  0  0
  8  2  1  0  0  0  0
 11  6  1  0  0  0  0
 11 13  2  0  0  0  0
 12 11  2  0  0  0  0
 15 14  3  0  0  0  0
 16 18  1  0  0  0  0
 17  3  1  0  0  0  0
 19 16  1  0  0  0  0
 20 16  1  0  0  0  0
M  END
