Coordinates from ORCA-job p-NO2-Ph-N2-BF4-B3LYPG-aug-cc-pVDZ-scan-d09-49-n400
 OpenBabel10311713223D

 20 18  0  0  0  0  0  0  0  0999 V2000
   -1.3590   -0.6159    0.1172 C   0  0  0  0  0  0  0  0  0  0  0  0
    0.0350   -0.6382    0.1131 C   0  0  0  0  0  0  0  0  0  0  0  0
    0.7131    0.5494    0.3710 C   0  0  0  0  0  0  0  0  0  0  0  0
    0.0722    1.7567    0.6324 C   0  0  0  0  0  0  0  0  0  0  0  0
   -1.3221    1.7740    0.6365 C   0  0  0  0  0  0  0  0  0  0  0  0
   -2.0154    0.5890    0.3792 C   0  0  0  0  0  0  0  0  0  0  0  0
   -1.9395   -1.5138   -0.0782 H   0  0  0  0  0  0  0  0  0  0  0  0
    0.5906   -1.5522   -0.0872 H   0  0  0  0  0  0  0  0  0  0  0  0
    0.6553    2.6543    0.8273 H   0  0  0  0  0  0  0  0  0  0  0  0
   -1.8748    2.6886    0.8348 H   0  0  0  0  0  0  0  0  0  0  0  0
   -3.4895    0.6107    0.3826 N   0  0  0  0  0  0  0  0  0  0  0  0
   -4.0767   -0.4437    0.1522 O   0  0  0  0  0  0  0  0  0  0  0  0
   -4.0445    1.6819    0.6150 O   0  0  0  0  0  0  0  0  0  0  0  0
    1.9418    1.3607   -3.1183 N   0  0  0  0  0  0  0  0  0  0  0  0
    2.4344    1.3618   -4.1065 N   0  0  0  0  0  0  0  0  0  0  0  0
    3.7050    1.5744    2.1405 B   0  0  0  0  0  0  0  0  0  0  0  0
    2.0749    0.5267    0.3579 F   0  0  0  0  0  0  0  0  0  0  0  0
    3.2118    0.7874    3.0887 F   0  0  0  0  0  0  0  0  0  0  0  0
    4.7491    1.1842    1.4233 F   0  0  0  0  0  0  0  0  0  0  0  0
    3.1816    2.7830    1.9516 F   0  0  0  0  0  0  0  0  0  0  0  0
  1  6  1  0  0  0  0
  2  1  2  0  0  0  0
  2  3  1  0  0  0  0
  3  4  2  0  0  0  0
  4  5  1  0  0  0  0
  4  9  1  0  0  0  0
  5 10  1  0  0  0  0
  6 11  1  0  0  0  0
  6  5  2  0  0  0  0
  7  1  1  0  0  0  0
  8  2  1  0  0  0  0
 11 13  2  0  0  0  0
 12 11  2  0  0  0  0
 15 14  3  0  0  0  0
 16 18  1  0  0  0  0
 17  3  1  0  0  0  0
 19 16  1  0  0  0  0
 20 16  1  0  0  0  0
M  END
