Coordinates from ORCA-job p-NO2-Ph-N2-BF4-B3LYPG-aug-cc-pVDZ-scan-d09-49-n400
 OpenBabel10311713223D

 20 19  0  0  0  0  0  0  0  0999 V2000
   -1.0451   -0.4673    0.0025 C   0  0  0  0  0  0  0  0  0  0  0  0
    0.2043   -0.2792   -0.6047 C   0  0  0  0  0  0  0  0  0  0  0  0
    0.5457    1.0411   -0.6734 C   0  0  0  0  0  0  0  0  0  0  0  0
   -0.0438    2.1942   -0.2409 C   0  0  0  0  0  0  0  0  0  0  0  0
   -1.2881    1.9547    0.3586 C   0  0  0  0  0  0  0  0  0  0  0  0
   -1.7574    0.6437    0.4574 C   0  0  0  0  0  0  0  0  0  0  0  0
   -1.4471   -1.4684    0.1371 H   0  0  0  0  0  0  0  0  0  0  0  0
    0.8440   -1.0943   -0.9260 H   0  0  0  0  0  0  0  0  0  0  0  0
    0.4159    3.1752   -0.2978 H   0  0  0  0  0  0  0  0  0  0  0  0
   -1.8731    2.7778    0.7615 H   0  0  0  0  0  0  0  0  0  0  0  0
   -3.0789    0.4172    1.0963 N   0  0  0  0  0  0  0  0  0  0  0  0
   -3.4713   -0.7403    1.1760 O   0  0  0  0  0  0  0  0  0  0  0  0
   -3.6867    1.4044    1.4911 O   0  0  0  0  0  0  0  0  0  0  0  0
    2.1555    1.3212   -1.4801 N   0  0  0  0  0  0  0  0  0  0  0  0
    3.0627    1.5000   -2.0782 N   0  0  0  0  0  0  0  0  0  0  0  0
    2.7585    0.9434    1.5327 B   0  0  0  0  0  0  0  0  0  0  0  0
    2.9451   -0.0618    0.5085 F   0  0  0  0  0  0  0  0  0  0  0  0
    1.4936    0.7298    2.1269 F   0  0  0  0  0  0  0  0  0  0  0  0
    3.7929    0.9143    2.4458 F   0  0  0  0  0  0  0  0  0  0  0  0
    2.7166    2.2132    0.8399 F   0  0  0  0  0  0  0  0  0  0  0  0
  1  7  1  0  0  0  0
  1  6  2  0  0  0  0
  2  1  1  0  0  0  0
  3  2  2  0  0  0  0
  3  4  1  0  0  0  0
  4  5  2  0  0  0  0
  5  6  1  0  0  0  0
  5 10  1  0  0  0  0
  6 11  1  0  0  0  0
  8  2  1  0  0  0  0
  9  4  1  0  0  0  0
 11 12  2  0  0  0  0
 11 13  2  0  0  0  0
 14  3  1  0  0  0  0
 15 14  1  0  0  0  0
 16 18  1  0  0  0  0
 16 19  1  0  0  0  0
 17 16  1  0  0  0  0
 20 16  1  0  0  0  0
M  RAD  2  14   2  15   3
M  END
