Coordinates from ORCA-job p-NO2-Ph-N2-BF4-B3LYPG-aug-cc-pVDZ-scan-d09-49-n400
 OpenBabel10311713223D

 20 18  0  0  0  0  0  0  0  0999 V2000
   -1.2971   -0.5925   -0.0163 C   0  0  0  0  0  0  0  0  0  0  0  0
    0.0970   -0.6091   -0.0130 C   0  0  0  0  0  0  0  0  0  0  0  0
    0.7685    0.5702    0.2881 C   0  0  0  0  0  0  0  0  0  0  0  0
    0.1223    1.7611    0.5984 C   0  0  0  0  0  0  0  0  0  0  0  0
   -1.2717    1.7745    0.5955 C   0  0  0  0  0  0  0  0  0  0  0  0
   -1.9602    0.5989    0.2864 C   0  0  0  0  0  0  0  0  0  0  0  0
   -1.8726   -1.4852   -0.2472 H   0  0  0  0  0  0  0  0  0  0  0  0
    0.6576   -1.5125   -0.2444 H   0  0  0  0  0  0  0  0  0  0  0  0
    0.7013    2.6527    0.8298 H   0  0  0  0  0  0  0  0  0  0  0  0
   -1.8283    2.6786    0.8282 H   0  0  0  0  0  0  0  0  0  0  0  0
   -3.4338    0.6155    0.2817 N   0  0  0  0  0  0  0  0  0  0  0  0
   -4.0160   -0.4320    0.0100 O   0  0  0  0  0  0  0  0  0  0  0  0
   -3.9941    1.6742    0.5551 O   0  0  0  0  0  0  0  0  0  0  0  0
    1.4825    1.2205   -2.3771 N   0  0  0  0  0  0  0  0  0  0  0  0
    1.9437    1.1988   -3.3802 N   0  0  0  0  0  0  0  0  0  0  0  0
    3.7467    1.6063    2.0748 B   0  0  0  0  0  0  0  0  0  0  0  0
    2.1299    0.5481    0.2982 F   0  0  0  0  0  0  0  0  0  0  0  0
    3.1381    0.9548    3.0586 F   0  0  0  0  0  0  0  0  0  0  0  0
    4.7846    1.0633    1.4543 F   0  0  0  0  0  0  0  0  0  0  0  0
    3.3447    2.8325    1.7524 F   0  0  0  0  0  0  0  0  0  0  0  0
  1  2  2  0  0  0  0
  1  6  1  0  0  0  0
  2  3  1  0  0  0  0
  3 17  1  0  0  0  0
  3  4  2  0  0  0  0
  4  9  1  0  0  0  0
  5  4  1  0  0  0  0
  5 10  1  0  0  0  0
  6  5  2  0  0  0  0
  7  1  1  0  0  0  0
  8  2  1  0  0  0  0
 11  6  1  0  0  0  0
 11 13  2  0  0  0  0
 12 11  2  0  0  0  0
 15 14  3  0  0  0  0
 16 18  1  0  0  0  0
 19 16  1  0  0  0  0
 20 16  1  0  0  0  0
M  END
