Coordinates from ORCA-job p-NO2-Ph-N2-BF4-B3LYPG-aug-cc-pVDZ-scan-d09-49-n400
 OpenBabel10311713223D

 20 18  0  0  0  0  0  0  0  0999 V2000
   -1.4402   -0.6429    0.2559 C   0  0  0  0  0  0  0  0  0  0  0  0
   -0.0463   -0.6704    0.2458 C   0  0  0  0  0  0  0  0  0  0  0  0
    0.6369    0.5221    0.4639 C   0  0  0  0  0  0  0  0  0  0  0  0
    0.0017    1.7392    0.6908 C   0  0  0  0  0  0  0  0  0  0  0  0
   -1.3925    1.7618    0.7006 C   0  0  0  0  0  0  0  0  0  0  0  0
   -2.0910    0.5720    0.4833 C   0  0  0  0  0  0  0  0  0  0  0  0
   -2.0247   -1.5443    0.0910 H   0  0  0  0  0  0  0  0  0  0  0  0
    0.5056   -1.5920    0.0716 H   0  0  0  0  0  0  0  0  0  0  0  0
    0.5893    2.6398    0.8568 H   0  0  0  0  0  0  0  0  0  0  0  0
   -1.9410    2.6842    0.8730 H   0  0  0  0  0  0  0  0  0  0  0  0
   -3.5652    0.5992    0.4928 N   0  0  0  0  0  0  0  0  0  0  0  0
   -4.1571   -0.4598    0.2984 O   0  0  0  0  0  0  0  0  0  0  0  0
   -4.1152    1.6791    0.6945 O   0  0  0  0  0  0  0  0  0  0  0  0
    2.5012    1.5452   -3.9171 N   0  0  0  0  0  0  0  0  0  0  0  0
    3.0473    1.5499   -4.8770 N   0  0  0  0  0  0  0  0  0  0  0  0
    3.6768    1.5525    2.1807 B   0  0  0  0  0  0  0  0  0  0  0  0
    1.9988    0.4945    0.4447 F   0  0  0  0  0  0  0  0  0  0  0  0
    3.2794    0.7031    3.1199 F   0  0  0  0  0  0  0  0  0  0  0  0
    4.6958    1.2468    1.3901 F   0  0  0  0  0  0  0  0  0  0  0  0
    3.0837    2.7388    2.0735 F   0  0  0  0  0  0  0  0  0  0  0  0
  1  6  1  0  0  0  0
  2  1  2  0  0  0  0
  2  3  1  0  0  0  0
  3  4  2  0  0  0  0
  4  5  1  0  0  0  0
  4  9  1  0  0  0  0
  5 10  1  0  0  0  0
  6 11  1  0  0  0  0
  6  5  2  0  0  0  0
  7  1  1  0  0  0  0
  8  2  1  0  0  0  0
 11 13  2  0  0  0  0
 12 11  2  0  0  0  0
 15 14  3  0  0  0  0
 16 18  1  0  0  0  0
 17  3  1  0  0  0  0
 19 16  1  0  0  0  0
 20 16  1  0  0  0  0
M  END
