Coordinates from ORCA-job p-NO2-Ph-N2-BF4-B3LYPG-aug-cc-pVDZ-scan-d09-49-n400
 OpenBabel10311713223D

 20 18  0  0  0  0  0  0  0  0999 V2000
   -1.4105   -0.6326    0.2071 C   0  0  0  0  0  0  0  0  0  0  0  0
   -0.0165   -0.6578    0.2003 C   0  0  0  0  0  0  0  0  0  0  0  0
    0.6637    0.5340    0.4310 C   0  0  0  0  0  0  0  0  0  0  0  0
    0.0264    1.7484    0.6661 C   0  0  0  0  0  0  0  0  0  0  0  0
   -1.3679    1.7684    0.6726 C   0  0  0  0  0  0  0  0  0  0  0  0
   -2.0639    0.5792    0.4434 C   0  0  0  0  0  0  0  0  0  0  0  0
   -1.9931   -1.5334    0.0325 H   0  0  0  0  0  0  0  0  0  0  0  0
    0.5378   -1.5765    0.0186 H   0  0  0  0  0  0  0  0  0  0  0  0
    0.6122    2.6486    0.8399 H   0  0  0  0  0  0  0  0  0  0  0  0
   -1.9185    2.6884    0.8511 H   0  0  0  0  0  0  0  0  0  0  0  0
   -3.5381    0.6039    0.4493 N   0  0  0  0  0  0  0  0  0  0  0  0
   -4.1276   -0.4560    0.2529 O   0  0  0  0  0  0  0  0  0  0  0  0
   -4.0903    1.6794    0.6675 O   0  0  0  0  0  0  0  0  0  0  0  0
    2.2978    1.4752   -3.6317 N   0  0  0  0  0  0  0  0  0  0  0  0
    2.8263    1.4825   -4.6017 N   0  0  0  0  0  0  0  0  0  0  0  0
    3.6878    1.5568    2.1696 B   0  0  0  0  0  0  0  0  0  0  0  0
    2.0261    0.5090    0.4140 F   0  0  0  0  0  0  0  0  0  0  0  0
    3.2653    0.7176    3.1071 F   0  0  0  0  0  0  0  0  0  0  0  0
    4.7156    1.2346    1.3972 F   0  0  0  0  0  0  0  0  0  0  0  0
    3.1108    2.7494    2.0464 F   0  0  0  0  0  0  0  0  0  0  0  0
  1  6  1  0  0  0  0
  2  1  2  0  0  0  0
  2  3  1  0  0  0  0
  3  4  2  0  0  0  0
  4  5  1  0  0  0  0
  4  9  1  0  0  0  0
  5 10  1  0  0  0  0
  6 11  1  0  0  0  0
  6  5  2  0  0  0  0
  7  1  1  0  0  0  0
  8  2  1  0  0  0  0
 11 13  2  0  0  0  0
 12 11  2  0  0  0  0
 15 14  3  0  0  0  0
 16 18  1  0  0  0  0
 17  3  1  0  0  0  0
 19 16  1  0  0  0  0
 20 16  1  0  0  0  0
M  END
