Coordinates from ORCA-job p-NO2-Ph-N2-BF4-B3LYPG-aug-cc-pVDZ-scan-d09-49-n400
 OpenBabel10311713223D

 20 18  0  0  0  0  0  0  0  0999 V2000
   -1.4156   -0.6345    0.2172 C   0  0  0  0  0  0  0  0  0  0  0  0
   -0.0217   -0.6599    0.2090 C   0  0  0  0  0  0  0  0  0  0  0  0
    0.6593    0.5320    0.4366 C   0  0  0  0  0  0  0  0  0  0  0  0
    0.0221    1.7466    0.6708 C   0  0  0  0  0  0  0  0  0  0  0  0
   -1.3721    1.7670    0.6787 C   0  0  0  0  0  0  0  0  0  0  0  0
   -2.0686    0.5777    0.4521 C   0  0  0  0  0  0  0  0  0  0  0  0
   -1.9985   -1.5356    0.0451 H   0  0  0  0  0  0  0  0  0  0  0  0
    0.5320   -1.5793    0.0289 H   0  0  0  0  0  0  0  0  0  0  0  0
    0.6081    2.6469    0.8434 H   0  0  0  0  0  0  0  0  0  0  0  0
   -1.9224    2.6873    0.8566 H   0  0  0  0  0  0  0  0  0  0  0  0
   -3.5428    0.6026    0.4596 N   0  0  0  0  0  0  0  0  0  0  0  0
   -4.1328   -0.4559    0.2568 O   0  0  0  0  0  0  0  0  0  0  0  0
   -4.0947    1.6802    0.6679 O   0  0  0  0  0  0  0  0  0  0  0  0
    2.3338    1.4878   -3.6838 N   0  0  0  0  0  0  0  0  0  0  0  0
    2.8653    1.4948   -4.6517 N   0  0  0  0  0  0  0  0  0  0  0  0
    3.6855    1.5559    2.1713 B   0  0  0  0  0  0  0  0  0  0  0  0
    2.0213    0.5066    0.4189 F   0  0  0  0  0  0  0  0  0  0  0  0
    3.2680    0.7141    3.1086 F   0  0  0  0  0  0  0  0  0  0  0  0
    4.7119    1.2375    1.3953 F   0  0  0  0  0  0  0  0  0  0  0  0
    3.1052    2.7473    2.0518 F   0  0  0  0  0  0  0  0  0  0  0  0
  1  6  1  0  0  0  0
  2  1  2  0  0  0  0
  2  3  1  0  0  0  0
  3  4  2  0  0  0  0
  4  5  1  0  0  0  0
  4  9  1  0  0  0  0
  5 10  1  0  0  0  0
  6 11  1  0  0  0  0
  6  5  2  0  0  0  0
  7  1  1  0  0  0  0
  8  2  1  0  0  0  0
 11 13  2  0  0  0  0
 12 11  2  0  0  0  0
 15 14  3  0  0  0  0
 16 18  1  0  0  0  0
 17  3  1  0  0  0  0
 19 16  1  0  0  0  0
 20 16  1  0  0  0  0
M  END
