Coordinates from ORCA-job p-NO2-Ph-N2-BF4-B3LYPG-aug-cc-pVDZ-scan-d09-49-n400
 OpenBabel10311713223D

 20 18  0  0  0  0  0  0  0  0999 V2000
   -1.3329   -0.6079    0.0692 C   0  0  0  0  0  0  0  0  0  0  0  0
    0.0611   -0.6307    0.0682 C   0  0  0  0  0  0  0  0  0  0  0  0
    0.7388    0.5527    0.3437 C   0  0  0  0  0  0  0  0  0  0  0  0
    0.0981    1.7563    0.6200 C   0  0  0  0  0  0  0  0  0  0  0  0
   -1.2961    1.7744    0.6211 C   0  0  0  0  0  0  0  0  0  0  0  0
   -1.9896    0.5935    0.3457 C   0  0  0  0  0  0  0  0  0  0  0  0
   -1.9132   -1.5029   -0.1395 H   0  0  0  0  0  0  0  0  0  0  0  0
    0.6169   -1.5421   -0.1428 H   0  0  0  0  0  0  0  0  0  0  0  0
    0.6810    2.6511    0.8280 H   0  0  0  0  0  0  0  0  0  0  0  0
   -1.8488    2.6865    0.8306 H   0  0  0  0  0  0  0  0  0  0  0  0
   -3.4636    0.6159    0.3457 N   0  0  0  0  0  0  0  0  0  0  0  0
   -4.0507   -0.4345    0.0970 O   0  0  0  0  0  0  0  0  0  0  0  0
   -4.0186    1.6847    0.5886 O   0  0  0  0  0  0  0  0  0  0  0  0
    1.7567    1.3087   -2.8609 N   0  0  0  0  0  0  0  0  0  0  0  0
    2.2277    1.3005   -3.8597 N   0  0  0  0  0  0  0  0  0  0  0  0
    3.7122    1.5880    2.1253 B   0  0  0  0  0  0  0  0  0  0  0  0
    2.1007    0.5289    0.3347 F   0  0  0  0  0  0  0  0  0  0  0  0
    3.1770    0.8396    3.0821 F   0  0  0  0  0  0  0  0  0  0  0  0
    4.7633    1.1533    1.4449 F   0  0  0  0  0  0  0  0  0  0  0  0
    3.2233    2.8030    1.8910 F   0  0  0  0  0  0  0  0  0  0  0  0
  1  6  1  0  0  0  0
  2  1  2  0  0  0  0
  2  3  1  0  0  0  0
  3  4  2  0  0  0  0
  4  5  1  0  0  0  0
  4  9  1  0  0  0  0
  5 10  1  0  0  0  0
  6  5  2  0  0  0  0
  7  1  1  0  0  0  0
  8  2  1  0  0  0  0
 11  6  1  0  0  0  0
 11 13  2  0  0  0  0
 12 11  2  0  0  0  0
 15 14  3  0  0  0  0
 16 18  1  0  0  0  0
 17  3  1  0  0  0  0
 19 16  1  0  0  0  0
 20 16  1  0  0  0  0
M  END
