Coordinates from ORCA-job p-NO2-Ph-N2-BF4-B3LYPG-aug-cc-pVDZ-scan-d09-49-n400
 OpenBabel10311713223D

 20 18  0  0  0  0  0  0  0  0999 V2000
   -1.0400   -0.4698    0.0223 C   0  0  0  0  0  0  0  0  0  0  0  0
    0.2134   -0.2893   -0.5974 C   0  0  0  0  0  0  0  0  0  0  0  0
    0.4903    1.0305   -0.6386 C   0  0  0  0  0  0  0  0  0  0  0  0
   -0.0368    2.2036   -0.2310 C   0  0  0  0  0  0  0  0  0  0  0  0
   -1.2832    1.9525    0.3782 C   0  0  0  0  0  0  0  0  0  0  0  0
   -1.7513    0.6410    0.4803 C   0  0  0  0  0  0  0  0  0  0  0  0
   -1.4330   -1.4750    0.1591 H   0  0  0  0  0  0  0  0  0  0  0  0
    0.8651   -1.0955   -0.9158 H   0  0  0  0  0  0  0  0  0  0  0  0
    0.4363    3.1777   -0.2875 H   0  0  0  0  0  0  0  0  0  0  0  0
   -1.8601    2.7805    0.7846 H   0  0  0  0  0  0  0  0  0  0  0  0
   -3.0664    0.4139    1.1274 N   0  0  0  0  0  0  0  0  0  0  0  0
   -3.4547   -0.7444    1.2129 O   0  0  0  0  0  0  0  0  0  0  0  0
   -3.6701    1.4011    1.5280 O   0  0  0  0  0  0  0  0  0  0  0  0
    2.3102    1.3632   -1.6596 N   0  0  0  0  0  0  0  0  0  0  0  0
    3.2466    1.5384   -2.2134 N   0  0  0  0  0  0  0  0  0  0  0  0
    2.6752    0.9347    1.5341 B   0  0  0  0  0  0  0  0  0  0  0  0
    2.8644   -0.0722    0.5171 F   0  0  0  0  0  0  0  0  0  0  0  0
    1.4022    0.7211    2.1230 F   0  0  0  0  0  0  0  0  0  0  0  0
    3.6990    0.9023    2.4605 F   0  0  0  0  0  0  0  0  0  0  0  0
    2.6361    2.2047    0.8490 F   0  0  0  0  0  0  0  0  0  0  0  0
  1  7  1  0  0  0  0
  1  6  2  0  0  0  0
  2  1  1  0  0  0  0
  3  2  2  0  0  0  0
  3  4  1  0  0  0  0
  4  5  2  0  0  0  0
  5  6  1  0  0  0  0
  5 10  1  0  0  0  0
  6 11  1  0  0  0  0
  8  2  1  0  0  0  0
  9  4  1  0  0  0  0
 11 12  2  0  0  0  0
 11 13  2  0  0  0  0
 15 14  3  0  0  0  0
 16 18  1  0  0  0  0
 16 19  1  0  0  0  0
 17 16  1  0  0  0  0
 20 16  1  0  0  0  0
M  RAD  1   3   2
M  END
