Coordinates from ORCA-job p-NO2-Ph-N2-BF4-B3LYPG-aug-cc-pVDZ-scan-d09-49-n400
 OpenBabel10311713223D

 20 18  0  0  0  0  0  0  0  0999 V2000
   -1.3928   -0.6272    0.1794 C   0  0  0  0  0  0  0  0  0  0  0  0
    0.0012   -0.6509    0.1733 C   0  0  0  0  0  0  0  0  0  0  0  0
    0.6802    0.5399    0.4116 C   0  0  0  0  0  0  0  0  0  0  0  0
    0.0415    1.7520    0.6541 C   0  0  0  0  0  0  0  0  0  0  0  0
   -1.3528    1.7707    0.6600 C   0  0  0  0  0  0  0  0  0  0  0  0
   -2.0476    0.5824    0.4231 C   0  0  0  0  0  0  0  0  0  0  0  0
   -1.9744   -1.5275   -0.0010 H   0  0  0  0  0  0  0  0  0  0  0  0
    0.5563   -1.5679   -0.0139 H   0  0  0  0  0  0  0  0  0  0  0  0
    0.6263    2.6518    0.8336 H   0  0  0  0  0  0  0  0  0  0  0  0
   -1.9043    2.6891    0.8442 H   0  0  0  0  0  0  0  0  0  0  0  0
   -3.5218    0.6056    0.4286 N   0  0  0  0  0  0  0  0  0  0  0  0
   -4.1102   -0.4518    0.2159 O   0  0  0  0  0  0  0  0  0  0  0  0
   -4.0752    1.6810    0.6441 O   0  0  0  0  0  0  0  0  0  0  0  0
    2.1772    1.4357   -3.4621 N   0  0  0  0  0  0  0  0  0  0  0  0
    2.6930    1.4444   -4.4386 N   0  0  0  0  0  0  0  0  0  0  0  0
    3.6940    1.5610    2.1608 B   0  0  0  0  0  0  0  0  0  0  0  0
    2.0425    0.5161    0.3955 F   0  0  0  0  0  0  0  0  0  0  0  0
    3.2501    0.7354    3.1005 F   0  0  0  0  0  0  0  0  0  0  0  0
    4.7275    1.2198    1.4043 F   0  0  0  0  0  0  0  0  0  0  0  0
    3.1327    2.7591    2.0199 F   0  0  0  0  0  0  0  0  0  0  0  0
  1  6  1  0  0  0  0
  2  1  2  0  0  0  0
  2  3  1  0  0  0  0
  3  4  2  0  0  0  0
  4  5  1  0  0  0  0
  4  9  1  0  0  0  0
  5 10  1  0  0  0  0
  6 11  1  0  0  0  0
  6  5  2  0  0  0  0
  7  1  1  0  0  0  0
  8  2  1  0  0  0  0
 11 13  2  0  0  0  0
 12 11  2  0  0  0  0
 15 14  3  0  0  0  0
 16 18  1  0  0  0  0
 17  3  1  0  0  0  0
 19 16  1  0  0  0  0
 20 16  1  0  0  0  0
M  END
