Coordinates from ORCA-job p-NO2-Ph-N2-BF4-B3LYPG-aug-cc-pVDZ-scan-d09-49-n400
 OpenBabel10311713223D

 20 19  0  0  0  0  0  0  0  0999 V2000
   -0.9644   -0.4544   -0.0288 C   0  0  0  0  0  0  0  0  0  0  0  0
    0.2403   -0.2492   -0.6885 C   0  0  0  0  0  0  0  0  0  0  0  0
    0.6741    1.0760   -0.8277 C   0  0  0  0  0  0  0  0  0  0  0  0
   -0.0040    2.1960   -0.3283 C   0  0  0  0  0  0  0  0  0  0  0  0
   -1.2064    1.9669    0.3278 C   0  0  0  0  0  0  0  0  0  0  0  0
   -1.6583    0.6533    0.4599 C   0  0  0  0  0  0  0  0  0  0  0  0
   -1.3567   -1.4549    0.1307 H   0  0  0  0  0  0  0  0  0  0  0  0
    0.8478   -1.0760   -1.0457 H   0  0  0  0  0  0  0  0  0  0  0  0
    0.4217    3.1916   -0.4168 H   0  0  0  0  0  0  0  0  0  0  0  0
   -1.7802    2.7844    0.7551 H   0  0  0  0  0  0  0  0  0  0  0  0
   -2.9454    0.4198    1.1721 N   0  0  0  0  0  0  0  0  0  0  0  0
   -3.3306   -0.7387    1.2639 O   0  0  0  0  0  0  0  0  0  0  0  0
   -3.5451    1.4062    1.5797 O   0  0  0  0  0  0  0  0  0  0  0  0
    1.9005    1.2901   -1.4487 N   0  0  0  0  0  0  0  0  0  0  0  0
    2.8585    1.4649   -1.9845 N   0  0  0  0  0  0  0  0  0  0  0  0
    2.6345    0.9242    1.5843 B   0  0  0  0  0  0  0  0  0  0  0  0
    2.8798   -0.0733    0.5683 F   0  0  0  0  0  0  0  0  0  0  0  0
    1.3272    0.7167    2.0917 F   0  0  0  0  0  0  0  0  0  0  0  0
    3.6011    0.8785    2.5681 F   0  0  0  0  0  0  0  0  0  0  0  0
    2.6488    2.1969    0.9006 F   0  0  0  0  0  0  0  0  0  0  0  0
  1  7  1  0  0  0  0
  1  6  2  0  0  0  0
  2  1  1  0  0  0  0
  3  2  2  0  0  0  0
  3  4  1  0  0  0  0
  4  5  2  0  0  0  0
  5  6  1  0  0  0  0
  5 10  1  0  0  0  0
  6 11  1  0  0  0  0
  8  2  1  0  0  0  0
  9  4  1  0  0  0  0
 11 12  2  0  0  0  0
 11 13  2  0  0  0  0
 14  3  1  0  0  0  0
 15 14  1  0  0  0  0
 16 18  1  0  0  0  0
 16 19  1  0  0  0  0
 17 16  1  0  0  0  0
 20 16  1  0  0  0  0
M  RAD  2  14   2  15   3
M  END
