Coordinates from ORCA-job p-NO2-Ph-N2-BF4-B3LYPG-aug-cc-pVDZ-scan-d09-49-n400
 OpenBabel10311713223D

 20 18  0  0  0  0  0  0  0  0999 V2000
   -1.2984   -0.5935   -0.0120 C   0  0  0  0  0  0  0  0  0  0  0  0
    0.0956   -0.6111   -0.0091 C   0  0  0  0  0  0  0  0  0  0  0  0
    0.7688    0.5686    0.2903 C   0  0  0  0  0  0  0  0  0  0  0  0
    0.1224    1.7606    0.6000 C   0  0  0  0  0  0  0  0  0  0  0  0
   -1.2715    1.7744    0.5975 C   0  0  0  0  0  0  0  0  0  0  0  0
   -1.9606    0.5988    0.2897 C   0  0  0  0  0  0  0  0  0  0  0  0
   -1.8746   -1.4860   -0.2415 H   0  0  0  0  0  0  0  0  0  0  0  0
    0.6548   -1.5158   -0.2389 H   0  0  0  0  0  0  0  0  0  0  0  0
    0.7012    2.6523    0.8315 H   0  0  0  0  0  0  0  0  0  0  0  0
   -1.8278    2.6789    0.8294 H   0  0  0  0  0  0  0  0  0  0  0  0
   -3.4342    0.6161    0.2855 N   0  0  0  0  0  0  0  0  0  0  0  0
   -4.0171   -0.4305    0.0121 O   0  0  0  0  0  0  0  0  0  0  0  0
   -3.9939    1.6763    0.5549 O   0  0  0  0  0  0  0  0  0  0  0  0
    1.4947    1.2249   -2.4023 N   0  0  0  0  0  0  0  0  0  0  0  0
    1.9532    1.2020   -3.4065 N   0  0  0  0  0  0  0  0  0  0  0  0
    3.7434    1.6062    2.0781 B   0  0  0  0  0  0  0  0  0  0  0  0
    2.1297    0.5463    0.2990 F   0  0  0  0  0  0  0  0  0  0  0  0
    3.1392    0.9473    3.0595 F   0  0  0  0  0  0  0  0  0  0  0  0
    4.7835    1.0713    1.4546 F   0  0  0  0  0  0  0  0  0  0  0  0
    3.3346    2.8318    1.7613 F   0  0  0  0  0  0  0  0  0  0  0  0
  1  2  2  0  0  0  0
  1  6  1  0  0  0  0
  2  3  1  0  0  0  0
  3 17  1  0  0  0  0
  3  4  2  0  0  0  0
  4  9  1  0  0  0  0
  5  4  1  0  0  0  0
  5 10  1  0  0  0  0
  6  5  2  0  0  0  0
  7  1  1  0  0  0  0
  8  2  1  0  0  0  0
 11  6  1  0  0  0  0
 11 13  2  0  0  0  0
 12 11  2  0  0  0  0
 15 14  3  0  0  0  0
 16 18  1  0  0  0  0
 19 16  1  0  0  0  0
 20 16  1  0  0  0  0
M  END
