Coordinates from ORCA-job p-NO2-Ph-N2-BF4-B3LYPG-aug-cc-pVDZ-scan-d09-49-n400
 OpenBabel10311713223D

 20 18  0  0  0  0  0  0  0  0999 V2000
   -1.0389   -0.4722    0.0391 C   0  0  0  0  0  0  0  0  0  0  0  0
    0.2211   -0.2954   -0.5762 C   0  0  0  0  0  0  0  0  0  0  0  0
    0.4741    1.0235   -0.6030 C   0  0  0  0  0  0  0  0  0  0  0  0
   -0.0297    2.2046   -0.2089 C   0  0  0  0  0  0  0  0  0  0  0  0
   -1.2820    1.9501    0.3949 C   0  0  0  0  0  0  0  0  0  0  0  0
   -1.7511    0.6387    0.4960 C   0  0  0  0  0  0  0  0  0  0  0  0
   -1.4302   -1.4790    0.1720 H   0  0  0  0  0  0  0  0  0  0  0  0
    0.8774   -1.0984   -0.8930 H   0  0  0  0  0  0  0  0  0  0  0  0
    0.4486    3.1761   -0.2647 H   0  0  0  0  0  0  0  0  0  0  0  0
   -1.8578    2.7811    0.7979 H   0  0  0  0  0  0  0  0  0  0  0  0
   -3.0670    0.4121    1.1393 N   0  0  0  0  0  0  0  0  0  0  0  0
   -3.4641   -0.7444    1.2059 O   0  0  0  0  0  0  0  0  0  0  0  0
   -3.6796    1.4014    1.5210 O   0  0  0  0  0  0  0  0  0  0  0  0
    2.3859    1.3883   -1.7779 N   0  0  0  0  0  0  0  0  0  0  0  0
    3.3419    1.5611   -2.3008 N   0  0  0  0  0  0  0  0  0  0  0  0
    2.6404    0.9311    1.5350 B   0  0  0  0  0  0  0  0  0  0  0  0
    2.8179   -0.0754    0.5170 F   0  0  0  0  0  0  0  0  0  0  0  0
    1.3729    0.7159    2.1391 F   0  0  0  0  0  0  0  0  0  0  0  0
    3.6731    0.9007    2.4512 F   0  0  0  0  0  0  0  0  0  0  0  0
    2.5902    2.1990    0.8491 F   0  0  0  0  0  0  0  0  0  0  0  0
  1  7  1  0  0  0  0
  1  6  2  0  0  0  0
  2  1  1  0  0  0  0
  3  2  2  0  0  0  0
  3  4  1  0  0  0  0
  4  5  2  0  0  0  0
  5  6  1  0  0  0  0
  5 10  1  0  0  0  0
  6 11  1  0  0  0  0
  8  2  1  0  0  0  0
  9  4  1  0  0  0  0
 11 12  2  0  0  0  0
 11 13  2  0  0  0  0
 15 14  3  0  0  0  0
 16 18  1  0  0  0  0
 16 19  1  0  0  0  0
 17 16  1  0  0  0  0
 20 16  1  0  0  0  0
M  RAD  1   3   2
M  END
