Coordinates from ORCA-job p-NO2-Ph-N2-BF4-B3LYPG-aug-cc-pVDZ-scan-d09-49-n400
 OpenBabel10311713223D

 20 18  0  0  0  0  0  0  0  0999 V2000
   -1.2936   -0.5893   -0.0455 C   0  0  0  0  0  0  0  0  0  0  0  0
    0.1002   -0.5944   -0.0398 C   0  0  0  0  0  0  0  0  0  0  0  0
    0.7639    0.5929    0.2499 C   0  0  0  0  0  0  0  0  0  0  0  0
    0.1049    1.7718    0.5824 C   0  0  0  0  0  0  0  0  0  0  0  0
   -1.2885    1.7744    0.5772 C   0  0  0  0  0  0  0  0  0  0  0  0
   -1.9679    0.5960    0.2573 C   0  0  0  0  0  0  0  0  0  0  0  0
   -1.8611   -1.4877   -0.2743 H   0  0  0  0  0  0  0  0  0  0  0  0
    0.6657   -1.4959   -0.2669 H   0  0  0  0  0  0  0  0  0  0  0  0
    0.6742    2.6663    0.8265 H   0  0  0  0  0  0  0  0  0  0  0  0
   -1.8525    2.6712    0.8203 H   0  0  0  0  0  0  0  0  0  0  0  0
   -3.4408    0.6005    0.2504 N   0  0  0  0  0  0  0  0  0  0  0  0
   -4.0143   -0.4495   -0.0303 O   0  0  0  0  0  0  0  0  0  0  0  0
   -4.0104    1.6544    0.5243 O   0  0  0  0  0  0  0  0  0  0  0  0
    1.3861    1.1870   -2.1337 N   0  0  0  0  0  0  0  0  0  0  0  0
    1.9059    1.2102   -3.1079 N   0  0  0  0  0  0  0  0  0  0  0  0
    3.8050    1.6015    2.0281 B   0  0  0  0  0  0  0  0  0  0  0  0
    2.1233    0.5757    0.2934 F   0  0  0  0  0  0  0  0  0  0  0  0
    3.1591    1.0297    3.0370 F   0  0  0  0  0  0  0  0  0  0  0  0
    4.8098    0.9716    1.4357 F   0  0  0  0  0  0  0  0  0  0  0  0
    3.4742    2.8326    1.6492 F   0  0  0  0  0  0  0  0  0  0  0  0
  1  2  2  0  0  0  0
  1  6  1  0  0  0  0
  2  3  1  0  0  0  0
  3 17  1  0  0  0  0
  3  4  2  0  0  0  0
  4  9  1  0  0  0  0
  5  4  1  0  0  0  0
  5 10  1  0  0  0  0
  6  5  2  0  0  0  0
  7  1  1  0  0  0  0
  8  2  1  0  0  0  0
 11  6  1  0  0  0  0
 11 13  2  0  0  0  0
 12 11  2  0  0  0  0
 15 14  3  0  0  0  0
 16 18  1  0  0  0  0
 19 16  1  0  0  0  0
 20 16  1  0  0  0  0
M  END
