Coordinates from ORCA-job p-NO2-Ph-N2-BF4-B3LYPG-aug-cc-pVDZ-scan-d09-49-n400
 OpenBabel10311713223D

 20 18  0  0  0  0  0  0  0  0999 V2000
   -1.3907   -0.6263    0.1756 C   0  0  0  0  0  0  0  0  0  0  0  0
    0.0033   -0.6499    0.1694 C   0  0  0  0  0  0  0  0  0  0  0  0
    0.6825    0.5409    0.4083 C   0  0  0  0  0  0  0  0  0  0  0  0
    0.0432    1.7526    0.6522 C   0  0  0  0  0  0  0  0  0  0  0  0
   -1.3510    1.7711    0.6582 C   0  0  0  0  0  0  0  0  0  0  0  0
   -2.0456    0.5829    0.4202 C   0  0  0  0  0  0  0  0  0  0  0  0
   -1.9721   -1.5266   -0.0054 H   0  0  0  0  0  0  0  0  0  0  0  0
    0.5582   -1.5669   -0.0181 H   0  0  0  0  0  0  0  0  0  0  0  0
    0.6276    2.6523    0.8330 H   0  0  0  0  0  0  0  0  0  0  0  0
   -1.9027    2.6891    0.8434 H   0  0  0  0  0  0  0  0  0  0  0  0
   -3.5198    0.6059    0.4256 N   0  0  0  0  0  0  0  0  0  0  0  0
   -4.1082   -0.4515    0.2126 O   0  0  0  0  0  0  0  0  0  0  0  0
   -4.0735    1.6809    0.6427 O   0  0  0  0  0  0  0  0  0  0  0  0
    2.1630    1.4306   -3.4402 N   0  0  0  0  0  0  0  0  0  0  0  0
    2.6773    1.4394   -4.4174 N   0  0  0  0  0  0  0  0  0  0  0  0
    3.6948    1.5615    2.1595 B   0  0  0  0  0  0  0  0  0  0  0  0
    2.0445    0.5172    0.3928 F   0  0  0  0  0  0  0  0  0  0  0  0
    3.2481    0.7377    3.0993 F   0  0  0  0  0  0  0  0  0  0  0  0
    4.7289    1.2179    1.4050 F   0  0  0  0  0  0  0  0  0  0  0  0
    3.1354    2.7603    2.0163 F   0  0  0  0  0  0  0  0  0  0  0  0
  1  6  1  0  0  0  0
  2  1  2  0  0  0  0
  2  3  1  0  0  0  0
  3  4  2  0  0  0  0
  4  5  1  0  0  0  0
  4  9  1  0  0  0  0
  5 10  1  0  0  0  0
  6 11  1  0  0  0  0
  6  5  2  0  0  0  0
  7  1  1  0  0  0  0
  8  2  1  0  0  0  0
 11 13  2  0  0  0  0
 12 11  2  0  0  0  0
 15 14  3  0  0  0  0
 16 18  1  0  0  0  0
 17  3  1  0  0  0  0
 19 16  1  0  0  0  0
 20 16  1  0  0  0  0
M  END
