Coordinates from ORCA-job p-NO2-Ph-N2-BF4-B3LYPG-aug-cc-pVDZ-scan-d09-49-n400
 OpenBabel10311713223D

 20 18  0  0  0  0  0  0  0  0999 V2000
   -1.3850   -0.6243    0.1651 C   0  0  0  0  0  0  0  0  0  0  0  0
    0.0090   -0.6473    0.1591 C   0  0  0  0  0  0  0  0  0  0  0  0
    0.6879    0.5430    0.4009 C   0  0  0  0  0  0  0  0  0  0  0  0
    0.0481    1.7538    0.6481 C   0  0  0  0  0  0  0  0  0  0  0  0
   -1.3462    1.7718    0.6540 C   0  0  0  0  0  0  0  0  0  0  0  0
   -2.0404    0.5841    0.4127 C   0  0  0  0  0  0  0  0  0  0  0  0
   -1.9661   -1.5243   -0.0181 H   0  0  0  0  0  0  0  0  0  0  0  0
    0.5642   -1.5638   -0.0306 H   0  0  0  0  0  0  0  0  0  0  0  0
    0.6321    2.6532    0.8313 H   0  0  0  0  0  0  0  0  0  0  0  0
   -1.8981    2.6892    0.8416 H   0  0  0  0  0  0  0  0  0  0  0  0
   -3.5146    0.6065    0.4181 N   0  0  0  0  0  0  0  0  0  0  0  0
   -4.1025   -0.4505    0.2022 O   0  0  0  0  0  0  0  0  0  0  0  0
   -4.0686    1.6808    0.6379 O   0  0  0  0  0  0  0  0  0  0  0  0
    2.1239    1.4165   -3.3804 N   0  0  0  0  0  0  0  0  0  0  0  0
    2.6342    1.4255   -4.3597 N   0  0  0  0  0  0  0  0  0  0  0  0
    3.6969    1.5634    2.1558 B   0  0  0  0  0  0  0  0  0  0  0  0
    2.0498    0.5197    0.3859 F   0  0  0  0  0  0  0  0  0  0  0  0
    3.2424    0.7450    3.0966 F   0  0  0  0  0  0  0  0  0  0  0  0
    4.7329    1.2124    1.4072 F   0  0  0  0  0  0  0  0  0  0  0  0
    3.1435    2.7641    2.0056 F   0  0  0  0  0  0  0  0  0  0  0  0
  1  6  1  0  0  0  0
  2  1  2  0  0  0  0
  2  3  1  0  0  0  0
  3  4  2  0  0  0  0
  4  5  1  0  0  0  0
  4  9  1  0  0  0  0
  5 10  1  0  0  0  0
  6 11  1  0  0  0  0
  6  5  2  0  0  0  0
  7  1  1  0  0  0  0
  8  2  1  0  0  0  0
 11 13  2  0  0  0  0
 12 11  2  0  0  0  0
 15 14  3  0  0  0  0
 16 18  1  0  0  0  0
 17  3  1  0  0  0  0
 19 16  1  0  0  0  0
 20 16  1  0  0  0  0
M  END
