Coordinates from ORCA-job p-NO2-Ph-N2-BF4-B3LYPG-aug-cc-pVDZ-scan-d09-49-n400
 OpenBabel10311713223D

 20 18  0  0  0  0  0  0  0  0999 V2000
   -1.3598   -0.6161    0.1186 C   0  0  0  0  0  0  0  0  0  0  0  0
    0.0342   -0.6385    0.1145 C   0  0  0  0  0  0  0  0  0  0  0  0
    0.7123    0.5492    0.3719 C   0  0  0  0  0  0  0  0  0  0  0  0
    0.0715    1.7566    0.6328 C   0  0  0  0  0  0  0  0  0  0  0  0
   -1.3228    1.7739    0.6370 C   0  0  0  0  0  0  0  0  0  0  0  0
   -2.0161    0.5889    0.3801 C   0  0  0  0  0  0  0  0  0  0  0  0
   -1.9402   -1.5141   -0.0764 H   0  0  0  0  0  0  0  0  0  0  0  0
    0.5899   -1.5525   -0.0855 H   0  0  0  0  0  0  0  0  0  0  0  0
    0.6547    2.6543    0.8273 H   0  0  0  0  0  0  0  0  0  0  0  0
   -1.8755    2.6886    0.8350 H   0  0  0  0  0  0  0  0  0  0  0  0
   -3.4903    0.6106    0.3836 N   0  0  0  0  0  0  0  0  0  0  0  0
   -4.0774   -0.4439    0.1535 O   0  0  0  0  0  0  0  0  0  0  0  0
   -4.0452    1.6818    0.6156 O   0  0  0  0  0  0  0  0  0  0  0  0
    1.9470    1.3622   -3.1258 N   0  0  0  0  0  0  0  0  0  0  0  0
    2.4400    1.3636   -4.1137 N   0  0  0  0  0  0  0  0  0  0  0  0
    3.7048    1.5740    2.1409 B   0  0  0  0  0  0  0  0  0  0  0  0
    2.0742    0.5265    0.3588 F   0  0  0  0  0  0  0  0  0  0  0  0
    3.2128    0.7861    3.0890 F   0  0  0  0  0  0  0  0  0  0  0  0
    4.7487    1.1850    1.4228 F   0  0  0  0  0  0  0  0  0  0  0  0
    3.1805    2.7824    1.9532 F   0  0  0  0  0  0  0  0  0  0  0  0
  1  6  1  0  0  0  0
  2  1  2  0  0  0  0
  2  3  1  0  0  0  0
  3  4  2  0  0  0  0
  4  5  1  0  0  0  0
  4  9  1  0  0  0  0
  5 10  1  0  0  0  0
  6 11  1  0  0  0  0
  6  5  2  0  0  0  0
  7  1  1  0  0  0  0
  8  2  1  0  0  0  0
 11 13  2  0  0  0  0
 12 11  2  0  0  0  0
 15 14  3  0  0  0  0
 16 18  1  0  0  0  0
 17  3  1  0  0  0  0
 19 16  1  0  0  0  0
 20 16  1  0  0  0  0
M  END
