Coordinates from ORCA-job p-NO2-Ph-N2-BF4-B3LYPG-aug-cc-pVDZ-scan-d09-49-n400
 OpenBabel10311713223D

 20 18  0  0  0  0  0  0  0  0999 V2000
   -1.2946   -0.5910   -0.0265 C   0  0  0  0  0  0  0  0  0  0  0  0
    0.0993   -0.6051   -0.0232 C   0  0  0  0  0  0  0  0  0  0  0  0
    0.7702    0.5759    0.2762 C   0  0  0  0  0  0  0  0  0  0  0  0
    0.1203    1.7635    0.5951 C   0  0  0  0  0  0  0  0  0  0  0  0
   -1.2735    1.7744    0.5921 C   0  0  0  0  0  0  0  0  0  0  0  0
   -1.9600    0.5987    0.2784 C   0  0  0  0  0  0  0  0  0  0  0  0
   -1.8685   -1.4846   -0.2578 H   0  0  0  0  0  0  0  0  0  0  0  0
    0.6602   -1.5085   -0.2543 H   0  0  0  0  0  0  0  0  0  0  0  0
    0.6965    2.6556    0.8320 H   0  0  0  0  0  0  0  0  0  0  0  0
   -1.8319    2.6761    0.8293 H   0  0  0  0  0  0  0  0  0  0  0  0
   -3.4335    0.6126    0.2738 N   0  0  0  0  0  0  0  0  0  0  0  0
   -4.0139   -0.4345   -0.0036 O   0  0  0  0  0  0  0  0  0  0  0  0
   -3.9959    1.6703    0.5473 O   0  0  0  0  0  0  0  0  0  0  0  0
    1.4519    1.2087   -2.3060 N   0  0  0  0  0  0  0  0  0  0  0  0
    1.9240    1.1929   -3.3041 N   0  0  0  0  0  0  0  0  0  0  0  0
    3.7587    1.6069    2.0626 B   0  0  0  0  0  0  0  0  0  0  0  0
    2.1305    0.5552    0.2938 F   0  0  0  0  0  0  0  0  0  0  0  0
    3.1398    0.9752    3.0527 F   0  0  0  0  0  0  0  0  0  0  0  0
    4.7892    1.0417    1.4499 F   0  0  0  0  0  0  0  0  0  0  0  0
    3.3745    2.8350    1.7256 F   0  0  0  0  0  0  0  0  0  0  0  0
  1  2  2  0  0  0  0
  1  6  1  0  0  0  0
  2  3  1  0  0  0  0
  3 17  1  0  0  0  0
  3  4  2  0  0  0  0
  4  9  1  0  0  0  0
  5  4  1  0  0  0  0
  5 10  1  0  0  0  0
  6  5  2  0  0  0  0
  7  1  1  0  0  0  0
  8  2  1  0  0  0  0
 11  6  1  0  0  0  0
 11 13  2  0  0  0  0
 12 11  2  0  0  0  0
 15 14  3  0  0  0  0
 16 18  1  0  0  0  0
 19 16  1  0  0  0  0
 20 16  1  0  0  0  0
M  END
