Coordinates from ORCA-job p-NO2-Ph-N2-BF4-B3LYPG-aug-cc-pVDZ-scan-d09-49-n400
 OpenBabel10311713223D

 20 18  0  0  0  0  0  0  0  0999 V2000
   -1.3216   -0.6044    0.0463 C   0  0  0  0  0  0  0  0  0  0  0  0
    0.0723   -0.6275    0.0477 C   0  0  0  0  0  0  0  0  0  0  0  0
    0.7502    0.5538    0.3317 C   0  0  0  0  0  0  0  0  0  0  0  0
    0.1090    1.7552    0.6161 C   0  0  0  0  0  0  0  0  0  0  0  0
   -1.2851    1.7739    0.6148 C   0  0  0  0  0  0  0  0  0  0  0  0
   -1.9785    0.5954    0.3294 C   0  0  0  0  0  0  0  0  0  0  0  0
   -1.9017   -1.4979   -0.1692 H   0  0  0  0  0  0  0  0  0  0  0  0
    0.6278   -1.5380   -0.1679 H   0  0  0  0  0  0  0  0  0  0  0  0
    0.6915    2.6484    0.8319 H   0  0  0  0  0  0  0  0  0  0  0  0
   -1.8378    2.6847    0.8299 H   0  0  0  0  0  0  0  0  0  0  0  0
   -3.4524    0.6183    0.3266 N   0  0  0  0  0  0  0  0  0  0  0  0
   -4.0395   -0.4307    0.0722 O   0  0  0  0  0  0  0  0  0  0  0  0
   -4.0077    1.6850    0.5784 O   0  0  0  0  0  0  0  0  0  0  0  0
    1.6746    1.2863   -2.7460 N   0  0  0  0  0  0  0  0  0  0  0  0
    2.1345    1.2746   -3.7497 N   0  0  0  0  0  0  0  0  0  0  0  0
    3.7173    1.5952    2.1180 B   0  0  0  0  0  0  0  0  0  0  0  0
    2.1118    0.5290    0.3271 F   0  0  0  0  0  0  0  0  0  0  0  0
    3.1603    0.8709    3.0809 F   0  0  0  0  0  0  0  0  0  0  0  0
    4.7694    1.1338    1.4571 F   0  0  0  0  0  0  0  0  0  0  0  0
    3.2488    2.8130    1.8579 F   0  0  0  0  0  0  0  0  0  0  0  0
  1  2  2  0  0  0  0
  1  6  1  0  0  0  0
  2  3  1  0  0  0  0
  3  4  2  0  0  0  0
  4  9  1  0  0  0  0
  5  4  1  0  0  0  0
  5 10  1  0  0  0  0
  6  5  2  0  0  0  0
  7  1  1  0  0  0  0
  8  2  1  0  0  0  0
 11  6  1  0  0  0  0
 11 13  2  0  0  0  0
 12 11  2  0  0  0  0
 15 14  3  0  0  0  0
 16 18  1  0  0  0  0
 17  3  1  0  0  0  0
 19 16  1  0  0  0  0
 20 16  1  0  0  0  0
M  END
