Coordinates from ORCA-job p-NO2-Ph-N2-BF4-B3LYPG-aug-cc-pVDZ-scan-d09-49-n400
 OpenBabel10311713223D

 20 19  0  0  0  0  0  0  0  0999 V2000
   -1.0287   -0.4636   -0.0094 C   0  0  0  0  0  0  0  0  0  0  0  0
    0.2101   -0.2684   -0.6237 C   0  0  0  0  0  0  0  0  0  0  0  0
    0.5950    1.0522   -0.7165 C   0  0  0  0  0  0  0  0  0  0  0  0
   -0.0364    2.1905   -0.2619 C   0  0  0  0  0  0  0  0  0  0  0  0
   -1.2714    1.9577    0.3468 C   0  0  0  0  0  0  0  0  0  0  0  0
   -1.7377    0.6465    0.4518 C   0  0  0  0  0  0  0  0  0  0  0  0
   -1.4317   -1.4633    0.1289 H   0  0  0  0  0  0  0  0  0  0  0  0
    0.8377   -1.0896   -0.9550 H   0  0  0  0  0  0  0  0  0  0  0  0
    0.4102    3.1775   -0.3268 H   0  0  0  0  0  0  0  0  0  0  0  0
   -1.8569    2.7782    0.7529 H   0  0  0  0  0  0  0  0  0  0  0  0
   -3.0547    0.4186    1.1032 N   0  0  0  0  0  0  0  0  0  0  0  0
   -3.4451   -0.7391    1.1872 O   0  0  0  0  0  0  0  0  0  0  0  0
   -3.6603    1.4054    1.5024 O   0  0  0  0  0  0  0  0  0  0  0  0
    2.0514    1.3035   -1.4316 N   0  0  0  0  0  0  0  0  0  0  0  0
    2.9723    1.4808   -2.0104 N   0  0  0  0  0  0  0  0  0  0  0  0
    2.7540    0.9416    1.5428 B   0  0  0  0  0  0  0  0  0  0  0  0
    2.9547   -0.0603    0.5172 F   0  0  0  0  0  0  0  0  0  0  0  0
    1.4804    0.7298    2.1167 F   0  0  0  0  0  0  0  0  0  0  0  0
    3.7745    0.9093    2.4704 F   0  0  0  0  0  0  0  0  0  0  0  0
    2.7260    2.2116    0.8482 F   0  0  0  0  0  0  0  0  0  0  0  0
  1  7  1  0  0  0  0
  1  6  2  0  0  0  0
  2  1  1  0  0  0  0
  3  2  2  0  0  0  0
  3  4  1  0  0  0  0
  4  5  2  0  0  0  0
  5  6  1  0  0  0  0
  5 10  1  0  0  0  0
  6 11  1  0  0  0  0
  8  2  1  0  0  0  0
  9  4  1  0  0  0  0
 11 12  2  0  0  0  0
 11 13  2  0  0  0  0
 14  3  1  0  0  0  0
 15 14  1  0  0  0  0
 16 18  1  0  0  0  0
 16 19  1  0  0  0  0
 17 16  1  0  0  0  0
 20 16  1  0  0  0  0
M  RAD  2  14   2  15   3
M  END
