Coordinates from ORCA-job p-NO2-Ph-N2-BF4-B3LYPG-aug-cc-pVDZ-scan-d09-49-n400
 OpenBabel10311713223D

 20 18  0  0  0  0  0  0  0  0999 V2000
   -1.3042   -0.5968    0.0058 C   0  0  0  0  0  0  0  0  0  0  0  0
    0.0898   -0.6170    0.0085 C   0  0  0  0  0  0  0  0  0  0  0  0
    0.7644    0.5618    0.3061 C   0  0  0  0  0  0  0  0  0  0  0  0
    0.1214    1.7575    0.6061 C   0  0  0  0  0  0  0  0  0  0  0  0
   -1.2727    1.7740    0.6036 C   0  0  0  0  0  0  0  0  0  0  0  0
   -1.9640    0.5980    0.3026 C   0  0  0  0  0  0  0  0  0  0  0  0
   -1.8822   -1.4889   -0.2209 H   0  0  0  0  0  0  0  0  0  0  0  0
    0.6480   -1.5230   -0.2186 H   0  0  0  0  0  0  0  0  0  0  0  0
    0.7026    2.6491    0.8317 H   0  0  0  0  0  0  0  0  0  0  0  0
   -1.8271    2.6810    0.8298 H   0  0  0  0  0  0  0  0  0  0  0  0
   -3.4377    0.6182    0.2985 N   0  0  0  0  0  0  0  0  0  0  0  0
   -4.0226   -0.4285    0.0300 O   0  0  0  0  0  0  0  0  0  0  0  0
   -3.9952    1.6808    0.5625 O   0  0  0  0  0  0  0  0  0  0  0  0
    1.5462    1.2441   -2.5143 N   0  0  0  0  0  0  0  0  0  0  0  0
    1.9989    1.2219   -3.5211 N   0  0  0  0  0  0  0  0  0  0  0  0
    3.7312    1.6041    2.0934 B   0  0  0  0  0  0  0  0  0  0  0  0
    2.1260    0.5381    0.3077 F   0  0  0  0  0  0  0  0  0  0  0  0
    3.1403    0.9229    3.0677 F   0  0  0  0  0  0  0  0  0  0  0  0
    4.7781    1.0946    1.4600 F   0  0  0  0  0  0  0  0  0  0  0  0
    3.3020    2.8271    1.7941 F   0  0  0  0  0  0  0  0  0  0  0  0
  1  2  2  0  0  0  0
  1  6  1  0  0  0  0
  2  3  1  0  0  0  0
  3 17  1  0  0  0  0
  3  4  2  0  0  0  0
  4  9  1  0  0  0  0
  5  4  1  0  0  0  0
  5 10  1  0  0  0  0
  6  5  2  0  0  0  0
  7  1  1  0  0  0  0
  8  2  1  0  0  0  0
 11  6  1  0  0  0  0
 11 13  2  0  0  0  0
 12 11  2  0  0  0  0
 15 14  3  0  0  0  0
 16 18  1  0  0  0  0
 19 16  1  0  0  0  0
 20 16  1  0  0  0  0
M  END
