Coordinates from ORCA-job p-NO2-Ph-N2-BF4-B3LYPG-aug-cc-pVDZ-scan-d09-49-n400
 OpenBabel10311713223D

 20 19  0  0  0  0  0  0  0  0999 V2000
   -0.8415   -0.4402   -0.0457 C   0  0  0  0  0  0  0  0  0  0  0  0
    0.3144   -0.2335   -0.7636 C   0  0  0  0  0  0  0  0  0  0  0  0
    0.8114    1.1126   -0.9921 C   0  0  0  0  0  0  0  0  0  0  0  0
    0.0726    2.2150   -0.4007 C   0  0  0  0  0  0  0  0  0  0  0  0
   -1.0810    1.9812    0.3130 C   0  0  0  0  0  0  0  0  0  0  0  0
   -1.5178    0.6653    0.4734 C   0  0  0  0  0  0  0  0  0  0  0  0
   -1.2161   -1.4435    0.1389 H   0  0  0  0  0  0  0  0  0  0  0  0
    0.9030   -1.0566   -1.1622 H   0  0  0  0  0  0  0  0  0  0  0  0
    0.4809    3.2147   -0.5292 H   0  0  0  0  0  0  0  0  0  0  0  0
   -1.6355    2.7981    0.7672 H   0  0  0  0  0  0  0  0  0  0  0  0
   -2.7695    0.4268    1.2470 N   0  0  0  0  0  0  0  0  0  0  0  0
   -3.1360   -0.7346    1.3648 O   0  0  0  0  0  0  0  0  0  0  0  0
   -3.3499    1.4127    1.6807 O   0  0  0  0  0  0  0  0  0  0  0  0
    1.6787    1.2772   -1.5234 N   0  0  0  0  0  0  0  0  0  0  0  0
    2.6358    1.4593   -2.1130 N   0  0  0  0  0  0  0  0  0  0  0  0
    2.3986    0.8893    1.6732 B   0  0  0  0  0  0  0  0  0  0  0  0
    2.6608   -0.1109    0.6683 F   0  0  0  0  0  0  0  0  0  0  0  0
    1.0735    0.6819    2.1494 F   0  0  0  0  0  0  0  0  0  0  0  0
    3.3360    0.8379    2.6839 F   0  0  0  0  0  0  0  0  0  0  0  0
    2.4249    2.1663    1.0035 F   0  0  0  0  0  0  0  0  0  0  0  0
  1  7  1  0  0  0  0
  1  6  2  0  0  0  0
  2  1  1  0  0  0  0
  3  2  2  0  0  0  0
  3  4  1  0  0  0  0
  4  5  2  0  0  0  0
  5  6  1  0  0  0  0
  5 10  1  0  0  0  0
  6 11  1  0  0  0  0
  8  2  1  0  0  0  0
  9  4  1  0  0  0  0
 11 12  2  0  0  0  0
 11 13  2  0  0  0  0
 14  3  1  0  0  0  0
 15 14  1  0  0  0  0
 16 18  1  0  0  0  0
 16 19  1  0  0  0  0
 17 16  1  0  0  0  0
 20 16  1  0  0  0  0
M  RAD  2  14   2  15   3
M  END
