Coordinates from ORCA-job p-NO2-Ph-N2-BF4-B3LYPG-aug-cc-pVDZ-scan-d09-49-n400
 OpenBabel10311713223D

 20 18  0  0  0  0  0  0  0  0999 V2000
   -1.0389   -0.4701    0.0252 C   0  0  0  0  0  0  0  0  0  0  0  0
    0.2152   -0.2903   -0.5949 C   0  0  0  0  0  0  0  0  0  0  0  0
    0.4868    1.0293   -0.6334 C   0  0  0  0  0  0  0  0  0  0  0  0
   -0.0351    2.2041   -0.2283 C   0  0  0  0  0  0  0  0  0  0  0  0
   -1.2821    1.9521    0.3811 C   0  0  0  0  0  0  0  0  0  0  0  0
   -1.7501    0.6407    0.4834 C   0  0  0  0  0  0  0  0  0  0  0  0
   -1.4312   -1.4757    0.1619 H   0  0  0  0  0  0  0  0  0  0  0  0
    0.8677   -1.0958   -0.9133 H   0  0  0  0  0  0  0  0  0  0  0  0
    0.4389    3.1778   -0.2849 H   0  0  0  0  0  0  0  0  0  0  0  0
   -1.8584    2.7807    0.7874 H   0  0  0  0  0  0  0  0  0  0  0  0
   -3.0648    0.4135    1.1309 N   0  0  0  0  0  0  0  0  0  0  0  0
   -3.4544   -0.7445    1.2136 O   0  0  0  0  0  0  0  0  0  0  0  0
   -3.6699    1.4011    1.5287 O   0  0  0  0  0  0  0  0  0  0  0  0
    2.3245    1.3680   -1.6828 N   0  0  0  0  0  0  0  0  0  0  0  0
    3.2648    1.5427   -2.2296 N   0  0  0  0  0  0  0  0  0  0  0  0
    2.6663    0.9337    1.5348 B   0  0  0  0  0  0  0  0  0  0  0  0
    2.8541   -0.0731    0.5178 F   0  0  0  0  0  0  0  0  0  0  0  0
    1.3934    0.7199    2.1252 F   0  0  0  0  0  0  0  0  0  0  0  0
    3.6906    0.9014    2.4605 F   0  0  0  0  0  0  0  0  0  0  0  0
    2.6259    2.2034    0.8498 F   0  0  0  0  0  0  0  0  0  0  0  0
  1  7  1  0  0  0  0
  1  6  2  0  0  0  0
  2  1  1  0  0  0  0
  3  2  2  0  0  0  0
  3  4  1  0  0  0  0
  4  5  2  0  0  0  0
  5  6  1  0  0  0  0
  5 10  1  0  0  0  0
  6 11  1  0  0  0  0
  8  2  1  0  0  0  0
  9  4  1  0  0  0  0
 11 12  2  0  0  0  0
 11 13  2  0  0  0  0
 15 14  3  0  0  0  0
 16 18  1  0  0  0  0
 16 19  1  0  0  0  0
 17 16  1  0  0  0  0
 20 16  1  0  0  0  0
M  RAD  1   3   2
M  END
