Coordinates from ORCA-job p-NO2-Ph-N2-BF4-B3LYPG-aug-cc-pVDZ-scan-d09-49-n400
 OpenBabel10311713223D

 20 18  0  0  0  0  0  0  0  0999 V2000
   -1.4111   -0.6331    0.2097 C   0  0  0  0  0  0  0  0  0  0  0  0
   -0.0171   -0.6581    0.2023 C   0  0  0  0  0  0  0  0  0  0  0  0
    0.6631    0.5335    0.4324 C   0  0  0  0  0  0  0  0  0  0  0  0
    0.0259    1.7478    0.6676 C   0  0  0  0  0  0  0  0  0  0  0  0
   -1.3684    1.7679    0.6747 C   0  0  0  0  0  0  0  0  0  0  0  0
   -2.0644    0.5787    0.4461 C   0  0  0  0  0  0  0  0  0  0  0  0
   -1.9937   -1.5339    0.0355 H   0  0  0  0  0  0  0  0  0  0  0  0
    0.5371   -1.5767    0.0205 H   0  0  0  0  0  0  0  0  0  0  0  0
    0.6118    2.6480    0.8410 H   0  0  0  0  0  0  0  0  0  0  0  0
   -1.9189    2.6879    0.8533 H   0  0  0  0  0  0  0  0  0  0  0  0
   -3.5386    0.6033    0.4527 N   0  0  0  0  0  0  0  0  0  0  0  0
   -4.1283   -0.4551    0.2482 O   0  0  0  0  0  0  0  0  0  0  0  0
   -4.0909    1.6804    0.6624 O   0  0  0  0  0  0  0  0  0  0  0  0
    2.3015    1.4771   -3.6390 N   0  0  0  0  0  0  0  0  0  0  0  0
    2.8299    1.4844   -4.6083 N   0  0  0  0  0  0  0  0  0  0  0  0
    3.6879    1.5568    2.1693 B   0  0  0  0  0  0  0  0  0  0  0  0
    2.0254    0.5086    0.4148 F   0  0  0  0  0  0  0  0  0  0  0  0
    3.2665    0.7172    3.1070 F   0  0  0  0  0  0  0  0  0  0  0  0
    4.7153    1.2351    1.3961 F   0  0  0  0  0  0  0  0  0  0  0  0
    3.1104    2.7492    2.0469 F   0  0  0  0  0  0  0  0  0  0  0  0
  1  6  1  0  0  0  0
  2  1  2  0  0  0  0
  2  3  1  0  0  0  0
  3  4  2  0  0  0  0
  4  5  1  0  0  0  0
  4  9  1  0  0  0  0
  5 10  1  0  0  0  0
  6 11  1  0  0  0  0
  6  5  2  0  0  0  0
  7  1  1  0  0  0  0
  8  2  1  0  0  0  0
 11 13  2  0  0  0  0
 12 11  2  0  0  0  0
 15 14  3  0  0  0  0
 16 18  1  0  0  0  0
 17  3  1  0  0  0  0
 19 16  1  0  0  0  0
 20 16  1  0  0  0  0
M  END
