Coordinates from ORCA-job p-NO2-Ph-N2-BF4-B3LYPG-aug-cc-pVDZ-scan-d09-49-n400
 OpenBabel10311713223D

 20 18  0  0  0  0  0  0  0  0999 V2000
   -1.2940   -0.5892   -0.0462 C   0  0  0  0  0  0  0  0  0  0  0  0
    0.1000   -0.5934   -0.0403 C   0  0  0  0  0  0  0  0  0  0  0  0
    0.7620    0.5941    0.2489 C   0  0  0  0  0  0  0  0  0  0  0  0
    0.1031    1.7721    0.5818 C   0  0  0  0  0  0  0  0  0  0  0  0
   -1.2903    1.7741    0.5765 C   0  0  0  0  0  0  0  0  0  0  0  0
   -1.9692    0.5955    0.2565 C   0  0  0  0  0  0  0  0  0  0  0  0
   -1.8607   -1.4881   -0.2747 H   0  0  0  0  0  0  0  0  0  0  0  0
    0.6661   -1.4945   -0.2672 H   0  0  0  0  0  0  0  0  0  0  0  0
    0.6718    2.6670    0.8263 H   0  0  0  0  0  0  0  0  0  0  0  0
   -1.8547    2.6705    0.8201 H   0  0  0  0  0  0  0  0  0  0  0  0
   -3.4420    0.5990    0.2495 N   0  0  0  0  0  0  0  0  0  0  0  0
   -4.0149   -0.4509   -0.0332 O   0  0  0  0  0  0  0  0  0  0  0  0
   -4.0123    1.6530    0.5215 O   0  0  0  0  0  0  0  0  0  0  0  0
    1.3822    1.1856   -2.1252 N   0  0  0  0  0  0  0  0  0  0  0  0
    1.9063    1.2139   -3.0969 N   0  0  0  0  0  0  0  0  0  0  0  0
    3.8100    1.6010    2.0260 B   0  0  0  0  0  0  0  0  0  0  0  0
    2.1221    0.5770    0.2942 F   0  0  0  0  0  0  0  0  0  0  0  0
    3.1607    1.0351    3.0365 F   0  0  0  0  0  0  0  0  0  0  0  0
    4.8128    0.9652    1.4364 F   0  0  0  0  0  0  0  0  0  0  0  0
    3.4845    2.8319    1.6426 F   0  0  0  0  0  0  0  0  0  0  0  0
  1  2  2  0  0  0  0
  1  6  1  0  0  0  0
  2  3  1  0  0  0  0
  3 17  1  0  0  0  0
  3  4  2  0  0  0  0
  4  9  1  0  0  0  0
  5  4  1  0  0  0  0
  5 10  1  0  0  0  0
  6  5  2  0  0  0  0
  7  1  1  0  0  0  0
  8  2  1  0  0  0  0
 11  6  1  0  0  0  0
 11 13  2  0  0  0  0
 12 11  2  0  0  0  0
 15 14  3  0  0  0  0
 16 18  1  0  0  0  0
 19 16  1  0  0  0  0
 20 16  1  0  0  0  0
M  END
