Coordinates from ORCA-job p-NO2-Ph-N2-BF4-B3LYPG-aug-cc-pVDZ-scan-d09-49-n400
 OpenBabel10311713223D

 20 18  0  0  0  0  0  0  0  0999 V2000
   -1.3798   -0.6226    0.1557 C   0  0  0  0  0  0  0  0  0  0  0  0
    0.0142   -0.6454    0.1499 C   0  0  0  0  0  0  0  0  0  0  0  0
    0.6924    0.5443    0.3954 C   0  0  0  0  0  0  0  0  0  0  0  0
    0.0528    1.7545    0.6452 C   0  0  0  0  0  0  0  0  0  0  0  0
   -1.3414    1.7723    0.6510 C   0  0  0  0  0  0  0  0  0  0  0  0
   -2.0355    0.5850    0.4067 C   0  0  0  0  0  0  0  0  0  0  0  0
   -1.9608   -1.5222   -0.0302 H   0  0  0  0  0  0  0  0  0  0  0  0
    0.5698   -1.5610   -0.0427 H   0  0  0  0  0  0  0  0  0  0  0  0
    0.6369    2.6535    0.8302 H   0  0  0  0  0  0  0  0  0  0  0  0
   -1.8936    2.6891    0.8407 H   0  0  0  0  0  0  0  0  0  0  0  0
   -3.5096    0.6072    0.4119 N   0  0  0  0  0  0  0  0  0  0  0  0
   -4.0974   -0.4491    0.1917 O   0  0  0  0  0  0  0  0  0  0  0  0
   -4.0639    1.6811    0.6331 O   0  0  0  0  0  0  0  0  0  0  0  0
    2.0885    1.4041   -3.3274 N   0  0  0  0  0  0  0  0  0  0  0  0
    2.5949    1.4132   -4.3089 N   0  0  0  0  0  0  0  0  0  0  0  0
    3.6982    1.5656    2.1523 B   0  0  0  0  0  0  0  0  0  0  0  0
    2.0547    0.5214    0.3797 F   0  0  0  0  0  0  0  0  0  0  0  0
    3.2358    0.7532    3.0945 F   0  0  0  0  0  0  0  0  0  0  0  0
    4.7361    1.2069    1.4099 F   0  0  0  0  0  0  0  0  0  0  0  0
    3.1508    2.7680    1.9946 F   0  0  0  0  0  0  0  0  0  0  0  0
  1  6  1  0  0  0  0
  2  1  2  0  0  0  0
  2  3  1  0  0  0  0
  3  4  2  0  0  0  0
  4  5  1  0  0  0  0
  4  9  1  0  0  0  0
  5 10  1  0  0  0  0
  6 11  1  0  0  0  0
  6  5  2  0  0  0  0
  7  1  1  0  0  0  0
  8  2  1  0  0  0  0
 11 13  2  0  0  0  0
 12 11  2  0  0  0  0
 15 14  3  0  0  0  0
 16 18  1  0  0  0  0
 17  3  1  0  0  0  0
 19 16  1  0  0  0  0
 20 16  1  0  0  0  0
M  END
