Coordinates from ORCA-job p-NO2-Ph-N2-BF4-B3LYPG-aug-cc-pVDZ-scan-d09-49-n400
 OpenBabel10311713223D

 20 18  0  0  0  0  0  0  0  0999 V2000
   -1.3285   -0.6072    0.0624 C   0  0  0  0  0  0  0  0  0  0  0  0
    0.0655   -0.6299    0.0615 C   0  0  0  0  0  0  0  0  0  0  0  0
    0.7433    0.5530    0.3402 C   0  0  0  0  0  0  0  0  0  0  0  0
    0.1023    1.7559    0.6199 C   0  0  0  0  0  0  0  0  0  0  0  0
   -1.2920    1.7738    0.6208 C   0  0  0  0  0  0  0  0  0  0  0  0
   -1.9852    0.5935    0.3422 C   0  0  0  0  0  0  0  0  0  0  0  0
   -1.9087   -1.5017   -0.1488 H   0  0  0  0  0  0  0  0  0  0  0  0
    0.6213   -1.5409   -0.1519 H   0  0  0  0  0  0  0  0  0  0  0  0
    0.6851    2.6505    0.8303 H   0  0  0  0  0  0  0  0  0  0  0  0
   -1.8448    2.6853    0.8326 H   0  0  0  0  0  0  0  0  0  0  0  0
   -3.4592    0.6157    0.3423 N   0  0  0  0  0  0  0  0  0  0  0  0
   -4.0460   -0.4309    0.0778 O   0  0  0  0  0  0  0  0  0  0  0  0
   -4.0142    1.6868    0.5750 O   0  0  0  0  0  0  0  0  0  0  0  0
    1.7221    1.2999   -2.8142 N   0  0  0  0  0  0  0  0  0  0  0  0
    2.1886    1.2904   -3.8158 N   0  0  0  0  0  0  0  0  0  0  0  0
    3.7154    1.5909    2.1212 B   0  0  0  0  0  0  0  0  0  0  0  0
    2.1051    0.5292    0.3317 F   0  0  0  0  0  0  0  0  0  0  0  0
    3.1736    0.8505    3.0806 F   0  0  0  0  0  0  0  0  0  0  0  0
    4.7666    1.1473    1.4468 F   0  0  0  0  0  0  0  0  0  0  0  0
    3.2330    2.8068    1.8785 F   0  0  0  0  0  0  0  0  0  0  0  0
  1  6  1  0  0  0  0
  2  1  2  0  0  0  0
  2  3  1  0  0  0  0
  3  4  2  0  0  0  0
  4  5  1  0  0  0  0
  4  9  1  0  0  0  0
  5 10  1  0  0  0  0
  6 11  1  0  0  0  0
  6  5  2  0  0  0  0
  7  1  1  0  0  0  0
  8  2  1  0  0  0  0
 11 13  2  0  0  0  0
 12 11  2  0  0  0  0
 15 14  3  0  0  0  0
 16 18  1  0  0  0  0
 17  3  1  0  0  0  0
 19 16  1  0  0  0  0
 20 16  1  0  0  0  0
M  END
