Coordinates from ORCA-job p-NO2-Ph-N2-BF4-B3LYPG-aug-cc-pVDZ-scan-d09-49-n400
 OpenBabel10311713223D

 20 18  0  0  0  0  0  0  0  0999 V2000
   -1.2938   -0.5905   -0.0300 C   0  0  0  0  0  0  0  0  0  0  0  0
    0.1001   -0.6034   -0.0262 C   0  0  0  0  0  0  0  0  0  0  0  0
    0.7697    0.5780    0.2735 C   0  0  0  0  0  0  0  0  0  0  0  0
    0.1191    1.7645    0.5941 C   0  0  0  0  0  0  0  0  0  0  0  0
   -1.2747    1.7743    0.5907 C   0  0  0  0  0  0  0  0  0  0  0  0
   -1.9603    0.5985    0.2756 C   0  0  0  0  0  0  0  0  0  0  0  0
   -1.8669   -1.4844   -0.2620 H   0  0  0  0  0  0  0  0  0  0  0  0
    0.6621   -1.5059   -0.2582 H   0  0  0  0  0  0  0  0  0  0  0  0
    0.6945    2.6568    0.8320 H   0  0  0  0  0  0  0  0  0  0  0  0
   -1.8337    2.6755    0.8289 H   0  0  0  0  0  0  0  0  0  0  0  0
   -3.4337    0.6112    0.2705 N   0  0  0  0  0  0  0  0  0  0  0  0
   -4.0133   -0.4360   -0.0081 O   0  0  0  0  0  0  0  0  0  0  0  0
   -3.9970    1.6683    0.5445 O   0  0  0  0  0  0  0  0  0  0  0  0
    1.4406    1.2044   -2.2811 N   0  0  0  0  0  0  0  0  0  0  0  0
    1.9176    1.1920   -3.2770 N   0  0  0  0  0  0  0  0  0  0  0  0
    3.7638    1.6067    2.0581 B   0  0  0  0  0  0  0  0  0  0  0  0
    2.1302    0.5577    0.2935 F   0  0  0  0  0  0  0  0  0  0  0  0
    3.1407    0.9835    3.0510 F   0  0  0  0  0  0  0  0  0  0  0  0
    4.7911    1.0323    1.4484 F   0  0  0  0  0  0  0  0  0  0  0  0
    3.3874    2.8355    1.7151 F   0  0  0  0  0  0  0  0  0  0  0  0
  1  2  2  0  0  0  0
  1  6  1  0  0  0  0
  2  3  1  0  0  0  0
  3 17  1  0  0  0  0
  3  4  2  0  0  0  0
  4  9  1  0  0  0  0
  5  4  1  0  0  0  0
  5 10  1  0  0  0  0
  6  5  2  0  0  0  0
  7  1  1  0  0  0  0
  8  2  1  0  0  0  0
 11  6  1  0  0  0  0
 11 13  2  0  0  0  0
 12 11  2  0  0  0  0
 15 14  3  0  0  0  0
 16 18  1  0  0  0  0
 19 16  1  0  0  0  0
 20 16  1  0  0  0  0
M  END
