Coordinates from ORCA-job p-NO2-Ph-N2-BF4-B3LYPG-aug-cc-pVDZ-scan-d09-49-n400
 OpenBabel10311713223D

 20 18  0  0  0  0  0  0  0  0999 V2000
   -1.3338   -0.6080    0.0703 C   0  0  0  0  0  0  0  0  0  0  0  0
    0.0602   -0.6307    0.0693 C   0  0  0  0  0  0  0  0  0  0  0  0
    0.7382    0.5529    0.3437 C   0  0  0  0  0  0  0  0  0  0  0  0
    0.0971    1.7566    0.6197 C   0  0  0  0  0  0  0  0  0  0  0  0
   -1.2971    1.7746    0.6208 C   0  0  0  0  0  0  0  0  0  0  0  0
   -1.9905    0.5936    0.3459 C   0  0  0  0  0  0  0  0  0  0  0  0
   -1.9140   -1.5032   -0.1377 H   0  0  0  0  0  0  0  0  0  0  0  0
    0.6157   -1.5425   -0.1408 H   0  0  0  0  0  0  0  0  0  0  0  0
    0.6798    2.6515    0.8277 H   0  0  0  0  0  0  0  0  0  0  0  0
   -1.8498    2.6868    0.8299 H   0  0  0  0  0  0  0  0  0  0  0  0
   -3.4645    0.6159    0.3459 N   0  0  0  0  0  0  0  0  0  0  0  0
   -4.0516   -0.4354    0.1014 O   0  0  0  0  0  0  0  0  0  0  0  0
   -4.0196    1.6840    0.5917 O   0  0  0  0  0  0  0  0  0  0  0  0
    1.7634    1.3103   -2.8690 N   0  0  0  0  0  0  0  0  0  0  0  0
    2.2355    1.3023   -3.8673 N   0  0  0  0  0  0  0  0  0  0  0  0
    3.7119    1.5873    2.1260 B   0  0  0  0  0  0  0  0  0  0  0  0
    2.0998    0.5291    0.3352 F   0  0  0  0  0  0  0  0  0  0  0  0
    3.1783    0.8372    3.0823 F   0  0  0  0  0  0  0  0  0  0  0  0
    4.7628    1.1545    1.4443 F   0  0  0  0  0  0  0  0  0  0  0  0
    3.2216    2.8022    1.8937 F   0  0  0  0  0  0  0  0  0  0  0  0
  1  6  1  0  0  0  0
  2  1  2  0  0  0  0
  2  3  1  0  0  0  0
  3  4  2  0  0  0  0
  4  5  1  0  0  0  0
  4  9  1  0  0  0  0
  5 10  1  0  0  0  0
  6  5  2  0  0  0  0
  7  1  1  0  0  0  0
  8  2  1  0  0  0  0
 11  6  1  0  0  0  0
 11 13  2  0  0  0  0
 12 11  2  0  0  0  0
 15 14  3  0  0  0  0
 16 18  1  0  0  0  0
 17  3  1  0  0  0  0
 19 16  1  0  0  0  0
 20 16  1  0  0  0  0
M  END
