Coordinates from ORCA-job p-NO2-Ph-N2-BF4-B3LYPG-aug-cc-pVDZ-scan-d09-49-n400
 OpenBabel10311713223D

 20 19  0  0  0  0  0  0  0  0999 V2000
   -0.8490   -0.4407   -0.0475 C   0  0  0  0  0  0  0  0  0  0  0  0
    0.3090   -0.2334   -0.7639 C   0  0  0  0  0  0  0  0  0  0  0  0
    0.8005    1.1104   -0.9847 C   0  0  0  0  0  0  0  0  0  0  0  0
    0.0671    2.2140   -0.4013 C   0  0  0  0  0  0  0  0  0  0  0  0
   -1.0887    1.9808    0.3111 C   0  0  0  0  0  0  0  0  0  0  0  0
   -1.5255    0.6649    0.4708 C   0  0  0  0  0  0  0  0  0  0  0  0
   -1.2243   -1.4438    0.1365 H   0  0  0  0  0  0  0  0  0  0  0  0
    0.8972   -1.0578   -1.1599 H   0  0  0  0  0  0  0  0  0  0  0  0
    0.4748    3.2142   -0.5270 H   0  0  0  0  0  0  0  0  0  0  0  0
   -1.6439    2.7975    0.7646 H   0  0  0  0  0  0  0  0  0  0  0  0
   -2.7779    0.4265    1.2437 N   0  0  0  0  0  0  0  0  0  0  0  0
   -3.1406   -0.7355    1.3679 O   0  0  0  0  0  0  0  0  0  0  0  0
   -3.3542    1.4117    1.6843 O   0  0  0  0  0  0  0  0  0  0  0  0
    1.6969    1.2793   -1.5254 N   0  0  0  0  0  0  0  0  0  0  0  0
    2.6541    1.4602   -2.1062 N   0  0  0  0  0  0  0  0  0  0  0  0
    2.4089    0.8905    1.6716 B   0  0  0  0  0  0  0  0  0  0  0  0
    2.6727   -0.1090    0.6665 F   0  0  0  0  0  0  0  0  0  0  0  0
    1.0837    0.6832    2.1471 F   0  0  0  0  0  0  0  0  0  0  0  0
    3.3457    0.8388    2.6833 F   0  0  0  0  0  0  0  0  0  0  0  0
    2.4369    2.1671    1.0016 F   0  0  0  0  0  0  0  0  0  0  0  0
  1  7  1  0  0  0  0
  1  6  2  0  0  0  0
  2  1  1  0  0  0  0
  3  2  2  0  0  0  0
  3  4  1  0  0  0  0
  4  5  2  0  0  0  0
  5  6  1  0  0  0  0
  5 10  1  0  0  0  0
  6 11  1  0  0  0  0
  8  2  1  0  0  0  0
  9  4  1  0  0  0  0
 11 12  2  0  0  0  0
 11 13  2  0  0  0  0
 14  3  1  0  0  0  0
 15 14  1  0  0  0  0
 16 18  1  0  0  0  0
 16 19  1  0  0  0  0
 17 16  1  0  0  0  0
 20 16  1  0  0  0  0
M  RAD  2  14   2  15   3
M  END
