Coordinates from ORCA-job p-NO2-Ph-N2-BF4-B3LYPG-aug-cc-pVDZ-scan-d09-49-n400
 OpenBabel10311713223D

 20 19  0  0  0  0  0  0  0  0999 V2000
   -0.8362   -0.4396   -0.0467 C   0  0  0  0  0  0  0  0  0  0  0  0
    0.3189   -0.2342   -0.7640 C   0  0  0  0  0  0  0  0  0  0  0  0
    0.8234    1.1149   -0.9997 C   0  0  0  0  0  0  0  0  0  0  0  0
    0.0770    2.2166   -0.4005 C   0  0  0  0  0  0  0  0  0  0  0  0
   -1.0756    1.9819    0.3122 C   0  0  0  0  0  0  0  0  0  0  0  0
   -1.5129    0.6659    0.4723 C   0  0  0  0  0  0  0  0  0  0  0  0
   -1.2109   -1.4429    0.1378 H   0  0  0  0  0  0  0  0  0  0  0  0
    0.9085   -1.0559   -1.1642 H   0  0  0  0  0  0  0  0  0  0  0  0
    0.4866    3.2155   -0.5309 H   0  0  0  0  0  0  0  0  0  0  0  0
   -1.6302    2.7988    0.7663 H   0  0  0  0  0  0  0  0  0  0  0  0
   -2.7654    0.4276    1.2444 N   0  0  0  0  0  0  0  0  0  0  0  0
   -3.1265   -0.7346    1.3705 O   0  0  0  0  0  0  0  0  0  0  0  0
   -3.3409    1.4131    1.6856 O   0  0  0  0  0  0  0  0  0  0  0  0
    1.6631    1.2749   -1.5191 N   0  0  0  0  0  0  0  0  0  0  0  0
    2.6207    1.4580   -2.1140 N   0  0  0  0  0  0  0  0  0  0  0  0
    2.3891    0.8882    1.6742 B   0  0  0  0  0  0  0  0  0  0  0  0
    2.6509   -0.1126    0.6696 F   0  0  0  0  0  0  0  0  0  0  0  0
    1.0633    0.6810    2.1493 F   0  0  0  0  0  0  0  0  0  0  0  0
    3.3256    0.8367    2.6852 F   0  0  0  0  0  0  0  0  0  0  0  0
    2.4148    2.1656    1.0049 F   0  0  0  0  0  0  0  0  0  0  0  0
  1  7  1  0  0  0  0
  1  6  2  0  0  0  0
  2  1  1  0  0  0  0
  3  2  2  0  0  0  0
  3  4  1  0  0  0  0
  4  5  2  0  0  0  0
  5  6  1  0  0  0  0
  5 10  1  0  0  0  0
  6 11  1  0  0  0  0
  8  2  1  0  0  0  0
  9  4  1  0  0  0  0
 11 12  2  0  0  0  0
 11 13  2  0  0  0  0
 14  3  1  0  0  0  0
 15 14  1  0  0  0  0
 16 18  1  0  0  0  0
 16 19  1  0  0  0  0
 17 16  1  0  0  0  0
 20 16  1  0  0  0  0
M  RAD  2  14   2  15   3
M  END
