Coordinates from ORCA-job p-NO2-Ph-N2-BF4-B3LYPG-aug-cc-pVDZ-scan-d09-49-n400
 OpenBabel10311713223D

 20 18  0  0  0  0  0  0  0  0999 V2000
   -1.2960   -0.5918   -0.0202 C   0  0  0  0  0  0  0  0  0  0  0  0
    0.0980   -0.6071   -0.0173 C   0  0  0  0  0  0  0  0  0  0  0  0
    0.7692    0.5728    0.2824 C   0  0  0  0  0  0  0  0  0  0  0  0
    0.1215    1.7621    0.5966 C   0  0  0  0  0  0  0  0  0  0  0  0
   -1.2724    1.7744    0.5941 C   0  0  0  0  0  0  0  0  0  0  0  0
   -1.9602    0.5989    0.2833 C   0  0  0  0  0  0  0  0  0  0  0  0
   -1.8708   -1.4850   -0.2507 H   0  0  0  0  0  0  0  0  0  0  0  0
    0.6585   -1.5108   -0.2481 H   0  0  0  0  0  0  0  0  0  0  0  0
    0.6992    2.6539    0.8306 H   0  0  0  0  0  0  0  0  0  0  0  0
   -1.8297    2.6775    0.8290 H   0  0  0  0  0  0  0  0  0  0  0  0
   -3.4337    0.6142    0.2791 N   0  0  0  0  0  0  0  0  0  0  0  0
   -4.0152   -0.4324    0.0023 O   0  0  0  0  0  0  0  0  0  0  0  0
   -3.9949    1.6732    0.5497 O   0  0  0  0  0  0  0  0  0  0  0  0
    1.4696    1.2155   -2.3457 N   0  0  0  0  0  0  0  0  0  0  0  0
    1.9341    1.1947   -3.3473 N   0  0  0  0  0  0  0  0  0  0  0  0
    3.7522    1.6066    2.0697 B   0  0  0  0  0  0  0  0  0  0  0  0
    2.1301    0.5512    0.2958 F   0  0  0  0  0  0  0  0  0  0  0  0
    3.1412    0.9609    3.0559 F   0  0  0  0  0  0  0  0  0  0  0  0
    4.7873    1.0568    1.4506 F   0  0  0  0  0  0  0  0  0  0  0  0
    3.3554    2.8334    1.7433 F   0  0  0  0  0  0  0  0  0  0  0  0
  1  2  2  0  0  0  0
  1  6  1  0  0  0  0
  2  3  1  0  0  0  0
  3 17  1  0  0  0  0
  3  4  2  0  0  0  0
  4  9  1  0  0  0  0
  5  4  1  0  0  0  0
  5 10  1  0  0  0  0
  6  5  2  0  0  0  0
  7  1  1  0  0  0  0
  8  2  1  0  0  0  0
 11  6  1  0  0  0  0
 11 13  2  0  0  0  0
 12 11  2  0  0  0  0
 15 14  3  0  0  0  0
 16 18  1  0  0  0  0
 19 16  1  0  0  0  0
 20 16  1  0  0  0  0
M  END
