Coordinates from ORCA-job p-NO2-Ph-N2-BF4-B3LYPG-aug-cc-pVDZ-scan-d09-49-n400
 OpenBabel10311713223D

 20 18  0  0  0  0  0  0  0  0999 V2000
   -1.2945   -0.5891   -0.0483 C   0  0  0  0  0  0  0  0  0  0  0  0
    0.0993   -0.5925   -0.0423 C   0  0  0  0  0  0  0  0  0  0  0  0
    0.7616    0.5959    0.2450 C   0  0  0  0  0  0  0  0  0  0  0  0
    0.1011    1.7731    0.5802 C   0  0  0  0  0  0  0  0  0  0  0  0
   -1.2921    1.7743    0.5748 C   0  0  0  0  0  0  0  0  0  0  0  0
   -1.9704    0.5954    0.2541 C   0  0  0  0  0  0  0  0  0  0  0  0
   -1.8608   -1.4884   -0.2763 H   0  0  0  0  0  0  0  0  0  0  0  0
    0.6658   -1.4935   -0.2687 H   0  0  0  0  0  0  0  0  0  0  0  0
    0.6696    2.6679    0.8255 H   0  0  0  0  0  0  0  0  0  0  0  0
   -1.8571    2.6702    0.8191 H   0  0  0  0  0  0  0  0  0  0  0  0
   -3.4431    0.5983    0.2470 N   0  0  0  0  0  0  0  0  0  0  0  0
   -4.0155   -0.4525   -0.0337 O   0  0  0  0  0  0  0  0  0  0  0  0
   -4.0141    1.6514    0.5211 O   0  0  0  0  0  0  0  0  0  0  0  0
    1.3781    1.1830   -2.1099 N   0  0  0  0  0  0  0  0  0  0  0  0
    1.9067    1.2142   -3.0791 N   0  0  0  0  0  0  0  0  0  0  0  0
    3.8149    1.6008    2.0236 B   0  0  0  0  0  0  0  0  0  0  0  0
    2.1210    0.5791    0.2937 F   0  0  0  0  0  0  0  0  0  0  0  0
    3.1645    1.0383    3.0349 F   0  0  0  0  0  0  0  0  0  0  0  0
    4.8159    0.9611    1.4351 F   0  0  0  0  0  0  0  0  0  0  0  0
    3.4922    2.8317    1.6376 F   0  0  0  0  0  0  0  0  0  0  0  0
  1  2  2  0  0  0  0
  1  6  1  0  0  0  0
  2  3  1  0  0  0  0
  3 17  1  0  0  0  0
  3  4  2  0  0  0  0
  4  9  1  0  0  0  0
  5  4  1  0  0  0  0
  5 10  1  0  0  0  0
  6  5  2  0  0  0  0
  7  1  1  0  0  0  0
  8  2  1  0  0  0  0
 11  6  1  0  0  0  0
 11 13  2  0  0  0  0
 12 11  2  0  0  0  0
 15 14  3  0  0  0  0
 16 18  1  0  0  0  0
 19 16  1  0  0  0  0
 20 16  1  0  0  0  0
M  END
