Coordinates from ORCA-job p-NO2-Ph-N2-BF4-B3LYPG-aug-cc-pVDZ-scan-d09-49-n400
 OpenBabel10311713223D

 20 18  0  0  0  0  0  0  0  0999 V2000
   -1.3835   -0.6237    0.1618 C   0  0  0  0  0  0  0  0  0  0  0  0
    0.0105   -0.6467    0.1560 C   0  0  0  0  0  0  0  0  0  0  0  0
    0.6889    0.5433    0.3995 C   0  0  0  0  0  0  0  0  0  0  0  0
    0.0495    1.7541    0.6470 C   0  0  0  0  0  0  0  0  0  0  0  0
   -1.3448    1.7721    0.6527 C   0  0  0  0  0  0  0  0  0  0  0  0
   -2.0390    0.5845    0.4104 C   0  0  0  0  0  0  0  0  0  0  0  0
   -1.9646   -1.5236   -0.0225 H   0  0  0  0  0  0  0  0  0  0  0  0
    0.5660   -1.5628   -0.0348 H   0  0  0  0  0  0  0  0  0  0  0  0
    0.6337    2.6534    0.8305 H   0  0  0  0  0  0  0  0  0  0  0  0
   -1.8968    2.6894    0.8406 H   0  0  0  0  0  0  0  0  0  0  0  0
   -3.5131    0.6069    0.4154 N   0  0  0  0  0  0  0  0  0  0  0  0
   -4.1010   -0.4506    0.2016 O   0  0  0  0  0  0  0  0  0  0  0  0
   -4.0672    1.6804    0.6390 O   0  0  0  0  0  0  0  0  0  0  0  0
    2.1142    1.4128   -3.3650 N   0  0  0  0  0  0  0  0  0  0  0  0
    2.6236    1.4217   -4.3449 N   0  0  0  0  0  0  0  0  0  0  0  0
    3.6969    1.5640    2.1549 B   0  0  0  0  0  0  0  0  0  0  0  0
    2.0512    0.5201    0.3840 F   0  0  0  0  0  0  0  0  0  0  0  0
    3.2397    0.7476    3.0962 F   0  0  0  0  0  0  0  0  0  0  0  0
    4.7336    1.2106    1.4084 F   0  0  0  0  0  0  0  0  0  0  0  0
    3.1455    2.7653    2.0023 F   0  0  0  0  0  0  0  0  0  0  0  0
  1  6  1  0  0  0  0
  2  1  2  0  0  0  0
  2  3  1  0  0  0  0
  3  4  2  0  0  0  0
  4  5  1  0  0  0  0
  4  9  1  0  0  0  0
  5 10  1  0  0  0  0
  6 11  1  0  0  0  0
  6  5  2  0  0  0  0
  7  1  1  0  0  0  0
  8  2  1  0  0  0  0
 11 13  2  0  0  0  0
 12 11  2  0  0  0  0
 15 14  3  0  0  0  0
 16 18  1  0  0  0  0
 17  3  1  0  0  0  0
 19 16  1  0  0  0  0
 20 16  1  0  0  0  0
M  END
