Coordinates from ORCA-job p-NO2-Ph-N2-BF4-B3LYPG-aug-cc-pVDZ-scan-d09-49-n400
 OpenBabel10311713223D

 20 18  0  0  0  0  0  0  0  0999 V2000
   -1.3885   -0.6256    0.1714 C   0  0  0  0  0  0  0  0  0  0  0  0
    0.0055   -0.6489    0.1655 C   0  0  0  0  0  0  0  0  0  0  0  0
    0.6842    0.5416    0.4061 C   0  0  0  0  0  0  0  0  0  0  0  0
    0.0451    1.7531    0.6508 C   0  0  0  0  0  0  0  0  0  0  0  0
   -1.3492    1.7714    0.6566 C   0  0  0  0  0  0  0  0  0  0  0  0
   -2.0436    0.5834    0.4174 C   0  0  0  0  0  0  0  0  0  0  0  0
   -1.9698   -1.5257   -0.0107 H   0  0  0  0  0  0  0  0  0  0  0  0
    0.5609   -1.5655   -0.0233 H   0  0  0  0  0  0  0  0  0  0  0  0
    0.6296    2.6526    0.8320 H   0  0  0  0  0  0  0  0  0  0  0  0
   -1.9009    2.6892    0.8424 H   0  0  0  0  0  0  0  0  0  0  0  0
   -3.5178    0.6062    0.4226 N   0  0  0  0  0  0  0  0  0  0  0  0
   -4.1060   -0.4512    0.2090 O   0  0  0  0  0  0  0  0  0  0  0  0
   -4.0716    1.6808    0.6412 O   0  0  0  0  0  0  0  0  0  0  0  0
    2.1480    1.4252   -3.4172 N   0  0  0  0  0  0  0  0  0  0  0  0
    2.6609    1.4340   -4.3953 N   0  0  0  0  0  0  0  0  0  0  0  0
    3.6955    1.5623    2.1580 B   0  0  0  0  0  0  0  0  0  0  0  0
    2.0465    0.5181    0.3903 F   0  0  0  0  0  0  0  0  0  0  0  0
    3.2458    0.7406    3.0983 F   0  0  0  0  0  0  0  0  0  0  0  0
    4.7303    1.2157    1.4058 F   0  0  0  0  0  0  0  0  0  0  0  0
    3.1385    2.7618    2.0121 F   0  0  0  0  0  0  0  0  0  0  0  0
  1  6  1  0  0  0  0
  2  1  2  0  0  0  0
  2  3  1  0  0  0  0
  3  4  2  0  0  0  0
  4  5  1  0  0  0  0
  4  9  1  0  0  0  0
  5 10  1  0  0  0  0
  6 11  1  0  0  0  0
  6  5  2  0  0  0  0
  7  1  1  0  0  0  0
  8  2  1  0  0  0  0
 11 13  2  0  0  0  0
 12 11  2  0  0  0  0
 15 14  3  0  0  0  0
 16 18  1  0  0  0  0
 17  3  1  0  0  0  0
 19 16  1  0  0  0  0
 20 16  1  0  0  0  0
M  END
