Coordinates from ORCA-job p-NO2-Ph-N2-BF4-B3LYPG-aug-cc-pVDZ-scan-d09-49-n400
 OpenBabel10311713223D

 20 19  0  0  0  0  0  0  0  0999 V2000
   -1.0465   -0.4681    0.0066 C   0  0  0  0  0  0  0  0  0  0  0  0
    0.2046   -0.2821   -0.6025 C   0  0  0  0  0  0  0  0  0  0  0  0
    0.5293    1.0381   -0.6640 C   0  0  0  0  0  0  0  0  0  0  0  0
   -0.0441    2.1964   -0.2381 C   0  0  0  0  0  0  0  0  0  0  0  0
   -1.2895    1.9540    0.3627 C   0  0  0  0  0  0  0  0  0  0  0  0
   -1.7588    0.6430    0.4614 C   0  0  0  0  0  0  0  0  0  0  0  0
   -1.4466   -1.4701    0.1415 H   0  0  0  0  0  0  0  0  0  0  0  0
    0.8480   -1.0948   -0.9220 H   0  0  0  0  0  0  0  0  0  0  0  0
    0.4197    3.1754   -0.2939 H   0  0  0  0  0  0  0  0  0  0  0  0
   -1.8728    2.7782    0.7661 H   0  0  0  0  0  0  0  0  0  0  0  0
   -3.0795    0.4164    1.1009 N   0  0  0  0  0  0  0  0  0  0  0  0
   -3.4703   -0.7413    1.1833 O   0  0  0  0  0  0  0  0  0  0  0  0
   -3.6857    1.4036    1.4984 O   0  0  0  0  0  0  0  0  0  0  0  0
    2.1952    1.3301   -1.5133 N   0  0  0  0  0  0  0  0  0  0  0  0
    3.1043    1.5088   -2.1090 N   0  0  0  0  0  0  0  0  0  0  0  0
    2.7449    0.9421    1.5317 B   0  0  0  0  0  0  0  0  0  0  0  0
    2.9319   -0.0638    0.5095 F   0  0  0  0  0  0  0  0  0  0  0  0
    1.4786    0.7285    2.1257 F   0  0  0  0  0  0  0  0  0  0  0  0
    3.7774    0.9124    2.4473 F   0  0  0  0  0  0  0  0  0  0  0  0
    2.7033    2.2123    0.8411 F   0  0  0  0  0  0  0  0  0  0  0  0
  1  7  1  0  0  0  0
  1  6  2  0  0  0  0
  2  1  1  0  0  0  0
  3  2  2  0  0  0  0
  3  4  1  0  0  0  0
  4  5  2  0  0  0  0
  5  6  1  0  0  0  0
  5 10  1  0  0  0  0
  6 11  1  0  0  0  0
  8  2  1  0  0  0  0
  9  4  1  0  0  0  0
 11 12  2  0  0  0  0
 11 13  2  0  0  0  0
 14  3  1  0  0  0  0
 15 14  1  0  0  0  0
 16 18  1  0  0  0  0
 16 19  1  0  0  0  0
 17 16  1  0  0  0  0
 20 16  1  0  0  0  0
M  RAD  2  14   2  15   3
M  END
