Coordinates from ORCA-job p-NO2-Ph-N2-BF4-B3LYPG-aug-cc-pVDZ-scan-d09-49-n400
 OpenBabel10311713223D

 20 18  0  0  0  0  0  0  0  0999 V2000
   -1.3003   -0.5946   -0.0058 C   0  0  0  0  0  0  0  0  0  0  0  0
    0.0936   -0.6132   -0.0031 C   0  0  0  0  0  0  0  0  0  0  0  0
    0.7677    0.5661    0.2955 C   0  0  0  0  0  0  0  0  0  0  0  0
    0.1224    1.7593    0.6020 C   0  0  0  0  0  0  0  0  0  0  0  0
   -1.2715    1.7743    0.5995 C   0  0  0  0  0  0  0  0  0  0  0  0
   -1.9615    0.5987    0.2940 C   0  0  0  0  0  0  0  0  0  0  0  0
   -1.8773   -1.4869   -0.2342 H   0  0  0  0  0  0  0  0  0  0  0  0
    0.6521   -1.5186   -0.2315 H   0  0  0  0  0  0  0  0  0  0  0  0
    0.7019    2.6508    0.8319 H   0  0  0  0  0  0  0  0  0  0  0  0
   -1.8270    2.6796    0.8297 H   0  0  0  0  0  0  0  0  0  0  0  0
   -3.4352    0.6172    0.2899 N   0  0  0  0  0  0  0  0  0  0  0  0
   -4.0189   -0.4297    0.0195 O   0  0  0  0  0  0  0  0  0  0  0  0
   -3.9940    1.6780    0.5587 O   0  0  0  0  0  0  0  0  0  0  0  0
    1.5134    1.2318   -2.4428 N   0  0  0  0  0  0  0  0  0  0  0  0
    1.9692    1.2084   -3.4483 N   0  0  0  0  0  0  0  0  0  0  0  0
    3.7383    1.6056    2.0839 B   0  0  0  0  0  0  0  0  0  0  0  0
    2.1287    0.5432    0.3016 F   0  0  0  0  0  0  0  0  0  0  0  0
    3.1389    0.9379    3.0623 F   0  0  0  0  0  0  0  0  0  0  0  0
    4.7813    1.0806    1.4569 F   0  0  0  0  0  0  0  0  0  0  0  0
    3.3215    2.8303    1.7737 F   0  0  0  0  0  0  0  0  0  0  0  0
  1  2  2  0  0  0  0
  1  6  1  0  0  0  0
  2  3  1  0  0  0  0
  3 17  1  0  0  0  0
  3  4  2  0  0  0  0
  4  9  1  0  0  0  0
  5  4  1  0  0  0  0
  5 10  1  0  0  0  0
  6  5  2  0  0  0  0
  7  1  1  0  0  0  0
  8  2  1  0  0  0  0
 11  6  1  0  0  0  0
 11 13  2  0  0  0  0
 12 11  2  0  0  0  0
 15 14  3  0  0  0  0
 16 18  1  0  0  0  0
 19 16  1  0  0  0  0
 20 16  1  0  0  0  0
M  END
