Coordinates from ORCA-job p-NO2-Ph-N2-BF4-B3LYPG-aug-cc-pVDZ-scan-d09-49-n400
 OpenBabel10311713223D

 20 18  0  0  0  0  0  0  0  0999 V2000
   -1.3914   -0.6266    0.1766 C   0  0  0  0  0  0  0  0  0  0  0  0
    0.0026   -0.6502    0.1706 C   0  0  0  0  0  0  0  0  0  0  0  0
    0.6815    0.5405    0.4097 C   0  0  0  0  0  0  0  0  0  0  0  0
    0.0427    1.7524    0.6529 C   0  0  0  0  0  0  0  0  0  0  0  0
   -1.3516    1.7710    0.6587 C   0  0  0  0  0  0  0  0  0  0  0  0
   -2.0463    0.5828    0.4210 C   0  0  0  0  0  0  0  0  0  0  0  0
   -1.9729   -1.5268   -0.0044 H   0  0  0  0  0  0  0  0  0  0  0  0
    0.5578   -1.5671   -0.0171 H   0  0  0  0  0  0  0  0  0  0  0  0
    0.6274    2.6521    0.8330 H   0  0  0  0  0  0  0  0  0  0  0  0
   -1.9032    2.6892    0.8434 H   0  0  0  0  0  0  0  0  0  0  0  0
   -3.5205    0.6058    0.4263 N   0  0  0  0  0  0  0  0  0  0  0  0
   -4.1088   -0.4517    0.2142 O   0  0  0  0  0  0  0  0  0  0  0  0
   -4.0740    1.6808    0.6438 O   0  0  0  0  0  0  0  0  0  0  0  0
    2.1676    1.4322   -3.4471 N   0  0  0  0  0  0  0  0  0  0  0  0
    2.6825    1.4409   -4.4242 N   0  0  0  0  0  0  0  0  0  0  0  0
    3.6944    1.5614    2.1600 B   0  0  0  0  0  0  0  0  0  0  0  0
    2.0438    0.5168    0.3938 F   0  0  0  0  0  0  0  0  0  0  0  0
    3.2486    0.7370    3.0998 F   0  0  0  0  0  0  0  0  0  0  0  0
    4.7284    1.2184    1.4049 F   0  0  0  0  0  0  0  0  0  0  0  0
    3.1346    2.7600    2.0174 F   0  0  0  0  0  0  0  0  0  0  0  0
  1  6  1  0  0  0  0
  2  1  2  0  0  0  0
  2  3  1  0  0  0  0
  3  4  2  0  0  0  0
  4  5  1  0  0  0  0
  4  9  1  0  0  0  0
  5 10  1  0  0  0  0
  6 11  1  0  0  0  0
  6  5  2  0  0  0  0
  7  1  1  0  0  0  0
  8  2  1  0  0  0  0
 11 13  2  0  0  0  0
 12 11  2  0  0  0  0
 15 14  3  0  0  0  0
 16 18  1  0  0  0  0
 17  3  1  0  0  0  0
 19 16  1  0  0  0  0
 20 16  1  0  0  0  0
M  END
