Coordinates from ORCA-job p-NO2-Ph-N2-BF4-B3LYPG-aug-cc-pVDZ-scan-d09-49-n400
 OpenBabel10311713223D

 20 18  0  0  0  0  0  0  0  0999 V2000
   -1.4426   -0.6436    0.2590 C   0  0  0  0  0  0  0  0  0  0  0  0
   -0.0486   -0.6714    0.2488 C   0  0  0  0  0  0  0  0  0  0  0  0
    0.6343    0.5210    0.4669 C   0  0  0  0  0  0  0  0  0  0  0  0
   -0.0001    1.7386    0.6927 C   0  0  0  0  0  0  0  0  0  0  0  0
   -1.3944    1.7614    0.7025 C   0  0  0  0  0  0  0  0  0  0  0  0
   -2.0931    0.5715    0.4859 C   0  0  0  0  0  0  0  0  0  0  0  0
   -2.0273   -1.5449    0.0942 H   0  0  0  0  0  0  0  0  0  0  0  0
    0.5034   -1.5928    0.0745 H   0  0  0  0  0  0  0  0  0  0  0  0
    0.5879    2.6390    0.8577 H   0  0  0  0  0  0  0  0  0  0  0  0
   -1.9428    2.6840    0.8741 H   0  0  0  0  0  0  0  0  0  0  0  0
   -3.5673    0.5990    0.4954 N   0  0  0  0  0  0  0  0  0  0  0  0
   -4.1593   -0.4605    0.3042 O   0  0  0  0  0  0  0  0  0  0  0  0
   -4.1170    1.6786    0.6991 O   0  0  0  0  0  0  0  0  0  0  0  0
    2.5175    1.5505   -3.9380 N   0  0  0  0  0  0  0  0  0  0  0  0
    3.0651    1.5548   -4.8972 N   0  0  0  0  0  0  0  0  0  0  0  0
    3.6756    1.5523    2.1812 B   0  0  0  0  0  0  0  0  0  0  0  0
    1.9966    0.4933    0.4470 F   0  0  0  0  0  0  0  0  0  0  0  0
    3.2796    0.7028    3.1209 F   0  0  0  0  0  0  0  0  0  0  0  0
    4.6940    1.2472    1.3897 F   0  0  0  0  0  0  0  0  0  0  0  0
    3.0818    2.7383    2.0746 F   0  0  0  0  0  0  0  0  0  0  0  0
  1  6  1  0  0  0  0
  2  1  2  0  0  0  0
  2  3  1  0  0  0  0
  3  4  2  0  0  0  0
  4  5  1  0  0  0  0
  4  9  1  0  0  0  0
  5 10  1  0  0  0  0
  6 11  1  0  0  0  0
  6  5  2  0  0  0  0
  7  1  1  0  0  0  0
  8  2  1  0  0  0  0
 11 13  2  0  0  0  0
 12 11  2  0  0  0  0
 15 14  3  0  0  0  0
 16 18  1  0  0  0  0
 17  3  1  0  0  0  0
 19 16  1  0  0  0  0
 20 16  1  0  0  0  0
M  END
