Coordinates from ORCA-job p-NO2-Ph-N2-BF4-B3LYPG-aug-cc-pVDZ-scan-d09-49-n400
 OpenBabel10311713223D

 20 18  0  0  0  0  0  0  0  0999 V2000
   -1.3552   -0.6146    0.1103 C   0  0  0  0  0  0  0  0  0  0  0  0
    0.0387   -0.6368    0.1066 C   0  0  0  0  0  0  0  0  0  0  0  0
    0.7167    0.5502    0.3668 C   0  0  0  0  0  0  0  0  0  0  0  0
    0.0758    1.7568    0.6302 C   0  0  0  0  0  0  0  0  0  0  0  0
   -1.3185    1.7742    0.6341 C   0  0  0  0  0  0  0  0  0  0  0  0
   -2.0118    0.5897    0.3743 C   0  0  0  0  0  0  0  0  0  0  0  0
   -1.9356   -1.5122   -0.0868 H   0  0  0  0  0  0  0  0  0  0  0  0
    0.5945   -1.5504   -0.0952 H   0  0  0  0  0  0  0  0  0  0  0  0
    0.6588    2.6541    0.8269 H   0  0  0  0  0  0  0  0  0  0  0  0
   -1.8712    2.6884    0.8340 H   0  0  0  0  0  0  0  0  0  0  0  0
   -3.4859    0.6114    0.3773 N   0  0  0  0  0  0  0  0  0  0  0  0
   -4.0730   -0.4427    0.1449 O   0  0  0  0  0  0  0  0  0  0  0  0
   -4.0409    1.6821    0.6117 O   0  0  0  0  0  0  0  0  0  0  0  0
    1.9155    1.3529   -3.0806 N   0  0  0  0  0  0  0  0  0  0  0  0
    2.4054    1.3526   -4.0702 N   0  0  0  0  0  0  0  0  0  0  0  0
    3.7060    1.5760    2.1382 B   0  0  0  0  0  0  0  0  0  0  0  0
    2.0785    0.5275    0.3541 F   0  0  0  0  0  0  0  0  0  0  0  0
    3.2071    0.7939    3.0874 F   0  0  0  0  0  0  0  0  0  0  0  0
    4.7512    1.1801    1.4259 F   0  0  0  0  0  0  0  0  0  0  0  0
    3.1871    2.7857    1.9435 F   0  0  0  0  0  0  0  0  0  0  0  0
  1  6  1  0  0  0  0
  2  1  2  0  0  0  0
  2  3  1  0  0  0  0
  3  4  2  0  0  0  0
  4  5  1  0  0  0  0
  4  9  1  0  0  0  0
  5 10  1  0  0  0  0
  6 11  1  0  0  0  0
  6  5  2  0  0  0  0
  7  1  1  0  0  0  0
  8  2  1  0  0  0  0
 11 13  2  0  0  0  0
 12 11  2  0  0  0  0
 15 14  3  0  0  0  0
 16 18  1  0  0  0  0
 17  3  1  0  0  0  0
 19 16  1  0  0  0  0
 20 16  1  0  0  0  0
M  END
