Coordinates from ORCA-job p-NO2-Ph-N2-BF4-B3LYPG-aug-cc-pVDZ-scan-d09-49-n400
 OpenBabel10311713223D

 20 18  0  0  0  0  0  0  0  0999 V2000
   -1.3096   -0.5991    0.0184 C   0  0  0  0  0  0  0  0  0  0  0  0
    0.0845   -0.6208    0.0217 C   0  0  0  0  0  0  0  0  0  0  0  0
    0.7600    0.5582    0.3161 C   0  0  0  0  0  0  0  0  0  0  0  0
    0.1184    1.7562    0.6094 C   0  0  0  0  0  0  0  0  0  0  0  0
   -1.2757    1.7741    0.6063 C   0  0  0  0  0  0  0  0  0  0  0  0
   -1.9681    0.5976    0.3103 C   0  0  0  0  0  0  0  0  0  0  0  0
   -1.8884   -1.4914   -0.2054 H   0  0  0  0  0  0  0  0  0  0  0  0
    0.6420   -1.5282   -0.2018 H   0  0  0  0  0  0  0  0  0  0  0  0
    0.7006    2.6481    0.8314 H   0  0  0  0  0  0  0  0  0  0  0  0
   -1.8293    2.6828    0.8280 H   0  0  0  0  0  0  0  0  0  0  0  0
   -3.4419    0.6194    0.3054 N   0  0  0  0  0  0  0  0  0  0  0  0
   -4.0277   -0.4293    0.0469 O   0  0  0  0  0  0  0  0  0  0  0  0
   -3.9983    1.6822    0.5705 O   0  0  0  0  0  0  0  0  0  0  0  0
    1.5869    1.2581   -2.5943 N   0  0  0  0  0  0  0  0  0  0  0  0
    2.0394    1.2391   -3.6013 N   0  0  0  0  0  0  0  0  0  0  0  0
    3.7255    1.6015    2.1036 B   0  0  0  0  0  0  0  0  0  0  0  0
    2.1220    0.5336    0.3153 F   0  0  0  0  0  0  0  0  0  0  0  0
    3.1457    0.9050    3.0738 F   0  0  0  0  0  0  0  0  0  0  0  0
    4.7752    1.1091    1.4614 F   0  0  0  0  0  0  0  0  0  0  0  0
    3.2823    2.8227    1.8174 F   0  0  0  0  0  0  0  0  0  0  0  0
  1  2  2  0  0  0  0
  1  6  1  0  0  0  0
  2  3  1  0  0  0  0
  3  4  2  0  0  0  0
  4  9  1  0  0  0  0
  5  4  1  0  0  0  0
  5 10  1  0  0  0  0
  6  5  2  0  0  0  0
  7  1  1  0  0  0  0
  8  2  1  0  0  0  0
 11  6  1  0  0  0  0
 11 13  2  0  0  0  0
 12 11  2  0  0  0  0
 15 14  3  0  0  0  0
 16 18  1  0  0  0  0
 17  3  1  0  0  0  0
 19 16  1  0  0  0  0
 20 16  1  0  0  0  0
M  END
