Coordinates from ORCA-job p-NO2-Ph-N2-BF4-B3LYPG-aug-cc-pVDZ-scan-d09-49-n400
 OpenBabel10311713223D

 20 18  0  0  0  0  0  0  0  0999 V2000
   -1.3233   -0.6048    0.0495 C   0  0  0  0  0  0  0  0  0  0  0  0
    0.0706   -0.6278    0.0506 C   0  0  0  0  0  0  0  0  0  0  0  0
    0.7487    0.5539    0.3328 C   0  0  0  0  0  0  0  0  0  0  0  0
    0.1072    1.7556    0.6163 C   0  0  0  0  0  0  0  0  0  0  0  0
   -1.2869    1.7741    0.6153 C   0  0  0  0  0  0  0  0  0  0  0  0
   -1.9802    0.5952    0.3314 C   0  0  0  0  0  0  0  0  0  0  0  0
   -1.9034   -1.4986   -0.1646 H   0  0  0  0  0  0  0  0  0  0  0  0
    0.6260   -1.5387   -0.1638 H   0  0  0  0  0  0  0  0  0  0  0  0
    0.6895    2.6491    0.8312 H   0  0  0  0  0  0  0  0  0  0  0  0
   -1.8397    2.6850    0.8297 H   0  0  0  0  0  0  0  0  0  0  0  0
   -3.4542    0.6179    0.3291 N   0  0  0  0  0  0  0  0  0  0  0  0
   -4.0412   -0.4315    0.0762 O   0  0  0  0  0  0  0  0  0  0  0  0
   -4.0095    1.6848    0.5800 O   0  0  0  0  0  0  0  0  0  0  0  0
    1.6866    1.2893   -2.7617 N   0  0  0  0  0  0  0  0  0  0  0  0
    2.1484    1.2781   -3.7646 N   0  0  0  0  0  0  0  0  0  0  0  0
    3.7170    1.5939    2.1190 B   0  0  0  0  0  0  0  0  0  0  0  0
    2.1101    0.5293    0.3280 F   0  0  0  0  0  0  0  0  0  0  0  0
    3.1639    0.8653    3.0808 F   0  0  0  0  0  0  0  0  0  0  0  0
    4.7689    1.1372    1.4546 F   0  0  0  0  0  0  0  0  0  0  0  0
    3.2448    2.8113    1.8635 F   0  0  0  0  0  0  0  0  0  0  0  0
  1  2  2  0  0  0  0
  1  6  1  0  0  0  0
  2  3  1  0  0  0  0
  3  4  2  0  0  0  0
  4  9  1  0  0  0  0
  5  4  1  0  0  0  0
  5 10  1  0  0  0  0
  6  5  2  0  0  0  0
  7  1  1  0  0  0  0
  8  2  1  0  0  0  0
 11  6  1  0  0  0  0
 11 13  2  0  0  0  0
 12 11  2  0  0  0  0
 15 14  3  0  0  0  0
 16 18  1  0  0  0  0
 17  3  1  0  0  0  0
 19 16  1  0  0  0  0
 20 16  1  0  0  0  0
M  END
