Coordinates from ORCA-job p-NO2-Ph-N2-BF4-B3LYPG-aug-cc-pVDZ-scan-d09-49-n400
 OpenBabel10311713223D

 20 18  0  0  0  0  0  0  0  0999 V2000
   -1.0453   -0.4686    0.0102 C   0  0  0  0  0  0  0  0  0  0  0  0
    0.2066   -0.2844   -0.6018 C   0  0  0  0  0  0  0  0  0  0  0  0
    0.5169    1.0359   -0.6574 C   0  0  0  0  0  0  0  0  0  0  0  0
   -0.0426    2.1988   -0.2368 C   0  0  0  0  0  0  0  0  0  0  0  0
   -1.2884    1.9537    0.3662 C   0  0  0  0  0  0  0  0  0  0  0  0
   -1.7574    0.6425    0.4656 C   0  0  0  0  0  0  0  0  0  0  0  0
   -1.4434   -1.4715    0.1458 H   0  0  0  0  0  0  0  0  0  0  0  0
    0.8528   -1.0951   -0.9203 H   0  0  0  0  0  0  0  0  0  0  0  0
    0.4244    3.1761   -0.2921 H   0  0  0  0  0  0  0  0  0  0  0  0
   -1.8699    2.7789    0.7707 H   0  0  0  0  0  0  0  0  0  0  0  0
   -3.0767    0.4158    1.1069 N   0  0  0  0  0  0  0  0  0  0  0  0
   -3.4657   -0.7422    1.1923 O   0  0  0  0  0  0  0  0  0  0  0  0
   -3.6811    1.4028    1.5074 O   0  0  0  0  0  0  0  0  0  0  0  0
    2.2276    1.3385   -1.5487 N   0  0  0  0  0  0  0  0  0  0  0  0
    3.1408    1.5168   -2.1386 N   0  0  0  0  0  0  0  0  0  0  0  0
    2.7272    0.9402    1.5323 B   0  0  0  0  0  0  0  0  0  0  0  0
    2.9152   -0.0663    0.5119 F   0  0  0  0  0  0  0  0  0  0  0  0
    1.4587    0.7266    2.1243 F   0  0  0  0  0  0  0  0  0  0  0  0
    3.7569    0.9097    2.4515 F   0  0  0  0  0  0  0  0  0  0  0  0
    2.6867    2.2106    0.8437 F   0  0  0  0  0  0  0  0  0  0  0  0
  1  7  1  0  0  0  0
  1  6  2  0  0  0  0
  2  1  1  0  0  0  0
  3  2  2  0  0  0  0
  3  4  1  0  0  0  0
  4  5  2  0  0  0  0
  5  6  1  0  0  0  0
  5 10  1  0  0  0  0
  6 11  1  0  0  0  0
  8  2  1  0  0  0  0
  9  4  1  0  0  0  0
 11 12  2  0  0  0  0
 11 13  2  0  0  0  0
 15 14  3  0  0  0  0
 16 18  1  0  0  0  0
 16 19  1  0  0  0  0
 17 16  1  0  0  0  0
 20 16  1  0  0  0  0
M  RAD  1   3   2
M  END
