Coordinates from ORCA-job p-NO2-Ph-N2-BF4-B3LYPG-aug-cc-pVDZ-scan-d09-49-n400
 OpenBabel10311713223D

 20 19  0  0  0  0  0  0  0  0999 V2000
   -1.0178   -0.4619   -0.0135 C   0  0  0  0  0  0  0  0  0  0  0  0
    0.2150   -0.2641   -0.6346 C   0  0  0  0  0  0  0  0  0  0  0  0
    0.6132    1.0571   -0.7375 C   0  0  0  0  0  0  0  0  0  0  0  0
   -0.0309    2.1904   -0.2734 C   0  0  0  0  0  0  0  0  0  0  0  0
   -1.2605    1.9593    0.3427 C   0  0  0  0  0  0  0  0  0  0  0  0
   -1.7247    0.6478    0.4520 C   0  0  0  0  0  0  0  0  0  0  0  0
   -1.4198   -1.4614    0.1279 H   0  0  0  0  0  0  0  0  0  0  0  0
    0.8381   -1.0871   -0.9708 H   0  0  0  0  0  0  0  0  0  0  0  0
    0.4108    3.1797   -0.3426 H   0  0  0  0  0  0  0  0  0  0  0  0
   -1.8447    2.7790    0.7519 H   0  0  0  0  0  0  0  0  0  0  0  0
   -3.0377    0.4190    1.1124 N   0  0  0  0  0  0  0  0  0  0  0  0
   -3.4264   -0.7390    1.1996 O   0  0  0  0  0  0  0  0  0  0  0  0
   -3.6415    1.4055    1.5149 O   0  0  0  0  0  0  0  0  0  0  0  0
    2.0158    1.2991   -1.4273 N   0  0  0  0  0  0  0  0  0  0  0  0
    2.9440    1.4758   -1.9963 N   0  0  0  0  0  0  0  0  0  0  0  0
    2.7380    0.9392    1.5492 B   0  0  0  0  0  0  0  0  0  0  0  0
    2.9481   -0.0617    0.5248 F   0  0  0  0  0  0  0  0  0  0  0  0
    1.4575    0.7284    2.1093 F   0  0  0  0  0  0  0  0  0  0  0  0
    3.7477    0.9041    2.4885 F   0  0  0  0  0  0  0  0  0  0  0  0
    2.7191    2.2096    0.8559 F   0  0  0  0  0  0  0  0  0  0  0  0
  1  7  1  0  0  0  0
  1  6  2  0  0  0  0
  2  1  1  0  0  0  0
  3  2  2  0  0  0  0
  3  4  1  0  0  0  0
  4  5  2  0  0  0  0
  5  6  1  0  0  0  0
  5 10  1  0  0  0  0
  6 11  1  0  0  0  0
  8  2  1  0  0  0  0
  9  4  1  0  0  0  0
 11 12  2  0  0  0  0
 11 13  2  0  0  0  0
 14  3  1  0  0  0  0
 15 14  1  0  0  0  0
 16 18  1  0  0  0  0
 16 19  1  0  0  0  0
 17 16  1  0  0  0  0
 20 16  1  0  0  0  0
M  RAD  2  14   2  15   3
M  END
