Coordinates from ORCA-job p-NO2-Ph-N2-BF4-B3LYPG-aug-cc-pVDZ-scan-d09-49-n400
 OpenBabel10311713223D

 20 18  0  0  0  0  0  0  0  0999 V2000
   -1.0416   -0.4728    0.0416 C   0  0  0  0  0  0  0  0  0  0  0  0
    0.2233   -0.2975   -0.5660 C   0  0  0  0  0  0  0  0  0  0  0  0
    0.4721    1.0209   -0.5876 C   0  0  0  0  0  0  0  0  0  0  0  0
   -0.0277    2.2040   -0.1985 C   0  0  0  0  0  0  0  0  0  0  0  0
   -1.2846    1.9494    0.3974 C   0  0  0  0  0  0  0  0  0  0  0  0
   -1.7554    0.6384    0.4953 C   0  0  0  0  0  0  0  0  0  0  0  0
   -1.4342   -1.4797    0.1706 H   0  0  0  0  0  0  0  0  0  0  0  0
    0.8812   -1.1001   -0.8804 H   0  0  0  0  0  0  0  0  0  0  0  0
    0.4524    3.1747   -0.2521 H   0  0  0  0  0  0  0  0  0  0  0  0
   -1.8618    2.7814    0.7965 H   0  0  0  0  0  0  0  0  0  0  0  0
   -3.0748    0.4126    1.1307 N   0  0  0  0  0  0  0  0  0  0  0  0
   -3.4660   -0.7451    1.2092 O   0  0  0  0  0  0  0  0  0  0  0  0
   -3.6814    1.4009    1.5242 O   0  0  0  0  0  0  0  0  0  0  0  0
    2.4098    1.3960   -1.8137 N   0  0  0  0  0  0  0  0  0  0  0  0
    3.3696    1.5679   -2.3276 N   0  0  0  0  0  0  0  0  0  0  0  0
    2.6344    0.9304    1.5359 B   0  0  0  0  0  0  0  0  0  0  0  0
    2.8050   -0.0756    0.5163 F   0  0  0  0  0  0  0  0  0  0  0  0
    1.3714    0.7143    2.1492 F   0  0  0  0  0  0  0  0  0  0  0  0
    3.6739    0.9016    2.4438 F   0  0  0  0  0  0  0  0  0  0  0  0
    2.5776    2.1972    0.8484 F   0  0  0  0  0  0  0  0  0  0  0  0
  1  7  1  0  0  0  0
  1  6  2  0  0  0  0
  2  1  1  0  0  0  0
  3  2  2  0  0  0  0
  3  4  1  0  0  0  0
  4  5  2  0  0  0  0
  5  6  1  0  0  0  0
  5 10  1  0  0  0  0
  6 11  1  0  0  0  0
  8  2  1  0  0  0  0
  9  4  1  0  0  0  0
 11 12  2  0  0  0  0
 11 13  2  0  0  0  0
 15 14  3  0  0  0  0
 16 18  1  0  0  0  0
 16 19  1  0  0  0  0
 17 16  1  0  0  0  0
 20 16  1  0  0  0  0
M  RAD  1   3   2
M  END
