Coordinates from ORCA-job p-NO2-Ph-N2-BF4-B3LYPG-aug-cc-pVDZ-scan-d09-49-n400
 OpenBabel10311713223D

 20 18  0  0  0  0  0  0  0  0999 V2000
   -1.2975   -0.5929   -0.0145 C   0  0  0  0  0  0  0  0  0  0  0  0
    0.0964   -0.6099   -0.0115 C   0  0  0  0  0  0  0  0  0  0  0  0
    0.7691    0.5697    0.2881 C   0  0  0  0  0  0  0  0  0  0  0  0
    0.1224    1.7609    0.5990 C   0  0  0  0  0  0  0  0  0  0  0  0
   -1.2715    1.7744    0.5964 C   0  0  0  0  0  0  0  0  0  0  0  0
   -1.9602    0.5989    0.2877 C   0  0  0  0  0  0  0  0  0  0  0  0
   -1.8734   -1.4855   -0.2444 H   0  0  0  0  0  0  0  0  0  0  0  0
    0.6559   -1.5141   -0.2417 H   0  0  0  0  0  0  0  0  0  0  0  0
    0.7008    2.6523    0.8312 H   0  0  0  0  0  0  0  0  0  0  0  0
   -1.8280    2.6785    0.8292 H   0  0  0  0  0  0  0  0  0  0  0  0
   -3.4338    0.6158    0.2834 N   0  0  0  0  0  0  0  0  0  0  0  0
   -4.0164   -0.4311    0.0099 O   0  0  0  0  0  0  0  0  0  0  0  0
   -3.9940    1.6753    0.5541 O   0  0  0  0  0  0  0  0  0  0  0  0
    1.4873    1.2222   -2.3861 N   0  0  0  0  0  0  0  0  0  0  0  0
    1.9474    1.1997   -3.3897 N   0  0  0  0  0  0  0  0  0  0  0  0
    3.7454    1.6063    2.0758 B   0  0  0  0  0  0  0  0  0  0  0  0
    2.1299    0.5476    0.2981 F   0  0  0  0  0  0  0  0  0  0  0  0
    3.1391    0.9513    3.0584 F   0  0  0  0  0  0  0  0  0  0  0  0
    4.7842    1.0671    1.4537 F   0  0  0  0  0  0  0  0  0  0  0  0
    3.3402    2.8323    1.7560 F   0  0  0  0  0  0  0  0  0  0  0  0
  1  2  2  0  0  0  0
  1  6  1  0  0  0  0
  2  3  1  0  0  0  0
  3 17  1  0  0  0  0
  3  4  2  0  0  0  0
  4  9  1  0  0  0  0
  5  4  1  0  0  0  0
  5 10  1  0  0  0  0
  6  5  2  0  0  0  0
  7  1  1  0  0  0  0
  8  2  1  0  0  0  0
 11  6  1  0  0  0  0
 11 13  2  0  0  0  0
 12 11  2  0  0  0  0
 15 14  3  0  0  0  0
 16 18  1  0  0  0  0
 19 16  1  0  0  0  0
 20 16  1  0  0  0  0
M  END
