Coordinates from ORCA-job p-NO2-Ph-N2-BF4-B3LYPG-aug-cc-pVDZ-scan-d09-49-n400
 OpenBabel10311713223D

 20 18  0  0  0  0  0  0  0  0999 V2000
   -1.3694   -0.6192    0.1366 C   0  0  0  0  0  0  0  0  0  0  0  0
    0.0246   -0.6418    0.1315 C   0  0  0  0  0  0  0  0  0  0  0  0
    0.7029    0.5471    0.3829 C   0  0  0  0  0  0  0  0  0  0  0  0
    0.0624    1.7558    0.6386 C   0  0  0  0  0  0  0  0  0  0  0  0
   -1.3318    1.7733    0.6437 C   0  0  0  0  0  0  0  0  0  0  0  0
   -2.0254    0.5871    0.3929 C   0  0  0  0  0  0  0  0  0  0  0  0
   -1.9501   -1.5180   -0.0538 H   0  0  0  0  0  0  0  0  0  0  0  0
    0.5801   -1.5567   -0.0647 H   0  0  0  0  0  0  0  0  0  0  0  0
    0.6460    2.6542    0.8286 H   0  0  0  0  0  0  0  0  0  0  0  0
   -1.8843    2.6890    0.8376 H   0  0  0  0  0  0  0  0  0  0  0  0
   -3.4996    0.6089    0.3973 N   0  0  0  0  0  0  0  0  0  0  0  0
   -4.0870   -0.4467    0.1728 O   0  0  0  0  0  0  0  0  0  0  0  0
   -4.0542    1.6813    0.6247 O   0  0  0  0  0  0  0  0  0  0  0  0
    2.0160    1.3824   -3.2232 N   0  0  0  0  0  0  0  0  0  0  0  0
    2.5158    1.3876   -4.2078 N   0  0  0  0  0  0  0  0  0  0  0  0
    3.7011    1.5697    2.1461 B   0  0  0  0  0  0  0  0  0  0  0  0
    2.0648    0.5244    0.3687 F   0  0  0  0  0  0  0  0  0  0  0  0
    3.2233    0.7695    3.0911 F   0  0  0  0  0  0  0  0  0  0  0  0
    4.7423    1.1956    1.4162 F   0  0  0  0  0  0  0  0  0  0  0  0
    3.1656    2.7754    1.9733 F   0  0  0  0  0  0  0  0  0  0  0  0
  1  6  1  0  0  0  0
  2  1  2  0  0  0  0
  2  3  1  0  0  0  0
  3  4  2  0  0  0  0
  4  5  1  0  0  0  0
  4  9  1  0  0  0  0
  5 10  1  0  0  0  0
  6 11  1  0  0  0  0
  6  5  2  0  0  0  0
  7  1  1  0  0  0  0
  8  2  1  0  0  0  0
 11 13  2  0  0  0  0
 12 11  2  0  0  0  0
 15 14  3  0  0  0  0
 16 18  1  0  0  0  0
 17  3  1  0  0  0  0
 19 16  1  0  0  0  0
 20 16  1  0  0  0  0
M  END
