Coordinates from ORCA-job p-NO2-Ph-N2-BF4-B3LYPG-aug-cc-pVDZ-scan-d09-49-n400
 OpenBabel10311713223D

 20 19  0  0  0  0  0  0  0  0999 V2000
   -0.9740   -0.4555   -0.0275 C   0  0  0  0  0  0  0  0  0  0  0  0
    0.2355   -0.2514   -0.6805 C   0  0  0  0  0  0  0  0  0  0  0  0
    0.6653    1.0733   -0.8144 C   0  0  0  0  0  0  0  0  0  0  0  0
   -0.0091    2.1950   -0.3202 C   0  0  0  0  0  0  0  0  0  0  0  0
   -1.2161    1.9658    0.3290 C   0  0  0  0  0  0  0  0  0  0  0  0
   -1.6703    0.6526    0.4567 C   0  0  0  0  0  0  0  0  0  0  0  0
   -1.3684   -1.4557    0.1286 H   0  0  0  0  0  0  0  0  0  0  0  0
    0.8453   -1.0779   -1.0340 H   0  0  0  0  0  0  0  0  0  0  0  0
    0.4188    3.1897   -0.4053 H   0  0  0  0  0  0  0  0  0  0  0  0
   -1.7922    2.7835    0.7529 H   0  0  0  0  0  0  0  0  0  0  0  0
   -2.9631    0.4200    1.1581 N   0  0  0  0  0  0  0  0  0  0  0  0
   -3.3433   -0.7394    1.2594 O   0  0  0  0  0  0  0  0  0  0  0  0
   -3.5579    1.4055    1.5751 O   0  0  0  0  0  0  0  0  0  0  0  0
    1.9204    1.2916   -1.4446 N   0  0  0  0  0  0  0  0  0  0  0  0
    2.8731    1.4660   -1.9811 N   0  0  0  0  0  0  0  0  0  0  0  0
    2.6519    0.9267    1.5782 B   0  0  0  0  0  0  0  0  0  0  0  0
    2.8937   -0.0713    0.5609 F   0  0  0  0  0  0  0  0  0  0  0  0
    1.3476    0.7190    2.0914 F   0  0  0  0  0  0  0  0  0  0  0  0
    3.6230    0.8820    2.5575 F   0  0  0  0  0  0  0  0  0  0  0  0
    2.6630    2.1993    0.8931 F   0  0  0  0  0  0  0  0  0  0  0  0
  1  7  1  0  0  0  0
  1  6  2  0  0  0  0
  2  1  1  0  0  0  0
  3  2  2  0  0  0  0
  3  4  1  0  0  0  0
  4  5  2  0  0  0  0
  5  6  1  0  0  0  0
  5 10  1  0  0  0  0
  6 11  1  0  0  0  0
  8  2  1  0  0  0  0
  9  4  1  0  0  0  0
 11 12  2  0  0  0  0
 11 13  2  0  0  0  0
 14  3  1  0  0  0  0
 15 14  1  0  0  0  0
 16 18  1  0  0  0  0
 16 19  1  0  0  0  0
 17 16  1  0  0  0  0
 20 16  1  0  0  0  0
M  RAD  2  14   2  15   3
M  END
