Coordinates from ORCA-job /home/ubuntu/works/orca-Ph-N2-OTs-B3LYP-6-31G_dp-scan-d09-49-n400/Ph-N2-OTs-B3LYP-6-31G_dp-scan-d09-49-n400
 OpenBabel01281705563D

 31 31  0  0  0  0  0  0  0  0999 V2000
    0.7058    1.4054   -0.8038 C   0  0  0  0  0  0  0  0  0  0  0  0
    1.2592    2.3184   -1.7031 C   0  0  0  0  0  0  0  0  0  0  0  0
    1.8127    1.8390   -2.8911 C   0  0  0  0  0  0  0  0  0  0  0  0
    1.8171    0.4779   -3.1969 C   0  0  0  0  0  0  0  0  0  0  0  0
    1.2517   -0.4221   -2.2922 C   0  0  0  0  0  0  0  0  0  0  0  0
    0.6992    0.0386   -1.0946 C   0  0  0  0  0  0  0  0  0  0  0  0
    0.2736    1.7669    0.1248 H   0  0  0  0  0  0  0  0  0  0  0  0
    1.2731    3.3820   -1.4969 H   0  0  0  0  0  0  0  0  0  0  0  0
    2.2471    0.1474   -4.1363 H   0  0  0  0  0  0  0  0  0  0  0  0
    1.2436   -1.4834   -2.5250 H   0  0  0  0  0  0  0  0  0  0  0  0
    1.7630    1.6542   -6.8039 N   0  0  0  0  0  0  0  0  0  0  0  0
    1.0144    2.3852   -7.1602 N   0  0  0  0  0  0  0  0  0  0  0  0
    5.3655    1.8421   -5.0429 C   0  0  0  0  0  0  0  0  0  0  0  0
    6.3034    0.8219   -5.1739 C   0  0  0  0  0  0  0  0  0  0  0  0
    6.8466    0.1838   -4.0470 C   0  0  0  0  0  0  0  0  0  0  0  0
    6.4219    0.5936   -2.7755 C   0  0  0  0  0  0  0  0  0  0  0  0
    5.4830    1.6127   -2.6215 C   0  0  0  0  0  0  0  0  0  0  0  0
    4.9627    2.2276   -3.7612 C   0  0  0  0  0  0  0  0  0  0  0  0
    4.9565    2.3415   -5.9144 H   0  0  0  0  0  0  0  0  0  0  0  0
    6.6232    0.5175   -6.1670 H   0  0  0  0  0  0  0  0  0  0  0  0
    6.8325    0.1112   -1.8927 H   0  0  0  0  0  0  0  0  0  0  0  0
    5.1635    1.9376   -1.6375 H   0  0  0  0  0  0  0  0  0  0  0  0
    3.7523    3.5248   -3.5840 S   0  0  0  0  0  0  0  0  0  0  0  0
    2.3088    2.7258   -3.8544 O   0  0  0  0  0  0  0  0  0  0  0  0
    3.8339    4.4298   -4.7204 O   0  0  0  0  0  0  0  0  0  0  0  0
    3.7740    4.0037   -2.2046 O   0  0  0  0  0  0  0  0  0  0  0  0
    7.8878   -0.8979   -4.2037 C   0  0  0  0  0  0  0  0  0  0  0  0
    7.9109   -1.5617   -3.3344 H   0  0  0  0  0  0  0  0  0  0  0  0
    7.7022   -1.5057   -5.0948 H   0  0  0  0  0  0  0  0  0  0  0  0
    8.8894   -0.4627   -4.3105 H   0  0  0  0  0  0  0  0  0  0  0  0
    0.2613   -0.6644   -0.3920 H   0  0  0  0  0  0  0  0  0  0  0  0
  1  7  1  0  0  0  0
  2  8  1  0  0  0  0
  2  1  2  0  0  0  0
  3  2  1  0  0  0  0
  4  3  2  0  0  0  0
  4  5  1  0  0  0  0
  5  6  2  0  0  0  0
  6  1  1  0  0  0  0
  6 31  1  0  0  0  0
  9  4  1  0  0  0  0
 10  5  1  0  0  0  0
 12 11  3  0  0  0  0
 13 18  1  0  0  0  0
 14 13  2  0  0  0  0
 14 15  1  0  0  0  0
 15 16  2  0  0  0  0
 16 17  1  0  0  0  0
 16 21  1  0  0  0  0
 17 22  1  0  0  0  0
 18 23  1  0  0  0  0
 18 17  2  0  0  0  0
 19 13  1  0  0  0  0
 20 14  1  0  0  0  0
 23 26  2  0  0  0  0
 24 23  1  0  0  0  0
 24  3  1  0  0  0  0
 25 23  2  0  0  0  0
 27 15  1  0  0  0  0
 27 28  1  0  0  0  0
 29 27  1  0  0  0  0
 30 27  1  0  0  0  0
M  END
