Coordinates from ORCA-job /home/ubuntu/works/orca-Ph-N2-OTs-B3LYP-6-31G_dp-scan-d09-49-n400/Ph-N2-OTs-B3LYP-6-31G_dp-scan-d09-49-n400
 OpenBabel01281705563D

 31 30  0  0  0  0  0  0  0  0999 V2000
    0.3786    0.8376   -0.8583 C   0  0  0  0  0  0  0  0  0  0  0  0
    1.0526    1.3664   -1.9851 C   0  0  0  0  0  0  0  0  0  0  0  0
    0.2015    1.4650   -3.0197 C   0  0  0  0  0  0  0  0  0  0  0  0
   -1.1116    1.1808   -3.2460 C   0  0  0  0  0  0  0  0  0  0  0  0
   -1.7150    0.6513   -2.0889 C   0  0  0  0  0  0  0  0  0  0  0  0
   -0.9724    0.4858   -0.9149 C   0  0  0  0  0  0  0  0  0  0  0  0
    0.9505    0.7097    0.0563 H   0  0  0  0  0  0  0  0  0  0  0  0
    2.1267    1.6601   -1.9818 H   0  0  0  0  0  0  0  0  0  0  0  0
   -1.6357    1.3326   -4.1801 H   0  0  0  0  0  0  0  0  0  0  0  0
   -2.7641    0.3755   -2.1325 H   0  0  0  0  0  0  0  0  0  0  0  0
    1.0171    2.2580   -4.6680 N   0  0  0  0  0  0  0  0  0  0  0  0
    0.9035    2.8353   -5.6083 N   0  0  0  0  0  0  0  0  0  0  0  0
    6.4131    2.0898   -4.9611 C   0  0  0  0  0  0  0  0  0  0  0  0
    7.6768    1.5520   -5.2016 C   0  0  0  0  0  0  0  0  0  0  0  0
    8.2127    0.5580   -4.3708 C   0  0  0  0  0  0  0  0  0  0  0  0
    7.4447    0.1141   -3.2845 C   0  0  0  0  0  0  0  0  0  0  0  0
    6.1797    0.6419   -3.0323 C   0  0  0  0  0  0  0  0  0  0  0  0
    5.6676    1.6288   -3.8756 C   0  0  0  0  0  0  0  0  0  0  0  0
    6.0047    2.8698   -5.5950 H   0  0  0  0  0  0  0  0  0  0  0  0
    8.2582    1.9126   -6.0472 H   0  0  0  0  0  0  0  0  0  0  0  0
    7.8447   -0.6534   -2.6254 H   0  0  0  0  0  0  0  0  0  0  0  0
    5.5943    0.3078   -2.1821 H   0  0  0  0  0  0  0  0  0  0  0  0
    4.0146    2.2820   -3.6042 S   0  0  0  0  0  0  0  0  0  0  0  0
    3.0934    1.2921   -4.2869 O   0  0  0  0  0  0  0  0  0  0  0  0
    3.9642    3.6286   -4.2058 O   0  0  0  0  0  0  0  0  0  0  0  0
    3.8043    2.2404   -2.1163 O   0  0  0  0  0  0  0  0  0  0  0  0
    9.5963    0.0042   -4.6191 C   0  0  0  0  0  0  0  0  0  0  0  0
    9.6871   -1.0257   -4.2600 H   0  0  0  0  0  0  0  0  0  0  0  0
    9.8472    0.0155   -5.6844 H   0  0  0  0  0  0  0  0  0  0  0  0
   10.3592    0.5975   -4.0992 H   0  0  0  0  0  0  0  0  0  0  0  0
   -1.4549    0.0766   -0.0331 H   0  0  0  0  0  0  0  0  0  0  0  0
  1  7  1  0  0  0  0
  2  8  1  0  0  0  0
  2  1  2  0  0  0  0
  3  2  1  0  0  0  0
  4  3  2  0  0  0  0
  4  5  1  0  0  0  0
  5  6  2  0  0  0  0
  6  1  1  0  0  0  0
  6 31  1  0  0  0  0
  9  4  1  0  0  0  0
 10  5  1  0  0  0  0
 12 11  3  0  0  0  0
 13 18  1  0  0  0  0
 14 13  2  0  0  0  0
 14 15  1  0  0  0  0
 15 16  2  0  0  0  0
 16 17  1  0  0  0  0
 16 21  1  0  0  0  0
 17 22  1  0  0  0  0
 18 23  1  0  0  0  0
 18 17  2  0  0  0  0
 19 13  1  0  0  0  0
 20 14  1  0  0  0  0
 23 26  1  0  0  0  0
 24 23  2  0  0  0  0
 25 23  2  0  0  0  0
 27 15  1  0  0  0  0
 27 28  1  0  0  0  0
 27 30  1  0  0  0  0
 29 27  1  0  0  0  0
M  RAD  2   3   2  26   2
M  END
