Coordinates from ORCA-job /home/ubuntu/works/orca-Ph-N2-OTs-B3LYP-6-31G_dp-scan-d09-49-n400/Ph-N2-OTs-B3LYP-6-31G_dp-scan-d09-49-n400
 OpenBabel01281705563D

 31 30  0  0  0  0  0  0  0  0999 V2000
    1.4933    1.4332   -0.7997 C   0  0  0  0  0  0  0  0  0  0  0  0
    1.4817    1.7726   -2.1662 C   0  0  0  0  0  0  0  0  0  0  0  0
    0.6334    1.1964   -2.8964 C   0  0  0  0  0  0  0  0  0  0  0  0
   -0.3475    0.2578   -2.7356 C   0  0  0  0  0  0  0  0  0  0  0  0
   -0.3511   -0.1031   -1.3657 C   0  0  0  0  0  0  0  0  0  0  0  0
    0.5375    0.4659   -0.4350 C   0  0  0  0  0  0  0  0  0  0  0  0
    2.1745    1.8634   -0.0718 H   0  0  0  0  0  0  0  0  0  0  0  0
    2.7316    2.9908   -3.0766 H   0  0  0  0  0  0  0  0  0  0  0  0
   -1.0171   -0.1553   -3.4782 H   0  0  0  0  0  0  0  0  0  0  0  0
   -1.0736   -0.8452   -1.0336 H   0  0  0  0  0  0  0  0  0  0  0  0
   -0.2107    1.6251   -5.8436 N   0  0  0  0  0  0  0  0  0  0  0  0
   -0.0985    2.2384   -6.7559 N   0  0  0  0  0  0  0  0  0  0  0  0
    6.5937    2.5712   -4.3908 C   0  0  0  0  0  0  0  0  0  0  0  0
    7.6718    1.7482   -4.0700 C   0  0  0  0  0  0  0  0  0  0  0  0
    7.4958    0.3760   -3.8407 C   0  0  0  0  0  0  0  0  0  0  0  0
    6.2037   -0.1601   -3.9513 C   0  0  0  0  0  0  0  0  0  0  0  0
    5.1137    0.6464   -4.2715 C   0  0  0  0  0  0  0  0  0  0  0  0
    5.3189    2.0110   -4.4848 C   0  0  0  0  0  0  0  0  0  0  0  0
    6.7335    3.6289   -4.5865 H   0  0  0  0  0  0  0  0  0  0  0  0
    8.6682    2.1779   -4.0029 H   0  0  0  0  0  0  0  0  0  0  0  0
    6.0501   -1.2244   -3.7905 H   0  0  0  0  0  0  0  0  0  0  0  0
    4.1186    0.2267   -4.3751 H   0  0  0  0  0  0  0  0  0  0  0  0
    3.9283    3.0610   -4.8831 S   0  0  0  0  0  0  0  0  0  0  0  0
    2.8625    2.2241   -5.4400 O   0  0  0  0  0  0  0  0  0  0  0  0
    4.4239    4.2365   -5.5858 O   0  0  0  0  0  0  0  0  0  0  0  0
    3.4407    3.5918   -3.4252 O   0  0  0  0  0  0  0  0  0  0  0  0
    8.6655   -0.5035   -3.4679 C   0  0  0  0  0  0  0  0  0  0  0  0
    8.5771   -1.4984   -3.9146 H   0  0  0  0  0  0  0  0  0  0  0  0
    9.6137   -0.0672   -3.7942 H   0  0  0  0  0  0  0  0  0  0  0  0
    8.7232   -0.6397   -2.3805 H   0  0  0  0  0  0  0  0  0  0  0  0
    0.4832    0.1443    0.6020 H   0  0  0  0  0  0  0  0  0  0  0  0
  1  6  1  0  0  0  0
  1  7  1  0  0  0  0
  2  1  2  0  0  0  0
  3  4  2  0  0  0  0
  3  2  1  0  0  0  0
  4  5  1  0  0  0  0
  5 10  1  0  0  0  0
  5  6  2  0  0  0  0
  6 31  1  0  0  0  0
  9  4  1  0  0  0  0
 12 11  3  0  0  0  0
 13 14  1  0  0  0  0
 14 20  1  0  0  0  0
 14 15  2  0  0  0  0
 15 27  1  0  0  0  0
 16 15  1  0  0  0  0
 16 21  1  0  0  0  0
 17 16  2  0  0  0  0
 18 13  2  0  0  0  0
 18 17  1  0  0  0  0
 19 13  1  0  0  0  0
 22 17  1  0  0  0  0
 23 18  1  0  0  0  0
 23 26  1  0  0  0  0
 24 23  2  0  0  0  0
 25 23  2  0  0  0  0
 26  8  1  0  0  0  0
 27 30  1  0  0  0  0
 28 27  1  0  0  0  0
 29 27  1  0  0  0  0
M  RAD  2   2   2   3   2
M  END
