Coordinates from ORCA-job /home/ubuntu/works/orca-Ph-N2-OTs-B3LYP-6-31G_dp-scan-d09-49-n400/Ph-N2-OTs-B3LYP-6-31G_dp-scan-d09-49-n400
 OpenBabel01281705563D

 31 31  0  0  0  0  0  0  0  0999 V2000
    0.1854    0.8568   -0.8277 C   0  0  0  0  0  0  0  0  0  0  0  0
    0.9996    1.3117   -1.8780 C   0  0  0  0  0  0  0  0  0  0  0  0
    0.3273    1.4481   -3.0609 C   0  0  0  0  0  0  0  0  0  0  0  0
   -0.9931    1.2072   -3.3689 C   0  0  0  0  0  0  0  0  0  0  0  0
   -1.7561    0.7437   -2.2900 C   0  0  0  0  0  0  0  0  0  0  0  0
   -1.1673    0.5724   -1.0329 C   0  0  0  0  0  0  0  0  0  0  0  0
    0.6320    0.7262    0.1531 H   0  0  0  0  0  0  0  0  0  0  0  0
    2.0595    1.5475   -1.7562 H   0  0  0  0  0  0  0  0  0  0  0  0
   -1.4071    1.3605   -4.3575 H   0  0  0  0  0  0  0  0  0  0  0  0
   -2.8070    0.5202   -2.4454 H   0  0  0  0  0  0  0  0  0  0  0  0
    1.2381    2.0586   -4.4275 N   0  0  0  0  0  0  0  0  0  0  0  0
    1.1407    2.6060   -5.3964 N   0  0  0  0  0  0  0  0  0  0  0  0
    6.3083    2.0121   -4.9646 C   0  0  0  0  0  0  0  0  0  0  0  0
    7.5576    1.4923   -5.2983 C   0  0  0  0  0  0  0  0  0  0  0  0
    8.2128    0.5811   -4.4567 C   0  0  0  0  0  0  0  0  0  0  0  0
    7.5804    0.2026   -3.2637 C   0  0  0  0  0  0  0  0  0  0  0  0
    6.3313    0.7138   -2.9161 C   0  0  0  0  0  0  0  0  0  0  0  0
    5.6997    1.6170   -3.7724 C   0  0  0  0  0  0  0  0  0  0  0  0
    5.8083    2.7285   -5.6080 H   0  0  0  0  0  0  0  0  0  0  0  0
    8.0338    1.8009   -6.2258 H   0  0  0  0  0  0  0  0  0  0  0  0
    8.0754   -0.4991   -2.5963 H   0  0  0  0  0  0  0  0  0  0  0  0
    5.8497    0.4325   -1.9857 H   0  0  0  0  0  0  0  0  0  0  0  0
    4.0732    2.2526   -3.3586 S   0  0  0  0  0  0  0  0  0  0  0  0
    3.1279    1.1984   -3.9642 O   0  0  0  0  0  0  0  0  0  0  0  0
    3.9126    3.5629   -4.0175 O   0  0  0  0  0  0  0  0  0  0  0  0
    3.9702    2.2374   -1.8756 O   0  0  0  0  0  0  0  0  0  0  0  0
    9.5813    0.0478   -4.8108 C   0  0  0  0  0  0  0  0  0  0  0  0
    9.7487   -0.9448   -4.3818 H   0  0  0  0  0  0  0  0  0  0  0  0
    9.7155   -0.0235   -5.8948 H   0  0  0  0  0  0  0  0  0  0  0  0
   10.3722    0.7051   -4.4276 H   0  0  0  0  0  0  0  0  0  0  0  0
   -1.7712    0.2142   -0.2050 H   0  0  0  0  0  0  0  0  0  0  0  0
  1  7  1  0  0  0  0
  2  8  1  0  0  0  0
  2  1  2  0  0  0  0
  3  2  1  0  0  0  0
  4  3  2  0  0  0  0
  4  5  1  0  0  0  0
  5  6  2  0  0  0  0
  6  1  1  0  0  0  0
  6 31  1  0  0  0  0
  9  4  1  0  0  0  0
 10  5  1  0  0  0  0
 11  3  1  0  0  0  0
 12 11  2  0  0  0  0
 13 18  1  0  0  0  0
 14 13  2  0  0  0  0
 14 15  1  0  0  0  0
 15 16  2  0  0  0  0
 16 17  1  0  0  0  0
 16 21  1  0  0  0  0
 17 22  1  0  0  0  0
 18 23  1  0  0  0  0
 18 17  2  0  0  0  0
 19 13  1  0  0  0  0
 20 14  1  0  0  0  0
 23 26  1  0  0  0  0
 24 23  2  0  0  0  0
 25 23  2  0  0  0  0
 27 15  1  0  0  0  0
 27 30  1  0  0  0  0
 27 28  1  0  0  0  0
 29 27  1  0  0  0  0
M  RAD  2  12   2  26   2
M  END
