Coordinates from ORCA-job /home/ubuntu/works/orca-Ph-N2-OTs-B3LYP-6-31G_dp-scan-d09-49-n400/Ph-N2-OTs-B3LYP-6-31G_dp-scan-d09-49-n400
 OpenBabel01281705563D

 31 31  0  0  0  0  0  0  0  0999 V2000
    0.7380    1.3866   -0.7674 C   0  0  0  0  0  0  0  0  0  0  0  0
    1.2700    2.2992   -1.6796 C   0  0  0  0  0  0  0  0  0  0  0  0
    1.7982    1.8199   -2.8794 C   0  0  0  0  0  0  0  0  0  0  0  0
    1.7970    0.4583   -3.1832 C   0  0  0  0  0  0  0  0  0  0  0  0
    1.2532   -0.4418   -2.2655 C   0  0  0  0  0  0  0  0  0  0  0  0
    0.7268    0.0194   -1.0564 C   0  0  0  0  0  0  0  0  0  0  0  0
    0.3256    1.7486    0.1700 H   0  0  0  0  0  0  0  0  0  0  0  0
    1.2864    3.3631   -1.4745 H   0  0  0  0  0  0  0  0  0  0  0  0
    2.2081    0.1268   -4.1310 H   0  0  0  0  0  0  0  0  0  0  0  0
    1.2413   -1.5032   -2.4976 H   0  0  0  0  0  0  0  0  0  0  0  0
    1.9765    1.8316   -6.9132 N   0  0  0  0  0  0  0  0  0  0  0  0
    1.1539    2.4945   -7.2378 N   0  0  0  0  0  0  0  0  0  0  0  0
    5.3270    1.8153   -5.0556 C   0  0  0  0  0  0  0  0  0  0  0  0
    6.2696    0.7983   -5.1767 C   0  0  0  0  0  0  0  0  0  0  0  0
    6.8261    0.1830   -4.0437 C   0  0  0  0  0  0  0  0  0  0  0  0
    6.4097    0.6123   -2.7759 C   0  0  0  0  0  0  0  0  0  0  0  0
    5.4663    1.6286   -2.6314 C   0  0  0  0  0  0  0  0  0  0  0  0
    4.9329    2.2207   -3.7772 C   0  0  0  0  0  0  0  0  0  0  0  0
    4.9062    2.2955   -5.9321 H   0  0  0  0  0  0  0  0  0  0  0  0
    6.5825    0.4782   -6.1671 H   0  0  0  0  0  0  0  0  0  0  0  0
    6.8304    0.1475   -1.8884 H   0  0  0  0  0  0  0  0  0  0  0  0
    5.1534    1.9687   -1.6506 H   0  0  0  0  0  0  0  0  0  0  0  0
    3.7174    3.5145   -3.6116 S   0  0  0  0  0  0  0  0  0  0  0  0
    2.2741    2.7050   -3.8540 O   0  0  0  0  0  0  0  0  0  0  0  0
    3.7819    4.4002   -4.7642 O   0  0  0  0  0  0  0  0  0  0  0  0
    3.7498    4.0178   -2.2410 O   0  0  0  0  0  0  0  0  0  0  0  0
    7.8722   -0.8953   -4.1906 C   0  0  0  0  0  0  0  0  0  0  0  0
    7.9023   -1.5477   -3.3129 H   0  0  0  0  0  0  0  0  0  0  0  0
    7.6861   -1.5153   -5.0730 H   0  0  0  0  0  0  0  0  0  0  0  0
    8.8711   -0.4563   -4.3069 H   0  0  0  0  0  0  0  0  0  0  0  0
    0.3057   -0.6834   -0.3433 H   0  0  0  0  0  0  0  0  0  0  0  0
  1  7  1  0  0  0  0
  2  8  1  0  0  0  0
  2  1  2  0  0  0  0
  3  2  1  0  0  0  0
  4  3  2  0  0  0  0
  4  5  1  0  0  0  0
  5  6  2  0  0  0  0
  6  1  1  0  0  0  0
  6 31  1  0  0  0  0
  9  4  1  0  0  0  0
 10  5  1  0  0  0  0
 12 11  3  0  0  0  0
 13 18  1  0  0  0  0
 14 13  2  0  0  0  0
 14 15  1  0  0  0  0
 15 16  2  0  0  0  0
 16 17  1  0  0  0  0
 16 21  1  0  0  0  0
 17 22  1  0  0  0  0
 18 23  1  0  0  0  0
 18 17  2  0  0  0  0
 19 13  1  0  0  0  0
 20 14  1  0  0  0  0
 23 26  2  0  0  0  0
 24 23  1  0  0  0  0
 24  3  1  0  0  0  0
 25 23  2  0  0  0  0
 27 15  1  0  0  0  0
 27 28  1  0  0  0  0
 29 27  1  0  0  0  0
 30 27  1  0  0  0  0
M  END
