Coordinates from ORCA-job /home/ubuntu/works/orca-Ph-N2-OTs-B3LYP-6-31G_dp-scan-d09-49-n400/Ph-N2-OTs-B3LYP-6-31G_dp-scan-d09-49-n400
 OpenBabel01281705563D

 31 31  0  0  0  0  0  0  0  0999 V2000
    0.7396    1.3865   -0.7682 C   0  0  0  0  0  0  0  0  0  0  0  0
    1.2725    2.2999   -1.6796 C   0  0  0  0  0  0  0  0  0  0  0  0
    1.7989    1.8207   -2.8798 C   0  0  0  0  0  0  0  0  0  0  0  0
    1.7953    0.4598   -3.1863 C   0  0  0  0  0  0  0  0  0  0  0  0
    1.2505   -0.4406   -2.2694 C   0  0  0  0  0  0  0  0  0  0  0  0
    0.7257    0.0198   -1.0593 C   0  0  0  0  0  0  0  0  0  0  0  0
    0.3284    1.7478    0.1699 H   0  0  0  0  0  0  0  0  0  0  0  0
    1.2911    3.3634   -1.4733 H   0  0  0  0  0  0  0  0  0  0  0  0
    2.2051    0.1294   -4.1348 H   0  0  0  0  0  0  0  0  0  0  0  0
    1.2366   -1.5017   -2.5027 H   0  0  0  0  0  0  0  0  0  0  0  0
    1.9696    1.8246   -6.9040 N   0  0  0  0  0  0  0  0  0  0  0  0
    1.1482    2.4887   -7.2291 N   0  0  0  0  0  0  0  0  0  0  0  0
    5.3280    1.8154   -5.0554 C   0  0  0  0  0  0  0  0  0  0  0  0
    6.2709    0.7986   -5.1763 C   0  0  0  0  0  0  0  0  0  0  0  0
    6.8271    0.1833   -4.0431 C   0  0  0  0  0  0  0  0  0  0  0  0
    6.4100    0.6124   -2.7755 C   0  0  0  0  0  0  0  0  0  0  0  0
    5.4663    1.6284   -2.6313 C   0  0  0  0  0  0  0  0  0  0  0  0
    4.9332    2.2205   -3.7772 C   0  0  0  0  0  0  0  0  0  0  0  0
    4.9076    2.2956   -5.9321 H   0  0  0  0  0  0  0  0  0  0  0  0
    6.5843    0.4788   -6.1666 H   0  0  0  0  0  0  0  0  0  0  0  0
    6.8305    0.1476   -1.8878 H   0  0  0  0  0  0  0  0  0  0  0  0
    5.1530    1.9684   -1.6506 H   0  0  0  0  0  0  0  0  0  0  0  0
    3.7178    3.5146   -3.6118 S   0  0  0  0  0  0  0  0  0  0  0  0
    2.2745    2.7059   -3.8547 O   0  0  0  0  0  0  0  0  0  0  0  0
    3.7837    4.4003   -4.7644 O   0  0  0  0  0  0  0  0  0  0  0  0
    3.7502    4.0178   -2.2412 O   0  0  0  0  0  0  0  0  0  0  0  0
    7.8735   -0.8947   -4.1898 C   0  0  0  0  0  0  0  0  0  0  0  0
    7.9042   -1.5466   -3.3117 H   0  0  0  0  0  0  0  0  0  0  0  0
    7.6873   -1.5153   -5.0718 H   0  0  0  0  0  0  0  0  0  0  0  0
    8.8722   -0.4555   -4.3068 H   0  0  0  0  0  0  0  0  0  0  0  0
    0.3038   -0.6833   -0.3471 H   0  0  0  0  0  0  0  0  0  0  0  0
  1  7  1  0  0  0  0
  2  8  1  0  0  0  0
  2  1  2  0  0  0  0
  3  2  1  0  0  0  0
  4  3  2  0  0  0  0
  4  5  1  0  0  0  0
  5  6  2  0  0  0  0
  6  1  1  0  0  0  0
  6 31  1  0  0  0  0
  9  4  1  0  0  0  0
 10  5  1  0  0  0  0
 12 11  3  0  0  0  0
 13 18  1  0  0  0  0
 14 13  2  0  0  0  0
 14 15  1  0  0  0  0
 15 16  2  0  0  0  0
 16 17  1  0  0  0  0
 16 21  1  0  0  0  0
 17 22  1  0  0  0  0
 18 23  1  0  0  0  0
 18 17  2  0  0  0  0
 19 13  1  0  0  0  0
 20 14  1  0  0  0  0
 23 26  2  0  0  0  0
 24 23  1  0  0  0  0
 24  3  1  0  0  0  0
 25 23  2  0  0  0  0
 27 15  1  0  0  0  0
 27 28  1  0  0  0  0
 29 27  1  0  0  0  0
 30 27  1  0  0  0  0
M  END
