Coordinates from ORCA-job /home/ubuntu/works/orca-Ph-N2-OTs-B3LYP-6-31G_dp-scan-d09-49-n400/Ph-N2-OTs-B3LYP-6-31G_dp-scan-d09-49-n400
 OpenBabel01281705563D

 31 30  0  0  0  0  0  0  0  0999 V2000
    1.3124    1.4829   -0.5010 C   0  0  0  0  0  0  0  0  0  0  0  0
    1.6561    1.8364   -1.8197 C   0  0  0  0  0  0  0  0  0  0  0  0
    1.0311    1.2593   -2.7489 C   0  0  0  0  0  0  0  0  0  0  0  0
    0.0451    0.3195   -2.8618 C   0  0  0  0  0  0  0  0  0  0  0  0
   -0.3140   -0.0521   -1.5426 C   0  0  0  0  0  0  0  0  0  0  0  0
    0.2987    0.5104   -0.4074 C   0  0  0  0  0  0  0  0  0  0  0  0
    1.7741    1.9092    0.3843 H   0  0  0  0  0  0  0  0  0  0  0  0
    2.8917    3.1084   -2.7466 H   0  0  0  0  0  0  0  0  0  0  0  0
   -0.4062   -0.0835   -3.7579 H   0  0  0  0  0  0  0  0  0  0  0  0
   -1.0949   -0.7984   -1.4159 H   0  0  0  0  0  0  0  0  0  0  0  0
   -0.0608    1.3045   -6.1546 N   0  0  0  0  0  0  0  0  0  0  0  0
    0.0570    1.9600   -7.0363 N   0  0  0  0  0  0  0  0  0  0  0  0
    6.5464    2.5368   -4.5342 C   0  0  0  0  0  0  0  0  0  0  0  0
    7.6409    1.7057   -4.2989 C   0  0  0  0  0  0  0  0  0  0  0  0
    7.4687    0.3633   -3.9341 C   0  0  0  0  0  0  0  0  0  0  0  0
    6.1617   -0.1361   -3.8186 C   0  0  0  0  0  0  0  0  0  0  0  0
    5.0561    0.6779   -4.0506 C   0  0  0  0  0  0  0  0  0  0  0  0
    5.2595    2.0142   -4.4038 C   0  0  0  0  0  0  0  0  0  0  0  0
    6.6808    3.5710   -4.8316 H   0  0  0  0  0  0  0  0  0  0  0  0
    8.6457    2.1060   -4.4067 H   0  0  0  0  0  0  0  0  0  0  0  0
    6.0087   -1.1779   -3.5483 H   0  0  0  0  0  0  0  0  0  0  0  0
    4.0481    0.2845   -3.9733 H   0  0  0  0  0  0  0  0  0  0  0  0
    3.8530    3.0794   -4.6871 S   0  0  0  0  0  0  0  0  0  0  0  0
    2.7122    2.2447   -5.0814 O   0  0  0  0  0  0  0  0  0  0  0  0
    4.2826    4.2074   -5.5009 O   0  0  0  0  0  0  0  0  0  0  0  0
    3.5490    3.6877   -3.2123 O   0  0  0  0  0  0  0  0  0  0  0  0
    8.6576   -0.5262   -3.6584 C   0  0  0  0  0  0  0  0  0  0  0  0
    8.5368   -1.5102   -4.1225 H   0  0  0  0  0  0  0  0  0  0  0  0
    9.5837   -0.0845   -4.0358 H   0  0  0  0  0  0  0  0  0  0  0  0
    8.7835   -0.6905   -2.5811 H   0  0  0  0  0  0  0  0  0  0  0  0
   -0.0256    0.1806    0.5762 H   0  0  0  0  0  0  0  0  0  0  0  0
  1  6  1  0  0  0  0
  1  7  1  0  0  0  0
  2  1  2  0  0  0  0
  3  2  1  0  0  0  0
  4  3  2  0  0  0  0
  4  5  1  0  0  0  0
  5 10  1  0  0  0  0
  5  6  2  0  0  0  0
  6 31  1  0  0  0  0
  9  4  1  0  0  0  0
 12 11  3  0  0  0  0
 13 18  2  0  0  0  0
 13 14  1  0  0  0  0
 14 15  2  0  0  0  0
 15 16  1  0  0  0  0
 15 27  1  0  0  0  0
 16 21  1  0  0  0  0
 17 22  1  0  0  0  0
 17 16  2  0  0  0  0
 18 17  1  0  0  0  0
 19 13  1  0  0  0  0
 20 14  1  0  0  0  0
 23 18  1  0  0  0  0
 23 26  1  0  0  0  0
 24 23  2  0  0  0  0
 25 23  2  0  0  0  0
 26  8  1  0  0  0  0
 27 30  1  0  0  0  0
 28 27  1  0  0  0  0
 29 27  1  0  0  0  0
M  RAD  2   2   2   3   2
M  END
