Coordinates from ORCA-job /home/ubuntu/works/orca-Ph-N2-OTs-B3LYP-6-31G_dp-scan-d09-49-n400/Ph-N2-OTs-B3LYP-6-31G_dp-scan-d09-49-n400
 OpenBabel01281705563D

 31 32  0  0  1  0  0  0  0  0999 V2000
    1.7315    0.2632   -2.0546 C   0  0  0  0  0  0  0  0  0  0  0  0
    1.7127    1.0873   -3.2901 C   0  0  1  0  0  0  0  0  0  0  0  0
    0.3845    1.6917   -3.4405 C   0  0  1  0  0  0  0  0  0  0  0  0
   -0.5846    1.8701   -2.4215 C   0  0  0  0  0  0  0  0  0  0  0  0
   -0.3743    1.2277   -1.2339 C   0  0  0  0  0  0  0  0  0  0  0  0
    0.7831    0.3838   -1.0897 C   0  0  0  0  0  0  0  0  0  0  0  0
    2.5791   -0.4027   -1.9274 H   0  0  0  0  0  0  0  0  0  0  0  0
    2.0663    0.5739   -4.1827 H   0  0  0  0  0  0  0  0  0  0  0  0
   -1.4609    2.4832   -2.6034 H   0  0  0  0  0  0  0  0  0  0  0  0
   -1.0845    1.3257   -0.4204 H   0  0  0  0  0  0  0  0  0  0  0  0
    0.0871    2.3089   -4.7766 N   0  0  0  0  0  0  0  0  0  0  0  0
   -0.1334    2.7641   -5.7828 N   0  0  0  0  0  0  0  0  0  0  0  0
    5.4724    0.6914   -4.9532 C   0  0  0  0  0  0  0  0  0  0  0  0
    6.6649   -0.0131   -4.7894 C   0  0  0  0  0  0  0  0  0  0  0  0
    7.6048    0.3667   -3.8209 C   0  0  0  0  0  0  0  0  0  0  0  0
    7.3254    1.4864   -3.0218 C   0  0  0  0  0  0  0  0  0  0  0  0
    6.1410    2.2035   -3.1719 C   0  0  0  0  0  0  0  0  0  0  0  0
    5.2172    1.7939   -4.1366 C   0  0  0  0  0  0  0  0  0  0  0  0
    4.7549    0.4109   -5.7170 H   0  0  0  0  0  0  0  0  0  0  0  0
    6.8711   -0.8669   -5.4301 H   0  0  0  0  0  0  0  0  0  0  0  0
    8.0508    1.8047   -2.2771 H   0  0  0  0  0  0  0  0  0  0  0  0
    5.9395    3.0796   -2.5646 H   0  0  0  0  0  0  0  0  0  0  0  0
    3.6877    2.7032   -4.3259 S   0  0  0  0  0  0  0  0  0  0  0  0
    3.0381    2.2469   -5.5649 O   0  0  0  0  0  0  0  0  0  0  0  0
    3.9622    4.1203   -4.1084 O   0  0  0  0  0  0  0  0  0  0  0  0
    2.8039    2.2059   -3.0650 O   0  0  0  0  0  0  0  0  0  0  0  0
    8.8798   -0.4202   -3.6311 C   0  0  0  0  0  0  0  0  0  0  0  0
    8.7279   -1.2493   -2.9283 H   0  0  0  0  0  0  0  0  0  0  0  0
    9.2273   -0.8526   -4.5741 H   0  0  0  0  0  0  0  0  0  0  0  0
    9.6811    0.2061   -3.2278 H   0  0  0  0  0  0  0  0  0  0  0  0
    0.8831   -0.2036   -0.1801 H   0  0  0  0  0  0  0  0  0  0  0  0
  1  7  1  0  0  0  0
  1  6  2  0  0  0  0
  2  8  1  6  0  0  0
  2 26  1  0  0  0  0
  2  1  1  0  0  0  0
  3 11  1  1  0  0  0
  3  2  1  0  0  0  0
  3  4  1  0  0  0  0
  4  5  2  0  0  0  0
  5  6  1  0  0  0  0
  5 10  1  0  0  0  0
  6 31  1  0  0  0  0
  9  4  1  0  0  0  0
 12 11  1  0  0  0  0
 13 14  2  0  0  0  0
 13 18  1  0  0  0  0
 14 15  1  0  0  0  0
 15 27  1  0  0  0  0
 15 16  2  0  0  0  0
 16 21  1  0  0  0  0
 17 16  1  0  0  0  0
 17 22  1  0  0  0  0
 18 17  2  0  0  0  0
 19 13  1  0  0  0  0
 20 14  1  0  0  0  0
 23 18  1  0  0  0  0
 23 25  2  0  0  0  0
 23 26  1  0  0  0  0
 24 23  2  0  0  0  0
 27 30  1  0  0  0  0
 27 28  1  0  0  0  0
 29 27  1  0  0  0  0
M  RAD  3   3   2  11   2  12   3
M  END
