Coordinates from ORCA-job /home/ubuntu/works/orca-Ph-N2-OTs-B3LYP-6-31G_dp-scan-d09-49-n400/Ph-N2-OTs-B3LYP-6-31G_dp-scan-d09-49-n400
 OpenBabel01281705563D

 31 32  0  0  1  0  0  0  0  0999 V2000
    1.6899    0.2367   -2.0544 C   0  0  0  0  0  0  0  0  0  0  0  0
    1.6875    1.0607   -3.2869 C   0  0  1  0  0  0  0  0  0  0  0  0
    0.3759    1.6862   -3.4286 C   0  0  1  0  0  0  0  0  0  0  0  0
   -0.5897    1.8936   -2.4167 C   0  0  0  0  0  0  0  0  0  0  0  0
   -0.3927    1.2460   -1.2276 C   0  0  0  0  0  0  0  0  0  0  0  0
    0.7453    0.3786   -1.0863 C   0  0  0  0  0  0  0  0  0  0  0  0
    2.5222   -0.4483   -1.9284 H   0  0  0  0  0  0  0  0  0  0  0  0
    2.0431    0.5541   -4.1817 H   0  0  0  0  0  0  0  0  0  0  0  0
   -1.4513    2.5264   -2.5999 H   0  0  0  0  0  0  0  0  0  0  0  0
   -1.1003    1.3597   -0.4140 H   0  0  0  0  0  0  0  0  0  0  0  0
    0.0928    2.3371   -4.7858 N   0  0  0  0  0  0  0  0  0  0  0  0
   -0.1146    2.8037   -5.7871 N   0  0  0  0  0  0  0  0  0  0  0  0
    5.4826    0.6785   -4.9465 C   0  0  0  0  0  0  0  0  0  0  0  0
    6.6819   -0.0158   -4.7888 C   0  0  0  0  0  0  0  0  0  0  0  0
    7.6256    0.3750   -3.8283 C   0  0  0  0  0  0  0  0  0  0  0  0
    7.3429    1.4954   -3.0316 C   0  0  0  0  0  0  0  0  0  0  0  0
    6.1516    2.2024   -3.1761 C   0  0  0  0  0  0  0  0  0  0  0  0
    5.2241    1.7821   -4.1325 C   0  0  0  0  0  0  0  0  0  0  0  0
    4.7620    0.3893   -5.7040 H   0  0  0  0  0  0  0  0  0  0  0  0
    6.8904   -0.8704   -5.4278 H   0  0  0  0  0  0  0  0  0  0  0  0
    8.0709    1.8224   -2.2933 H   0  0  0  0  0  0  0  0  0  0  0  0
    5.9474    3.0792   -2.5707 H   0  0  0  0  0  0  0  0  0  0  0  0
    3.6846    2.6770   -4.3123 S   0  0  0  0  0  0  0  0  0  0  0  0
    3.0340    2.2159   -5.5503 O   0  0  0  0  0  0  0  0  0  0  0  0
    3.9504    4.0976   -4.1026 O   0  0  0  0  0  0  0  0  0  0  0  0
    2.8134    2.1711   -3.0521 O   0  0  0  0  0  0  0  0  0  0  0  0
    8.9079   -0.4014   -3.6446 C   0  0  0  0  0  0  0  0  0  0  0  0
    8.7654   -1.2337   -2.9436 H   0  0  0  0  0  0  0  0  0  0  0  0
    9.2562   -0.8284   -4.5898 H   0  0  0  0  0  0  0  0  0  0  0  0
    9.7051    0.2307   -3.2422 H   0  0  0  0  0  0  0  0  0  0  0  0
    0.8352   -0.2108   -0.1770 H   0  0  0  0  0  0  0  0  0  0  0  0
  1  7  1  0  0  0  0
  1  6  2  0  0  0  0
  2  8  1  6  0  0  0
  2 26  1  0  0  0  0
  2  1  1  0  0  0  0
  3 11  1  1  0  0  0
  3  2  1  0  0  0  0
  3  4  1  0  0  0  0
  4  5  2  0  0  0  0
  5  6  1  0  0  0  0
  5 10  1  0  0  0  0
  6 31  1  0  0  0  0
  9  4  1  0  0  0  0
 12 11  1  0  0  0  0
 13 14  2  0  0  0  0
 13 18  1  0  0  0  0
 14 15  1  0  0  0  0
 15 27  1  0  0  0  0
 15 16  2  0  0  0  0
 16 21  1  0  0  0  0
 17 16  1  0  0  0  0
 17 22  1  0  0  0  0
 18 17  2  0  0  0  0
 19 13  1  0  0  0  0
 20 14  1  0  0  0  0
 23 18  1  0  0  0  0
 23 25  2  0  0  0  0
 23 26  1  0  0  0  0
 24 23  2  0  0  0  0
 27 30  1  0  0  0  0
 27 28  1  0  0  0  0
 29 27  1  0  0  0  0
M  RAD  3   3   2  11   2  12   3
M  END
