Coordinates from ORCA-job /home/ubuntu/works/orca-Ph-N2-OTs-B3LYP-6-31G_dp-scan-d09-49-n400/Ph-N2-OTs-B3LYP-6-31G_dp-scan-d09-49-n400
 OpenBabel01281705563D

 31 30  0  0  0  0  0  0  0  0999 V2000
    1.6098    1.3410   -0.9440 C   0  0  0  0  0  0  0  0  0  0  0  0
    1.4554    1.7320   -2.2893 C   0  0  0  0  0  0  0  0  0  0  0  0
    0.5026    1.2079   -2.9255 C   0  0  0  0  0  0  0  0  0  0  0  0
   -0.4894    0.3011   -2.6798 C   0  0  0  0  0  0  0  0  0  0  0  0
   -0.3475   -0.1075   -1.3308 C   0  0  0  0  0  0  0  0  0  0  0  0
    0.6667    0.3969   -0.4964 C   0  0  0  0  0  0  0  0  0  0  0  0
    2.3891    1.7207   -0.2899 H   0  0  0  0  0  0  0  0  0  0  0  0
    2.6768    2.9326   -3.2260 H   0  0  0  0  0  0  0  0  0  0  0  0
   -1.2569   -0.0617   -3.3508 H   0  0  0  0  0  0  0  0  0  0  0  0
   -1.0549   -0.8344   -0.9387 H   0  0  0  0  0  0  0  0  0  0  0  0
   -0.3051    1.8494   -5.6734 N   0  0  0  0  0  0  0  0  0  0  0  0
   -0.1496    2.5115   -6.5443 N   0  0  0  0  0  0  0  0  0  0  0  0
    6.5770    2.5675   -4.3704 C   0  0  0  0  0  0  0  0  0  0  0  0
    7.6550    1.7678   -3.9962 C   0  0  0  0  0  0  0  0  0  0  0  0
    7.4976    0.3910   -3.7783 C   0  0  0  0  0  0  0  0  0  0  0  0
    6.2253   -0.1727   -3.9559 C   0  0  0  0  0  0  0  0  0  0  0  0
    5.1351    0.6109   -4.3298 C   0  0  0  0  0  0  0  0  0  0  0  0
    5.3209    1.9799   -4.5301 C   0  0  0  0  0  0  0  0  0  0  0  0
    6.7038    3.6284   -4.5577 H   0  0  0  0  0  0  0  0  0  0  0  0
    8.6370    2.2190   -3.8776 H   0  0  0  0  0  0  0  0  0  0  0  0
    6.0873   -1.2407   -3.8054 H   0  0  0  0  0  0  0  0  0  0  0  0
    4.1560    0.1702   -4.4853 H   0  0  0  0  0  0  0  0  0  0  0  0
    3.9294    3.0008   -4.9962 S   0  0  0  0  0  0  0  0  0  0  0  0
    2.8992    2.1378   -5.5790 O   0  0  0  0  0  0  0  0  0  0  0  0
    4.4323    4.1738   -5.6980 O   0  0  0  0  0  0  0  0  0  0  0  0
    3.3804    3.5462   -3.5662 O   0  0  0  0  0  0  0  0  0  0  0  0
    8.6664   -0.4623   -3.3468 C   0  0  0  0  0  0  0  0  0  0  0  0
    8.5905   -1.4777   -3.7468 H   0  0  0  0  0  0  0  0  0  0  0  0
    9.6172   -0.0356   -3.6793 H   0  0  0  0  0  0  0  0  0  0  0  0
    8.7094   -0.5452   -2.2532 H   0  0  0  0  0  0  0  0  0  0  0  0
    0.7229    0.0421    0.5295 H   0  0  0  0  0  0  0  0  0  0  0  0
  1  6  1  0  0  0  0
  1  7  1  0  0  0  0
  2  1  2  0  0  0  0
  3  4  2  0  0  0  0
  3  2  1  0  0  0  0
  4  5  1  0  0  0  0
  5 10  1  0  0  0  0
  5  6  2  0  0  0  0
  6 31  1  0  0  0  0
  9  4  1  0  0  0  0
 12 11  3  0  0  0  0
 13 14  1  0  0  0  0
 14 20  1  0  0  0  0
 14 15  2  0  0  0  0
 15 27  1  0  0  0  0
 16 21  1  0  0  0  0
 16 15  1  0  0  0  0
 17 16  2  0  0  0  0
 18 13  2  0  0  0  0
 18 17  1  0  0  0  0
 19 13  1  0  0  0  0
 22 17  1  0  0  0  0
 23 18  1  0  0  0  0
 23 26  1  0  0  0  0
 24 23  2  0  0  0  0
 25 23  2  0  0  0  0
 26  8  1  0  0  0  0
 27 30  1  0  0  0  0
 28 27  1  0  0  0  0
 29 27  1  0  0  0  0
M  RAD  2   2   2   3   2
M  END
