Coordinates from ORCA-job /home/ubuntu/works/orca-Ph-N2-OTs-B3LYP-6-31G_dp-scan-d09-49-n400/Ph-N2-OTs-B3LYP-6-31G_dp-scan-d09-49-n400
 OpenBabel01281705563D

 31 30  0  0  0  0  0  0  0  0999 V2000
    1.6119    1.3492   -0.9265 C   0  0  0  0  0  0  0  0  0  0  0  0
    1.4663    1.7343   -2.2744 C   0  0  0  0  0  0  0  0  0  0  0  0
    0.5228    1.2019   -2.9175 C   0  0  0  0  0  0  0  0  0  0  0  0
   -0.4660    0.2899   -2.6785 C   0  0  0  0  0  0  0  0  0  0  0  0
   -0.3330   -0.1129   -1.3266 C   0  0  0  0  0  0  0  0  0  0  0  0
    0.6704    0.4006   -0.4848 C   0  0  0  0  0  0  0  0  0  0  0  0
    2.3828    1.7359   -0.2667 H   0  0  0  0  0  0  0  0  0  0  0  0
    2.6823    2.9416   -3.2157 H   0  0  0  0  0  0  0  0  0  0  0  0
   -1.2251   -0.0802   -3.3550 H   0  0  0  0  0  0  0  0  0  0  0  0
   -1.0391   -0.8431   -0.9380 H   0  0  0  0  0  0  0  0  0  0  0  0
   -0.3000    1.8354   -5.7269 N   0  0  0  0  0  0  0  0  0  0  0  0
   -0.1517    2.4967   -6.5998 N   0  0  0  0  0  0  0  0  0  0  0  0
    6.5744    2.5690   -4.3674 C   0  0  0  0  0  0  0  0  0  0  0  0
    7.6500    1.7650   -3.9954 C   0  0  0  0  0  0  0  0  0  0  0  0
    7.4883    0.3884   -3.7802 C   0  0  0  0  0  0  0  0  0  0  0  0
    6.2141   -0.1709   -3.9582 C   0  0  0  0  0  0  0  0  0  0  0  0
    5.1263    0.6169   -4.3300 C   0  0  0  0  0  0  0  0  0  0  0  0
    5.3163    1.9858   -4.5276 C   0  0  0  0  0  0  0  0  0  0  0  0
    6.7045    3.6299   -4.5527 H   0  0  0  0  0  0  0  0  0  0  0  0
    8.6335    2.2128   -3.8764 H   0  0  0  0  0  0  0  0  0  0  0  0
    6.0727   -1.2388   -3.8098 H   0  0  0  0  0  0  0  0  0  0  0  0
    4.1457    0.1798   -4.4859 H   0  0  0  0  0  0  0  0  0  0  0  0
    3.9280    3.0122   -4.9909 S   0  0  0  0  0  0  0  0  0  0  0  0
    2.8947    2.1536   -5.5750 O   0  0  0  0  0  0  0  0  0  0  0  0
    4.4341    4.1850   -5.6906 O   0  0  0  0  0  0  0  0  0  0  0  0
    3.3821    3.5572   -3.5593 O   0  0  0  0  0  0  0  0  0  0  0  0
    8.6546   -0.4696   -3.3510 C   0  0  0  0  0  0  0  0  0  0  0  0
    8.5768   -1.4830   -3.7556 H   0  0  0  0  0  0  0  0  0  0  0  0
    9.6067   -0.0437   -3.6804 H   0  0  0  0  0  0  0  0  0  0  0  0
    8.6958   -0.5575   -2.2577 H   0  0  0  0  0  0  0  0  0  0  0  0
    0.7194    0.0493    0.5428 H   0  0  0  0  0  0  0  0  0  0  0  0
  1  6  1  0  0  0  0
  1  7  1  0  0  0  0
  2  1  2  0  0  0  0
  3  4  2  0  0  0  0
  3  2  1  0  0  0  0
  4  5  1  0  0  0  0
  5 10  1  0  0  0  0
  5  6  2  0  0  0  0
  6 31  1  0  0  0  0
  9  4  1  0  0  0  0
 12 11  3  0  0  0  0
 13 14  1  0  0  0  0
 14 20  1  0  0  0  0
 14 15  2  0  0  0  0
 15 27  1  0  0  0  0
 16 21  1  0  0  0  0
 16 15  1  0  0  0  0
 17 16  2  0  0  0  0
 18 13  2  0  0  0  0
 18 17  1  0  0  0  0
 19 13  1  0  0  0  0
 22 17  1  0  0  0  0
 23 18  1  0  0  0  0
 23 26  1  0  0  0  0
 24 23  2  0  0  0  0
 25 23  2  0  0  0  0
 26  8  1  0  0  0  0
 27 30  1  0  0  0  0
 28 27  1  0  0  0  0
 29 27  1  0  0  0  0
M  RAD  2   2   2   3   2
M  END
