Coordinates from ORCA-job /home/ubuntu/works/orca-Ph-N2-OTs-B3LYP-6-31G_dp-scan-d09-49-n400/Ph-N2-OTs-B3LYP-6-31G_dp-scan-d09-49-n400
 OpenBabel01281705563D

 31 31  0  0  0  0  0  0  0  0999 V2000
    0.6466    1.4019   -0.7135 C   0  0  0  0  0  0  0  0  0  0  0  0
    1.1586    2.2506   -1.6958 C   0  0  0  0  0  0  0  0  0  0  0  0
    1.7460    1.6883   -2.8298 C   0  0  0  0  0  0  0  0  0  0  0  0
    1.8248    0.3062   -3.0008 C   0  0  0  0  0  0  0  0  0  0  0  0
    1.3010   -0.5306   -2.0140 C   0  0  0  0  0  0  0  0  0  0  0  0
    0.7148    0.0148   -0.8692 C   0  0  0  0  0  0  0  0  0  0  0  0
    0.1884    1.8284    0.1744 H   0  0  0  0  0  0  0  0  0  0  0  0
    1.1146    3.3287   -1.5946 H   0  0  0  0  0  0  0  0  0  0  0  0
    2.2808   -0.0922   -3.9011 H   0  0  0  0  0  0  0  0  0  0  0  0
    1.3522   -1.6085   -2.1414 H   0  0  0  0  0  0  0  0  0  0  0  0
    2.3596    2.6849   -7.4020 N   0  0  0  0  0  0  0  0  0  0  0  0
    1.4362    3.2816   -7.5135 N   0  0  0  0  0  0  0  0  0  0  0  0
    5.2475    1.6885   -5.0997 C   0  0  0  0  0  0  0  0  0  0  0  0
    6.2289    0.7068   -5.2070 C   0  0  0  0  0  0  0  0  0  0  0  0
    6.8463    0.1662   -4.0676 C   0  0  0  0  0  0  0  0  0  0  0  0
    6.4506    0.6329   -2.8062 C   0  0  0  0  0  0  0  0  0  0  0  0
    5.4692    1.6143   -2.6749 C   0  0  0  0  0  0  0  0  0  0  0  0
    4.8767    2.1331   -3.8274 C   0  0  0  0  0  0  0  0  0  0  0  0
    4.7784    2.1090   -5.9825 H   0  0  0  0  0  0  0  0  0  0  0  0
    6.5242    0.3558   -6.1924 H   0  0  0  0  0  0  0  0  0  0  0  0
    6.9177    0.2254   -1.9137 H   0  0  0  0  0  0  0  0  0  0  0  0
    5.1708    1.9835   -1.7001 H   0  0  0  0  0  0  0  0  0  0  0  0
    3.6131    3.3820   -3.6763 S   0  0  0  0  0  0  0  0  0  0  0  0
    2.2025    2.5044   -3.8721 O   0  0  0  0  0  0  0  0  0  0  0  0
    3.6249    4.2368   -4.8543 O   0  0  0  0  0  0  0  0  0  0  0  0
    3.6459    3.9260   -2.3217 O   0  0  0  0  0  0  0  0  0  0  0  0
    7.9337   -0.8721   -4.2009 C   0  0  0  0  0  0  0  0  0  0  0  0
    7.9824   -1.5180   -3.3190 H   0  0  0  0  0  0  0  0  0  0  0  0
    7.7783   -1.5034   -5.0810 H   0  0  0  0  0  0  0  0  0  0  0  0
    8.9161   -0.3959   -4.3113 H   0  0  0  0  0  0  0  0  0  0  0  0
    0.3088   -0.6386   -0.1023 H   0  0  0  0  0  0  0  0  0  0  0  0
  1  7  1  0  0  0  0
  2  8  1  0  0  0  0
  2  1  2  0  0  0  0
  3  2  1  0  0  0  0
  4  3  2  0  0  0  0
  4  5  1  0  0  0  0
  5  6  2  0  0  0  0
  6  1  1  0  0  0  0
  6 31  1  0  0  0  0
  9  4  1  0  0  0  0
 10  5  1  0  0  0  0
 12 11  3  0  0  0  0
 13 18  1  0  0  0  0
 14 13  2  0  0  0  0
 14 15  1  0  0  0  0
 15 16  2  0  0  0  0
 16 17  1  0  0  0  0
 16 21  1  0  0  0  0
 17 22  1  0  0  0  0
 18 23  1  0  0  0  0
 18 17  2  0  0  0  0
 19 13  1  0  0  0  0
 20 14  1  0  0  0  0
 23 26  2  0  0  0  0
 24 23  1  0  0  0  0
 24  3  1  0  0  0  0
 25 23  2  0  0  0  0
 27 15  1  0  0  0  0
 27 28  1  0  0  0  0
 29 27  1  0  0  0  0
 30 27  1  0  0  0  0
M  END
