Coordinates from ORCA-job /home/ubuntu/works/orca-Ph-N2-OTs-B3LYP-6-31G_dp-scan-d09-49-n400/Ph-N2-OTs-B3LYP-6-31G_dp-scan-d09-49-n400
 OpenBabel01281705563D

 31 32  0  0  1  0  0  0  0  0999 V2000
    1.8593    0.3255   -2.1198 C   0  0  0  0  0  0  0  0  0  0  0  0
    1.7639    1.1728   -3.3436 C   0  0  1  0  0  0  0  0  0  0  0  0
    0.3841    1.7406   -3.5000 C   0  0  0  0  0  0  0  0  0  0  0  0
   -0.5451    1.8263   -2.4014 C   0  0  0  0  0  0  0  0  0  0  0  0
   -0.2698    1.1730   -1.2440 C   0  0  0  0  0  0  0  0  0  0  0  0
    0.9318    0.3737   -1.1379 C   0  0  0  0  0  0  0  0  0  0  0  0
    2.7472   -0.2921   -2.0266 H   0  0  0  0  0  0  0  0  0  0  0  0
    2.0864    0.6558   -4.2489 H   0  0  0  0  0  0  0  0  0  0  0  0
   -1.4554    2.4029   -2.5346 H   0  0  0  0  0  0  0  0  0  0  0  0
   -0.9587    1.2229   -0.4075 H   0  0  0  0  0  0  0  0  0  0  0  0
    0.0552    2.2315   -4.6591 N   0  0  0  0  0  0  0  0  0  0  0  0
   -0.2277    2.6590   -5.6768 N   0  0  0  0  0  0  0  0  0  0  0  0
    5.4503    0.7210   -4.9802 C   0  0  0  0  0  0  0  0  0  0  0  0
    6.6212   -0.0103   -4.7796 C   0  0  0  0  0  0  0  0  0  0  0  0
    7.5343    0.3428   -3.7764 C   0  0  0  0  0  0  0  0  0  0  0  0
    7.2514    1.4632   -2.9786 C   0  0  0  0  0  0  0  0  0  0  0  0
    6.0894    2.2072   -3.1646 C   0  0  0  0  0  0  0  0  0  0  0  0
    5.1918    1.8233   -4.1646 C   0  0  0  0  0  0  0  0  0  0  0  0
    4.7542    0.4612   -5.7706 H   0  0  0  0  0  0  0  0  0  0  0  0
    6.8312   -0.8640   -5.4190 H   0  0  0  0  0  0  0  0  0  0  0  0
    7.9570    1.7605   -2.2068 H   0  0  0  0  0  0  0  0  0  0  0  0
    5.8857    3.0833   -2.5580 H   0  0  0  0  0  0  0  0  0  0  0  0
    3.6949    2.7707   -4.4068 S   0  0  0  0  0  0  0  0  0  0  0  0
    3.0622    2.3181   -5.6514 O   0  0  0  0  0  0  0  0  0  0  0  0
    3.9874    4.1787   -4.1703 O   0  0  0  0  0  0  0  0  0  0  0  0
    2.7616    2.3057   -3.1484 O   0  0  0  0  0  0  0  0  0  0  0  0
    8.7856   -0.4708   -3.5476 C   0  0  0  0  0  0  0  0  0  0  0  0
    8.6077   -1.2639   -2.8101 H   0  0  0  0  0  0  0  0  0  0  0  0
    9.1241   -0.9524   -4.4696 H   0  0  0  0  0  0  0  0  0  0  0  0
    9.6026    0.1495   -3.1671 H   0  0  0  0  0  0  0  0  0  0  0  0
    1.0756   -0.2251   -0.2418 H   0  0  0  0  0  0  0  0  0  0  0  0
  1  7  1  0  0  0  0
  1  6  2  0  0  0  0
  2  8  1  6  0  0  0
  2 26  1  0  0  0  0
  2  1  1  0  0  0  0
  3  2  1  0  0  0  0
  3  4  2  0  0  0  0
  4  5  1  0  0  0  0
  5  6  1  0  0  0  0
  5 10  1  0  0  0  0
  6 31  1  0  0  0  0
  9  4  1  0  0  0  0
 11  3  1  0  0  0  0
 12 11  1  0  0  0  0
 13 14  2  0  0  0  0
 13 18  1  0  0  0  0
 14 15  1  0  0  0  0
 15 27  1  0  0  0  0
 15 16  2  0  0  0  0
 16 21  1  0  0  0  0
 17 16  1  0  0  0  0
 17 22  1  0  0  0  0
 18 17  2  0  0  0  0
 19 13  1  0  0  0  0
 20 14  1  0  0  0  0
 23 25  2  0  0  0  0
 23 18  1  0  0  0  0
 23 26  1  0  0  0  0
 24 23  2  0  0  0  0
 27 30  1  0  0  0  0
 27 28  1  0  0  0  0
 29 27  1  0  0  0  0
M  RAD  3   5   2  11   2  12   3
M  END
