Coordinates from ORCA-job /home/ubuntu/works/orca-Ph-N2-OTs-B3LYP-6-31G_dp-scan-d09-49-n400/Ph-N2-OTs-B3LYP-6-31G_dp-scan-d09-49-n400
 OpenBabel01281705563D

 31 32  0  0  1  0  0  0  0  0999 V2000
    2.0198    0.3305   -2.4520 C   0  0  0  0  0  0  0  0  0  0  0  0
    1.7266    1.2984   -3.5498 C   0  0  1  0  0  0  0  0  0  0  0  0
    0.3259    1.8558   -3.4457 C   0  0  0  0  0  0  0  0  0  0  0  0
   -0.4294    1.7699   -2.2107 C   0  0  0  0  0  0  0  0  0  0  0  0
    0.0205    0.9933   -1.1962 C   0  0  0  0  0  0  0  0  0  0  0  0
    1.2439    0.2315   -1.3521 C   0  0  0  0  0  0  0  0  0  0  0  0
    2.9274   -0.2559   -2.5563 H   0  0  0  0  0  0  0  0  0  0  0  0
    1.9040    0.8845   -4.5448 H   0  0  0  0  0  0  0  0  0  0  0  0
   -1.3576    2.3285   -2.1412 H   0  0  0  0  0  0  0  0  0  0  0  0
   -0.5429    0.9193   -0.2721 H   0  0  0  0  0  0  0  0  0  0  0  0
   -0.1348    2.4432   -4.4243 N   0  0  0  0  0  0  0  0  0  0  0  0
   -0.5541    2.9875   -5.3407 N   0  0  0  0  0  0  0  0  0  0  0  0
    5.4212    0.6591   -4.9600 C   0  0  0  0  0  0  0  0  0  0  0  0
    6.5531   -0.0895   -4.6381 C   0  0  0  0  0  0  0  0  0  0  0  0
    7.4287    0.3196   -3.6228 C   0  0  0  0  0  0  0  0  0  0  0  0
    7.1495    1.5139   -2.9394 C   0  0  0  0  0  0  0  0  0  0  0  0
    6.0259    2.2761   -3.2471 C   0  0  0  0  0  0  0  0  0  0  0  0
    5.1645    1.8357   -4.2552 C   0  0  0  0  0  0  0  0  0  0  0  0
    4.7546    0.3535   -5.7596 H   0  0  0  0  0  0  0  0  0  0  0  0
    6.7620   -1.0017   -5.1908 H   0  0  0  0  0  0  0  0  0  0  0  0
    7.8266    1.8540   -2.1597 H   0  0  0  0  0  0  0  0  0  0  0  0
    5.8244    3.2073   -2.7282 H   0  0  0  0  0  0  0  0  0  0  0  0
    3.7117    2.8008   -4.6474 S   0  0  0  0  0  0  0  0  0  0  0  0
    3.1367    2.2815   -5.8923 O   0  0  0  0  0  0  0  0  0  0  0  0
    4.0264    4.2134   -4.4811 O   0  0  0  0  0  0  0  0  0  0  0  0
    2.6942    2.4493   -3.4122 O   0  0  0  0  0  0  0  0  0  0  0  0
    8.6354   -0.5120   -3.2594 C   0  0  0  0  0  0  0  0  0  0  0  0
    8.3961   -1.2172   -2.4531 H   0  0  0  0  0  0  0  0  0  0  0  0
    8.9893   -1.0987   -4.1121 H   0  0  0  0  0  0  0  0  0  0  0  0
    9.4616    0.1138   -2.9088 H   0  0  0  0  0  0  0  0  0  0  0  0
    1.5285   -0.4548   -0.5584 H   0  0  0  0  0  0  0  0  0  0  0  0
  1  6  2  0  0  0  0
  2  8  1  6  0  0  0
  2  3  1  0  0  0  0
  2 26  1  0  0  0  0
  2  1  1  0  0  0  0
  3  4  2  0  0  0  0
  4  9  1  0  0  0  0
  4  5  1  0  0  0  0
  5 10  1  0  0  0  0
  6  5  1  0  0  0  0
  6 31  1  0  0  0  0
  7  1  1  0  0  0  0
 11  3  1  0  0  0  0
 12 11  1  0  0  0  0
 13 14  2  0  0  0  0
 13 18  1  0  0  0  0
 14 15  1  0  0  0  0
 15 27  1  0  0  0  0
 15 16  2  0  0  0  0
 16 21  1  0  0  0  0
 17 16  1  0  0  0  0
 17 22  1  0  0  0  0
 18 17  2  0  0  0  0
 19 13  1  0  0  0  0
 20 14  1  0  0  0  0
 23 25  2  0  0  0  0
 23 18  1  0  0  0  0
 23 26  1  0  0  0  0
 24 23  2  0  0  0  0
 27 30  1  0  0  0  0
 27 28  1  0  0  0  0
 29 27  1  0  0  0  0
M  RAD  3   5   2  11   2  12   3
M  END
