Coordinates from ORCA-job /home/ubuntu/works/orca-Ph-N2-OTs-B3LYP-6-31G_dp-scan-d09-49-n400/Ph-N2-OTs-B3LYP-6-31G_dp-scan-d09-49-n400
 OpenBabel01281705563D

 31 31  0  0  0  0  0  0  0  0999 V2000
    0.1941    0.8563   -0.8276 C   0  0  0  0  0  0  0  0  0  0  0  0
    1.0013    1.3134   -1.8832 C   0  0  0  0  0  0  0  0  0  0  0  0
    0.3168    1.4477   -3.0574 C   0  0  0  0  0  0  0  0  0  0  0  0
   -1.0031    1.2065   -3.3613 C   0  0  0  0  0  0  0  0  0  0  0  0
   -1.7577    0.7412   -2.2763 C   0  0  0  0  0  0  0  0  0  0  0  0
   -1.1595    0.5702   -1.0236 C   0  0  0  0  0  0  0  0  0  0  0  0
    0.6482    0.7258    0.1499 H   0  0  0  0  0  0  0  0  0  0  0  0
    2.0624    1.5515   -1.7692 H   0  0  0  0  0  0  0  0  0  0  0  0
   -1.4235    1.3597   -4.3471 H   0  0  0  0  0  0  0  0  0  0  0  0
   -2.8093    0.5162   -2.4246 H   0  0  0  0  0  0  0  0  0  0  0  0
    1.2287    2.0665   -4.4452 N   0  0  0  0  0  0  0  0  0  0  0  0
    1.1271    2.6141   -5.4129 N   0  0  0  0  0  0  0  0  0  0  0  0
    6.3160    2.0173   -4.9648 C   0  0  0  0  0  0  0  0  0  0  0  0
    7.5667    1.4974   -5.2932 C   0  0  0  0  0  0  0  0  0  0  0  0
    8.2150    0.5807   -4.4524 C   0  0  0  0  0  0  0  0  0  0  0  0
    7.5742    0.1966   -3.2657 C   0  0  0  0  0  0  0  0  0  0  0  0
    6.3236    0.7077   -2.9235 C   0  0  0  0  0  0  0  0  0  0  0  0
    5.6989    1.6166   -3.7788 C   0  0  0  0  0  0  0  0  0  0  0  0
    5.8211    2.7379   -5.6074 H   0  0  0  0  0  0  0  0  0  0  0  0
    8.0494    1.8105   -6.2159 H   0  0  0  0  0  0  0  0  0  0  0  0
    8.0638   -0.5096   -2.5989 H   0  0  0  0  0  0  0  0  0  0  0  0
    5.8355    0.4219   -1.9979 H   0  0  0  0  0  0  0  0  0  0  0  0
    4.0702    2.2520   -3.3728 S   0  0  0  0  0  0  0  0  0  0  0  0
    3.1273    1.2018   -3.9859 O   0  0  0  0  0  0  0  0  0  0  0  0
    3.9158    3.5654   -4.0269 O   0  0  0  0  0  0  0  0  0  0  0  0
    3.9599    2.2324   -1.8896 O   0  0  0  0  0  0  0  0  0  0  0  0
    9.5851    0.0473   -4.8003 C   0  0  0  0  0  0  0  0  0  0  0  0
    9.7473   -0.9489   -4.3777 H   0  0  0  0  0  0  0  0  0  0  0  0
    9.7273   -0.0159   -5.8837 H   0  0  0  0  0  0  0  0  0  0  0  0
   10.3744    0.7000   -4.4060 H   0  0  0  0  0  0  0  0  0  0  0  0
   -1.7570    0.2105   -0.1917 H   0  0  0  0  0  0  0  0  0  0  0  0
  1  7  1  0  0  0  0
  2  8  1  0  0  0  0
  2  1  2  0  0  0  0
  3  2  1  0  0  0  0
  4  3  2  0  0  0  0
  4  5  1  0  0  0  0
  5  6  2  0  0  0  0
  6  1  1  0  0  0  0
  6 31  1  0  0  0  0
  9  4  1  0  0  0  0
 10  5  1  0  0  0  0
 11  3  1  0  0  0  0
 12 11  2  0  0  0  0
 13 18  1  0  0  0  0
 14 13  2  0  0  0  0
 14 15  1  0  0  0  0
 15 16  2  0  0  0  0
 16 17  1  0  0  0  0
 16 21  1  0  0  0  0
 17 22  1  0  0  0  0
 18 23  1  0  0  0  0
 18 17  2  0  0  0  0
 19 13  1  0  0  0  0
 20 14  1  0  0  0  0
 23 26  1  0  0  0  0
 24 23  2  0  0  0  0
 25 23  2  0  0  0  0
 27 15  1  0  0  0  0
 27 30  1  0  0  0  0
 27 28  1  0  0  0  0
 29 27  1  0  0  0  0
M  RAD  2  12   2  26   2
M  END
