Coordinates from ORCA-job /home/ubuntu/works/orca-Ph-N2-OTs-B3LYP-6-31G_dp-scan-d09-49-n400/Ph-N2-OTs-B3LYP-6-31G_dp-scan-d09-49-n400
 OpenBabel01281705563D

 31 31  0  0  0  0  0  0  0  0999 V2000
    0.6483    1.3954   -0.6845 C   0  0  0  0  0  0  0  0  0  0  0  0
    1.1499    2.2389   -1.6768 C   0  0  0  0  0  0  0  0  0  0  0  0
    1.7354    1.6706   -2.8088 C   0  0  0  0  0  0  0  0  0  0  0  0
    1.8225    0.2876   -2.9681 C   0  0  0  0  0  0  0  0  0  0  0  0
    1.3092   -0.5440   -1.9713 C   0  0  0  0  0  0  0  0  0  0  0  0
    0.7250    0.0075   -0.8285 C   0  0  0  0  0  0  0  0  0  0  0  0
    0.1916    1.8266    0.2019 H   0  0  0  0  0  0  0  0  0  0  0  0
    1.0991    3.3175   -1.5848 H   0  0  0  0  0  0  0  0  0  0  0  0
    2.2768   -0.1157   -3.8672 H   0  0  0  0  0  0  0  0  0  0  0  0
    1.3671   -1.6226   -2.0896 H   0  0  0  0  0  0  0  0  0  0  0  0
    2.4749    2.7730   -7.5256 N   0  0  0  0  0  0  0  0  0  0  0  0
    1.5686    3.3908   -7.6602 N   0  0  0  0  0  0  0  0  0  0  0  0
    5.2255    1.6781   -5.1043 C   0  0  0  0  0  0  0  0  0  0  0  0
    6.2117    0.7011   -5.2122 C   0  0  0  0  0  0  0  0  0  0  0  0
    6.8365    0.1676   -4.0735 C   0  0  0  0  0  0  0  0  0  0  0  0
    6.4435    0.6366   -2.8121 C   0  0  0  0  0  0  0  0  0  0  0  0
    5.4577    1.6133   -2.6801 C   0  0  0  0  0  0  0  0  0  0  0  0
    4.8577    2.1251   -3.8319 C   0  0  0  0  0  0  0  0  0  0  0  0
    4.7510    2.0931   -5.9868 H   0  0  0  0  0  0  0  0  0  0  0  0
    6.5048    0.3482   -6.1975 H   0  0  0  0  0  0  0  0  0  0  0  0
    6.9164    0.2346   -1.9201 H   0  0  0  0  0  0  0  0  0  0  0  0
    5.1614    1.9844   -1.7054 H   0  0  0  0  0  0  0  0  0  0  0  0
    3.5879    3.3675   -3.6796 S   0  0  0  0  0  0  0  0  0  0  0  0
    2.1813    2.4808   -3.8601 O   0  0  0  0  0  0  0  0  0  0  0  0
    3.5871    4.2154   -4.8626 O   0  0  0  0  0  0  0  0  0  0  0  0
    3.6269    3.9199   -2.3285 O   0  0  0  0  0  0  0  0  0  0  0  0
    7.9288   -0.8655   -4.2076 C   0  0  0  0  0  0  0  0  0  0  0  0
    7.9813   -1.5109   -3.3256 H   0  0  0  0  0  0  0  0  0  0  0  0
    7.7756   -1.4977   -5.0874 H   0  0  0  0  0  0  0  0  0  0  0  0
    8.9088   -0.3846   -4.3189 H   0  0  0  0  0  0  0  0  0  0  0  0
    0.3272   -0.6418   -0.0539 H   0  0  0  0  0  0  0  0  0  0  0  0
  1  7  1  0  0  0  0
  2  8  1  0  0  0  0
  2  1  2  0  0  0  0
  3  2  1  0  0  0  0
  4  3  2  0  0  0  0
  4  5  1  0  0  0  0
  5  6  2  0  0  0  0
  6  1  1  0  0  0  0
  6 31  1  0  0  0  0
  9  4  1  0  0  0  0
 10  5  1  0  0  0  0
 12 11  3  0  0  0  0
 13 18  1  0  0  0  0
 14 13  2  0  0  0  0
 14 15  1  0  0  0  0
 15 16  2  0  0  0  0
 16 17  1  0  0  0  0
 16 21  1  0  0  0  0
 17 22  1  0  0  0  0
 18 23  1  0  0  0  0
 18 17  2  0  0  0  0
 19 13  1  0  0  0  0
 20 14  1  0  0  0  0
 23 26  2  0  0  0  0
 24 23  1  0  0  0  0
 24  3  1  0  0  0  0
 25 23  2  0  0  0  0
 27 15  1  0  0  0  0
 27 28  1  0  0  0  0
 29 27  1  0  0  0  0
 30 27  1  0  0  0  0
M  END
