Coordinates from ORCA-job /home/ubuntu/works/orca-Ph-N2-OTs-B3LYP-6-31G_dp-scan-d09-49-n400/Ph-N2-OTs-B3LYP-6-31G_dp-scan-d09-49-n400
 OpenBabel01281705563D

 31 31  0  0  0  0  0  0  0  0999 V2000
    0.7125    1.3892   -0.7424 C   0  0  0  0  0  0  0  0  0  0  0  0
    1.2270    2.2678   -1.6971 C   0  0  0  0  0  0  0  0  0  0  0  0
    1.7726    1.7416   -2.8689 C   0  0  0  0  0  0  0  0  0  0  0  0
    1.8061    0.3671   -3.1045 C   0  0  0  0  0  0  0  0  0  0  0  0
    1.2795   -0.4989   -2.1449 C   0  0  0  0  0  0  0  0  0  0  0  0
    0.7358    0.0094   -0.9626 C   0  0  0  0  0  0  0  0  0  0  0  0
    0.2868    1.7873    0.1742 H   0  0  0  0  0  0  0  0  0  0  0  0
    1.2168    3.3407   -1.5459 H   0  0  0  0  0  0  0  0  0  0  0  0
    2.2302   -0.0015   -4.0326 H   0  0  0  0  0  0  0  0  0  0  0  0
    1.2950   -1.5707   -2.3230 H   0  0  0  0  0  0  0  0  0  0  0  0
    2.1104    2.3463   -7.1011 N   0  0  0  0  0  0  0  0  0  0  0  0
    1.2601    3.0165   -7.3226 N   0  0  0  0  0  0  0  0  0  0  0  0
    5.2886    1.7317   -5.0885 C   0  0  0  0  0  0  0  0  0  0  0  0
    6.2549    0.7345   -5.1883 C   0  0  0  0  0  0  0  0  0  0  0  0
    6.8400    0.1703   -4.0433 C   0  0  0  0  0  0  0  0  0  0  0  0
    6.4276    0.6298   -2.7846 C   0  0  0  0  0  0  0  0  0  0  0  0
    5.4611    1.6267   -2.6612 C   0  0  0  0  0  0  0  0  0  0  0  0
    4.9001    2.1684   -3.8189 C   0  0  0  0  0  0  0  0  0  0  0  0
    4.8444    2.1712   -5.9747 H   0  0  0  0  0  0  0  0  0  0  0  0
    6.5638    0.3898   -6.1717 H   0  0  0  0  0  0  0  0  0  0  0  0
    6.8700    0.2043   -1.8880 H   0  0  0  0  0  0  0  0  0  0  0  0
    5.1509    1.9906   -1.6881 H   0  0  0  0  0  0  0  0  0  0  0  0
    3.6563    3.4383   -3.6785 S   0  0  0  0  0  0  0  0  0  0  0  0
    2.2305    2.5886   -3.8850 O   0  0  0  0  0  0  0  0  0  0  0  0
    3.6908    4.2923   -4.8565 O   0  0  0  0  0  0  0  0  0  0  0  0
    3.6886    3.9816   -2.3234 O   0  0  0  0  0  0  0  0  0  0  0  0
    7.9118   -0.8852   -4.1677 C   0  0  0  0  0  0  0  0  0  0  0  0
    7.9411   -1.5335   -3.2869 H   0  0  0  0  0  0  0  0  0  0  0  0
    7.7552   -1.5122   -5.0507 H   0  0  0  0  0  0  0  0  0  0  0  0
    8.9028   -0.4246   -4.2674 H   0  0  0  0  0  0  0  0  0  0  0  0
    0.3280   -0.6668   -0.2169 H   0  0  0  0  0  0  0  0  0  0  0  0
  1  7  1  0  0  0  0
  2  8  1  0  0  0  0
  2  1  2  0  0  0  0
  3  2  1  0  0  0  0
  4  3  2  0  0  0  0
  4  5  1  0  0  0  0
  5  6  2  0  0  0  0
  6  1  1  0  0  0  0
  6 31  1  0  0  0  0
  9  4  1  0  0  0  0
 10  5  1  0  0  0  0
 12 11  3  0  0  0  0
 13 18  1  0  0  0  0
 14 13  2  0  0  0  0
 14 15  1  0  0  0  0
 15 16  2  0  0  0  0
 16 17  1  0  0  0  0
 16 21  1  0  0  0  0
 17 22  1  0  0  0  0
 18 23  1  0  0  0  0
 18 17  2  0  0  0  0
 19 13  1  0  0  0  0
 20 14  1  0  0  0  0
 23 26  2  0  0  0  0
 24 23  1  0  0  0  0
 24  3  1  0  0  0  0
 25 23  2  0  0  0  0
 27 15  1  0  0  0  0
 27 28  1  0  0  0  0
 29 27  1  0  0  0  0
 30 27  1  0  0  0  0
M  END
