Coordinates from ORCA-job /home/ubuntu/works/orca-Ph-N2-OTs-B3LYP-6-31G_dp-scan-d09-49-n400/Ph-N2-OTs-B3LYP-6-31G_dp-scan-d09-49-n400
 OpenBabel01281705563D

 31 31  0  0  0  0  0  0  0  0999 V2000
    0.7400    1.3855   -0.7702 C   0  0  0  0  0  0  0  0  0  0  0  0
    1.2719    2.2993   -1.6812 C   0  0  0  0  0  0  0  0  0  0  0  0
    1.7992    1.8215   -2.8821 C   0  0  0  0  0  0  0  0  0  0  0  0
    1.7970    0.4604   -3.1881 C   0  0  0  0  0  0  0  0  0  0  0  0
    1.2532   -0.4408   -2.2715 C   0  0  0  0  0  0  0  0  0  0  0  0
    0.7278    0.0188   -1.0613 C   0  0  0  0  0  0  0  0  0  0  0  0
    0.3284    1.7463    0.1680 H   0  0  0  0  0  0  0  0  0  0  0  0
    1.2891    3.3629   -1.4746 H   0  0  0  0  0  0  0  0  0  0  0  0
    2.2073    0.1302   -4.1366 H   0  0  0  0  0  0  0  0  0  0  0  0
    1.2405   -1.5017   -2.5052 H   0  0  0  0  0  0  0  0  0  0  0  0
    1.9668    1.8234   -6.8964 N   0  0  0  0  0  0  0  0  0  0  0  0
    1.1457    2.4880   -7.2214 N   0  0  0  0  0  0  0  0  0  0  0  0
    5.3277    1.8155   -5.0553 C   0  0  0  0  0  0  0  0  0  0  0  0
    6.2699    0.7979   -5.1758 C   0  0  0  0  0  0  0  0  0  0  0  0
    6.8260    0.1830   -4.0424 C   0  0  0  0  0  0  0  0  0  0  0  0
    6.4096    0.6132   -2.7749 C   0  0  0  0  0  0  0  0  0  0  0  0
    5.4667    1.6300   -2.6310 C   0  0  0  0  0  0  0  0  0  0  0  0
    4.9337    2.2217   -3.7772 C   0  0  0  0  0  0  0  0  0  0  0  0
    4.9073    2.2954   -5.9321 H   0  0  0  0  0  0  0  0  0  0  0  0
    6.5827    0.4772   -6.1660 H   0  0  0  0  0  0  0  0  0  0  0  0
    6.8301    0.1486   -1.8871 H   0  0  0  0  0  0  0  0  0  0  0  0
    5.1539    1.9707   -1.6504 H   0  0  0  0  0  0  0  0  0  0  0  0
    3.7190    3.5164   -3.6123 S   0  0  0  0  0  0  0  0  0  0  0  0
    2.2752    2.7079   -3.8555 O   0  0  0  0  0  0  0  0  0  0  0  0
    3.7847    4.4019   -4.7649 O   0  0  0  0  0  0  0  0  0  0  0  0
    3.7510    4.0197   -2.2418 O   0  0  0  0  0  0  0  0  0  0  0  0
    7.8715   -0.8959   -4.1887 C   0  0  0  0  0  0  0  0  0  0  0  0
    7.9023   -1.5469   -3.3100 H   0  0  0  0  0  0  0  0  0  0  0  0
    7.6843   -1.5172   -5.0700 H   0  0  0  0  0  0  0  0  0  0  0  0
    8.8704   -0.4575   -4.3068 H   0  0  0  0  0  0  0  0  0  0  0  0
    0.3068   -0.6848   -0.3490 H   0  0  0  0  0  0  0  0  0  0  0  0
  1  7  1  0  0  0  0
  2  8  1  0  0  0  0
  2  1  2  0  0  0  0
  3  2  1  0  0  0  0
  4  3  2  0  0  0  0
  4  5  1  0  0  0  0
  5  6  2  0  0  0  0
  6  1  1  0  0  0  0
  6 31  1  0  0  0  0
  9  4  1  0  0  0  0
 10  5  1  0  0  0  0
 12 11  3  0  0  0  0
 13 18  1  0  0  0  0
 14 13  2  0  0  0  0
 14 15  1  0  0  0  0
 15 16  2  0  0  0  0
 16 17  1  0  0  0  0
 16 21  1  0  0  0  0
 17 22  1  0  0  0  0
 18 23  1  0  0  0  0
 18 17  2  0  0  0  0
 19 13  1  0  0  0  0
 20 14  1  0  0  0  0
 23 26  2  0  0  0  0
 24 23  1  0  0  0  0
 24  3  1  0  0  0  0
 25 23  2  0  0  0  0
 27 15  1  0  0  0  0
 27 28  1  0  0  0  0
 29 27  1  0  0  0  0
 30 27  1  0  0  0  0
M  END
