Coordinates from ORCA-job /home/ubuntu/works/orca-Ph-N2-OTs-B3LYP-6-31G_dp-scan-d09-49-n400/Ph-N2-OTs-B3LYP-6-31G_dp-scan-d09-49-n400
 OpenBabel01281705563D

 31 31  0  0  0  0  0  0  0  0999 V2000
    0.6465    1.4016   -0.7120 C   0  0  0  0  0  0  0  0  0  0  0  0
    1.1580    2.2500   -1.6949 C   0  0  0  0  0  0  0  0  0  0  0  0
    1.7455    1.6873   -2.8287 C   0  0  0  0  0  0  0  0  0  0  0  0
    1.8248    0.3051   -2.9990 C   0  0  0  0  0  0  0  0  0  0  0  0
    1.3015   -0.5313   -2.0115 C   0  0  0  0  0  0  0  0  0  0  0  0
    0.7152    0.0144   -0.8670 C   0  0  0  0  0  0  0  0  0  0  0  0
    0.1883    1.8284    0.1757 H   0  0  0  0  0  0  0  0  0  0  0  0
    1.1135    3.3281   -1.5942 H   0  0  0  0  0  0  0  0  0  0  0  0
    2.2808   -0.0935   -3.8991 H   0  0  0  0  0  0  0  0  0  0  0  0
    1.3531   -1.6093   -2.1384 H   0  0  0  0  0  0  0  0  0  0  0  0
    2.3655    2.6900   -7.4090 N   0  0  0  0  0  0  0  0  0  0  0  0
    1.4429    3.2877   -7.5214 N   0  0  0  0  0  0  0  0  0  0  0  0
    5.2464    1.6880   -5.0999 C   0  0  0  0  0  0  0  0  0  0  0  0
    6.2281    0.7065   -5.2073 C   0  0  0  0  0  0  0  0  0  0  0  0
    6.8458    0.1663   -4.0679 C   0  0  0  0  0  0  0  0  0  0  0  0
    6.4502    0.6331   -2.8065 C   0  0  0  0  0  0  0  0  0  0  0  0
    5.4686    1.6141   -2.6752 C   0  0  0  0  0  0  0  0  0  0  0  0
    4.8758    2.1327   -3.8276 C   0  0  0  0  0  0  0  0  0  0  0  0
    4.7770    2.1082   -5.9827 H   0  0  0  0  0  0  0  0  0  0  0  0
    6.5232    0.3554   -6.1926 H   0  0  0  0  0  0  0  0  0  0  0  0
    6.9177    0.2258   -1.9140 H   0  0  0  0  0  0  0  0  0  0  0  0
    5.1704    1.9835   -1.7004 H   0  0  0  0  0  0  0  0  0  0  0  0
    3.6118    3.3811   -3.6764 S   0  0  0  0  0  0  0  0  0  0  0  0
    2.2014    2.5031   -3.8714 O   0  0  0  0  0  0  0  0  0  0  0  0
    3.6230    4.2356   -4.8547 O   0  0  0  0  0  0  0  0  0  0  0  0
    3.6449    3.9256   -2.3220 O   0  0  0  0  0  0  0  0  0  0  0  0
    7.9335   -0.8718   -4.2013 C   0  0  0  0  0  0  0  0  0  0  0  0
    7.9824   -1.5176   -3.3194 H   0  0  0  0  0  0  0  0  0  0  0  0
    7.7782   -1.5032   -5.0813 H   0  0  0  0  0  0  0  0  0  0  0  0
    8.9158   -0.3953   -4.3118 H   0  0  0  0  0  0  0  0  0  0  0  0
    0.3097   -0.6387   -0.0996 H   0  0  0  0  0  0  0  0  0  0  0  0
  1  7  1  0  0  0  0
  2  8  1  0  0  0  0
  2  1  2  0  0  0  0
  3  2  1  0  0  0  0
  4  3  2  0  0  0  0
  4  5  1  0  0  0  0
  5  6  2  0  0  0  0
  6  1  1  0  0  0  0
  6 31  1  0  0  0  0
  9  4  1  0  0  0  0
 10  5  1  0  0  0  0
 12 11  3  0  0  0  0
 13 18  1  0  0  0  0
 14 13  2  0  0  0  0
 14 15  1  0  0  0  0
 15 16  2  0  0  0  0
 16 17  1  0  0  0  0
 16 21  1  0  0  0  0
 17 22  1  0  0  0  0
 18 23  1  0  0  0  0
 18 17  2  0  0  0  0
 19 13  1  0  0  0  0
 20 14  1  0  0  0  0
 23 26  2  0  0  0  0
 24 23  1  0  0  0  0
 24  3  1  0  0  0  0
 25 23  2  0  0  0  0
 27 15  1  0  0  0  0
 27 28  1  0  0  0  0
 29 27  1  0  0  0  0
 30 27  1  0  0  0  0
M  END
