Coordinates from ORCA-job /home/ubuntu/works/orca-Ph-N2-OTs-B3LYP-6-31G_dp-scan-d09-49-n400/Ph-N2-OTs-B3LYP-6-31G_dp-scan-d09-49-n400
 OpenBabel01281705563D

 31 30  0  0  0  0  0  0  0  0999 V2000
    1.6761    1.2319   -1.2544 C   0  0  0  0  0  0  0  0  0  0  0  0
    1.3881    1.7048   -2.5591 C   0  0  0  0  0  0  0  0  0  0  0  0
    0.2985    1.2481   -3.0314 C   0  0  0  0  0  0  0  0  0  0  0  0
   -0.7090    0.4080   -2.6530 C   0  0  0  0  0  0  0  0  0  0  0  0
   -0.4109   -0.0594   -1.3543 C   0  0  0  0  0  0  0  0  0  0  0  0
    0.7530    0.3453   -0.6770 C   0  0  0  0  0  0  0  0  0  0  0  0
    2.5712    1.5335   -0.7166 H   0  0  0  0  0  0  0  0  0  0  0  0
    2.5978    2.8253   -3.3463 H   0  0  0  0  0  0  0  0  0  0  0  0
   -1.5896    0.1288   -3.2168 H   0  0  0  0  0  0  0  0  0  0  0  0
   -1.1068   -0.7462   -0.8794 H   0  0  0  0  0  0  0  0  0  0  0  0
   -0.2631    1.9602   -5.0723 N   0  0  0  0  0  0  0  0  0  0  0  0
   -0.0083    2.6376   -5.9088 N   0  0  0  0  0  0  0  0  0  0  0  0
    6.5637    2.5623   -4.3672 C   0  0  0  0  0  0  0  0  0  0  0  0
    7.6508    1.7961   -3.9519 C   0  0  0  0  0  0  0  0  0  0  0  0
    7.5237    0.4177   -3.7237 C   0  0  0  0  0  0  0  0  0  0  0  0
    6.2730   -0.1814   -3.9334 C   0  0  0  0  0  0  0  0  0  0  0  0
    5.1740    0.5691   -4.3484 C   0  0  0  0  0  0  0  0  0  0  0  0
    5.3287    1.9402   -4.5584 C   0  0  0  0  0  0  0  0  0  0  0  0
    6.6679    3.6243   -4.5625 H   0  0  0  0  0  0  0  0  0  0  0  0
    8.6164    2.2750   -3.8089 H   0  0  0  0  0  0  0  0  0  0  0  0
    6.1588   -1.2512   -3.7755 H   0  0  0  0  0  0  0  0  0  0  0  0
    4.2119    0.1008   -4.5281 H   0  0  0  0  0  0  0  0  0  0  0  0
    3.9240    2.9206   -5.0736 S   0  0  0  0  0  0  0  0  0  0  0  0
    2.9407    2.0233   -5.6889 O   0  0  0  0  0  0  0  0  0  0  0  0
    4.4195    4.0983   -5.7750 O   0  0  0  0  0  0  0  0  0  0  0  0
    3.3160    3.4533   -3.6724 O   0  0  0  0  0  0  0  0  0  0  0  0
    8.7017   -0.3986   -3.2478 C   0  0  0  0  0  0  0  0  0  0  0  0
    8.6380   -1.4341   -3.5947 H   0  0  0  0  0  0  0  0  0  0  0  0
    9.6480    0.0212   -3.6015 H   0  0  0  0  0  0  0  0  0  0  0  0
    8.7454   -0.4234   -2.1512 H   0  0  0  0  0  0  0  0  0  0  0  0
    0.9405   -0.0409    0.3213 H   0  0  0  0  0  0  0  0  0  0  0  0
  1  7  1  0  0  0  0
  1  6  1  0  0  0  0
  2  1  2  0  0  0  0
  3  4  2  0  0  0  0
  3  2  1  0  0  0  0
  4  5  1  0  0  0  0
  5 10  1  0  0  0  0
  5  6  2  0  0  0  0
  6 31  1  0  0  0  0
  9  4  1  0  0  0  0
 12 11  3  0  0  0  0
 13 14  1  0  0  0  0
 14 20  1  0  0  0  0
 14 15  2  0  0  0  0
 15 27  1  0  0  0  0
 16 21  1  0  0  0  0
 16 15  1  0  0  0  0
 17 16  2  0  0  0  0
 18 13  2  0  0  0  0
 18 17  1  0  0  0  0
 19 13  1  0  0  0  0
 22 17  1  0  0  0  0
 23 18  1  0  0  0  0
 23 26  1  0  0  0  0
 24 23  2  0  0  0  0
 25 23  2  0  0  0  0
 26  8  1  0  0  0  0
 27 30  1  0  0  0  0
 28 27  1  0  0  0  0
 29 27  1  0  0  0  0
M  RAD  2   2   2   3   2
M  END
