Coordinates from ORCA-job /home/ubuntu/works/orca-Ph-N2-OTs-B3LYP-6-31G_dp-scan-d09-49-n400/Ph-N2-OTs-B3LYP-6-31G_dp-scan-d09-49-n400
 OpenBabel01281705563D

 31 31  0  0  0  0  0  0  0  0999 V2000
    0.7033    1.3859   -0.7418 C   0  0  0  0  0  0  0  0  0  0  0  0
    1.2171    2.2603   -1.7006 C   0  0  0  0  0  0  0  0  0  0  0  0
    1.7676    1.7290   -2.8677 C   0  0  0  0  0  0  0  0  0  0  0  0
    1.8071    0.3532   -3.0945 C   0  0  0  0  0  0  0  0  0  0  0  0
    1.2812   -0.5088   -2.1309 C   0  0  0  0  0  0  0  0  0  0  0  0
    0.7324    0.0049   -0.9533 C   0  0  0  0  0  0  0  0  0  0  0  0
    0.2738    1.7882    0.1713 H   0  0  0  0  0  0  0  0  0  0  0  0
    1.2025    3.3342   -1.5561 H   0  0  0  0  0  0  0  0  0  0  0  0
    2.2352   -0.0198   -4.0190 H   0  0  0  0  0  0  0  0  0  0  0  0
    1.3015   -1.5815   -2.3021 H   0  0  0  0  0  0  0  0  0  0  0  0
    2.1448    2.4301   -7.1326 N   0  0  0  0  0  0  0  0  0  0  0  0
    1.2989    3.1095   -7.3425 N   0  0  0  0  0  0  0  0  0  0  0  0
    5.2677    1.7064   -5.0891 C   0  0  0  0  0  0  0  0  0  0  0  0
    6.2375    0.7124   -5.1874 C   0  0  0  0  0  0  0  0  0  0  0  0
    6.8419    0.1688   -4.0425 C   0  0  0  0  0  0  0  0  0  0  0  0
    6.4449    0.6451   -2.7851 C   0  0  0  0  0  0  0  0  0  0  0  0
    5.4749    1.6389   -2.6630 C   0  0  0  0  0  0  0  0  0  0  0  0
    4.8953    2.1605   -3.8206 C   0  0  0  0  0  0  0  0  0  0  0  0
    4.8077    2.1293   -5.9752 H   0  0  0  0  0  0  0  0  0  0  0  0
    6.5337    0.3539   -6.1698 H   0  0  0  0  0  0  0  0  0  0  0  0
    6.9020    0.2352   -1.8885 H   0  0  0  0  0  0  0  0  0  0  0  0
    5.1756    2.0154   -1.6912 H   0  0  0  0  0  0  0  0  0  0  0  0
    3.6480    3.4272   -3.6819 S   0  0  0  0  0  0  0  0  0  0  0  0
    2.2255    2.5719   -3.8876 O   0  0  0  0  0  0  0  0  0  0  0  0
    3.6792    4.2793   -4.8613 O   0  0  0  0  0  0  0  0  0  0  0  0
    3.6789    3.9731   -2.3279 O   0  0  0  0  0  0  0  0  0  0  0  0
    7.9174   -0.8830   -4.1662 C   0  0  0  0  0  0  0  0  0  0  0  0
    7.9594   -1.5207   -3.2782 H   0  0  0  0  0  0  0  0  0  0  0  0
    7.7543   -1.5210   -5.0400 H   0  0  0  0  0  0  0  0  0  0  0  0
    8.9050   -0.4189   -4.2820 H   0  0  0  0  0  0  0  0  0  0  0  0
    0.3253   -0.6683   -0.2043 H   0  0  0  0  0  0  0  0  0  0  0  0
  1  7  1  0  0  0  0
  2  8  1  0  0  0  0
  2  1  2  0  0  0  0
  3  2  1  0  0  0  0
  4  3  2  0  0  0  0
  4  5  1  0  0  0  0
  5  6  2  0  0  0  0
  6  1  1  0  0  0  0
  6 31  1  0  0  0  0
  9  4  1  0  0  0  0
 10  5  1  0  0  0  0
 12 11  3  0  0  0  0
 13 18  1  0  0  0  0
 14 13  2  0  0  0  0
 14 15  1  0  0  0  0
 15 16  2  0  0  0  0
 16 17  1  0  0  0  0
 16 21  1  0  0  0  0
 17 22  1  0  0  0  0
 18 23  1  0  0  0  0
 18 17  2  0  0  0  0
 19 13  1  0  0  0  0
 20 14  1  0  0  0  0
 23 26  2  0  0  0  0
 24 23  1  0  0  0  0
 24  3  1  0  0  0  0
 25 23  2  0  0  0  0
 27 15  1  0  0  0  0
 27 28  1  0  0  0  0
 29 27  1  0  0  0  0
 30 27  1  0  0  0  0
M  END
