Coordinates from ORCA-job /home/ubuntu/works/orca-Ph-N2-OTs-B3LYP-6-31G_dp-scan-d09-49-n400/Ph-N2-OTs-B3LYP-6-31G_dp-scan-d09-49-n400
 OpenBabel01281705563D

 31 30  0  0  0  0  0  0  0  0999 V2000
    1.6783    1.2553   -1.1328 C   0  0  0  0  0  0  0  0  0  0  0  0
    1.4149    1.6898   -2.4510 C   0  0  0  0  0  0  0  0  0  0  0  0
    0.3665    1.2201   -2.9760 C   0  0  0  0  0  0  0  0  0  0  0  0
   -0.6428    0.3653   -2.6379 C   0  0  0  0  0  0  0  0  0  0  0  0
   -0.3838   -0.0776   -1.3186 C   0  0  0  0  0  0  0  0  0  0  0  0
    0.7410    0.3558   -0.5938 C   0  0  0  0  0  0  0  0  0  0  0  0
    2.5432    1.5804   -0.5616 H   0  0  0  0  0  0  0  0  0  0  0  0
    2.6319    2.8621   -3.3317 H   0  0  0  0  0  0  0  0  0  0  0  0
   -1.4951    0.0591   -3.2299 H   0  0  0  0  0  0  0  0  0  0  0  0
   -1.0853   -0.7725   -0.8633 H   0  0  0  0  0  0  0  0  0  0  0  0
   -0.3303    1.9487   -5.3664 N   0  0  0  0  0  0  0  0  0  0  0  0
   -0.1033    2.6384   -6.1998 N   0  0  0  0  0  0  0  0  0  0  0  0
    6.5688    2.5675   -4.3572 C   0  0  0  0  0  0  0  0  0  0  0  0
    7.6494    1.7890   -3.9479 C   0  0  0  0  0  0  0  0  0  0  0  0
    7.5122    0.4090   -3.7361 C   0  0  0  0  0  0  0  0  0  0  0  0
    6.2579   -0.1794   -3.9560 C   0  0  0  0  0  0  0  0  0  0  0  0
    5.1652    0.5832   -4.3651 C   0  0  0  0  0  0  0  0  0  0  0  0
    5.3303    1.9557   -4.5586 C   0  0  0  0  0  0  0  0  0  0  0  0
    6.6809    3.6310   -4.5398 H   0  0  0  0  0  0  0  0  0  0  0  0
    8.6178    2.2594   -3.7967 H   0  0  0  0  0  0  0  0  0  0  0  0
    6.1362   -1.2501   -3.8109 H   0  0  0  0  0  0  0  0  0  0  0  0
    4.2005    0.1237   -4.5531 H   0  0  0  0  0  0  0  0  0  0  0  0
    3.9344    2.9503   -5.0682 S   0  0  0  0  0  0  0  0  0  0  0  0
    2.9380    2.0663   -5.6783 O   0  0  0  0  0  0  0  0  0  0  0  0
    4.4373    4.1289   -5.7615 O   0  0  0  0  0  0  0  0  0  0  0  0
    3.3358    3.4892   -3.6584 O   0  0  0  0  0  0  0  0  0  0  0  0
    8.6830   -0.4215   -3.2669 C   0  0  0  0  0  0  0  0  0  0  0  0
    8.6272   -1.4446   -3.6499 H   0  0  0  0  0  0  0  0  0  0  0  0
    9.6347    0.0112   -3.5888 H   0  0  0  0  0  0  0  0  0  0  0  0
    8.7061   -0.4840   -2.1712 H   0  0  0  0  0  0  0  0  0  0  0  0
    0.8885   -0.0187    0.4157 H   0  0  0  0  0  0  0  0  0  0  0  0
  1  6  1  0  0  0  0
  1  7  1  0  0  0  0
  2  1  2  0  0  0  0
  3  4  2  0  0  0  0
  3  2  1  0  0  0  0
  4  5  1  0  0  0  0
  5 10  1  0  0  0  0
  5  6  2  0  0  0  0
  6 31  1  0  0  0  0
  9  4  1  0  0  0  0
 12 11  3  0  0  0  0
 13 14  2  0  0  0  0
 14 20  1  0  0  0  0
 14 15  1  0  0  0  0
 15 27  1  0  0  0  0
 16 21  1  0  0  0  0
 16 15  2  0  0  0  0
 17 16  1  0  0  0  0
 18 17  2  0  0  0  0
 18 13  1  0  0  0  0
 19 13  1  0  0  0  0
 22 17  1  0  0  0  0
 23 18  1  0  0  0  0
 23 26  1  0  0  0  0
 24 23  2  0  0  0  0
 25 23  2  0  0  0  0
 26  8  1  0  0  0  0
 27 30  1  0  0  0  0
 28 27  1  0  0  0  0
 29 27  1  0  0  0  0
M  RAD  2   2   2   3   2
M  END
