Coordinates from ORCA-job /home/ubuntu/works/orca-Ph-N2-OTs-B3LYP-6-31G_dp-scan-d09-49-n400/Ph-N2-OTs-B3LYP-6-31G_dp-scan-d09-49-n400
 OpenBabel01281705563D

 31 31  0  0  0  0  0  0  0  0999 V2000
    0.7211    1.3840   -0.7491 C   0  0  0  0  0  0  0  0  0  0  0  0
    1.2361    2.2685   -1.6982 C   0  0  0  0  0  0  0  0  0  0  0  0
    1.7757    1.7498   -2.8761 C   0  0  0  0  0  0  0  0  0  0  0  0
    1.8027    0.3771   -3.1233 C   0  0  0  0  0  0  0  0  0  0  0  0
    1.2756   -0.4947   -2.1692 C   0  0  0  0  0  0  0  0  0  0  0  0
    0.7379    0.0061   -0.9810 C   0  0  0  0  0  0  0  0  0  0  0  0
    0.2999    1.7761    0.1721 H   0  0  0  0  0  0  0  0  0  0  0  0
    1.2309    3.3402   -1.5380 H   0  0  0  0  0  0  0  0  0  0  0  0
    2.2224    0.0149   -4.0559 H   0  0  0  0  0  0  0  0  0  0  0  0
    1.2859   -1.5650   -2.3562 H   0  0  0  0  0  0  0  0  0  0  0  0
    2.0933    2.3092   -7.0552 N   0  0  0  0  0  0  0  0  0  0  0  0
    1.2422    2.9762   -7.2831 N   0  0  0  0  0  0  0  0  0  0  0  0
    5.2845    1.7295   -5.0850 C   0  0  0  0  0  0  0  0  0  0  0  0
    6.2487    0.7302   -5.1839 C   0  0  0  0  0  0  0  0  0  0  0  0
    6.8380    0.1710   -4.0386 C   0  0  0  0  0  0  0  0  0  0  0  0
    6.4318    0.6375   -2.7806 C   0  0  0  0  0  0  0  0  0  0  0  0
    5.4674    1.6366   -2.6580 C   0  0  0  0  0  0  0  0  0  0  0  0
    4.9024    2.1735   -3.8159 C   0  0  0  0  0  0  0  0  0  0  0  0
    4.8368    2.1648   -5.9714 H   0  0  0  0  0  0  0  0  0  0  0  0
    6.5524    0.3797   -6.1669 H   0  0  0  0  0  0  0  0  0  0  0  0
    6.8773    0.2158   -1.8837 H   0  0  0  0  0  0  0  0  0  0  0  0
    5.1616    2.0057   -1.6855 H   0  0  0  0  0  0  0  0  0  0  0  0
    3.6626    3.4475   -3.6767 S   0  0  0  0  0  0  0  0  0  0  0  0
    2.2340    2.6033   -3.8864 O   0  0  0  0  0  0  0  0  0  0  0  0
    3.7017    4.3024   -4.8537 O   0  0  0  0  0  0  0  0  0  0  0  0
    3.6947    3.9895   -2.3210 O   0  0  0  0  0  0  0  0  0  0  0  0
    7.9076   -0.8868   -4.1625 C   0  0  0  0  0  0  0  0  0  0  0  0
    7.9418   -1.5289   -3.2773 H   0  0  0  0  0  0  0  0  0  0  0  0
    7.7443   -1.5198   -5.0400 H   0  0  0  0  0  0  0  0  0  0  0  0
    8.8985   -0.4284   -4.2720 H   0  0  0  0  0  0  0  0  0  0  0  0
    0.3298   -0.6746   -0.2395 H   0  0  0  0  0  0  0  0  0  0  0  0
  1  7  1  0  0  0  0
  2  8  1  0  0  0  0
  2  1  2  0  0  0  0
  3  2  1  0  0  0  0
  4  3  2  0  0  0  0
  4  5  1  0  0  0  0
  5  6  2  0  0  0  0
  6  1  1  0  0  0  0
  6 31  1  0  0  0  0
  9  4  1  0  0  0  0
 10  5  1  0  0  0  0
 12 11  3  0  0  0  0
 13 18  1  0  0  0  0
 14 13  2  0  0  0  0
 14 15  1  0  0  0  0
 15 16  2  0  0  0  0
 16 17  1  0  0  0  0
 16 21  1  0  0  0  0
 17 22  1  0  0  0  0
 18 23  1  0  0  0  0
 18 17  2  0  0  0  0
 19 13  1  0  0  0  0
 20 14  1  0  0  0  0
 23 26  2  0  0  0  0
 24 23  1  0  0  0  0
 24  3  1  0  0  0  0
 25 23  2  0  0  0  0
 27 15  1  0  0  0  0
 27 28  1  0  0  0  0
 29 27  1  0  0  0  0
 30 27  1  0  0  0  0
M  END
