Coordinates from ORCA-job /home/ubuntu/works/orca-Ph-N2-OTs-B3LYP-6-31G_dp-scan-d09-49-n400/Ph-N2-OTs-B3LYP-6-31G_dp-scan-d09-49-n400
 OpenBabel01281705563D

 31 30  0  0  0  0  0  0  0  0999 V2000
    1.6324    1.2981   -1.0389 C   0  0  0  0  0  0  0  0  0  0  0  0
    1.4210    1.7083   -2.3721 C   0  0  0  0  0  0  0  0  0  0  0  0
    0.4170    1.2134   -2.9529 C   0  0  0  0  0  0  0  0  0  0  0  0
   -0.5868    0.3353   -2.6595 C   0  0  0  0  0  0  0  0  0  0  0  0
   -0.3847   -0.0885   -1.3233 C   0  0  0  0  0  0  0  0  0  0  0  0
    0.6888    0.3791   -0.5437 C   0  0  0  0  0  0  0  0  0  0  0  0
    2.4577    1.6495   -0.4266 H   0  0  0  0  0  0  0  0  0  0  0  0
    2.6502    2.8877   -3.2805 H   0  0  0  0  0  0  0  0  0  0  0  0
   -1.3999    0.0015   -3.2905 H   0  0  0  0  0  0  0  0  0  0  0  0
   -1.0914   -0.7971   -0.8978 H   0  0  0  0  0  0  0  0  0  0  0  0
   -0.3266    1.9171   -5.5102 N   0  0  0  0  0  0  0  0  0  0  0  0
   -0.1283    2.5992   -6.3569 N   0  0  0  0  0  0  0  0  0  0  0  0
    6.5778    2.5655   -4.3662 C   0  0  0  0  0  0  0  0  0  0  0  0
    7.6609    1.7804   -3.9762 C   0  0  0  0  0  0  0  0  0  0  0  0
    7.5189    0.4015   -3.7607 C   0  0  0  0  0  0  0  0  0  0  0  0
    6.2571   -0.1792   -3.9571 C   0  0  0  0  0  0  0  0  0  0  0  0
    5.1620    0.5898   -4.3468 C   0  0  0  0  0  0  0  0  0  0  0  0
    5.3321    1.9611   -4.5443 C   0  0  0  0  0  0  0  0  0  0  0  0
    6.6931    3.6281   -4.5517 H   0  0  0  0  0  0  0  0  0  0  0  0
    8.6348    2.2449   -3.8432 H   0  0  0  0  0  0  0  0  0  0  0  0
    6.1314   -1.2490   -3.8088 H   0  0  0  0  0  0  0  0  0  0  0  0
    4.1912    0.1361   -4.5167 H   0  0  0  0  0  0  0  0  0  0  0  0
    3.9336    2.9636   -5.0296 S   0  0  0  0  0  0  0  0  0  0  0  0
    2.9216    2.0866   -5.6235 O   0  0  0  0  0  0  0  0  0  0  0  0
    4.4310    4.1410   -5.7285 O   0  0  0  0  0  0  0  0  0  0  0  0
    3.3608    3.5032   -3.6076 O   0  0  0  0  0  0  0  0  0  0  0  0
    8.6928   -0.4359   -3.3121 C   0  0  0  0  0  0  0  0  0  0  0  0
    8.6278   -1.4568   -3.6996 H   0  0  0  0  0  0  0  0  0  0  0  0
    9.6416   -0.0051   -3.6448 H   0  0  0  0  0  0  0  0  0  0  0  0
    8.7306   -0.5043   -2.2172 H   0  0  0  0  0  0  0  0  0  0  0  0
    0.7912    0.0158    0.4755 H   0  0  0  0  0  0  0  0  0  0  0  0
  1  6  1  0  0  0  0
  1  7  1  0  0  0  0
  2  1  2  0  0  0  0
  3  4  2  0  0  0  0
  3  2  1  0  0  0  0
  4  5  1  0  0  0  0
  5 10  1  0  0  0  0
  5  6  2  0  0  0  0
  6 31  1  0  0  0  0
  9  4  1  0  0  0  0
 12 11  3  0  0  0  0
 13 14  1  0  0  0  0
 14 20  1  0  0  0  0
 14 15  2  0  0  0  0
 15 27  1  0  0  0  0
 16 21  1  0  0  0  0
 16 15  1  0  0  0  0
 17 16  2  0  0  0  0
 18 13  2  0  0  0  0
 18 17  1  0  0  0  0
 19 13  1  0  0  0  0
 22 17  1  0  0  0  0
 23 18  1  0  0  0  0
 23 26  1  0  0  0  0
 24 23  2  0  0  0  0
 25 23  2  0  0  0  0
 26  8  1  0  0  0  0
 27 30  1  0  0  0  0
 28 27  1  0  0  0  0
 29 27  1  0  0  0  0
M  RAD  2   2   2   3   2
M  END
