Coordinates from ORCA-job /home/ubuntu/works/orca-Ph-N2-OTs-B3LYP-6-31G_dp-scan-d09-49-n400/Ph-N2-OTs-B3LYP-6-31G_dp-scan-d09-49-n400
 OpenBabel01281705563D

 31 32  0  0  1  0  0  0  0  0999 V2000
    2.0247    0.3297   -2.4730 C   0  0  0  0  0  0  0  0  0  0  0  0
    1.7229    1.3054   -3.5618 C   0  0  1  0  0  0  0  0  0  0  0  0
    0.3216    1.8671   -3.4453 C   0  0  0  0  0  0  0  0  0  0  0  0
   -0.4203    1.7714   -2.1996 C   0  0  0  0  0  0  0  0  0  0  0  0
    0.0374    0.9865   -1.1960 C   0  0  0  0  0  0  0  0  0  0  0  0
    1.2583    0.2233   -1.3677 C   0  0  0  0  0  0  0  0  0  0  0  0
    2.9309   -0.2566   -2.5893 H   0  0  0  0  0  0  0  0  0  0  0  0
    1.8893    0.8963   -4.5609 H   0  0  0  0  0  0  0  0  0  0  0  0
   -1.3464    2.3318   -2.1169 H   0  0  0  0  0  0  0  0  0  0  0  0
   -0.5177    0.9071   -0.2672 H   0  0  0  0  0  0  0  0  0  0  0  0
   -0.1398    2.4504   -4.4008 N   0  0  0  0  0  0  0  0  0  0  0  0
   -0.5680    3.0007   -5.3115 N   0  0  0  0  0  0  0  0  0  0  0  0
    5.4205    0.6545   -4.9591 C   0  0  0  0  0  0  0  0  0  0  0  0
    6.5508   -0.0936   -4.6303 C   0  0  0  0  0  0  0  0  0  0  0  0
    7.4236    0.3194   -3.6141 C   0  0  0  0  0  0  0  0  0  0  0  0
    7.1431    1.5168   -2.9368 C   0  0  0  0  0  0  0  0  0  0  0  0
    6.0211    2.2784   -3.2512 C   0  0  0  0  0  0  0  0  0  0  0  0
    5.1626    1.8343   -4.2601 C   0  0  0  0  0  0  0  0  0  0  0  0
    4.7562    0.3459   -5.7594 H   0  0  0  0  0  0  0  0  0  0  0  0
    6.7608   -1.0083   -5.1785 H   0  0  0  0  0  0  0  0  0  0  0  0
    7.8180    1.8597   -2.1564 H   0  0  0  0  0  0  0  0  0  0  0  0
    5.8186    3.2120   -2.7370 H   0  0  0  0  0  0  0  0  0  0  0  0
    3.7120    2.7989   -4.6614 S   0  0  0  0  0  0  0  0  0  0  0  0
    3.1403    2.2745   -5.9054 O   0  0  0  0  0  0  0  0  0  0  0  0
    4.0269    4.2118   -4.4993 O   0  0  0  0  0  0  0  0  0  0  0  0
    2.6901    2.4536   -3.4270 O   0  0  0  0  0  0  0  0  0  0  0  0
    8.6285   -0.5115   -3.2435 C   0  0  0  0  0  0  0  0  0  0  0  0
    8.3861   -1.2139   -2.4358 H   0  0  0  0  0  0  0  0  0  0  0  0
    8.9853   -1.1012   -4.0930 H   0  0  0  0  0  0  0  0  0  0  0  0
    9.4538    0.1151   -2.8920 H   0  0  0  0  0  0  0  0  0  0  0  0
    1.5485   -0.4690   -0.5812 H   0  0  0  0  0  0  0  0  0  0  0  0
  1  6  2  0  0  0  0
  2  8  1  6  0  0  0
  2  3  1  0  0  0  0
  2 26  1  0  0  0  0
  2  1  1  0  0  0  0
  3  4  2  0  0  0  0
  4  9  1  0  0  0  0
  4  5  1  0  0  0  0
  5 10  1  0  0  0  0
  6  5  1  0  0  0  0
  6 31  1  0  0  0  0
  7  1  1  0  0  0  0
 11  3  1  0  0  0  0
 12 11  1  0  0  0  0
 13 14  2  0  0  0  0
 13 18  1  0  0  0  0
 14 15  1  0  0  0  0
 15 27  1  0  0  0  0
 15 16  2  0  0  0  0
 16 21  1  0  0  0  0
 17 16  1  0  0  0  0
 17 22  1  0  0  0  0
 18 17  2  0  0  0  0
 19 13  1  0  0  0  0
 20 14  1  0  0  0  0
 23 25  2  0  0  0  0
 23 18  1  0  0  0  0
 23 26  1  0  0  0  0
 24 23  2  0  0  0  0
 27 30  1  0  0  0  0
 27 28  1  0  0  0  0
 29 27  1  0  0  0  0
M  RAD  3   5   2  11   2  12   3
M  END
