Coordinates from ORCA-job /home/ubuntu/works/orca-Ph-N2-OTs-B3LYP-6-31G_dp-scan-d09-49-n400/Ph-N2-OTs-B3LYP-6-31G_dp-scan-d09-49-n400
 OpenBabel01281705563D

 31 32  0  0  1  0  0  0  0  0999 V2000
    1.8406    0.3224   -2.0930 C   0  0  0  0  0  0  0  0  0  0  0  0
    1.7620    1.1580   -3.3248 C   0  0  1  0  0  0  0  0  0  0  0  0
    0.3907    1.7238   -3.4884 C   0  0  0  0  0  0  0  0  0  0  0  0
   -0.5559    1.8257   -2.4145 C   0  0  0  0  0  0  0  0  0  0  0  0
   -0.2963    1.1827   -1.2454 C   0  0  0  0  0  0  0  0  0  0  0  0
    0.9022    0.3841   -1.1203 C   0  0  0  0  0  0  0  0  0  0  0  0
    2.7244   -0.2985   -1.9840 H   0  0  0  0  0  0  0  0  0  0  0  0
    2.0980    0.6376   -4.2226 H   0  0  0  0  0  0  0  0  0  0  0  0
   -1.4637    2.4012   -2.5665 H   0  0  0  0  0  0  0  0  0  0  0  0
   -0.9954    1.2407   -0.4181 H   0  0  0  0  0  0  0  0  0  0  0  0
    0.0661    2.2347   -4.6963 N   0  0  0  0  0  0  0  0  0  0  0  0
   -0.2017    2.6614   -5.7146 N   0  0  0  0  0  0  0  0  0  0  0  0
    5.4515    0.7211   -4.9762 C   0  0  0  0  0  0  0  0  0  0  0  0
    6.6256   -0.0076   -4.7859 C   0  0  0  0  0  0  0  0  0  0  0  0
    7.5454    0.3458   -3.7889 C   0  0  0  0  0  0  0  0  0  0  0  0
    7.2657    1.4639   -2.9869 C   0  0  0  0  0  0  0  0  0  0  0  0
    6.1003    2.2051   -3.1626 C   0  0  0  0  0  0  0  0  0  0  0  0
    5.1960    1.8212   -4.1565 C   0  0  0  0  0  0  0  0  0  0  0  0
    4.7502    0.4611   -5.7619 H   0  0  0  0  0  0  0  0  0  0  0  0
    6.8331   -0.8595   -5.4285 H   0  0  0  0  0  0  0  0  0  0  0  0
    7.9763    1.7615   -2.2198 H   0  0  0  0  0  0  0  0  0  0  0  0
    5.8989    3.0796   -2.5528 H   0  0  0  0  0  0  0  0  0  0  0  0
    3.6942    2.7648   -4.3844 S   0  0  0  0  0  0  0  0  0  0  0  0
    3.0557    2.3151   -5.6280 O   0  0  0  0  0  0  0  0  0  0  0  0
    3.9865    4.1736   -4.1492 O   0  0  0  0  0  0  0  0  0  0  0  0
    2.7710    2.2936   -3.1251 O   0  0  0  0  0  0  0  0  0  0  0  0
    8.8003   -0.4656   -3.5714 C   0  0  0  0  0  0  0  0  0  0  0  0
    8.6247   -1.2726   -2.8487 H   0  0  0  0  0  0  0  0  0  0  0  0
    9.1432   -0.9292   -4.5011 H   0  0  0  0  0  0  0  0  0  0  0  0
    9.6134    0.1519   -3.1782 H   0  0  0  0  0  0  0  0  0  0  0  0
    1.0363   -0.2066   -0.2173 H   0  0  0  0  0  0  0  0  0  0  0  0
  1  7  1  0  0  0  0
  1  6  2  0  0  0  0
  2  8  1  6  0  0  0
  2 26  1  0  0  0  0
  2  1  1  0  0  0  0
  3  2  1  0  0  0  0
  3  4  2  0  0  0  0
  4  5  1  0  0  0  0
  5  6  1  0  0  0  0
  5 10  1  0  0  0  0
  6 31  1  0  0  0  0
  9  4  1  0  0  0  0
 11  3  1  0  0  0  0
 12 11  1  0  0  0  0
 13 14  2  0  0  0  0
 13 18  1  0  0  0  0
 14 15  1  0  0  0  0
 15 27  1  0  0  0  0
 15 16  2  0  0  0  0
 16 21  1  0  0  0  0
 17 16  1  0  0  0  0
 17 22  1  0  0  0  0
 18 17  2  0  0  0  0
 19 13  1  0  0  0  0
 20 14  1  0  0  0  0
 23 18  1  0  0  0  0
 23 25  2  0  0  0  0
 23 26  1  0  0  0  0
 24 23  2  0  0  0  0
 27 30  1  0  0  0  0
 27 28  1  0  0  0  0
 29 27  1  0  0  0  0
M  RAD  3   5   2  11   2  12   3
M  END
