Coordinates from ORCA-job /home/ubuntu/works/orca-Ph-N2-OTs-B3LYP-6-31G_dp-scan-d09-49-n400/Ph-N2-OTs-B3LYP-6-31G_dp-scan-d09-49-n400
 OpenBabel01281705563D

 31 32  0  0  1  0  0  0  0  0999 V2000
    2.0180    0.3087   -2.5667 C   0  0  0  0  0  0  0  0  0  0  0  0
    1.7034    1.3306   -3.6098 C   0  0  1  0  0  0  0  0  0  0  0  0
    0.2926    1.9491   -3.4564 C   0  0  0  0  0  0  0  0  0  0  0  0
   -0.3808    1.8013   -2.1482 C   0  0  0  0  0  0  0  0  0  0  0  0
    0.0918    0.9619   -1.2052 C   0  0  0  0  0  0  0  0  0  0  0  0
    1.2857    0.1697   -1.4460 C   0  0  0  0  0  0  0  0  0  0  0  0
    2.9084   -0.2893   -2.7372 H   0  0  0  0  0  0  0  0  0  0  0  0
    1.8028    0.9420   -4.6269 H   0  0  0  0  0  0  0  0  0  0  0  0
   -1.2818    2.3907   -2.0043 H   0  0  0  0  0  0  0  0  0  0  0  0
   -0.4293    0.8630   -0.2582 H   0  0  0  0  0  0  0  0  0  0  0  0
   -0.1198    2.4783   -4.2515 N   0  0  0  0  0  0  0  0  0  0  0  0
   -0.5762    3.0690   -5.1443 N   0  0  0  0  0  0  0  0  0  0  0  0
    5.4222    0.6243   -4.9513 C   0  0  0  0  0  0  0  0  0  0  0  0
    6.5506   -0.1130   -4.5941 C   0  0  0  0  0  0  0  0  0  0  0  0
    7.4134    0.3263   -3.5802 C   0  0  0  0  0  0  0  0  0  0  0  0
    7.1249    1.5391   -2.9345 C   0  0  0  0  0  0  0  0  0  0  0  0
    6.0047    2.2910   -3.2774 C   0  0  0  0  0  0  0  0  0  0  0  0
    5.1567    1.8203   -4.2829 C   0  0  0  0  0  0  0  0  0  0  0  0
    4.7663    0.2950   -5.7504 H   0  0  0  0  0  0  0  0  0  0  0  0
    6.7675   -1.0401   -5.1181 H   0  0  0  0  0  0  0  0  0  0  0  0
    7.7920    1.9022   -2.1566 H   0  0  0  0  0  0  0  0  0  0  0  0
    5.7959    3.2365   -2.7884 H   0  0  0  0  0  0  0  0  0  0  0  0
    3.7103    2.7724   -4.7229 S   0  0  0  0  0  0  0  0  0  0  0  0
    3.1496    2.2200   -5.9578 O   0  0  0  0  0  0  0  0  0  0  0  0
    4.0137    4.1886   -4.5776 O   0  0  0  0  0  0  0  0  0  0  0  0
    2.6740    2.4443   -3.4822 O   0  0  0  0  0  0  0  0  0  0  0  0
    8.6163   -0.4933   -3.1796 C   0  0  0  0  0  0  0  0  0  0  0  0
    8.3635   -1.1887   -2.3690 H   0  0  0  0  0  0  0  0  0  0  0  0
    8.9911   -1.0901   -4.0164 H   0  0  0  0  0  0  0  0  0  0  0  0
    9.4316    0.1417   -2.8207 H   0  0  0  0  0  0  0  0  0  0  0  0
    1.5804   -0.5609   -0.6971 H   0  0  0  0  0  0  0  0  0  0  0  0
  1  6  2  0  0  0  0
  2  8  1  6  0  0  0
  2 26  1  0  0  0  0
  2  3  1  0  0  0  0
  2  1  1  0  0  0  0
  3  4  2  0  0  0  0
  4  9  1  0  0  0  0
  4  5  1  0  0  0  0
  5 10  1  0  0  0  0
  6  5  1  0  0  0  0
  6 31  1  0  0  0  0
  7  1  1  0  0  0  0
 11  3  1  0  0  0  0
 12 11  1  0  0  0  0
 13 14  2  0  0  0  0
 13 18  1  0  0  0  0
 14 15  1  0  0  0  0
 15 27  1  0  0  0  0
 15 16  2  0  0  0  0
 16 21  1  0  0  0  0
 17 16  1  0  0  0  0
 17 22  1  0  0  0  0
 18 17  2  0  0  0  0
 19 13  1  0  0  0  0
 20 14  1  0  0  0  0
 23 25  2  0  0  0  0
 23 18  1  0  0  0  0
 23 26  1  0  0  0  0
 24 23  2  0  0  0  0
 27 30  1  0  0  0  0
 27 28  1  0  0  0  0
 29 27  1  0  0  0  0
M  RAD  3   5   2  11   2  12   3
M  END
