Coordinates from ORCA-job /home/ubuntu/works/orca-Ph-N2-OTs-B3LYP-6-31G_dp-scan-d09-49-n400/Ph-N2-OTs-B3LYP-6-31G_dp-scan-d09-49-n400
 OpenBabel01281705563D

 31 30  0  0  0  0  0  0  0  0999 V2000
    0.7988    1.2257   -0.8482 C   0  0  0  0  0  0  0  0  0  0  0  0
    1.1751    1.6564   -2.1520 C   0  0  0  0  0  0  0  0  0  0  0  0
    0.1583    1.4413   -2.9643 C   0  0  0  0  0  0  0  0  0  0  0  0
   -1.1028    0.9407   -2.9448 C   0  0  0  0  0  0  0  0  0  0  0  0
   -1.4039    0.5290   -1.6284 C   0  0  0  0  0  0  0  0  0  0  0  0
   -0.4616    0.6742   -0.6025 C   0  0  0  0  0  0  0  0  0  0  0  0
    1.5306    1.3322   -0.0521 H   0  0  0  0  0  0  0  0  0  0  0  0
    2.2326    2.0933   -2.4145 H   0  0  0  0  0  0  0  0  0  0  0  0
   -1.7843    0.8552   -3.7798 H   0  0  0  0  0  0  0  0  0  0  0  0
   -2.3822    0.0985   -1.4366 H   0  0  0  0  0  0  0  0  0  0  0  0
    0.5247    2.1514   -4.9529 N   0  0  0  0  0  0  0  0  0  0  0  0
    0.4995    2.6473   -5.9394 N   0  0  0  0  0  0  0  0  0  0  0  0
    6.5854    2.3962   -4.5018 C   0  0  0  0  0  0  0  0  0  0  0  0
    7.8857    1.8939   -4.4551 C   0  0  0  0  0  0  0  0  0  0  0  0
    8.1323    0.5453   -4.1628 C   0  0  0  0  0  0  0  0  0  0  0  0
    7.0348   -0.2965   -3.9290 C   0  0  0  0  0  0  0  0  0  0  0  0
    5.7301    0.1919   -3.9717 C   0  0  0  0  0  0  0  0  0  0  0  0
    5.5111    1.5410   -4.2548 C   0  0  0  0  0  0  0  0  0  0  0  0
    6.3935    3.4354   -4.7474 H   0  0  0  0  0  0  0  0  0  0  0  0
    8.7228    2.5586   -4.6563 H   0  0  0  0  0  0  0  0  0  0  0  0
    7.2054   -1.3499   -3.7169 H   0  0  0  0  0  0  0  0  0  0  0  0
    4.8810   -0.4642   -3.8112 H   0  0  0  0  0  0  0  0  0  0  0  0
    3.8375    2.1932   -4.2756 S   0  0  0  0  0  0  0  0  0  0  0  0
    2.9432    1.0635   -4.6537 O   0  0  0  0  0  0  0  0  0  0  0  0
    3.8332    3.3525   -5.1862 O   0  0  0  0  0  0  0  0  0  0  0  0
    3.5758    2.5999   -2.8206 O   0  0  0  0  0  0  0  0  0  0  0  0
    9.5447    0.0142   -4.0840 C   0  0  0  0  0  0  0  0  0  0  0  0
    9.6022   -1.0251   -4.4234 H   0  0  0  0  0  0  0  0  0  0  0  0
   10.2313    0.6084   -4.6944 H   0  0  0  0  0  0  0  0  0  0  0  0
    9.9201    0.0387   -3.0526 H   0  0  0  0  0  0  0  0  0  0  0  0
   -0.7152    0.3484    0.4012 H   0  0  0  0  0  0  0  0  0  0  0  0
  1  6  1  0  0  0  0
  1  7  1  0  0  0  0
  2  1  2  0  0  0  0
  3  4  2  0  0  0  0
  3  2  1  0  0  0  0
  4  5  1  0  0  0  0
  5 10  1  0  0  0  0
  5  6  2  0  0  0  0
  6 31  1  0  0  0  0
  8  2  1  0  0  0  0
  9  4  1  0  0  0  0
 12 11  3  0  0  0  0
 13 14  2  0  0  0  0
 13 18  1  0  0  0  0
 14 15  1  0  0  0  0
 15 27  1  0  0  0  0
 15 16  2  0  0  0  0
 16 21  1  0  0  0  0
 17 16  1  0  0  0  0
 17 22  1  0  0  0  0
 18 17  2  0  0  0  0
 19 13  1  0  0  0  0
 20 14  1  0  0  0  0
 23 18  1  0  0  0  0
 23 26  1  0  0  0  0
 24 23  2  0  0  0  0
 25 23  2  0  0  0  0
 27 30  1  0  0  0  0
 28 27  1  0  0  0  0
 29 27  1  0  0  0  0
M  RAD  2   3   2  26   2
M  END
