Coordinates from ORCA-job /home/ubuntu/works/orca-Ph-N2-OTs-B3LYP-6-31G_dp-scan-d09-49-n400/Ph-N2-OTs-B3LYP-6-31G_dp-scan-d09-49-n400
 OpenBabel01281705563D

 31 30  0  0  0  0  0  0  0  0999 V2000
    1.6779    1.2519   -1.1592 C   0  0  0  0  0  0  0  0  0  0  0  0
    1.4065    1.6925   -2.4748 C   0  0  0  0  0  0  0  0  0  0  0  0
    0.3493    1.2246   -2.9864 C   0  0  0  0  0  0  0  0  0  0  0  0
   -0.6598    0.3736   -2.6400 C   0  0  0  0  0  0  0  0  0  0  0  0
   -0.3901   -0.0730   -1.3243 C   0  0  0  0  0  0  0  0  0  0  0  0
    0.7437    0.3551   -0.6108 C   0  0  0  0  0  0  0  0  0  0  0  0
    2.5499    1.5728   -0.5962 H   0  0  0  0  0  0  0  0  0  0  0  0
    2.6263    2.8553   -3.3353 H   0  0  0  0  0  0  0  0  0  0  0  0
   -1.5188    0.0721   -3.2247 H   0  0  0  0  0  0  0  0  0  0  0  0
   -1.0897   -0.7661   -0.8633 H   0  0  0  0  0  0  0  0  0  0  0  0
   -0.3241    1.9481   -5.3089 N   0  0  0  0  0  0  0  0  0  0  0  0
   -0.0924    2.6345   -6.1438 N   0  0  0  0  0  0  0  0  0  0  0  0
    6.5693    2.5668   -4.3576 C   0  0  0  0  0  0  0  0  0  0  0  0
    7.6511    1.7904   -3.9472 C   0  0  0  0  0  0  0  0  0  0  0  0
    7.5159    0.4105   -3.7336 C   0  0  0  0  0  0  0  0  0  0  0  0
    6.2625   -0.1800   -3.9529 C   0  0  0  0  0  0  0  0  0  0  0  0
    5.1687    0.5804   -4.3631 C   0  0  0  0  0  0  0  0  0  0  0  0
    5.3317    1.9529   -4.5583 C   0  0  0  0  0  0  0  0  0  0  0  0
    6.6799    3.6302   -4.5415 H   0  0  0  0  0  0  0  0  0  0  0  0
    8.6188    2.2625   -3.7965 H   0  0  0  0  0  0  0  0  0  0  0  0
    6.1423   -1.2507   -3.8065 H   0  0  0  0  0  0  0  0  0  0  0  0
    4.2047    0.1193   -4.5505 H   0  0  0  0  0  0  0  0  0  0  0  0
    3.9342    2.9451   -5.0688 S   0  0  0  0  0  0  0  0  0  0  0  0
    2.9401    2.0590   -5.6801 O   0  0  0  0  0  0  0  0  0  0  0  0
    4.4356    4.1239   -5.7628 O   0  0  0  0  0  0  0  0  0  0  0  0
    3.3338    3.4819   -3.6598 O   0  0  0  0  0  0  0  0  0  0  0  0
    8.6878   -0.4177   -3.2633 C   0  0  0  0  0  0  0  0  0  0  0  0
    8.6328   -1.4418   -3.6437 H   0  0  0  0  0  0  0  0  0  0  0  0
    9.6389    0.0151   -3.5870 H   0  0  0  0  0  0  0  0  0  0  0  0
    8.7119   -0.4774   -2.1674 H   0  0  0  0  0  0  0  0  0  0  0  0
    0.9006   -0.0211    0.3966 H   0  0  0  0  0  0  0  0  0  0  0  0
  1  6  1  0  0  0  0
  1  7  1  0  0  0  0
  2  1  2  0  0  0  0
  3  4  2  0  0  0  0
  3  2  1  0  0  0  0
  4  5  1  0  0  0  0
  5 10  1  0  0  0  0
  5  6  2  0  0  0  0
  6 31  1  0  0  0  0
  9  4  1  0  0  0  0
 12 11  3  0  0  0  0
 13 14  2  0  0  0  0
 14 20  1  0  0  0  0
 14 15  1  0  0  0  0
 15 27  1  0  0  0  0
 16 21  1  0  0  0  0
 16 15  2  0  0  0  0
 17 16  1  0  0  0  0
 18 17  2  0  0  0  0
 18 13  1  0  0  0  0
 19 13  1  0  0  0  0
 22 17  1  0  0  0  0
 23 18  1  0  0  0  0
 23 26  1  0  0  0  0
 24 23  2  0  0  0  0
 25 23  2  0  0  0  0
 26  8  1  0  0  0  0
 27 30  1  0  0  0  0
 28 27  1  0  0  0  0
 29 27  1  0  0  0  0
M  RAD  2   2   2   3   2
M  END
