Coordinates from ORCA-job /home/ubuntu/works/orca-Ph-N2-OTs-B3LYP-6-31G_dp-scan-d09-49-n400/Ph-N2-OTs-B3LYP-6-31G_dp-scan-d09-49-n400
 OpenBabel01281705563D

 31 30  0  0  0  0  0  0  0  0999 V2000
    1.5003    1.4303   -0.7962 C   0  0  0  0  0  0  0  0  0  0  0  0
    1.4882    1.7725   -2.1623 C   0  0  0  0  0  0  0  0  0  0  0  0
    0.6395    1.1961   -2.8922 C   0  0  0  0  0  0  0  0  0  0  0  0
   -0.3422    0.2584   -2.7328 C   0  0  0  0  0  0  0  0  0  0  0  0
   -0.3451   -0.1045   -1.3633 C   0  0  0  0  0  0  0  0  0  0  0  0
    0.5444    0.4629   -0.4326 C   0  0  0  0  0  0  0  0  0  0  0  0
    2.1819    1.8594   -0.0681 H   0  0  0  0  0  0  0  0  0  0  0  0
    2.7315    2.9932   -3.0802 H   0  0  0  0  0  0  0  0  0  0  0  0
   -1.0123   -0.1533   -3.4757 H   0  0  0  0  0  0  0  0  0  0  0  0
   -1.0676   -0.8469   -1.0320 H   0  0  0  0  0  0  0  0  0  0  0  0
   -0.2132    1.6252   -5.8579 N   0  0  0  0  0  0  0  0  0  0  0  0
   -0.1028    2.2391   -6.7701 N   0  0  0  0  0  0  0  0  0  0  0  0
    6.5917    2.5718   -4.3891 C   0  0  0  0  0  0  0  0  0  0  0  0
    7.6687    1.7482   -4.0665 C   0  0  0  0  0  0  0  0  0  0  0  0
    7.4915    0.3758   -3.8385 C   0  0  0  0  0  0  0  0  0  0  0  0
    6.1994   -0.1596   -3.9525 C   0  0  0  0  0  0  0  0  0  0  0  0
    5.1105    0.6476   -4.2745 C   0  0  0  0  0  0  0  0  0  0  0  0
    5.3168    2.0123   -4.4863 C   0  0  0  0  0  0  0  0  0  0  0  0
    6.7324    3.6296   -4.5837 H   0  0  0  0  0  0  0  0  0  0  0  0
    8.6651    2.1773   -3.9968 H   0  0  0  0  0  0  0  0  0  0  0  0
    6.0450   -1.2240   -3.7928 H   0  0  0  0  0  0  0  0  0  0  0  0
    4.1155    0.2286   -4.3807 H   0  0  0  0  0  0  0  0  0  0  0  0
    3.9277    3.0633   -4.8870 S   0  0  0  0  0  0  0  0  0  0  0  0
    2.8620    2.2271   -5.4452 O   0  0  0  0  0  0  0  0  0  0  0  0
    4.4252    4.2381   -5.5895 O   0  0  0  0  0  0  0  0  0  0  0  0
    3.4386    3.5955   -3.4302 O   0  0  0  0  0  0  0  0  0  0  0  0
    8.6599   -0.5045   -3.4638 C   0  0  0  0  0  0  0  0  0  0  0  0
    8.5725   -1.4988   -3.9119 H   0  0  0  0  0  0  0  0  0  0  0  0
    9.6092   -0.0680   -3.7871 H   0  0  0  0  0  0  0  0  0  0  0  0
    8.7148   -0.6420   -2.3764 H   0  0  0  0  0  0  0  0  0  0  0  0
    0.4906    0.1399    0.6041 H   0  0  0  0  0  0  0  0  0  0  0  0
  1  6  1  0  0  0  0
  1  7  1  0  0  0  0
  2  1  2  0  0  0  0
  3  4  2  0  0  0  0
  3  2  1  0  0  0  0
  4  5  1  0  0  0  0
  5 10  1  0  0  0  0
  5  6  2  0  0  0  0
  6 31  1  0  0  0  0
  9  4  1  0  0  0  0
 12 11  3  0  0  0  0
 13 14  1  0  0  0  0
 14 20  1  0  0  0  0
 14 15  2  0  0  0  0
 15 27  1  0  0  0  0
 16 15  1  0  0  0  0
 16 21  1  0  0  0  0
 17 16  2  0  0  0  0
 18 13  2  0  0  0  0
 18 17  1  0  0  0  0
 19 13  1  0  0  0  0
 22 17  1  0  0  0  0
 23 18  1  0  0  0  0
 23 26  1  0  0  0  0
 24 23  2  0  0  0  0
 25 23  2  0  0  0  0
 26  8  1  0  0  0  0
 27 30  1  0  0  0  0
 28 27  1  0  0  0  0
 29 27  1  0  0  0  0
M  RAD  2   2   2   3   2
M  END
