Coordinates from ORCA-job /home/ubuntu/works/orca-Ph-N2-OTs-B3LYP-6-31G_dp-scan-d09-49-n400/Ph-N2-OTs-B3LYP-6-31G_dp-scan-d09-49-n400
 OpenBabel01281705563D

 31 32  0  0  1  0  0  0  0  0999 V2000
    1.8366    0.3214   -2.0880 C   0  0  0  0  0  0  0  0  0  0  0  0
    1.7615    1.1550   -3.3213 C   0  0  1  0  0  0  0  0  0  0  0  0
    0.3918    1.7205   -3.4860 C   0  0  1  0  0  0  0  0  0  0  0  0
   -0.5580    1.8257   -2.4169 C   0  0  0  0  0  0  0  0  0  0  0  0
   -0.3014    1.1846   -1.2456 C   0  0  0  0  0  0  0  0  0  0  0  0
    0.8963    0.3859   -1.1170 C   0  0  0  0  0  0  0  0  0  0  0  0
    2.7194   -0.3003   -1.9762 H   0  0  0  0  0  0  0  0  0  0  0  0
    2.0999    0.6340   -4.2177 H   0  0  0  0  0  0  0  0  0  0  0  0
   -1.4650    2.4013   -2.5723 H   0  0  0  0  0  0  0  0  0  0  0  0
   -1.0024    1.2442   -0.4200 H   0  0  0  0  0  0  0  0  0  0  0  0
    0.0681    2.2358   -4.7036 N   0  0  0  0  0  0  0  0  0  0  0  0
   -0.1967    2.6625   -5.7219 N   0  0  0  0  0  0  0  0  0  0  0  0
    5.4518    0.7210   -4.9753 C   0  0  0  0  0  0  0  0  0  0  0  0
    6.6266   -0.0072   -4.7870 C   0  0  0  0  0  0  0  0  0  0  0  0
    7.5477    0.3465   -3.7913 C   0  0  0  0  0  0  0  0  0  0  0  0
    7.2686    1.4642   -2.9886 C   0  0  0  0  0  0  0  0  0  0  0  0
    6.1025    2.2048   -3.1623 C   0  0  0  0  0  0  0  0  0  0  0  0
    5.1969    1.8207   -4.1549 C   0  0  0  0  0  0  0  0  0  0  0  0
    4.7495    0.4609   -5.7600 H   0  0  0  0  0  0  0  0  0  0  0  0
    6.8335   -0.8588   -5.4301 H   0  0  0  0  0  0  0  0  0  0  0  0
    7.9803    1.7619   -2.2225 H   0  0  0  0  0  0  0  0  0  0  0  0
    5.9016    3.0790   -2.5520 H   0  0  0  0  0  0  0  0  0  0  0  0
    3.6940    2.7635   -4.3800 S   0  0  0  0  0  0  0  0  0  0  0  0
    3.0544    2.3142   -5.6233 O   0  0  0  0  0  0  0  0  0  0  0  0
    3.9862    4.1724   -4.1451 O   0  0  0  0  0  0  0  0  0  0  0  0
    2.7729    2.2909   -3.1205 O   0  0  0  0  0  0  0  0  0  0  0  0
    8.8033   -0.4644   -3.5760 C   0  0  0  0  0  0  0  0  0  0  0  0
    8.6284   -1.2737   -2.8557 H   0  0  0  0  0  0  0  0  0  0  0  0
    9.1468   -0.9250   -4.5069 H   0  0  0  0  0  0  0  0  0  0  0  0
    9.6158    0.1526   -3.1808 H   0  0  0  0  0  0  0  0  0  0  0  0
    1.0285   -0.2035   -0.2128 H   0  0  0  0  0  0  0  0  0  0  0  0
  1  7  1  0  0  0  0
  1  6  2  0  0  0  0
  2  8  1  6  0  0  0
  2 26  1  0  0  0  0
  2  1  1  0  0  0  0
  3 11  1  1  0  0  0
  3  2  1  0  0  0  0
  3  4  1  0  0  0  0
  4  5  2  0  0  0  0
  5  6  1  0  0  0  0
  5 10  1  0  0  0  0
  6 31  1  0  0  0  0
  9  4  1  0  0  0  0
 12 11  1  0  0  0  0
 13 14  2  0  0  0  0
 13 18  1  0  0  0  0
 14 15  1  0  0  0  0
 15 27  1  0  0  0  0
 15 16  2  0  0  0  0
 16 21  1  0  0  0  0
 17 16  1  0  0  0  0
 17 22  1  0  0  0  0
 18 17  2  0  0  0  0
 19 13  1  0  0  0  0
 20 14  1  0  0  0  0
 23 18  1  0  0  0  0
 23 25  2  0  0  0  0
 23 26  1  0  0  0  0
 24 23  2  0  0  0  0
 27 30  1  0  0  0  0
 27 28  1  0  0  0  0
 29 27  1  0  0  0  0
M  RAD  3   3   2  11   2  12   3
M  END
