Coordinates from ORCA-job /home/ubuntu/works/orca-Ph-N2-OTs-B3LYP-6-31G_dp-scan-d09-49-n400/Ph-N2-OTs-B3LYP-6-31G_dp-scan-d09-49-n400
 OpenBabel01281705563D

 31 30  0  0  0  0  0  0  0  0999 V2000
    1.4393    1.4607   -0.6433 C   0  0  0  0  0  0  0  0  0  0  0  0
    1.5636    1.7677   -2.0111 C   0  0  0  0  0  0  0  0  0  0  0  0
    0.7949    1.1762   -2.8132 C   0  0  0  0  0  0  0  0  0  0  0  0
   -0.2047    0.2463   -2.7315 C   0  0  0  0  0  0  0  0  0  0  0  0
   -0.3473   -0.0822   -1.3606 C   0  0  0  0  0  0  0  0  0  0  0  0
    0.4455    0.5050   -0.3575 C   0  0  0  0  0  0  0  0  0  0  0  0
    2.0434    1.9069    0.1405 H   0  0  0  0  0  0  0  0  0  0  0  0
    2.7890    3.0280   -2.9474 H   0  0  0  0  0  0  0  0  0  0  0  0
   -0.7982   -0.1824   -3.5280 H   0  0  0  0  0  0  0  0  0  0  0  0
   -1.1025   -0.8153   -1.0862 H   0  0  0  0  0  0  0  0  0  0  0  0
   -0.0841    1.4040   -6.1793 N   0  0  0  0  0  0  0  0  0  0  0  0
    0.0330    2.0088   -7.0968 N   0  0  0  0  0  0  0  0  0  0  0  0
    6.5851    2.5813   -4.4055 C   0  0  0  0  0  0  0  0  0  0  0  0
    7.6598    1.7386   -4.1261 C   0  0  0  0  0  0  0  0  0  0  0  0
    7.4680    0.3697   -3.8910 C   0  0  0  0  0  0  0  0  0  0  0  0
    6.1629   -0.1430   -3.9526 C   0  0  0  0  0  0  0  0  0  0  0  0
    5.0766    0.6830   -4.2313 C   0  0  0  0  0  0  0  0  0  0  0  0
    5.2981    2.0442   -4.4517 C   0  0  0  0  0  0  0  0  0  0  0  0
    6.7362    3.6367   -4.6050 H   0  0  0  0  0  0  0  0  0  0  0  0
    8.6655    2.1503   -4.0964 H   0  0  0  0  0  0  0  0  0  0  0  0
    5.9964   -1.2045   -3.7860 H   0  0  0  0  0  0  0  0  0  0  0  0
    4.0710    0.2812   -4.2961 H   0  0  0  0  0  0  0  0  0  0  0  0
    3.9133    3.1203   -4.7970 S   0  0  0  0  0  0  0  0  0  0  0  0
    2.8201    2.3074   -5.3370 O   0  0  0  0  0  0  0  0  0  0  0  0
    4.4066    4.2981   -5.4969 O   0  0  0  0  0  0  0  0  0  0  0  0
    3.4741    3.6400   -3.3199 O   0  0  0  0  0  0  0  0  0  0  0  0
    8.6343   -0.5324   -3.5643 C   0  0  0  0  0  0  0  0  0  0  0  0
    8.5349   -1.5074   -4.0510 H   0  0  0  0  0  0  0  0  0  0  0  0
    9.5829   -0.0898   -3.8807 H   0  0  0  0  0  0  0  0  0  0  0  0
    8.6993   -0.7144   -2.4843 H   0  0  0  0  0  0  0  0  0  0  0  0
    0.2829    0.2078    0.6755 H   0  0  0  0  0  0  0  0  0  0  0  0
  1  6  1  0  0  0  0
  1  7  1  0  0  0  0
  2  1  2  0  0  0  0
  3  4  2  0  0  0  0
  3  2  1  0  0  0  0
  4  5  1  0  0  0  0
  5 10  1  0  0  0  0
  5  6  2  0  0  0  0
  6 31  1  0  0  0  0
  9  4  1  0  0  0  0
 12 11  3  0  0  0  0
 13 14  1  0  0  0  0
 14 20  1  0  0  0  0
 14 15  2  0  0  0  0
 15 27  1  0  0  0  0
 16 15  1  0  0  0  0
 16 21  1  0  0  0  0
 17 16  2  0  0  0  0
 18 13  2  0  0  0  0
 18 17  1  0  0  0  0
 19 13  1  0  0  0  0
 22 17  1  0  0  0  0
 23 18  1  0  0  0  0
 23 26  1  0  0  0  0
 24 23  2  0  0  0  0
 25 23  2  0  0  0  0
 26  8  1  0  0  0  0
 27 30  1  0  0  0  0
 28 27  1  0  0  0  0
 29 27  1  0  0  0  0
M  RAD  2   2   2   3   2
M  END
