Coordinates from ORCA-job /home/ubuntu/works/orca-Ph-N2-OTs-B3LYP-6-31G_dp-scan-d09-49-n400/Ph-N2-OTs-B3LYP-6-31G_dp-scan-d09-49-n400
 OpenBabel01281705563D

 31 30  0  0  0  0  0  0  0  0999 V2000
    1.5035    1.4291   -0.7942 C   0  0  0  0  0  0  0  0  0  0  0  0
    1.4913    1.7719   -2.1602 C   0  0  0  0  0  0  0  0  0  0  0  0
    0.6427    1.1959   -2.8905 C   0  0  0  0  0  0  0  0  0  0  0  0
   -0.3393    0.2584   -2.7315 C   0  0  0  0  0  0  0  0  0  0  0  0
   -0.3422   -0.1051   -1.3622 C   0  0  0  0  0  0  0  0  0  0  0  0
    0.5473    0.4617   -0.4311 C   0  0  0  0  0  0  0  0  0  0  0  0
    2.1850    1.8579   -0.0658 H   0  0  0  0  0  0  0  0  0  0  0  0
    2.7318    2.9944   -3.0813 H   0  0  0  0  0  0  0  0  0  0  0  0
   -1.0094   -0.1529   -3.4747 H   0  0  0  0  0  0  0  0  0  0  0  0
   -1.0648   -0.8476   -1.0312 H   0  0  0  0  0  0  0  0  0  0  0  0
   -0.2137    1.6247   -5.8657 N   0  0  0  0  0  0  0  0  0  0  0  0
   -0.1040    2.2389   -6.7777 N   0  0  0  0  0  0  0  0  0  0  0  0
    6.5906    2.5722   -4.3883 C   0  0  0  0  0  0  0  0  0  0  0  0
    7.6671    1.7481   -4.0650 C   0  0  0  0  0  0  0  0  0  0  0  0
    7.4894    0.3757   -3.8377 C   0  0  0  0  0  0  0  0  0  0  0  0
    6.1972   -0.1593   -3.9530 C   0  0  0  0  0  0  0  0  0  0  0  0
    5.1089    0.6484   -4.2757 C   0  0  0  0  0  0  0  0  0  0  0  0
    5.3157    2.0131   -4.4869 C   0  0  0  0  0  0  0  0  0  0  0  0
    6.7319    3.6300   -4.5824 H   0  0  0  0  0  0  0  0  0  0  0  0
    8.6636    2.1770   -3.9942 H   0  0  0  0  0  0  0  0  0  0  0  0
    6.0424   -1.2237   -3.7938 H   0  0  0  0  0  0  0  0  0  0  0  0
    4.1138    0.2296   -4.3829 H   0  0  0  0  0  0  0  0  0  0  0  0
    3.9273    3.0646   -4.8885 S   0  0  0  0  0  0  0  0  0  0  0  0
    2.8616    2.2288   -5.4472 O   0  0  0  0  0  0  0  0  0  0  0  0
    4.4257    4.2390   -5.5909 O   0  0  0  0  0  0  0  0  0  0  0  0
    3.4377    3.5975   -3.4322 O   0  0  0  0  0  0  0  0  0  0  0  0
    8.6572   -0.5051   -3.4622 C   0  0  0  0  0  0  0  0  0  0  0  0
    8.5700   -1.4991   -3.9110 H   0  0  0  0  0  0  0  0  0  0  0  0
    9.6069   -0.0686   -3.7843 H   0  0  0  0  0  0  0  0  0  0  0  0
    8.7109   -0.6432   -2.3749 H   0  0  0  0  0  0  0  0  0  0  0  0
    0.4934    0.1383    0.6055 H   0  0  0  0  0  0  0  0  0  0  0  0
  1  6  1  0  0  0  0
  1  7  1  0  0  0  0
  2  1  2  0  0  0  0
  3  4  2  0  0  0  0
  3  2  1  0  0  0  0
  4  5  1  0  0  0  0
  5 10  1  0  0  0  0
  5  6  2  0  0  0  0
  6 31  1  0  0  0  0
  9  4  1  0  0  0  0
 12 11  3  0  0  0  0
 13 14  1  0  0  0  0
 14 20  1  0  0  0  0
 14 15  2  0  0  0  0
 15 27  1  0  0  0  0
 16 15  1  0  0  0  0
 16 21  1  0  0  0  0
 17 16  2  0  0  0  0
 18 13  2  0  0  0  0
 18 17  1  0  0  0  0
 19 13  1  0  0  0  0
 22 17  1  0  0  0  0
 23 18  1  0  0  0  0
 23 26  1  0  0  0  0
 24 23  2  0  0  0  0
 25 23  2  0  0  0  0
 26  8  1  0  0  0  0
 27 30  1  0  0  0  0
 28 27  1  0  0  0  0
 29 27  1  0  0  0  0
M  RAD  2   2   2   3   2
M  END
