Coordinates from ORCA-job /home/ubuntu/works/orca-Ph-N2-OTs-B3LYP-6-31G_dp-scan-d09-49-n400/Ph-N2-OTs-B3LYP-6-31G_dp-scan-d09-49-n400
 OpenBabel01281705563D

 31 31  0  0  0  0  0  0  0  0999 V2000
    0.6535    1.4025   -0.7272 C   0  0  0  0  0  0  0  0  0  0  0  0
    1.1696    2.2568   -1.7028 C   0  0  0  0  0  0  0  0  0  0  0  0
    1.7525    1.7007   -2.8421 C   0  0  0  0  0  0  0  0  0  0  0  0
    1.8227    0.3197   -3.0253 C   0  0  0  0  0  0  0  0  0  0  0  0
    1.2948   -0.5225   -2.0452 C   0  0  0  0  0  0  0  0  0  0  0  0
    0.7132    0.0164   -0.8951 C   0  0  0  0  0  0  0  0  0  0  0  0
    0.1988    1.8240    0.1648 H   0  0  0  0  0  0  0  0  0  0  0  0
    1.1320    3.3341   -1.5921 H   0  0  0  0  0  0  0  0  0  0  0  0
    2.2755   -0.0735   -3.9295 H   0  0  0  0  0  0  0  0  0  0  0  0
    1.3393   -1.5995   -2.1822 H   0  0  0  0  0  0  0  0  0  0  0  0
    2.2972    2.6197   -7.3259 N   0  0  0  0  0  0  0  0  0  0  0  0
    1.3691    3.2092   -7.4361 N   0  0  0  0  0  0  0  0  0  0  0  0
    5.2576    1.6952   -5.0964 C   0  0  0  0  0  0  0  0  0  0  0  0
    6.2358    0.7102   -5.2027 C   0  0  0  0  0  0  0  0  0  0  0  0
    6.8489    0.1663   -4.0626 C   0  0  0  0  0  0  0  0  0  0  0  0
    6.4522    0.6330   -2.8015 C   0  0  0  0  0  0  0  0  0  0  0  0
    5.4740    1.6176   -2.6713 C   0  0  0  0  0  0  0  0  0  0  0  0
    4.8858    2.1398   -3.8243 C   0  0  0  0  0  0  0  0  0  0  0  0
    4.7917    2.1183   -5.9796 H   0  0  0  0  0  0  0  0  0  0  0  0
    6.5318    0.3592   -6.1878 H   0  0  0  0  0  0  0  0  0  0  0  0
    6.9160    0.2229   -1.9085 H   0  0  0  0  0  0  0  0  0  0  0  0
    5.1748    1.9868   -1.6967 H   0  0  0  0  0  0  0  0  0  0  0  0
    3.6268    3.3935   -3.6746 S   0  0  0  0  0  0  0  0  0  0  0  0
    2.2131    2.5226   -3.8781 O   0  0  0  0  0  0  0  0  0  0  0  0
    3.6462    4.2515   -4.8501 O   0  0  0  0  0  0  0  0  0  0  0  0
    3.6569    3.9336   -2.3183 O   0  0  0  0  0  0  0  0  0  0  0  0
    7.9331   -0.8756   -4.1949 C   0  0  0  0  0  0  0  0  0  0  0  0
    7.9791   -1.5213   -3.3127 H   0  0  0  0  0  0  0  0  0  0  0  0
    7.7762   -1.5067   -5.0748 H   0  0  0  0  0  0  0  0  0  0  0  0
    8.9171   -0.4026   -4.3048 H   0  0  0  0  0  0  0  0  0  0  0  0
    0.3041   -0.6411   -0.1334 H   0  0  0  0  0  0  0  0  0  0  0  0
  1  7  1  0  0  0  0
  2  8  1  0  0  0  0
  2  1  2  0  0  0  0
  3  2  1  0  0  0  0
  4  3  2  0  0  0  0
  4  5  1  0  0  0  0
  5  6  2  0  0  0  0
  6  1  1  0  0  0  0
  6 31  1  0  0  0  0
  9  4  1  0  0  0  0
 10  5  1  0  0  0  0
 12 11  3  0  0  0  0
 13 18  1  0  0  0  0
 14 13  2  0  0  0  0
 14 15  1  0  0  0  0
 15 16  2  0  0  0  0
 16 17  1  0  0  0  0
 16 21  1  0  0  0  0
 17 22  1  0  0  0  0
 18 23  1  0  0  0  0
 18 17  2  0  0  0  0
 19 13  1  0  0  0  0
 20 14  1  0  0  0  0
 23 26  2  0  0  0  0
 24 23  1  0  0  0  0
 24  3  1  0  0  0  0
 25 23  2  0  0  0  0
 27 15  1  0  0  0  0
 27 28  1  0  0  0  0
 29 27  1  0  0  0  0
 30 27  1  0  0  0  0
M  END
