Coordinates from ORCA-job /home/ubuntu/works/orca-Ph-N2-OTs-B3LYP-6-31G_dp-scan-d09-49-n400/Ph-N2-OTs-B3LYP-6-31G_dp-scan-d09-49-n400
 OpenBabel01281705563D

 31 30  0  0  0  0  0  0  0  0999 V2000
    1.6784    1.2555   -1.1289 C   0  0  0  0  0  0  0  0  0  0  0  0
    1.4163    1.6895   -2.4474 C   0  0  0  0  0  0  0  0  0  0  0  0
    0.3689    1.2196   -2.9738 C   0  0  0  0  0  0  0  0  0  0  0  0
   -0.6409    0.3649   -2.6378 C   0  0  0  0  0  0  0  0  0  0  0  0
   -0.3834   -0.0779   -1.3179 C   0  0  0  0  0  0  0  0  0  0  0  0
    0.7402    0.3557   -0.5914 C   0  0  0  0  0  0  0  0  0  0  0  0
    2.5424    1.5808   -0.5565 H   0  0  0  0  0  0  0  0  0  0  0  0
    2.6328    2.8626   -3.3309 H   0  0  0  0  0  0  0  0  0  0  0  0
   -1.4924    0.0583   -3.2310 H   0  0  0  0  0  0  0  0  0  0  0  0
   -1.0854   -0.7730   -0.8634 H   0  0  0  0  0  0  0  0  0  0  0  0
   -0.3315    1.9487   -5.3738 N   0  0  0  0  0  0  0  0  0  0  0  0
   -0.1051    2.6386   -6.2072 N   0  0  0  0  0  0  0  0  0  0  0  0
    6.5687    2.5676   -4.3573 C   0  0  0  0  0  0  0  0  0  0  0  0
    7.6493    1.7889   -3.9480 C   0  0  0  0  0  0  0  0  0  0  0  0
    7.5119    0.4089   -3.7365 C   0  0  0  0  0  0  0  0  0  0  0  0
    6.2576   -0.1793   -3.9565 C   0  0  0  0  0  0  0  0  0  0  0  0
    5.1650    0.5834   -4.3656 C   0  0  0  0  0  0  0  0  0  0  0  0
    5.3302    1.9559   -4.5589 C   0  0  0  0  0  0  0  0  0  0  0  0
    6.6810    3.6311   -4.5398 H   0  0  0  0  0  0  0  0  0  0  0  0
    8.6178    2.2592   -3.7968 H   0  0  0  0  0  0  0  0  0  0  0  0
    6.1358   -1.2501   -3.8116 H   0  0  0  0  0  0  0  0  0  0  0  0
    4.2003    0.1240   -4.5537 H   0  0  0  0  0  0  0  0  0  0  0  0
    3.9345    2.9508   -5.0684 S   0  0  0  0  0  0  0  0  0  0  0  0
    2.9379    2.0671   -5.6787 O   0  0  0  0  0  0  0  0  0  0  0  0
    4.4374    4.1294   -5.7615 O   0  0  0  0  0  0  0  0  0  0  0  0
    3.3363    3.4896   -3.6581 O   0  0  0  0  0  0  0  0  0  0  0  0
    8.6826   -0.4218   -3.2674 C   0  0  0  0  0  0  0  0  0  0  0  0
    8.6268   -1.4448   -3.6506 H   0  0  0  0  0  0  0  0  0  0  0  0
    9.6344    0.0109   -3.5891 H   0  0  0  0  0  0  0  0  0  0  0  0
    8.7057   -0.4845   -2.1717 H   0  0  0  0  0  0  0  0  0  0  0  0
    0.8862   -0.0188    0.4183 H   0  0  0  0  0  0  0  0  0  0  0  0
  1  6  1  0  0  0  0
  1  7  1  0  0  0  0
  2  1  2  0  0  0  0
  3  4  2  0  0  0  0
  3  2  1  0  0  0  0
  4  5  1  0  0  0  0
  5 10  1  0  0  0  0
  5  6  2  0  0  0  0
  6 31  1  0  0  0  0
  9  4  1  0  0  0  0
 12 11  3  0  0  0  0
 13 14  2  0  0  0  0
 14 20  1  0  0  0  0
 14 15  1  0  0  0  0
 15 27  1  0  0  0  0
 16 21  1  0  0  0  0
 16 15  2  0  0  0  0
 17 16  1  0  0  0  0
 18 17  2  0  0  0  0
 18 13  1  0  0  0  0
 19 13  1  0  0  0  0
 22 17  1  0  0  0  0
 23 18  1  0  0  0  0
 23 26  1  0  0  0  0
 24 23  2  0  0  0  0
 25 23  2  0  0  0  0
 26  8  1  0  0  0  0
 27 30  1  0  0  0  0
 28 27  1  0  0  0  0
 29 27  1  0  0  0  0
M  RAD  2   2   2   3   2
M  END
