Coordinates from ORCA-job /home/ubuntu/works/orca-Ph-N2-OTs-B3LYP-6-31G_dp-scan-d09-49-n400/Ph-N2-OTs-B3LYP-6-31G_dp-scan-d09-49-n400
 OpenBabel01281705563D

 31 30  0  0  0  0  0  0  0  0999 V2000
    0.3526    0.8381   -0.8530 C   0  0  0  0  0  0  0  0  0  0  0  0
    1.0441    1.3574   -1.9722 C   0  0  0  0  0  0  0  0  0  0  0  0
    0.2101    1.4625   -3.0232 C   0  0  0  0  0  0  0  0  0  0  0  0
   -1.1043    1.1869   -3.2594 C   0  0  0  0  0  0  0  0  0  0  0  0
   -1.7267    0.6659   -2.1093 C   0  0  0  0  0  0  0  0  0  0  0  0
   -1.0005    0.4974   -0.9256 C   0  0  0  0  0  0  0  0  0  0  0  0
    0.9110    0.7083    0.0695 H   0  0  0  0  0  0  0  0  0  0  0  0
    2.1170    1.6426   -1.9568 H   0  0  0  0  0  0  0  0  0  0  0  0
   -1.6162    1.3405   -4.1999 H   0  0  0  0  0  0  0  0  0  0  0  0
   -2.7775    0.3986   -2.1647 H   0  0  0  0  0  0  0  0  0  0  0  0
    1.0481    2.2336   -4.6462 N   0  0  0  0  0  0  0  0  0  0  0  0
    0.9321    2.8064   -5.5898 N   0  0  0  0  0  0  0  0  0  0  0  0
    6.4022    2.0794   -4.9635 C   0  0  0  0  0  0  0  0  0  0  0  0
    7.6651    1.5452   -5.2151 C   0  0  0  0  0  0  0  0  0  0  0  0
    8.2163    0.5617   -4.3816 C   0  0  0  0  0  0  0  0  0  0  0  0
    7.4647    0.1249   -3.2812 C   0  0  0  0  0  0  0  0  0  0  0  0
    6.2006    0.6493   -3.0175 C   0  0  0  0  0  0  0  0  0  0  0  0
    5.6732    1.6257   -3.8637 C   0  0  0  0  0  0  0  0  0  0  0  0
    5.9820    2.8515   -5.5996 H   0  0  0  0  0  0  0  0  0  0  0  0
    8.2338    1.9001   -6.0716 H   0  0  0  0  0  0  0  0  0  0  0  0
    7.8769   -0.6343   -2.6200 H   0  0  0  0  0  0  0  0  0  0  0  0
    5.6276    0.3212   -2.1567 H   0  0  0  0  0  0  0  0  0  0  0  0
    4.0222    2.2754   -3.5748 S   0  0  0  0  0  0  0  0  0  0  0  0
    3.0995    1.2805   -4.2544 O   0  0  0  0  0  0  0  0  0  0  0  0
    3.9597    3.6204   -4.1789 O   0  0  0  0  0  0  0  0  0  0  0  0
    3.8225    2.2307   -2.0877 O   0  0  0  0  0  0  0  0  0  0  0  0
    9.5992    0.0119   -4.6424 C   0  0  0  0  0  0  0  0  0  0  0  0
    9.6994   -1.0142   -4.2750 H   0  0  0  0  0  0  0  0  0  0  0  0
    9.8365    0.0145   -5.7109 H   0  0  0  0  0  0  0  0  0  0  0  0
   10.3657    0.6135   -4.1377 H   0  0  0  0  0  0  0  0  0  0  0  0
   -1.4975    0.0948   -0.0488 H   0  0  0  0  0  0  0  0  0  0  0  0
  1  7  1  0  0  0  0
  2  8  1  0  0  0  0
  2  1  2  0  0  0  0
  3  2  1  0  0  0  0
  4  3  2  0  0  0  0
  4  5  1  0  0  0  0
  5  6  2  0  0  0  0
  6  1  1  0  0  0  0
  6 31  1  0  0  0  0
  9  4  1  0  0  0  0
 10  5  1  0  0  0  0
 12 11  3  0  0  0  0
 13 18  1  0  0  0  0
 14 13  2  0  0  0  0
 14 15  1  0  0  0  0
 15 16  2  0  0  0  0
 16 17  1  0  0  0  0
 16 21  1  0  0  0  0
 17 22  1  0  0  0  0
 18 23  1  0  0  0  0
 18 17  2  0  0  0  0
 19 13  1  0  0  0  0
 20 14  1  0  0  0  0
 23 26  1  0  0  0  0
 24 23  2  0  0  0  0
 25 23  2  0  0  0  0
 27 15  1  0  0  0  0
 27 28  1  0  0  0  0
 27 30  1  0  0  0  0
 29 27  1  0  0  0  0
M  RAD  2   3   2  26   2
M  END
