Coordinates from ORCA-job /home/ubuntu/works/orca-Ph-N2-OTs-B3LYP-6-31G_dp-scan-d09-49-n400/Ph-N2-OTs-B3LYP-6-31G_dp-scan-d09-49-n400
 OpenBabel01281705563D

 31 30  0  0  0  0  0  0  0  0999 V2000
    1.5636    1.3852   -0.8645 C   0  0  0  0  0  0  0  0  0  0  0  0
    1.4732    1.7566   -2.2202 C   0  0  0  0  0  0  0  0  0  0  0  0
    0.5719    1.2065   -2.9063 C   0  0  0  0  0  0  0  0  0  0  0  0
   -0.4115    0.2788   -2.7052 C   0  0  0  0  0  0  0  0  0  0  0  0
   -0.3353   -0.1127   -1.3458 C   0  0  0  0  0  0  0  0  0  0  0  0
    0.6182    0.4233   -0.4611 C   0  0  0  0  0  0  0  0  0  0  0  0
    2.2957    1.7896   -0.1719 H   0  0  0  0  0  0  0  0  0  0  0  0
    2.7011    2.9680   -3.1619 H   0  0  0  0  0  0  0  0  0  0  0  0
   -1.1319   -0.1089   -3.4134 H   0  0  0  0  0  0  0  0  0  0  0  0
   -1.0467   -0.8523   -0.9854 H   0  0  0  0  0  0  0  0  0  0  0  0
   -0.2688    1.7520   -5.7821 N   0  0  0  0  0  0  0  0  0  0  0  0
   -0.1418    2.3907   -6.6749 N   0  0  0  0  0  0  0  0  0  0  0  0
    6.5827    2.5692   -4.3786 C   0  0  0  0  0  0  0  0  0  0  0  0
    7.6590    1.7570   -4.0267 C   0  0  0  0  0  0  0  0  0  0  0  0
    7.4903    0.3825   -3.8041 C   0  0  0  0  0  0  0  0  0  0  0  0
    6.2078   -0.1665   -3.9538 C   0  0  0  0  0  0  0  0  0  0  0  0
    5.1193    0.6294   -4.3052 C   0  0  0  0  0  0  0  0  0  0  0  0
    5.3168    1.9961   -4.5108 C   0  0  0  0  0  0  0  0  0  0  0  0
    6.7177    3.6284   -4.5694 H   0  0  0  0  0  0  0  0  0  0  0  0
    8.6486    2.1967   -3.9297 H   0  0  0  0  0  0  0  0  0  0  0  0
    6.0605   -1.2327   -3.7991 H   0  0  0  0  0  0  0  0  0  0  0  0
    4.1321    0.2000   -4.4392 H   0  0  0  0  0  0  0  0  0  0  0  0
    3.9279    3.0326   -4.9487 S   0  0  0  0  0  0  0  0  0  0  0  0
    2.8799    2.1829   -5.5192 O   0  0  0  0  0  0  0  0  0  0  0  0
    4.4303    4.2048   -5.6522 O   0  0  0  0  0  0  0  0  0  0  0  0
    3.4068    3.5751   -3.5067 O   0  0  0  0  0  0  0  0  0  0  0  0
    8.6578   -0.4845   -3.3969 C   0  0  0  0  0  0  0  0  0  0  0  0
    8.5719   -1.4932   -3.8117 H   0  0  0  0  0  0  0  0  0  0  0  0
    9.6079   -0.0586   -3.7319 H   0  0  0  0  0  0  0  0  0  0  0  0
    8.7102   -0.5848   -2.3053 H   0  0  0  0  0  0  0  0  0  0  0  0
    0.6244    0.0795    0.5702 H   0  0  0  0  0  0  0  0  0  0  0  0
  1  6  1  0  0  0  0
  1  7  1  0  0  0  0
  2  1  2  0  0  0  0
  3  4  2  0  0  0  0
  3  2  1  0  0  0  0
  4  5  1  0  0  0  0
  5 10  1  0  0  0  0
  5  6  2  0  0  0  0
  6 31  1  0  0  0  0
  9  4  1  0  0  0  0
 12 11  3  0  0  0  0
 13 14  1  0  0  0  0
 14 20  1  0  0  0  0
 14 15  2  0  0  0  0
 15 27  1  0  0  0  0
 16 15  1  0  0  0  0
 16 21  1  0  0  0  0
 17 16  2  0  0  0  0
 18 13  2  0  0  0  0
 18 17  1  0  0  0  0
 19 13  1  0  0  0  0
 22 17  1  0  0  0  0
 23 18  1  0  0  0  0
 23 26  1  0  0  0  0
 24 23  2  0  0  0  0
 25 23  2  0  0  0  0
 26  8  1  0  0  0  0
 27 30  1  0  0  0  0
 28 27  1  0  0  0  0
 29 27  1  0  0  0  0
M  RAD  2   2   2   3   2
M  END
