Coordinates from ORCA-job /home/ubuntu/works/orca-Ph-N2-OTs-B3LYP-6-31G_dp-scan-d09-49-n400/Ph-N2-OTs-B3LYP-6-31G_dp-scan-d09-49-n400
 OpenBabel01281705563D

 31 30  0  0  0  0  0  0  0  0999 V2000
    1.4153    1.4511   -0.6822 C   0  0  0  0  0  0  0  0  0  0  0  0
    1.5259    1.7619   -2.0506 C   0  0  0  0  0  0  0  0  0  0  0  0
    0.7359    1.1849   -2.8427 C   0  0  0  0  0  0  0  0  0  0  0  0
   -0.2763    0.2703   -2.7497 C   0  0  0  0  0  0  0  0  0  0  0  0
   -0.4050   -0.0614   -1.3783 C   0  0  0  0  0  0  0  0  0  0  0  0
    0.4113    0.5097   -0.3849 C   0  0  0  0  0  0  0  0  0  0  0  0
    2.0377    1.8851    0.0942 H   0  0  0  0  0  0  0  0  0  0  0  0
    2.7783    3.0046   -2.9613 H   0  0  0  0  0  0  0  0  0  0  0  0
   -0.8872   -0.1456   -3.5396 H   0  0  0  0  0  0  0  0  0  0  0  0
   -1.1680   -0.7833   -1.0958 H   0  0  0  0  0  0  0  0  0  0  0  0
   -0.1084    1.4206   -5.9992 N   0  0  0  0  0  0  0  0  0  0  0  0
    0.0123    1.9924   -6.9370 N   0  0  0  0  0  0  0  0  0  0  0  0
    6.6040    2.5791   -4.4138 C   0  0  0  0  0  0  0  0  0  0  0  0
    7.6858    1.7450   -4.1361 C   0  0  0  0  0  0  0  0  0  0  0  0
    7.5048    0.3756   -3.8961 C   0  0  0  0  0  0  0  0  0  0  0  0
    6.2031   -0.1467   -3.9510 C   0  0  0  0  0  0  0  0  0  0  0  0
    5.1099    0.6705   -4.2280 C   0  0  0  0  0  0  0  0  0  0  0  0
    5.3208    2.0327   -4.4535 C   0  0  0  0  0  0  0  0  0  0  0  0
    6.7466    3.6350   -4.6169 H   0  0  0  0  0  0  0  0  0  0  0  0
    8.6886    2.1641   -4.1115 H   0  0  0  0  0  0  0  0  0  0  0  0
    6.0449   -1.2089   -3.7804 H   0  0  0  0  0  0  0  0  0  0  0  0
    4.1070    0.2611   -4.2879 H   0  0  0  0  0  0  0  0  0  0  0  0
    3.9266    3.0970   -4.7967 S   0  0  0  0  0  0  0  0  0  0  0  0
    2.8406    2.2759   -5.3387 O   0  0  0  0  0  0  0  0  0  0  0  0
    4.4100    4.2807   -5.4939 O   0  0  0  0  0  0  0  0  0  0  0  0
    3.4815    3.6063   -3.3178 O   0  0  0  0  0  0  0  0  0  0  0  0
    8.6786   -0.5176   -3.5717 C   0  0  0  0  0  0  0  0  0  0  0  0
    8.5896   -1.4904   -4.0649 H   0  0  0  0  0  0  0  0  0  0  0  0
    9.6239   -0.0643   -3.8826 H   0  0  0  0  0  0  0  0  0  0  0  0
    8.7421   -0.7061   -2.4927 H   0  0  0  0  0  0  0  0  0  0  0  0
    0.2595    0.2114    0.6495 H   0  0  0  0  0  0  0  0  0  0  0  0
  1  6  1  0  0  0  0
  1  7  1  0  0  0  0
  2  1  2  0  0  0  0
  3  4  2  0  0  0  0
  3  2  1  0  0  0  0
  4  5  1  0  0  0  0
  5 10  1  0  0  0  0
  5  6  2  0  0  0  0
  6 31  1  0  0  0  0
  9  4  1  0  0  0  0
 12 11  3  0  0  0  0
 13 14  1  0  0  0  0
 14 20  1  0  0  0  0
 14 15  2  0  0  0  0
 15 27  1  0  0  0  0
 16 15  1  0  0  0  0
 16 21  1  0  0  0  0
 17 16  2  0  0  0  0
 18 13  2  0  0  0  0
 18 17  1  0  0  0  0
 19 13  1  0  0  0  0
 22 17  1  0  0  0  0
 23 18  1  0  0  0  0
 23 26  1  0  0  0  0
 24 23  2  0  0  0  0
 25 23  2  0  0  0  0
 26  8  1  0  0  0  0
 27 30  1  0  0  0  0
 28 27  1  0  0  0  0
 29 27  1  0  0  0  0
M  RAD  2   2   2   3   2
M  END
