Coordinates from ORCA-job /home/ubuntu/works/orca-Ph-N2-OTs-B3LYP-6-31G_dp-scan-d09-49-n400/Ph-N2-OTs-B3LYP-6-31G_dp-scan-d09-49-n400
 OpenBabel01281705563D

 31 31  0  0  0  0  0  0  0  0999 V2000
    0.6712    1.3981   -0.7465 C   0  0  0  0  0  0  0  0  0  0  0  0
    1.1910    2.2638   -1.7099 C   0  0  0  0  0  0  0  0  0  0  0  0
    1.7634    1.7215   -2.8613 C   0  0  0  0  0  0  0  0  0  0  0  0
    1.8191    0.3432   -3.0681 C   0  0  0  0  0  0  0  0  0  0  0  0
    1.2873   -0.5103   -2.1000 C   0  0  0  0  0  0  0  0  0  0  0  0
    0.7164    0.0145   -0.9381 C   0  0  0  0  0  0  0  0  0  0  0  0
    0.2247    1.8088    0.1546 H   0  0  0  0  0  0  0  0  0  0  0  0
    1.1645    3.3394   -1.5807 H   0  0  0  0  0  0  0  0  0  0  0  0
    2.2640   -0.0387   -3.9810 H   0  0  0  0  0  0  0  0  0  0  0  0
    1.3203   -1.5852   -2.2556 H   0  0  0  0  0  0  0  0  0  0  0  0
    2.2012    2.5080   -7.1976 N   0  0  0  0  0  0  0  0  0  0  0  0
    1.2806    3.1040   -7.3329 N   0  0  0  0  0  0  0  0  0  0  0  0
    5.2677    1.7032   -5.0900 C   0  0  0  0  0  0  0  0  0  0  0  0
    6.2399    0.7121   -5.1940 C   0  0  0  0  0  0  0  0  0  0  0  0
    6.8490    0.1667   -4.0524 C   0  0  0  0  0  0  0  0  0  0  0  0
    6.4541    0.6381   -2.7925 C   0  0  0  0  0  0  0  0  0  0  0  0
    5.4817    1.6287   -2.6647 C   0  0  0  0  0  0  0  0  0  0  0  0
    4.8976    2.1524   -3.8191 C   0  0  0  0  0  0  0  0  0  0  0  0
    4.8044    2.1273   -5.9741 H   0  0  0  0  0  0  0  0  0  0  0  0
    6.5344    0.3573   -6.1782 H   0  0  0  0  0  0  0  0  0  0  0  0
    6.9148    0.2267   -1.8984 H   0  0  0  0  0  0  0  0  0  0  0  0
    5.1839    2.0014   -1.6910 H   0  0  0  0  0  0  0  0  0  0  0  0
    3.6471    3.4150   -3.6730 S   0  0  0  0  0  0  0  0  0  0  0  0
    2.2276    2.5556   -3.8855 O   0  0  0  0  0  0  0  0  0  0  0  0
    3.6778    4.2753   -4.8465 O   0  0  0  0  0  0  0  0  0  0  0  0
    3.6747    3.9519   -2.3153 O   0  0  0  0  0  0  0  0  0  0  0  0
    7.9271   -0.8818   -4.1821 C   0  0  0  0  0  0  0  0  0  0  0  0
    7.9697   -1.5253   -3.2981 H   0  0  0  0  0  0  0  0  0  0  0  0
    7.7662   -1.5145   -5.0602 H   0  0  0  0  0  0  0  0  0  0  0  0
    8.9137   -0.4148   -4.2937 H   0  0  0  0  0  0  0  0  0  0  0  0
    0.3045   -0.6518   -0.1857 H   0  0  0  0  0  0  0  0  0  0  0  0
  1  7  1  0  0  0  0
  2  8  1  0  0  0  0
  2  1  2  0  0  0  0
  3  2  1  0  0  0  0
  4  3  2  0  0  0  0
  4  5  1  0  0  0  0
  5  6  2  0  0  0  0
  6  1  1  0  0  0  0
  6 31  1  0  0  0  0
  9  4  1  0  0  0  0
 10  5  1  0  0  0  0
 12 11  3  0  0  0  0
 13 18  1  0  0  0  0
 14 13  2  0  0  0  0
 14 15  1  0  0  0  0
 15 16  2  0  0  0  0
 16 17  1  0  0  0  0
 16 21  1  0  0  0  0
 17 22  1  0  0  0  0
 18 23  1  0  0  0  0
 18 17  2  0  0  0  0
 19 13  1  0  0  0  0
 20 14  1  0  0  0  0
 23 26  2  0  0  0  0
 24 23  1  0  0  0  0
 24  3  1  0  0  0  0
 25 23  2  0  0  0  0
 27 15  1  0  0  0  0
 27 28  1  0  0  0  0
 29 27  1  0  0  0  0
 30 27  1  0  0  0  0
M  END
