Coordinates from ORCA-job /home/ubuntu/works/orca-Ph-N2-OTs-B3LYP-6-31G_dp-scan-d09-49-n400/Ph-N2-OTs-B3LYP-6-31G_dp-scan-d09-49-n400
 OpenBabel01281705563D

 31 31  0  0  0  0  0  0  0  0999 V2000
    0.6479    1.3968   -0.6911 C   0  0  0  0  0  0  0  0  0  0  0  0
    1.1519    2.2416   -1.6810 C   0  0  0  0  0  0  0  0  0  0  0  0
    1.7379    1.6748   -2.8135 C   0  0  0  0  0  0  0  0  0  0  0  0
    1.8232    0.2919   -2.9756 C   0  0  0  0  0  0  0  0  0  0  0  0
    1.3075   -0.5410   -1.9812 C   0  0  0  0  0  0  0  0  0  0  0  0
    0.7227    0.0090   -0.8378 C   0  0  0  0  0  0  0  0  0  0  0  0
    0.1908    1.8268    0.1957 H   0  0  0  0  0  0  0  0  0  0  0  0
    1.1026    3.3200   -1.5867 H   0  0  0  0  0  0  0  0  0  0  0  0
    2.2779   -0.1101   -3.8749 H   0  0  0  0  0  0  0  0  0  0  0  0
    1.3639   -1.6194   -2.1016 H   0  0  0  0  0  0  0  0  0  0  0  0
    2.4485    2.7527   -7.4987 N   0  0  0  0  0  0  0  0  0  0  0  0
    1.5381    3.3654   -7.6280 N   0  0  0  0  0  0  0  0  0  0  0  0
    5.2304    1.6805   -5.1030 C   0  0  0  0  0  0  0  0  0  0  0  0
    6.2155    0.7024   -5.2109 C   0  0  0  0  0  0  0  0  0  0  0  0
    6.8386    0.1673   -4.0721 C   0  0  0  0  0  0  0  0  0  0  0  0
    6.4452    0.6358   -2.8106 C   0  0  0  0  0  0  0  0  0  0  0  0
    5.4605    1.6136   -2.6788 C   0  0  0  0  0  0  0  0  0  0  0  0
    4.8621    2.1270   -3.8307 C   0  0  0  0  0  0  0  0  0  0  0  0
    4.7571    2.0968   -5.9856 H   0  0  0  0  0  0  0  0  0  0  0  0
    6.5089    0.3499   -6.1963 H   0  0  0  0  0  0  0  0  0  0  0  0
    6.9169    0.2325   -1.9186 H   0  0  0  0  0  0  0  0  0  0  0  0
    5.1638    1.9843   -1.7040 H   0  0  0  0  0  0  0  0  0  0  0  0
    3.5938    3.3710   -3.6785 S   0  0  0  0  0  0  0  0  0  0  0  0
    2.1862    2.4864   -3.8626 O   0  0  0  0  0  0  0  0  0  0  0  0
    3.5959    4.2205   -4.8604 O   0  0  0  0  0  0  0  0  0  0  0  0
    3.6314    3.9215   -2.3266 O   0  0  0  0  0  0  0  0  0  0  0  0
    7.9298   -0.8671   -4.2061 C   0  0  0  0  0  0  0  0  0  0  0  0
    7.9815   -1.5125   -3.3241 H   0  0  0  0  0  0  0  0  0  0  0  0
    7.7759   -1.4992   -5.0859 H   0  0  0  0  0  0  0  0  0  0  0  0
    8.9103   -0.3873   -4.3174 H   0  0  0  0  0  0  0  0  0  0  0  0
    0.3230   -0.6413   -0.0651 H   0  0  0  0  0  0  0  0  0  0  0  0
  1  7  1  0  0  0  0
  2  8  1  0  0  0  0
  2  1  2  0  0  0  0
  3  2  1  0  0  0  0
  4  3  2  0  0  0  0
  4  5  1  0  0  0  0
  5  6  2  0  0  0  0
  6  1  1  0  0  0  0
  6 31  1  0  0  0  0
  9  4  1  0  0  0  0
 10  5  1  0  0  0  0
 12 11  3  0  0  0  0
 13 18  1  0  0  0  0
 14 13  2  0  0  0  0
 14 15  1  0  0  0  0
 15 16  2  0  0  0  0
 16 17  1  0  0  0  0
 16 21  1  0  0  0  0
 17 22  1  0  0  0  0
 18 23  1  0  0  0  0
 18 17  2  0  0  0  0
 19 13  1  0  0  0  0
 20 14  1  0  0  0  0
 23 26  2  0  0  0  0
 24 23  1  0  0  0  0
 24  3  1  0  0  0  0
 25 23  2  0  0  0  0
 27 15  1  0  0  0  0
 27 28  1  0  0  0  0
 29 27  1  0  0  0  0
 30 27  1  0  0  0  0
M  END
