Coordinates from ORCA-job /home/ubuntu/works/orca-Ph-N2-OTs-B3LYP-6-31G_dp-scan-d09-49-n400/Ph-N2-OTs-B3LYP-6-31G_dp-scan-d09-49-n400
 OpenBabel01281705563D

 31 31  0  0  0  0  0  0  0  0999 V2000
    0.2197    0.8537   -0.8289 C   0  0  0  0  0  0  0  0  0  0  0  0
    1.0068    1.3191   -1.8985 C   0  0  0  0  0  0  0  0  0  0  0  0
    0.2902    1.4482   -3.0490 C   0  0  0  0  0  0  0  0  0  0  0  0
   -1.0286    1.2045   -3.3408 C   0  0  0  0  0  0  0  0  0  0  0  0
   -1.7594    0.7321   -2.2407 C   0  0  0  0  0  0  0  0  0  0  0  0
   -1.1359    0.5612   -1.0004 C   0  0  0  0  0  0  0  0  0  0  0  0
    0.6940    0.7232    0.1390 H   0  0  0  0  0  0  0  0  0  0  0  0
    2.0708    1.5638   -1.8050 H   0  0  0  0  0  0  0  0  0  0  0  0
   -1.4662    1.3581   -4.3188 H   0  0  0  0  0  0  0  0  0  0  0  0
   -2.8124    0.5021   -2.3702 H   0  0  0  0  0  0  0  0  0  0  0  0
    1.2007    2.0917   -4.4904 N   0  0  0  0  0  0  0  0  0  0  0  0
    1.0902    2.6408   -5.4545 N   0  0  0  0  0  0  0  0  0  0  0  0
    6.3354    2.0304   -4.9652 C   0  0  0  0  0  0  0  0  0  0  0  0
    7.5895    1.5097   -5.2792 C   0  0  0  0  0  0  0  0  0  0  0  0
    8.2195    0.5788   -4.4402 C   0  0  0  0  0  0  0  0  0  0  0  0
    7.5565    0.1812   -3.2701 C   0  0  0  0  0  0  0  0  0  0  0  0
    6.3022    0.6929   -2.9427 C   0  0  0  0  0  0  0  0  0  0  0  0
    5.6961    1.6164   -3.7958 C   0  0  0  0  0  0  0  0  0  0  0  0
    5.8546    2.7620   -5.6062 H   0  0  0  0  0  0  0  0  0  0  0  0
    8.0894    1.8333   -6.1890 H   0  0  0  0  0  0  0  0  0  0  0  0
    8.0316   -0.5362   -2.6048 H   0  0  0  0  0  0  0  0  0  0  0  0
    5.7971    0.3966   -2.0296 H   0  0  0  0  0  0  0  0  0  0  0  0
    4.0618    2.2523   -3.4111 S   0  0  0  0  0  0  0  0  0  0  0  0
    3.1247    1.2132   -4.0424 O   0  0  0  0  0  0  0  0  0  0  0  0
    3.9246    3.5738   -4.0529 O   0  0  0  0  0  0  0  0  0  0  0  0
    3.9326    2.2227   -1.9276 O   0  0  0  0  0  0  0  0  0  0  0  0
    9.5932    0.0443   -4.7714 C   0  0  0  0  0  0  0  0  0  0  0  0
    9.7426   -0.9599   -4.3630 H   0  0  0  0  0  0  0  0  0  0  0  0
    9.7555   -0.0012   -5.8529 H   0  0  0  0  0  0  0  0  0  0  0  0
   10.3782    0.6858   -4.3512 H   0  0  0  0  0  0  0  0  0  0  0  0
   -1.7154    0.1962   -0.1582 H   0  0  0  0  0  0  0  0  0  0  0  0
  1  7  1  0  0  0  0
  2  8  1  0  0  0  0
  2  1  2  0  0  0  0
  3  2  1  0  0  0  0
  4  3  2  0  0  0  0
  4  5  1  0  0  0  0
  5  6  2  0  0  0  0
  6  1  1  0  0  0  0
  6 31  1  0  0  0  0
  9  4  1  0  0  0  0
 10  5  1  0  0  0  0
 11  3  1  0  0  0  0
 12 11  2  0  0  0  0
 13 18  1  0  0  0  0
 14 13  2  0  0  0  0
 14 15  1  0  0  0  0
 15 16  2  0  0  0  0
 16 17  1  0  0  0  0
 16 21  1  0  0  0  0
 17 22  1  0  0  0  0
 18 23  1  0  0  0  0
 18 17  2  0  0  0  0
 19 13  1  0  0  0  0
 20 14  1  0  0  0  0
 23 26  1  0  0  0  0
 24 23  2  0  0  0  0
 25 23  2  0  0  0  0
 27 15  1  0  0  0  0
 27 28  1  0  0  0  0
 27 30  1  0  0  0  0
 29 27  1  0  0  0  0
M  RAD  2  12   2  26   2
M  END
