Coordinates from ORCA-job /home/ubuntu/works/orca-Ph-N2-OTs-B3LYP-6-31G_dp-scan-d09-49-n400/Ph-N2-OTs-B3LYP-6-31G_dp-scan-d09-49-n400
 OpenBabel01281705563D

 31 31  0  0  0  0  0  0  0  0999 V2000
    0.6470    1.3990   -0.7009 C   0  0  0  0  0  0  0  0  0  0  0  0
    1.1546    2.2455   -1.6875 C   0  0  0  0  0  0  0  0  0  0  0  0
    1.7415    1.6807   -2.8205 C   0  0  0  0  0  0  0  0  0  0  0  0
    1.8241    0.2981   -2.9864 C   0  0  0  0  0  0  0  0  0  0  0  0
    1.3048   -0.5365   -1.9953 C   0  0  0  0  0  0  0  0  0  0  0  0
    0.7191    0.0115   -0.8515 C   0  0  0  0  0  0  0  0  0  0  0  0
    0.1892    1.8275    0.1862 H   0  0  0  0  0  0  0  0  0  0  0  0
    1.1075    3.3239   -1.5904 H   0  0  0  0  0  0  0  0  0  0  0  0
    2.2796   -0.1024   -3.8860 H   0  0  0  0  0  0  0  0  0  0  0  0
    1.3591   -1.6147   -2.1187 H   0  0  0  0  0  0  0  0  0  0  0  0
    2.4092    2.7237   -7.4578 N   0  0  0  0  0  0  0  0  0  0  0  0
    1.4926    3.3291   -7.5787 N   0  0  0  0  0  0  0  0  0  0  0  0
    5.2380    1.6841   -5.1015 C   0  0  0  0  0  0  0  0  0  0  0  0
    6.2214    0.7044   -5.2091 C   0  0  0  0  0  0  0  0  0  0  0  0
    6.8421    0.1668   -4.0701 C   0  0  0  0  0  0  0  0  0  0  0  0
    6.4477    0.6345   -2.8086 C   0  0  0  0  0  0  0  0  0  0  0  0
    5.4644    1.6138   -2.6770 C   0  0  0  0  0  0  0  0  0  0  0  0
    4.8686    2.1297   -3.8291 C   0  0  0  0  0  0  0  0  0  0  0  0
    4.7665    2.1022   -5.9841 H   0  0  0  0  0  0  0  0  0  0  0  0
    6.5156    0.3525   -6.1945 H   0  0  0  0  0  0  0  0  0  0  0  0
    6.9174    0.2292   -1.9164 H   0  0  0  0  0  0  0  0  0  0  0  0
    5.1671    1.9838   -1.7022 H   0  0  0  0  0  0  0  0  0  0  0  0
    3.6024    3.3758   -3.6774 S   0  0  0  0  0  0  0  0  0  0  0  0
    2.1935    2.4942   -3.8666 O   0  0  0  0  0  0  0  0  0  0  0  0
    3.6087    4.2276   -4.8576 O   0  0  0  0  0  0  0  0  0  0  0  0
    3.6379    3.9234   -2.3243 O   0  0  0  0  0  0  0  0  0  0  0  0
    7.9315   -0.8694   -4.2039 C   0  0  0  0  0  0  0  0  0  0  0  0
    7.9819   -1.5150   -3.3220 H   0  0  0  0  0  0  0  0  0  0  0  0
    7.7769   -1.5011   -5.0838 H   0  0  0  0  0  0  0  0  0  0  0  0
    8.9129   -0.3912   -4.3148 H   0  0  0  0  0  0  0  0  0  0  0  0
    0.3166   -0.6401   -0.0813 H   0  0  0  0  0  0  0  0  0  0  0  0
  1  7  1  0  0  0  0
  2  8  1  0  0  0  0
  2  1  2  0  0  0  0
  3  2  1  0  0  0  0
  4  3  2  0  0  0  0
  4  5  1  0  0  0  0
  5  6  2  0  0  0  0
  6  1  1  0  0  0  0
  6 31  1  0  0  0  0
  9  4  1  0  0  0  0
 10  5  1  0  0  0  0
 12 11  3  0  0  0  0
 13 18  1  0  0  0  0
 14 13  2  0  0  0  0
 14 15  1  0  0  0  0
 15 16  2  0  0  0  0
 16 17  1  0  0  0  0
 16 21  1  0  0  0  0
 17 22  1  0  0  0  0
 18 23  1  0  0  0  0
 18 17  2  0  0  0  0
 19 13  1  0  0  0  0
 20 14  1  0  0  0  0
 23 26  2  0  0  0  0
 24 23  1  0  0  0  0
 24  3  1  0  0  0  0
 25 23  2  0  0  0  0
 27 15  1  0  0  0  0
 27 28  1  0  0  0  0
 29 27  1  0  0  0  0
 30 27  1  0  0  0  0
M  END
