Coordinates from ORCA-job /home/ubuntu/works/orca-Ph-N2-OTs-B3LYP-6-31G_dp-scan-d09-49-n400/Ph-N2-OTs-B3LYP-6-31G_dp-scan-d09-49-n400
 OpenBabel01281705563D

 31 31  0  0  0  0  0  0  0  0999 V2000
    0.1662    0.8568   -0.8302 C   0  0  0  0  0  0  0  0  0  0  0  0
    0.9970    1.3092   -1.8656 C   0  0  0  0  0  0  0  0  0  0  0  0
    0.3578    1.4522   -3.0715 C   0  0  0  0  0  0  0  0  0  0  0  0
   -0.9643    1.2090   -3.3891 C   0  0  0  0  0  0  0  0  0  0  0  0
   -1.7479    0.7466   -2.3271 C   0  0  0  0  0  0  0  0  0  0  0  0
   -1.1829    0.5741   -1.0591 C   0  0  0  0  0  0  0  0  0  0  0  0
    0.5940    0.7253    0.1587 H   0  0  0  0  0  0  0  0  0  0  0  0
    2.0532    1.5415   -1.7234 H   0  0  0  0  0  0  0  0  0  0  0  0
   -1.3629    1.3628   -4.3842 H   0  0  0  0  0  0  0  0  0  0  0  0
   -2.7961    0.5245   -2.5009 H   0  0  0  0  0  0  0  0  0  0  0  0
    1.2573    2.0439   -4.3767 N   0  0  0  0  0  0  0  0  0  0  0  0
    1.1737    2.5926   -5.3481 N   0  0  0  0  0  0  0  0  0  0  0  0
    6.2873    1.9979   -4.9644 C   0  0  0  0  0  0  0  0  0  0  0  0
    7.5324    1.4769   -5.3113 C   0  0  0  0  0  0  0  0  0  0  0  0
    8.2050    0.5810   -4.4669 C   0  0  0  0  0  0  0  0  0  0  0  0
    7.5944    0.2191   -3.2575 C   0  0  0  0  0  0  0  0  0  0  0  0
    6.3496    0.7317   -2.8964 C   0  0  0  0  0  0  0  0  0  0  0  0
    5.7005    1.6193   -3.7559 C   0  0  0  0  0  0  0  0  0  0  0  0
    5.7741    2.7025   -5.6103 H   0  0  0  0  0  0  0  0  0  0  0  0
    7.9917    1.7726   -6.2514 H   0  0  0  0  0  0  0  0  0  0  0  0
    8.1032   -0.4705   -2.5878 H   0  0  0  0  0  0  0  0  0  0  0  0
    5.8849    0.4634   -1.9538 H   0  0  0  0  0  0  0  0  0  0  0  0
    4.0803    2.2568   -3.3229 S   0  0  0  0  0  0  0  0  0  0  0  0
    3.1280    1.1925   -3.9073 O   0  0  0  0  0  0  0  0  0  0  0  0
    3.9044    3.5581   -3.9957 O   0  0  0  0  0  0  0  0  0  0  0  0
    3.9965    2.2553   -1.8404 O   0  0  0  0  0  0  0  0  0  0  0  0
    9.5690    0.0465   -4.8363 C   0  0  0  0  0  0  0  0  0  0  0  0
    9.7507   -0.9347   -4.3877 H   0  0  0  0  0  0  0  0  0  0  0  0
    9.6812   -0.0498   -5.9209 H   0  0  0  0  0  0  0  0  0  0  0  0
   10.3638    0.7171   -4.4852 H   0  0  0  0  0  0  0  0  0  0  0  0
   -1.8024    0.2165   -0.2424 H   0  0  0  0  0  0  0  0  0  0  0  0
  1  7  1  0  0  0  0
  2  8  1  0  0  0  0
  2  1  2  0  0  0  0
  3  2  1  0  0  0  0
  4  3  2  0  0  0  0
  4  5  1  0  0  0  0
  5  6  2  0  0  0  0
  6  1  1  0  0  0  0
  6 31  1  0  0  0  0
  9  4  1  0  0  0  0
 10  5  1  0  0  0  0
 11  3  1  0  0  0  0
 12 11  2  0  0  0  0
 13 18  1  0  0  0  0
 14 13  2  0  0  0  0
 14 15  1  0  0  0  0
 15 16  2  0  0  0  0
 16 17  1  0  0  0  0
 16 21  1  0  0  0  0
 17 22  1  0  0  0  0
 18 23  1  0  0  0  0
 18 17  2  0  0  0  0
 19 13  1  0  0  0  0
 20 14  1  0  0  0  0
 23 26  1  0  0  0  0
 24 23  2  0  0  0  0
 25 23  2  0  0  0  0
 27 30  1  0  0  0  0
 27 15  1  0  0  0  0
 27 28  1  0  0  0  0
 29 27  1  0  0  0  0
M  RAD  2  12   2  26   2
M  END
