Coordinates from ORCA-job /home/ubuntu/works/orca-Ph-N2-OTs-B3LYP-6-31G_dp-scan-d09-49-n400/Ph-N2-OTs-B3LYP-6-31G_dp-scan-d09-49-n400
 OpenBabel01281705563D

 31 30  0  0  0  0  0  0  0  0999 V2000
    1.6775    1.2583   -1.1129 C   0  0  0  0  0  0  0  0  0  0  0  0
    1.4214    1.6891   -2.4332 C   0  0  0  0  0  0  0  0  0  0  0  0
    0.3796    1.2174   -2.9678 C   0  0  0  0  0  0  0  0  0  0  0  0
   -0.6304    0.3604   -2.6379 C   0  0  0  0  0  0  0  0  0  0  0  0
   -0.3802   -0.0804   -1.3157 C   0  0  0  0  0  0  0  0  0  0  0  0
    0.7373    0.3565   -0.5818 C   0  0  0  0  0  0  0  0  0  0  0  0
    2.5368    1.5862   -0.5350 H   0  0  0  0  0  0  0  0  0  0  0  0
    2.6365    2.8667   -3.3264 H   0  0  0  0  0  0  0  0  0  0  0  0
   -1.4773    0.0509   -3.2360 H   0  0  0  0  0  0  0  0  0  0  0  0
   -1.0834   -0.7768   -0.8653 H   0  0  0  0  0  0  0  0  0  0  0  0
   -0.3346    1.9475   -5.4070 N   0  0  0  0  0  0  0  0  0  0  0  0
   -0.1119    2.6386   -6.2404 N   0  0  0  0  0  0  0  0  0  0  0  0
    6.5687    2.5678   -4.3577 C   0  0  0  0  0  0  0  0  0  0  0  0
    7.6488    1.7879   -3.9496 C   0  0  0  0  0  0  0  0  0  0  0  0
    7.5102    0.4079   -3.7384 C   0  0  0  0  0  0  0  0  0  0  0  0
    6.2551   -0.1789   -3.9575 C   0  0  0  0  0  0  0  0  0  0  0  0
    5.1629    0.5850   -4.3654 C   0  0  0  0  0  0  0  0  0  0  0  0
    5.3293    1.9574   -4.5583 C   0  0  0  0  0  0  0  0  0  0  0  0
    6.6819    3.6313   -4.5399 H   0  0  0  0  0  0  0  0  0  0  0  0
    8.6179    2.2572   -3.7991 H   0  0  0  0  0  0  0  0  0  0  0  0
    6.1323   -1.2496   -3.8129 H   0  0  0  0  0  0  0  0  0  0  0  0
    4.1976    0.1267   -4.5528 H   0  0  0  0  0  0  0  0  0  0  0  0
    3.9343    2.9539   -5.0664 S   0  0  0  0  0  0  0  0  0  0  0  0
    2.9358    2.0714   -5.6753 O   0  0  0  0  0  0  0  0  0  0  0  0
    4.4376    4.1321   -5.7598 O   0  0  0  0  0  0  0  0  0  0  0  0
    3.3382    3.4938   -3.6552 O   0  0  0  0  0  0  0  0  0  0  0  0
    8.6804   -0.4240   -3.2706 C   0  0  0  0  0  0  0  0  0  0  0  0
    8.6236   -1.4468   -3.6546 H   0  0  0  0  0  0  0  0  0  0  0  0
    9.6324    0.0081   -3.5926 H   0  0  0  0  0  0  0  0  0  0  0  0
    8.7041   -0.4876   -2.1750 H   0  0  0  0  0  0  0  0  0  0  0  0
    0.8771   -0.0172    0.4291 H   0  0  0  0  0  0  0  0  0  0  0  0
  1  6  1  0  0  0  0
  1  7  1  0  0  0  0
  2  1  2  0  0  0  0
  3  4  2  0  0  0  0
  3  2  1  0  0  0  0
  4  5  1  0  0  0  0
  5 10  1  0  0  0  0
  5  6  2  0  0  0  0
  6 31  1  0  0  0  0
  9  4  1  0  0  0  0
 12 11  3  0  0  0  0
 13 14  2  0  0  0  0
 14 20  1  0  0  0  0
 14 15  1  0  0  0  0
 15 27  1  0  0  0  0
 16 21  1  0  0  0  0
 16 15  2  0  0  0  0
 17 16  1  0  0  0  0
 18 17  2  0  0  0  0
 18 13  1  0  0  0  0
 19 13  1  0  0  0  0
 22 17  1  0  0  0  0
 23 18  1  0  0  0  0
 23 26  1  0  0  0  0
 24 23  2  0  0  0  0
 25 23  2  0  0  0  0
 26  8  1  0  0  0  0
 27 30  1  0  0  0  0
 28 27  1  0  0  0  0
 29 27  1  0  0  0  0
M  RAD  2   2   2   3   2
M  END
