Coordinates from ORCA-job /home/ubuntu/works/orca-Ph-N2-OTs-B3LYP-6-31G_dp-scan-d09-49-n400/Ph-N2-OTs-B3LYP-6-31G_dp-scan-d09-49-n400
 OpenBabel01281705563D

 31 32  0  0  1  0  0  0  0  0999 V2000
    1.9596    0.3224   -2.3217 C   0  0  0  0  0  0  0  0  0  0  0  0
    1.7413    1.2474   -3.4713 C   0  0  1  0  0  0  0  0  0  0  0  0
    0.3452    1.8121   -3.4690 C   0  0  0  0  0  0  0  0  0  0  0  0
   -0.4848    1.7882   -2.2846 C   0  0  0  0  0  0  0  0  0  0  0  0
   -0.1019    1.0539   -1.2112 C   0  0  0  0  0  0  0  0  0  0  0  0
    1.1199    0.2775   -1.2649 C   0  0  0  0  0  0  0  0  0  0  0  0
    2.8641   -0.2772   -2.3486 H   0  0  0  0  0  0  0  0  0  0  0  0
    1.9808    0.7989   -4.4372 H   0  0  0  0  0  0  0  0  0  0  0  0
   -1.4115    2.3537   -2.2942 H   0  0  0  0  0  0  0  0  0  0  0  0
   -0.7185    1.0230   -0.3192 H   0  0  0  0  0  0  0  0  0  0  0  0
   -0.0616    2.3780   -4.5197 N   0  0  0  0  0  0  0  0  0  0  0  0
   -0.4198    2.8881   -5.4777 N   0  0  0  0  0  0  0  0  0  0  0  0
    5.4311    0.6808   -4.9645 C   0  0  0  0  0  0  0  0  0  0  0  0
    6.5785   -0.0631   -4.6892 C   0  0  0  0  0  0  0  0  0  0  0  0
    7.4729    0.3284   -3.6833 C   0  0  0  0  0  0  0  0  0  0  0  0
    7.1963    1.5005   -2.9613 C   0  0  0  0  0  0  0  0  0  0  0  0
    6.0575    2.2575   -3.2222 C   0  0  0  0  0  0  0  0  0  0  0  0
    5.1776    1.8347   -4.2221 C   0  0  0  0  0  0  0  0  0  0  0  0
    4.7493    0.3892   -5.7563 H   0  0  0  0  0  0  0  0  0  0  0  0
    6.7842   -0.9578   -5.2711 H   0  0  0  0  0  0  0  0  0  0  0  0
    7.8877    1.8271   -2.1885 H   0  0  0  0  0  0  0  0  0  0  0  0
    5.8580    3.1718   -2.6734 H   0  0  0  0  0  0  0  0  0  0  0  0
    3.7047    2.7926   -4.5529 S   0  0  0  0  0  0  0  0  0  0  0  0
    3.1066    2.3009   -5.7988 O   0  0  0  0  0  0  0  0  0  0  0  0
    4.0090    4.2042   -4.3581 O   0  0  0  0  0  0  0  0  0  0  0  0
    2.7213    2.3940   -3.3076 O   0  0  0  0  0  0  0  0  0  0  0  0
    8.6964   -0.4989   -3.3698 C   0  0  0  0  0  0  0  0  0  0  0  0
    8.4842   -1.2255   -2.5752 H   0  0  0  0  0  0  0  0  0  0  0  0
    9.0352   -1.0611   -4.2450 H   0  0  0  0  0  0  0  0  0  0  0  0
    9.5249    0.1270   -3.0246 H   0  0  0  0  0  0  0  0  0  0  0  0
    1.3517   -0.3778   -0.4288 H   0  0  0  0  0  0  0  0  0  0  0  0
  1  6  2  0  0  0  0
  2  8  1  6  0  0  0
  2  3  1  0  0  0  0
  2 26  1  0  0  0  0
  2  1  1  0  0  0  0
  3  4  2  0  0  0  0
  4  5  1  0  0  0  0
  5 10  1  0  0  0  0
  6  5  1  0  0  0  0
  6 31  1  0  0  0  0
  7  1  1  0  0  0  0
  9  4  1  0  0  0  0
 11  3  1  0  0  0  0
 12 11  1  0  0  0  0
 13 14  2  0  0  0  0
 13 18  1  0  0  0  0
 14 15  1  0  0  0  0
 15 27  1  0  0  0  0
 15 16  2  0  0  0  0
 16 21  1  0  0  0  0
 17 16  1  0  0  0  0
 17 22  1  0  0  0  0
 18 17  2  0  0  0  0
 19 13  1  0  0  0  0
 20 14  1  0  0  0  0
 23 25  2  0  0  0  0
 23 18  1  0  0  0  0
 23 26  1  0  0  0  0
 24 23  2  0  0  0  0
 27 30  1  0  0  0  0
 27 28  1  0  0  0  0
 29 27  1  0  0  0  0
M  RAD  3   5   2  11   2  12   3
M  END
