Coordinates from ORCA-job /home/ubuntu/works/orca-Ph-N2-OTs-B3LYP-6-31G_dp-scan-d09-49-n400/Ph-N2-OTs-B3LYP-6-31G_dp-scan-d09-49-n400
 OpenBabel01281705563D

 31 31  0  0  0  0  0  0  0  0999 V2000
    0.6467    1.3998   -0.7042 C   0  0  0  0  0  0  0  0  0  0  0  0
    1.1555    2.2469   -1.6897 C   0  0  0  0  0  0  0  0  0  0  0  0
    1.7427    1.6826   -2.8229 C   0  0  0  0  0  0  0  0  0  0  0  0
    1.8244    0.3001   -2.9899 C   0  0  0  0  0  0  0  0  0  0  0  0
    1.3039   -0.5350   -1.9998 C   0  0  0  0  0  0  0  0  0  0  0  0
    0.7179    0.0124   -0.8559 C   0  0  0  0  0  0  0  0  0  0  0  0
    0.1887    1.8279    0.1831 H   0  0  0  0  0  0  0  0  0  0  0  0
    1.1091    3.3251   -1.5916 H   0  0  0  0  0  0  0  0  0  0  0  0
    2.2802   -0.0999   -3.8896 H   0  0  0  0  0  0  0  0  0  0  0  0
    1.3574   -1.6131   -2.1242 H   0  0  0  0  0  0  0  0  0  0  0  0
    2.3963    2.7142   -7.4439 N   0  0  0  0  0  0  0  0  0  0  0  0
    1.4779    3.3173   -7.5621 N   0  0  0  0  0  0  0  0  0  0  0  0
    5.2405    1.6852   -5.1010 C   0  0  0  0  0  0  0  0  0  0  0  0
    6.2234    0.7050   -5.2086 C   0  0  0  0  0  0  0  0  0  0  0  0
    6.8432    0.1666   -4.0695 C   0  0  0  0  0  0  0  0  0  0  0  0
    6.4485    0.6340   -2.8080 C   0  0  0  0  0  0  0  0  0  0  0  0
    5.4657    1.6139   -2.6765 C   0  0  0  0  0  0  0  0  0  0  0  0
    4.8708    2.1305   -3.8286 C   0  0  0  0  0  0  0  0  0  0  0  0
    4.7696    2.1040   -5.9837 H   0  0  0  0  0  0  0  0  0  0  0  0
    6.5179    0.3534   -6.1940 H   0  0  0  0  0  0  0  0  0  0  0  0
    6.9175    0.2282   -1.9158 H   0  0  0  0  0  0  0  0  0  0  0  0
    5.1681    1.9836   -1.7016 H   0  0  0  0  0  0  0  0  0  0  0  0
    3.6052    3.3773   -3.6771 S   0  0  0  0  0  0  0  0  0  0  0  0
    2.1958    2.4967   -3.8680 O   0  0  0  0  0  0  0  0  0  0  0  0
    3.6129    4.2298   -4.8567 O   0  0  0  0  0  0  0  0  0  0  0  0
    3.6399    3.9240   -2.3236 O   0  0  0  0  0  0  0  0  0  0  0  0
    7.9322   -0.8701   -4.2032 C   0  0  0  0  0  0  0  0  0  0  0  0
    7.9821   -1.5158   -3.3213 H   0  0  0  0  0  0  0  0  0  0  0  0
    7.7773   -1.5017   -5.0831 H   0  0  0  0  0  0  0  0  0  0  0  0
    8.9138   -0.3924   -4.3140 H   0  0  0  0  0  0  0  0  0  0  0  0
    0.3145   -0.6396   -0.0865 H   0  0  0  0  0  0  0  0  0  0  0  0
  1  7  1  0  0  0  0
  2  8  1  0  0  0  0
  2  1  2  0  0  0  0
  3  2  1  0  0  0  0
  4  3  2  0  0  0  0
  4  5  1  0  0  0  0
  5  6  2  0  0  0  0
  6  1  1  0  0  0  0
  6 31  1  0  0  0  0
  9  4  1  0  0  0  0
 10  5  1  0  0  0  0
 12 11  3  0  0  0  0
 13 18  1  0  0  0  0
 14 13  2  0  0  0  0
 14 15  1  0  0  0  0
 15 16  2  0  0  0  0
 16 17  1  0  0  0  0
 16 21  1  0  0  0  0
 17 22  1  0  0  0  0
 18 23  1  0  0  0  0
 18 17  2  0  0  0  0
 19 13  1  0  0  0  0
 20 14  1  0  0  0  0
 23 26  2  0  0  0  0
 24 23  1  0  0  0  0
 24  3  1  0  0  0  0
 25 23  2  0  0  0  0
 27 15  1  0  0  0  0
 27 28  1  0  0  0  0
 29 27  1  0  0  0  0
 30 27  1  0  0  0  0
M  END
