Coordinates from ORCA-job /home/ubuntu/works/orca-Ph-N2-OTs-B3LYP-6-31G_dp-scan-d09-49-n400/Ph-N2-OTs-B3LYP-6-31G_dp-scan-d09-49-n400
 OpenBabel01281705563D

 31 30  0  0  0  0  0  0  0  0999 V2000
    1.4310    1.4515   -0.6777 C   0  0  0  0  0  0  0  0  0  0  0  0
    1.5380    1.7643   -2.0460 C   0  0  0  0  0  0  0  0  0  0  0  0
    0.7498    1.1836   -2.8371 C   0  0  0  0  0  0  0  0  0  0  0  0
   -0.2579    0.2640   -2.7441 C   0  0  0  0  0  0  0  0  0  0  0  0
   -0.3825   -0.0698   -1.3727 C   0  0  0  0  0  0  0  0  0  0  0  0
    0.4323    0.5047   -0.3799 C   0  0  0  0  0  0  0  0  0  0  0  0
    2.0523    1.8879    0.0983 H   0  0  0  0  0  0  0  0  0  0  0  0
    2.7796    3.0125   -2.9647 H   0  0  0  0  0  0  0  0  0  0  0  0
   -0.8679   -0.1544   -3.5334 H   0  0  0  0  0  0  0  0  0  0  0  0
   -1.1411   -0.7960   -1.0897 H   0  0  0  0  0  0  0  0  0  0  0  0
   -0.1086    1.4224   -6.0416 N   0  0  0  0  0  0  0  0  0  0  0  0
    0.0086    2.0015   -6.9754 N   0  0  0  0  0  0  0  0  0  0  0  0
    6.5975    2.5802   -4.4083 C   0  0  0  0  0  0  0  0  0  0  0  0
    7.6762    1.7433   -4.1269 C   0  0  0  0  0  0  0  0  0  0  0  0
    7.4912    0.3738   -3.8903 C   0  0  0  0  0  0  0  0  0  0  0  0
    6.1888   -0.1457   -3.9525 C   0  0  0  0  0  0  0  0  0  0  0  0
    5.0986    0.6743   -4.2333 C   0  0  0  0  0  0  0  0  0  0  0  0
    5.3133    2.0365   -4.4552 C   0  0  0  0  0  0  0  0  0  0  0  0
    6.7433    3.6362   -4.6089 H   0  0  0  0  0  0  0  0  0  0  0  0
    8.6797    2.1603   -4.0966 H   0  0  0  0  0  0  0  0  0  0  0  0
    6.0276   -1.2078   -3.7848 H   0  0  0  0  0  0  0  0  0  0  0  0
    4.0951    0.2672   -4.2989 H   0  0  0  0  0  0  0  0  0  0  0  0
    3.9231    3.1046   -4.8032 S   0  0  0  0  0  0  0  0  0  0  0  0
    2.8361    2.2858   -5.3467 O   0  0  0  0  0  0  0  0  0  0  0  0
    4.4116    4.2858   -5.5008 O   0  0  0  0  0  0  0  0  0  0  0  0
    3.4764    3.6185   -3.3265 O   0  0  0  0  0  0  0  0  0  0  0  0
    8.6617   -0.5222   -3.5618 C   0  0  0  0  0  0  0  0  0  0  0  0
    8.5713   -1.4954   -4.0540 H   0  0  0  0  0  0  0  0  0  0  0  0
    9.6091   -0.0719   -3.8708 H   0  0  0  0  0  0  0  0  0  0  0  0
    8.7219   -0.7095   -2.4824 H   0  0  0  0  0  0  0  0  0  0  0  0
    0.2836    0.2045    0.6544 H   0  0  0  0  0  0  0  0  0  0  0  0
  1  6  1  0  0  0  0
  1  7  1  0  0  0  0
  2  1  2  0  0  0  0
  3  4  2  0  0  0  0
  3  2  1  0  0  0  0
  4  5  1  0  0  0  0
  5 10  1  0  0  0  0
  5  6  2  0  0  0  0
  6 31  1  0  0  0  0
  9  4  1  0  0  0  0
 12 11  3  0  0  0  0
 13 14  1  0  0  0  0
 14 20  1  0  0  0  0
 14 15  2  0  0  0  0
 15 27  1  0  0  0  0
 16 15  1  0  0  0  0
 16 21  1  0  0  0  0
 17 16  2  0  0  0  0
 18 13  2  0  0  0  0
 18 17  1  0  0  0  0
 19 13  1  0  0  0  0
 22 17  1  0  0  0  0
 23 18  1  0  0  0  0
 23 26  1  0  0  0  0
 24 23  2  0  0  0  0
 25 23  2  0  0  0  0
 26  8  1  0  0  0  0
 27 30  1  0  0  0  0
 28 27  1  0  0  0  0
 29 27  1  0  0  0  0
M  RAD  2   2   2   3   2
M  END
