Coordinates from ORCA-job /home/ubuntu/works/orca-Ph-N2-OTs-B3LYP-6-31G_dp-scan-d09-49-n400/Ph-N2-OTs-B3LYP-6-31G_dp-scan-d09-49-n400
 OpenBabel01281705563D

 31 30  0  0  0  0  0  0  0  0999 V2000
    1.5497    1.3888   -0.8682 C   0  0  0  0  0  0  0  0  0  0  0  0
    1.4584    1.7579   -2.2244 C   0  0  0  0  0  0  0  0  0  0  0  0
    0.5566    1.2078   -2.9097 C   0  0  0  0  0  0  0  0  0  0  0  0
   -0.4272    0.2808   -2.7069 C   0  0  0  0  0  0  0  0  0  0  0  0
   -0.3504   -0.1088   -1.3469 C   0  0  0  0  0  0  0  0  0  0  0  0
    0.6039    0.4279   -0.4633 C   0  0  0  0  0  0  0  0  0  0  0  0
    2.2825    1.7938   -0.1767 H   0  0  0  0  0  0  0  0  0  0  0  0
    2.6961    2.9622   -3.1624 H   0  0  0  0  0  0  0  0  0  0  0  0
   -1.1481   -0.1074   -3.4141 H   0  0  0  0  0  0  0  0  0  0  0  0
   -1.0620   -0.8474   -0.9849 H   0  0  0  0  0  0  0  0  0  0  0  0
   -0.2670    1.7541   -5.7584 N   0  0  0  0  0  0  0  0  0  0  0  0
   -0.1353    2.3915   -6.6515 N   0  0  0  0  0  0  0  0  0  0  0  0
    6.5876    2.5682   -4.3802 C   0  0  0  0  0  0  0  0  0  0  0  0
    7.6664    1.7581   -4.0310 C   0  0  0  0  0  0  0  0  0  0  0  0
    7.5009    0.3832   -3.8083 C   0  0  0  0  0  0  0  0  0  0  0  0
    6.2192   -0.1684   -3.9552 C   0  0  0  0  0  0  0  0  0  0  0  0
    5.1283    0.6255   -4.3039 C   0  0  0  0  0  0  0  0  0  0  0  0
    5.3226    1.9926   -4.5097 C   0  0  0  0  0  0  0  0  0  0  0  0
    6.7200    3.6277   -4.5710 H   0  0  0  0  0  0  0  0  0  0  0  0
    8.6552    2.1998   -3.9361 H   0  0  0  0  0  0  0  0  0  0  0  0
    6.0744   -1.2348   -3.8005 H   0  0  0  0  0  0  0  0  0  0  0  0
    4.1416    0.1940   -4.4358 H   0  0  0  0  0  0  0  0  0  0  0  0
    3.9305    3.0262   -4.9441 S   0  0  0  0  0  0  0  0  0  0  0  0
    2.8834    2.1750   -5.5145 O   0  0  0  0  0  0  0  0  0  0  0  0
    4.4291    4.2006   -5.6466 O   0  0  0  0  0  0  0  0  0  0  0  0
    3.4101    3.5638   -3.4999 O   0  0  0  0  0  0  0  0  0  0  0  0
    8.6711   -0.4815   -3.4040 C   0  0  0  0  0  0  0  0  0  0  0  0
    8.5852   -1.4909   -3.8170 H   0  0  0  0  0  0  0  0  0  0  0  0
    9.6194   -0.0546   -3.7427 H   0  0  0  0  0  0  0  0  0  0  0  0
    8.7273   -0.5802   -2.3123 H   0  0  0  0  0  0  0  0  0  0  0  0
    0.6103    0.0854    0.5685 H   0  0  0  0  0  0  0  0  0  0  0  0
  1  6  1  0  0  0  0
  1  7  1  0  0  0  0
  2  1  2  0  0  0  0
  3  4  2  0  0  0  0
  3  2  1  0  0  0  0
  4  5  1  0  0  0  0
  5 10  1  0  0  0  0
  5  6  2  0  0  0  0
  6 31  1  0  0  0  0
  9  4  1  0  0  0  0
 12 11  3  0  0  0  0
 13 14  1  0  0  0  0
 14 20  1  0  0  0  0
 14 15  2  0  0  0  0
 15 27  1  0  0  0  0
 16 15  1  0  0  0  0
 16 21  1  0  0  0  0
 17 16  2  0  0  0  0
 18 13  2  0  0  0  0
 18 17  1  0  0  0  0
 19 13  1  0  0  0  0
 22 17  1  0  0  0  0
 23 18  1  0  0  0  0
 23 26  1  0  0  0  0
 24 23  2  0  0  0  0
 25 23  2  0  0  0  0
 26  8  1  0  0  0  0
 27 30  1  0  0  0  0
 28 27  1  0  0  0  0
 29 27  1  0  0  0  0
M  RAD  2   2   2   3   2
M  END
