Coordinates from ORCA-job /home/ubuntu/works/orca-Ph-N2-OTs-B3LYP-6-31G_dp-scan-d09-49-n400/Ph-N2-OTs-B3LYP-6-31G_dp-scan-d09-49-n400
 OpenBabel01281705563D

 31 30  0  0  0  0  0  0  0  0999 V2000
    1.5706    1.3834   -0.8569 C   0  0  0  0  0  0  0  0  0  0  0  0
    1.4831    1.7562   -2.2125 C   0  0  0  0  0  0  0  0  0  0  0  0
    0.5834    1.2061   -2.9009 C   0  0  0  0  0  0  0  0  0  0  0  0
   -0.4007    0.2784   -2.7038 C   0  0  0  0  0  0  0  0  0  0  0  0
   -0.3272   -0.1144   -1.3444 C   0  0  0  0  0  0  0  0  0  0  0  0
    0.6242    0.4209   -0.4569 C   0  0  0  0  0  0  0  0  0  0  0  0
    2.3007    1.7872   -0.1621 H   0  0  0  0  0  0  0  0  0  0  0  0
    2.7049    2.9718   -3.1598 H   0  0  0  0  0  0  0  0  0  0  0  0
   -1.1193   -0.1087   -3.4140 H   0  0  0  0  0  0  0  0  0  0  0  0
   -1.0391   -0.8545   -0.9862 H   0  0  0  0  0  0  0  0  0  0  0  0
   -0.2697    1.7475   -5.8056 N   0  0  0  0  0  0  0  0  0  0  0  0
   -0.1458    2.3865   -6.6986 N   0  0  0  0  0  0  0  0  0  0  0  0
    6.5800    2.5699   -4.3777 C   0  0  0  0  0  0  0  0  0  0  0  0
    7.6550    1.7564   -4.0248 C   0  0  0  0  0  0  0  0  0  0  0  0
    7.4843    0.3820   -3.8027 C   0  0  0  0  0  0  0  0  0  0  0  0
    6.2013   -0.1654   -3.9540 C   0  0  0  0  0  0  0  0  0  0  0  0
    5.1142    0.6320   -4.3064 C   0  0  0  0  0  0  0  0  0  0  0  0
    5.3136    1.9985   -4.5115 C   0  0  0  0  0  0  0  0  0  0  0  0
    6.7166    3.6291   -4.5681 H   0  0  0  0  0  0  0  0  0  0  0  0
    8.6450    2.1948   -3.9266 H   0  0  0  0  0  0  0  0  0  0  0  0
    6.0526   -1.2314   -3.7997 H   0  0  0  0  0  0  0  0  0  0  0  0
    4.1266    0.2038   -4.4416 H   0  0  0  0  0  0  0  0  0  0  0  0
    3.9265    3.0369   -4.9506 S   0  0  0  0  0  0  0  0  0  0  0  0
    2.8777    2.1884   -5.5215 O   0  0  0  0  0  0  0  0  0  0  0  0
    4.4308    4.2081   -5.6543 O   0  0  0  0  0  0  0  0  0  0  0  0
    3.4059    3.5815   -3.5092 O   0  0  0  0  0  0  0  0  0  0  0  0
    8.6503   -0.4865   -3.3945 C   0  0  0  0  0  0  0  0  0  0  0  0
    8.5643   -1.4946   -3.8108 H   0  0  0  0  0  0  0  0  0  0  0  0
    9.6014   -0.0610   -3.7272 H   0  0  0  0  0  0  0  0  0  0  0  0
    8.7006   -0.5883   -2.3029 H   0  0  0  0  0  0  0  0  0  0  0  0
    0.6278    0.0759    0.5740 H   0  0  0  0  0  0  0  0  0  0  0  0
  1  6  1  0  0  0  0
  1  7  1  0  0  0  0
  2  1  2  0  0  0  0
  3  4  2  0  0  0  0
  3  2  1  0  0  0  0
  4  5  1  0  0  0  0
  5 10  1  0  0  0  0
  5  6  2  0  0  0  0
  6 31  1  0  0  0  0
  9  4  1  0  0  0  0
 12 11  3  0  0  0  0
 13 14  1  0  0  0  0
 14 20  1  0  0  0  0
 14 15  2  0  0  0  0
 15 27  1  0  0  0  0
 16 15  1  0  0  0  0
 16 21  1  0  0  0  0
 17 16  2  0  0  0  0
 18 13  2  0  0  0  0
 18 17  1  0  0  0  0
 19 13  1  0  0  0  0
 22 17  1  0  0  0  0
 23 18  1  0  0  0  0
 23 26  1  0  0  0  0
 24 23  2  0  0  0  0
 25 23  2  0  0  0  0
 26  8  1  0  0  0  0
 27 30  1  0  0  0  0
 28 27  1  0  0  0  0
 29 27  1  0  0  0  0
M  RAD  2   2   2   3   2
M  END
