Coordinates from ORCA-job /home/ubuntu/works/orca-Ph-N2-OTs-B3LYP-6-31G_dp-scan-d09-49-n400/Ph-N2-OTs-B3LYP-6-31G_dp-scan-d09-49-n400
 OpenBabel01281705563D

 31 30  0  0  0  0  0  0  0  0999 V2000
    1.6748    1.2395   -1.2296 C   0  0  0  0  0  0  0  0  0  0  0  0
    1.3904    1.7022   -2.5380 C   0  0  0  0  0  0  0  0  0  0  0  0
    0.3097    1.2406   -3.0182 C   0  0  0  0  0  0  0  0  0  0  0  0
   -0.6985    0.3981   -2.6491 C   0  0  0  0  0  0  0  0  0  0  0  0
   -0.4069   -0.0620   -1.3449 C   0  0  0  0  0  0  0  0  0  0  0  0
    0.7490    0.3503   -0.6586 C   0  0  0  0  0  0  0  0  0  0  0  0
    2.5639    1.5474   -0.6856 H   0  0  0  0  0  0  0  0  0  0  0  0
    2.6071    2.8347   -3.3418 H   0  0  0  0  0  0  0  0  0  0  0  0
   -1.5734    0.1117   -3.2177 H   0  0  0  0  0  0  0  0  0  0  0  0
   -1.1034   -0.7503   -0.8728 H   0  0  0  0  0  0  0  0  0  0  0  0
   -0.2837    1.9520   -5.1381 N   0  0  0  0  0  0  0  0  0  0  0  0
   -0.0394    2.6272   -5.9791 N   0  0  0  0  0  0  0  0  0  0  0  0
    6.5671    2.5639   -4.3631 C   0  0  0  0  0  0  0  0  0  0  0  0
    7.6527    1.7943   -3.9501 C   0  0  0  0  0  0  0  0  0  0  0  0
    7.5232    0.4153   -3.7273 C   0  0  0  0  0  0  0  0  0  0  0  0
    6.2716   -0.1811   -3.9401 C   0  0  0  0  0  0  0  0  0  0  0  0
    5.1741    0.5727   -4.3528 C   0  0  0  0  0  0  0  0  0  0  0  0
    5.3313    1.9445   -4.5574 C   0  0  0  0  0  0  0  0  0  0  0  0
    6.6732    3.6265   -4.5542 H   0  0  0  0  0  0  0  0  0  0  0  0
    8.6190    2.2711   -3.8046 H   0  0  0  0  0  0  0  0  0  0  0  0
    6.1557   -1.2513   -3.7864 H   0  0  0  0  0  0  0  0  0  0  0  0
    4.2114    0.1068   -4.5350 H   0  0  0  0  0  0  0  0  0  0  0  0
    3.9286    2.9288   -5.0700 S   0  0  0  0  0  0  0  0  0  0  0  0
    2.9418    2.0354   -5.6846 O   0  0  0  0  0  0  0  0  0  0  0  0
    4.4257    4.1075   -5.7681 O   0  0  0  0  0  0  0  0  0  0  0  0
    3.3233    3.4612   -3.6657 O   0  0  0  0  0  0  0  0  0  0  0  0
    8.6995   -0.4050   -3.2539 C   0  0  0  0  0  0  0  0  0  0  0  0
    8.6404   -1.4358   -3.6155 H   0  0  0  0  0  0  0  0  0  0  0  0
    9.6475    0.0215   -3.5946 H   0  0  0  0  0  0  0  0  0  0  0  0
    8.7347   -0.4451   -2.1574 H   0  0  0  0  0  0  0  0  0  0  0  0
    0.9289   -0.0319    0.3426 H   0  0  0  0  0  0  0  0  0  0  0  0
  1  7  1  0  0  0  0
  1  6  1  0  0  0  0
  2  1  2  0  0  0  0
  3  4  2  0  0  0  0
  3  2  1  0  0  0  0
  4  5  1  0  0  0  0
  5 10  1  0  0  0  0
  5  6  2  0  0  0  0
  6 31  1  0  0  0  0
  9  4  1  0  0  0  0
 12 11  3  0  0  0  0
 13 14  1  0  0  0  0
 14 20  1  0  0  0  0
 14 15  2  0  0  0  0
 15 27  1  0  0  0  0
 16 21  1  0  0  0  0
 16 15  1  0  0  0  0
 17 16  2  0  0  0  0
 18 13  2  0  0  0  0
 18 17  1  0  0  0  0
 19 13  1  0  0  0  0
 22 17  1  0  0  0  0
 23 18  1  0  0  0  0
 23 26  1  0  0  0  0
 24 23  2  0  0  0  0
 25 23  2  0  0  0  0
 26  8  1  0  0  0  0
 27 30  1  0  0  0  0
 28 27  1  0  0  0  0
 29 27  1  0  0  0  0
M  RAD  2   2   2   3   2
M  END
