Coordinates from ORCA-job /home/ubuntu/works/orca-Ph-N2-OTs-B3LYP-6-31G_dp-scan-d09-49-n400/Ph-N2-OTs-B3LYP-6-31G_dp-scan-d09-49-n400
 OpenBabel01281705563D

 31 30  0  0  0  0  0  0  0  0999 V2000
    1.6735    1.2647   -1.0833 C   0  0  0  0  0  0  0  0  0  0  0  0
    1.4302    1.6896   -2.4071 C   0  0  0  0  0  0  0  0  0  0  0  0
    0.3994    1.2141   -2.9574 C   0  0  0  0  0  0  0  0  0  0  0  0
   -0.6109    0.3524   -2.6394 C   0  0  0  0  0  0  0  0  0  0  0  0
   -0.3754   -0.0845   -1.3129 C   0  0  0  0  0  0  0  0  0  0  0  0
    0.7298    0.3589   -0.5644 C   0  0  0  0  0  0  0  0  0  0  0  0
    2.5232    1.5977   -0.4944 H   0  0  0  0  0  0  0  0  0  0  0  0
    2.6435    2.8743   -3.3157 H   0  0  0  0  0  0  0  0  0  0  0  0
   -1.4485    0.0373   -3.2475 H   0  0  0  0  0  0  0  0  0  0  0  0
   -1.0810   -0.7837   -0.8705 H   0  0  0  0  0  0  0  0  0  0  0  0
   -0.3380    1.9428   -5.4661 N   0  0  0  0  0  0  0  0  0  0  0  0
   -0.1225    2.6347   -6.3007 N   0  0  0  0  0  0  0  0  0  0  0  0
    6.5689    2.5681   -4.3589 C   0  0  0  0  0  0  0  0  0  0  0  0
    7.6486    1.7859   -3.9540 C   0  0  0  0  0  0  0  0  0  0  0  0
    7.5078    0.4061   -3.7429 C   0  0  0  0  0  0  0  0  0  0  0  0
    6.2510   -0.1782   -3.9590 C   0  0  0  0  0  0  0  0  0  0  0  0
    5.1592    0.5880   -4.3637 C   0  0  0  0  0  0  0  0  0  0  0  0
    5.3279    1.9602   -4.5565 C   0  0  0  0  0  0  0  0  0  0  0  0
    6.6837    3.6314   -4.5410 H   0  0  0  0  0  0  0  0  0  0  0  0
    8.6190    2.2532   -3.8058 H   0  0  0  0  0  0  0  0  0  0  0  0
    6.1265   -1.2487   -3.8144 H   0  0  0  0  0  0  0  0  0  0  0  0
    4.1925    0.1316   -4.5487 H   0  0  0  0  0  0  0  0  0  0  0  0
    3.9336    2.9594   -5.0607 S   0  0  0  0  0  0  0  0  0  0  0  0
    2.9314    2.0792   -5.6665 O   0  0  0  0  0  0  0  0  0  0  0  0
    4.4372    4.1370   -5.7549 O   0  0  0  0  0  0  0  0  0  0  0  0
    3.3426    3.5012   -3.6474 O   0  0  0  0  0  0  0  0  0  0  0  0
    8.6776   -0.4283   -3.2785 C   0  0  0  0  0  0  0  0  0  0  0  0
    8.6183   -1.4505   -3.6634 H   0  0  0  0  0  0  0  0  0  0  0  0
    9.6297    0.0027   -3.6019 H   0  0  0  0  0  0  0  0  0  0  0  0
    8.7034   -0.4931   -2.1830 H   0  0  0  0  0  0  0  0  0  0  0  0
    0.8574   -0.0128    0.4489 H   0  0  0  0  0  0  0  0  0  0  0  0
  1  6  1  0  0  0  0
  1  7  1  0  0  0  0
  2  1  2  0  0  0  0
  3  4  2  0  0  0  0
  3  2  1  0  0  0  0
  4  5  1  0  0  0  0
  5 10  1  0  0  0  0
  5  6  2  0  0  0  0
  6 31  1  0  0  0  0
  9  4  1  0  0  0  0
 12 11  3  0  0  0  0
 13 14  2  0  0  0  0
 14 20  1  0  0  0  0
 14 15  1  0  0  0  0
 15 27  1  0  0  0  0
 16 21  1  0  0  0  0
 16 15  2  0  0  0  0
 17 16  1  0  0  0  0
 18 17  2  0  0  0  0
 18 13  1  0  0  0  0
 19 13  1  0  0  0  0
 22 17  1  0  0  0  0
 23 18  1  0  0  0  0
 23 26  1  0  0  0  0
 24 23  2  0  0  0  0
 25 23  2  0  0  0  0
 26  8  1  0  0  0  0
 27 30  1  0  0  0  0
 28 27  1  0  0  0  0
 29 27  1  0  0  0  0
M  RAD  2   2   2   3   2
M  END
