Coordinates from ORCA-job /home/ubuntu/works/orca-Ph-N2-OTs-B3LYP-6-31G_dp-scan-d09-49-n400/Ph-N2-OTs-B3LYP-6-31G_dp-scan-d09-49-n400
 OpenBabel01281705563D

 31 32  0  0  1  0  0  0  0  0999 V2000
    1.8172    0.3141   -2.0715 C   0  0  0  0  0  0  0  0  0  0  0  0
    1.7562    1.1413   -3.3088 C   0  0  1  0  0  0  0  0  0  0  0  0
    0.3945    1.7091   -3.4751 C   0  0  1  0  0  0  0  0  0  0  0  0
   -0.5660    1.8292   -2.4237 C   0  0  0  0  0  0  0  0  0  0  0  0
   -0.3217    1.1928   -1.2452 C   0  0  0  0  0  0  0  0  0  0  0  0
    0.8706    0.3903   -1.1058 C   0  0  0  0  0  0  0  0  0  0  0  0
    2.6945   -0.3136   -1.9506 H   0  0  0  0  0  0  0  0  0  0  0  0
    2.1024    0.6193   -4.2012 H   0  0  0  0  0  0  0  0  0  0  0  0
   -1.4687    2.4079   -2.5912 H   0  0  0  0  0  0  0  0  0  0  0  0
   -1.0288    1.2600   -0.4256 H   0  0  0  0  0  0  0  0  0  0  0  0
    0.0755    2.2454   -4.7297 N   0  0  0  0  0  0  0  0  0  0  0  0
   -0.1774    2.6753   -5.7468 N   0  0  0  0  0  0  0  0  0  0  0  0
    5.4542    0.7181   -4.9709 C   0  0  0  0  0  0  0  0  0  0  0  0
    6.6322   -0.0066   -4.7901 C   0  0  0  0  0  0  0  0  0  0  0  0
    7.5587    0.3499   -3.8003 C   0  0  0  0  0  0  0  0  0  0  0  0
    7.2814    1.4669   -2.9961 C   0  0  0  0  0  0  0  0  0  0  0  0
    6.1119    2.2041   -3.1625 C   0  0  0  0  0  0  0  0  0  0  0  0
    5.2011    1.8172   -4.1491 C   0  0  0  0  0  0  0  0  0  0  0  0
    4.7476    0.4558   -5.7510 H   0  0  0  0  0  0  0  0  0  0  0  0
    6.8376   -0.8578   -5.4343 H   0  0  0  0  0  0  0  0  0  0  0  0
    7.9971    1.7670   -2.2347 H   0  0  0  0  0  0  0  0  0  0  0  0
    5.9123    3.0778   -2.5511 H   0  0  0  0  0  0  0  0  0  0  0  0
    3.6932    2.7550   -4.3636 S   0  0  0  0  0  0  0  0  0  0  0  0
    3.0496    2.3063   -5.6059 O   0  0  0  0  0  0  0  0  0  0  0  0
    3.9836    4.1650   -4.1312 O   0  0  0  0  0  0  0  0  0  0  0  0
    2.7806    2.2770   -3.1035 O   0  0  0  0  0  0  0  0  0  0  0  0
    8.8179   -0.4576   -3.5930 C   0  0  0  0  0  0  0  0  0  0  0  0
    8.6469   -1.2742   -2.8800 H   0  0  0  0  0  0  0  0  0  0  0  0
    9.1626   -0.9084   -4.5282 H   0  0  0  0  0  0  0  0  0  0  0  0
    9.6281    0.1593   -3.1929 H   0  0  0  0  0  0  0  0  0  0  0  0
    0.9948   -0.1951   -0.1980 H   0  0  0  0  0  0  0  0  0  0  0  0
  1  7  1  0  0  0  0
  1  6  2  0  0  0  0
  2  8  1  6  0  0  0
  2 26  1  0  0  0  0
  2  1  1  0  0  0  0
  3 11  1  1  0  0  0
  3  2  1  0  0  0  0
  3  4  1  0  0  0  0
  4  5  2  0  0  0  0
  5  6  1  0  0  0  0
  5 10  1  0  0  0  0
  6 31  1  0  0  0  0
  9  4  1  0  0  0  0
 12 11  1  0  0  0  0
 13 14  2  0  0  0  0
 13 18  1  0  0  0  0
 14 15  1  0  0  0  0
 15 27  1  0  0  0  0
 15 16  2  0  0  0  0
 16 21  1  0  0  0  0
 17 16  1  0  0  0  0
 17 22  1  0  0  0  0
 18 17  2  0  0  0  0
 19 13  1  0  0  0  0
 20 14  1  0  0  0  0
 23 18  1  0  0  0  0
 23 25  2  0  0  0  0
 23 26  1  0  0  0  0
 24 23  2  0  0  0  0
 27 30  1  0  0  0  0
 27 28  1  0  0  0  0
 29 27  1  0  0  0  0
M  RAD  3   3   2  11   2  12   3
M  END
