Coordinates from ORCA-job /home/ubuntu/works/orca-Ph-N2-OTs-B3LYP-6-31G_dp-scan-d09-49-n400/Ph-N2-OTs-B3LYP-6-31G_dp-scan-d09-49-n400
 OpenBabel01281705563D

 31 31  0  0  0  0  0  0  0  0999 V2000
    0.7101    1.3905   -0.7414 C   0  0  0  0  0  0  0  0  0  0  0  0
    1.2247    2.2679   -1.6972 C   0  0  0  0  0  0  0  0  0  0  0  0
    1.7717    1.7401   -2.8676 C   0  0  0  0  0  0  0  0  0  0  0  0
    1.8066    0.3653   -3.1009 C   0  0  0  0  0  0  0  0  0  0  0  0
    1.2798   -0.4996   -2.1402 C   0  0  0  0  0  0  0  0  0  0  0  0
    0.7348    0.0104   -0.9592 C   0  0  0  0  0  0  0  0  0  0  0  0
    0.2833    1.7898    0.1742 H   0  0  0  0  0  0  0  0  0  0  0  0
    1.2135    3.3411   -1.5479 H   0  0  0  0  0  0  0  0  0  0  0  0
    2.2317   -0.0046   -4.0280 H   0  0  0  0  0  0  0  0  0  0  0  0
    1.2964   -1.5716   -2.3163 H   0  0  0  0  0  0  0  0  0  0  0  0
    2.1151    2.3526   -7.1084 N   0  0  0  0  0  0  0  0  0  0  0  0
    1.2650    3.0235   -7.3291 N   0  0  0  0  0  0  0  0  0  0  0  0
    5.2889    1.7318   -5.0891 C   0  0  0  0  0  0  0  0  0  0  0  0
    6.2558    0.7351   -5.1893 C   0  0  0  0  0  0  0  0  0  0  0  0
    6.8406    0.1702   -4.0445 C   0  0  0  0  0  0  0  0  0  0  0  0
    6.4274    0.6284   -2.7856 C   0  0  0  0  0  0  0  0  0  0  0  0
    5.4604    1.6248   -2.6618 C   0  0  0  0  0  0  0  0  0  0  0  0
    4.8996    2.1672   -3.8193 C   0  0  0  0  0  0  0  0  0  0  0  0
    4.8450    2.1718   -5.9751 H   0  0  0  0  0  0  0  0  0  0  0  0
    6.5654    0.3915   -6.1728 H   0  0  0  0  0  0  0  0  0  0  0  0
    6.8697    0.2024   -1.8891 H   0  0  0  0  0  0  0  0  0  0  0  0
    5.1496    1.9877   -1.6885 H   0  0  0  0  0  0  0  0  0  0  0  0
    3.6552    3.4364   -3.6784 S   0  0  0  0  0  0  0  0  0  0  0  0
    2.2298    2.5858   -3.8847 O   0  0  0  0  0  0  0  0  0  0  0  0
    3.6891    4.2906   -4.8561 O   0  0  0  0  0  0  0  0  0  0  0  0
    3.6874    3.9793   -2.3232 O   0  0  0  0  0  0  0  0  0  0  0  0
    7.9130   -0.8846   -4.1693 C   0  0  0  0  0  0  0  0  0  0  0  0
    7.9421   -1.5339   -3.2891 H   0  0  0  0  0  0  0  0  0  0  0  0
    7.7573   -1.5108   -5.0530 H   0  0  0  0  0  0  0  0  0  0  0  0
    8.9039   -0.4235   -4.2679 H   0  0  0  0  0  0  0  0  0  0  0  0
    0.3269   -0.6649   -0.2126 H   0  0  0  0  0  0  0  0  0  0  0  0
  1  7  1  0  0  0  0
  2  8  1  0  0  0  0
  2  1  2  0  0  0  0
  3  2  1  0  0  0  0
  4  3  2  0  0  0  0
  4  5  1  0  0  0  0
  5  6  2  0  0  0  0
  6  1  1  0  0  0  0
  6 31  1  0  0  0  0
  9  4  1  0  0  0  0
 10  5  1  0  0  0  0
 12 11  3  0  0  0  0
 13 18  1  0  0  0  0
 14 13  2  0  0  0  0
 14 15  1  0  0  0  0
 15 16  2  0  0  0  0
 16 17  1  0  0  0  0
 16 21  1  0  0  0  0
 17 22  1  0  0  0  0
 18 23  1  0  0  0  0
 18 17  2  0  0  0  0
 19 13  1  0  0  0  0
 20 14  1  0  0  0  0
 23 26  2  0  0  0  0
 24 23  1  0  0  0  0
 24  3  1  0  0  0  0
 25 23  2  0  0  0  0
 27 15  1  0  0  0  0
 27 28  1  0  0  0  0
 29 27  1  0  0  0  0
 30 27  1  0  0  0  0
M  END
