Coordinates from ORCA-job /home/ubuntu/works/orca-Ph-N2-OTs-B3LYP-6-31G_dp-scan-d09-49-n400/Ph-N2-OTs-B3LYP-6-31G_dp-scan-d09-49-n400
 OpenBabel01281705563D

 31 31  0  0  0  0  0  0  0  0999 V2000
    0.6655    1.3997   -0.7413 C   0  0  0  0  0  0  0  0  0  0  0  0
    1.1846    2.2622   -1.7080 C   0  0  0  0  0  0  0  0  0  0  0  0
    1.7603    1.7159   -2.8558 C   0  0  0  0  0  0  0  0  0  0  0  0
    1.8200    0.3368   -3.0560 C   0  0  0  0  0  0  0  0  0  0  0  0
    1.2890   -0.5135   -2.0847 C   0  0  0  0  0  0  0  0  0  0  0  0
    0.7147    0.0154   -0.9262 C   0  0  0  0  0  0  0  0  0  0  0  0
    0.2164    1.8135    0.1571 H   0  0  0  0  0  0  0  0  0  0  0  0
    1.1550    3.3383   -1.5840 H   0  0  0  0  0  0  0  0  0  0  0  0
    2.2674   -0.0484   -3.9663 H   0  0  0  0  0  0  0  0  0  0  0  0
    1.3252   -1.5891   -2.2350 H   0  0  0  0  0  0  0  0  0  0  0  0
    2.2290    2.5384   -7.2336 N   0  0  0  0  0  0  0  0  0  0  0  0
    1.3047    3.1304   -7.3614 N   0  0  0  0  0  0  0  0  0  0  0  0
    5.2649    1.7011   -5.0916 C   0  0  0  0  0  0  0  0  0  0  0  0
    6.2388    0.7118   -5.1965 C   0  0  0  0  0  0  0  0  0  0  0  0
    6.8493    0.1667   -4.0556 C   0  0  0  0  0  0  0  0  0  0  0  0
    6.4541    0.6366   -2.7952 C   0  0  0  0  0  0  0  0  0  0  0  0
    5.4801    1.6255   -2.6664 C   0  0  0  0  0  0  0  0  0  0  0  0
    4.8946    2.1489   -3.8203 C   0  0  0  0  0  0  0  0  0  0  0  0
    4.8007    2.1250   -5.9753 H   0  0  0  0  0  0  0  0  0  0  0  0
    6.5336    0.3582   -6.1811 H   0  0  0  0  0  0  0  0  0  0  0  0
    6.9158    0.2254   -1.9015 H   0  0  0  0  0  0  0  0  0  0  0  0
    5.1820    1.9971   -1.6924 H   0  0  0  0  0  0  0  0  0  0  0  0
    3.6417    3.4090   -3.6727 S   0  0  0  0  0  0  0  0  0  0  0  0
    2.2239    2.5465   -3.8833 O   0  0  0  0  0  0  0  0  0  0  0  0
    3.6695    4.2693   -4.8463 O   0  0  0  0  0  0  0  0  0  0  0  0
    3.6700    3.9462   -2.3152 O   0  0  0  0  0  0  0  0  0  0  0  0
    7.9290   -0.8800   -4.1863 C   0  0  0  0  0  0  0  0  0  0  0  0
    7.9730   -1.5240   -3.3028 H   0  0  0  0  0  0  0  0  0  0  0  0
    7.7689   -1.5123   -5.0648 H   0  0  0  0  0  0  0  0  0  0  0  0
    8.9149   -0.4113   -4.2980 H   0  0  0  0  0  0  0  0  0  0  0  0
    0.3034   -0.6485   -0.1713 H   0  0  0  0  0  0  0  0  0  0  0  0
  1  7  1  0  0  0  0
  2  8  1  0  0  0  0
  2  1  2  0  0  0  0
  3  2  1  0  0  0  0
  4  3  2  0  0  0  0
  4  5  1  0  0  0  0
  5  6  2  0  0  0  0
  6  1  1  0  0  0  0
  6 31  1  0  0  0  0
  9  4  1  0  0  0  0
 10  5  1  0  0  0  0
 12 11  3  0  0  0  0
 13 18  1  0  0  0  0
 14 13  2  0  0  0  0
 14 15  1  0  0  0  0
 15 16  2  0  0  0  0
 16 17  1  0  0  0  0
 16 21  1  0  0  0  0
 17 22  1  0  0  0  0
 18 23  1  0  0  0  0
 18 17  2  0  0  0  0
 19 13  1  0  0  0  0
 20 14  1  0  0  0  0
 23 26  2  0  0  0  0
 24 23  1  0  0  0  0
 24  3  1  0  0  0  0
 25 23  2  0  0  0  0
 27 15  1  0  0  0  0
 27 28  1  0  0  0  0
 29 27  1  0  0  0  0
 30 27  1  0  0  0  0
M  END
