Coordinates from ORCA-job /home/ubuntu/works/orca-Ph-N2-OTs-B3LYP-6-31G_dp-scan-d09-49-n400/Ph-N2-OTs-B3LYP-6-31G_dp-scan-d09-49-n400
 OpenBabel01281705563D

 31 30  0  0  0  0  0  0  0  0999 V2000
    0.7206    1.2338   -0.8182 C   0  0  0  0  0  0  0  0  0  0  0  0
    1.1535    1.6459   -2.1081 C   0  0  0  0  0  0  0  0  0  0  0  0
    0.1645    1.4415   -2.9662 C   0  0  0  0  0  0  0  0  0  0  0  0
   -1.1046    0.9586   -2.9796 C   0  0  0  0  0  0  0  0  0  0  0  0
   -1.4616    0.5637   -1.6728 C   0  0  0  0  0  0  0  0  0  0  0  0
   -0.5562    0.7040   -0.6142 C   0  0  0  0  0  0  0  0  0  0  0  0
    1.4233    1.3373    0.0038 H   0  0  0  0  0  0  0  0  0  0  0  0
    2.2060    2.0631   -2.3315 H   0  0  0  0  0  0  0  0  0  0  0  0
   -1.7570    0.8750   -3.8378 H   0  0  0  0  0  0  0  0  0  0  0  0
   -2.4528    0.1500   -1.5142 H   0  0  0  0  0  0  0  0  0  0  0  0
    0.6167    2.1054   -4.9097 N   0  0  0  0  0  0  0  0  0  0  0  0
    0.5696    2.5822   -5.9053 N   0  0  0  0  0  0  0  0  0  0  0  0
    6.5886    2.3888   -4.5092 C   0  0  0  0  0  0  0  0  0  0  0  0
    7.8934    1.8963   -4.4978 C   0  0  0  0  0  0  0  0  0  0  0  0
    8.1588    0.5520   -4.2019 C   0  0  0  0  0  0  0  0  0  0  0  0
    7.0751   -0.2955   -3.9283 C   0  0  0  0  0  0  0  0  0  0  0  0
    5.7659    0.1832   -3.9356 C   0  0  0  0  0  0  0  0  0  0  0  0
    5.5283    1.5282   -4.2230 C   0  0  0  0  0  0  0  0  0  0  0  0
    6.3815    3.4244   -4.7573 H   0  0  0  0  0  0  0  0  0  0  0  0
    8.7191    2.5654   -4.7293 H   0  0  0  0  0  0  0  0  0  0  0  0
    7.2599   -1.3457   -3.7126 H   0  0  0  0  0  0  0  0  0  0  0  0
    4.9273   -0.4777   -3.7438 H   0  0  0  0  0  0  0  0  0  0  0  0
    3.8505    2.1711   -4.1951 S   0  0  0  0  0  0  0  0  0  0  0  0
    2.9569    1.0309   -4.5579 O   0  0  0  0  0  0  0  0  0  0  0  0
    3.8107    3.3240   -5.1151 O   0  0  0  0  0  0  0  0  0  0  0  0
    3.6192    2.5735   -2.7412 O   0  0  0  0  0  0  0  0  0  0  0  0
    9.5771    0.0324   -4.1609 C   0  0  0  0  0  0  0  0  0  0  0  0
    9.6285   -1.0187   -4.4628 H   0  0  0  0  0  0  0  0  0  0  0  0
   10.2341    0.6072   -4.8207 H   0  0  0  0  0  0  0  0  0  0  0  0
    9.9944    0.0987   -3.1474 H   0  0  0  0  0  0  0  0  0  0  0  0
   -0.8518    0.3915    0.3822 H   0  0  0  0  0  0  0  0  0  0  0  0
  1  6  1  0  0  0  0
  1  7  1  0  0  0  0
  2  1  2  0  0  0  0
  3  2  1  0  0  0  0
  4  3  2  0  0  0  0
  4  5  1  0  0  0  0
  5 10  1  0  0  0  0
  5  6  2  0  0  0  0
  6 31  1  0  0  0  0
  8  2  1  0  0  0  0
  9  4  1  0  0  0  0
 12 11  3  0  0  0  0
 13 14  2  0  0  0  0
 13 18  1  0  0  0  0
 14 15  1  0  0  0  0
 15 27  1  0  0  0  0
 15 16  2  0  0  0  0
 16 21  1  0  0  0  0
 17 16  1  0  0  0  0
 17 22  1  0  0  0  0
 18 23  1  0  0  0  0
 18 17  2  0  0  0  0
 19 13  1  0  0  0  0
 20 14  1  0  0  0  0
 23 26  1  0  0  0  0
 24 23  2  0  0  0  0
 25 23  2  0  0  0  0
 27 30  1  0  0  0  0
 28 27  1  0  0  0  0
 29 27  1  0  0  0  0
M  RAD  2   3   2  26   2
M  END
