Coordinates from ORCA-job /home/ubuntu/works/orca-Ph-N2-OTs-B3LYP-6-31G_dp-scan-d09-49-n400/Ph-N2-OTs-B3LYP-6-31G_dp-scan-d09-49-n400
 OpenBabel01281705563D

 31 30  0  0  0  0  0  0  0  0999 V2000
    1.6807    1.2464   -1.1854 C   0  0  0  0  0  0  0  0  0  0  0  0
    1.4014    1.6939   -2.4980 C   0  0  0  0  0  0  0  0  0  0  0  0
    0.3353    1.2288   -2.9968 C   0  0  0  0  0  0  0  0  0  0  0  0
   -0.6733    0.3813   -2.6409 C   0  0  0  0  0  0  0  0  0  0  0  0
   -0.3932   -0.0697   -1.3294 C   0  0  0  0  0  0  0  0  0  0  0  0
    0.7499    0.3527   -0.6275 C   0  0  0  0  0  0  0  0  0  0  0  0
    2.5599    1.5627   -0.6308 H   0  0  0  0  0  0  0  0  0  0  0  0
    2.6198    2.8491   -3.3416 H   0  0  0  0  0  0  0  0  0  0  0  0
   -1.5391    0.0852   -3.2183 H   0  0  0  0  0  0  0  0  0  0  0  0
   -1.0910   -0.7607   -0.8630 H   0  0  0  0  0  0  0  0  0  0  0  0
   -0.3132    1.9501   -5.2508 N   0  0  0  0  0  0  0  0  0  0  0  0
   -0.0782    2.6325   -6.0883 N   0  0  0  0  0  0  0  0  0  0  0  0
    6.5682    2.5664   -4.3580 C   0  0  0  0  0  0  0  0  0  0  0  0
    7.6505    1.7918   -3.9454 C   0  0  0  0  0  0  0  0  0  0  0  0
    7.5167    0.4120   -3.7300 C   0  0  0  0  0  0  0  0  0  0  0  0
    6.2642   -0.1801   -3.9498 C   0  0  0  0  0  0  0  0  0  0  0  0
    5.1700    0.5785   -4.3622 C   0  0  0  0  0  0  0  0  0  0  0  0
    5.3315    1.9509   -4.5593 C   0  0  0  0  0  0  0  0  0  0  0  0
    6.6777    3.6296   -4.5434 H   0  0  0  0  0  0  0  0  0  0  0  0
    8.6175    2.2652   -3.7943 H   0  0  0  0  0  0  0  0  0  0  0  0
    6.1451   -1.2508   -3.8019 H   0  0  0  0  0  0  0  0  0  0  0  0
    4.2067    0.1160   -4.5499 H   0  0  0  0  0  0  0  0  0  0  0  0
    3.9333    2.9409   -5.0722 S   0  0  0  0  0  0  0  0  0  0  0  0
    2.9420    2.0529   -5.6859 O   0  0  0  0  0  0  0  0  0  0  0  0
    4.4344    4.1199   -5.7663 O   0  0  0  0  0  0  0  0  0  0  0  0
    3.3295    3.4762   -3.6652 O   0  0  0  0  0  0  0  0  0  0  0  0
    8.6891   -0.4140   -3.2571 C   0  0  0  0  0  0  0  0  0  0  0  0
    8.6343   -1.4395   -3.6339 H   0  0  0  0  0  0  0  0  0  0  0  0
    9.6399    0.0180   -3.5826 H   0  0  0  0  0  0  0  0  0  0  0  0
    8.7136   -0.4699   -2.1611 H   0  0  0  0  0  0  0  0  0  0  0  0
    0.9165   -0.0255    0.3776 H   0  0  0  0  0  0  0  0  0  0  0  0
  1  7  1  0  0  0  0
  1  6  1  0  0  0  0
  2  1  2  0  0  0  0
  3  4  2  0  0  0  0
  3  2  1  0  0  0  0
  4  5  1  0  0  0  0
  5 10  1  0  0  0  0
  5  6  2  0  0  0  0
  6 31  1  0  0  0  0
  9  4  1  0  0  0  0
 12 11  3  0  0  0  0
 13 14  2  0  0  0  0
 14 20  1  0  0  0  0
 14 15  1  0  0  0  0
 15 27  1  0  0  0  0
 16 21  1  0  0  0  0
 16 15  2  0  0  0  0
 17 16  1  0  0  0  0
 18 17  2  0  0  0  0
 18 13  1  0  0  0  0
 19 13  1  0  0  0  0
 22 17  1  0  0  0  0
 23 18  1  0  0  0  0
 23 26  1  0  0  0  0
 24 23  2  0  0  0  0
 25 23  2  0  0  0  0
 26  8  1  0  0  0  0
 27 30  1  0  0  0  0
 28 27  1  0  0  0  0
 29 27  1  0  0  0  0
M  RAD  2   2   2   3   2
M  END
