Coordinates from ORCA-job /home/ubuntu/works/orca-Ph-N2-OTs-B3LYP-6-31G_dp-scan-d09-49-n400/Ph-N2-OTs-B3LYP-6-31G_dp-scan-d09-49-n400
 OpenBabel01281705563D

 31 30  0  0  0  0  0  0  0  0999 V2000
    1.6249    1.3003   -1.0428 C   0  0  0  0  0  0  0  0  0  0  0  0
    1.4126    1.7087   -2.3763 C   0  0  0  0  0  0  0  0  0  0  0  0
    0.4085    1.2142   -2.9569 C   0  0  0  0  0  0  0  0  0  0  0  0
   -0.5953    0.3369   -2.6610 C   0  0  0  0  0  0  0  0  0  0  0  0
   -0.3930   -0.0856   -1.3247 C   0  0  0  0  0  0  0  0  0  0  0  0
    0.6812    0.3825   -0.5461 C   0  0  0  0  0  0  0  0  0  0  0  0
    2.4508    1.6523   -0.4316 H   0  0  0  0  0  0  0  0  0  0  0  0
    2.6477    2.8842   -3.2789 H   0  0  0  0  0  0  0  0  0  0  0  0
   -1.4090    0.0026   -3.2911 H   0  0  0  0  0  0  0  0  0  0  0  0
   -1.1000   -0.7933   -0.8982 H   0  0  0  0  0  0  0  0  0  0  0  0
   -0.3244    1.9150   -5.4965 N   0  0  0  0  0  0  0  0  0  0  0  0
   -0.1232    2.5963   -6.3431 N   0  0  0  0  0  0  0  0  0  0  0  0
    6.5803    2.5650   -4.3667 C   0  0  0  0  0  0  0  0  0  0  0  0
    7.6649    1.7809   -3.9787 C   0  0  0  0  0  0  0  0  0  0  0  0
    7.5247    0.4019   -3.7631 C   0  0  0  0  0  0  0  0  0  0  0  0
    6.2631   -0.1800   -3.9572 C   0  0  0  0  0  0  0  0  0  0  0  0
    5.1665    0.5879   -4.3448 C   0  0  0  0  0  0  0  0  0  0  0  0
    5.3349    1.9594   -4.5426 C   0  0  0  0  0  0  0  0  0  0  0  0
    6.6943    3.6277   -4.5523 H   0  0  0  0  0  0  0  0  0  0  0  0
    8.6386    2.2464   -3.8475 H   0  0  0  0  0  0  0  0  0  0  0  0
    6.1387   -1.2500   -3.8088 H   0  0  0  0  0  0  0  0  0  0  0  0
    4.1959    0.1332   -4.5130 H   0  0  0  0  0  0  0  0  0  0  0  0
    3.9345    2.9605   -5.0252 S   0  0  0  0  0  0  0  0  0  0  0  0
    2.9226    2.0828   -5.6185 O   0  0  0  0  0  0  0  0  0  0  0  0
    4.4297    4.1390   -5.7237 O   0  0  0  0  0  0  0  0  0  0  0  0
    3.3625    3.4973   -3.6019 O   0  0  0  0  0  0  0  0  0  0  0  0
    8.7002   -0.4344   -3.3167 C   0  0  0  0  0  0  0  0  0  0  0  0
    8.6352   -1.4556   -3.7037 H   0  0  0  0  0  0  0  0  0  0  0  0
    9.6480   -0.0030   -3.6517 H   0  0  0  0  0  0  0  0  0  0  0  0
    8.7404   -0.5024   -2.2219 H   0  0  0  0  0  0  0  0  0  0  0  0
    0.7840    0.0203    0.4736 H   0  0  0  0  0  0  0  0  0  0  0  0
  1  6  1  0  0  0  0
  1  7  1  0  0  0  0
  2  1  2  0  0  0  0
  3  4  2  0  0  0  0
  3  2  1  0  0  0  0
  4  5  1  0  0  0  0
  5 10  1  0  0  0  0
  5  6  2  0  0  0  0
  6 31  1  0  0  0  0
  9  4  1  0  0  0  0
 12 11  3  0  0  0  0
 13 14  1  0  0  0  0
 14 20  1  0  0  0  0
 14 15  2  0  0  0  0
 15 27  1  0  0  0  0
 16 21  1  0  0  0  0
 16 15  1  0  0  0  0
 17 16  2  0  0  0  0
 18 13  2  0  0  0  0
 18 17  1  0  0  0  0
 19 13  1  0  0  0  0
 22 17  1  0  0  0  0
 23 18  1  0  0  0  0
 23 26  1  0  0  0  0
 24 23  2  0  0  0  0
 25 23  2  0  0  0  0
 26  8  1  0  0  0  0
 27 30  1  0  0  0  0
 28 27  1  0  0  0  0
 29 27  1  0  0  0  0
M  RAD  2   2   2   3   2
M  END
