Coordinates from ORCA-job /home/ubuntu/works/orca-Ph-N2-OTs-B3LYP-6-31G_dp-scan-d09-49-n400/Ph-N2-OTs-B3LYP-6-31G_dp-scan-d09-49-n400
 OpenBabel01281705563D

 31 31  0  0  0  0  0  0  0  0999 V2000
    0.6860    1.4179   -0.8499 C   0  0  0  0  0  0  0  0  0  0  0  0
    1.2539    2.3237   -1.7473 C   0  0  0  0  0  0  0  0  0  0  0  0
    1.8286    1.8352   -2.9213 C   0  0  0  0  0  0  0  0  0  0  0  0
    1.8402    0.4715   -3.2154 C   0  0  0  0  0  0  0  0  0  0  0  0
    1.2602   -0.4214   -2.3129 C   0  0  0  0  0  0  0  0  0  0  0  0
    0.6862    0.0486   -1.1292 C   0  0  0  0  0  0  0  0  0  0  0  0
    0.2374    1.7867    0.0680 H   0  0  0  0  0  0  0  0  0  0  0  0
    1.2630    3.3891   -1.5499 H   0  0  0  0  0  0  0  0  0  0  0  0
    2.2857    0.1334   -4.1447 H   0  0  0  0  0  0  0  0  0  0  0  0
    1.2575   -1.4846   -2.5368 H   0  0  0  0  0  0  0  0  0  0  0  0
    1.4386    1.6506   -6.6940 N   0  0  0  0  0  0  0  0  0  0  0  0
    0.7587    2.4574   -7.0232 N   0  0  0  0  0  0  0  0  0  0  0  0
    5.4158    1.8443   -5.0389 C   0  0  0  0  0  0  0  0  0  0  0  0
    6.3553    0.8250   -5.1632 C   0  0  0  0  0  0  0  0  0  0  0  0
    6.8813    0.1785   -4.0327 C   0  0  0  0  0  0  0  0  0  0  0  0
    6.4376    0.5793   -2.7650 C   0  0  0  0  0  0  0  0  0  0  0  0
    5.4965    1.5975   -2.6176 C   0  0  0  0  0  0  0  0  0  0  0  0
    4.9936    2.2206   -3.7605 C   0  0  0  0  0  0  0  0  0  0  0  0
    5.0205    2.3512   -5.9125 H   0  0  0  0  0  0  0  0  0  0  0  0
    6.6904    0.5279   -6.1535 H   0  0  0  0  0  0  0  0  0  0  0  0
    6.8350    0.0905   -1.8796 H   0  0  0  0  0  0  0  0  0  0  0  0
    5.1626    1.9155   -1.6362 H   0  0  0  0  0  0  0  0  0  0  0  0
    3.7801    3.5161   -3.5933 S   0  0  0  0  0  0  0  0  0  0  0  0
    2.3408    2.7157   -3.8821 O   0  0  0  0  0  0  0  0  0  0  0  0
    3.8740    4.4240   -4.7264 O   0  0  0  0  0  0  0  0  0  0  0  0
    3.7855    3.9913   -2.2124 O   0  0  0  0  0  0  0  0  0  0  0  0
    7.9243   -0.9024   -4.1822 C   0  0  0  0  0  0  0  0  0  0  0  0
    7.9483   -1.5608   -3.3089 H   0  0  0  0  0  0  0  0  0  0  0  0
    7.7397   -1.5161   -5.0695 H   0  0  0  0  0  0  0  0  0  0  0  0
    8.9251   -0.4664   -4.2921 H   0  0  0  0  0  0  0  0  0  0  0  0
    0.2371   -0.6491   -0.4284 H   0  0  0  0  0  0  0  0  0  0  0  0
  1  7  1  0  0  0  0
  2  8  1  0  0  0  0
  2  1  2  0  0  0  0
  3  2  1  0  0  0  0
  4  3  2  0  0  0  0
  4  5  1  0  0  0  0
  5  6  2  0  0  0  0
  6  1  1  0  0  0  0
  6 31  1  0  0  0  0
  9  4  1  0  0  0  0
 10  5  1  0  0  0  0
 12 11  3  0  0  0  0
 13 18  1  0  0  0  0
 14 13  2  0  0  0  0
 14 15  1  0  0  0  0
 15 16  2  0  0  0  0
 16 17  1  0  0  0  0
 16 21  1  0  0  0  0
 17 22  1  0  0  0  0
 18 23  1  0  0  0  0
 18 17  2  0  0  0  0
 19 13  1  0  0  0  0
 20 14  1  0  0  0  0
 23 26  2  0  0  0  0
 24 23  1  0  0  0  0
 24  3  1  0  0  0  0
 25 23  2  0  0  0  0
 27 15  1  0  0  0  0
 27 28  1  0  0  0  0
 29 27  1  0  0  0  0
 30 27  1  0  0  0  0
M  END
