Coordinates from ORCA-job /home/ubuntu/works/orca-Ph-N2-OTs-B3LYP-6-31G_dp-scan-d09-49-n400/Ph-N2-OTs-B3LYP-6-31G_dp-scan-d09-49-n400
 OpenBabel01281705563D

 31 30  0  0  0  0  0  0  0  0999 V2000
    1.6777    1.2579   -1.1170 C   0  0  0  0  0  0  0  0  0  0  0  0
    1.4200    1.6892   -2.4370 C   0  0  0  0  0  0  0  0  0  0  0  0
    0.3772    1.2179   -2.9701 C   0  0  0  0  0  0  0  0  0  0  0  0
   -0.6323    0.3609   -2.6379 C   0  0  0  0  0  0  0  0  0  0  0  0
   -0.3803   -0.0801   -1.3163 C   0  0  0  0  0  0  0  0  0  0  0  0
    0.7385    0.3564   -0.5842 C   0  0  0  0  0  0  0  0  0  0  0  0
    2.5381    1.5855   -0.5405 H   0  0  0  0  0  0  0  0  0  0  0  0
    2.6356    2.8662   -3.3276 H   0  0  0  0  0  0  0  0  0  0  0  0
   -1.4802    0.0517   -3.2347 H   0  0  0  0  0  0  0  0  0  0  0  0
   -1.0830   -0.7764   -0.8650 H   0  0  0  0  0  0  0  0  0  0  0  0
   -0.3336    1.9478   -5.3995 N   0  0  0  0  0  0  0  0  0  0  0  0
   -0.1101    2.6388   -6.2328 N   0  0  0  0  0  0  0  0  0  0  0  0
    6.5687    2.5678   -4.3576 C   0  0  0  0  0  0  0  0  0  0  0  0
    7.6488    1.7880   -3.9494 C   0  0  0  0  0  0  0  0  0  0  0  0
    7.5103    0.4080   -3.7379 C   0  0  0  0  0  0  0  0  0  0  0  0
    6.2553   -0.1789   -3.9570 C   0  0  0  0  0  0  0  0  0  0  0  0
    5.1630    0.5848   -4.3650 C   0  0  0  0  0  0  0  0  0  0  0  0
    5.3294    1.9572   -4.5582 C   0  0  0  0  0  0  0  0  0  0  0  0
    6.6818    3.6312   -4.5400 H   0  0  0  0  0  0  0  0  0  0  0  0
    8.6179    2.2574   -3.7988 H   0  0  0  0  0  0  0  0  0  0  0  0
    6.1326   -1.2496   -3.8121 H   0  0  0  0  0  0  0  0  0  0  0  0
    4.1977    0.1264   -4.5523 H   0  0  0  0  0  0  0  0  0  0  0  0
    3.9342    2.9534   -5.0665 S   0  0  0  0  0  0  0  0  0  0  0  0
    2.9361    2.0707   -5.6753 O   0  0  0  0  0  0  0  0  0  0  0  0
    4.4376    4.1316   -5.7600 O   0  0  0  0  0  0  0  0  0  0  0  0
    3.3376    3.4935   -3.6558 O   0  0  0  0  0  0  0  0  0  0  0  0
    8.6806   -0.4238   -3.2699 C   0  0  0  0  0  0  0  0  0  0  0  0
    8.6238   -1.4466   -3.6536 H   0  0  0  0  0  0  0  0  0  0  0  0
    9.6326    0.0084   -3.5920 H   0  0  0  0  0  0  0  0  0  0  0  0
    8.7043   -0.4870   -2.1743 H   0  0  0  0  0  0  0  0  0  0  0  0
    0.8800   -0.0172    0.4265 H   0  0  0  0  0  0  0  0  0  0  0  0
  1  6  1  0  0  0  0
  1  7  1  0  0  0  0
  2  1  2  0  0  0  0
  3  4  2  0  0  0  0
  3  2  1  0  0  0  0
  4  5  1  0  0  0  0
  5 10  1  0  0  0  0
  5  6  2  0  0  0  0
  6 31  1  0  0  0  0
  9  4  1  0  0  0  0
 12 11  3  0  0  0  0
 13 14  2  0  0  0  0
 14 20  1  0  0  0  0
 14 15  1  0  0  0  0
 15 27  1  0  0  0  0
 16 21  1  0  0  0  0
 16 15  2  0  0  0  0
 17 16  1  0  0  0  0
 18 17  2  0  0  0  0
 18 13  1  0  0  0  0
 19 13  1  0  0  0  0
 22 17  1  0  0  0  0
 23 18  1  0  0  0  0
 23 26  1  0  0  0  0
 24 23  2  0  0  0  0
 25 23  2  0  0  0  0
 26  8  1  0  0  0  0
 27 30  1  0  0  0  0
 28 27  1  0  0  0  0
 29 27  1  0  0  0  0
M  RAD  2   2   2   3   2
M  END
