Coordinates from ORCA-job /home/ubuntu/works/orca-Ph-N2-OTs-B3LYP-6-31G_dp-scan-d09-49-n400/Ph-N2-OTs-B3LYP-6-31G_dp-scan-d09-49-n400
 OpenBabel01281705563D

 31 31  0  0  0  0  0  0  0  0999 V2000
    0.2596    0.8479   -0.8344 C   0  0  0  0  0  0  0  0  0  0  0  0
    1.0169    1.3291   -1.9216 C   0  0  0  0  0  0  0  0  0  0  0  0
    0.2587    1.4519   -3.0392 C   0  0  0  0  0  0  0  0  0  0  0  0
   -1.0589    1.2012   -3.3134 C   0  0  0  0  0  0  0  0  0  0  0  0
   -1.7552    0.7146   -2.1947 C   0  0  0  0  0  0  0  0  0  0  0  0
   -1.0970    0.5429   -0.9725 C   0  0  0  0  0  0  0  0  0  0  0  0
    0.7621    0.7166    0.1193 H   0  0  0  0  0  0  0  0  0  0  0  0
    2.0843    1.5853   -1.8554 H   0  0  0  0  0  0  0  0  0  0  0  0
   -1.5211    1.3558   -4.2796 H   0  0  0  0  0  0  0  0  0  0  0  0
   -2.8088    0.4749   -2.2991 H   0  0  0  0  0  0  0  0  0  0  0  0
    1.1563    2.1343   -4.5467 N   0  0  0  0  0  0  0  0  0  0  0  0
    1.0400    2.6899   -5.5041 N   0  0  0  0  0  0  0  0  0  0  0  0
    6.3591    2.0465   -4.9659 C   0  0  0  0  0  0  0  0  0  0  0  0
    7.6170    1.5228   -5.2596 C   0  0  0  0  0  0  0  0  0  0  0  0
    8.2218    0.5744   -4.4219 C   0  0  0  0  0  0  0  0  0  0  0  0
    7.5296    0.1622   -3.2741 C   0  0  0  0  0  0  0  0  0  0  0  0
    6.2712    0.6767   -2.9673 C   0  0  0  0  0  0  0  0  0  0  0  0
    5.6903    1.6179   -3.8186 C   0  0  0  0  0  0  0  0  0  0  0  0
    5.8976    2.7915   -5.6055 H   0  0  0  0  0  0  0  0  0  0  0  0
    8.1396    1.8579   -6.1524 H   0  0  0  0  0  0  0  0  0  0  0  0
    7.9847   -0.5691   -2.6098 H   0  0  0  0  0  0  0  0  0  0  0  0
    5.7435    0.3688   -2.0709 H   0  0  0  0  0  0  0  0  0  0  0  0
    4.0494    2.2567   -3.4643 S   0  0  0  0  0  0  0  0  0  0  0  0
    3.1186    1.2331   -4.1163 O   0  0  0  0  0  0  0  0  0  0  0  0
    3.9367    3.5878   -4.0912 O   0  0  0  0  0  0  0  0  0  0  0  0
    3.8955    2.2175   -1.9800 O   0  0  0  0  0  0  0  0  0  0  0  0
    9.5996    0.0365   -4.7301 C   0  0  0  0  0  0  0  0  0  0  0  0
    9.7330   -0.9756   -4.3358 H   0  0  0  0  0  0  0  0  0  0  0  0
    9.7870    0.0084   -5.8082 H   0  0  0  0  0  0  0  0  0  0  0  0
   10.3787    0.6652   -4.2808 H   0  0  0  0  0  0  0  0  0  0  0  0
   -1.6503    0.1670   -0.1177 H   0  0  0  0  0  0  0  0  0  0  0  0
  1  7  1  0  0  0  0
  2  8  1  0  0  0  0
  2  1  2  0  0  0  0
  3  2  1  0  0  0  0
  4  3  2  0  0  0  0
  4  5  1  0  0  0  0
  5  6  2  0  0  0  0
  6  1  1  0  0  0  0
  6 31  1  0  0  0  0
  9  4  1  0  0  0  0
 10  5  1  0  0  0  0
 11  3  1  0  0  0  0
 12 11  2  0  0  0  0
 13 18  1  0  0  0  0
 14 13  2  0  0  0  0
 14 15  1  0  0  0  0
 15 16  2  0  0  0  0
 16 17  1  0  0  0  0
 16 21  1  0  0  0  0
 17 22  1  0  0  0  0
 18 23  1  0  0  0  0
 18 17  2  0  0  0  0
 19 13  1  0  0  0  0
 20 14  1  0  0  0  0
 23 26  1  0  0  0  0
 24 23  2  0  0  0  0
 25 23  2  0  0  0  0
 27 15  1  0  0  0  0
 27 28  1  0  0  0  0
 27 30  1  0  0  0  0
 29 27  1  0  0  0  0
M  RAD  2  12   2  26   2
M  END
