Coordinates from ORCA-job /home/ubuntu/works/orca-Ph-N2-OTs-B3LYP-6-31G_dp-scan-d09-49-n400/Ph-N2-OTs-B3LYP-6-31G_dp-scan-d09-49-n400
 OpenBabel01281705563D

 31 30  0  0  0  0  0  0  0  0999 V2000
    0.7476    1.2336   -0.8279 C   0  0  0  0  0  0  0  0  0  0  0  0
    1.1613    1.6513   -2.1229 C   0  0  0  0  0  0  0  0  0  0  0  0
    0.1634    1.4415   -2.9663 C   0  0  0  0  0  0  0  0  0  0  0  0
   -1.1028    0.9506   -2.9673 C   0  0  0  0  0  0  0  0  0  0  0  0
   -1.4408    0.5508   -1.6570 C   0  0  0  0  0  0  0  0  0  0  0  0
   -0.5232    0.6951   -0.6092 C   0  0  0  0  0  0  0  0  0  0  0  0
    1.4598    1.3395   -0.0142 H   0  0  0  0  0  0  0  0  0  0  0  0
    2.2162    2.0749   -2.3609 H   0  0  0  0  0  0  0  0  0  0  0  0
   -1.7650    0.8646   -3.8177 H   0  0  0  0  0  0  0  0  0  0  0  0
   -2.4273    0.1303   -1.4866 H   0  0  0  0  0  0  0  0  0  0  0  0
    0.5874    2.1215   -4.9215 N   0  0  0  0  0  0  0  0  0  0  0  0
    0.5483    2.6105   -5.9113 N   0  0  0  0  0  0  0  0  0  0  0  0
    6.5866    2.3910   -4.5062 C   0  0  0  0  0  0  0  0  0  0  0  0
    7.8902    1.8958   -4.4813 C   0  0  0  0  0  0  0  0  0  0  0  0
    8.1493    0.5497   -4.1880 C   0  0  0  0  0  0  0  0  0  0  0  0
    7.0608   -0.2967   -3.9306 C   0  0  0  0  0  0  0  0  0  0  0  0
    5.7528    0.1847   -3.9513 C   0  0  0  0  0  0  0  0  0  0  0  0
    5.5214    1.5314   -4.2359 C   0  0  0  0  0  0  0  0  0  0  0  0
    6.3847    3.4281   -4.7526 H   0  0  0  0  0  0  0  0  0  0  0  0
    8.7199    2.5641   -4.7005 H   0  0  0  0  0  0  0  0  0  0  0  0
    7.2409   -1.3482   -3.7172 H   0  0  0  0  0  0  0  0  0  0  0  0
    4.9104   -0.4750   -3.7722 H   0  0  0  0  0  0  0  0  0  0  0  0
    3.8447    2.1766   -4.2263 S   0  0  0  0  0  0  0  0  0  0  0  0
    2.9511    1.0396   -4.5929 O   0  0  0  0  0  0  0  0  0  0  0  0
    3.8165    3.3305   -5.1448 O   0  0  0  0  0  0  0  0  0  0  0  0
    3.6028    2.5825   -2.7719 O   0  0  0  0  0  0  0  0  0  0  0  0
    9.5658    0.0268   -4.1326 C   0  0  0  0  0  0  0  0  0  0  0  0
    9.6205   -1.0190   -4.4523 H   0  0  0  0  0  0  0  0  0  0  0  0
   10.2347    0.6118   -4.7711 H   0  0  0  0  0  0  0  0  0  0  0  0
    9.9661    0.0740   -3.1112 H   0  0  0  0  0  0  0  0  0  0  0  0
   -0.8044    0.3788    0.3902 H   0  0  0  0  0  0  0  0  0  0  0  0
  1  6  1  0  0  0  0
  1  7  1  0  0  0  0
  2  1  2  0  0  0  0
  3  2  1  0  0  0  0
  4  3  2  0  0  0  0
  4  5  1  0  0  0  0
  5 10  1  0  0  0  0
  5  6  2  0  0  0  0
  6 31  1  0  0  0  0
  8  2  1  0  0  0  0
  9  4  1  0  0  0  0
 12 11  3  0  0  0  0
 13 14  2  0  0  0  0
 13 18  1  0  0  0  0
 14 15  1  0  0  0  0
 15 27  1  0  0  0  0
 15 16  2  0  0  0  0
 16 21  1  0  0  0  0
 17 16  1  0  0  0  0
 17 22  1  0  0  0  0
 18 23  1  0  0  0  0
 18 17  2  0  0  0  0
 19 13  1  0  0  0  0
 20 14  1  0  0  0  0
 23 26  1  0  0  0  0
 24 23  2  0  0  0  0
 25 23  2  0  0  0  0
 27 30  1  0  0  0  0
 28 27  1  0  0  0  0
 29 27  1  0  0  0  0
M  RAD  2   3   2  26   2
M  END
