Coordinates from ORCA-job /home/ubuntu/works/orca-Ph-N2-OTs-B3LYP-6-31G_dp-scan-d09-49-n400/Ph-N2-OTs-B3LYP-6-31G_dp-scan-d09-49-n400
 OpenBabel01281705563D

 31 30  0  0  0  0  0  0  0  0999 V2000
    0.4701    0.8710   -0.8606 C   0  0  0  0  0  0  0  0  0  0  0  0
    1.0829    1.4269   -2.0120 C   0  0  0  0  0  0  0  0  0  0  0  0
    0.1902    1.4734   -3.0067 C   0  0  0  0  0  0  0  0  0  0  0  0
   -1.1114    1.1291   -3.2021 C   0  0  0  0  0  0  0  0  0  0  0  0
   -1.6507    0.5776   -2.0226 C   0  0  0  0  0  0  0  0  0  0  0  0
   -0.8636    0.4549   -0.8723 C   0  0  0  0  0  0  0  0  0  0  0  0
    1.0781    0.7744    0.0343 H   0  0  0  0  0  0  0  0  0  0  0  0
    2.1532    1.7684   -2.0462 H   0  0  0  0  0  0  0  0  0  0  0  0
   -1.6696    1.2495   -4.1206 H   0  0  0  0  0  0  0  0  0  0  0  0
   -2.6862    0.2517   -2.0321 H   0  0  0  0  0  0  0  0  0  0  0  0
    0.9142    2.3250   -4.7166 N   0  0  0  0  0  0  0  0  0  0  0  0
    0.8161    2.9143   -5.6492 N   0  0  0  0  0  0  0  0  0  0  0  0
    6.4626    2.1507   -4.9354 C   0  0  0  0  0  0  0  0  0  0  0  0
    7.7287    1.5988   -5.1302 C   0  0  0  0  0  0  0  0  0  0  0  0
    8.1903    0.5423   -4.3334 C   0  0  0  0  0  0  0  0  0  0  0  0
    7.3448    0.0494   -3.3285 C   0  0  0  0  0  0  0  0  0  0  0  0
    6.0774    0.5907   -3.1231 C   0  0  0  0  0  0  0  0  0  0  0  0
    5.6395    1.6408   -3.9316 C   0  0  0  0  0  0  0  0  0  0  0  0
    6.1091    2.9772   -5.5429 H   0  0  0  0  0  0  0  0  0  0  0  0
    8.3699    1.9976   -5.9134 H   0  0  0  0  0  0  0  0  0  0  0  0
    7.6852   -0.7685   -2.6971 H   0  0  0  0  0  0  0  0  0  0  0  0
    5.4335    0.2150   -2.3344 H   0  0  0  0  0  0  0  0  0  0  0  0
    3.9845    2.3132   -3.7242 S   0  0  0  0  0  0  0  0  0  0  0  0
    3.0624    1.3174   -4.3797 O   0  0  0  0  0  0  0  0  0  0  0  0
    3.9669    3.6450   -4.3595 O   0  0  0  0  0  0  0  0  0  0  0  0
    3.7515    2.3279   -2.2325 O   0  0  0  0  0  0  0  0  0  0  0  0
    9.5755   -0.0280   -4.5300 C   0  0  0  0  0  0  0  0  0  0  0  0
    9.6261   -1.0762   -4.2188 H   0  0  0  0  0  0  0  0  0  0  0  0
    9.8877    0.0304   -5.5776 H   0  0  0  0  0  0  0  0  0  0  0  0
   10.3182    0.5228   -3.9390 H   0  0  0  0  0  0  0  0  0  0  0  0
   -1.2974    0.0278    0.0262 H   0  0  0  0  0  0  0  0  0  0  0  0
  1  7  1  0  0  0  0
  2  1  2  0  0  0  0
  3  2  1  0  0  0  0
  4  3  2  0  0  0  0
  4  5  1  0  0  0  0
  5  6  2  0  0  0  0
  6  1  1  0  0  0  0
  6 31  1  0  0  0  0
  8  2  1  0  0  0  0
  9  4  1  0  0  0  0
 10  5  1  0  0  0  0
 12 11  3  0  0  0  0
 13 18  1  0  0  0  0
 14 13  2  0  0  0  0
 14 15  1  0  0  0  0
 15 16  2  0  0  0  0
 16 17  1  0  0  0  0
 16 21  1  0  0  0  0
 17 22  1  0  0  0  0
 18 23  1  0  0  0  0
 18 17  2  0  0  0  0
 19 13  1  0  0  0  0
 20 14  1  0  0  0  0
 23 26  1  0  0  0  0
 24 23  2  0  0  0  0
 25 23  2  0  0  0  0
 27 15  1  0  0  0  0
 27 28  1  0  0  0  0
 27 30  1  0  0  0  0
 29 27  1  0  0  0  0
M  RAD  2   3   2  26   2
M  END
