Coordinates from ORCA-job /home/ubuntu/works/orca-Ph-N2-OTs-B3LYP-6-31G_dp-scan-d09-49-n400/Ph-N2-OTs-B3LYP-6-31G_dp-scan-d09-49-n400
 OpenBabel01281705563D

 31 30  0  0  0  0  0  0  0  0999 V2000
    1.6798    1.2453   -1.1954 C   0  0  0  0  0  0  0  0  0  0  0  0
    1.3986    1.6953   -2.5071 C   0  0  0  0  0  0  0  0  0  0  0  0
    0.3294    1.2308   -3.0018 C   0  0  0  0  0  0  0  0  0  0  0  0
   -0.6787    0.3841   -2.6419 C   0  0  0  0  0  0  0  0  0  0  0  0
   -0.3955   -0.0682   -1.3320 C   0  0  0  0  0  0  0  0  0  0  0  0
    0.7505    0.3526   -0.6340 C   0  0  0  0  0  0  0  0  0  0  0  0
    2.5612    1.5603   -0.6435 H   0  0  0  0  0  0  0  0  0  0  0  0
    2.6170    2.8467   -3.3426 H   0  0  0  0  0  0  0  0  0  0  0  0
   -1.5466    0.0896   -3.2171 H   0  0  0  0  0  0  0  0  0  0  0  0
   -1.0927   -0.7587   -0.8639 H   0  0  0  0  0  0  0  0  0  0  0  0
   -0.3069    1.9499   -5.2273 N   0  0  0  0  0  0  0  0  0  0  0  0
   -0.0707    2.6300   -6.0664 N   0  0  0  0  0  0  0  0  0  0  0  0
    6.5681    2.5660   -4.3585 C   0  0  0  0  0  0  0  0  0  0  0  0
    7.6508    1.7922   -3.9457 C   0  0  0  0  0  0  0  0  0  0  0  0
    7.5177    0.4126   -3.7293 C   0  0  0  0  0  0  0  0  0  0  0  0
    6.2654   -0.1803   -3.9482 C   0  0  0  0  0  0  0  0  0  0  0  0
    5.1707    0.5776   -4.3607 C   0  0  0  0  0  0  0  0  0  0  0  0
    5.3316    1.9499   -4.5588 C   0  0  0  0  0  0  0  0  0  0  0  0
    6.6771    3.6292   -4.5446 H   0  0  0  0  0  0  0  0  0  0  0  0
    8.6177    2.2662   -3.7953 H   0  0  0  0  0  0  0  0  0  0  0  0
    6.1468   -1.2509   -3.7995 H   0  0  0  0  0  0  0  0  0  0  0  0
    4.2075    0.1146   -4.5477 H   0  0  0  0  0  0  0  0  0  0  0  0
    3.9327    2.9391   -5.0718 S   0  0  0  0  0  0  0  0  0  0  0  0
    2.9423    2.0502   -5.6857 O   0  0  0  0  0  0  0  0  0  0  0  0
    4.4334    4.1181   -5.7663 O   0  0  0  0  0  0  0  0  0  0  0  0
    3.3281    3.4738   -3.6655 O   0  0  0  0  0  0  0  0  0  0  0  0
    8.6906   -0.4126   -3.2563 C   0  0  0  0  0  0  0  0  0  0  0  0
    8.6354   -1.4389   -3.6310 H   0  0  0  0  0  0  0  0  0  0  0  0
    9.6411    0.0187   -3.5838 H   0  0  0  0  0  0  0  0  0  0  0  0
    8.7166   -0.4664   -2.1601 H   0  0  0  0  0  0  0  0  0  0  0  0
    0.9205   -0.0260    0.3704 H   0  0  0  0  0  0  0  0  0  0  0  0
  1  7  1  0  0  0  0
  1  6  1  0  0  0  0
  2  1  2  0  0  0  0
  3  4  2  0  0  0  0
  3  2  1  0  0  0  0
  4  5  1  0  0  0  0
  5 10  1  0  0  0  0
  5  6  2  0  0  0  0
  6 31  1  0  0  0  0
  9  4  1  0  0  0  0
 12 11  3  0  0  0  0
 13 14  2  0  0  0  0
 14 20  1  0  0  0  0
 14 15  1  0  0  0  0
 15 27  1  0  0  0  0
 16 21  1  0  0  0  0
 16 15  2  0  0  0  0
 17 16  1  0  0  0  0
 18 17  2  0  0  0  0
 18 13  1  0  0  0  0
 19 13  1  0  0  0  0
 22 17  1  0  0  0  0
 23 18  1  0  0  0  0
 23 26  1  0  0  0  0
 24 23  2  0  0  0  0
 25 23  2  0  0  0  0
 26  8  1  0  0  0  0
 27 30  1  0  0  0  0
 28 27  1  0  0  0  0
 29 27  1  0  0  0  0
M  RAD  2   2   2   3   2
M  END
