Coordinates from ORCA-job /home/ubuntu/works/orca-Ph-N2-OTs-B3LYP-6-31G_dp-scan-d09-49-n400/Ph-N2-OTs-B3LYP-6-31G_dp-scan-d09-49-n400
 OpenBabel01281705563D

 31 31  0  0  0  0  0  0  0  0999 V2000
    0.1471    0.8584   -0.8387 C   0  0  0  0  0  0  0  0  0  0  0  0
    0.9959    1.3196   -1.8509 C   0  0  0  0  0  0  0  0  0  0  0  0
    0.4070    1.4712   -3.0910 C   0  0  0  0  0  0  0  0  0  0  0  0
   -0.9173    1.2085   -3.4194 C   0  0  0  0  0  0  0  0  0  0  0  0
   -1.7247    0.7346   -2.3851 C   0  0  0  0  0  0  0  0  0  0  0  0
   -1.1928    0.5627   -1.1026 C   0  0  0  0  0  0  0  0  0  0  0  0
    0.5494    0.7271    0.1607 H   0  0  0  0  0  0  0  0  0  0  0  0
    2.0438    1.5570   -1.6765 H   0  0  0  0  0  0  0  0  0  0  0  0
   -1.2961    1.3610   -4.4231 H   0  0  0  0  0  0  0  0  0  0  0  0
   -2.7655    0.5027   -2.5868 H   0  0  0  0  0  0  0  0  0  0  0  0
    1.2656    2.0437   -4.2897 N   0  0  0  0  0  0  0  0  0  0  0  0
    1.2180    2.6037   -5.2602 N   0  0  0  0  0  0  0  0  0  0  0  0
    6.2552    1.9756   -4.9644 C   0  0  0  0  0  0  0  0  0  0  0  0
    7.4933    1.4499   -5.3286 C   0  0  0  0  0  0  0  0  0  0  0  0
    8.1890    0.5764   -4.4792 C   0  0  0  0  0  0  0  0  0  0  0  0
    7.6089    0.2421   -3.2472 C   0  0  0  0  0  0  0  0  0  0  0  0
    6.3713    0.7599   -2.8685 C   0  0  0  0  0  0  0  0  0  0  0  0
    5.6986    1.6244   -3.7334 C   0  0  0  0  0  0  0  0  0  0  0  0
    5.7244    2.6632   -5.6146 H   0  0  0  0  0  0  0  0  0  0  0  0
    7.9290    1.7243   -6.2862 H   0  0  0  0  0  0  0  0  0  0  0  0
    8.1358   -0.4297   -2.5735 H   0  0  0  0  0  0  0  0  0  0  0  0
    5.9304    0.5131   -1.9087 H   0  0  0  0  0  0  0  0  0  0  0  0
    4.0883    2.2678   -3.2754 S   0  0  0  0  0  0  0  0  0  0  0  0
    3.1239    1.1895   -3.8175 O   0  0  0  0  0  0  0  0  0  0  0  0
    3.8910    3.5527   -3.9746 O   0  0  0  0  0  0  0  0  0  0  0  0
    4.0365    2.2984   -1.7934 O   0  0  0  0  0  0  0  0  0  0  0  0
    9.5453    0.0369   -4.8692 C   0  0  0  0  0  0  0  0  0  0  0  0
    9.7483   -0.9246   -4.3882 H   0  0  0  0  0  0  0  0  0  0  0  0
    9.6249   -0.1017   -5.9520 H   0  0  0  0  0  0  0  0  0  0  0  0
   10.3450    0.7265   -4.5698 H   0  0  0  0  0  0  0  0  0  0  0  0
   -1.8300    0.1957   -0.3037 H   0  0  0  0  0  0  0  0  0  0  0  0
  1  7  1  0  0  0  0
  2  8  1  0  0  0  0
  2  1  2  0  0  0  0
  3  2  1  0  0  0  0
  4  3  2  0  0  0  0
  4  5  1  0  0  0  0
  5  6  2  0  0  0  0
  6  1  1  0  0  0  0
  6 31  1  0  0  0  0
  9  4  1  0  0  0  0
 10  5  1  0  0  0  0
 11  3  1  0  0  0  0
 12 11  2  0  0  0  0
 13 18  1  0  0  0  0
 14 13  2  0  0  0  0
 14 15  1  0  0  0  0
 15 16  2  0  0  0  0
 16 17  1  0  0  0  0
 16 21  1  0  0  0  0
 17 22  1  0  0  0  0
 18 23  1  0  0  0  0
 18 17  2  0  0  0  0
 19 13  1  0  0  0  0
 20 14  1  0  0  0  0
 23 26  1  0  0  0  0
 24 23  2  0  0  0  0
 25 23  2  0  0  0  0
 27 30  1  0  0  0  0
 27 15  1  0  0  0  0
 27 28  1  0  0  0  0
 29 27  1  0  0  0  0
M  RAD  2  12   2  26   2
M  END
