Coordinates from ORCA-job /home/ubuntu/works/orca-Ph-N2-OTs-B3LYP-6-31G_dp-scan-d09-49-n400/Ph-N2-OTs-B3LYP-6-31G_dp-scan-d09-49-n400
 OpenBabel01281705563D

 31 31  0  0  0  0  0  0  0  0999 V2000
    0.7014    1.4062   -0.8121 C   0  0  0  0  0  0  0  0  0  0  0  0
    1.2558    2.3189   -1.7110 C   0  0  0  0  0  0  0  0  0  0  0  0
    1.8137    1.8391   -2.8967 C   0  0  0  0  0  0  0  0  0  0  0  0
    1.8216    0.4776   -3.2007 C   0  0  0  0  0  0  0  0  0  0  0  0
    1.2552   -0.4222   -2.2964 C   0  0  0  0  0  0  0  0  0  0  0  0
    0.6982    0.0390   -1.1012 C   0  0  0  0  0  0  0  0  0  0  0  0
    0.2657    1.7681    0.1147 H   0  0  0  0  0  0  0  0  0  0  0  0
    1.2672    3.3829   -1.5061 H   0  0  0  0  0  0  0  0  0  0  0  0
    2.2551    0.1465   -4.1382 H   0  0  0  0  0  0  0  0  0  0  0  0
    1.2498   -1.4838   -2.5279 H   0  0  0  0  0  0  0  0  0  0  0  0
    1.7426    1.6546   -6.7691 N   0  0  0  0  0  0  0  0  0  0  0  0
    1.0007    2.3920   -7.1263 N   0  0  0  0  0  0  0  0  0  0  0  0
    5.3667    1.8402   -5.0432 C   0  0  0  0  0  0  0  0  0  0  0  0
    6.3043    0.8196   -5.1736 C   0  0  0  0  0  0  0  0  0  0  0  0
    6.8483    0.1830   -4.0463 C   0  0  0  0  0  0  0  0  0  0  0  0
    6.4246    0.5945   -2.7751 C   0  0  0  0  0  0  0  0  0  0  0  0
    5.4859    1.6139   -2.6215 C   0  0  0  0  0  0  0  0  0  0  0  0
    4.9650    2.2274   -3.7616 C   0  0  0  0  0  0  0  0  0  0  0  0
    4.9572    2.3385   -5.9150 H   0  0  0  0  0  0  0  0  0  0  0  0
    6.6232    0.5138   -6.1666 H   0  0  0  0  0  0  0  0  0  0  0  0
    6.8359    0.1131   -1.8919 H   0  0  0  0  0  0  0  0  0  0  0  0
    5.1672    1.9400   -1.6378 H   0  0  0  0  0  0  0  0  0  0  0  0
    3.7548    3.5249   -3.5855 S   0  0  0  0  0  0  0  0  0  0  0  0
    2.3115    2.7263   -3.8587 O   0  0  0  0  0  0  0  0  0  0  0  0
    3.8383    4.4306   -4.7212 O   0  0  0  0  0  0  0  0  0  0  0  0
    3.7743    4.0030   -2.2057 O   0  0  0  0  0  0  0  0  0  0  0  0
    7.8892   -0.8991   -4.2024 C   0  0  0  0  0  0  0  0  0  0  0  0
    7.9127   -1.5620   -3.3324 H   0  0  0  0  0  0  0  0  0  0  0  0
    7.7030   -1.5078   -5.0927 H   0  0  0  0  0  0  0  0  0  0  0  0
    8.8908   -0.4641   -4.3102 H   0  0  0  0  0  0  0  0  0  0  0  0
    0.2595   -0.6640   -0.3990 H   0  0  0  0  0  0  0  0  0  0  0  0
  1  7  1  0  0  0  0
  2  8  1  0  0  0  0
  2  1  2  0  0  0  0
  3  2  1  0  0  0  0
  4  3  2  0  0  0  0
  4  5  1  0  0  0  0
  5  6  2  0  0  0  0
  6  1  1  0  0  0  0
  6 31  1  0  0  0  0
  9  4  1  0  0  0  0
 10  5  1  0  0  0  0
 12 11  3  0  0  0  0
 13 18  1  0  0  0  0
 14 13  2  0  0  0  0
 14 15  1  0  0  0  0
 15 16  2  0  0  0  0
 16 17  1  0  0  0  0
 16 21  1  0  0  0  0
 17 22  1  0  0  0  0
 18 23  1  0  0  0  0
 18 17  2  0  0  0  0
 19 13  1  0  0  0  0
 20 14  1  0  0  0  0
 23 26  2  0  0  0  0
 24 23  1  0  0  0  0
 24  3  1  0  0  0  0
 25 23  2  0  0  0  0
 27 15  1  0  0  0  0
 27 28  1  0  0  0  0
 29 27  1  0  0  0  0
 30 27  1  0  0  0  0
M  END
