Coordinates from ORCA-job /home/ubuntu/works/orca-Ph-N2-OTs-B3LYP-6-31G_dp-scan-d09-49-n400/Ph-N2-OTs-B3LYP-6-31G_dp-scan-d09-49-n400
 OpenBabel01281705563D

 31 31  0  0  0  0  0  0  0  0999 V2000
    0.1482    0.8583   -0.8377 C   0  0  0  0  0  0  0  0  0  0  0  0
    0.9960    1.3184   -1.8517 C   0  0  0  0  0  0  0  0  0  0  0  0
    0.4031    1.4692   -3.0892 C   0  0  0  0  0  0  0  0  0  0  0  0
   -0.9209    1.2083   -3.4171 C   0  0  0  0  0  0  0  0  0  0  0  0
   -1.7267    0.7358   -2.3805 C   0  0  0  0  0  0  0  0  0  0  0  0
   -1.1924    0.5639   -1.0990 C   0  0  0  0  0  0  0  0  0  0  0  0
    0.5524    0.7272    0.1609 H   0  0  0  0  0  0  0  0  0  0  0  0
    2.0446    1.5552   -1.6799 H   0  0  0  0  0  0  0  0  0  0  0  0
   -1.3010    1.3609   -4.4202 H   0  0  0  0  0  0  0  0  0  0  0  0
   -2.7682    0.5048   -2.5801 H   0  0  0  0  0  0  0  0  0  0  0  0
    1.2662    2.0431   -4.2972 N   0  0  0  0  0  0  0  0  0  0  0  0
    1.2147    2.6020   -5.2678 N   0  0  0  0  0  0  0  0  0  0  0  0
    6.2578    1.9775   -4.9644 C   0  0  0  0  0  0  0  0  0  0  0  0
    7.4963    1.4521   -5.3273 C   0  0  0  0  0  0  0  0  0  0  0  0
    8.1902    0.5768   -4.4784 C   0  0  0  0  0  0  0  0  0  0  0  0
    7.6078    0.2403   -3.2480 C   0  0  0  0  0  0  0  0  0  0  0  0
    6.3697    0.7578   -2.8707 C   0  0  0  0  0  0  0  0  0  0  0  0
    5.6989    1.6241   -3.7351 C   0  0  0  0  0  0  0  0  0  0  0  0
    5.7283    2.6665   -5.6142 H   0  0  0  0  0  0  0  0  0  0  0  0
    7.9339    1.7283   -6.2836 H   0  0  0  0  0  0  0  0  0  0  0  0
    8.1333   -0.4329   -2.5747 H   0  0  0  0  0  0  0  0  0  0  0  0
    5.9269    0.5092   -1.9122 H   0  0  0  0  0  0  0  0  0  0  0  0
    4.0879    2.2672   -3.2789 S   0  0  0  0  0  0  0  0  0  0  0  0
    3.1243    1.1901   -3.8250 O   0  0  0  0  0  0  0  0  0  0  0  0
    3.8924    3.5536   -3.9757 O   0  0  0  0  0  0  0  0  0  0  0  0
    4.0333    2.2946   -1.7969 O   0  0  0  0  0  0  0  0  0  0  0  0
    9.5471    0.0377   -4.8668 C   0  0  0  0  0  0  0  0  0  0  0  0
    9.7483   -0.9255   -4.3885 H   0  0  0  0  0  0  0  0  0  0  0  0
    9.6293   -0.0974   -5.9499 H   0  0  0  0  0  0  0  0  0  0  0  0
   10.3466    0.7257   -4.5632 H   0  0  0  0  0  0  0  0  0  0  0  0
   -1.8285    0.1980   -0.2988 H   0  0  0  0  0  0  0  0  0  0  0  0
  1  7  1  0  0  0  0
  2  8  1  0  0  0  0
  2  1  2  0  0  0  0
  3  2  1  0  0  0  0
  4  3  2  0  0  0  0
  4  5  1  0  0  0  0
  5  6  2  0  0  0  0
  6  1  1  0  0  0  0
  6 31  1  0  0  0  0
  9  4  1  0  0  0  0
 10  5  1  0  0  0  0
 11  3  1  0  0  0  0
 12 11  2  0  0  0  0
 13 18  1  0  0  0  0
 14 13  2  0  0  0  0
 14 15  1  0  0  0  0
 15 16  2  0  0  0  0
 16 17  1  0  0  0  0
 16 21  1  0  0  0  0
 17 22  1  0  0  0  0
 18 23  1  0  0  0  0
 18 17  2  0  0  0  0
 19 13  1  0  0  0  0
 20 14  1  0  0  0  0
 23 26  1  0  0  0  0
 24 23  2  0  0  0  0
 25 23  2  0  0  0  0
 27 30  1  0  0  0  0
 27 15  1  0  0  0  0
 27 28  1  0  0  0  0
 29 27  1  0  0  0  0
M  RAD  2  12   2  26   2
M  END
