Coordinates from ORCA-job /home/ubuntu/works/orca-Ph-N2-OTs-B3LYP-6-31G_dp-scan-d09-49-n400/Ph-N2-OTs-B3LYP-6-31G_dp-scan-d09-49-n400
 OpenBabel01281705563D

 31 30  0  0  0  0  0  0  0  0999 V2000
    1.6750    1.2624   -1.0921 C   0  0  0  0  0  0  0  0  0  0  0  0
    1.4279    1.6894   -2.4149 C   0  0  0  0  0  0  0  0  0  0  0  0
    0.3935    1.2150   -2.9601 C   0  0  0  0  0  0  0  0  0  0  0  0
   -0.6168    0.3549   -2.6386 C   0  0  0  0  0  0  0  0  0  0  0  0
   -0.3768   -0.0832   -1.3134 C   0  0  0  0  0  0  0  0  0  0  0  0
    0.7323    0.3580   -0.5695 C   0  0  0  0  0  0  0  0  0  0  0  0
    2.5277    1.5937   -0.5066 H   0  0  0  0  0  0  0  0  0  0  0  0
    2.6414    2.8719   -3.3194 H   0  0  0  0  0  0  0  0  0  0  0  0
   -1.4574    0.0416   -3.2436 H   0  0  0  0  0  0  0  0  0  0  0  0
   -1.0817   -0.7815   -0.8685 H   0  0  0  0  0  0  0  0  0  0  0  0
   -0.3374    1.9446   -5.4489 N   0  0  0  0  0  0  0  0  0  0  0  0
   -0.1197    2.6364   -6.2829 N   0  0  0  0  0  0  0  0  0  0  0  0
    6.5688    2.5681   -4.3584 C   0  0  0  0  0  0  0  0  0  0  0  0
    7.6485    1.7865   -3.9524 C   0  0  0  0  0  0  0  0  0  0  0  0
    7.5084    0.4067   -3.7415 C   0  0  0  0  0  0  0  0  0  0  0  0
    6.2522   -0.1784   -3.9588 C   0  0  0  0  0  0  0  0  0  0  0  0
    5.1604    0.5871   -4.3646 C   0  0  0  0  0  0  0  0  0  0  0  0
    5.3283    1.9593   -4.5573 C   0  0  0  0  0  0  0  0  0  0  0  0
    6.6831    3.6314   -4.5403 H   0  0  0  0  0  0  0  0  0  0  0  0
    8.6184    2.2545   -3.8032 H   0  0  0  0  0  0  0  0  0  0  0  0
    6.1282   -1.2490   -3.8143 H   0  0  0  0  0  0  0  0  0  0  0  0
    4.1942    0.1301   -4.5507 H   0  0  0  0  0  0  0  0  0  0  0  0
    3.9338    2.9577   -5.0629 S   0  0  0  0  0  0  0  0  0  0  0  0
    2.9330    2.0768   -5.6698 O   0  0  0  0  0  0  0  0  0  0  0  0
    4.4374    4.1355   -5.7566 O   0  0  0  0  0  0  0  0  0  0  0  0
    3.3411    3.4989   -3.6503 O   0  0  0  0  0  0  0  0  0  0  0  0
    8.6783   -0.4270   -3.2758 C   0  0  0  0  0  0  0  0  0  0  0  0
    8.6199   -1.4493   -3.6606 H   0  0  0  0  0  0  0  0  0  0  0  0
    9.6304    0.0044   -3.5986 H   0  0  0  0  0  0  0  0  0  0  0  0
    8.7032   -0.4915   -2.1803 H   0  0  0  0  0  0  0  0  0  0  0  0
    0.8636   -0.0144    0.4431 H   0  0  0  0  0  0  0  0  0  0  0  0
  1  6  1  0  0  0  0
  1  7  1  0  0  0  0
  2  1  2  0  0  0  0
  3  4  2  0  0  0  0
  3  2  1  0  0  0  0
  4  5  1  0  0  0  0
  5 10  1  0  0  0  0
  5  6  2  0  0  0  0
  6 31  1  0  0  0  0
  9  4  1  0  0  0  0
 12 11  3  0  0  0  0
 13 14  2  0  0  0  0
 14 20  1  0  0  0  0
 14 15  1  0  0  0  0
 15 27  1  0  0  0  0
 16 21  1  0  0  0  0
 16 15  2  0  0  0  0
 17 16  1  0  0  0  0
 18 17  2  0  0  0  0
 18 13  1  0  0  0  0
 19 13  1  0  0  0  0
 22 17  1  0  0  0  0
 23 18  1  0  0  0  0
 23 26  1  0  0  0  0
 24 23  2  0  0  0  0
 25 23  2  0  0  0  0
 26  8  1  0  0  0  0
 27 30  1  0  0  0  0
 28 27  1  0  0  0  0
 29 27  1  0  0  0  0
M  RAD  2   2   2   3   2
M  END
