Coordinates from ORCA-job /home/ubuntu/works/orca-Ph-N2-OTs-B3LYP-6-31G_dp-scan-d09-49-n400/Ph-N2-OTs-B3LYP-6-31G_dp-scan-d09-49-n400
 OpenBabel01281705563D

 31 32  0  0  1  0  0  0  0  0999 V2000
    1.9777    0.2830   -2.5723 C   0  0  0  0  0  0  0  0  0  0  0  0
    1.6947    1.3248   -3.6036 C   0  0  1  0  0  0  0  0  0  0  0  0
    0.2780    2.0079   -3.4645 C   0  0  0  0  0  0  0  0  0  0  0  0
   -0.3933    1.8258   -2.1390 C   0  0  0  0  0  0  0  0  0  0  0  0
    0.0511    0.9493   -1.2208 C   0  0  0  0  0  0  0  0  0  0  0  0
    1.2296    0.1331   -1.4656 C   0  0  0  0  0  0  0  0  0  0  0  0
    2.8596   -0.3277   -2.7452 H   0  0  0  0  0  0  0  0  0  0  0  0
    1.7618    0.9402   -4.6257 H   0  0  0  0  0  0  0  0  0  0  0  0
   -1.2768    2.4397   -1.9866 H   0  0  0  0  0  0  0  0  0  0  0  0
   -0.4800    0.8413   -0.2798 H   0  0  0  0  0  0  0  0  0  0  0  0
   -0.0678    2.5150   -4.1766 N   0  0  0  0  0  0  0  0  0  0  0  0
   -0.4970    3.1498   -5.0720 N   0  0  0  0  0  0  0  0  0  0  0  0
    5.4296    0.5995   -4.9396 C   0  0  0  0  0  0  0  0  0  0  0  0
    6.5663   -0.1241   -4.5812 C   0  0  0  0  0  0  0  0  0  0  0  0
    7.4366    0.3385   -3.5839 C   0  0  0  0  0  0  0  0  0  0  0  0
    7.1470    1.5606   -2.9566 C   0  0  0  0  0  0  0  0  0  0  0  0
    6.0184    2.2995   -3.3010 C   0  0  0  0  0  0  0  0  0  0  0  0
    5.1636    1.8055   -4.2893 C   0  0  0  0  0  0  0  0  0  0  0  0
    4.7681    0.2519   -5.7263 H   0  0  0  0  0  0  0  0  0  0  0  0
    6.7842   -1.0587   -5.0911 H   0  0  0  0  0  0  0  0  0  0  0  0
    7.8197    1.9417   -2.1923 H   0  0  0  0  0  0  0  0  0  0  0  0
    5.8084    3.2522   -2.8267 H   0  0  0  0  0  0  0  0  0  0  0  0
    3.7069    2.7397   -4.7305 S   0  0  0  0  0  0  0  0  0  0  0  0
    3.1412    2.1716   -5.9549 O   0  0  0  0  0  0  0  0  0  0  0  0
    3.9932    4.1594   -4.5923 O   0  0  0  0  0  0  0  0  0  0  0  0
    2.6815    2.4027   -3.4732 O   0  0  0  0  0  0  0  0  0  0  0  0
    8.6486   -0.4666   -3.1816 C   0  0  0  0  0  0  0  0  0  0  0  0
    8.4047   -1.1584   -2.3652 H   0  0  0  0  0  0  0  0  0  0  0  0
    9.0259   -1.0663   -4.0152 H   0  0  0  0  0  0  0  0  0  0  0  0
    9.4590    0.1787   -2.8304 H   0  0  0  0  0  0  0  0  0  0  0  0
    1.4993   -0.6188   -0.7285 H   0  0  0  0  0  0  0  0  0  0  0  0
  1  6  2  0  0  0  0
  2  8  1  6  0  0  0
  2 26  1  0  0  0  0
  2  3  1  0  0  0  0
  2  1  1  0  0  0  0
  3  4  2  0  0  0  0
  4  9  1  0  0  0  0
  4  5  1  0  0  0  0
  5 10  1  0  0  0  0
  6  5  1  0  0  0  0
  6 31  1  0  0  0  0
  7  1  1  0  0  0  0
 11  3  1  0  0  0  0
 12 11  1  0  0  0  0
 13 14  2  0  0  0  0
 13 18  1  0  0  0  0
 14 15  1  0  0  0  0
 15 27  1  0  0  0  0
 15 16  2  0  0  0  0
 16 21  1  0  0  0  0
 17 16  1  0  0  0  0
 17 22  1  0  0  0  0
 18 17  2  0  0  0  0
 19 13  1  0  0  0  0
 20 14  1  0  0  0  0
 23 25  2  0  0  0  0
 23 18  1  0  0  0  0
 23 26  1  0  0  0  0
 24 23  2  0  0  0  0
 27 30  1  0  0  0  0
 27 28  1  0  0  0  0
 29 27  1  0  0  0  0
M  RAD  3   5   2  11   2  12   3
M  END
