Coordinates from ORCA-job /home/ubuntu/works/orca-Ph-N2-OTs-B3LYP-6-31G_dp-scan-d09-49-n400/Ph-N2-OTs-B3LYP-6-31G_dp-scan-d09-49-n400
 OpenBabel01281705563D

 31 30  0  0  0  0  0  0  0  0999 V2000
    1.3217    1.4781   -0.4962 C   0  0  0  0  0  0  0  0  0  0  0  0
    1.6692    1.8353   -1.8130 C   0  0  0  0  0  0  0  0  0  0  0  0
    1.0463    1.2608   -2.7453 C   0  0  0  0  0  0  0  0  0  0  0  0
    0.0598    0.3223   -2.8634 C   0  0  0  0  0  0  0  0  0  0  0  0
   -0.3030   -0.0528   -1.5463 C   0  0  0  0  0  0  0  0  0  0  0  0
    0.3072    0.5060   -0.4079 C   0  0  0  0  0  0  0  0  0  0  0  0
    1.7811    1.9018    0.3916 H   0  0  0  0  0  0  0  0  0  0  0  0
    2.8961    3.1130   -2.7452 H   0  0  0  0  0  0  0  0  0  0  0  0
   -0.3895   -0.0778   -3.7618 H   0  0  0  0  0  0  0  0  0  0  0  0
   -1.0846   -0.7991   -1.4238 H   0  0  0  0  0  0  0  0  0  0  0  0
   -0.0721    1.3088   -6.1739 N   0  0  0  0  0  0  0  0  0  0  0  0
    0.0422    1.9705   -7.0515 N   0  0  0  0  0  0  0  0  0  0  0  0
    6.5419    2.5353   -4.5360 C   0  0  0  0  0  0  0  0  0  0  0  0
    7.6360    1.7044   -4.2986 C   0  0  0  0  0  0  0  0  0  0  0  0
    7.4633    0.3631   -3.9301 C   0  0  0  0  0  0  0  0  0  0  0  0
    6.1561   -0.1354   -3.8130 C   0  0  0  0  0  0  0  0  0  0  0  0
    5.0508    0.6784   -4.0471 C   0  0  0  0  0  0  0  0  0  0  0  0
    5.2547    2.0137   -4.4040 C   0  0  0  0  0  0  0  0  0  0  0  0
    6.6767    3.5687   -4.8363 H   0  0  0  0  0  0  0  0  0  0  0  0
    8.6410    2.1039   -4.4077 H   0  0  0  0  0  0  0  0  0  0  0  0
    6.0026   -1.1764   -3.5398 H   0  0  0  0  0  0  0  0  0  0  0  0
    4.0426    0.2856   -3.9684 H   0  0  0  0  0  0  0  0  0  0  0  0
    3.8488    3.0791   -4.6899 S   0  0  0  0  0  0  0  0  0  0  0  0
    2.7071    2.2437   -5.0804 O   0  0  0  0  0  0  0  0  0  0  0  0
    4.2785    4.2035   -5.5085 O   0  0  0  0  0  0  0  0  0  0  0  0
    3.5470    3.6940   -3.2177 O   0  0  0  0  0  0  0  0  0  0  0  0
    8.6518   -0.5262   -3.6522 C   0  0  0  0  0  0  0  0  0  0  0  0
    8.5314   -1.5107   -4.1154 H   0  0  0  0  0  0  0  0  0  0  0  0
    9.5783   -0.0850   -4.0291 H   0  0  0  0  0  0  0  0  0  0  0  0
    8.7766   -0.6895   -2.5747 H   0  0  0  0  0  0  0  0  0  0  0  0
   -0.0200    0.1737    0.5739 H   0  0  0  0  0  0  0  0  0  0  0  0
  1  6  1  0  0  0  0
  1  7  1  0  0  0  0
  2  1  2  0  0  0  0
  3  2  1  0  0  0  0
  4  3  2  0  0  0  0
  4  5  1  0  0  0  0
  5 10  1  0  0  0  0
  5  6  2  0  0  0  0
  6 31  1  0  0  0  0
  9  4  1  0  0  0  0
 12 11  3  0  0  0  0
 13 18  2  0  0  0  0
 13 14  1  0  0  0  0
 14 15  2  0  0  0  0
 15 16  1  0  0  0  0
 15 27  1  0  0  0  0
 16 21  1  0  0  0  0
 17 22  1  0  0  0  0
 17 16  2  0  0  0  0
 18 17  1  0  0  0  0
 19 13  1  0  0  0  0
 20 14  1  0  0  0  0
 23 18  1  0  0  0  0
 23 26  1  0  0  0  0
 24 23  2  0  0  0  0
 25 23  2  0  0  0  0
 26  8  1  0  0  0  0
 27 30  1  0  0  0  0
 28 27  1  0  0  0  0
 29 27  1  0  0  0  0
M  RAD  2   2   2   3   2
M  END
