Coordinates from ORCA-job /home/ubuntu/works/orca-Ph-N2-OTs-B3LYP-6-31G_dp-scan-d09-49-n400/Ph-N2-OTs-B3LYP-6-31G_dp-scan-d09-49-n400
 OpenBabel01281705563D

 31 30  0  0  0  0  0  0  0  0999 V2000
    1.6779    1.2544   -1.1401 C   0  0  0  0  0  0  0  0  0  0  0  0
    1.4121    1.6904   -2.4577 C   0  0  0  0  0  0  0  0  0  0  0  0
    0.3613    1.2213   -2.9790 C   0  0  0  0  0  0  0  0  0  0  0  0
   -0.6479    0.3675   -2.6383 C   0  0  0  0  0  0  0  0  0  0  0  0
   -0.3858   -0.0762   -1.3199 C   0  0  0  0  0  0  0  0  0  0  0  0
    0.7414    0.3558   -0.5984 C   0  0  0  0  0  0  0  0  0  0  0  0
    2.5448    1.5785   -0.5714 H   0  0  0  0  0  0  0  0  0  0  0  0
    2.6301    2.8601   -3.3330 H   0  0  0  0  0  0  0  0  0  0  0  0
   -1.5021    0.0625   -3.2282 H   0  0  0  0  0  0  0  0  0  0  0  0
   -1.0868   -0.7706   -0.8630 H   0  0  0  0  0  0  0  0  0  0  0  0
   -0.3283    1.9486   -5.3501 N   0  0  0  0  0  0  0  0  0  0  0  0
   -0.0996    2.6374   -6.1839 N   0  0  0  0  0  0  0  0  0  0  0  0
    6.5690    2.5673   -4.3572 C   0  0  0  0  0  0  0  0  0  0  0  0
    7.6500    1.7894   -3.9476 C   0  0  0  0  0  0  0  0  0  0  0  0
    7.5134    0.4094   -3.7355 C   0  0  0  0  0  0  0  0  0  0  0  0
    6.2594   -0.1796   -3.9553 C   0  0  0  0  0  0  0  0  0  0  0  0
    5.1664    0.5823   -4.3648 C   0  0  0  0  0  0  0  0  0  0  0  0
    5.3308    1.9549   -4.5586 C   0  0  0  0  0  0  0  0  0  0  0  0
    6.6806    3.6308   -4.5401 H   0  0  0  0  0  0  0  0  0  0  0  0
    8.6182    2.2603   -3.7965 H   0  0  0  0  0  0  0  0  0  0  0  0
    6.1382   -1.2504   -3.8100 H   0  0  0  0  0  0  0  0  0  0  0  0
    4.2019    0.1224   -4.5526 H   0  0  0  0  0  0  0  0  0  0  0  0
    3.9344    2.9488   -5.0684 S   0  0  0  0  0  0  0  0  0  0  0  0
    2.9388    2.0642   -5.6789 O   0  0  0  0  0  0  0  0  0  0  0  0
    4.4369    4.1275   -5.7617 O   0  0  0  0  0  0  0  0  0  0  0  0
    3.3351    3.4869   -3.6588 O   0  0  0  0  0  0  0  0  0  0  0  0
    8.6845   -0.4204   -3.2660 C   0  0  0  0  0  0  0  0  0  0  0  0
    8.6291   -1.4438   -3.6485 H   0  0  0  0  0  0  0  0  0  0  0  0
    9.6361    0.0125   -3.5883 H   0  0  0  0  0  0  0  0  0  0  0  0
    8.7079   -0.4823   -2.1703 H   0  0  0  0  0  0  0  0  0  0  0  0
    0.8917   -0.0190    0.4106 H   0  0  0  0  0  0  0  0  0  0  0  0
  1  6  1  0  0  0  0
  1  7  1  0  0  0  0
  2  1  2  0  0  0  0
  3  4  2  0  0  0  0
  3  2  1  0  0  0  0
  4  5  1  0  0  0  0
  5 10  1  0  0  0  0
  5  6  2  0  0  0  0
  6 31  1  0  0  0  0
  9  4  1  0  0  0  0
 12 11  3  0  0  0  0
 13 14  2  0  0  0  0
 14 20  1  0  0  0  0
 14 15  1  0  0  0  0
 15 27  1  0  0  0  0
 16 21  1  0  0  0  0
 16 15  2  0  0  0  0
 17 16  1  0  0  0  0
 18 17  2  0  0  0  0
 18 13  1  0  0  0  0
 19 13  1  0  0  0  0
 22 17  1  0  0  0  0
 23 18  1  0  0  0  0
 23 26  1  0  0  0  0
 24 23  2  0  0  0  0
 25 23  2  0  0  0  0
 26  8  1  0  0  0  0
 27 30  1  0  0  0  0
 28 27  1  0  0  0  0
 29 27  1  0  0  0  0
M  RAD  2   2   2   3   2
M  END
