Coordinates from ORCA-job /home/ubuntu/works/orca-Ph-N2-OTs-B3LYP-6-31G_dp-scan-d09-49-n400/Ph-N2-OTs-B3LYP-6-31G_dp-scan-d09-49-n400
 OpenBabel01281705563D

 31 30  0  0  0  0  0  0  0  0999 V2000
    1.6430    1.3025   -1.0032 C   0  0  0  0  0  0  0  0  0  0  0  0
    1.4450    1.7078   -2.3389 C   0  0  0  0  0  0  0  0  0  0  0  0
    0.4551    1.2088   -2.9380 C   0  0  0  0  0  0  0  0  0  0  0  0
   -0.5472    0.3237   -2.6590 C   0  0  0  0  0  0  0  0  0  0  0  0
   -0.3611   -0.0980   -1.3195 C   0  0  0  0  0  0  0  0  0  0  0  0
    0.6973    0.3769   -0.5235 C   0  0  0  0  0  0  0  0  0  0  0  0
    2.4566    1.6597   -0.3789 H   0  0  0  0  0  0  0  0  0  0  0  0
    2.6619    2.9038   -3.2700 H   0  0  0  0  0  0  0  0  0  0  0  0
   -1.3489   -0.0165   -3.3012 H   0  0  0  0  0  0  0  0  0  0  0  0
   -1.0689   -0.8115   -0.9040 H   0  0  0  0  0  0  0  0  0  0  0  0
   -0.3268    1.9076   -5.5933 N   0  0  0  0  0  0  0  0  0  0  0  0
   -0.1431    2.5883   -6.4443 N   0  0  0  0  0  0  0  0  0  0  0  0
    6.5726    2.5673   -4.3657 C   0  0  0  0  0  0  0  0  0  0  0  0
    7.6518    1.7768   -3.9760 C   0  0  0  0  0  0  0  0  0  0  0  0
    7.5032    0.3985   -3.7609 C   0  0  0  0  0  0  0  0  0  0  0  0
    6.2386   -0.1760   -3.9574 C   0  0  0  0  0  0  0  0  0  0  0  0
    5.1472    0.5984   -4.3469 C   0  0  0  0  0  0  0  0  0  0  0  0
    5.3240    1.9690   -4.5440 C   0  0  0  0  0  0  0  0  0  0  0  0
    6.6932    3.6293   -4.5509 H   0  0  0  0  0  0  0  0  0  0  0  0
    8.6281    2.2364   -3.8429 H   0  0  0  0  0  0  0  0  0  0  0  0
    6.1076   -1.2452   -3.8094 H   0  0  0  0  0  0  0  0  0  0  0  0
    4.1742    0.1495   -4.5169 H   0  0  0  0  0  0  0  0  0  0  0  0
    3.9307    2.9784   -5.0295 S   0  0  0  0  0  0  0  0  0  0  0  0
    2.9138    2.1062   -5.6219 O   0  0  0  0  0  0  0  0  0  0  0  0
    4.4333    4.1531   -5.7289 O   0  0  0  0  0  0  0  0  0  0  0  0
    3.3617    3.5242   -3.6074 O   0  0  0  0  0  0  0  0  0  0  0  0
    8.6730   -0.4447   -3.3127 C   0  0  0  0  0  0  0  0  0  0  0  0
    8.6048   -1.4643   -3.7032 H   0  0  0  0  0  0  0  0  0  0  0  0
    9.6241   -0.0167   -3.6425 H   0  0  0  0  0  0  0  0  0  0  0  0
    8.7086   -0.5165   -2.2180 H   0  0  0  0  0  0  0  0  0  0  0  0
    0.7864    0.0138    0.4971 H   0  0  0  0  0  0  0  0  0  0  0  0
  1  6  1  0  0  0  0
  1  7  1  0  0  0  0
  2  1  2  0  0  0  0
  3  4  2  0  0  0  0
  3  2  1  0  0  0  0
  4  5  1  0  0  0  0
  5 10  1  0  0  0  0
  5  6  2  0  0  0  0
  6 31  1  0  0  0  0
  9  4  1  0  0  0  0
 12 11  3  0  0  0  0
 13 14  1  0  0  0  0
 14 20  1  0  0  0  0
 14 15  2  0  0  0  0
 15 27  1  0  0  0  0
 16 21  1  0  0  0  0
 16 15  1  0  0  0  0
 17 16  2  0  0  0  0
 18 13  2  0  0  0  0
 18 17  1  0  0  0  0
 19 13  1  0  0  0  0
 22 17  1  0  0  0  0
 23 18  1  0  0  0  0
 23 26  1  0  0  0  0
 24 23  2  0  0  0  0
 25 23  2  0  0  0  0
 26  8  1  0  0  0  0
 27 30  1  0  0  0  0
 28 27  1  0  0  0  0
 29 27  1  0  0  0  0
M  RAD  2   2   2   3   2
M  END
