Coordinates from ORCA-job /home/ubuntu/works/orca-Ph-N2-OTs-B3LYP-6-31G_dp-scan-d09-49-n400/Ph-N2-OTs-B3LYP-6-31G_dp-scan-d09-49-n400
 OpenBabel01281705563D

 31 31  0  0  0  0  0  0  0  0999 V2000
    0.7249    1.3891   -0.7598 C   0  0  0  0  0  0  0  0  0  0  0  0
    1.2494    2.2838   -1.6941 C   0  0  0  0  0  0  0  0  0  0  0  0
    1.7870    1.7787   -2.8787 C   0  0  0  0  0  0  0  0  0  0  0  0
    1.8027    0.4097   -3.1471 C   0  0  0  0  0  0  0  0  0  0  0  0
    1.2660   -0.4721   -2.2076 C   0  0  0  0  0  0  0  0  0  0  0  0
    0.7302    0.0149   -1.0128 C   0  0  0  0  0  0  0  0  0  0  0  0
    0.3051    1.7707    0.1666 H   0  0  0  0  0  0  0  0  0  0  0  0
    1.2530    3.3528   -1.5172 H   0  0  0  0  0  0  0  0  0  0  0  0
    2.2211    0.0585   -4.0843 H   0  0  0  0  0  0  0  0  0  0  0  0
    1.2674   -1.5394   -2.4111 H   0  0  0  0  0  0  0  0  0  0  0  0
    2.0183    2.1202   -6.9962 N   0  0  0  0  0  0  0  0  0  0  0  0
    1.1607    2.7678   -7.2542 N   0  0  0  0  0  0  0  0  0  0  0  0
    5.3122    1.7693   -5.0734 C   0  0  0  0  0  0  0  0  0  0  0  0
    6.2676    0.7627   -5.1812 C   0  0  0  0  0  0  0  0  0  0  0  0
    6.8378    0.1749   -4.0405 C   0  0  0  0  0  0  0  0  0  0  0  0
    6.4217    0.6207   -2.7782 C   0  0  0  0  0  0  0  0  0  0  0  0
    5.4658    1.6269   -2.6470 C   0  0  0  0  0  0  0  0  0  0  0  0
    4.9192    2.1919   -3.8003 C   0  0  0  0  0  0  0  0  0  0  0  0
    4.8802    2.2276   -5.9561 H   0  0  0  0  0  0  0  0  0  0  0  0
    6.5798    0.4291   -6.1674 H   0  0  0  0  0  0  0  0  0  0  0  0
    6.8527    0.1771   -1.8848 H   0  0  0  0  0  0  0  0  0  0  0  0
    5.1530    1.9801   -1.6707 H   0  0  0  0  0  0  0  0  0  0  0  0
    3.6889    3.4737   -3.6504 S   0  0  0  0  0  0  0  0  0  0  0  0
    2.2546    2.6433   -3.8752 O   0  0  0  0  0  0  0  0  0  0  0  0
    3.7395    4.3422   -4.8170 O   0  0  0  0  0  0  0  0  0  0  0  0
    3.7199    3.9989   -2.2881 O   0  0  0  0  0  0  0  0  0  0  0  0
    7.8980   -0.8913   -4.1733 C   0  0  0  0  0  0  0  0  0  0  0  0
    7.9239   -1.5434   -3.2951 H   0  0  0  0  0  0  0  0  0  0  0  0
    7.7311   -1.5133   -5.0580 H   0  0  0  0  0  0  0  0  0  0  0  0
    8.8933   -0.4409   -4.2756 H   0  0  0  0  0  0  0  0  0  0  0  0
    0.3147   -0.6736   -0.2827 H   0  0  0  0  0  0  0  0  0  0  0  0
  1  7  1  0  0  0  0
  2  8  1  0  0  0  0
  2  1  2  0  0  0  0
  3  2  1  0  0  0  0
  4  3  2  0  0  0  0
  4  5  1  0  0  0  0
  5  6  2  0  0  0  0
  6  1  1  0  0  0  0
  6 31  1  0  0  0  0
  9  4  1  0  0  0  0
 10  5  1  0  0  0  0
 12 11  3  0  0  0  0
 13 18  1  0  0  0  0
 14 13  2  0  0  0  0
 14 15  1  0  0  0  0
 15 16  2  0  0  0  0
 16 17  1  0  0  0  0
 16 21  1  0  0  0  0
 17 22  1  0  0  0  0
 18 23  1  0  0  0  0
 18 17  2  0  0  0  0
 19 13  1  0  0  0  0
 20 14  1  0  0  0  0
 23 26  2  0  0  0  0
 24 23  1  0  0  0  0
 24  3  1  0  0  0  0
 25 23  2  0  0  0  0
 27 15  1  0  0  0  0
 27 28  1  0  0  0  0
 29 27  1  0  0  0  0
 30 27  1  0  0  0  0
M  END
