Coordinates from ORCA-job /home/ubuntu/works/orca-Ph-N2-OTs-B3LYP-6-31G_dp-scan-d09-49-n400/Ph-N2-OTs-B3LYP-6-31G_dp-scan-d09-49-n400
 OpenBabel01281705563D

 31 30  0  0  0  0  0  0  0  0999 V2000
    1.6747    1.2436   -1.2135 C   0  0  0  0  0  0  0  0  0  0  0  0
    1.3925    1.7000   -2.5238 C   0  0  0  0  0  0  0  0  0  0  0  0
    0.3173    1.2364   -3.0104 C   0  0  0  0  0  0  0  0  0  0  0  0
   -0.6910    0.3922   -2.6466 C   0  0  0  0  0  0  0  0  0  0  0  0
   -0.4039   -0.0639   -1.3393 C   0  0  0  0  0  0  0  0  0  0  0  0
    0.7471    0.3528   -0.6471 C   0  0  0  0  0  0  0  0  0  0  0  0
    2.5599    1.5551   -0.6655 H   0  0  0  0  0  0  0  0  0  0  0  0
    2.6122    2.8403   -3.3393 H   0  0  0  0  0  0  0  0  0  0  0  0
   -1.5624    0.1017   -3.2185 H   0  0  0  0  0  0  0  0  0  0  0  0
   -1.1009   -0.7531   -0.8692 H   0  0  0  0  0  0  0  0  0  0  0  0
   -0.2947    1.9485   -5.1795 N   0  0  0  0  0  0  0  0  0  0  0  0
   -0.0563    2.6228   -6.0228 N   0  0  0  0  0  0  0  0  0  0  0  0
    6.5686    2.5649   -4.3608 C   0  0  0  0  0  0  0  0  0  0  0  0
    7.6533    1.7932   -3.9490 C   0  0  0  0  0  0  0  0  0  0  0  0
    7.5224    0.4139   -3.7294 C   0  0  0  0  0  0  0  0  0  0  0  0
    6.2703   -0.1809   -3.9440 C   0  0  0  0  0  0  0  0  0  0  0  0
    5.1737    0.5748   -4.3555 C   0  0  0  0  0  0  0  0  0  0  0  0
    5.3323    1.9469   -4.5569 C   0  0  0  0  0  0  0  0  0  0  0  0
    6.6758    3.6278   -4.5494 H   0  0  0  0  0  0  0  0  0  0  0  0
    8.6200    2.2688   -3.8020 H   0  0  0  0  0  0  0  0  0  0  0  0
    6.1534   -1.2513   -3.7928 H   0  0  0  0  0  0  0  0  0  0  0  0
    4.2106    0.1102   -4.5392 H   0  0  0  0  0  0  0  0  0  0  0  0
    3.9309    2.9335   -5.0682 S   0  0  0  0  0  0  0  0  0  0  0  0
    2.9421    2.0424   -5.6822 O   0  0  0  0  0  0  0  0  0  0  0  0
    4.4290    4.1127   -5.7645 O   0  0  0  0  0  0  0  0  0  0  0  0
    3.3271    3.4661   -3.6621 O   0  0  0  0  0  0  0  0  0  0  0  0
    8.6976   -0.4087   -3.2573 C   0  0  0  0  0  0  0  0  0  0  0  0
    8.6401   -1.4373   -3.6253 H   0  0  0  0  0  0  0  0  0  0  0  0
    9.6465    0.0203   -3.5925 H   0  0  0  0  0  0  0  0  0  0  0  0
    8.7294   -0.4555   -2.1610 H   0  0  0  0  0  0  0  0  0  0  0  0
    0.9219   -0.0275    0.3557 H   0  0  0  0  0  0  0  0  0  0  0  0
  1  7  1  0  0  0  0
  1  6  1  0  0  0  0
  2  1  2  0  0  0  0
  3  4  2  0  0  0  0
  3  2  1  0  0  0  0
  4  5  1  0  0  0  0
  5 10  1  0  0  0  0
  5  6  2  0  0  0  0
  6 31  1  0  0  0  0
  9  4  1  0  0  0  0
 12 11  3  0  0  0  0
 13 14  1  0  0  0  0
 14 20  1  0  0  0  0
 14 15  2  0  0  0  0
 15 27  1  0  0  0  0
 16 21  1  0  0  0  0
 16 15  1  0  0  0  0
 17 16  2  0  0  0  0
 18 13  2  0  0  0  0
 18 17  1  0  0  0  0
 19 13  1  0  0  0  0
 22 17  1  0  0  0  0
 23 18  1  0  0  0  0
 23 26  1  0  0  0  0
 24 23  2  0  0  0  0
 25 23  2  0  0  0  0
 26  8  1  0  0  0  0
 27 30  1  0  0  0  0
 28 27  1  0  0  0  0
 29 27  1  0  0  0  0
M  RAD  2   2   2   3   2
M  END
