Coordinates from ORCA-job /home/ubuntu/works/orca-Ph-N2-OTs-B3LYP-6-31G_dp-scan-d09-49-n400/Ph-N2-OTs-B3LYP-6-31G_dp-scan-d09-49-n400
 OpenBabel01281705563D

 31 31  0  0  0  0  0  0  0  0999 V2000
    0.2255    0.8529   -0.8295 C   0  0  0  0  0  0  0  0  0  0  0  0
    1.0081    1.3204   -1.9020 C   0  0  0  0  0  0  0  0  0  0  0  0
    0.2849    1.4484   -3.0474 C   0  0  0  0  0  0  0  0  0  0  0  0
   -1.0337    1.2041   -3.3365 C   0  0  0  0  0  0  0  0  0  0  0  0
   -1.7593    0.7299   -2.2333 C   0  0  0  0  0  0  0  0  0  0  0  0
   -1.1305    0.5589   -0.9957 C   0  0  0  0  0  0  0  0  0  0  0  0
    0.7041    0.7223    0.1363 H   0  0  0  0  0  0  0  0  0  0  0  0
    2.0727    1.5667   -1.8128 H   0  0  0  0  0  0  0  0  0  0  0  0
   -1.4751    1.3578   -4.3128 H   0  0  0  0  0  0  0  0  0  0  0  0
   -2.8125    0.4987   -2.3589 H   0  0  0  0  0  0  0  0  0  0  0  0
    1.1942    2.0974   -4.4998 N   0  0  0  0  0  0  0  0  0  0  0  0
    1.0826    2.6482   -5.4624 N   0  0  0  0  0  0  0  0  0  0  0  0
    6.3393    2.0330   -4.9654 C   0  0  0  0  0  0  0  0  0  0  0  0
    7.5941    1.5120   -5.2762 C   0  0  0  0  0  0  0  0  0  0  0  0
    8.2202    0.5782   -4.4375 C   0  0  0  0  0  0  0  0  0  0  0  0
    7.5526    0.1781   -3.2709 C   0  0  0  0  0  0  0  0  0  0  0  0
    6.2976    0.6901   -2.9466 C   0  0  0  0  0  0  0  0  0  0  0  0
    5.6954    1.6164   -3.7994 C   0  0  0  0  0  0  0  0  0  0  0  0
    5.8614    2.7667   -5.6061 H   0  0  0  0  0  0  0  0  0  0  0  0
    8.0975    1.8376   -6.1834 H   0  0  0  0  0  0  0  0  0  0  0  0
    8.0246   -0.5415   -2.6058 H   0  0  0  0  0  0  0  0  0  0  0  0
    5.7889    0.3918   -2.0362 H   0  0  0  0  0  0  0  0  0  0  0  0
    4.0599    2.2525   -3.4194 S   0  0  0  0  0  0  0  0  0  0  0  0
    3.1240    1.2158   -4.0542 O   0  0  0  0  0  0  0  0  0  0  0  0
    3.9264    3.5756   -4.0587 O   0  0  0  0  0  0  0  0  0  0  0  0
    3.9268    2.2211   -1.9357 O   0  0  0  0  0  0  0  0  0  0  0  0
    9.5946    0.0434   -4.7651 C   0  0  0  0  0  0  0  0  0  0  0  0
    9.7415   -0.9621   -4.3592 H   0  0  0  0  0  0  0  0  0  0  0  0
    9.7610    0.0011   -5.8461 H   0  0  0  0  0  0  0  0  0  0  0  0
   10.3787    0.6829   -4.3401 H   0  0  0  0  0  0  0  0  0  0  0  0
   -1.7060    0.1925   -0.1514 H   0  0  0  0  0  0  0  0  0  0  0  0
  1  7  1  0  0  0  0
  2  8  1  0  0  0  0
  2  1  2  0  0  0  0
  3  2  1  0  0  0  0
  4  3  2  0  0  0  0
  4  5  1  0  0  0  0
  5  6  2  0  0  0  0
  6  1  1  0  0  0  0
  6 31  1  0  0  0  0
  9  4  1  0  0  0  0
 10  5  1  0  0  0  0
 11  3  1  0  0  0  0
 12 11  2  0  0  0  0
 13 18  1  0  0  0  0
 14 13  2  0  0  0  0
 14 15  1  0  0  0  0
 15 16  2  0  0  0  0
 16 17  1  0  0  0  0
 16 21  1  0  0  0  0
 17 22  1  0  0  0  0
 18 23  1  0  0  0  0
 18 17  2  0  0  0  0
 19 13  1  0  0  0  0
 20 14  1  0  0  0  0
 23 26  1  0  0  0  0
 24 23  2  0  0  0  0
 25 23  2  0  0  0  0
 27 15  1  0  0  0  0
 27 28  1  0  0  0  0
 27 30  1  0  0  0  0
 29 27  1  0  0  0  0
M  RAD  2  12   2  26   2
M  END
