Coordinates from ORCA-job /home/ubuntu/works/orca-Ph-N2-OTs-B3LYP-6-31G_dp-scan-d09-49-n400/Ph-N2-OTs-B3LYP-6-31G_dp-scan-d09-49-n400
 OpenBabel01281705563D

 31 32  0  0  1  0  0  0  0  0999 V2000
    2.0074    0.3014   -2.5720 C   0  0  0  0  0  0  0  0  0  0  0  0
    1.7002    1.3302   -3.6103 C   0  0  1  0  0  0  0  0  0  0  0  0
    0.2881    1.9658   -3.4588 C   0  0  0  0  0  0  0  0  0  0  0  0
   -0.3820    1.8091   -2.1440 C   0  0  0  0  0  0  0  0  0  0  0  0
    0.0845    0.9590   -1.2090 C   0  0  0  0  0  0  0  0  0  0  0  0
    1.2731    0.1592   -1.4536 C   0  0  0  0  0  0  0  0  0  0  0  0
    2.8945   -0.3008   -2.7455 H   0  0  0  0  0  0  0  0  0  0  0  0
    1.7900    0.9435   -4.6293 H   0  0  0  0  0  0  0  0  0  0  0  0
   -1.2775    2.4059   -1.9959 H   0  0  0  0  0  0  0  0  0  0  0  0
   -0.4373    0.8578   -0.2624 H   0  0  0  0  0  0  0  0  0  0  0  0
   -0.1071    2.4867   -4.2289 N   0  0  0  0  0  0  0  0  0  0  0  0
   -0.5594    3.0874   -5.1223 N   0  0  0  0  0  0  0  0  0  0  0  0
    5.4240    0.6175   -4.9480 C   0  0  0  0  0  0  0  0  0  0  0  0
    6.5543   -0.1162   -4.5897 C   0  0  0  0  0  0  0  0  0  0  0  0
    7.4188    0.3294   -3.5799 C   0  0  0  0  0  0  0  0  0  0  0  0
    7.1299    1.5450   -2.9395 C   0  0  0  0  0  0  0  0  0  0  0  0
    6.0077    2.2935   -3.2836 C   0  0  0  0  0  0  0  0  0  0  0  0
    5.1582    1.8164   -4.2849 C   0  0  0  0  0  0  0  0  0  0  0  0
    4.7670    0.2832   -5.7441 H   0  0  0  0  0  0  0  0  0  0  0  0
    6.7717   -1.0455   -5.1096 H   0  0  0  0  0  0  0  0  0  0  0  0
    7.7982    1.9130   -2.1650 H   0  0  0  0  0  0  0  0  0  0  0  0
    5.7985    3.2411   -2.7988 H   0  0  0  0  0  0  0  0  0  0  0  0
    3.7095    2.7639   -4.7263 S   0  0  0  0  0  0  0  0  0  0  0  0
    3.1480    2.2071   -5.9585 O   0  0  0  0  0  0  0  0  0  0  0  0
    4.0085    4.1810   -4.5828 O   0  0  0  0  0  0  0  0  0  0  0  0
    2.6752    2.4339   -3.4816 O   0  0  0  0  0  0  0  0  0  0  0  0
    8.6238   -0.4863   -3.1780 C   0  0  0  0  0  0  0  0  0  0  0  0
    8.3727   -1.1810   -2.3662 H   0  0  0  0  0  0  0  0  0  0  0  0
    8.9999   -1.0837   -4.0138 H   0  0  0  0  0  0  0  0  0  0  0  0
    9.4375    0.1514   -2.8204 H   0  0  0  0  0  0  0  0  0  0  0  0
    1.5618   -0.5781   -0.7090 H   0  0  0  0  0  0  0  0  0  0  0  0
  1  6  2  0  0  0  0
  2  8  1  6  0  0  0
  2 26  1  0  0  0  0
  2  3  1  0  0  0  0
  2  1  1  0  0  0  0
  3  4  2  0  0  0  0
  4  9  1  0  0  0  0
  4  5  1  0  0  0  0
  5 10  1  0  0  0  0
  6  5  1  0  0  0  0
  6 31  1  0  0  0  0
  7  1  1  0  0  0  0
 11  3  1  0  0  0  0
 12 11  1  0  0  0  0
 13 14  2  0  0  0  0
 13 18  1  0  0  0  0
 14 15  1  0  0  0  0
 15 27  1  0  0  0  0
 15 16  2  0  0  0  0
 16 21  1  0  0  0  0
 17 16  1  0  0  0  0
 17 22  1  0  0  0  0
 18 17  2  0  0  0  0
 19 13  1  0  0  0  0
 20 14  1  0  0  0  0
 23 25  2  0  0  0  0
 23 18  1  0  0  0  0
 23 26  1  0  0  0  0
 24 23  2  0  0  0  0
 27 30  1  0  0  0  0
 27 28  1  0  0  0  0
 29 27  1  0  0  0  0
M  RAD  3   5   2  11   2  12   3
M  END
