Coordinates from ORCA-job /home/ubuntu/works/orca-Ph-N2-OTs-B3LYP-6-31G_dp-scan-d09-49-n400/Ph-N2-OTs-B3LYP-6-31G_dp-scan-d09-49-n400
 OpenBabel01281705563D

 31 30  0  0  0  0  0  0  0  0999 V2000
    1.6429    1.3038   -1.0007 C   0  0  0  0  0  0  0  0  0  0  0  0
    1.4467    1.7089   -2.3370 C   0  0  0  0  0  0  0  0  0  0  0  0
    0.4576    1.2077   -2.9361 C   0  0  0  0  0  0  0  0  0  0  0  0
   -0.5443    0.3219   -2.6585 C   0  0  0  0  0  0  0  0  0  0  0  0
   -0.3593   -0.0988   -1.3185 C   0  0  0  0  0  0  0  0  0  0  0  0
    0.6977    0.3776   -0.5216 C   0  0  0  0  0  0  0  0  0  0  0  0
    2.4553    1.6620   -0.3754 H   0  0  0  0  0  0  0  0  0  0  0  0
    2.6621    2.9047   -3.2688 H   0  0  0  0  0  0  0  0  0  0  0  0
   -1.3447   -0.0193   -3.3016 H   0  0  0  0  0  0  0  0  0  0  0  0
   -1.0668   -0.8128   -0.9033 H   0  0  0  0  0  0  0  0  0  0  0  0
   -0.3262    1.9064   -5.6016 N   0  0  0  0  0  0  0  0  0  0  0  0
   -0.1433    2.5870   -6.4528 N   0  0  0  0  0  0  0  0  0  0  0  0
    6.5723    2.5675   -4.3651 C   0  0  0  0  0  0  0  0  0  0  0  0
    7.6512    1.7764   -3.9757 C   0  0  0  0  0  0  0  0  0  0  0  0
    7.5021    0.3981   -3.7613 C   0  0  0  0  0  0  0  0  0  0  0  0
    6.2373   -0.1759   -3.9580 C   0  0  0  0  0  0  0  0  0  0  0  0
    5.1462    0.5991   -4.3472 C   0  0  0  0  0  0  0  0  0  0  0  0
    5.3235    1.9697   -4.5437 C   0  0  0  0  0  0  0  0  0  0  0  0
    6.6932    3.6296   -4.5498 H   0  0  0  0  0  0  0  0  0  0  0  0
    8.6276    2.2357   -3.8424 H   0  0  0  0  0  0  0  0  0  0  0  0
    6.1059   -1.2451   -3.8105 H   0  0  0  0  0  0  0  0  0  0  0  0
    4.1731    0.1506   -4.5174 H   0  0  0  0  0  0  0  0  0  0  0  0
    3.9305    2.9798   -5.0288 S   0  0  0  0  0  0  0  0  0  0  0  0
    2.9134    2.1081   -5.6217 O   0  0  0  0  0  0  0  0  0  0  0  0
    4.4336    4.1546   -5.7277 O   0  0  0  0  0  0  0  0  0  0  0  0
    3.3618    3.5252   -3.6065 O   0  0  0  0  0  0  0  0  0  0  0  0
    8.6716   -0.4457   -3.3134 C   0  0  0  0  0  0  0  0  0  0  0  0
    8.6032   -1.4650   -3.7047 H   0  0  0  0  0  0  0  0  0  0  0  0
    9.6228   -0.0177   -3.6428 H   0  0  0  0  0  0  0  0  0  0  0  0
    8.7070   -0.5183   -2.2187 H   0  0  0  0  0  0  0  0  0  0  0  0
    0.7859    0.0151    0.4993 H   0  0  0  0  0  0  0  0  0  0  0  0
  1  6  1  0  0  0  0
  1  7  1  0  0  0  0
  2  1  2  0  0  0  0
  3  4  2  0  0  0  0
  3  2  1  0  0  0  0
  4  5  1  0  0  0  0
  5 10  1  0  0  0  0
  5  6  2  0  0  0  0
  6 31  1  0  0  0  0
  9  4  1  0  0  0  0
 12 11  3  0  0  0  0
 13 14  1  0  0  0  0
 14 20  1  0  0  0  0
 14 15  2  0  0  0  0
 15 27  1  0  0  0  0
 16 21  1  0  0  0  0
 16 15  1  0  0  0  0
 17 16  2  0  0  0  0
 18 13  2  0  0  0  0
 18 17  1  0  0  0  0
 19 13  1  0  0  0  0
 22 17  1  0  0  0  0
 23 18  1  0  0  0  0
 23 26  1  0  0  0  0
 24 23  2  0  0  0  0
 25 23  2  0  0  0  0
 26  8  1  0  0  0  0
 27 30  1  0  0  0  0
 28 27  1  0  0  0  0
 29 27  1  0  0  0  0
M  RAD  2   2   2   3   2
M  END
