Coordinates from ORCA-job /home/ubuntu/works/orca-Ph-N2-OTs-B3LYP-6-31G_dp-scan-d09-49-n400/Ph-N2-OTs-B3LYP-6-31G_dp-scan-d09-49-n400
 OpenBabel01281705563D

 31 30  0  0  0  0  0  0  0  0999 V2000
    1.6765    1.2600   -1.1046 C   0  0  0  0  0  0  0  0  0  0  0  0
    1.4239    1.6891   -2.4259 C   0  0  0  0  0  0  0  0  0  0  0  0
    0.3851    1.2164   -2.9648 C   0  0  0  0  0  0  0  0  0  0  0  0
   -0.6250    0.3581   -2.6382 C   0  0  0  0  0  0  0  0  0  0  0  0
   -0.3788   -0.0815   -1.3148 C   0  0  0  0  0  0  0  0  0  0  0  0
    0.7354    0.3571   -0.5769 C   0  0  0  0  0  0  0  0  0  0  0  0
    2.5332    1.5893   -0.5237 H   0  0  0  0  0  0  0  0  0  0  0  0
    2.6385    2.8688   -3.3236 H   0  0  0  0  0  0  0  0  0  0  0  0
   -1.4694    0.0471   -3.2391 H   0  0  0  0  0  0  0  0  0  0  0  0
   -1.0827   -0.7788   -0.8665 H   0  0  0  0  0  0  0  0  0  0  0  0
   -0.3358    1.9465   -5.4238 N   0  0  0  0  0  0  0  0  0  0  0  0
   -0.1150    2.6379   -6.2574 N   0  0  0  0  0  0  0  0  0  0  0  0
    6.5687    2.5679   -4.3580 C   0  0  0  0  0  0  0  0  0  0  0  0
    7.6487    1.7873   -3.9508 C   0  0  0  0  0  0  0  0  0  0  0  0
    7.5095    0.4074   -3.7396 C   0  0  0  0  0  0  0  0  0  0  0  0
    6.2540   -0.1787   -3.9580 C   0  0  0  0  0  0  0  0  0  0  0  0
    5.1619    0.5858   -4.3651 C   0  0  0  0  0  0  0  0  0  0  0  0
    5.3289    1.9582   -4.5579 C   0  0  0  0  0  0  0  0  0  0  0  0
    6.6824    3.6313   -4.5401 H   0  0  0  0  0  0  0  0  0  0  0  0
    8.6181    2.2561   -3.8008 H   0  0  0  0  0  0  0  0  0  0  0  0
    6.1307   -1.2494   -3.8134 H   0  0  0  0  0  0  0  0  0  0  0  0
    4.1962    0.1280   -4.5519 H   0  0  0  0  0  0  0  0  0  0  0  0
    3.9341    2.9554   -5.0650 S   0  0  0  0  0  0  0  0  0  0  0  0
    2.9347    2.0735   -5.6730 O   0  0  0  0  0  0  0  0  0  0  0  0
    4.4375    4.1334   -5.7585 O   0  0  0  0  0  0  0  0  0  0  0  0
    3.3394    3.4959   -3.6532 O   0  0  0  0  0  0  0  0  0  0  0  0
    8.6796   -0.4252   -3.2727 C   0  0  0  0  0  0  0  0  0  0  0  0
    8.6221   -1.4478   -3.6570 H   0  0  0  0  0  0  0  0  0  0  0  0
    9.6317    0.0066   -3.5950 H   0  0  0  0  0  0  0  0  0  0  0  0
    8.7038   -0.4892   -2.1771 H   0  0  0  0  0  0  0  0  0  0  0  0
    0.8718   -0.0160    0.4348 H   0  0  0  0  0  0  0  0  0  0  0  0
  1  6  1  0  0  0  0
  1  7  1  0  0  0  0
  2  1  2  0  0  0  0
  3  4  2  0  0  0  0
  3  2  1  0  0  0  0
  4  5  1  0  0  0  0
  5 10  1  0  0  0  0
  5  6  2  0  0  0  0
  6 31  1  0  0  0  0
  9  4  1  0  0  0  0
 12 11  3  0  0  0  0
 13 14  2  0  0  0  0
 14 20  1  0  0  0  0
 14 15  1  0  0  0  0
 15 27  1  0  0  0  0
 16 21  1  0  0  0  0
 16 15  2  0  0  0  0
 17 16  1  0  0  0  0
 18 17  2  0  0  0  0
 18 13  1  0  0  0  0
 19 13  1  0  0  0  0
 22 17  1  0  0  0  0
 23 18  1  0  0  0  0
 23 26  1  0  0  0  0
 24 23  2  0  0  0  0
 25 23  2  0  0  0  0
 26  8  1  0  0  0  0
 27 30  1  0  0  0  0
 28 27  1  0  0  0  0
 29 27  1  0  0  0  0
M  RAD  2   2   2   3   2
M  END
