Coordinates from ORCA-job /home/ubuntu/works/orca-Ph-N2-OTs-B3LYP-6-31G_dp-scan-d09-49-n400/Ph-N2-OTs-B3LYP-6-31G_dp-scan-d09-49-n400
 OpenBabel01281705563D

 31 31  0  0  0  0  0  0  0  0999 V2000
    0.6598    1.4012   -0.7348 C   0  0  0  0  0  0  0  0  0  0  0  0
    1.1776    2.2598   -1.7057 C   0  0  0  0  0  0  0  0  0  0  0  0
    1.7566    1.7088   -2.8495 C   0  0  0  0  0  0  0  0  0  0  0  0
    1.8211    0.3288   -3.0417 C   0  0  0  0  0  0  0  0  0  0  0  0
    1.2914   -0.5177   -2.0663 C   0  0  0  0  0  0  0  0  0  0  0  0
    0.7137    0.0160   -0.9117 C   0  0  0  0  0  0  0  0  0  0  0  0
    0.2081    1.8188    0.1606 H   0  0  0  0  0  0  0  0  0  0  0  0
    1.1444    3.3365   -1.5879 H   0  0  0  0  0  0  0  0  0  0  0  0
    2.2710   -0.0602   -3.9491 H   0  0  0  0  0  0  0  0  0  0  0  0
    1.3314   -1.5939   -2.2103 H   0  0  0  0  0  0  0  0  0  0  0  0
    2.2608    2.5763   -7.2763 N   0  0  0  0  0  0  0  0  0  0  0  0
    1.3337    3.1658   -7.3954 N   0  0  0  0  0  0  0  0  0  0  0  0
    5.2619    1.6986   -5.0939 C   0  0  0  0  0  0  0  0  0  0  0  0
    6.2378    0.7113   -5.1995 C   0  0  0  0  0  0  0  0  0  0  0  0
    6.8493    0.1665   -4.0589 C   0  0  0  0  0  0  0  0  0  0  0  0
    6.4532    0.6347   -2.7982 C   0  0  0  0  0  0  0  0  0  0  0  0
    5.4772    1.6216   -2.6687 C   0  0  0  0  0  0  0  0  0  0  0  0
    4.8906    2.1446   -3.8222 C   0  0  0  0  0  0  0  0  0  0  0  0
    4.7970    2.1222   -5.9773 H   0  0  0  0  0  0  0  0  0  0  0  0
    6.5333    0.3591   -6.1843 H   0  0  0  0  0  0  0  0  0  0  0  0
    6.9158    0.2239   -1.9048 H   0  0  0  0  0  0  0  0  0  0  0  0
    5.1785    1.9919   -1.6944 H   0  0  0  0  0  0  0  0  0  0  0  0
    3.6348    3.4017   -3.6735 S   0  0  0  0  0  0  0  0  0  0  0  0
    2.2189    2.5353   -3.8810 O   0  0  0  0  0  0  0  0  0  0  0  0
    3.6588    4.2611   -4.8479 O   0  0  0  0  0  0  0  0  0  0  0  0
    3.6639    3.9401   -2.3165 O   0  0  0  0  0  0  0  0  0  0  0  0
    7.9311   -0.8779   -4.1904 C   0  0  0  0  0  0  0  0  0  0  0  0
    7.9760   -1.5227   -3.3076 H   0  0  0  0  0  0  0  0  0  0  0  0
    7.7725   -1.5096   -5.0696 H   0  0  0  0  0  0  0  0  0  0  0  0
    8.9161   -0.4072   -4.3012 H   0  0  0  0  0  0  0  0  0  0  0  0
    0.3034   -0.6448   -0.1536 H   0  0  0  0  0  0  0  0  0  0  0  0
  1  7  1  0  0  0  0
  2  8  1  0  0  0  0
  2  1  2  0  0  0  0
  3  2  1  0  0  0  0
  4  3  2  0  0  0  0
  4  5  1  0  0  0  0
  5  6  2  0  0  0  0
  6  1  1  0  0  0  0
  6 31  1  0  0  0  0
  9  4  1  0  0  0  0
 10  5  1  0  0  0  0
 12 11  3  0  0  0  0
 13 18  1  0  0  0  0
 14 13  2  0  0  0  0
 14 15  1  0  0  0  0
 15 16  2  0  0  0  0
 16 17  1  0  0  0  0
 16 21  1  0  0  0  0
 17 22  1  0  0  0  0
 18 23  1  0  0  0  0
 18 17  2  0  0  0  0
 19 13  1  0  0  0  0
 20 14  1  0  0  0  0
 23 26  2  0  0  0  0
 24 23  1  0  0  0  0
 24  3  1  0  0  0  0
 25 23  2  0  0  0  0
 27 15  1  0  0  0  0
 27 28  1  0  0  0  0
 29 27  1  0  0  0  0
 30 27  1  0  0  0  0
M  END
