Coordinates from ORCA-job /home/ubuntu/works/orca-Ph-N2-OTs-B3LYP-6-31G_dp-scan-d09-49-n400/Ph-N2-OTs-B3LYP-6-31G_dp-scan-d09-49-n400
 OpenBabel01281705563D

 31 30  0  0  0  0  0  0  0  0999 V2000
    1.6748    1.2412   -1.2232 C   0  0  0  0  0  0  0  0  0  0  0  0
    1.3912    1.7013   -2.5323 C   0  0  0  0  0  0  0  0  0  0  0  0
    0.3127    1.2389   -3.0150 C   0  0  0  0  0  0  0  0  0  0  0  0
   -0.6955    0.3957   -2.6480 C   0  0  0  0  0  0  0  0  0  0  0  0
   -0.4057   -0.0628   -1.3426 C   0  0  0  0  0  0  0  0  0  0  0  0
    0.7483    0.3513   -0.6540 C   0  0  0  0  0  0  0  0  0  0  0  0
    2.5624    1.5505   -0.6776 H   0  0  0  0  0  0  0  0  0  0  0  0
    2.6092    2.8370   -3.3409 H   0  0  0  0  0  0  0  0  0  0  0  0
   -1.5691    0.1077   -3.2179 H   0  0  0  0  0  0  0  0  0  0  0  0
   -1.1023   -0.7514   -0.8712 H   0  0  0  0  0  0  0  0  0  0  0  0
   -0.2881    1.9507   -5.1547 N   0  0  0  0  0  0  0  0  0  0  0  0
   -0.0461    2.6255   -5.9966 N   0  0  0  0  0  0  0  0  0  0  0  0
    6.5677    2.5643   -4.3622 C   0  0  0  0  0  0  0  0  0  0  0  0
    7.6530    1.7939   -3.9496 C   0  0  0  0  0  0  0  0  0  0  0  0
    7.5229    0.4147   -3.7281 C   0  0  0  0  0  0  0  0  0  0  0  0
    6.2711   -0.1810   -3.9417 C   0  0  0  0  0  0  0  0  0  0  0  0
    5.1740    0.5736   -4.3539 C   0  0  0  0  0  0  0  0  0  0  0  0
    5.3317    1.9454   -4.5572 C   0  0  0  0  0  0  0  0  0  0  0  0
    6.6742    3.6270   -4.5523 H   0  0  0  0  0  0  0  0  0  0  0  0
    8.6194    2.2701   -3.8035 H   0  0  0  0  0  0  0  0  0  0  0  0
    6.1548   -1.2513   -3.7890 H   0  0  0  0  0  0  0  0  0  0  0  0
    4.2111    0.1082   -4.5367 H   0  0  0  0  0  0  0  0  0  0  0  0
    3.9295    2.9306   -5.0693 S   0  0  0  0  0  0  0  0  0  0  0  0
    2.9419    2.0382   -5.6837 O   0  0  0  0  0  0  0  0  0  0  0  0
    4.4271    4.1096   -5.7667 O   0  0  0  0  0  0  0  0  0  0  0  0
    3.3249    3.4632   -3.6643 O   0  0  0  0  0  0  0  0  0  0  0  0
    8.6987   -0.4065   -3.2552 C   0  0  0  0  0  0  0  0  0  0  0  0
    8.6404   -1.4363   -3.6195 H   0  0  0  0  0  0  0  0  0  0  0  0
    9.6471    0.0211   -3.5936 H   0  0  0  0  0  0  0  0  0  0  0  0
    8.7324   -0.4494   -2.1588 H   0  0  0  0  0  0  0  0  0  0  0  0
    0.9262   -0.0302    0.3478 H   0  0  0  0  0  0  0  0  0  0  0  0
  1  7  1  0  0  0  0
  1  6  1  0  0  0  0
  2  1  2  0  0  0  0
  3  4  2  0  0  0  0
  3  2  1  0  0  0  0
  4  5  1  0  0  0  0
  5 10  1  0  0  0  0
  5  6  2  0  0  0  0
  6 31  1  0  0  0  0
  9  4  1  0  0  0  0
 12 11  3  0  0  0  0
 13 14  1  0  0  0  0
 14 20  1  0  0  0  0
 14 15  2  0  0  0  0
 15 27  1  0  0  0  0
 16 21  1  0  0  0  0
 16 15  1  0  0  0  0
 17 16  2  0  0  0  0
 18 13  2  0  0  0  0
 18 17  1  0  0  0  0
 19 13  1  0  0  0  0
 22 17  1  0  0  0  0
 23 18  1  0  0  0  0
 23 26  1  0  0  0  0
 24 23  2  0  0  0  0
 25 23  2  0  0  0  0
 26  8  1  0  0  0  0
 27 30  1  0  0  0  0
 28 27  1  0  0  0  0
 29 27  1  0  0  0  0
M  RAD  2   2   2   3   2
M  END
