Coordinates from ORCA-job /home/ubuntu/works/orca-Ph-N2-OTs-B3LYP-6-31G_dp-scan-d09-49-n400/Ph-N2-OTs-B3LYP-6-31G_dp-scan-d09-49-n400
 OpenBabel01281705563D

 31 31  0  0  0  0  0  0  0  0999 V2000
    0.7200    1.3902   -0.7562 C   0  0  0  0  0  0  0  0  0  0  0  0
    1.2440    2.2822   -1.6932 C   0  0  0  0  0  0  0  0  0  0  0  0
    1.7849    1.7741   -2.8752 C   0  0  0  0  0  0  0  0  0  0  0  0
    1.8044    0.4041   -3.1378 C   0  0  0  0  0  0  0  0  0  0  0  0
    1.2683   -0.4753   -2.1957 C   0  0  0  0  0  0  0  0  0  0  0  0
    0.7291    0.0149   -1.0037 C   0  0  0  0  0  0  0  0  0  0  0  0
    0.2978    1.7744    0.1679 H   0  0  0  0  0  0  0  0  0  0  0  0
    1.2446    3.3520   -1.5206 H   0  0  0  0  0  0  0  0  0  0  0  0
    2.2251    0.0495   -4.0728 H   0  0  0  0  0  0  0  0  0  0  0  0
    1.2727   -1.5433   -2.3951 H   0  0  0  0  0  0  0  0  0  0  0  0
    2.0360    2.1444   -7.0193 N   0  0  0  0  0  0  0  0  0  0  0  0
    1.1795    2.7944   -7.2747 N   0  0  0  0  0  0  0  0  0  0  0  0
    5.3099    1.7671   -5.0750 C   0  0  0  0  0  0  0  0  0  0  0  0
    6.2664    0.7614   -5.1831 C   0  0  0  0  0  0  0  0  0  0  0  0
    6.8379    0.1745   -4.0427 C   0  0  0  0  0  0  0  0  0  0  0  0
    6.4221    0.6203   -2.7802 C   0  0  0  0  0  0  0  0  0  0  0  0
    5.4652    1.6255   -2.6486 C   0  0  0  0  0  0  0  0  0  0  0  0
    4.9173    2.1895   -3.8018 C   0  0  0  0  0  0  0  0  0  0  0  0
    4.8769    2.2246   -5.9576 H   0  0  0  0  0  0  0  0  0  0  0  0
    6.5784    0.4279   -6.1694 H   0  0  0  0  0  0  0  0  0  0  0  0
    6.8542    0.1774   -1.8869 H   0  0  0  0  0  0  0  0  0  0  0  0
    5.1526    1.9786   -1.6722 H   0  0  0  0  0  0  0  0  0  0  0  0
    3.6852    3.4696   -3.6516 S   0  0  0  0  0  0  0  0  0  0  0  0
    2.2520    2.6364   -3.8737 O   0  0  0  0  0  0  0  0  0  0  0  0
    3.7324    4.3368   -4.8191 O   0  0  0  0  0  0  0  0  0  0  0  0
    3.7171    3.9961   -2.2898 O   0  0  0  0  0  0  0  0  0  0  0  0
    7.8991   -0.8906   -4.1757 C   0  0  0  0  0  0  0  0  0  0  0  0
    7.9252   -1.5432   -3.2979 H   0  0  0  0  0  0  0  0  0  0  0  0
    7.7333   -1.5120   -5.0610 H   0  0  0  0  0  0  0  0  0  0  0  0
    8.8941   -0.4391   -4.2771 H   0  0  0  0  0  0  0  0  0  0  0  0
    0.3141   -0.6718   -0.2717 H   0  0  0  0  0  0  0  0  0  0  0  0
  1  7  1  0  0  0  0
  2  8  1  0  0  0  0
  2  1  2  0  0  0  0
  3  2  1  0  0  0  0
  4  3  2  0  0  0  0
  4  5  1  0  0  0  0
  5  6  2  0  0  0  0
  6  1  1  0  0  0  0
  6 31  1  0  0  0  0
  9  4  1  0  0  0  0
 10  5  1  0  0  0  0
 12 11  3  0  0  0  0
 13 18  1  0  0  0  0
 14 13  2  0  0  0  0
 14 15  1  0  0  0  0
 15 16  2  0  0  0  0
 16 17  1  0  0  0  0
 16 21  1  0  0  0  0
 17 22  1  0  0  0  0
 18 23  1  0  0  0  0
 18 17  2  0  0  0  0
 19 13  1  0  0  0  0
 20 14  1  0  0  0  0
 23 26  2  0  0  0  0
 24 23  1  0  0  0  0
 24  3  1  0  0  0  0
 25 23  2  0  0  0  0
 27 15  1  0  0  0  0
 27 28  1  0  0  0  0
 29 27  1  0  0  0  0
 30 27  1  0  0  0  0
M  END
