Coordinates from ORCA-job /home/ubuntu/works/orca-Ph-N2-OTs-B3LYP-6-31G_dp-scan-d09-49-n400/Ph-N2-OTs-B3LYP-6-31G_dp-scan-d09-49-n400
 OpenBabel01281705563D

 31 30  0  0  0  0  0  0  0  0999 V2000
    1.6677    1.2249   -1.2662 C   0  0  0  0  0  0  0  0  0  0  0  0
    1.3850    1.7047   -2.5703 C   0  0  0  0  0  0  0  0  0  0  0  0
    0.2882    1.2539   -3.0386 C   0  0  0  0  0  0  0  0  0  0  0  0
   -0.7240    0.4209   -2.6554 C   0  0  0  0  0  0  0  0  0  0  0  0
   -0.4279   -0.0505   -1.3586 C   0  0  0  0  0  0  0  0  0  0  0  0
    0.7411    0.3452   -0.6850 C   0  0  0  0  0  0  0  0  0  0  0  0
    2.5664    1.5195   -0.7301 H   0  0  0  0  0  0  0  0  0  0  0  0
    2.5912    2.8133   -3.3406 H   0  0  0  0  0  0  0  0  0  0  0  0
   -1.6079    0.1494   -3.2179 H   0  0  0  0  0  0  0  0  0  0  0  0
   -1.1279   -0.7323   -0.8827 H   0  0  0  0  0  0  0  0  0  0  0  0
   -0.2466    1.9581   -5.0347 N   0  0  0  0  0  0  0  0  0  0  0  0
    0.0142    2.6200   -5.8820 N   0  0  0  0  0  0  0  0  0  0  0  0
    6.5647    2.5622   -4.3677 C   0  0  0  0  0  0  0  0  0  0  0  0
    7.6547    1.7986   -3.9552 C   0  0  0  0  0  0  0  0  0  0  0  0
    7.5315    0.4199   -3.7266 C   0  0  0  0  0  0  0  0  0  0  0  0
    6.2817   -0.1821   -3.9329 C   0  0  0  0  0  0  0  0  0  0  0  0
    5.1797    0.5658   -4.3450 C   0  0  0  0  0  0  0  0  0  0  0  0
    5.3306    1.9372   -4.5555 C   0  0  0  0  0  0  0  0  0  0  0  0
    6.6658    3.6244   -4.5633 H   0  0  0  0  0  0  0  0  0  0  0  0
    8.6196    2.2799   -3.8150 H   0  0  0  0  0  0  0  0  0  0  0  0
    6.1705   -1.2522   -3.7745 H   0  0  0  0  0  0  0  0  0  0  0  0
    4.2183    0.0953   -4.5220 H   0  0  0  0  0  0  0  0  0  0  0  0
    3.9220    2.9146   -5.0665 S   0  0  0  0  0  0  0  0  0  0  0  0
    2.9412    2.0150   -5.6835 O   0  0  0  0  0  0  0  0  0  0  0  0
    4.4135    4.0941   -5.7680 O   0  0  0  0  0  0  0  0  0  0  0  0
    3.3143    3.4412   -3.6648 O   0  0  0  0  0  0  0  0  0  0  0  0
    8.7132   -0.3929   -3.2538 C   0  0  0  0  0  0  0  0  0  0  0  0
    8.6386   -1.4349   -3.5785 H   0  0  0  0  0  0  0  0  0  0  0  0
    9.6555    0.0148   -3.6317 H   0  0  0  0  0  0  0  0  0  0  0  0
    8.7754   -0.3953   -2.1578 H   0  0  0  0  0  0  0  0  0  0  0  0
    0.9293   -0.0423    0.3127 H   0  0  0  0  0  0  0  0  0  0  0  0
  1  7  1  0  0  0  0
  1  6  1  0  0  0  0
  2  1  2  0  0  0  0
  3  4  2  0  0  0  0
  3  2  1  0  0  0  0
  4  5  1  0  0  0  0
  5 10  1  0  0  0  0
  5  6  2  0  0  0  0
  6 31  1  0  0  0  0
  9  4  1  0  0  0  0
 12 11  3  0  0  0  0
 13 14  1  0  0  0  0
 14 20  1  0  0  0  0
 14 15  2  0  0  0  0
 15 27  1  0  0  0  0
 16 21  1  0  0  0  0
 16 15  1  0  0  0  0
 17 16  2  0  0  0  0
 18 13  2  0  0  0  0
 18 17  1  0  0  0  0
 19 13  1  0  0  0  0
 22 17  1  0  0  0  0
 23 18  1  0  0  0  0
 23 26  1  0  0  0  0
 24 23  2  0  0  0  0
 25 23  2  0  0  0  0
 26  8  1  0  0  0  0
 27 30  1  0  0  0  0
 28 27  1  0  0  0  0
 29 27  1  0  0  0  0
M  RAD  2   2   2   3   2
M  END
