Coordinates from ORCA-job /home/ubuntu/works/orca-Ph-N2-OTs-B3LYP-6-31G_dp-scan-d09-49-n400/Ph-N2-OTs-B3LYP-6-31G_dp-scan-d09-49-n400
 OpenBabel01281705563D

 31 31  0  0  0  0  0  0  0  0999 V2000
    0.6792    1.4309   -0.8899 C   0  0  0  0  0  0  0  0  0  0  0  0
    1.2619    2.3327   -1.7818 C   0  0  0  0  0  0  0  0  0  0  0  0
    1.8483    1.8396   -2.9482 C   0  0  0  0  0  0  0  0  0  0  0  0
    1.8572    0.4754   -3.2397 C   0  0  0  0  0  0  0  0  0  0  0  0
    1.2622   -0.4134   -2.3429 C   0  0  0  0  0  0  0  0  0  0  0  0
    0.6764    0.0612   -1.1668 C   0  0  0  0  0  0  0  0  0  0  0  0
    0.2216    1.8033    0.0221 H   0  0  0  0  0  0  0  0  0  0  0  0
    1.2733    3.3983   -1.5859 H   0  0  0  0  0  0  0  0  0  0  0  0
    2.3113    0.1337   -4.1634 H   0  0  0  0  0  0  0  0  0  0  0  0
    1.2571   -1.4769   -2.5653 H   0  0  0  0  0  0  0  0  0  0  0  0
    1.1214    1.6283   -6.5873 N   0  0  0  0  0  0  0  0  0  0  0  0
    0.4528    2.4434   -6.9194 N   0  0  0  0  0  0  0  0  0  0  0  0
    5.4685    1.8527   -5.0325 C   0  0  0  0  0  0  0  0  0  0  0  0
    6.4078    0.8321   -5.1513 C   0  0  0  0  0  0  0  0  0  0  0  0
    6.9136    0.1737   -4.0189 C   0  0  0  0  0  0  0  0  0  0  0  0
    6.4498    0.5632   -2.7544 C   0  0  0  0  0  0  0  0  0  0  0  0
    5.5090    1.5821   -2.6127 C   0  0  0  0  0  0  0  0  0  0  0  0
    5.0264    2.2177   -3.7579 C   0  0  0  0  0  0  0  0  0  0  0  0
    5.0891    2.3696   -5.9074 H   0  0  0  0  0  0  0  0  0  0  0  0
    6.7586    0.5438   -6.1387 H   0  0  0  0  0  0  0  0  0  0  0  0
    6.8313    0.0648   -1.8674 H   0  0  0  0  0  0  0  0  0  0  0  0
    5.1597    1.8915   -1.6339 H   0  0  0  0  0  0  0  0  0  0  0  0
    3.8129    3.5141   -3.5984 S   0  0  0  0  0  0  0  0  0  0  0  0
    2.3759    2.7159   -3.9046 O   0  0  0  0  0  0  0  0  0  0  0  0
    3.9198    4.4259   -4.7272 O   0  0  0  0  0  0  0  0  0  0  0  0
    3.8047    3.9842   -2.2158 O   0  0  0  0  0  0  0  0  0  0  0  0
    7.9579   -0.9070   -4.1598 C   0  0  0  0  0  0  0  0  0  0  0  0
    7.9240   -1.6099   -3.3218 H   0  0  0  0  0  0  0  0  0  0  0  0
    7.8262   -1.4727   -5.0872 H   0  0  0  0  0  0  0  0  0  0  0  0
    8.9660   -0.4742   -4.1833 H   0  0  0  0  0  0  0  0  0  0  0  0
    0.2156   -0.6332   -0.4702 H   0  0  0  0  0  0  0  0  0  0  0  0
  1  7  1  0  0  0  0
  2  8  1  0  0  0  0
  2  1  2  0  0  0  0
  3  2  1  0  0  0  0
  4  3  2  0  0  0  0
  4  5  1  0  0  0  0
  5  6  2  0  0  0  0
  6  1  1  0  0  0  0
  6 31  1  0  0  0  0
  9  4  1  0  0  0  0
 10  5  1  0  0  0  0
 12 11  3  0  0  0  0
 13 18  1  0  0  0  0
 14 13  2  0  0  0  0
 14 15  1  0  0  0  0
 15 16  2  0  0  0  0
 16 17  1  0  0  0  0
 16 21  1  0  0  0  0
 17 22  1  0  0  0  0
 18 23  1  0  0  0  0
 18 17  2  0  0  0  0
 19 13  1  0  0  0  0
 20 14  1  0  0  0  0
 23 26  2  0  0  0  0
 24 23  1  0  0  0  0
 24  3  1  0  0  0  0
 25 23  2  0  0  0  0
 27 15  1  0  0  0  0
 27 28  1  0  0  0  0
 29 27  1  0  0  0  0
 30 27  1  0  0  0  0
M  END
