Coordinates from ORCA-job /home/ubuntu/works/orca-Ph-N2-OTs-B3LYP-6-31G_dp-scan-d09-49-n400/Ph-N2-OTs-B3LYP-6-31G_dp-scan-d09-49-n400
 OpenBabel01281705563D

 31 31  0  0  0  0  0  0  0  0999 V2000
    0.7320    1.3837   -0.7668 C   0  0  0  0  0  0  0  0  0  0  0  0
    1.2563    2.2830   -1.6967 C   0  0  0  0  0  0  0  0  0  0  0  0
    1.7900    1.7842   -2.8858 C   0  0  0  0  0  0  0  0  0  0  0  0
    1.8020    0.4169   -3.1628 C   0  0  0  0  0  0  0  0  0  0  0  0
    1.2656   -0.4696   -2.2276 C   0  0  0  0  0  0  0  0  0  0  0  0
    0.7336    0.0110   -1.0285 C   0  0  0  0  0  0  0  0  0  0  0  0
    0.3152    1.7603    0.1629 H   0  0  0  0  0  0  0  0  0  0  0  0
    1.2627    3.3509   -1.5132 H   0  0  0  0  0  0  0  0  0  0  0  0
    2.2175    0.0707   -4.1032 H   0  0  0  0  0  0  0  0  0  0  0  0
    1.2641   -1.5355   -2.4378 H   0  0  0  0  0  0  0  0  0  0  0  0
    1.9994    2.1027   -6.9559 N   0  0  0  0  0  0  0  0  0  0  0  0
    1.1410    2.7484   -7.2158 N   0  0  0  0  0  0  0  0  0  0  0  0
    5.3081    1.7650   -5.0712 C   0  0  0  0  0  0  0  0  0  0  0  0
    6.2619    0.7566   -5.1771 C   0  0  0  0  0  0  0  0  0  0  0  0
    6.8361    0.1747   -4.0354 C   0  0  0  0  0  0  0  0  0  0  0  0
    6.4255    0.6281   -2.7741 C   0  0  0  0  0  0  0  0  0  0  0  0
    5.4712    1.6361   -2.6446 C   0  0  0  0  0  0  0  0  0  0  0  0
    4.9209    2.1953   -3.7989 C   0  0  0  0  0  0  0  0  0  0  0  0
    4.8730    2.2186   -5.9548 H   0  0  0  0  0  0  0  0  0  0  0  0
    6.5695    0.4170   -6.1627 H   0  0  0  0  0  0  0  0  0  0  0  0
    6.8595    0.1889   -1.8799 H   0  0  0  0  0  0  0  0  0  0  0  0
    5.1625    1.9950   -1.6692 H   0  0  0  0  0  0  0  0  0  0  0  0
    3.6936    3.4805   -3.6513 S   0  0  0  0  0  0  0  0  0  0  0  0
    2.2574    2.6539   -3.8778 O   0  0  0  0  0  0  0  0  0  0  0  0
    3.7476    4.3482   -4.8182 O   0  0  0  0  0  0  0  0  0  0  0  0
    3.7243    4.0062   -2.2892 O   0  0  0  0  0  0  0  0  0  0  0  0
    7.8945   -0.8935   -4.1666 C   0  0  0  0  0  0  0  0  0  0  0  0
    7.9246   -1.5395   -3.2841 H   0  0  0  0  0  0  0  0  0  0  0  0
    7.7221   -1.5213   -5.0461 H   0  0  0  0  0  0  0  0  0  0  0  0
    8.8897   -0.4448   -4.2775 H   0  0  0  0  0  0  0  0  0  0  0  0
    0.3183   -0.6811   -0.3018 H   0  0  0  0  0  0  0  0  0  0  0  0
  1  7  1  0  0  0  0
  2  8  1  0  0  0  0
  2  1  2  0  0  0  0
  3  2  1  0  0  0  0
  4  3  2  0  0  0  0
  4  5  1  0  0  0  0
  5  6  2  0  0  0  0
  6  1  1  0  0  0  0
  6 31  1  0  0  0  0
  9  4  1  0  0  0  0
 10  5  1  0  0  0  0
 12 11  3  0  0  0  0
 13 18  1  0  0  0  0
 14 13  2  0  0  0  0
 14 15  1  0  0  0  0
 15 16  2  0  0  0  0
 16 17  1  0  0  0  0
 16 21  1  0  0  0  0
 17 22  1  0  0  0  0
 18 23  1  0  0  0  0
 18 17  2  0  0  0  0
 19 13  1  0  0  0  0
 20 14  1  0  0  0  0
 23 26  2  0  0  0  0
 24 23  1  0  0  0  0
 24  3  1  0  0  0  0
 25 23  2  0  0  0  0
 27 15  1  0  0  0  0
 27 28  1  0  0  0  0
 29 27  1  0  0  0  0
 30 27  1  0  0  0  0
M  END
