Coordinates from ORCA-job /home/ubuntu/works/orca-Ph-N2-OTs-B3LYP-6-31G_dp-scan-d09-49-n400/Ph-N2-OTs-B3LYP-6-31G_dp-scan-d09-49-n400
 OpenBabel01281705563D

 31 30  0  0  0  0  0  0  0  0999 V2000
    1.6802    1.2475   -1.1817 C   0  0  0  0  0  0  0  0  0  0  0  0
    1.4019    1.6936   -2.4947 C   0  0  0  0  0  0  0  0  0  0  0  0
    0.3373    1.2280   -2.9959 C   0  0  0  0  0  0  0  0  0  0  0  0
   -0.6710    0.3796   -2.6406 C   0  0  0  0  0  0  0  0  0  0  0  0
   -0.3924   -0.0704   -1.3286 C   0  0  0  0  0  0  0  0  0  0  0  0
    0.7492    0.3533   -0.6250 C   0  0  0  0  0  0  0  0  0  0  0  0
    2.5582    1.5649   -0.6259 H   0  0  0  0  0  0  0  0  0  0  0  0
    2.6206    2.8504   -3.3409 H   0  0  0  0  0  0  0  0  0  0  0  0
   -1.5357    0.0823   -3.2191 H   0  0  0  0  0  0  0  0  0  0  0  0
   -1.0903   -0.7619   -0.8629 H   0  0  0  0  0  0  0  0  0  0  0  0
   -0.3144    1.9499   -5.2598 N   0  0  0  0  0  0  0  0  0  0  0  0
   -0.0795    2.6332   -6.0966 N   0  0  0  0  0  0  0  0  0  0  0  0
    6.5683    2.5664   -4.3579 C   0  0  0  0  0  0  0  0  0  0  0  0
    7.6505    1.7915   -3.9456 C   0  0  0  0  0  0  0  0  0  0  0  0
    7.5164    0.4117   -3.7305 C   0  0  0  0  0  0  0  0  0  0  0  0
    6.2637   -0.1801   -3.9501 C   0  0  0  0  0  0  0  0  0  0  0  0
    5.1696    0.5788   -4.3622 C   0  0  0  0  0  0  0  0  0  0  0  0
    5.3314    1.9512   -4.5589 C   0  0  0  0  0  0  0  0  0  0  0  0
    6.6780    3.6297   -4.5430 H   0  0  0  0  0  0  0  0  0  0  0  0
    8.6176    2.2647   -3.7947 H   0  0  0  0  0  0  0  0  0  0  0  0
    6.1444   -1.2508   -3.8025 H   0  0  0  0  0  0  0  0  0  0  0  0
    4.2061    0.1166   -4.5497 H   0  0  0  0  0  0  0  0  0  0  0  0
    3.9334    2.9416   -5.0715 S   0  0  0  0  0  0  0  0  0  0  0  0
    2.9416    2.0539   -5.6845 O   0  0  0  0  0  0  0  0  0  0  0  0
    4.4347    4.1205   -5.7657 O   0  0  0  0  0  0  0  0  0  0  0  0
    3.3299    3.4775   -3.6644 O   0  0  0  0  0  0  0  0  0  0  0  0
    8.6887   -0.4147   -3.2581 C   0  0  0  0  0  0  0  0  0  0  0  0
    8.6339   -1.4400   -3.6357 H   0  0  0  0  0  0  0  0  0  0  0  0
    9.6396    0.0175   -3.5833 H   0  0  0  0  0  0  0  0  0  0  0  0
    8.7132   -0.4714   -2.1621 H   0  0  0  0  0  0  0  0  0  0  0  0
    0.9145   -0.0244    0.3805 H   0  0  0  0  0  0  0  0  0  0  0  0
  1  7  1  0  0  0  0
  1  6  1  0  0  0  0
  2  1  2  0  0  0  0
  3  4  2  0  0  0  0
  3  2  1  0  0  0  0
  4  5  1  0  0  0  0
  5 10  1  0  0  0  0
  5  6  2  0  0  0  0
  6 31  1  0  0  0  0
  9  4  1  0  0  0  0
 12 11  3  0  0  0  0
 13 14  2  0  0  0  0
 14 20  1  0  0  0  0
 14 15  1  0  0  0  0
 15 27  1  0  0  0  0
 16 21  1  0  0  0  0
 16 15  2  0  0  0  0
 17 16  1  0  0  0  0
 18 17  2  0  0  0  0
 18 13  1  0  0  0  0
 19 13  1  0  0  0  0
 22 17  1  0  0  0  0
 23 18  1  0  0  0  0
 23 26  1  0  0  0  0
 24 23  2  0  0  0  0
 25 23  2  0  0  0  0
 26  8  1  0  0  0  0
 27 30  1  0  0  0  0
 28 27  1  0  0  0  0
 29 27  1  0  0  0  0
M  RAD  2   2   2   3   2
M  END
