Coordinates from ORCA-job /home/ubuntu/works/orca-Ph-N2-OTs-B3LYP-6-31G_dp-scan-d09-49-n400/Ph-N2-OTs-B3LYP-6-31G_dp-scan-d09-49-n400
 OpenBabel01281705563D

 31 30  0  0  0  0  0  0  0  0999 V2000
    1.6783    1.2507   -1.1665 C   0  0  0  0  0  0  0  0  0  0  0  0
    1.4045    1.6927   -2.4813 C   0  0  0  0  0  0  0  0  0  0  0  0
    0.3452    1.2256   -2.9901 C   0  0  0  0  0  0  0  0  0  0  0  0
   -0.6633    0.3750   -2.6402 C   0  0  0  0  0  0  0  0  0  0  0  0
   -0.3908   -0.0725   -1.3257 C   0  0  0  0  0  0  0  0  0  0  0  0
    0.7454    0.3547   -0.6154 C   0  0  0  0  0  0  0  0  0  0  0  0
    2.5521    1.5708   -0.6059 H   0  0  0  0  0  0  0  0  0  0  0  0
    2.6243    2.8540   -3.3372 H   0  0  0  0  0  0  0  0  0  0  0  0
   -1.5241    0.0746   -3.2230 H   0  0  0  0  0  0  0  0  0  0  0  0
   -1.0898   -0.7651   -0.8633 H   0  0  0  0  0  0  0  0  0  0  0  0
   -0.3205    1.9488   -5.2931 N   0  0  0  0  0  0  0  0  0  0  0  0
   -0.0874    2.6346   -6.1283 N   0  0  0  0  0  0  0  0  0  0  0  0
    6.5691    2.5666   -4.3578 C   0  0  0  0  0  0  0  0  0  0  0  0
    7.6510    1.7906   -3.9470 C   0  0  0  0  0  0  0  0  0  0  0  0
    7.5161    0.4108   -3.7327 C   0  0  0  0  0  0  0  0  0  0  0  0
    6.2628   -0.1800   -3.9517 C   0  0  0  0  0  0  0  0  0  0  0  0
    5.1689    0.5800   -4.3623 C   0  0  0  0  0  0  0  0  0  0  0  0
    5.3316    1.9524   -4.5583 C   0  0  0  0  0  0  0  0  0  0  0  0
    6.6794    3.6299   -4.5424 H   0  0  0  0  0  0  0  0  0  0  0  0
    8.6186    2.2630   -3.7966 H   0  0  0  0  0  0  0  0  0  0  0  0
    6.1428   -1.2507   -3.8046 H   0  0  0  0  0  0  0  0  0  0  0  0
    4.2049    0.1186   -4.5494 H   0  0  0  0  0  0  0  0  0  0  0  0
    3.9339    2.9440   -5.0694 S   0  0  0  0  0  0  0  0  0  0  0  0
    2.9405    2.0574   -5.6809 O   0  0  0  0  0  0  0  0  0  0  0  0
    4.4354    4.1228   -5.7635 O   0  0  0  0  0  0  0  0  0  0  0  0
    3.3324    3.4808   -3.6611 O   0  0  0  0  0  0  0  0  0  0  0  0
    8.6882   -0.4168   -3.2619 C   0  0  0  0  0  0  0  0  0  0  0  0
    8.6331   -1.4413   -3.6414 H   0  0  0  0  0  0  0  0  0  0  0  0
    9.6392    0.0158   -3.5862 H   0  0  0  0  0  0  0  0  0  0  0  0
    8.7126   -0.4756   -2.1660 H   0  0  0  0  0  0  0  0  0  0  0  0
    0.9051   -0.0218    0.3915 H   0  0  0  0  0  0  0  0  0  0  0  0
  1  6  1  0  0  0  0
  1  7  1  0  0  0  0
  2  1  2  0  0  0  0
  3  4  2  0  0  0  0
  3  2  1  0  0  0  0
  4  5  1  0  0  0  0
  5 10  1  0  0  0  0
  5  6  2  0  0  0  0
  6 31  1  0  0  0  0
  9  4  1  0  0  0  0
 12 11  3  0  0  0  0
 13 14  2  0  0  0  0
 14 20  1  0  0  0  0
 14 15  1  0  0  0  0
 15 27  1  0  0  0  0
 16 21  1  0  0  0  0
 16 15  2  0  0  0  0
 17 16  1  0  0  0  0
 18 17  2  0  0  0  0
 18 13  1  0  0  0  0
 19 13  1  0  0  0  0
 22 17  1  0  0  0  0
 23 18  1  0  0  0  0
 23 26  1  0  0  0  0
 24 23  2  0  0  0  0
 25 23  2  0  0  0  0
 26  8  1  0  0  0  0
 27 30  1  0  0  0  0
 28 27  1  0  0  0  0
 29 27  1  0  0  0  0
M  RAD  2   2   2   3   2
M  END
