Coordinates from ORCA-job /home/ubuntu/works/orca-Ph-N2-OTs-B3LYP-6-31G_dp-scan-d09-49-n400/Ph-N2-OTs-B3LYP-6-31G_dp-scan-d09-49-n400
 OpenBabel01281705563D

 31 31  0  0  0  0  0  0  0  0999 V2000
    0.6720    1.4340   -0.9020 C   0  0  0  0  0  0  0  0  0  0  0  0
    1.2561    2.3341   -1.7945 C   0  0  0  0  0  0  0  0  0  0  0  0
    1.8489    1.8390   -2.9570 C   0  0  0  0  0  0  0  0  0  0  0  0
    1.8627    0.4737   -3.2436 C   0  0  0  0  0  0  0  0  0  0  0  0
    1.2664   -0.4137   -2.3462 C   0  0  0  0  0  0  0  0  0  0  0  0
    0.6742    0.0633   -1.1743 C   0  0  0  0  0  0  0  0  0  0  0  0
    0.2095    1.8082    0.0068 H   0  0  0  0  0  0  0  0  0  0  0  0
    1.2640    3.4005   -1.6020 H   0  0  0  0  0  0  0  0  0  0  0  0
    2.3216    0.1299   -4.1641 H   0  0  0  0  0  0  0  0  0  0  0  0
    1.2652   -1.4779   -2.5651 H   0  0  0  0  0  0  0  0  0  0  0  0
    1.0954    1.6385   -6.5298 N   0  0  0  0  0  0  0  0  0  0  0  0
    0.4227    2.4483   -6.8665 N   0  0  0  0  0  0  0  0  0  0  0  0
    5.4747    1.8518   -5.0346 C   0  0  0  0  0  0  0  0  0  0  0  0
    6.4145    0.8314   -5.1517 C   0  0  0  0  0  0  0  0  0  0  0  0
    6.9177    0.1724   -4.0186 C   0  0  0  0  0  0  0  0  0  0  0  0
    6.4508    0.5611   -2.7550 C   0  0  0  0  0  0  0  0  0  0  0  0
    5.5096    1.5798   -2.6148 C   0  0  0  0  0  0  0  0  0  0  0  0
    5.0296    2.2160   -3.7608 C   0  0  0  0  0  0  0  0  0  0  0  0
    5.0974    2.3692   -5.9100 H   0  0  0  0  0  0  0  0  0  0  0  0
    6.7676    0.5436   -6.1385 H   0  0  0  0  0  0  0  0  0  0  0  0
    6.8302    0.0622   -1.8673 H   0  0  0  0  0  0  0  0  0  0  0  0
    5.1580    1.8886   -1.6367 H   0  0  0  0  0  0  0  0  0  0  0  0
    3.8159    3.5124   -3.6033 S   0  0  0  0  0  0  0  0  0  0  0  0
    2.3792    2.7144   -3.9123 O   0  0  0  0  0  0  0  0  0  0  0  0
    3.9249    4.4244   -4.7318 O   0  0  0  0  0  0  0  0  0  0  0  0
    3.8050    3.9823   -2.2207 O   0  0  0  0  0  0  0  0  0  0  0  0
    7.9626   -0.9079   -4.1574 C   0  0  0  0  0  0  0  0  0  0  0  0
    7.9188   -1.6181   -3.3260 H   0  0  0  0  0  0  0  0  0  0  0  0
    7.8411   -1.4653   -5.0911 H   0  0  0  0  0  0  0  0  0  0  0  0
    8.9713   -0.4757   -4.1654 H   0  0  0  0  0  0  0  0  0  0  0  0
    0.2124   -0.6300   -0.4773 H   0  0  0  0  0  0  0  0  0  0  0  0
  1  7  1  0  0  0  0
  2  8  1  0  0  0  0
  2  1  2  0  0  0  0
  3  2  1  0  0  0  0
  4  3  2  0  0  0  0
  4  5  1  0  0  0  0
  5  6  2  0  0  0  0
  6  1  1  0  0  0  0
  6 31  1  0  0  0  0
  9  4  1  0  0  0  0
 10  5  1  0  0  0  0
 12 11  3  0  0  0  0
 13 18  1  0  0  0  0
 14 13  2  0  0  0  0
 14 15  1  0  0  0  0
 15 16  2  0  0  0  0
 16 17  1  0  0  0  0
 16 21  1  0  0  0  0
 17 22  1  0  0  0  0
 18 23  1  0  0  0  0
 18 17  2  0  0  0  0
 19 13  1  0  0  0  0
 20 14  1  0  0  0  0
 23 26  2  0  0  0  0
 24 23  1  0  0  0  0
 24  3  1  0  0  0  0
 25 23  2  0  0  0  0
 27 15  1  0  0  0  0
 27 28  1  0  0  0  0
 29 27  1  0  0  0  0
 30 27  1  0  0  0  0
M  END
