Coordinates from ORCA-job /home/ubuntu/works/orca-Ph-N2-OTs-B3LYP-6-31G_dp-scan-d09-49-n400/Ph-N2-OTs-B3LYP-6-31G_dp-scan-d09-49-n400
 OpenBabel01281705563D

 31 31  0  0  0  0  0  0  0  0999 V2000
    0.6483    1.4029   -0.7203 C   0  0  0  0  0  0  0  0  0  0  0  0
    1.1626    2.2536   -1.6997 C   0  0  0  0  0  0  0  0  0  0  0  0
    1.7488    1.6936   -2.8355 C   0  0  0  0  0  0  0  0  0  0  0  0
    1.8243    0.3118   -3.0110 C   0  0  0  0  0  0  0  0  0  0  0  0
    1.2982   -0.5269   -2.0270 C   0  0  0  0  0  0  0  0  0  0  0  0
    0.7132    0.0161   -0.8805 C   0  0  0  0  0  0  0  0  0  0  0  0
    0.1910    1.8276    0.1689 H   0  0  0  0  0  0  0  0  0  0  0  0
    1.1211    3.3314   -1.5949 H   0  0  0  0  0  0  0  0  0  0  0  0
    2.2795   -0.0846   -3.9125 H   0  0  0  0  0  0  0  0  0  0  0  0
    1.3468   -1.6045   -2.1581 H   0  0  0  0  0  0  0  0  0  0  0  0
    2.3311    2.6570   -7.3672 N   0  0  0  0  0  0  0  0  0  0  0  0
    1.4044    3.2491   -7.4753 N   0  0  0  0  0  0  0  0  0  0  0  0
    5.2528    1.6917   -5.0985 C   0  0  0  0  0  0  0  0  0  0  0  0
    6.2328    0.7086   -5.2054 C   0  0  0  0  0  0  0  0  0  0  0  0
    6.8480    0.1662   -4.0658 C   0  0  0  0  0  0  0  0  0  0  0  0
    6.4515    0.6325   -2.8044 C   0  0  0  0  0  0  0  0  0  0  0  0
    5.4715    1.6151   -2.6735 C   0  0  0  0  0  0  0  0  0  0  0  0
    4.8812    2.1358   -3.8262 C   0  0  0  0  0  0  0  0  0  0  0  0
    4.7853    2.1136   -5.9814 H   0  0  0  0  0  0  0  0  0  0  0  0
    6.5287    0.3579   -6.1907 H   0  0  0  0  0  0  0  0  0  0  0  0
    6.9170    0.2235   -1.9117 H   0  0  0  0  0  0  0  0  0  0  0  0
    5.1725    1.9840   -1.6988 H   0  0  0  0  0  0  0  0  0  0  0  0
    3.6195    3.3867   -3.6756 S   0  0  0  0  0  0  0  0  0  0  0  0
    2.2076    2.5119   -3.8751 O   0  0  0  0  0  0  0  0  0  0  0  0
    3.6346    4.2431   -4.8523 O   0  0  0  0  0  0  0  0  0  0  0  0
    3.6509    3.9287   -2.3202 O   0  0  0  0  0  0  0  0  0  0  0  0
    7.9341   -0.8737   -4.1987 C   0  0  0  0  0  0  0  0  0  0  0  0
    7.9814   -1.5197   -3.3168 H   0  0  0  0  0  0  0  0  0  0  0  0
    7.7782   -1.5047   -5.0789 H   0  0  0  0  0  0  0  0  0  0  0  0
    8.9172   -0.3988   -4.3086 H   0  0  0  0  0  0  0  0  0  0  0  0
    0.3055   -0.6388   -0.1158 H   0  0  0  0  0  0  0  0  0  0  0  0
  1  7  1  0  0  0  0
  2  8  1  0  0  0  0
  2  1  2  0  0  0  0
  3  2  1  0  0  0  0
  4  3  2  0  0  0  0
  4  5  1  0  0  0  0
  5  6  2  0  0  0  0
  6  1  1  0  0  0  0
  6 31  1  0  0  0  0
  9  4  1  0  0  0  0
 10  5  1  0  0  0  0
 12 11  3  0  0  0  0
 13 18  1  0  0  0  0
 14 13  2  0  0  0  0
 14 15  1  0  0  0  0
 15 16  2  0  0  0  0
 16 17  1  0  0  0  0
 16 21  1  0  0  0  0
 17 22  1  0  0  0  0
 18 23  1  0  0  0  0
 18 17  2  0  0  0  0
 19 13  1  0  0  0  0
 20 14  1  0  0  0  0
 23 26  2  0  0  0  0
 24 23  1  0  0  0  0
 24  3  1  0  0  0  0
 25 23  2  0  0  0  0
 27 15  1  0  0  0  0
 27 28  1  0  0  0  0
 29 27  1  0  0  0  0
 30 27  1  0  0  0  0
M  END
