Coordinates from ORCA-job /home/ubuntu/works/orca-Ph-N2-OTs-B3LYP-6-31G_dp-scan-d09-49-n400/Ph-N2-OTs-B3LYP-6-31G_dp-scan-d09-49-n400
 OpenBabel01281705563D

 31 31  0  0  0  0  0  0  0  0999 V2000
    0.7087    1.4051   -0.7992 C   0  0  0  0  0  0  0  0  0  0  0  0
    1.2610    2.3180   -1.6992 C   0  0  0  0  0  0  0  0  0  0  0  0
    1.8121    1.8386   -2.8882 C   0  0  0  0  0  0  0  0  0  0  0  0
    1.8149    0.4776   -3.1945 C   0  0  0  0  0  0  0  0  0  0  0  0
    1.2505   -0.4224   -2.2892 C   0  0  0  0  0  0  0  0  0  0  0  0
    0.7005    0.0384   -1.0905 C   0  0  0  0  0  0  0  0  0  0  0  0
    0.2783    1.7665    0.1303 H   0  0  0  0  0  0  0  0  0  0  0  0
    1.2760    3.3815   -1.4925 H   0  0  0  0  0  0  0  0  0  0  0  0
    2.2431    0.1472   -4.1348 H   0  0  0  0  0  0  0  0  0  0  0  0
    1.2412   -1.4835   -2.5224 H   0  0  0  0  0  0  0  0  0  0  0  0
    1.7742    1.6544   -6.8213 N   0  0  0  0  0  0  0  0  0  0  0  0
    1.0238    2.3832   -7.1780 N   0  0  0  0  0  0  0  0  0  0  0  0
    5.3654    1.8438   -5.0431 C   0  0  0  0  0  0  0  0  0  0  0  0
    6.3034    0.8237   -5.1742 C   0  0  0  0  0  0  0  0  0  0  0  0
    6.8453    0.1842   -4.0475 C   0  0  0  0  0  0  0  0  0  0  0  0
    6.4192    0.5926   -2.7760 C   0  0  0  0  0  0  0  0  0  0  0  0
    5.4802    1.6116   -2.6218 C   0  0  0  0  0  0  0  0  0  0  0  0
    4.9612    2.2278   -3.7613 C   0  0  0  0  0  0  0  0  0  0  0  0
    4.9574    2.3443   -5.9144 H   0  0  0  0  0  0  0  0  0  0  0  0
    6.6243    0.5205   -6.1673 H   0  0  0  0  0  0  0  0  0  0  0  0
    6.8289    0.1091   -1.8933 H   0  0  0  0  0  0  0  0  0  0  0  0
    5.1599    1.9355   -1.6378 H   0  0  0  0  0  0  0  0  0  0  0  0
    3.7505    3.5247   -3.5840 S   0  0  0  0  0  0  0  0  0  0  0  0
    2.3070    2.7250   -3.8525 O   0  0  0  0  0  0  0  0  0  0  0  0
    3.8308    4.4290   -4.7210 O   0  0  0  0  0  0  0  0  0  0  0  0
    3.7732    4.0045   -2.2049 O   0  0  0  0  0  0  0  0  0  0  0  0
    7.8865   -0.8973   -4.2043 C   0  0  0  0  0  0  0  0  0  0  0  0
    7.9088   -1.5621   -3.3357 H   0  0  0  0  0  0  0  0  0  0  0  0
    7.7017   -1.5042   -5.0961 H   0  0  0  0  0  0  0  0  0  0  0  0
    8.8882   -0.4621   -4.3097 H   0  0  0  0  0  0  0  0  0  0  0  0
    0.2633   -0.6646   -0.3873 H   0  0  0  0  0  0  0  0  0  0  0  0
  1  7  1  0  0  0  0
  2  8  1  0  0  0  0
  2  1  2  0  0  0  0
  3  2  1  0  0  0  0
  4  3  2  0  0  0  0
  4  5  1  0  0  0  0
  5  6  2  0  0  0  0
  6  1  1  0  0  0  0
  6 31  1  0  0  0  0
  9  4  1  0  0  0  0
 10  5  1  0  0  0  0
 12 11  3  0  0  0  0
 13 18  1  0  0  0  0
 14 13  2  0  0  0  0
 14 15  1  0  0  0  0
 15 16  2  0  0  0  0
 16 17  1  0  0  0  0
 16 21  1  0  0  0  0
 17 22  1  0  0  0  0
 18 23  1  0  0  0  0
 18 17  2  0  0  0  0
 19 13  1  0  0  0  0
 20 14  1  0  0  0  0
 23 26  2  0  0  0  0
 24 23  1  0  0  0  0
 24  3  1  0  0  0  0
 25 23  2  0  0  0  0
 27 15  1  0  0  0  0
 27 28  1  0  0  0  0
 29 27  1  0  0  0  0
 30 27  1  0  0  0  0
M  END
