Coordinates from ORCA-job /home/ubuntu/works/orca-Ph-N2-OTs-B3LYP-6-31G_dp-scan-d09-49-n400/Ph-N2-OTs-B3LYP-6-31G_dp-scan-d09-49-n400
 OpenBabel01281705563D

 31 30  0  0  0  0  0  0  0  0999 V2000
    0.2900    0.8430   -0.8403 C   0  0  0  0  0  0  0  0  0  0  0  0
    1.0250    1.3373   -1.9392 C   0  0  0  0  0  0  0  0  0  0  0  0
    0.2383    1.4556   -3.0328 C   0  0  0  0  0  0  0  0  0  0  0  0
   -1.0782    1.1985   -3.2941 C   0  0  0  0  0  0  0  0  0  0  0  0
   -1.7491    0.7001   -2.1635 C   0  0  0  0  0  0  0  0  0  0  0  0
   -1.0664    0.5276   -0.9549 C   0  0  0  0  0  0  0  0  0  0  0  0
    0.8125    0.7109    0.1025 H   0  0  0  0  0  0  0  0  0  0  0  0
    2.0944    1.6026   -1.8912 H   0  0  0  0  0  0  0  0  0  0  0  0
   -1.5579    1.3541   -4.2514 H   0  0  0  0  0  0  0  0  0  0  0  0
   -2.8025    0.4523   -2.2504 H   0  0  0  0  0  0  0  0  0  0  0  0
    1.1212    2.1679   -4.5849 N   0  0  0  0  0  0  0  0  0  0  0  0
    1.0025    2.7304   -5.5366 N   0  0  0  0  0  0  0  0  0  0  0  0
    6.3746    2.0569   -4.9660 C   0  0  0  0  0  0  0  0  0  0  0  0
    7.6346    1.5302   -5.2454 C   0  0  0  0  0  0  0  0  0  0  0  0
    8.2219    0.5705   -4.4083 C   0  0  0  0  0  0  0  0  0  0  0  0
    7.5097    0.1500   -3.2758 C   0  0  0  0  0  0  0  0  0  0  0  0
    6.2490    0.6672   -2.9837 C   0  0  0  0  0  0  0  0  0  0  0  0
    5.6856    1.6198   -3.8341 C   0  0  0  0  0  0  0  0  0  0  0  0
    5.9266    2.8106   -5.6051 H   0  0  0  0  0  0  0  0  0  0  0  0
    8.1727    1.8720   -6.1265 H   0  0  0  0  0  0  0  0  0  0  0  0
    7.9508   -0.5903   -2.6119 H   0  0  0  0  0  0  0  0  0  0  0  0
    5.7059    0.3525   -2.0989 H   0  0  0  0  0  0  0  0  0  0  0  0
    4.0405    2.2614   -3.5019 S   0  0  0  0  0  0  0  0  0  0  0  0
    3.1136    1.2484   -4.1664 O   0  0  0  0  0  0  0  0  0  0  0  0
    3.9453    3.5985   -4.1191 O   0  0  0  0  0  0  0  0  0  0  0  0
    3.8698    2.2175   -2.0171 O   0  0  0  0  0  0  0  0  0  0  0  0
    9.6019    0.0293   -4.7004 C   0  0  0  0  0  0  0  0  0  0  0  0
    9.7245   -0.9875   -4.3145 H   0  0  0  0  0  0  0  0  0  0  0  0
    9.8061    0.0113   -5.7755 H   0  0  0  0  0  0  0  0  0  0  0  0
   10.3768    0.6496   -4.2324 H   0  0  0  0  0  0  0  0  0  0  0  0
   -1.6003    0.1425   -0.0920 H   0  0  0  0  0  0  0  0  0  0  0  0
  1  7  1  0  0  0  0
  2  8  1  0  0  0  0
  2  1  2  0  0  0  0
  3  2  1  0  0  0  0
  4  3  2  0  0  0  0
  4  5  1  0  0  0  0
  5  6  2  0  0  0  0
  6  1  1  0  0  0  0
  6 31  1  0  0  0  0
  9  4  1  0  0  0  0
 10  5  1  0  0  0  0
 12 11  3  0  0  0  0
 13 18  1  0  0  0  0
 14 13  2  0  0  0  0
 14 15  1  0  0  0  0
 15 16  2  0  0  0  0
 16 17  1  0  0  0  0
 16 21  1  0  0  0  0
 17 22  1  0  0  0  0
 18 23  1  0  0  0  0
 18 17  2  0  0  0  0
 19 13  1  0  0  0  0
 20 14  1  0  0  0  0
 23 26  1  0  0  0  0
 24 23  2  0  0  0  0
 25 23  2  0  0  0  0
 27 15  1  0  0  0  0
 27 28  1  0  0  0  0
 27 30  1  0  0  0  0
 29 27  1  0  0  0  0
M  RAD  2   3   2  26   2
M  END
