Coordinates from ORCA-job /home/ubuntu/works/orca-Ph-N2-OTs-B3LYP-6-31G_dp-scan-d09-49-n400/Ph-N2-OTs-B3LYP-6-31G_dp-scan-d09-49-n400
 OpenBabel01281705563D

 31 30  0  0  0  0  0  0  0  0999 V2000
    1.2997    1.4869   -0.5051 C   0  0  0  0  0  0  0  0  0  0  0  0
    1.6404    1.8373   -1.8249 C   0  0  0  0  0  0  0  0  0  0  0  0
    1.0155    1.2598   -2.7538 C   0  0  0  0  0  0  0  0  0  0  0  0
    0.0291    0.3193   -2.8625 C   0  0  0  0  0  0  0  0  0  0  0  0
   -0.3277   -0.0500   -1.5421 C   0  0  0  0  0  0  0  0  0  0  0  0
    0.2864    0.5142   -0.4086 C   0  0  0  0  0  0  0  0  0  0  0  0
    1.7628    1.9149    0.3788 H   0  0  0  0  0  0  0  0  0  0  0  0
    2.8879    3.1054   -2.7459 H   0  0  0  0  0  0  0  0  0  0  0  0
   -0.4237   -0.0856   -3.7569 H   0  0  0  0  0  0  0  0  0  0  0  0
   -1.1082   -0.7962   -1.4128 H   0  0  0  0  0  0  0  0  0  0  0  0
   -0.0442    1.3017   -6.1276 N   0  0  0  0  0  0  0  0  0  0  0  0
    0.0792    1.9509   -7.0132 N   0  0  0  0  0  0  0  0  0  0  0  0
    6.5505    2.5371   -4.5358 C   0  0  0  0  0  0  0  0  0  0  0  0
    7.6461    1.7065   -4.3035 C   0  0  0  0  0  0  0  0  0  0  0  0
    7.4757    0.3638   -3.9392 C   0  0  0  0  0  0  0  0  0  0  0  0
    6.1693   -0.1366   -3.8212 C   0  0  0  0  0  0  0  0  0  0  0  0
    5.0626    0.6767   -4.0502 C   0  0  0  0  0  0  0  0  0  0  0  0
    5.2643    2.0134   -4.4029 C   0  0  0  0  0  0  0  0  0  0  0  0
    6.6835    3.5716   -4.8327 H   0  0  0  0  0  0  0  0  0  0  0  0
    8.6505    2.1076   -4.4132 H   0  0  0  0  0  0  0  0  0  0  0  0
    6.0176   -1.1788   -3.5513 H   0  0  0  0  0  0  0  0  0  0  0  0
    4.0550    0.2825   -3.9711 H   0  0  0  0  0  0  0  0  0  0  0  0
    3.8562    3.0773   -4.6825 S   0  0  0  0  0  0  0  0  0  0  0  0
    2.7158    2.2422   -5.0765 O   0  0  0  0  0  0  0  0  0  0  0  0
    4.2836    4.2076   -5.4943 O   0  0  0  0  0  0  0  0  0  0  0  0
    3.5524    3.6812   -3.2055 O   0  0  0  0  0  0  0  0  0  0  0  0
    8.6658   -0.5249   -3.6666 C   0  0  0  0  0  0  0  0  0  0  0  0
    8.5437   -1.5096   -4.1290 H   0  0  0  0  0  0  0  0  0  0  0  0
    9.5905   -0.0834   -4.0479 H   0  0  0  0  0  0  0  0  0  0  0  0
    8.7957   -0.6878   -2.5896 H   0  0  0  0  0  0  0  0  0  0  0  0
   -0.0366    0.1858    0.5760 H   0  0  0  0  0  0  0  0  0  0  0  0
  1  6  1  0  0  0  0
  1  7  1  0  0  0  0
  2  1  2  0  0  0  0
  3  2  1  0  0  0  0
  4  3  2  0  0  0  0
  4  5  1  0  0  0  0
  5 10  1  0  0  0  0
  5  6  2  0  0  0  0
  6 31  1  0  0  0  0
  9  4  1  0  0  0  0
 12 11  3  0  0  0  0
 13 18  2  0  0  0  0
 13 14  1  0  0  0  0
 14 15  2  0  0  0  0
 15 16  1  0  0  0  0
 15 27  1  0  0  0  0
 16 21  1  0  0  0  0
 17 22  1  0  0  0  0
 17 16  2  0  0  0  0
 18 17  1  0  0  0  0
 19 13  1  0  0  0  0
 20 14  1  0  0  0  0
 23 18  1  0  0  0  0
 23 26  1  0  0  0  0
 24 23  2  0  0  0  0
 25 23  2  0  0  0  0
 26  8  1  0  0  0  0
 27 30  1  0  0  0  0
 28 27  1  0  0  0  0
 29 27  1  0  0  0  0
M  RAD  2   2   2   3   2
M  END
