Coordinates from ORCA-job /home/ubuntu/works/orca-Ph-N2-OTs-B3LYP-6-31G_dp-scan-d09-49-n400/Ph-N2-OTs-B3LYP-6-31G_dp-scan-d09-49-n400
 OpenBabel01281705563D

 31 31  0  0  0  0  0  0  0  0999 V2000
    0.2089    0.8549   -0.8280 C   0  0  0  0  0  0  0  0  0  0  0  0
    1.0044    1.3166   -1.8920 C   0  0  0  0  0  0  0  0  0  0  0  0
    0.3009    1.4478   -3.0523 C   0  0  0  0  0  0  0  0  0  0  0  0
   -1.0184    1.2054   -3.3492 C   0  0  0  0  0  0  0  0  0  0  0  0
   -1.7591    0.7362   -2.2552 C   0  0  0  0  0  0  0  0  0  0  0  0
   -1.1461    0.5653   -1.0096 C   0  0  0  0  0  0  0  0  0  0  0  0
    0.6748    0.7245    0.1439 H   0  0  0  0  0  0  0  0  0  0  0  0
    2.0672    1.5585   -1.7901 H   0  0  0  0  0  0  0  0  0  0  0  0
   -1.4488    1.3587   -4.3305 H   0  0  0  0  0  0  0  0  0  0  0  0
   -2.8116    0.5085   -2.3924 H   0  0  0  0  0  0  0  0  0  0  0  0
    1.2127    2.0807   -4.4722 N   0  0  0  0  0  0  0  0  0  0  0  0
    1.1054    2.6285   -5.4380 N   0  0  0  0  0  0  0  0  0  0  0  0
    6.3276    2.0252   -4.9650 C   0  0  0  0  0  0  0  0  0  0  0  0
    7.5804    1.5050   -5.2849 C   0  0  0  0  0  0  0  0  0  0  0  0
    8.2179    0.5797   -4.4453 C   0  0  0  0  0  0  0  0  0  0  0  0
    7.5639    0.1873   -3.2685 C   0  0  0  0  0  0  0  0  0  0  0  0
    6.3111    0.6987   -2.9349 C   0  0  0  0  0  0  0  0  0  0  0  0
    5.6974    1.6163   -3.7889 C   0  0  0  0  0  0  0  0  0  0  0  0
    5.8411    2.7524   -5.6066 H   0  0  0  0  0  0  0  0  0  0  0  0
    8.0733    1.8245   -6.2000 H   0  0  0  0  0  0  0  0  0  0  0  0
    8.0449   -0.5256   -2.6026 H   0  0  0  0  0  0  0  0  0  0  0  0
    5.8129    0.4065   -2.0167 H   0  0  0  0  0  0  0  0  0  0  0  0
    4.0653    2.2519   -3.3953 S   0  0  0  0  0  0  0  0  0  0  0  0
    3.1259    1.2082   -4.0194 O   0  0  0  0  0  0  0  0  0  0  0  0
    3.9209    3.5701   -4.0421 O   0  0  0  0  0  0  0  0  0  0  0  0
    3.9438    2.2262   -1.9119 O   0  0  0  0  0  0  0  0  0  0  0  0
    9.5902    0.0458   -4.7834 C   0  0  0  0  0  0  0  0  0  0  0  0
    9.7446   -0.9554   -4.3697 H   0  0  0  0  0  0  0  0  0  0  0  0
    9.7445   -0.0063   -5.8658 H   0  0  0  0  0  0  0  0  0  0  0  0
   10.3770    0.6916   -4.3733 H   0  0  0  0  0  0  0  0  0  0  0  0
   -1.7331    0.2028   -0.1716 H   0  0  0  0  0  0  0  0  0  0  0  0
  1  7  1  0  0  0  0
  2  8  1  0  0  0  0
  2  1  2  0  0  0  0
  3  2  1  0  0  0  0
  4  3  2  0  0  0  0
  4  5  1  0  0  0  0
  5  6  2  0  0  0  0
  6  1  1  0  0  0  0
  6 31  1  0  0  0  0
  9  4  1  0  0  0  0
 10  5  1  0  0  0  0
 11  3  1  0  0  0  0
 12 11  2  0  0  0  0
 13 18  1  0  0  0  0
 14 13  2  0  0  0  0
 14 15  1  0  0  0  0
 15 16  2  0  0  0  0
 16 17  1  0  0  0  0
 16 21  1  0  0  0  0
 17 22  1  0  0  0  0
 18 23  1  0  0  0  0
 18 17  2  0  0  0  0
 19 13  1  0  0  0  0
 20 14  1  0  0  0  0
 23 26  1  0  0  0  0
 24 23  2  0  0  0  0
 25 23  2  0  0  0  0
 27 15  1  0  0  0  0
 27 30  1  0  0  0  0
 27 28  1  0  0  0  0
 29 27  1  0  0  0  0
M  RAD  2  12   2  26   2
M  END
