Coordinates from ORCA-job /home/ubuntu/works/orca-Ph-N2-OTs-B3LYP-6-31G_dp-scan-d09-49-n400/Ph-N2-OTs-B3LYP-6-31G_dp-scan-d09-49-n400
 OpenBabel01281705563D

 31 31  0  0  0  0  0  0  0  0999 V2000
    0.7035    1.4048   -0.8088 C   0  0  0  0  0  0  0  0  0  0  0  0
    1.2570    2.3181   -1.7074 C   0  0  0  0  0  0  0  0  0  0  0  0
    1.8135    1.8396   -2.8944 C   0  0  0  0  0  0  0  0  0  0  0  0
    1.8208    0.4783   -3.1995 C   0  0  0  0  0  0  0  0  0  0  0  0
    1.2553   -0.4224   -2.2954 C   0  0  0  0  0  0  0  0  0  0  0  0
    0.6998    0.0378   -1.0990 C   0  0  0  0  0  0  0  0  0  0  0  0
    0.2691    1.7659    0.1189 H   0  0  0  0  0  0  0  0  0  0  0  0
    1.2686    3.3819   -1.5014 H   0  0  0  0  0  0  0  0  0  0  0  0
    2.2531    0.1479   -4.1379 H   0  0  0  0  0  0  0  0  0  0  0  0
    1.2495   -1.4837   -2.5280 H   0  0  0  0  0  0  0  0  0  0  0  0
    1.7539    1.6558   -6.7871 N   0  0  0  0  0  0  0  0  0  0  0  0
    1.0071    2.3887   -7.1429 N   0  0  0  0  0  0  0  0  0  0  0  0
    5.3644    1.8401   -5.0426 C   0  0  0  0  0  0  0  0  0  0  0  0
    6.3016    0.8193   -5.1733 C   0  0  0  0  0  0  0  0  0  0  0  0
    6.8465    0.1831   -4.0461 C   0  0  0  0  0  0  0  0  0  0  0  0
    6.4241    0.5955   -2.7747 C   0  0  0  0  0  0  0  0  0  0  0  0
    5.4858    1.6151   -2.6209 C   0  0  0  0  0  0  0  0  0  0  0  0
    4.9640    2.2282   -3.7608 C   0  0  0  0  0  0  0  0  0  0  0  0
    4.9541    2.3381   -5.9143 H   0  0  0  0  0  0  0  0  0  0  0  0
    6.6195    0.5128   -6.1664 H   0  0  0  0  0  0  0  0  0  0  0  0
    6.8360    0.1144   -1.8917 H   0  0  0  0  0  0  0  0  0  0  0  0
    5.1680    1.9419   -1.6370 H   0  0  0  0  0  0  0  0  0  0  0  0
    3.7542    3.5259   -3.5842 S   0  0  0  0  0  0  0  0  0  0  0  0
    2.3104    2.7274   -3.8563 O   0  0  0  0  0  0  0  0  0  0  0  0
    3.8368    4.4313   -4.7203 O   0  0  0  0  0  0  0  0  0  0  0  0
    3.7746    4.0044   -2.2047 O   0  0  0  0  0  0  0  0  0  0  0  0
    7.8870   -0.8992   -4.2026 C   0  0  0  0  0  0  0  0  0  0  0  0
    7.9112   -1.5616   -3.3322 H   0  0  0  0  0  0  0  0  0  0  0  0
    7.6997   -1.5085   -5.0923 H   0  0  0  0  0  0  0  0  0  0  0  0
    8.8886   -0.4646   -4.3117 H   0  0  0  0  0  0  0  0  0  0  0  0
    0.2619   -0.6657   -0.3969 H   0  0  0  0  0  0  0  0  0  0  0  0
  1  7  1  0  0  0  0
  2  8  1  0  0  0  0
  2  1  2  0  0  0  0
  3  2  1  0  0  0  0
  4  3  2  0  0  0  0
  4  5  1  0  0  0  0
  5  6  2  0  0  0  0
  6  1  1  0  0  0  0
  6 31  1  0  0  0  0
  9  4  1  0  0  0  0
 10  5  1  0  0  0  0
 12 11  3  0  0  0  0
 13 18  1  0  0  0  0
 14 13  2  0  0  0  0
 14 15  1  0  0  0  0
 15 16  2  0  0  0  0
 16 17  1  0  0  0  0
 16 21  1  0  0  0  0
 17 22  1  0  0  0  0
 18 23  1  0  0  0  0
 18 17  2  0  0  0  0
 19 13  1  0  0  0  0
 20 14  1  0  0  0  0
 23 26  2  0  0  0  0
 24 23  1  0  0  0  0
 24  3  1  0  0  0  0
 25 23  2  0  0  0  0
 27 15  1  0  0  0  0
 27 28  1  0  0  0  0
 29 27  1  0  0  0  0
 30 27  1  0  0  0  0
M  END
