Coordinates from ORCA-job /home/ubuntu/works/orca-Ph-N2-OTs-B3LYP-6-31G_dp-scan-d09-49-n400/Ph-N2-OTs-B3LYP-6-31G_dp-scan-d09-49-n400
 OpenBabel01281705563D

 31 30  0  0  0  0  0  0  0  0999 V2000
    0.3646    0.8372   -0.8556 C   0  0  0  0  0  0  0  0  0  0  0  0
    1.0481    1.3613   -1.9782 C   0  0  0  0  0  0  0  0  0  0  0  0
    0.2058    1.4639   -3.0213 C   0  0  0  0  0  0  0  0  0  0  0  0
   -1.1079    1.1845   -3.2533 C   0  0  0  0  0  0  0  0  0  0  0  0
   -1.7215    0.6592   -2.1000 C   0  0  0  0  0  0  0  0  0  0  0  0
   -0.9876    0.4915   -0.9209 C   0  0  0  0  0  0  0  0  0  0  0  0
    0.9293    0.7079    0.0631 H   0  0  0  0  0  0  0  0  0  0  0  0
    2.1215    1.6505   -1.9683 H   0  0  0  0  0  0  0  0  0  0  0  0
   -1.6253    1.3378   -4.1908 H   0  0  0  0  0  0  0  0  0  0  0  0
   -2.7715    0.3881   -2.1501 H   0  0  0  0  0  0  0  0  0  0  0  0
    1.0339    2.2453   -4.6568 N   0  0  0  0  0  0  0  0  0  0  0  0
    0.9197    2.8213   -5.5982 N   0  0  0  0  0  0  0  0  0  0  0  0
    6.4069    2.0837   -4.9627 C   0  0  0  0  0  0  0  0  0  0  0  0
    7.6701    1.5477   -5.2093 C   0  0  0  0  0  0  0  0  0  0  0  0
    8.2147    0.5599   -4.3766 C   0  0  0  0  0  0  0  0  0  0  0  0
    7.4559    0.1205   -3.2821 C   0  0  0  0  0  0  0  0  0  0  0  0
    6.1914    0.6466   -3.0236 C   0  0  0  0  0  0  0  0  0  0  0  0
    5.6707    1.6272   -3.8689 C   0  0  0  0  0  0  0  0  0  0  0  0
    5.9918    2.8590   -5.5982 H   0  0  0  0  0  0  0  0  0  0  0  0
    8.2443    1.9047   -6.0614 H   0  0  0  0  0  0  0  0  0  0  0  0
    7.8628   -0.6420   -2.6215 H   0  0  0  0  0  0  0  0  0  0  0  0
    5.6130    0.3162   -2.1672 H   0  0  0  0  0  0  0  0  0  0  0  0
    4.0187    2.2785   -3.5880 S   0  0  0  0  0  0  0  0  0  0  0  0
    3.0969    1.2858   -4.2692 O   0  0  0  0  0  0  0  0  0  0  0  0
    3.9618    3.6243   -4.1909 O   0  0  0  0  0  0  0  0  0  0  0  0
    3.8140    2.2352   -2.1007 O   0  0  0  0  0  0  0  0  0  0  0  0
    9.5978    0.0083   -4.6318 C   0  0  0  0  0  0  0  0  0  0  0  0
    9.6939   -1.0194   -4.2676 H   0  0  0  0  0  0  0  0  0  0  0  0
    9.8410    0.0142   -5.6990 H   0  0  0  0  0  0  0  0  0  0  0  0
   10.3628    0.6064   -4.1207 H   0  0  0  0  0  0  0  0  0  0  0  0
   -1.4779    0.0855   -0.0419 H   0  0  0  0  0  0  0  0  0  0  0  0
  1  7  1  0  0  0  0
  2  8  1  0  0  0  0
  2  1  2  0  0  0  0
  3  2  1  0  0  0  0
  4  3  2  0  0  0  0
  4  5  1  0  0  0  0
  5  6  2  0  0  0  0
  6  1  1  0  0  0  0
  6 31  1  0  0  0  0
  9  4  1  0  0  0  0
 10  5  1  0  0  0  0
 12 11  3  0  0  0  0
 13 18  1  0  0  0  0
 14 13  2  0  0  0  0
 14 15  1  0  0  0  0
 15 16  2  0  0  0  0
 16 17  1  0  0  0  0
 16 21  1  0  0  0  0
 17 22  1  0  0  0  0
 18 23  1  0  0  0  0
 18 17  2  0  0  0  0
 19 13  1  0  0  0  0
 20 14  1  0  0  0  0
 23 26  1  0  0  0  0
 24 23  2  0  0  0  0
 25 23  2  0  0  0  0
 27 15  1  0  0  0  0
 27 28  1  0  0  0  0
 27 30  1  0  0  0  0
 29 27  1  0  0  0  0
M  RAD  2   3   2  26   2
M  END
