Coordinates from ORCA-job /home/ubuntu/works/orca-Ph-N2-OTs-B3LYP-6-31G_dp-scan-d09-49-n400/Ph-N2-OTs-B3LYP-6-31G_dp-scan-d09-49-n400
 OpenBabel01281705563D

 31 30  0  0  0  0  0  0  0  0999 V2000
    1.6757    1.2613   -1.1003 C   0  0  0  0  0  0  0  0  0  0  0  0
    1.4249    1.6892   -2.4222 C   0  0  0  0  0  0  0  0  0  0  0  0
    0.3882    1.2159   -2.9642 C   0  0  0  0  0  0  0  0  0  0  0  0
   -0.6215    0.3563   -2.6385 C   0  0  0  0  0  0  0  0  0  0  0  0
   -0.3776   -0.0825   -1.3145 C   0  0  0  0  0  0  0  0  0  0  0  0
    0.7345    0.3577   -0.5743 C   0  0  0  0  0  0  0  0  0  0  0  0
    2.5308    1.5919   -0.5178 H   0  0  0  0  0  0  0  0  0  0  0  0
    2.6394    2.8704   -3.3219 H   0  0  0  0  0  0  0  0  0  0  0  0
   -1.4643    0.0440   -3.2409 H   0  0  0  0  0  0  0  0  0  0  0  0
   -1.0817   -0.7803   -0.8676 H   0  0  0  0  0  0  0  0  0  0  0  0
   -0.3359    1.9456   -5.4331 N   0  0  0  0  0  0  0  0  0  0  0  0
   -0.1164    2.6373   -6.2668 N   0  0  0  0  0  0  0  0  0  0  0  0
    6.5688    2.5679   -4.3581 C   0  0  0  0  0  0  0  0  0  0  0  0
    7.6486    1.7869   -3.9516 C   0  0  0  0  0  0  0  0  0  0  0  0
    7.5090    0.4070   -3.7403 C   0  0  0  0  0  0  0  0  0  0  0  0
    6.2530   -0.1786   -3.9579 C   0  0  0  0  0  0  0  0  0  0  0  0
    5.1610    0.5864   -4.3643 C   0  0  0  0  0  0  0  0  0  0  0  0
    5.3286    1.9587   -4.5573 C   0  0  0  0  0  0  0  0  0  0  0  0
    6.6828    3.6313   -4.5404 H   0  0  0  0  0  0  0  0  0  0  0  0
    8.6184    2.2552   -3.8022 H   0  0  0  0  0  0  0  0  0  0  0  0
    6.1294   -1.2492   -3.8132 H   0  0  0  0  0  0  0  0  0  0  0  0
    4.1950    0.1291   -4.5504 H   0  0  0  0  0  0  0  0  0  0  0  0
    3.9339    2.9565   -5.0636 S   0  0  0  0  0  0  0  0  0  0  0  0
    2.9337    2.0750   -5.6707 O   0  0  0  0  0  0  0  0  0  0  0  0
    4.4375    4.1343   -5.7574 O   0  0  0  0  0  0  0  0  0  0  0  0
    3.3400    3.4976   -3.6517 O   0  0  0  0  0  0  0  0  0  0  0  0
    8.6790   -0.4261   -3.2741 C   0  0  0  0  0  0  0  0  0  0  0  0
    8.6209   -1.4486   -3.6584 H   0  0  0  0  0  0  0  0  0  0  0  0
    9.6310    0.0054   -3.5969 H   0  0  0  0  0  0  0  0  0  0  0  0
    8.7037   -0.4902   -2.1786 H   0  0  0  0  0  0  0  0  0  0  0  0
    0.8692   -0.0149    0.4377 H   0  0  0  0  0  0  0  0  0  0  0  0
  1  6  1  0  0  0  0
  1  7  1  0  0  0  0
  2  1  2  0  0  0  0
  3  4  2  0  0  0  0
  3  2  1  0  0  0  0
  4  5  1  0  0  0  0
  5 10  1  0  0  0  0
  5  6  2  0  0  0  0
  6 31  1  0  0  0  0
  9  4  1  0  0  0  0
 12 11  3  0  0  0  0
 13 14  2  0  0  0  0
 14 20  1  0  0  0  0
 14 15  1  0  0  0  0
 15 27  1  0  0  0  0
 16 21  1  0  0  0  0
 16 15  2  0  0  0  0
 17 16  1  0  0  0  0
 18 17  2  0  0  0  0
 18 13  1  0  0  0  0
 19 13  1  0  0  0  0
 22 17  1  0  0  0  0
 23 18  1  0  0  0  0
 23 26  1  0  0  0  0
 24 23  2  0  0  0  0
 25 23  2  0  0  0  0
 26  8  1  0  0  0  0
 27 30  1  0  0  0  0
 28 27  1  0  0  0  0
 29 27  1  0  0  0  0
M  RAD  2   2   2   3   2
M  END
