Coordinates from ORCA-job /home/ubuntu/works/orca-Ph-N2-OTs-B3LYP-6-31G_dp-scan-d09-49-n400/Ph-N2-OTs-B3LYP-6-31G_dp-scan-d09-49-n400
 OpenBabel01281705563D

 31 30  0  0  0  0  0  0  0  0999 V2000
    1.5592    1.3862   -0.8657 C   0  0  0  0  0  0  0  0  0  0  0  0
    1.4683    1.7572   -2.2216 C   0  0  0  0  0  0  0  0  0  0  0  0
    0.5664    1.2071   -2.9069 C   0  0  0  0  0  0  0  0  0  0  0  0
   -0.4173    0.2799   -2.7058 C   0  0  0  0  0  0  0  0  0  0  0  0
   -0.3406   -0.1112   -1.3461 C   0  0  0  0  0  0  0  0  0  0  0  0
    0.6135    0.4247   -0.4619 C   0  0  0  0  0  0  0  0  0  0  0  0
    2.2916    1.7905   -0.1735 H   0  0  0  0  0  0  0  0  0  0  0  0
    2.6994    2.9658   -3.1623 H   0  0  0  0  0  0  0  0  0  0  0  0
   -1.1381   -0.1077   -3.4136 H   0  0  0  0  0  0  0  0  0  0  0  0
   -1.0521   -0.8504   -0.9851 H   0  0  0  0  0  0  0  0  0  0  0  0
   -0.2689    1.7532   -5.7735 N   0  0  0  0  0  0  0  0  0  0  0  0
   -0.1403    2.3915   -6.6664 N   0  0  0  0  0  0  0  0  0  0  0  0
    6.5843    2.5688   -4.3790 C   0  0  0  0  0  0  0  0  0  0  0  0
    7.6615    1.7575   -4.0279 C   0  0  0  0  0  0  0  0  0  0  0  0
    7.4940    0.3828   -3.8054 C   0  0  0  0  0  0  0  0  0  0  0  0
    6.2119   -0.1672   -3.9545 C   0  0  0  0  0  0  0  0  0  0  0  0
    5.1226    0.6279   -4.3052 C   0  0  0  0  0  0  0  0  0  0  0  0
    5.3189    1.9948   -4.5107 C   0  0  0  0  0  0  0  0  0  0  0  0
    6.7184    3.6282   -4.5698 H   0  0  0  0  0  0  0  0  0  0  0  0
    8.6508    2.1980   -3.9313 H   0  0  0  0  0  0  0  0  0  0  0  0
    6.0656   -1.2335   -3.7999 H   0  0  0  0  0  0  0  0  0  0  0  0
    4.1356    0.1976   -4.4387 H   0  0  0  0  0  0  0  0  0  0  0  0
    3.9288    3.0301   -4.9476 S   0  0  0  0  0  0  0  0  0  0  0  0
    2.8813    2.1798   -5.5184 O   0  0  0  0  0  0  0  0  0  0  0  0
    4.4299    4.2031   -5.6508 O   0  0  0  0  0  0  0  0  0  0  0  0
    3.4079    3.5709   -3.5049 O   0  0  0  0  0  0  0  0  0  0  0  0
    8.6625   -0.4833   -3.3990 C   0  0  0  0  0  0  0  0  0  0  0  0
    8.5768   -1.4922   -3.8132 H   0  0  0  0  0  0  0  0  0  0  0  0
    9.6120   -0.0569   -3.7350 H   0  0  0  0  0  0  0  0  0  0  0  0
    8.7160   -0.5831   -2.3073 H   0  0  0  0  0  0  0  0  0  0  0  0
    0.6197    0.0810    0.5695 H   0  0  0  0  0  0  0  0  0  0  0  0
  1  6  1  0  0  0  0
  1  7  1  0  0  0  0
  2  1  2  0  0  0  0
  3  4  2  0  0  0  0
  3  2  1  0  0  0  0
  4  5  1  0  0  0  0
  5 10  1  0  0  0  0
  5  6  2  0  0  0  0
  6 31  1  0  0  0  0
  9  4  1  0  0  0  0
 12 11  3  0  0  0  0
 13 14  1  0  0  0  0
 14 20  1  0  0  0  0
 14 15  2  0  0  0  0
 15 27  1  0  0  0  0
 16 15  1  0  0  0  0
 16 21  1  0  0  0  0
 17 16  2  0  0  0  0
 18 13  2  0  0  0  0
 18 17  1  0  0  0  0
 19 13  1  0  0  0  0
 22 17  1  0  0  0  0
 23 18  1  0  0  0  0
 23 26  1  0  0  0  0
 24 23  2  0  0  0  0
 25 23  2  0  0  0  0
 26  8  1  0  0  0  0
 27 30  1  0  0  0  0
 28 27  1  0  0  0  0
 29 27  1  0  0  0  0
M  RAD  2   2   2   3   2
M  END
