Coordinates from ORCA-job /home/ubuntu/works/orca-Ph-N2-OTs-B3LYP-6-31G_dp-scan-d09-49-n400/Ph-N2-OTs-B3LYP-6-31G_dp-scan-d09-49-n400
 OpenBabel01281705563D

 31 31  0  0  0  0  0  0  0  0999 V2000
    1.1703    0.1954   -1.7228 C   0  0  0  0  0  0  0  0  0  0  0  0
    1.2141    0.6555   -3.0358 C   0  0  0  0  0  0  0  0  0  0  0  0
    0.2993    1.7549   -3.5042 C   0  0  0  0  0  0  0  0  0  0  0  0
   -0.5018    2.3880   -2.4158 C   0  0  0  0  0  0  0  0  0  0  0  0
   -0.4423    1.9315   -1.1382 C   0  0  0  0  0  0  0  0  0  0  0  0
    0.3728    0.8235   -0.7769 C   0  0  0  0  0  0  0  0  0  0  0  0
    1.7988   -0.6430   -1.4397 H   0  0  0  0  0  0  0  0  0  0  0  0
    1.7882    0.1981   -3.8315 H   0  0  0  0  0  0  0  0  0  0  0  0
   -1.1192    3.2268   -2.7224 H   0  0  0  0  0  0  0  0  0  0  0  0
   -1.0474    2.4224   -0.3807 H   0  0  0  0  0  0  0  0  0  0  0  0
    0.2811    2.0293   -4.3611 N   0  0  0  0  0  0  0  0  0  0  0  0
    0.2816    2.3965   -5.4881 N   0  0  0  0  0  0  0  0  0  0  0  0
    6.1121    1.3931   -5.3684 C   0  0  0  0  0  0  0  0  0  0  0  0
    7.3742    0.8349   -5.1915 C   0  0  0  0  0  0  0  0  0  0  0  0
    7.8011    0.3860   -3.9300 C   0  0  0  0  0  0  0  0  0  0  0  0
    6.9241    0.5201   -2.8501 C   0  0  0  0  0  0  0  0  0  0  0  0
    5.6521    1.0789   -3.0143 C   0  0  0  0  0  0  0  0  0  0  0  0
    5.2483    1.5089   -4.2749 C   0  0  0  0  0  0  0  0  0  0  0  0
    5.7979    1.7463   -6.3457 H   0  0  0  0  0  0  0  0  0  0  0  0
    8.0451    0.7498   -6.0430 H   0  0  0  0  0  0  0  0  0  0  0  0
    7.2402    0.1907   -1.8624 H   0  0  0  0  0  0  0  0  0  0  0  0
    4.9787    1.1982   -2.1719 H   0  0  0  0  0  0  0  0  0  0  0  0
    3.6132    2.2241   -4.5342 S   0  0  0  0  0  0  0  0  0  0  0  0
    2.8744    1.2552   -5.4141 O   0  0  0  0  0  0  0  0  0  0  0  0
    3.8223    3.5543   -5.1167 O   0  0  0  0  0  0  0  0  0  0  0  0
    2.9485    2.2740   -3.1645 O   0  0  0  0  0  0  0  0  0  0  0  0
    9.1648   -0.2398   -3.7498 C   0  0  0  0  0  0  0  0  0  0  0  0
    9.1416   -1.3138   -3.9739 H   0  0  0  0  0  0  0  0  0  0  0  0
    9.9058    0.2131   -4.4156 H   0  0  0  0  0  0  0  0  0  0  0  0
    9.5227   -0.1294   -2.7209 H   0  0  0  0  0  0  0  0  0  0  0  0
    0.3768    0.4674    0.2471 H   0  0  0  0  0  0  0  0  0  0  0  0
  1  7  1  0  0  0  0
  1  6  2  0  0  0  0
  2  1  1  0  0  0  0
  3  2  2  0  0  0  0
  3  4  1  0  0  0  0
  4  5  2  0  0  0  0
  5  6  1  0  0  0  0
  5 10  1  0  0  0  0
  6 31  1  0  0  0  0
  8  2  1  0  0  0  0
  9  4  1  0  0  0  0
 11  3  1  0  0  0  0
 12 11  1  0  0  0  0
 13 14  2  0  0  0  0
 13 18  1  0  0  0  0
 14 15  1  0  0  0  0
 15 27  1  0  0  0  0
 15 16  2  0  0  0  0
 16 21  1  0  0  0  0
 17 16  1  0  0  0  0
 17 22  1  0  0  0  0
 18 17  2  0  0  0  0
 19 13  1  0  0  0  0
 20 14  1  0  0  0  0
 23 18  1  0  0  0  0
 23 26  1  0  0  0  0
 24 23  2  0  0  0  0
 25 23  2  0  0  0  0
 27 30  1  0  0  0  0
 28 27  1  0  0  0  0
 29 27  1  0  0  0  0
M  RAD  3  11   2  12   3  26   2
M  END
