Coordinates from ORCA-job /home/ubuntu/works/orca-Ph-N2-OTs-B3LYP-6-31G_dp-scan-d09-49-n400/Ph-N2-OTs-B3LYP-6-31G_dp-scan-d09-49-n400
 OpenBabel01281705563D

 31 30  0  0  0  0  0  0  0  0999 V2000
    1.6755    1.2304   -1.2573 C   0  0  0  0  0  0  0  0  0  0  0  0
    1.3879    1.7052   -2.5616 C   0  0  0  0  0  0  0  0  0  0  0  0
    0.2968    1.2495   -3.0328 C   0  0  0  0  0  0  0  0  0  0  0  0
   -0.7112    0.4104   -2.6535 C   0  0  0  0  0  0  0  0  0  0  0  0
   -0.4129   -0.0583   -1.3555 C   0  0  0  0  0  0  0  0  0  0  0  0
    0.7521    0.3447   -0.6792 C   0  0  0  0  0  0  0  0  0  0  0  0
    2.5714    1.5307   -0.7201 H   0  0  0  0  0  0  0  0  0  0  0  0
    2.5966    2.8234   -3.3455 H   0  0  0  0  0  0  0  0  0  0  0  0
   -1.5926    0.1327   -3.2168 H   0  0  0  0  0  0  0  0  0  0  0  0
   -1.1093   -0.7445   -0.8805 H   0  0  0  0  0  0  0  0  0  0  0  0
   -0.2600    1.9612   -5.0642 N   0  0  0  0  0  0  0  0  0  0  0  0
   -0.0042    2.6360   -5.9025 N   0  0  0  0  0  0  0  0  0  0  0  0
    6.5635    2.5622   -4.3675 C   0  0  0  0  0  0  0  0  0  0  0  0
    7.6510    1.7965   -3.9524 C   0  0  0  0  0  0  0  0  0  0  0  0
    7.5245    0.4181   -3.7237 C   0  0  0  0  0  0  0  0  0  0  0  0
    6.2740   -0.1815   -3.9328 C   0  0  0  0  0  0  0  0  0  0  0  0
    5.1745    0.5684   -4.3476 C   0  0  0  0  0  0  0  0  0  0  0  0
    5.3286    1.9396   -4.5580 C   0  0  0  0  0  0  0  0  0  0  0  0
    6.6672    3.6241   -4.5631 H   0  0  0  0  0  0  0  0  0  0  0  0
    8.6165    2.2758   -3.8099 H   0  0  0  0  0  0  0  0  0  0  0  0
    6.1603   -1.2513   -3.7745 H   0  0  0  0  0  0  0  0  0  0  0  0
    4.2125    0.0998   -4.5267 H   0  0  0  0  0  0  0  0  0  0  0  0
    3.9233    2.9194   -5.0729 S   0  0  0  0  0  0  0  0  0  0  0  0
    2.9405    2.0215   -5.6883 O   0  0  0  0  0  0  0  0  0  0  0  0
    4.4183    4.0971   -5.7747 O   0  0  0  0  0  0  0  0  0  0  0  0
    3.3154    3.4515   -3.6719 O   0  0  0  0  0  0  0  0  0  0  0  0
    8.7031   -0.3974   -3.2481 C   0  0  0  0  0  0  0  0  0  0  0  0
    8.6373   -1.4344   -3.5905 H   0  0  0  0  0  0  0  0  0  0  0  0
    9.6488    0.0199   -3.6064 H   0  0  0  0  0  0  0  0  0  0  0  0
    8.7502   -0.4177   -2.1514 H   0  0  0  0  0  0  0  0  0  0  0  0
    0.9403   -0.0422    0.3187 H   0  0  0  0  0  0  0  0  0  0  0  0
  1  7  1  0  0  0  0
  1  6  1  0  0  0  0
  2  1  2  0  0  0  0
  3  4  2  0  0  0  0
  3  2  1  0  0  0  0
  4  5  1  0  0  0  0
  5 10  1  0  0  0  0
  5  6  2  0  0  0  0
  6 31  1  0  0  0  0
  9  4  1  0  0  0  0
 12 11  3  0  0  0  0
 13 14  1  0  0  0  0
 14 20  1  0  0  0  0
 14 15  2  0  0  0  0
 15 27  1  0  0  0  0
 16 21  1  0  0  0  0
 16 15  1  0  0  0  0
 17 16  2  0  0  0  0
 18 13  2  0  0  0  0
 18 17  1  0  0  0  0
 19 13  1  0  0  0  0
 22 17  1  0  0  0  0
 23 18  1  0  0  0  0
 23 26  1  0  0  0  0
 24 23  2  0  0  0  0
 25 23  2  0  0  0  0
 26  8  1  0  0  0  0
 27 30  1  0  0  0  0
 28 27  1  0  0  0  0
 29 27  1  0  0  0  0
M  RAD  2   2   2   3   2
M  END
