Coordinates from ORCA-job /home/ubuntu/works/orca-Ph-N2-OTs-B3LYP-6-31G_dp-scan-d09-49-n400/Ph-N2-OTs-B3LYP-6-31G_dp-scan-d09-49-n400
 OpenBabel01281705563D

 31 31  0  0  0  0  0  0  0  0999 V2000
    0.7079    1.3915   -0.7405 C   0  0  0  0  0  0  0  0  0  0  0  0
    1.2226    2.2677   -1.6972 C   0  0  0  0  0  0  0  0  0  0  0  0
    1.7710    1.7386   -2.8664 C   0  0  0  0  0  0  0  0  0  0  0  0
    1.8072    0.3634   -3.0974 C   0  0  0  0  0  0  0  0  0  0  0  0
    1.2804   -0.5003   -2.1357 C   0  0  0  0  0  0  0  0  0  0  0  0
    0.7339    0.0110   -0.9561 C   0  0  0  0  0  0  0  0  0  0  0  0
    0.2800    1.7919    0.1742 H   0  0  0  0  0  0  0  0  0  0  0  0
    1.2104    3.3412   -1.5496 H   0  0  0  0  0  0  0  0  0  0  0  0
    2.2333   -0.0076   -4.0236 H   0  0  0  0  0  0  0  0  0  0  0  0
    1.2980   -1.5726   -2.3102 H   0  0  0  0  0  0  0  0  0  0  0  0
    2.1199    2.3593   -7.1156 N   0  0  0  0  0  0  0  0  0  0  0  0
    1.2702    3.0308   -7.3357 N   0  0  0  0  0  0  0  0  0  0  0  0
    5.2890    1.7317   -5.0897 C   0  0  0  0  0  0  0  0  0  0  0  0
    6.2563    0.7355   -5.1901 C   0  0  0  0  0  0  0  0  0  0  0  0
    6.8410    0.1701   -4.0456 C   0  0  0  0  0  0  0  0  0  0  0  0
    6.4273    0.6275   -2.7865 C   0  0  0  0  0  0  0  0  0  0  0  0
    5.4598    1.6233   -2.6624 C   0  0  0  0  0  0  0  0  0  0  0  0
    4.8992    2.1662   -3.8197 C   0  0  0  0  0  0  0  0  0  0  0  0
    4.8451    2.1720   -5.9755 H   0  0  0  0  0  0  0  0  0  0  0  0
    6.5663    0.3926   -6.1738 H   0  0  0  0  0  0  0  0  0  0  0  0
    6.8695    0.2011   -1.8901 H   0  0  0  0  0  0  0  0  0  0  0  0
    5.1487    1.9856   -1.6889 H   0  0  0  0  0  0  0  0  0  0  0  0
    3.6540    3.4346   -3.6784 S   0  0  0  0  0  0  0  0  0  0  0  0
    2.2291    2.5831   -3.8844 O   0  0  0  0  0  0  0  0  0  0  0  0
    3.6872    4.2889   -4.8561 O   0  0  0  0  0  0  0  0  0  0  0  0
    3.6862    3.9775   -2.3231 O   0  0  0  0  0  0  0  0  0  0  0  0
    7.9139   -0.8842   -4.1707 C   0  0  0  0  0  0  0  0  0  0  0  0
    7.9428   -1.5341   -3.2909 H   0  0  0  0  0  0  0  0  0  0  0  0
    7.7588   -1.5098   -5.0549 H   0  0  0  0  0  0  0  0  0  0  0  0
    8.9046   -0.4226   -4.2685 H   0  0  0  0  0  0  0  0  0  0  0  0
    0.3260   -0.6634   -0.2088 H   0  0  0  0  0  0  0  0  0  0  0  0
  1  7  1  0  0  0  0
  2  8  1  0  0  0  0
  2  1  2  0  0  0  0
  3  2  1  0  0  0  0
  4  3  2  0  0  0  0
  4  5  1  0  0  0  0
  5  6  2  0  0  0  0
  6  1  1  0  0  0  0
  6 31  1  0  0  0  0
  9  4  1  0  0  0  0
 10  5  1  0  0  0  0
 12 11  3  0  0  0  0
 13 18  1  0  0  0  0
 14 13  2  0  0  0  0
 14 15  1  0  0  0  0
 15 16  2  0  0  0  0
 16 17  1  0  0  0  0
 16 21  1  0  0  0  0
 17 22  1  0  0  0  0
 18 23  1  0  0  0  0
 18 17  2  0  0  0  0
 19 13  1  0  0  0  0
 20 14  1  0  0  0  0
 23 26  2  0  0  0  0
 24 23  1  0  0  0  0
 24  3  1  0  0  0  0
 25 23  2  0  0  0  0
 27 15  1  0  0  0  0
 27 28  1  0  0  0  0
 29 27  1  0  0  0  0
 30 27  1  0  0  0  0
M  END
