Coordinates from ORCA-job /home/ubuntu/works/orca-Ph-N2-OTs-B3LYP-6-31G_dp-scan-d09-49-n400/Ph-N2-OTs-B3LYP-6-31G_dp-scan-d09-49-n400
 OpenBabel01281705563D

 31 30  0  0  0  0  0  0  0  0999 V2000
    1.6769    1.2539   -1.1472 C   0  0  0  0  0  0  0  0  0  0  0  0
    1.4092    1.6913   -2.4642 C   0  0  0  0  0  0  0  0  0  0  0  0
    0.3562    1.2225   -2.9822 C   0  0  0  0  0  0  0  0  0  0  0  0
   -0.6528    0.3696   -2.6390 C   0  0  0  0  0  0  0  0  0  0  0  0
   -0.3881   -0.0749   -1.3216 C   0  0  0  0  0  0  0  0  0  0  0  0
    0.7414    0.3560   -0.6029 C   0  0  0  0  0  0  0  0  0  0  0  0
    2.5456    1.5770   -0.5806 H   0  0  0  0  0  0  0  0  0  0  0  0
    2.6285    2.8582   -3.3336 H   0  0  0  0  0  0  0  0  0  0  0  0
   -1.5087    0.0657   -3.2272 H   0  0  0  0  0  0  0  0  0  0  0  0
   -1.0886   -0.7688   -0.8632 H   0  0  0  0  0  0  0  0  0  0  0  0
   -0.3261    1.9480   -5.3342 N   0  0  0  0  0  0  0  0  0  0  0  0
   -0.0959    2.6358   -6.1683 N   0  0  0  0  0  0  0  0  0  0  0  0
    6.5693    2.5671   -4.3573 C   0  0  0  0  0  0  0  0  0  0  0  0
    7.6507    1.7898   -3.9477 C   0  0  0  0  0  0  0  0  0  0  0  0
    7.5148    0.4098   -3.7352 C   0  0  0  0  0  0  0  0  0  0  0  0
    6.2610   -0.1798   -3.9545 C   0  0  0  0  0  0  0  0  0  0  0  0
    5.1676    0.5815   -4.3639 C   0  0  0  0  0  0  0  0  0  0  0  0
    5.3313    1.9541   -4.5582 C   0  0  0  0  0  0  0  0  0  0  0  0
    6.6805    3.6305   -4.5406 H   0  0  0  0  0  0  0  0  0  0  0  0
    8.6188    2.2612   -3.7970 H   0  0  0  0  0  0  0  0  0  0  0  0
    6.1403   -1.2506   -3.8088 H   0  0  0  0  0  0  0  0  0  0  0  0
    4.2033    0.1211   -4.5514 H   0  0  0  0  0  0  0  0  0  0  0  0
    3.9344    2.9472   -5.0680 S   0  0  0  0  0  0  0  0  0  0  0  0
    2.9394    2.0620   -5.6788 O   0  0  0  0  0  0  0  0  0  0  0  0
    4.4363    4.1261   -5.7615 O   0  0  0  0  0  0  0  0  0  0  0  0
    3.3347    3.4847   -3.6586 O   0  0  0  0  0  0  0  0  0  0  0  0
    8.6864   -0.4194   -3.2656 C   0  0  0  0  0  0  0  0  0  0  0  0
    8.6311   -1.4430   -3.6475 H   0  0  0  0  0  0  0  0  0  0  0  0
    9.6377    0.0136   -3.5886 H   0  0  0  0  0  0  0  0  0  0  0  0
    8.7102   -0.4806   -2.1699 H   0  0  0  0  0  0  0  0  0  0  0  0
    0.8941   -0.0191    0.4056 H   0  0  0  0  0  0  0  0  0  0  0  0
  1  6  1  0  0  0  0
  1  7  1  0  0  0  0
  2  1  2  0  0  0  0
  3  4  2  0  0  0  0
  3  2  1  0  0  0  0
  4  5  1  0  0  0  0
  5 10  1  0  0  0  0
  5  6  2  0  0  0  0
  6 31  1  0  0  0  0
  9  4  1  0  0  0  0
 12 11  3  0  0  0  0
 13 14  2  0  0  0  0
 14 20  1  0  0  0  0
 14 15  1  0  0  0  0
 15 27  1  0  0  0  0
 16 21  1  0  0  0  0
 16 15  2  0  0  0  0
 17 16  1  0  0  0  0
 18 17  2  0  0  0  0
 18 13  1  0  0  0  0
 19 13  1  0  0  0  0
 22 17  1  0  0  0  0
 23 18  1  0  0  0  0
 23 26  1  0  0  0  0
 24 23  2  0  0  0  0
 25 23  2  0  0  0  0
 26  8  1  0  0  0  0
 27 30  1  0  0  0  0
 28 27  1  0  0  0  0
 29 27  1  0  0  0  0
M  RAD  2   2   2   3   2
M  END
