Coordinates from ORCA-job /home/ubuntu/works/orca-Ph-N2-OTs-B3LYP-6-31G_dp-scan-d09-49-n400/Ph-N2-OTs-B3LYP-6-31G_dp-scan-d09-49-n400
 OpenBabel01281705563D

 31 31  0  0  0  0  0  0  0  0999 V2000
    0.6793    1.4305   -0.8877 C   0  0  0  0  0  0  0  0  0  0  0  0
    1.2614    2.3325   -1.7797 C   0  0  0  0  0  0  0  0  0  0  0  0
    1.8478    1.8399   -2.9464 C   0  0  0  0  0  0  0  0  0  0  0  0
    1.8569    0.4756   -3.2379 C   0  0  0  0  0  0  0  0  0  0  0  0
    1.2624   -0.4135   -2.3411 C   0  0  0  0  0  0  0  0  0  0  0  0
    0.6768    0.0608   -1.1648 C   0  0  0  0  0  0  0  0  0  0  0  0
    0.2218    1.8027    0.0245 H   0  0  0  0  0  0  0  0  0  0  0  0
    1.2725    3.3981   -1.5835 H   0  0  0  0  0  0  0  0  0  0  0  0
    2.3108    0.1341   -4.1618 H   0  0  0  0  0  0  0  0  0  0  0  0
    1.2575   -1.4770   -2.5638 H   0  0  0  0  0  0  0  0  0  0  0  0
    1.1313    1.6266   -6.5978 N   0  0  0  0  0  0  0  0  0  0  0  0
    0.4629    2.4419   -6.9297 N   0  0  0  0  0  0  0  0  0  0  0  0
    5.4669    1.8530   -5.0323 C   0  0  0  0  0  0  0  0  0  0  0  0
    6.4059    0.8323   -5.1516 C   0  0  0  0  0  0  0  0  0  0  0  0
    6.9123    0.1738   -4.0195 C   0  0  0  0  0  0  0  0  0  0  0  0
    6.4493    0.5635   -2.7548 C   0  0  0  0  0  0  0  0  0  0  0  0
    5.5088    1.5825   -2.6125 C   0  0  0  0  0  0  0  0  0  0  0  0
    5.0256    2.2181   -3.7574 C   0  0  0  0  0  0  0  0  0  0  0  0
    5.0870    2.3699   -5.9069 H   0  0  0  0  0  0  0  0  0  0  0  0
    6.7560    0.5439   -6.1393 H   0  0  0  0  0  0  0  0  0  0  0  0
    6.8313    0.0650   -1.8679 H   0  0  0  0  0  0  0  0  0  0  0  0
    5.1602    1.8920   -1.6335 H   0  0  0  0  0  0  0  0  0  0  0  0
    3.8123    3.5146   -3.5972 S   0  0  0  0  0  0  0  0  0  0  0  0
    2.3750    2.7165   -3.9025 O   0  0  0  0  0  0  0  0  0  0  0  0
    3.9185    4.4264   -4.7260 O   0  0  0  0  0  0  0  0  0  0  0  0
    3.8049    3.9848   -2.2146 O   0  0  0  0  0  0  0  0  0  0  0  0
    7.9563   -0.9071   -4.1611 C   0  0  0  0  0  0  0  0  0  0  0  0
    7.9244   -1.6085   -3.3219 H   0  0  0  0  0  0  0  0  0  0  0  0
    7.8224   -1.4743   -5.0873 H   0  0  0  0  0  0  0  0  0  0  0  0
    8.9643   -0.4743   -4.1877 H   0  0  0  0  0  0  0  0  0  0  0  0
    0.2164   -0.6338   -0.4681 H   0  0  0  0  0  0  0  0  0  0  0  0
  1  7  1  0  0  0  0
  2  8  1  0  0  0  0
  2  1  2  0  0  0  0
  3  2  1  0  0  0  0
  4  3  2  0  0  0  0
  4  5  1  0  0  0  0
  5  6  2  0  0  0  0
  6  1  1  0  0  0  0
  6 31  1  0  0  0  0
  9  4  1  0  0  0  0
 10  5  1  0  0  0  0
 12 11  3  0  0  0  0
 13 18  1  0  0  0  0
 14 13  2  0  0  0  0
 14 15  1  0  0  0  0
 15 16  2  0  0  0  0
 16 17  1  0  0  0  0
 16 21  1  0  0  0  0
 17 22  1  0  0  0  0
 18 23  1  0  0  0  0
 18 17  2  0  0  0  0
 19 13  1  0  0  0  0
 20 14  1  0  0  0  0
 23 26  2  0  0  0  0
 24 23  1  0  0  0  0
 24  3  1  0  0  0  0
 25 23  2  0  0  0  0
 27 15  1  0  0  0  0
 27 28  1  0  0  0  0
 29 27  1  0  0  0  0
 30 27  1  0  0  0  0
M  END
