Coordinates from ORCA-job /home/ubuntu/works/orca-Ph-N2-OTs-B3LYP-6-31G_dp-scan-d09-49-n400/Ph-N2-OTs-B3LYP-6-31G_dp-scan-d09-49-n400
 OpenBabel01281705563D

 31 30  0  0  0  0  0  0  0  0999 V2000
    1.6786    1.2447   -1.2016 C   0  0  0  0  0  0  0  0  0  0  0  0
    1.3966    1.6965   -2.5128 C   0  0  0  0  0  0  0  0  0  0  0  0
    0.3254    1.2323   -3.0049 C   0  0  0  0  0  0  0  0  0  0  0  0
   -0.6826    0.3863   -2.6430 C   0  0  0  0  0  0  0  0  0  0  0  0
   -0.3977   -0.0670   -1.3340 C   0  0  0  0  0  0  0  0  0  0  0  0
    0.7500    0.3527   -0.6383 C   0  0  0  0  0  0  0  0  0  0  0  0
    2.5613    1.5587   -0.6512 H   0  0  0  0  0  0  0  0  0  0  0  0
    2.6153    2.8448   -3.3423 H   0  0  0  0  0  0  0  0  0  0  0  0
   -1.5518    0.0931   -3.2169 H   0  0  0  0  0  0  0  0  0  0  0  0
   -1.0947   -0.7570   -0.8649 H   0  0  0  0  0  0  0  0  0  0  0  0
   -0.3025    1.9494   -5.2116 N   0  0  0  0  0  0  0  0  0  0  0  0
   -0.0657    2.6275   -6.0522 N   0  0  0  0  0  0  0  0  0  0  0  0
    6.5682    2.5658   -4.3590 C   0  0  0  0  0  0  0  0  0  0  0  0
    7.6514    1.7925   -3.9463 C   0  0  0  0  0  0  0  0  0  0  0  0
    7.5189    0.4130   -3.7292 C   0  0  0  0  0  0  0  0  0  0  0  0
    6.2667   -0.1804   -3.9471 C   0  0  0  0  0  0  0  0  0  0  0  0
    5.1715    0.5769   -4.3595 C   0  0  0  0  0  0  0  0  0  0  0  0
    5.3318    1.9491   -4.5584 C   0  0  0  0  0  0  0  0  0  0  0  0
    6.6767    3.6289   -4.5457 H   0  0  0  0  0  0  0  0  0  0  0  0
    8.6182    2.2669   -3.7967 H   0  0  0  0  0  0  0  0  0  0  0  0
    6.1485   -1.2510   -3.7979 H   0  0  0  0  0  0  0  0  0  0  0  0
    4.2084    0.1134   -4.5458 H   0  0  0  0  0  0  0  0  0  0  0  0
    3.9322    2.9376   -5.0710 S   0  0  0  0  0  0  0  0  0  0  0  0
    2.9423    2.0481   -5.6851 O   0  0  0  0  0  0  0  0  0  0  0  0
    4.4323    4.1167   -5.7659 O   0  0  0  0  0  0  0  0  0  0  0  0
    3.3276    3.4716   -3.6649 O   0  0  0  0  0  0  0  0  0  0  0  0
    8.6923   -0.4115   -3.2562 C   0  0  0  0  0  0  0  0  0  0  0  0
    8.6365   -1.4384   -3.6292 H   0  0  0  0  0  0  0  0  0  0  0  0
    9.6424    0.0192   -3.5857 H   0  0  0  0  0  0  0  0  0  0  0  0
    8.7197   -0.4635   -2.1600 H   0  0  0  0  0  0  0  0  0  0  0  0
    0.9219   -0.0263    0.3656 H   0  0  0  0  0  0  0  0  0  0  0  0
  1  7  1  0  0  0  0
  1  6  1  0  0  0  0
  2  1  2  0  0  0  0
  3  4  2  0  0  0  0
  3  2  1  0  0  0  0
  4  5  1  0  0  0  0
  5 10  1  0  0  0  0
  5  6  2  0  0  0  0
  6 31  1  0  0  0  0
  9  4  1  0  0  0  0
 12 11  3  0  0  0  0
 13 14  2  0  0  0  0
 14 20  1  0  0  0  0
 14 15  1  0  0  0  0
 15 27  1  0  0  0  0
 16 21  1  0  0  0  0
 16 15  2  0  0  0  0
 17 16  1  0  0  0  0
 18 17  2  0  0  0  0
 18 13  1  0  0  0  0
 19 13  1  0  0  0  0
 22 17  1  0  0  0  0
 23 18  1  0  0  0  0
 23 26  1  0  0  0  0
 24 23  2  0  0  0  0
 25 23  2  0  0  0  0
 26  8  1  0  0  0  0
 27 30  1  0  0  0  0
 28 27  1  0  0  0  0
 29 27  1  0  0  0  0
M  RAD  2   2   2   3   2
M  END
