Coordinates from ORCA-job /home/ubuntu/works/orca-Ph-N2-OTs-B3LYP-6-31G_dp-scan-d09-49-n400/Ph-N2-OTs-B3LYP-6-31G_dp-scan-d09-49-n400
 OpenBabel01281705563D

 31 31  0  0  0  0  0  0  0  0999 V2000
    0.7208    1.3850   -0.7475 C   0  0  0  0  0  0  0  0  0  0  0  0
    1.2358    2.2684   -1.6975 C   0  0  0  0  0  0  0  0  0  0  0  0
    1.7752    1.7484   -2.8749 C   0  0  0  0  0  0  0  0  0  0  0  0
    1.8019    0.3755   -3.1206 C   0  0  0  0  0  0  0  0  0  0  0  0
    1.2747   -0.4952   -2.1656 C   0  0  0  0  0  0  0  0  0  0  0  0
    0.7373    0.0069   -0.9778 C   0  0  0  0  0  0  0  0  0  0  0  0
    0.2998    1.7782    0.1734 H   0  0  0  0  0  0  0  0  0  0  0  0
    1.2307    3.3403   -1.5383 H   0  0  0  0  0  0  0  0  0  0  0  0
    2.2215    0.0122   -4.0528 H   0  0  0  0  0  0  0  0  0  0  0  0
    1.2848   -1.5657   -2.3514 H   0  0  0  0  0  0  0  0  0  0  0  0
    2.0945    2.3134   -7.0633 N   0  0  0  0  0  0  0  0  0  0  0  0
    1.2433    2.9807   -7.2901 N   0  0  0  0  0  0  0  0  0  0  0  0
    5.2863    1.7307   -5.0857 C   0  0  0  0  0  0  0  0  0  0  0  0
    6.2509    0.7318   -5.1847 C   0  0  0  0  0  0  0  0  0  0  0  0
    6.8387    0.1711   -4.0394 C   0  0  0  0  0  0  0  0  0  0  0  0
    6.4305    0.6357   -2.7812 C   0  0  0  0  0  0  0  0  0  0  0  0
    5.4657    1.6344   -2.6586 C   0  0  0  0  0  0  0  0  0  0  0  0
    4.9021    2.1727   -3.8166 C   0  0  0  0  0  0  0  0  0  0  0  0
    4.8399    2.1673   -5.9722 H   0  0  0  0  0  0  0  0  0  0  0  0
    6.5563    0.3829   -6.1677 H   0  0  0  0  0  0  0  0  0  0  0  0
    6.8749    0.2128   -1.8842 H   0  0  0  0  0  0  0  0  0  0  0  0
    5.1586    2.0021   -1.6859 H   0  0  0  0  0  0  0  0  0  0  0  0
    3.6616    3.4460   -3.6771 S   0  0  0  0  0  0  0  0  0  0  0  0
    2.2336    2.6006   -3.8863 O   0  0  0  0  0  0  0  0  0  0  0  0
    3.6999    4.3008   -4.8543 O   0  0  0  0  0  0  0  0  0  0  0  0
    3.6938    3.9882   -2.3216 O   0  0  0  0  0  0  0  0  0  0  0  0
    7.9087   -0.8862   -4.1632 C   0  0  0  0  0  0  0  0  0  0  0  0
    7.9415   -1.5299   -3.2790 H   0  0  0  0  0  0  0  0  0  0  0  0
    7.7472   -1.5178   -5.0420 H   0  0  0  0  0  0  0  0  0  0  0  0
    8.8997   -0.4274   -4.2701 H   0  0  0  0  0  0  0  0  0  0  0  0
    0.3291   -0.6730   -0.2356 H   0  0  0  0  0  0  0  0  0  0  0  0
  1  7  1  0  0  0  0
  2  8  1  0  0  0  0
  2  1  2  0  0  0  0
  3  2  1  0  0  0  0
  4  3  2  0  0  0  0
  4  5  1  0  0  0  0
  5  6  2  0  0  0  0
  6  1  1  0  0  0  0
  6 31  1  0  0  0  0
  9  4  1  0  0  0  0
 10  5  1  0  0  0  0
 12 11  3  0  0  0  0
 13 18  1  0  0  0  0
 14 13  2  0  0  0  0
 14 15  1  0  0  0  0
 15 16  2  0  0  0  0
 16 17  1  0  0  0  0
 16 21  1  0  0  0  0
 17 22  1  0  0  0  0
 18 23  1  0  0  0  0
 18 17  2  0  0  0  0
 19 13  1  0  0  0  0
 20 14  1  0  0  0  0
 23 26  2  0  0  0  0
 24 23  1  0  0  0  0
 24  3  1  0  0  0  0
 25 23  2  0  0  0  0
 27 15  1  0  0  0  0
 27 28  1  0  0  0  0
 29 27  1  0  0  0  0
 30 27  1  0  0  0  0
M  END
