Coordinates from ORCA-job /home/ubuntu/works/orca-Ph-N2-OTs-B3LYP-6-31G_dp-scan-d09-49-n400/Ph-N2-OTs-B3LYP-6-31G_dp-scan-d09-49-n400
 OpenBabel01281705563D

 31 30  0  0  0  0  0  0  0  0999 V2000
    1.5190    1.4228   -0.7738 C   0  0  0  0  0  0  0  0  0  0  0  0
    1.5122    1.7703   -2.1384 C   0  0  0  0  0  0  0  0  0  0  0  0
    0.6675    1.1976   -2.8755 C   0  0  0  0  0  0  0  0  0  0  0  0
   -0.3169    0.2609   -2.7251 C   0  0  0  0  0  0  0  0  0  0  0  0
   -0.3253   -0.1080   -1.3570 C   0  0  0  0  0  0  0  0  0  0  0  0
    0.5603    0.4544   -0.4195 C   0  0  0  0  0  0  0  0  0  0  0  0
    2.1970    1.8485   -0.0405 H   0  0  0  0  0  0  0  0  0  0  0  0
    2.7375    3.0037   -3.0783 H   0  0  0  0  0  0  0  0  0  0  0  0
   -0.9837   -0.1475   -3.4727 H   0  0  0  0  0  0  0  0  0  0  0  0
   -1.0494   -0.8516   -1.0319 H   0  0  0  0  0  0  0  0  0  0  0  0
   -0.2096    1.6111   -5.9311 N   0  0  0  0  0  0  0  0  0  0  0  0
   -0.1036    2.2268   -6.8426 N   0  0  0  0  0  0  0  0  0  0  0  0
    6.5845    2.5741   -4.3869 C   0  0  0  0  0  0  0  0  0  0  0  0
    7.6581    1.7469   -4.0620 C   0  0  0  0  0  0  0  0  0  0  0  0
    7.4760    0.3750   -3.8352 C   0  0  0  0  0  0  0  0  0  0  0  0
    6.1825   -0.1563   -3.9527 C   0  0  0  0  0  0  0  0  0  0  0  0
    5.0970    0.6546   -4.2771 C   0  0  0  0  0  0  0  0  0  0  0  0
    5.3082    2.0187   -4.4877 C   0  0  0  0  0  0  0  0  0  0  0  0
    6.7292    3.6315   -4.5807 H   0  0  0  0  0  0  0  0  0  0  0  0
    8.6557    2.1728   -3.9895 H   0  0  0  0  0  0  0  0  0  0  0  0
    6.0243   -1.2202   -3.7940 H   0  0  0  0  0  0  0  0  0  0  0  0
    4.1009    0.2388   -4.3861 H   0  0  0  0  0  0  0  0  0  0  0  0
    3.9236    3.0746   -4.8918 S   0  0  0  0  0  0  0  0  0  0  0  0
    2.8560    2.2416   -5.4511 O   0  0  0  0  0  0  0  0  0  0  0  0
    4.4264    4.2469   -5.5945 O   0  0  0  0  0  0  0  0  0  0  0  0
    3.4348    3.6117   -3.4366 O   0  0  0  0  0  0  0  0  0  0  0  0
    8.6407   -0.5093   -3.4581 C   0  0  0  0  0  0  0  0  0  0  0  0
    8.5520   -1.5025   -3.9084 H   0  0  0  0  0  0  0  0  0  0  0  0
    9.5922   -0.0748   -3.7773 H   0  0  0  0  0  0  0  0  0  0  0  0
    8.6914   -0.6490   -2.3708 H   0  0  0  0  0  0  0  0  0  0  0  0
    0.5011    0.1268    0.6154 H   0  0  0  0  0  0  0  0  0  0  0  0
  1  6  1  0  0  0  0
  1  7  1  0  0  0  0
  2  1  2  0  0  0  0
  3  4  2  0  0  0  0
  3  2  1  0  0  0  0
  4  5  1  0  0  0  0
  5 10  1  0  0  0  0
  5  6  2  0  0  0  0
  6 31  1  0  0  0  0
  9  4  1  0  0  0  0
 12 11  3  0  0  0  0
 13 14  1  0  0  0  0
 14 20  1  0  0  0  0
 14 15  2  0  0  0  0
 15 27  1  0  0  0  0
 16 15  1  0  0  0  0
 16 21  1  0  0  0  0
 17 16  2  0  0  0  0
 18 13  2  0  0  0  0
 18 17  1  0  0  0  0
 19 13  1  0  0  0  0
 22 17  1  0  0  0  0
 23 18  1  0  0  0  0
 23 26  1  0  0  0  0
 24 23  2  0  0  0  0
 25 23  2  0  0  0  0
 26  8  1  0  0  0  0
 27 30  1  0  0  0  0
 28 27  1  0  0  0  0
 29 27  1  0  0  0  0
M  RAD  2   2   2   3   2
M  END
