Coordinates from ORCA-job /home/ubuntu/works/orca-Ph-N2-OTs-B3LYP-6-31G_dp-scan-d09-49-n400/Ph-N2-OTs-B3LYP-6-31G_dp-scan-d09-49-n400
 OpenBabel01281705563D

 31 31  0  0  0  0  0  0  0  0999 V2000
    0.1780    0.8566   -0.8283 C   0  0  0  0  0  0  0  0  0  0  0  0
    0.9984    1.3102   -1.8733 C   0  0  0  0  0  0  0  0  0  0  0  0
    0.3377    1.4490   -3.0644 C   0  0  0  0  0  0  0  0  0  0  0  0
   -0.9832    1.2079   -3.3761 C   0  0  0  0  0  0  0  0  0  0  0  0
   -1.7539    0.7453   -2.3030 C   0  0  0  0  0  0  0  0  0  0  0  0
   -1.1736    0.5735   -1.0420 C   0  0  0  0  0  0  0  0  0  0  0  0
    0.6178    0.7257    0.1555 H   0  0  0  0  0  0  0  0  0  0  0  0
    2.0570    1.5444   -1.7442 H   0  0  0  0  0  0  0  0  0  0  0  0
   -1.3916    1.3614   -4.3671 H   0  0  0  0  0  0  0  0  0  0  0  0
   -2.8039    0.5227   -2.4650 H   0  0  0  0  0  0  0  0  0  0  0  0
    1.2458    2.0524   -4.4102 N   0  0  0  0  0  0  0  0  0  0  0  0
    1.1528    2.6002   -5.3799 N   0  0  0  0  0  0  0  0  0  0  0  0
    6.3011    2.0072   -4.9646 C   0  0  0  0  0  0  0  0  0  0  0  0
    7.5488    1.4870   -5.3031 C   0  0  0  0  0  0  0  0  0  0  0  0
    8.2103    0.5812   -4.4605 C   0  0  0  0  0  0  0  0  0  0  0  0
    7.5857    0.2086   -3.2616 C   0  0  0  0  0  0  0  0  0  0  0  0
    6.3381    0.7202   -2.9090 C   0  0  0  0  0  0  0  0  0  0  0  0
    5.7002    1.6179   -3.7664 C   0  0  0  0  0  0  0  0  0  0  0  0
    5.7963    2.7194   -5.6088 H   0  0  0  0  0  0  0  0  0  0  0  0
    8.0190    1.7911   -6.2352 H   0  0  0  0  0  0  0  0  0  0  0  0
    8.0857   -0.4889   -2.5933 H   0  0  0  0  0  0  0  0  0  0  0  0
    5.8626    0.4434   -1.9742 H   0  0  0  0  0  0  0  0  0  0  0  0
    4.0760    2.2541   -3.3456 S   0  0  0  0  0  0  0  0  0  0  0  0
    3.1283    1.1962   -3.9439 O   0  0  0  0  0  0  0  0  0  0  0  0
    3.9098    3.5612   -4.0095 O   0  0  0  0  0  0  0  0  0  0  0  0
    3.9798    2.2437   -1.8628 O   0  0  0  0  0  0  0  0  0  0  0  0
    9.5772    0.0475   -4.8201 C   0  0  0  0  0  0  0  0  0  0  0  0
    9.7495   -0.9413   -4.3844 H   0  0  0  0  0  0  0  0  0  0  0  0
    9.7036   -0.0323   -5.9045 H   0  0  0  0  0  0  0  0  0  0  0  0
   10.3696    0.7094   -4.4481 H   0  0  0  0  0  0  0  0  0  0  0  0
   -1.7832    0.2158   -0.2180 H   0  0  0  0  0  0  0  0  0  0  0  0
  1  7  1  0  0  0  0
  2  8  1  0  0  0  0
  2  1  2  0  0  0  0
  3  2  1  0  0  0  0
  4  3  2  0  0  0  0
  4  5  1  0  0  0  0
  5  6  2  0  0  0  0
  6  1  1  0  0  0  0
  6 31  1  0  0  0  0
  9  4  1  0  0  0  0
 10  5  1  0  0  0  0
 11  3  1  0  0  0  0
 12 11  2  0  0  0  0
 13 18  1  0  0  0  0
 14 13  2  0  0  0  0
 14 15  1  0  0  0  0
 15 16  2  0  0  0  0
 16 17  1  0  0  0  0
 16 21  1  0  0  0  0
 17 22  1  0  0  0  0
 18 23  1  0  0  0  0
 18 17  2  0  0  0  0
 19 13  1  0  0  0  0
 20 14  1  0  0  0  0
 23 26  1  0  0  0  0
 24 23  2  0  0  0  0
 25 23  2  0  0  0  0
 27 15  1  0  0  0  0
 27 30  1  0  0  0  0
 27 28  1  0  0  0  0
 29 27  1  0  0  0  0
M  RAD  2  12   2  26   2
M  END
