Coordinates from ORCA-job /home/ubuntu/works/orca-Ph-N2-OTs-B3LYP-6-31G_dp-scan-d09-49-n400/Ph-N2-OTs-B3LYP-6-31G_dp-scan-d09-49-n400
 OpenBabel01281705563D

 31 30  0  0  0  0  0  0  0  0999 V2000
    1.6749    1.2404   -1.2264 C   0  0  0  0  0  0  0  0  0  0  0  0
    1.3908    1.7017   -2.5352 C   0  0  0  0  0  0  0  0  0  0  0  0
    0.3112    1.2397   -3.0166 C   0  0  0  0  0  0  0  0  0  0  0  0
   -0.6970    0.3969   -2.6486 C   0  0  0  0  0  0  0  0  0  0  0  0
   -0.4062   -0.0624   -1.3437 C   0  0  0  0  0  0  0  0  0  0  0  0
    0.7487    0.3508   -0.6563 C   0  0  0  0  0  0  0  0  0  0  0  0
    2.5631    1.5490   -0.6816 H   0  0  0  0  0  0  0  0  0  0  0  0
    2.6081    2.8359   -3.3413 H   0  0  0  0  0  0  0  0  0  0  0  0
   -1.5712    0.1097   -3.2178 H   0  0  0  0  0  0  0  0  0  0  0  0
   -1.1028   -0.7509   -0.8720 H   0  0  0  0  0  0  0  0  0  0  0  0
   -0.2859    1.9513   -5.1464 N   0  0  0  0  0  0  0  0  0  0  0  0
   -0.0428    2.6262   -5.9879 N   0  0  0  0  0  0  0  0  0  0  0  0
    6.5674    2.5641   -4.3626 C   0  0  0  0  0  0  0  0  0  0  0  0
    7.6528    1.7941   -3.9498 C   0  0  0  0  0  0  0  0  0  0  0  0
    7.5230    0.4150   -3.7277 C   0  0  0  0  0  0  0  0  0  0  0  0
    6.2714   -0.1810   -3.9409 C   0  0  0  0  0  0  0  0  0  0  0  0
    5.1740    0.5732   -4.3534 C   0  0  0  0  0  0  0  0  0  0  0  0
    5.3315    1.9450   -4.5573 C   0  0  0  0  0  0  0  0  0  0  0  0
    6.6737    3.6268   -4.5532 H   0  0  0  0  0  0  0  0  0  0  0  0
    8.6192    2.2706   -3.8040 H   0  0  0  0  0  0  0  0  0  0  0  0
    6.1552   -1.2513   -3.7877 H   0  0  0  0  0  0  0  0  0  0  0  0
    4.2112    0.1075   -4.5359 H   0  0  0  0  0  0  0  0  0  0  0  0
    3.9291    2.9297   -5.0697 S   0  0  0  0  0  0  0  0  0  0  0  0
    2.9419    2.0369   -5.6842 O   0  0  0  0  0  0  0  0  0  0  0  0
    4.4264    4.1086   -5.7674 O   0  0  0  0  0  0  0  0  0  0  0  0
    3.3241    3.4623   -3.6650 O   0  0  0  0  0  0  0  0  0  0  0  0
    8.6990   -0.4058   -3.2545 C   0  0  0  0  0  0  0  0  0  0  0  0
    8.6404   -1.4361   -3.6175 H   0  0  0  0  0  0  0  0  0  0  0  0
    9.6472    0.0213   -3.5940 H   0  0  0  0  0  0  0  0  0  0  0  0
    8.7335   -0.4473   -2.1581 H   0  0  0  0  0  0  0  0  0  0  0  0
    0.9276   -0.0310    0.3452 H   0  0  0  0  0  0  0  0  0  0  0  0
  1  7  1  0  0  0  0
  1  6  1  0  0  0  0
  2  1  2  0  0  0  0
  3  4  2  0  0  0  0
  3  2  1  0  0  0  0
  4  5  1  0  0  0  0
  5 10  1  0  0  0  0
  5  6  2  0  0  0  0
  6 31  1  0  0  0  0
  9  4  1  0  0  0  0
 12 11  3  0  0  0  0
 13 14  1  0  0  0  0
 14 20  1  0  0  0  0
 14 15  2  0  0  0  0
 15 27  1  0  0  0  0
 16 21  1  0  0  0  0
 16 15  1  0  0  0  0
 17 16  2  0  0  0  0
 18 13  2  0  0  0  0
 18 17  1  0  0  0  0
 19 13  1  0  0  0  0
 22 17  1  0  0  0  0
 23 18  1  0  0  0  0
 23 26  1  0  0  0  0
 24 23  2  0  0  0  0
 25 23  2  0  0  0  0
 26  8  1  0  0  0  0
 27 30  1  0  0  0  0
 28 27  1  0  0  0  0
 29 27  1  0  0  0  0
M  RAD  2   2   2   3   2
M  END
