Coordinates from ORCA-job /home/ubuntu/works/orca-Ph-N2-OTs-B3LYP-6-31G_dp-scan-d09-49-n400/Ph-N2-OTs-B3LYP-6-31G_dp-scan-d09-49-n400
 OpenBabel01281705563D

 31 32  0  0  1  0  0  0  0  0999 V2000
    2.0301    0.3227   -2.5319 C   0  0  0  0  0  0  0  0  0  0  0  0
    1.7125    1.3238   -3.5939 C   0  0  1  0  0  0  0  0  0  0  0  0
    0.3060    1.9096   -3.4505 C   0  0  0  0  0  0  0  0  0  0  0  0
   -0.3937    1.7841   -2.1684 C   0  0  0  0  0  0  0  0  0  0  0  0
    0.0797    0.9710   -1.1994 C   0  0  0  0  0  0  0  0  0  0  0  0
    1.2881    0.1958   -1.4145 C   0  0  0  0  0  0  0  0  0  0  0  0
    2.9292   -0.2672   -2.6823 H   0  0  0  0  0  0  0  0  0  0  0  0
    1.8415    0.9266   -4.6038 H   0  0  0  0  0  0  0  0  0  0  0  0
   -1.3083    2.3570   -2.0478 H   0  0  0  0  0  0  0  0  0  0  0  0
   -0.4525    0.8790   -0.2582 H   0  0  0  0  0  0  0  0  0  0  0  0
   -0.1376    2.4637   -4.3177 N   0  0  0  0  0  0  0  0  0  0  0  0
   -0.5884    3.0329   -5.2158 N   0  0  0  0  0  0  0  0  0  0  0  0
    5.4199    0.6393   -4.9562 C   0  0  0  0  0  0  0  0  0  0  0  0
    6.5472   -0.1046   -4.6090 C   0  0  0  0  0  0  0  0  0  0  0  0
    7.4122    0.3211   -3.5912 C   0  0  0  0  0  0  0  0  0  0  0  0
    7.1269    1.5270   -2.9313 C   0  0  0  0  0  0  0  0  0  0  0  0
    6.0078    2.2851   -3.2642 C   0  0  0  0  0  0  0  0  0  0  0  0
    5.1574    1.8281   -4.2741 C   0  0  0  0  0  0  0  0  0  0  0  0
    4.7621    0.3208   -5.7580 H   0  0  0  0  0  0  0  0  0  0  0  0
    6.7614   -1.0261   -5.1438 H   0  0  0  0  0  0  0  0  0  0  0  0
    7.7957    1.8797   -2.1500 H   0  0  0  0  0  0  0  0  0  0  0  0
    5.8017    3.2253   -2.7638 H   0  0  0  0  0  0  0  0  0  0  0  0
    3.7119    2.7884   -4.7008 S   0  0  0  0  0  0  0  0  0  0  0  0
    3.1483    2.2485   -5.9409 O   0  0  0  0  0  0  0  0  0  0  0  0
    4.0230    4.2027   -4.5487 O   0  0  0  0  0  0  0  0  0  0  0  0
    2.6781    2.4569   -3.4655 O   0  0  0  0  0  0  0  0  0  0  0  0
    8.6140   -0.5053   -3.2012 C   0  0  0  0  0  0  0  0  0  0  0  0
    8.3631   -1.2031   -2.3921 H   0  0  0  0  0  0  0  0  0  0  0  0
    8.9814   -1.0999   -4.0428 H   0  0  0  0  0  0  0  0  0  0  0  0
    9.4340    0.1247   -2.8442 H   0  0  0  0  0  0  0  0  0  0  0  0
    1.5870   -0.5168   -0.6498 H   0  0  0  0  0  0  0  0  0  0  0  0
  1  6  2  0  0  0  0
  2  8  1  6  0  0  0
  2 26  1  0  0  0  0
  2  3  1  0  0  0  0
  2  1  1  0  0  0  0
  3  4  2  0  0  0  0
  4  9  1  0  0  0  0
  4  5  1  0  0  0  0
  5 10  1  0  0  0  0
  6  5  1  0  0  0  0
  6 31  1  0  0  0  0
  7  1  1  0  0  0  0
 11  3  1  0  0  0  0
 12 11  1  0  0  0  0
 13 14  2  0  0  0  0
 13 18  1  0  0  0  0
 14 15  1  0  0  0  0
 15 27  1  0  0  0  0
 15 16  2  0  0  0  0
 16 21  1  0  0  0  0
 17 16  1  0  0  0  0
 17 22  1  0  0  0  0
 18 17  2  0  0  0  0
 19 13  1  0  0  0  0
 20 14  1  0  0  0  0
 23 25  2  0  0  0  0
 23 18  1  0  0  0  0
 23 26  1  0  0  0  0
 24 23  2  0  0  0  0
 27 30  1  0  0  0  0
 27 28  1  0  0  0  0
 29 27  1  0  0  0  0
M  RAD  3   5   2  11   2  12   3
M  END
