Coordinates from ORCA-job /home/ubuntu/works/orca-Ph-N2-OTs-B3LYP-6-31G_dp-scan-d09-49-n400/Ph-N2-OTs-B3LYP-6-31G_dp-scan-d09-49-n400
 OpenBabel01281705563D

 31 32  0  0  1  0  0  0  0  0999 V2000
    1.8054    0.3085   -2.0651 C   0  0  0  0  0  0  0  0  0  0  0  0
    1.7518    1.1335   -3.3035 C   0  0  1  0  0  0  0  0  0  0  0  0
    0.3948    1.7043   -3.4690 C   0  0  1  0  0  0  0  0  0  0  0  0
   -0.5699    1.8328   -2.4258 C   0  0  0  0  0  0  0  0  0  0  0  0
   -0.3318    1.1975   -1.2443 C   0  0  0  0  0  0  0  0  0  0  0  0
    0.8565    0.3912   -1.1012 C   0  0  0  0  0  0  0  0  0  0  0  0
    2.6791   -0.3237   -1.9408 H   0  0  0  0  0  0  0  0  0  0  0  0
    2.1009    0.6117   -4.1946 H   0  0  0  0  0  0  0  0  0  0  0  0
   -1.4696    2.4147   -2.5982 H   0  0  0  0  0  0  0  0  0  0  0  0
   -1.0411    1.2690   -0.4270 H   0  0  0  0  0  0  0  0  0  0  0  0
    0.0785    2.2530   -4.7414 N   0  0  0  0  0  0  0  0  0  0  0  0
   -0.1684    2.6859   -5.7572 N   0  0  0  0  0  0  0  0  0  0  0  0
    5.4561    0.7154   -4.9683 C   0  0  0  0  0  0  0  0  0  0  0  0
    6.6361   -0.0069   -4.7910 C   0  0  0  0  0  0  0  0  0  0  0  0
    7.5653    0.3521   -3.8045 C   0  0  0  0  0  0  0  0  0  0  0  0
    7.2885    1.4691   -3.0003 C   0  0  0  0  0  0  0  0  0  0  0  0
    6.1169    2.2038   -3.1633 C   0  0  0  0  0  0  0  0  0  0  0  0
    5.2035    1.8146   -4.1465 C   0  0  0  0  0  0  0  0  0  0  0  0
    4.7474    0.4511   -5.7459 H   0  0  0  0  0  0  0  0  0  0  0  0
    6.8410   -0.8581   -5.4353 H   0  0  0  0  0  0  0  0  0  0  0  0
    8.0061    1.7711   -2.2415 H   0  0  0  0  0  0  0  0  0  0  0  0
    5.9177    3.0776   -2.5518 H   0  0  0  0  0  0  0  0  0  0  0  0
    3.6926    2.7489   -4.3559 S   0  0  0  0  0  0  0  0  0  0  0  0
    3.0474    2.2999   -5.5977 O   0  0  0  0  0  0  0  0  0  0  0  0
    3.9815    4.1598   -4.1253 O   0  0  0  0  0  0  0  0  0  0  0  0
    2.7846    2.2681   -3.0955 O   0  0  0  0  0  0  0  0  0  0  0  0
    8.8266   -0.4529   -3.6009 C   0  0  0  0  0  0  0  0  0  0  0  0
    8.6583   -1.2723   -2.8904 H   0  0  0  0  0  0  0  0  0  0  0  0
    9.1716   -0.9000   -4.5379 H   0  0  0  0  0  0  0  0  0  0  0  0
    9.6357    0.1646   -3.1996 H   0  0  0  0  0  0  0  0  0  0  0  0
    0.9767   -0.1932   -0.1921 H   0  0  0  0  0  0  0  0  0  0  0  0
  1  7  1  0  0  0  0
  1  6  2  0  0  0  0
  2  8  1  6  0  0  0
  2 26  1  0  0  0  0
  2  1  1  0  0  0  0
  3 11  1  1  0  0  0
  3  2  1  0  0  0  0
  3  4  1  0  0  0  0
  4  5  2  0  0  0  0
  5  6  1  0  0  0  0
  5 10  1  0  0  0  0
  6 31  1  0  0  0  0
  9  4  1  0  0  0  0
 12 11  1  0  0  0  0
 13 14  2  0  0  0  0
 13 18  1  0  0  0  0
 14 15  1  0  0  0  0
 15 27  1  0  0  0  0
 15 16  2  0  0  0  0
 16 21  1  0  0  0  0
 17 16  1  0  0  0  0
 17 22  1  0  0  0  0
 18 17  2  0  0  0  0
 19 13  1  0  0  0  0
 20 14  1  0  0  0  0
 23 18  1  0  0  0  0
 23 25  2  0  0  0  0
 23 26  1  0  0  0  0
 24 23  2  0  0  0  0
 27 30  1  0  0  0  0
 27 28  1  0  0  0  0
 29 27  1  0  0  0  0
M  RAD  3   3   2  11   2  12   3
M  END
