Coordinates from ORCA-job /home/ubuntu/works/orca-Ph-N2-OTs-B3LYP-6-31G_dp-scan-d09-49-n400/Ph-N2-OTs-B3LYP-6-31G_dp-scan-d09-49-n400
 OpenBabel01281705563D

 31 31  0  0  0  0  0  0  0  0999 V2000
    0.6699    1.3984   -0.7455 C   0  0  0  0  0  0  0  0  0  0  0  0
    1.1896    2.2635   -1.7095 C   0  0  0  0  0  0  0  0  0  0  0  0
    1.7627    1.7204   -2.8602 C   0  0  0  0  0  0  0  0  0  0  0  0
    1.8193    0.3419   -3.0657 C   0  0  0  0  0  0  0  0  0  0  0  0
    1.2876   -0.5109   -2.0970 C   0  0  0  0  0  0  0  0  0  0  0  0
    0.7159    0.0147   -0.9357 C   0  0  0  0  0  0  0  0  0  0  0  0
    0.2229    1.8098    0.1550 H   0  0  0  0  0  0  0  0  0  0  0  0
    1.1625    3.3392   -1.5814 H   0  0  0  0  0  0  0  0  0  0  0  0
    2.2648   -0.0406   -3.9780 H   0  0  0  0  0  0  0  0  0  0  0  0
    1.3213   -1.5860   -2.2514 H   0  0  0  0  0  0  0  0  0  0  0  0
    2.2069    2.5139   -7.2049 N   0  0  0  0  0  0  0  0  0  0  0  0
    1.2854    3.1089   -7.3387 N   0  0  0  0  0  0  0  0  0  0  0  0
    5.2671    1.7028   -5.0903 C   0  0  0  0  0  0  0  0  0  0  0  0
    6.2397    0.7121   -5.1945 C   0  0  0  0  0  0  0  0  0  0  0  0
    6.8491    0.1667   -4.0531 C   0  0  0  0  0  0  0  0  0  0  0  0
    6.4542    0.6378   -2.7931 C   0  0  0  0  0  0  0  0  0  0  0  0
    5.4815    1.6281   -2.6650 C   0  0  0  0  0  0  0  0  0  0  0  0
    4.8970    2.1517   -3.8193 C   0  0  0  0  0  0  0  0  0  0  0  0
    4.8036    2.1268   -5.9743 H   0  0  0  0  0  0  0  0  0  0  0  0
    6.5341    0.3575   -6.1788 H   0  0  0  0  0  0  0  0  0  0  0  0
    6.9151    0.2265   -1.8991 H   0  0  0  0  0  0  0  0  0  0  0  0
    5.1837    2.0006   -1.6912 H   0  0  0  0  0  0  0  0  0  0  0  0
    3.6460    3.4138   -3.6728 S   0  0  0  0  0  0  0  0  0  0  0  0
    2.2269    2.5538   -3.8850 O   0  0  0  0  0  0  0  0  0  0  0  0
    3.6762    4.2742   -4.8462 O   0  0  0  0  0  0  0  0  0  0  0  0
    3.6738    3.9507   -2.3151 O   0  0  0  0  0  0  0  0  0  0  0  0
    7.9275   -0.8814   -4.1830 C   0  0  0  0  0  0  0  0  0  0  0  0
    7.9704   -1.5250   -3.2992 H   0  0  0  0  0  0  0  0  0  0  0  0
    7.7667   -1.5140   -5.0612 H   0  0  0  0  0  0  0  0  0  0  0  0
    8.9140   -0.4141   -4.2948 H   0  0  0  0  0  0  0  0  0  0  0  0
    0.3041   -0.6511   -0.1829 H   0  0  0  0  0  0  0  0  0  0  0  0
  1  7  1  0  0  0  0
  2  8  1  0  0  0  0
  2  1  2  0  0  0  0
  3  2  1  0  0  0  0
  4  3  2  0  0  0  0
  4  5  1  0  0  0  0
  5  6  2  0  0  0  0
  6  1  1  0  0  0  0
  6 31  1  0  0  0  0
  9  4  1  0  0  0  0
 10  5  1  0  0  0  0
 12 11  3  0  0  0  0
 13 18  1  0  0  0  0
 14 13  2  0  0  0  0
 14 15  1  0  0  0  0
 15 16  2  0  0  0  0
 16 17  1  0  0  0  0
 16 21  1  0  0  0  0
 17 22  1  0  0  0  0
 18 23  1  0  0  0  0
 18 17  2  0  0  0  0
 19 13  1  0  0  0  0
 20 14  1  0  0  0  0
 23 26  2  0  0  0  0
 24 23  1  0  0  0  0
 24  3  1  0  0  0  0
 25 23  2  0  0  0  0
 27 15  1  0  0  0  0
 27 28  1  0  0  0  0
 29 27  1  0  0  0  0
 30 27  1  0  0  0  0
M  END
