Coordinates from ORCA-job /home/ubuntu/works/orca-Ph-N2-OTs-B3LYP-6-31G_dp-scan-d09-49-n400/Ph-N2-OTs-B3LYP-6-31G_dp-scan-d09-49-n400
 OpenBabel01281705563D

 31 30  0  0  0  0  0  0  0  0999 V2000
    0.5824    1.0256   -0.8366 C   0  0  0  0  0  0  0  0  0  0  0  0
    1.1108    1.5217   -2.0579 C   0  0  0  0  0  0  0  0  0  0  0  0
    0.1666    1.4536   -2.9919 C   0  0  0  0  0  0  0  0  0  0  0  0
   -1.1258    1.0462   -3.1040 C   0  0  0  0  0  0  0  0  0  0  0  0
   -1.5793    0.5609   -1.8607 C   0  0  0  0  0  0  0  0  0  0  0  0
   -0.7302    0.5560   -0.7475 C   0  0  0  0  0  0  0  0  0  0  0  0
    1.2397    1.0183    0.0283 H   0  0  0  0  0  0  0  0  0  0  0  0
    2.1829    1.8989   -2.1765 H   0  0  0  0  0  0  0  0  0  0  0  0
   -1.7327    1.0763   -3.9986 H   0  0  0  0  0  0  0  0  0  0  0  0
   -2.5983    0.1929   -1.7918 H   0  0  0  0  0  0  0  0  0  0  0  0
    0.7533    2.2404   -4.8178 N   0  0  0  0  0  0  0  0  0  0  0  0
    0.6836    2.7713   -5.7852 N   0  0  0  0  0  0  0  0  0  0  0  0
    6.5628    2.2945   -4.7737 C   0  0  0  0  0  0  0  0  0  0  0  0
    7.8499    1.7657   -4.8815 C   0  0  0  0  0  0  0  0  0  0  0  0
    8.1856    0.5465   -4.2790 C   0  0  0  0  0  0  0  0  0  0  0  0
    7.1908   -0.1387   -3.5645 C   0  0  0  0  0  0  0  0  0  0  0  0
    5.9021    0.3773   -3.4490 C   0  0  0  0  0  0  0  0  0  0  0  0
    5.5930    1.5962   -4.0563 C   0  0  0  0  0  0  0  0  0  0  0  0
    6.2975    3.2388   -5.2360 H   0  0  0  0  0  0  0  0  0  0  0  0
    8.6054    2.3107   -5.4434 H   0  0  0  0  0  0  0  0  0  0  0  0
    7.4300   -1.0906   -3.0961 H   0  0  0  0  0  0  0  0  0  0  0  0
    5.1397   -0.1614   -2.8957 H   0  0  0  0  0  0  0  0  0  0  0  0
    3.9286    2.2658   -3.9342 S   0  0  0  0  0  0  0  0  0  0  0  0
    3.0167    1.2256   -4.5093 O   0  0  0  0  0  0  0  0  0  0  0  0
    3.9210    3.5555   -4.6507 O   0  0  0  0  0  0  0  0  0  0  0  0
    3.6828    2.3976   -2.4396 O   0  0  0  0  0  0  0  0  0  0  0  0
    9.5899   -0.0027   -4.3748 C   0  0  0  0  0  0  0  0  0  0  0  0
    9.6062   -1.0896   -4.2455 H   0  0  0  0  0  0  0  0  0  0  0  0
   10.0461    0.2309   -5.3426 H   0  0  0  0  0  0  0  0  0  0  0  0
   10.2375    0.4283   -3.6004 H   0  0  0  0  0  0  0  0  0  0  0  0
   -1.0990    0.1783    0.2007 H   0  0  0  0  0  0  0  0  0  0  0  0
  1  6  1  0  0  0  0
  1  7  1  0  0  0  0
  2  1  2  0  0  0  0
  3  2  1  0  0  0  0
  4  3  2  0  0  0  0
  4  5  1  0  0  0  0
  5 10  1  0  0  0  0
  5  6  2  0  0  0  0
  6 31  1  0  0  0  0
  8  2  1  0  0  0  0
  9  4  1  0  0  0  0
 12 11  3  0  0  0  0
 13 18  1  0  0  0  0
 14 13  2  0  0  0  0
 14 15  1  0  0  0  0
 15 16  2  0  0  0  0
 16 17  1  0  0  0  0
 16 21  1  0  0  0  0
 17 22  1  0  0  0  0
 18 23  1  0  0  0  0
 18 17  2  0  0  0  0
 19 13  1  0  0  0  0
 20 14  1  0  0  0  0
 23 26  1  0  0  0  0
 24 23  2  0  0  0  0
 25 23  2  0  0  0  0
 27 15  1  0  0  0  0
 27 28  1  0  0  0  0
 27 30  1  0  0  0  0
 29 27  1  0  0  0  0
M  RAD  2   3   2  26   2
M  END
