Coordinates from ORCA-job /home/ubuntu/works/orca-Ph-N2-OTs-B3LYP-6-31G_dp-scan-d09-49-n400/Ph-N2-OTs-B3LYP-6-31G_dp-scan-d09-49-n400
 OpenBabel01281705563D

 31 30  0  0  0  0  0  0  0  0999 V2000
    1.5466    1.3904   -0.8703 C   0  0  0  0  0  0  0  0  0  0  0  0
    1.4546    1.7581   -2.2266 C   0  0  0  0  0  0  0  0  0  0  0  0
    0.5533    1.2080   -2.9122 C   0  0  0  0  0  0  0  0  0  0  0  0
   -0.4296    0.2805   -2.7073 C   0  0  0  0  0  0  0  0  0  0  0  0
   -0.3530   -0.1083   -1.3474 C   0  0  0  0  0  0  0  0  0  0  0  0
    0.6014    0.4295   -0.4642 C   0  0  0  0  0  0  0  0  0  0  0  0
    2.2795    1.7963   -0.1796 H   0  0  0  0  0  0  0  0  0  0  0  0
    2.6943    2.9610   -3.1626 H   0  0  0  0  0  0  0  0  0  0  0  0
   -1.1506   -0.1084   -3.4142 H   0  0  0  0  0  0  0  0  0  0  0  0
   -1.0644   -0.8469   -0.9853 H   0  0  0  0  0  0  0  0  0  0  0  0
   -0.2647    1.7543   -5.7519 N   0  0  0  0  0  0  0  0  0  0  0  0
   -0.1317    2.3915   -6.6448 N   0  0  0  0  0  0  0  0  0  0  0  0
    6.5883    2.5679   -4.3802 C   0  0  0  0  0  0  0  0  0  0  0  0
    7.6676    1.7582   -4.0318 C   0  0  0  0  0  0  0  0  0  0  0  0
    7.5027    0.3832   -3.8092 C   0  0  0  0  0  0  0  0  0  0  0  0
    6.2211   -0.1688   -3.9554 C   0  0  0  0  0  0  0  0  0  0  0  0
    5.1297    0.6247   -4.3031 C   0  0  0  0  0  0  0  0  0  0  0  0
    5.3234    1.9919   -4.5089 C   0  0  0  0  0  0  0  0  0  0  0  0
    6.7202    3.6275   -4.5710 H   0  0  0  0  0  0  0  0  0  0  0  0
    8.6564    2.2002   -3.9376 H   0  0  0  0  0  0  0  0  0  0  0  0
    6.0768   -1.2353   -3.8006 H   0  0  0  0  0  0  0  0  0  0  0  0
    4.1431    0.1929   -4.4344 H   0  0  0  0  0  0  0  0  0  0  0  0
    3.9306    3.0250   -4.9422 S   0  0  0  0  0  0  0  0  0  0  0  0
    2.8834    2.1735   -5.5120 O   0  0  0  0  0  0  0  0  0  0  0  0
    4.4285    4.1996   -5.6449 O   0  0  0  0  0  0  0  0  0  0  0  0
    3.4103    3.5616   -3.4977 O   0  0  0  0  0  0  0  0  0  0  0  0
    8.6735   -0.4811   -3.4058 C   0  0  0  0  0  0  0  0  0  0  0  0
    8.5875   -1.4906   -3.8186 H   0  0  0  0  0  0  0  0  0  0  0  0
    9.6214   -0.0541   -3.7455 H   0  0  0  0  0  0  0  0  0  0  0  0
    8.7308   -0.5796   -2.3142 H   0  0  0  0  0  0  0  0  0  0  0  0
    0.6084    0.0880    0.5679 H   0  0  0  0  0  0  0  0  0  0  0  0
  1  6  1  0  0  0  0
  1  7  1  0  0  0  0
  2  1  2  0  0  0  0
  3  4  2  0  0  0  0
  3  2  1  0  0  0  0
  4  5  1  0  0  0  0
  5 10  1  0  0  0  0
  5  6  2  0  0  0  0
  6 31  1  0  0  0  0
  9  4  1  0  0  0  0
 12 11  3  0  0  0  0
 13 14  1  0  0  0  0
 14 20  1  0  0  0  0
 14 15  2  0  0  0  0
 15 27  1  0  0  0  0
 16 15  1  0  0  0  0
 16 21  1  0  0  0  0
 17 16  2  0  0  0  0
 18 13  2  0  0  0  0
 18 17  1  0  0  0  0
 19 13  1  0  0  0  0
 22 17  1  0  0  0  0
 23 18  1  0  0  0  0
 23 26  1  0  0  0  0
 24 23  2  0  0  0  0
 25 23  2  0  0  0  0
 26  8  1  0  0  0  0
 27 30  1  0  0  0  0
 28 27  1  0  0  0  0
 29 27  1  0  0  0  0
M  RAD  2   2   2   3   2
M  END
