Coordinates from ORCA-job /home/ubuntu/works/orca-Ph-N2-OTs-B3LYP-6-31G_dp-scan-d09-49-n400/Ph-N2-OTs-B3LYP-6-31G_dp-scan-d09-49-n400
 OpenBabel01281705563D

 31 31  0  0  0  0  0  0  0  0999 V2000
    0.7144    1.3876   -0.7433 C   0  0  0  0  0  0  0  0  0  0  0  0
    1.2292    2.2672   -1.6969 C   0  0  0  0  0  0  0  0  0  0  0  0
    1.7735    1.7428   -2.8703 C   0  0  0  0  0  0  0  0  0  0  0  0
    1.8053    0.3686   -3.1079 C   0  0  0  0  0  0  0  0  0  0  0  0
    1.2783   -0.4985   -2.1495 C   0  0  0  0  0  0  0  0  0  0  0  0
    0.7360    0.0082   -0.9659 C   0  0  0  0  0  0  0  0  0  0  0  0
    0.2898    1.7847    0.1743 H   0  0  0  0  0  0  0  0  0  0  0  0
    1.2203    3.3399   -1.5437 H   0  0  0  0  0  0  0  0  0  0  0  0
    2.2283    0.0008   -4.0368 H   0  0  0  0  0  0  0  0  0  0  0  0
    1.2925   -1.5699   -2.3295 H   0  0  0  0  0  0  0  0  0  0  0  0
    2.1062    2.3402   -7.0937 N   0  0  0  0  0  0  0  0  0  0  0  0
    1.2557    3.0098   -7.3159 N   0  0  0  0  0  0  0  0  0  0  0  0
    5.2884    1.7318   -5.0880 C   0  0  0  0  0  0  0  0  0  0  0  0
    6.2541    0.7338   -5.1874 C   0  0  0  0  0  0  0  0  0  0  0  0
    6.8395    0.1705   -4.0423 C   0  0  0  0  0  0  0  0  0  0  0  0
    6.4283    0.6316   -2.7838 C   0  0  0  0  0  0  0  0  0  0  0  0
    5.4625    1.6292   -2.6607 C   0  0  0  0  0  0  0  0  0  0  0  0
    4.9011    2.1701   -3.8186 C   0  0  0  0  0  0  0  0  0  0  0  0
    4.8438    2.1704   -5.9744 H   0  0  0  0  0  0  0  0  0  0  0  0
    6.5620    0.3879   -6.1707 H   0  0  0  0  0  0  0  0  0  0  0  0
    6.8710    0.2067   -1.8869 H   0  0  0  0  0  0  0  0  0  0  0  0
    5.1532    1.9943   -1.6877 H   0  0  0  0  0  0  0  0  0  0  0  0
    3.6581    3.4407   -3.6788 S   0  0  0  0  0  0  0  0  0  0  0  0
    2.2319    2.5913   -3.8848 O   0  0  0  0  0  0  0  0  0  0  0  0
    3.6919    4.2938   -4.8572 O   0  0  0  0  0  0  0  0  0  0  0  0
    3.6906    3.9846   -2.3239 O   0  0  0  0  0  0  0  0  0  0  0  0
    7.9106   -0.8858   -4.1663 C   0  0  0  0  0  0  0  0  0  0  0  0
    7.9403   -1.5331   -3.2846 H   0  0  0  0  0  0  0  0  0  0  0  0
    7.7529   -1.5138   -5.0483 H   0  0  0  0  0  0  0  0  0  0  0  0
    8.9018   -0.4259   -4.2673 H   0  0  0  0  0  0  0  0  0  0  0  0
    0.3280   -0.6689   -0.2210 H   0  0  0  0  0  0  0  0  0  0  0  0
  1  7  1  0  0  0  0
  2  8  1  0  0  0  0
  2  1  2  0  0  0  0
  3  2  1  0  0  0  0
  4  3  2  0  0  0  0
  4  5  1  0  0  0  0
  5  6  2  0  0  0  0
  6  1  1  0  0  0  0
  6 31  1  0  0  0  0
  9  4  1  0  0  0  0
 10  5  1  0  0  0  0
 12 11  3  0  0  0  0
 13 18  1  0  0  0  0
 14 13  2  0  0  0  0
 14 15  1  0  0  0  0
 15 16  2  0  0  0  0
 16 17  1  0  0  0  0
 16 21  1  0  0  0  0
 17 22  1  0  0  0  0
 18 23  1  0  0  0  0
 18 17  2  0  0  0  0
 19 13  1  0  0  0  0
 20 14  1  0  0  0  0
 23 26  2  0  0  0  0
 24 23  1  0  0  0  0
 24  3  1  0  0  0  0
 25 23  2  0  0  0  0
 27 15  1  0  0  0  0
 27 28  1  0  0  0  0
 29 27  1  0  0  0  0
 30 27  1  0  0  0  0
M  END
