Coordinates from ORCA-job /home/ubuntu/works/orca-Ph-N2-OTs-B3LYP-6-31G_dp-scan-d09-49-n400/Ph-N2-OTs-B3LYP-6-31G_dp-scan-d09-49-n400
 OpenBabel01281705563D

 31 30  0  0  0  0  0  0  0  0999 V2000
    1.5560    1.3873   -0.8679 C   0  0  0  0  0  0  0  0  0  0  0  0
    1.4646    1.7574   -2.2238 C   0  0  0  0  0  0  0  0  0  0  0  0
    0.5626    1.2073   -2.9090 C   0  0  0  0  0  0  0  0  0  0  0  0
   -0.4208    0.2798   -2.7062 C   0  0  0  0  0  0  0  0  0  0  0  0
   -0.3437   -0.1106   -1.3465 C   0  0  0  0  0  0  0  0  0  0  0  0
    0.6107    0.4259   -0.4630 C   0  0  0  0  0  0  0  0  0  0  0  0
    2.2888    1.7920   -0.1763 H   0  0  0  0  0  0  0  0  0  0  0  0
    2.6980    2.9646   -3.1628 H   0  0  0  0  0  0  0  0  0  0  0  0
   -1.1419   -0.1081   -3.4134 H   0  0  0  0  0  0  0  0  0  0  0  0
   -1.0550   -0.8496   -0.9849 H   0  0  0  0  0  0  0  0  0  0  0  0
   -0.2679    1.7539   -5.7663 N   0  0  0  0  0  0  0  0  0  0  0  0
   -0.1382    2.3919   -6.6592 N   0  0  0  0  0  0  0  0  0  0  0  0
    6.5854    2.5686   -4.3792 C   0  0  0  0  0  0  0  0  0  0  0  0
    7.6631    1.7577   -4.0287 C   0  0  0  0  0  0  0  0  0  0  0  0
    7.4962    0.3829   -3.8062 C   0  0  0  0  0  0  0  0  0  0  0  0
    6.2143   -0.1677   -3.9547 C   0  0  0  0  0  0  0  0  0  0  0  0
    5.1245    0.6270   -4.3047 C   0  0  0  0  0  0  0  0  0  0  0  0
    5.3201    1.9940   -4.5103 C   0  0  0  0  0  0  0  0  0  0  0  0
    6.7189    3.6280   -4.5699 H   0  0  0  0  0  0  0  0  0  0  0  0
    8.6522    2.1986   -3.9326 H   0  0  0  0  0  0  0  0  0  0  0  0
    6.0685   -1.2340   -3.8001 H   0  0  0  0  0  0  0  0  0  0  0  0
    4.1376    0.1964   -4.4378 H   0  0  0  0  0  0  0  0  0  0  0  0
    3.9293    3.0288   -4.9463 S   0  0  0  0  0  0  0  0  0  0  0  0
    2.8819    2.1780   -5.5166 O   0  0  0  0  0  0  0  0  0  0  0  0
    4.4297    4.2021   -5.6495 O   0  0  0  0  0  0  0  0  0  0  0  0
    3.4084    3.5687   -3.5033 O   0  0  0  0  0  0  0  0  0  0  0  0
    8.6653   -0.4827   -3.4005 C   0  0  0  0  0  0  0  0  0  0  0  0
    8.5795   -1.4918   -3.8143 H   0  0  0  0  0  0  0  0  0  0  0  0
    9.6144   -0.0562   -3.7374 H   0  0  0  0  0  0  0  0  0  0  0  0
    8.7196   -0.5822   -2.3088 H   0  0  0  0  0  0  0  0  0  0  0  0
    0.6176    0.0829    0.5686 H   0  0  0  0  0  0  0  0  0  0  0  0
  1  6  1  0  0  0  0
  1  7  1  0  0  0  0
  2  1  2  0  0  0  0
  3  4  2  0  0  0  0
  3  2  1  0  0  0  0
  4  5  1  0  0  0  0
  5 10  1  0  0  0  0
  5  6  2  0  0  0  0
  6 31  1  0  0  0  0
  9  4  1  0  0  0  0
 12 11  3  0  0  0  0
 13 14  1  0  0  0  0
 14 20  1  0  0  0  0
 14 15  2  0  0  0  0
 15 27  1  0  0  0  0
 16 15  1  0  0  0  0
 16 21  1  0  0  0  0
 17 16  2  0  0  0  0
 18 13  2  0  0  0  0
 18 17  1  0  0  0  0
 19 13  1  0  0  0  0
 22 17  1  0  0  0  0
 23 18  1  0  0  0  0
 23 26  1  0  0  0  0
 24 23  2  0  0  0  0
 25 23  2  0  0  0  0
 26  8  1  0  0  0  0
 27 30  1  0  0  0  0
 28 27  1  0  0  0  0
 29 27  1  0  0  0  0
M  RAD  2   2   2   3   2
M  END
