Coordinates from ORCA-job /home/ubuntu/works/orca-Ph-N2-OTs-B3LYP-6-31G_dp-scan-d09-49-n400/Ph-N2-OTs-B3LYP-6-31G_dp-scan-d09-49-n400
 OpenBabel01281705563D

 31 30  0  0  0  0  0  0  0  0999 V2000
    1.5116    1.4260   -0.7878 C   0  0  0  0  0  0  0  0  0  0  0  0
    1.5004    1.7708   -2.1531 C   0  0  0  0  0  0  0  0  0  0  0  0
    0.6527    1.1959   -2.8853 C   0  0  0  0  0  0  0  0  0  0  0  0
   -0.3300    0.2587   -2.7286 C   0  0  0  0  0  0  0  0  0  0  0  0
   -0.3340   -0.1070   -1.3598 C   0  0  0  0  0  0  0  0  0  0  0  0
    0.5549    0.4582   -0.4271 C   0  0  0  0  0  0  0  0  0  0  0  0
    2.1924    1.8536   -0.0581 H   0  0  0  0  0  0  0  0  0  0  0  0
    2.7333    2.9981   -3.0823 H   0  0  0  0  0  0  0  0  0  0  0  0
   -0.9996   -0.1515   -3.4729 H   0  0  0  0  0  0  0  0  0  0  0  0
   -1.0568   -0.8500   -1.0306 H   0  0  0  0  0  0  0  0  0  0  0  0
   -0.2132    1.6218   -5.8898 N   0  0  0  0  0  0  0  0  0  0  0  0
   -0.1054    2.2369   -6.8014 N   0  0  0  0  0  0  0  0  0  0  0  0
    6.5878    2.5730   -4.3873 C   0  0  0  0  0  0  0  0  0  0  0  0
    7.6629    1.7476   -4.0626 C   0  0  0  0  0  0  0  0  0  0  0  0
    7.4831    0.3754   -3.8357 C   0  0  0  0  0  0  0  0  0  0  0  0
    6.1905   -0.1580   -3.9529 C   0  0  0  0  0  0  0  0  0  0  0  0
    5.1036    0.6509   -4.2770 C   0  0  0  0  0  0  0  0  0  0  0  0
    5.3124    2.0154   -4.4878 C   0  0  0  0  0  0  0  0  0  0  0  0
    6.7306    3.6307   -4.5811 H   0  0  0  0  0  0  0  0  0  0  0  0
    8.6598    2.1753   -3.9904 H   0  0  0  0  0  0  0  0  0  0  0  0
    6.0342   -1.2223   -3.7941 H   0  0  0  0  0  0  0  0  0  0  0  0
    4.1082    0.2334   -4.3857 H   0  0  0  0  0  0  0  0  0  0  0  0
    3.9258    3.0688   -4.8914 S   0  0  0  0  0  0  0  0  0  0  0  0
    2.8597    2.2340   -5.4508 O   0  0  0  0  0  0  0  0  0  0  0  0
    4.4266    4.2422   -5.5938 O   0  0  0  0  0  0  0  0  0  0  0  0
    3.4356    3.6036   -3.4360 O   0  0  0  0  0  0  0  0  0  0  0  0
    8.6494   -0.5068   -3.4587 C   0  0  0  0  0  0  0  0  0  0  0  0
    8.5619   -1.5005   -3.9083 H   0  0  0  0  0  0  0  0  0  0  0  0
    9.6001   -0.0712   -3.7789 H   0  0  0  0  0  0  0  0  0  0  0  0
    8.7011   -0.6457   -2.3714 H   0  0  0  0  0  0  0  0  0  0  0  0
    0.4999    0.1332    0.6089 H   0  0  0  0  0  0  0  0  0  0  0  0
  1  6  1  0  0  0  0
  1  7  1  0  0  0  0
  2  1  2  0  0  0  0
  3  4  2  0  0  0  0
  3  2  1  0  0  0  0
  4  5  1  0  0  0  0
  5 10  1  0  0  0  0
  5  6  2  0  0  0  0
  6 31  1  0  0  0  0
  9  4  1  0  0  0  0
 12 11  3  0  0  0  0
 13 14  1  0  0  0  0
 14 20  1  0  0  0  0
 14 15  2  0  0  0  0
 15 27  1  0  0  0  0
 16 15  1  0  0  0  0
 16 21  1  0  0  0  0
 17 16  2  0  0  0  0
 18 13  2  0  0  0  0
 18 17  1  0  0  0  0
 19 13  1  0  0  0  0
 22 17  1  0  0  0  0
 23 18  1  0  0  0  0
 23 26  1  0  0  0  0
 24 23  2  0  0  0  0
 25 23  2  0  0  0  0
 26  8  1  0  0  0  0
 27 30  1  0  0  0  0
 28 27  1  0  0  0  0
 29 27  1  0  0  0  0
M  RAD  2   2   2   3   2
M  END
