Coordinates from ORCA-job /home/ubuntu/works/orca-Ph-N2-OTs-B3LYP-6-31G_dp-scan-d09-49-n400/Ph-N2-OTs-B3LYP-6-31G_dp-scan-d09-49-n400
 OpenBabel01281705563D

 31 32  0  0  1  0  0  0  0  0999 V2000
    1.8651    0.3263   -2.1292 C   0  0  0  0  0  0  0  0  0  0  0  0
    1.7642    1.1773   -3.3502 C   0  0  1  0  0  0  0  0  0  0  0  0
    0.3816    1.7468   -3.5044 C   0  0  0  0  0  0  0  0  0  0  0  0
   -0.5413    1.8273   -2.3967 C   0  0  0  0  0  0  0  0  0  0  0  0
   -0.2609    1.1701   -1.2437 C   0  0  0  0  0  0  0  0  0  0  0  0
    0.9414    0.3701   -1.1442 C   0  0  0  0  0  0  0  0  0  0  0  0
    2.7542   -0.2905   -2.0414 H   0  0  0  0  0  0  0  0  0  0  0  0
    2.0822    0.6620   -4.2581 H   0  0  0  0  0  0  0  0  0  0  0  0
   -1.4520    2.4048   -2.5234 H   0  0  0  0  0  0  0  0  0  0  0  0
   -0.9461    1.2176   -0.4039 H   0  0  0  0  0  0  0  0  0  0  0  0
    0.0525    2.2300   -4.6442 N   0  0  0  0  0  0  0  0  0  0  0  0
   -0.2356    2.6580   -5.6618 N   0  0  0  0  0  0  0  0  0  0  0  0
    5.4503    0.7209   -4.9820 C   0  0  0  0  0  0  0  0  0  0  0  0
    6.6201   -0.0111   -4.7778 C   0  0  0  0  0  0  0  0  0  0  0  0
    7.5306    0.3420   -3.7722 C   0  0  0  0  0  0  0  0  0  0  0  0
    7.2462    1.4628   -2.9756 C   0  0  0  0  0  0  0  0  0  0  0  0
    6.0853    2.2074   -3.1651 C   0  0  0  0  0  0  0  0  0  0  0  0
    5.1902    1.8237   -4.1676 C   0  0  0  0  0  0  0  0  0  0  0  0
    4.7561    0.4612   -5.7741 H   0  0  0  0  0  0  0  0  0  0  0  0
    6.8314   -0.8651   -5.4162 H   0  0  0  0  0  0  0  0  0  0  0  0
    7.9498    1.7599   -2.2019 H   0  0  0  0  0  0  0  0  0  0  0  0
    5.8804    3.0839   -2.5594 H   0  0  0  0  0  0  0  0  0  0  0  0
    3.6950    2.7721   -4.4149 S   0  0  0  0  0  0  0  0  0  0  0  0
    3.0642    2.3181   -5.6596 O   0  0  0  0  0  0  0  0  0  0  0  0
    3.9875    4.1801   -4.1784 O   0  0  0  0  0  0  0  0  0  0  0  0
    2.7584    2.3097   -3.1566 O   0  0  0  0  0  0  0  0  0  0  0  0
    8.7808   -0.4722   -3.5395 C   0  0  0  0  0  0  0  0  0  0  0  0
    8.6024   -1.2602   -2.7967 H   0  0  0  0  0  0  0  0  0  0  0  0
    9.1178   -0.9601   -4.4587 H   0  0  0  0  0  0  0  0  0  0  0  0
    9.5991    0.1493   -3.1636 H   0  0  0  0  0  0  0  0  0  0  0  0
    1.0884   -0.2315   -0.2505 H   0  0  0  0  0  0  0  0  0  0  0  0
  1  7  1  0  0  0  0
  1  6  2  0  0  0  0
  2  8  1  6  0  0  0
  2 26  1  0  0  0  0
  2  1  1  0  0  0  0
  3  2  1  0  0  0  0
  3  4  2  0  0  0  0
  4  5  1  0  0  0  0
  5  6  1  0  0  0  0
  5 10  1  0  0  0  0
  6 31  1  0  0  0  0
  9  4  1  0  0  0  0
 11  3  1  0  0  0  0
 12 11  1  0  0  0  0
 13 14  2  0  0  0  0
 13 18  1  0  0  0  0
 14 15  1  0  0  0  0
 15 27  1  0  0  0  0
 15 16  2  0  0  0  0
 16 21  1  0  0  0  0
 17 16  1  0  0  0  0
 17 22  1  0  0  0  0
 18 17  2  0  0  0  0
 19 13  1  0  0  0  0
 20 14  1  0  0  0  0
 23 25  2  0  0  0  0
 23 18  1  0  0  0  0
 23 26  1  0  0  0  0
 24 23  2  0  0  0  0
 27 30  1  0  0  0  0
 27 28  1  0  0  0  0
 29 27  1  0  0  0  0
M  RAD  3   5   2  11   2  12   3
M  END
