Coordinates from ORCA-job /home/ubuntu/works/orca-Ph-N2-OTs-B3LYP-6-31G_dp-scan-d09-49-n400/Ph-N2-OTs-B3LYP-6-31G_dp-scan-d09-49-n400
 OpenBabel01281705563D

 31 31  0  0  0  0  0  0  0  0999 V2000
    0.7204    1.3859   -0.7459 C   0  0  0  0  0  0  0  0  0  0  0  0
    1.2353    2.2684   -1.6969 C   0  0  0  0  0  0  0  0  0  0  0  0
    1.7748    1.7471   -2.8737 C   0  0  0  0  0  0  0  0  0  0  0  0
    1.8018    0.3739   -3.1179 C   0  0  0  0  0  0  0  0  0  0  0  0
    1.2747   -0.4959   -2.1619 C   0  0  0  0  0  0  0  0  0  0  0  0
    0.7371    0.0075   -0.9747 C   0  0  0  0  0  0  0  0  0  0  0  0
    0.2993    1.7800    0.1745 H   0  0  0  0  0  0  0  0  0  0  0  0
    1.2299    3.3404   -1.5389 H   0  0  0  0  0  0  0  0  0  0  0  0
    2.2214    0.0097   -4.0497 H   0  0  0  0  0  0  0  0  0  0  0  0
    1.2850   -1.5665   -2.3466 H   0  0  0  0  0  0  0  0  0  0  0  0
    2.0964    2.3179   -7.0712 N   0  0  0  0  0  0  0  0  0  0  0  0
    1.2453    2.9857   -7.2971 N   0  0  0  0  0  0  0  0  0  0  0  0
    5.2877    1.7318   -5.0863 C   0  0  0  0  0  0  0  0  0  0  0  0
    6.2526    0.7332   -5.1853 C   0  0  0  0  0  0  0  0  0  0  0  0
    6.8390    0.1711   -4.0400 C   0  0  0  0  0  0  0  0  0  0  0  0
    6.4292    0.6340   -2.7818 C   0  0  0  0  0  0  0  0  0  0  0  0
    5.4640    1.6324   -2.6591 C   0  0  0  0  0  0  0  0  0  0  0  0
    4.9018    2.1720   -3.8171 C   0  0  0  0  0  0  0  0  0  0  0  0
    4.8424    2.1694   -5.9728 H   0  0  0  0  0  0  0  0  0  0  0  0
    6.5593    0.3857   -6.1684 H   0  0  0  0  0  0  0  0  0  0  0  0
    6.8726    0.2101   -1.8848 H   0  0  0  0  0  0  0  0  0  0  0  0
    5.1557    1.9988   -1.6864 H   0  0  0  0  0  0  0  0  0  0  0  0
    3.6605    3.4446   -3.6776 S   0  0  0  0  0  0  0  0  0  0  0  0
    2.2331    2.5982   -3.8861 O   0  0  0  0  0  0  0  0  0  0  0  0
    3.6980    4.2991   -4.8550 O   0  0  0  0  0  0  0  0  0  0  0  0
    3.6927    3.9872   -2.3222 O   0  0  0  0  0  0  0  0  0  0  0  0
    7.9094   -0.8859   -4.1638 C   0  0  0  0  0  0  0  0  0  0  0  0
    7.9409   -1.5309   -3.2806 H   0  0  0  0  0  0  0  0  0  0  0  0
    7.7494   -1.5160   -5.0439 H   0  0  0  0  0  0  0  0  0  0  0  0
    8.9005   -0.4266   -4.2684 H   0  0  0  0  0  0  0  0  0  0  0  0
    0.3290   -0.6716   -0.2317 H   0  0  0  0  0  0  0  0  0  0  0  0
  1  7  1  0  0  0  0
  2  8  1  0  0  0  0
  2  1  2  0  0  0  0
  3  2  1  0  0  0  0
  4  3  2  0  0  0  0
  4  5  1  0  0  0  0
  5  6  2  0  0  0  0
  6  1  1  0  0  0  0
  6 31  1  0  0  0  0
  9  4  1  0  0  0  0
 10  5  1  0  0  0  0
 12 11  3  0  0  0  0
 13 18  1  0  0  0  0
 14 13  2  0  0  0  0
 14 15  1  0  0  0  0
 15 16  2  0  0  0  0
 16 17  1  0  0  0  0
 16 21  1  0  0  0  0
 17 22  1  0  0  0  0
 18 23  1  0  0  0  0
 18 17  2  0  0  0  0
 19 13  1  0  0  0  0
 20 14  1  0  0  0  0
 23 26  2  0  0  0  0
 24 23  1  0  0  0  0
 24  3  1  0  0  0  0
 25 23  2  0  0  0  0
 27 15  1  0  0  0  0
 27 28  1  0  0  0  0
 29 27  1  0  0  0  0
 30 27  1  0  0  0  0
M  END
