Coordinates from ORCA-job /home/ubuntu/works/orca-Ph-N2-OTs-B3LYP-6-31G_dp-scan-d09-49-n400/Ph-N2-OTs-B3LYP-6-31G_dp-scan-d09-49-n400
 OpenBabel01281705563D

 31 31  0  0  0  0  0  0  0  0999 V2000
    0.7321    1.3822   -0.7680 C   0  0  0  0  0  0  0  0  0  0  0  0
    1.2570    2.2822   -1.6967 C   0  0  0  0  0  0  0  0  0  0  0  0
    1.7900    1.7851   -2.8869 C   0  0  0  0  0  0  0  0  0  0  0  0
    1.8009    0.4182   -3.1656 C   0  0  0  0  0  0  0  0  0  0  0  0
    1.2640   -0.4693   -2.2316 C   0  0  0  0  0  0  0  0  0  0  0  0
    0.7327    0.0098   -1.0316 C   0  0  0  0  0  0  0  0  0  0  0  0
    0.3160    1.7580    0.1623 H   0  0  0  0  0  0  0  0  0  0  0  0
    1.2643    3.3498   -1.5114 H   0  0  0  0  0  0  0  0  0  0  0  0
    2.2159    0.0728   -4.1066 H   0  0  0  0  0  0  0  0  0  0  0  0
    1.2616   -1.5349   -2.4437 H   0  0  0  0  0  0  0  0  0  0  0  0
    1.9973    2.1001   -6.9474 N   0  0  0  0  0  0  0  0  0  0  0  0
    1.1387    2.7455   -7.2075 N   0  0  0  0  0  0  0  0  0  0  0  0
    5.3071    1.7635   -5.0710 C   0  0  0  0  0  0  0  0  0  0  0  0
    6.2605    0.7548   -5.1766 C   0  0  0  0  0  0  0  0  0  0  0  0
    6.8363    0.1748   -4.0347 C   0  0  0  0  0  0  0  0  0  0  0  0
    6.4277    0.6306   -2.7735 C   0  0  0  0  0  0  0  0  0  0  0  0
    5.4739    1.6391   -2.6444 C   0  0  0  0  0  0  0  0  0  0  0  0
    4.9219    2.1963   -3.7989 C   0  0  0  0  0  0  0  0  0  0  0  0
    4.8705    2.2151   -5.9548 H   0  0  0  0  0  0  0  0  0  0  0  0
    6.5664    0.4132   -6.1620 H   0  0  0  0  0  0  0  0  0  0  0  0
    6.8629    0.1929   -1.8792 H   0  0  0  0  0  0  0  0  0  0  0  0
    5.1667    1.9997   -1.6691 H   0  0  0  0  0  0  0  0  0  0  0  0
    3.6952    3.4819   -3.6516 S   0  0  0  0  0  0  0  0  0  0  0  0
    2.2586    2.6557   -3.8775 O   0  0  0  0  0  0  0  0  0  0  0  0
    3.7483    4.3490   -4.8189 O   0  0  0  0  0  0  0  0  0  0  0  0
    3.7262    4.0082   -2.2897 O   0  0  0  0  0  0  0  0  0  0  0  0
    7.8943   -0.8938   -4.1654 C   0  0  0  0  0  0  0  0  0  0  0  0
    7.9259   -1.5378   -3.2816 H   0  0  0  0  0  0  0  0  0  0  0  0
    7.7201   -1.5236   -5.0433 H   0  0  0  0  0  0  0  0  0  0  0  0
    8.8893   -0.4455   -4.2792 H   0  0  0  0  0  0  0  0  0  0  0  0
    0.3171   -0.6832   -0.3058 H   0  0  0  0  0  0  0  0  0  0  0  0
  1  7  1  0  0  0  0
  2  8  1  0  0  0  0
  2  1  2  0  0  0  0
  3  2  1  0  0  0  0
  4  3  2  0  0  0  0
  4  5  1  0  0  0  0
  5  6  2  0  0  0  0
  6  1  1  0  0  0  0
  6 31  1  0  0  0  0
  9  4  1  0  0  0  0
 10  5  1  0  0  0  0
 12 11  3  0  0  0  0
 13 18  1  0  0  0  0
 14 13  2  0  0  0  0
 14 15  1  0  0  0  0
 15 16  2  0  0  0  0
 16 17  1  0  0  0  0
 16 21  1  0  0  0  0
 17 22  1  0  0  0  0
 18 23  1  0  0  0  0
 18 17  2  0  0  0  0
 19 13  1  0  0  0  0
 20 14  1  0  0  0  0
 23 26  2  0  0  0  0
 24 23  1  0  0  0  0
 24  3  1  0  0  0  0
 25 23  2  0  0  0  0
 27 15  1  0  0  0  0
 27 28  1  0  0  0  0
 29 27  1  0  0  0  0
 30 27  1  0  0  0  0
M  END
