Coordinates from ORCA-job /home/ubuntu/works/orca-Ph-N2-OTs-B3LYP-6-31G_dp-scan-d09-49-n400/Ph-N2-OTs-B3LYP-6-31G_dp-scan-d09-49-n400
 OpenBabel01281705563D

 31 30  0  0  0  0  0  0  0  0999 V2000
    1.5896    1.3456   -0.9570 C   0  0  0  0  0  0  0  0  0  0  0  0
    1.4311    1.7339   -2.3024 C   0  0  0  0  0  0  0  0  0  0  0  0
    0.4751    1.2111   -2.9347 C   0  0  0  0  0  0  0  0  0  0  0  0
   -0.5171    0.3064   -2.6827 C   0  0  0  0  0  0  0  0  0  0  0  0
   -0.3716   -0.0999   -1.3338 C   0  0  0  0  0  0  0  0  0  0  0  0
    0.6466    0.4041   -0.5038 C   0  0  0  0  0  0  0  0  0  0  0  0
    2.3723    1.7251   -0.3069 H   0  0  0  0  0  0  0  0  0  0  0  0
    2.6682    2.9215   -3.2269 H   0  0  0  0  0  0  0  0  0  0  0  0
   -1.2877   -0.0562   -3.3504 H   0  0  0  0  0  0  0  0  0  0  0  0
   -1.0791   -0.8247   -0.9378 H   0  0  0  0  0  0  0  0  0  0  0  0
   -0.3025    1.8520   -5.6272 N   0  0  0  0  0  0  0  0  0  0  0  0
   -0.1380    2.5130   -6.4974 N   0  0  0  0  0  0  0  0  0  0  0  0
    6.5841    2.5657   -4.3722 C   0  0  0  0  0  0  0  0  0  0  0  0
    7.6663    1.7698   -4.0020 C   0  0  0  0  0  0  0  0  0  0  0  0
    7.5147    0.3925   -3.7839 C   0  0  0  0  0  0  0  0  0  0  0  0
    6.2437   -0.1758   -3.9571 C   0  0  0  0  0  0  0  0  0  0  0  0
    5.1495    0.6039   -4.3268 C   0  0  0  0  0  0  0  0  0  0  0  0
    5.3296    1.9737   -4.5276 C   0  0  0  0  0  0  0  0  0  0  0  0
    6.7064    3.6271   -4.5598 H   0  0  0  0  0  0  0  0  0  0  0  0
    8.6471    2.2246   -3.8869 H   0  0  0  0  0  0  0  0  0  0  0  0
    6.1101   -1.2443   -3.8063 H   0  0  0  0  0  0  0  0  0  0  0  0
    4.1714    0.1597   -4.4790 H   0  0  0  0  0  0  0  0  0  0  0  0
    3.9326    2.9894   -4.9882 S   0  0  0  0  0  0  0  0  0  0  0  0
    2.9042    2.1236   -5.5703 O   0  0  0  0  0  0  0  0  0  0  0  0
    4.4292    4.1657   -5.6893 O   0  0  0  0  0  0  0  0  0  0  0  0
    3.3846    3.5273   -3.5551 O   0  0  0  0  0  0  0  0  0  0  0  0
    8.6880   -0.4567   -3.3567 C   0  0  0  0  0  0  0  0  0  0  0  0
    8.6131   -1.4730   -3.7546 H   0  0  0  0  0  0  0  0  0  0  0  0
    9.6359   -0.0279   -3.6945 H   0  0  0  0  0  0  0  0  0  0  0  0
    8.7365   -0.5377   -2.2631 H   0  0  0  0  0  0  0  0  0  0  0  0
    0.7058    0.0513    0.5226 H   0  0  0  0  0  0  0  0  0  0  0  0
  1  6  1  0  0  0  0
  1  7  1  0  0  0  0
  2  1  2  0  0  0  0
  3  4  2  0  0  0  0
  3  2  1  0  0  0  0
  4  5  1  0  0  0  0
  5 10  1  0  0  0  0
  5  6  2  0  0  0  0
  6 31  1  0  0  0  0
  9  4  1  0  0  0  0
 12 11  3  0  0  0  0
 13 14  1  0  0  0  0
 14 20  1  0  0  0  0
 14 15  2  0  0  0  0
 15 27  1  0  0  0  0
 16 21  1  0  0  0  0
 16 15  1  0  0  0  0
 17 16  2  0  0  0  0
 18 13  2  0  0  0  0
 18 17  1  0  0  0  0
 19 13  1  0  0  0  0
 22 17  1  0  0  0  0
 23 18  1  0  0  0  0
 23 26  1  0  0  0  0
 24 23  2  0  0  0  0
 25 23  2  0  0  0  0
 26  8  1  0  0  0  0
 27 30  1  0  0  0  0
 28 27  1  0  0  0  0
 29 27  1  0  0  0  0
M  RAD  2   2   2   3   2
M  END
