Coordinates from ORCA-job /home/ubuntu/works/orca-Ph-N2-OTs-B3LYP-6-31G_dp-scan-d09-49-n400/Ph-N2-OTs-B3LYP-6-31G_dp-scan-d09-49-n400
 OpenBabel01281705563D

 31 31  0  0  0  0  0  0  0  0999 V2000
    0.7060    1.3923   -0.7395 C   0  0  0  0  0  0  0  0  0  0  0  0
    1.2206    2.2675   -1.6972 C   0  0  0  0  0  0  0  0  0  0  0  0
    1.7702    1.7371   -2.8651 C   0  0  0  0  0  0  0  0  0  0  0  0
    1.8077    0.3616   -3.0941 C   0  0  0  0  0  0  0  0  0  0  0  0
    1.2809   -0.5011   -2.1315 C   0  0  0  0  0  0  0  0  0  0  0  0
    0.7332    0.0115   -0.9530 C   0  0  0  0  0  0  0  0  0  0  0  0
    0.2771    1.7937    0.1743 H   0  0  0  0  0  0  0  0  0  0  0  0
    1.2075    3.3412   -1.5511 H   0  0  0  0  0  0  0  0  0  0  0  0
    2.2347   -0.0105   -4.0194 H   0  0  0  0  0  0  0  0  0  0  0  0
    1.2995   -1.5737   -2.3044 H   0  0  0  0  0  0  0  0  0  0  0  0
    2.1248    2.3663   -7.1229 N   0  0  0  0  0  0  0  0  0  0  0  0
    1.2754    3.0384   -7.3422 N   0  0  0  0  0  0  0  0  0  0  0  0
    5.2889    1.7314   -5.0902 C   0  0  0  0  0  0  0  0  0  0  0  0
    6.2566    0.7357   -5.1909 C   0  0  0  0  0  0  0  0  0  0  0  0
    6.8414    0.1701   -4.0465 C   0  0  0  0  0  0  0  0  0  0  0  0
    6.4273    0.6267   -2.7873 C   0  0  0  0  0  0  0  0  0  0  0  0
    5.4594    1.6221   -2.6629 C   0  0  0  0  0  0  0  0  0  0  0  0
    4.8987    2.1652   -3.8201 C   0  0  0  0  0  0  0  0  0  0  0  0
    4.8449    2.1720   -5.9759 H   0  0  0  0  0  0  0  0  0  0  0  0
    6.5670    0.3933   -6.1747 H   0  0  0  0  0  0  0  0  0  0  0  0
    6.8695    0.2002   -1.8910 H   0  0  0  0  0  0  0  0  0  0  0  0
    5.1480    1.9839   -1.6894 H   0  0  0  0  0  0  0  0  0  0  0  0
    3.6528    3.4329   -3.6784 S   0  0  0  0  0  0  0  0  0  0  0  0
    2.2284    2.5805   -3.8841 O   0  0  0  0  0  0  0  0  0  0  0  0
    3.6852    4.2873   -4.8562 O   0  0  0  0  0  0  0  0  0  0  0  0
    3.6850    3.9758   -2.3232 O   0  0  0  0  0  0  0  0  0  0  0  0
    7.9147   -0.8838   -4.1719 C   0  0  0  0  0  0  0  0  0  0  0  0
    7.9436   -1.5341   -3.2925 H   0  0  0  0  0  0  0  0  0  0  0  0
    7.7601   -1.5089   -5.0565 H   0  0  0  0  0  0  0  0  0  0  0  0
    8.9053   -0.4217   -4.2691 H   0  0  0  0  0  0  0  0  0  0  0  0
    0.3252   -0.6621   -0.2050 H   0  0  0  0  0  0  0  0  0  0  0  0
  1  7  1  0  0  0  0
  2  8  1  0  0  0  0
  2  1  2  0  0  0  0
  3  2  1  0  0  0  0
  4  3  2  0  0  0  0
  4  5  1  0  0  0  0
  5  6  2  0  0  0  0
  6  1  1  0  0  0  0
  6 31  1  0  0  0  0
  9  4  1  0  0  0  0
 10  5  1  0  0  0  0
 12 11  3  0  0  0  0
 13 18  1  0  0  0  0
 14 13  2  0  0  0  0
 14 15  1  0  0  0  0
 15 16  2  0  0  0  0
 16 17  1  0  0  0  0
 16 21  1  0  0  0  0
 17 22  1  0  0  0  0
 18 23  1  0  0  0  0
 18 17  2  0  0  0  0
 19 13  1  0  0  0  0
 20 14  1  0  0  0  0
 23 26  2  0  0  0  0
 24 23  1  0  0  0  0
 24  3  1  0  0  0  0
 25 23  2  0  0  0  0
 27 15  1  0  0  0  0
 27 28  1  0  0  0  0
 29 27  1  0  0  0  0
 30 27  1  0  0  0  0
M  END
