Coordinates from ORCA-job /home/ubuntu/works/orca-Ph-N2-OTs-B3LYP-6-31G_dp-scan-d09-49-n400/Ph-N2-OTs-B3LYP-6-31G_dp-scan-d09-49-n400
 OpenBabel01281705563D

 31 30  0  0  0  0  0  0  0  0999 V2000
    1.6806    1.2454   -1.1923 C   0  0  0  0  0  0  0  0  0  0  0  0
    1.3998    1.6948   -2.5042 C   0  0  0  0  0  0  0  0  0  0  0  0
    0.3314    1.2301   -2.9997 C   0  0  0  0  0  0  0  0  0  0  0  0
   -0.6771    0.3836   -2.6415 C   0  0  0  0  0  0  0  0  0  0  0  0
   -0.3947   -0.0686   -1.3311 C   0  0  0  0  0  0  0  0  0  0  0  0
    0.7506    0.3524   -0.6320 C   0  0  0  0  0  0  0  0  0  0  0  0
    2.5614    1.5605   -0.6396 H   0  0  0  0  0  0  0  0  0  0  0  0
    2.6180    2.8473   -3.3424 H   0  0  0  0  0  0  0  0  0  0  0  0
   -1.5445    0.0888   -3.2173 H   0  0  0  0  0  0  0  0  0  0  0  0
   -1.0921   -0.7591   -0.8635 H   0  0  0  0  0  0  0  0  0  0  0  0
   -0.3094    1.9501   -5.2346 N   0  0  0  0  0  0  0  0  0  0  0  0
   -0.0737    2.6308   -6.0733 N   0  0  0  0  0  0  0  0  0  0  0  0
    6.5681    2.5662   -4.3583 C   0  0  0  0  0  0  0  0  0  0  0  0
    7.6506    1.7921   -3.9454 C   0  0  0  0  0  0  0  0  0  0  0  0
    7.5173    0.4124   -3.7294 C   0  0  0  0  0  0  0  0  0  0  0  0
    6.2650   -0.1802   -3.9488 C   0  0  0  0  0  0  0  0  0  0  0  0
    5.1705    0.5778   -4.3615 C   0  0  0  0  0  0  0  0  0  0  0  0
    5.3316    1.9502   -4.5592 C   0  0  0  0  0  0  0  0  0  0  0  0
    6.6772    3.6294   -4.5442 H   0  0  0  0  0  0  0  0  0  0  0  0
    8.6175    2.2660   -3.7946 H   0  0  0  0  0  0  0  0  0  0  0  0
    6.1463   -1.2509   -3.8005 H   0  0  0  0  0  0  0  0  0  0  0  0
    4.2073    0.1150   -4.5490 H   0  0  0  0  0  0  0  0  0  0  0  0
    3.9329    2.9396   -5.0723 S   0  0  0  0  0  0  0  0  0  0  0  0
    2.9423    2.0511   -5.6865 O   0  0  0  0  0  0  0  0  0  0  0  0
    4.4337    4.1187   -5.7666 O   0  0  0  0  0  0  0  0  0  0  0  0
    3.3286    3.4743   -3.6656 O   0  0  0  0  0  0  0  0  0  0  0  0
    8.6900   -0.4130   -3.2562 C   0  0  0  0  0  0  0  0  0  0  0  0
    8.6350   -1.4390   -3.6316 H   0  0  0  0  0  0  0  0  0  0  0  0
    9.6407    0.0186   -3.5829 H   0  0  0  0  0  0  0  0  0  0  0  0
    8.7153   -0.4674   -2.1601 H   0  0  0  0  0  0  0  0  0  0  0  0
    0.9195   -0.0263    0.3725 H   0  0  0  0  0  0  0  0  0  0  0  0
  1  7  1  0  0  0  0
  1  6  1  0  0  0  0
  2  1  2  0  0  0  0
  3  4  2  0  0  0  0
  3  2  1  0  0  0  0
  4  5  1  0  0  0  0
  5 10  1  0  0  0  0
  5  6  2  0  0  0  0
  6 31  1  0  0  0  0
  9  4  1  0  0  0  0
 12 11  3  0  0  0  0
 13 14  2  0  0  0  0
 14 20  1  0  0  0  0
 14 15  1  0  0  0  0
 15 27  1  0  0  0  0
 16 21  1  0  0  0  0
 16 15  2  0  0  0  0
 17 16  1  0  0  0  0
 18 17  2  0  0  0  0
 18 13  1  0  0  0  0
 19 13  1  0  0  0  0
 22 17  1  0  0  0  0
 23 18  1  0  0  0  0
 23 26  1  0  0  0  0
 24 23  2  0  0  0  0
 25 23  2  0  0  0  0
 26  8  1  0  0  0  0
 27 30  1  0  0  0  0
 28 27  1  0  0  0  0
 29 27  1  0  0  0  0
M  RAD  2   2   2   3   2
M  END
