Coordinates from ORCA-job /home/ubuntu/works/orca-Ph-N2-OTs-B3LYP-6-31G_dp-scan-d09-49-n400/Ph-N2-OTs-B3LYP-6-31G_dp-scan-d09-49-n400
 OpenBabel01281705563D

 31 32  0  0  1  0  0  0  0  0999 V2000
    2.0311    0.3270   -2.5105 C   0  0  0  0  0  0  0  0  0  0  0  0
    1.7168    1.3178   -3.5828 C   0  0  1  0  0  0  0  0  0  0  0  0
    0.3126    1.8913   -3.4475 C   0  0  0  0  0  0  0  0  0  0  0  0
   -0.4029    1.7773   -2.1799 C   0  0  0  0  0  0  0  0  0  0  0  0
    0.0667    0.9761   -1.1973 C   0  0  0  0  0  0  0  0  0  0  0  0
    1.2811    0.2075   -1.3967 C   0  0  0  0  0  0  0  0  0  0  0  0
    2.9337   -0.2603   -2.6485 H   0  0  0  0  0  0  0  0  0  0  0  0
    1.8607    0.9163   -4.5887 H   0  0  0  0  0  0  0  0  0  0  0  0
   -1.3232    2.3436   -2.0732 H   0  0  0  0  0  0  0  0  0  0  0  0
   -0.4734    0.8882   -0.2603 H   0  0  0  0  0  0  0  0  0  0  0  0
   -0.1423    2.4589   -4.3519 N   0  0  0  0  0  0  0  0  0  0  0  0
   -0.5861    3.0199   -5.2539 N   0  0  0  0  0  0  0  0  0  0  0  0
    5.4196    0.6458   -4.9577 C   0  0  0  0  0  0  0  0  0  0  0  0
    6.5475   -0.1004   -4.6169 C   0  0  0  0  0  0  0  0  0  0  0  0
    7.4149    0.3197   -3.5990 C   0  0  0  0  0  0  0  0  0  0  0  0
    7.1315    1.5223   -2.9322 C   0  0  0  0  0  0  0  0  0  0  0  0
    6.0119    2.2825   -3.2586 C   0  0  0  0  0  0  0  0  0  0  0  0
    5.1589    1.8311   -4.2690 C   0  0  0  0  0  0  0  0  0  0  0  0
    4.7597    0.3317   -5.7596 H   0  0  0  0  0  0  0  0  0  0  0  0
    6.7600   -1.0193   -5.1571 H   0  0  0  0  0  0  0  0  0  0  0  0
    7.8023    1.8707   -2.1507 H   0  0  0  0  0  0  0  0  0  0  0  0
    5.8073    3.2201   -2.7529 H   0  0  0  0  0  0  0  0  0  0  0  0
    3.7122    2.7940   -4.6868 S   0  0  0  0  0  0  0  0  0  0  0  0
    3.1461    2.2602   -5.9288 O   0  0  0  0  0  0  0  0  0  0  0  0
    4.0258    4.2076   -4.5312 O   0  0  0  0  0  0  0  0  0  0  0  0
    2.6821    2.4585   -3.4527 O   0  0  0  0  0  0  0  0  0  0  0  0
    8.6172   -0.5092   -3.2158 C   0  0  0  0  0  0  0  0  0  0  0  0
    8.3688   -1.2083   -2.4070 H   0  0  0  0  0  0  0  0  0  0  0  0
    8.9805   -1.1024   -4.0601 H   0  0  0  0  0  0  0  0  0  0  0  0
    9.4396    0.1191   -2.8608 H   0  0  0  0  0  0  0  0  0  0  0  0
    1.5787   -0.4967   -0.6237 H   0  0  0  0  0  0  0  0  0  0  0  0
  1  6  2  0  0  0  0
  2  8  1  6  0  0  0
  2 26  1  0  0  0  0
  2  3  1  0  0  0  0
  2  1  1  0  0  0  0
  3  4  2  0  0  0  0
  4  9  1  0  0  0  0
  4  5  1  0  0  0  0
  5 10  1  0  0  0  0
  6  5  1  0  0  0  0
  6 31  1  0  0  0  0
  7  1  1  0  0  0  0
 11  3  1  0  0  0  0
 12 11  1  0  0  0  0
 13 14  2  0  0  0  0
 13 18  1  0  0  0  0
 14 15  1  0  0  0  0
 15 27  1  0  0  0  0
 15 16  2  0  0  0  0
 16 21  1  0  0  0  0
 17 16  1  0  0  0  0
 17 22  1  0  0  0  0
 18 17  2  0  0  0  0
 19 13  1  0  0  0  0
 20 14  1  0  0  0  0
 23 25  2  0  0  0  0
 23 18  1  0  0  0  0
 23 26  1  0  0  0  0
 24 23  2  0  0  0  0
 27 30  1  0  0  0  0
 27 28  1  0  0  0  0
 29 27  1  0  0  0  0
M  RAD  3   5   2  11   2  12   3
M  END
