Coordinates from ORCA-job /home/ubuntu/works/orca-Ph-N2-OTs-B3LYP-6-31G_dp-scan-d09-49-n400/Ph-N2-OTs-B3LYP-6-31G_dp-scan-d09-49-n400
 OpenBabel01281705563D

 31 30  0  0  0  0  0  0  0  0999 V2000
    0.7136    1.2355   -0.8157 C   0  0  0  0  0  0  0  0  0  0  0  0
    1.1510    1.6457   -2.1041 C   0  0  0  0  0  0  0  0  0  0  0  0
    0.1653    1.4417   -2.9676 C   0  0  0  0  0  0  0  0  0  0  0  0
   -1.1043    0.9590   -2.9822 C   0  0  0  0  0  0  0  0  0  0  0  0
   -1.4662    0.5658   -1.6767 C   0  0  0  0  0  0  0  0  0  0  0  0
   -0.5642    0.7067   -0.6152 C   0  0  0  0  0  0  0  0  0  0  0  0
    1.4133    1.3394    0.0089 H   0  0  0  0  0  0  0  0  0  0  0  0
    2.2028    2.0613   -2.3250 H   0  0  0  0  0  0  0  0  0  0  0  0
   -1.7542    0.8749   -3.8423 H   0  0  0  0  0  0  0  0  0  0  0  0
   -2.4581    0.1528   -1.5206 H   0  0  0  0  0  0  0  0  0  0  0  0
    0.6261    2.0987   -4.9006 N   0  0  0  0  0  0  0  0  0  0  0  0
    0.5798    2.5728   -5.8976 N   0  0  0  0  0  0  0  0  0  0  0  0
    6.5892    2.3887   -4.5099 C   0  0  0  0  0  0  0  0  0  0  0  0
    7.8942    1.8966   -4.5007 C   0  0  0  0  0  0  0  0  0  0  0  0
    8.1605    0.5523   -4.2051 C   0  0  0  0  0  0  0  0  0  0  0  0
    7.0775   -0.2954   -3.9295 C   0  0  0  0  0  0  0  0  0  0  0  0
    5.7682    0.1830   -3.9345 C   0  0  0  0  0  0  0  0  0  0  0  0
    5.5297    1.5279   -4.2216 C   0  0  0  0  0  0  0  0  0  0  0  0
    6.3814    3.4243   -4.7578 H   0  0  0  0  0  0  0  0  0  0  0  0
    8.7193    2.5659   -4.7339 H   0  0  0  0  0  0  0  0  0  0  0  0
    7.2629   -1.3455   -3.7140 H   0  0  0  0  0  0  0  0  0  0  0  0
    4.9300   -0.4780   -3.7412 H   0  0  0  0  0  0  0  0  0  0  0  0
    3.8520    2.1709   -4.1899 S   0  0  0  0  0  0  0  0  0  0  0  0
    2.9580    1.0304   -4.5524 O   0  0  0  0  0  0  0  0  0  0  0  0
    3.8096    3.3235   -5.1104 O   0  0  0  0  0  0  0  0  0  0  0  0
    3.6230    2.5723   -2.7361 O   0  0  0  0  0  0  0  0  0  0  0  0
    9.5790    0.0333   -4.1666 C   0  0  0  0  0  0  0  0  0  0  0  0
    9.6298   -1.0189   -4.4649 H   0  0  0  0  0  0  0  0  0  0  0  0
   10.2339    0.6060   -4.8304 H   0  0  0  0  0  0  0  0  0  0  0  0
    9.9995    0.1034   -3.1546 H   0  0  0  0  0  0  0  0  0  0  0  0
   -0.8632    0.3956    0.3806 H   0  0  0  0  0  0  0  0  0  0  0  0
  1  6  1  0  0  0  0
  1  7  1  0  0  0  0
  2  1  2  0  0  0  0
  3  2  1  0  0  0  0
  4  3  2  0  0  0  0
  4  5  1  0  0  0  0
  5 10  1  0  0  0  0
  5  6  2  0  0  0  0
  6 31  1  0  0  0  0
  8  2  1  0  0  0  0
  9  4  1  0  0  0  0
 12 11  3  0  0  0  0
 13 14  2  0  0  0  0
 13 18  1  0  0  0  0
 14 15  1  0  0  0  0
 15 27  1  0  0  0  0
 15 16  2  0  0  0  0
 16 21  1  0  0  0  0
 17 16  1  0  0  0  0
 17 22  1  0  0  0  0
 18 23  1  0  0  0  0
 18 17  2  0  0  0  0
 19 13  1  0  0  0  0
 20 14  1  0  0  0  0
 23 26  1  0  0  0  0
 24 23  2  0  0  0  0
 25 23  2  0  0  0  0
 27 30  1  0  0  0  0
 28 27  1  0  0  0  0
 29 27  1  0  0  0  0
M  RAD  2   3   2  26   2
M  END
