Coordinates from ORCA-job /home/ubuntu/works/orca-Ph-N2-OTs-B3LYP-6-31G_dp-scan-d09-49-n400/Ph-N2-OTs-B3LYP-6-31G_dp-scan-d09-49-n400
 OpenBabel01281705563D

 31 30  0  0  0  0  0  0  0  0999 V2000
    1.4429    1.4571   -0.6543 C   0  0  0  0  0  0  0  0  0  0  0  0
    1.5578    1.7680   -2.0221 C   0  0  0  0  0  0  0  0  0  0  0  0
    0.7820    1.1799   -2.8199 C   0  0  0  0  0  0  0  0  0  0  0  0
   -0.2186    0.2515   -2.7336 C   0  0  0  0  0  0  0  0  0  0  0  0
   -0.3515   -0.0808   -1.3627 C   0  0  0  0  0  0  0  0  0  0  0  0
    0.4497    0.5022   -0.3638 C   0  0  0  0  0  0  0  0  0  0  0  0
    2.0536    1.9002    0.1262 H   0  0  0  0  0  0  0  0  0  0  0  0
    2.7854    3.0258   -2.9557 H   0  0  0  0  0  0  0  0  0  0  0  0
   -0.8185   -0.1738   -3.5270 H   0  0  0  0  0  0  0  0  0  0  0  0
   -1.1059   -0.8135   -1.0848 H   0  0  0  0  0  0  0  0  0  0  0  0
   -0.0926    1.4108   -6.1454 N   0  0  0  0  0  0  0  0  0  0  0  0
    0.0237    2.0082   -7.0678 N   0  0  0  0  0  0  0  0  0  0  0  0
    6.5872    2.5814   -4.4041 C   0  0  0  0  0  0  0  0  0  0  0  0
    7.6621    1.7398   -4.1225 C   0  0  0  0  0  0  0  0  0  0  0  0
    7.4712    0.3706   -3.8884 C   0  0  0  0  0  0  0  0  0  0  0  0
    6.1669   -0.1436   -3.9534 C   0  0  0  0  0  0  0  0  0  0  0  0
    5.0804    0.6813   -4.2344 C   0  0  0  0  0  0  0  0  0  0  0  0
    5.3008    2.0429   -4.4537 C   0  0  0  0  0  0  0  0  0  0  0  0
    6.7376    3.6370   -4.6029 H   0  0  0  0  0  0  0  0  0  0  0  0
    8.6672    2.1526   -4.0901 H   0  0  0  0  0  0  0  0  0  0  0  0
    6.0012   -1.2054   -3.7877 H   0  0  0  0  0  0  0  0  0  0  0  0
    4.0753    0.2784   -4.3020 H   0  0  0  0  0  0  0  0  0  0  0  0
    3.9156    3.1175   -4.8020 S   0  0  0  0  0  0  0  0  0  0  0  0
    2.8244    2.3033   -5.3438 O   0  0  0  0  0  0  0  0  0  0  0  0
    4.4092    4.2956   -5.5011 O   0  0  0  0  0  0  0  0  0  0  0  0
    3.4729    3.6367   -3.3258 O   0  0  0  0  0  0  0  0  0  0  0  0
    8.6377   -0.5304   -3.5594 C   0  0  0  0  0  0  0  0  0  0  0  0
    8.5409   -1.5051   -4.0473 H   0  0  0  0  0  0  0  0  0  0  0  0
    9.5867   -0.0864   -3.8726 H   0  0  0  0  0  0  0  0  0  0  0  0
    8.6999   -0.7134   -2.4793 H   0  0  0  0  0  0  0  0  0  0  0  0
    0.2944    0.2022    0.6695 H   0  0  0  0  0  0  0  0  0  0  0  0
  1  6  1  0  0  0  0
  1  7  1  0  0  0  0
  2  1  2  0  0  0  0
  3  4  2  0  0  0  0
  3  2  1  0  0  0  0
  4  5  1  0  0  0  0
  5 10  1  0  0  0  0
  5  6  2  0  0  0  0
  6 31  1  0  0  0  0
  9  4  1  0  0  0  0
 12 11  3  0  0  0  0
 13 14  1  0  0  0  0
 14 20  1  0  0  0  0
 14 15  2  0  0  0  0
 15 27  1  0  0  0  0
 16 15  1  0  0  0  0
 16 21  1  0  0  0  0
 17 16  2  0  0  0  0
 18 13  2  0  0  0  0
 18 17  1  0  0  0  0
 19 13  1  0  0  0  0
 22 17  1  0  0  0  0
 23 18  1  0  0  0  0
 23 26  1  0  0  0  0
 24 23  2  0  0  0  0
 25 23  2  0  0  0  0
 26  8  1  0  0  0  0
 27 30  1  0  0  0  0
 28 27  1  0  0  0  0
 29 27  1  0  0  0  0
M  RAD  2   2   2   3   2
M  END
