Coordinates from ORCA-job /home/ubuntu/works/orca-Ph-N2-OTs-B3LYP-6-31G_dp-scan-d09-49-n400/Ph-N2-OTs-B3LYP-6-31G_dp-scan-d09-49-n400
 OpenBabel01281705563D

 31 30  0  0  0  0  0  0  0  0999 V2000
    1.6752    1.2352   -1.2454 C   0  0  0  0  0  0  0  0  0  0  0  0
    1.3889    1.7042   -2.5516 C   0  0  0  0  0  0  0  0  0  0  0  0
    0.3026    1.2452   -3.0264 C   0  0  0  0  0  0  0  0  0  0  0  0
   -0.7052    0.4042   -2.6519 C   0  0  0  0  0  0  0  0  0  0  0  0
   -0.4096   -0.0604   -1.3510 C   0  0  0  0  0  0  0  0  0  0  0  0
    0.7512    0.3475   -0.6703 C   0  0  0  0  0  0  0  0  0  0  0  0
    2.5679    1.5393   -0.7052 H   0  0  0  0  0  0  0  0  0  0  0  0
    2.6012    2.8287   -3.3442 H   0  0  0  0  0  0  0  0  0  0  0  0
   -1.5836    0.1219   -3.2173 H   0  0  0  0  0  0  0  0  0  0  0  0
   -1.1056   -0.7477   -0.8771 H   0  0  0  0  0  0  0  0  0  0  0  0
   -0.2717    1.9567   -5.0969 N   0  0  0  0  0  0  0  0  0  0  0  0
   -0.0202    2.6341   -5.9342 N   0  0  0  0  0  0  0  0  0  0  0  0
    6.5651    2.5628   -4.3659 C   0  0  0  0  0  0  0  0  0  0  0  0
    7.6518    1.7953   -3.9515 C   0  0  0  0  0  0  0  0  0  0  0  0
    7.5238    0.4168   -3.7252 C   0  0  0  0  0  0  0  0  0  0  0  0
    6.2727   -0.1813   -3.9357 C   0  0  0  0  0  0  0  0  0  0  0  0
    5.1742    0.5704   -4.3496 C   0  0  0  0  0  0  0  0  0  0  0  0
    5.3298    1.9417   -4.5578 C   0  0  0  0  0  0  0  0  0  0  0  0
    6.6700    3.6250   -4.5597 H   0  0  0  0  0  0  0  0  0  0  0  0
    8.6177    2.2735   -3.8079 H   0  0  0  0  0  0  0  0  0  0  0  0
    6.1579   -1.2513   -3.7792 H   0  0  0  0  0  0  0  0  0  0  0  0
    4.2118    0.1030   -4.5300 H   0  0  0  0  0  0  0  0  0  0  0  0
    3.9257    2.9236   -5.0719 S   0  0  0  0  0  0  0  0  0  0  0  0
    2.9412    2.0277   -5.6870 O   0  0  0  0  0  0  0  0  0  0  0  0
    4.4218    4.1017   -5.7722 O   0  0  0  0  0  0  0  0  0  0  0  0
    3.3189    3.4560   -3.6696 O   0  0  0  0  0  0  0  0  0  0  0  0
    8.7012   -0.4010   -3.2503 C   0  0  0  0  0  0  0  0  0  0  0  0
    8.6398   -1.4344   -3.6039 H   0  0  0  0  0  0  0  0  0  0  0  0
    9.6482    0.0221   -3.5982 H   0  0  0  0  0  0  0  0  0  0  0  0
    8.7411   -0.4327   -2.1537 H   0  0  0  0  0  0  0  0  0  0  0  0
    0.9358   -0.0371    0.3292 H   0  0  0  0  0  0  0  0  0  0  0  0
  1  7  1  0  0  0  0
  1  6  1  0  0  0  0
  2  1  2  0  0  0  0
  3  4  2  0  0  0  0
  3  2  1  0  0  0  0
  4  5  1  0  0  0  0
  5 10  1  0  0  0  0
  5  6  2  0  0  0  0
  6 31  1  0  0  0  0
  9  4  1  0  0  0  0
 12 11  3  0  0  0  0
 13 14  1  0  0  0  0
 14 20  1  0  0  0  0
 14 15  2  0  0  0  0
 15 27  1  0  0  0  0
 16 21  1  0  0  0  0
 16 15  1  0  0  0  0
 17 16  2  0  0  0  0
 18 13  2  0  0  0  0
 18 17  1  0  0  0  0
 19 13  1  0  0  0  0
 22 17  1  0  0  0  0
 23 18  1  0  0  0  0
 23 26  1  0  0  0  0
 24 23  2  0  0  0  0
 25 23  2  0  0  0  0
 26  8  1  0  0  0  0
 27 30  1  0  0  0  0
 28 27  1  0  0  0  0
 29 27  1  0  0  0  0
M  RAD  2   2   2   3   2
M  END
