Coordinates from ORCA-job /home/ubuntu/works/orca-Ph-N2-OTs-B3LYP-6-31G_dp-scan-d09-49-n400/Ph-N2-OTs-B3LYP-6-31G_dp-scan-d09-49-n400
 OpenBabel01281705563D

 31 31  0  0  0  0  0  0  0  0999 V2000
    0.1457    0.8590   -0.8395 C   0  0  0  0  0  0  0  0  0  0  0  0
    0.9957    1.3208   -1.8500 C   0  0  0  0  0  0  0  0  0  0  0  0
    0.4110    1.4731   -3.0930 C   0  0  0  0  0  0  0  0  0  0  0  0
   -0.9137    1.2084   -3.4217 C   0  0  0  0  0  0  0  0  0  0  0  0
   -1.7228    0.7336   -2.3895 C   0  0  0  0  0  0  0  0  0  0  0  0
   -1.1934    0.5620   -1.1059 C   0  0  0  0  0  0  0  0  0  0  0  0
    0.5462    0.7280    0.1606 H   0  0  0  0  0  0  0  0  0  0  0  0
    2.0429    1.5587   -1.6732 H   0  0  0  0  0  0  0  0  0  0  0  0
   -1.2911    1.3606   -4.4260 H   0  0  0  0  0  0  0  0  0  0  0  0
   -2.7630    0.5007   -2.5934 H   0  0  0  0  0  0  0  0  0  0  0  0
    1.2652    2.0435   -4.2826 N   0  0  0  0  0  0  0  0  0  0  0  0
    1.2217    2.6041   -5.2532 N   0  0  0  0  0  0  0  0  0  0  0  0
    6.2529    1.9742   -4.9642 C   0  0  0  0  0  0  0  0  0  0  0  0
    7.4904    1.4481   -5.3297 C   0  0  0  0  0  0  0  0  0  0  0  0
    8.1878    0.5760   -4.4802 C   0  0  0  0  0  0  0  0  0  0  0  0
    7.6099    0.2435   -3.2467 C   0  0  0  0  0  0  0  0  0  0  0  0
    6.3729    0.7617   -2.8666 C   0  0  0  0  0  0  0  0  0  0  0  0
    5.6985    1.6247   -3.7316 C   0  0  0  0  0  0  0  0  0  0  0  0
    5.7208    2.6606   -5.6144 H   0  0  0  0  0  0  0  0  0  0  0  0
    7.9244    1.7212   -6.2884 H   0  0  0  0  0  0  0  0  0  0  0  0
    8.1381   -0.4272   -2.5729 H   0  0  0  0  0  0  0  0  0  0  0  0
    5.9337    0.5162   -1.9057 H   0  0  0  0  0  0  0  0  0  0  0  0
    4.0889    2.2684   -3.2717 S   0  0  0  0  0  0  0  0  0  0  0  0
    3.1236    1.1886   -3.8096 O   0  0  0  0  0  0  0  0  0  0  0  0
    3.8894    3.5515   -3.9736 O   0  0  0  0  0  0  0  0  0  0  0  0
    4.0399    2.3024   -1.7899 O   0  0  0  0  0  0  0  0  0  0  0  0
    9.5435    0.0362   -4.8717 C   0  0  0  0  0  0  0  0  0  0  0  0
    9.7482   -0.9237   -4.3884 H   0  0  0  0  0  0  0  0  0  0  0  0
    9.6207   -0.1055   -5.9544 H   0  0  0  0  0  0  0  0  0  0  0  0
   10.3435    0.7272   -4.5762 H   0  0  0  0  0  0  0  0  0  0  0  0
   -1.8318    0.1941   -0.3084 H   0  0  0  0  0  0  0  0  0  0  0  0
  1  7  1  0  0  0  0
  2  8  1  0  0  0  0
  2  1  2  0  0  0  0
  3  2  1  0  0  0  0
  4  3  2  0  0  0  0
  4  5  1  0  0  0  0
  5  6  2  0  0  0  0
  6  1  1  0  0  0  0
  6 31  1  0  0  0  0
  9  4  1  0  0  0  0
 10  5  1  0  0  0  0
 11  3  1  0  0  0  0
 12 11  2  0  0  0  0
 13 18  1  0  0  0  0
 14 13  2  0  0  0  0
 14 15  1  0  0  0  0
 15 16  2  0  0  0  0
 16 17  1  0  0  0  0
 16 21  1  0  0  0  0
 17 22  1  0  0  0  0
 18 23  1  0  0  0  0
 18 17  2  0  0  0  0
 19 13  1  0  0  0  0
 20 14  1  0  0  0  0
 23 26  1  0  0  0  0
 24 23  2  0  0  0  0
 25 23  2  0  0  0  0
 27 30  1  0  0  0  0
 27 15  1  0  0  0  0
 27 28  1  0  0  0  0
 29 27  1  0  0  0  0
M  RAD  2  12   2  26   2
M  END
