Coordinates from ORCA-job /home/ubuntu/works/orca-Ph-N2-OTs-B3LYP-6-31G_dp-scan-d09-49-n400/Ph-N2-OTs-B3LYP-6-31G_dp-scan-d09-49-n400
 OpenBabel01281705563D

 31 30  0  0  0  0  0  0  0  0999 V2000
    0.7037    1.2341   -0.8116 C   0  0  0  0  0  0  0  0  0  0  0  0
    1.1504    1.6490   -2.0948 C   0  0  0  0  0  0  0  0  0  0  0  0
    0.1725    1.4433   -2.9692 C   0  0  0  0  0  0  0  0  0  0  0  0
   -1.0949    0.9546   -2.9928 C   0  0  0  0  0  0  0  0  0  0  0  0
   -1.4659    0.5569   -1.6913 C   0  0  0  0  0  0  0  0  0  0  0  0
   -0.5732    0.6992   -0.6224 C   0  0  0  0  0  0  0  0  0  0  0  0
    1.3960    1.3394    0.0191 H   0  0  0  0  0  0  0  0  0  0  0  0
    2.1977    2.0691   -2.3065 H   0  0  0  0  0  0  0  0  0  0  0  0
   -1.7380    0.8693   -3.8579 H   0  0  0  0  0  0  0  0  0  0  0  0
   -2.4572    0.1393   -1.5444 H   0  0  0  0  0  0  0  0  0  0  0  0
    0.6450    2.1028   -4.8877 N   0  0  0  0  0  0  0  0  0  0  0  0
    0.5852    2.5829   -5.8812 N   0  0  0  0  0  0  0  0  0  0  0  0
    6.5898    2.3876   -4.5174 C   0  0  0  0  0  0  0  0  0  0  0  0
    7.8935    1.8929   -4.5137 C   0  0  0  0  0  0  0  0  0  0  0  0
    8.1591    0.5501   -4.2098 C   0  0  0  0  0  0  0  0  0  0  0  0
    7.0765   -0.2929   -3.9200 C   0  0  0  0  0  0  0  0  0  0  0  0
    5.7679    0.1884   -3.9192 C   0  0  0  0  0  0  0  0  0  0  0  0
    5.5302    1.5313   -4.2149 C   0  0  0  0  0  0  0  0  0  0  0  0
    6.3824    3.4217   -4.7715 H   0  0  0  0  0  0  0  0  0  0  0  0
    8.7182    2.5588   -4.7577 H   0  0  0  0  0  0  0  0  0  0  0  0
    7.2613   -1.3417   -3.6977 H   0  0  0  0  0  0  0  0  0  0  0  0
    4.9299   -0.4694   -3.7145 H   0  0  0  0  0  0  0  0  0  0  0  0
    3.8546    2.1797   -4.1766 S   0  0  0  0  0  0  0  0  0  0  0  0
    2.9567    1.0388   -4.5328 O   0  0  0  0  0  0  0  0  0  0  0  0
    3.8104    3.3272   -5.1034 O   0  0  0  0  0  0  0  0  0  0  0  0
    3.6315    2.5866   -2.7250 O   0  0  0  0  0  0  0  0  0  0  0  0
    9.5771    0.0291   -4.1779 C   0  0  0  0  0  0  0  0  0  0  0  0
    9.6196   -1.0350   -4.4318 H   0  0  0  0  0  0  0  0  0  0  0  0
   10.2196    0.5710   -4.8787 H   0  0  0  0  0  0  0  0  0  0  0  0
   10.0187    0.1418   -3.1786 H   0  0  0  0  0  0  0  0  0  0  0  0
   -0.8788    0.3846    0.3703 H   0  0  0  0  0  0  0  0  0  0  0  0
  1  6  1  0  0  0  0
  1  7  1  0  0  0  0
  2  1  2  0  0  0  0
  3  2  1  0  0  0  0
  4  3  2  0  0  0  0
  4  5  1  0  0  0  0
  5 10  1  0  0  0  0
  5  6  2  0  0  0  0
  6 31  1  0  0  0  0
  8  2  1  0  0  0  0
  9  4  1  0  0  0  0
 12 11  3  0  0  0  0
 13 14  2  0  0  0  0
 13 18  1  0  0  0  0
 14 15  1  0  0  0  0
 15 27  1  0  0  0  0
 15 16  2  0  0  0  0
 16 17  1  0  0  0  0
 16 21  1  0  0  0  0
 17 22  1  0  0  0  0
 18 23  1  0  0  0  0
 18 17  2  0  0  0  0
 19 13  1  0  0  0  0
 20 14  1  0  0  0  0
 23 26  1  0  0  0  0
 24 23  2  0  0  0  0
 25 23  2  0  0  0  0
 27 30  1  0  0  0  0
 28 27  1  0  0  0  0
 29 27  1  0  0  0  0
M  RAD  2   3   2  26   2
M  END
