Coordinates from ORCA-job /home/ubuntu/works/orca-Ph-N2-OTs-B3LYP-6-31G_dp-scan-d09-49-n400/Ph-N2-OTs-B3LYP-6-31G_dp-scan-d09-49-n400
 OpenBabel01281705563D

 31 30  0  0  0  0  0  0  0  0999 V2000
    1.6460    1.2971   -1.0178 C   0  0  0  0  0  0  0  0  0  0  0  0
    1.4412    1.7069   -2.3519 C   0  0  0  0  0  0  0  0  0  0  0  0
    0.4438    1.2102   -2.9415 C   0  0  0  0  0  0  0  0  0  0  0  0
   -0.5597    0.3287   -2.6570 C   0  0  0  0  0  0  0  0  0  0  0  0
   -0.3651   -0.0958   -1.3195 C   0  0  0  0  0  0  0  0  0  0  0  0
    0.7012    0.3743   -0.5315 C   0  0  0  0  0  0  0  0  0  0  0  0
    2.4655    1.6506   -0.3991 H   0  0  0  0  0  0  0  0  0  0  0  0
    2.6579    2.8983   -3.2778 H   0  0  0  0  0  0  0  0  0  0  0  0
   -1.3673   -0.0075   -3.2938 H   0  0  0  0  0  0  0  0  0  0  0  0
   -1.0723   -0.8073   -0.8997 H   0  0  0  0  0  0  0  0  0  0  0  0
   -0.3295    1.9156   -5.5653 N   0  0  0  0  0  0  0  0  0  0  0  0
   -0.1407    2.5982   -6.4137 N   0  0  0  0  0  0  0  0  0  0  0  0
    6.5726    2.5669   -4.3652 C   0  0  0  0  0  0  0  0  0  0  0  0
    7.6523    1.7783   -3.9730 C   0  0  0  0  0  0  0  0  0  0  0  0
    7.5055    0.3998   -3.7581 C   0  0  0  0  0  0  0  0  0  0  0  0
    6.2423   -0.1768   -3.9572 C   0  0  0  0  0  0  0  0  0  0  0  0
    5.1504    0.5957   -4.3492 C   0  0  0  0  0  0  0  0  0  0  0  0
    5.3253    1.9666   -4.5461 C   0  0  0  0  0  0  0  0  0  0  0  0
    6.6917    3.6292   -4.5502 H   0  0  0  0  0  0  0  0  0  0  0  0
    8.6275    2.2396   -3.8379 H   0  0  0  0  0  0  0  0  0  0  0  0
    6.1128   -1.2463   -3.8094 H   0  0  0  0  0  0  0  0  0  0  0  0
    4.1786    0.1451   -4.5213 H   0  0  0  0  0  0  0  0  0  0  0  0
    3.9313    2.9737   -5.0345 S   0  0  0  0  0  0  0  0  0  0  0  0
    2.9170    2.0996   -5.6287 O   0  0  0  0  0  0  0  0  0  0  0  0
    4.4334    4.1487   -5.7336 O   0  0  0  0  0  0  0  0  0  0  0  0
    3.3590    3.5187   -3.6139 O   0  0  0  0  0  0  0  0  0  0  0  0
    8.6757   -0.4414   -3.3073 C   0  0  0  0  0  0  0  0  0  0  0  0
    8.6094   -1.4615   -3.6967 H   0  0  0  0  0  0  0  0  0  0  0  0
    9.6268   -0.0125   -3.6363 H   0  0  0  0  0  0  0  0  0  0  0  0
    8.7100   -0.5118   -2.2124 H   0  0  0  0  0  0  0  0  0  0  0  0
    0.7970    0.0098    0.4880 H   0  0  0  0  0  0  0  0  0  0  0  0
  1  6  1  0  0  0  0
  1  7  1  0  0  0  0
  2  1  2  0  0  0  0
  3  4  2  0  0  0  0
  3  2  1  0  0  0  0
  4  5  1  0  0  0  0
  5 10  1  0  0  0  0
  5  6  2  0  0  0  0
  6 31  1  0  0  0  0
  9  4  1  0  0  0  0
 12 11  3  0  0  0  0
 13 14  1  0  0  0  0
 14 20  1  0  0  0  0
 14 15  2  0  0  0  0
 15 27  1  0  0  0  0
 16 21  1  0  0  0  0
 16 15  1  0  0  0  0
 17 16  2  0  0  0  0
 18 13  2  0  0  0  0
 18 17  1  0  0  0  0
 19 13  1  0  0  0  0
 22 17  1  0  0  0  0
 23 18  1  0  0  0  0
 23 26  1  0  0  0  0
 24 23  2  0  0  0  0
 25 23  2  0  0  0  0
 26  8  1  0  0  0  0
 27 30  1  0  0  0  0
 28 27  1  0  0  0  0
 29 27  1  0  0  0  0
M  RAD  2   2   2   3   2
M  END
