Coordinates from ORCA-job /home/ubuntu/works/orca-Ph-N2-OTs-B3LYP-6-31G_dp-scan-d09-49-n400/Ph-N2-OTs-B3LYP-6-31G_dp-scan-d09-49-n400
 OpenBabel01281705563D

 31 30  0  0  0  0  0  0  0  0999 V2000
    1.6783    1.2512   -1.1629 C   0  0  0  0  0  0  0  0  0  0  0  0
    1.4055    1.6925   -2.4780 C   0  0  0  0  0  0  0  0  0  0  0  0
    0.3471    1.2252   -2.9880 C   0  0  0  0  0  0  0  0  0  0  0  0
   -0.6618    0.3746   -2.6401 C   0  0  0  0  0  0  0  0  0  0  0  0
   -0.3906   -0.0726   -1.3250 C   0  0  0  0  0  0  0  0  0  0  0  0
    0.7445    0.3549   -0.6131 C   0  0  0  0  0  0  0  0  0  0  0  0
    2.5513    1.5715   -0.6012 H   0  0  0  0  0  0  0  0  0  0  0  0
    2.6253    2.8544   -3.3363 H   0  0  0  0  0  0  0  0  0  0  0  0
   -1.5218    0.0738   -3.2238 H   0  0  0  0  0  0  0  0  0  0  0  0
   -1.0900   -0.7653   -0.8632 H   0  0  0  0  0  0  0  0  0  0  0  0
   -0.3227    1.9486   -5.3006 N   0  0  0  0  0  0  0  0  0  0  0  0
   -0.0903    2.6346   -6.1357 N   0  0  0  0  0  0  0  0  0  0  0  0
    6.5692    2.5667   -4.3577 C   0  0  0  0  0  0  0  0  0  0  0  0
    7.6511    1.7906   -3.9469 C   0  0  0  0  0  0  0  0  0  0  0  0
    7.5161    0.4107   -3.7332 C   0  0  0  0  0  0  0  0  0  0  0  0
    6.2629   -0.1800   -3.9525 C   0  0  0  0  0  0  0  0  0  0  0  0
    5.1690    0.5801   -4.3630 C   0  0  0  0  0  0  0  0  0  0  0  0
    5.3317    1.9526   -4.5585 C   0  0  0  0  0  0  0  0  0  0  0  0
    6.6796    3.6301   -4.5418 H   0  0  0  0  0  0  0  0  0  0  0  0
    8.6187    2.2629   -3.7962 H   0  0  0  0  0  0  0  0  0  0  0  0
    6.1429   -1.2508   -3.8058 H   0  0  0  0  0  0  0  0  0  0  0  0
    4.2051    0.1188   -4.5504 H   0  0  0  0  0  0  0  0  0  0  0  0
    3.9341    2.9444   -5.0693 S   0  0  0  0  0  0  0  0  0  0  0  0
    2.9404    2.0580   -5.6809 O   0  0  0  0  0  0  0  0  0  0  0  0
    4.4354    4.1233   -5.7633 O   0  0  0  0  0  0  0  0  0  0  0  0
    3.3332    3.4810   -3.6605 O   0  0  0  0  0  0  0  0  0  0  0  0
    8.6881   -0.4171   -3.2624 C   0  0  0  0  0  0  0  0  0  0  0  0
    8.6332   -1.4414   -3.6424 H   0  0  0  0  0  0  0  0  0  0  0  0
    9.6392    0.0157   -3.5863 H   0  0  0  0  0  0  0  0  0  0  0  0
    8.7122   -0.4765   -2.1666 H   0  0  0  0  0  0  0  0  0  0  0  0
    0.9029   -0.0216    0.3940 H   0  0  0  0  0  0  0  0  0  0  0  0
  1  6  1  0  0  0  0
  1  7  1  0  0  0  0
  2  1  2  0  0  0  0
  3  4  2  0  0  0  0
  3  2  1  0  0  0  0
  4  5  1  0  0  0  0
  5 10  1  0  0  0  0
  5  6  2  0  0  0  0
  6 31  1  0  0  0  0
  9  4  1  0  0  0  0
 12 11  3  0  0  0  0
 13 14  2  0  0  0  0
 14 20  1  0  0  0  0
 14 15  1  0  0  0  0
 15 27  1  0  0  0  0
 16 21  1  0  0  0  0
 16 15  2  0  0  0  0
 17 16  1  0  0  0  0
 18 17  2  0  0  0  0
 18 13  1  0  0  0  0
 19 13  1  0  0  0  0
 22 17  1  0  0  0  0
 23 18  1  0  0  0  0
 23 26  1  0  0  0  0
 24 23  2  0  0  0  0
 25 23  2  0  0  0  0
 26  8  1  0  0  0  0
 27 30  1  0  0  0  0
 28 27  1  0  0  0  0
 29 27  1  0  0  0  0
M  RAD  2   2   2   3   2
M  END
