Coordinates from ORCA-job /home/ubuntu/works/orca-Ph-N2-OTs-B3LYP-6-31G_dp-scan-d09-49-n400/Ph-N2-OTs-B3LYP-6-31G_dp-scan-d09-49-n400
 OpenBabel01281705563D

 31 30  0  0  0  0  0  0  0  0999 V2000
    1.6127    1.3417   -0.9389 C   0  0  0  0  0  0  0  0  0  0  0  0
    1.4603    1.7323   -2.2847 C   0  0  0  0  0  0  0  0  0  0  0  0
    0.5092    1.2062   -2.9219 C   0  0  0  0  0  0  0  0  0  0  0  0
   -0.4826    0.2987   -2.6790 C   0  0  0  0  0  0  0  0  0  0  0  0
   -0.3425   -0.1090   -1.3294 C   0  0  0  0  0  0  0  0  0  0  0  0
    0.6696    0.3967   -0.4931 C   0  0  0  0  0  0  0  0  0  0  0  0
    2.3903    1.7223   -0.2834 H   0  0  0  0  0  0  0  0  0  0  0  0
    2.6786    2.9349   -3.2241 H   0  0  0  0  0  0  0  0  0  0  0  0
   -1.2481   -0.0651   -3.3515 H   0  0  0  0  0  0  0  0  0  0  0  0
   -1.0497   -0.8367   -0.9381 H   0  0  0  0  0  0  0  0  0  0  0  0
   -0.3047    1.8470   -5.6896 N   0  0  0  0  0  0  0  0  0  0  0  0
   -0.1512    2.5092   -6.5608 N   0  0  0  0  0  0  0  0  0  0  0  0
    6.5756    2.5680   -4.3695 C   0  0  0  0  0  0  0  0  0  0  0  0
    7.6527    1.7672   -3.9951 C   0  0  0  0  0  0  0  0  0  0  0  0
    7.4941    0.3905   -3.7780 C   0  0  0  0  0  0  0  0  0  0  0  0
    6.2214   -0.1721   -3.9565 C   0  0  0  0  0  0  0  0  0  0  0  0
    5.1321    0.6126   -4.3306 C   0  0  0  0  0  0  0  0  0  0  0  0
    5.3191    1.9815   -4.5301 C   0  0  0  0  0  0  0  0  0  0  0  0
    6.7034    3.6289   -4.5562 H   0  0  0  0  0  0  0  0  0  0  0  0
    8.6351    2.2175   -3.8759 H   0  0  0  0  0  0  0  0  0  0  0  0
    6.0824   -1.2401   -3.8066 H   0  0  0  0  0  0  0  0  0  0  0  0
    4.1527    0.1728   -4.4868 H   0  0  0  0  0  0  0  0  0  0  0  0
    3.9287    3.0039   -4.9964 S   0  0  0  0  0  0  0  0  0  0  0  0
    2.8980    2.1419   -5.5801 O   0  0  0  0  0  0  0  0  0  0  0  0
    4.4329    4.1767   -5.6977 O   0  0  0  0  0  0  0  0  0  0  0  0
    3.3802    3.5497   -3.5662 O   0  0  0  0  0  0  0  0  0  0  0  0
    8.6620   -0.4641   -3.3464 C   0  0  0  0  0  0  0  0  0  0  0  0
    8.5858   -1.4790   -3.7475 H   0  0  0  0  0  0  0  0  0  0  0  0
    9.6133   -0.0377   -3.6777 H   0  0  0  0  0  0  0  0  0  0  0  0
    8.7039   -0.5481   -2.2528 H   0  0  0  0  0  0  0  0  0  0  0  0
    0.7241    0.0422    0.5330 H   0  0  0  0  0  0  0  0  0  0  0  0
  1  6  1  0  0  0  0
  1  7  1  0  0  0  0
  2  1  2  0  0  0  0
  3  4  2  0  0  0  0
  3  2  1  0  0  0  0
  4  5  1  0  0  0  0
  5 10  1  0  0  0  0
  5  6  2  0  0  0  0
  6 31  1  0  0  0  0
  9  4  1  0  0  0  0
 12 11  3  0  0  0  0
 13 14  1  0  0  0  0
 14 20  1  0  0  0  0
 14 15  2  0  0  0  0
 15 27  1  0  0  0  0
 16 21  1  0  0  0  0
 16 15  1  0  0  0  0
 17 16  2  0  0  0  0
 18 13  2  0  0  0  0
 18 17  1  0  0  0  0
 19 13  1  0  0  0  0
 22 17  1  0  0  0  0
 23 18  1  0  0  0  0
 23 26  1  0  0  0  0
 24 23  2  0  0  0  0
 25 23  2  0  0  0  0
 26  8  1  0  0  0  0
 27 30  1  0  0  0  0
 28 27  1  0  0  0  0
 29 27  1  0  0  0  0
M  RAD  2   2   2   3   2
M  END
