Coordinates from ORCA-job /home/ubuntu/works/orca-Ph-N2-OTs-B3LYP-6-31G_dp-scan-d09-49-n400/Ph-N2-OTs-B3LYP-6-31G_dp-scan-d09-49-n400
 OpenBabel01281705563D

 31 30  0  0  0  0  0  0  0  0999 V2000
    1.4189    1.4510   -0.6816 C   0  0  0  0  0  0  0  0  0  0  0  0
    1.5286    1.7624   -2.0500 C   0  0  0  0  0  0  0  0  0  0  0  0
    0.7388    1.1845   -2.8416 C   0  0  0  0  0  0  0  0  0  0  0  0
   -0.2726    0.2689   -2.7485 C   0  0  0  0  0  0  0  0  0  0  0  0
   -0.4001   -0.0633   -1.3771 C   0  0  0  0  0  0  0  0  0  0  0  0
    0.4160    0.5086   -0.3840 C   0  0  0  0  0  0  0  0  0  0  0  0
    2.0412    1.8855    0.0947 H   0  0  0  0  0  0  0  0  0  0  0  0
    2.7785    3.0062   -2.9622 H   0  0  0  0  0  0  0  0  0  0  0  0
   -0.8834   -0.1474   -3.5382 H   0  0  0  0  0  0  0  0  0  0  0  0
   -1.1622   -0.7861   -1.0944 H   0  0  0  0  0  0  0  0  0  0  0  0
   -0.1087    1.4214   -6.0075 N   0  0  0  0  0  0  0  0  0  0  0  0
    0.0111    1.9947   -6.9446 N   0  0  0  0  0  0  0  0  0  0  0  0
    6.6026    2.5794   -4.4126 C   0  0  0  0  0  0  0  0  0  0  0  0
    7.6838    1.7446   -4.1340 C   0  0  0  0  0  0  0  0  0  0  0  0
    7.5019    0.3752   -3.8947 C   0  0  0  0  0  0  0  0  0  0  0  0
    6.2000   -0.1465   -3.9513 C   0  0  0  0  0  0  0  0  0  0  0  0
    5.1075    0.6713   -4.2292 C   0  0  0  0  0  0  0  0  0  0  0  0
    5.3192    2.0335   -4.4539 C   0  0  0  0  0  0  0  0  0  0  0  0
    6.7459    3.6353   -4.6152 H   0  0  0  0  0  0  0  0  0  0  0  0
    8.6867    2.1633   -4.1081 H   0  0  0  0  0  0  0  0  0  0  0  0
    6.0411   -1.2086   -3.7813 H   0  0  0  0  0  0  0  0  0  0  0  0
    4.1044    0.2624   -4.2904 H   0  0  0  0  0  0  0  0  0  0  0  0
    3.9259    3.0986   -4.7983 S   0  0  0  0  0  0  0  0  0  0  0  0
    2.8397    2.2780   -5.3408 O   0  0  0  0  0  0  0  0  0  0  0  0
    4.4104    4.2818   -5.4955 O   0  0  0  0  0  0  0  0  0  0  0  0
    3.4803    3.6089   -3.3199 O   0  0  0  0  0  0  0  0  0  0  0  0
    8.6749   -0.5186   -3.5694 C   0  0  0  0  0  0  0  0  0  0  0  0
    8.5857   -1.4914   -4.0624 H   0  0  0  0  0  0  0  0  0  0  0  0
    9.6207   -0.0659   -3.8797 H   0  0  0  0  0  0  0  0  0  0  0  0
    8.7376   -0.7069   -2.4903 H   0  0  0  0  0  0  0  0  0  0  0  0
    0.2651    0.2099    0.6504 H   0  0  0  0  0  0  0  0  0  0  0  0
  1  6  1  0  0  0  0
  1  7  1  0  0  0  0
  2  1  2  0  0  0  0
  3  4  2  0  0  0  0
  3  2  1  0  0  0  0
  4  5  1  0  0  0  0
  5 10  1  0  0  0  0
  5  6  2  0  0  0  0
  6 31  1  0  0  0  0
  9  4  1  0  0  0  0
 12 11  3  0  0  0  0
 13 14  1  0  0  0  0
 14 20  1  0  0  0  0
 14 15  2  0  0  0  0
 15 27  1  0  0  0  0
 16 15  1  0  0  0  0
 16 21  1  0  0  0  0
 17 16  2  0  0  0  0
 18 13  2  0  0  0  0
 18 17  1  0  0  0  0
 19 13  1  0  0  0  0
 22 17  1  0  0  0  0
 23 18  1  0  0  0  0
 23 26  1  0  0  0  0
 24 23  2  0  0  0  0
 25 23  2  0  0  0  0
 26  8  1  0  0  0  0
 27 30  1  0  0  0  0
 28 27  1  0  0  0  0
 29 27  1  0  0  0  0
M  RAD  2   2   2   3   2
M  END
