Coordinates from ORCA-job /home/ubuntu/works/orca-Ph-N2-OTs-B3LYP-6-31G_dp-scan-d09-49-n400/Ph-N2-OTs-B3LYP-6-31G_dp-scan-d09-49-n400
 OpenBabel01281705563D

 31 30  0  0  0  0  0  0  0  0999 V2000
    0.7696    1.2306   -0.8368 C   0  0  0  0  0  0  0  0  0  0  0  0
    1.1675    1.6552   -2.1351 C   0  0  0  0  0  0  0  0  0  0  0  0
    0.1621    1.4424   -2.9662 C   0  0  0  0  0  0  0  0  0  0  0  0
   -1.1015    0.9459   -2.9585 C   0  0  0  0  0  0  0  0  0  0  0  0
   -1.4240    0.5398   -1.6460 C   0  0  0  0  0  0  0  0  0  0  0  0
   -0.4962    0.6849   -0.6071 C   0  0  0  0  0  0  0  0  0  0  0  0
    1.4898    1.3370   -0.0302 H   0  0  0  0  0  0  0  0  0  0  0  0
    2.2233    2.0849   -2.3829 H   0  0  0  0  0  0  0  0  0  0  0  0
   -1.7718    0.8600   -3.8025 H   0  0  0  0  0  0  0  0  0  0  0  0
   -2.4066    0.1138   -1.4670 H   0  0  0  0  0  0  0  0  0  0  0  0
    0.5609    2.1361   -4.9327 N   0  0  0  0  0  0  0  0  0  0  0  0
    0.5308    2.6268   -5.9218 N   0  0  0  0  0  0  0  0  0  0  0  0
    6.5856    2.3930   -4.5056 C   0  0  0  0  0  0  0  0  0  0  0  0
    7.8877    1.8945   -4.4716 C   0  0  0  0  0  0  0  0  0  0  0  0
    8.1414    0.5477   -4.1772 C   0  0  0  0  0  0  0  0  0  0  0  0
    7.0489   -0.2963   -3.9282 C   0  0  0  0  0  0  0  0  0  0  0  0
    5.7424    0.1884   -3.9582 C   0  0  0  0  0  0  0  0  0  0  0  0
    5.5165    1.5358   -4.2436 C   0  0  0  0  0  0  0  0  0  0  0  0
    6.3880    3.4308   -4.7528 H   0  0  0  0  0  0  0  0  0  0  0  0
    8.7207    2.5608   -4.6843 H   0  0  0  0  0  0  0  0  0  0  0  0
    7.2248   -1.3483   -3.7142 H   0  0  0  0  0  0  0  0  0  0  0  0
    4.8971   -0.4694   -3.7857 H   0  0  0  0  0  0  0  0  0  0  0  0
    3.8412    2.1843   -4.2470 S   0  0  0  0  0  0  0  0  0  0  0  0
    2.9467    1.0502   -4.6167 O   0  0  0  0  0  0  0  0  0  0  0  0
    3.8228    3.3393   -5.1637 O   0  0  0  0  0  0  0  0  0  0  0  0
    3.5915    2.5923   -2.7925 O   0  0  0  0  0  0  0  0  0  0  0  0
    9.5561    0.0209   -4.1121 C   0  0  0  0  0  0  0  0  0  0  0  0
    9.6119   -1.0213   -4.4428 H   0  0  0  0  0  0  0  0  0  0  0  0
   10.2332    0.6114   -4.7366 H   0  0  0  0  0  0  0  0  0  0  0  0
    9.9450    0.0557   -3.0859 H   0  0  0  0  0  0  0  0  0  0  0  0
   -0.7656    0.3636    0.3940 H   0  0  0  0  0  0  0  0  0  0  0  0
  1  6  1  0  0  0  0
  1  7  1  0  0  0  0
  2  1  2  0  0  0  0
  3  4  2  0  0  0  0
  3  2  1  0  0  0  0
  4  5  1  0  0  0  0
  5 10  1  0  0  0  0
  5  6  2  0  0  0  0
  6 31  1  0  0  0  0
  8  2  1  0  0  0  0
  9  4  1  0  0  0  0
 12 11  3  0  0  0  0
 13 14  2  0  0  0  0
 13 18  1  0  0  0  0
 14 15  1  0  0  0  0
 15 27  1  0  0  0  0
 15 16  2  0  0  0  0
 16 21  1  0  0  0  0
 17 16  1  0  0  0  0
 17 22  1  0  0  0  0
 18 17  2  0  0  0  0
 19 13  1  0  0  0  0
 20 14  1  0  0  0  0
 23 18  1  0  0  0  0
 23 26  1  0  0  0  0
 24 23  2  0  0  0  0
 25 23  2  0  0  0  0
 27 30  1  0  0  0  0
 28 27  1  0  0  0  0
 29 27  1  0  0  0  0
M  RAD  2   3   2  26   2
M  END
