Coordinates from ORCA-job /home/ubuntu/works/orca-Ph-N2-OTs-B3LYP-6-31G_dp-scan-d09-49-n400/Ph-N2-OTs-B3LYP-6-31G_dp-scan-d09-49-n400
 OpenBabel01281705563D

 31 32  0  0  1  0  0  0  0  0999 V2000
    1.9954    0.2931   -2.5760 C   0  0  0  0  0  0  0  0  0  0  0  0
    1.6969    1.3285   -3.6099 C   0  0  1  0  0  0  0  0  0  0  0  0
    0.2834    1.9831   -3.4613 C   0  0  0  0  0  0  0  0  0  0  0  0
   -0.3842    1.8170   -2.1402 C   0  0  0  0  0  0  0  0  0  0  0  0
    0.0746    0.9555   -1.2131 C   0  0  0  0  0  0  0  0  0  0  0  0
    1.2578    0.1478   -1.4608 C   0  0  0  0  0  0  0  0  0  0  0  0
    2.8793   -0.3134   -2.7516 H   0  0  0  0  0  0  0  0  0  0  0  0
    1.7768    0.9438   -4.6307 H   0  0  0  0  0  0  0  0  0  0  0  0
   -1.2740    2.4216   -1.9881 H   0  0  0  0  0  0  0  0  0  0  0  0
   -0.4487    0.8518   -0.2676 H   0  0  0  0  0  0  0  0  0  0  0  0
   -0.0927    2.4979   -4.2059 N   0  0  0  0  0  0  0  0  0  0  0  0
   -0.5381    3.1123   -5.0992 N   0  0  0  0  0  0  0  0  0  0  0  0
    5.4262    0.6099   -4.9445 C   0  0  0  0  0  0  0  0  0  0  0  0
    6.5589   -0.1196   -4.5853 C   0  0  0  0  0  0  0  0  0  0  0  0
    7.4252    0.3331   -3.5802 C   0  0  0  0  0  0  0  0  0  0  0  0
    7.1356    1.5514   -2.9455 C   0  0  0  0  0  0  0  0  0  0  0  0
    6.0110    2.2959   -3.2904 C   0  0  0  0  0  0  0  0  0  0  0  0
    5.1600    1.8118   -4.2869 C   0  0  0  0  0  0  0  0  0  0  0  0
    4.7678    0.2701   -5.7371 H   0  0  0  0  0  0  0  0  0  0  0  0
    6.7768   -1.0512   -5.1009 H   0  0  0  0  0  0  0  0  0  0  0  0
    7.8053    1.9249   -2.1747 H   0  0  0  0  0  0  0  0  0  0  0  0
    5.8013    3.2457   -2.8102 H   0  0  0  0  0  0  0  0  0  0  0  0
    3.7084    2.7539   -4.7293 S   0  0  0  0  0  0  0  0  0  0  0  0
    3.1459    2.1922   -5.9586 O   0  0  0  0  0  0  0  0  0  0  0  0
    4.0023    4.1721   -4.5883 O   0  0  0  0  0  0  0  0  0  0  0  0
    2.6768    2.4218   -3.4802 O   0  0  0  0  0  0  0  0  0  0  0  0
    8.6329   -0.4783   -3.1774 C   0  0  0  0  0  0  0  0  0  0  0  0
    8.3844   -1.1716   -2.3636 H   0  0  0  0  0  0  0  0  0  0  0  0
    9.0099   -1.0767   -4.0119 H   0  0  0  0  0  0  0  0  0  0  0  0
    9.4451    0.1627   -2.8220 H   0  0  0  0  0  0  0  0  0  0  0  0
    1.5395   -0.5962   -0.7203 H   0  0  0  0  0  0  0  0  0  0  0  0
  1  6  2  0  0  0  0
  2  8  1  6  0  0  0
  2 26  1  0  0  0  0
  2  3  1  0  0  0  0
  2  1  1  0  0  0  0
  3  4  2  0  0  0  0
  4  9  1  0  0  0  0
  4  5  1  0  0  0  0
  5 10  1  0  0  0  0
  6  5  1  0  0  0  0
  6 31  1  0  0  0  0
  7  1  1  0  0  0  0
 11  3  1  0  0  0  0
 12 11  1  0  0  0  0
 13 14  2  0  0  0  0
 13 18  1  0  0  0  0
 14 15  1  0  0  0  0
 15 27  1  0  0  0  0
 15 16  2  0  0  0  0
 16 21  1  0  0  0  0
 17 16  1  0  0  0  0
 17 22  1  0  0  0  0
 18 17  2  0  0  0  0
 19 13  1  0  0  0  0
 20 14  1  0  0  0  0
 23 25  2  0  0  0  0
 23 18  1  0  0  0  0
 23 26  1  0  0  0  0
 24 23  2  0  0  0  0
 27 30  1  0  0  0  0
 27 28  1  0  0  0  0
 29 27  1  0  0  0  0
M  RAD  3   5   2  11   2  12   3
M  END
