Coordinates from ORCA-job /home/ubuntu/works/orca-Ph-N2-OTs-B3LYP-6-31G_dp-scan-d09-49-n400/Ph-N2-OTs-B3LYP-6-31G_dp-scan-d09-49-n400
 OpenBabel01281705563D

 31 31  0  0  0  0  0  0  0  0999 V2000
    0.6837    1.3946   -0.7508 C   0  0  0  0  0  0  0  0  0  0  0  0
    1.2024    2.2644   -1.7112 C   0  0  0  0  0  0  0  0  0  0  0  0
    1.7671    1.7272   -2.8687 C   0  0  0  0  0  0  0  0  0  0  0  0
    1.8160    0.3499   -3.0846 C   0  0  0  0  0  0  0  0  0  0  0  0
    1.2853   -0.5075   -2.1195 C   0  0  0  0  0  0  0  0  0  0  0  0
    0.7221    0.0122   -0.9514 C   0  0  0  0  0  0  0  0  0  0  0  0
    0.2431    1.8015    0.1550 H   0  0  0  0  0  0  0  0  0  0  0  0
    1.1809    3.3393   -1.5750 H   0  0  0  0  0  0  0  0  0  0  0  0
    2.2551   -0.0279   -4.0019 H   0  0  0  0  0  0  0  0  0  0  0  0
    1.3130   -1.5815   -2.2821 H   0  0  0  0  0  0  0  0  0  0  0  0
    2.1683    2.4794   -7.1534 N   0  0  0  0  0  0  0  0  0  0  0  0
    1.2523    3.0810   -7.2956 N   0  0  0  0  0  0  0  0  0  0  0  0
    5.2713    1.7050   -5.0896 C   0  0  0  0  0  0  0  0  0  0  0  0
    6.2419    0.7120   -5.1905 C   0  0  0  0  0  0  0  0  0  0  0  0
    6.8476    0.1667   -4.0471 C   0  0  0  0  0  0  0  0  0  0  0  0
    6.4511    0.6402   -2.7885 C   0  0  0  0  0  0  0  0  0  0  0  0
    5.4804    1.6329   -2.6638 C   0  0  0  0  0  0  0  0  0  0  0  0
    4.8996    2.1564   -3.8199 C   0  0  0  0  0  0  0  0  0  0  0  0
    4.8106    2.1291   -5.9749 H   0  0  0  0  0  0  0  0  0  0  0  0
    6.5377    0.3555   -6.1737 H   0  0  0  0  0  0  0  0  0  0  0  0
    6.9092    0.2290   -1.8930 H   0  0  0  0  0  0  0  0  0  0  0  0
    5.1814    2.0073   -1.6911 H   0  0  0  0  0  0  0  0  0  0  0  0
    3.6514    3.4218   -3.6779 S   0  0  0  0  0  0  0  0  0  0  0  0
    2.2301    2.5653   -3.8899 O   0  0  0  0  0  0  0  0  0  0  0  0
    3.6849    4.2795   -4.8532 O   0  0  0  0  0  0  0  0  0  0  0  0
    3.6790    3.9616   -2.3213 O   0  0  0  0  0  0  0  0  0  0  0  0
    7.9240   -0.8840   -4.1734 C   0  0  0  0  0  0  0  0  0  0  0  0
    7.9635   -1.5267   -3.2888 H   0  0  0  0  0  0  0  0  0  0  0  0
    7.7638   -1.5172   -5.0513 H   0  0  0  0  0  0  0  0  0  0  0  0
    8.9117   -0.4188   -4.2834 H   0  0  0  0  0  0  0  0  0  0  0  0
    0.3111   -0.6573   -0.2014 H   0  0  0  0  0  0  0  0  0  0  0  0
  1  7  1  0  0  0  0
  2  8  1  0  0  0  0
  2  1  2  0  0  0  0
  3  2  1  0  0  0  0
  4  3  2  0  0  0  0
  4  5  1  0  0  0  0
  5  6  2  0  0  0  0
  6  1  1  0  0  0  0
  6 31  1  0  0  0  0
  9  4  1  0  0  0  0
 10  5  1  0  0  0  0
 12 11  3  0  0  0  0
 13 18  1  0  0  0  0
 14 13  2  0  0  0  0
 14 15  1  0  0  0  0
 15 16  2  0  0  0  0
 16 17  1  0  0  0  0
 16 21  1  0  0  0  0
 17 22  1  0  0  0  0
 18 23  1  0  0  0  0
 18 17  2  0  0  0  0
 19 13  1  0  0  0  0
 20 14  1  0  0  0  0
 23 26  2  0  0  0  0
 24 23  1  0  0  0  0
 24  3  1  0  0  0  0
 25 23  2  0  0  0  0
 27 15  1  0  0  0  0
 27 28  1  0  0  0  0
 29 27  1  0  0  0  0
 30 27  1  0  0  0  0
M  END
