Coordinates from ORCA-job /home/ubuntu/works/orca-Ph-N2-OTs-B3LYP-6-31G_dp-scan-d09-49-n400/Ph-N2-OTs-B3LYP-6-31G_dp-scan-d09-49-n400
 OpenBabel01281705563D

 31 30  0  0  0  0  0  0  0  0999 V2000
    1.6071    1.3410   -0.9464 C   0  0  0  0  0  0  0  0  0  0  0  0
    1.4517    1.7323   -2.2916 C   0  0  0  0  0  0  0  0  0  0  0  0
    0.4976    1.2085   -2.9261 C   0  0  0  0  0  0  0  0  0  0  0  0
   -0.4950    0.3026   -2.6802 C   0  0  0  0  0  0  0  0  0  0  0  0
   -0.3518   -0.1061   -1.3313 C   0  0  0  0  0  0  0  0  0  0  0  0
    0.6637    0.3974   -0.4979 C   0  0  0  0  0  0  0  0  0  0  0  0
    2.3874    1.7200   -0.2931 H   0  0  0  0  0  0  0  0  0  0  0  0
    2.6755    2.9304   -3.2267 H   0  0  0  0  0  0  0  0  0  0  0  0
   -1.2634   -0.0595   -3.3505 H   0  0  0  0  0  0  0  0  0  0  0  0
   -1.0593   -0.8325   -0.9382 H   0  0  0  0  0  0  0  0  0  0  0  0
   -0.3056    1.8510   -5.6644 N   0  0  0  0  0  0  0  0  0  0  0  0
   -0.1484    2.5131   -6.5351 N   0  0  0  0  0  0  0  0  0  0  0  0
    6.5781    2.5672   -4.3708 C   0  0  0  0  0  0  0  0  0  0  0  0
    7.6568    1.7683   -3.9968 C   0  0  0  0  0  0  0  0  0  0  0  0
    7.5006    0.3914   -3.7789 C   0  0  0  0  0  0  0  0  0  0  0  0
    6.2286   -0.1733   -3.9562 C   0  0  0  0  0  0  0  0  0  0  0  0
    5.1378    0.6095   -4.3298 C   0  0  0  0  0  0  0  0  0  0  0  0
    5.3224    1.9786   -4.5302 C   0  0  0  0  0  0  0  0  0  0  0  0
    6.7041    3.6282   -4.5582 H   0  0  0  0  0  0  0  0  0  0  0  0
    8.6385    2.2203   -3.8786 H   0  0  0  0  0  0  0  0  0  0  0  0
    6.0915   -1.2414   -3.8056 H   0  0  0  0  0  0  0  0  0  0  0  0
    4.1590    0.1680   -4.4851 H   0  0  0  0  0  0  0  0  0  0  0  0
    3.9300    2.9984   -4.9959 S   0  0  0  0  0  0  0  0  0  0  0  0
    2.9005    2.1348   -5.5791 O   0  0  0  0  0  0  0  0  0  0  0  0
    4.4319    4.1721   -5.6976 O   0  0  0  0  0  0  0  0  0  0  0  0
    3.3810    3.5427   -3.5654 O   0  0  0  0  0  0  0  0  0  0  0  0
    8.6701   -0.4610   -3.3477 C   0  0  0  0  0  0  0  0  0  0  0  0
    8.5946   -1.4766   -3.7472 H   0  0  0  0  0  0  0  0  0  0  0  0
    9.6204   -0.0339   -3.6808 H   0  0  0  0  0  0  0  0  0  0  0  0
    8.7137   -0.5434   -2.2540 H   0  0  0  0  0  0  0  0  0  0  0  0
    0.7206    0.0425    0.5280 H   0  0  0  0  0  0  0  0  0  0  0  0
  1  6  1  0  0  0  0
  1  7  1  0  0  0  0
  2  1  2  0  0  0  0
  3  4  2  0  0  0  0
  3  2  1  0  0  0  0
  4  5  1  0  0  0  0
  5 10  1  0  0  0  0
  5  6  2  0  0  0  0
  6 31  1  0  0  0  0
  9  4  1  0  0  0  0
 12 11  3  0  0  0  0
 13 14  1  0  0  0  0
 14 20  1  0  0  0  0
 14 15  2  0  0  0  0
 15 27  1  0  0  0  0
 16 21  1  0  0  0  0
 16 15  1  0  0  0  0
 17 16  2  0  0  0  0
 18 13  2  0  0  0  0
 18 17  1  0  0  0  0
 19 13  1  0  0  0  0
 22 17  1  0  0  0  0
 23 18  1  0  0  0  0
 23 26  1  0  0  0  0
 24 23  2  0  0  0  0
 25 23  2  0  0  0  0
 26  8  1  0  0  0  0
 27 30  1  0  0  0  0
 28 27  1  0  0  0  0
 29 27  1  0  0  0  0
M  RAD  2   2   2   3   2
M  END
