Coordinates from ORCA-job /home/ubuntu/works/orca-Ph-N2-OTs-B3LYP-6-31G_dp-scan-d09-49-n400/Ph-N2-OTs-B3LYP-6-31G_dp-scan-d09-49-n400
 OpenBabel01281705563D

 31 31  0  0  0  0  0  0  0  0999 V2000
    0.6779    1.4315   -0.8941 C   0  0  0  0  0  0  0  0  0  0  0  0
    1.2610    2.3330   -1.7861 C   0  0  0  0  0  0  0  0  0  0  0  0
    1.8489    1.8394   -2.9515 C   0  0  0  0  0  0  0  0  0  0  0  0
    1.8588    0.4750   -3.2421 C   0  0  0  0  0  0  0  0  0  0  0  0
    1.2633   -0.4135   -2.3453 C   0  0  0  0  0  0  0  0  0  0  0  0
    0.6760    0.0616   -1.1701 C   0  0  0  0  0  0  0  0  0  0  0  0
    0.2191    1.8043    0.0172 H   0  0  0  0  0  0  0  0  0  0  0  0
    1.2718    3.3987   -1.5909 H   0  0  0  0  0  0  0  0  0  0  0  0
    2.3139    0.1329   -4.1651 H   0  0  0  0  0  0  0  0  0  0  0  0
    1.2589   -1.4772   -2.5669 H   0  0  0  0  0  0  0  0  0  0  0  0
    1.1081    1.6320   -6.5676 N   0  0  0  0  0  0  0  0  0  0  0  0
    0.4385    2.4459   -6.9005 N   0  0  0  0  0  0  0  0  0  0  0  0
    5.4709    1.8521   -5.0331 C   0  0  0  0  0  0  0  0  0  0  0  0
    6.4103    0.8315   -5.1510 C   0  0  0  0  0  0  0  0  0  0  0  0
    6.9152    0.1732   -4.0181 C   0  0  0  0  0  0  0  0  0  0  0  0
    6.4503    0.5629   -2.7541 C   0  0  0  0  0  0  0  0  0  0  0  0
    5.5094    1.5817   -2.6132 C   0  0  0  0  0  0  0  0  0  0  0  0
    5.0277    2.2172   -3.7589 C   0  0  0  0  0  0  0  0  0  0  0  0
    5.0922    2.3689   -5.9083 H   0  0  0  0  0  0  0  0  0  0  0  0
    6.7619    0.5431   -6.1381 H   0  0  0  0  0  0  0  0  0  0  0  0
    6.8311    0.0645   -1.8666 H   0  0  0  0  0  0  0  0  0  0  0  0
    5.1593    1.8912   -1.6348 H   0  0  0  0  0  0  0  0  0  0  0  0
    3.8141    3.5136   -3.6004 S   0  0  0  0  0  0  0  0  0  0  0  0
    2.3772    2.7155   -3.9076 O   0  0  0  0  0  0  0  0  0  0  0  0
    3.9220    4.4253   -4.7293 O   0  0  0  0  0  0  0  0  0  0  0  0
    3.8049    3.9839   -2.2179 O   0  0  0  0  0  0  0  0  0  0  0  0
    7.9598   -0.9073   -4.1580 C   0  0  0  0  0  0  0  0  0  0  0  0
    7.9226   -1.6124   -3.3220 H   0  0  0  0  0  0  0  0  0  0  0  0
    7.8315   -1.4706   -5.0874 H   0  0  0  0  0  0  0  0  0  0  0  0
    8.9680   -0.4747   -4.1765 H   0  0  0  0  0  0  0  0  0  0  0  0
    0.2149   -0.6325   -0.4736 H   0  0  0  0  0  0  0  0  0  0  0  0
  1  7  1  0  0  0  0
  2  8  1  0  0  0  0
  2  1  2  0  0  0  0
  3  2  1  0  0  0  0
  4  3  2  0  0  0  0
  4  5  1  0  0  0  0
  5  6  2  0  0  0  0
  6  1  1  0  0  0  0
  6 31  1  0  0  0  0
  9  4  1  0  0  0  0
 10  5  1  0  0  0  0
 12 11  3  0  0  0  0
 13 18  1  0  0  0  0
 14 13  2  0  0  0  0
 14 15  1  0  0  0  0
 15 16  2  0  0  0  0
 16 17  1  0  0  0  0
 16 21  1  0  0  0  0
 17 22  1  0  0  0  0
 18 23  1  0  0  0  0
 18 17  2  0  0  0  0
 19 13  1  0  0  0  0
 20 14  1  0  0  0  0
 23 26  2  0  0  0  0
 24 23  1  0  0  0  0
 24  3  1  0  0  0  0
 25 23  2  0  0  0  0
 27 15  1  0  0  0  0
 27 28  1  0  0  0  0
 29 27  1  0  0  0  0
 30 27  1  0  0  0  0
M  END
