Coordinates from ORCA-job /home/ubuntu/works/orca-Ph-N2-OTs-B3LYP-6-31G_dp-scan-d09-49-n400/Ph-N2-OTs-B3LYP-6-31G_dp-scan-d09-49-n400
 OpenBabel01281705563D

 31 31  0  0  0  0  0  0  0  0999 V2000
    0.2141    0.8543   -0.8284 C   0  0  0  0  0  0  0  0  0  0  0  0
    1.0055    1.3177   -1.8952 C   0  0  0  0  0  0  0  0  0  0  0  0
    0.2955    1.4478   -3.0507 C   0  0  0  0  0  0  0  0  0  0  0  0
   -1.0235    1.2050   -3.3450 C   0  0  0  0  0  0  0  0  0  0  0  0
   -1.7594    0.7344   -2.2479 C   0  0  0  0  0  0  0  0  0  0  0  0
   -1.1412    0.5634   -1.0050 C   0  0  0  0  0  0  0  0  0  0  0  0
    0.6841    0.7239    0.1416 H   0  0  0  0  0  0  0  0  0  0  0  0
    2.0689    1.5610   -1.7975 H   0  0  0  0  0  0  0  0  0  0  0  0
   -1.4575    1.3584   -4.3247 H   0  0  0  0  0  0  0  0  0  0  0  0
   -2.8122    0.5056   -2.3814 H   0  0  0  0  0  0  0  0  0  0  0  0
    1.2068    2.0857   -4.4814 N   0  0  0  0  0  0  0  0  0  0  0  0
    1.0982    2.6350   -5.4459 N   0  0  0  0  0  0  0  0  0  0  0  0
    6.3315    2.0277   -4.9652 C   0  0  0  0  0  0  0  0  0  0  0  0
    7.5849    1.5073   -5.2821 C   0  0  0  0  0  0  0  0  0  0  0  0
    8.2187    0.5793   -4.4428 C   0  0  0  0  0  0  0  0  0  0  0  0
    7.5604    0.1843   -3.2693 C   0  0  0  0  0  0  0  0  0  0  0  0
    6.3068    0.6958   -2.9388 C   0  0  0  0  0  0  0  0  0  0  0  0
    5.6968    1.6163   -3.7924 C   0  0  0  0  0  0  0  0  0  0  0  0
    5.8477    2.7571   -5.6065 H   0  0  0  0  0  0  0  0  0  0  0  0
    8.0813    1.8289   -6.1946 H   0  0  0  0  0  0  0  0  0  0  0  0
    8.0384   -0.5308   -2.6037 H   0  0  0  0  0  0  0  0  0  0  0  0
    5.8051    0.4015   -2.0231 H   0  0  0  0  0  0  0  0  0  0  0  0
    4.0635    2.2519   -3.4032 S   0  0  0  0  0  0  0  0  0  0  0  0
    3.1254    1.2105   -4.0308 O   0  0  0  0  0  0  0  0  0  0  0  0
    3.9227    3.5718   -4.0475 O   0  0  0  0  0  0  0  0  0  0  0  0
    3.9382    2.2242   -1.9197 O   0  0  0  0  0  0  0  0  0  0  0  0
    9.5918    0.0452   -4.7775 C   0  0  0  0  0  0  0  0  0  0  0  0
    9.7437   -0.9575   -4.3664 H   0  0  0  0  0  0  0  0  0  0  0  0
    9.7501   -0.0036   -5.8594 H   0  0  0  0  0  0  0  0  0  0  0  0
   10.3777    0.6889   -4.3623 H   0  0  0  0  0  0  0  0  0  0  0  0
   -1.7246    0.1998   -0.1649 H   0  0  0  0  0  0  0  0  0  0  0  0
  1  7  1  0  0  0  0
  2  8  1  0  0  0  0
  2  1  2  0  0  0  0
  3  2  1  0  0  0  0
  4  3  2  0  0  0  0
  4  5  1  0  0  0  0
  5  6  2  0  0  0  0
  6  1  1  0  0  0  0
  6 31  1  0  0  0  0
  9  4  1  0  0  0  0
 10  5  1  0  0  0  0
 11  3  1  0  0  0  0
 12 11  2  0  0  0  0
 13 18  1  0  0  0  0
 14 13  2  0  0  0  0
 14 15  1  0  0  0  0
 15 16  2  0  0  0  0
 16 17  1  0  0  0  0
 16 21  1  0  0  0  0
 17 22  1  0  0  0  0
 18 23  1  0  0  0  0
 18 17  2  0  0  0  0
 19 13  1  0  0  0  0
 20 14  1  0  0  0  0
 23 26  1  0  0  0  0
 24 23  2  0  0  0  0
 25 23  2  0  0  0  0
 27 15  1  0  0  0  0
 27 28  1  0  0  0  0
 27 30  1  0  0  0  0
 29 27  1  0  0  0  0
M  RAD  2  12   2  26   2
M  END
