Coordinates from ORCA-job /home/ubuntu/works/orca-Ph-N2-OTs-B3LYP-6-31G_dp-scan-d09-49-n400/Ph-N2-OTs-B3LYP-6-31G_dp-scan-d09-49-n400
 OpenBabel01281705563D

 31 32  0  0  1  0  0  0  0  0999 V2000
    1.9658    0.2772   -2.5663 C   0  0  0  0  0  0  0  0  0  0  0  0
    1.6933    1.3217   -3.5976 C   0  0  1  0  0  0  0  0  0  0  0  0
    0.2757    2.0226   -3.4657 C   0  0  0  0  0  0  0  0  0  0  0  0
   -0.4018    1.8306   -2.1402 C   0  0  0  0  0  0  0  0  0  0  0  0
    0.0324    0.9459   -1.2259 C   0  0  0  0  0  0  0  0  0  0  0  0
    1.2092    0.1253   -1.4661 C   0  0  0  0  0  0  0  0  0  0  0  0
    2.8469   -0.3357   -2.7354 H   0  0  0  0  0  0  0  0  0  0  0  0
    1.7543    0.9365   -4.6200 H   0  0  0  0  0  0  0  0  0  0  0  0
   -1.2825    2.4492   -1.9895 H   0  0  0  0  0  0  0  0  0  0  0  0
   -0.5054    0.8350   -0.2890 H   0  0  0  0  0  0  0  0  0  0  0  0
   -0.0524    2.5269   -4.1618 N   0  0  0  0  0  0  0  0  0  0  0  0
   -0.4697    3.1741   -5.0588 N   0  0  0  0  0  0  0  0  0  0  0  0
    5.4322    0.5931   -4.9365 C   0  0  0  0  0  0  0  0  0  0  0  0
    6.5718   -0.1266   -4.5797 C   0  0  0  0  0  0  0  0  0  0  0  0
    7.4451    0.3419   -3.5877 C   0  0  0  0  0  0  0  0  0  0  0  0
    7.1556    1.5659   -2.9643 C   0  0  0  0  0  0  0  0  0  0  0  0
    6.0241    2.3010   -3.3071 C   0  0  0  0  0  0  0  0  0  0  0  0
    5.1664    1.8012   -4.2900 C   0  0  0  0  0  0  0  0  0  0  0  0
    4.7684    0.2409   -5.7191 H   0  0  0  0  0  0  0  0  0  0  0  0
    6.7897   -1.0629   -5.0866 H   0  0  0  0  0  0  0  0  0  0  0  0
    7.8305    1.9515   -2.2042 H   0  0  0  0  0  0  0  0  0  0  0  0
    5.8140    3.2552   -2.8360 H   0  0  0  0  0  0  0  0  0  0  0  0
    3.7061    2.7304   -4.7291 S   0  0  0  0  0  0  0  0  0  0  0  0
    3.1381    2.1586   -5.9504 O   0  0  0  0  0  0  0  0  0  0  0  0
    3.9878    4.1511   -4.5926 O   0  0  0  0  0  0  0  0  0  0  0  0
    2.6853    2.3902   -3.4667 O   0  0  0  0  0  0  0  0  0  0  0  0
    8.6603   -0.4592   -3.1870 C   0  0  0  0  0  0  0  0  0  0  0  0
    8.4204   -1.1498   -2.3685 H   0  0  0  0  0  0  0  0  0  0  0  0
    9.0370   -1.0596   -4.0204 H   0  0  0  0  0  0  0  0  0  0  0  0
    9.4700    0.1891   -2.8393 H   0  0  0  0  0  0  0  0  0  0  0  0
    1.4707   -0.6305   -0.7302 H   0  0  0  0  0  0  0  0  0  0  0  0
  1  6  2  0  0  0  0
  2  8  1  6  0  0  0
  2 26  1  0  0  0  0
  2  3  1  0  0  0  0
  2  1  1  0  0  0  0
  3  4  2  0  0  0  0
  4  9  1  0  0  0  0
  4  5  1  0  0  0  0
  5 10  1  0  0  0  0
  6  5  1  0  0  0  0
  6 31  1  0  0  0  0
  7  1  1  0  0  0  0
 11  3  1  0  0  0  0
 12 11  1  0  0  0  0
 13 14  2  0  0  0  0
 13 18  1  0  0  0  0
 14 15  1  0  0  0  0
 15 27  1  0  0  0  0
 15 16  2  0  0  0  0
 16 21  1  0  0  0  0
 17 16  1  0  0  0  0
 17 22  1  0  0  0  0
 18 17  2  0  0  0  0
 19 13  1  0  0  0  0
 20 14  1  0  0  0  0
 23 25  2  0  0  0  0
 23 18  1  0  0  0  0
 23 26  1  0  0  0  0
 24 23  2  0  0  0  0
 27 30  1  0  0  0  0
 27 28  1  0  0  0  0
 29 27  1  0  0  0  0
M  RAD  3   5   2  11   2  12   3
M  END
