Coordinates from ORCA-job /home/ubuntu/works/orca-Ph-N2-OTs-B3LYP-6-31G_dp-scan-d09-49-n400/Ph-N2-OTs-B3LYP-6-31G_dp-scan-d09-49-n400
 OpenBabel01281705563D

 31 30  0  0  0  0  0  0  0  0999 V2000
    1.4113    1.4512   -0.6827 C   0  0  0  0  0  0  0  0  0  0  0  0
    1.5229    1.7613   -2.0511 C   0  0  0  0  0  0  0  0  0  0  0  0
    0.7328    1.1854   -2.8438 C   0  0  0  0  0  0  0  0  0  0  0  0
   -0.2805    0.2718   -2.7510 C   0  0  0  0  0  0  0  0  0  0  0  0
   -0.4104   -0.0593   -1.3796 C   0  0  0  0  0  0  0  0  0  0  0  0
    0.4060    0.5111   -0.3858 C   0  0  0  0  0  0  0  0  0  0  0  0
    2.0338    1.8846    0.0940 H   0  0  0  0  0  0  0  0  0  0  0  0
    2.7782    3.0028   -2.9600 H   0  0  0  0  0  0  0  0  0  0  0  0
   -0.8915   -0.1436   -3.5410 H   0  0  0  0  0  0  0  0  0  0  0  0
   -1.1744   -0.7802   -1.0973 H   0  0  0  0  0  0  0  0  0  0  0  0
   -0.1083    1.4195   -5.9909 N   0  0  0  0  0  0  0  0  0  0  0  0
    0.0132    1.9897   -6.9295 N   0  0  0  0  0  0  0  0  0  0  0  0
    6.6056    2.5789   -4.4151 C   0  0  0  0  0  0  0  0  0  0  0  0
    7.6882    1.7453   -4.1384 C   0  0  0  0  0  0  0  0  0  0  0  0
    7.5081    0.3760   -3.8976 C   0  0  0  0  0  0  0  0  0  0  0  0
    6.2065   -0.1470   -3.9507 C   0  0  0  0  0  0  0  0  0  0  0  0
    5.1126    0.6696   -4.2267 C   0  0  0  0  0  0  0  0  0  0  0  0
    5.3226    2.0318   -4.4529 C   0  0  0  0  0  0  0  0  0  0  0  0
    6.7475    3.6348   -4.6187 H   0  0  0  0  0  0  0  0  0  0  0  0
    8.6908    2.1649   -4.1152 H   0  0  0  0  0  0  0  0  0  0  0  0
    6.0490   -1.2091   -3.7795 H   0  0  0  0  0  0  0  0  0  0  0  0
    4.1098    0.2597   -4.2851 H   0  0  0  0  0  0  0  0  0  0  0  0
    3.9274    3.0953   -4.7948 S   0  0  0  0  0  0  0  0  0  0  0  0
    2.8415    2.2737   -5.3363 O   0  0  0  0  0  0  0  0  0  0  0  0
    4.4095    4.2796   -5.4918 O   0  0  0  0  0  0  0  0  0  0  0  0
    3.4830    3.6034   -3.3152 O   0  0  0  0  0  0  0  0  0  0  0  0
    8.6827   -0.5166   -3.5744 C   0  0  0  0  0  0  0  0  0  0  0  0
    8.5938   -1.4894   -4.0677 H   0  0  0  0  0  0  0  0  0  0  0  0
    9.6275   -0.0627   -3.8860 H   0  0  0  0  0  0  0  0  0  0  0  0
    8.7472   -0.7052   -2.4955 H   0  0  0  0  0  0  0  0  0  0  0  0
    0.2532    0.2132    0.6486 H   0  0  0  0  0  0  0  0  0  0  0  0
  1  6  1  0  0  0  0
  1  7  1  0  0  0  0
  2  1  2  0  0  0  0
  3  4  2  0  0  0  0
  3  2  1  0  0  0  0
  4  5  1  0  0  0  0
  5 10  1  0  0  0  0
  5  6  2  0  0  0  0
  6 31  1  0  0  0  0
  9  4  1  0  0  0  0
 12 11  3  0  0  0  0
 13 14  1  0  0  0  0
 14 20  1  0  0  0  0
 14 15  2  0  0  0  0
 15 27  1  0  0  0  0
 16 15  1  0  0  0  0
 16 21  1  0  0  0  0
 17 16  2  0  0  0  0
 18 13  2  0  0  0  0
 18 17  1  0  0  0  0
 19 13  1  0  0  0  0
 22 17  1  0  0  0  0
 23 18  1  0  0  0  0
 23 26  1  0  0  0  0
 24 23  2  0  0  0  0
 25 23  2  0  0  0  0
 26  8  1  0  0  0  0
 27 30  1  0  0  0  0
 28 27  1  0  0  0  0
 29 27  1  0  0  0  0
M  RAD  2   2   2   3   2
M  END
