Coordinates from ORCA-job /home/ubuntu/works/orca-Ph-N2-OTs-B3LYP-6-31G_dp-scan-d09-49-n400/Ph-N2-OTs-B3LYP-6-31G_dp-scan-d09-49-n400
 OpenBabel01281705563D

 31 30  0  0  0  0  0  0  0  0999 V2000
    1.6782    1.2545   -1.1364 C   0  0  0  0  0  0  0  0  0  0  0  0
    1.4136    1.6900   -2.4542 C   0  0  0  0  0  0  0  0  0  0  0  0
    0.3636    1.2207   -2.9768 C   0  0  0  0  0  0  0  0  0  0  0  0
   -0.6460    0.3670   -2.6381 C   0  0  0  0  0  0  0  0  0  0  0  0
   -0.3854   -0.0766   -1.3191 C   0  0  0  0  0  0  0  0  0  0  0  0
    0.7409    0.3556   -0.5961 C   0  0  0  0  0  0  0  0  0  0  0  0
    2.5443    1.5787   -0.5664 H   0  0  0  0  0  0  0  0  0  0  0  0
    2.6310    2.8606   -3.3324 H   0  0  0  0  0  0  0  0  0  0  0  0
   -1.4994    0.0618   -3.2291 H   0  0  0  0  0  0  0  0  0  0  0  0
   -1.0868   -0.7710   -0.8630 H   0  0  0  0  0  0  0  0  0  0  0  0
   -0.3295    1.9488   -5.3574 N   0  0  0  0  0  0  0  0  0  0  0  0
   -0.1015    2.6379   -6.1911 N   0  0  0  0  0  0  0  0  0  0  0  0
    6.5689    2.5674   -4.3573 C   0  0  0  0  0  0  0  0  0  0  0  0
    7.6498    1.7893   -3.9477 C   0  0  0  0  0  0  0  0  0  0  0  0
    7.5131    0.4093   -3.7358 C   0  0  0  0  0  0  0  0  0  0  0  0
    6.2591   -0.1795   -3.9559 C   0  0  0  0  0  0  0  0  0  0  0  0
    5.1662    0.5826   -4.3654 C   0  0  0  0  0  0  0  0  0  0  0  0
    5.3307    1.9551   -4.5589 C   0  0  0  0  0  0  0  0  0  0  0  0
    6.6807    3.6309   -4.5399 H   0  0  0  0  0  0  0  0  0  0  0  0
    8.6180    2.2602   -3.7963 H   0  0  0  0  0  0  0  0  0  0  0  0
    6.1377   -1.2503   -3.8108 H   0  0  0  0  0  0  0  0  0  0  0  0
    4.2017    0.1227   -4.5535 H   0  0  0  0  0  0  0  0  0  0  0  0
    3.9345    2.9492   -5.0687 S   0  0  0  0  0  0  0  0  0  0  0  0
    2.9387    2.0649   -5.6795 O   0  0  0  0  0  0  0  0  0  0  0  0
    4.4371    4.1280   -5.7618 O   0  0  0  0  0  0  0  0  0  0  0  0
    3.3356    3.4874   -3.6588 O   0  0  0  0  0  0  0  0  0  0  0  0
    8.6840   -0.4207   -3.2663 C   0  0  0  0  0  0  0  0  0  0  0  0
    8.6286   -1.4439   -3.6491 H   0  0  0  0  0  0  0  0  0  0  0  0
    9.6357    0.0122   -3.5882 H   0  0  0  0  0  0  0  0  0  0  0  0
    8.7071   -0.4829   -2.1706 H   0  0  0  0  0  0  0  0  0  0  0  0
    0.8897   -0.0193    0.4131 H   0  0  0  0  0  0  0  0  0  0  0  0
  1  6  1  0  0  0  0
  1  7  1  0  0  0  0
  2  1  2  0  0  0  0
  3  4  2  0  0  0  0
  3  2  1  0  0  0  0
  4  5  1  0  0  0  0
  5 10  1  0  0  0  0
  5  6  2  0  0  0  0
  6 31  1  0  0  0  0
  9  4  1  0  0  0  0
 12 11  3  0  0  0  0
 13 14  2  0  0  0  0
 14 20  1  0  0  0  0
 14 15  1  0  0  0  0
 15 27  1  0  0  0  0
 16 21  1  0  0  0  0
 16 15  2  0  0  0  0
 17 16  1  0  0  0  0
 18 17  2  0  0  0  0
 18 13  1  0  0  0  0
 19 13  1  0  0  0  0
 22 17  1  0  0  0  0
 23 18  1  0  0  0  0
 23 26  1  0  0  0  0
 24 23  2  0  0  0  0
 25 23  2  0  0  0  0
 26  8  1  0  0  0  0
 27 30  1  0  0  0  0
 28 27  1  0  0  0  0
 29 27  1  0  0  0  0
M  RAD  2   2   2   3   2
M  END
