Coordinates from ORCA-job /home/ubuntu/works/orca-Ph-N2-OTs-B3LYP-6-31G_dp-scan-d09-49-n400/Ph-N2-OTs-B3LYP-6-31G_dp-scan-d09-49-n400
 OpenBabel01281705563D

 31 32  0  0  1  0  0  0  0  0999 V2000
    1.9830    0.2860   -2.5739 C   0  0  0  0  0  0  0  0  0  0  0  0
    1.6954    1.3264   -3.6058 C   0  0  1  0  0  0  0  0  0  0  0  0
    0.2795    2.0017   -3.4637 C   0  0  0  0  0  0  0  0  0  0  0  0
   -0.3904    1.8235   -2.1390 C   0  0  0  0  0  0  0  0  0  0  0  0
    0.0584    0.9511   -1.2185 C   0  0  0  0  0  0  0  0  0  0  0  0
    1.2382    0.1373   -1.4646 C   0  0  0  0  0  0  0  0  0  0  0  0
    2.8653   -0.3235   -2.7481 H   0  0  0  0  0  0  0  0  0  0  0  0
    1.7658    0.9419   -4.6276 H   0  0  0  0  0  0  0  0  0  0  0  0
   -1.2757    2.4346   -1.9863 H   0  0  0  0  0  0  0  0  0  0  0  0
   -0.4701    0.8441   -0.2761 H   0  0  0  0  0  0  0  0  0  0  0  0
   -0.0751    2.5094   -4.1842 N   0  0  0  0  0  0  0  0  0  0  0  0
   -0.5101    3.1373   -5.0795 N   0  0  0  0  0  0  0  0  0  0  0  0
    5.4286    0.6025   -4.9411 C   0  0  0  0  0  0  0  0  0  0  0  0
    6.5640   -0.1228   -4.5822 C   0  0  0  0  0  0  0  0  0  0  0  0
    7.4331    0.3369   -3.5826 C   0  0  0  0  0  0  0  0  0  0  0  0
    7.1436    1.5579   -2.9533 C   0  0  0  0  0  0  0  0  0  0  0  0
    6.0162    2.2985   -3.2980 C   0  0  0  0  0  0  0  0  0  0  0  0
    5.1626    1.8074   -4.2887 C   0  0  0  0  0  0  0  0  0  0  0  0
    4.7681    0.2572   -5.7295 H   0  0  0  0  0  0  0  0  0  0  0  0
    6.7819   -1.0566   -5.0937 H   0  0  0  0  0  0  0  0  0  0  0  0
    7.8153    1.9368   -2.1870 H   0  0  0  0  0  0  0  0  0  0  0  0
    5.8064    3.2504   -2.8221 H   0  0  0  0  0  0  0  0  0  0  0  0
    3.7074    2.7440   -4.7305 S   0  0  0  0  0  0  0  0  0  0  0  0
    3.1427    2.1776   -5.9562 O   0  0  0  0  0  0  0  0  0  0  0  0
    3.9960    4.1632   -4.5916 O   0  0  0  0  0  0  0  0  0  0  0  0
    2.6801    2.4086   -3.4756 O   0  0  0  0  0  0  0  0  0  0  0  0
    8.6437   -0.4701   -3.1800 C   0  0  0  0  0  0  0  0  0  0  0  0
    8.3983   -1.1624   -2.3644 H   0  0  0  0  0  0  0  0  0  0  0  0
    9.0211   -1.0694   -4.0138 H   0  0  0  0  0  0  0  0  0  0  0  0
    9.4547    0.1739   -2.8273 H   0  0  0  0  0  0  0  0  0  0  0  0
    1.5115   -0.6126   -0.7269 H   0  0  0  0  0  0  0  0  0  0  0  0
  1  6  2  0  0  0  0
  2  8  1  6  0  0  0
  2 26  1  0  0  0  0
  2  3  1  0  0  0  0
  2  1  1  0  0  0  0
  3  4  2  0  0  0  0
  4  9  1  0  0  0  0
  4  5  1  0  0  0  0
  5 10  1  0  0  0  0
  6  5  1  0  0  0  0
  6 31  1  0  0  0  0
  7  1  1  0  0  0  0
 11  3  1  0  0  0  0
 12 11  1  0  0  0  0
 13 14  2  0  0  0  0
 13 18  1  0  0  0  0
 14 15  1  0  0  0  0
 15 27  1  0  0  0  0
 15 16  2  0  0  0  0
 16 21  1  0  0  0  0
 17 16  1  0  0  0  0
 17 22  1  0  0  0  0
 18 17  2  0  0  0  0
 19 13  1  0  0  0  0
 20 14  1  0  0  0  0
 23 25  2  0  0  0  0
 23 18  1  0  0  0  0
 23 26  1  0  0  0  0
 24 23  2  0  0  0  0
 27 30  1  0  0  0  0
 27 28  1  0  0  0  0
 29 27  1  0  0  0  0
M  RAD  3   5   2  11   2  12   3
M  END
