Coordinates from ORCA-job /home/ubuntu/works/orca-Ph-N2-OTs-B3LYP-6-31G_dp-scan-d09-49-n400/Ph-N2-OTs-B3LYP-6-31G_dp-scan-d09-49-n400
 OpenBabel01281705563D

 31 31  0  0  0  0  0  0  0  0999 V2000
    0.7361    1.3882   -0.7627 C   0  0  0  0  0  0  0  0  0  0  0  0
    1.2677    2.2988   -1.6775 C   0  0  0  0  0  0  0  0  0  0  0  0
    1.7963    1.8160   -2.8757 C   0  0  0  0  0  0  0  0  0  0  0  0
    1.7956    0.4536   -3.1757 C   0  0  0  0  0  0  0  0  0  0  0  0
    1.2521   -0.4442   -2.2556 C   0  0  0  0  0  0  0  0  0  0  0  0
    0.7256    0.0203   -1.0478 C   0  0  0  0  0  0  0  0  0  0  0  0
    0.3234    1.7526    0.1736 H   0  0  0  0  0  0  0  0  0  0  0  0
    1.2834    3.3632   -1.4755 H   0  0  0  0  0  0  0  0  0  0  0  0
    2.2068    0.1199   -4.1226 H   0  0  0  0  0  0  0  0  0  0  0  0
    1.2406   -1.5062   -2.4846 H   0  0  0  0  0  0  0  0  0  0  0  0
    1.9927    1.8507   -6.9387 N   0  0  0  0  0  0  0  0  0  0  0  0
    1.1675    2.5115   -7.2608 N   0  0  0  0  0  0  0  0  0  0  0  0
    5.3258    1.8140   -5.0566 C   0  0  0  0  0  0  0  0  0  0  0  0
    6.2697    0.7982   -5.1782 C   0  0  0  0  0  0  0  0  0  0  0  0
    6.8268    0.1830   -4.0454 C   0  0  0  0  0  0  0  0  0  0  0  0
    6.4096    0.6112   -2.7774 C   0  0  0  0  0  0  0  0  0  0  0  0
    5.4649    1.6261   -2.6326 C   0  0  0  0  0  0  0  0  0  0  0  0
    4.9309    2.2182   -3.7782 C   0  0  0  0  0  0  0  0  0  0  0  0
    4.9046    2.2941   -5.9330 H   0  0  0  0  0  0  0  0  0  0  0  0
    6.5832    0.4791   -6.1687 H   0  0  0  0  0  0  0  0  0  0  0  0
    6.8309    0.1464   -1.8901 H   0  0  0  0  0  0  0  0  0  0  0  0
    5.1515    1.9653   -1.6516 H   0  0  0  0  0  0  0  0  0  0  0  0
    3.7136    3.5103   -3.6120 S   0  0  0  0  0  0  0  0  0  0  0  0
    2.2715    2.6985   -3.8530 O   0  0  0  0  0  0  0  0  0  0  0  0
    3.7762    4.3956   -4.7651 O   0  0  0  0  0  0  0  0  0  0  0  0
    3.7466    4.0142   -2.2417 O   0  0  0  0  0  0  0  0  0  0  0  0
    7.8743   -0.8938   -4.1927 C   0  0  0  0  0  0  0  0  0  0  0  0
    7.9037   -1.5479   -3.3162 H   0  0  0  0  0  0  0  0  0  0  0  0
    7.6904   -1.5123   -5.0766 H   0  0  0  0  0  0  0  0  0  0  0  0
    8.8729   -0.4535   -4.3064 H   0  0  0  0  0  0  0  0  0  0  0  0
    0.3047   -0.6807   -0.3328 H   0  0  0  0  0  0  0  0  0  0  0  0
  1  7  1  0  0  0  0
  2  8  1  0  0  0  0
  2  1  2  0  0  0  0
  3  2  1  0  0  0  0
  4  3  2  0  0  0  0
  4  5  1  0  0  0  0
  5  6  2  0  0  0  0
  6  1  1  0  0  0  0
  6 31  1  0  0  0  0
  9  4  1  0  0  0  0
 10  5  1  0  0  0  0
 12 11  3  0  0  0  0
 13 18  1  0  0  0  0
 14 13  2  0  0  0  0
 14 15  1  0  0  0  0
 15 16  2  0  0  0  0
 16 17  1  0  0  0  0
 16 21  1  0  0  0  0
 17 22  1  0  0  0  0
 18 23  1  0  0  0  0
 18 17  2  0  0  0  0
 19 13  1  0  0  0  0
 20 14  1  0  0  0  0
 23 26  2  0  0  0  0
 24 23  1  0  0  0  0
 24  3  1  0  0  0  0
 25 23  2  0  0  0  0
 27 15  1  0  0  0  0
 27 28  1  0  0  0  0
 29 27  1  0  0  0  0
 30 27  1  0  0  0  0
M  END
