Coordinates from ORCA-job /home/ubuntu/works/orca-Ph-N2-OTs-B3LYP-6-31G_dp-scan-d09-49-n400/Ph-N2-OTs-B3LYP-6-31G_dp-scan-d09-49-n400
 OpenBabel01281705563D

 31 32  0  0  1  0  0  0  0  0999 V2000
    1.8694    0.3295   -2.1307 C   0  0  0  0  0  0  0  0  0  0  0  0
    1.7653    1.1797   -3.3520 C   0  0  1  0  0  0  0  0  0  0  0  0
    0.3808    1.7483   -3.5077 C   0  0  0  0  0  0  0  0  0  0  0  0
   -0.5397    1.8267   -2.3957 C   0  0  0  0  0  0  0  0  0  0  0  0
   -0.2569    1.1702   -1.2434 C   0  0  0  0  0  0  0  0  0  0  0  0
    0.9469    0.3718   -1.1449 C   0  0  0  0  0  0  0  0  0  0  0  0
    2.7600   -0.2853   -2.0435 H   0  0  0  0  0  0  0  0  0  0  0  0
    2.0827    0.6638   -4.2599 H   0  0  0  0  0  0  0  0  0  0  0  0
   -1.4513    2.4032   -2.5208 H   0  0  0  0  0  0  0  0  0  0  0  0
   -0.9409    1.2170   -0.4027 H   0  0  0  0  0  0  0  0  0  0  0  0
    0.0513    2.2253   -4.6387 N   0  0  0  0  0  0  0  0  0  0  0  0
   -0.2391    2.6516   -5.6574 N   0  0  0  0  0  0  0  0  0  0  0  0
    5.4514    0.7231   -4.9856 C   0  0  0  0  0  0  0  0  0  0  0  0
    6.6207   -0.0093   -4.7801 C   0  0  0  0  0  0  0  0  0  0  0  0
    7.5283    0.3411   -3.7710 C   0  0  0  0  0  0  0  0  0  0  0  0
    7.2415    1.4597   -2.9720 C   0  0  0  0  0  0  0  0  0  0  0  0
    6.0811    2.2047   -3.1628 C   0  0  0  0  0  0  0  0  0  0  0  0
    5.1889    1.8236   -4.1689 C   0  0  0  0  0  0  0  0  0  0  0  0
    4.7593    0.4653   -5.7801 H   0  0  0  0  0  0  0  0  0  0  0  0
    6.8339   -0.8616   -5.4202 H   0  0  0  0  0  0  0  0  0  0  0  0
    7.9429    1.7547   -2.1954 H   0  0  0  0  0  0  0  0  0  0  0  0
    5.8745    3.0795   -2.5551 H   0  0  0  0  0  0  0  0  0  0  0  0
    3.6948    2.7732   -4.4186 S   0  0  0  0  0  0  0  0  0  0  0  0
    3.0648    2.3181   -5.6631 O   0  0  0  0  0  0  0  0  0  0  0  0
    3.9880    4.1811   -4.1828 O   0  0  0  0  0  0  0  0  0  0  0  0
    2.7566    2.3133   -3.1601 O   0  0  0  0  0  0  0  0  0  0  0  0
    8.7780   -0.4735   -3.5369 C   0  0  0  0  0  0  0  0  0  0  0  0
    8.5989   -1.2609   -2.7938 H   0  0  0  0  0  0  0  0  0  0  0  0
    9.1154   -0.9620   -4.4557 H   0  0  0  0  0  0  0  0  0  0  0  0
    9.5964    0.1480   -3.1609 H   0  0  0  0  0  0  0  0  0  0  0  0
    1.0959   -0.2292   -0.2511 H   0  0  0  0  0  0  0  0  0  0  0  0
  1  7  1  0  0  0  0
  1  6  2  0  0  0  0
  2  8  1  6  0  0  0
  2 26  1  0  0  0  0
  2  1  1  0  0  0  0
  3  2  1  0  0  0  0
  3  4  2  0  0  0  0
  4  5  1  0  0  0  0
  5  6  1  0  0  0  0
  5 10  1  0  0  0  0
  6 31  1  0  0  0  0
  9  4  1  0  0  0  0
 11  3  1  0  0  0  0
 12 11  1  0  0  0  0
 13 14  2  0  0  0  0
 13 18  1  0  0  0  0
 14 15  1  0  0  0  0
 15 27  1  0  0  0  0
 15 16  2  0  0  0  0
 16 21  1  0  0  0  0
 17 16  1  0  0  0  0
 17 22  1  0  0  0  0
 18 17  2  0  0  0  0
 19 13  1  0  0  0  0
 20 14  1  0  0  0  0
 23 25  2  0  0  0  0
 23 18  1  0  0  0  0
 23 26  1  0  0  0  0
 24 23  2  0  0  0  0
 27 30  1  0  0  0  0
 27 28  1  0  0  0  0
 29 27  1  0  0  0  0
M  RAD  3   5   2  11   2  12   3
M  END
