Coordinates from ORCA-job /home/ubuntu/works/orca-Ph-N2-OTs-B3LYP-6-31G_dp-scan-d09-49-n400/Ph-N2-OTs-B3LYP-6-31G_dp-scan-d09-49-n400
 OpenBabel01281705563D

 31 31  0  0  0  0  0  0  0  0999 V2000
    0.6473    1.3981   -0.6960 C   0  0  0  0  0  0  0  0  0  0  0  0
    1.1531    2.2436   -1.6843 C   0  0  0  0  0  0  0  0  0  0  0  0
    1.7397    1.6777   -2.8170 C   0  0  0  0  0  0  0  0  0  0  0  0
    1.8238    0.2950   -2.9808 C   0  0  0  0  0  0  0  0  0  0  0  0
    1.3063   -0.5386   -1.9879 C   0  0  0  0  0  0  0  0  0  0  0  0
    0.7210    0.0104   -0.8445 C   0  0  0  0  0  0  0  0  0  0  0  0
    0.1898    1.8274    0.1909 H   0  0  0  0  0  0  0  0  0  0  0  0
    1.1048    3.3220   -1.5887 H   0  0  0  0  0  0  0  0  0  0  0  0
    2.2790   -0.1063   -3.8802 H   0  0  0  0  0  0  0  0  0  0  0  0
    1.3618   -1.6170   -2.1097 H   0  0  0  0  0  0  0  0  0  0  0  0
    2.4288    2.7378   -7.4784 N   0  0  0  0  0  0  0  0  0  0  0  0
    1.5152    3.3467   -7.6035 N   0  0  0  0  0  0  0  0  0  0  0  0
    5.2345    1.6827   -5.1023 C   0  0  0  0  0  0  0  0  0  0  0  0
    6.2187    0.7038   -5.2101 C   0  0  0  0  0  0  0  0  0  0  0  0
    6.8403    0.1670   -4.0712 C   0  0  0  0  0  0  0  0  0  0  0  0
    6.4461    0.6348   -2.8097 C   0  0  0  0  0  0  0  0  0  0  0  0
    5.4622    1.6134   -2.6779 C   0  0  0  0  0  0  0  0  0  0  0  0
    4.8654    2.1284   -3.8299 C   0  0  0  0  0  0  0  0  0  0  0  0
    4.7623    2.1002   -5.9849 H   0  0  0  0  0  0  0  0  0  0  0  0
    6.5128    0.3519   -6.1955 H   0  0  0  0  0  0  0  0  0  0  0  0
    6.9166    0.2302   -1.9176 H   0  0  0  0  0  0  0  0  0  0  0  0
    5.1650    1.9835   -1.7030 H   0  0  0  0  0  0  0  0  0  0  0  0
    3.5981    3.3734   -3.6779 S   0  0  0  0  0  0  0  0  0  0  0  0
    2.1898    2.4903   -3.8646 O   0  0  0  0  0  0  0  0  0  0  0  0
    3.6023    4.2241   -4.8590 O   0  0  0  0  0  0  0  0  0  0  0  0
    3.6346    3.9224   -2.3254 O   0  0  0  0  0  0  0  0  0  0  0  0
    7.9306   -0.8683   -4.2052 C   0  0  0  0  0  0  0  0  0  0  0  0
    7.9814   -1.5141   -3.3234 H   0  0  0  0  0  0  0  0  0  0  0  0
    7.7766   -1.4999   -5.0852 H   0  0  0  0  0  0  0  0  0  0  0  0
    8.9116   -0.3893   -4.3159 H   0  0  0  0  0  0  0  0  0  0  0  0
    0.3199   -0.6405   -0.0730 H   0  0  0  0  0  0  0  0  0  0  0  0
  1  7  1  0  0  0  0
  2  8  1  0  0  0  0
  2  1  2  0  0  0  0
  3  2  1  0  0  0  0
  4  3  2  0  0  0  0
  4  5  1  0  0  0  0
  5  6  2  0  0  0  0
  6  1  1  0  0  0  0
  6 31  1  0  0  0  0
  9  4  1  0  0  0  0
 10  5  1  0  0  0  0
 12 11  3  0  0  0  0
 13 18  1  0  0  0  0
 14 13  2  0  0  0  0
 14 15  1  0  0  0  0
 15 16  2  0  0  0  0
 16 17  1  0  0  0  0
 16 21  1  0  0  0  0
 17 22  1  0  0  0  0
 18 23  1  0  0  0  0
 18 17  2  0  0  0  0
 19 13  1  0  0  0  0
 20 14  1  0  0  0  0
 23 26  2  0  0  0  0
 24 23  1  0  0  0  0
 24  3  1  0  0  0  0
 25 23  2  0  0  0  0
 27 15  1  0  0  0  0
 27 28  1  0  0  0  0
 29 27  1  0  0  0  0
 30 27  1  0  0  0  0
M  END
