Coordinates from ORCA-job /home/ubuntu/works/orca-Ph-N2-OTs-B3LYP-6-31G_dp-scan-d09-49-n400/Ph-N2-OTs-B3LYP-6-31G_dp-scan-d09-49-n400
 OpenBabel01281705563D

 31 31  0  0  0  0  0  0  0  0999 V2000
    0.6512    1.4028   -0.7238 C   0  0  0  0  0  0  0  0  0  0  0  0
    1.1664    2.2554   -1.7013 C   0  0  0  0  0  0  0  0  0  0  0  0
    1.7508    1.6974   -2.8389 C   0  0  0  0  0  0  0  0  0  0  0  0
    1.8234    0.3160   -3.0185 C   0  0  0  0  0  0  0  0  0  0  0  0
    1.2964   -0.5245   -2.0366 C   0  0  0  0  0  0  0  0  0  0  0  0
    0.7133    0.0163   -0.8881 C   0  0  0  0  0  0  0  0  0  0  0  0
    0.1953    1.8258    0.1669 H   0  0  0  0  0  0  0  0  0  0  0  0
    1.1270    3.3329   -1.5934 H   0  0  0  0  0  0  0  0  0  0  0  0
    2.2773   -0.0787   -3.9215 H   0  0  0  0  0  0  0  0  0  0  0  0
    1.3428   -1.6018   -2.1707 H   0  0  0  0  0  0  0  0  0  0  0  0
    2.3133    2.6373   -7.3471 N   0  0  0  0  0  0  0  0  0  0  0  0
    1.3852    3.2275   -7.4544 N   0  0  0  0  0  0  0  0  0  0  0  0
    5.2555    1.6937   -5.0973 C   0  0  0  0  0  0  0  0  0  0  0  0
    6.2346    0.7097   -5.2040 C   0  0  0  0  0  0  0  0  0  0  0  0
    6.8485    0.1662   -4.0641 C   0  0  0  0  0  0  0  0  0  0  0  0
    6.4517    0.6326   -2.8029 C   0  0  0  0  0  0  0  0  0  0  0  0
    5.4727    1.6162   -2.6723 C   0  0  0  0  0  0  0  0  0  0  0  0
    4.8836    2.1379   -3.8251 C   0  0  0  0  0  0  0  0  0  0  0  0
    4.7889    2.1164   -5.9804 H   0  0  0  0  0  0  0  0  0  0  0  0
    6.5306    0.3589   -6.1892 H   0  0  0  0  0  0  0  0  0  0  0  0
    6.9162    0.2228   -1.9100 H   0  0  0  0  0  0  0  0  0  0  0  0
    5.1735    1.9852   -1.6976 H   0  0  0  0  0  0  0  0  0  0  0  0
    3.6233    3.3902   -3.6750 S   0  0  0  0  0  0  0  0  0  0  0  0
    2.2105    2.5175   -3.8767 O   0  0  0  0  0  0  0  0  0  0  0  0
    3.6408    4.2476   -4.8510 O   0  0  0  0  0  0  0  0  0  0  0  0
    3.6540    3.9312   -2.3190 O   0  0  0  0  0  0  0  0  0  0  0  0
    7.9336   -0.8747   -4.1967 C   0  0  0  0  0  0  0  0  0  0  0  0
    7.9801   -1.5207   -3.3148 H   0  0  0  0  0  0  0  0  0  0  0  0
    7.7772   -1.5056   -5.0769 H   0  0  0  0  0  0  0  0  0  0  0  0
    8.9172   -0.4008   -4.3064 H   0  0  0  0  0  0  0  0  0  0  0  0
    0.3049   -0.6399   -0.1250 H   0  0  0  0  0  0  0  0  0  0  0  0
  1  7  1  0  0  0  0
  2  8  1  0  0  0  0
  2  1  2  0  0  0  0
  3  2  1  0  0  0  0
  4  3  2  0  0  0  0
  4  5  1  0  0  0  0
  5  6  2  0  0  0  0
  6  1  1  0  0  0  0
  6 31  1  0  0  0  0
  9  4  1  0  0  0  0
 10  5  1  0  0  0  0
 12 11  3  0  0  0  0
 13 18  1  0  0  0  0
 14 13  2  0  0  0  0
 14 15  1  0  0  0  0
 15 16  2  0  0  0  0
 16 17  1  0  0  0  0
 16 21  1  0  0  0  0
 17 22  1  0  0  0  0
 18 23  1  0  0  0  0
 18 17  2  0  0  0  0
 19 13  1  0  0  0  0
 20 14  1  0  0  0  0
 23 26  2  0  0  0  0
 24 23  1  0  0  0  0
 24  3  1  0  0  0  0
 25 23  2  0  0  0  0
 27 15  1  0  0  0  0
 27 28  1  0  0  0  0
 29 27  1  0  0  0  0
 30 27  1  0  0  0  0
M  END
