Coordinates from ORCA-job /home/ubuntu/works/orca-Ph-N2-OTs-B3LYP-6-31G_dp-scan-d09-49-n400/Ph-N2-OTs-B3LYP-6-31G_dp-scan-d09-49-n400
 OpenBabel01281705563D

 31 31  0  0  0  0  0  0  0  0999 V2000
    0.2524    0.8491   -0.8332 C   0  0  0  0  0  0  0  0  0  0  0  0
    1.0150    1.3272   -1.9175 C   0  0  0  0  0  0  0  0  0  0  0  0
    0.2638    1.4510   -3.0409 C   0  0  0  0  0  0  0  0  0  0  0  0
   -1.0541    1.2018   -3.3180 C   0  0  0  0  0  0  0  0  0  0  0  0
   -1.7565    0.7182   -2.2024 C   0  0  0  0  0  0  0  0  0  0  0  0
   -1.1043    0.5467   -0.9770 C   0  0  0  0  0  0  0  0  0  0  0  0
    0.7500    0.7180    0.1230 H   0  0  0  0  0  0  0  0  0  0  0  0
    2.0818    1.5812   -1.8467 H   0  0  0  0  0  0  0  0  0  0  0  0
   -1.5120    1.3562   -4.2863 H   0  0  0  0  0  0  0  0  0  0  0  0
   -2.8101    0.4804   -2.3110 H   0  0  0  0  0  0  0  0  0  0  0  0
    1.1643    2.1261   -4.5373 N   0  0  0  0  0  0  0  0  0  0  0  0
    1.0488    2.6808   -5.4957 N   0  0  0  0  0  0  0  0  0  0  0  0
    6.3552    2.0438   -4.9658 C   0  0  0  0  0  0  0  0  0  0  0  0
    7.6126    1.5208   -5.2630 C   0  0  0  0  0  0  0  0  0  0  0  0
    8.2218    0.5753   -4.4252 C   0  0  0  0  0  0  0  0  0  0  0  0
    7.5345    0.1653   -3.2736 C   0  0  0  0  0  0  0  0  0  0  0  0
    6.2767    0.6791   -2.9633 C   0  0  0  0  0  0  0  0  0  0  0  0
    5.6914    1.6173   -3.8147 C   0  0  0  0  0  0  0  0  0  0  0  0
    5.8903    2.7866   -5.6056 H   0  0  0  0  0  0  0  0  0  0  0  0
    8.1314    1.8542   -6.1587 H   0  0  0  0  0  0  0  0  0  0  0  0
    7.9930   -0.5637   -2.6092 H   0  0  0  0  0  0  0  0  0  0  0  0
    5.7528    0.3730   -2.0641 H   0  0  0  0  0  0  0  0  0  0  0  0
    4.0515    2.2554   -3.4552 S   0  0  0  0  0  0  0  0  0  0  0  0
    3.1199    1.2291   -4.1040 O   0  0  0  0  0  0  0  0  0  0  0  0
    3.9345    3.5850   -4.0844 O   0  0  0  0  0  0  0  0  0  0  0  0
    3.9018    2.2175   -1.9710 O   0  0  0  0  0  0  0  0  0  0  0  0
    9.5989    0.0382   -4.7373 C   0  0  0  0  0  0  0  0  0  0  0  0
    9.7352   -0.9727   -4.3409 H   0  0  0  0  0  0  0  0  0  0  0  0
    9.7822    0.0076   -5.8160 H   0  0  0  0  0  0  0  0  0  0  0  0
   10.3790    0.6691   -4.2926 H   0  0  0  0  0  0  0  0  0  0  0  0
   -1.6622    0.1730   -0.1242 H   0  0  0  0  0  0  0  0  0  0  0  0
  1  7  1  0  0  0  0
  2  8  1  0  0  0  0
  2  1  2  0  0  0  0
  3  2  1  0  0  0  0
  4  3  2  0  0  0  0
  4  5  1  0  0  0  0
  5  6  2  0  0  0  0
  6  1  1  0  0  0  0
  6 31  1  0  0  0  0
  9  4  1  0  0  0  0
 10  5  1  0  0  0  0
 11  3  1  0  0  0  0
 12 11  2  0  0  0  0
 13 18  1  0  0  0  0
 14 13  2  0  0  0  0
 14 15  1  0  0  0  0
 15 16  2  0  0  0  0
 16 17  1  0  0  0  0
 16 21  1  0  0  0  0
 17 22  1  0  0  0  0
 18 23  1  0  0  0  0
 18 17  2  0  0  0  0
 19 13  1  0  0  0  0
 20 14  1  0  0  0  0
 23 26  1  0  0  0  0
 24 23  2  0  0  0  0
 25 23  2  0  0  0  0
 27 15  1  0  0  0  0
 27 28  1  0  0  0  0
 27 30  1  0  0  0  0
 29 27  1  0  0  0  0
M  RAD  2  12   2  26   2
M  END
