Coordinates from ORCA-job /home/ubuntu/works/orca-Ph-N2-OTs-B3LYP-6-31G_dp-scan-d09-49-n400/Ph-N2-OTs-B3LYP-6-31G_dp-scan-d09-49-n400
 OpenBabel01281705563D

 31 31  0  0  0  0  0  0  0  0999 V2000
    0.6690    1.4351   -0.9054 C   0  0  0  0  0  0  0  0  0  0  0  0
    1.2531    2.3345   -1.7986 C   0  0  0  0  0  0  0  0  0  0  0  0
    1.8484    1.8386   -2.9593 C   0  0  0  0  0  0  0  0  0  0  0  0
    1.8648    0.4729   -3.2441 C   0  0  0  0  0  0  0  0  0  0  0  0
    1.2686   -0.4137   -2.3458 C   0  0  0  0  0  0  0  0  0  0  0  0
    0.6739    0.0639   -1.1755 C   0  0  0  0  0  0  0  0  0  0  0  0
    0.2046    1.8101    0.0021 H   0  0  0  0  0  0  0  0  0  0  0  0
    1.2591    3.4012   -1.6078 H   0  0  0  0  0  0  0  0  0  0  0  0
    2.3250    0.1283   -4.1636 H   0  0  0  0  0  0  0  0  0  0  0  0
    1.2695   -1.4783   -2.5631 H   0  0  0  0  0  0  0  0  0  0  0  0
    1.0940    1.6444   -6.5117 N   0  0  0  0  0  0  0  0  0  0  0  0
    0.4187    2.4512   -6.8505 N   0  0  0  0  0  0  0  0  0  0  0  0
    5.4756    1.8511   -5.0356 C   0  0  0  0  0  0  0  0  0  0  0  0
    6.4156    0.8308   -5.1524 C   0  0  0  0  0  0  0  0  0  0  0  0
    6.9184    0.1719   -4.0190 C   0  0  0  0  0  0  0  0  0  0  0  0
    6.4507    0.5604   -2.7556 C   0  0  0  0  0  0  0  0  0  0  0  0
    5.5093    1.5789   -2.6158 C   0  0  0  0  0  0  0  0  0  0  0  0
    5.0298    2.2151   -3.7621 C   0  0  0  0  0  0  0  0  0  0  0  0
    5.0986    2.3685   -5.9112 H   0  0  0  0  0  0  0  0  0  0  0  0
    6.7693    0.5432   -6.1390 H   0  0  0  0  0  0  0  0  0  0  0  0
    6.8298    0.0615   -1.8677 H   0  0  0  0  0  0  0  0  0  0  0  0
    5.1570    1.8875   -1.6379 H   0  0  0  0  0  0  0  0  0  0  0  0
    3.8160    3.5115   -3.6051 S   0  0  0  0  0  0  0  0  0  0  0  0
    2.3792    2.7140   -3.9146 O   0  0  0  0  0  0  0  0  0  0  0  0
    3.9256    4.4235   -4.7335 O   0  0  0  0  0  0  0  0  0  0  0  0
    3.8045    3.9812   -2.2224 O   0  0  0  0  0  0  0  0  0  0  0  0
    7.9638   -0.9081   -4.1571 C   0  0  0  0  0  0  0  0  0  0  0  0
    7.9164   -1.6211   -3.3284 H   0  0  0  0  0  0  0  0  0  0  0  0
    7.8462   -1.4622   -5.0933 H   0  0  0  0  0  0  0  0  0  0  0  0
    8.9725   -0.4759   -4.1594 H   0  0  0  0  0  0  0  0  0  0  0  0
    0.2124   -0.6291   -0.4781 H   0  0  0  0  0  0  0  0  0  0  0  0
  1  7  1  0  0  0  0
  2  8  1  0  0  0  0
  2  1  2  0  0  0  0
  3  2  1  0  0  0  0
  4  3  2  0  0  0  0
  4  5  1  0  0  0  0
  5  6  2  0  0  0  0
  6  1  1  0  0  0  0
  6 31  1  0  0  0  0
  9  4  1  0  0  0  0
 10  5  1  0  0  0  0
 12 11  3  0  0  0  0
 13 18  1  0  0  0  0
 14 13  2  0  0  0  0
 14 15  1  0  0  0  0
 15 16  2  0  0  0  0
 16 17  1  0  0  0  0
 16 21  1  0  0  0  0
 17 22  1  0  0  0  0
 18 23  1  0  0  0  0
 18 17  2  0  0  0  0
 19 13  1  0  0  0  0
 20 14  1  0  0  0  0
 23 26  2  0  0  0  0
 24 23  1  0  0  0  0
 24  3  1  0  0  0  0
 25 23  2  0  0  0  0
 27 15  1  0  0  0  0
 27 28  1  0  0  0  0
 29 27  1  0  0  0  0
 30 27  1  0  0  0  0
M  END
