Coordinates from ORCA-job /home/ubuntu/works/orca-Ph-N2-OTs-B3LYP-6-31G_dp-scan-d09-49-n400/Ph-N2-OTs-B3LYP-6-31G_dp-scan-d09-49-n400
 OpenBabel01281705563D

 31 32  0  0  1  0  0  0  0  0999 V2000
    1.8275    0.3184   -2.0792 C   0  0  0  0  0  0  0  0  0  0  0  0
    1.7593    1.1484   -3.3147 C   0  0  1  0  0  0  0  0  0  0  0  0
    0.3935    1.7145   -3.4807 C   0  0  1  0  0  0  0  0  0  0  0  0
   -0.5620    1.8269   -2.4207 C   0  0  0  0  0  0  0  0  0  0  0  0
   -0.3116    1.1885   -1.2456 C   0  0  0  0  0  0  0  0  0  0  0  0
    0.8837    0.3885   -1.1111 C   0  0  0  0  0  0  0  0  0  0  0  0
    2.7078   -0.3059   -1.9624 H   0  0  0  0  0  0  0  0  0  0  0  0
    2.1020    0.6267   -4.2089 H   0  0  0  0  0  0  0  0  0  0  0  0
   -1.4672    2.4036   -2.5826 H   0  0  0  0  0  0  0  0  0  0  0  0
   -1.0159    1.2518   -0.4232 H   0  0  0  0  0  0  0  0  0  0  0  0
    0.0720    2.2397   -4.7171 N   0  0  0  0  0  0  0  0  0  0  0  0
   -0.1868    2.6676   -5.7350 N   0  0  0  0  0  0  0  0  0  0  0  0
    5.4528    0.7199   -4.9732 C   0  0  0  0  0  0  0  0  0  0  0  0
    6.6291   -0.0067   -4.7888 C   0  0  0  0  0  0  0  0  0  0  0  0
    7.5529    0.3481   -3.7959 C   0  0  0  0  0  0  0  0  0  0  0  0
    7.2748    1.4653   -2.9922 C   0  0  0  0  0  0  0  0  0  0  0  0
    6.1071    2.2044   -3.1622 C   0  0  0  0  0  0  0  0  0  0  0  0
    5.1989    1.8192   -4.1519 C   0  0  0  0  0  0  0  0  0  0  0  0
    4.7483    0.4590   -5.7558 H   0  0  0  0  0  0  0  0  0  0  0  0
    6.8352   -0.8580   -5.4326 H   0  0  0  0  0  0  0  0  0  0  0  0
    7.9885    1.7639   -2.2284 H   0  0  0  0  0  0  0  0  0  0  0  0
    5.9069    3.0782   -2.5512 H   0  0  0  0  0  0  0  0  0  0  0  0
    3.6936    2.7597   -4.3716 S   0  0  0  0  0  0  0  0  0  0  0  0
    3.0520    2.3110   -5.6145 O   0  0  0  0  0  0  0  0  0  0  0  0
    3.9852    4.1691   -4.1378 O   0  0  0  0  0  0  0  0  0  0  0  0
    2.7767    2.2846   -3.1118 O   0  0  0  0  0  0  0  0  0  0  0  0
    8.8102   -0.4613   -3.5847 C   0  0  0  0  0  0  0  0  0  0  0  0
    8.6370   -1.2746   -2.8684 H   0  0  0  0  0  0  0  0  0  0  0  0
    9.1545   -0.9166   -4.5179 H   0  0  0  0  0  0  0  0  0  0  0  0
    9.6216    0.1554   -3.1867 H   0  0  0  0  0  0  0  0  0  0  0  0
    1.0119   -0.1986   -0.2049 H   0  0  0  0  0  0  0  0  0  0  0  0
  1  7  1  0  0  0  0
  1  6  2  0  0  0  0
  2  8  1  6  0  0  0
  2 26  1  0  0  0  0
  2  1  1  0  0  0  0
  3 11  1  1  0  0  0
  3  2  1  0  0  0  0
  3  4  1  0  0  0  0
  4  5  2  0  0  0  0
  5  6  1  0  0  0  0
  5 10  1  0  0  0  0
  6 31  1  0  0  0  0
  9  4  1  0  0  0  0
 12 11  1  0  0  0  0
 13 14  2  0  0  0  0
 13 18  1  0  0  0  0
 14 15  1  0  0  0  0
 15 27  1  0  0  0  0
 15 16  2  0  0  0  0
 16 21  1  0  0  0  0
 17 16  1  0  0  0  0
 17 22  1  0  0  0  0
 18 17  2  0  0  0  0
 19 13  1  0  0  0  0
 20 14  1  0  0  0  0
 23 18  1  0  0  0  0
 23 25  2  0  0  0  0
 23 26  1  0  0  0  0
 24 23  2  0  0  0  0
 27 30  1  0  0  0  0
 27 28  1  0  0  0  0
 29 27  1  0  0  0  0
M  RAD  3   3   2  11   2  12   3
M  END
