Coordinates from ORCA-job /home/ubuntu/works/orca-Ph-N2-OTs-B3LYP-6-31G_dp-scan-d09-49-n400/Ph-N2-OTs-B3LYP-6-31G_dp-scan-d09-49-n400
 OpenBabel01281705563D

 31 32  0  0  1  0  0  0  0  0999 V2000
    2.0285    0.3288   -2.4907 C   0  0  0  0  0  0  0  0  0  0  0  0
    1.7200    1.3114   -3.5719 C   0  0  1  0  0  0  0  0  0  0  0  0
    0.3177    1.8775   -3.4456 C   0  0  0  0  0  0  0  0  0  0  0  0
   -0.4121    1.7733   -2.1902 C   0  0  0  0  0  0  0  0  0  0  0  0
    0.0517    0.9812   -1.1962 C   0  0  0  0  0  0  0  0  0  0  0  0
    1.2700    0.2162   -1.3811 C   0  0  0  0  0  0  0  0  0  0  0  0
    2.9332   -0.2576   -2.6174 H   0  0  0  0  0  0  0  0  0  0  0  0
    1.8763    0.9061   -4.5742 H   0  0  0  0  0  0  0  0  0  0  0  0
   -1.3360    2.3359   -2.0963 H   0  0  0  0  0  0  0  0  0  0  0  0
   -0.4962    0.8975   -0.2635 H   0  0  0  0  0  0  0  0  0  0  0  0
   -0.1425    2.4553   -4.3795 N   0  0  0  0  0  0  0  0  0  0  0  0
   -0.5783    3.0106   -5.2856 N   0  0  0  0  0  0  0  0  0  0  0  0
    5.4199    0.6505   -4.9584 C   0  0  0  0  0  0  0  0  0  0  0  0
    6.5490   -0.0968   -4.6239 C   0  0  0  0  0  0  0  0  0  0  0  0
    7.4192    0.3193   -3.6068 C   0  0  0  0  0  0  0  0  0  0  0  0
    7.1375    1.5192   -2.9344 C   0  0  0  0  0  0  0  0  0  0  0  0
    6.0167    2.2804   -3.2546 C   0  0  0  0  0  0  0  0  0  0  0  0
    5.1608    1.8330   -4.2643 C   0  0  0  0  0  0  0  0  0  0  0  0
    4.7577    0.3394   -5.7595 H   0  0  0  0  0  0  0  0  0  0  0  0
    6.7600   -1.0136   -5.1683 H   0  0  0  0  0  0  0  0  0  0  0  0
    7.8105    1.8646   -2.1535 H   0  0  0  0  0  0  0  0  0  0  0  0
    5.8134    3.2159   -2.7444 H   0  0  0  0  0  0  0  0  0  0  0  0
    3.7123    2.7970   -4.6734 S   0  0  0  0  0  0  0  0  0  0  0  0
    3.1433    2.2683   -5.9167 O   0  0  0  0  0  0  0  0  0  0  0  0
    4.0269    4.2103   -4.5146 O   0  0  0  0  0  0  0  0  0  0  0  0
    2.6863    2.4567   -3.4394 O   0  0  0  0  0  0  0  0  0  0  0  0
    8.6228   -0.5108   -3.2302 C   0  0  0  0  0  0  0  0  0  0  0  0
    8.3775   -1.2114   -2.4217 H   0  0  0  0  0  0  0  0  0  0  0  0
    8.9824   -1.1025   -4.0771 H   0  0  0  0  0  0  0  0  0  0  0  0
    9.4469    0.1165   -2.8774 H   0  0  0  0  0  0  0  0  0  0  0  0
    1.5644   -0.4815   -0.6009 H   0  0  0  0  0  0  0  0  0  0  0  0
  1  6  2  0  0  0  0
  2  8  1  6  0  0  0
  2  3  1  0  0  0  0
  2 26  1  0  0  0  0
  2  1  1  0  0  0  0
  3  4  2  0  0  0  0
  4  9  1  0  0  0  0
  4  5  1  0  0  0  0
  5 10  1  0  0  0  0
  6  5  1  0  0  0  0
  6 31  1  0  0  0  0
  7  1  1  0  0  0  0
 11  3  1  0  0  0  0
 12 11  1  0  0  0  0
 13 14  2  0  0  0  0
 13 18  1  0  0  0  0
 14 15  1  0  0  0  0
 15 27  1  0  0  0  0
 15 16  2  0  0  0  0
 16 21  1  0  0  0  0
 17 16  1  0  0  0  0
 17 22  1  0  0  0  0
 18 17  2  0  0  0  0
 19 13  1  0  0  0  0
 20 14  1  0  0  0  0
 23 25  2  0  0  0  0
 23 18  1  0  0  0  0
 23 26  1  0  0  0  0
 24 23  2  0  0  0  0
 27 30  1  0  0  0  0
 27 28  1  0  0  0  0
 29 27  1  0  0  0  0
M  RAD  3   5   2  11   2  12   3
M  END
