Coordinates from ORCA-job /home/ubuntu/works/orca-Ph-N2-OTs-B3LYP-6-31G_dp-scan-d09-49-n400/Ph-N2-OTs-B3LYP-6-31G_dp-scan-d09-49-n400
 OpenBabel01281705563D

 31 30  0  0  0  0  0  0  0  0999 V2000
    1.6762    1.2447   -1.2071 C   0  0  0  0  0  0  0  0  0  0  0  0
    1.3943    1.6983   -2.5182 C   0  0  0  0  0  0  0  0  0  0  0  0
    0.3214    1.2341   -3.0079 C   0  0  0  0  0  0  0  0  0  0  0  0
   -0.6866    0.3887   -2.6446 C   0  0  0  0  0  0  0  0  0  0  0  0
   -0.4007   -0.0655   -1.3363 C   0  0  0  0  0  0  0  0  0  0  0  0
    0.7483    0.3532   -0.6423 C   0  0  0  0  0  0  0  0  0  0  0  0
    2.5599    1.5579   -0.6578 H   0  0  0  0  0  0  0  0  0  0  0  0
    2.6138    2.8429   -3.3407 H   0  0  0  0  0  0  0  0  0  0  0  0
   -1.5566    0.0965   -3.2178 H   0  0  0  0  0  0  0  0  0  0  0  0
   -1.0976   -0.7552   -0.8666 H   0  0  0  0  0  0  0  0  0  0  0  0
   -0.2976    1.9483   -5.1962 N   0  0  0  0  0  0  0  0  0  0  0  0
   -0.0601    2.6241   -6.0386 N   0  0  0  0  0  0  0  0  0  0  0  0
    6.5684    2.5654   -4.3596 C   0  0  0  0  0  0  0  0  0  0  0  0
    7.6523    1.7928   -3.9475 C   0  0  0  0  0  0  0  0  0  0  0  0
    7.5206    0.4133   -3.7295 C   0  0  0  0  0  0  0  0  0  0  0  0
    6.2684   -0.1807   -3.9461 C   0  0  0  0  0  0  0  0  0  0  0  0
    5.1726    0.5760   -4.3579 C   0  0  0  0  0  0  0  0  0  0  0  0
    5.3320    1.9482   -4.5576 C   0  0  0  0  0  0  0  0  0  0  0  0
    6.6763    3.6285   -4.5469 H   0  0  0  0  0  0  0  0  0  0  0  0
    8.6190    2.2677   -3.7990 H   0  0  0  0  0  0  0  0  0  0  0  0
    6.1508   -1.2512   -3.7961 H   0  0  0  0  0  0  0  0  0  0  0  0
    4.2095    0.1120   -4.5430 H   0  0  0  0  0  0  0  0  0  0  0  0
    3.9316    2.9358   -5.0693 S   0  0  0  0  0  0  0  0  0  0  0  0
    2.9420    2.0457   -5.6831 O   0  0  0  0  0  0  0  0  0  0  0  0
    4.4306    4.1150   -5.7650 O   0  0  0  0  0  0  0  0  0  0  0  0
    3.3275    3.4692   -3.6632 O   0  0  0  0  0  0  0  0  0  0  0  0
    8.6948   -0.4104   -3.2571 C   0  0  0  0  0  0  0  0  0  0  0  0
    8.6383   -1.4380   -3.6281 H   0  0  0  0  0  0  0  0  0  0  0  0
    9.6443    0.0197   -3.5891 H   0  0  0  0  0  0  0  0  0  0  0  0
    8.7242   -0.4602   -2.1609 H   0  0  0  0  0  0  0  0  0  0  0  0
    0.9216   -0.0260    0.3613 H   0  0  0  0  0  0  0  0  0  0  0  0
  1  7  1  0  0  0  0
  1  6  1  0  0  0  0
  2  1  2  0  0  0  0
  3  4  2  0  0  0  0
  3  2  1  0  0  0  0
  4  5  1  0  0  0  0
  5 10  1  0  0  0  0
  5  6  2  0  0  0  0
  6 31  1  0  0  0  0
  9  4  1  0  0  0  0
 12 11  3  0  0  0  0
 13 14  1  0  0  0  0
 14 20  1  0  0  0  0
 14 15  2  0  0  0  0
 15 27  1  0  0  0  0
 16 21  1  0  0  0  0
 16 15  1  0  0  0  0
 17 16  2  0  0  0  0
 18 13  2  0  0  0  0
 18 17  1  0  0  0  0
 19 13  1  0  0  0  0
 22 17  1  0  0  0  0
 23 18  1  0  0  0  0
 23 26  1  0  0  0  0
 24 23  2  0  0  0  0
 25 23  2  0  0  0  0
 26  8  1  0  0  0  0
 27 30  1  0  0  0  0
 28 27  1  0  0  0  0
 29 27  1  0  0  0  0
M  RAD  2   2   2   3   2
M  END
