Coordinates from ORCA-job /home/ubuntu/works/orca-Ph-N2-OTs-B3LYP-6-31G_dp-scan-d09-49-n400/Ph-N2-OTs-B3LYP-6-31G_dp-scan-d09-49-n400
 OpenBabel01281705563D

 31 31  0  0  0  0  0  0  0  0999 V2000
    0.1443    0.8602   -0.8400 C   0  0  0  0  0  0  0  0  0  0  0  0
    0.9958    1.3206   -1.8494 C   0  0  0  0  0  0  0  0  0  0  0  0
    0.4150    1.4735   -3.0952 C   0  0  0  0  0  0  0  0  0  0  0  0
   -0.9106    1.2082   -3.4235 C   0  0  0  0  0  0  0  0  0  0  0  0
   -1.7216    0.7345   -2.3928 C   0  0  0  0  0  0  0  0  0  0  0  0
   -1.1944    0.5635   -1.1081 C   0  0  0  0  0  0  0  0  0  0  0  0
    0.5431    0.7296    0.1609 H   0  0  0  0  0  0  0  0  0  0  0  0
    2.0427    1.5580   -1.6707 H   0  0  0  0  0  0  0  0  0  0  0  0
   -1.2870    1.3597   -4.4284 H   0  0  0  0  0  0  0  0  0  0  0  0
   -2.7615    0.5020   -2.5983 H   0  0  0  0  0  0  0  0  0  0  0  0
    1.2649    2.0401   -4.2764 N   0  0  0  0  0  0  0  0  0  0  0  0
    1.2244    2.6004   -5.2476 N   0  0  0  0  0  0  0  0  0  0  0  0
    6.2514    1.9738   -4.9636 C   0  0  0  0  0  0  0  0  0  0  0  0
    7.4887    1.4480   -5.3300 C   0  0  0  0  0  0  0  0  0  0  0  0
    8.1871    0.5763   -4.4810 C   0  0  0  0  0  0  0  0  0  0  0  0
    7.6105    0.2439   -3.2469 C   0  0  0  0  0  0  0  0  0  0  0  0
    6.3736    0.7618   -2.8659 C   0  0  0  0  0  0  0  0  0  0  0  0
    5.6982    1.6244   -3.7305 C   0  0  0  0  0  0  0  0  0  0  0  0
    5.7183    2.6599   -5.6134 H   0  0  0  0  0  0  0  0  0  0  0  0
    7.9219    1.7210   -6.2892 H   0  0  0  0  0  0  0  0  0  0  0  0
    8.1394   -0.4265   -2.5734 H   0  0  0  0  0  0  0  0  0  0  0  0
    5.9355    0.5164   -1.9044 H   0  0  0  0  0  0  0  0  0  0  0  0
    4.0889    2.2677   -3.2690 S   0  0  0  0  0  0  0  0  0  0  0  0
    3.1235    1.1861   -3.8029 O   0  0  0  0  0  0  0  0  0  0  0  0
    3.8872    3.5492   -3.9736 O   0  0  0  0  0  0  0  0  0  0  0  0
    4.0423    2.3050   -1.7872 O   0  0  0  0  0  0  0  0  0  0  0  0
    9.5426    0.0369   -4.8738 C   0  0  0  0  0  0  0  0  0  0  0  0
    9.7487   -0.9223   -4.3895 H   0  0  0  0  0  0  0  0  0  0  0  0
    9.6182   -0.1064   -5.9564 H   0  0  0  0  0  0  0  0  0  0  0  0
   10.3427    0.7287   -4.5805 H   0  0  0  0  0  0  0  0  0  0  0  0
   -1.8342    0.1966   -0.3112 H   0  0  0  0  0  0  0  0  0  0  0  0
  1  7  1  0  0  0  0
  2  8  1  0  0  0  0
  2  1  2  0  0  0  0
  3  2  1  0  0  0  0
  4  3  2  0  0  0  0
  4  5  1  0  0  0  0
  5  6  2  0  0  0  0
  6  1  1  0  0  0  0
  6 31  1  0  0  0  0
  9  4  1  0  0  0  0
 10  5  1  0  0  0  0
 11  3  1  0  0  0  0
 12 11  2  0  0  0  0
 13 18  1  0  0  0  0
 14 13  2  0  0  0  0
 14 15  1  0  0  0  0
 15 16  2  0  0  0  0
 16 17  1  0  0  0  0
 16 21  1  0  0  0  0
 17 22  1  0  0  0  0
 18 23  1  0  0  0  0
 18 17  2  0  0  0  0
 19 13  1  0  0  0  0
 20 14  1  0  0  0  0
 23 26  1  0  0  0  0
 24 23  2  0  0  0  0
 25 23  2  0  0  0  0
 27 30  1  0  0  0  0
 27 15  1  0  0  0  0
 27 28  1  0  0  0  0
 29 27  1  0  0  0  0
M  RAD  2  12   2  26   2
M  END
