Coordinates from ORCA-job /home/ubuntu/works/orca-Ph-N2-OTs-B3LYP-6-31G_dp-scan-d09-49-n400/Ph-N2-OTs-B3LYP-6-31G_dp-scan-d09-49-n400
 OpenBabel01281705563D

 31 30  0  0  0  0  0  0  0  0999 V2000
    1.6753    1.2618   -1.0961 C   0  0  0  0  0  0  0  0  0  0  0  0
    1.4263    1.6893   -2.4184 C   0  0  0  0  0  0  0  0  0  0  0  0
    0.3907    1.2155   -2.9619 C   0  0  0  0  0  0  0  0  0  0  0  0
   -0.6195    0.3558   -2.6387 C   0  0  0  0  0  0  0  0  0  0  0  0
   -0.3776   -0.0827   -1.3140 C   0  0  0  0  0  0  0  0  0  0  0  0
    0.7331    0.3579   -0.5719 C   0  0  0  0  0  0  0  0  0  0  0  0
    2.5292    1.5927   -0.5120 H   0  0  0  0  0  0  0  0  0  0  0  0
    2.6404    2.8710   -3.3205 H   0  0  0  0  0  0  0  0  0  0  0  0
   -1.4612    0.0431   -3.2424 H   0  0  0  0  0  0  0  0  0  0  0  0
   -1.0821   -0.7807   -0.8680 H   0  0  0  0  0  0  0  0  0  0  0  0
   -0.3368    1.9451   -5.4407 N   0  0  0  0  0  0  0  0  0  0  0  0
   -0.1181    2.6368   -6.2746 N   0  0  0  0  0  0  0  0  0  0  0  0
    6.5688    2.5680   -4.3583 C   0  0  0  0  0  0  0  0  0  0  0  0
    7.6487    1.7868   -3.9520 C   0  0  0  0  0  0  0  0  0  0  0  0
    7.5089    0.4069   -3.7410 C   0  0  0  0  0  0  0  0  0  0  0  0
    6.2529   -0.1785   -3.9584 C   0  0  0  0  0  0  0  0  0  0  0  0
    5.1609    0.5866   -4.3646 C   0  0  0  0  0  0  0  0  0  0  0  0
    5.3286    1.9589   -4.5574 C   0  0  0  0  0  0  0  0  0  0  0  0
    6.6829    3.6313   -4.5404 H   0  0  0  0  0  0  0  0  0  0  0  0
    8.6185    2.2550   -3.8027 H   0  0  0  0  0  0  0  0  0  0  0  0
    6.1291   -1.2491   -3.8139 H   0  0  0  0  0  0  0  0  0  0  0  0
    4.1948    0.1294   -4.5507 H   0  0  0  0  0  0  0  0  0  0  0  0
    3.9339    2.9570   -5.0633 S   0  0  0  0  0  0  0  0  0  0  0  0
    2.9334    2.0757   -5.6705 O   0  0  0  0  0  0  0  0  0  0  0  0
    4.4374    4.1348   -5.7571 O   0  0  0  0  0  0  0  0  0  0  0  0
    3.3407    3.4979   -3.6509 O   0  0  0  0  0  0  0  0  0  0  0  0
    8.6789   -0.4264   -3.2750 C   0  0  0  0  0  0  0  0  0  0  0  0
    8.6207   -1.4489   -3.6596 H   0  0  0  0  0  0  0  0  0  0  0  0
    9.6309    0.0051   -3.5977 H   0  0  0  0  0  0  0  0  0  0  0  0
    8.7037   -0.4907   -2.1795 H   0  0  0  0  0  0  0  0  0  0  0  0
    0.8660   -0.0147    0.4404 H   0  0  0  0  0  0  0  0  0  0  0  0
  1  6  1  0  0  0  0
  1  7  1  0  0  0  0
  2  1  2  0  0  0  0
  3  4  2  0  0  0  0
  3  2  1  0  0  0  0
  4  5  1  0  0  0  0
  5 10  1  0  0  0  0
  5  6  2  0  0  0  0
  6 31  1  0  0  0  0
  9  4  1  0  0  0  0
 12 11  3  0  0  0  0
 13 14  2  0  0  0  0
 14 20  1  0  0  0  0
 14 15  1  0  0  0  0
 15 27  1  0  0  0  0
 16 21  1  0  0  0  0
 16 15  2  0  0  0  0
 17 16  1  0  0  0  0
 18 17  2  0  0  0  0
 18 13  1  0  0  0  0
 19 13  1  0  0  0  0
 22 17  1  0  0  0  0
 23 18  1  0  0  0  0
 23 26  1  0  0  0  0
 24 23  2  0  0  0  0
 25 23  2  0  0  0  0
 26  8  1  0  0  0  0
 27 30  1  0  0  0  0
 28 27  1  0  0  0  0
 29 27  1  0  0  0  0
M  RAD  2   2   2   3   2
M  END
