Coordinates from ORCA-job /home/ubuntu/works/orca-Ph-N2-OTs-B3LYP-6-31G_dp-scan-d09-49-n400/Ph-N2-OTs-B3LYP-6-31G_dp-scan-d09-49-n400
 OpenBabel01281705563D

 31 32  0  0  1  0  0  0  0  0999 V2000
    2.0313    0.3261   -2.5162 C   0  0  0  0  0  0  0  0  0  0  0  0
    1.7158    1.3195   -3.5858 C   0  0  1  0  0  0  0  0  0  0  0  0
    0.3110    1.8958   -3.4482 C   0  0  0  0  0  0  0  0  0  0  0  0
   -0.4004    1.7788   -2.1769 C   0  0  0  0  0  0  0  0  0  0  0  0
    0.0704    0.9747   -1.1978 C   0  0  0  0  0  0  0  0  0  0  0  0
    1.2835    0.2046   -1.4013 C   0  0  0  0  0  0  0  0  0  0  0  0
    2.9331   -0.2617   -2.6574 H   0  0  0  0  0  0  0  0  0  0  0  0
    1.8559    0.9191   -4.5928 H   0  0  0  0  0  0  0  0  0  0  0  0
   -1.3194    2.3466   -2.0665 H   0  0  0  0  0  0  0  0  0  0  0  0
   -0.4675    0.8857   -0.2596 H   0  0  0  0  0  0  0  0  0  0  0  0
   -0.1414    2.4599   -4.3433 N   0  0  0  0  0  0  0  0  0  0  0  0
   -0.5873    3.0228   -5.2442 N   0  0  0  0  0  0  0  0  0  0  0  0
    5.4196    0.6443   -4.9574 C   0  0  0  0  0  0  0  0  0  0  0  0
    6.5473   -0.1014   -4.6149 C   0  0  0  0  0  0  0  0  0  0  0  0
    7.4140    0.3200   -3.5969 C   0  0  0  0  0  0  0  0  0  0  0  0
    7.1301    1.5234   -2.9318 C   0  0  0  0  0  0  0  0  0  0  0  0
    6.0107    2.2831   -3.2600 C   0  0  0  0  0  0  0  0  0  0  0  0
    5.1584    1.8304   -4.2703 C   0  0  0  0  0  0  0  0  0  0  0  0
    4.7603    0.3291   -5.7594 H   0  0  0  0  0  0  0  0  0  0  0  0
    6.7602   -1.0210   -5.1537 H   0  0  0  0  0  0  0  0  0  0  0  0
    7.8003    1.8728   -2.1502 H   0  0  0  0  0  0  0  0  0  0  0  0
    5.8057    3.2214   -2.7555 H   0  0  0  0  0  0  0  0  0  0  0  0
    3.7122    2.7928   -4.6905 S   0  0  0  0  0  0  0  0  0  0  0  0
    3.1468    2.2575   -5.9321 O   0  0  0  0  0  0  0  0  0  0  0  0
    4.0252    4.2065   -4.5359 O   0  0  0  0  0  0  0  0  0  0  0  0
    2.6810    2.4584   -3.4563 O   0  0  0  0  0  0  0  0  0  0  0  0
    8.6160   -0.5084   -3.2118 C   0  0  0  0  0  0  0  0  0  0  0  0
    8.3669   -1.2072   -2.4030 H   0  0  0  0  0  0  0  0  0  0  0  0
    8.9804   -1.1020   -4.0554 H   0  0  0  0  0  0  0  0  0  0  0  0
    9.4378    0.1203   -2.8563 H   0  0  0  0  0  0  0  0  0  0  0  0
    1.5817   -0.5016   -0.6304 H   0  0  0  0  0  0  0  0  0  0  0  0
  1  6  2  0  0  0  0
  2  8  1  6  0  0  0
  2 26  1  0  0  0  0
  2  3  1  0  0  0  0
  2  1  1  0  0  0  0
  3  4  2  0  0  0  0
  4  9  1  0  0  0  0
  4  5  1  0  0  0  0
  5 10  1  0  0  0  0
  6  5  1  0  0  0  0
  6 31  1  0  0  0  0
  7  1  1  0  0  0  0
 11  3  1  0  0  0  0
 12 11  1  0  0  0  0
 13 14  2  0  0  0  0
 13 18  1  0  0  0  0
 14 15  1  0  0  0  0
 15 27  1  0  0  0  0
 15 16  2  0  0  0  0
 16 21  1  0  0  0  0
 17 16  1  0  0  0  0
 17 22  1  0  0  0  0
 18 17  2  0  0  0  0
 19 13  1  0  0  0  0
 20 14  1  0  0  0  0
 23 25  2  0  0  0  0
 23 18  1  0  0  0  0
 23 26  1  0  0  0  0
 24 23  2  0  0  0  0
 27 30  1  0  0  0  0
 27 28  1  0  0  0  0
 29 27  1  0  0  0  0
M  RAD  3   5   2  11   2  12   3
M  END
