Coordinates from ORCA-job /home/ubuntu/works/orca-Ph-N2-OTs-B3LYP-6-31G_dp-scan-d09-49-n400/Ph-N2-OTs-B3LYP-6-31G_dp-scan-d09-49-n400
 OpenBabel01281705563D

 31 30  0  0  0  0  0  0  0  0999 V2000
    1.4960    1.4318   -0.7973 C   0  0  0  0  0  0  0  0  0  0  0  0
    1.4843    1.7728   -2.1638 C   0  0  0  0  0  0  0  0  0  0  0  0
    0.6356    1.1964   -2.8937 C   0  0  0  0  0  0  0  0  0  0  0  0
   -0.3461    0.2586   -2.7344 C   0  0  0  0  0  0  0  0  0  0  0  0
   -0.3493   -0.1032   -1.3644 C   0  0  0  0  0  0  0  0  0  0  0  0
    0.5397    0.4646   -0.4336 C   0  0  0  0  0  0  0  0  0  0  0  0
    2.1774    1.8612   -0.0692 H   0  0  0  0  0  0  0  0  0  0  0  0
    2.7318    2.9917   -3.0781 H   0  0  0  0  0  0  0  0  0  0  0  0
   -1.0159   -0.1536   -3.4772 H   0  0  0  0  0  0  0  0  0  0  0  0
   -1.0720   -0.8454   -1.0327 H   0  0  0  0  0  0  0  0  0  0  0  0
   -0.2127    1.6250   -5.8502 N   0  0  0  0  0  0  0  0  0  0  0  0
   -0.1013    2.2384   -6.7626 N   0  0  0  0  0  0  0  0  0  0  0  0
    6.5931    2.5715   -4.3900 C   0  0  0  0  0  0  0  0  0  0  0  0
    7.6708    1.7484   -4.0684 C   0  0  0  0  0  0  0  0  0  0  0  0
    7.4945    0.3760   -3.8399 C   0  0  0  0  0  0  0  0  0  0  0  0
    6.2025   -0.1600   -3.9523 C   0  0  0  0  0  0  0  0  0  0  0  0
    5.1129    0.6466   -4.2733 C   0  0  0  0  0  0  0  0  0  0  0  0
    5.3184    2.0114   -4.4857 C   0  0  0  0  0  0  0  0  0  0  0  0
    6.7331    3.6293   -4.5850 H   0  0  0  0  0  0  0  0  0  0  0  0
    8.6671    2.1780   -4.0000 H   0  0  0  0  0  0  0  0  0  0  0  0
    6.0487   -1.2244   -3.7922 H   0  0  0  0  0  0  0  0  0  0  0  0
    4.1179    0.2271   -4.3783 H   0  0  0  0  0  0  0  0  0  0  0  0
    3.9283    3.0616   -4.8850 S   0  0  0  0  0  0  0  0  0  0  0  0
    2.8626    2.2250   -5.4427 O   0  0  0  0  0  0  0  0  0  0  0  0
    4.4245    4.2369   -5.5876 O   0  0  0  0  0  0  0  0  0  0  0  0
    3.4402    3.5928   -3.4275 O   0  0  0  0  0  0  0  0  0  0  0  0
    8.6637   -0.5037   -3.4662 C   0  0  0  0  0  0  0  0  0  0  0  0
    8.5760   -1.4983   -3.9138 H   0  0  0  0  0  0  0  0  0  0  0  0
    9.6124   -0.0671   -3.7910 H   0  0  0  0  0  0  0  0  0  0  0  0
    8.7201   -0.6406   -2.3789 H   0  0  0  0  0  0  0  0  0  0  0  0
    0.4854    0.1421    0.6032 H   0  0  0  0  0  0  0  0  0  0  0  0
  1  6  1  0  0  0  0
  1  7  1  0  0  0  0
  2  1  2  0  0  0  0
  3  4  2  0  0  0  0
  3  2  1  0  0  0  0
  4  5  1  0  0  0  0
  5 10  1  0  0  0  0
  5  6  2  0  0  0  0
  6 31  1  0  0  0  0
  9  4  1  0  0  0  0
 12 11  3  0  0  0  0
 13 14  1  0  0  0  0
 14 20  1  0  0  0  0
 14 15  2  0  0  0  0
 15 27  1  0  0  0  0
 16 15  1  0  0  0  0
 16 21  1  0  0  0  0
 17 16  2  0  0  0  0
 18 13  2  0  0  0  0
 18 17  1  0  0  0  0
 19 13  1  0  0  0  0
 22 17  1  0  0  0  0
 23 18  1  0  0  0  0
 23 26  1  0  0  0  0
 24 23  2  0  0  0  0
 25 23  2  0  0  0  0
 26  8  1  0  0  0  0
 27 30  1  0  0  0  0
 28 27  1  0  0  0  0
 29 27  1  0  0  0  0
M  RAD  2   2   2   3   2
M  END
