Coordinates from ORCA-job /home/ubuntu/works/orca-Ph-N2-OTs-B3LYP-6-31G_dp-scan-d09-49-n400/Ph-N2-OTs-B3LYP-6-31G_dp-scan-d09-49-n400
 OpenBabel01281705563D

 31 31  0  0  0  0  0  0  0  0999 V2000
    0.1493    0.8584   -0.8368 C   0  0  0  0  0  0  0  0  0  0  0  0
    0.9960    1.3171   -1.8527 C   0  0  0  0  0  0  0  0  0  0  0  0
    0.3990    1.4669   -3.0874 C   0  0  0  0  0  0  0  0  0  0  0  0
   -0.9248    1.2082   -3.4147 C   0  0  0  0  0  0  0  0  0  0  0  0
   -1.7290    0.7373   -2.3757 C   0  0  0  0  0  0  0  0  0  0  0  0
   -1.1922    0.5656   -1.0953 C   0  0  0  0  0  0  0  0  0  0  0  0
    0.5554    0.7273    0.1612 H   0  0  0  0  0  0  0  0  0  0  0  0
    2.0453    1.5531   -1.6835 H   0  0  0  0  0  0  0  0  0  0  0  0
   -1.3063    1.3608   -4.4172 H   0  0  0  0  0  0  0  0  0  0  0  0
   -2.7712    0.5077   -2.5730 H   0  0  0  0  0  0  0  0  0  0  0  0
    1.2666    2.0419   -4.3049 N   0  0  0  0  0  0  0  0  0  0  0  0
    1.2112    2.5995   -5.2758 N   0  0  0  0  0  0  0  0  0  0  0  0
    6.2605    1.9795   -4.9643 C   0  0  0  0  0  0  0  0  0  0  0  0
    7.4996    1.4547   -5.3259 C   0  0  0  0  0  0  0  0  0  0  0  0
    8.1917    0.5774   -4.4775 C   0  0  0  0  0  0  0  0  0  0  0  0
    7.6068    0.2384   -3.2490 C   0  0  0  0  0  0  0  0  0  0  0  0
    6.3681    0.7553   -2.8730 C   0  0  0  0  0  0  0  0  0  0  0  0
    5.6991    1.6236   -3.7368 C   0  0  0  0  0  0  0  0  0  0  0  0
    5.7324    2.6700   -5.6136 H   0  0  0  0  0  0  0  0  0  0  0  0
    7.9391    1.7327   -6.2808 H   0  0  0  0  0  0  0  0  0  0  0  0
    8.1309   -0.4364   -2.5761 H   0  0  0  0  0  0  0  0  0  0  0  0
    5.9234    0.5048   -1.9158 H   0  0  0  0  0  0  0  0  0  0  0  0
    4.0874    2.2661   -3.2824 S   0  0  0  0  0  0  0  0  0  0  0  0
    3.1248    1.1901   -3.8325 O   0  0  0  0  0  0  0  0  0  0  0  0
    3.8935    3.5540   -3.9767 O   0  0  0  0  0  0  0  0  0  0  0  0
    4.0300    2.2902   -1.8004 O   0  0  0  0  0  0  0  0  0  0  0  0
    9.5492    0.0388   -4.8644 C   0  0  0  0  0  0  0  0  0  0  0  0
    9.7487   -0.9262   -4.3890 H   0  0  0  0  0  0  0  0  0  0  0  0
    9.6341   -0.0925   -5.9478 H   0  0  0  0  0  0  0  0  0  0  0  0
   10.3483    0.7253   -4.5563 H   0  0  0  0  0  0  0  0  0  0  0  0
   -1.8271    0.2010   -0.2935 H   0  0  0  0  0  0  0  0  0  0  0  0
  1  7  1  0  0  0  0
  2  8  1  0  0  0  0
  2  1  2  0  0  0  0
  3  2  1  0  0  0  0
  4  3  2  0  0  0  0
  4  5  1  0  0  0  0
  5  6  2  0  0  0  0
  6  1  1  0  0  0  0
  6 31  1  0  0  0  0
  9  4  1  0  0  0  0
 10  5  1  0  0  0  0
 11  3  1  0  0  0  0
 12 11  2  0  0  0  0
 13 18  1  0  0  0  0
 14 13  2  0  0  0  0
 14 15  1  0  0  0  0
 15 16  2  0  0  0  0
 16 17  1  0  0  0  0
 16 21  1  0  0  0  0
 17 22  1  0  0  0  0
 18 23  1  0  0  0  0
 18 17  2  0  0  0  0
 19 13  1  0  0  0  0
 20 14  1  0  0  0  0
 23 26  1  0  0  0  0
 24 23  2  0  0  0  0
 25 23  2  0  0  0  0
 27 30  1  0  0  0  0
 27 15  1  0  0  0  0
 27 28  1  0  0  0  0
 29 27  1  0  0  0  0
M  RAD  2  12   2  26   2
M  END
