Coordinates from ORCA-job /home/ubuntu/works/orca-Ph-N2-OTs-B3LYP-6-31G_dp-scan-d09-49-n400/Ph-N2-OTs-B3LYP-6-31G_dp-scan-d09-49-n400
 OpenBabel01281705563D

 31 31  0  0  0  0  0  0  0  0999 V2000
    0.6808    1.3954   -0.7504 C   0  0  0  0  0  0  0  0  0  0  0  0
    1.1999    2.2645   -1.7111 C   0  0  0  0  0  0  0  0  0  0  0  0
    1.7665    1.7264   -2.8673 C   0  0  0  0  0  0  0  0  0  0  0  0
    1.8169    0.3490   -3.0815 C   0  0  0  0  0  0  0  0  0  0  0  0
    1.2858   -0.5078   -2.1161 C   0  0  0  0  0  0  0  0  0  0  0  0
    0.7207    0.0128   -0.9493 C   0  0  0  0  0  0  0  0  0  0  0  0
    0.2388    1.8029    0.1544 H   0  0  0  0  0  0  0  0  0  0  0  0
    1.1773    3.3395   -1.5763 H   0  0  0  0  0  0  0  0  0  0  0  0
    2.2575   -0.0296   -3.9979 H   0  0  0  0  0  0  0  0  0  0  0  0
    1.3147   -1.5820   -2.2774 H   0  0  0  0  0  0  0  0  0  0  0  0
    2.1734    2.4830   -7.1609 N   0  0  0  0  0  0  0  0  0  0  0  0
    1.2568    3.0838   -7.3024 N   0  0  0  0  0  0  0  0  0  0  0  0
    5.2707    1.7048   -5.0894 C   0  0  0  0  0  0  0  0  0  0  0  0
    6.2414    0.7121   -5.1911 C   0  0  0  0  0  0  0  0  0  0  0  0
    6.8480    0.1667   -4.0482 C   0  0  0  0  0  0  0  0  0  0  0  0
    6.4520    0.6398   -2.7892 C   0  0  0  0  0  0  0  0  0  0  0  0
    5.4811    1.6322   -2.6637 C   0  0  0  0  0  0  0  0  0  0  0  0
    4.8995    2.1557   -3.8195 C   0  0  0  0  0  0  0  0  0  0  0  0
    4.8094    2.1289   -5.9744 H   0  0  0  0  0  0  0  0  0  0  0  0
    6.5368    0.3559   -6.1746 H   0  0  0  0  0  0  0  0  0  0  0  0
    6.9107    0.2284   -1.8941 H   0  0  0  0  0  0  0  0  0  0  0  0
    5.1825    2.0062   -1.6908 H   0  0  0  0  0  0  0  0  0  0  0  0
    3.6510    3.4207   -3.6764 S   0  0  0  0  0  0  0  0  0  0  0  0
    2.2300    2.5638   -3.8890 O   0  0  0  0  0  0  0  0  0  0  0  0
    3.6842    4.2792   -4.8511 O   0  0  0  0  0  0  0  0  0  0  0  0
    3.6785    3.9596   -2.3195 O   0  0  0  0  0  0  0  0  0  0  0  0
    7.9246   -0.8836   -4.1753 C   0  0  0  0  0  0  0  0  0  0  0  0
    7.9648   -1.5265   -3.2909 H   0  0  0  0  0  0  0  0  0  0  0  0
    7.7641   -1.5167   -5.0532 H   0  0  0  0  0  0  0  0  0  0  0  0
    8.9121   -0.4182   -4.2858 H   0  0  0  0  0  0  0  0  0  0  0  0
    0.3094   -0.6562   -0.1990 H   0  0  0  0  0  0  0  0  0  0  0  0
  1  7  1  0  0  0  0
  2  8  1  0  0  0  0
  2  1  2  0  0  0  0
  3  2  1  0  0  0  0
  4  3  2  0  0  0  0
  4  5  1  0  0  0  0
  5  6  2  0  0  0  0
  6  1  1  0  0  0  0
  6 31  1  0  0  0  0
  9  4  1  0  0  0  0
 10  5  1  0  0  0  0
 12 11  3  0  0  0  0
 13 18  1  0  0  0  0
 14 13  2  0  0  0  0
 14 15  1  0  0  0  0
 15 16  2  0  0  0  0
 16 17  1  0  0  0  0
 16 21  1  0  0  0  0
 17 22  1  0  0  0  0
 18 23  1  0  0  0  0
 18 17  2  0  0  0  0
 19 13  1  0  0  0  0
 20 14  1  0  0  0  0
 23 26  2  0  0  0  0
 24 23  1  0  0  0  0
 24  3  1  0  0  0  0
 25 23  2  0  0  0  0
 27 15  1  0  0  0  0
 27 28  1  0  0  0  0
 29 27  1  0  0  0  0
 30 27  1  0  0  0  0
M  END
