Coordinates from ORCA-job /home/ubuntu/works/orca-Ph-N2-OTs-B3LYP-6-31G_dp-scan-d09-49-n400/Ph-N2-OTs-B3LYP-6-31G_dp-scan-d09-49-n400
 OpenBabel01281705563D

 31 30  0  0  0  0  0  0  0  0999 V2000
    1.6011    1.3420   -0.9511 C   0  0  0  0  0  0  0  0  0  0  0  0
    1.4442    1.7330   -2.2963 C   0  0  0  0  0  0  0  0  0  0  0  0
    0.4886    1.2095   -2.9290 C   0  0  0  0  0  0  0  0  0  0  0  0
   -0.5041    0.3044   -2.6812 C   0  0  0  0  0  0  0  0  0  0  0  0
   -0.3593   -0.1039   -1.3323 C   0  0  0  0  0  0  0  0  0  0  0  0
    0.6578    0.3993   -0.5007 C   0  0  0  0  0  0  0  0  0  0  0  0
    2.3827    1.7207   -0.2992 H   0  0  0  0  0  0  0  0  0  0  0  0
    2.6727    2.9269   -3.2274 H   0  0  0  0  0  0  0  0  0  0  0  0
   -1.2737   -0.0574   -3.3502 H   0  0  0  0  0  0  0  0  0  0  0  0
   -1.0668   -0.8296   -0.9379 H   0  0  0  0  0  0  0  0  0  0  0  0
   -0.3049    1.8525   -5.6486 N   0  0  0  0  0  0  0  0  0  0  0  0
   -0.1448    2.5144   -6.5189 N   0  0  0  0  0  0  0  0  0  0  0  0
    6.5803    2.5666   -4.3716 C   0  0  0  0  0  0  0  0  0  0  0  0
    7.6603    1.7690   -3.9987 C   0  0  0  0  0  0  0  0  0  0  0  0
    7.5058    0.3920   -3.7804 C   0  0  0  0  0  0  0  0  0  0  0  0
    6.2343   -0.1742   -3.9562 C   0  0  0  0  0  0  0  0  0  0  0  0
    5.1422    0.6073   -4.3288 C   0  0  0  0  0  0  0  0  0  0  0  0
    5.3251    1.9766   -4.5295 C   0  0  0  0  0  0  0  0  0  0  0  0
    6.7049    3.6277   -4.5593 H   0  0  0  0  0  0  0  0  0  0  0  0
    8.6416    2.2221   -3.8816 H   0  0  0  0  0  0  0  0  0  0  0  0
    6.0985   -1.2424   -3.8054 H   0  0  0  0  0  0  0  0  0  0  0  0
    4.1637    0.1647   -4.4830 H   0  0  0  0  0  0  0  0  0  0  0  0
    3.9311    2.9947   -4.9939 S   0  0  0  0  0  0  0  0  0  0  0  0
    2.9021    2.1301   -5.5767 O   0  0  0  0  0  0  0  0  0  0  0  0
    4.4310    4.1693   -5.6954 O   0  0  0  0  0  0  0  0  0  0  0  0
    3.3821    3.5369   -3.5626 O   0  0  0  0  0  0  0  0  0  0  0  0
    8.6768   -0.4591   -3.3503 C   0  0  0  0  0  0  0  0  0  0  0  0
    8.6016   -1.4751   -3.7489 H   0  0  0  0  0  0  0  0  0  0  0  0
    9.6262   -0.0314   -3.6852 H   0  0  0  0  0  0  0  0  0  0  0  0
    8.7221   -0.5406   -2.2567 H   0  0  0  0  0  0  0  0  0  0  0  0
    0.7160    0.0448    0.5253 H   0  0  0  0  0  0  0  0  0  0  0  0
  1  6  1  0  0  0  0
  1  7  1  0  0  0  0
  2  1  2  0  0  0  0
  3  4  2  0  0  0  0
  3  2  1  0  0  0  0
  4  5  1  0  0  0  0
  5 10  1  0  0  0  0
  5  6  2  0  0  0  0
  6 31  1  0  0  0  0
  9  4  1  0  0  0  0
 12 11  3  0  0  0  0
 13 14  1  0  0  0  0
 14 20  1  0  0  0  0
 14 15  2  0  0  0  0
 15 27  1  0  0  0  0
 16 21  1  0  0  0  0
 16 15  1  0  0  0  0
 17 16  2  0  0  0  0
 18 13  2  0  0  0  0
 18 17  1  0  0  0  0
 19 13  1  0  0  0  0
 22 17  1  0  0  0  0
 23 18  1  0  0  0  0
 23 26  1  0  0  0  0
 24 23  2  0  0  0  0
 25 23  2  0  0  0  0
 26  8  1  0  0  0  0
 27 30  1  0  0  0  0
 28 27  1  0  0  0  0
 29 27  1  0  0  0  0
M  RAD  2   2   2   3   2
M  END
