18
Coordinates from ORCA-job Ph-N2-BF4-B3LYPG-aug-cc-pVDZ-scan-d09-49-n400
  C   -1.36153471040636     -0.08311810341596      0.05448110498795
  C   -0.04280087940912      0.02454645215302      0.51027049239179
  C   0.40619316529790      1.27825300882588      0.90440140515767
  C   -0.38368503829829      2.41987569022117      0.86405858926754
  C   -1.69896447801766      2.29022286922094      0.40514159849419
  C   -2.18890743471735      1.04346918586749      0.00145646320733
  H   -1.74095357452798     -1.05550750968156     -0.26012295640264
  H   0.62336431489287     -0.83493835545802      0.55786598682179
  H   0.02397760510398      3.37738406498519      1.18391077195079
  H   -2.34097814309210      3.17033615624372      0.36407902356129
  N   3.35130027171270      1.44099719575100     -3.00838008410024
  N   3.40979703021113      1.37220887278707     -4.10908497868559
  B   3.75990243469001     -0.16584353810890      1.63301235505679
  F   3.50294857440331     -0.86139292549815      0.52876699309538
  F   4.56734871343942      0.88497801079255      1.58120756677912
  F   1.69816535703717      1.40078834164262      1.35282825166723
  F   3.26987780312551     -0.57621566766547      2.79689695470470
  H   -3.21455101144520      0.94995625133738     -0.35488953795516
