18
Coordinates from ORCA-job Ph-N2-BF4-B3LYPG-aug-cc-pVDZ-scan-d09-49-n400
  C   -1.31848821922220     -0.09884351176689      0.04732687342222
  C   -0.01063920322310      0.00032091344256      0.53455702726467
  C   0.46296109502825      1.26210211050876      0.86993208061716
  C   -0.29158854644568      2.41976288803965      0.73824814693999
  C   -1.59701278662913      2.29898485309699      0.24899802019733
  C   -2.11182419670401      1.04462567748359     -0.09487152116734
  H   -1.71586606056446     -1.07754381388764     -0.22228937593885
  H   0.62986956366963     -0.87229480055413      0.64885920772275
  H   0.13664552703195      3.38297342329419      1.01058505381554
  H   -2.21154441895166      3.19249199884655      0.13699112572184
  N   2.93699683372625      1.54380402408172     -2.58459063152262
  N   2.89036172876624      1.50353543936381     -3.68722630803189
  B   3.79143075339275     -0.20060634456839      1.61988340642569
  F   3.50396075639183     -0.89616316436364      0.52300842962114
  F   4.60626819203621      0.84319574000055      1.54922722703835
  F   1.74459784462123      1.37712424512071      1.34731710688313
  F   3.32386469067148     -0.60588956180829      2.79499675206357
  H   -3.12949355359563      0.95841988366988     -0.47505262107271
