18
Coordinates from ORCA-job Ph-N2-BF4-B3LYPG-aug-cc-pVDZ-scan-d09-49-n400
  C   -1.30839267624606     -0.09822971023066      0.03625575809230
  C   -0.00250282759610     -0.00050685486412      0.52901752629101
  C   0.47270432732934      1.26122583669635      0.86227886010661
  C   -0.27860459165283      2.42020383651000      0.72334150291236
  C   -1.58209975442193      2.30088142808816      0.22865762122142
  C   -2.09837888334521      1.04660220730446     -0.11333989230966
  H   -1.70687088431710     -1.07691337368997     -0.23179824398628
  H   0.63535139804226     -0.87428683298326      0.64911677231943
  H   0.15060439395672      3.38332731872102      0.99442667412775
  H   -2.19402134672097      3.19545571137138      0.11099668695258
  N   2.86233062038135      1.54625696362984     -2.50406563338810
  N   2.79449006144368      1.50647853269820     -3.60560317886964
  B   3.79959881883417     -0.20346962796524      1.61790954088498
  F   3.50693732899966     -0.90441656793223      0.52582404230765
  F   4.61425723647936      0.83981468877205      1.53838696655699
  F   1.75227900926710      1.37488107633492      1.34514785174137
  F   3.33735517316037     -0.60283629266081      2.79713338788339
  H   -3.11453740359391      0.96153166019990     -0.49778624284420
