18
Coordinates from ORCA-job Ph-N2-BF4-B3LYPG-aug-cc-pVDZ-scan-d09-49-n400
  C   -1.32615787897900     -0.09927713930333      0.05569181158964
  C   -0.01677508475646      0.00107194769042      0.53852594579942
  C   0.45565711985871      1.26291133468155      0.87535113494857
  C   -0.30142654439777      2.41950474725954      0.74929337845080
  C   -1.60836539164516      2.29753498506178      0.26439258414705
  C   -2.12207660851766      1.04309719310679     -0.08080784924903
  H   -1.72270687369669     -1.07801871929470     -0.21499070936043
  H   0.62572433839306     -0.87064707123785      0.64843330336674
  H   0.12600175861348      3.38281222086802      1.02256799632248
  H   -2.22492767810174      3.19018363052874      0.15679607882575
  N   2.99381021946567      1.54179083085742     -2.64466506757894
  N   2.96299373449804      1.50112748463270     -3.74785288820198
  B   3.78527534742619     -0.19852547835105      1.62116418111277
  F   3.50159142384983     -0.89007890741206      0.52080072564423
  F   4.59981701977449      0.84592596937515      1.55698585931211
  F   1.73882942184260      1.37904059975657      1.34852470030409
  F   3.31417091463541     -0.60842578683900      2.79327199581528
  H   -3.14093523826304      0.95597215861929     -0.45758318124859
