18
Coordinates from ORCA-job Ph-N2-BF4-B3LYPG-aug-cc-pVDZ-scan-d09-49-n400
  C   -1.32867122784525     -0.09942678305338      0.05848046203666
  C   -0.01877145332953      0.00133044503926      0.53982064143939
  C   0.45326475989446      1.26318893091292      0.87713843976643
  C   -0.30468001958247      2.41941527147393      0.75299176720639
  C   -1.61212855850204      2.29703518944283      0.26956643687354
  C   -2.12546281230987      1.04257083383153     -0.07609104979040
  H   -1.72494126574470     -1.07818237711786     -0.21256042187823
  H   0.62439563439888     -0.87008244083161      0.64824748808500
  H   0.12247232825517      3.38275390062525      1.02659416680657
  H   -2.22938133093864      3.18938642191966      0.16346779196990
  N   3.01282115444589      1.54106919625373     -2.66467442402032
  N   2.98725547648447      1.50027578469637     -3.76799524608967
  B   3.78308921578313     -0.19779075291371      1.62154068300548
  F   3.50066328118258     -0.88802766441899      0.52003280965494
  F   4.59753135913304      0.84686920092218      1.55950196906558
  F   1.73694714249057      1.37970231131025      1.34890125438820
  F   3.31081659559478     -0.60921447687518      2.79264967333549
  H   -3.14472027941053      0.95512700878278     -0.45171244185497
