18
Coordinates from ORCA-job Ph-N2-BF4-B3LYPG-aug-cc-pVDZ-scan-d09-49-n400
  C   -1.32106131432873     -0.09898858434321      0.05012583407946
  C   -0.01269180914581      0.00056759146830      0.53588413341667
  C   0.46052956701297      1.26236680768785      0.87173389174902
  C   -0.29487061279887      2.41967274593010      0.74193114603009
  C   -1.60080753905307      2.29850406779080      0.25413499290925
  C   -2.11525546352134      1.04411832845217     -0.09017960306931
  H   -1.71816123622942     -1.07770135910991     -0.21985159720059
  H   0.62847739294908     -0.87175257024586      0.64872127337516
  H   0.13309300063064      3.38291637772906      1.01457997426227
  H   -2.21601055491752      3.19172952583509      0.14358923215895
  N   2.95592143518608      1.54314349030189     -2.60463900211180
  N   2.91459147998948      1.50273777981312     -3.70748418739067
  B   3.78940038653310     -0.19991223196789      1.62032344834498
  F   3.50320671670363     -0.89412664823816      0.52227192311561
  F   4.60416060591843      0.84409750539796      1.55185371744520
  F   1.74267432745948      1.37775292341544      1.34772167655954
  F   3.32062019303928     -0.60673711458716      2.79442416603820
  H   -3.13331657542747      0.95761136467037     -0.46924101971205
