18
Coordinates from ORCA-job Ph-N2-BF4-B3LYPG-aug-cc-pVDZ-scan-d09-49-n400
  C   -1.31173689416704     -0.09872098598491      0.03999143105016
  C   -0.00489994431472     -0.00050733984034      0.53012047564996
  C   0.47150782506851      1.26161437697495      0.86279214813342
  C   -0.28319818542274      2.42074714937984      0.72811829860992
  C   -1.58746622915272      2.30061007613529      0.23605921609030
  C   -2.10283872339675      1.04589708327097     -0.10676164335267
  H   -1.71028002434274     -1.07736392886641     -0.22796579373774
  H   0.63293105260788     -0.87464948464311      0.64911875249493
  H   0.14418447866475      3.38436413641400      1.00096379116366
  H   -2.20091407149575      3.19447591988361      0.12133938787690
  N   2.88864005829038      1.54555517227525     -2.53340669653515
  N   2.82845885608457      1.50566504490597     -3.63539301831318
  B   3.79657817386645     -0.20263912778235      1.61943587610900
  F   3.50543277138086     -0.90176620367564      0.52569127013986
  F   4.61152176002263      0.84086550755314      1.54356643470301
  F   1.75024002263034      1.37580216077178      1.34463515218599
  F   3.33211885688847     -0.60418894933946      2.79666278618982
  H   -3.11977978321246      0.96023939256740     -0.48906786845825
