18
Coordinates from ORCA-job Ph-N2-BF4-B3LYPG-aug-cc-pVDZ-scan-d09-49-n400
  C   -1.35647103746297     -0.09254524123417      0.06947958618911
  C   -0.04075250080933      0.01248943450450      0.53441348973149
  C   0.41902383344503      1.27091142164058      0.89982944229401
  C   -0.35728053634215      2.41986640502946      0.82181324716013
  C   -1.66987542290973      2.29281015252825      0.35445995401573
  C   -2.17048089771168      1.04141265513785     -0.02070893237784
  H   -1.74399997732127     -1.06860128252755     -0.22310726648617
  H   0.61540838726723     -0.85264490274394      0.61031771439787
  H   0.05812835844902      3.38111364906262      1.11971532168059
  H   -2.30129148394732      3.17873537517001      0.28428306308957
  N   3.25686260796262      1.49120045229220     -2.91493189831403
  N   3.29251738830840      1.43679719569070     -4.01740606264769
  B   3.76593269994966     -0.18024464208924      1.62706187196519
  F   3.50329132684395     -0.86795405206596      0.51929445893891
  F   4.57588053991654      0.86884471504488      1.57955997594539
  F   1.70852997246679      1.39107685363071      1.35576318266508
  F   3.27898426177106     -0.59726545377906      2.78996906222715
  H   -3.19390751987591      0.94999726470814     -0.38390621047454
