18
Coordinates from ORCA-job Ph-N2-BF4-B3LYPG-aug-cc-pVDZ-scan-d09-49-n400
  C   -1.32194189868569     -0.09930551688820      0.05112224990429
  C   -0.01308646207168      0.00042682672664      0.53550990589512
  C   0.46179192560364      1.26259249418118      0.87016635661743
  C   -0.29627590370339      2.42036663567216      0.74288831205920
  C   -1.60252712442998      2.29870105284903      0.25648071067007
  C   -2.11644694023509      1.04389420086695     -0.08813112516384
  H   -1.71938674642784     -1.07799727418691     -0.21827084895337
  H   0.62737320888209     -0.87255686595618      0.64871747305210
  H   0.13003711403895      3.38409672364749      1.01701787639435
  H   -2.21863997247873      3.19145653929259      0.14756557635801
  N   2.96393700857156      1.54301698302489     -2.61375408233291
  N   2.92496443070892      1.50260580676488     -3.71669111291612
  B   3.78845316838160     -0.19985202894962      1.62130120364302
  F   3.50244732630487     -0.89360343070936      0.52281510642447
  F   4.60325448582707      0.84438593112845      1.55423068025837
  F   1.74253435225012      1.37821916873663      1.34646576343401
  F   3.31896445289387     -0.60749454672270      2.79444920177942
  H   -3.13495242543036      0.95704730052204     -0.46598324712366
