18
Coordinates from ORCA-job Ph-N2-BF4-B3LYPG-aug-cc-pVDZ-scan-d09-49-n400
  C   -0.98405062682920     -0.25707468691319      0.14839916959202
  C   0.24736038211301     -0.10636171436094     -0.47990011987410
  C   0.69735133652597      1.20568033819761     -0.68473361539972
  C   0.00695292591545      2.35654517324538     -0.26938168324536
  C   -1.21434045249445      2.16516818800671      0.36115549153147
  C   -1.70590280958038      0.86643873267009      0.56512134573468
  H   -1.36253451452307     -1.25851639558180      0.34428495127688
  H   0.87117011223411     -0.95092401518582     -0.75692769921410
  H   0.43469471559813      3.34514715521676     -0.41817162078663
  H   -1.77874052716001      3.02795736374964      0.71096031113278
  N   1.92976156178450      1.38663123697331     -1.30436047001792
  N   2.88871944027841      1.55294465031040     -1.83881729559564
  B   2.87066642738757      0.39379411834103      1.54689434967749
  F   3.06401501054104     -0.35790256170301      0.32669859483982
  F   3.92047055372163      0.18340054538854      2.42436168026724
  F   2.79178238933835      1.77808288418348      1.15803095768254
  F   1.62249299827331      0.01385889202726      2.09681605820464
  H   -2.65936892312438      0.73113009543453      1.07546959419393
