1a-H+-RB3LYP-6-31G_dp.log
 OpenBabel08221816433D
Gaussian home/ubuntu/g09/g09 # opt freq rb3lyp/6-31G(d,p)
 23 25  0  0  0  0  0  0  0  0999 V2000
    3.2432   -1.1499    0.0000 C   0  0  0  0  0  0  0  0  0  0  0  0
    1.8926   -0.9537   -0.0001 C   0  0  0  0  0  0  0  0  0  0  0  0
    1.2975    0.3085   -0.0001 C   0  0  0  0  0  0  0  0  0  0  0  0
    1.9507    1.4961    0.0000 C   0  0  0  0  0  0  0  0  0  0  0  0
    3.3806    1.3203    0.0001 C   0  0  0  0  0  0  0  0  0  0  0  0
    3.9869    0.0750    0.0001 C   0  0  0  0  0  0  0  0  0  0  0  0
    3.7284   -2.1188    0.0001 H   0  0  0  0  0  0  0  0  0  0  0  0
    5.0701    0.0208    0.0002 H   0  0  0  0  0  0  0  0  0  0  0  0
    3.9999    2.2106    0.0002 H   0  0  0  0  0  0  0  0  0  0  0  0
    1.5010    2.4814    0.0001 H   0  0  0  0  0  0  0  0  0  0  0  0
    0.5923   -1.6198   -0.0002 N   0  0  0  0  0  0  0  0  0  0  0  0
    0.0005   -0.4674   -0.0001 N   0  0  0  0  0  0  0  0  0  0  0  0
   -1.3525   -0.1840   -0.0001 C   0  0  0  0  0  0  0  0  0  0  0  0
   -1.7497    1.1679   -0.0001 C   0  0  0  0  0  0  0  0  0  0  0  0
   -2.2908   -1.2391    0.0001 C   0  0  0  0  0  0  0  0  0  0  0  0
   -3.1052    1.4634   -0.0001 C   0  0  0  0  0  0  0  0  0  0  0  0
   -1.0090    1.9595   -0.0003 H   0  0  0  0  0  0  0  0  0  0  0  0
   -3.6370   -0.9182    0.0002 C   0  0  0  0  0  0  0  0  0  0  0  0
   -1.9496   -2.2680    0.0002 H   0  0  0  0  0  0  0  0  0  0  0  0
   -4.0456    0.4262    0.0001 C   0  0  0  0  0  0  0  0  0  0  0  0
   -3.4327    2.4969   -0.0001 H   0  0  0  0  0  0  0  0  0  0  0  0
   -4.3779   -1.7101    0.0003 H   0  0  0  0  0  0  0  0  0  0  0  0
   -5.1046    0.6632    0.0002 H   0  0  0  0  0  0  0  0  0  0  0  0
  1  7  1  0  0  0  0
  1  6  2  0  0  0  0
  2  3  2  0  0  0  0
  2  1  1  0  0  0  0
  3  4  1  0  0  0  0
  4  5  2  0  0  0  0
  4 10  1  0  0  0  0
  5  6  1  0  0  0  0
  5  9  1  0  0  0  0
  6  8  1  0  0  0  0
 11 12  1  0  0  0  0
 11  2  1  0  0  0  0
 12  3  1  0  0  0  0
 12 13  1  0  0  0  0
 13 15  1  0  0  0  0
 14 13  2  0  0  0  0
 14 16  1  0  0  0  0
 15 18  2  0  0  0  0
 15 19  1  0  0  0  0
 16 20  2  0  0  0  0
 17 14  1  0  0  0  0
 18 22  1  0  0  0  0
 20 23  1  0  0  0  0
 20 18  1  0  0  0  0
 21 16  1  0  0  0  0
M  RAD  1  11   2
M  END
