1g-A+-RB3LYP-6-31G_dp.log
 OpenBabel08171811343D
Gaussian home/ubuntu/g09/g09 # opt freq rb3lyp/6-31G(d,p)
 16 16  0  0  0  0  0  0  0  0999 V2000
    0.2717    1.2383    0.0000 C   0  0  0  0  0  0  0  0  0  0  0  0
   -1.1122    1.2480    0.0001 C   0  0  0  0  0  0  0  0  0  0  0  0
   -1.7606   -0.0052    0.0000 C   0  0  0  0  0  0  0  0  0  0  0  0
   -1.0875   -1.2441   -0.0001 C   0  0  0  0  0  0  0  0  0  0  0  0
    0.2982   -1.2109   -0.0001 C   0  0  0  0  0  0  0  0  0  0  0  0
    0.9735    0.0212   -0.0001 C   0  0  0  0  0  0  0  0  0  0  0  0
    0.8364    2.1644    0.0001 H   0  0  0  0  0  0  0  0  0  0  0  0
   -3.1370   -0.0197    0.0000 N   0  0  0  0  0  0  0  0  0  0  0  0
   -4.2522   -0.0293    0.0000 N   0  0  0  0  0  0  0  0  0  0  0  0
    0.8633   -2.1353   -0.0002 H   0  0  0  0  0  0  0  0  0  0  0  0
   -1.6379   -2.1783   -0.0001 H   0  0  0  0  0  0  0  0  0  0  0  0
   -1.6803    2.1715    0.0001 H   0  0  0  0  0  0  0  0  0  0  0  0
    2.4801    0.1043   -0.0001 C   0  0  0  0  0  0  0  0  0  0  0  0
    3.0695    1.1587   -0.0001 O   0  0  0  0  0  0  0  0  0  0  0  0
    3.0489   -1.1083    0.0002 O   0  0  0  0  0  0  0  0  0  0  0  0
    4.0158   -0.9921    0.0003 H   0  0  0  0  0  0  0  0  0  0  0  0
  1  2  1  0  0  0  0
  1  7  1  0  0  0  0
  2 12  1  0  0  0  0
  3  8  1  0  0  0  0
  3  2  2  0  0  0  0
  4  3  1  0  0  0  0
  5  4  2  0  0  0  0
  5  6  1  0  0  0  0
  6  1  2  0  0  0  0
  8  9  1  0  0  0  0
 10  5  1  0  0  0  0
 11  4  1  0  0  0  0
 13  6  1  0  0  0  0
 13 15  1  0  0  0  0
 14 13  2  0  0  0  0
 15 16  1  0  0  0  0
M  RAD  2   8   2   9   3
M  END
