1g-D+-RB3LYP-6-31G_dp.log
 OpenBabel08221816433D
Gaussian home/ubuntu/g09/g09 # opt freq rb3lyp/6-31G(d,p)
 31 32  0  0  0  0  0  0  0  0999 V2000
    2.5188   -0.6262   -0.0001 C   0  0  0  0  0  0  0  0  0  0  0  0
    1.8060    0.5797   -0.0002 C   0  0  0  0  0  0  0  0  0  0  0  0
    2.5810    1.7720   -0.0000 C   0  0  0  0  0  0  0  0  0  0  0  0
    3.9934    1.7983    0.0001 C   0  0  0  0  0  0  0  0  0  0  0  0
    4.6509    0.5847    0.0001 C   0  0  0  0  0  0  0  0  0  0  0  0
    3.9108   -0.6203   -0.0000 C   0  0  0  0  0  0  0  0  0  0  0  0
    1.9816   -1.5669   -0.0002 H   0  0  0  0  0  0  0  0  0  0  0  0
    1.8986    2.9579    0.0001 N   0  0  0  0  0  0  0  0  0  0  0  0
    1.3813    3.9479    0.0002 N   0  0  0  0  0  0  0  0  0  0  0  0
    5.7332    0.5510    0.0002 H   0  0  0  0  0  0  0  0  0  0  0  0
    4.5283    2.7412    0.0002 H   0  0  0  0  0  0  0  0  0  0  0  0
    0.4210    0.7600   -0.0002 N   0  0  0  0  0  0  0  0  0  0  0  0
   -0.2236   -0.3394   -0.0000 N   0  0  0  0  0  0  0  0  0  0  0  0
   -1.6088   -0.2447    0.0000 C   0  0  0  0  0  0  0  0  0  0  0  0
   -2.2829   -1.4840    0.0003 C   0  0  0  0  0  0  0  0  0  0  0  0
   -2.3403    0.9671   -0.0002 C   0  0  0  0  0  0  0  0  0  0  0  0
   -3.6709   -1.5204    0.0003 C   0  0  0  0  0  0  0  0  0  0  0  0
   -1.6923   -2.3936    0.0004 H   0  0  0  0  0  0  0  0  0  0  0  0
   -3.7202    0.9219   -0.0002 C   0  0  0  0  0  0  0  0  0  0  0  0
   -1.8107    1.9117   -0.0004 H   0  0  0  0  0  0  0  0  0  0  0  0
   -4.3904   -0.3178    0.0000 C   0  0  0  0  0  0  0  0  0  0  0  0
   -4.2003   -2.4652    0.0004 H   0  0  0  0  0  0  0  0  0  0  0  0
   -4.3164    1.8275   -0.0003 H   0  0  0  0  0  0  0  0  0  0  0  0
   -5.8895   -0.2859    0.0000 C   0  0  0  0  0  0  0  0  0  0  0  0
   -6.5345    0.7395    0.0002 O   0  0  0  0  0  0  0  0  0  0  0  0
   -6.4324   -1.5178   -0.0002 O   0  0  0  0  0  0  0  0  0  0  0  0
   -7.3987   -1.4064   -0.0001 H   0  0  0  0  0  0  0  0  0  0  0  0
    4.5943   -1.9648   -0.0000 C   0  0  0  0  0  0  0  0  0  0  0  0
    3.9872   -3.0096   -0.0000 O   0  0  0  0  0  0  0  0  0  0  0  0
    5.9313   -1.8491    0.0000 O   0  0  0  0  0  0  0  0  0  0  0  0
    6.3095   -2.7461    0.0000 H   0  0  0  0  0  0  0  0  0  0  0  0
  1  6  1  0  0  0  0
  2  1  2  0  0  0  0
  2  3  1  0  0  0  0
  3  8  1  0  0  0  0
  3  4  2  0  0  0  0
  4 11  1  0  0  0  0
  5  4  1  0  0  0  0
  5 10  1  0  0  0  0
  6  5  2  0  0  0  0
  7  1  1  0  0  0  0
  8  9  1  0  0  0  0
 12  2  1  0  0  0  0
 12 13  1  0  0  0  0
 13 14  1  0  0  0  0
 14 15  2  0  0  0  0
 15 18  1  0  0  0  0
 16 19  2  0  0  0  0
 16 14  1  0  0  0  0
 17 15  1  0  0  0  0
 17 22  1  0  0  0  0
 19 21  1  0  0  0  0
 20 16  1  0  0  0  0
 21 17  2  0  0  0  0
 23 19  1  0  0  0  0
 24 21  1  0  0  0  0
 24 25  2  0  0  0  0
 26 27  1  0  0  0  0
 26 24  1  0  0  0  0
 28  6  1  0  0  0  0
 28 29  2  0  0  0  0
 28 30  1  0  0  0  0
 30 31  1  0  0  0  0
M  RAD  4   8   2   9   3  12   2  13   2
M  END
