1g-P3+-RB3LYP-6-31G_dp.log
 OpenBabel08221816433D
Gaussian home/ubuntu/g09/g09 # opt freq rb3lyp/6-31G(d,p)
 68 73  0  0  1  0  0  0  0  0999 V2000
   -0.4166   -1.8520   -2.2628 C   0  0  0  0  0  0  0  0  0  0  0  0
   -0.5194   -0.6363   -1.5638 C   0  0  0  0  0  0  0  0  0  0  0  0
    0.6376    0.0881   -1.2630 C   0  0  0  0  0  0  0  0  0  0  0  0
    1.9507   -0.3746   -1.7904 C   0  0  2  0  0  0  0  0  0  0  0  0
    1.9760   -1.7059   -2.4388 C   0  0  0  0  0  0  0  0  0  0  0  0
    0.8171   -2.3925   -2.6897 C   0  0  0  0  0  0  0  0  0  0  0  0
   -1.3275   -2.4042   -2.4764 H   0  0  0  0  0  0  0  0  0  0  0  0
    2.9347   -2.0921   -2.7687 H   0  0  0  0  0  0  0  0  0  0  0  0
    2.0081    0.2935   -2.6890 H   0  0  0  0  0  0  0  0  0  0  0  0
   -1.7608   -0.0954   -1.1418 N   0  0  0  0  0  0  0  0  0  0  0  0
   -2.6782   -0.9627   -1.0922 N   0  0  0  0  0  0  0  0  0  0  0  0
   -3.9508   -0.4980   -0.7259 C   0  0  0  0  0  0  0  0  0  0  0  0
   -4.9424   -1.4905   -0.6401 C   0  0  0  0  0  0  0  0  0  0  0  0
   -4.2611    0.8504   -0.4559 C   0  0  0  0  0  0  0  0  0  0  0  0
   -6.2388   -1.1427   -0.2845 C   0  0  0  0  0  0  0  0  0  0  0  0
   -4.6706   -2.5183   -0.8550 H   0  0  0  0  0  0  0  0  0  0  0  0
   -5.5564    1.1901   -0.1025 C   0  0  0  0  0  0  0  0  0  0  0  0
   -3.4831    1.6008   -0.5288 H   0  0  0  0  0  0  0  0  0  0  0  0
   -6.5486    0.1958   -0.0151 C   0  0  0  0  0  0  0  0  0  0  0  0
   -7.0246   -1.8855   -0.2092 H   0  0  0  0  0  0  0  0  0  0  0  0
   -5.8164    2.2205    0.1085 H   0  0  0  0  0  0  0  0  0  0  0  0
    0.5927    1.3515   -0.4858 C   0  0  0  0  0  0  0  0  0  0  0  0
    0.3360    2.5809   -1.0887 C   0  0  0  0  0  0  0  0  0  0  0  0
    0.7947    1.2548    0.9050 C   0  0  0  0  0  0  0  0  0  0  0  0
    0.2909    3.7388   -0.3060 C   0  0  0  0  0  0  0  0  0  0  0  0
    0.1601    2.6709   -2.1556 H   0  0  0  0  0  0  0  0  0  0  0  0
    0.7184    2.4186    1.6766 C   0  0  0  0  0  0  0  0  0  0  0  0
    0.4774    3.6544    1.0787 C   0  0  0  0  0  0  0  0  0  0  0  0
    0.8605    2.3520    2.7506 H   0  0  0  0  0  0  0  0  0  0  0  0
    0.4326    4.5543    1.6807 H   0  0  0  0  0  0  0  0  0  0  0  0
    1.0151   -0.0902    1.5135 C   0  0  0  0  0  0  0  0  0  0  0  0
    2.1647   -0.8640    1.2114 C   0  0  0  0  0  0  0  0  0  0  0  0
    0.0601   -0.6026    2.3961 C   0  0  0  0  0  0  0  0  0  0  0  0
    2.3076   -2.1282    1.8060 C   0  0  0  0  0  0  0  0  0  0  0  0
    0.2128   -1.8663    2.9726 C   0  0  0  0  0  0  0  0  0  0  0  0
   -0.8248   -0.0257    2.6431 H   0  0  0  0  0  0  0  0  0  0  0  0
    1.3433   -2.6344    2.6720 C   0  0  0  0  0  0  0  0  0  0  0  0
    3.1977   -2.7120    1.5925 H   0  0  0  0  0  0  0  0  0  0  0  0
    1.4673   -3.6128    3.1213 H   0  0  0  0  0  0  0  0  0  0  0  0
    3.2928   -0.3222    0.3949 C   0  0  0  0  0  0  0  0  0  0  0  0
    4.5152   -0.0906    1.0382 C   0  0  0  0  0  0  0  0  0  0  0  0
    3.2082   -0.0386   -0.9842 C   0  0  0  0  0  0  0  0  0  0  0  0
    5.6211    0.4170    0.3522 C   0  0  0  0  0  0  0  0  0  0  0  0
    4.6184   -0.2947    2.0984 H   0  0  0  0  0  0  0  0  0  0  0  0
    4.3163    0.4737   -1.6684 C   0  0  0  0  0  0  0  0  0  0  0  0
    5.5207    0.7058   -1.0113 C   0  0  0  0  0  0  0  0  0  0  0  0
    4.2423    0.6932   -2.7304 H   0  0  0  0  0  0  0  0  0  0  0  0
    6.3724    1.1072   -1.5473 H   0  0  0  0  0  0  0  0  0  0  0  0
   -7.9609    0.5159    0.3632 C   0  0  0  0  0  0  0  0  0  0  0  0
   -8.8410   -0.3123    0.4502 O   0  0  0  0  0  0  0  0  0  0  0  0
   -8.1510    1.8316    0.5981 O   0  0  0  0  0  0  0  0  0  0  0  0
   -9.0881    1.9410    0.8336 H   0  0  0  0  0  0  0  0  0  0  0  0
    0.7831   -3.7174   -3.4015 C   0  0  0  0  0  0  0  0  0  0  0  0
   -0.2415   -4.3206   -3.6159 O   0  0  0  0  0  0  0  0  0  0  0  0
    2.0111   -4.1285   -3.7566 O   0  0  0  0  0  0  0  0  0  0  0  0
    1.9192   -4.9859   -4.2081 H   0  0  0  0  0  0  0  0  0  0  0  0
    0.0291    5.0296   -1.0109 C   0  0  0  0  0  0  0  0  0  0  0  0
   -0.1289    5.1240   -2.2101 O   0  0  0  0  0  0  0  0  0  0  0  0
   -0.0120    6.0823   -0.1696 O   0  0  0  0  0  0  0  0  0  0  0  0
   -0.1825    6.8714   -0.7115 H   0  0  0  0  0  0  0  0  0  0  0  0
   -0.8622   -2.3400    3.8961 C   0  0  0  0  0  0  0  0  0  0  0  0
   -1.8664   -1.7083    4.1478 O   0  0  0  0  0  0  0  0  0  0  0  0
   -0.5974   -3.5543    4.4218 O   0  0  0  0  0  0  0  0  0  0  0  0
   -1.3397   -3.7743    5.0101 H   0  0  0  0  0  0  0  0  0  0  0  0
    6.8793    0.6347    1.1317 C   0  0  0  0  0  0  0  0  0  0  0  0
    6.9922    0.3930    2.3137 O   0  0  0  0  0  0  0  0  0  0  0  0
    7.8784    1.1295    0.3721 O   0  0  0  0  0  0  0  0  0  0  0  0
    8.6492    1.2380    0.9550 H   0  0  0  0  0  0  0  0  0  0  0  0
  1  2  1  0  0  0  0
  2  3  2  0  0  0  0
  2 10  1  0  0  0  0
  3 22  1  0  0  0  0
  4  9  1  6  0  0  0
  4  3  1  0  0  0  0
  4 42  1  0  0  0  0
  5  4  1  0  0  0  0
  6  5  2  0  0  0  0
  6  1  1  0  0  0  0
  7  1  1  0  0  0  0
  8  5  1  0  0  0  0
 10 11  1  0  0  0  0
 11 12  1  0  0  0  0
 12 13  2  0  0  0  0
 12 14  1  0  0  0  0
 13 15  1  0  0  0  0
 14 17  2  0  0  0  0
 15 20  1  0  0  0  0
 15 19  2  0  0  0  0
 16 13  1  0  0  0  0
 17 19  1  0  0  0  0
 17 21  1  0  0  0  0
 18 14  1  0  0  0  0
 19 49  1  0  0  0  0
 22 24  1  0  0  0  0
 23 22  2  0  0  0  0
 23 25  1  0  0  0  0
 24 31  1  0  0  0  0
 24 27  2  0  0  0  0
 25 28  2  0  0  0  0
 26 23  1  0  0  0  0
 27 29  1  0  0  0  0
 28 27  1  0  0  0  0
 28 30  1  0  0  0  0
 31 33  1  0  0  0  0
 32 31  2  0  0  0  0
 32 34  1  0  0  0  0
 33 36  1  0  0  0  0
 33 35  2  0  0  0  0
 34 37  2  0  0  0  0
 35 61  1  0  0  0  0
 37 35  1  0  0  0  0
 37 39  1  0  0  0  0
 38 34  1  0  0  0  0
 40 41  1  0  0  0  0
 40 32  1  0  0  0  0
 41 44  1  0  0  0  0
 42 40  2  0  0  0  0
 43 41  2  0  0  0  0
 43 65  1  0  0  0  0
 45 46  2  0  0  0  0
 45 42  1  0  0  0  0
 46 43  1  0  0  0  0
 47 45  1  0  0  0  0
 48 46  1  0  0  0  0
 49 50  2  0  0  0  0
 49 51  1  0  0  0  0
 51 52  1  0  0  0  0
 53  6  1  0  0  0  0
 54 53  2  0  0  0  0
 55 53  1  0  0  0  0
 56 55  1  0  0  0  0
 57 25  1  0  0  0  0
 57 59  1  0  0  0  0
 58 57  2  0  0  0  0
 60 59  1  0  0  0  0
 61 62  2  0  0  0  0
 61 63  1  0  0  0  0
 63 64  1  0  0  0  0
 65 66  2  0  0  0  0
 67 68  1  0  0  0  0
 67 65  1  0  0  0  0
M  RAD  3   1   2  10   2  11   2
M  END
