1g-P1+-RB3LYP-6-31G_dp.log
 OpenBabel08171811343D
Gaussian home/ubuntu/g09/g09 # opt freq rb3lyp/6-31G(d,p)
 42 45  0  0  0  0  0  0  0  0999 V2000
    2.1344   -2.2666   -0.0659 C   0  0  0  0  0  0  0  0  0  0  0  0
    1.7294   -0.9447   -0.0476 C   0  0  0  0  0  0  0  0  0  0  0  0
    2.6021    0.1378    0.1315 C   0  0  0  0  0  0  0  0  0  0  0  0
    3.9600   -0.1077    0.2960 C   0  0  0  0  0  0  0  0  0  0  0  0
    4.4042   -1.4363    0.2701 C   0  0  0  0  0  0  0  0  0  0  0  0
    3.5077   -2.5019    0.0891 C   0  0  0  0  0  0  0  0  0  0  0  0
    1.4501   -3.0964   -0.1947 H   0  0  0  0  0  0  0  0  0  0  0  0
    5.4584   -1.6544    0.3939 H   0  0  0  0  0  0  0  0  0  0  0  0
    4.6650    0.7033    0.4421 H   0  0  0  0  0  0  0  0  0  0  0  0
    0.3826   -0.4512   -0.1497 N   0  0  0  0  0  0  0  0  0  0  0  0
   -0.5490   -1.2990   -0.3403 N   0  0  0  0  0  0  0  0  0  0  0  0
   -1.8984   -1.0617   -0.1855 C   0  0  0  0  0  0  0  0  0  0  0  0
   -2.4790   -0.1941    0.7742 C   0  0  0  0  0  0  0  0  0  0  0  0
   -2.7220   -1.9239   -0.9493 C   0  0  0  0  0  0  0  0  0  0  0  0
   -3.8538   -0.1684    0.9152 C   0  0  0  0  0  0  0  0  0  0  0  0
   -1.8541    0.3917    1.4375 H   0  0  0  0  0  0  0  0  0  0  0  0
   -4.1018   -1.8448   -0.8381 C   0  0  0  0  0  0  0  0  0  0  0  0
   -2.2503   -2.6224   -1.6315 H   0  0  0  0  0  0  0  0  0  0  0  0
   -4.6718   -0.9683    0.0961 C   0  0  0  0  0  0  0  0  0  0  0  0
   -4.3288    0.4601    1.6605 H   0  0  0  0  0  0  0  0  0  0  0  0
   -4.7401   -2.4753   -1.4450 H   0  0  0  0  0  0  0  0  0  0  0  0
    1.7979    1.3592    0.0759 C   0  0  0  0  0  0  0  0  0  0  0  0
    2.1587    2.6975    0.0843 C   0  0  0  0  0  0  0  0  0  0  0  0
    0.4418    0.9991   -0.0966 C   0  0  0  0  0  0  0  0  0  0  0  0
    1.1641    3.6667   -0.1129 C   0  0  0  0  0  0  0  0  0  0  0  0
    3.1855    3.0199    0.2167 H   0  0  0  0  0  0  0  0  0  0  0  0
   -0.5486    1.9492   -0.3373 C   0  0  0  0  0  0  0  0  0  0  0  0
   -0.1676    3.2926   -0.3412 C   0  0  0  0  0  0  0  0  0  0  0  0
   -1.5807    1.6850   -0.5176 H   0  0  0  0  0  0  0  0  0  0  0  0
   -0.9123    4.0589   -0.5181 H   0  0  0  0  0  0  0  0  0  0  0  0
   -6.1553   -0.8587    0.2914 C   0  0  0  0  0  0  0  0  0  0  0  0
   -6.6638   -0.1014    1.0877 O   0  0  0  0  0  0  0  0  0  0  0  0
   -6.8409   -1.6869   -0.5155 O   0  0  0  0  0  0  0  0  0  0  0  0
   -7.7875   -1.5587   -0.3306 H   0  0  0  0  0  0  0  0  0  0  0  0
    3.9537   -3.9309    0.0578 C   0  0  0  0  0  0  0  0  0  0  0  0
    3.1941   -4.8625   -0.0941 O   0  0  0  0  0  0  0  0  0  0  0  0
    5.2837   -4.0592    0.2167 O   0  0  0  0  0  0  0  0  0  0  0  0
    5.4887   -5.0095    0.1843 H   0  0  0  0  0  0  0  0  0  0  0  0
    1.5970    5.1029   -0.0922 C   0  0  0  0  0  0  0  0  0  0  0  0
    2.7443    5.4468    0.0840 O   0  0  0  0  0  0  0  0  0  0  0  0
    0.5727    5.9522   -0.2902 O   0  0  0  0  0  0  0  0  0  0  0  0
    0.9347    6.8550   -0.2648 H   0  0  0  0  0  0  0  0  0  0  0  0
  1  2  2  0  0  0  0
  1  6  1  0  0  0  0
  2  3  1  0  0  0  0
  3  4  2  0  0  0  0
  4  9  1  0  0  0  0
  5  4  1  0  0  0  0
  5  8  1  0  0  0  0
  6  5  2  0  0  0  0
  7  1  1  0  0  0  0
 10 24  1  0  0  0  0
 10  2  1  0  0  0  0
 11 12  1  0  0  0  0
 11 10  1  0  0  0  0
 12 13  2  0  0  0  0
 13 15  1  0  0  0  0
 13 16  1  0  0  0  0
 14 17  2  0  0  0  0
 14 12  1  0  0  0  0
 15 20  1  0  0  0  0
 17 19  1  0  0  0  0
 18 14  1  0  0  0  0
 19 31  1  0  0  0  0
 19 15  2  0  0  0  0
 21 17  1  0  0  0  0
 22 23  1  0  0  0  0
 22  3  1  0  0  0  0
 23 26  1  0  0  0  0
 24 22  2  0  0  0  0
 25 39  1  0  0  0  0
 25 23  2  0  0  0  0
 27 24  1  0  0  0  0
 28 27  2  0  0  0  0
 28 25  1  0  0  0  0
 29 27  1  0  0  0  0
 30 28  1  0  0  0  0
 31 32  2  0  0  0  0
 33 34  1  0  0  0  0
 33 31  1  0  0  0  0
 35  6  1  0  0  0  0
 35 37  1  0  0  0  0
 36 35  2  0  0  0  0
 38 37  1  0  0  0  0
 39 40  2  0  0  0  0
 41 42  1  0  0  0  0
 41 39  1  0  0  0  0
M  RAD  1  11   2
M  END
