1h-D+-RB3LYP-6-31G_dp.log
 OpenBabel08171811343D
Gaussian home/ubuntu/g09/g09 # opt freq rb3lyp/6-31G(d,p)
 25 26  0  0  0  0  0  0  0  0999 V2000
    2.6199   -0.3547    0.0001 C   0  0  0  0  0  0  0  0  0  0  0  0
    1.8669    0.8259    0.0000 C   0  0  0  0  0  0  0  0  0  0  0  0
    2.5944    2.0521   -0.0001 C   0  0  0  0  0  0  0  0  0  0  0  0
    4.0086    2.1202   -0.0001 C   0  0  0  0  0  0  0  0  0  0  0  0
    4.7108    0.9373   -0.0000 C   0  0  0  0  0  0  0  0  0  0  0  0
    4.0099   -0.2934    0.0000 C   0  0  0  0  0  0  0  0  0  0  0  0
    2.0960   -1.3017    0.0001 H   0  0  0  0  0  0  0  0  0  0  0  0
    1.8770    3.2067   -0.0001 N   0  0  0  0  0  0  0  0  0  0  0  0
    1.3150    4.1749   -0.0001 N   0  0  0  0  0  0  0  0  0  0  0  0
    5.7939    0.9427   -0.0000 H   0  0  0  0  0  0  0  0  0  0  0  0
    4.5133    3.0797   -0.0001 H   0  0  0  0  0  0  0  0  0  0  0  0
    0.4786    0.9463    0.0002 N   0  0  0  0  0  0  0  0  0  0  0  0
   -0.1217   -0.1824    0.0001 N   0  0  0  0  0  0  0  0  0  0  0  0
   -1.5024   -0.1483    0.0000 C   0  0  0  0  0  0  0  0  0  0  0  0
   -2.1308   -1.4136   -0.0001 C   0  0  0  0  0  0  0  0  0  0  0  0
   -2.2895    1.0303    0.0002 C   0  0  0  0  0  0  0  0  0  0  0  0
   -3.5124   -1.5114   -0.0002 C   0  0  0  0  0  0  0  0  0  0  0  0
   -1.5067   -2.3007   -0.0002 H   0  0  0  0  0  0  0  0  0  0  0  0
   -3.6660    0.9346    0.0002 C   0  0  0  0  0  0  0  0  0  0  0  0
   -1.8016    1.9973    0.0004 H   0  0  0  0  0  0  0  0  0  0  0  0
   -4.2741   -0.3361    0.0000 C   0  0  0  0  0  0  0  0  0  0  0  0
   -4.0033   -2.4772   -0.0003 H   0  0  0  0  0  0  0  0  0  0  0  0
   -4.2854    1.8239    0.0004 H   0  0  0  0  0  0  0  0  0  0  0  0
   -6.1533   -0.4501   -0.0000 Br  0  0  0  0  0  0  0  0  0  0  0  0
    5.0030   -1.8882    0.0000 Br  0  0  0  0  0  0  0  0  0  0  0  0
  1  7  1  0  0  0  0
  2  1  2  0  0  0  0
  2 12  1  0  0  0  0
  3  2  1  0  0  0  0
  4  3  2  0  0  0  0
  4  5  1  0  0  0  0
  5 10  1  0  0  0  0
  5  6  2  0  0  0  0
  6 25  1  0  0  0  0
  6  1  1  0  0  0  0
  8  3  1  0  0  0  0
  9  8  1  0  0  0  0
 11  4  1  0  0  0  0
 13 12  1  0  0  0  0
 14 13  1  0  0  0  0
 14 16  2  0  0  0  0
 15 14  1  0  0  0  0
 16 19  1  0  0  0  0
 16 20  1  0  0  0  0
 17 15  2  0  0  0  0
 17 21  1  0  0  0  0
 18 15  1  0  0  0  0
 19 23  1  0  0  0  0
 21 19  2  0  0  0  0
 22 17  1  0  0  0  0
 24 21  1  0  0  0  0
M  RAD  4   8   2   9   3  12   2  13   2
M  END
