1h-RB3LYP-6-31G_dp.log
 OpenBabel08221816443D
Gaussian home/ubuntu/g09/g09 # opt freq rb3lyp/6-31G(d,p)
 21 20  0  0  0  0  0  0  0  0999 V2000
    1.0422   -0.2309    0.0139 C   0  0  0  0  0  0  0  0  0  0  0  0
    0.9266    1.1657   -0.0743 C   0  0  0  0  0  0  0  0  0  0  0  0
    2.0322    2.0336   -0.0950 C   0  0  0  0  0  0  0  0  0  0  0  0
    3.2995    1.4775   -0.0436 C   0  0  0  0  0  0  0  0  0  0  0  0
    3.4355    0.0845    0.0407 C   0  0  0  0  0  0  0  0  0  0  0  0
    2.3241   -0.7633    0.0737 C   0  0  0  0  0  0  0  0  0  0  0  0
    0.1362   -0.8355    0.0641 H   0  0  0  0  0  0  0  0  0  0  0  0
    1.8915    3.1067   -0.1580 H   0  0  0  0  0  0  0  0  0  0  0  0
    4.1780    2.1105   -0.0646 H   0  0  0  0  0  0  0  0  0  0  0  0
    2.4585   -1.8358    0.1467 H   0  0  0  0  0  0  0  0  0  0  0  0
   -0.3337    1.7330   -0.1432 N   0  0  0  0  0  0  0  0  0  0  0  0
   -1.3948    2.0729   -0.2828 N   0  0  0  0  0  0  0  0  0  0  0  0
   -2.8105   -0.7177   -0.4745 S   0  0  0  0  0  0  0  0  0  0  0  0
   -2.4888    0.4288   -1.3966 O   0  0  0  0  0  0  0  0  0  0  0  0
   -3.2758   -1.9323   -1.1472 O   0  0  0  0  0  0  0  0  0  0  0  0
   -1.7704   -0.8835    0.5798 O   0  0  0  0  0  0  0  0  0  0  0  0
   -4.2709   -0.0803    0.4843 C   0  0  0  0  0  0  0  0  0  0  0  0
   -5.3027    0.1675   -0.3293 F   0  0  0  0  0  0  0  0  0  0  0  0
   -3.9411    1.0670    1.1107 F   0  0  0  0  0  0  0  0  0  0  0  0
   -4.6552   -0.9679    1.4084 F   0  0  0  0  0  0  0  0  0  0  0  0
    5.1725   -0.6608    0.1198 Br  0  0  0  0  0  0  0  0  0  0  0  0
  1  7  1  0  0  0  0
  1  6  2  0  0  0  0
  2  1  1  0  0  0  0
  3  2  2  0  0  0  0
  3  4  1  0  0  0  0
  4  5  2  0  0  0  0
  5  6  1  0  0  0  0
  5 21  1  0  0  0  0
  6 10  1  0  0  0  0
  8  3  1  0  0  0  0
  9  4  1  0  0  0  0
 11  2  1  0  0  0  0
 12 11  1  0  0  0  0
 13 17  1  0  0  0  0
 13 16  1  0  0  0  0
 14 13  2  0  0  0  0
 15 13  2  0  0  0  0
 17 19  1  0  0  0  0
 17 20  1  0  0  0  0
 18 17  1  0  0  0  0
M  RAD  3  11   2  12   3  16   2
M  END
