x2-4-NO2-Ph-N2-BF4-v2-RB3LYP-aug-cc-pVDZ.log
 OpenBabel03201908083D
Gaussian home/ubuntu/g09/g09 # rb3lyp/aug-cc-pvdz scf=(xqc,maxcycle=1000) nosymm
 35 34  0  0  0  0  0  0  0  0999 V2000
    3.4940   -0.1694   -0.3697 C   0  0  0  0  0  0  0  0  0  0  0  0
    3.7590    1.2044   -0.2389 C   0  0  0  0  0  0  0  0  0  0  0  0
    5.0237    1.7495    0.0522 C   0  0  0  0  0  0  0  0  0  0  0  0
    6.0761    0.8639    0.2243 C   0  0  0  0  0  0  0  0  0  0  0  0
    5.8260   -0.5026    0.0924 C   0  0  0  0  0  0  0  0  0  0  0  0
    4.5708   -1.0313   -0.2002 C   0  0  0  0  0  0  0  0  0  0  0  0
    2.4903   -0.5251   -0.5803 H   0  0  0  0  0  0  0  0  0  0  0  0
    5.1646    2.8205    0.1416 H   0  0  0  0  0  0  0  0  0  0  0  0
    7.0768    1.2072    0.4550 H   0  0  0  0  0  0  0  0  0  0  0  0
    4.4494   -2.1041   -0.2848 H   0  0  0  0  0  0  0  0  0  0  0  0
    2.7209    2.1024   -0.4314 N   0  0  0  0  0  0  0  0  0  0  0  0
    1.9183    2.8503   -0.6123 N   0  0  0  0  0  0  0  0  0  0  0  0
   -2.3977    1.3633   -0.3854 H   0  0  0  0  0  0  0  0  0  0  0  0
   -3.3979    0.9633   -0.2499 C   0  0  0  0  0  0  0  0  0  0  0  0
   -3.6420   -0.4162   -0.3882 C   0  0  0  0  0  0  0  0  0  0  0  0
   -4.4870    1.7636    0.0768 C   0  0  0  0  0  0  0  0  0  0  0  0
   -4.8974   -1.0197   -0.2166 C   0  0  0  0  0  0  0  0  0  0  0  0
   -5.7558    1.2075    0.2642 C   0  0  0  0  0  0  0  0  0  0  0  0
   -4.3440    2.8316    0.1941 H   0  0  0  0  0  0  0  0  0  0  0  0
   -5.9358   -0.1686    0.1140 C   0  0  0  0  0  0  0  0  0  0  0  0
   -5.0669   -2.0840   -0.3274 H   0  0  0  0  0  0  0  0  0  0  0  0
   -2.5940   -1.2515   -0.7379 N   0  0  0  0  0  0  0  0  0  0  0  0
   -1.7801   -1.9428   -1.0477 N   0  0  0  0  0  0  0  0  0  0  0  0
    6.9658   -1.4450    0.2748 N   0  0  0  0  0  0  0  0  0  0  0  0
    6.7197   -2.6374    0.1478 O   0  0  0  0  0  0  0  0  0  0  0  0
    8.0539   -0.9471    0.5352 O   0  0  0  0  0  0  0  0  0  0  0  0
    1.1430    0.6875    1.0663 F   0  0  0  0  0  0  0  0  0  0  0  0
   -1.0329   -0.0960    0.9951 F   0  0  0  0  0  0  0  0  0  0  0  0
    0.4405   -0.6214   -0.6846 F   0  0  0  0  0  0  0  0  0  0  0  0
   -0.3397    1.5295   -0.4703 F   0  0  0  0  0  0  0  0  0  0  0  0
    0.0527    0.3725    0.2531 B   0  0  0  0  0  0  0  0  0  0  0  0
   -6.9128   -0.5797    0.2600 H   0  0  0  0  0  0  0  0  0  0  0  0
   -6.9163    2.0376    0.6178 N   0  0  0  0  0  0  0  0  0  0  0  0
   -7.9783    1.5002    0.7649 O   0  0  0  0  0  0  0  0  0  0  0  0
   -6.7546    3.2192    0.7452 O   0  0  0  0  0  0  0  0  0  0  0  0
  1  2  2  0  0  0  0
  1  6  1  0  0  0  0
  2  3  1  0  0  0  0
  3  8  1  0  0  0  0
  3  4  2  0  0  0  0
  4  9  1  0  0  0  0
  5  4  1  0  0  0  0
  5 24  1  0  0  0  0
  6  5  2  0  0  0  0
  7  1  1  0  0  0  0
 10  6  1  0  0  0  0
 11  2  1  0  0  0  0
 12 11  1  0  0  0  0
 13 14  1  0  0  0  0
 14 16  1  0  0  0  0
 15 14  2  0  0  0  0
 15 17  1  0  0  0  0
 16 19  1  0  0  0  0
 16 18  2  0  0  0  0
 17 20  2  0  0  0  0
 18 33  1  0  0  0  0
 20 32  1  0  0  0  0
 20 18  1  0  0  0  0
 21 17  1  0  0  0  0
 22 15  1  0  0  0  0
 23 22  1  0  0  0  0
 24 26  2  0  0  0  0
 25 24  2  0  0  0  0
 29 31  1  0  0  0  0
 30 31  1  0  0  0  0
 31 28  1  0  0  0  0
 31 27  1  0  0  0  0
 33 35  2  0  0  0  0
 33 34  2  0  0  0  0
M  RAD  4  11   2  12   3  22   2  23   3
M  END
