Coordinates from ORCA-job Ph-N2-X-OTs-B3LYPG-6-31G_dp-scan-d09-49-n400
 OpenBabel08281821363D

 31 32  0  0  0  0  0  0  0  0999 V2000
    0.7100    3.4190   -1.0972 C   0  0  0  0  0  0  0  0  0  0  0  0
    1.6890    2.4743   -1.3642 C   0  0  0  0  0  0  0  0  0  0  0  0
    1.3795    1.2968   -2.0680 C   0  0  0  0  0  0  0  0  0  0  0  0
    0.0543    1.0716   -2.5068 C   0  0  0  0  0  0  0  0  0  0  0  0
   -0.9284    2.0348   -2.2334 C   0  0  0  0  0  0  0  0  0  0  0  0
   -0.6022    3.1929   -1.5365 C   0  0  0  0  0  0  0  0  0  0  0  0
    0.9556    4.3229   -0.5496 H   0  0  0  0  0  0  0  0  0  0  0  0
    2.7119    2.6111   -1.0317 H   0  0  0  0  0  0  0  0  0  0  0  0
   -1.1587   -0.0908   -3.4009 H   0  0  0  0  0  0  0  0  0  0  0  0
   -1.9481    1.8660   -2.5714 H   0  0  0  0  0  0  0  0  0  0  0  0
    2.3189    0.2813   -2.3621 N   0  0  0  0  0  0  0  0  0  0  0  0
    3.4966    0.5323   -2.0548 N   0  0  0  0  0  0  0  0  0  0  0  0
    6.7262    0.6903   -3.0843 C   0  0  0  0  0  0  0  0  0  0  0  0
    7.5862    1.2989   -3.9945 C   0  0  0  0  0  0  0  0  0  0  0  0
    7.4307    1.1117   -5.3768 C   0  0  0  0  0  0  0  0  0  0  0  0
    6.3830    0.2967   -5.8298 C   0  0  0  0  0  0  0  0  0  0  0  0
    5.5098   -0.3183   -4.9351 C   0  0  0  0  0  0  0  0  0  0  0  0
    5.6915   -0.1150   -3.5662 C   0  0  0  0  0  0  0  0  0  0  0  0
    6.8564    0.8214   -2.0153 H   0  0  0  0  0  0  0  0  0  0  0  0
    8.3948    1.9257   -3.6275 H   0  0  0  0  0  0  0  0  0  0  0  0
    6.2518    0.1390   -6.8973 H   0  0  0  0  0  0  0  0  0  0  0  0
    4.7036   -0.9559   -5.2818 H   0  0  0  0  0  0  0  0  0  0  0  0
    4.5684   -0.8863   -2.4088 S   0  0  0  0  0  0  0  0  0  0  0  0
   -0.2171   -0.0659   -3.1846 O   0  0  0  0  0  0  0  0  0  0  0  0
    5.2692   -1.1056   -1.1386 O   0  0  0  0  0  0  0  0  0  0  0  0
    3.8452   -1.9613   -3.0920 O   0  0  0  0  0  0  0  0  0  0  0  0
    8.3913    1.7484   -6.3521 C   0  0  0  0  0  0  0  0  0  0  0  0
    8.7294    2.7270   -5.9996 H   0  0  0  0  0  0  0  0  0  0  0  0
    9.2837    1.1245   -6.4843 H   0  0  0  0  0  0  0  0  0  0  0  0
    7.9350    1.8786   -7.3372 H   0  0  0  0  0  0  0  0  0  0  0  0
   -1.3778    3.9248   -1.3299 H   0  0  0  0  0  0  0  0  0  0  0  0
  1  7  1  0  0  0  0
  2  1  1  0  0  0  0
  2  8  1  0  0  0  0
  3  2  2  0  0  0  0
  4  5  2  0  0  0  0
  4  3  1  0  0  0  0
  5  6  1  0  0  0  0
  6 31  1  0  0  0  0
  6  1  2  0  0  0  0
  9 24  1  0  0  0  0
 10  5  1  0  0  0  0
 11  3  1  0  0  0  0
 11 12  1  0  0  0  0
 13 19  1  0  0  0  0
 14 20  1  0  0  0  0
 14 13  2  0  0  0  0
 15 14  1  0  0  0  0
 16 15  2  0  0  0  0
 16 17  1  0  0  0  0
 17 18  2  0  0  0  0
 18 13  1  0  0  0  0
 18 23  1  0  0  0  0
 21 16  1  0  0  0  0
 22 17  1  0  0  0  0
 23 12  1  0  0  0  0
 23 25  2  0  0  0  0
 24  4  1  0  0  0  0
 26 23  2  0  0  0  0
 27 28  1  0  0  0  0
 27 15  1  0  0  0  0
 29 27  1  0  0  0  0
 30 27  1  0  0  0  0
M  RAD  2  11   2  12   2
M  END
