Coordinates from ORCA-job Ph-N2-X-OTs-B3LYPG-6-31G_dp-scan-d09-49-n400
 OpenBabel08281821363D

 31 32  0  0  0  0  0  0  0  0999 V2000
    0.4294    3.6180   -2.5070 C   0  0  0  0  0  0  0  0  0  0  0  0
    1.3271    2.6470   -2.9597 C   0  0  0  0  0  0  0  0  0  0  0  0
    1.2141    1.3415   -2.4959 C   0  0  0  0  0  0  0  0  0  0  0  0
    0.2311    0.9876   -1.5629 C   0  0  0  0  0  0  0  0  0  0  0  0
   -0.6579    1.9618   -1.1068 C   0  0  0  0  0  0  0  0  0  0  0  0
   -0.5592    3.2711   -1.5861 C   0  0  0  0  0  0  0  0  0  0  0  0
    0.5057    4.6365   -2.8731 H   0  0  0  0  0  0  0  0  0  0  0  0
    2.1026    2.8883   -3.6799 H   0  0  0  0  0  0  0  0  0  0  0  0
   -0.4776   -0.4690   -0.5396 H   0  0  0  0  0  0  0  0  0  0  0  0
   -1.4165    1.6979   -0.3732 H   0  0  0  0  0  0  0  0  0  0  0  0
    2.0345    0.2685   -2.9968 N   0  0  0  0  0  0  0  0  0  0  0  0
    3.1761    0.2782   -2.5409 N   0  0  0  0  0  0  0  0  0  0  0  0
    6.5252    0.2295   -3.0859 C   0  0  0  0  0  0  0  0  0  0  0  0
    7.5730    0.9556   -3.6464 C   0  0  0  0  0  0  0  0  0  0  0  0
    7.6201    1.2162   -5.0248 C   0  0  0  0  0  0  0  0  0  0  0  0
    6.5831    0.7317   -5.8356 C   0  0  0  0  0  0  0  0  0  0  0  0
    5.5240    0.0061   -5.2940 C   0  0  0  0  0  0  0  0  0  0  0  0
    5.5071   -0.2390   -3.9197 C   0  0  0  0  0  0  0  0  0  0  0  0
    6.4968    0.0144   -2.0233 H   0  0  0  0  0  0  0  0  0  0  0  0
    8.3695    1.3234   -3.0050 H   0  0  0  0  0  0  0  0  0  0  0  0
    6.6064    0.9243   -6.9050 H   0  0  0  0  0  0  0  0  0  0  0  0
    4.7250   -0.3777   -5.9192 H   0  0  0  0  0  0  0  0  0  0  0  0
    4.1424   -1.1464   -3.2090 S   0  0  0  0  0  0  0  0  0  0  0  0
    0.2614   -0.3049   -1.1401 O   0  0  0  0  0  0  0  0  0  0  0  0
    4.5995   -1.8398   -2.0003 O   0  0  0  0  0  0  0  0  0  0  0  0
    3.4129   -1.8318   -4.2786 O   0  0  0  0  0  0  0  0  0  0  0  0
    8.7783    1.9755   -5.6251 C   0  0  0  0  0  0  0  0  0  0  0  0
    9.1674    2.7275   -4.9321 H   0  0  0  0  0  0  0  0  0  0  0  0
    9.6053    1.2966   -5.8669 H   0  0  0  0  0  0  0  0  0  0  0  0
    8.4899    2.4806   -6.5511 H   0  0  0  0  0  0  0  0  0  0  0  0
   -1.2573    4.0216   -1.2281 H   0  0  0  0  0  0  0  0  0  0  0  0
  1  6  1  0  0  0  0
  2  1  2  0  0  0  0
  2  3  1  0  0  0  0
  3  4  2  0  0  0  0
  4 24  1  0  0  0  0
  4  5  1  0  0  0  0
  5 10  1  0  0  0  0
  6 31  1  0  0  0  0
  6  5  2  0  0  0  0
  7  1  1  0  0  0  0
  8  2  1  0  0  0  0
 11 12  1  0  0  0  0
 11  3  1  0  0  0  0
 13 19  1  0  0  0  0
 14 13  1  0  0  0  0
 14 20  1  0  0  0  0
 15 14  2  0  0  0  0
 16 17  2  0  0  0  0
 16 15  1  0  0  0  0
 17 18  1  0  0  0  0
 18 23  1  0  0  0  0
 18 13  2  0  0  0  0
 21 16  1  0  0  0  0
 22 17  1  0  0  0  0
 23 12  1  0  0  0  0
 23 25  2  0  0  0  0
 24  9  1  0  0  0  0
 26 23  2  0  0  0  0
 27 15  1  0  0  0  0
 27 28  1  0  0  0  0
 29 27  1  0  0  0  0
 30 27  1  0  0  0  0
M  RAD  2  11   2  12   2
M  END
