Coordinates from ORCA-job Ph-N2-X-OTs-B3LYPG-6-31G_dp-scan-d09-49-n400
 OpenBabel08281821363D

 31 32  0  0  0  0  0  0  0  0999 V2000
    0.8347    3.3202   -1.1773 C   0  0  0  0  0  0  0  0  0  0  0  0
    1.6793    2.2781   -1.5057 C   0  0  0  0  0  0  0  0  0  0  0  0
    1.2963    1.0989   -2.1897 C   0  0  0  0  0  0  0  0  0  0  0  0
   -0.1291    0.9876   -2.5681 C   0  0  0  0  0  0  0  0  0  0  0  0
   -0.9429    2.0848   -2.2085 C   0  0  0  0  0  0  0  0  0  0  0  0
   -0.5072    3.2168   -1.5405 C   0  0  0  0  0  0  0  0  0  0  0  0
    1.2112    4.1896   -0.6486 H   0  0  0  0  0  0  0  0  0  0  0  0
    2.7262    2.3318   -1.2277 H   0  0  0  0  0  0  0  0  0  0  0  0
   -1.7613    0.2941   -3.2877 H   0  0  0  0  0  0  0  0  0  0  0  0
   -1.9961    2.0288   -2.4803 H   0  0  0  0  0  0  0  0  0  0  0  0
    2.3808    0.1453   -2.4114 N   0  0  0  0  0  0  0  0  0  0  0  0
    3.5531    0.4584   -2.0241 N   0  0  0  0  0  0  0  0  0  0  0  0
    6.7617    0.7602   -3.0593 C   0  0  0  0  0  0  0  0  0  0  0  0
    7.5886    1.3883   -3.9868 C   0  0  0  0  0  0  0  0  0  0  0  0
    7.4452    1.1540   -5.3631 C   0  0  0  0  0  0  0  0  0  0  0  0
    6.4436    0.2710   -5.7929 C   0  0  0  0  0  0  0  0  0  0  0  0
    5.6037   -0.3647   -4.8815 C   0  0  0  0  0  0  0  0  0  0  0  0
    5.7728   -0.1131   -3.5187 C   0  0  0  0  0  0  0  0  0  0  0  0
    6.8832    0.9286   -1.9945 H   0  0  0  0  0  0  0  0  0  0  0  0
    8.3614    2.0684   -3.6380 H   0  0  0  0  0  0  0  0  0  0  0  0
    6.3223    0.0765   -6.8554 H   0  0  0  0  0  0  0  0  0  0  0  0
    4.8335   -1.0543   -5.2098 H   0  0  0  0  0  0  0  0  0  0  0  0
    4.6911   -0.9113   -2.3415 S   0  0  0  0  0  0  0  0  0  0  0  0
   -0.8489   -0.0140   -3.2324 O   0  0  0  0  0  0  0  0  0  0  0  0
    5.3938   -1.0537   -1.0628 O   0  0  0  0  0  0  0  0  0  0  0  0
    4.0275   -2.0406   -2.9937 O   0  0  0  0  0  0  0  0  0  0  0  0
    8.3709    1.8133   -6.3568 C   0  0  0  0  0  0  0  0  0  0  0  0
    8.6739    2.8094   -6.0220 H   0  0  0  0  0  0  0  0  0  0  0  0
    9.2855    1.2225   -6.4889 H   0  0  0  0  0  0  0  0  0  0  0  0
    7.9005    1.9106   -7.3392 H   0  0  0  0  0  0  0  0  0  0  0  0
   -1.2159    4.0054   -1.3053 H   0  0  0  0  0  0  0  0  0  0  0  0
  1  7  1  0  0  0  0
  2  8  1  0  0  0  0
  2  1  1  0  0  0  0
  3  2  2  0  0  0  0
  4  5  2  0  0  0  0
  4  3  1  0  0  0  0
  5  6  1  0  0  0  0
  6 31  1  0  0  0  0
  6  1  2  0  0  0  0
  9 24  1  0  0  0  0
 10  5  1  0  0  0  0
 11  3  1  0  0  0  0
 11 12  1  0  0  0  0
 13 19  1  0  0  0  0
 14 20  1  0  0  0  0
 14 13  2  0  0  0  0
 15 14  1  0  0  0  0
 16 15  2  0  0  0  0
 16 17  1  0  0  0  0
 17 18  2  0  0  0  0
 18 13  1  0  0  0  0
 18 23  1  0  0  0  0
 21 16  1  0  0  0  0
 22 17  1  0  0  0  0
 23 12  1  0  0  0  0
 23 25  2  0  0  0  0
 24  4  1  0  0  0  0
 26 23  2  0  0  0  0
 27 28  1  0  0  0  0
 27 15  1  0  0  0  0
 29 27  1  0  0  0  0
 30 27  1  0  0  0  0
M  RAD  2  11   2  12   2
M  END
