Coordinates from ORCA-job Ph-N2-X-OTs-B3LYPG-6-31G_dp-scan-d09-49-n400
 OpenBabel08281821363D

 31 32  0  0  0  0  0  0  0  0999 V2000
   -0.9826    2.4779   -2.9865 C   0  0  0  0  0  0  0  0  0  0  0  0
    0.0718    1.6651   -3.3697 C   0  0  0  0  0  0  0  0  0  0  0  0
    1.1326    1.2905   -2.5098 C   0  0  0  0  0  0  0  0  0  0  0  0
    1.0850    1.7824   -1.1594 C   0  0  0  0  0  0  0  0  0  0  0  0
    0.0037    2.6015   -0.7924 C   0  0  0  0  0  0  0  0  0  0  0  0
   -1.0109    2.9510   -1.6744 C   0  0  0  0  0  0  0  0  0  0  0  0
   -1.7651    2.7349   -3.6920 H   0  0  0  0  0  0  0  0  0  0  0  0
    0.1335    1.2686   -4.3768 H   0  0  0  0  0  0  0  0  0  0  0  0
    1.7511    1.9278    0.6166 H   0  0  0  0  0  0  0  0  0  0  0  0
   -0.0268    2.9731    0.2304 H   0  0  0  0  0  0  0  0  0  0  0  0
    2.0227    0.4652   -3.2617 N   0  0  0  0  0  0  0  0  0  0  0  0
    3.1000    0.0025   -2.8634 N   0  0  0  0  0  0  0  0  0  0  0  0
    6.4053   -0.4084   -3.4069 C   0  0  0  0  0  0  0  0  0  0  0  0
    7.6194    0.2594   -3.5463 C   0  0  0  0  0  0  0  0  0  0  0  0
    7.8512    1.1266   -4.6248 C   0  0  0  0  0  0  0  0  0  0  0  0
    6.8281    1.3148   -5.5658 C   0  0  0  0  0  0  0  0  0  0  0  0
    5.6048    0.6600   -5.4412 C   0  0  0  0  0  0  0  0  0  0  0  0
    5.4058   -0.2000   -4.3598 C   0  0  0  0  0  0  0  0  0  0  0  0
    6.2323   -1.0897   -2.5810 H   0  0  0  0  0  0  0  0  0  0  0  0
    8.4020    0.1019   -2.8082 H   0  0  0  0  0  0  0  0  0  0  0  0
    6.9930    1.9813   -6.4085 H   0  0  0  0  0  0  0  0  0  0  0  0
    4.8143    0.7985   -6.1712 H   0  0  0  0  0  0  0  0  0  0  0  0
    3.8357   -1.0344   -4.1795 S   0  0  0  0  0  0  0  0  0  0  0  0
    2.0146    1.5026   -0.2096 O   0  0  0  0  0  0  0  0  0  0  0  0
    4.0541   -2.3271   -3.5200 O   0  0  0  0  0  0  0  0  0  0  0  0
    3.0888   -0.9213   -5.4365 O   0  0  0  0  0  0  0  0  0  0  0  0
    9.1838    1.8177   -4.7859 C   0  0  0  0  0  0  0  0  0  0  0  0
    9.6545    2.0101   -3.8176 H   0  0  0  0  0  0  0  0  0  0  0  0
    9.8771    1.1982   -5.3688 H   0  0  0  0  0  0  0  0  0  0  0  0
    9.0801    2.7717   -5.3106 H   0  0  0  0  0  0  0  0  0  0  0  0
   -1.8204    3.5886   -1.3308 H   0  0  0  0  0  0  0  0  0  0  0  0
  1  6  1  0  0  0  0
  2  1  2  0  0  0  0
  2  3  1  0  0  0  0
  3  4  2  0  0  0  0
  4  5  1  0  0  0  0
  4 24  1  0  0  0  0
  5 10  1  0  0  0  0
  6 31  1  0  0  0  0
  6  5  2  0  0  0  0
  7  1  1  0  0  0  0
  8  2  1  0  0  0  0
 11 12  1  0  0  0  0
 11  3  1  0  0  0  0
 13 19  1  0  0  0  0
 14 13  1  0  0  0  0
 14 20  1  0  0  0  0
 15 14  2  0  0  0  0
 16 17  2  0  0  0  0
 16 15  1  0  0  0  0
 17 18  1  0  0  0  0
 18 23  1  0  0  0  0
 18 13  2  0  0  0  0
 21 16  1  0  0  0  0
 22 17  1  0  0  0  0
 23 25  2  0  0  0  0
 23 12  1  0  0  0  0
 24  9  1  0  0  0  0
 26 23  2  0  0  0  0
 27 15  1  0  0  0  0
 27 28  1  0  0  0  0
 29 27  1  0  0  0  0
 30 27  1  0  0  0  0
M  RAD  2  11   2  12   2
M  END
