Coordinates from ORCA-job Ph-N2-X-OTs-B3LYPG-6-31G_dp-scan-d09-49-n400
 OpenBabel08281821363D

 31 30  0  0  0  0  0  0  0  0999 V2000
   -0.1827    0.5383   -3.6217 C   0  0  0  0  0  0  0  0  0  0  0  0
    1.0943    0.4590   -3.0721 C   0  0  0  0  0  0  0  0  0  0  0  0
    1.4895    1.4874   -2.2149 C   0  0  0  0  0  0  0  0  0  0  0  0
    0.6757    2.5846   -1.8864 C   0  0  0  0  0  0  0  0  0  0  0  0
   -0.5975    2.6232   -2.4457 C   0  0  0  0  0  0  0  0  0  0  0  0
   -1.0265    1.6078   -3.3066 C   0  0  0  0  0  0  0  0  0  0  0  0
   -0.5171   -0.2438   -4.2955 H   0  0  0  0  0  0  0  0  0  0  0  0
    1.7571   -0.3655   -3.3107 H   0  0  0  0  0  0  0  0  0  0  0  0
    1.0858    3.3592   -1.2334 H   0  0  0  0  0  0  0  0  0  0  0  0
   -1.2544    3.4548   -2.2101 H   0  0  0  0  0  0  0  0  0  0  0  0
    2.7832    1.4934   -1.6227 N   0  0  0  0  0  0  0  0  0  0  0  0
    3.5254    2.1030   -1.0080 N   0  0  0  0  0  0  0  0  0  0  0  0
    5.6935   -0.3316   -4.8912 C   0  0  0  0  0  0  0  0  0  0  0  0
    6.7038    0.4635   -5.4330 C   0  0  0  0  0  0  0  0  0  0  0  0
    7.5029    1.2772   -4.6183 C   0  0  0  0  0  0  0  0  0  0  0  0
    7.2678    1.2762   -3.2330 C   0  0  0  0  0  0  0  0  0  0  0  0
    6.2652    0.4900   -2.6731 C   0  0  0  0  0  0  0  0  0  0  0  0
    5.4720   -0.2939   -3.5156 C   0  0  0  0  0  0  0  0  0  0  0  0
    5.0723   -0.9619   -5.5187 H   0  0  0  0  0  0  0  0  0  0  0  0
    6.8747    0.4497   -6.5065 H   0  0  0  0  0  0  0  0  0  0  0  0
    7.8773    1.9020   -2.5864 H   0  0  0  0  0  0  0  0  0  0  0  0
    6.0850    0.4990   -1.6032 H   0  0  0  0  0  0  0  0  0  0  0  0
    4.2165   -1.3915   -2.7937 S   0  0  0  0  0  0  0  0  0  0  0  0
    2.7510    4.1963   -0.4804 O   0  0  0  0  0  0  0  0  0  0  0  0
    3.3120   -1.7854   -3.9255 O   0  0  0  0  0  0  0  0  0  0  0  0
    3.5747   -0.5717   -1.6656 O   0  0  0  0  0  0  0  0  0  0  0  0
    8.5801    2.1525   -5.2109 C   0  0  0  0  0  0  0  0  0  0  0  0
    8.8448    1.8337   -6.2224 H   0  0  0  0  0  0  0  0  0  0  0  0
    8.2473    3.1962   -5.2699 H   0  0  0  0  0  0  0  0  0  0  0  0
    9.4881    2.1383   -4.5997 H   0  0  0  0  0  0  0  0  0  0  0  0
   -2.0225    1.6512   -3.7371 H   0  0  0  0  0  0  0  0  0  0  0  0
  1  6  2  0  0  0  0
  1  2  1  0  0  0  0
  2  3  2  0  0  0  0
  3  4  1  0  0  0  0
  3 11  1  0  0  0  0
  4  9  1  0  0  0  0
  5 10  1  0  0  0  0
  5  4  2  0  0  0  0
  6  5  1  0  0  0  0
  7  1  1  0  0  0  0
  8  2  1  0  0  0  0
 11 12  2  0  0  0  0
 13 18  1  0  0  0  0
 14 13  2  0  0  0  0
 14 15  1  0  0  0  0
 15 16  2  0  0  0  0
 16 17  1  0  0  0  0
 16 21  1  0  0  0  0
 17 22  1  0  0  0  0
 18 23  1  0  0  0  0
 18 17  2  0  0  0  0
 19 13  1  0  0  0  0
 20 14  1  0  0  0  0
 23 26  1  0  0  0  0
 25 23  1  0  0  0  0
 27 15  1  0  0  0  0
 27 30  1  0  0  0  0
 28 27  1  0  0  0  0
 29 27  1  0  0  0  0
 31  6  1  0  0  0  0
M  RAD  4  12   2  24   3  25   2  26   2
M  END
