Coordinates from ORCA-job Ph-N2-X-OTs-B3LYPG-6-31G_dp-scan-d09-49-n400
 OpenBabel08281821363D

 31 32  0  0  0  0  0  0  0  0999 V2000
    0.8431    3.3010   -1.1882 C   0  0  0  0  0  0  0  0  0  0  0  0
    1.6670    2.2452   -1.5261 C   0  0  0  0  0  0  0  0  0  0  0  0
    1.2769    1.0672   -2.2073 C   0  0  0  0  0  0  0  0  0  0  0  0
   -0.1734    0.9725   -2.5807 C   0  0  0  0  0  0  0  0  0  0  0  0
   -0.9534    2.0900   -2.2067 C   0  0  0  0  0  0  0  0  0  0  0  0
   -0.5001    3.2168   -1.5411 C   0  0  0  0  0  0  0  0  0  0  0  0
    1.2391    4.1630   -0.6618 H   0  0  0  0  0  0  0  0  0  0  0  0
    2.7162    2.2885   -1.2544 H   0  0  0  0  0  0  0  0  0  0  0  0
   -1.8668    0.3686   -3.2571 H   0  0  0  0  0  0  0  0  0  0  0  0
   -2.0105    2.0591   -2.4676 H   0  0  0  0  0  0  0  0  0  0  0  0
    2.3988    0.1260   -2.4132 N   0  0  0  0  0  0  0  0  0  0  0  0
    3.5720    0.4522   -2.0173 N   0  0  0  0  0  0  0  0  0  0  0  0
    6.7779    0.7684   -3.0568 C   0  0  0  0  0  0  0  0  0  0  0  0
    7.5991    1.3984   -3.9881 C   0  0  0  0  0  0  0  0  0  0  0  0
    7.4540    1.1588   -5.3634 C   0  0  0  0  0  0  0  0  0  0  0  0
    6.4566    0.2684   -5.7882 C   0  0  0  0  0  0  0  0  0  0  0  0
    5.6226   -0.3693   -4.8729 C   0  0  0  0  0  0  0  0  0  0  0  0
    5.7933   -0.1122   -3.5113 C   0  0  0  0  0  0  0  0  0  0  0  0
    6.9006    0.9411   -1.9929 H   0  0  0  0  0  0  0  0  0  0  0  0
    8.3686    2.0842   -3.6433 H   0  0  0  0  0  0  0  0  0  0  0  0
    6.3340    0.0700   -6.8497 H   0  0  0  0  0  0  0  0  0  0  0  0
    4.8557   -1.0644   -5.1974 H   0  0  0  0  0  0  0  0  0  0  0  0
    4.7191   -0.9127   -2.3293 S   0  0  0  0  0  0  0  0  0  0  0  0
   -0.9742    0.0040   -3.2419 O   0  0  0  0  0  0  0  0  0  0  0  0
    5.4224   -1.0421   -1.0498 O   0  0  0  0  0  0  0  0  0  0  0  0
    4.0630   -2.0500   -2.9746 O   0  0  0  0  0  0  0  0  0  0  0  0
    8.3735    1.8203   -6.3613 C   0  0  0  0  0  0  0  0  0  0  0  0
    8.6781    2.8158   -6.0266 H   0  0  0  0  0  0  0  0  0  0  0  0
    9.2874    1.2299   -6.5000 H   0  0  0  0  0  0  0  0  0  0  0  0
    7.8972    1.9190   -7.3408 H   0  0  0  0  0  0  0  0  0  0  0  0
   -1.1986    4.0132   -1.3020 H   0  0  0  0  0  0  0  0  0  0  0  0
  1  7  1  0  0  0  0
  2  8  1  0  0  0  0
  2  1  2  0  0  0  0
  3  2  1  0  0  0  0
  4  3  2  0  0  0  0
  4  5  1  0  0  0  0
  5  6  2  0  0  0  0
  6 31  1  0  0  0  0
  6  1  1  0  0  0  0
  9 24  1  0  0  0  0
 10  5  1  0  0  0  0
 11  3  1  0  0  0  0
 11 12  1  0  0  0  0
 13 19  1  0  0  0  0
 14 20  1  0  0  0  0
 14 13  2  0  0  0  0
 15 14  1  0  0  0  0
 16 15  2  0  0  0  0
 16 17  1  0  0  0  0
 17 18  2  0  0  0  0
 18 13  1  0  0  0  0
 18 23  1  0  0  0  0
 21 16  1  0  0  0  0
 22 17  1  0  0  0  0
 23 12  1  0  0  0  0
 23 25  2  0  0  0  0
 24  4  1  0  0  0  0
 26 23  2  0  0  0  0
 27 28  1  0  0  0  0
 27 15  1  0  0  0  0
 29 27  1  0  0  0  0
 30 27  1  0  0  0  0
M  RAD  2  11   2  12   2
M  END
