Coordinates from ORCA-job Ph-N2-X-OTs-B3LYPG-6-31G_dp-scan-d09-49-n400
 OpenBabel08281821363D

 31 32  0  0  0  0  0  0  0  0999 V2000
    0.6769    3.4004   -1.0362 C   0  0  0  0  0  0  0  0  0  0  0  0
    1.6720    2.4704   -1.2986 C   0  0  0  0  0  0  0  0  0  0  0  0
    1.3877    1.3152   -2.0462 C   0  0  0  0  0  0  0  0  0  0  0  0
    0.0820    1.0971   -2.5352 C   0  0  0  0  0  0  0  0  0  0  0  0
   -0.9177    2.0432   -2.2681 C   0  0  0  0  0  0  0  0  0  0  0  0
   -0.6191    3.1807   -1.5251 C   0  0  0  0  0  0  0  0  0  0  0  0
    0.8973    4.2883   -0.4527 H   0  0  0  0  0  0  0  0  0  0  0  0
    2.6825    2.6013   -0.9274 H   0  0  0  0  0  0  0  0  0  0  0  0
   -1.0689   -0.0648   -3.5090 H   0  0  0  0  0  0  0  0  0  0  0  0
   -1.9245    1.8797   -2.6450 H   0  0  0  0  0  0  0  0  0  0  0  0
    2.3241    0.2999   -2.3430 N   0  0  0  0  0  0  0  0  0  0  0  0
    3.5015    0.5532   -2.0462 N   0  0  0  0  0  0  0  0  0  0  0  0
    6.7267    0.7021   -3.0914 C   0  0  0  0  0  0  0  0  0  0  0  0
    7.5830    1.3018   -4.0109 C   0  0  0  0  0  0  0  0  0  0  0  0
    7.4233    1.0993   -5.3905 C   0  0  0  0  0  0  0  0  0  0  0  0
    6.3753    0.2781   -5.8313 C   0  0  0  0  0  0  0  0  0  0  0  0
    5.5056   -0.3281   -4.9272 C   0  0  0  0  0  0  0  0  0  0  0  0
    5.6914   -0.1097   -3.5611 C   0  0  0  0  0  0  0  0  0  0  0  0
    6.8601    0.8451   -2.0243 H   0  0  0  0  0  0  0  0  0  0  0  0
    8.3919    1.9336   -3.6534 H   0  0  0  0  0  0  0  0  0  0  0  0
    6.2409    0.1086   -6.8965 H   0  0  0  0  0  0  0  0  0  0  0  0
    4.6990   -0.9703   -5.2643 H   0  0  0  0  0  0  0  0  0  0  0  0
    4.5730   -0.8694   -2.3917 S   0  0  0  0  0  0  0  0  0  0  0  0
   -0.1366   -0.0231   -3.2570 O   0  0  0  0  0  0  0  0  0  0  0  0
    5.2791   -1.0768   -1.1224 O   0  0  0  0  0  0  0  0  0  0  0  0
    3.8466   -1.9508   -3.0615 O   0  0  0  0  0  0  0  0  0  0  0  0
    8.3801    1.7265   -6.3757 C   0  0  0  0  0  0  0  0  0  0  0  0
    8.7163    2.7102   -6.0360 H   0  0  0  0  0  0  0  0  0  0  0  0
    9.2739    1.1035   -6.5023 H   0  0  0  0  0  0  0  0  0  0  0  0
    7.9212    1.8434   -7.3613 H   0  0  0  0  0  0  0  0  0  0  0  0
   -1.4050    3.9022   -1.3207 H   0  0  0  0  0  0  0  0  0  0  0  0
  1  7  1  0  0  0  0
  2  1  1  0  0  0  0
  2  8  1  0  0  0  0
  3  2  2  0  0  0  0
  4  5  2  0  0  0  0
  4  3  1  0  0  0  0
  5  6  1  0  0  0  0
  6 31  1  0  0  0  0
  6  1  2  0  0  0  0
  9 24  1  0  0  0  0
 10  5  1  0  0  0  0
 11  3  1  0  0  0  0
 11 12  1  0  0  0  0
 13 19  1  0  0  0  0
 14 20  1  0  0  0  0
 14 13  2  0  0  0  0
 15 14  1  0  0  0  0
 16 15  2  0  0  0  0
 16 17  1  0  0  0  0
 17 18  2  0  0  0  0
 18 13  1  0  0  0  0
 18 23  1  0  0  0  0
 21 16  1  0  0  0  0
 22 17  1  0  0  0  0
 23 12  1  0  0  0  0
 23 25  2  0  0  0  0
 24  4  1  0  0  0  0
 26 23  2  0  0  0  0
 27 28  1  0  0  0  0
 27 15  1  0  0  0  0
 29 27  1  0  0  0  0
 30 27  1  0  0  0  0
M  RAD  2  11   2  12   2
M  END
