Coordinates from ORCA-job Ph-N2-X-OTs-B3LYPG-6-31G_dp-scan-d09-49-n400
 OpenBabel08281821363D

 31 30  0  0  0  0  0  0  0  0999 V2000
    0.0447    0.6056   -3.7423 C   0  0  0  0  0  0  0  0  0  0  0  0
    1.2340    0.4621   -3.0331 C   0  0  0  0  0  0  0  0  0  0  0  0
    1.5502    1.4631   -2.1118 C   0  0  0  0  0  0  0  0  0  0  0  0
    0.7477    2.5917   -1.8683 C   0  0  0  0  0  0  0  0  0  0  0  0
   -0.4348    2.6937   -2.5931 C   0  0  0  0  0  0  0  0  0  0  0  0
   -0.7866    1.7087   -3.5223 C   0  0  0  0  0  0  0  0  0  0  0  0
   -0.2300   -0.1531   -4.4675 H   0  0  0  0  0  0  0  0  0  0  0  0
    1.8861   -0.3897   -3.1961 H   0  0  0  0  0  0  0  0  0  0  0  0
    1.0782    3.3460   -1.1412 H   0  0  0  0  0  0  0  0  0  0  0  0
   -1.0817    3.5500   -2.4303 H   0  0  0  0  0  0  0  0  0  0  0  0
    2.7403    1.4151   -1.3423 N   0  0  0  0  0  0  0  0  0  0  0  0
    3.4260    1.8983   -0.5858 N   0  0  0  0  0  0  0  0  0  0  0  0
    5.6334   -0.3943   -4.8712 C   0  0  0  0  0  0  0  0  0  0  0  0
    6.5942    0.4308   -5.4564 C   0  0  0  0  0  0  0  0  0  0  0  0
    7.3925    1.2815   -4.6787 C   0  0  0  0  0  0  0  0  0  0  0  0
    7.2068    1.2862   -3.2866 C   0  0  0  0  0  0  0  0  0  0  0  0
    6.2518    0.4704   -2.6849 C   0  0  0  0  0  0  0  0  0  0  0  0
    5.4585   -0.3520   -3.4889 C   0  0  0  0  0  0  0  0  0  0  0  0
    5.0128   -1.0524   -5.4702 H   0  0  0  0  0  0  0  0  0  0  0  0
    6.7275    0.4124   -6.5355 H   0  0  0  0  0  0  0  0  0  0  0  0
    7.8185    1.9375   -2.6674 H   0  0  0  0  0  0  0  0  0  0  0  0
    6.1117    0.4800   -1.6087 H   0  0  0  0  0  0  0  0  0  0  0  0
    4.2688   -1.4890   -2.7048 S   0  0  0  0  0  0  0  0  0  0  0  0
    2.2780    4.3662    0.0023 O   0  0  0  0  0  0  0  0  0  0  0  0
    3.3239   -1.8976   -3.8036 O   0  0  0  0  0  0  0  0  0  0  0  0
    3.6461   -0.6734   -1.5668 O   0  0  0  0  0  0  0  0  0  0  0  0
    8.4149    2.1890   -5.3192 C   0  0  0  0  0  0  0  0  0  0  0  0
    8.6949    1.8374   -6.3156 H   0  0  0  0  0  0  0  0  0  0  0  0
    8.0212    3.2071   -5.4286 H   0  0  0  0  0  0  0  0  0  0  0  0
    9.3238    2.2582   -4.7137 H   0  0  0  0  0  0  0  0  0  0  0  0
   -1.7142    1.8014   -4.0794 H   0  0  0  0  0  0  0  0  0  0  0  0
  1  6  2  0  0  0  0
  1  2  1  0  0  0  0
  2  3  2  0  0  0  0
  3  4  1  0  0  0  0
  3 11  1  0  0  0  0
  4  9  1  0  0  0  0
  5 10  1  0  0  0  0
  5  4  2  0  0  0  0
  6  5  1  0  0  0  0
  7  1  1  0  0  0  0
  8  2  1  0  0  0  0
 11 12  2  0  0  0  0
 13 18  1  0  0  0  0
 14 13  2  0  0  0  0
 14 15  1  0  0  0  0
 15 16  2  0  0  0  0
 16 17  1  0  0  0  0
 16 21  1  0  0  0  0
 17 22  1  0  0  0  0
 18 23  1  0  0  0  0
 18 17  2  0  0  0  0
 19 13  1  0  0  0  0
 20 14  1  0  0  0  0
 23 26  1  0  0  0  0
 25 23  1  0  0  0  0
 27 30  1  0  0  0  0
 27 15  1  0  0  0  0
 28 27  1  0  0  0  0
 29 27  1  0  0  0  0
 31  6  1  0  0  0  0
M  RAD  4  12   2  24   3  25   2  26   2
M  END
