Coordinates from ORCA-job Ph-N2-X-OTs-B3LYPG-6-31G_dp-scan-d09-49-n400
 OpenBabel08281821363D

 31 31  0  0  0  0  0  0  0  0999 V2000
   -0.6529    0.2449   -2.4146 C   0  0  0  0  0  0  0  0  0  0  0  0
    0.6870    0.1325   -2.0578 C   0  0  0  0  0  0  0  0  0  0  0  0
    1.5607    1.1787   -2.3814 C   0  0  0  0  0  0  0  0  0  0  0  0
    1.1252    2.3238   -3.0567 C   0  0  0  0  0  0  0  0  0  0  0  0
   -0.2183    2.4024   -3.4199 C   0  0  0  0  0  0  0  0  0  0  0  0
   -1.1077    1.3755   -3.0994 C   0  0  0  0  0  0  0  0  0  0  0  0
   -1.3405   -0.5553   -2.1599 H   0  0  0  0  0  0  0  0  0  0  0  0
    1.0515   -0.7420   -1.5365 H   0  0  0  0  0  0  0  0  0  0  0  0
    1.8427    3.1148   -3.2345 H   0  0  0  0  0  0  0  0  0  0  0  0
   -0.5699    3.2814   -3.9514 H   0  0  0  0  0  0  0  0  0  0  0  0
    2.9499    1.0536   -2.0017 N   0  0  0  0  0  0  0  0  0  0  0  0
    3.8620    1.8658   -1.7793 N   0  0  0  0  0  0  0  0  0  0  0  0
    5.3004    0.6431   -4.8180 C   0  0  0  0  0  0  0  0  0  0  0  0
    6.3891    1.4407   -5.1553 C   0  0  0  0  0  0  0  0  0  0  0  0
    7.5220    1.5094   -4.3283 C   0  0  0  0  0  0  0  0  0  0  0  0
    7.5400    0.7534   -3.1463 C   0  0  0  0  0  0  0  0  0  0  0  0
    6.4600   -0.0493   -2.7907 C   0  0  0  0  0  0  0  0  0  0  0  0
    5.3439   -0.0895   -3.6302 C   0  0  0  0  0  0  0  0  0  0  0  0
    4.4227    0.5778   -5.4528 H   0  0  0  0  0  0  0  0  0  0  0  0
    6.3612    2.0215   -6.0731 H   0  0  0  0  0  0  0  0  0  0  0  0
    8.4078    0.8022   -2.4945 H   0  0  0  0  0  0  0  0  0  0  0  0
    6.4777   -0.6154   -1.8638 H   0  0  0  0  0  0  0  0  0  0  0  0
    3.9857   -1.1876   -3.2182 S   0  0  2  0  0  0  0  0  0  0  0  0
    3.3124    3.5944   -1.9545 O   0  0  0  0  0  0  0  0  0  0  0  0
    3.0141   -1.0983   -4.3390 O   0  0  0  0  0  0  0  0  0  0  0  0
    3.3509   -0.2995   -1.7832 O   0  0  0  0  0  0  0  0  0  0  0  0
    8.6985    2.3705   -4.7163 C   0  0  0  0  0  0  0  0  0  0  0  0
    9.2201    1.9530   -5.5857 H   0  0  0  0  0  0  0  0  0  0  0  0
    8.3752    3.3804   -4.9874 H   0  0  0  0  0  0  0  0  0  0  0  0
    9.4217    2.4538   -3.9007 H   0  0  0  0  0  0  0  0  0  0  0  0
   -2.1537    1.4540   -3.3808 H   0  0  0  0  0  0  0  0  0  0  0  0
  1  7  1  0  0  0  0
  1  2  2  0  0  0  0
  2  8  1  0  0  0  0
  3  2  1  0  0  0  0
  3 11  1  0  0  0  0
  4  3  2  0  0  0  0
  5  6  2  0  0  0  0
  5  4  1  0  0  0  0
  6  1  1  0  0  0  0
  9  4  1  0  0  0  0
 10  5  1  0  0  0  0
 11 26  1  0  0  0  0
 11 12  1  0  0  0  0
 13 18  1  0  0  0  0
 14 13  2  0  0  0  0
 14 15  1  0  0  0  0
 15 16  2  0  0  0  0
 16 17  1  0  0  0  0
 16 21  1  0  0  0  0
 17 22  1  0  0  0  0
 18 23  1  0  0  0  0
 18 17  2  0  0  0  0
 19 13  1  0  0  0  0
 20 14  1  0  0  0  0
 23 25  1  6  0  0  0
 23 26  1  0  0  0  0
 27 15  1  0  0  0  0
 27 30  1  0  0  0  0
 28 27  1  0  0  0  0
 29 27  1  0  0  0  0
 31  6  1  0  0  0  0
M  RAD  3  12   3  24   3  25   2
M  END
