Coordinates from ORCA-job Ph-N2-X-OTs-B3LYPG-6-31G_dp-scan-d09-49-n400
 OpenBabel08281821363D

 31 32  0  0  0  0  0  0  0  0999 V2000
    0.7041    3.6438   -2.0679 C   0  0  0  0  0  0  0  0  0  0  0  0
    1.6464    2.6686   -2.3907 C   0  0  0  0  0  0  0  0  0  0  0  0
    1.2987    1.3199   -2.2992 C   0  0  0  0  0  0  0  0  0  0  0  0
    0.0282    0.9339   -1.8463 C   0  0  0  0  0  0  0  0  0  0  0  0
   -0.9093    1.9120   -1.5087 C   0  0  0  0  0  0  0  0  0  0  0  0
   -0.5678    3.2608   -1.6309 C   0  0  0  0  0  0  0  0  0  0  0  0
    0.9561    4.6953   -2.1611 H   0  0  0  0  0  0  0  0  0  0  0  0
    2.6387    2.9296   -2.7426 H   0  0  0  0  0  0  0  0  0  0  0  0
   -1.0613   -0.5863   -1.4522 H   0  0  0  0  0  0  0  0  0  0  0  0
   -1.8925    1.6203   -1.1476 H   0  0  0  0  0  0  0  0  0  0  0  0
    2.1360    0.2435   -2.6929 N   0  0  0  0  0  0  0  0  0  0  0  0
    3.3107    0.3564   -2.3369 N   0  0  0  0  0  0  0  0  0  0  0  0
    6.6342    0.3702   -3.0751 C   0  0  0  0  0  0  0  0  0  0  0  0
    7.6190    1.0687   -3.7683 C   0  0  0  0  0  0  0  0  0  0  0  0
    7.5643    1.2074   -5.1642 C   0  0  0  0  0  0  0  0  0  0  0  0
    6.4907    0.6270   -5.8547 C   0  0  0  0  0  0  0  0  0  0  0  0
    5.4938   -0.0743   -5.1787 C   0  0  0  0  0  0  0  0  0  0  0  0
    5.5764   -0.1959   -3.7909 C   0  0  0  0  0  0  0  0  0  0  0  0
    6.6844    0.2489   -1.9982 H   0  0  0  0  0  0  0  0  0  0  0  0
    8.4463    1.5110   -3.2194 H   0  0  0  0  0  0  0  0  0  0  0  0
    6.4358    0.7234   -6.9361 H   0  0  0  0  0  0  0  0  0  0  0  0
    4.6674   -0.5329   -5.7112 H   0  0  0  0  0  0  0  0  0  0  0  0
    4.2951   -1.0773   -2.9096 S   0  0  0  0  0  0  0  0  0  0  0  0
   -0.1506   -0.4018   -1.7193 O   0  0  0  0  0  0  0  0  0  0  0  0
    4.8570   -1.6270   -1.6712 O   0  0  0  0  0  0  0  0  0  0  0  0
    3.5441   -1.9020   -3.8597 O   0  0  0  0  0  0  0  0  0  0  0  0
    8.6554    1.9421   -5.9053 C   0  0  0  0  0  0  0  0  0  0  0  0
    9.0087    2.8092   -5.3393 H   0  0  0  0  0  0  0  0  0  0  0  0
    9.5210    1.2895   -6.0733 H   0  0  0  0  0  0  0  0  0  0  0  0
    8.3124    2.2893   -6.8833 H   0  0  0  0  0  0  0  0  0  0  0  0
   -1.3039    4.0177   -1.3773 H   0  0  0  0  0  0  0  0  0  0  0  0
  1  6  2  0  0  0  0
  2  3  2  0  0  0  0
  2  1  1  0  0  0  0
  3  4  1  0  0  0  0
  4 24  1  0  0  0  0
  4  5  2  0  0  0  0
  5 10  1  0  0  0  0
  6  5  1  0  0  0  0
  6 31  1  0  0  0  0
  7  1  1  0  0  0  0
  8  2  1  0  0  0  0
 11 12  1  0  0  0  0
 11  3  1  0  0  0  0
 13 19  1  0  0  0  0
 14 20  1  0  0  0  0
 14 13  1  0  0  0  0
 15 14  2  0  0  0  0
 16 17  2  0  0  0  0
 16 15  1  0  0  0  0
 17 18  1  0  0  0  0
 18 13  2  0  0  0  0
 18 23  1  0  0  0  0
 21 16  1  0  0  0  0
 22 17  1  0  0  0  0
 23 12  1  0  0  0  0
 23 25  2  0  0  0  0
 24  9  1  0  0  0  0
 26 23  2  0  0  0  0
 27 28  1  0  0  0  0
 27 15  1  0  0  0  0
 29 27  1  0  0  0  0
 30 27  1  0  0  0  0
M  RAD  2  11   2  12   2
M  END
