Coordinates from ORCA-job Ph-N2-X-OTs-B3LYPG-6-31G_dp-scan-d09-49-n400
 OpenBabel08281821363D

 31 30  0  0  0  0  0  0  0  0999 V2000
   -0.0774    0.5761   -3.6843 C   0  0  0  0  0  0  0  0  0  0  0  0
    1.1677    0.4831   -3.0682 C   0  0  0  0  0  0  0  0  0  0  0  0
    1.5094    1.4940   -2.1678 C   0  0  0  0  0  0  0  0  0  0  0  0
    0.6797    2.5852   -1.8577 C   0  0  0  0  0  0  0  0  0  0  0  0
   -0.5594    2.6363   -2.4873 C   0  0  0  0  0  0  0  0  0  0  0  0
   -0.9380    1.6394   -3.3928 C   0  0  0  0  0  0  0  0  0  0  0  0
   -0.3731   -0.1910   -4.3923 H   0  0  0  0  0  0  0  0  0  0  0  0
    1.8436   -0.3373   -3.2866 H   0  0  0  0  0  0  0  0  0  0  0  0
    1.0393    3.3501   -1.1575 H   0  0  0  0  0  0  0  0  0  0  0  0
   -1.2293    3.4623   -2.2696 H   0  0  0  0  0  0  0  0  0  0  0  0
    2.7624    1.4992   -1.4997 N   0  0  0  0  0  0  0  0  0  0  0  0
    3.4873    2.0481   -0.8258 N   0  0  0  0  0  0  0  0  0  0  0  0
    5.6766   -0.3627   -4.8917 C   0  0  0  0  0  0  0  0  0  0  0  0
    6.6719    0.4370   -5.4542 C   0  0  0  0  0  0  0  0  0  0  0  0
    7.4783    1.2614   -4.6573 C   0  0  0  0  0  0  0  0  0  0  0  0
    7.2650    1.2663   -3.2689 C   0  0  0  0  0  0  0  0  0  0  0  0
    6.2762    0.4757   -2.6894 C   0  0  0  0  0  0  0  0  0  0  0  0
    5.4760   -0.3203   -3.5130 C   0  0  0  0  0  0  0  0  0  0  0  0
    5.0499   -1.0011   -5.5055 H   0  0  0  0  0  0  0  0  0  0  0  0
    6.8259    0.4186   -6.5305 H   0  0  0  0  0  0  0  0  0  0  0  0
    7.8820    1.8984   -2.6352 H   0  0  0  0  0  0  0  0  0  0  0  0
    6.1144    0.4865   -1.6163 H   0  0  0  0  0  0  0  0  0  0  0  0
    4.2408   -1.4269   -2.7594 S   0  0  0  0  0  0  0  0  0  0  0  0
    2.3707    4.3571   -0.1422 O   0  0  0  0  0  0  0  0  0  0  0  0
    3.3129   -1.8151   -3.8788 O   0  0  0  0  0  0  0  0  0  0  0  0
    3.6127   -0.6004   -1.6316 O   0  0  0  0  0  0  0  0  0  0  0  0
    8.5391    2.1412   -5.2731 C   0  0  0  0  0  0  0  0  0  0  0  0
    8.8131    1.7981   -6.2741 H   0  0  0  0  0  0  0  0  0  0  0  0
    8.1853    3.1756   -5.3649 H   0  0  0  0  0  0  0  0  0  0  0  0
    9.4455    2.1640   -4.6600 H   0  0  0  0  0  0  0  0  0  0  0  0
   -1.9089    1.6920   -3.8763 H   0  0  0  0  0  0  0  0  0  0  0  0
  1  6  2  0  0  0  0
  1  2  1  0  0  0  0
  2  3  2  0  0  0  0
  3  4  1  0  0  0  0
  3 11  1  0  0  0  0
  4  9  1  0  0  0  0
  5 10  1  0  0  0  0
  5  4  2  0  0  0  0
  6  5  1  0  0  0  0
  7  1  1  0  0  0  0
  8  2  1  0  0  0  0
 11 12  2  0  0  0  0
 13 18  1  0  0  0  0
 14 13  2  0  0  0  0
 14 15  1  0  0  0  0
 15 16  2  0  0  0  0
 16 17  1  0  0  0  0
 16 21  1  0  0  0  0
 17 22  1  0  0  0  0
 18 23  1  0  0  0  0
 18 17  2  0  0  0  0
 19 13  1  0  0  0  0
 20 14  1  0  0  0  0
 23 26  1  0  0  0  0
 25 23  1  0  0  0  0
 27 30  1  0  0  0  0
 27 15  1  0  0  0  0
 28 27  1  0  0  0  0
 29 27  1  0  0  0  0
 31  6  1  0  0  0  0
M  RAD  4  12   2  24   3  25   2  26   2
M  END
