Coordinates from ORCA-job Ph-N2-X-OTs-B3LYPG-6-31G_dp-scan-d09-49-n400
 OpenBabel08281821363D

 31 32  0  0  0  0  0  0  0  0999 V2000
    0.6739    3.6493   -2.1519 C   0  0  0  0  0  0  0  0  0  0  0  0
    1.6140    2.6769   -2.4950 C   0  0  0  0  0  0  0  0  0  0  0  0
    1.2920    1.3295   -2.3401 C   0  0  0  0  0  0  0  0  0  0  0  0
    0.0584    0.9402   -1.8003 C   0  0  0  0  0  0  0  0  0  0  0  0
   -0.8750    1.9141   -1.4433 C   0  0  0  0  0  0  0  0  0  0  0  0
   -0.5644    3.2635   -1.6318 C   0  0  0  0  0  0  0  0  0  0  0  0
    0.9041    4.7003   -2.2935 H   0  0  0  0  0  0  0  0  0  0  0  0
    2.5813    2.9414   -2.9089 H   0  0  0  0  0  0  0  0  0  0  0  0
   -0.9726   -0.5897   -1.2936 H   0  0  0  0  0  0  0  0  0  0  0  0
   -1.8304    1.6203   -1.0152 H   0  0  0  0  0  0  0  0  0  0  0  0
    2.1241    0.2513   -2.7525 N   0  0  0  0  0  0  0  0  0  0  0  0
    3.2876    0.3348   -2.3579 N   0  0  0  0  0  0  0  0  0  0  0  0
    6.6197    0.3380   -3.0734 C   0  0  0  0  0  0  0  0  0  0  0  0
    7.6129    1.0444   -3.7463 C   0  0  0  0  0  0  0  0  0  0  0  0
    7.5680    1.2115   -5.1395 C   0  0  0  0  0  0  0  0  0  0  0  0
    6.4954    0.6517   -5.8483 C   0  0  0  0  0  0  0  0  0  0  0  0
    5.4900   -0.0570   -5.1930 C   0  0  0  0  0  0  0  0  0  0  0  0
    5.5634   -0.2072   -3.8073 C   0  0  0  0  0  0  0  0  0  0  0  0
    6.6621    0.1949   -1.9989 H   0  0  0  0  0  0  0  0  0  0  0  0
    8.4392    1.4707   -3.1833 H   0  0  0  0  0  0  0  0  0  0  0  0
    6.4480    0.7705   -6.9278 H   0  0  0  0  0  0  0  0  0  0  0  0
    4.6644   -0.4998   -5.7397 H   0  0  0  0  0  0  0  0  0  0  0  0
    4.2701   -1.0967   -2.9525 S   0  0  0  0  0  0  0  0  0  0  0  0
   -0.0815   -0.3948   -1.6140 O   0  0  0  0  0  0  0  0  0  0  0  0
    4.8176   -1.6724   -1.7195 O   0  0  0  0  0  0  0  0  0  0  0  0
    3.5199   -1.8973   -3.9235 O   0  0  0  0  0  0  0  0  0  0  0  0
    8.6680    1.9543   -5.8589 C   0  0  0  0  0  0  0  0  0  0  0  0
    9.0214    2.8093   -5.2747 H   0  0  0  0  0  0  0  0  0  0  0  0
    9.5316    1.3005   -6.0323 H   0  0  0  0  0  0  0  0  0  0  0  0
    8.3338    2.3208   -6.8329 H   0  0  0  0  0  0  0  0  0  0  0  0
   -1.2975    4.0177   -1.3621 H   0  0  0  0  0  0  0  0  0  0  0  0
  1  6  2  0  0  0  0
  2  3  2  0  0  0  0
  2  1  1  0  0  0  0
  3  4  1  0  0  0  0
  4 24  1  0  0  0  0
  4  5  2  0  0  0  0
  5 10  1  0  0  0  0
  6  5  1  0  0  0  0
  6 31  1  0  0  0  0
  7  1  1  0  0  0  0
  8  2  1  0  0  0  0
 11 12  1  0  0  0  0
 11  3  1  0  0  0  0
 13 19  1  0  0  0  0
 14 20  1  0  0  0  0
 14 13  1  0  0  0  0
 15 14  2  0  0  0  0
 16 17  2  0  0  0  0
 16 15  1  0  0  0  0
 17 18  1  0  0  0  0
 18 13  2  0  0  0  0
 18 23  1  0  0  0  0
 21 16  1  0  0  0  0
 22 17  1  0  0  0  0
 23 12  1  0  0  0  0
 23 25  2  0  0  0  0
 24  9  1  0  0  0  0
 26 23  2  0  0  0  0
 27 28  1  0  0  0  0
 27 15  1  0  0  0  0
 29 27  1  0  0  0  0
 30 27  1  0  0  0  0
M  RAD  2  11   2  12   2
M  END
