Coordinates from ORCA-job Ph-N2-X-OTs-B3LYPG-6-31G_dp-scan-d09-49-n400
 OpenBabel08281821363D

 31 32  0  0  0  0  0  0  0  0999 V2000
   -0.6663    0.2472   -2.3722 C   0  0  0  0  0  0  0  0  0  0  0  0
    0.6784    0.1453   -2.0307 C   0  0  0  0  0  0  0  0  0  0  0  0
    1.5482    1.1847   -2.3865 C   0  0  0  0  0  0  0  0  0  0  0  0
    1.0992    2.3137   -3.0811 C   0  0  0  0  0  0  0  0  0  0  0  0
   -0.2491    2.3825   -3.4283 C   0  0  0  0  0  0  0  0  0  0  0  0
   -1.1329    1.3619   -3.0745 C   0  0  0  0  0  0  0  0  0  0  0  0
   -1.3485   -0.5490   -2.0914 H   0  0  0  0  0  0  0  0  0  0  0  0
    1.0515   -0.7178   -1.4961 H   0  0  0  0  0  0  0  0  0  0  0  0
    1.8081    3.1018   -3.2928 H   0  0  0  0  0  0  0  0  0  0  0  0
   -0.6086    3.2496   -3.9740 H   0  0  0  0  0  0  0  0  0  0  0  0
    2.9390    1.0593   -2.0225 N   0  0  0  0  0  0  0  0  0  0  0  0
    3.8578    1.8852   -1.8084 N   0  0  0  0  0  0  0  0  0  0  0  0
    5.3122    0.6701   -4.8228 C   0  0  0  0  0  0  0  0  0  0  0  0
    6.4081    1.4620   -5.1496 C   0  0  0  0  0  0  0  0  0  0  0  0
    7.5419    1.5088   -4.3223 C   0  0  0  0  0  0  0  0  0  0  0  0
    7.5532    0.7367   -3.1506 C   0  0  0  0  0  0  0  0  0  0  0  0
    6.4661   -0.0608   -2.8057 C   0  0  0  0  0  0  0  0  0  0  0  0
    5.3494   -0.0796   -3.6454 C   0  0  0  0  0  0  0  0  0  0  0  0
    4.4334    0.6222   -5.4576 H   0  0  0  0  0  0  0  0  0  0  0  0
    6.3850    2.0560   -6.0592 H   0  0  0  0  0  0  0  0  0  0  0  0
    8.4216    0.7685   -2.4985 H   0  0  0  0  0  0  0  0  0  0  0  0
    6.4789   -0.6396   -1.8865 H   0  0  0  0  0  0  0  0  0  0  0  0
    3.9811   -1.1674   -3.2448 S   0  0  2  0  0  0  0  0  0  0  0  0
    3.3150    3.5308   -1.9884 O   0  0  0  0  0  0  0  0  0  0  0  0
    3.0104   -1.0573   -4.3646 O   0  0  0  0  0  0  0  0  0  0  0  0
    3.3498   -0.2741   -1.7984 O   0  0  0  0  0  0  0  0  0  0  0  0
    8.7273    2.3623   -4.6997 C   0  0  0  0  0  0  0  0  0  0  0  0
    9.2642    1.9316   -5.5536 H   0  0  0  0  0  0  0  0  0  0  0  0
    8.4121    3.3691   -4.9903 H   0  0  0  0  0  0  0  0  0  0  0  0
    9.4358    2.4541   -3.8721 H   0  0  0  0  0  0  0  0  0  0  0  0
   -2.1827    1.4331   -3.3434 H   0  0  0  0  0  0  0  0  0  0  0  0
  1  7  1  0  0  0  0
  1  2  1  0  0  0  0
  2  8  1  0  0  0  0
  3  2  2  0  0  0  0
  3 11  1  0  0  0  0
  4  3  1  0  0  0  0
  5  4  2  0  0  0  0
  5  6  1  0  0  0  0
  6  1  2  0  0  0  0
  9  4  1  0  0  0  0
 10  5  1  0  0  0  0
 11 12  1  0  0  0  0
 11 26  1  0  0  0  0
 13 18  1  0  0  0  0
 14 13  2  0  0  0  0
 14 15  1  0  0  0  0
 15 16  2  0  0  0  0
 16 17  1  0  0  0  0
 16 21  1  0  0  0  0
 17 22  1  0  0  0  0
 18 23  1  0  0  0  0
 18 17  2  0  0  0  0
 19 13  1  0  0  0  0
 20 14  1  0  0  0  0
 23 25  1  6  0  0  0
 23 26  1  0  0  0  0
 24 12  1  0  0  0  0
 27 15  1  0  0  0  0
 27 30  1  0  0  0  0
 28 27  1  0  0  0  0
 29 27  1  0  0  0  0
 31  6  1  0  0  0  0
M  RAD  3  12   2  24   2  25   2
M  END
