Coordinates from ORCA-job Ph-N2-X-OTs-B3LYPG-6-31G_dp-scan-d09-49-n400
 OpenBabel08281821363D

 31 30  0  0  0  0  0  0  0  0999 V2000
   -0.1169    0.5604   -3.6595 C   0  0  0  0  0  0  0  0  0  0  0  0
    1.1403    0.4720   -3.0675 C   0  0  0  0  0  0  0  0  0  0  0  0
    1.5038    1.4909   -2.1849 C   0  0  0  0  0  0  0  0  0  0  0  0
    0.6818    2.5869   -1.8705 C   0  0  0  0  0  0  0  0  0  0  0  0
   -0.5701    2.6335   -2.4748 C   0  0  0  0  0  0  0  0  0  0  0  0
   -0.9695    1.6281   -3.3617 C   0  0  0  0  0  0  0  0  0  0  0  0
   -0.4284   -0.2134   -4.3533 H   0  0  0  0  0  0  0  0  0  0  0  0
    1.8104   -0.3512   -3.2917 H   0  0  0  0  0  0  0  0  0  0  0  0
    1.0606    3.3573   -1.1889 H   0  0  0  0  0  0  0  0  0  0  0  0
   -1.2341    3.4631   -2.2526 H   0  0  0  0  0  0  0  0  0  0  0  0
    2.7726    1.4953   -1.5450 N   0  0  0  0  0  0  0  0  0  0  0  0
    3.5065    2.0644   -0.8939 N   0  0  0  0  0  0  0  0  0  0  0  0
    5.6834   -0.3533   -4.8927 C   0  0  0  0  0  0  0  0  0  0  0  0
    6.6834    0.4466   -5.4463 C   0  0  0  0  0  0  0  0  0  0  0  0
    7.4849    1.2684   -4.6418 C   0  0  0  0  0  0  0  0  0  0  0  0
    7.2622    1.2703   -3.2548 C   0  0  0  0  0  0  0  0  0  0  0  0
    6.2691    0.4793   -2.6837 C   0  0  0  0  0  0  0  0  0  0  0  0
    5.4736   -0.3134   -3.5153 C   0  0  0  0  0  0  0  0  0  0  0  0
    5.0605   -0.9896   -5.5124 H   0  0  0  0  0  0  0  0  0  0  0  0
    6.8449    0.4305   -6.5214 H   0  0  0  0  0  0  0  0  0  0  0  0
    7.8747    1.9010   -2.6155 H   0  0  0  0  0  0  0  0  0  0  0  0
    6.0997    0.4885   -1.6119 H   0  0  0  0  0  0  0  0  0  0  0  0
    4.2319   -1.4192   -2.7748 S   0  0  0  0  0  0  0  0  0  0  0  0
    2.5205    4.3119   -0.2629 O   0  0  0  0  0  0  0  0  0  0  0  0
    3.3125   -1.8080   -3.8994 O   0  0  0  0  0  0  0  0  0  0  0  0
    3.5984   -0.5974   -1.6459 O   0  0  0  0  0  0  0  0  0  0  0  0
    8.5506    2.1489   -5.2479 C   0  0  0  0  0  0  0  0  0  0  0  0
    8.8249    1.8136   -6.2515 H   0  0  0  0  0  0  0  0  0  0  0  0
    8.2013    3.1855   -5.3308 H   0  0  0  0  0  0  0  0  0  0  0  0
    9.4560    2.1623   -4.6330 H   0  0  0  0  0  0  0  0  0  0  0  0
   -1.9499    1.6778   -3.8258 H   0  0  0  0  0  0  0  0  0  0  0  0
  1  6  2  0  0  0  0
  1  2  1  0  0  0  0
  2  3  2  0  0  0  0
  3  4  1  0  0  0  0
  3 11  1  0  0  0  0
  4  9  1  0  0  0  0
  5 10  1  0  0  0  0
  5  4  2  0  0  0  0
  6  5  1  0  0  0  0
  7  1  1  0  0  0  0
  8  2  1  0  0  0  0
 11 12  2  0  0  0  0
 13 18  1  0  0  0  0
 14 13  2  0  0  0  0
 14 15  1  0  0  0  0
 15 16  2  0  0  0  0
 16 17  1  0  0  0  0
 16 21  1  0  0  0  0
 17 22  1  0  0  0  0
 18 23  1  0  0  0  0
 18 17  2  0  0  0  0
 19 13  1  0  0  0  0
 20 14  1  0  0  0  0
 23 26  1  0  0  0  0
 25 23  1  0  0  0  0
 27 15  1  0  0  0  0
 27 30  1  0  0  0  0
 28 27  1  0  0  0  0
 29 27  1  0  0  0  0
 31  6  1  0  0  0  0
M  RAD  4  12   2  24   3  25   2  26   2
M  END
