Coordinates from ORCA-job Ph-N2-X-OTs-B3LYPG-6-31G_dp-scan-d09-49-n400
 OpenBabel08281821363D

 31 32  0  0  0  0  0  0  0  0999 V2000
   -0.3995   -0.2447   -1.8323 C   0  0  0  0  0  0  0  0  0  0  0  0
    0.8711    0.2552   -2.1047 C   0  0  0  0  0  0  0  0  0  0  0  0
    1.0177    1.5356   -2.6656 C   0  0  0  0  0  0  0  0  0  0  0  0
   -0.1247    2.3211   -2.9093 C   0  0  0  0  0  0  0  0  0  0  0  0
   -1.3880    1.7988   -2.6366 C   0  0  0  0  0  0  0  0  0  0  0  0
   -1.5372    0.5173   -2.1046 C   0  0  0  0  0  0  0  0  0  0  0  0
   -0.4975   -1.2352   -1.3978 H   0  0  0  0  0  0  0  0  0  0  0  0
    1.7520   -0.3252   -1.8625 H   0  0  0  0  0  0  0  0  0  0  0  0
   -0.0322    3.3260   -3.2943 H   0  0  0  0  0  0  0  0  0  0  0  0
   -2.2633    2.4109   -2.8337 H   0  0  0  0  0  0  0  0  0  0  0  0
    2.3091    2.0438   -2.9430 N   0  0  0  0  0  0  0  0  0  0  0  0
    2.6892    2.9388   -4.1581 N   0  0  0  0  0  0  0  0  0  0  0  0
    5.9602    1.4109   -4.8490 C   0  0  0  0  0  0  0  0  0  0  0  0
    7.3063    1.7599   -4.8802 C   0  0  0  0  0  0  0  0  0  0  0  0
    8.2312    1.1757   -3.9987 C   0  0  0  0  0  0  0  0  0  0  0  0
    7.7705    0.2248   -3.0775 C   0  0  0  0  0  0  0  0  0  0  0  0
    6.4259   -0.1413   -3.0363 C   0  0  0  0  0  0  0  0  0  0  0  0
    5.5287    0.4619   -3.9199 C   0  0  0  0  0  0  0  0  0  0  0  0
    5.2389    1.8588   -5.5243 H   0  0  0  0  0  0  0  0  0  0  0  0
    7.6495    2.5013   -5.5978 H   0  0  0  0  0  0  0  0  0  0  0  0
    8.4722   -0.2371   -2.3882 H   0  0  0  0  0  0  0  0  0  0  0  0
    6.0831   -0.8851   -2.3207 H   0  0  0  0  0  0  0  0  0  0  0  0
    3.8088   -0.0261   -3.8557 S   0  0  2  0  0  0  0  0  0  0  0  0
    1.8528    3.4536   -4.6547 O   0  0  0  0  0  0  0  0  0  0  0  0
    3.1339    0.4786   -5.0915 O   0  0  0  0  0  0  0  0  0  0  0  0
    3.3726    1.3383   -2.5576 O   0  0  0  0  0  0  0  0  0  0  0  0
    9.6938    1.5430   -4.0645 C   0  0  0  0  0  0  0  0  0  0  0  0
   10.2188    0.9310   -4.8083 H   0  0  0  0  0  0  0  0  0  0  0  0
    9.8300    2.5897   -4.3519 H   0  0  0  0  0  0  0  0  0  0  0  0
   10.1915    1.3864   -3.1031 H   0  0  0  0  0  0  0  0  0  0  0  0
   -2.5260    0.1241   -1.8897 H   0  0  0  0  0  0  0  0  0  0  0  0
  1  7  1  0  0  0  0
  2  8  1  0  0  0  0
  2  1  2  0  0  0  0
  3  2  1  0  0  0  0
  4  3  2  0  0  0  0
  4  5  1  0  0  0  0
  5  6  2  0  0  0  0
  6 31  1  0  0  0  0
  6  1  1  0  0  0  0
  9  4  1  0  0  0  0
 10  5  1  0  0  0  0
 11  3  1  0  0  0  0
 11 26  1  0  0  0  0
 12 11  1  0  0  0  0
 13 18  1  0  0  0  0
 14 13  2  0  0  0  0
 14 15  1  0  0  0  0
 15 16  2  0  0  0  0
 16 17  1  0  0  0  0
 16 21  1  0  0  0  0
 17 22  1  0  0  0  0
 18 23  1  0  0  0  0
 18 17  2  0  0  0  0
 19 13  1  0  0  0  0
 20 14  1  0  0  0  0
 23 25  1  6  0  0  0
 23 26  1  0  0  0  0
 24 12  2  0  0  0  0
 27 15  1  0  0  0  0
 27 30  1  0  0  0  0
 28 27  1  0  0  0  0
 29 27  1  0  0  0  0
M  RAD  1  25   2
M  END
