Coordinates from ORCA-job Ph-N2-X-OTs-B3LYPG-6-31G_dp-scan-d09-49-n400
 OpenBabel08281821363D

 31 32  0  0  0  0  0  0  0  0999 V2000
    0.6918    3.6466   -2.1039 C   0  0  0  0  0  0  0  0  0  0  0  0
    1.6335    2.6726   -2.4351 C   0  0  0  0  0  0  0  0  0  0  0  0
    1.2961    1.3242   -2.3167 C   0  0  0  0  0  0  0  0  0  0  0  0
    0.0406    0.9364   -1.8267 C   0  0  0  0  0  0  0  0  0  0  0  0
   -0.8954    1.9125   -1.4811 C   0  0  0  0  0  0  0  0  0  0  0  0
   -0.5665    3.2620   -1.6317 C   0  0  0  0  0  0  0  0  0  0  0  0
    0.9349    4.6980   -2.2179 H   0  0  0  0  0  0  0  0  0  0  0  0
    2.6156    2.9353   -2.8132 H   0  0  0  0  0  0  0  0  0  0  0  0
   -1.0243   -0.5890   -1.3845 H   0  0  0  0  0  0  0  0  0  0  0  0
   -1.8673    1.6197   -1.0914 H   0  0  0  0  0  0  0  0  0  0  0  0
    2.1310    0.2470   -2.7183 N   0  0  0  0  0  0  0  0  0  0  0  0
    3.3009    0.3472   -2.3452 N   0  0  0  0  0  0  0  0  0  0  0  0
    6.6283    0.3562   -3.0743 C   0  0  0  0  0  0  0  0  0  0  0  0
    7.6167    1.0581   -3.7590 C   0  0  0  0  0  0  0  0  0  0  0  0
    7.5659    1.2092   -5.1538 C   0  0  0  0  0  0  0  0  0  0  0  0
    6.4923    0.6379   -5.8519 C   0  0  0  0  0  0  0  0  0  0  0  0
    5.4918   -0.0666   -5.1847 C   0  0  0  0  0  0  0  0  0  0  0  0
    5.5708   -0.2006   -3.7977 C   0  0  0  0  0  0  0  0  0  0  0  0
    6.6755    0.2254   -1.9984 H   0  0  0  0  0  0  0  0  0  0  0  0
    8.4438    1.4933   -3.2041 H   0  0  0  0  0  0  0  0  0  0  0  0
    6.4404    0.7441   -6.9326 H   0  0  0  0  0  0  0  0  0  0  0  0
    4.6656   -0.5182   -5.7231 H   0  0  0  0  0  0  0  0  0  0  0  0
    4.2845   -1.0856   -2.9276 S   0  0  0  0  0  0  0  0  0  0  0  0
   -0.1215   -0.3995   -1.6738 O   0  0  0  0  0  0  0  0  0  0  0  0
    4.8404   -1.6464   -1.6915 O   0  0  0  0  0  0  0  0  0  0  0  0
    3.5337   -1.8999   -3.8866 O   0  0  0  0  0  0  0  0  0  0  0  0
    8.6607    1.9473   -5.8857 C   0  0  0  0  0  0  0  0  0  0  0  0
    9.0139    2.8095   -5.3121 H   0  0  0  0  0  0  0  0  0  0  0  0
    9.5256    1.2943   -6.0557 H   0  0  0  0  0  0  0  0  0  0  0  0
    8.3215    2.3025   -6.8622 H   0  0  0  0  0  0  0  0  0  0  0  0
   -1.3015    4.0176   -1.3715 H   0  0  0  0  0  0  0  0  0  0  0  0
  1  6  2  0  0  0  0
  2  3  2  0  0  0  0
  2  1  1  0  0  0  0
  3  4  1  0  0  0  0
  4 24  1  0  0  0  0
  4  5  2  0  0  0  0
  5 10  1  0  0  0  0
  6  5  1  0  0  0  0
  6 31  1  0  0  0  0
  7  1  1  0  0  0  0
  8  2  1  0  0  0  0
 11 12  1  0  0  0  0
 11  3  1  0  0  0  0
 13 19  1  0  0  0  0
 14 20  1  0  0  0  0
 14 13  1  0  0  0  0
 15 14  2  0  0  0  0
 16 17  2  0  0  0  0
 16 15  1  0  0  0  0
 17 18  1  0  0  0  0
 18 13  2  0  0  0  0
 18 23  1  0  0  0  0
 21 16  1  0  0  0  0
 22 17  1  0  0  0  0
 23 12  1  0  0  0  0
 23 25  2  0  0  0  0
 24  9  1  0  0  0  0
 26 23  2  0  0  0  0
 27 28  1  0  0  0  0
 27 15  1  0  0  0  0
 29 27  1  0  0  0  0
 30 27  1  0  0  0  0
M  RAD  2  11   2  12   2
M  END
