Coordinates from ORCA-job Ph-N2-X-OTs-B3LYPG-6-31G_dp-scan-d09-49-n400
 OpenBabel08281821363D

 31 30  0  0  0  0  0  0  0  0999 V2000
   -0.1455    0.5489   -3.6408 C   0  0  0  0  0  0  0  0  0  0  0  0
    1.1206    0.4640   -3.0674 C   0  0  0  0  0  0  0  0  0  0  0  0
    1.4991    1.4887   -2.1983 C   0  0  0  0  0  0  0  0  0  0  0  0
    0.6830    2.5870   -1.8800 C   0  0  0  0  0  0  0  0  0  0  0  0
   -0.5785    2.6308   -2.4645 C   0  0  0  0  0  0  0  0  0  0  0  0
   -0.9927    1.6194   -3.3376 C   0  0  0  0  0  0  0  0  0  0  0  0
   -0.4683   -0.2296   -4.3243 H   0  0  0  0  0  0  0  0  0  0  0  0
    1.7869   -0.3607   -3.2962 H   0  0  0  0  0  0  0  0  0  0  0  0
    1.0775    3.3599   -1.2126 H   0  0  0  0  0  0  0  0  0  0  0  0
   -1.2381    3.4628   -2.2382 H   0  0  0  0  0  0  0  0  0  0  0  0
    2.7788    1.4948   -1.5788 N   0  0  0  0  0  0  0  0  0  0  0  0
    3.5188    2.0790   -0.9448 N   0  0  0  0  0  0  0  0  0  0  0  0
    5.6879   -0.3452   -4.8932 C   0  0  0  0  0  0  0  0  0  0  0  0
    6.6916    0.4545   -5.4406 C   0  0  0  0  0  0  0  0  0  0  0  0
    7.4907    1.2731   -4.6307 C   0  0  0  0  0  0  0  0  0  0  0  0
    7.2620    1.2723   -3.2445 C   0  0  0  0  0  0  0  0  0  0  0  0
    6.2654    0.4816   -2.6794 C   0  0  0  0  0  0  0  0  0  0  0  0
    5.4722   -0.3077   -3.5166 C   0  0  0  0  0  0  0  0  0  0  0  0
    5.0667   -0.9792   -5.5170 H   0  0  0  0  0  0  0  0  0  0  0  0
    6.8576    0.4405   -6.5150 H   0  0  0  0  0  0  0  0  0  0  0  0
    7.8721    1.9011   -2.6012 H   0  0  0  0  0  0  0  0  0  0  0  0
    6.0909    0.4895   -1.6084 H   0  0  0  0  0  0  0  0  0  0  0  0
    4.2248   -1.4115   -2.7851 S   0  0  0  0  0  0  0  0  0  0  0  0
    2.6211    4.2745   -0.3562 O   0  0  0  0  0  0  0  0  0  0  0  0
    3.3113   -1.8001   -3.9136 O   0  0  0  0  0  0  0  0  0  0  0  0
    3.5879   -0.5916   -1.6560 O   0  0  0  0  0  0  0  0  0  0  0  0
    8.5605    2.1532   -5.2297 C   0  0  0  0  0  0  0  0  0  0  0  0
    8.8316    1.8261   -6.2368 H   0  0  0  0  0  0  0  0  0  0  0  0
    8.2170    3.1927   -5.3018 H   0  0  0  0  0  0  0  0  0  0  0  0
    9.4667    2.1555   -4.6159 H   0  0  0  0  0  0  0  0  0  0  0  0
   -1.9801    1.6667   -3.7869 H   0  0  0  0  0  0  0  0  0  0  0  0
  1  6  2  0  0  0  0
  1  2  1  0  0  0  0
  2  3  2  0  0  0  0
  3  4  1  0  0  0  0
  3 11  1  0  0  0  0
  4  9  1  0  0  0  0
  5 10  1  0  0  0  0
  5  4  2  0  0  0  0
  6  5  1  0  0  0  0
  7  1  1  0  0  0  0
  8  2  1  0  0  0  0
 11 12  2  0  0  0  0
 13 18  1  0  0  0  0
 14 13  2  0  0  0  0
 14 15  1  0  0  0  0
 15 16  2  0  0  0  0
 16 17  1  0  0  0  0
 16 21  1  0  0  0  0
 17 22  1  0  0  0  0
 18 23  1  0  0  0  0
 18 17  2  0  0  0  0
 19 13  1  0  0  0  0
 20 14  1  0  0  0  0
 23 26  1  0  0  0  0
 25 23  1  0  0  0  0
 27 15  1  0  0  0  0
 27 30  1  0  0  0  0
 28 27  1  0  0  0  0
 29 27  1  0  0  0  0
 31  6  1  0  0  0  0
M  RAD  4  12   2  24   3  25   2  26   2
M  END
