Coordinates from ORCA-job Ph-N2-X-OTs-B3LYPG-6-31G_dp-scan-d09-49-n400
 OpenBabel08281821363D

 31 32  0  0  0  0  0  0  0  0999 V2000
   -0.6700    0.2504   -2.3609 C   0  0  0  0  0  0  0  0  0  0  0  0
    0.6760    0.1493   -2.0240 C   0  0  0  0  0  0  0  0  0  0  0  0
    1.5462    1.1853   -2.3885 C   0  0  0  0  0  0  0  0  0  0  0  0
    1.0948    2.3108   -3.0877 C   0  0  0  0  0  0  0  0  0  0  0  0
   -0.2548    2.3793   -3.4299 C   0  0  0  0  0  0  0  0  0  0  0  0
   -1.1385    1.3618   -3.0673 C   0  0  0  0  0  0  0  0  0  0  0  0
   -1.3518   -0.5436   -2.0731 H   0  0  0  0  0  0  0  0  0  0  0  0
    1.0502   -0.7114   -1.4862 H   0  0  0  0  0  0  0  0  0  0  0  0
    1.8021    3.0971   -3.3091 H   0  0  0  0  0  0  0  0  0  0  0  0
   -0.6153    3.2438   -3.9790 H   0  0  0  0  0  0  0  0  0  0  0  0
    2.9374    1.0574   -2.0295 N   0  0  0  0  0  0  0  0  0  0  0  0
    3.8594    1.8864   -1.8176 N   0  0  0  0  0  0  0  0  0  0  0  0
    5.3153    0.6736   -4.8254 C   0  0  0  0  0  0  0  0  0  0  0  0
    6.4120    1.4656   -5.1491 C   0  0  0  0  0  0  0  0  0  0  0  0
    7.5448    1.5101   -4.3203 C   0  0  0  0  0  0  0  0  0  0  0  0
    7.5542    0.7356   -3.1502 C   0  0  0  0  0  0  0  0  0  0  0  0
    6.4662   -0.0621   -2.8084 C   0  0  0  0  0  0  0  0  0  0  0  0
    5.3506   -0.0787   -3.6496 C   0  0  0  0  0  0  0  0  0  0  0  0
    4.4372    0.6277   -5.4613 H   0  0  0  0  0  0  0  0  0  0  0  0
    6.3904    2.0617   -6.0574 H   0  0  0  0  0  0  0  0  0  0  0  0
    8.4217    0.7655   -2.4968 H   0  0  0  0  0  0  0  0  0  0  0  0
    6.4775   -0.6429   -1.8904 H   0  0  0  0  0  0  0  0  0  0  0  0
    3.9809   -1.1655   -3.2521 S   0  0  2  0  0  0  0  0  0  0  0  0
    3.3247    3.5028   -1.9978 O   0  0  0  0  0  0  0  0  0  0  0  0
    3.0107   -1.0513   -4.3719 O   0  0  0  0  0  0  0  0  0  0  0  0
    3.3493   -0.2713   -1.8036 O   0  0  0  0  0  0  0  0  0  0  0  0
    8.7314    2.3633   -4.6945 C   0  0  0  0  0  0  0  0  0  0  0  0
    9.2736    1.9295   -5.5435 H   0  0  0  0  0  0  0  0  0  0  0  0
    8.4170    3.3687   -4.9910 H   0  0  0  0  0  0  0  0  0  0  0  0
    9.4352    2.4591   -3.8633 H   0  0  0  0  0  0  0  0  0  0  0  0
   -2.1892    1.4327   -3.3325 H   0  0  0  0  0  0  0  0  0  0  0  0
  1  7  1  0  0  0  0
  1  2  1  0  0  0  0
  2  8  1  0  0  0  0
  3 11  1  0  0  0  0
  3  2  2  0  0  0  0
  4  3  1  0  0  0  0
  5  4  2  0  0  0  0
  5  6  1  0  0  0  0
  6  1  2  0  0  0  0
  9  4  1  0  0  0  0
 10  5  1  0  0  0  0
 11 12  1  0  0  0  0
 11 26  1  0  0  0  0
 13 18  1  0  0  0  0
 14 13  2  0  0  0  0
 14 15  1  0  0  0  0
 15 16  2  0  0  0  0
 16 17  1  0  0  0  0
 16 21  1  0  0  0  0
 17 22  1  0  0  0  0
 18 23  1  0  0  0  0
 18 17  2  0  0  0  0
 19 13  1  0  0  0  0
 20 14  1  0  0  0  0
 23 25  1  6  0  0  0
 23 26  1  0  0  0  0
 24 12  1  0  0  0  0
 27 15  1  0  0  0  0
 27 30  1  0  0  0  0
 28 27  1  0  0  0  0
 29 27  1  0  0  0  0
 31  6  1  0  0  0  0
M  RAD  3  12   2  24   2  25   2
M  END
