Coordinates from ORCA-job Ph-N2-X-OTs-B3LYPG-6-31G_dp-scan-d09-49-n400
 OpenBabel08281821363D

 31 32  0  0  0  0  0  0  0  0999 V2000
    0.7264    3.4247   -1.1245 C   0  0  0  0  0  0  0  0  0  0  0  0
    1.6960    2.4716   -1.3935 C   0  0  0  0  0  0  0  0  0  0  0  0
    1.3746    1.2850   -2.0780 C   0  0  0  0  0  0  0  0  0  0  0  0
    0.0404    1.0600   -2.4950 C   0  0  0  0  0  0  0  0  0  0  0  0
   -0.9323    2.0333   -2.2185 C   0  0  0  0  0  0  0  0  0  0  0  0
   -0.5928    3.1991   -1.5419 C   0  0  0  0  0  0  0  0  0  0  0  0
    0.9847    4.3345   -0.5927 H   0  0  0  0  0  0  0  0  0  0  0  0
    2.7244    2.6087   -1.0781 H   0  0  0  0  0  0  0  0  0  0  0  0
   -1.2052   -0.0945   -3.3539 H   0  0  0  0  0  0  0  0  0  0  0  0
   -1.9576    1.8647   -2.5396 H   0  0  0  0  0  0  0  0  0  0  0  0
    2.3168    0.2700   -2.3701 N   0  0  0  0  0  0  0  0  0  0  0  0
    3.4949    0.5216   -2.0587 N   0  0  0  0  0  0  0  0  0  0  0  0
    6.7256    0.6870   -3.0810 C   0  0  0  0  0  0  0  0  0  0  0  0
    7.5865    1.3000   -3.9875 C   0  0  0  0  0  0  0  0  0  0  0  0
    7.4335    1.1179   -5.3707 C   0  0  0  0  0  0  0  0  0  0  0  0
    6.3874    0.3035   -5.8286 C   0  0  0  0  0  0  0  0  0  0  0  0
    5.5134   -0.3158   -4.9377 C   0  0  0  0  0  0  0  0  0  0  0  0
    5.6925   -0.1175   -3.5677 C   0  0  0  0  0  0  0  0  0  0  0  0
    6.8538    0.8142   -2.0113 H   0  0  0  0  0  0  0  0  0  0  0  0
    8.3938    1.9262   -3.6168 H   0  0  0  0  0  0  0  0  0  0  0  0
    6.2582    0.1496   -6.8968 H   0  0  0  0  0  0  0  0  0  0  0  0
    4.7085   -0.9530   -5.2882 H   0  0  0  0  0  0  0  0  0  0  0  0
    4.5682   -0.8943   -2.4152 S   0  0  0  0  0  0  0  0  0  0  0  0
   -0.2599   -0.0826   -3.1537 O   0  0  0  0  0  0  0  0  0  0  0  0
    5.2669   -1.1172   -1.1445 O   0  0  0  0  0  0  0  0  0  0  0  0
    3.8477   -1.9677   -3.1035 O   0  0  0  0  0  0  0  0  0  0  0  0
    8.3951    1.7592   -6.3420 C   0  0  0  0  0  0  0  0  0  0  0  0
    8.7322    2.7365   -5.9850 H   0  0  0  0  0  0  0  0  0  0  0  0
    9.2881    1.1363   -6.4756 H   0  0  0  0  0  0  0  0  0  0  0  0
    7.9402    1.8932   -7.3272 H   0  0  0  0  0  0  0  0  0  0  0  0
   -1.3626    3.9367   -1.3346 H   0  0  0  0  0  0  0  0  0  0  0  0
  1  7  1  0  0  0  0
  2  1  1  0  0  0  0
  2  8  1  0  0  0  0
  3  2  2  0  0  0  0
  4  5  2  0  0  0  0
  4  3  1  0  0  0  0
  5  6  1  0  0  0  0
  6 31  1  0  0  0  0
  6  1  2  0  0  0  0
  9 24  1  0  0  0  0
 10  5  1  0  0  0  0
 11  3  1  0  0  0  0
 11 12  1  0  0  0  0
 13 19  1  0  0  0  0
 14 20  1  0  0  0  0
 14 13  2  0  0  0  0
 15 14  1  0  0  0  0
 16 15  2  0  0  0  0
 16 17  1  0  0  0  0
 17 18  2  0  0  0  0
 18 13  1  0  0  0  0
 18 23  1  0  0  0  0
 21 16  1  0  0  0  0
 22 17  1  0  0  0  0
 23 12  1  0  0  0  0
 23 25  2  0  0  0  0
 24  4  1  0  0  0  0
 26 23  2  0  0  0  0
 27 28  1  0  0  0  0
 27 15  1  0  0  0  0
 29 27  1  0  0  0  0
 30 27  1  0  0  0  0
M  RAD  2  11   2  12   2
M  END
