Coordinates from ORCA-job Ph-N2-X-OTs-B3LYPG-6-31G_dp-scan-d09-49-n400
 OpenBabel08281821363D

 31 31  0  0  0  0  0  0  0  0999 V2000
   -0.6000    0.2303   -2.5829 C   0  0  0  0  0  0  0  0  0  0  0  0
    0.7240    0.1009   -2.1748 C   0  0  0  0  0  0  0  0  0  0  0  0
    1.5894    1.1834   -2.3699 C   0  0  0  0  0  0  0  0  0  0  0  0
    1.1712    2.3806   -2.9591 C   0  0  0  0  0  0  0  0  0  0  0  0
   -0.1560    2.4757   -3.3733 C   0  0  0  0  0  0  0  0  0  0  0  0
   -1.0406    1.4117   -3.1862 C   0  0  0  0  0  0  0  0  0  0  0  0
   -1.2857   -0.5973   -2.4321 H   0  0  0  0  0  0  0  0  0  0  0  0
    1.0779   -0.8100   -1.7142 H   0  0  0  0  0  0  0  0  0  0  0  0
    1.8876    3.1950   -3.0272 H   0  0  0  0  0  0  0  0  0  0  0  0
   -0.4988    3.3940   -3.8397 H   0  0  0  0  0  0  0  0  0  0  0  0
    2.9687    1.0777   -1.9371 N   0  0  0  0  0  0  0  0  0  0  0  0
    3.8476    1.8581   -1.6688 N   0  0  0  0  0  0  0  0  0  0  0  0
    5.3099    0.4694   -4.8294 C   0  0  0  0  0  0  0  0  0  0  0  0
    6.3797    1.2738   -5.2186 C   0  0  0  0  0  0  0  0  0  0  0  0
    7.4735    1.4862   -4.3677 C   0  0  0  0  0  0  0  0  0  0  0  0
    7.4789    0.8618   -3.1092 C   0  0  0  0  0  0  0  0  0  0  0  0
    6.4209    0.0561   -2.7030 C   0  0  0  0  0  0  0  0  0  0  0  0
    5.3367   -0.1227   -3.5678 C   0  0  0  0  0  0  0  0  0  0  0  0
    4.4625    0.2923   -5.4837 H   0  0  0  0  0  0  0  0  0  0  0  0
    6.3666    1.7430   -6.1981 H   0  0  0  0  0  0  0  0  0  0  0  0
    8.3207    1.0168   -2.4399 H   0  0  0  0  0  0  0  0  0  0  0  0
    6.4275   -0.4071   -1.7209 H   0  0  0  0  0  0  0  0  0  0  0  0
    4.0052   -1.2438   -3.0993 S   0  0  2  0  0  0  0  0  0  0  0  0
    3.3012    3.8005   -1.8109 O   0  0  0  0  0  0  0  0  0  0  0  0
    3.0396   -1.2415   -4.2307 O   0  0  0  0  0  0  0  0  0  0  0  0
    3.3687   -0.3666   -1.7294 O   0  0  0  0  0  0  0  0  0  0  0  0
    8.6122    2.3856   -4.7806 C   0  0  0  0  0  0  0  0  0  0  0  0
    8.6754    2.4811   -5.8681 H   0  0  0  0  0  0  0  0  0  0  0  0
    8.4765    3.3931   -4.3690 H   0  0  0  0  0  0  0  0  0  0  0  0
    9.5720    2.0119   -4.4117 H   0  0  0  0  0  0  0  0  0  0  0  0
   -2.0736    1.5011   -3.5087 H   0  0  0  0  0  0  0  0  0  0  0  0
  1  7  1  0  0  0  0
  1  2  2  0  0  0  0
  2  8  1  0  0  0  0
  3  2  1  0  0  0  0
  3 11  1  0  0  0  0
  4  3  2  0  0  0  0
  5  6  2  0  0  0  0
  5  4  1  0  0  0  0
  6  1  1  0  0  0  0
  9  4  1  0  0  0  0
 10  5  1  0  0  0  0
 11 26  1  0  0  0  0
 11 12  1  0  0  0  0
 13 18  1  0  0  0  0
 14 13  2  0  0  0  0
 14 15  1  0  0  0  0
 15 16  2  0  0  0  0
 16 17  1  0  0  0  0
 16 21  1  0  0  0  0
 17 22  1  0  0  0  0
 18 23  1  0  0  0  0
 18 17  2  0  0  0  0
 19 13  1  0  0  0  0
 20 14  1  0  0  0  0
 23 25  1  6  0  0  0
 23 26  1  0  0  0  0
 27 30  1  0  0  0  0
 27 29  1  0  0  0  0
 27 15  1  0  0  0  0
 28 27  1  0  0  0  0
 31  6  1  0  0  0  0
M  RAD  3  12   3  24   3  25   2
M  END
