Coordinates from ORCA-job Ph-N2-X-OTs-B3LYPG-6-31G_dp-scan-d09-49-n400
 OpenBabel08281821363D

 31 32  0  0  0  0  0  0  0  0999 V2000
    0.7915    3.3860   -1.1651 C   0  0  0  0  0  0  0  0  0  0  0  0
    1.7020    2.3876   -1.4595 C   0  0  0  0  0  0  0  0  0  0  0  0
    1.3427    1.1986   -2.1316 C   0  0  0  0  0  0  0  0  0  0  0  0
   -0.0295    1.0248   -2.5166 C   0  0  0  0  0  0  0  0  0  0  0  0
   -0.9338    2.0583   -2.2057 C   0  0  0  0  0  0  0  0  0  0  0  0
   -0.5441    3.2144   -1.5464 C   0  0  0  0  0  0  0  0  0  0  0  0
    1.1088    4.2836   -0.6448 H   0  0  0  0  0  0  0  0  0  0  0  0
    2.7427    2.4862   -1.1713 H   0  0  0  0  0  0  0  0  0  0  0  0
   -1.4655    0.0525   -3.3044 H   0  0  0  0  0  0  0  0  0  0  0  0
   -1.9747    1.9336   -2.4977 H   0  0  0  0  0  0  0  0  0  0  0  0
    2.3360    0.2065   -2.3967 N   0  0  0  0  0  0  0  0  0  0  0  0
    3.5110    0.4836   -2.0478 N   0  0  0  0  0  0  0  0  0  0  0  0
    6.7338    0.7180   -3.0683 C   0  0  0  0  0  0  0  0  0  0  0  0
    7.5811    1.3410   -3.9807 C   0  0  0  0  0  0  0  0  0  0  0  0
    7.4352    1.1388   -5.3619 C   0  0  0  0  0  0  0  0  0  0  0  0
    6.4102    0.2937   -5.8118 C   0  0  0  0  0  0  0  0  0  0  0  0
    5.5499   -0.3362   -4.9152 C   0  0  0  0  0  0  0  0  0  0  0  0
    5.7216   -0.1172   -3.5473 C   0  0  0  0  0  0  0  0  0  0  0  0
    6.8570    0.8610   -2.0000 H   0  0  0  0  0  0  0  0  0  0  0  0
    8.3721    1.9913   -3.6162 H   0  0  0  0  0  0  0  0  0  0  0  0
    6.2867    0.1241   -6.8783 H   0  0  0  0  0  0  0  0  0  0  0  0
    4.7614   -0.9969   -5.2593 H   0  0  0  0  0  0  0  0  0  0  0  0
    4.6146   -0.9084   -2.3882 S   0  0  0  0  0  0  0  0  0  0  0  0
   -0.5178   -0.0725   -3.1673 O   0  0  0  0  0  0  0  0  0  0  0  0
    5.3139   -1.0991   -1.1132 O   0  0  0  0  0  0  0  0  0  0  0  0
    3.9217   -2.0059   -3.0655 O   0  0  0  0  0  0  0  0  0  0  0  0
    8.3826    1.7917   -6.3394 C   0  0  0  0  0  0  0  0  0  0  0  0
    8.6984    2.7794   -5.9919 H   0  0  0  0  0  0  0  0  0  0  0  0
    9.2888    1.1871   -6.4673 H   0  0  0  0  0  0  0  0  0  0  0  0
    7.9246    1.9062   -7.3258 H   0  0  0  0  0  0  0  0  0  0  0  0
   -1.2833    3.9793   -1.3269 H   0  0  0  0  0  0  0  0  0  0  0  0
  1  7  1  0  0  0  0
  2  8  1  0  0  0  0
  2  1  1  0  0  0  0
  3  2  2  0  0  0  0
  4  5  2  0  0  0  0
  4  3  1  0  0  0  0
  5  6  1  0  0  0  0
  6 31  1  0  0  0  0
  6  1  2  0  0  0  0
  9 24  1  0  0  0  0
 10  5  1  0  0  0  0
 11  3  1  0  0  0  0
 11 12  1  0  0  0  0
 13 19  1  0  0  0  0
 14 20  1  0  0  0  0
 14 13  2  0  0  0  0
 15 14  1  0  0  0  0
 16 15  2  0  0  0  0
 16 17  1  0  0  0  0
 17 18  2  0  0  0  0
 18 13  1  0  0  0  0
 18 23  1  0  0  0  0
 21 16  1  0  0  0  0
 22 17  1  0  0  0  0
 23 12  1  0  0  0  0
 23 25  2  0  0  0  0
 24  4  1  0  0  0  0
 26 23  2  0  0  0  0
 27 28  1  0  0  0  0
 27 15  1  0  0  0  0
 29 27  1  0  0  0  0
 30 27  1  0  0  0  0
M  RAD  2  11   2  12   2
M  END
