Coordinates from ORCA-job Ph-N2-X-OTs-B3LYPG-6-31G_dp-scan-d09-49-n400
 OpenBabel08281821363D

 31 32  0  0  0  0  0  0  0  0999 V2000
    0.7850    3.3949   -1.1662 C   0  0  0  0  0  0  0  0  0  0  0  0
    1.7033    2.4019   -1.4565 C   0  0  0  0  0  0  0  0  0  0  0  0
    1.3468    1.2106   -2.1245 C   0  0  0  0  0  0  0  0  0  0  0  0
   -0.0210    1.0278   -2.5081 C   0  0  0  0  0  0  0  0  0  0  0  0
   -0.9348    2.0537   -2.2028 C   0  0  0  0  0  0  0  0  0  0  0  0
   -0.5499    3.2139   -1.5471 C   0  0  0  0  0  0  0  0  0  0  0  0
    1.0957    4.2967   -0.6491 H   0  0  0  0  0  0  0  0  0  0  0  0
    2.7435    2.5072   -1.1689 H   0  0  0  0  0  0  0  0  0  0  0  0
   -1.4328    0.0232   -3.2978 H   0  0  0  0  0  0  0  0  0  0  0  0
   -1.9746    1.9209   -2.4949 H   0  0  0  0  0  0  0  0  0  0  0  0
    2.3307    0.2141   -2.3943 N   0  0  0  0  0  0  0  0  0  0  0  0
    3.5067    0.4873   -2.0523 N   0  0  0  0  0  0  0  0  0  0  0  0
    6.7314    0.7119   -3.0698 C   0  0  0  0  0  0  0  0  0  0  0  0
    7.5818    1.3343   -3.9797 C   0  0  0  0  0  0  0  0  0  0  0  0
    7.4360    1.1369   -5.3616 C   0  0  0  0  0  0  0  0  0  0  0  0
    6.4080    0.2972   -5.8148 C   0  0  0  0  0  0  0  0  0  0  0  0
    5.5446   -0.3320   -4.9206 C   0  0  0  0  0  0  0  0  0  0  0  0
    5.7162   -0.1178   -3.5519 C   0  0  0  0  0  0  0  0  0  0  0  0
    6.8544    0.8512   -2.0010 H   0  0  0  0  0  0  0  0  0  0  0  0
    8.3751    1.9803   -3.6127 H   0  0  0  0  0  0  0  0  0  0  0  0
    6.2846    0.1313   -6.8819 H   0  0  0  0  0  0  0  0  0  0  0  0
    4.7538   -0.9886   -5.2672 H   0  0  0  0  0  0  0  0  0  0  0  0
    4.6054   -0.9081   -2.3958 S   0  0  0  0  0  0  0  0  0  0  0  0
   -0.4834   -0.0801   -3.1542 O   0  0  0  0  0  0  0  0  0  0  0  0
    5.3036   -1.1058   -1.1212 O   0  0  0  0  0  0  0  0  0  0  0  0
    3.9085   -2.0010   -3.0769 O   0  0  0  0  0  0  0  0  0  0  0  0
    8.3867    1.7890   -6.3365 C   0  0  0  0  0  0  0  0  0  0  0  0
    8.7052    2.7749   -5.9862 H   0  0  0  0  0  0  0  0  0  0  0  0
    9.2911    1.1818   -6.4647 H   0  0  0  0  0  0  0  0  0  0  0  0
    7.9303    1.9074   -7.3231 H   0  0  0  0  0  0  0  0  0  0  0  0
   -1.2927    3.9758   -1.3295 H   0  0  0  0  0  0  0  0  0  0  0  0
  1  7  1  0  0  0  0
  2  8  1  0  0  0  0
  2  1  1  0  0  0  0
  3  2  2  0  0  0  0
  4  5  2  0  0  0  0
  4  3  1  0  0  0  0
  5  6  1  0  0  0  0
  6 31  1  0  0  0  0
  6  1  2  0  0  0  0
  9 24  1  0  0  0  0
 10  5  1  0  0  0  0
 11  3  1  0  0  0  0
 11 12  1  0  0  0  0
 13 19  1  0  0  0  0
 14 20  1  0  0  0  0
 14 13  2  0  0  0  0
 15 14  1  0  0  0  0
 16 15  2  0  0  0  0
 16 17  1  0  0  0  0
 17 18  2  0  0  0  0
 18 13  1  0  0  0  0
 18 23  1  0  0  0  0
 21 16  1  0  0  0  0
 22 17  1  0  0  0  0
 23 12  1  0  0  0  0
 23 25  2  0  0  0  0
 24  4  1  0  0  0  0
 26 23  2  0  0  0  0
 27 28  1  0  0  0  0
 27 15  1  0  0  0  0
 29 27  1  0  0  0  0
 30 27  1  0  0  0  0
M  RAD  2  11   2  12   2
M  END
