Coordinates from ORCA-job Ph-N2-X-OTs-B3LYPG-6-31G_dp-scan-d09-49-n400
 OpenBabel08281821363D

 31 30  0  0  0  0  0  0  0  0999 V2000
   -0.1177    0.5605   -3.6592 C   0  0  0  0  0  0  0  0  0  0  0  0
    1.1397    0.4716   -3.0677 C   0  0  0  0  0  0  0  0  0  0  0  0
    1.5038    1.4905   -2.1854 C   0  0  0  0  0  0  0  0  0  0  0  0
    0.6827    2.5864   -1.8708 C   0  0  0  0  0  0  0  0  0  0  0  0
   -0.5695    2.6339   -2.4744 C   0  0  0  0  0  0  0  0  0  0  0  0
   -0.9698    1.6286   -3.3611 C   0  0  0  0  0  0  0  0  0  0  0  0
   -0.4298   -0.2132   -4.3529 H   0  0  0  0  0  0  0  0  0  0  0  0
    1.8095   -0.3517   -3.2920 H   0  0  0  0  0  0  0  0  0  0  0  0
    1.0632    3.3558   -1.1895 H   0  0  0  0  0  0  0  0  0  0  0  0
   -1.2329    3.4638   -2.2519 H   0  0  0  0  0  0  0  0  0  0  0  0
    2.7729    1.4951   -1.5459 N   0  0  0  0  0  0  0  0  0  0  0  0
    3.5069    2.0648   -0.8952 N   0  0  0  0  0  0  0  0  0  0  0  0
    5.6843   -0.3544   -4.8925 C   0  0  0  0  0  0  0  0  0  0  0  0
    6.6843    0.4458   -5.4459 C   0  0  0  0  0  0  0  0  0  0  0  0
    7.4843    1.2690   -4.6414 C   0  0  0  0  0  0  0  0  0  0  0  0
    7.2602    1.2720   -3.2545 C   0  0  0  0  0  0  0  0  0  0  0  0
    6.2672    0.4808   -2.6837 C   0  0  0  0  0  0  0  0  0  0  0  0
    5.4730   -0.3133   -3.5153 C   0  0  0  0  0  0  0  0  0  0  0  0
    5.0625   -0.9917   -5.5122 H   0  0  0  0  0  0  0  0  0  0  0  0
    6.8468    0.4288   -6.5208 H   0  0  0  0  0  0  0  0  0  0  0  0
    7.8715    1.9039   -2.6152 H   0  0  0  0  0  0  0  0  0  0  0  0
    6.0966    0.4910   -1.6120 H   0  0  0  0  0  0  0  0  0  0  0  0
    4.2312   -1.4190   -2.7751 S   0  0  0  0  0  0  0  0  0  0  0  0
    2.5290    4.3052   -0.2668 O   0  0  0  0  0  0  0  0  0  0  0  0
    3.3120   -1.8079   -3.8998 O   0  0  0  0  0  0  0  0  0  0  0  0
    3.5977   -0.5972   -1.6460 O   0  0  0  0  0  0  0  0  0  0  0  0
    8.5499    2.1496   -5.2472 C   0  0  0  0  0  0  0  0  0  0  0  0
    8.8253    1.8138   -6.2502 H   0  0  0  0  0  0  0  0  0  0  0  0
    8.2001    3.1860   -5.3311 H   0  0  0  0  0  0  0  0  0  0  0  0
    9.4548    2.1641   -4.6315 H   0  0  0  0  0  0  0  0  0  0  0  0
   -1.9503    1.6787   -3.8248 H   0  0  0  0  0  0  0  0  0  0  0  0
  1  6  2  0  0  0  0
  1  2  1  0  0  0  0
  2  3  2  0  0  0  0
  3  4  1  0  0  0  0
  3 11  1  0  0  0  0
  4  9  1  0  0  0  0
  5 10  1  0  0  0  0
  5  4  2  0  0  0  0
  6  5  1  0  0  0  0
  7  1  1  0  0  0  0
  8  2  1  0  0  0  0
 11 12  2  0  0  0  0
 13 18  1  0  0  0  0
 14 13  2  0  0  0  0
 14 15  1  0  0  0  0
 15 16  2  0  0  0  0
 16 17  1  0  0  0  0
 16 21  1  0  0  0  0
 17 22  1  0  0  0  0
 18 23  1  0  0  0  0
 18 17  2  0  0  0  0
 19 13  1  0  0  0  0
 20 14  1  0  0  0  0
 23 26  1  0  0  0  0
 25 23  1  0  0  0  0
 27 15  1  0  0  0  0
 27 30  1  0  0  0  0
 28 27  1  0  0  0  0
 29 27  1  0  0  0  0
 31  6  1  0  0  0  0
M  RAD  4  12   2  24   3  25   2  26   2
M  END
