Coordinates from ORCA-job Ph-N2-X-OTs-B3LYPG-6-31G_dp-scan-d09-49-n400
 OpenBabel08281821363D

 31 32  0  0  0  0  0  0  0  0999 V2000
    0.7120    3.6419   -2.0422 C   0  0  0  0  0  0  0  0  0  0  0  0
    1.6547    2.6659   -2.3599 C   0  0  0  0  0  0  0  0  0  0  0  0
    1.3005    1.3171   -2.2875 C   0  0  0  0  0  0  0  0  0  0  0  0
    0.0203    0.9325   -1.8604 C   0  0  0  0  0  0  0  0  0  0  0  0
   -0.9182    1.9117   -1.5280 C   0  0  0  0  0  0  0  0  0  0  0  0
   -0.5687    3.2599   -1.6298 C   0  0  0  0  0  0  0  0  0  0  0  0
    0.9698    4.6931   -2.1206 H   0  0  0  0  0  0  0  0  0  0  0  0
    2.6535    2.9258   -2.6934 H   0  0  0  0  0  0  0  0  0  0  0  0
   -1.0855   -0.5836   -1.5000 H   0  0  0  0  0  0  0  0  0  0  0  0
   -1.9088    1.6209   -1.1868 H   0  0  0  0  0  0  0  0  0  0  0  0
    2.1396    0.2415   -2.6760 N   0  0  0  0  0  0  0  0  0  0  0  0
    3.3173    0.3627   -2.3313 N   0  0  0  0  0  0  0  0  0  0  0  0
    6.6380    0.3801   -3.0756 C   0  0  0  0  0  0  0  0  0  0  0  0
    7.6202    1.0763   -3.7748 C   0  0  0  0  0  0  0  0  0  0  0  0
    7.5631    1.2060   -5.1715 C   0  0  0  0  0  0  0  0  0  0  0  0
    6.4897    0.6189   -5.8565 C   0  0  0  0  0  0  0  0  0  0  0  0
    5.4953   -0.0802   -5.1746 C   0  0  0  0  0  0  0  0  0  0  0  0
    5.5803   -0.1927   -3.7861 C   0  0  0  0  0  0  0  0  0  0  0  0
    6.6902    0.2658   -1.9980 H   0  0  0  0  0  0  0  0  0  0  0  0
    8.4474    1.5238   -3.2299 H   0  0  0  0  0  0  0  0  0  0  0  0
    6.4330    0.7082   -6.9384 H   0  0  0  0  0  0  0  0  0  0  0  0
    4.6691   -0.5439   -5.7028 H   0  0  0  0  0  0  0  0  0  0  0  0
    4.3024   -1.0715   -2.8972 S   0  0  0  0  0  0  0  0  0  0  0  0
   -0.1698   -0.4030   -1.7522 O   0  0  0  0  0  0  0  0  0  0  0  0
    4.8683   -1.6133   -1.6570 O   0  0  0  0  0  0  0  0  0  0  0  0
    3.5515   -1.9035   -3.8410 O   0  0  0  0  0  0  0  0  0  0  0  0
    8.6515    1.9382   -5.9189 C   0  0  0  0  0  0  0  0  0  0  0  0
    9.0050    2.8087   -5.3581 H   0  0  0  0  0  0  0  0  0  0  0  0
    9.5176    1.2859   -6.0855 H   0  0  0  0  0  0  0  0  0  0  0  0
    8.3058    2.2800   -6.8978 H   0  0  0  0  0  0  0  0  0  0  0  0
   -1.3056    4.0175   -1.3803 H   0  0  0  0  0  0  0  0  0  0  0  0
  1  6  2  0  0  0  0
  2  3  2  0  0  0  0
  2  1  1  0  0  0  0
  3  4  1  0  0  0  0
  4 24  1  0  0  0  0
  4  5  2  0  0  0  0
  5 10  1  0  0  0  0
  6  5  1  0  0  0  0
  6 31  1  0  0  0  0
  7  1  1  0  0  0  0
  8  2  1  0  0  0  0
 11 12  1  0  0  0  0
 11  3  1  0  0  0  0
 13 19  1  0  0  0  0
 14 20  1  0  0  0  0
 14 13  1  0  0  0  0
 15 14  2  0  0  0  0
 16 17  2  0  0  0  0
 16 15  1  0  0  0  0
 17 18  1  0  0  0  0
 18 13  2  0  0  0  0
 18 23  1  0  0  0  0
 21 16  1  0  0  0  0
 22 17  1  0  0  0  0
 23 12  1  0  0  0  0
 23 25  2  0  0  0  0
 24  9  1  0  0  0  0
 26 23  2  0  0  0  0
 27 28  1  0  0  0  0
 27 15  1  0  0  0  0
 29 27  1  0  0  0  0
 30 27  1  0  0  0  0
M  RAD  2  11   2  12   2
M  END
