Coordinates from ORCA-job Ph-N2-X-OTs-B3LYPG-6-31G_dp-scan-d09-49-n400
 OpenBabel08281821363D

 31 32  0  0  0  0  0  0  0  0999 V2000
    0.8198    3.3451   -1.1677 C   0  0  0  0  0  0  0  0  0  0  0  0
    1.6914    2.3207   -1.4825 C   0  0  0  0  0  0  0  0  0  0  0  0
    1.3182    1.1393   -2.1664 C   0  0  0  0  0  0  0  0  0  0  0  0
   -0.0816    1.0050   -2.5509 C   0  0  0  0  0  0  0  0  0  0  0  0
   -0.9348    2.0764   -2.2112 C   0  0  0  0  0  0  0  0  0  0  0  0
   -0.5195    3.2161   -1.5426 C   0  0  0  0  0  0  0  0  0  0  0  0
    1.1714    4.2247   -0.6388 H   0  0  0  0  0  0  0  0  0  0  0  0
    2.7353    2.3902   -1.1974 H   0  0  0  0  0  0  0  0  0  0  0  0
   -1.6350    0.1971   -3.3107 H   0  0  0  0  0  0  0  0  0  0  0  0
   -1.9825    1.9915   -2.4953 H   0  0  0  0  0  0  0  0  0  0  0  0
    2.3621    0.1698   -2.4067 N   0  0  0  0  0  0  0  0  0  0  0  0
    3.5341    0.4675   -2.0311 N   0  0  0  0  0  0  0  0  0  0  0  0
    6.7478    0.7453   -3.0623 C   0  0  0  0  0  0  0  0  0  0  0  0
    7.5820    1.3712   -3.9847 C   0  0  0  0  0  0  0  0  0  0  0  0
    7.4372    1.1479   -5.3628 C   0  0  0  0  0  0  0  0  0  0  0  0
    6.4269    0.2784   -5.7993 C   0  0  0  0  0  0  0  0  0  0  0  0
    5.5797   -0.3548   -4.8928 C   0  0  0  0  0  0  0  0  0  0  0  0
    5.7501   -0.1144   -3.5282 C   0  0  0  0  0  0  0  0  0  0  0  0
    6.8703    0.9049   -1.9963 H   0  0  0  0  0  0  0  0  0  0  0  0
    8.3617    2.0407   -3.6306 H   0  0  0  0  0  0  0  0  0  0  0  0
    6.3044    0.0925   -6.8632 H   0  0  0  0  0  0  0  0  0  0  0  0
    4.8026   -1.0340   -5.2264 H   0  0  0  0  0  0  0  0  0  0  0  0
    4.6595   -0.9098   -2.3571 S   0  0  0  0  0  0  0  0  0  0  0  0
   -0.7036   -0.0366   -3.2154 O   0  0  0  0  0  0  0  0  0  0  0  0
    5.3618   -1.0700   -1.0800 O   0  0  0  0  0  0  0  0  0  0  0  0
    3.9848   -2.0278   -3.0183 O   0  0  0  0  0  0  0  0  0  0  0  0
    8.3707    1.8046   -6.3511 C   0  0  0  0  0  0  0  0  0  0  0  0
    8.6765    2.7987   -6.0133 H   0  0  0  0  0  0  0  0  0  0  0  0
    9.2833    1.2099   -6.4797 H   0  0  0  0  0  0  0  0  0  0  0  0
    7.9055    1.9055   -7.3355 H   0  0  0  0  0  0  0  0  0  0  0  0
   -1.2407    3.9951   -1.3135 H   0  0  0  0  0  0  0  0  0  0  0  0
  1  7  1  0  0  0  0
  2  8  1  0  0  0  0
  2  1  1  0  0  0  0
  3  2  2  0  0  0  0
  4  5  2  0  0  0  0
  4  3  1  0  0  0  0
  5  6  1  0  0  0  0
  6 31  1  0  0  0  0
  6  1  2  0  0  0  0
  9 24  1  0  0  0  0
 10  5  1  0  0  0  0
 11  3  1  0  0  0  0
 11 12  1  0  0  0  0
 13 19  1  0  0  0  0
 14 20  1  0  0  0  0
 14 13  2  0  0  0  0
 15 14  1  0  0  0  0
 16 15  2  0  0  0  0
 16 17  1  0  0  0  0
 17 18  2  0  0  0  0
 18 13  1  0  0  0  0
 18 23  1  0  0  0  0
 21 16  1  0  0  0  0
 22 17  1  0  0  0  0
 23 12  1  0  0  0  0
 23 25  2  0  0  0  0
 24  4  1  0  0  0  0
 26 23  2  0  0  0  0
 27 28  1  0  0  0  0
 27 15  1  0  0  0  0
 29 27  1  0  0  0  0
 30 27  1  0  0  0  0
M  RAD  2  11   2  12   2
M  END
