Coordinates from ORCA-job Ph-N2-X-OTs-B3LYPG-6-31G_dp-scan-d09-49-n400
 OpenBabel08281821363D

 31 32  0  0  0  0  0  0  0  0999 V2000
    0.8289    3.3305   -1.1723 C   0  0  0  0  0  0  0  0  0  0  0  0
    1.6850    2.2959   -1.4950 C   0  0  0  0  0  0  0  0  0  0  0  0
    1.3061    1.1159   -2.1795 C   0  0  0  0  0  0  0  0  0  0  0  0
   -0.1076    0.9953   -2.5611 C   0  0  0  0  0  0  0  0  0  0  0  0
   -0.9386    2.0816   -2.2101 C   0  0  0  0  0  0  0  0  0  0  0  0
   -0.5118    3.2166   -1.5412 C   0  0  0  0  0  0  0  0  0  0  0  0
    1.1948    4.2041   -0.6431 H   0  0  0  0  0  0  0  0  0  0  0  0
    2.7305    2.3558   -1.2136 H   0  0  0  0  0  0  0  0  0  0  0  0
   -1.7065    0.2534   -3.3003 H   0  0  0  0  0  0  0  0  0  0  0  0
   -1.9893    2.0131   -2.4878 H   0  0  0  0  0  0  0  0  0  0  0  0
    2.3726    0.1555   -2.4094 N   0  0  0  0  0  0  0  0  0  0  0  0
    3.5446    0.4622   -2.0269 N   0  0  0  0  0  0  0  0  0  0  0  0
    6.7549    0.7545   -3.0606 C   0  0  0  0  0  0  0  0  0  0  0  0
    7.5848    1.3818   -3.9860 C   0  0  0  0  0  0  0  0  0  0  0  0
    7.4412    1.1514   -5.3630 C   0  0  0  0  0  0  0  0  0  0  0  0
    6.4363    0.2735   -5.7955 C   0  0  0  0  0  0  0  0  0  0  0  0
    5.5934   -0.3611   -4.8861 C   0  0  0  0  0  0  0  0  0  0  0  0
    5.7626   -0.1136   -3.5226 C   0  0  0  0  0  0  0  0  0  0  0  0
    6.8765    0.9197   -1.9953 H   0  0  0  0  0  0  0  0  0  0  0  0
    8.3601    2.0578   -3.6351 H   0  0  0  0  0  0  0  0  0  0  0  0
    6.3148    0.0822   -6.8585 H   0  0  0  0  0  0  0  0  0  0  0  0
    4.8206   -1.0467   -5.2165 H   0  0  0  0  0  0  0  0  0  0  0  0
    4.6773   -0.9106   -2.3478 S   0  0  0  0  0  0  0  0  0  0  0  0
   -0.7851   -0.0233   -3.2267 O   0  0  0  0  0  0  0  0  0  0  0  0
    5.3799   -1.0604   -1.0699 O   0  0  0  0  0  0  0  0  0  0  0  0
    4.0090   -2.0353   -3.0038 O   0  0  0  0  0  0  0  0  0  0  0  0
    8.3701    1.8096   -6.3545 C   0  0  0  0  0  0  0  0  0  0  0  0
    8.6737    2.8052   -6.0188 H   0  0  0  0  0  0  0  0  0  0  0  0
    9.2842    1.2175   -6.4847 H   0  0  0  0  0  0  0  0  0  0  0  0
    7.9021    1.9077   -7.3379 H   0  0  0  0  0  0  0  0  0  0  0  0
   -1.2258    4.0011   -1.3086 H   0  0  0  0  0  0  0  0  0  0  0  0
  1  7  1  0  0  0  0
  2  8  1  0  0  0  0
  2  1  1  0  0  0  0
  3  2  2  0  0  0  0
  4  5  2  0  0  0  0
  4  3  1  0  0  0  0
  5  6  1  0  0  0  0
  6 31  1  0  0  0  0
  6  1  2  0  0  0  0
  9 24  1  0  0  0  0
 10  5  1  0  0  0  0
 11  3  1  0  0  0  0
 11 12  1  0  0  0  0
 13 19  1  0  0  0  0
 14 20  1  0  0  0  0
 14 13  2  0  0  0  0
 15 14  1  0  0  0  0
 16 15  2  0  0  0  0
 16 17  1  0  0  0  0
 17 18  2  0  0  0  0
 18 13  1  0  0  0  0
 18 23  1  0  0  0  0
 21 16  1  0  0  0  0
 22 17  1  0  0  0  0
 23 12  1  0  0  0  0
 23 25  2  0  0  0  0
 24  4  1  0  0  0  0
 26 23  2  0  0  0  0
 27 28  1  0  0  0  0
 27 15  1  0  0  0  0
 29 27  1  0  0  0  0
 30 27  1  0  0  0  0
M  RAD  2  11   2  12   2
M  END
