Coordinates from ORCA-job Ph-N2-X-OTs-B3LYPG-6-31G_dp-scan-d09-49-n400
 OpenBabel08281821363D

 31 30  0  0  0  0  0  0  0  0999 V2000
   -0.6165   -0.3716   -1.7677 C   0  0  0  0  0  0  0  0  0  0  0  0
    0.6408    0.2231   -1.7762 C   0  0  0  0  0  0  0  0  0  0  0  0
    0.7912    1.5060   -2.3250 C   0  0  0  0  0  0  0  0  0  0  0  0
   -0.3147    2.1876   -2.8514 C   0  0  0  0  0  0  0  0  0  0  0  0
   -1.5711    1.5882   -2.8322 C   0  0  0  0  0  0  0  0  0  0  0  0
   -1.7228    0.3068   -2.2934 C   0  0  0  0  0  0  0  0  0  0  0  0
   -0.7409   -1.3665   -1.3506 H   0  0  0  0  0  0  0  0  0  0  0  0
    1.5168   -0.2699   -1.3711 H   0  0  0  0  0  0  0  0  0  0  0  0
   -0.1763    3.1850   -3.2581 H   0  0  0  0  0  0  0  0  0  0  0  0
   -2.4311    2.1146   -3.2350 H   0  0  0  0  0  0  0  0  0  0  0  0
    2.0508    2.1754   -2.3790 N   0  0  0  0  0  0  0  0  0  0  0  0
    3.1038    3.2068   -4.1238 N   0  0  0  0  0  0  0  0  0  0  0  0
    6.0852    1.4368   -4.9653 C   0  0  0  0  0  0  0  0  0  0  0  0
    7.4497    1.7080   -5.0409 C   0  0  0  0  0  0  0  0  0  0  0  0
    8.3613    1.1273   -4.1480 C   0  0  0  0  0  0  0  0  0  0  0  0
    7.8553    0.2656   -3.1638 C   0  0  0  0  0  0  0  0  0  0  0  0
    6.4928   -0.0067   -3.0684 C   0  0  0  0  0  0  0  0  0  0  0  0
    5.5963    0.5797   -3.9729 C   0  0  0  0  0  0  0  0  0  0  0  0
    5.3882    1.8771   -5.6712 H   0  0  0  0  0  0  0  0  0  0  0  0
    7.8168    2.3783   -5.8157 H   0  0  0  0  0  0  0  0  0  0  0  0
    8.5385   -0.1903   -2.4511 H   0  0  0  0  0  0  0  0  0  0  0  0
    6.1240   -0.6600   -2.2814 H   0  0  0  0  0  0  0  0  0  0  0  0
    3.8690    0.1658   -3.8637 S   0  0  0  0  0  0  0  0  0  0  0  0
    2.5857    3.6432   -4.7611 O   0  0  0  0  0  0  0  0  0  0  0  0
    3.1014    1.2515   -4.7206 O   0  0  0  0  0  0  0  0  0  0  0  0
    2.9919    1.5966   -1.8179 O   0  0  0  0  0  0  0  0  0  0  0  0
    9.8433    1.3979   -4.2576 C   0  0  0  0  0  0  0  0  0  0  0  0
   10.3425    0.6478   -4.8847 H   0  0  0  0  0  0  0  0  0  0  0  0
   10.0403    2.3766   -4.7061 H   0  0  0  0  0  0  0  0  0  0  0  0
   10.3295    1.3733   -3.2773 H   0  0  0  0  0  0  0  0  0  0  0  0
   -2.7022   -0.1629   -2.2811 H   0  0  0  0  0  0  0  0  0  0  0  0
  1  7  1  0  0  0  0
  2  1  1  0  0  0  0
  2  8  1  0  0  0  0
  3  2  2  0  0  0  0
  4  5  2  0  0  0  0
  4  3  1  0  0  0  0
  5  6  1  0  0  0  0
  6 31  1  0  0  0  0
  6  1  2  0  0  0  0
  9  4  1  0  0  0  0
 10  5  1  0  0  0  0
 11  3  1  0  0  0  0
 11 26  2  0  0  0  0
 13 18  1  0  0  0  0
 14 13  2  0  0  0  0
 14 15  1  0  0  0  0
 15 16  2  0  0  0  0
 16 17  1  0  0  0  0
 16 21  1  0  0  0  0
 17 22  1  0  0  0  0
 18 23  1  0  0  0  0
 18 17  2  0  0  0  0
 19 13  1  0  0  0  0
 20 14  1  0  0  0  0
 24 12  2  0  0  0  0
 25 23  1  0  0  0  0
 27 15  1  0  0  0  0
 27 30  1  0  0  0  0
 28 27  1  0  0  0  0
 29 27  1  0  0  0  0
M  RAD  2  12   2  25   2
M  END
