Coordinates from ORCA-job Ph-N2-X-OTs-B3LYPG-6-31G_dp-scan-d09-49-n400
 OpenBabel08281821363D

 31 32  0  0  0  0  0  0  0  0999 V2000
   -1.0254    2.4482   -2.9552 C   0  0  0  0  0  0  0  0  0  0  0  0
    0.0263    1.6490   -3.3738 C   0  0  0  0  0  0  0  0  0  0  0  0
    1.1197    1.2972   -2.5478 C   0  0  0  0  0  0  0  0  0  0  0  0
    1.1187    1.8008   -1.2035 C   0  0  0  0  0  0  0  0  0  0  0  0
    0.0416    2.6069   -0.7992 C   0  0  0  0  0  0  0  0  0  0  0  0
   -1.0112    2.9312   -1.6461 C   0  0  0  0  0  0  0  0  0  0  0  0
   -1.8382    2.6888   -3.6316 H   0  0  0  0  0  0  0  0  0  0  0  0
    0.0579    1.2467   -4.3801 H   0  0  0  0  0  0  0  0  0  0  0  0
    1.8718    1.9705    0.5347 H   0  0  0  0  0  0  0  0  0  0  0  0
    0.0452    2.9880    0.2204 H   0  0  0  0  0  0  0  0  0  0  0  0
    2.0031    0.4758   -3.3065 N   0  0  0  0  0  0  0  0  0  0  0  0
    3.0760    0.0134   -2.8949 N   0  0  0  0  0  0  0  0  0  0  0  0
    6.3873   -0.4028   -3.3971 C   0  0  0  0  0  0  0  0  0  0  0  0
    7.6041    0.2624   -3.5250 C   0  0  0  0  0  0  0  0  0  0  0  0
    7.8496    1.1256   -4.6037 C   0  0  0  0  0  0  0  0  0  0  0  0
    6.8375    1.3125   -5.5568 C   0  0  0  0  0  0  0  0  0  0  0  0
    5.6117    0.6601   -5.4438 C   0  0  0  0  0  0  0  0  0  0  0  0
    5.3990   -0.1958   -4.3619 C   0  0  0  0  0  0  0  0  0  0  0  0
    6.2038   -1.0810   -2.5710 H   0  0  0  0  0  0  0  0  0  0  0  0
    8.3781    0.1060   -2.7778 H   0  0  0  0  0  0  0  0  0  0  0  0
    7.0130    1.9758   -6.3998 H   0  0  0  0  0  0  0  0  0  0  0  0
    4.8298    0.7975   -6.1832 H   0  0  0  0  0  0  0  0  0  0  0  0
    3.8259   -1.0281   -4.1972 S   0  0  0  0  0  0  0  0  0  0  0  0
    2.0981    1.5416   -0.3007 O   0  0  0  0  0  0  0  0  0  0  0  0
    4.0354   -2.3184   -3.5302 O   0  0  0  0  0  0  0  0  0  0  0  0
    3.0948   -0.9196   -5.4638 O   0  0  0  0  0  0  0  0  0  0  0  0
    9.1853    1.8137   -4.7522 C   0  0  0  0  0  0  0  0  0  0  0  0
    9.6481    2.0033   -3.7797 H   0  0  0  0  0  0  0  0  0  0  0  0
    9.8819    1.1935   -5.3303 H   0  0  0  0  0  0  0  0  0  0  0  0
    9.0883    2.7689   -5.2763 H   0  0  0  0  0  0  0  0  0  0  0  0
   -1.8174    3.5593   -1.2780 H   0  0  0  0  0  0  0  0  0  0  0  0
  1  6  1  0  0  0  0
  2  1  2  0  0  0  0
  2  3  1  0  0  0  0
  3  4  2  0  0  0  0
  4  5  1  0  0  0  0
  4 24  1  0  0  0  0
  5 10  1  0  0  0  0
  6 31  1  0  0  0  0
  6  5  2  0  0  0  0
  7  1  1  0  0  0  0
  8  2  1  0  0  0  0
 11 12  1  0  0  0  0
 11  3  1  0  0  0  0
 13 19  1  0  0  0  0
 14 13  1  0  0  0  0
 14 20  1  0  0  0  0
 15 14  2  0  0  0  0
 16 17  2  0  0  0  0
 16 15  1  0  0  0  0
 17 18  1  0  0  0  0
 18 23  1  0  0  0  0
 18 13  2  0  0  0  0
 21 16  1  0  0  0  0
 22 17  1  0  0  0  0
 23 25  2  0  0  0  0
 23 12  1  0  0  0  0
 24  9  1  0  0  0  0
 26 23  2  0  0  0  0
 27 15  1  0  0  0  0
 27 28  1  0  0  0  0
 29 27  1  0  0  0  0
 30 27  1  0  0  0  0
M  RAD  2  11   2  12   2
M  END
