Coordinates from ORCA-job Ph-N2-X-OTs-B3LYPG-6-31G_dp-scan-d09-49-n400
 OpenBabel08281821363D

 31 32  0  0  0  0  0  0  0  0999 V2000
   -1.0514    2.4365   -2.9310 C   0  0  0  0  0  0  0  0  0  0  0  0
   -0.0089    1.6415   -3.3803 C   0  0  0  0  0  0  0  0  0  0  0  0
    1.1063    1.2987   -2.5824 C   0  0  0  0  0  0  0  0  0  0  0  0
    1.1444    1.8054   -1.2426 C   0  0  0  0  0  0  0  0  0  0  0  0
    0.0779    2.6079   -0.8058 C   0  0  0  0  0  0  0  0  0  0  0  0
   -1.0008    2.9231   -1.6237 C   0  0  0  0  0  0  0  0  0  0  0  0
   -1.8856    2.6722   -3.5829 H   0  0  0  0  0  0  0  0  0  0  0  0
   -0.0039    1.2373   -4.3864 H   0  0  0  0  0  0  0  0  0  0  0  0
    1.9661    1.9764    0.4638 H   0  0  0  0  0  0  0  0  0  0  0  0
    0.1101    2.9923    0.2119 H   0  0  0  0  0  0  0  0  0  0  0  0
    1.9828    0.4781   -3.3451 N   0  0  0  0  0  0  0  0  0  0  0  0
    3.0544    0.0230   -2.9209 N   0  0  0  0  0  0  0  0  0  0  0  0
    6.3709   -0.3924   -3.3837 C   0  0  0  0  0  0  0  0  0  0  0  0
    7.5885    0.2728   -3.5040 C   0  0  0  0  0  0  0  0  0  0  0  0
    7.8445    1.1279   -4.5866 C   0  0  0  0  0  0  0  0  0  0  0  0
    6.8423    1.3066   -5.5517 C   0  0  0  0  0  0  0  0  0  0  0  0
    5.6160    0.6539   -5.4466 C   0  0  0  0  0  0  0  0  0  0  0  0
    5.3925   -0.1938   -4.3603 C   0  0  0  0  0  0  0  0  0  0  0  0
    6.1793   -1.0644   -2.5544 H   0  0  0  0  0  0  0  0  0  0  0  0
    8.3548    0.1228   -2.7476 H   0  0  0  0  0  0  0  0  0  0  0  0
    7.0261    1.9635   -6.3979 H   0  0  0  0  0  0  0  0  0  0  0  0
    4.8418    0.7848   -6.1952 H   0  0  0  0  0  0  0  0  0  0  0  0
    3.8188   -1.0270   -4.2060 S   0  0  0  0  0  0  0  0  0  0  0  0
    2.1590    1.5483   -0.3806 O   0  0  0  0  0  0  0  0  0  0  0  0
    4.0232   -2.3118   -3.5268 O   0  0  0  0  0  0  0  0  0  0  0  0
    3.1017   -0.9299   -5.4816 O   0  0  0  0  0  0  0  0  0  0  0  0
    9.1812    1.8161   -4.7265 C   0  0  0  0  0  0  0  0  0  0  0  0
    9.6362    2.0086   -3.7509 H   0  0  0  0  0  0  0  0  0  0  0  0
    9.8826    1.1945   -5.2974 H   0  0  0  0  0  0  0  0  0  0  0  0
    9.0881    2.7697   -5.2541 H   0  0  0  0  0  0  0  0  0  0  0  0
   -1.7994    3.5483   -1.2347 H   0  0  0  0  0  0  0  0  0  0  0  0
  1  6  1  0  0  0  0
  2  1  2  0  0  0  0
  2  3  1  0  0  0  0
  3  4  2  0  0  0  0
  4  5  1  0  0  0  0
  4 24  1  0  0  0  0
  5 10  1  0  0  0  0
  6 31  1  0  0  0  0
  6  5  2  0  0  0  0
  7  1  1  0  0  0  0
  8  2  1  0  0  0  0
 11 12  1  0  0  0  0
 11  3  1  0  0  0  0
 13 19  1  0  0  0  0
 14 13  1  0  0  0  0
 14 20  1  0  0  0  0
 15 14  2  0  0  0  0
 16 17  2  0  0  0  0
 16 15  1  0  0  0  0
 17 18  1  0  0  0  0
 18 23  1  0  0  0  0
 18 13  2  0  0  0  0
 21 16  1  0  0  0  0
 22 17  1  0  0  0  0
 23 25  2  0  0  0  0
 23 12  1  0  0  0  0
 24  9  1  0  0  0  0
 26 23  2  0  0  0  0
 27 15  1  0  0  0  0
 27 28  1  0  0  0  0
 29 27  1  0  0  0  0
 30 27  1  0  0  0  0
M  RAD  2  11   2  12   2
M  END
