Coordinates from ORCA-job Ph-N2-X-OTs-B3LYPG-6-31G_dp-scan-d09-49-n400
 OpenBabel08281821363D

 31 32  0  0  0  0  0  0  0  0999 V2000
    0.7431    3.4257   -1.1470 C   0  0  0  0  0  0  0  0  0  0  0  0
    1.7014    2.4630   -1.4194 C   0  0  0  0  0  0  0  0  0  0  0  0
    1.3683    1.2700   -2.0887 C   0  0  0  0  0  0  0  0  0  0  0  0
    0.0250    1.0493   -2.4874 C   0  0  0  0  0  0  0  0  0  0  0  0
   -0.9354    2.0344   -2.2061 C   0  0  0  0  0  0  0  0  0  0  0  0
   -0.5824    3.2048   -1.5458 C   0  0  0  0  0  0  0  0  0  0  0  0
    1.0149    4.3388   -0.6278 H   0  0  0  0  0  0  0  0  0  0  0  0
    2.7345    2.5971   -1.1186 H   0  0  0  0  0  0  0  0  0  0  0  0
   -1.2583   -0.0863   -3.3154 H   0  0  0  0  0  0  0  0  0  0  0  0
   -1.9658    1.8694   -2.5127 H   0  0  0  0  0  0  0  0  0  0  0  0
    2.3158    0.2568   -2.3775 N   0  0  0  0  0  0  0  0  0  0  0  0
    3.4944    0.5114   -2.0621 N   0  0  0  0  0  0  0  0  0  0  0  0
    6.7251    0.6877   -3.0780 C   0  0  0  0  0  0  0  0  0  0  0  0
    7.5859    1.3044   -3.9820 C   0  0  0  0  0  0  0  0  0  0  0  0
    7.4361    1.1237   -5.3658 C   0  0  0  0  0  0  0  0  0  0  0  0
    6.3933    0.3070   -5.8268 C   0  0  0  0  0  0  0  0  0  0  0  0
    5.5193   -0.3161   -4.9385 C   0  0  0  0  0  0  0  0  0  0  0  0
    5.6952   -0.1190   -3.5678 C   0  0  0  0  0  0  0  0  0  0  0  0
    6.8509    0.8138   -2.0079 H   0  0  0  0  0  0  0  0  0  0  0  0
    8.3907    1.9324   -3.6089 H   0  0  0  0  0  0  0  0  0  0  0  0
    6.2665    0.1542   -6.8955 H   0  0  0  0  0  0  0  0  0  0  0  0
    4.7169   -0.9550   -5.2913 H   0  0  0  0  0  0  0  0  0  0  0  0
    4.5710   -0.9008   -2.4185 S   0  0  0  0  0  0  0  0  0  0  0  0
   -0.3098   -0.0939   -3.1314 O   0  0  0  0  0  0  0  0  0  0  0  0
    5.2679   -1.1238   -1.1470 O   0  0  0  0  0  0  0  0  0  0  0  0
    3.8547   -1.9751   -3.1099 O   0  0  0  0  0  0  0  0  0  0  0  0
    8.3977    1.7691   -6.3343 C   0  0  0  0  0  0  0  0  0  0  0  0
    8.7317    2.7467   -5.9752 H   0  0  0  0  0  0  0  0  0  0  0  0
    9.2925    1.1487   -6.4675 H   0  0  0  0  0  0  0  0  0  0  0  0
    7.9441    1.9036   -7.3201 H   0  0  0  0  0  0  0  0  0  0  0  0
   -1.3457    3.9488   -1.3370 H   0  0  0  0  0  0  0  0  0  0  0  0
  1  7  1  0  0  0  0
  2  1  1  0  0  0  0
  2  8  1  0  0  0  0
  3  2  2  0  0  0  0
  4  5  2  0  0  0  0
  4  3  1  0  0  0  0
  5  6  1  0  0  0  0
  6 31  1  0  0  0  0
  6  1  2  0  0  0  0
  9 24  1  0  0  0  0
 10  5  1  0  0  0  0
 11  3  1  0  0  0  0
 11 12  1  0  0  0  0
 13 19  1  0  0  0  0
 14 20  1  0  0  0  0
 14 13  2  0  0  0  0
 15 14  1  0  0  0  0
 16 15  2  0  0  0  0
 16 17  1  0  0  0  0
 17 18  2  0  0  0  0
 18 13  1  0  0  0  0
 18 23  1  0  0  0  0
 21 16  1  0  0  0  0
 22 17  1  0  0  0  0
 23 12  1  0  0  0  0
 23 25  2  0  0  0  0
 24  4  1  0  0  0  0
 26 23  2  0  0  0  0
 27 28  1  0  0  0  0
 27 15  1  0  0  0  0
 29 27  1  0  0  0  0
 30 27  1  0  0  0  0
M  RAD  2  11   2  12   2
M  END
