Coordinates from ORCA-job Ph-N2-X-OTs-B3LYPG-6-31G_dp-scan-d09-49-n400
 OpenBabel08281821363D

 31 30  0  0  0  0  0  0  0  0999 V2000
   -0.0738    0.5768   -3.6856 C   0  0  0  0  0  0  0  0  0  0  0  0
    1.1702    0.4839   -3.0674 C   0  0  0  0  0  0  0  0  0  0  0  0
    1.5107    1.4946   -2.1659 C   0  0  0  0  0  0  0  0  0  0  0  0
    0.6800    2.5857   -1.8569 C   0  0  0  0  0  0  0  0  0  0  0  0
   -0.5581    2.6363   -2.4887 C   0  0  0  0  0  0  0  0  0  0  0  0
   -0.9351    1.6396   -3.3952 C   0  0  0  0  0  0  0  0  0  0  0  0
   -0.3681   -0.1902   -4.3943 H   0  0  0  0  0  0  0  0  0  0  0  0
    1.8462   -0.3364   -3.2852 H   0  0  0  0  0  0  0  0  0  0  0  0
    1.0358    3.3520   -1.1560 H   0  0  0  0  0  0  0  0  0  0  0  0
   -1.2286    3.4619   -2.2720 H   0  0  0  0  0  0  0  0  0  0  0  0
    2.7629    1.4983   -1.4961 N   0  0  0  0  0  0  0  0  0  0  0  0
    3.4876    2.0451   -0.8206 N   0  0  0  0  0  0  0  0  0  0  0  0
    5.6753   -0.3627   -4.8921 C   0  0  0  0  0  0  0  0  0  0  0  0
    6.6701    0.4372   -5.4551 C   0  0  0  0  0  0  0  0  0  0  0  0
    7.4776    1.2608   -4.6583 C   0  0  0  0  0  0  0  0  0  0  0  0
    7.2658    1.2647   -3.2697 C   0  0  0  0  0  0  0  0  0  0  0  0
    6.2774    0.4739   -2.6898 C   0  0  0  0  0  0  0  0  0  0  0  0
    5.4761   -0.3213   -3.5132 C   0  0  0  0  0  0  0  0  0  0  0  0
    5.0478   -1.0005   -5.5057 H   0  0  0  0  0  0  0  0  0  0  0  0
    6.8230    0.4196   -6.5315 H   0  0  0  0  0  0  0  0  0  0  0  0
    7.8837    1.8961   -2.6362 H   0  0  0  0  0  0  0  0  0  0  0  0
    6.1168    0.4838   -1.6165 H   0  0  0  0  0  0  0  0  0  0  0  0
    4.2416   -1.4283   -2.7590 S   0  0  0  0  0  0  0  0  0  0  0  0
    2.3545    4.3683   -0.1336 O   0  0  0  0  0  0  0  0  0  0  0  0
    3.3129   -1.8159   -3.8780 O   0  0  0  0  0  0  0  0  0  0  0  0
    3.6141   -0.6020   -1.6307 O   0  0  0  0  0  0  0  0  0  0  0  0
    8.5380    2.1407   -5.2746 C   0  0  0  0  0  0  0  0  0  0  0  0
    8.8111    1.7982   -6.2760 H   0  0  0  0  0  0  0  0  0  0  0  0
    8.1843    3.1752   -5.3656 H   0  0  0  0  0  0  0  0  0  0  0  0
    9.4450    2.1631   -4.6624 H   0  0  0  0  0  0  0  0  0  0  0  0
   -1.9052    1.6922   -3.8802 H   0  0  0  0  0  0  0  0  0  0  0  0
  1  6  2  0  0  0  0
  1  2  1  0  0  0  0
  2  3  2  0  0  0  0
  3  4  1  0  0  0  0
  3 11  1  0  0  0  0
  4  9  1  0  0  0  0
  5 10  1  0  0  0  0
  5  4  2  0  0  0  0
  6  5  1  0  0  0  0
  7  1  1  0  0  0  0
  8  2  1  0  0  0  0
 11 12  2  0  0  0  0
 13 18  1  0  0  0  0
 14 13  2  0  0  0  0
 14 15  1  0  0  0  0
 15 16  2  0  0  0  0
 16 17  1  0  0  0  0
 16 21  1  0  0  0  0
 17 22  1  0  0  0  0
 18 23  1  0  0  0  0
 18 17  2  0  0  0  0
 19 13  1  0  0  0  0
 20 14  1  0  0  0  0
 23 26  1  0  0  0  0
 25 23  1  0  0  0  0
 27 30  1  0  0  0  0
 27 15  1  0  0  0  0
 28 27  1  0  0  0  0
 29 27  1  0  0  0  0
 31  6  1  0  0  0  0
M  RAD  4  12   2  24   3  25   2  26   2
M  END
