Coordinates from ORCA-job Ph-N2-X-OTs-B3LYPG-6-31G_dp-scan-d09-49-n400
 OpenBabel08281821363D

 31 32  0  0  0  0  0  0  0  0999 V2000
   -0.6689    0.2486   -2.3644 C   0  0  0  0  0  0  0  0  0  0  0  0
    0.6767    0.1479   -2.0262 C   0  0  0  0  0  0  0  0  0  0  0  0
    1.5463    1.1855   -2.3879 C   0  0  0  0  0  0  0  0  0  0  0  0
    1.0951    2.3118   -3.0855 C   0  0  0  0  0  0  0  0  0  0  0  0
   -0.2542    2.3798   -3.4292 C   0  0  0  0  0  0  0  0  0  0  0  0
   -1.1374    1.3609   -3.0694 C   0  0  0  0  0  0  0  0  0  0  0  0
   -1.3505   -0.5464   -2.0789 H   0  0  0  0  0  0  0  0  0  0  0  0
    1.0511   -0.7134   -1.4894 H   0  0  0  0  0  0  0  0  0  0  0  0
    1.8024    3.0992   -3.3040 H   0  0  0  0  0  0  0  0  0  0  0  0
   -0.6148    3.2450   -3.9772 H   0  0  0  0  0  0  0  0  0  0  0  0
    2.9373    1.0590   -2.0273 N   0  0  0  0  0  0  0  0  0  0  0  0
    3.8579    1.8876   -1.8146 N   0  0  0  0  0  0  0  0  0  0  0  0
    5.3146    0.6735   -4.8242 C   0  0  0  0  0  0  0  0  0  0  0  0
    6.4114    1.4649   -5.1490 C   0  0  0  0  0  0  0  0  0  0  0  0
    7.5448    1.5092   -4.3210 C   0  0  0  0  0  0  0  0  0  0  0  0
    7.5548    0.7350   -3.1507 C   0  0  0  0  0  0  0  0  0  0  0  0
    6.4667   -0.0620   -2.8078 C   0  0  0  0  0  0  0  0  0  0  0  0
    5.3505   -0.0784   -3.6481 C   0  0  0  0  0  0  0  0  0  0  0  0
    4.4361    0.6276   -5.4595 H   0  0  0  0  0  0  0  0  0  0  0  0
    6.3893    2.0607   -6.0575 H   0  0  0  0  0  0  0  0  0  0  0  0
    8.4228    0.7649   -2.4980 H   0  0  0  0  0  0  0  0  0  0  0  0
    6.4785   -0.6425   -1.8897 H   0  0  0  0  0  0  0  0  0  0  0  0
    3.9807   -1.1649   -3.2496 S   0  0  2  0  0  0  0  0  0  0  0  0
    3.3194    3.5132   -1.9954 O   0  0  0  0  0  0  0  0  0  0  0  0
    3.0104   -1.0516   -4.3694 O   0  0  0  0  0  0  0  0  0  0  0  0
    3.3495   -0.2707   -1.8018 O   0  0  0  0  0  0  0  0  0  0  0  0
    8.7314    2.3620   -4.6964 C   0  0  0  0  0  0  0  0  0  0  0  0
    9.2714    1.9292   -5.5472 H   0  0  0  0  0  0  0  0  0  0  0  0
    8.4172    3.3681   -4.9905 H   0  0  0  0  0  0  0  0  0  0  0  0
    9.4370    2.4558   -3.8665 H   0  0  0  0  0  0  0  0  0  0  0  0
   -2.1879    1.4314   -3.3358 H   0  0  0  0  0  0  0  0  0  0  0  0
  1  7  1  0  0  0  0
  1  2  1  0  0  0  0
  2  8  1  0  0  0  0
  3 11  1  0  0  0  0
  3  2  2  0  0  0  0
  4  3  1  0  0  0  0
  5  4  2  0  0  0  0
  5  6  1  0  0  0  0
  6  1  2  0  0  0  0
  9  4  1  0  0  0  0
 10  5  1  0  0  0  0
 11 12  1  0  0  0  0
 11 26  1  0  0  0  0
 13 18  1  0  0  0  0
 14 13  2  0  0  0  0
 14 15  1  0  0  0  0
 15 16  2  0  0  0  0
 16 17  1  0  0  0  0
 16 21  1  0  0  0  0
 17 22  1  0  0  0  0
 18 23  1  0  0  0  0
 18 17  2  0  0  0  0
 19 13  1  0  0  0  0
 20 14  1  0  0  0  0
 23 25  1  6  0  0  0
 23 26  1  0  0  0  0
 24 12  1  0  0  0  0
 27 15  1  0  0  0  0
 27 30  1  0  0  0  0
 28 27  1  0  0  0  0
 29 27  1  0  0  0  0
 31  6  1  0  0  0  0
M  RAD  3  12   2  24   2  25   2
M  END
