Coordinates from ORCA-job Ph-N2-X-OTs-B3LYPG-6-31G_dp-scan-d09-49-n400
 OpenBabel08281821363D

 31 32  0  0  0  0  0  0  0  0999 V2000
   -0.3904   -0.2768   -1.8777 C   0  0  0  0  0  0  0  0  0  0  0  0
    0.8833    0.2378   -2.1035 C   0  0  0  0  0  0  0  0  0  0  0  0
    1.0345    1.5411   -2.6105 C   0  0  0  0  0  0  0  0  0  0  0  0
   -0.1080    2.3304   -2.8447 C   0  0  0  0  0  0  0  0  0  0  0  0
   -1.3746    1.7940   -2.6216 C   0  0  0  0  0  0  0  0  0  0  0  0
   -1.5265    0.4906   -2.1450 C   0  0  0  0  0  0  0  0  0  0  0  0
   -0.4940   -1.2830   -1.4821 H   0  0  0  0  0  0  0  0  0  0  0  0
    1.7633   -0.3455   -1.8641 H   0  0  0  0  0  0  0  0  0  0  0  0
   -0.0091    3.3551   -3.1767 H   0  0  0  0  0  0  0  0  0  0  0  0
   -2.2497    2.4092   -2.8102 H   0  0  0  0  0  0  0  0  0  0  0  0
    2.3114    2.0840   -2.8577 N   0  0  0  0  0  0  0  0  0  0  0  0
    2.6692    2.9593   -4.2263 N   0  0  0  0  0  0  0  0  0  0  0  0
    5.9640    1.4014   -4.8718 C   0  0  0  0  0  0  0  0  0  0  0  0
    7.3139    1.7370   -4.9059 C   0  0  0  0  0  0  0  0  0  0  0  0
    8.2288    1.1690   -4.0043 C   0  0  0  0  0  0  0  0  0  0  0  0
    7.7535    0.2478   -3.0601 C   0  0  0  0  0  0  0  0  0  0  0  0
    6.4058   -0.1050   -3.0165 C   0  0  0  0  0  0  0  0  0  0  0  0
    5.5174    0.4822   -3.9205 C   0  0  0  0  0  0  0  0  0  0  0  0
    5.2504    1.8375   -5.5630 H   0  0  0  0  0  0  0  0  0  0  0  0
    7.6675    2.4547   -5.6422 H   0  0  0  0  0  0  0  0  0  0  0  0
    8.4469   -0.2011   -2.3541 H   0  0  0  0  0  0  0  0  0  0  0  0
    6.0529   -0.8253   -2.2822 H   0  0  0  0  0  0  0  0  0  0  0  0
    3.7945    0.0108   -3.8528 S   0  0  2  0  0  0  0  0  0  0  0  0
    1.8213    3.3976   -4.7326 O   0  0  0  0  0  0  0  0  0  0  0  0
    3.1062    0.5757   -5.0611 O   0  0  0  0  0  0  0  0  0  0  0  0
    3.3787    1.3853   -2.5050 O   0  0  0  0  0  0  0  0  0  0  0  0
    9.6955    1.5196   -4.0713 C   0  0  0  0  0  0  0  0  0  0  0  0
   10.2257    0.8606   -4.7700 H   0  0  0  0  0  0  0  0  0  0  0  0
    9.8455    2.5465   -4.4170 H   0  0  0  0  0  0  0  0  0  0  0  0
   10.1786    1.4156   -3.0953 H   0  0  0  0  0  0  0  0  0  0  0  0
   -2.5173    0.0845   -1.9661 H   0  0  0  0  0  0  0  0  0  0  0  0
  1  7  1  0  0  0  0
  2  1  1  0  0  0  0
  2  8  1  0  0  0  0
  3  2  2  0  0  0  0
  4  5  2  0  0  0  0
  4  3  1  0  0  0  0
  5  6  1  0  0  0  0
  6 31  1  0  0  0  0
  6  1  2  0  0  0  0
  9  4  1  0  0  0  0
 10  5  1  0  0  0  0
 11  3  1  0  0  0  0
 11 26  1  0  0  0  0
 12 11  1  0  0  0  0
 13 18  1  0  0  0  0
 14 13  2  0  0  0  0
 14 15  1  0  0  0  0
 15 16  2  0  0  0  0
 16 17  1  0  0  0  0
 16 21  1  0  0  0  0
 17 22  1  0  0  0  0
 18 23  1  0  0  0  0
 18 17  2  0  0  0  0
 19 13  1  0  0  0  0
 20 14  1  0  0  0  0
 23 25  1  6  0  0  0
 23 26  1  0  0  0  0
 24 12  2  0  0  0  0
 27 15  1  0  0  0  0
 27 30  1  0  0  0  0
 28 27  1  0  0  0  0
 29 27  1  0  0  0  0
M  RAD  1  25   2
M  END
