Coordinates from ORCA-job Ph-N2-X-OTs-B3LYPG-6-31G_dp-scan-d09-49-n400
 OpenBabel08281821363D

 31 30  0  0  0  0  0  0  0  0999 V2000
   -0.1987    0.5351   -3.6150 C   0  0  0  0  0  0  0  0  0  0  0  0
    1.0829    0.4573   -3.0756 C   0  0  0  0  0  0  0  0  0  0  0  0
    1.4852    1.4862   -2.2225 C   0  0  0  0  0  0  0  0  0  0  0  0
    0.6724    2.5821   -1.8883 C   0  0  0  0  0  0  0  0  0  0  0  0
   -0.6056    2.6198   -2.4366 C   0  0  0  0  0  0  0  0  0  0  0  0
   -1.0410    1.6039   -3.2936 C   0  0  0  0  0  0  0  0  0  0  0  0
   -0.5380   -0.2477   -4.2855 H   0  0  0  0  0  0  0  0  0  0  0  0
    1.7440   -0.3669   -3.3192 H   0  0  0  0  0  0  0  0  0  0  0  0
    1.0903    3.3555   -1.2406 H   0  0  0  0  0  0  0  0  0  0  0  0
   -1.2613    3.4509   -2.1957 H   0  0  0  0  0  0  0  0  0  0  0  0
    2.7844    1.4921   -1.6417 N   0  0  0  0  0  0  0  0  0  0  0  0
    3.5265    2.1138   -1.0345 N   0  0  0  0  0  0  0  0  0  0  0  0
    5.6959   -0.3257   -4.8892 C   0  0  0  0  0  0  0  0  0  0  0  0
    6.7092    0.4667   -5.4292 C   0  0  0  0  0  0  0  0  0  0  0  0
    7.5083    1.2791   -4.6132 C   0  0  0  0  0  0  0  0  0  0  0  0
    7.2700    1.2797   -3.2284 C   0  0  0  0  0  0  0  0  0  0  0  0
    6.2646    0.4962   -2.6700 C   0  0  0  0  0  0  0  0  0  0  0  0
    5.4716   -0.2863   -3.5141 C   0  0  0  0  0  0  0  0  0  0  0  0
    5.0749   -0.9552   -5.5176 H   0  0  0  0  0  0  0  0  0  0  0  0
    6.8825    0.4518   -6.5023 H   0  0  0  0  0  0  0  0  0  0  0  0
    7.8791    1.9050   -2.5809 H   0  0  0  0  0  0  0  0  0  0  0  0
    6.0815    0.5073   -1.6006 H   0  0  0  0  0  0  0  0  0  0  0  0
    4.2125   -1.3803   -2.7955 S   0  0  0  0  0  0  0  0  0  0  0  0
    2.8094    4.1479   -0.5376 O   0  0  0  0  0  0  0  0  0  0  0  0
    3.3122   -1.7779   -3.9283 O   0  0  0  0  0  0  0  0  0  0  0  0
    3.5687   -0.5596   -1.6681 O   0  0  0  0  0  0  0  0  0  0  0  0
    8.5889    2.1514   -5.2038 C   0  0  0  0  0  0  0  0  0  0  0  0
    8.8514    1.8348   -6.2165 H   0  0  0  0  0  0  0  0  0  0  0  0
    8.2607    3.1967   -5.2588 H   0  0  0  0  0  0  0  0  0  0  0  0
    9.4973    2.1310   -4.5933 H   0  0  0  0  0  0  0  0  0  0  0  0
   -2.0404    1.6461   -3.7159 H   0  0  0  0  0  0  0  0  0  0  0  0
  1  6  2  0  0  0  0
  1  2  1  0  0  0  0
  2  3  2  0  0  0  0
  3  4  1  0  0  0  0
  3 11  1  0  0  0  0
  4  9  1  0  0  0  0
  5 10  1  0  0  0  0
  5  4  2  0  0  0  0
  6  5  1  0  0  0  0
  7  1  1  0  0  0  0
  8  2  1  0  0  0  0
 11 12  2  0  0  0  0
 13 18  1  0  0  0  0
 14 13  2  0  0  0  0
 14 15  1  0  0  0  0
 15 16  2  0  0  0  0
 16 17  1  0  0  0  0
 16 21  1  0  0  0  0
 17 22  1  0  0  0  0
 18 23  1  0  0  0  0
 18 17  2  0  0  0  0
 19 13  1  0  0  0  0
 20 14  1  0  0  0  0
 23 26  1  0  0  0  0
 25 23  1  0  0  0  0
 27 15  1  0  0  0  0
 27 30  1  0  0  0  0
 28 27  1  0  0  0  0
 29 27  1  0  0  0  0
 31  6  1  0  0  0  0
M  RAD  4  12   2  24   3  25   2  26   2
M  END
