Coordinates from ORCA-job Ph-N2-X-OTs-B3LYPG-6-31G_dp-scan-d09-49-n400
 OpenBabel08281821363D

 31 32  0  0  0  0  0  0  0  0999 V2000
    0.8387    3.3114   -1.1812 C   0  0  0  0  0  0  0  0  0  0  0  0
    1.6743    2.2635   -1.5140 C   0  0  0  0  0  0  0  0  0  0  0  0
    1.2884    1.0851   -2.1977 C   0  0  0  0  0  0  0  0  0  0  0  0
   -0.1472    0.9813   -2.5744 C   0  0  0  0  0  0  0  0  0  0  0  0
   -0.9468    2.0872   -2.2082 C   0  0  0  0  0  0  0  0  0  0  0  0
   -0.5037    3.2166   -1.5405 C   0  0  0  0  0  0  0  0  0  0  0  0
    1.2234    4.1774   -0.6529 H   0  0  0  0  0  0  0  0  0  0  0  0
    2.7221    2.3124   -1.2383 H   0  0  0  0  0  0  0  0  0  0  0  0
   -1.8062    0.3274   -3.2774 H   0  0  0  0  0  0  0  0  0  0  0  0
   -2.0016    2.0419   -2.4756 H   0  0  0  0  0  0  0  0  0  0  0  0
    2.3888    0.1371   -2.4125 N   0  0  0  0  0  0  0  0  0  0  0  0
    3.5614    0.4558   -2.0206 N   0  0  0  0  0  0  0  0  0  0  0  0
    6.7683    0.7642   -3.0581 C   0  0  0  0  0  0  0  0  0  0  0  0
    7.5926    1.3930   -3.9875 C   0  0  0  0  0  0  0  0  0  0  0  0
    7.4484    1.1560   -5.3633 C   0  0  0  0  0  0  0  0  0  0  0  0
    6.4488    0.2695   -5.7906 C   0  0  0  0  0  0  0  0  0  0  0  0
    5.6116   -0.3669   -4.8773 C   0  0  0  0  0  0  0  0  0  0  0  0
    5.7814   -0.1126   -3.5151 C   0  0  0  0  0  0  0  0  0  0  0  0
    6.8904    0.9347   -1.9938 H   0  0  0  0  0  0  0  0  0  0  0  0
    8.3639    2.0758   -3.6406 H   0  0  0  0  0  0  0  0  0  0  0  0
    6.3269    0.0731   -6.8526 H   0  0  0  0  0  0  0  0  0  0  0  0
    4.8429   -1.0591   -5.2038 H   0  0  0  0  0  0  0  0  0  0  0  0
    4.7032   -0.9117   -2.3356 S   0  0  0  0  0  0  0  0  0  0  0  0
   -0.9020   -0.0057   -3.2382 O   0  0  0  0  0  0  0  0  0  0  0  0
    5.4064   -1.0483   -1.0567 O   0  0  0  0  0  0  0  0  0  0  0  0
    4.0428   -2.0446   -2.9846 O   0  0  0  0  0  0  0  0  0  0  0  0
    8.3713    1.8162   -6.3590 C   0  0  0  0  0  0  0  0  0  0  0  0
    8.6744    2.8123   -6.0247 H   0  0  0  0  0  0  0  0  0  0  0  0
    9.2859    1.2259   -6.4936 H   0  0  0  0  0  0  0  0  0  0  0  0
    7.8984    1.9134   -7.3402 H   0  0  0  0  0  0  0  0  0  0  0  0
   -1.2080    4.0085   -1.3034 H   0  0  0  0  0  0  0  0  0  0  0  0
  1  7  1  0  0  0  0
  2  8  1  0  0  0  0
  2  1  1  0  0  0  0
  3  2  2  0  0  0  0
  4  5  2  0  0  0  0
  4  3  1  0  0  0  0
  5  6  1  0  0  0  0
  6 31  1  0  0  0  0
  6  1  2  0  0  0  0
  9 24  1  0  0  0  0
 10  5  1  0  0  0  0
 11  3  1  0  0  0  0
 11 12  1  0  0  0  0
 13 19  1  0  0  0  0
 14 20  1  0  0  0  0
 14 13  2  0  0  0  0
 15 14  1  0  0  0  0
 16 15  2  0  0  0  0
 16 17  1  0  0  0  0
 17 18  2  0  0  0  0
 18 13  1  0  0  0  0
 18 23  1  0  0  0  0
 21 16  1  0  0  0  0
 22 17  1  0  0  0  0
 23 12  1  0  0  0  0
 23 25  2  0  0  0  0
 24  4  1  0  0  0  0
 26 23  2  0  0  0  0
 27 28  1  0  0  0  0
 27 15  1  0  0  0  0
 29 27  1  0  0  0  0
 30 27  1  0  0  0  0
M  RAD  2  11   2  12   2
M  END
