Coordinates from ORCA-job Ph-N2-X-OTs-B3LYPG-6-31G_dp-scan-d09-49-n400
 OpenBabel08281821363D

 31 32  0  0  0  0  0  0  0  0999 V2000
    0.7990    3.3752   -1.1641 C   0  0  0  0  0  0  0  0  0  0  0  0
    1.7000    2.3703   -1.4635 C   0  0  0  0  0  0  0  0  0  0  0  0
    1.3375    1.1839   -2.1402 C   0  0  0  0  0  0  0  0  0  0  0  0
   -0.0406    1.0207   -2.5266 C   0  0  0  0  0  0  0  0  0  0  0  0
   -0.9329    2.0636   -2.2087 C   0  0  0  0  0  0  0  0  0  0  0  0
   -0.5374    3.2149   -1.5455 C   0  0  0  0  0  0  0  0  0  0  0  0
    1.1244    4.2679   -0.6404 H   0  0  0  0  0  0  0  0  0  0  0  0
    2.7413    2.4610   -1.1749 H   0  0  0  0  0  0  0  0  0  0  0  0
   -1.5058    0.0888   -3.3111 H   0  0  0  0  0  0  0  0  0  0  0  0
   -1.9752    1.9488   -2.5003 H   0  0  0  0  0  0  0  0  0  0  0  0
    2.3426    0.1973   -2.3994 N   0  0  0  0  0  0  0  0  0  0  0  0
    3.5165    0.4792   -2.0424 N   0  0  0  0  0  0  0  0  0  0  0  0
    6.7370    0.7253   -3.0666 C   0  0  0  0  0  0  0  0  0  0  0  0
    7.5806    1.3490   -3.9819 C   0  0  0  0  0  0  0  0  0  0  0  0
    7.4345    1.1411   -5.3623 C   0  0  0  0  0  0  0  0  0  0  0  0
    6.4132    0.2895   -5.8083 C   0  0  0  0  0  0  0  0  0  0  0  0
    5.5565   -0.3411   -4.9088 C   0  0  0  0  0  0  0  0  0  0  0  0
    5.7284   -0.1164   -3.5418 C   0  0  0  0  0  0  0  0  0  0  0  0
    6.8604    0.8727   -1.9989 H   0  0  0  0  0  0  0  0  0  0  0  0
    8.3688    2.0043   -3.6205 H   0  0  0  0  0  0  0  0  0  0  0  0
    6.2896    0.1155   -6.8741 H   0  0  0  0  0  0  0  0  0  0  0  0
    4.7709   -1.0068   -5.2498 H   0  0  0  0  0  0  0  0  0  0  0  0
    4.6260   -0.9086   -2.3791 S   0  0  0  0  0  0  0  0  0  0  0  0
   -0.5610   -0.0630   -3.1826 O   0  0  0  0  0  0  0  0  0  0  0  0
    5.3264   -1.0912   -1.1037 O   0  0  0  0  0  0  0  0  0  0  0  0
    3.9378   -2.0118   -3.0520 O   0  0  0  0  0  0  0  0  0  0  0  0
    8.3780    1.7949   -6.3429 C   0  0  0  0  0  0  0  0  0  0  0  0
    8.6908    2.7846   -5.9985 H   0  0  0  0  0  0  0  0  0  0  0  0
    9.2862    1.1932   -6.4707 H   0  0  0  0  0  0  0  0  0  0  0  0
    7.9181    1.9052   -7.3289 H   0  0  0  0  0  0  0  0  0  0  0  0
   -1.2721    3.9833   -1.3236 H   0  0  0  0  0  0  0  0  0  0  0  0
  1  7  1  0  0  0  0
  2  8  1  0  0  0  0
  2  1  1  0  0  0  0
  3  2  2  0  0  0  0
  4  5  2  0  0  0  0
  4  3  1  0  0  0  0
  5  6  1  0  0  0  0
  6 31  1  0  0  0  0
  6  1  2  0  0  0  0
  9 24  1  0  0  0  0
 10  5  1  0  0  0  0
 11  3  1  0  0  0  0
 11 12  1  0  0  0  0
 13 19  1  0  0  0  0
 14 20  1  0  0  0  0
 14 13  2  0  0  0  0
 15 14  1  0  0  0  0
 16 15  2  0  0  0  0
 16 17  1  0  0  0  0
 17 18  2  0  0  0  0
 18 13  1  0  0  0  0
 18 23  1  0  0  0  0
 21 16  1  0  0  0  0
 22 17  1  0  0  0  0
 23 12  1  0  0  0  0
 23 25  2  0  0  0  0
 24  4  1  0  0  0  0
 26 23  2  0  0  0  0
 27 28  1  0  0  0  0
 27 15  1  0  0  0  0
 29 27  1  0  0  0  0
 30 27  1  0  0  0  0
M  RAD  2  11   2  12   2
M  END
