Coordinates from ORCA-job Ph-N2-X-OTs-B3LYPG-6-31G_dp-scan-d09-49-n400
 OpenBabel08281821363D

 31 32  0  0  0  0  0  0  0  0999 V2000
    0.5514    3.6433   -2.3704 C   0  0  0  0  0  0  0  0  0  0  0  0
    1.4709    2.6738   -2.7802 C   0  0  0  0  0  0  0  0  0  0  0  0
    1.2543    1.3426   -2.4413 C   0  0  0  0  0  0  0  0  0  0  0  0
    0.1544    0.9637   -1.6620 C   0  0  0  0  0  0  0  0  0  0  0  0
   -0.7553    1.9346   -1.2432 C   0  0  0  0  0  0  0  0  0  0  0  0
   -0.5568    3.2696   -1.6089 C   0  0  0  0  0  0  0  0  0  0  0  0
    0.7020    4.6818   -2.6462 H   0  0  0  0  0  0  0  0  0  0  0  0
    2.3393    2.9339   -3.3767 H   0  0  0  0  0  0  0  0  0  0  0  0
   -0.7015   -0.5447   -0.8485 H   0  0  0  0  0  0  0  0  0  0  0  0
   -1.6061    1.6499   -0.6285 H   0  0  0  0  0  0  0  0  0  0  0  0
    2.0774    0.2645   -2.9072 N   0  0  0  0  0  0  0  0  0  0  0  0
    3.2203    0.2916   -2.4549 N   0  0  0  0  0  0  0  0  0  0  0  0
    6.5653    0.2688   -3.0767 C   0  0  0  0  0  0  0  0  0  0  0  0
    7.5881    0.9913   -3.6856 C   0  0  0  0  0  0  0  0  0  0  0  0
    7.5920    1.2176   -5.0710 C   0  0  0  0  0  0  0  0  0  0  0  0
    6.5379    0.7016   -5.8386 C   0  0  0  0  0  0  0  0  0  0  0  0
    5.5033   -0.0216   -5.2482 C   0  0  0  0  0  0  0  0  0  0  0  0
    5.5288   -0.2317   -3.8684 C   0  0  0  0  0  0  0  0  0  0  0  0
    6.5699    0.0801   -2.0086 H   0  0  0  0  0  0  0  0  0  0  0  0
    8.3990    1.3836   -3.0775 H   0  0  0  0  0  0  0  0  0  0  0  0
    6.5280    0.8671   -6.9128 H   0  0  0  0  0  0  0  0  0  0  0  0
    4.6912   -0.4301   -5.8401 H   0  0  0  0  0  0  0  0  0  0  0  0
    4.1955   -1.1360   -3.0958 S   0  0  0  0  0  0  0  0  0  0  0  0
    0.1135   -0.3536   -1.3314 O   0  0  0  0  0  0  0  0  0  0  0  0
    4.6924   -1.7805   -1.8760 O   0  0  0  0  0  0  0  0  0  0  0  0
    3.4553   -1.8698   -4.1253 O   0  0  0  0  0  0  0  0  0  0  0  0
    8.7234    1.9754   -5.7225 C   0  0  0  0  0  0  0  0  0  0  0  0
    9.0871    2.7830   -5.0800 H   0  0  0  0  0  0  0  0  0  0  0  0
    9.5732    1.3112   -5.9223 H   0  0  0  0  0  0  0  0  0  0  0  0
    8.4169    2.4102   -6.6776 H   0  0  0  0  0  0  0  0  0  0  0  0
   -1.2719    4.0196   -1.2853 H   0  0  0  0  0  0  0  0  0  0  0  0
  1  6  2  0  0  0  0
  2  3  2  0  0  0  0
  2  1  1  0  0  0  0
  3  4  1  0  0  0  0
  4 24  1  0  0  0  0
  4  5  2  0  0  0  0
  5 10  1  0  0  0  0
  6 31  1  0  0  0  0
  6  5  1  0  0  0  0
  7  1  1  0  0  0  0
  8  2  1  0  0  0  0
 11 12  1  0  0  0  0
 11  3  1  0  0  0  0
 13 19  1  0  0  0  0
 14 20  1  0  0  0  0
 14 13  1  0  0  0  0
 15 14  2  0  0  0  0
 16 17  2  0  0  0  0
 16 15  1  0  0  0  0
 17 18  1  0  0  0  0
 18 23  1  0  0  0  0
 18 13  2  0  0  0  0
 21 16  1  0  0  0  0
 22 17  1  0  0  0  0
 23 12  1  0  0  0  0
 23 25  2  0  0  0  0
 24  9  1  0  0  0  0
 26 23  2  0  0  0  0
 27 28  1  0  0  0  0
 27 15  1  0  0  0  0
 29 27  1  0  0  0  0
 30 27  1  0  0  0  0
M  RAD  2  11   2  12   2
M  END
