Coordinates from ORCA-job Ph-N2-X-OTs-B3LYPG-6-31G_dp-scan-d09-49-n400
 OpenBabel08281821363D

 31 32  0  0  0  0  0  0  0  0999 V2000
    0.8018    3.3710   -1.1640 C   0  0  0  0  0  0  0  0  0  0  0  0
    1.6992    2.3636   -1.4654 C   0  0  0  0  0  0  0  0  0  0  0  0
    1.3353    1.1781   -2.1436 C   0  0  0  0  0  0  0  0  0  0  0  0
   -0.0453    1.0190   -2.5303 C   0  0  0  0  0  0  0  0  0  0  0  0
   -0.9327    2.0655   -2.2096 C   0  0  0  0  0  0  0  0  0  0  0  0
   -0.5348    3.2151   -1.5452 C   0  0  0  0  0  0  0  0  0  0  0  0
    1.1305    4.2618   -0.6391 H   0  0  0  0  0  0  0  0  0  0  0  0
    2.7407    2.4512   -1.1767 H   0  0  0  0  0  0  0  0  0  0  0  0
   -1.5218    0.1031   -3.3131 H   0  0  0  0  0  0  0  0  0  0  0  0
   -1.9756    1.9546   -2.5008 H   0  0  0  0  0  0  0  0  0  0  0  0
    2.3452    0.1937   -2.4003 N   0  0  0  0  0  0  0  0  0  0  0  0
    3.5187    0.4776   -2.0405 N   0  0  0  0  0  0  0  0  0  0  0  0
    6.7383    0.7280   -3.0659 C   0  0  0  0  0  0  0  0  0  0  0  0
    7.5805    1.3520   -3.9824 C   0  0  0  0  0  0  0  0  0  0  0  0
    7.4344    1.1420   -5.3624 C   0  0  0  0  0  0  0  0  0  0  0  0
    6.4145    0.2879   -5.8070 C   0  0  0  0  0  0  0  0  0  0  0  0
    5.5593   -0.3430   -4.9063 C   0  0  0  0  0  0  0  0  0  0  0  0
    5.7311   -0.1161   -3.5397 C   0  0  0  0  0  0  0  0  0  0  0  0
    6.8617    0.8772   -1.9985 H   0  0  0  0  0  0  0  0  0  0  0  0
    8.3676    2.0093   -3.6220 H   0  0  0  0  0  0  0  0  0  0  0  0
    6.2909    0.1123   -6.8725 H   0  0  0  0  0  0  0  0  0  0  0  0
    4.7748   -1.0106   -5.2463 H   0  0  0  0  0  0  0  0  0  0  0  0
    4.6304   -0.9088   -2.3757 S   0  0  0  0  0  0  0  0  0  0  0  0
   -0.5784   -0.0593   -3.1881 O   0  0  0  0  0  0  0  0  0  0  0  0
    5.3313   -1.0882   -1.1001 O   0  0  0  0  0  0  0  0  0  0  0  0
    3.9440   -2.0141   -3.0469 O   0  0  0  0  0  0  0  0  0  0  0  0
    8.3764    1.7961   -6.3442 C   0  0  0  0  0  0  0  0  0  0  0  0
    8.6881    2.7866   -6.0009 H   0  0  0  0  0  0  0  0  0  0  0  0
    9.2853    1.1955   -6.4721 H   0  0  0  0  0  0  0  0  0  0  0  0
    7.9157    1.9049   -7.3300 H   0  0  0  0  0  0  0  0  0  0  0  0
   -1.2678    3.9848   -1.3224 H   0  0  0  0  0  0  0  0  0  0  0  0
  1  7  1  0  0  0  0
  2  8  1  0  0  0  0
  2  1  1  0  0  0  0
  3  2  2  0  0  0  0
  4  5  2  0  0  0  0
  4  3  1  0  0  0  0
  5  6  1  0  0  0  0
  6 31  1  0  0  0  0
  6  1  2  0  0  0  0
  9 24  1  0  0  0  0
 10  5  1  0  0  0  0
 11  3  1  0  0  0  0
 11 12  1  0  0  0  0
 13 19  1  0  0  0  0
 14 20  1  0  0  0  0
 14 13  2  0  0  0  0
 15 14  1  0  0  0  0
 16 15  2  0  0  0  0
 16 17  1  0  0  0  0
 17 18  2  0  0  0  0
 18 13  1  0  0  0  0
 18 23  1  0  0  0  0
 21 16  1  0  0  0  0
 22 17  1  0  0  0  0
 23 12  1  0  0  0  0
 23 25  2  0  0  0  0
 24  4  1  0  0  0  0
 26 23  2  0  0  0  0
 27 28  1  0  0  0  0
 27 15  1  0  0  0  0
 29 27  1  0  0  0  0
 30 27  1  0  0  0  0
M  RAD  2  11   2  12   2
M  END
