Coordinates from ORCA-job Ph-N2-X-OTs-B3LYPG-6-31G_dp-scan-d09-49-n400
 OpenBabel08281821363D

 31 32  0  0  0  0  0  0  0  0999 V2000
    0.7799    3.4016   -1.1668 C   0  0  0  0  0  0  0  0  0  0  0  0
    1.7041    2.4127   -1.4540 C   0  0  0  0  0  0  0  0  0  0  0  0
    1.3498    1.2198   -2.1191 C   0  0  0  0  0  0  0  0  0  0  0  0
   -0.0145    1.0302   -2.5020 C   0  0  0  0  0  0  0  0  0  0  0  0
   -0.9356    2.0501   -2.2009 C   0  0  0  0  0  0  0  0  0  0  0  0
   -0.5544    3.2134   -1.5475 C   0  0  0  0  0  0  0  0  0  0  0  0
    1.0853    4.3063   -0.6518 H   0  0  0  0  0  0  0  0  0  0  0  0
    2.7438    2.5232   -1.1667 H   0  0  0  0  0  0  0  0  0  0  0  0
   -1.4076    0.0015   -3.2932 H   0  0  0  0  0  0  0  0  0  0  0  0
   -1.9745    1.9114   -2.4930 H   0  0  0  0  0  0  0  0  0  0  0  0
    2.3270    0.2201   -2.3924 N   0  0  0  0  0  0  0  0  0  0  0  0
    3.5037    0.4903   -2.0556 N   0  0  0  0  0  0  0  0  0  0  0  0
    6.7297    0.7073   -3.0710 C   0  0  0  0  0  0  0  0  0  0  0  0
    7.5823    1.3292   -3.9790 C   0  0  0  0  0  0  0  0  0  0  0  0
    7.4367    1.1353   -5.3615 C   0  0  0  0  0  0  0  0  0  0  0  0
    6.4064    0.2997   -5.8170 C   0  0  0  0  0  0  0  0  0  0  0  0
    5.5407   -0.3289   -4.9246 C   0  0  0  0  0  0  0  0  0  0  0  0
    5.7123   -0.1183   -3.5554 C   0  0  0  0  0  0  0  0  0  0  0  0
    6.8526    0.8437   -2.0018 H   0  0  0  0  0  0  0  0  0  0  0  0
    8.3775    1.9720   -3.6102 H   0  0  0  0  0  0  0  0  0  0  0  0
    6.2830    0.1366   -6.8846 H   0  0  0  0  0  0  0  0  0  0  0  0
    4.7481   -0.9823   -5.2731 H   0  0  0  0  0  0  0  0  0  0  0  0
    4.5985   -0.9079   -2.4015 S   0  0  0  0  0  0  0  0  0  0  0  0
   -0.4573   -0.0855   -3.1446 O   0  0  0  0  0  0  0  0  0  0  0  0
    5.2960   -1.1107   -1.1272 O   0  0  0  0  0  0  0  0  0  0  0  0
    3.8986   -1.9971   -3.0853 O   0  0  0  0  0  0  0  0  0  0  0  0
    8.3897    1.7869   -6.3344 C   0  0  0  0  0  0  0  0  0  0  0  0
    8.7105    2.7713   -5.9820 H   0  0  0  0  0  0  0  0  0  0  0  0
    9.2927    1.1776   -6.4631 H   0  0  0  0  0  0  0  0  0  0  0  0
    7.9345    1.9083   -7.3211 H   0  0  0  0  0  0  0  0  0  0  0  0
   -1.3001    3.9730   -1.3315 H   0  0  0  0  0  0  0  0  0  0  0  0
  1  7  1  0  0  0  0
  2  1  1  0  0  0  0
  2  8  1  0  0  0  0
  3  2  2  0  0  0  0
  4  5  2  0  0  0  0
  4  3  1  0  0  0  0
  5  6  1  0  0  0  0
  6 31  1  0  0  0  0
  6  1  2  0  0  0  0
  9 24  1  0  0  0  0
 10  5  1  0  0  0  0
 11  3  1  0  0  0  0
 11 12  1  0  0  0  0
 13 19  1  0  0  0  0
 14 20  1  0  0  0  0
 14 13  2  0  0  0  0
 15 14  1  0  0  0  0
 16 15  2  0  0  0  0
 16 17  1  0  0  0  0
 17 18  2  0  0  0  0
 18 13  1  0  0  0  0
 18 23  1  0  0  0  0
 21 16  1  0  0  0  0
 22 17  1  0  0  0  0
 23 12  1  0  0  0  0
 23 25  2  0  0  0  0
 24  4  1  0  0  0  0
 26 23  2  0  0  0  0
 27 28  1  0  0  0  0
 27 15  1  0  0  0  0
 29 27  1  0  0  0  0
 30 27  1  0  0  0  0
M  RAD  2  11   2  12   2
M  END
