Coordinates from ORCA-job Ph-N2-X-OTs-B3LYPG-6-31G_dp-scan-d09-49-n400
 OpenBabel08281821363D

 31 30  0  0  0  0  0  0  0  0999 V2000
   -0.1010    0.5674   -3.6700 C   0  0  0  0  0  0  0  0  0  0  0  0
    1.1515    0.4778   -3.0687 C   0  0  0  0  0  0  0  0  0  0  0  0
    1.5059    1.4930   -2.1782 C   0  0  0  0  0  0  0  0  0  0  0  0
    0.6799    2.5860   -1.8642 C   0  0  0  0  0  0  0  0  0  0  0  0
   -0.5672    2.6338   -2.4783 C   0  0  0  0  0  0  0  0  0  0  0  0
   -0.9577    1.6323   -3.3736 C   0  0  0  0  0  0  0  0  0  0  0  0
   -0.4058   -0.2034   -4.3702 H   0  0  0  0  0  0  0  0  0  0  0  0
    1.8244   -0.3436   -3.2916 H   0  0  0  0  0  0  0  0  0  0  0  0
    1.0498    3.3540   -1.1741 H   0  0  0  0  0  0  0  0  0  0  0  0
   -1.2343    3.4610   -2.2569 H   0  0  0  0  0  0  0  0  0  0  0  0
    2.7691    1.4981   -1.5279 N   0  0  0  0  0  0  0  0  0  0  0  0
    3.5000    2.0595   -0.8686 N   0  0  0  0  0  0  0  0  0  0  0  0
    5.6816   -0.3579   -4.8925 C   0  0  0  0  0  0  0  0  0  0  0  0
    6.6800    0.4416   -5.4497 C   0  0  0  0  0  0  0  0  0  0  0  0
    7.4830    1.2650   -4.6484 C   0  0  0  0  0  0  0  0  0  0  0  0
    7.2633    1.2691   -3.2609 C   0  0  0  0  0  0  0  0  0  0  0  0
    6.2716    0.4786   -2.6864 C   0  0  0  0  0  0  0  0  0  0  0  0
    5.4747   -0.3160   -3.5147 C   0  0  0  0  0  0  0  0  0  0  0  0
    5.0575   -0.9954   -5.5097 H   0  0  0  0  0  0  0  0  0  0  0  0
    6.8391    0.4238   -6.5252 H   0  0  0  0  0  0  0  0  0  0  0  0
    7.8772    1.9008   -2.6239 H   0  0  0  0  0  0  0  0  0  0  0  0
    6.1047    0.4892   -1.6141 H   0  0  0  0  0  0  0  0  0  0  0  0
    4.2353   -1.4217   -2.7689 S   0  0  0  0  0  0  0  0  0  0  0  0
    2.4572    4.3303   -0.2096 O   0  0  0  0  0  0  0  0  0  0  0  0
    3.3127   -1.8104   -3.8915 O   0  0  0  0  0  0  0  0  0  0  0  0
    3.6040   -0.5976   -1.6407 O   0  0  0  0  0  0  0  0  0  0  0  0
    8.5471    2.1447   -5.2584 C   0  0  0  0  0  0  0  0  0  0  0  0
    8.8224    1.8051   -6.2602 H   0  0  0  0  0  0  0  0  0  0  0  0
    8.1957    3.1802   -5.3467 H   0  0  0  0  0  0  0  0  0  0  0  0
    9.4522    2.1631   -4.6433 H   0  0  0  0  0  0  0  0  0  0  0  0
   -1.9346    1.6827   -3.8451 H   0  0  0  0  0  0  0  0  0  0  0  0
  1  6  2  0  0  0  0
  1  2  1  0  0  0  0
  2  3  2  0  0  0  0
  3  4  1  0  0  0  0
  3 11  1  0  0  0  0
  4  9  1  0  0  0  0
  5 10  1  0  0  0  0
  5  4  2  0  0  0  0
  6  5  1  0  0  0  0
  7  1  1  0  0  0  0
  8  2  1  0  0  0  0
 11 12  2  0  0  0  0
 13 18  1  0  0  0  0
 14 13  2  0  0  0  0
 14 15  1  0  0  0  0
 15 16  2  0  0  0  0
 16 17  1  0  0  0  0
 16 21  1  0  0  0  0
 17 22  1  0  0  0  0
 18 23  1  0  0  0  0
 18 17  2  0  0  0  0
 19 13  1  0  0  0  0
 20 14  1  0  0  0  0
 23 26  1  0  0  0  0
 25 23  1  0  0  0  0
 27 15  1  0  0  0  0
 27 30  1  0  0  0  0
 28 27  1  0  0  0  0
 29 27  1  0  0  0  0
 31  6  1  0  0  0  0
M  RAD  4  12   2  24   3  25   2  26   2
M  END
