Coordinates from ORCA-job Ph-N2-X-OTs-B3LYPG-6-31G_dp-scan-d09-49-n400
 OpenBabel08281821363D

 31 32  0  0  0  0  0  0  0  0999 V2000
    0.8361    3.3172   -1.1788 C   0  0  0  0  0  0  0  0  0  0  0  0
    1.6778    2.2734   -1.5088 C   0  0  0  0  0  0  0  0  0  0  0  0
    1.2938    1.0944   -2.1926 C   0  0  0  0  0  0  0  0  0  0  0  0
   -0.1350    0.9855   -2.5702 C   0  0  0  0  0  0  0  0  0  0  0  0
   -0.9442    2.0855   -2.2083 C   0  0  0  0  0  0  0  0  0  0  0  0
   -0.5060    3.2167   -1.5405 C   0  0  0  0  0  0  0  0  0  0  0  0
    1.2153    4.1856   -0.6503 H   0  0  0  0  0  0  0  0  0  0  0  0
    2.7250    2.3255   -1.2317 H   0  0  0  0  0  0  0  0  0  0  0  0
   -1.7764    0.3048   -3.2840 H   0  0  0  0  0  0  0  0  0  0  0  0
   -1.9980    2.0328   -2.4784 H   0  0  0  0  0  0  0  0  0  0  0  0
    2.3836    0.1427   -2.4121 N   0  0  0  0  0  0  0  0  0  0  0  0
    3.5559    0.4577   -2.0229 N   0  0  0  0  0  0  0  0  0  0  0  0
    6.7639    0.7615   -3.0589 C   0  0  0  0  0  0  0  0  0  0  0  0
    7.5900    1.3898   -3.9869 C   0  0  0  0  0  0  0  0  0  0  0  0
    7.4463    1.1547   -5.3631 C   0  0  0  0  0  0  0  0  0  0  0  0
    6.4452    0.2706   -5.7921 C   0  0  0  0  0  0  0  0  0  0  0  0
    5.6062   -0.3652   -4.8801 C   0  0  0  0  0  0  0  0  0  0  0  0
    5.7755   -0.1128   -3.5174 C   0  0  0  0  0  0  0  0  0  0  0  0
    6.8856    0.9305   -1.9942 H   0  0  0  0  0  0  0  0  0  0  0  0
    8.3624    2.0707   -3.6387 H   0  0  0  0  0  0  0  0  0  0  0  0
    6.3237    0.0756   -6.8544 H   0  0  0  0  0  0  0  0  0  0  0  0
    4.8363   -1.0555   -5.2078 H   0  0  0  0  0  0  0  0  0  0  0  0
    4.6950   -0.9113   -2.3395 S   0  0  0  0  0  0  0  0  0  0  0  0
   -0.8666   -0.0114   -3.2341 O   0  0  0  0  0  0  0  0  0  0  0  0
    5.3979   -1.0519   -1.0608 O   0  0  0  0  0  0  0  0  0  0  0  0
    4.0323   -2.0418   -2.9907 O   0  0  0  0  0  0  0  0  0  0  0  0
    8.3711    1.8142   -6.3574 C   0  0  0  0  0  0  0  0  0  0  0  0
    8.6743    2.8102   -6.0227 H   0  0  0  0  0  0  0  0  0  0  0  0
    9.2856    1.2234   -6.4905 H   0  0  0  0  0  0  0  0  0  0  0  0
    7.8999    1.9116   -7.3394 H   0  0  0  0  0  0  0  0  0  0  0  0
   -1.2132    4.0063   -1.3045 H   0  0  0  0  0  0  0  0  0  0  0  0
  1  7  1  0  0  0  0
  2  8  1  0  0  0  0
  2  1  1  0  0  0  0
  3  2  2  0  0  0  0
  4  5  2  0  0  0  0
  4  3  1  0  0  0  0
  5  6  1  0  0  0  0
  6 31  1  0  0  0  0
  6  1  2  0  0  0  0
  9 24  1  0  0  0  0
 10  5  1  0  0  0  0
 11  3  1  0  0  0  0
 11 12  1  0  0  0  0
 13 19  1  0  0  0  0
 14 20  1  0  0  0  0
 14 13  2  0  0  0  0
 15 14  1  0  0  0  0
 16 15  2  0  0  0  0
 16 17  1  0  0  0  0
 17 18  2  0  0  0  0
 18 13  1  0  0  0  0
 18 23  1  0  0  0  0
 21 16  1  0  0  0  0
 22 17  1  0  0  0  0
 23 12  1  0  0  0  0
 23 25  2  0  0  0  0
 24  4  1  0  0  0  0
 26 23  2  0  0  0  0
 27 28  1  0  0  0  0
 27 15  1  0  0  0  0
 29 27  1  0  0  0  0
 30 27  1  0  0  0  0
M  RAD  2  11   2  12   2
M  END
