Coordinates from ORCA-job Ph-N2-X-OTs-B3LYPG-6-31G_dp-scan-d09-49-n400
 OpenBabel08281821363D

 31 32  0  0  0  0  0  0  0  0999 V2000
   -1.0546    2.4354   -2.9278 C   0  0  0  0  0  0  0  0  0  0  0  0
   -0.0137    1.6406   -3.3812 C   0  0  0  0  0  0  0  0  0  0  0  0
    1.1043    1.2987   -2.5872 C   0  0  0  0  0  0  0  0  0  0  0  0
    1.1478    1.8056   -1.2480 C   0  0  0  0  0  0  0  0  0  0  0  0
    0.0831    2.6079   -0.8068 C   0  0  0  0  0  0  0  0  0  0  0  0
   -0.9989    2.9224   -1.6208 C   0  0  0  0  0  0  0  0  0  0  0  0
   -1.8915    2.6708   -3.5762 H   0  0  0  0  0  0  0  0  0  0  0  0
   -0.0124    1.2362   -4.3873 H   0  0  0  0  0  0  0  0  0  0  0  0
    1.9787    1.9760    0.4539 H   0  0  0  0  0  0  0  0  0  0  0  0
    0.1192    2.9927    0.2106 H   0  0  0  0  0  0  0  0  0  0  0  0
    1.9799    0.4781   -3.3503 N   0  0  0  0  0  0  0  0  0  0  0  0
    3.0515    0.0243   -2.9245 N   0  0  0  0  0  0  0  0  0  0  0  0
    6.3686   -0.3908   -3.3817 C   0  0  0  0  0  0  0  0  0  0  0  0
    7.5862    0.2745   -3.5010 C   0  0  0  0  0  0  0  0  0  0  0  0
    7.8437    1.1284   -4.5843 C   0  0  0  0  0  0  0  0  0  0  0  0
    6.8429    1.3057   -5.5511 C   0  0  0  0  0  0  0  0  0  0  0  0
    5.6165    0.6528   -5.4469 C   0  0  0  0  0  0  0  0  0  0  0  0
    5.3916   -0.1936   -4.3600 C   0  0  0  0  0  0  0  0  0  0  0  0
    6.1759   -1.0619   -2.5519 H   0  0  0  0  0  0  0  0  0  0  0  0
    8.3514    0.1256   -2.7433 H   0  0  0  0  0  0  0  0  0  0  0  0
    7.0278    1.9616   -6.3978 H   0  0  0  0  0  0  0  0  0  0  0  0
    4.8434    0.7826   -6.1969 H   0  0  0  0  0  0  0  0  0  0  0  0
    3.8179   -1.0270   -4.2070 S   0  0  0  0  0  0  0  0  0  0  0  0
    2.1669    1.5482   -0.3916 O   0  0  0  0  0  0  0  0  0  0  0  0
    4.0216   -2.3109   -3.5260 O   0  0  0  0  0  0  0  0  0  0  0  0
    3.1027   -0.9318   -5.4838 O   0  0  0  0  0  0  0  0  0  0  0  0
    9.1804    1.8167   -4.7231 C   0  0  0  0  0  0  0  0  0  0  0  0
    9.6343    2.0098   -3.7470 H   0  0  0  0  0  0  0  0  0  0  0  0
    9.8825    1.1949   -5.2928 H   0  0  0  0  0  0  0  0  0  0  0  0
    9.0877    2.7700   -5.2513 H   0  0  0  0  0  0  0  0  0  0  0  0
   -1.7962    3.5474   -1.2289 H   0  0  0  0  0  0  0  0  0  0  0  0
  1  6  1  0  0  0  0
  2  1  2  0  0  0  0
  2  3  1  0  0  0  0
  3  4  2  0  0  0  0
  4  5  1  0  0  0  0
  4 24  1  0  0  0  0
  5 10  1  0  0  0  0
  6 31  1  0  0  0  0
  6  5  2  0  0  0  0
  7  1  1  0  0  0  0
  8  2  1  0  0  0  0
 11 12  1  0  0  0  0
 11  3  1  0  0  0  0
 13 19  1  0  0  0  0
 14 13  1  0  0  0  0
 14 20  1  0  0  0  0
 15 14  2  0  0  0  0
 16 17  2  0  0  0  0
 16 15  1  0  0  0  0
 17 18  1  0  0  0  0
 18 23  1  0  0  0  0
 18 13  2  0  0  0  0
 21 16  1  0  0  0  0
 22 17  1  0  0  0  0
 23 25  2  0  0  0  0
 23 12  1  0  0  0  0
 24  9  1  0  0  0  0
 26 23  2  0  0  0  0
 27 15  1  0  0  0  0
 27 28  1  0  0  0  0
 29 27  1  0  0  0  0
 30 27  1  0  0  0  0
M  RAD  2  11   2  12   2
M  END
