Coordinates from ORCA-job Ph-N2-X-OTs-B3LYPG-6-31G_dp-scan-d09-49-n400
 OpenBabel08281821363D

 31 32  0  0  0  0  0  0  0  0999 V2000
    0.8046    3.3670   -1.1640 C   0  0  0  0  0  0  0  0  0  0  0  0
    1.6982    2.3571   -1.4674 C   0  0  0  0  0  0  0  0  0  0  0  0
    1.3331    1.1723   -2.1469 C   0  0  0  0  0  0  0  0  0  0  0  0
   -0.0501    1.0172   -2.5338 C   0  0  0  0  0  0  0  0  0  0  0  0
   -0.9326    2.0673   -2.2104 C   0  0  0  0  0  0  0  0  0  0  0  0
   -0.5323    3.2152   -1.5448 C   0  0  0  0  0  0  0  0  0  0  0  0
    1.1366    4.2560   -0.6382 H   0  0  0  0  0  0  0  0  0  0  0  0
    2.7400    2.4418   -1.1789 H   0  0  0  0  0  0  0  0  0  0  0  0
   -1.5380    0.1172   -3.3143 H   0  0  0  0  0  0  0  0  0  0  0  0
   -1.9761    1.9603   -2.5010 H   0  0  0  0  0  0  0  0  0  0  0  0
    2.3477    0.1901   -2.4013 N   0  0  0  0  0  0  0  0  0  0  0  0
    3.5209    0.4760   -2.0387 N   0  0  0  0  0  0  0  0  0  0  0  0
    6.7396    0.7307   -3.0653 C   0  0  0  0  0  0  0  0  0  0  0  0
    7.5805    1.3550   -3.9828 C   0  0  0  0  0  0  0  0  0  0  0  0
    7.4345    1.1429   -5.3625 C   0  0  0  0  0  0  0  0  0  0  0  0
    6.4160    0.2864   -5.8057 C   0  0  0  0  0  0  0  0  0  0  0  0
    5.5621   -0.3449   -4.9041 C   0  0  0  0  0  0  0  0  0  0  0  0
    5.7338   -0.1159   -3.5378 C   0  0  0  0  0  0  0  0  0  0  0  0
    6.8630    0.8815   -1.9981 H   0  0  0  0  0  0  0  0  0  0  0  0
    8.3665    2.0142   -3.6235 H   0  0  0  0  0  0  0  0  0  0  0  0
    6.2925    0.1091   -6.8710 H   0  0  0  0  0  0  0  0  0  0  0  0
    4.7787   -1.0143   -5.2430 H   0  0  0  0  0  0  0  0  0  0  0  0
    4.6348   -0.9089   -2.3726 S   0  0  0  0  0  0  0  0  0  0  0  0
   -0.5959   -0.0558   -3.1932 O   0  0  0  0  0  0  0  0  0  0  0  0
    5.3360   -1.0853   -1.0968 O   0  0  0  0  0  0  0  0  0  0  0  0
    3.9502   -2.0162   -3.0421 O   0  0  0  0  0  0  0  0  0  0  0  0
    8.3750    1.7974   -6.3454 C   0  0  0  0  0  0  0  0  0  0  0  0
    8.6857    2.7885   -6.0031 H   0  0  0  0  0  0  0  0  0  0  0  0
    9.2846    1.1978   -6.4733 H   0  0  0  0  0  0  0  0  0  0  0  0
    7.9136    1.9048   -7.3310 H   0  0  0  0  0  0  0  0  0  0  0  0
   -1.2636    3.9864   -1.3211 H   0  0  0  0  0  0  0  0  0  0  0  0
  1  7  1  0  0  0  0
  2  8  1  0  0  0  0
  2  1  1  0  0  0  0
  3  2  2  0  0  0  0
  4  5  2  0  0  0  0
  4  3  1  0  0  0  0
  5  6  1  0  0  0  0
  6 31  1  0  0  0  0
  6  1  2  0  0  0  0
  9 24  1  0  0  0  0
 10  5  1  0  0  0  0
 11  3  1  0  0  0  0
 11 12  1  0  0  0  0
 13 19  1  0  0  0  0
 14 20  1  0  0  0  0
 14 13  2  0  0  0  0
 15 14  1  0  0  0  0
 16 15  2  0  0  0  0
 16 17  1  0  0  0  0
 17 18  2  0  0  0  0
 18 13  1  0  0  0  0
 18 23  1  0  0  0  0
 21 16  1  0  0  0  0
 22 17  1  0  0  0  0
 23 12  1  0  0  0  0
 23 25  2  0  0  0  0
 24  4  1  0  0  0  0
 26 23  2  0  0  0  0
 27 28  1  0  0  0  0
 27 15  1  0  0  0  0
 29 27  1  0  0  0  0
 30 27  1  0  0  0  0
M  RAD  2  11   2  12   2
M  END
