Coordinates from ORCA-job Ph-N2-X-OTs-B3LYPG-6-31G_dp-scan-d09-49-n400
 OpenBabel08281821363D

 31 31  0  0  0  0  0  0  0  0999 V2000
   -0.6478    0.2401   -2.4335 C   0  0  0  0  0  0  0  0  0  0  0  0
    0.6906    0.1263   -2.0715 C   0  0  0  0  0  0  0  0  0  0  0  0
    1.5624    1.1784   -2.3797 C   0  0  0  0  0  0  0  0  0  0  0  0
    1.1285    2.3306   -3.0433 C   0  0  0  0  0  0  0  0  0  0  0  0
   -0.2136    2.4106   -3.4117 C   0  0  0  0  0  0  0  0  0  0  0  0
   -1.1018    1.3777   -3.1074 C   0  0  0  0  0  0  0  0  0  0  0  0
   -1.3349   -0.5644   -2.1914 H   0  0  0  0  0  0  0  0  0  0  0  0
    1.0545   -0.7532   -1.5585 H   0  0  0  0  0  0  0  0  0  0  0  0
    1.8467    3.1252   -3.2060 H   0  0  0  0  0  0  0  0  0  0  0  0
   -0.5649    3.2949   -3.9344 H   0  0  0  0  0  0  0  0  0  0  0  0
    2.9517    1.0570   -1.9954 N   0  0  0  0  0  0  0  0  0  0  0  0
    3.8596    1.8655   -1.7710 N   0  0  0  0  0  0  0  0  0  0  0  0
    5.2990    0.6325   -4.8165 C   0  0  0  0  0  0  0  0  0  0  0  0
    6.3863    1.4300   -5.1586 C   0  0  0  0  0  0  0  0  0  0  0  0
    7.5185    1.5071   -4.3313 C   0  0  0  0  0  0  0  0  0  0  0  0
    7.5373    0.7594   -3.1441 C   0  0  0  0  0  0  0  0  0  0  0  0
    6.4587   -0.0432   -2.7836 C   0  0  0  0  0  0  0  0  0  0  0  0
    5.3432   -0.0914   -3.6233 C   0  0  0  0  0  0  0  0  0  0  0  0
    4.4221    0.5605   -5.4515 H   0  0  0  0  0  0  0  0  0  0  0  0
    6.3580    2.0040   -6.0807 H   0  0  0  0  0  0  0  0  0  0  0  0
    8.4046    0.8144   -2.4922 H   0  0  0  0  0  0  0  0  0  0  0  0
    6.4769   -0.6029   -1.8528 H   0  0  0  0  0  0  0  0  0  0  0  0
    3.9868   -1.1912   -3.2063 S   0  0  2  0  0  0  0  0  0  0  0  0
    3.3073    3.6252   -1.9442 O   0  0  0  0  0  0  0  0  0  0  0  0
    3.0158   -1.1096   -4.3283 O   0  0  0  0  0  0  0  0  0  0  0  0
    3.3518   -0.3053   -1.7780 O   0  0  0  0  0  0  0  0  0  0  0  0
    8.6925    2.3695   -4.7239 C   0  0  0  0  0  0  0  0  0  0  0  0
    9.2011    1.9622   -5.6057 H   0  0  0  0  0  0  0  0  0  0  0  0
    8.3684    3.3838   -4.9775 H   0  0  0  0  0  0  0  0  0  0  0  0
    9.4267    2.4405   -3.9169 H   0  0  0  0  0  0  0  0  0  0  0  0
   -2.1466    1.4569   -3.3929 H   0  0  0  0  0  0  0  0  0  0  0  0
  1  7  1  0  0  0  0
  1  2  2  0  0  0  0
  2  8  1  0  0  0  0
  3  2  1  0  0  0  0
  3 11  1  0  0  0  0
  4  3  2  0  0  0  0
  5  6  2  0  0  0  0
  5  4  1  0  0  0  0
  6  1  1  0  0  0  0
  9  4  1  0  0  0  0
 10  5  1  0  0  0  0
 11 26  1  0  0  0  0
 11 12  1  0  0  0  0
 13 18  1  0  0  0  0
 14 13  2  0  0  0  0
 14 15  1  0  0  0  0
 15 16  2  0  0  0  0
 16 17  1  0  0  0  0
 16 21  1  0  0  0  0
 17 22  1  0  0  0  0
 18 23  1  0  0  0  0
 18 17  2  0  0  0  0
 19 13  1  0  0  0  0
 20 14  1  0  0  0  0
 23 25  1  6  0  0  0
 23 26  1  0  0  0  0
 27 15  1  0  0  0  0
 27 30  1  0  0  0  0
 28 27  1  0  0  0  0
 29 27  1  0  0  0  0
 31  6  1  0  0  0  0
M  RAD  3  12   3  24   3  25   2
M  END
