Coordinates from ORCA-job Ph-N2-X-OTs-B3LYPG-6-31G_dp-scan-d09-49-n400
 OpenBabel08281821363D

 31 30  0  0  0  0  0  0  0  0999 V2000
   -0.0960    0.5690   -3.6730 C   0  0  0  0  0  0  0  0  0  0  0  0
    1.1551    0.4795   -3.0689 C   0  0  0  0  0  0  0  0  0  0  0  0
    1.5063    1.4939   -2.1760 C   0  0  0  0  0  0  0  0  0  0  0  0
    0.6786    2.5858   -1.8623 C   0  0  0  0  0  0  0  0  0  0  0  0
   -0.5669    2.6334   -2.4795 C   0  0  0  0  0  0  0  0  0  0  0  0
   -0.9543    1.6328   -3.3772 C   0  0  0  0  0  0  0  0  0  0  0  0
   -0.3984   -0.2010   -4.3751 H   0  0  0  0  0  0  0  0  0  0  0  0
    1.8292   -0.3411   -3.2912 H   0  0  0  0  0  0  0  0  0  0  0  0
    1.0455    3.3535   -1.1700 H   0  0  0  0  0  0  0  0  0  0  0  0
   -1.2352    3.4598   -2.2586 H   0  0  0  0  0  0  0  0  0  0  0  0
    2.7675    1.4998   -1.5223 N   0  0  0  0  0  0  0  0  0  0  0  0
    3.4975    2.0587   -0.8605 N   0  0  0  0  0  0  0  0  0  0  0  0
    5.6802   -0.3580   -4.8926 C   0  0  0  0  0  0  0  0  0  0  0  0
    6.6783    0.4411   -5.4510 C   0  0  0  0  0  0  0  0  0  0  0  0
    7.4831    1.2636   -4.6505 C   0  0  0  0  0  0  0  0  0  0  0  0
    7.2655    1.2672   -3.2627 C   0  0  0  0  0  0  0  0  0  0  0  0
    6.2740    0.4772   -2.6871 C   0  0  0  0  0  0  0  0  0  0  0  0
    5.4753   -0.3166   -3.5145 C   0  0  0  0  0  0  0  0  0  0  0  0
    5.0547   -0.9949   -5.5091 H   0  0  0  0  0  0  0  0  0  0  0  0
    6.8357    0.4237   -6.5267 H   0  0  0  0  0  0  0  0  0  0  0  0
    7.8809    1.8981   -2.6264 H   0  0  0  0  0  0  0  0  0  0  0  0
    6.1088    0.4873   -1.6146 H   0  0  0  0  0  0  0  0  0  0  0  0
    4.2365   -1.4222   -2.7670 S   0  0  0  0  0  0  0  0  0  0  0  0
    2.4328    4.3397   -0.1929 O   0  0  0  0  0  0  0  0  0  0  0  0
    3.3127   -1.8105   -3.8890 O   0  0  0  0  0  0  0  0  0  0  0  0
    3.6059   -0.5974   -1.6390 O   0  0  0  0  0  0  0  0  0  0  0  0
    8.5468    2.1429   -5.2618 C   0  0  0  0  0  0  0  0  0  0  0  0
    8.8212    1.8027   -6.2637 H   0  0  0  0  0  0  0  0  0  0  0  0
    8.1957    3.1784   -5.3503 H   0  0  0  0  0  0  0  0  0  0  0  0
    9.4525    2.1612   -4.6475 H   0  0  0  0  0  0  0  0  0  0  0  0
   -1.9301    1.6831   -3.8510 H   0  0  0  0  0  0  0  0  0  0  0  0
  1  6  2  0  0  0  0
  1  2  1  0  0  0  0
  2  3  2  0  0  0  0
  3  4  1  0  0  0  0
  3 11  1  0  0  0  0
  4  9  1  0  0  0  0
  5 10  1  0  0  0  0
  5  4  2  0  0  0  0
  6  5  1  0  0  0  0
  7  1  1  0  0  0  0
  8  2  1  0  0  0  0
 11 12  2  0  0  0  0
 13 18  1  0  0  0  0
 14 13  2  0  0  0  0
 14 15  1  0  0  0  0
 15 16  2  0  0  0  0
 16 17  1  0  0  0  0
 16 21  1  0  0  0  0
 17 22  1  0  0  0  0
 18 23  1  0  0  0  0
 18 17  2  0  0  0  0
 19 13  1  0  0  0  0
 20 14  1  0  0  0  0
 23 26  1  0  0  0  0
 25 23  1  0  0  0  0
 27 15  1  0  0  0  0
 27 30  1  0  0  0  0
 28 27  1  0  0  0  0
 29 27  1  0  0  0  0
 31  6  1  0  0  0  0
M  RAD  4  12   2  24   3  25   2  26   2
M  END
