Coordinates from ORCA-job Ph-N2-X-OTs-B3LYPG-6-31G_dp-scan-d09-49-n400
 OpenBabel08281821363D

 31 30  0  0  0  0  0  0  0  0999 V2000
    0.4663    0.6844   -3.9061 C   0  0  0  0  0  0  0  0  0  0  0  0
    1.4253    0.3747   -2.9462 C   0  0  0  0  0  0  0  0  0  0  0  0
    1.6967    1.3485   -1.9814 C   0  0  0  0  0  0  0  0  0  0  0  0
    1.0681    2.6046   -1.9281 C   0  0  0  0  0  0  0  0  0  0  0  0
    0.1195    2.8752   -2.9089 C   0  0  0  0  0  0  0  0  0  0  0  0
   -0.1817    1.9239   -3.8897 C   0  0  0  0  0  0  0  0  0  0  0  0
    0.2300   -0.0497   -4.6691 H   0  0  0  0  0  0  0  0  0  0  0  0
    1.9386   -0.5810   -2.9510 H   0  0  0  0  0  0  0  0  0  0  0  0
    1.3323    3.3240   -1.1373 H   0  0  0  0  0  0  0  0  0  0  0  0
   -0.3851    3.8360   -2.9031 H   0  0  0  0  0  0  0  0  0  0  0  0
    2.6356    1.1203   -0.9482 N   0  0  0  0  0  0  0  0  0  0  0  0
    3.1409    1.4211    0.0127 N   0  0  0  0  0  0  0  0  0  0  0  0
    5.4922   -0.5012   -4.7859 C   0  0  0  0  0  0  0  0  0  0  0  0
    6.3336    0.3990   -5.4398 C   0  0  0  0  0  0  0  0  0  0  0  0
    7.0601    1.3639   -4.7274 C   0  0  0  0  0  0  0  0  0  0  0  0
    6.9253    1.4054   -3.3303 C   0  0  0  0  0  0  0  0  0  0  0  0
    6.0896    0.5144   -2.6606 C   0  0  0  0  0  0  0  0  0  0  0  0
    5.3639   -0.4225   -3.4000 C   0  0  0  0  0  0  0  0  0  0  0  0
    4.9260   -1.2461   -5.3353 H   0  0  0  0  0  0  0  0  0  0  0  0
    6.4287    0.3511   -6.5222 H   0  0  0  0  0  0  0  0  0  0  0  0
    7.4827    2.1451   -2.7609 H   0  0  0  0  0  0  0  0  0  0  0  0
    5.9893    0.5511   -1.5803 H   0  0  0  0  0  0  0  0  0  0  0  0
    4.3339   -1.6508   -2.5281 S   0  0  0  0  0  0  0  0  0  0  0  0
    2.0804    4.1720    0.4120 O   0  0  0  0  0  0  0  0  0  0  0  0
    3.3545   -2.1496   -3.5587 O   0  0  0  0  0  0  0  0  0  0  0  0
    3.7193   -0.8708   -1.3617 O   0  0  0  0  0  0  0  0  0  0  0  0
    7.9520    2.3503   -5.4424 C   0  0  0  0  0  0  0  0  0  0  0  0
    8.2338    1.9897   -6.4350 H   0  0  0  0  0  0  0  0  0  0  0  0
    7.4451    3.3142   -5.5744 H   0  0  0  0  0  0  0  0  0  0  0  0
    8.8689    2.5434   -4.8772 H   0  0  0  0  0  0  0  0  0  0  0  0
   -0.9265    2.1503   -4.6474 H   0  0  0  0  0  0  0  0  0  0  0  0
  1  6  2  0  0  0  0
  1  2  1  0  0  0  0
  2  3  2  0  0  0  0
  3  4  1  0  0  0  0
  3 11  1  0  0  0  0
  4  9  1  0  0  0  0
  5 10  1  0  0  0  0
  5  4  2  0  0  0  0
  6  5  1  0  0  0  0
  7  1  1  0  0  0  0
  8  2  1  0  0  0  0
 11 12  2  0  0  0  0
 13 18  1  0  0  0  0
 14 13  2  0  0  0  0
 14 15  1  0  0  0  0
 15 16  2  0  0  0  0
 16 21  1  0  0  0  0
 16 17  1  0  0  0  0
 17 22  1  0  0  0  0
 18 17  2  0  0  0  0
 18 23  1  0  0  0  0
 19 13  1  0  0  0  0
 20 14  1  0  0  0  0
 23 26  1  0  0  0  0
 25 23  1  0  0  0  0
 27 30  1  0  0  0  0
 27 15  1  0  0  0  0
 28 27  1  0  0  0  0
 29 27  1  0  0  0  0
 31  6  1  0  0  0  0
M  RAD  4  12   2  24   3  25   2  26   2
M  END
