Coordinates from ORCA-job Ph-N2-X-OTs-B3LYPG-6-31G_dp-scan-d09-49-n400
 OpenBabel08281821363D

 31 32  0  0  0  0  0  0  0  0999 V2000
    0.8484    3.2773   -1.1959 C   0  0  0  0  0  0  0  0  0  0  0  0
    1.6506    2.2064   -1.5436 C   0  0  0  0  0  0  0  0  0  0  0  0
    1.2546    1.0328   -2.2244 C   0  0  0  0  0  0  0  0  0  0  0  0
   -0.2275    0.9590   -2.5995 C   0  0  0  0  0  0  0  0  0  0  0  0
   -0.9665    2.0985   -2.2125 C   0  0  0  0  0  0  0  0  0  0  0  0
   -0.4935    3.2172   -1.5438 C   0  0  0  0  0  0  0  0  0  0  0  0
    1.2646    4.1291   -0.6684 H   0  0  0  0  0  0  0  0  0  0  0  0
    2.7013    2.2383   -1.2746 H   0  0  0  0  0  0  0  0  0  0  0  0
   -1.9877    0.4474   -3.2084 H   0  0  0  0  0  0  0  0  0  0  0  0
   -2.0252    2.1030   -2.4691 H   0  0  0  0  0  0  0  0  0  0  0  0
    2.4248    0.1037   -2.4132 N   0  0  0  0  0  0  0  0  0  0  0  0
    3.5978    0.4434   -2.0059 N   0  0  0  0  0  0  0  0  0  0  0  0
    6.7996    0.7764   -3.0542 C   0  0  0  0  0  0  0  0  0  0  0  0
    7.6126    1.4091   -3.9909 C   0  0  0  0  0  0  0  0  0  0  0  0
    7.4636    1.1640   -5.3647 C   0  0  0  0  0  0  0  0  0  0  0  0
    6.4708    0.2653   -5.7827 C   0  0  0  0  0  0  0  0  0  0  0  0
    5.6450   -0.3754   -4.8623 C   0  0  0  0  0  0  0  0  0  0  0  0
    5.8196   -0.1126   -3.5021 C   0  0  0  0  0  0  0  0  0  0  0  0
    6.9251    0.9537   -1.9913 H   0  0  0  0  0  0  0  0  0  0  0  0
    8.3785    2.1014   -3.6514 H   0  0  0  0  0  0  0  0  0  0  0  0
    6.3451    0.0628   -6.8431 H   0  0  0  0  0  0  0  0  0  0  0  0
    4.8816   -1.0767   -5.1815 H   0  0  0  0  0  0  0  0  0  0  0  0
    4.7557   -0.9163   -2.3135 S   0  0  0  0  0  0  0  0  0  0  0  0
   -1.1197    0.0321   -3.2652 O   0  0  0  0  0  0  0  0  0  0  0  0
    5.4609   -1.0305   -1.0339 O   0  0  0  0  0  0  0  0  0  0  0  0
    4.1076   -2.0624   -2.9501 O   0  0  0  0  0  0  0  0  0  0  0  0
    8.3741    1.8287   -6.3687 C   0  0  0  0  0  0  0  0  0  0  0  0
    8.6817    2.8231   -6.0336 H   0  0  0  0  0  0  0  0  0  0  0  0
    9.2866    1.2385   -6.5174 H   0  0  0  0  0  0  0  0  0  0  0  0
    7.8893    1.9303   -7.3435 H   0  0  0  0  0  0  0  0  0  0  0  0
   -1.1801    4.0232   -1.3027 H   0  0  0  0  0  0  0  0  0  0  0  0
  1  7  1  0  0  0  0
  2  8  1  0  0  0  0
  2  1  2  0  0  0  0
  3  2  1  0  0  0  0
  4  3  2  0  0  0  0
  4  5  1  0  0  0  0
  5  6  2  0  0  0  0
  6 31  1  0  0  0  0
  6  1  1  0  0  0  0
 10  5  1  0  0  0  0
 11  3  1  0  0  0  0
 11 12  1  0  0  0  0
 13 19  1  0  0  0  0
 14 20  1  0  0  0  0
 14 13  2  0  0  0  0
 15 14  1  0  0  0  0
 16 15  2  0  0  0  0
 16 17  1  0  0  0  0
 17 18  2  0  0  0  0
 18 13  1  0  0  0  0
 18 23  1  0  0  0  0
 21 16  1  0  0  0  0
 22 17  1  0  0  0  0
 23 12  1  0  0  0  0
 23 25  2  0  0  0  0
 24  9  1  0  0  0  0
 24  4  1  0  0  0  0
 26 23  2  0  0  0  0
 27 28  1  0  0  0  0
 27 15  1  0  0  0  0
 29 27  1  0  0  0  0
 30 27  1  0  0  0  0
M  RAD  2  11   2  12   2
M  END
