Coordinates from ORCA-job Ph-N2-X-OTs-B3LYPG-6-31G_dp-scan-d09-49-n400
 OpenBabel08281821363D

 31 32  0  0  0  0  0  0  0  0999 V2000
    0.7280    3.6373   -1.9850 C   0  0  0  0  0  0  0  0  0  0  0  0
    1.6716    2.6603   -2.2927 C   0  0  0  0  0  0  0  0  0  0  0  0
    1.3050    1.3120   -2.2635 C   0  0  0  0  0  0  0  0  0  0  0  0
    0.0053    0.9304   -1.8932 C   0  0  0  0  0  0  0  0  0  0  0  0
   -0.9354    1.9118   -1.5708 C   0  0  0  0  0  0  0  0  0  0  0  0
   -0.5702    3.2579   -1.6266 C   0  0  0  0  0  0  0  0  0  0  0  0
    0.9973    4.6876   -2.0295 H   0  0  0  0  0  0  0  0  0  0  0  0
    2.6836    2.9179   -2.5858 H   0  0  0  0  0  0  0  0  0  0  0  0
   -1.1334   -0.5758   -1.6079 H   0  0  0  0  0  0  0  0  0  0  0  0
   -1.9406    1.6229   -1.2735 H   0  0  0  0  0  0  0  0  0  0  0  0
    2.1486    0.2383   -2.6416 N   0  0  0  0  0  0  0  0  0  0  0  0
    3.3313    0.3756   -2.3181 N   0  0  0  0  0  0  0  0  0  0  0  0
    6.6456    0.4019   -3.0764 C   0  0  0  0  0  0  0  0  0  0  0  0
    7.6218    1.0931   -3.7887 C   0  0  0  0  0  0  0  0  0  0  0  0
    7.5595    1.2027   -5.1868 C   0  0  0  0  0  0  0  0  0  0  0  0
    6.4868    0.6003   -5.8598 C   0  0  0  0  0  0  0  0  0  0  0  0
    5.4983   -0.0941   -5.1646 C   0  0  0  0  0  0  0  0  0  0  0  0
    5.5884   -0.1864   -3.7750 C   0  0  0  0  0  0  0  0  0  0  0  0
    6.7019    0.3032   -1.9975 H   0  0  0  0  0  0  0  0  0  0  0  0
    8.4485    1.5527   -3.2530 H   0  0  0  0  0  0  0  0  0  0  0  0
    6.4262    0.6738   -6.9427 H   0  0  0  0  0  0  0  0  0  0  0  0
    4.6728   -0.5694   -5.6834 H   0  0  0  0  0  0  0  0  0  0  0  0
    4.3184   -1.0598   -2.8693 S   0  0  0  0  0  0  0  0  0  0  0  0
   -0.2079   -0.4035   -1.8281 O   0  0  0  0  0  0  0  0  0  0  0  0
    4.8933   -1.5839   -1.6255 O   0  0  0  0  0  0  0  0  0  0  0  0
    3.5678   -1.9075   -3.7991 O   0  0  0  0  0  0  0  0  0  0  0  0
    8.6417    1.9298   -5.9482 C   0  0  0  0  0  0  0  0  0  0  0  0
    8.9955    2.8074   -5.3990 H   0  0  0  0  0  0  0  0  0  0  0  0
    9.5088    1.2782   -6.1123 H   0  0  0  0  0  0  0  0  0  0  0  0
    8.2897    2.2598   -6.9290 H   0  0  0  0  0  0  0  0  0  0  0  0
   -1.3087    4.0166   -1.3852 H   0  0  0  0  0  0  0  0  0  0  0  0
  1  6  2  0  0  0  0
  2  3  2  0  0  0  0
  2  1  1  0  0  0  0
  3  4  1  0  0  0  0
  4 24  1  0  0  0  0
  4  5  2  0  0  0  0
  5 10  1  0  0  0  0
  6  5  1  0  0  0  0
  6 31  1  0  0  0  0
  7  1  1  0  0  0  0
  8  2  1  0  0  0  0
 11 12  1  0  0  0  0
 11  3  1  0  0  0  0
 13 19  1  0  0  0  0
 14 20  1  0  0  0  0
 14 13  2  0  0  0  0
 15 14  1  0  0  0  0
 16 15  2  0  0  0  0
 16 17  1  0  0  0  0
 17 18  2  0  0  0  0
 18 13  1  0  0  0  0
 18 23  1  0  0  0  0
 21 16  1  0  0  0  0
 22 17  1  0  0  0  0
 23 12  1  0  0  0  0
 23 25  2  0  0  0  0
 24  9  1  0  0  0  0
 26 23  2  0  0  0  0
 27 28  1  0  0  0  0
 27 15  1  0  0  0  0
 29 27  1  0  0  0  0
 30 27  1  0  0  0  0
M  RAD  2  11   2  12   2
M  END
