Coordinates from ORCA-job Ph-N2-X-OTs-B3LYPG-6-31G_dp-scan-d09-49-n400
 OpenBabel08281821363D

 31 32  0  0  0  0  0  0  0  0999 V2000
    0.6330    3.6507   -2.2419 C   0  0  0  0  0  0  0  0  0  0  0  0
    1.5672    2.6802   -2.6101 C   0  0  0  0  0  0  0  0  0  0  0  0
    1.2803    1.3369   -2.3830 C   0  0  0  0  0  0  0  0  0  0  0  0
    0.0941    0.9483   -1.7470 C   0  0  0  0  0  0  0  0  0  0  0  0
   -0.8318    1.9198   -1.3665 C   0  0  0  0  0  0  0  0  0  0  0  0
   -0.5606    3.2663   -1.6270 C   0  0  0  0  0  0  0  0  0  0  0  0
    0.8353    4.6988   -2.4369 H   0  0  0  0  0  0  0  0  0  0  0  0
    2.5008    2.9454   -3.0950 H   0  0  0  0  0  0  0  0  0  0  0  0
   -0.8696   -0.5810   -1.1159 H   0  0  0  0  0  0  0  0  0  0  0  0
   -1.7506    1.6271   -0.8639 H   0  0  0  0  0  0  0  0  0  0  0  0
    2.1077    0.2572   -2.8157 N   0  0  0  0  0  0  0  0  0  0  0  0
    3.2610    0.3144   -2.3910 N   0  0  0  0  0  0  0  0  0  0  0  0
    6.6002    0.3069   -3.0734 C   0  0  0  0  0  0  0  0  0  0  0  0
    7.6041    1.0210   -3.7220 C   0  0  0  0  0  0  0  0  0  0  0  0
    7.5749    1.2151   -5.1121 C   0  0  0  0  0  0  0  0  0  0  0  0
    6.5072    0.6747   -5.8430 C   0  0  0  0  0  0  0  0  0  0  0  0
    5.4913   -0.0413   -5.2123 C   0  0  0  0  0  0  0  0  0  0  0  0
    5.5493   -0.2186   -3.8291 C   0  0  0  0  0  0  0  0  0  0  0  0
    6.6304    0.1430   -2.0015 H   0  0  0  0  0  0  0  0  0  0  0  0
    8.4263    1.4322   -3.1421 H   0  0  0  0  0  0  0  0  0  0  0  0
    6.4719    0.8147   -6.9204 H   0  0  0  0  0  0  0  0  0  0  0  0
    4.6692   -0.4689   -5.7760 H   0  0  0  0  0  0  0  0  0  0  0  0
    4.2413   -1.1155   -3.0054 S   0  0  0  0  0  0  0  0  0  0  0  0
   -0.0051   -0.3821   -1.5001 O   0  0  0  0  0  0  0  0  0  0  0  0
    4.7702   -1.7185   -1.7777 O   0  0  0  0  0  0  0  0  0  0  0  0
    3.4939   -1.8899   -3.9995 O   0  0  0  0  0  0  0  0  0  0  0  0
    8.6860    1.9656   -5.8057 C   0  0  0  0  0  0  0  0  0  0  0  0
    9.0407    2.8051   -5.2001 H   0  0  0  0  0  0  0  0  0  0  0  0
    9.5464    1.3095   -5.9865 H   0  0  0  0  0  0  0  0  0  0  0  0
    8.3626    2.3557   -6.7743 H   0  0  0  0  0  0  0  0  0  0  0  0
   -1.2882    4.0182   -1.3371 H   0  0  0  0  0  0  0  0  0  0  0  0
  1  6  2  0  0  0  0
  2  3  2  0  0  0  0
  2  1  1  0  0  0  0
  3  4  1  0  0  0  0
  4 24  1  0  0  0  0
  4  5  2  0  0  0  0
  5 10  1  0  0  0  0
  6  5  1  0  0  0  0
  6 31  1  0  0  0  0
  7  1  1  0  0  0  0
  8  2  1  0  0  0  0
 11 12  1  0  0  0  0
 11  3  1  0  0  0  0
 13 19  1  0  0  0  0
 14 20  1  0  0  0  0
 14 13  1  0  0  0  0
 15 14  2  0  0  0  0
 16 17  2  0  0  0  0
 16 15  1  0  0  0  0
 17 18  1  0  0  0  0
 18 13  2  0  0  0  0
 18 23  1  0  0  0  0
 21 16  1  0  0  0  0
 22 17  1  0  0  0  0
 23 12  1  0  0  0  0
 23 25  2  0  0  0  0
 24  9  1  0  0  0  0
 26 23  2  0  0  0  0
 27 28  1  0  0  0  0
 27 15  1  0  0  0  0
 29 27  1  0  0  0  0
 30 27  1  0  0  0  0
M  RAD  2  11   2  12   2
M  END
