Coordinates from ORCA-job Ph-N2-X-OTs-B3LYPG-6-31G_dp-scan-d09-49-n400
 OpenBabel08281821363D

 31 32  0  0  0  0  0  0  0  0999 V2000
    0.6259    3.6499   -2.2581 C   0  0  0  0  0  0  0  0  0  0  0  0
    1.5580    2.6788   -2.6309 C   0  0  0  0  0  0  0  0  0  0  0  0
    1.2777    1.3368   -2.3901 C   0  0  0  0  0  0  0  0  0  0  0  0
    0.1006    0.9497   -1.7369 C   0  0  0  0  0  0  0  0  0  0  0  0
   -0.8228    1.9217   -1.3520 C   0  0  0  0  0  0  0  0  0  0  0  0
   -0.5588    3.2672   -1.6255 C   0  0  0  0  0  0  0  0  0  0  0  0
    0.8234    4.6970   -2.4631 H   0  0  0  0  0  0  0  0  0  0  0  0
    2.4849    2.9431   -3.1291 H   0  0  0  0  0  0  0  0  0  0  0  0
   -0.8527   -0.5769   -1.0838 H   0  0  0  0  0  0  0  0  0  0  0  0
   -1.7345    1.6303   -0.8358 H   0  0  0  0  0  0  0  0  0  0  0  0
    2.1044    0.2571   -2.8270 N   0  0  0  0  0  0  0  0  0  0  0  0
    3.2562    0.3104   -2.3979 N   0  0  0  0  0  0  0  0  0  0  0  0
    6.5960    0.3021   -3.0735 C   0  0  0  0  0  0  0  0  0  0  0  0
    7.6018    1.0178   -3.7175 C   0  0  0  0  0  0  0  0  0  0  0  0
    7.5761    1.2161   -5.1070 C   0  0  0  0  0  0  0  0  0  0  0  0
    6.5099    0.6783   -5.8423 C   0  0  0  0  0  0  0  0  0  0  0  0
    5.4922   -0.0391   -5.2162 C   0  0  0  0  0  0  0  0  0  0  0  0
    5.5468   -0.2207   -3.8334 C   0  0  0  0  0  0  0  0  0  0  0  0
    6.6235    0.1349   -2.0020 H   0  0  0  0  0  0  0  0  0  0  0  0
    8.4226    1.4269   -3.1343 H   0  0  0  0  0  0  0  0  0  0  0  0
    6.4773    0.8217   -6.9193 H   0  0  0  0  0  0  0  0  0  0  0  0
    4.6713   -0.4647   -5.7833 H   0  0  0  0  0  0  0  0  0  0  0  0
    4.2362   -1.1191   -3.0156 S   0  0  0  0  0  0  0  0  0  0  0  0
    0.0068   -0.3793   -1.4796 O   0  0  0  0  0  0  0  0  0  0  0  0
    4.7616   -1.7269   -1.7888 O   0  0  0  0  0  0  0  0  0  0  0  0
    3.4897   -1.8889   -4.0139 O   0  0  0  0  0  0  0  0  0  0  0  0
    8.6892    1.9682   -5.7958 C   0  0  0  0  0  0  0  0  0  0  0  0
    9.0439    2.8047   -5.1861 H   0  0  0  0  0  0  0  0  0  0  0  0
    9.5490    1.3118   -5.9779 H   0  0  0  0  0  0  0  0  0  0  0  0
    8.3678    2.3626   -6.7632 H   0  0  0  0  0  0  0  0  0  0  0  0
   -1.2846    4.0193   -1.3318 H   0  0  0  0  0  0  0  0  0  0  0  0
  1  6  2  0  0  0  0
  2  3  2  0  0  0  0
  2  1  1  0  0  0  0
  3  4  1  0  0  0  0
  4 24  1  0  0  0  0
  4  5  2  0  0  0  0
  5 10  1  0  0  0  0
  6  5  1  0  0  0  0
  6 31  1  0  0  0  0
  7  1  1  0  0  0  0
  8  2  1  0  0  0  0
 11 12  1  0  0  0  0
 11  3  1  0  0  0  0
 13 19  1  0  0  0  0
 14 20  1  0  0  0  0
 14 13  1  0  0  0  0
 15 14  2  0  0  0  0
 16 17  2  0  0  0  0
 16 15  1  0  0  0  0
 17 18  1  0  0  0  0
 18 13  2  0  0  0  0
 18 23  1  0  0  0  0
 21 16  1  0  0  0  0
 22 17  1  0  0  0  0
 23 12  1  0  0  0  0
 23 25  2  0  0  0  0
 24  9  1  0  0  0  0
 26 23  2  0  0  0  0
 27 28  1  0  0  0  0
 27 15  1  0  0  0  0
 29 27  1  0  0  0  0
 30 27  1  0  0  0  0
M  RAD  2  11   2  12   2
M  END
