Coordinates from ORCA-job Ph-N2-X-OTs-B3LYPG-6-31G_dp-scan-d09-49-n400
 OpenBabel08281821363D

 31 30  0  0  0  0  0  0  0  0999 V2000
   -0.1513    0.5466   -3.6376 C   0  0  0  0  0  0  0  0  0  0  0  0
    1.1164    0.4628   -3.0676 C   0  0  0  0  0  0  0  0  0  0  0  0
    1.4974    1.4886   -2.2008 C   0  0  0  0  0  0  0  0  0  0  0  0
    0.6817    2.5870   -1.8817 C   0  0  0  0  0  0  0  0  0  0  0  0
   -0.5816    2.6297   -2.4625 C   0  0  0  0  0  0  0  0  0  0  0  0
   -0.9980    1.6171   -3.3332 C   0  0  0  0  0  0  0  0  0  0  0  0
   -0.4758   -0.2328   -4.3191 H   0  0  0  0  0  0  0  0  0  0  0  0
    1.7824   -0.3619   -3.2973 H   0  0  0  0  0  0  0  0  0  0  0  0
    1.0786    3.3605   -1.2168 H   0  0  0  0  0  0  0  0  0  0  0  0
   -1.2407    3.4618   -2.2354 H   0  0  0  0  0  0  0  0  0  0  0  0
    2.7791    1.4953   -1.5852 N   0  0  0  0  0  0  0  0  0  0  0  0
    3.5197    2.0830   -0.9544 N   0  0  0  0  0  0  0  0  0  0  0  0
    5.6878   -0.3420   -4.8929 C   0  0  0  0  0  0  0  0  0  0  0  0
    6.6925    0.4570   -5.4395 C   0  0  0  0  0  0  0  0  0  0  0  0
    7.4927    1.2737   -4.6288 C   0  0  0  0  0  0  0  0  0  0  0  0
    7.2642    1.2715   -3.2425 C   0  0  0  0  0  0  0  0  0  0  0  0
    6.2669    0.4814   -2.6781 C   0  0  0  0  0  0  0  0  0  0  0  0
    5.4724   -0.3057   -3.5163 C   0  0  0  0  0  0  0  0  0  0  0  0
    5.0658   -0.9744   -5.5174 H   0  0  0  0  0  0  0  0  0  0  0  0
    6.8584    0.4440   -6.5139 H   0  0  0  0  0  0  0  0  0  0  0  0
    7.8752    1.8989   -2.5986 H   0  0  0  0  0  0  0  0  0  0  0  0
    6.0925    0.4884   -1.6071 H   0  0  0  0  0  0  0  0  0  0  0  0
    4.2238   -1.4087   -2.7862 S   0  0  0  0  0  0  0  0  0  0  0  0
    2.6393    4.2656   -0.3747 O   0  0  0  0  0  0  0  0  0  0  0  0
    3.3117   -1.7981   -3.9152 O   0  0  0  0  0  0  0  0  0  0  0  0
    3.5860   -0.5888   -1.6574 O   0  0  0  0  0  0  0  0  0  0  0  0
    8.5636    2.1532   -5.2269 C   0  0  0  0  0  0  0  0  0  0  0  0
    8.8328    1.8280   -6.2351 H   0  0  0  0  0  0  0  0  0  0  0  0
    8.2220    3.1934   -5.2958 H   0  0  0  0  0  0  0  0  0  0  0  0
    9.4705    2.1521   -4.6141 H   0  0  0  0  0  0  0  0  0  0  0  0
   -1.9867    1.6636   -3.7798 H   0  0  0  0  0  0  0  0  0  0  0  0
  1  6  2  0  0  0  0
  1  2  1  0  0  0  0
  2  3  2  0  0  0  0
  3  4  1  0  0  0  0
  3 11  1  0  0  0  0
  4  9  1  0  0  0  0
  5 10  1  0  0  0  0
  5  4  2  0  0  0  0
  6  5  1  0  0  0  0
  7  1  1  0  0  0  0
  8  2  1  0  0  0  0
 11 12  2  0  0  0  0
 13 18  1  0  0  0  0
 14 13  2  0  0  0  0
 14 15  1  0  0  0  0
 15 16  2  0  0  0  0
 16 17  1  0  0  0  0
 16 21  1  0  0  0  0
 17 22  1  0  0  0  0
 18 23  1  0  0  0  0
 18 17  2  0  0  0  0
 19 13  1  0  0  0  0
 20 14  1  0  0  0  0
 23 26  1  0  0  0  0
 25 23  1  0  0  0  0
 27 15  1  0  0  0  0
 27 30  1  0  0  0  0
 28 27  1  0  0  0  0
 29 27  1  0  0  0  0
 31  6  1  0  0  0  0
M  RAD  4  12   2  24   3  25   2  26   2
M  END
