Coordinates from ORCA-job Ph-N2-X-OTs-B3LYPG-6-31G_dp-scan-d09-49-n400
 OpenBabel08281821363D

 31 32  0  0  0  0  0  0  0  0999 V2000
   -0.6712    0.2517   -2.3559 C   0  0  0  0  0  0  0  0  0  0  0  0
    0.6753    0.1513   -2.0208 C   0  0  0  0  0  0  0  0  0  0  0  0
    1.5456    1.1859   -2.3895 C   0  0  0  0  0  0  0  0  0  0  0  0
    1.0931    2.3091   -3.0917 C   0  0  0  0  0  0  0  0  0  0  0  0
   -0.2571    2.3770   -3.4319 C   0  0  0  0  0  0  0  0  0  0  0  0
   -1.1406    1.3610   -3.0647 C   0  0  0  0  0  0  0  0  0  0  0  0
   -1.3527   -0.5414   -2.0646 H   0  0  0  0  0  0  0  0  0  0  0  0
    1.0502   -0.7079   -1.4811 H   0  0  0  0  0  0  0  0  0  0  0  0
    1.7994    3.0946   -3.3181 H   0  0  0  0  0  0  0  0  0  0  0  0
   -0.6180    3.2400   -3.9831 H   0  0  0  0  0  0  0  0  0  0  0  0
    2.9368    1.0570   -2.0322 N   0  0  0  0  0  0  0  0  0  0  0  0
    3.8600    1.8875   -1.8206 N   0  0  0  0  0  0  0  0  0  0  0  0
    5.3158    0.6764   -4.8253 C   0  0  0  0  0  0  0  0  0  0  0  0
    6.4129    1.4684   -5.1479 C   0  0  0  0  0  0  0  0  0  0  0  0
    7.5460    1.5105   -4.3193 C   0  0  0  0  0  0  0  0  0  0  0  0
    7.5552    0.7337   -3.1507 C   0  0  0  0  0  0  0  0  0  0  0  0
    6.4668   -0.0640   -2.8101 C   0  0  0  0  0  0  0  0  0  0  0  0
    5.3510   -0.0783   -3.6511 C   0  0  0  0  0  0  0  0  0  0  0  0
    4.4374    0.6324   -5.4610 H   0  0  0  0  0  0  0  0  0  0  0  0
    6.3913    2.0663   -6.0549 H   0  0  0  0  0  0  0  0  0  0  0  0
    8.4230    0.7617   -2.4976 H   0  0  0  0  0  0  0  0  0  0  0  0
    6.4781   -0.6466   -1.8934 H   0  0  0  0  0  0  0  0  0  0  0  0
    3.9806   -1.1644   -3.2548 S   0  0  2  0  0  0  0  0  0  0  0  0
    3.3282    3.4941   -2.0014 O   0  0  0  0  0  0  0  0  0  0  0  0
    3.0103   -1.0482   -4.3744 O   0  0  0  0  0  0  0  0  0  0  0  0
    3.3490   -0.2693   -1.8050 O   0  0  0  0  0  0  0  0  0  0  0  0
    8.7331    2.3635   -4.6923 C   0  0  0  0  0  0  0  0  0  0  0  0
    9.2771    1.9287   -5.5396 H   0  0  0  0  0  0  0  0  0  0  0  0
    8.4191    3.3684   -4.9906 H   0  0  0  0  0  0  0  0  0  0  0  0
    9.4353    2.4603   -3.8598 H   0  0  0  0  0  0  0  0  0  0  0  0
   -2.1917    1.4315   -3.3285 H   0  0  0  0  0  0  0  0  0  0  0  0
  1  7  1  0  0  0  0
  1  2  1  0  0  0  0
  2  8  1  0  0  0  0
  3 11  1  0  0  0  0
  3  2  2  0  0  0  0
  4  3  1  0  0  0  0
  5  4  2  0  0  0  0
  5  6  1  0  0  0  0
  6  1  2  0  0  0  0
  9  4  1  0  0  0  0
 10  5  1  0  0  0  0
 11 12  1  0  0  0  0
 11 26  1  0  0  0  0
 13 18  1  0  0  0  0
 14 13  2  0  0  0  0
 14 15  1  0  0  0  0
 15 16  2  0  0  0  0
 16 17  1  0  0  0  0
 16 21  1  0  0  0  0
 17 22  1  0  0  0  0
 18 23  1  0  0  0  0
 18 17  2  0  0  0  0
 19 13  1  0  0  0  0
 20 14  1  0  0  0  0
 23 25  1  6  0  0  0
 23 26  1  0  0  0  0
 24 12  1  0  0  0  0
 27 15  1  0  0  0  0
 27 30  1  0  0  0  0
 28 27  1  0  0  0  0
 29 27  1  0  0  0  0
 31  6  1  0  0  0  0
M  RAD  3  12   2  24   2  25   2
M  END
