Coordinates from ORCA-job Ph-N2-X-OTs-B3LYPG-6-31G_dp-scan-d09-49-n400
 OpenBabel08281821363D

 31 30  0  0  0  0  0  0  0  0999 V2000
   -0.6200   -0.3628   -1.7797 C   0  0  0  0  0  0  0  0  0  0  0  0
    0.6426    0.2205   -1.7773 C   0  0  0  0  0  0  0  0  0  0  0  0
    0.8081    1.5028   -2.3236 C   0  0  0  0  0  0  0  0  0  0  0  0
   -0.2873    2.1959   -2.8575 C   0  0  0  0  0  0  0  0  0  0  0  0
   -1.5486    1.6068   -2.8492 C   0  0  0  0  0  0  0  0  0  0  0  0
   -1.7158    0.3261   -2.3135 C   0  0  0  0  0  0  0  0  0  0  0  0
   -0.7566   -1.3569   -1.3644 H   0  0  0  0  0  0  0  0  0  0  0  0
    1.5105   -0.2810   -1.3654 H   0  0  0  0  0  0  0  0  0  0  0  0
   -0.1383    3.1930   -3.2607 H   0  0  0  0  0  0  0  0  0  0  0  0
   -2.4008    2.1413   -3.2580 H   0  0  0  0  0  0  0  0  0  0  0  0
    2.0740    2.1592   -2.3662 N   0  0  0  0  0  0  0  0  0  0  0  0
    3.0634    3.1674   -4.1061 N   0  0  0  0  0  0  0  0  0  0  0  0
    6.0753    1.4339   -4.9518 C   0  0  0  0  0  0  0  0  0  0  0  0
    7.4381    1.7104   -5.0360 C   0  0  0  0  0  0  0  0  0  0  0  0
    8.3579    1.1320   -4.1498 C   0  0  0  0  0  0  0  0  0  0  0  0
    7.8626    0.2674   -3.1628 C   0  0  0  0  0  0  0  0  0  0  0  0
    6.5019   -0.0106   -3.0587 C   0  0  0  0  0  0  0  0  0  0  0  0
    5.5981    0.5733   -3.9570 C   0  0  0  0  0  0  0  0  0  0  0  0
    5.3714    1.8743   -5.6505 H   0  0  0  0  0  0  0  0  0  0  0  0
    7.7972    2.3837   -5.8118 H   0  0  0  0  0  0  0  0  0  0  0  0
    8.5525   -0.1864   -2.4554 H   0  0  0  0  0  0  0  0  0  0  0  0
    6.1410   -0.6669   -2.2704 H   0  0  0  0  0  0  0  0  0  0  0  0
    3.8738    0.1493   -3.8362 S   0  0  0  0  0  0  0  0  0  0  0  0
    2.5043    3.6133   -4.7617 O   0  0  0  0  0  0  0  0  0  0  0  0
    3.0931    1.2193   -4.6969 O   0  0  0  0  0  0  0  0  0  0  0  0
    3.0089    1.5762   -1.8018 O   0  0  0  0  0  0  0  0  0  0  0  0
    9.8379    1.4090   -4.2692 C   0  0  0  0  0  0  0  0  0  0  0  0
   10.3343    0.6651   -4.9058 H   0  0  0  0  0  0  0  0  0  0  0  0
   10.0276    2.3914   -4.7123 H   0  0  0  0  0  0  0  0  0  0  0  0
   10.3318    1.3790   -3.2930 H   0  0  0  0  0  0  0  0  0  0  0  0
   -2.6994   -0.1350   -2.3097 H   0  0  0  0  0  0  0  0  0  0  0  0
  1  2  1  0  0  0  0
  1  7  1  0  0  0  0
  2  8  1  0  0  0  0
  3  2  2  0  0  0  0
  4  5  2  0  0  0  0
  4  3  1  0  0  0  0
  5  6  1  0  0  0  0
  6 31  1  0  0  0  0
  6  1  2  0  0  0  0
  9  4  1  0  0  0  0
 10  5  1  0  0  0  0
 11  3  1  0  0  0  0
 11 26  2  0  0  0  0
 13 18  1  0  0  0  0
 14 13  2  0  0  0  0
 14 15  1  0  0  0  0
 15 16  2  0  0  0  0
 16 17  1  0  0  0  0
 16 21  1  0  0  0  0
 17 22  1  0  0  0  0
 18 23  1  0  0  0  0
 18 17  2  0  0  0  0
 19 13  1  0  0  0  0
 20 14  1  0  0  0  0
 24 12  2  0  0  0  0
 25 23  1  0  0  0  0
 27 15  1  0  0  0  0
 27 30  1  0  0  0  0
 28 27  1  0  0  0  0
 29 27  1  0  0  0  0
M  RAD  2  12   2  25   2
M  END
