Coordinates from ORCA-job Ph-N2-X-OTs-B3LYPG-6-31G_dp-scan-d09-49-n400
 OpenBabel08281821363D

 31 32  0  0  0  0  0  0  0  0999 V2000
   -0.6978    0.2502   -2.2802 C   0  0  0  0  0  0  0  0  0  0  0  0
    0.6591    0.1696   -1.9832 C   0  0  0  0  0  0  0  0  0  0  0  0
    1.5138    1.1963   -2.4065 C   0  0  0  0  0  0  0  0  0  0  0  0
    1.0280    2.2946   -3.1271 C   0  0  0  0  0  0  0  0  0  0  0  0
   -0.3328    2.3455   -3.4258 C   0  0  0  0  0  0  0  0  0  0  0  0
   -1.1982    1.3354   -3.0040 C   0  0  0  0  0  0  0  0  0  0  0  0
   -1.3634   -0.5397   -1.9463 H   0  0  0  0  0  0  0  0  0  0  0  0
    1.0567   -0.6720   -1.4312 H   0  0  0  0  0  0  0  0  0  0  0  0
    1.7113    3.0791   -3.4125 H   0  0  0  0  0  0  0  0  0  0  0  0
   -0.7157    3.1908   -3.9897 H   0  0  0  0  0  0  0  0  0  0  0  0
    2.9117    1.0758   -2.0881 N   0  0  0  0  0  0  0  0  0  0  0  0
    3.8362    1.9404   -1.8967 N   0  0  0  0  0  0  0  0  0  0  0  0
    5.3515    0.7165   -4.8392 C   0  0  0  0  0  0  0  0  0  0  0  0
    6.4636    1.4951   -5.1427 C   0  0  0  0  0  0  0  0  0  0  0  0
    7.5927    1.5039   -4.3079 C   0  0  0  0  0  0  0  0  0  0  0  0
    7.5822    0.7074   -3.1527 C   0  0  0  0  0  0  0  0  0  0  0  0
    6.4785   -0.0774   -2.8317 C   0  0  0  0  0  0  0  0  0  0  0  0
    5.3674   -0.0589   -3.6784 C   0  0  0  0  0  0  0  0  0  0  0  0
    4.4755    0.6987   -5.4796 H   0  0  0  0  0  0  0  0  0  0  0  0
    6.4568    2.1091   -6.0394 H   0  0  0  0  0  0  0  0  0  0  0  0
    8.4469    0.7089   -2.4947 H   0  0  0  0  0  0  0  0  0  0  0  0
    6.4756   -0.6764   -1.9253 H   0  0  0  0  0  0  0  0  0  0  0  0
    3.9748   -1.1237   -3.3031 S   0  0  2  0  0  0  0  0  0  0  0  0
    3.3249    3.4048   -2.0784 O   0  0  0  0  0  0  0  0  0  0  0  0
    3.0114   -0.9709   -4.4247 O   0  0  0  0  0  0  0  0  0  0  0  0
    3.3504   -0.2230   -1.8451 O   0  0  0  0  0  0  0  0  0  0  0  0
    8.7971    2.3412   -4.6607 C   0  0  0  0  0  0  0  0  0  0  0  0
    9.3520    1.8968   -5.4960 H   0  0  0  0  0  0  0  0  0  0  0  0
    8.5019    3.3491   -4.9681 H   0  0  0  0  0  0  0  0  0  0  0  0
    9.4847    2.4316   -3.8154 H   0  0  0  0  0  0  0  0  0  0  0  0
   -2.2574    1.3919   -3.2376 H   0  0  0  0  0  0  0  0  0  0  0  0
  1  2  1  0  0  0  0
  1  7  1  0  0  0  0
  2  8  1  0  0  0  0
  3 11  1  0  0  0  0
  3  2  2  0  0  0  0
  4  3  1  0  0  0  0
  5  4  2  0  0  0  0
  5  6  1  0  0  0  0
  6  1  2  0  0  0  0
  9  4  1  0  0  0  0
 10  5  1  0  0  0  0
 11 12  1  0  0  0  0
 11 26  1  0  0  0  0
 13 18  1  0  0  0  0
 14 13  2  0  0  0  0
 14 15  1  0  0  0  0
 15 16  2  0  0  0  0
 16 17  1  0  0  0  0
 16 21  1  0  0  0  0
 17 22  1  0  0  0  0
 18 23  1  0  0  0  0
 18 17  2  0  0  0  0
 19 13  1  0  0  0  0
 20 14  1  0  0  0  0
 23 25  1  6  0  0  0
 23 26  1  0  0  0  0
 24 12  1  0  0  0  0
 27 15  1  0  0  0  0
 27 30  1  0  0  0  0
 28 27  1  0  0  0  0
 29 27  1  0  0  0  0
 31  6  1  0  0  0  0
M  RAD  3  12   2  24   2  25   2
M  END
