Coordinates from ORCA-job Ph-N2-X-OTs-B3LYPG-6-31G_dp-scan-d09-49-n400
 OpenBabel08281821363D

 31 32  0  0  0  0  0  0  0  0999 V2000
    0.8452    3.2902   -1.1893 C   0  0  0  0  0  0  0  0  0  0  0  0
    1.6601    2.2284   -1.5315 C   0  0  0  0  0  0  0  0  0  0  0  0
    1.2685    1.0526   -2.2143 C   0  0  0  0  0  0  0  0  0  0  0  0
   -0.1942    0.9670   -2.5902 C   0  0  0  0  0  0  0  0  0  0  0  0
   -0.9578    2.0933   -2.2095 C   0  0  0  0  0  0  0  0  0  0  0  0
   -0.4973    3.2162   -1.5412 C   0  0  0  0  0  0  0  0  0  0  0  0
    1.2491    4.1475   -0.6611 H   0  0  0  0  0  0  0  0  0  0  0  0
    2.7096    2.2664   -1.2596 H   0  0  0  0  0  0  0  0  0  0  0  0
   -1.9142    0.4064   -3.2480 H   0  0  0  0  0  0  0  0  0  0  0  0
   -2.0157    2.0765   -2.4685 H   0  0  0  0  0  0  0  0  0  0  0  0
    2.4101    0.1170   -2.4119 N   0  0  0  0  0  0  0  0  0  0  0  0
    3.5832    0.4494   -2.0117 N   0  0  0  0  0  0  0  0  0  0  0  0
    6.7867    0.7726   -3.0558 C   0  0  0  0  0  0  0  0  0  0  0  0
    7.6042    1.4033   -3.9899 C   0  0  0  0  0  0  0  0  0  0  0  0
    7.4572    1.1607   -5.3644 C   0  0  0  0  0  0  0  0  0  0  0  0
    6.4618    0.2665   -5.7856 C   0  0  0  0  0  0  0  0  0  0  0  0
    5.6314   -0.3721   -4.8677 C   0  0  0  0  0  0  0  0  0  0  0  0
    5.8040   -0.1118   -3.5068 C   0  0  0  0  0  0  0  0  0  0  0  0
    6.9108    0.9478   -1.9924 H   0  0  0  0  0  0  0  0  0  0  0  0
    8.3722    2.0921   -3.6478 H   0  0  0  0  0  0  0  0  0  0  0  0
    6.3377    0.0657   -6.8466 H   0  0  0  0  0  0  0  0  0  0  0  0
    4.8660   -1.0701   -5.1895 H   0  0  0  0  0  0  0  0  0  0  0  0
    4.7345   -0.9132   -2.3214 S   0  0  0  0  0  0  0  0  0  0  0  0
   -1.0326    0.0162   -3.2544 O   0  0  0  0  0  0  0  0  0  0  0  0
    5.4390   -1.0356   -1.0421 O   0  0  0  0  0  0  0  0  0  0  0  0
    4.0818   -2.0546   -2.9623 O   0  0  0  0  0  0  0  0  0  0  0  0
    8.3727    1.8230   -6.3654 C   0  0  0  0  0  0  0  0  0  0  0  0
    8.6783    2.8184   -6.0313 H   0  0  0  0  0  0  0  0  0  0  0  0
    9.2862    1.2329   -6.5080 H   0  0  0  0  0  0  0  0  0  0  0  0
    7.8927    1.9222   -7.3430 H   0  0  0  0  0  0  0  0  0  0  0  0
   -1.1913    4.0161   -1.3008 H   0  0  0  0  0  0  0  0  0  0  0  0
  1  7  1  0  0  0  0
  2  8  1  0  0  0  0
  2  1  2  0  0  0  0
  3  2  1  0  0  0  0
  4  3  2  0  0  0  0
  4  5  1  0  0  0  0
  5  6  2  0  0  0  0
  6 31  1  0  0  0  0
  6  1  1  0  0  0  0
 10  5  1  0  0  0  0
 11  3  1  0  0  0  0
 11 12  1  0  0  0  0
 13 19  1  0  0  0  0
 14 20  1  0  0  0  0
 14 13  2  0  0  0  0
 15 14  1  0  0  0  0
 16 15  2  0  0  0  0
 16 17  1  0  0  0  0
 17 18  2  0  0  0  0
 18 13  1  0  0  0  0
 18 23  1  0  0  0  0
 21 16  1  0  0  0  0
 22 17  1  0  0  0  0
 23 12  1  0  0  0  0
 23 25  2  0  0  0  0
 24  9  1  0  0  0  0
 24  4  1  0  0  0  0
 26 23  2  0  0  0  0
 27 28  1  0  0  0  0
 27 15  1  0  0  0  0
 29 27  1  0  0  0  0
 30 27  1  0  0  0  0
M  RAD  2  11   2  12   2
M  END
