Coordinates from ORCA-job Ph-N2-X-OTs-B3LYPG-6-31G_dp-scan-d09-49-n400
 OpenBabel08281821363D

 31 32  0  0  0  0  0  0  0  0999 V2000
   -0.5249    0.1604   -1.3302 C   0  0  0  0  0  0  0  0  0  0  0  0
    0.7806    0.5607   -1.6032 C   0  0  0  0  0  0  0  0  0  0  0  0
    1.0267    1.4439   -2.6631 C   0  0  0  0  0  0  0  0  0  0  0  0
   -0.0277    1.9227   -3.4526 C   0  0  0  0  0  0  0  0  0  0  0  0
   -1.3281    1.5126   -3.1613 C   0  0  0  0  0  0  0  0  0  0  0  0
   -1.5844    0.6371   -2.1046 C   0  0  0  0  0  0  0  0  0  0  0  0
   -0.7130   -0.5226   -0.5070 H   0  0  0  0  0  0  0  0  0  0  0  0
    1.6113    0.1979   -1.0107 H   0  0  0  0  0  0  0  0  0  0  0  0
    0.1691    2.5991   -4.2707 H   0  0  0  0  0  0  0  0  0  0  0  0
   -2.1457    1.8813   -3.7731 H   0  0  0  0  0  0  0  0  0  0  0  0
    2.3863    1.8092   -2.9186 N   0  0  0  0  0  0  0  0  0  0  0  0
    2.8836    2.9501   -3.4527 N   0  0  0  0  0  0  0  0  0  0  0  0
    5.9105    1.5501   -4.7729 C   0  0  0  0  0  0  0  0  0  0  0  0
    7.2466    1.9331   -4.7590 C   0  0  0  0  0  0  0  0  0  0  0  0
    8.2115    1.1879   -4.0588 C   0  0  0  0  0  0  0  0  0  0  0  0
    7.8023    0.0405   -3.3658 C   0  0  0  0  0  0  0  0  0  0  0  0
    6.4670   -0.3610   -3.3706 C   0  0  0  0  0  0  0  0  0  0  0  0
    5.5315    0.4018   -4.0719 C   0  0  0  0  0  0  0  0  0  0  0  0
    5.1590    2.1212   -5.3073 H   0  0  0  0  0  0  0  0  0  0  0  0
    7.5511    2.8285   -5.2945 H   0  0  0  0  0  0  0  0  0  0  0  0
    8.5367   -0.5462   -2.8208 H   0  0  0  0  0  0  0  0  0  0  0  0
    6.1619   -1.2564   -2.8349 H   0  0  0  0  0  0  0  0  0  0  0  0
    3.8263   -0.1348   -4.0717 S   0  0  2  0  0  0  0  0  0  0  0  0
    2.0287    3.8210   -3.7270 O   0  0  0  0  0  0  0  0  0  0  0  0
    3.1342    0.5419   -5.2039 O   0  0  0  0  0  0  0  0  0  0  0  0
    3.3490    0.9356   -2.5631 O   0  0  0  0  0  0  0  0  0  0  0  0
    9.6615    1.6053   -4.0785 C   0  0  0  0  0  0  0  0  0  0  0  0
   10.1397    1.3124   -5.0217 H   0  0  0  0  0  0  0  0  0  0  0  0
    9.7648    2.6913   -3.9884 H   0  0  0  0  0  0  0  0  0  0  0  0
   10.2253    1.1396   -3.2660 H   0  0  0  0  0  0  0  0  0  0  0  0
   -2.6019    0.3265   -1.8877 H   0  0  0  0  0  0  0  0  0  0  0  0
  1  7  1  0  0  0  0
  2  1  1  0  0  0  0
  2  8  1  0  0  0  0
  3  2  2  0  0  0  0
  4  5  2  0  0  0  0
  4  3  1  0  0  0  0
  5  6  1  0  0  0  0
  6 31  1  0  0  0  0
  6  1  2  0  0  0  0
  9  4  1  0  0  0  0
 10  5  1  0  0  0  0
 11  3  1  0  0  0  0
 11 26  1  0  0  0  0
 12 11  1  0  0  0  0
 13 14  2  0  0  0  0
 13 18  1  0  0  0  0
 14 15  1  0  0  0  0
 15 16  2  0  0  0  0
 16 21  1  0  0  0  0
 17 16  1  0  0  0  0
 17 22  1  0  0  0  0
 18 23  1  0  0  0  0
 18 17  2  0  0  0  0
 19 13  1  0  0  0  0
 20 14  1  0  0  0  0
 23 25  1  6  0  0  0
 23 26  1  0  0  0  0
 24 12  1  0  0  0  0
 27 15  1  0  0  0  0
 27 29  1  0  0  0  0
 27 30  1  0  0  0  0
 28 27  1  0  0  0  0
M  RAD  3  12   2  24   2  25   2
M  END
