Coordinates from ORCA-job Ph-N2-X-OTs-B3LYPG-6-31G_dp-scan-d09-49-n400
 OpenBabel08281821363D

 31 32  0  0  0  0  0  0  0  0999 V2000
   -0.4901    0.1809   -1.2571 C   0  0  0  0  0  0  0  0  0  0  0  0
    0.7999    0.5870   -1.5873 C   0  0  0  0  0  0  0  0  0  0  0  0
    1.0033    1.4280   -2.6916 C   0  0  0  0  0  0  0  0  0  0  0  0
   -0.0861    1.8561   -3.4648 C   0  0  0  0  0  0  0  0  0  0  0  0
   -1.3722    1.4495   -3.1109 C   0  0  0  0  0  0  0  0  0  0  0  0
   -1.5823    0.6153   -2.0118 C   0  0  0  0  0  0  0  0  0  0  0  0
   -0.6422   -0.4719   -0.4024 H   0  0  0  0  0  0  0  0  0  0  0  0
    1.6553    0.2605   -1.0082 H   0  0  0  0  0  0  0  0  0  0  0  0
    0.0699    2.4851   -4.3295 H   0  0  0  0  0  0  0  0  0  0  0  0
   -2.2141    1.7817   -3.7108 H   0  0  0  0  0  0  0  0  0  0  0  0
    2.3352    1.8200   -3.0049 N   0  0  0  0  0  0  0  0  0  0  0  0
    2.7885    3.0448   -3.5837 N   0  0  0  0  0  0  0  0  0  0  0  0
    5.9574    1.5994   -4.7829 C   0  0  0  0  0  0  0  0  0  0  0  0
    7.3000    1.9557   -4.7267 C   0  0  0  0  0  0  0  0  0  0  0  0
    8.2342    1.1693   -4.0301 C   0  0  0  0  0  0  0  0  0  0  0  0
    7.7867    0.0087   -3.3848 C   0  0  0  0  0  0  0  0  0  0  0  0
    6.4443   -0.3662   -3.4336 C   0  0  0  0  0  0  0  0  0  0  0  0
    5.5392    0.4368   -4.1298 C   0  0  0  0  0  0  0  0  0  0  0  0
    5.2289    2.2018   -5.3152 H   0  0  0  0  0  0  0  0  0  0  0  0
    7.6342    2.8615   -5.2259 H   0  0  0  0  0  0  0  0  0  0  0  0
    8.4967   -0.6102   -2.8429 H   0  0  0  0  0  0  0  0  0  0  0  0
    6.1101   -1.2727   -2.9354 H   0  0  0  0  0  0  0  0  0  0  0  0
    3.8228   -0.0620   -4.1846 S   0  0  2  0  0  0  0  0  0  0  0  0
    1.9761    3.8079   -3.8262 O   0  0  0  0  0  0  0  0  0  0  0  0
    3.1632    0.6719   -5.3040 O   0  0  0  0  0  0  0  0  0  0  0  0
    3.3455    1.0148   -2.6590 O   0  0  0  0  0  0  0  0  0  0  0  0
    9.6924    1.5576   -4.0040 C   0  0  0  0  0  0  0  0  0  0  0  0
   10.1886    1.2805   -4.9428 H   0  0  0  0  0  0  0  0  0  0  0  0
    9.8151    2.6384   -3.8817 H   0  0  0  0  0  0  0  0  0  0  0  0
   10.2268    1.0592   -3.1909 H   0  0  0  0  0  0  0  0  0  0  0  0
   -2.5877    0.3015   -1.7484 H   0  0  0  0  0  0  0  0  0  0  0  0
  1  7  1  0  0  0  0
  2  1  1  0  0  0  0
  2  8  1  0  0  0  0
  3  2  2  0  0  0  0
  4  5  2  0  0  0  0
  4  3  1  0  0  0  0
  5  6  1  0  0  0  0
  6 31  1  0  0  0  0
  6  1  2  0  0  0  0
  9  4  1  0  0  0  0
 10  5  1  0  0  0  0
 11  3  1  0  0  0  0
 11 26  1  0  0  0  0
 12 11  1  0  0  0  0
 13 14  2  0  0  0  0
 13 18  1  0  0  0  0
 14 15  1  0  0  0  0
 15 27  1  0  0  0  0
 15 16  2  0  0  0  0
 16 21  1  0  0  0  0
 17 16  1  0  0  0  0
 17 22  1  0  0  0  0
 18 17  2  0  0  0  0
 19 13  1  0  0  0  0
 20 14  1  0  0  0  0
 23 25  1  6  0  0  0
 23 18  1  0  0  0  0
 23 26  1  0  0  0  0
 24 12  2  0  0  0  0
 27 29  1  0  0  0  0
 27 30  1  0  0  0  0
 28 27  1  0  0  0  0
M  RAD  1  25   2
M  END
