Coordinates from ORCA-job Ph-N2-X-OTs-B3LYPG-6-31G_dp-scan-d09-49-n400
 OpenBabel08281821363D

 31 31  0  0  0  0  0  0  0  0999 V2000
   -0.6519    0.2412   -2.4212 C   0  0  0  0  0  0  0  0  0  0  0  0
    0.6879    0.1296   -2.0633 C   0  0  0  0  0  0  0  0  0  0  0  0
    1.5593    1.1794   -2.3809 C   0  0  0  0  0  0  0  0  0  0  0  0
    1.1224    2.3273   -3.0505 C   0  0  0  0  0  0  0  0  0  0  0  0
   -0.2209    2.4051   -3.4146 C   0  0  0  0  0  0  0  0  0  0  0  0
   -1.1083    1.3744   -3.1005 C   0  0  0  0  0  0  0  0  0  0  0  0
   -1.3381   -0.5618   -2.1714 H   0  0  0  0  0  0  0  0  0  0  0  0
    1.0535   -0.7468   -1.5461 H   0  0  0  0  0  0  0  0  0  0  0  0
    1.8392    3.1206   -3.2224 H   0  0  0  0  0  0  0  0  0  0  0  0
   -0.5739    3.2861   -3.9417 H   0  0  0  0  0  0  0  0  0  0  0  0
    2.9489    1.0574   -2.0007 N   0  0  0  0  0  0  0  0  0  0  0  0
    3.8591    1.8690   -1.7785 N   0  0  0  0  0  0  0  0  0  0  0  0
    5.3019    0.6403   -4.8180 C   0  0  0  0  0  0  0  0  0  0  0  0
    6.3911    1.4365   -5.1571 C   0  0  0  0  0  0  0  0  0  0  0  0
    7.5236    1.5074   -4.3296 C   0  0  0  0  0  0  0  0  0  0  0  0
    7.5407    0.7550   -3.1454 C   0  0  0  0  0  0  0  0  0  0  0  0
    6.4602   -0.0464   -2.7880 C   0  0  0  0  0  0  0  0  0  0  0  0
    5.3445   -0.0886   -3.6279 C   0  0  0  0  0  0  0  0  0  0  0  0
    4.4246    0.5732   -5.4531 H   0  0  0  0  0  0  0  0  0  0  0  0
    6.3639    2.0145   -6.0768 H   0  0  0  0  0  0  0  0  0  0  0  0
    8.4082    0.8053   -2.4933 H   0  0  0  0  0  0  0  0  0  0  0  0
    6.4772   -0.6097   -1.8594 H   0  0  0  0  0  0  0  0  0  0  0  0
    3.9856   -1.1860   -3.2143 S   0  0  2  0  0  0  0  0  0  0  0  0
    3.3069    3.6074   -1.9528 O   0  0  0  0  0  0  0  0  0  0  0  0
    3.0148   -1.0986   -4.3360 O   0  0  0  0  0  0  0  0  0  0  0  0
    3.3513   -0.2991   -1.7826 O   0  0  0  0  0  0  0  0  0  0  0  0
    8.7001    2.3677   -4.7193 C   0  0  0  0  0  0  0  0  0  0  0  0
    9.2157    1.9540   -5.5942 H   0  0  0  0  0  0  0  0  0  0  0  0
    8.3778    3.3800   -4.9826 H   0  0  0  0  0  0  0  0  0  0  0  0
    9.4282    2.4444   -3.9073 H   0  0  0  0  0  0  0  0  0  0  0  0
   -2.1541    1.4521   -3.3827 H   0  0  0  0  0  0  0  0  0  0  0  0
  1  7  1  0  0  0  0
  1  2  2  0  0  0  0
  2  8  1  0  0  0  0
  3  2  1  0  0  0  0
  3 11  1  0  0  0  0
  4  3  2  0  0  0  0
  5  6  2  0  0  0  0
  5  4  1  0  0  0  0
  6  1  1  0  0  0  0
  9  4  1  0  0  0  0
 10  5  1  0  0  0  0
 11 26  1  0  0  0  0
 11 12  1  0  0  0  0
 13 18  1  0  0  0  0
 14 13  2  0  0  0  0
 14 15  1  0  0  0  0
 15 16  2  0  0  0  0
 16 17  1  0  0  0  0
 16 21  1  0  0  0  0
 17 22  1  0  0  0  0
 18 23  1  0  0  0  0
 18 17  2  0  0  0  0
 19 13  1  0  0  0  0
 20 14  1  0  0  0  0
 23 25  1  6  0  0  0
 23 26  1  0  0  0  0
 27 15  1  0  0  0  0
 27 30  1  0  0  0  0
 28 27  1  0  0  0  0
 29 27  1  0  0  0  0
 31  6  1  0  0  0  0
M  RAD  3  12   3  24   3  25   2
M  END
