Coordinates from ORCA-job Ph-N2-X-OTs-B3LYPG-6-31G_dp-scan-d09-49-n400
 OpenBabel08281821363D

 31 32  0  0  0  0  0  0  0  0999 V2000
   -0.4039   -0.2239   -1.7951 C   0  0  0  0  0  0  0  0  0  0  0  0
    0.8653    0.2674   -2.0887 C   0  0  0  0  0  0  0  0  0  0  0  0
    1.0099    1.5299   -2.6890 C   0  0  0  0  0  0  0  0  0  0  0  0
   -0.1330    2.3074   -2.9540 C   0  0  0  0  0  0  0  0  0  0  0  0
   -1.3947    1.7939   -2.6569 C   0  0  0  0  0  0  0  0  0  0  0  0
   -1.5424    0.5304   -2.0838 C   0  0  0  0  0  0  0  0  0  0  0  0
   -0.4994   -1.2014   -1.3318 H   0  0  0  0  0  0  0  0  0  0  0  0
    1.7471   -0.3066   -1.8352 H   0  0  0  0  0  0  0  0  0  0  0  0
   -0.0434    3.2961   -3.3775 H   0  0  0  0  0  0  0  0  0  0  0  0
   -2.2704    2.3998   -2.8705 H   0  0  0  0  0  0  0  0  0  0  0  0
    2.3093    2.0175   -2.9794 N   0  0  0  0  0  0  0  0  0  0  0  0
    2.7060    2.9389   -4.1148 N   0  0  0  0  0  0  0  0  0  0  0  0
    5.9585    1.4178   -4.8408 C   0  0  0  0  0  0  0  0  0  0  0  0
    7.3027    1.7739   -4.8671 C   0  0  0  0  0  0  0  0  0  0  0  0
    8.2316    1.1787   -3.9969 C   0  0  0  0  0  0  0  0  0  0  0  0
    7.7769    0.2094   -3.0921 C   0  0  0  0  0  0  0  0  0  0  0  0
    6.4341   -0.1638   -3.0557 C   0  0  0  0  0  0  0  0  0  0  0  0
    5.5333    0.4503   -3.9278 C   0  0  0  0  0  0  0  0  0  0  0  0
    5.2343    1.8741   -5.5072 H   0  0  0  0  0  0  0  0  0  0  0  0
    7.6413    2.5298   -5.5716 H   0  0  0  0  0  0  0  0  0  0  0  0
    8.4818   -0.2610   -2.4119 H   0  0  0  0  0  0  0  0  0  0  0  0
    6.0957   -0.9218   -2.3531 H   0  0  0  0  0  0  0  0  0  0  0  0
    3.8157   -0.0471   -3.8701 S   0  0  2  0  0  0  0  0  0  0  0  0
    1.8780    3.4945   -4.6036 O   0  0  0  0  0  0  0  0  0  0  0  0
    3.1446    0.4495   -5.1095 O   0  0  0  0  0  0  0  0  0  0  0  0
    3.3659    1.3079   -2.5759 O   0  0  0  0  0  0  0  0  0  0  0  0
    9.6920    1.5548   -4.0583 C   0  0  0  0  0  0  0  0  0  0  0  0
   10.2164    0.9669   -4.8216 H   0  0  0  0  0  0  0  0  0  0  0  0
    9.8219    2.6100   -4.3163 H   0  0  0  0  0  0  0  0  0  0  0  0
   10.1948    1.3731   -3.1038 H   0  0  0  0  0  0  0  0  0  0  0  0
   -2.5304    0.1447   -1.8521 H   0  0  0  0  0  0  0  0  0  0  0  0
  1  7  1  0  0  0  0
  2  8  1  0  0  0  0
  2  1  2  0  0  0  0
  3  2  1  0  0  0  0
  4  3  2  0  0  0  0
  4  5  1  0  0  0  0
  5  6  2  0  0  0  0
  6 31  1  0  0  0  0
  6  1  1  0  0  0  0
  9  4  1  0  0  0  0
 10  5  1  0  0  0  0
 11  3  1  0  0  0  0
 11 26  1  0  0  0  0
 12 11  1  0  0  0  0
 13 18  1  0  0  0  0
 14 13  2  0  0  0  0
 14 15  1  0  0  0  0
 15 16  2  0  0  0  0
 16 17  1  0  0  0  0
 16 21  1  0  0  0  0
 17 22  1  0  0  0  0
 18 23  1  0  0  0  0
 18 17  2  0  0  0  0
 19 13  1  0  0  0  0
 20 14  1  0  0  0  0
 23 25  1  6  0  0  0
 23 26  1  0  0  0  0
 24 12  2  0  0  0  0
 27 15  1  0  0  0  0
 27 30  1  0  0  0  0
 28 27  1  0  0  0  0
 29 27  1  0  0  0  0
M  RAD  1  25   2
M  END
