Coordinates from ORCA-job Ph-N2-X-OTs-B3LYPG-6-31G_dp-scan-d09-49-n400
 OpenBabel08281821363D

 31 32  0  0  0  0  0  0  0  0999 V2000
    0.7816    3.3994   -1.1667 C   0  0  0  0  0  0  0  0  0  0  0  0
    1.7039    2.4091   -1.4549 C   0  0  0  0  0  0  0  0  0  0  0  0
    1.3488    1.2167   -2.1209 C   0  0  0  0  0  0  0  0  0  0  0  0
   -0.0167    1.0294   -2.5040 C   0  0  0  0  0  0  0  0  0  0  0  0
   -0.9353    2.0513   -2.2015 C   0  0  0  0  0  0  0  0  0  0  0  0
   -0.5529    3.2135   -1.5474 C   0  0  0  0  0  0  0  0  0  0  0  0
    1.0888    4.3031   -0.6510 H   0  0  0  0  0  0  0  0  0  0  0  0
    2.7438    2.5179   -1.1675 H   0  0  0  0  0  0  0  0  0  0  0  0
   -1.4161    0.0086   -3.2947 H   0  0  0  0  0  0  0  0  0  0  0  0
   -1.9746    1.9145   -2.4936 H   0  0  0  0  0  0  0  0  0  0  0  0
    2.3282    0.2181   -2.3930 N   0  0  0  0  0  0  0  0  0  0  0  0
    3.5047    0.4893   -2.0545 N   0  0  0  0  0  0  0  0  0  0  0  0
    6.7303    0.7088   -3.0706 C   0  0  0  0  0  0  0  0  0  0  0  0
    7.5822    1.3309   -3.9793 C   0  0  0  0  0  0  0  0  0  0  0  0
    7.4365    1.1359   -5.3615 C   0  0  0  0  0  0  0  0  0  0  0  0
    6.4069    0.2989   -5.8162 C   0  0  0  0  0  0  0  0  0  0  0  0
    5.5420   -0.3299   -4.9233 C   0  0  0  0  0  0  0  0  0  0  0  0
    5.7136   -0.1181   -3.5543 C   0  0  0  0  0  0  0  0  0  0  0  0
    6.8532    0.8462   -2.0015 H   0  0  0  0  0  0  0  0  0  0  0  0
    8.3767    1.9748   -3.6110 H   0  0  0  0  0  0  0  0  0  0  0  0
    6.2835    0.1349   -6.8837 H   0  0  0  0  0  0  0  0  0  0  0  0
    4.7500   -0.9844   -5.2712 H   0  0  0  0  0  0  0  0  0  0  0  0
    4.6008   -0.9079   -2.3996 S   0  0  0  0  0  0  0  0  0  0  0  0
   -0.4660   -0.0838   -3.1477 O   0  0  0  0  0  0  0  0  0  0  0  0
    5.2985   -1.1091   -1.1252 O   0  0  0  0  0  0  0  0  0  0  0  0
    3.9019   -1.9984   -3.0826 O   0  0  0  0  0  0  0  0  0  0  0  0
    8.3887    1.7876   -6.3351 C   0  0  0  0  0  0  0  0  0  0  0  0
    8.7088    2.7725   -5.9834 H   0  0  0  0  0  0  0  0  0  0  0  0
    9.2922    1.1790   -6.4636 H   0  0  0  0  0  0  0  0  0  0  0  0
    7.9331    1.9080   -7.3217 H   0  0  0  0  0  0  0  0  0  0  0  0
   -1.2976    3.9739   -1.3309 H   0  0  0  0  0  0  0  0  0  0  0  0
  1  7  1  0  0  0  0
  2  8  1  0  0  0  0
  2  1  1  0  0  0  0
  3  2  2  0  0  0  0
  4  5  2  0  0  0  0
  4  3  1  0  0  0  0
  5  6  1  0  0  0  0
  6 31  1  0  0  0  0
  6  1  2  0  0  0  0
  9 24  1  0  0  0  0
 10  5  1  0  0  0  0
 11  3  1  0  0  0  0
 11 12  1  0  0  0  0
 13 19  1  0  0  0  0
 14 20  1  0  0  0  0
 14 13  2  0  0  0  0
 15 14  1  0  0  0  0
 16 15  2  0  0  0  0
 16 17  1  0  0  0  0
 17 18  2  0  0  0  0
 18 13  1  0  0  0  0
 18 23  1  0  0  0  0
 21 16  1  0  0  0  0
 22 17  1  0  0  0  0
 23 12  1  0  0  0  0
 23 25  2  0  0  0  0
 24  4  1  0  0  0  0
 26 23  2  0  0  0  0
 27 28  1  0  0  0  0
 27 15  1  0  0  0  0
 29 27  1  0  0  0  0
 30 27  1  0  0  0  0
M  RAD  2  11   2  12   2
M  END
