Coordinates from ORCA-job Ph-N2-X-OTs-B3LYPG-6-31G_dp-scan-d09-49-n400
 OpenBabel08281821363D

 31 32  0  0  0  0  0  0  0  0999 V2000
   -0.6141    0.1247   -1.4812 C   0  0  0  0  0  0  0  0  0  0  0  0
    0.7269    0.4592   -1.6510 C   0  0  0  0  0  0  0  0  0  0  0  0
    1.0814    1.4170   -2.6102 C   0  0  0  0  0  0  0  0  0  0  0  0
    0.1075    2.0369   -3.4030 C   0  0  0  0  0  0  0  0  0  0  0  0
   -1.2283    1.6811   -3.2218 C   0  0  0  0  0  0  0  0  0  0  0  0
   -1.5961    0.7337   -2.2649 C   0  0  0  0  0  0  0  0  0  0  0  0
   -0.8893   -0.6136   -0.7338 H   0  0  0  0  0  0  0  0  0  0  0  0
    1.4975   -0.0100   -1.0530 H   0  0  0  0  0  0  0  0  0  0  0  0
    0.4015    2.7809   -4.1270 H   0  0  0  0  0  0  0  0  0  0  0  0
   -1.9863    2.1550   -3.8377 H   0  0  0  0  0  0  0  0  0  0  0  0
    2.4800    1.7050   -2.7659 N   0  0  0  0  0  0  0  0  0  0  0  0
    3.0927    2.7725   -3.1975 N   0  0  0  0  0  0  0  0  0  0  0  0
    5.8233    1.4214   -4.7889 C   0  0  0  0  0  0  0  0  0  0  0  0
    7.1362    1.8739   -4.8435 C   0  0  0  0  0  0  0  0  0  0  0  0
    8.1561    1.2412   -4.1114 C   0  0  0  0  0  0  0  0  0  0  0  0
    7.8268    0.1355   -3.3149 C   0  0  0  0  0  0  0  0  0  0  0  0
    6.5160   -0.3339   -3.2481 C   0  0  0  0  0  0  0  0  0  0  0  0
    5.5245    0.3179   -3.9845 C   0  0  0  0  0  0  0  0  0  0  0  0
    5.0302    1.9047   -5.3487 H   0  0  0  0  0  0  0  0  0  0  0  0
    7.3780    2.7362   -5.4592 H   0  0  0  0  0  0  0  0  0  0  0  0
    8.6047   -0.3639   -2.7444 H   0  0  0  0  0  0  0  0  0  0  0  0
    6.2730   -1.1950   -2.6304 H   0  0  0  0  0  0  0  0  0  0  0  0
    3.8560   -0.3146   -3.8997 S   0  0  2  0  0  0  0  0  0  0  0  0
    2.2035    3.8491   -3.5123 O   0  0  0  0  0  0  0  0  0  0  0  0
    3.0974    0.2743   -5.0356 O   0  0  0  0  0  0  0  0  0  0  0  0
    3.3404    0.7172   -2.3945 O   0  0  0  0  0  0  0  0  0  0  0  0
    9.5796    1.7321   -4.2050 C   0  0  0  0  0  0  0  0  0  0  0  0
   10.0402    1.4159   -5.1493 H   0  0  0  0  0  0  0  0  0  0  0  0
    9.6262    2.8254   -4.1735 H   0  0  0  0  0  0  0  0  0  0  0  0
   10.1951    1.3400   -3.3909 H   0  0  0  0  0  0  0  0  0  0  0  0
   -2.6412    0.4711   -2.1304 H   0  0  0  0  0  0  0  0  0  0  0  0
  1  7  1  0  0  0  0
  2  1  1  0  0  0  0
  2  8  1  0  0  0  0
  3  2  2  0  0  0  0
  4  5  2  0  0  0  0
  4  3  1  0  0  0  0
  5  6  1  0  0  0  0
  6 31  1  0  0  0  0
  6  1  2  0  0  0  0
  9  4  1  0  0  0  0
 10  5  1  0  0  0  0
 11  3  1  0  0  0  0
 11 26  1  0  0  0  0
 12 11  1  0  0  0  0
 13 18  1  0  0  0  0
 14 13  2  0  0  0  0
 14 15  1  0  0  0  0
 15 16  2  0  0  0  0
 16 17  1  0  0  0  0
 16 21  1  0  0  0  0
 17 22  1  0  0  0  0
 18 23  1  0  0  0  0
 18 17  2  0  0  0  0
 19 13  1  0  0  0  0
 20 14  1  0  0  0  0
 23 25  1  6  0  0  0
 23 26  1  0  0  0  0
 24 12  1  0  0  0  0
 27 29  1  0  0  0  0
 27 15  1  0  0  0  0
 27 30  1  0  0  0  0
 28 27  1  0  0  0  0
M  RAD  3  12   2  24   2  25   2
M  END
