Coordinates from ORCA-job Ph-N2-X-OTs-B3LYPG-6-31G_dp-scan-d09-49-n400
 OpenBabel08281821363D

 31 32  0  0  0  0  0  0  0  0999 V2000
    0.5621    3.6457   -2.3519 C   0  0  0  0  0  0  0  0  0  0  0  0
    1.4853    2.6776   -2.7558 C   0  0  0  0  0  0  0  0  0  0  0  0
    1.2581    1.3437   -2.4338 C   0  0  0  0  0  0  0  0  0  0  0  0
    0.1453    0.9615   -1.6743 C   0  0  0  0  0  0  0  0  0  0  0  0
   -0.7683    1.9310   -1.2610 C   0  0  0  0  0  0  0  0  0  0  0  0
   -0.5595    3.2683   -1.6118 C   0  0  0  0  0  0  0  0  0  0  0  0
    0.7196    4.6863   -2.6158 H   0  0  0  0  0  0  0  0  0  0  0  0
    2.3640    2.9399   -3.3361 H   0  0  0  0  0  0  0  0  0  0  0  0
   -0.7233   -0.5534   -0.8862 H   0  0  0  0  0  0  0  0  0  0  0  0
   -1.6296    1.6438   -0.6623 H   0  0  0  0  0  0  0  0  0  0  0  0
    2.0817    0.2649   -2.8939 N   0  0  0  0  0  0  0  0  0  0  0  0
    3.2264    0.2964   -2.4458 N   0  0  0  0  0  0  0  0  0  0  0  0
    6.5714    0.2732   -3.0763 C   0  0  0  0  0  0  0  0  0  0  0  0
    7.5918    0.9940   -3.6912 C   0  0  0  0  0  0  0  0  0  0  0  0
    7.5902    1.2165   -5.0772 C   0  0  0  0  0  0  0  0  0  0  0  0
    6.5331    0.6983   -5.8392 C   0  0  0  0  0  0  0  0  0  0  0  0
    5.5009   -0.0234   -5.2427 C   0  0  0  0  0  0  0  0  0  0  0  0
    5.5319   -0.2296   -3.8625 C   0  0  0  0  0  0  0  0  0  0  0  0
    6.5802    0.0874   -2.0077 H   0  0  0  0  0  0  0  0  0  0  0  0
    8.4051    1.3880   -3.0874 H   0  0  0  0  0  0  0  0  0  0  0  0
    6.5191    0.8608   -6.9139 H   0  0  0  0  0  0  0  0  0  0  0  0
    4.6866   -0.4336   -5.8303 H   0  0  0  0  0  0  0  0  0  0  0  0
    4.2018   -1.1322   -3.0821 S   0  0  0  0  0  0  0  0  0  0  0  0
    0.0990   -0.3582   -1.3550 O   0  0  0  0  0  0  0  0  0  0  0  0
    4.7032   -1.7705   -1.8608 O   0  0  0  0  0  0  0  0  0  0  0  0
    3.4603   -1.8721   -4.1064 O   0  0  0  0  0  0  0  0  0  0  0  0
    8.7189    1.9729   -5.7350 C   0  0  0  0  0  0  0  0  0  0  0  0
    9.0806    2.7862   -5.0986 H   0  0  0  0  0  0  0  0  0  0  0  0
    9.5707    1.3099   -5.9305 H   0  0  0  0  0  0  0  0  0  0  0  0
    8.4105    2.3999   -6.6930 H   0  0  0  0  0  0  0  0  0  0  0  0
   -1.2776    4.0178   -1.2933 H   0  0  0  0  0  0  0  0  0  0  0  0
  1  6  2  0  0  0  0
  2  3  2  0  0  0  0
  2  1  1  0  0  0  0
  3  4  1  0  0  0  0
  4 24  1  0  0  0  0
  4  5  2  0  0  0  0
  5 10  1  0  0  0  0
  6 31  1  0  0  0  0
  6  5  1  0  0  0  0
  7  1  1  0  0  0  0
  8  2  1  0  0  0  0
 11 12  1  0  0  0  0
 11  3  1  0  0  0  0
 13 19  1  0  0  0  0
 14 20  1  0  0  0  0
 14 13  1  0  0  0  0
 15 14  2  0  0  0  0
 16 17  2  0  0  0  0
 16 15  1  0  0  0  0
 17 18  1  0  0  0  0
 18 23  1  0  0  0  0
 18 13  2  0  0  0  0
 21 16  1  0  0  0  0
 22 17  1  0  0  0  0
 23 12  1  0  0  0  0
 23 25  2  0  0  0  0
 24  9  1  0  0  0  0
 26 23  2  0  0  0  0
 27 28  1  0  0  0  0
 27 15  1  0  0  0  0
 29 27  1  0  0  0  0
 30 27  1  0  0  0  0
M  RAD  2  11   2  12   2
M  END
