Coordinates from ORCA-job Ph-N2-X-OTs-B3LYPG-6-31G_dp-scan-d09-49-n400
 OpenBabel08281821363D

 31 30  0  0  0  0  0  0  0  0999 V2000
   -0.3170    0.4972   -3.5400 C   0  0  0  0  0  0  0  0  0  0  0  0
    1.0055    0.4612   -3.1054 C   0  0  0  0  0  0  0  0  0  0  0  0
    1.4433    1.4997   -2.2817 C   0  0  0  0  0  0  0  0  0  0  0  0
    0.6226    2.5642   -1.8756 C   0  0  0  0  0  0  0  0  0  0  0  0
   -0.6974    2.5596   -2.3159 C   0  0  0  0  0  0  0  0  0  0  0  0
   -1.1667    1.5340   -3.1425 C   0  0  0  0  0  0  0  0  0  0  0  0
   -0.6833   -0.2934   -4.1870 H   0  0  0  0  0  0  0  0  0  0  0  0
    1.6733   -0.3382   -3.4071 H   0  0  0  0  0  0  0  0  0  0  0  0
    1.0650    3.3542   -1.2702 H   0  0  0  0  0  0  0  0  0  0  0  0
   -1.3588    3.3666   -2.0163 H   0  0  0  0  0  0  0  0  0  0  0  0
    2.7880    1.5420   -1.8166 N   0  0  0  0  0  0  0  0  0  0  0  0
    3.5601    2.2231   -1.3084 N   0  0  0  0  0  0  0  0  0  0  0  0
    5.7221   -0.2686   -4.9041 C   0  0  0  0  0  0  0  0  0  0  0  0
    6.7673    0.5008   -5.4165 C   0  0  0  0  0  0  0  0  0  0  0  0
    7.5849    1.2665   -4.5750 C   0  0  0  0  0  0  0  0  0  0  0  0
    7.3332    1.2439   -3.1924 C   0  0  0  0  0  0  0  0  0  0  0  0
    6.2968    0.4829   -2.6611 C   0  0  0  0  0  0  0  0  0  0  0  0
    5.4863   -0.2523   -3.5307 C   0  0  0  0  0  0  0  0  0  0  0  0
    5.0864   -0.8624   -5.5522 H   0  0  0  0  0  0  0  0  0  0  0  0
    6.9505    0.5041   -6.4880 H   0  0  0  0  0  0  0  0  0  0  0  0
    7.9555    1.8347   -2.5255 H   0  0  0  0  0  0  0  0  0  0  0  0
    6.1022    0.4787   -1.5938 H   0  0  0  0  0  0  0  0  0  0  0  0
    4.1816   -1.3153   -2.8510 S   0  0  0  0  0  0  0  0  0  0  0  0
    2.9285    4.1888   -0.9653 O   0  0  0  0  0  0  0  0  0  0  0  0
    3.3010   -1.6880   -4.0060 O   0  0  0  0  0  0  0  0  0  0  0  0
    3.5287   -0.4807   -1.7348 O   0  0  0  0  0  0  0  0  0  0  0  0
    8.7013    2.1139   -5.1342 C   0  0  0  0  0  0  0  0  0  0  0  0
    8.9367    1.8380   -6.1653 H   0  0  0  0  0  0  0  0  0  0  0  0
    8.4258    3.1758   -5.1295 H   0  0  0  0  0  0  0  0  0  0  0  0
    9.6142    2.0159   -4.5378 H   0  0  0  0  0  0  0  0  0  0  0  0
   -2.1981    1.5442   -3.4822 H   0  0  0  0  0  0  0  0  0  0  0  0
  1  6  2  0  0  0  0
  1  2  1  0  0  0  0
  2  3  2  0  0  0  0
  3  4  1  0  0  0  0
  3 11  1  0  0  0  0
  4  9  1  0  0  0  0
  5 10  1  0  0  0  0
  5  4  2  0  0  0  0
  6  5  1  0  0  0  0
  7  1  1  0  0  0  0
  8  2  1  0  0  0  0
 11 12  2  0  0  0  0
 13 18  1  0  0  0  0
 14 13  2  0  0  0  0
 14 15  1  0  0  0  0
 15 16  2  0  0  0  0
 16 17  1  0  0  0  0
 16 21  1  0  0  0  0
 17 22  1  0  0  0  0
 18 23  1  0  0  0  0
 18 17  2  0  0  0  0
 19 13  1  0  0  0  0
 20 14  1  0  0  0  0
 23 26  1  0  0  0  0
 25 23  1  0  0  0  0
 27 29  1  0  0  0  0
 27 15  1  0  0  0  0
 27 30  1  0  0  0  0
 28 27  1  0  0  0  0
 31  6  1  0  0  0  0
M  RAD  4  12   2  24   3  25   2  26   2
M  END
