Coordinates from ORCA-job Ph-N2-X-OTs-B3LYPG-6-31G_dp-scan-d09-49-n400
 OpenBabel08281821363D

 31 32  0  0  0  0  0  0  0  0999 V2000
    0.8437    3.2974   -1.1877 C   0  0  0  0  0  0  0  0  0  0  0  0
    1.6652    2.2401   -1.5272 C   0  0  0  0  0  0  0  0  0  0  0  0
    1.2749    1.0630   -2.2096 C   0  0  0  0  0  0  0  0  0  0  0  0
   -0.1788    0.9711   -2.5841 C   0  0  0  0  0  0  0  0  0  0  0  0
   -0.9542    2.0909   -2.2078 C   0  0  0  0  0  0  0  0  0  0  0  0
   -0.4991    3.2163   -1.5408 C   0  0  0  0  0  0  0  0  0  0  0  0
    1.2418    4.1579   -0.6602 H   0  0  0  0  0  0  0  0  0  0  0  0
    2.7144    2.2819   -1.2553 H   0  0  0  0  0  0  0  0  0  0  0  0
   -1.8796    0.3802   -3.2568 H   0  0  0  0  0  0  0  0  0  0  0  0
   -2.0115    2.0641   -2.4685 H   0  0  0  0  0  0  0  0  0  0  0  0
    2.4026    0.1240   -2.4137 N   0  0  0  0  0  0  0  0  0  0  0  0
    3.5754    0.4516   -2.0152 N   0  0  0  0  0  0  0  0  0  0  0  0
    6.7802    0.7700   -3.0564 C   0  0  0  0  0  0  0  0  0  0  0  0
    7.6002    1.4000   -3.9888 C   0  0  0  0  0  0  0  0  0  0  0  0
    7.4545    1.1592   -5.3637 C   0  0  0  0  0  0  0  0  0  0  0  0
    6.4577    0.2676   -5.7872 C   0  0  0  0  0  0  0  0  0  0  0  0
    5.6248   -0.3702   -4.8710 C   0  0  0  0  0  0  0  0  0  0  0  0
    5.7962   -0.1119   -3.5097 C   0  0  0  0  0  0  0  0  0  0  0  0
    6.9035    0.9436   -1.9927 H   0  0  0  0  0  0  0  0  0  0  0  0
    8.3693    2.0867   -3.6449 H   0  0  0  0  0  0  0  0  0  0  0  0
    6.3346    0.0683   -6.8486 H   0  0  0  0  0  0  0  0  0  0  0  0
    4.8584   -1.0662   -5.1945 H   0  0  0  0  0  0  0  0  0  0  0  0
    4.7235   -0.9126   -2.3265 S   0  0  0  0  0  0  0  0  0  0  0  0
   -0.9902    0.0081   -3.2471 O   0  0  0  0  0  0  0  0  0  0  0  0
    5.4274   -1.0398   -1.0472 O   0  0  0  0  0  0  0  0  0  0  0  0
    4.0684   -2.0512   -2.9703 O   0  0  0  0  0  0  0  0  0  0  0  0
    8.3727    1.8208   -6.3628 C   0  0  0  0  0  0  0  0  0  0  0  0
    8.6775    2.8164   -6.0285 H   0  0  0  0  0  0  0  0  0  0  0  0
    9.2866    1.2306   -6.5025 H   0  0  0  0  0  0  0  0  0  0  0  0
    7.8954    1.9193   -7.3417 H   0  0  0  0  0  0  0  0  0  0  0  0
   -1.1964    4.0136   -1.3010 H   0  0  0  0  0  0  0  0  0  0  0  0
  1  7  1  0  0  0  0
  2  8  1  0  0  0  0
  2  1  2  0  0  0  0
  3  2  1  0  0  0  0
  4  3  2  0  0  0  0
  4  5  1  0  0  0  0
  5  6  2  0  0  0  0
  6 31  1  0  0  0  0
  6  1  1  0  0  0  0
  9 24  1  0  0  0  0
 10  5  1  0  0  0  0
 11  3  1  0  0  0  0
 11 12  1  0  0  0  0
 13 19  1  0  0  0  0
 14 20  1  0  0  0  0
 14 13  2  0  0  0  0
 15 14  1  0  0  0  0
 16 15  2  0  0  0  0
 16 17  1  0  0  0  0
 17 18  2  0  0  0  0
 18 13  1  0  0  0  0
 18 23  1  0  0  0  0
 21 16  1  0  0  0  0
 22 17  1  0  0  0  0
 23 12  1  0  0  0  0
 23 25  2  0  0  0  0
 24  4  1  0  0  0  0
 26 23  2  0  0  0  0
 27 28  1  0  0  0  0
 27 15  1  0  0  0  0
 29 27  1  0  0  0  0
 30 27  1  0  0  0  0
M  RAD  2  11   2  12   2
M  END
