Coordinates from ORCA-job Ph-N2-X-OTs-B3LYPG-6-31G_dp-scan-d09-49-n400
 OpenBabel08281821363D

 31 32  0  0  0  0  0  0  0  0999 V2000
    0.8175    3.3485   -1.1668 C   0  0  0  0  0  0  0  0  0  0  0  0
    1.6927    2.3265   -1.4798 C   0  0  0  0  0  0  0  0  0  0  0  0
    1.3208    1.1446   -2.1633 C   0  0  0  0  0  0  0  0  0  0  0  0
   -0.0761    1.0071   -2.5484 C   0  0  0  0  0  0  0  0  0  0  0  0
   -0.9342    2.0750   -2.2113 C   0  0  0  0  0  0  0  0  0  0  0  0
   -0.5214    3.2160   -1.5429 C   0  0  0  0  0  0  0  0  0  0  0  0
    1.1658    4.2296   -0.6382 H   0  0  0  0  0  0  0  0  0  0  0  0
    2.7362    2.3983   -1.1940 H   0  0  0  0  0  0  0  0  0  0  0  0
   -1.6190    0.1842   -3.3123 H   0  0  0  0  0  0  0  0  0  0  0  0
   -1.9812    1.9865   -2.4967 H   0  0  0  0  0  0  0  0  0  0  0  0
    2.3597    0.1730   -2.4059 N   0  0  0  0  0  0  0  0  0  0  0  0
    3.5318    0.4688   -2.0322 N   0  0  0  0  0  0  0  0  0  0  0  0
    6.7464    0.7430   -3.0628 C   0  0  0  0  0  0  0  0  0  0  0  0
    7.5816    1.3687   -3.9844 C   0  0  0  0  0  0  0  0  0  0  0  0
    7.4366    1.1471   -5.3628 C   0  0  0  0  0  0  0  0  0  0  0  0
    6.4249    0.2796   -5.8003 C   0  0  0  0  0  0  0  0  0  0  0  0
    5.5767   -0.3532   -4.8945 C   0  0  0  0  0  0  0  0  0  0  0  0
    5.7474   -0.1146   -3.5296 C   0  0  0  0  0  0  0  0  0  0  0  0
    6.8691    0.9013   -1.9966 H   0  0  0  0  0  0  0  0  0  0  0  0
    8.3623    2.0365   -3.6296 H   0  0  0  0  0  0  0  0  0  0  0  0
    6.3023    0.0951   -6.8644 H   0  0  0  0  0  0  0  0  0  0  0  0
    4.7986   -1.0310   -5.2289 H   0  0  0  0  0  0  0  0  0  0  0  0
    4.6554   -0.9096   -2.3594 S   0  0  0  0  0  0  0  0  0  0  0  0
   -0.6855   -0.0396   -3.2124 O   0  0  0  0  0  0  0  0  0  0  0  0
    5.3577   -1.0723   -1.0825 O   0  0  0  0  0  0  0  0  0  0  0  0
    3.9792   -2.0260   -3.0218 O   0  0  0  0  0  0  0  0  0  0  0  0
    8.3711    1.8034   -6.3502 C   0  0  0  0  0  0  0  0  0  0  0  0
    8.6776    2.7972   -6.0118 H   0  0  0  0  0  0  0  0  0  0  0  0
    9.2833    1.2081   -6.4787 H   0  0  0  0  0  0  0  0  0  0  0  0
    7.9065    1.9052   -7.3349 H   0  0  0  0  0  0  0  0  0  0  0  0
   -1.2443    3.9937   -1.3147 H   0  0  0  0  0  0  0  0  0  0  0  0
  1  7  1  0  0  0  0
  2  8  1  0  0  0  0
  2  1  1  0  0  0  0
  3  2  2  0  0  0  0
  4  5  2  0  0  0  0
  4  3  1  0  0  0  0
  5  6  1  0  0  0  0
  6 31  1  0  0  0  0
  6  1  2  0  0  0  0
  9 24  1  0  0  0  0
 10  5  1  0  0  0  0
 11  3  1  0  0  0  0
 11 12  1  0  0  0  0
 13 19  1  0  0  0  0
 14 20  1  0  0  0  0
 14 13  2  0  0  0  0
 15 14  1  0  0  0  0
 16 15  2  0  0  0  0
 16 17  1  0  0  0  0
 17 18  2  0  0  0  0
 18 13  1  0  0  0  0
 18 23  1  0  0  0  0
 21 16  1  0  0  0  0
 22 17  1  0  0  0  0
 23 12  1  0  0  0  0
 23 25  2  0  0  0  0
 24  4  1  0  0  0  0
 26 23  2  0  0  0  0
 27 28  1  0  0  0  0
 27 15  1  0  0  0  0
 29 27  1  0  0  0  0
 30 27  1  0  0  0  0
M  RAD  2  11   2  12   2
M  END
