Coordinates from ORCA-job Ph-N2-X-OTs-B3LYPG-6-31G_dp-scan-d09-49-n400
 OpenBabel08281821363D

 31 32  0  0  0  0  0  0  0  0999 V2000
    0.5820    3.6478   -2.3239 C   0  0  0  0  0  0  0  0  0  0  0  0
    1.5086    2.6793   -2.7183 C   0  0  0  0  0  0  0  0  0  0  0  0
    1.2644    1.3423   -2.4210 C   0  0  0  0  0  0  0  0  0  0  0  0
    0.1312    0.9577   -1.6932 C   0  0  0  0  0  0  0  0  0  0  0  0
   -0.7860    1.9275   -1.2886 C   0  0  0  0  0  0  0  0  0  0  0  0
   -0.5598    3.2678   -1.6163 C   0  0  0  0  0  0  0  0  0  0  0  0
    0.7520    4.6909   -2.5700 H   0  0  0  0  0  0  0  0  0  0  0  0
    2.4028    2.9429   -3.2736 H   0  0  0  0  0  0  0  0  0  0  0  0
   -0.7628   -0.5625   -0.9454 H   0  0  0  0  0  0  0  0  0  0  0  0
   -1.6633    1.6383   -0.7147 H   0  0  0  0  0  0  0  0  0  0  0  0
    2.0887    0.2630   -2.8737 N   0  0  0  0  0  0  0  0  0  0  0  0
    3.2355    0.3008   -2.4310 N   0  0  0  0  0  0  0  0  0  0  0  0
    6.5793    0.2813   -3.0754 C   0  0  0  0  0  0  0  0  0  0  0  0
    7.5953    1.0005   -3.6993 C   0  0  0  0  0  0  0  0  0  0  0  0
    7.5859    1.2163   -5.0864 C   0  0  0  0  0  0  0  0  0  0  0  0
    6.5256    0.6927   -5.8401 C   0  0  0  0  0  0  0  0  0  0  0  0
    5.4978   -0.0277   -5.2345 C   0  0  0  0  0  0  0  0  0  0  0  0
    5.5364   -0.2271   -3.8535 C   0  0  0  0  0  0  0  0  0  0  0  0
    6.5941    0.1007   -2.0059 H   0  0  0  0  0  0  0  0  0  0  0  0
    8.4112    1.3987   -3.1018 H   0  0  0  0  0  0  0  0  0  0  0  0
    6.5056    0.8498   -6.9155 H   0  0  0  0  0  0  0  0  0  0  0  0
    4.6811   -0.4423   -5.8158 H   0  0  0  0  0  0  0  0  0  0  0  0
    4.2121   -1.1283   -3.0616 S   0  0  0  0  0  0  0  0  0  0  0  0
    0.0714   -0.3652   -1.3921 O   0  0  0  0  0  0  0  0  0  0  0  0
    4.7209   -1.7574   -1.8385 O   0  0  0  0  0  0  0  0  0  0  0  0
    3.4689   -1.8773   -4.0779 O   0  0  0  0  0  0  0  0  0  0  0  0
    8.7099    1.9715   -5.7536 C   0  0  0  0  0  0  0  0  0  0  0  0
    9.0686    2.7928   -5.1259 H   0  0  0  0  0  0  0  0  0  0  0  0
    9.5646    1.3108   -5.9438 H   0  0  0  0  0  0  0  0  0  0  0  0
    8.3978    2.3875   -6.7152 H   0  0  0  0  0  0  0  0  0  0  0  0
   -1.2807    4.0178   -1.3055 H   0  0  0  0  0  0  0  0  0  0  0  0
  1  6  2  0  0  0  0
  2  3  2  0  0  0  0
  2  1  1  0  0  0  0
  3  4  1  0  0  0  0
  4 24  1  0  0  0  0
  4  5  2  0  0  0  0
  5 10  1  0  0  0  0
  6 31  1  0  0  0  0
  6  5  1  0  0  0  0
  7  1  1  0  0  0  0
  8  2  1  0  0  0  0
 11 12  1  0  0  0  0
 11  3  1  0  0  0  0
 13 19  1  0  0  0  0
 14 20  1  0  0  0  0
 14 13  1  0  0  0  0
 15 14  2  0  0  0  0
 16 17  2  0  0  0  0
 16 15  1  0  0  0  0
 17 18  1  0  0  0  0
 18 13  2  0  0  0  0
 18 23  1  0  0  0  0
 21 16  1  0  0  0  0
 22 17  1  0  0  0  0
 23 12  1  0  0  0  0
 23 25  2  0  0  0  0
 24  9  1  0  0  0  0
 26 23  2  0  0  0  0
 27 28  1  0  0  0  0
 27 15  1  0  0  0  0
 29 27  1  0  0  0  0
 30 27  1  0  0  0  0
M  RAD  2  11   2  12   2
M  END
