Coordinates from ORCA-job Ph-N2-X-OTs-B3LYPG-6-31G_dp-scan-d09-49-n400
 OpenBabel08281821363D

 31 32  0  0  0  0  0  0  0  0999 V2000
    0.7581    3.4201   -1.1598 C   0  0  0  0  0  0  0  0  0  0  0  0
    1.7042    2.4477   -1.4372 C   0  0  0  0  0  0  0  0  0  0  0  0
    1.3614    1.2526   -2.1000 C   0  0  0  0  0  0  0  0  0  0  0  0
    0.0095    1.0411   -2.4878 C   0  0  0  0  0  0  0  0  0  0  0  0
   -0.9370    2.0388   -2.1999 C   0  0  0  0  0  0  0  0  0  0  0  0
   -0.5718    3.2089   -1.5471 C   0  0  0  0  0  0  0  0  0  0  0  0
    1.0430    4.3323   -0.6461 H   0  0  0  0  0  0  0  0  0  0  0  0
    2.7407    2.5748   -1.1451 H   0  0  0  0  0  0  0  0  0  0  0  0
   -1.3140   -0.0632   -3.2955 H   0  0  0  0  0  0  0  0  0  0  0  0
   -1.9714    1.8816   -2.4974 H   0  0  0  0  0  0  0  0  0  0  0  0
    2.3175    0.2431   -2.3844 N   0  0  0  0  0  0  0  0  0  0  0  0
    3.4960    0.5030   -2.0629 N   0  0  0  0  0  0  0  0  0  0  0  0
    6.7255    0.6933   -3.0754 C   0  0  0  0  0  0  0  0  0  0  0  0
    7.5846    1.3124   -3.9793 C   0  0  0  0  0  0  0  0  0  0  0  0
    7.4375    1.1286   -5.3630 C   0  0  0  0  0  0  0  0  0  0  0  0
    6.3992    0.3060   -5.8239 C   0  0  0  0  0  0  0  0  0  0  0  0
    5.5269   -0.3195   -4.9357 C   0  0  0  0  0  0  0  0  0  0  0  0
    5.7001   -0.1192   -3.5652 C   0  0  0  0  0  0  0  0  0  0  0  0
    6.8493    0.8218   -2.0054 H   0  0  0  0  0  0  0  0  0  0  0  0
    8.3859    1.9449   -3.6062 H   0  0  0  0  0  0  0  0  0  0  0  0
    6.2746    0.1508   -6.8926 H   0  0  0  0  0  0  0  0  0  0  0  0
    4.7281   -0.9629   -5.2885 H   0  0  0  0  0  0  0  0  0  0  0  0
    4.5782   -0.9046   -2.4162 S   0  0  0  0  0  0  0  0  0  0  0  0
   -0.3635   -0.0961   -3.1262 O   0  0  0  0  0  0  0  0  0  0  0  0
    5.2744   -1.1226   -1.1434 O   0  0  0  0  0  0  0  0  0  0  0  0
    3.8676   -1.9829   -3.1068 O   0  0  0  0  0  0  0  0  0  0  0  0
    8.3973    1.7768   -6.3314 C   0  0  0  0  0  0  0  0  0  0  0  0
    8.7265    2.7564   -5.9734 H   0  0  0  0  0  0  0  0  0  0  0  0
    9.2950    1.1602   -6.4626 H   0  0  0  0  0  0  0  0  0  0  0  0
    7.9442    1.9077   -7.3179 H   0  0  0  0  0  0  0  0  0  0  0  0
   -1.3282    3.9592   -1.3356 H   0  0  0  0  0  0  0  0  0  0  0  0
  1  7  1  0  0  0  0
  2  1  1  0  0  0  0
  2  8  1  0  0  0  0
  3  2  2  0  0  0  0
  4  5  2  0  0  0  0
  4  3  1  0  0  0  0
  5  6  1  0  0  0  0
  6 31  1  0  0  0  0
  6  1  2  0  0  0  0
  9 24  1  0  0  0  0
 10  5  1  0  0  0  0
 11  3  1  0  0  0  0
 11 12  1  0  0  0  0
 13 19  1  0  0  0  0
 14 20  1  0  0  0  0
 14 13  2  0  0  0  0
 15 14  1  0  0  0  0
 16 15  2  0  0  0  0
 16 17  1  0  0  0  0
 17 18  2  0  0  0  0
 18 13  1  0  0  0  0
 18 23  1  0  0  0  0
 21 16  1  0  0  0  0
 22 17  1  0  0  0  0
 23 12  1  0  0  0  0
 23 25  2  0  0  0  0
 24  4  1  0  0  0  0
 26 23  2  0  0  0  0
 27 28  1  0  0  0  0
 27 15  1  0  0  0  0
 29 27  1  0  0  0  0
 30 27  1  0  0  0  0
M  RAD  2  11   2  12   2
M  END
