Coordinates from ORCA-job Ph-N2-X-OTs-B3LYPG-6-31G_dp-scan-d09-49-n400
 OpenBabel08281821363D

 31 30  0  0  0  0  0  0  0  0999 V2000
   -0.1611    0.5436   -3.6322 C   0  0  0  0  0  0  0  0  0  0  0  0
    1.1095    0.4611   -3.0685 C   0  0  0  0  0  0  0  0  0  0  0  0
    1.4952    1.4880   -2.2053 C   0  0  0  0  0  0  0  0  0  0  0  0
    0.6806    2.5865   -1.8839 C   0  0  0  0  0  0  0  0  0  0  0  0
   -0.5857    2.6282   -2.4579 C   0  0  0  0  0  0  0  0  0  0  0  0
   -1.0065    1.6144   -3.3251 C   0  0  0  0  0  0  0  0  0  0  0  0
   -0.4890   -0.2369   -4.3109 H   0  0  0  0  0  0  0  0  0  0  0  0
    1.7743   -0.3638   -3.3006 H   0  0  0  0  0  0  0  0  0  0  0  0
    1.0824    3.3603   -1.2230 H   0  0  0  0  0  0  0  0  0  0  0  0
   -1.2438    3.4605   -2.2286 H   0  0  0  0  0  0  0  0  0  0  0  0
    2.7806    1.4947   -1.5968 N   0  0  0  0  0  0  0  0  0  0  0  0
    3.5222    2.0888   -0.9713 N   0  0  0  0  0  0  0  0  0  0  0  0
    5.6896   -0.3391   -4.8925 C   0  0  0  0  0  0  0  0  0  0  0  0
    6.6958    0.4591   -5.4374 C   0  0  0  0  0  0  0  0  0  0  0  0
    7.4953    1.2751   -4.6253 C   0  0  0  0  0  0  0  0  0  0  0  0
    7.2646    1.2730   -3.2393 C   0  0  0  0  0  0  0  0  0  0  0  0
    6.2658    0.4838   -2.6765 C   0  0  0  0  0  0  0  0  0  0  0  0
    5.4721   -0.3026   -3.5162 C   0  0  0  0  0  0  0  0  0  0  0  0
    5.0681   -0.9710   -5.5180 H   0  0  0  0  0  0  0  0  0  0  0  0
    6.8634    0.4461   -6.5115 H   0  0  0  0  0  0  0  0  0  0  0  0
    7.8748    1.9001   -2.5944 H   0  0  0  0  0  0  0  0  0  0  0  0
    6.0895    0.4912   -1.6059 H   0  0  0  0  0  0  0  0  0  0  0  0
    4.2214   -1.4042   -2.7889 S   0  0  0  0  0  0  0  0  0  0  0  0
    2.6761    4.2449   -0.4078 O   0  0  0  0  0  0  0  0  0  0  0  0
    3.3116   -1.7946   -3.9189 O   0  0  0  0  0  0  0  0  0  0  0  0
    3.5823   -0.5844   -1.6602 O   0  0  0  0  0  0  0  0  0  0  0  0
    8.5679    2.1537   -5.2214 C   0  0  0  0  0  0  0  0  0  0  0  0
    8.8360    1.8307   -6.2307 H   0  0  0  0  0  0  0  0  0  0  0  0
    8.2287    3.1949   -5.2873 H   0  0  0  0  0  0  0  0  0  0  0  0
    9.4751    2.1488   -4.6090 H   0  0  0  0  0  0  0  0  0  0  0  0
   -1.9975    1.6600   -3.7666 H   0  0  0  0  0  0  0  0  0  0  0  0
  1  6  2  0  0  0  0
  1  2  1  0  0  0  0
  2  3  2  0  0  0  0
  3  4  1  0  0  0  0
  3 11  1  0  0  0  0
  4  9  1  0  0  0  0
  5 10  1  0  0  0  0
  5  4  2  0  0  0  0
  6  5  1  0  0  0  0
  7  1  1  0  0  0  0
  8  2  1  0  0  0  0
 11 12  2  0  0  0  0
 13 18  1  0  0  0  0
 14 13  2  0  0  0  0
 14 15  1  0  0  0  0
 15 16  2  0  0  0  0
 16 17  1  0  0  0  0
 16 21  1  0  0  0  0
 17 22  1  0  0  0  0
 18 23  1  0  0  0  0
 18 17  2  0  0  0  0
 19 13  1  0  0  0  0
 20 14  1  0  0  0  0
 23 26  1  0  0  0  0
 25 23  1  0  0  0  0
 27 15  1  0  0  0  0
 27 30  1  0  0  0  0
 28 27  1  0  0  0  0
 29 27  1  0  0  0  0
 31  6  1  0  0  0  0
M  RAD  4  12   2  24   3  25   2  26   2
M  END
