Coordinates from ORCA-job Ph-N2-X-OTs-B3LYPG-6-31G_dp-scan-d09-49-n400
 OpenBabel08281821363D

 31 31  0  0  0  0  0  0  0  0999 V2000
   -0.6228    0.2479   -2.4985 C   0  0  0  0  0  0  0  0  0  0  0  0
    0.7064    0.1271   -2.1061 C   0  0  0  0  0  0  0  0  0  0  0  0
    1.5853    1.1821   -2.3816 C   0  0  0  0  0  0  0  0  0  0  0  0
    1.1699    2.3438   -3.0401 C   0  0  0  0  0  0  0  0  0  0  0  0
   -0.1630    2.4305   -3.4385 C   0  0  0  0  0  0  0  0  0  0  0  0
   -1.0590    1.3946   -3.1687 C   0  0  0  0  0  0  0  0  0  0  0  0
   -1.3165   -0.5586   -2.2831 H   0  0  0  0  0  0  0  0  0  0  0  0
    1.0564   -0.7588   -1.5949 H   0  0  0  0  0  0  0  0  0  0  0  0
    1.8947    3.1401   -3.1720 H   0  0  0  0  0  0  0  0  0  0  0  0
   -0.5013    3.3220   -3.9575 H   0  0  0  0  0  0  0  0  0  0  0  0
    2.9669    1.0634   -1.9647 N   0  0  0  0  0  0  0  0  0  0  0  0
    3.8661    1.8638   -1.7273 N   0  0  0  0  0  0  0  0  0  0  0  0
    5.2935    0.5389   -4.8105 C   0  0  0  0  0  0  0  0  0  0  0  0
    6.3684    1.3422   -5.1848 C   0  0  0  0  0  0  0  0  0  0  0  0
    7.4842    1.4952   -4.3490 C   0  0  0  0  0  0  0  0  0  0  0  0
    7.5067    0.8110   -3.1221 C   0  0  0  0  0  0  0  0  0  0  0  0
    6.4435    0.0054   -2.7305 C   0  0  0  0  0  0  0  0  0  0  0  0
    5.3381   -0.1142   -3.5792 C   0  0  0  0  0  0  0  0  0  0  0  0
    4.4292    0.4073   -5.4534 H   0  0  0  0  0  0  0  0  0  0  0  0
    6.3425    1.8584   -6.1401 H   0  0  0  0  0  0  0  0  0  0  0  0
    8.3662    0.9189   -2.4665 H   0  0  0  0  0  0  0  0  0  0  0  0
    6.4634   -0.5046   -1.7719 H   0  0  0  0  0  0  0  0  0  0  0  0
    4.0014   -1.2257   -3.1239 S   0  0  2  0  0  0  0  0  0  0  0  0
    3.3229    3.6870   -1.9238 O   0  0  0  0  0  0  0  0  0  0  0  0
    3.0310   -1.2014   -4.2493 O   0  0  0  0  0  0  0  0  0  0  0  0
    3.3572   -0.3153   -1.7286 O   0  0  0  0  0  0  0  0  0  0  0  0
    8.6284    2.3953   -4.7441 C   0  0  0  0  0  0  0  0  0  0  0  0
    8.6762    2.5332   -5.8276 H   0  0  0  0  0  0  0  0  0  0  0  0
    8.5113    3.3871   -4.2910 H   0  0  0  0  0  0  0  0  0  0  0  0
    9.5885    1.9955   -4.4046 H   0  0  0  0  0  0  0  0  0  0  0  0
   -2.0965    1.4787   -3.4781 H   0  0  0  0  0  0  0  0  0  0  0  0
  1  7  1  0  0  0  0
  1  2  2  0  0  0  0
  2  8  1  0  0  0  0
  3  2  1  0  0  0  0
  3 11  1  0  0  0  0
  4  3  2  0  0  0  0
  5  6  2  0  0  0  0
  5  4  1  0  0  0  0
  6  1  1  0  0  0  0
  9  4  1  0  0  0  0
 10  5  1  0  0  0  0
 11 26  1  0  0  0  0
 11 12  1  0  0  0  0
 13 18  1  0  0  0  0
 14 13  2  0  0  0  0
 14 15  1  0  0  0  0
 15 16  2  0  0  0  0
 16 17  1  0  0  0  0
 16 21  1  0  0  0  0
 17 22  1  0  0  0  0
 18 23  1  0  0  0  0
 18 17  2  0  0  0  0
 19 13  1  0  0  0  0
 20 14  1  0  0  0  0
 23 25  1  6  0  0  0
 23 26  1  0  0  0  0
 27 30  1  0  0  0  0
 27 15  1  0  0  0  0
 27 29  1  0  0  0  0
 28 27  1  0  0  0  0
 31  6  1  0  0  0  0
M  RAD  3  12   3  24   3  25   2
M  END
