Coordinates from ORCA-job Ph-N2-X-OTs-B3LYPG-6-31G_dp-scan-d09-49-n400
 OpenBabel08281821363D

 31 30  0  0  0  0  0  0  0  0999 V2000
   -0.6088   -0.3742   -1.7648 C   0  0  0  0  0  0  0  0  0  0  0  0
    0.6479    0.2216   -1.7847 C   0  0  0  0  0  0  0  0  0  0  0  0
    0.7920    1.5067   -2.3302 C   0  0  0  0  0  0  0  0  0  0  0  0
   -0.3207    2.1888   -2.8421 C   0  0  0  0  0  0  0  0  0  0  0  0
   -1.5764    1.5887   -2.8112 C   0  0  0  0  0  0  0  0  0  0  0  0
   -1.7215    0.3052   -2.2754 C   0  0  0  0  0  0  0  0  0  0  0  0
   -0.7277   -1.3708   -1.3501 H   0  0  0  0  0  0  0  0  0  0  0  0
    1.5288   -0.2719   -1.3910 H   0  0  0  0  0  0  0  0  0  0  0  0
   -0.1873    3.1877   -3.2469 H   0  0  0  0  0  0  0  0  0  0  0  0
   -2.4411    2.1160   -3.2027 H   0  0  0  0  0  0  0  0  0  0  0  0
    2.0499    2.1776   -2.3962 N   0  0  0  0  0  0  0  0  0  0  0  0
    3.1189    3.2138   -4.1476 N   0  0  0  0  0  0  0  0  0  0  0  0
    6.0875    1.4335   -4.9761 C   0  0  0  0  0  0  0  0  0  0  0  0
    7.4522    1.7062   -5.0421 C   0  0  0  0  0  0  0  0  0  0  0  0
    8.3578    1.1278   -4.1416 C   0  0  0  0  0  0  0  0  0  0  0  0
    7.8452    0.2669   -3.1601 C   0  0  0  0  0  0  0  0  0  0  0  0
    6.4824   -0.0067   -3.0745 C   0  0  0  0  0  0  0  0  0  0  0  0
    5.5915    0.5774   -3.9861 C   0  0  0  0  0  0  0  0  0  0  0  0
    5.3952    1.8712   -5.6884 H   0  0  0  0  0  0  0  0  0  0  0  0
    7.8244    2.3755   -5.8154 H   0  0  0  0  0  0  0  0  0  0  0  0
    8.5235   -0.1873   -2.4416 H   0  0  0  0  0  0  0  0  0  0  0  0
    6.1085   -0.6592   -2.2892 H   0  0  0  0  0  0  0  0  0  0  0  0
    3.8636    0.1635   -3.8898 S   0  0  0  0  0  0  0  0  0  0  0  0
    2.6106    3.6440   -4.7678 O   0  0  0  0  0  0  0  0  0  0  0  0
    3.1030    1.2519   -4.7500 O   0  0  0  0  0  0  0  0  0  0  0  0
    2.9962    1.5968   -1.8435 O   0  0  0  0  0  0  0  0  0  0  0  0
    9.8403    1.4000   -4.2405 C   0  0  0  0  0  0  0  0  0  0  0  0
   10.3448    0.6512   -4.8650 H   0  0  0  0  0  0  0  0  0  0  0  0
   10.0396    2.3793   -4.6866 H   0  0  0  0  0  0  0  0  0  0  0  0
   10.3197    1.3749   -3.2569 H   0  0  0  0  0  0  0  0  0  0  0  0
   -2.7004   -0.1652   -2.2540 H   0  0  0  0  0  0  0  0  0  0  0  0
  1  7  1  0  0  0  0
  2  1  1  0  0  0  0
  2  8  1  0  0  0  0
  3  2  2  0  0  0  0
  4  5  2  0  0  0  0
  4  3  1  0  0  0  0
  5  6  1  0  0  0  0
  6 31  1  0  0  0  0
  6  1  2  0  0  0  0
  9  4  1  0  0  0  0
 10  5  1  0  0  0  0
 11  3  1  0  0  0  0
 11 26  2  0  0  0  0
 13 18  1  0  0  0  0
 14 13  2  0  0  0  0
 14 15  1  0  0  0  0
 15 16  2  0  0  0  0
 16 17  1  0  0  0  0
 16 21  1  0  0  0  0
 17 22  1  0  0  0  0
 18 23  1  0  0  0  0
 18 17  2  0  0  0  0
 19 13  1  0  0  0  0
 20 14  1  0  0  0  0
 24 12  2  0  0  0  0
 25 23  1  0  0  0  0
 27 15  1  0  0  0  0
 27 30  1  0  0  0  0
 28 27  1  0  0  0  0
 29 27  1  0  0  0  0
M  RAD  2  12   2  25   2
M  END
