Coordinates from ORCA-job Ph-N2-X-OTs-B3LYPG-6-31G_dp-scan-d09-49-n400
 OpenBabel08281821363D

 31 31  0  0  0  0  0  0  0  0999 V2000
   -0.6023    0.2314   -2.5762 C   0  0  0  0  0  0  0  0  0  0  0  0
    0.7221    0.1023   -2.1694 C   0  0  0  0  0  0  0  0  0  0  0  0
    1.5887    1.1828   -2.3709 C   0  0  0  0  0  0  0  0  0  0  0  0
    1.1711    2.3776   -2.9656 C   0  0  0  0  0  0  0  0  0  0  0  0
   -0.1567    2.4723   -3.3783 C   0  0  0  0  0  0  0  0  0  0  0  0
   -1.0423    1.4104   -3.1846 C   0  0  0  0  0  0  0  0  0  0  0  0
   -1.2889   -0.5945   -2.4204 H   0  0  0  0  0  0  0  0  0  0  0  0
    1.0754   -0.8068   -1.7049 H   0  0  0  0  0  0  0  0  0  0  0  0
    1.8890    3.1901   -3.0383 H   0  0  0  0  0  0  0  0  0  0  0  0
   -0.4990    3.3887   -3.8488 H   0  0  0  0  0  0  0  0  0  0  0  0
    2.9683    1.0763   -1.9394 N   0  0  0  0  0  0  0  0  0  0  0  0
    3.8488    1.8584   -1.6734 N   0  0  0  0  0  0  0  0  0  0  0  0
    5.3087    0.4752   -4.8280 C   0  0  0  0  0  0  0  0  0  0  0  0
    6.3792    1.2792   -5.2162 C   0  0  0  0  0  0  0  0  0  0  0  0
    7.4747    1.4869   -4.3664 C   0  0  0  0  0  0  0  0  0  0  0  0
    7.4814    0.8582   -3.1101 C   0  0  0  0  0  0  0  0  0  0  0  0
    6.4228    0.0527   -2.7049 C   0  0  0  0  0  0  0  0  0  0  0  0
    5.3369   -0.1214   -3.5685 C   0  0  0  0  0  0  0  0  0  0  0  0
    4.4600    0.3016   -5.4816 H   0  0  0  0  0  0  0  0  0  0  0  0
    6.3651    1.7519   -6.1941 H   0  0  0  0  0  0  0  0  0  0  0  0
    8.3246    1.0094   -2.4418 H   0  0  0  0  0  0  0  0  0  0  0  0
    6.4303   -0.4139   -1.7244 H   0  0  0  0  0  0  0  0  0  0  0  0
    4.0047   -1.2416   -3.1011 S   0  0  2  0  0  0  0  0  0  0  0  0
    3.3022    3.7900   -1.8190 O   0  0  0  0  0  0  0  0  0  0  0  0
    3.0389   -1.2375   -4.2322 O   0  0  0  0  0  0  0  0  0  0  0  0
    3.3674   -0.3618   -1.7295 O   0  0  0  0  0  0  0  0  0  0  0  0
    8.6141    2.3861   -4.7782 C   0  0  0  0  0  0  0  0  0  0  0  0
    8.6764    2.4842   -5.8654 H   0  0  0  0  0  0  0  0  0  0  0  0
    8.4798    3.3927   -4.3639 H   0  0  0  0  0  0  0  0  0  0  0  0
    9.5738    2.0105   -4.4109 H   0  0  0  0  0  0  0  0  0  0  0  0
   -2.0758    1.4995   -3.5059 H   0  0  0  0  0  0  0  0  0  0  0  0
  1  7  1  0  0  0  0
  1  2  2  0  0  0  0
  2  8  1  0  0  0  0
  3  2  1  0  0  0  0
  3 11  1  0  0  0  0
  4  3  2  0  0  0  0
  5  6  2  0  0  0  0
  5  4  1  0  0  0  0
  6  1  1  0  0  0  0
  9  4  1  0  0  0  0
 10  5  1  0  0  0  0
 11 26  1  0  0  0  0
 11 12  1  0  0  0  0
 13 18  1  0  0  0  0
 14 13  2  0  0  0  0
 14 15  1  0  0  0  0
 15 16  2  0  0  0  0
 16 17  1  0  0  0  0
 16 21  1  0  0  0  0
 17 22  1  0  0  0  0
 18 23  1  0  0  0  0
 18 17  2  0  0  0  0
 19 13  1  0  0  0  0
 20 14  1  0  0  0  0
 23 25  1  6  0  0  0
 23 26  1  0  0  0  0
 27 30  1  0  0  0  0
 27 15  1  0  0  0  0
 27 29  1  0  0  0  0
 28 27  1  0  0  0  0
 31  6  1  0  0  0  0
M  RAD  3  12   3  24   3  25   2
M  END
