Coordinates from ORCA-job Ph-N2-X-OTs-B3LYPG-6-31G_dp-scan-d09-49-n400
 OpenBabel08281821363D

 31 32  0  0  0  0  0  0  0  0999 V2000
   -0.6900    0.2508   -2.3020 C   0  0  0  0  0  0  0  0  0  0  0  0
    0.6639    0.1647   -1.9934 C   0  0  0  0  0  0  0  0  0  0  0  0
    1.5236    1.1936   -2.4010 C   0  0  0  0  0  0  0  0  0  0  0  0
    1.0477    2.2990   -3.1170 C   0  0  0  0  0  0  0  0  0  0  0  0
   -0.3101    2.3545   -3.4286 C   0  0  0  0  0  0  0  0  0  0  0  0
   -1.1811    1.3428   -3.0224 C   0  0  0  0  0  0  0  0  0  0  0  0
   -1.3605   -0.5399   -1.9803 H   0  0  0  0  0  0  0  0  0  0  0  0
    1.0546   -0.6819   -1.4444 H   0  0  0  0  0  0  0  0  0  0  0  0
    1.7379    3.0838   -3.3855 H   0  0  0  0  0  0  0  0  0  0  0  0
   -0.6863    3.2047   -3.9895 H   0  0  0  0  0  0  0  0  0  0  0  0
    2.9193    1.0700   -2.0707 N   0  0  0  0  0  0  0  0  0  0  0  0
    3.8447    1.9237   -1.8737 N   0  0  0  0  0  0  0  0  0  0  0  0
    5.3405    0.7052   -4.8351 C   0  0  0  0  0  0  0  0  0  0  0  0
    6.4482    1.4879   -5.1441 C   0  0  0  0  0  0  0  0  0  0  0  0
    7.5786    1.5061   -4.3112 C   0  0  0  0  0  0  0  0  0  0  0  0
    7.5741    0.7149   -3.1523 C   0  0  0  0  0  0  0  0  0  0  0  0
    6.4750   -0.0738   -2.8257 C   0  0  0  0  0  0  0  0  0  0  0  0
    5.3622   -0.0647   -3.6706 C   0  0  0  0  0  0  0  0  0  0  0  0
    4.4636    0.6800   -5.4741 H   0  0  0  0  0  0  0  0  0  0  0  0
    6.4368    2.0975   -6.0436 H   0  0  0  0  0  0  0  0  0  0  0  0
    8.4398    0.7240   -2.4958 H   0  0  0  0  0  0  0  0  0  0  0  0
    6.4763   -0.6684   -1.9164 H   0  0  0  0  0  0  0  0  0  0  0  0
    3.9762   -1.1358   -3.2892 S   0  0  2  0  0  0  0  0  0  0  0  0
    3.3272    3.4285   -2.0563 O   0  0  0  0  0  0  0  0  0  0  0  0
    3.0105   -0.9934   -4.4101 O   0  0  0  0  0  0  0  0  0  0  0  0
    3.3497   -0.2364   -1.8328 O   0  0  0  0  0  0  0  0  0  0  0  0
    8.7780    2.3482   -4.6698 C   0  0  0  0  0  0  0  0  0  0  0  0
    9.3305    1.9060   -5.5078 H   0  0  0  0  0  0  0  0  0  0  0  0
    8.4771    3.3548   -4.9757 H   0  0  0  0  0  0  0  0  0  0  0  0
    9.4692    2.4414   -3.8277 H   0  0  0  0  0  0  0  0  0  0  0  0
   -2.2379    1.4032   -3.2652 H   0  0  0  0  0  0  0  0  0  0  0  0
  1  2  1  0  0  0  0
  1  7  1  0  0  0  0
  2  8  1  0  0  0  0
  3 11  1  0  0  0  0
  3  2  2  0  0  0  0
  4  3  1  0  0  0  0
  5  4  2  0  0  0  0
  5  6  1  0  0  0  0
  6  1  2  0  0  0  0
  9  4  1  0  0  0  0
 10  5  1  0  0  0  0
 11 12  1  0  0  0  0
 11 26  1  0  0  0  0
 13 18  1  0  0  0  0
 14 13  2  0  0  0  0
 14 15  1  0  0  0  0
 15 16  2  0  0  0  0
 16 17  1  0  0  0  0
 16 21  1  0  0  0  0
 17 22  1  0  0  0  0
 18 23  1  0  0  0  0
 18 17  2  0  0  0  0
 19 13  1  0  0  0  0
 20 14  1  0  0  0  0
 23 25  1  6  0  0  0
 23 26  1  0  0  0  0
 24 12  1  0  0  0  0
 27 15  1  0  0  0  0
 27 30  1  0  0  0  0
 28 27  1  0  0  0  0
 29 27  1  0  0  0  0
 31  6  1  0  0  0  0
M  RAD  3  12   2  24   2  25   2
M  END
