Coordinates from ORCA-job Ph-N2-X-OTs-B3LYPG-6-31G_dp-scan-d09-49-n400
 OpenBabel08281821363D

 31 32  0  0  0  0  0  0  0  0999 V2000
   -0.6376    0.1268   -1.5175 C   0  0  0  0  0  0  0  0  0  0  0  0
    0.7118    0.4400   -1.6580 C   0  0  0  0  0  0  0  0  0  0  0  0
    1.0991    1.4061   -2.5958 C   0  0  0  0  0  0  0  0  0  0  0  0
    0.1513    2.0553   -3.3965 C   0  0  0  0  0  0  0  0  0  0  0  0
   -1.1932    1.7188   -3.2458 C   0  0  0  0  0  0  0  0  0  0  0  0
   -1.5943    0.7638   -2.3101 C   0  0  0  0  0  0  0  0  0  0  0  0
   -0.9390   -0.6176   -0.7864 H   0  0  0  0  0  0  0  0  0  0  0  0
    1.4628   -0.0520   -1.0536 H   0  0  0  0  0  0  0  0  0  0  0  0
    0.4737    2.8063   -4.1009 H   0  0  0  0  0  0  0  0  0  0  0  0
   -1.9316    2.2146   -3.8683 H   0  0  0  0  0  0  0  0  0  0  0  0
    2.5057    1.6731   -2.7232 N   0  0  0  0  0  0  0  0  0  0  0  0
    3.1462    2.7270   -3.1240 N   0  0  0  0  0  0  0  0  0  0  0  0
    5.7961    1.3908   -4.7843 C   0  0  0  0  0  0  0  0  0  0  0  0
    7.1015    1.8620   -4.8576 C   0  0  0  0  0  0  0  0  0  0  0  0
    8.1373    1.2556   -4.1255 C   0  0  0  0  0  0  0  0  0  0  0  0
    7.8319    0.1572   -3.3095 C   0  0  0  0  0  0  0  0  0  0  0  0
    6.5291   -0.3304   -3.2233 C   0  0  0  0  0  0  0  0  0  0  0  0
    5.5213    0.2954   -3.9604 C   0  0  0  0  0  0  0  0  0  0  0  0
    4.9910    1.8535   -5.3443 H   0  0  0  0  0  0  0  0  0  0  0  0
    7.3247    2.7186   -5.4882 H   0  0  0  0  0  0  0  0  0  0  0  0
    8.6226   -0.3219   -2.7391 H   0  0  0  0  0  0  0  0  0  0  0  0
    6.3045   -1.1854   -2.5904 H   0  0  0  0  0  0  0  0  0  0  0  0
    3.8648   -0.3638   -3.8527 S   0  0  2  0  0  0  0  0  0  0  0  0
    2.2559    3.8528   -3.4482 O   0  0  0  0  0  0  0  0  0  0  0  0
    3.0879    0.2001   -4.9886 O   0  0  0  0  0  0  0  0  0  0  0  0
    3.3386    0.6576   -2.3498 O   0  0  0  0  0  0  0  0  0  0  0  0
    9.5521    1.7670   -4.2392 C   0  0  0  0  0  0  0  0  0  0  0  0
   10.0051    1.4539   -5.1881 H   0  0  0  0  0  0  0  0  0  0  0  0
    9.5824    2.8610   -4.2127 H   0  0  0  0  0  0  0  0  0  0  0  0
   10.1836    1.3878   -3.4314 H   0  0  0  0  0  0  0  0  0  0  0  0
   -2.6460    0.5168   -2.1989 H   0  0  0  0  0  0  0  0  0  0  0  0
  1  7  1  0  0  0  0
  2  1  1  0  0  0  0
  2  8  1  0  0  0  0
  3  2  2  0  0  0  0
  4  5  2  0  0  0  0
  4  3  1  0  0  0  0
  5  6  1  0  0  0  0
  6 31  1  0  0  0  0
  6  1  2  0  0  0  0
  9  4  1  0  0  0  0
 10  5  1  0  0  0  0
 11  3  1  0  0  0  0
 11 26  1  0  0  0  0
 12 11  1  0  0  0  0
 13 18  1  0  0  0  0
 14 13  2  0  0  0  0
 14 15  1  0  0  0  0
 15 16  2  0  0  0  0
 16 17  1  0  0  0  0
 16 21  1  0  0  0  0
 17 22  1  0  0  0  0
 18 23  1  0  0  0  0
 18 17  2  0  0  0  0
 19 13  1  0  0  0  0
 20 14  1  0  0  0  0
 23 25  1  6  0  0  0
 23 26  1  0  0  0  0
 24 12  1  0  0  0  0
 27 29  1  0  0  0  0
 27 15  1  0  0  0  0
 27 30  1  0  0  0  0
 28 27  1  0  0  0  0
M  RAD  3  12   2  24   2  25   2
M  END
