Coordinates from ORCA-job Ph-N2-X-OTs-B3LYPG-6-31G_dp-scan-d09-49-n400
 OpenBabel08281821363D

 31 32  0  0  0  0  0  0  0  0999 V2000
    0.7606    3.4191   -1.1619 C   0  0  0  0  0  0  0  0  0  0  0  0
    1.7042    2.4446   -1.4401 C   0  0  0  0  0  0  0  0  0  0  0  0
    1.3599    1.2490   -2.1018 C   0  0  0  0  0  0  0  0  0  0  0  0
    0.0068    1.0394   -2.4879 C   0  0  0  0  0  0  0  0  0  0  0  0
   -0.9370    2.0397   -2.1989 C   0  0  0  0  0  0  0  0  0  0  0  0
   -0.5701    3.2098   -1.5474 C   0  0  0  0  0  0  0  0  0  0  0  0
    1.0481    4.3310   -0.6491 H   0  0  0  0  0  0  0  0  0  0  0  0
    2.7413    2.5704   -1.1494 H   0  0  0  0  0  0  0  0  0  0  0  0
   -1.3247   -0.0576   -3.2921 H   0  0  0  0  0  0  0  0  0  0  0  0
   -1.9721    1.8839   -2.4951 H   0  0  0  0  0  0  0  0  0  0  0  0
    2.3181    0.2405   -2.3850 N   0  0  0  0  0  0  0  0  0  0  0  0
    3.4965    0.5013   -2.0627 N   0  0  0  0  0  0  0  0  0  0  0  0
    6.7258    0.6943   -3.0750 C   0  0  0  0  0  0  0  0  0  0  0  0
    7.5844    1.3139   -3.9790 C   0  0  0  0  0  0  0  0  0  0  0  0
    7.4378    1.1294   -5.3626 C   0  0  0  0  0  0  0  0  0  0  0  0
    6.4003    0.3058   -5.8235 C   0  0  0  0  0  0  0  0  0  0  0  0
    5.5285   -0.3203   -4.9352 C   0  0  0  0  0  0  0  0  0  0  0  0
    5.7012   -0.1193   -3.5647 C   0  0  0  0  0  0  0  0  0  0  0  0
    6.8492    0.8234   -2.0050 H   0  0  0  0  0  0  0  0  0  0  0  0
    8.3851    1.9473   -3.6060 H   0  0  0  0  0  0  0  0  0  0  0  0
    6.2761    0.1500   -6.8920 H   0  0  0  0  0  0  0  0  0  0  0  0
    4.7304   -0.9646   -5.2879 H   0  0  0  0  0  0  0  0  0  0  0  0
    4.5799   -0.9053   -2.4156 S   0  0  0  0  0  0  0  0  0  0  0  0
   -0.3739   -0.0961   -3.1255 O   0  0  0  0  0  0  0  0  0  0  0  0
    5.2759   -1.1223   -1.1427 O   0  0  0  0  0  0  0  0  0  0  0  0
    3.8703   -1.9844   -3.1060 O   0  0  0  0  0  0  0  0  0  0  0  0
    8.3972    1.7782   -6.3311 C   0  0  0  0  0  0  0  0  0  0  0  0
    8.7255    2.7582   -5.9733 H   0  0  0  0  0  0  0  0  0  0  0  0
    9.2954    1.1623   -6.4619 H   0  0  0  0  0  0  0  0  0  0  0  0
    7.9441    1.9084   -7.3177 H   0  0  0  0  0  0  0  0  0  0  0  0
   -1.3254    3.9611   -1.3357 H   0  0  0  0  0  0  0  0  0  0  0  0
  1  7  1  0  0  0  0
  2  1  1  0  0  0  0
  2  8  1  0  0  0  0
  3  2  2  0  0  0  0
  4  5  2  0  0  0  0
  4  3  1  0  0  0  0
  5  6  1  0  0  0  0
  6 31  1  0  0  0  0
  6  1  2  0  0  0  0
  9 24  1  0  0  0  0
 10  5  1  0  0  0  0
 11  3  1  0  0  0  0
 11 12  1  0  0  0  0
 13 19  1  0  0  0  0
 14 20  1  0  0  0  0
 14 13  2  0  0  0  0
 15 14  1  0  0  0  0
 16 15  2  0  0  0  0
 16 17  1  0  0  0  0
 17 18  2  0  0  0  0
 18 13  1  0  0  0  0
 18 23  1  0  0  0  0
 21 16  1  0  0  0  0
 22 17  1  0  0  0  0
 23 12  1  0  0  0  0
 23 25  2  0  0  0  0
 24  4  1  0  0  0  0
 26 23  2  0  0  0  0
 27 28  1  0  0  0  0
 27 15  1  0  0  0  0
 29 27  1  0  0  0  0
 30 27  1  0  0  0  0
M  RAD  2  11   2  12   2
M  END
