Coordinates from ORCA-job Ph-N2-X-OTs-B3LYPG-6-31G_dp-scan-d09-49-n400
 OpenBabel08281821363D

 31 32  0  0  0  0  0  0  0  0999 V2000
    0.6958    3.6456   -2.0928 C   0  0  0  0  0  0  0  0  0  0  0  0
    1.6376    2.6711   -2.4211 C   0  0  0  0  0  0  0  0  0  0  0  0
    1.2968    1.3227   -2.3109 C   0  0  0  0  0  0  0  0  0  0  0  0
    0.0364    0.9355   -1.8325 C   0  0  0  0  0  0  0  0  0  0  0  0
   -0.9000    1.9124   -1.4897 C   0  0  0  0  0  0  0  0  0  0  0  0
   -0.5669    3.2616   -1.6316 C   0  0  0  0  0  0  0  0  0  0  0  0
    0.9418    4.6971   -2.2004 H   0  0  0  0  0  0  0  0  0  0  0  0
    2.6231    2.9332   -2.7910 H   0  0  0  0  0  0  0  0  0  0  0  0
   -1.0365   -0.5882   -1.4053 H   0  0  0  0  0  0  0  0  0  0  0  0
   -1.8756    1.6200   -1.1090 H   0  0  0  0  0  0  0  0  0  0  0  0
    2.1324    0.2456   -2.7098 N   0  0  0  0  0  0  0  0  0  0  0  0
    3.3041    0.3501   -2.3427 N   0  0  0  0  0  0  0  0  0  0  0  0
    6.6303    0.3606   -3.0746 C   0  0  0  0  0  0  0  0  0  0  0  0
    7.6176    1.0614   -3.7620 C   0  0  0  0  0  0  0  0  0  0  0  0
    7.5655    1.2087   -5.1571 C   0  0  0  0  0  0  0  0  0  0  0  0
    6.4919    0.6346   -5.8529 C   0  0  0  0  0  0  0  0  0  0  0  0
    5.4925   -0.0688   -5.1829 C   0  0  0  0  0  0  0  0  0  0  0  0
    5.5727   -0.1991   -3.7956 C   0  0  0  0  0  0  0  0  0  0  0  0
    6.6784    0.2327   -1.9984 H   0  0  0  0  0  0  0  0  0  0  0  0
    8.4448    1.4988   -3.2089 H   0  0  0  0  0  0  0  0  0  0  0  0
    6.4390    0.7378   -6.9337 H   0  0  0  0  0  0  0  0  0  0  0  0
    4.6662   -0.5226   -5.7195 H   0  0  0  0  0  0  0  0  0  0  0  0
    4.2878   -1.0829   -2.9221 S   0  0  0  0  0  0  0  0  0  0  0  0
   -0.1311   -0.4003   -1.6876 O   0  0  0  0  0  0  0  0  0  0  0  0
    4.8456   -1.6403   -1.6852 O   0  0  0  0  0  0  0  0  0  0  0  0
    3.5370   -1.9005   -3.8783 O   0  0  0  0  0  0  0  0  0  0  0  0
    8.6592    1.9457   -5.8919 C   0  0  0  0  0  0  0  0  0  0  0  0
    9.0124    2.8094   -5.3207 H   0  0  0  0  0  0  0  0  0  0  0  0
    9.5243    1.2928   -6.0612 H   0  0  0  0  0  0  0  0  0  0  0  0
    8.3188    2.2984   -6.8688 H   0  0  0  0  0  0  0  0  0  0  0  0
   -1.3023    4.0178   -1.3736 H   0  0  0  0  0  0  0  0  0  0  0  0
  1  6  2  0  0  0  0
  2  3  2  0  0  0  0
  2  1  1  0  0  0  0
  3  4  1  0  0  0  0
  4 24  1  0  0  0  0
  4  5  2  0  0  0  0
  5 10  1  0  0  0  0
  6  5  1  0  0  0  0
  6 31  1  0  0  0  0
  7  1  1  0  0  0  0
  8  2  1  0  0  0  0
 11 12  1  0  0  0  0
 11  3  1  0  0  0  0
 13 19  1  0  0  0  0
 14 20  1  0  0  0  0
 14 13  1  0  0  0  0
 15 14  2  0  0  0  0
 16 17  2  0  0  0  0
 16 15  1  0  0  0  0
 17 18  1  0  0  0  0
 18 13  2  0  0  0  0
 18 23  1  0  0  0  0
 21 16  1  0  0  0  0
 22 17  1  0  0  0  0
 23 12  1  0  0  0  0
 23 25  2  0  0  0  0
 24  9  1  0  0  0  0
 26 23  2  0  0  0  0
 27 28  1  0  0  0  0
 27 15  1  0  0  0  0
 29 27  1  0  0  0  0
 30 27  1  0  0  0  0
M  RAD  2  11   2  12   2
M  END
