Coordinates from ORCA-job Ph-N2-X-OTs-B3LYPG-6-31G_dp-scan-d09-49-n400
 OpenBabel08281821363D

 31 32  0  0  0  0  0  0  0  0999 V2000
   -0.6968    0.2481   -2.2837 C   0  0  0  0  0  0  0  0  0  0  0  0
    0.6597    0.1682   -1.9849 C   0  0  0  0  0  0  0  0  0  0  0  0
    1.5138    1.1968   -2.4052 C   0  0  0  0  0  0  0  0  0  0  0  0
    1.0282    2.2961   -3.1243 C   0  0  0  0  0  0  0  0  0  0  0  0
   -0.3323    2.3460   -3.4251 C   0  0  0  0  0  0  0  0  0  0  0  0
   -1.1972    1.3342   -3.0064 C   0  0  0  0  0  0  0  0  0  0  0  0
   -1.3621   -0.5431   -1.9522 H   0  0  0  0  0  0  0  0  0  0  0  0
    1.0574   -0.6739   -1.4339 H   0  0  0  0  0  0  0  0  0  0  0  0
    1.7117    3.0817   -3.4061 H   0  0  0  0  0  0  0  0  0  0  0  0
   -0.7153    3.1919   -3.9880 H   0  0  0  0  0  0  0  0  0  0  0  0
    2.9116    1.0778   -2.0850 N   0  0  0  0  0  0  0  0  0  0  0  0
    3.8350    1.9413   -1.8934 N   0  0  0  0  0  0  0  0  0  0  0  0
    5.3510    0.7163   -4.8386 C   0  0  0  0  0  0  0  0  0  0  0  0
    6.4633    1.4943   -5.1431 C   0  0  0  0  0  0  0  0  0  0  0  0
    7.5928    1.5030   -4.3088 C   0  0  0  0  0  0  0  0  0  0  0  0
    7.5825    0.7071   -3.1532 C   0  0  0  0  0  0  0  0  0  0  0  0
    6.4787   -0.0770   -2.8311 C   0  0  0  0  0  0  0  0  0  0  0  0
    5.3671   -0.0584   -3.6773 C   0  0  0  0  0  0  0  0  0  0  0  0
    4.4748    0.6985   -5.4787 H   0  0  0  0  0  0  0  0  0  0  0  0
    6.4564    2.1076   -6.0401 H   0  0  0  0  0  0  0  0  0  0  0  0
    8.4475    0.7087   -2.4956 H   0  0  0  0  0  0  0  0  0  0  0  0
    6.4758   -0.6754   -1.9244 H   0  0  0  0  0  0  0  0  0  0  0  0
    3.9744   -1.1227   -3.3012 S   0  0  2  0  0  0  0  0  0  0  0  0
    3.3192    3.4147   -2.0760 O   0  0  0  0  0  0  0  0  0  0  0  0
    3.0108   -0.9706   -4.4227 O   0  0  0  0  0  0  0  0  0  0  0  0
    3.3505   -0.2221   -1.8432 O   0  0  0  0  0  0  0  0  0  0  0  0
    8.7974    2.3397   -4.6626 C   0  0  0  0  0  0  0  0  0  0  0  0
    9.3509    1.8954   -5.4988 H   0  0  0  0  0  0  0  0  0  0  0  0
    8.5024    3.3479   -4.9691 H   0  0  0  0  0  0  0  0  0  0  0  0
    9.4860    2.4292   -3.8180 H   0  0  0  0  0  0  0  0  0  0  0  0
   -2.2560    1.3899   -3.2413 H   0  0  0  0  0  0  0  0  0  0  0  0
  1  2  1  0  0  0  0
  1  7  1  0  0  0  0
  2  8  1  0  0  0  0
  3 11  1  0  0  0  0
  3  2  2  0  0  0  0
  4  3  1  0  0  0  0
  5  4  2  0  0  0  0
  5  6  1  0  0  0  0
  6  1  2  0  0  0  0
  9  4  1  0  0  0  0
 10  5  1  0  0  0  0
 11 12  1  0  0  0  0
 11 26  1  0  0  0  0
 13 18  1  0  0  0  0
 14 13  2  0  0  0  0
 14 15  1  0  0  0  0
 15 16  2  0  0  0  0
 16 17  1  0  0  0  0
 16 21  1  0  0  0  0
 17 22  1  0  0  0  0
 18 23  1  0  0  0  0
 18 17  2  0  0  0  0
 19 13  1  0  0  0  0
 20 14  1  0  0  0  0
 23 25  1  6  0  0  0
 23 26  1  0  0  0  0
 24 12  1  0  0  0  0
 27 15  1  0  0  0  0
 27 30  1  0  0  0  0
 28 27  1  0  0  0  0
 29 27  1  0  0  0  0
 31  6  1  0  0  0  0
M  RAD  3  12   2  24   2  25   2
M  END
