Coordinates from ORCA-job Ph-N2-X-OTs-B3LYPG-6-31G_dp-scan-d09-49-n400
 OpenBabel08281821363D

 31 32  0  0  0  0  0  0  0  0999 V2000
    0.7498    3.4243   -1.1540 C   0  0  0  0  0  0  0  0  0  0  0  0
    1.7029    2.4574   -1.4282 C   0  0  0  0  0  0  0  0  0  0  0  0
    1.3653    1.2627   -2.0934 C   0  0  0  0  0  0  0  0  0  0  0  0
    0.0184    1.0454   -2.4863 C   0  0  0  0  0  0  0  0  0  0  0  0
   -0.9362    2.0359   -2.2026 C   0  0  0  0  0  0  0  0  0  0  0  0
   -0.5779    3.2069   -1.5468 C   0  0  0  0  0  0  0  0  0  0  0  0
    1.0274    4.3376   -0.6382 H   0  0  0  0  0  0  0  0  0  0  0  0
    2.7376    2.5890   -1.1319 H   0  0  0  0  0  0  0  0  0  0  0  0
   -1.2819   -0.0784   -3.3041 H   0  0  0  0  0  0  0  0  0  0  0  0
   -1.9685    1.8736   -2.5046 H   0  0  0  0  0  0  0  0  0  0  0  0
    2.3162    0.2509   -2.3803 N   0  0  0  0  0  0  0  0  0  0  0  0
    3.4948    0.5075   -2.0628 N   0  0  0  0  0  0  0  0  0  0  0  0
    6.7251    0.6894   -3.0769 C   0  0  0  0  0  0  0  0  0  0  0  0
    7.5854    1.3074   -3.9804 C   0  0  0  0  0  0  0  0  0  0  0  0
    7.4369    1.1260   -5.3643 C   0  0  0  0  0  0  0  0  0  0  0  0
    6.3958    0.3072   -5.8257 C   0  0  0  0  0  0  0  0  0  0  0  0
    5.5224   -0.3172   -4.9378 C   0  0  0  0  0  0  0  0  0  0  0  0
    5.6970   -0.1193   -3.5671 C   0  0  0  0  0  0  0  0  0  0  0  0
    6.8499    0.8161   -2.0067 H   0  0  0  0  0  0  0  0  0  0  0  0
    8.3888    1.9370   -3.6070 H   0  0  0  0  0  0  0  0  0  0  0  0
    6.2701    0.1538   -6.8945 H   0  0  0  0  0  0  0  0  0  0  0  0
    4.7214   -0.9577   -5.2910 H   0  0  0  0  0  0  0  0  0  0  0  0
    4.5735   -0.9029   -2.4184 S   0  0  0  0  0  0  0  0  0  0  0  0
   -0.3323   -0.0961   -3.1266 O   0  0  0  0  0  0  0  0  0  0  0  0
    5.2699   -1.1245   -1.1464 O   0  0  0  0  0  0  0  0  0  0  0  0
    3.8594   -1.9784   -3.1100 O   0  0  0  0  0  0  0  0  0  0  0  0
    8.3980    1.7728   -6.3324 C   0  0  0  0  0  0  0  0  0  0  0  0
    8.7301    2.7510   -5.9732 H   0  0  0  0  0  0  0  0  0  0  0  0
    9.2938    1.1539   -6.4649 H   0  0  0  0  0  0  0  0  0  0  0  0
    7.9447    1.9063   -7.3184 H   0  0  0  0  0  0  0  0  0  0  0  0
   -1.3383    3.9536   -1.3372 H   0  0  0  0  0  0  0  0  0  0  0  0
  1  7  1  0  0  0  0
  2  1  1  0  0  0  0
  2  8  1  0  0  0  0
  3  2  2  0  0  0  0
  4  5  2  0  0  0  0
  4  3  1  0  0  0  0
  5  6  1  0  0  0  0
  6 31  1  0  0  0  0
  6  1  2  0  0  0  0
  9 24  1  0  0  0  0
 10  5  1  0  0  0  0
 11  3  1  0  0  0  0
 11 12  1  0  0  0  0
 13 19  1  0  0  0  0
 14 20  1  0  0  0  0
 14 13  2  0  0  0  0
 15 14  1  0  0  0  0
 16 15  2  0  0  0  0
 16 17  1  0  0  0  0
 17 18  2  0  0  0  0
 18 13  1  0  0  0  0
 18 23  1  0  0  0  0
 21 16  1  0  0  0  0
 22 17  1  0  0  0  0
 23 12  1  0  0  0  0
 23 25  2  0  0  0  0
 24  4  1  0  0  0  0
 26 23  2  0  0  0  0
 27 28  1  0  0  0  0
 27 15  1  0  0  0  0
 29 27  1  0  0  0  0
 30 27  1  0  0  0  0
M  RAD  2  11   2  12   2
M  END
