Coordinates from ORCA-job Ph-N2-X-OTs-B3LYPG-6-31G_dp-scan-d09-49-n400
 OpenBabel08281821363D

 31 30  0  0  0  0  0  0  0  0999 V2000
   -0.0854    0.5730   -3.6794 C   0  0  0  0  0  0  0  0  0  0  0  0
    1.1625    0.4818   -3.0689 C   0  0  0  0  0  0  0  0  0  0  0  0
    1.5083    1.4942   -2.1717 C   0  0  0  0  0  0  0  0  0  0  0  0
    0.6795    2.5853   -1.8596 C   0  0  0  0  0  0  0  0  0  0  0  0
   -0.5627    2.6347   -2.4833 C   0  0  0  0  0  0  0  0  0  0  0  0
   -0.9453    1.6362   -3.3855 C   0  0  0  0  0  0  0  0  0  0  0  0
   -0.3840   -0.1953   -4.3849 H   0  0  0  0  0  0  0  0  0  0  0  0
    1.8379   -0.3384   -3.2893 H   0  0  0  0  0  0  0  0  0  0  0  0
    1.0420    3.3515   -1.1629 H   0  0  0  0  0  0  0  0  0  0  0  0
   -1.2320    3.4606   -2.2638 H   0  0  0  0  0  0  0  0  0  0  0  0
    2.7651    1.5000   -1.5105 N   0  0  0  0  0  0  0  0  0  0  0  0
    3.4926    2.0535   -0.8425 N   0  0  0  0  0  0  0  0  0  0  0  0
    5.6782   -0.3608   -4.8922 C   0  0  0  0  0  0  0  0  0  0  0  0
    6.6748    0.4387   -5.4528 C   0  0  0  0  0  0  0  0  0  0  0  0
    7.4804    1.2622   -4.6542 C   0  0  0  0  0  0  0  0  0  0  0  0
    7.2651    1.2666   -3.2661 C   0  0  0  0  0  0  0  0  0  0  0  0
    6.2750    0.4762   -2.6884 C   0  0  0  0  0  0  0  0  0  0  0  0
    5.4756   -0.3189   -3.5137 C   0  0  0  0  0  0  0  0  0  0  0  0
    5.0521   -0.9986   -5.5072 H   0  0  0  0  0  0  0  0  0  0  0  0
    6.8304    0.4207   -6.5288 H   0  0  0  0  0  0  0  0  0  0  0  0
    7.8813    1.8982   -2.6312 H   0  0  0  0  0  0  0  0  0  0  0  0
    6.1116    0.4867   -1.6156 H   0  0  0  0  0  0  0  0  0  0  0  0
    4.2386   -1.4249   -2.7629 S   0  0  0  0  0  0  0  0  0  0  0  0
    2.3963    4.3508   -0.1638 O   0  0  0  0  0  0  0  0  0  0  0  0
    3.3125   -1.8127   -3.8835 O   0  0  0  0  0  0  0  0  0  0  0  0
    3.6096   -0.5991   -1.6350 O   0  0  0  0  0  0  0  0  0  0  0  0
    8.5426    2.1417   -5.2679 C   0  0  0  0  0  0  0  0  0  0  0  0
    8.8168    1.8000   -6.2693 H   0  0  0  0  0  0  0  0  0  0  0  0
    8.1900    3.1767   -5.3583 H   0  0  0  0  0  0  0  0  0  0  0  0
    9.4487    2.1626   -4.6543 H   0  0  0  0  0  0  0  0  0  0  0  0
   -1.9185    1.6877   -3.8644 H   0  0  0  0  0  0  0  0  0  0  0  0
  1  6  2  0  0  0  0
  1  2  1  0  0  0  0
  2  3  2  0  0  0  0
  3  4  1  0  0  0  0
  3 11  1  0  0  0  0
  4  9  1  0  0  0  0
  5 10  1  0  0  0  0
  5  4  2  0  0  0  0
  6  5  1  0  0  0  0
  7  1  1  0  0  0  0
  8  2  1  0  0  0  0
 11 12  2  0  0  0  0
 13 18  1  0  0  0  0
 14 13  2  0  0  0  0
 14 15  1  0  0  0  0
 15 16  2  0  0  0  0
 16 17  1  0  0  0  0
 16 21  1  0  0  0  0
 17 22  1  0  0  0  0
 18 23  1  0  0  0  0
 18 17  2  0  0  0  0
 19 13  1  0  0  0  0
 20 14  1  0  0  0  0
 23 26  1  0  0  0  0
 25 23  1  0  0  0  0
 27 30  1  0  0  0  0
 27 15  1  0  0  0  0
 28 27  1  0  0  0  0
 29 27  1  0  0  0  0
 31  6  1  0  0  0  0
M  RAD  4  12   2  24   3  25   2  26   2
M  END
