Coordinates from ORCA-job Ph-N2-X-OTs-B3LYPG-6-31G_dp-scan-d09-49-n400
 OpenBabel08281821363D

 31 30  0  0  0  0  0  0  0  0999 V2000
   -0.2169    0.5307   -3.6064 C   0  0  0  0  0  0  0  0  0  0  0  0
    1.0698    0.4543   -3.0793 C   0  0  0  0  0  0  0  0  0  0  0  0
    1.4816    1.4843   -2.2318 C   0  0  0  0  0  0  0  0  0  0  0  0
    0.6707    2.5798   -1.8920 C   0  0  0  0  0  0  0  0  0  0  0  0
   -0.6129    2.6167   -2.4273 C   0  0  0  0  0  0  0  0  0  0  0  0
   -1.0566    1.5996   -3.2785 C   0  0  0  0  0  0  0  0  0  0  0  0
   -0.5628   -0.2532   -4.2723 H   0  0  0  0  0  0  0  0  0  0  0  0
    1.7281   -0.3705   -3.3281 H   0  0  0  0  0  0  0  0  0  0  0  0
    1.0967    3.3537   -1.2518 H   0  0  0  0  0  0  0  0  0  0  0  0
   -1.2662    3.4481   -2.1813 H   0  0  0  0  0  0  0  0  0  0  0  0
    2.7870    1.4885   -1.6647 N   0  0  0  0  0  0  0  0  0  0  0  0
    3.5290    2.1244   -1.0659 N   0  0  0  0  0  0  0  0  0  0  0  0
    5.6979   -0.3184   -4.8870 C   0  0  0  0  0  0  0  0  0  0  0  0
    6.7143    0.4714   -5.4248 C   0  0  0  0  0  0  0  0  0  0  0  0
    7.5140    1.2814   -4.6072 C   0  0  0  0  0  0  0  0  0  0  0  0
    7.2732    1.2825   -3.2227 C   0  0  0  0  0  0  0  0  0  0  0  0
    6.2648    0.5018   -2.6661 C   0  0  0  0  0  0  0  0  0  0  0  0
    5.4714   -0.2783   -3.5122 C   0  0  0  0  0  0  0  0  0  0  0  0
    5.0764   -0.9462   -5.5166 H   0  0  0  0  0  0  0  0  0  0  0  0
    6.8896    0.4561   -6.4976 H   0  0  0  0  0  0  0  0  0  0  0  0
    7.8823    1.9065   -2.5740 H   0  0  0  0  0  0  0  0  0  0  0  0
    6.0792    0.5142   -1.5973 H   0  0  0  0  0  0  0  0  0  0  0  0
    4.2084   -1.3684   -2.7976 S   0  0  0  0  0  0  0  0  0  0  0  0
    2.8680    4.0981   -0.5996 O   0  0  0  0  0  0  0  0  0  0  0  0
    3.3127   -1.7700   -3.9315 O   0  0  0  0  0  0  0  0  0  0  0  0
    3.5621   -0.5463   -1.6712 O   0  0  0  0  0  0  0  0  0  0  0  0
    8.5981    2.1508   -5.1953 C   0  0  0  0  0  0  0  0  0  0  0  0
    8.8579    1.8373   -6.2097 H   0  0  0  0  0  0  0  0  0  0  0  0
    8.2749    3.1980   -5.2454 H   0  0  0  0  0  0  0  0  0  0  0  0
    9.5071    2.1234   -4.5859 H   0  0  0  0  0  0  0  0  0  0  0  0
   -2.0601    1.6408   -3.6911 H   0  0  0  0  0  0  0  0  0  0  0  0
  1  6  2  0  0  0  0
  1  2  1  0  0  0  0
  2  3  2  0  0  0  0
  3  4  1  0  0  0  0
  3 11  1  0  0  0  0
  4  9  1  0  0  0  0
  5 10  1  0  0  0  0
  5  4  2  0  0  0  0
  6  5  1  0  0  0  0
  7  1  1  0  0  0  0
  8  2  1  0  0  0  0
 11 12  2  0  0  0  0
 13 18  1  0  0  0  0
 14 13  2  0  0  0  0
 14 15  1  0  0  0  0
 15 16  2  0  0  0  0
 16 17  1  0  0  0  0
 16 21  1  0  0  0  0
 17 22  1  0  0  0  0
 18 23  1  0  0  0  0
 18 17  2  0  0  0  0
 19 13  1  0  0  0  0
 20 14  1  0  0  0  0
 23 26  1  0  0  0  0
 25 23  1  0  0  0  0
 27 15  1  0  0  0  0
 27 30  1  0  0  0  0
 28 27  1  0  0  0  0
 29 27  1  0  0  0  0
 31  6  1  0  0  0  0
M  RAD  4  12   2  24   3  25   2  26   2
M  END
