Coordinates from ORCA-job Ph-N2-X-OTs-B3LYPG-6-31G_dp-scan-d09-49-n400
 OpenBabel08281821363D

 31 30  0  0  0  0  0  0  0  0999 V2000
   -0.0974    0.5690   -3.6724 C   0  0  0  0  0  0  0  0  0  0  0  0
    1.1542    0.4788   -3.0691 C   0  0  0  0  0  0  0  0  0  0  0  0
    1.5063    1.4933   -2.1768 C   0  0  0  0  0  0  0  0  0  0  0  0
    0.6798    2.5855   -1.8628 C   0  0  0  0  0  0  0  0  0  0  0  0
   -0.5662    2.6340   -2.4790 C   0  0  0  0  0  0  0  0  0  0  0  0
   -0.9549    1.6334   -3.3762 C   0  0  0  0  0  0  0  0  0  0  0  0
   -0.4007   -0.2010   -4.3741 H   0  0  0  0  0  0  0  0  0  0  0  0
    1.8279   -0.3421   -3.2915 H   0  0  0  0  0  0  0  0  0  0  0  0
    1.0487    3.3524   -1.1709 H   0  0  0  0  0  0  0  0  0  0  0  0
   -1.2338    3.4609   -2.2577 H   0  0  0  0  0  0  0  0  0  0  0  0
    2.7677    1.4992   -1.5238 N   0  0  0  0  0  0  0  0  0  0  0  0
    3.4978    2.0588   -0.8626 N   0  0  0  0  0  0  0  0  0  0  0  0
    5.6814   -0.3592   -4.8925 C   0  0  0  0  0  0  0  0  0  0  0  0
    6.6794    0.4402   -5.4505 C   0  0  0  0  0  0  0  0  0  0  0  0
    7.4825    1.2643   -4.6499 C   0  0  0  0  0  0  0  0  0  0  0  0
    7.2632    1.2691   -3.2623 C   0  0  0  0  0  0  0  0  0  0  0  0
    6.2718    0.4787   -2.6871 C   0  0  0  0  0  0  0  0  0  0  0  0
    5.4748   -0.3167   -3.5146 C   0  0  0  0  0  0  0  0  0  0  0  0
    5.0573   -0.9973   -5.5091 H   0  0  0  0  0  0  0  0  0  0  0  0
    6.8382    0.4218   -6.5260 H   0  0  0  0  0  0  0  0  0  0  0  0
    7.8772    1.9013   -2.6259 H   0  0  0  0  0  0  0  0  0  0  0  0
    6.1052    0.4898   -1.6148 H   0  0  0  0  0  0  0  0  0  0  0  0
    4.2359   -1.4224   -2.7675 S   0  0  0  0  0  0  0  0  0  0  0  0
    2.4429    4.3336   -0.1973 O   0  0  0  0  0  0  0  0  0  0  0  0
    3.3124   -1.8107   -3.8897 O   0  0  0  0  0  0  0  0  0  0  0  0
    3.6052   -0.5976   -1.6396 O   0  0  0  0  0  0  0  0  0  0  0  0
    8.5462    2.1439   -5.2607 C   0  0  0  0  0  0  0  0  0  0  0  0
    8.8220    1.8031   -6.2620 H   0  0  0  0  0  0  0  0  0  0  0  0
    8.1942    3.1791   -5.3505 H   0  0  0  0  0  0  0  0  0  0  0  0
    9.4512    2.1635   -4.6455 H   0  0  0  0  0  0  0  0  0  0  0  0
   -1.9309    1.6842   -3.8494 H   0  0  0  0  0  0  0  0  0  0  0  0
  1  6  2  0  0  0  0
  1  2  1  0  0  0  0
  2  3  2  0  0  0  0
  3  4  1  0  0  0  0
  3 11  1  0  0  0  0
  4  9  1  0  0  0  0
  5 10  1  0  0  0  0
  5  4  2  0  0  0  0
  6  5  1  0  0  0  0
  7  1  1  0  0  0  0
  8  2  1  0  0  0  0
 11 12  2  0  0  0  0
 13 18  1  0  0  0  0
 14 13  2  0  0  0  0
 14 15  1  0  0  0  0
 15 16  2  0  0  0  0
 16 17  1  0  0  0  0
 16 21  1  0  0  0  0
 17 22  1  0  0  0  0
 18 23  1  0  0  0  0
 18 17  2  0  0  0  0
 19 13  1  0  0  0  0
 20 14  1  0  0  0  0
 23 26  1  0  0  0  0
 25 23  1  0  0  0  0
 27 15  1  0  0  0  0
 27 30  1  0  0  0  0
 28 27  1  0  0  0  0
 29 27  1  0  0  0  0
 31  6  1  0  0  0  0
M  RAD  4  12   2  24   3  25   2  26   2
M  END
