Coordinates from ORCA-job Ph-N2-X-OTs-B3LYPG-6-31G_dp-scan-d09-49-n400
 OpenBabel08281821363D

 31 30  0  0  0  0  0  0  0  0999 V2000
   -0.3122    0.4993   -3.5431 C   0  0  0  0  0  0  0  0  0  0  0  0
    1.0089    0.4615   -3.1042 C   0  0  0  0  0  0  0  0  0  0  0  0
    1.4438    1.4994   -2.2782 C   0  0  0  0  0  0  0  0  0  0  0  0
    0.6230    2.5645   -1.8743 C   0  0  0  0  0  0  0  0  0  0  0  0
   -0.6954    2.5618   -2.3193 C   0  0  0  0  0  0  0  0  0  0  0  0
   -1.1622    1.5369   -3.1482 C   0  0  0  0  0  0  0  0  0  0  0  0
   -0.6769   -0.2905   -4.1919 H   0  0  0  0  0  0  0  0  0  0  0  0
    1.6773   -0.3380   -3.4040 H   0  0  0  0  0  0  0  0  0  0  0  0
    1.0663    3.3522   -1.2661 H   0  0  0  0  0  0  0  0  0  0  0  0
   -1.3571    3.3693   -2.0217 H   0  0  0  0  0  0  0  0  0  0  0  0
    2.7865    1.5435   -1.8079 N   0  0  0  0  0  0  0  0  0  0  0  0
    3.5588    2.2204   -1.2961 N   0  0  0  0  0  0  0  0  0  0  0  0
    5.7233   -0.2732   -4.9047 C   0  0  0  0  0  0  0  0  0  0  0  0
    6.7675    0.4970   -5.4179 C   0  0  0  0  0  0  0  0  0  0  0  0
    7.5829    1.2663   -4.5773 C   0  0  0  0  0  0  0  0  0  0  0  0
    7.3297    1.2464   -3.1949 C   0  0  0  0  0  0  0  0  0  0  0  0
    6.2942    0.4846   -2.6630 C   0  0  0  0  0  0  0  0  0  0  0  0
    5.4861   -0.2543   -3.5316 C   0  0  0  0  0  0  0  0  0  0  0  0
    5.0895   -0.8698   -5.5520 H   0  0  0  0  0  0  0  0  0  0  0  0
    6.9518    0.4983   -6.4892 H   0  0  0  0  0  0  0  0  0  0  0  0
    7.9503    1.8399   -2.5287 H   0  0  0  0  0  0  0  0  0  0  0  0
    6.0987    0.4822   -1.5958 H   0  0  0  0  0  0  0  0  0  0  0  0
    4.1825   -1.3182   -2.8503 S   0  0  0  0  0  0  0  0  0  0  0  0
    2.9187    4.1918   -0.9405 O   0  0  0  0  0  0  0  0  0  0  0  0
    3.3009   -1.6910   -4.0048 O   0  0  0  0  0  0  0  0  0  0  0  0
    3.5304   -0.4844   -1.7338 O   0  0  0  0  0  0  0  0  0  0  0  0
    8.6981    2.1145   -5.1374 C   0  0  0  0  0  0  0  0  0  0  0  0
    8.9366    1.8351   -6.1669 H   0  0  0  0  0  0  0  0  0  0  0  0
    8.4197    3.1757   -5.1378 H   0  0  0  0  0  0  0  0  0  0  0  0
    9.6099    2.0216   -4.5387 H   0  0  0  0  0  0  0  0  0  0  0  0
   -2.1924    1.5482   -3.4916 H   0  0  0  0  0  0  0  0  0  0  0  0
  1  6  2  0  0  0  0
  1  2  1  0  0  0  0
  2  3  2  0  0  0  0
  3  4  1  0  0  0  0
  3 11  1  0  0  0  0
  4  9  1  0  0  0  0
  5 10  1  0  0  0  0
  5  4  2  0  0  0  0
  6  5  1  0  0  0  0
  7  1  1  0  0  0  0
  8  2  1  0  0  0  0
 11 12  2  0  0  0  0
 13 18  1  0  0  0  0
 14 13  2  0  0  0  0
 14 15  1  0  0  0  0
 15 16  2  0  0  0  0
 16 17  1  0  0  0  0
 16 21  1  0  0  0  0
 17 22  1  0  0  0  0
 18 23  1  0  0  0  0
 18 17  2  0  0  0  0
 19 13  1  0  0  0  0
 20 14  1  0  0  0  0
 23 26  1  0  0  0  0
 25 23  1  0  0  0  0
 27 15  1  0  0  0  0
 27 30  1  0  0  0  0
 28 27  1  0  0  0  0
 29 27  1  0  0  0  0
 31  6  1  0  0  0  0
M  RAD  4  12   2  24   3  25   2  26   2
M  END
