Coordinates from ORCA-job Ph-N2-X-OTs-B3LYPG-6-31G_dp-scan-d09-49-n400
 OpenBabel08281821363D

 31 32  0  0  0  0  0  0  0  0999 V2000
    0.6010    3.6495   -2.2953 C   0  0  0  0  0  0  0  0  0  0  0  0
    1.5307    2.6805   -2.6805 C   0  0  0  0  0  0  0  0  0  0  0  0
    1.2706    1.3409   -2.4082 C   0  0  0  0  0  0  0  0  0  0  0  0
    0.1179    0.9542   -1.7124 C   0  0  0  0  0  0  0  0  0  0  0  0
   -0.8027    1.9243   -1.3163 C   0  0  0  0  0  0  0  0  0  0  0  0
   -0.5600    3.2673   -1.6204 C   0  0  0  0  0  0  0  0  0  0  0  0
    0.7828    4.6947   -2.5233 H   0  0  0  0  0  0  0  0  0  0  0  0
    2.4394    2.9452   -3.2108 H   0  0  0  0  0  0  0  0  0  0  0  0
   -0.8008   -0.5704   -1.0055 H   0  0  0  0  0  0  0  0  0  0  0  0
   -1.6953    1.6335   -0.7674 H   0  0  0  0  0  0  0  0  0  0  0  0
    2.0958    0.2613   -2.8537 N   0  0  0  0  0  0  0  0  0  0  0  0
    3.2445    0.3051   -2.4162 N   0  0  0  0  0  0  0  0  0  0  0  0
    6.5868    0.2899   -3.0745 C   0  0  0  0  0  0  0  0  0  0  0  0
    7.5984    1.0075   -3.7073 C   0  0  0  0  0  0  0  0  0  0  0  0
    7.5817    1.2159   -5.0954 C   0  0  0  0  0  0  0  0  0  0  0  0
    6.5185    0.6866   -5.8410 C   0  0  0  0  0  0  0  0  0  0  0  0
    5.4950   -0.0324   -5.2264 C   0  0  0  0  0  0  0  0  0  0  0  0
    5.5408   -0.2244   -3.8446 C   0  0  0  0  0  0  0  0  0  0  0  0
    6.6073    0.1149   -2.0042 H   0  0  0  0  0  0  0  0  0  0  0  0
    8.4168    1.4102   -3.1161 H   0  0  0  0  0  0  0  0  0  0  0  0
    6.4928    0.8380   -6.9171 H   0  0  0  0  0  0  0  0  0  0  0  0
    4.6762   -0.4515   -5.8014 H   0  0  0  0  0  0  0  0  0  0  0  0
    4.2224   -1.1242   -3.0413 S   0  0  0  0  0  0  0  0  0  0  0  0
    0.0445   -0.3717   -1.4301 O   0  0  0  0  0  0  0  0  0  0  0  0
    4.7385   -1.7442   -1.8166 O   0  0  0  0  0  0  0  0  0  0  0  0
    3.4776   -1.8822   -4.0498 O   0  0  0  0  0  0  0  0  0  0  0  0
    8.7009    1.9698   -5.7721 C   0  0  0  0  0  0  0  0  0  0  0  0
    9.0575    2.7982   -5.1526 H   0  0  0  0  0  0  0  0  0  0  0  0
    9.5582    1.3110   -5.9580 H   0  0  0  0  0  0  0  0  0  0  0  0
    8.3851    2.3757   -6.7367 H   0  0  0  0  0  0  0  0  0  0  0  0
   -1.2835    4.0178   -1.3170 H   0  0  0  0  0  0  0  0  0  0  0  0
  1  6  2  0  0  0  0
  2  3  2  0  0  0  0
  2  1  1  0  0  0  0
  3  4  1  0  0  0  0
  4 24  1  0  0  0  0
  4  5  2  0  0  0  0
  5 10  1  0  0  0  0
  6 31  1  0  0  0  0
  6  5  1  0  0  0  0
  7  1  1  0  0  0  0
  8  2  1  0  0  0  0
 11 12  1  0  0  0  0
 11  3  1  0  0  0  0
 13 19  1  0  0  0  0
 14 20  1  0  0  0  0
 14 13  1  0  0  0  0
 15 14  2  0  0  0  0
 16 17  2  0  0  0  0
 16 15  1  0  0  0  0
 17 18  1  0  0  0  0
 18 13  2  0  0  0  0
 18 23  1  0  0  0  0
 21 16  1  0  0  0  0
 22 17  1  0  0  0  0
 23 12  1  0  0  0  0
 23 25  2  0  0  0  0
 24  9  1  0  0  0  0
 26 23  2  0  0  0  0
 27 28  1  0  0  0  0
 27 15  1  0  0  0  0
 29 27  1  0  0  0  0
 30 27  1  0  0  0  0
M  RAD  2  11   2  12   2
M  END
