Coordinates from ORCA-job Ph-N2-X-OTs-B3LYPG-6-31G_dp-scan-d09-49-n400
 OpenBabel08281821363D

 31 32  0  0  0  0  0  0  0  0999 V2000
    0.7743    3.4080   -1.1668 C   0  0  0  0  0  0  0  0  0  0  0  0
    1.7047    2.4236   -1.4509 C   0  0  0  0  0  0  0  0  0  0  0  0
    1.3530    1.2292   -2.1135 C   0  0  0  0  0  0  0  0  0  0  0  0
   -0.0079    1.0328   -2.4963 C   0  0  0  0  0  0  0  0  0  0  0  0
   -0.9362    2.0465   -2.1993 C   0  0  0  0  0  0  0  0  0  0  0  0
   -0.5592    3.2126   -1.5479 C   0  0  0  0  0  0  0  0  0  0  0  0
    1.0742    4.3156   -0.6536 H   0  0  0  0  0  0  0  0  0  0  0  0
    2.7438    2.5392   -1.1633 H   0  0  0  0  0  0  0  0  0  0  0  0
   -1.3815   -0.0196   -3.2900 H   0  0  0  0  0  0  0  0  0  0  0  0
   -1.9741    1.9019   -2.4919 H   0  0  0  0  0  0  0  0  0  0  0  0
    2.3235    0.2263   -2.3902 N   0  0  0  0  0  0  0  0  0  0  0  0
    3.5009    0.4935   -2.0585 N   0  0  0  0  0  0  0  0  0  0  0  0
    6.7282    0.7026   -3.0722 C   0  0  0  0  0  0  0  0  0  0  0  0
    7.5830    1.3240   -3.9786 C   0  0  0  0  0  0  0  0  0  0  0  0
    7.4372    1.1337   -5.3615 C   0  0  0  0  0  0  0  0  0  0  0  0
    6.4045    0.3022   -5.8192 C   0  0  0  0  0  0  0  0  0  0  0  0
    5.5366   -0.3258   -4.9285 C   0  0  0  0  0  0  0  0  0  0  0  0
    5.7084   -0.1188   -3.5588 C   0  0  0  0  0  0  0  0  0  0  0  0
    6.8511    0.8363   -2.0026 H   0  0  0  0  0  0  0  0  0  0  0  0
    8.3800    1.9635   -3.6081 H   0  0  0  0  0  0  0  0  0  0  0  0
    6.2810    0.1419   -6.8872 H   0  0  0  0  0  0  0  0  0  0  0  0
    4.7422   -0.9760   -5.2787 H   0  0  0  0  0  0  0  0  0  0  0  0
    4.5919   -0.9074   -2.4068 S   0  0  0  0  0  0  0  0  0  0  0  0
   -0.4305   -0.0903   -3.1360 O   0  0  0  0  0  0  0  0  0  0  0  0
    5.2887   -1.1153   -1.1329 O   0  0  0  0  0  0  0  0  0  0  0  0
    3.8889   -1.9932   -3.0933 O   0  0  0  0  0  0  0  0  0  0  0  0
    8.3926    1.7845   -6.3326 C   0  0  0  0  0  0  0  0  0  0  0  0
    8.7157    2.7674   -5.9782 H   0  0  0  0  0  0  0  0  0  0  0  0
    9.2940    1.1731   -6.4620 H   0  0  0  0  0  0  0  0  0  0  0  0
    7.9382    1.9091   -7.3193 H   0  0  0  0  0  0  0  0  0  0  0  0
   -1.3078    3.9697   -1.3334 H   0  0  0  0  0  0  0  0  0  0  0  0
  1  7  1  0  0  0  0
  2  1  1  0  0  0  0
  2  8  1  0  0  0  0
  3  2  2  0  0  0  0
  4  5  2  0  0  0  0
  4  3  1  0  0  0  0
  5  6  1  0  0  0  0
  6 31  1  0  0  0  0
  6  1  2  0  0  0  0
  9 24  1  0  0  0  0
 10  5  1  0  0  0  0
 11  3  1  0  0  0  0
 11 12  1  0  0  0  0
 13 19  1  0  0  0  0
 14 20  1  0  0  0  0
 14 13  2  0  0  0  0
 15 14  1  0  0  0  0
 16 15  2  0  0  0  0
 16 17  1  0  0  0  0
 17 18  2  0  0  0  0
 18 13  1  0  0  0  0
 18 23  1  0  0  0  0
 21 16  1  0  0  0  0
 22 17  1  0  0  0  0
 23 12  1  0  0  0  0
 23 25  2  0  0  0  0
 24  4  1  0  0  0  0
 26 23  2  0  0  0  0
 27 28  1  0  0  0  0
 27 15  1  0  0  0  0
 29 27  1  0  0  0  0
 30 27  1  0  0  0  0
M  RAD  2  11   2  12   2
M  END
