Coordinates from ORCA-job Ph-N2-X-OTs-B3LYPG-6-31G_dp-scan-d09-49-n400
 OpenBabel08281821363D

 31 30  0  0  0  0  0  0  0  0999 V2000
   -0.6212   -0.3611   -1.7816 C   0  0  0  0  0  0  0  0  0  0  0  0
    0.6429    0.2187   -1.7803 C   0  0  0  0  0  0  0  0  0  0  0  0
    0.8109    1.5010   -2.3257 C   0  0  0  0  0  0  0  0  0  0  0  0
   -0.2832    2.1979   -2.8577 C   0  0  0  0  0  0  0  0  0  0  0  0
   -1.5460    1.6120   -2.8482 C   0  0  0  0  0  0  0  0  0  0  0  0
   -1.7158    0.3313   -2.3134 C   0  0  0  0  0  0  0  0  0  0  0  0
   -0.7600   -1.3552   -1.3670 H   0  0  0  0  0  0  0  0  0  0  0  0
    1.5099   -0.2856   -1.3698 H   0  0  0  0  0  0  0  0  0  0  0  0
   -0.1317    3.1947   -3.2604 H   0  0  0  0  0  0  0  0  0  0  0  0
   -2.3972    2.1491   -3.2554 H   0  0  0  0  0  0  0  0  0  0  0  0
    2.0783    2.1538   -2.3690 N   0  0  0  0  0  0  0  0  0  0  0  0
    3.0608    3.1570   -4.1027 N   0  0  0  0  0  0  0  0  0  0  0  0
    6.0739    1.4324   -4.9508 C   0  0  0  0  0  0  0  0  0  0  0  0
    7.4363    1.7107   -5.0352 C   0  0  0  0  0  0  0  0  0  0  0  0
    8.3571    1.1336   -4.1491 C   0  0  0  0  0  0  0  0  0  0  0  0
    7.8634    0.2685   -3.1619 C   0  0  0  0  0  0  0  0  0  0  0  0
    6.5031   -0.0115   -3.0574 C   0  0  0  0  0  0  0  0  0  0  0  0
    5.5986    0.5712   -3.9557 C   0  0  0  0  0  0  0  0  0  0  0  0
    5.3693    1.8724   -5.6489 H   0  0  0  0  0  0  0  0  0  0  0  0
    7.7942    2.3846   -5.8110 H   0  0  0  0  0  0  0  0  0  0  0  0
    8.5542   -0.1842   -2.4546 H   0  0  0  0  0  0  0  0  0  0  0  0
    6.1433   -0.6681   -2.2689 H   0  0  0  0  0  0  0  0  0  0  0  0
    3.8752    0.1439   -3.8343 S   0  0  0  0  0  0  0  0  0  0  0  0
    2.4931    3.6067   -4.7633 O   0  0  0  0  0  0  0  0  0  0  0  0
    3.0919    1.2122   -4.6940 O   0  0  0  0  0  0  0  0  0  0  0  0
    3.0131    1.5706   -1.8067 O   0  0  0  0  0  0  0  0  0  0  0  0
    9.8366    1.4128   -4.2690 C   0  0  0  0  0  0  0  0  0  0  0  0
   10.3335    0.6700   -4.9065 H   0  0  0  0  0  0  0  0  0  0  0  0
   10.0247    2.3958   -4.7116 H   0  0  0  0  0  0  0  0  0  0  0  0
   10.3310    1.3827   -3.2931 H   0  0  0  0  0  0  0  0  0  0  0  0
   -2.7006   -0.1271   -2.3086 H   0  0  0  0  0  0  0  0  0  0  0  0
  1  2  1  0  0  0  0
  1  7  1  0  0  0  0
  2  8  1  0  0  0  0
  3  2  2  0  0  0  0
  4  5  2  0  0  0  0
  4  3  1  0  0  0  0
  5  6  1  0  0  0  0
  6 31  1  0  0  0  0
  6  1  2  0  0  0  0
  9  4  1  0  0  0  0
 10  5  1  0  0  0  0
 11  3  1  0  0  0  0
 11 26  2  0  0  0  0
 13 18  1  0  0  0  0
 14 13  2  0  0  0  0
 14 15  1  0  0  0  0
 15 16  2  0  0  0  0
 16 17  1  0  0  0  0
 16 21  1  0  0  0  0
 17 22  1  0  0  0  0
 18 23  1  0  0  0  0
 18 17  2  0  0  0  0
 19 13  1  0  0  0  0
 20 14  1  0  0  0  0
 24 12  2  0  0  0  0
 25 23  1  0  0  0  0
 27 15  1  0  0  0  0
 27 30  1  0  0  0  0
 28 27  1  0  0  0  0
 29 27  1  0  0  0  0
M  RAD  2  12   2  25   2
M  END
