Coordinates from ORCA-job Ph-N2-X-OTs-B3LYPG-6-31G_dp-scan-d09-49-n400
 OpenBabel08281821363D

 31 32  0  0  0  0  0  0  0  0999 V2000
    0.8271    3.3337   -1.1714 C   0  0  0  0  0  0  0  0  0  0  0  0
    1.6865    2.3013   -1.4924 C   0  0  0  0  0  0  0  0  0  0  0  0
    1.3088    1.1210   -2.1768 C   0  0  0  0  0  0  0  0  0  0  0  0
   -0.1019    0.9974   -2.5588 C   0  0  0  0  0  0  0  0  0  0  0  0
   -0.9377    2.0805   -2.2101 C   0  0  0  0  0  0  0  0  0  0  0  0
   -0.5134    3.2165   -1.5414 C   0  0  0  0  0  0  0  0  0  0  0  0
    1.1899    4.2087   -0.6422 H   0  0  0  0  0  0  0  0  0  0  0  0
    2.7317    2.3634   -1.2104 H   0  0  0  0  0  0  0  0  0  0  0  0
   -1.6911    0.2409   -3.3024 H   0  0  0  0  0  0  0  0  0  0  0  0
   -1.9879    2.0083   -2.4890 H   0  0  0  0  0  0  0  0  0  0  0  0
    2.3701    0.1586   -2.4091 N   0  0  0  0  0  0  0  0  0  0  0  0
    3.5421    0.4634   -2.0280 N   0  0  0  0  0  0  0  0  0  0  0  0
    6.7531    0.7526   -3.0610 C   0  0  0  0  0  0  0  0  0  0  0  0
    7.5840    1.3796   -3.9857 C   0  0  0  0  0  0  0  0  0  0  0  0
    7.4404    1.1507   -5.3629 C   0  0  0  0  0  0  0  0  0  0  0  0
    6.4344    0.2745   -5.7964 C   0  0  0  0  0  0  0  0  0  0  0  0
    5.5905   -0.3598   -4.8876 C   0  0  0  0  0  0  0  0  0  0  0  0
    5.7598   -0.1137   -3.5239 C   0  0  0  0  0  0  0  0  0  0  0  0
    6.8748    0.9167   -1.9956 H   0  0  0  0  0  0  0  0  0  0  0  0
    8.3603    2.0543   -3.6340 H   0  0  0  0  0  0  0  0  0  0  0  0
    6.3129    0.0842   -6.8596 H   0  0  0  0  0  0  0  0  0  0  0  0
    4.8168   -1.0441   -5.2188 H   0  0  0  0  0  0  0  0  0  0  0  0
    4.6732   -0.9104   -2.3500 S   0  0  0  0  0  0  0  0  0  0  0  0
   -0.7673   -0.0264   -3.2239 O   0  0  0  0  0  0  0  0  0  0  0  0
    5.3757   -1.0625   -1.0722 O   0  0  0  0  0  0  0  0  0  0  0  0
    4.0036   -2.0336   -3.0072 O   0  0  0  0  0  0  0  0  0  0  0  0
    8.3704    1.8085   -6.3536 C   0  0  0  0  0  0  0  0  0  0  0  0
    8.6743    2.8038   -6.0176 H   0  0  0  0  0  0  0  0  0  0  0  0
    9.2842    1.2159   -6.4833 H   0  0  0  0  0  0  0  0  0  0  0  0
    7.9031    1.9071   -7.3374 H   0  0  0  0  0  0  0  0  0  0  0  0
   -1.2290    3.9998   -1.3094 H   0  0  0  0  0  0  0  0  0  0  0  0
  1  7  1  0  0  0  0
  2  8  1  0  0  0  0
  2  1  1  0  0  0  0
  3  2  2  0  0  0  0
  4  5  2  0  0  0  0
  4  3  1  0  0  0  0
  5  6  1  0  0  0  0
  6 31  1  0  0  0  0
  6  1  2  0  0  0  0
  9 24  1  0  0  0  0
 10  5  1  0  0  0  0
 11  3  1  0  0  0  0
 11 12  1  0  0  0  0
 13 19  1  0  0  0  0
 14 20  1  0  0  0  0
 14 13  2  0  0  0  0
 15 14  1  0  0  0  0
 16 15  2  0  0  0  0
 16 17  1  0  0  0  0
 17 18  2  0  0  0  0
 18 13  1  0  0  0  0
 18 23  1  0  0  0  0
 21 16  1  0  0  0  0
 22 17  1  0  0  0  0
 23 12  1  0  0  0  0
 23 25  2  0  0  0  0
 24  4  1  0  0  0  0
 26 23  2  0  0  0  0
 27 28  1  0  0  0  0
 27 15  1  0  0  0  0
 29 27  1  0  0  0  0
 30 27  1  0  0  0  0
M  RAD  2  11   2  12   2
M  END
