Coordinates from ORCA-job Ph-N2-X-OTs-B3LYPG-6-31G_dp-scan-d09-49-n400
 OpenBabel08281821363D

 31 30  0  0  0  0  0  0  0  0999 V2000
   -0.1785    0.5392   -3.6236 C   0  0  0  0  0  0  0  0  0  0  0  0
    1.0973    0.4594   -3.0712 C   0  0  0  0  0  0  0  0  0  0  0  0
    1.4907    1.4876   -2.2129 C   0  0  0  0  0  0  0  0  0  0  0  0
    0.6766    2.5852   -1.8859 C   0  0  0  0  0  0  0  0  0  0  0  0
   -0.5952    2.6242   -2.4481 C   0  0  0  0  0  0  0  0  0  0  0  0
   -1.0226    1.6090   -3.3102 C   0  0  0  0  0  0  0  0  0  0  0  0
   -0.5116   -0.2426   -4.2983 H   0  0  0  0  0  0  0  0  0  0  0  0
    1.7605   -0.3652   -3.3085 H   0  0  0  0  0  0  0  0  0  0  0  0
    1.0850    3.3599   -1.2314 H   0  0  0  0  0  0  0  0  0  0  0  0
   -1.2524    3.4559   -2.2139 H   0  0  0  0  0  0  0  0  0  0  0  0
    2.7828    1.4937   -1.6175 N   0  0  0  0  0  0  0  0  0  0  0  0
    3.5250    2.1000   -1.0008 N   0  0  0  0  0  0  0  0  0  0  0  0
    5.6929   -0.3333   -4.8917 C   0  0  0  0  0  0  0  0  0  0  0  0
    6.7023    0.4626   -5.4339 C   0  0  0  0  0  0  0  0  0  0  0  0
    7.5015    1.2768   -4.6197 C   0  0  0  0  0  0  0  0  0  0  0  0
    7.2671    1.2754   -3.2343 C   0  0  0  0  0  0  0  0  0  0  0  0
    6.2653    0.4885   -2.6739 C   0  0  0  0  0  0  0  0  0  0  0  0
    5.4721   -0.2959   -3.5159 C   0  0  0  0  0  0  0  0  0  0  0  0
    5.0717   -0.9639   -5.5188 H   0  0  0  0  0  0  0  0  0  0  0  0
    6.8727    0.4490   -6.5076 H   0  0  0  0  0  0  0  0  0  0  0  0
    7.8767    1.9016   -2.5879 H   0  0  0  0  0  0  0  0  0  0  0  0
    6.0858    0.4972   -1.6039 H   0  0  0  0  0  0  0  0  0  0  0  0
    4.2175   -1.3943   -2.7931 S   0  0  0  0  0  0  0  0  0  0  0  0
    2.7355    4.2077   -0.4654 O   0  0  0  0  0  0  0  0  0  0  0  0
    3.3119   -1.7873   -3.9246 O   0  0  0  0  0  0  0  0  0  0  0  0
    3.5763   -0.5747   -1.6648 O   0  0  0  0  0  0  0  0  0  0  0  0
    8.5777    2.1528   -5.2129 C   0  0  0  0  0  0  0  0  0  0  0  0
    8.8432    1.8332   -6.2239 H   0  0  0  0  0  0  0  0  0  0  0  0
    8.2436    3.1960   -5.2733 H   0  0  0  0  0  0  0  0  0  0  0  0
    9.4856    2.1404   -4.6014 H   0  0  0  0  0  0  0  0  0  0  0  0
   -2.0176    1.6528   -3.7428 H   0  0  0  0  0  0  0  0  0  0  0  0
  1  6  2  0  0  0  0
  1  2  1  0  0  0  0
  2  3  2  0  0  0  0
  3  4  1  0  0  0  0
  3 11  1  0  0  0  0
  4  9  1  0  0  0  0
  5 10  1  0  0  0  0
  5  4  2  0  0  0  0
  6  5  1  0  0  0  0
  7  1  1  0  0  0  0
  8  2  1  0  0  0  0
 11 12  2  0  0  0  0
 13 18  1  0  0  0  0
 14 13  2  0  0  0  0
 14 15  1  0  0  0  0
 15 16  2  0  0  0  0
 16 17  1  0  0  0  0
 16 21  1  0  0  0  0
 17 22  1  0  0  0  0
 18 23  1  0  0  0  0
 18 17  2  0  0  0  0
 19 13  1  0  0  0  0
 20 14  1  0  0  0  0
 23 26  1  0  0  0  0
 25 23  1  0  0  0  0
 27 15  1  0  0  0  0
 27 30  1  0  0  0  0
 28 27  1  0  0  0  0
 29 27  1  0  0  0  0
 31  6  1  0  0  0  0
M  RAD  4  12   2  24   3  25   2  26   2
M  END
