Coordinates from ORCA-job Ph-N2-X-OTs-B3LYPG-6-31G_dp-scan-d09-49-n400
 OpenBabel08281821363D

 31 32  0  0  0  0  0  0  0  0999 V2000
   -0.6853    0.2485   -2.3165 C   0  0  0  0  0  0  0  0  0  0  0  0
    0.6668    0.1605   -2.0007 C   0  0  0  0  0  0  0  0  0  0  0  0
    1.5277    1.1927   -2.3973 C   0  0  0  0  0  0  0  0  0  0  0  0
    1.0564    2.3027   -3.1089 C   0  0  0  0  0  0  0  0  0  0  0  0
   -0.2994    2.3594   -3.4284 C   0  0  0  0  0  0  0  0  0  0  0  0
   -1.1723    1.3447   -3.0333 C   0  0  0  0  0  0  0  0  0  0  0  0
   -1.3576   -0.5442   -2.0034 H   0  0  0  0  0  0  0  0  0  0  0  0
    1.0546   -0.6891   -1.4546 H   0  0  0  0  0  0  0  0  0  0  0  0
    1.7500    3.0891   -3.3651 H   0  0  0  0  0  0  0  0  0  0  0  0
   -0.6729    3.2128   -3.9862 H   0  0  0  0  0  0  0  0  0  0  0  0
    2.9224    1.0698   -2.0598 N   0  0  0  0  0  0  0  0  0  0  0  0
    3.8463    1.9180   -1.8597 N   0  0  0  0  0  0  0  0  0  0  0  0
    5.3351    0.6996   -4.8323 C   0  0  0  0  0  0  0  0  0  0  0  0
    6.4410    1.4833   -5.1451 C   0  0  0  0  0  0  0  0  0  0  0  0
    7.5726    1.5058   -4.3138 C   0  0  0  0  0  0  0  0  0  0  0  0
    7.5711    0.7179   -3.1527 C   0  0  0  0  0  0  0  0  0  0  0  0
    6.4738   -0.0717   -2.8221 C   0  0  0  0  0  0  0  0  0  0  0  0
    5.3598   -0.0667   -3.6655 C   0  0  0  0  0  0  0  0  0  0  0  0
    4.4575    0.6710   -5.4700 H   0  0  0  0  0  0  0  0  0  0  0  0
    6.4274    2.0902   -6.0464 H   0  0  0  0  0  0  0  0  0  0  0  0
    8.4377    0.7306   -2.4974 H   0  0  0  0  0  0  0  0  0  0  0  0
    6.4773   -0.6634   -1.9111 H   0  0  0  0  0  0  0  0  0  0  0  0
    3.9767   -1.1400   -3.2802 S   0  0  2  0  0  0  0  0  0  0  0  0
    3.3209    3.4520   -2.0431 O   0  0  0  0  0  0  0  0  0  0  0  0
    3.0098   -1.0035   -4.4007 O   0  0  0  0  0  0  0  0  0  0  0  0
    3.3497   -0.2414   -1.8250 O   0  0  0  0  0  0  0  0  0  0  0  0
    8.7698    2.3493   -4.6764 C   0  0  0  0  0  0  0  0  0  0  0  0
    9.3191    1.9086   -5.5173 H   0  0  0  0  0  0  0  0  0  0  0  0
    8.4667    3.3560   -4.9798 H   0  0  0  0  0  0  0  0  0  0  0  0
    9.4644    2.4421   -3.8371 H   0  0  0  0  0  0  0  0  0  0  0  0
   -2.2277    1.4062   -3.2818 H   0  0  0  0  0  0  0  0  0  0  0  0
  1  7  1  0  0  0  0
  1  2  1  0  0  0  0
  2  8  1  0  0  0  0
  3 11  1  0  0  0  0
  3  2  2  0  0  0  0
  4  3  1  0  0  0  0
  5  4  2  0  0  0  0
  5  6  1  0  0  0  0
  6  1  2  0  0  0  0
  9  4  1  0  0  0  0
 10  5  1  0  0  0  0
 11 12  1  0  0  0  0
 11 26  1  0  0  0  0
 13 18  1  0  0  0  0
 14 13  2  0  0  0  0
 14 15  1  0  0  0  0
 15 16  2  0  0  0  0
 16 17  1  0  0  0  0
 16 21  1  0  0  0  0
 17 22  1  0  0  0  0
 18 23  1  0  0  0  0
 18 17  2  0  0  0  0
 19 13  1  0  0  0  0
 20 14  1  0  0  0  0
 23 25  1  6  0  0  0
 23 26  1  0  0  0  0
 24 12  1  0  0  0  0
 27 15  1  0  0  0  0
 27 30  1  0  0  0  0
 28 27  1  0  0  0  0
 29 27  1  0  0  0  0
 31  6  1  0  0  0  0
M  RAD  3  12   2  24   2  25   2
M  END
