Coordinates from ORCA-job Ph-N2-X-OTs-B3LYPG-6-31G_dp-scan-d09-49-n400
 OpenBabel08281821363D

 31 32  0  0  0  0  0  0  0  0999 V2000
   -0.5441    0.1462   -1.3662 C   0  0  0  0  0  0  0  0  0  0  0  0
    0.7697    0.5336   -1.6171 C   0  0  0  0  0  0  0  0  0  0  0  0
    1.0379    1.4399   -2.6517 C   0  0  0  0  0  0  0  0  0  0  0  0
   -0.0010    1.9554   -3.4383 C   0  0  0  0  0  0  0  0  0  0  0  0
   -1.3095    1.5550   -3.1707 C   0  0  0  0  0  0  0  0  0  0  0  0
   -1.5887    0.6569   -2.1391 C   0  0  0  0  0  0  0  0  0  0  0  0
   -0.7500   -0.5540   -0.5619 H   0  0  0  0  0  0  0  0  0  0  0  0
    1.5889    0.1438   -1.0261 H   0  0  0  0  0  0  0  0  0  0  0  0
    0.2155    2.6531   -4.2326 H   0  0  0  0  0  0  0  0  0  0  0  0
   -2.1158    1.9510   -3.7804 H   0  0  0  0  0  0  0  0  0  0  0  0
    2.4077    1.7878   -2.8855 N   0  0  0  0  0  0  0  0  0  0  0  0
    2.9318    2.9087   -3.3979 N   0  0  0  0  0  0  0  0  0  0  0  0
    5.8923    1.5187   -4.7822 C   0  0  0  0  0  0  0  0  0  0  0  0
    7.2238    1.9177   -4.7829 C   0  0  0  0  0  0  0  0  0  0  0  0
    8.2003    1.2000   -4.0702 C   0  0  0  0  0  0  0  0  0  0  0  0
    7.8078    0.0638   -3.3496 C   0  0  0  0  0  0  0  0  0  0  0  0
    6.4774   -0.3534   -3.3390 C   0  0  0  0  0  0  0  0  0  0  0  0
    5.5301    0.3824   -4.0535 C   0  0  0  0  0  0  0  0  0  0  0  0
    5.1320    2.0684   -5.3265 H   0  0  0  0  0  0  0  0  0  0  0  0
    7.5152    2.8042   -5.3401 H   0  0  0  0  0  0  0  0  0  0  0  0
    8.5513   -0.5016   -2.7946 H   0  0  0  0  0  0  0  0  0  0  0  0
    6.1853   -1.2397   -2.7813 H   0  0  0  0  0  0  0  0  0  0  0  0
    3.8320   -0.1750   -4.0343 S   0  0  2  0  0  0  0  0  0  0  0  0
    2.0682    3.8256   -3.6814 O   0  0  0  0  0  0  0  0  0  0  0  0
    3.1253    0.4833   -5.1676 O   0  0  0  0  0  0  0  0  0  0  0  0
    3.3477    0.8871   -2.5257 O   0  0  0  0  0  0  0  0  0  0  0  0
    9.6450    1.6341   -4.1057 C   0  0  0  0  0  0  0  0  0  0  0  0
   10.1213    1.3300   -5.0463 H   0  0  0  0  0  0  0  0  0  0  0  0
    9.7358    2.7227   -4.0355 H   0  0  0  0  0  0  0  0  0  0  0  0
   10.2188    1.1896   -3.2882 H   0  0  0  0  0  0  0  0  0  0  0  0
   -2.6127    0.3557   -1.9397 H   0  0  0  0  0  0  0  0  0  0  0  0
  1  7  1  0  0  0  0
  2  1  1  0  0  0  0
  2  8  1  0  0  0  0
  3  2  2  0  0  0  0
  4  5  2  0  0  0  0
  4  3  1  0  0  0  0
  5  6  1  0  0  0  0
  6 31  1  0  0  0  0
  6  1  2  0  0  0  0
  9  4  1  0  0  0  0
 10  5  1  0  0  0  0
 11  3  1  0  0  0  0
 11 26  1  0  0  0  0
 12 11  1  0  0  0  0
 13 18  1  0  0  0  0
 14 13  2  0  0  0  0
 14 15  1  0  0  0  0
 15 16  2  0  0  0  0
 16 17  1  0  0  0  0
 16 21  1  0  0  0  0
 17 22  1  0  0  0  0
 18 23  1  0  0  0  0
 18 17  2  0  0  0  0
 19 13  1  0  0  0  0
 20 14  1  0  0  0  0
 23 25  1  6  0  0  0
 23 26  1  0  0  0  0
 24 12  1  0  0  0  0
 27 15  1  0  0  0  0
 27 29  1  0  0  0  0
 27 30  1  0  0  0  0
 28 27  1  0  0  0  0
M  RAD  3  12   2  24   2  25   2
M  END
