Coordinates from ORCA-job Ph-N2-X-OTs-B3LYPG-6-31G_dp-scan-d09-49-n400
 OpenBabel08281821363D

 31 30  0  0  0  0  0  0  0  0999 V2000
   -0.1964    0.5358   -3.6160 C   0  0  0  0  0  0  0  0  0  0  0  0
    1.0844    0.4577   -3.0751 C   0  0  0  0  0  0  0  0  0  0  0  0
    1.4857    1.4864   -2.2212 C   0  0  0  0  0  0  0  0  0  0  0  0
    0.6728    2.5823   -1.8877 C   0  0  0  0  0  0  0  0  0  0  0  0
   -0.6045    2.6204   -2.4376 C   0  0  0  0  0  0  0  0  0  0  0  0
   -1.0390    1.6047   -3.2954 C   0  0  0  0  0  0  0  0  0  0  0  0
   -0.5350   -0.2468   -4.2872 H   0  0  0  0  0  0  0  0  0  0  0  0
    1.7458   -0.3665   -3.3180 H   0  0  0  0  0  0  0  0  0  0  0  0
    1.0897    3.3555   -1.2391 H   0  0  0  0  0  0  0  0  0  0  0  0
   -1.2602    3.4515   -2.1974 H   0  0  0  0  0  0  0  0  0  0  0  0
    2.7841    1.4923   -1.6387 N   0  0  0  0  0  0  0  0  0  0  0  0
    3.5262    2.1123   -1.0302 N   0  0  0  0  0  0  0  0  0  0  0  0
    5.6962   -0.3272   -4.8897 C   0  0  0  0  0  0  0  0  0  0  0  0
    6.7090    0.4656   -5.4298 C   0  0  0  0  0  0  0  0  0  0  0  0
    7.5075    1.2789   -4.6141 C   0  0  0  0  0  0  0  0  0  0  0  0
    7.2691    1.2798   -3.2293 C   0  0  0  0  0  0  0  0  0  0  0  0
    6.2640    0.4960   -2.6707 C   0  0  0  0  0  0  0  0  0  0  0  0
    5.4716   -0.2874   -3.5146 C   0  0  0  0  0  0  0  0  0  0  0  0
    5.0756   -0.9573   -5.5179 H   0  0  0  0  0  0  0  0  0  0  0  0
    6.8826    0.4503   -6.5029 H   0  0  0  0  0  0  0  0  0  0  0  0
    7.8777    1.9057   -2.5819 H   0  0  0  0  0  0  0  0  0  0  0  0
    6.0808    0.5073   -1.6014 H   0  0  0  0  0  0  0  0  0  0  0  0
    4.2130   -1.3819   -2.7955 S   0  0  0  0  0  0  0  0  0  0  0  0
    2.8018    4.1535   -0.5285 O   0  0  0  0  0  0  0  0  0  0  0  0
    3.3121   -1.7789   -3.9282 O   0  0  0  0  0  0  0  0  0  0  0  0
    3.5696   -0.5613   -1.6680 O   0  0  0  0  0  0  0  0  0  0  0  0
    8.5877    2.1515   -5.2049 C   0  0  0  0  0  0  0  0  0  0  0  0
    8.8512    1.8341   -6.2170 H   0  0  0  0  0  0  0  0  0  0  0  0
    8.2586    3.1965   -5.2614 H   0  0  0  0  0  0  0  0  0  0  0  0
    9.4957    2.1327   -4.5938 H   0  0  0  0  0  0  0  0  0  0  0  0
   -2.0379    1.6473   -3.7189 H   0  0  0  0  0  0  0  0  0  0  0  0
  1  6  2  0  0  0  0
  1  2  1  0  0  0  0
  2  3  2  0  0  0  0
  3  4  1  0  0  0  0
  3 11  1  0  0  0  0
  4  9  1  0  0  0  0
  5 10  1  0  0  0  0
  5  4  2  0  0  0  0
  6  5  1  0  0  0  0
  7  1  1  0  0  0  0
  8  2  1  0  0  0  0
 11 12  2  0  0  0  0
 13 18  1  0  0  0  0
 14 13  2  0  0  0  0
 14 15  1  0  0  0  0
 15 16  2  0  0  0  0
 16 17  1  0  0  0  0
 16 21  1  0  0  0  0
 17 22  1  0  0  0  0
 18 23  1  0  0  0  0
 18 17  2  0  0  0  0
 19 13  1  0  0  0  0
 20 14  1  0  0  0  0
 23 26  1  0  0  0  0
 25 23  1  0  0  0  0
 27 15  1  0  0  0  0
 27 30  1  0  0  0  0
 28 27  1  0  0  0  0
 29 27  1  0  0  0  0
 31  6  1  0  0  0  0
M  RAD  4  12   2  24   3  25   2  26   2
M  END
