Coordinates from ORCA-job Ph-N2-X-OTs-B3LYPG-6-31G_dp-scan-d09-49-n400
 OpenBabel08281821363D

 31 31  0  0  0  0  0  0  0  0999 V2000
   -0.6459    0.2392   -2.4412 C   0  0  0  0  0  0  0  0  0  0  0  0
    0.6920    0.1233   -2.0779 C   0  0  0  0  0  0  0  0  0  0  0  0
    1.5639    1.1773   -2.3793 C   0  0  0  0  0  0  0  0  0  0  0  0
    1.1313    2.3332   -3.0372 C   0  0  0  0  0  0  0  0  0  0  0  0
   -0.2102    2.4151   -3.4070 C   0  0  0  0  0  0  0  0  0  0  0  0
   -1.0987    1.3804   -3.1097 C   0  0  0  0  0  0  0  0  0  0  0  0
   -1.3334   -0.5667   -2.2045 H   0  0  0  0  0  0  0  0  0  0  0  0
    1.0550   -0.7587   -1.5687 H   0  0  0  0  0  0  0  0  0  0  0  0
    1.8503    3.1290   -3.1931 H   0  0  0  0  0  0  0  0  0  0  0  0
   -0.5610    3.3022   -3.9253 H   0  0  0  0  0  0  0  0  0  0  0  0
    2.9532    1.0565   -1.9931 N   0  0  0  0  0  0  0  0  0  0  0  0
    3.8588    1.8629   -1.7677 N   0  0  0  0  0  0  0  0  0  0  0  0
    5.2992    0.6253   -4.8174 C   0  0  0  0  0  0  0  0  0  0  0  0
    6.3853    1.4237   -5.1611 C   0  0  0  0  0  0  0  0  0  0  0  0
    7.5161    1.5065   -4.3324 C   0  0  0  0  0  0  0  0  0  0  0  0
    7.5348    0.7634   -3.1424 C   0  0  0  0  0  0  0  0  0  0  0  0
    6.4573   -0.0400   -2.7803 C   0  0  0  0  0  0  0  0  0  0  0  0
    5.3431   -0.0938   -3.6214 C   0  0  0  0  0  0  0  0  0  0  0  0
    4.4235    0.5487   -5.4536 H   0  0  0  0  0  0  0  0  0  0  0  0
    6.3573    1.9940   -6.0856 H   0  0  0  0  0  0  0  0  0  0  0  0
    8.4010    0.8228   -2.4895 H   0  0  0  0  0  0  0  0  0  0  0  0
    6.4754   -0.5960   -1.8473 H   0  0  0  0  0  0  0  0  0  0  0  0
    3.9883   -1.1953   -3.2026 S   0  0  2  0  0  0  0  0  0  0  0  0
    3.3049    3.6432   -1.9397 O   0  0  0  0  0  0  0  0  0  0  0  0
    3.0176   -1.1176   -4.3252 O   0  0  0  0  0  0  0  0  0  0  0  0
    3.3524   -0.3104   -1.7769 O   0  0  0  0  0  0  0  0  0  0  0  0
    8.6885    2.3705   -4.7264 C   0  0  0  0  0  0  0  0  0  0  0  0
    9.1932    1.9672   -5.6123 H   0  0  0  0  0  0  0  0  0  0  0  0
    8.3632    3.3860   -4.9740 H   0  0  0  0  0  0  0  0  0  0  0  0
    9.4261    2.4381   -3.9224 H   0  0  0  0  0  0  0  0  0  0  0  0
   -2.1431    1.4610   -3.3965 H   0  0  0  0  0  0  0  0  0  0  0  0
  1  7  1  0  0  0  0
  1  2  2  0  0  0  0
  2  8  1  0  0  0  0
  3  2  1  0  0  0  0
  3 11  1  0  0  0  0
  4  3  2  0  0  0  0
  5  6  2  0  0  0  0
  5  4  1  0  0  0  0
  6  1  1  0  0  0  0
  9  4  1  0  0  0  0
 10  5  1  0  0  0  0
 11 26  1  0  0  0  0
 11 12  1  0  0  0  0
 13 18  1  0  0  0  0
 14 13  2  0  0  0  0
 14 15  1  0  0  0  0
 15 16  2  0  0  0  0
 16 17  1  0  0  0  0
 16 21  1  0  0  0  0
 17 22  1  0  0  0  0
 18 23  1  0  0  0  0
 18 17  2  0  0  0  0
 19 13  1  0  0  0  0
 20 14  1  0  0  0  0
 23 25  1  6  0  0  0
 23 26  1  0  0  0  0
 27 15  1  0  0  0  0
 27 30  1  0  0  0  0
 28 27  1  0  0  0  0
 29 27  1  0  0  0  0
 31  6  1  0  0  0  0
M  RAD  3  12   3  24   3  25   2
M  END
