Coordinates from ORCA-job Ph-N2-X-OTs-B3LYPG-6-31G_dp-scan-d09-49-n400
 OpenBabel08281821363D

 31 32  0  0  0  0  0  0  0  0999 V2000
    0.7239    3.6386   -2.0004 C   0  0  0  0  0  0  0  0  0  0  0  0
    1.6672    2.6618   -2.3105 C   0  0  0  0  0  0  0  0  0  0  0  0
    1.3037    1.3132   -2.2696 C   0  0  0  0  0  0  0  0  0  0  0  0
    0.0089    0.9308   -1.8841 C   0  0  0  0  0  0  0  0  0  0  0  0
   -0.9312    1.9117   -1.5593 C   0  0  0  0  0  0  0  0  0  0  0  0
   -0.5699    3.2584   -1.6275 C   0  0  0  0  0  0  0  0  0  0  0  0
    0.9904    4.6892   -2.0541 H   0  0  0  0  0  0  0  0  0  0  0  0
    2.6759    2.9199   -2.6145 H   0  0  0  0  0  0  0  0  0  0  0  0
   -1.1214   -0.5781   -1.5786 H   0  0  0  0  0  0  0  0  0  0  0  0
   -1.9327    1.6223   -1.2502 H   0  0  0  0  0  0  0  0  0  0  0  0
    2.1460    0.2389   -2.6504 N   0  0  0  0  0  0  0  0  0  0  0  0
    3.3276    0.3723   -2.3219 N   0  0  0  0  0  0  0  0  0  0  0  0
    6.6436    0.3961   -3.0763 C   0  0  0  0  0  0  0  0  0  0  0  0
    7.6215    1.0886   -3.7850 C   0  0  0  0  0  0  0  0  0  0  0  0
    7.5606    1.2036   -5.1828 C   0  0  0  0  0  0  0  0  0  0  0  0
    6.4877    0.6054   -5.8590 C   0  0  0  0  0  0  0  0  0  0  0  0
    5.4976   -0.0903   -5.1674 C   0  0  0  0  0  0  0  0  0  0  0  0
    5.5862   -0.1880   -3.7781 C   0  0  0  0  0  0  0  0  0  0  0  0
    6.6989    0.2932   -1.9977 H   0  0  0  0  0  0  0  0  0  0  0  0
    8.4483    1.5449   -3.2468 H   0  0  0  0  0  0  0  0  0  0  0  0
    6.4282    0.6831   -6.9417 H   0  0  0  0  0  0  0  0  0  0  0  0
    4.6719   -0.5625   -5.6888 H   0  0  0  0  0  0  0  0  0  0  0  0
    4.3141   -1.0628   -2.8768 S   0  0  0  0  0  0  0  0  0  0  0  0
   -0.1984   -0.4036   -1.8073 O   0  0  0  0  0  0  0  0  0  0  0  0
    4.8866   -1.5916   -1.6340 O   0  0  0  0  0  0  0  0  0  0  0  0
    3.5634   -1.9063   -3.8104 O   0  0  0  0  0  0  0  0  0  0  0  0
    8.6446    1.9320   -5.9404 C   0  0  0  0  0  0  0  0  0  0  0  0
    8.9983    2.8077   -5.3881 H   0  0  0  0  0  0  0  0  0  0  0  0
    9.5114    1.2802   -6.1051 H   0  0  0  0  0  0  0  0  0  0  0  0
    8.2943    2.2652   -6.9207 H   0  0  0  0  0  0  0  0  0  0  0  0
   -1.3079    4.0169   -1.3841 H   0  0  0  0  0  0  0  0  0  0  0  0
  1  6  2  0  0  0  0
  2  3  2  0  0  0  0
  2  1  1  0  0  0  0
  3  4  1  0  0  0  0
  4 24  1  0  0  0  0
  4  5  2  0  0  0  0
  5 10  1  0  0  0  0
  6  5  1  0  0  0  0
  6 31  1  0  0  0  0
  7  1  1  0  0  0  0
  8  2  1  0  0  0  0
 11 12  1  0  0  0  0
 11  3  1  0  0  0  0
 13 19  1  0  0  0  0
 14 20  1  0  0  0  0
 14 13  2  0  0  0  0
 15 14  1  0  0  0  0
 16 15  2  0  0  0  0
 16 17  1  0  0  0  0
 17 18  2  0  0  0  0
 18 13  1  0  0  0  0
 18 23  1  0  0  0  0
 21 16  1  0  0  0  0
 22 17  1  0  0  0  0
 23 12  1  0  0  0  0
 23 25  2  0  0  0  0
 24  9  1  0  0  0  0
 26 23  2  0  0  0  0
 27 28  1  0  0  0  0
 27 15  1  0  0  0  0
 29 27  1  0  0  0  0
 30 27  1  0  0  0  0
M  RAD  2  11   2  12   2
M  END
