Coordinates from ORCA-job Ph-N2-X-OTs-B3LYPG-6-31G_dp-scan-d09-49-n400
 OpenBabel08281821363D

 31 31  0  0  0  0  0  0  0  0999 V2000
   -0.6165    0.2440   -2.5203 C   0  0  0  0  0  0  0  0  0  0  0  0
    0.7110    0.1201   -2.1224 C   0  0  0  0  0  0  0  0  0  0  0  0
    1.5881    1.1811   -2.3785 C   0  0  0  0  0  0  0  0  0  0  0  0
    1.1745    2.3518   -3.0215 C   0  0  0  0  0  0  0  0  0  0  0  0
   -0.1565    2.4416   -3.4255 C   0  0  0  0  0  0  0  0  0  0  0  0
   -1.0514    1.3996   -3.1759 C   0  0  0  0  0  0  0  0  0  0  0  0
   -1.3095   -0.5670   -2.3205 H   0  0  0  0  0  0  0  0  0  0  0  0
    1.0601   -0.7722   -1.6223 H   0  0  0  0  0  0  0  0  0  0  0  0
    1.8984    3.1522   -3.1371 H   0  0  0  0  0  0  0  0  0  0  0  0
   -0.4942    3.3400   -3.9328 H   0  0  0  0  0  0  0  0  0  0  0  0
    2.9691    1.0643   -1.9565 N   0  0  0  0  0  0  0  0  0  0  0  0
    3.8637    1.8598   -1.7122 N   0  0  0  0  0  0  0  0  0  0  0  0
    5.2941    0.5231   -4.8130 C   0  0  0  0  0  0  0  0  0  0  0  0
    6.3671    1.3273   -5.1915 C   0  0  0  0  0  0  0  0  0  0  0  0
    7.4789    1.4938   -4.3532 C   0  0  0  0  0  0  0  0  0  0  0  0
    7.4996    0.8225   -3.1193 C   0  0  0  0  0  0  0  0  0  0  0  0
    6.4383    0.0162   -2.7235 C   0  0  0  0  0  0  0  0  0  0  0  0
    5.3367   -0.1168   -3.5748 C   0  0  0  0  0  0  0  0  0  0  0  0
    4.4329    0.3811   -5.4577 H   0  0  0  0  0  0  0  0  0  0  0  0
    6.3426    1.8334   -6.1522 H   0  0  0  0  0  0  0  0  0  0  0  0
    8.3558    0.9412   -2.4613 H   0  0  0  0  0  0  0  0  0  0  0  0
    6.4567   -0.4837   -1.7596 H   0  0  0  0  0  0  0  0  0  0  0  0
    4.0025   -1.2316   -3.1155 S   0  0  2  0  0  0  0  0  0  0  0  0
    3.3201    3.7154   -1.8986 O   0  0  0  0  0  0  0  0  0  0  0  0
    3.0327   -1.2138   -4.2419 O   0  0  0  0  0  0  0  0  0  0  0  0
    3.3591   -0.3276   -1.7260 O   0  0  0  0  0  0  0  0  0  0  0  0
    8.6209    2.3947   -4.7533 C   0  0  0  0  0  0  0  0  0  0  0  0
    8.6715    2.5226   -5.8380 H   0  0  0  0  0  0  0  0  0  0  0  0
    8.4989    3.3902   -4.3098 H   0  0  0  0  0  0  0  0  0  0  0  0
    9.5815    2.0016   -4.4074 H   0  0  0  0  0  0  0  0  0  0  0  0
   -2.0874    1.4858   -3.4899 H   0  0  0  0  0  0  0  0  0  0  0  0
  1  7  1  0  0  0  0
  1  2  2  0  0  0  0
  2  8  1  0  0  0  0
  3  2  1  0  0  0  0
  3 11  1  0  0  0  0
  4  3  2  0  0  0  0
  5  6  2  0  0  0  0
  5  4  1  0  0  0  0
  6  1  1  0  0  0  0
  9  4  1  0  0  0  0
 10  5  1  0  0  0  0
 11 26  1  0  0  0  0
 11 12  1  0  0  0  0
 13 18  1  0  0  0  0
 14 13  2  0  0  0  0
 14 15  1  0  0  0  0
 15 16  2  0  0  0  0
 16 17  1  0  0  0  0
 16 21  1  0  0  0  0
 17 22  1  0  0  0  0
 18 23  1  0  0  0  0
 18 17  2  0  0  0  0
 19 13  1  0  0  0  0
 20 14  1  0  0  0  0
 23 25  1  6  0  0  0
 23 26  1  0  0  0  0
 27 30  1  0  0  0  0
 27 15  1  0  0  0  0
 27 29  1  0  0  0  0
 28 27  1  0  0  0  0
 31  6  1  0  0  0  0
M  RAD  3  12   3  24   3  25   2
M  END
