Coordinates from ORCA-job Ph-N2-X-OTs-B3LYPG-6-31G_dp-scan-d09-49-n400
 OpenBabel08281821363D

 31 32  0  0  0  0  0  0  0  0999 V2000
    0.7703    3.4120   -1.1661 C   0  0  0  0  0  0  0  0  0  0  0  0
    1.7049    2.4307   -1.4481 C   0  0  0  0  0  0  0  0  0  0  0  0
    1.3553    1.2356   -2.1098 C   0  0  0  0  0  0  0  0  0  0  0  0
   -0.0031    1.0347   -2.4930 C   0  0  0  0  0  0  0  0  0  0  0  0
   -0.9365    2.0442   -2.1988 C   0  0  0  0  0  0  0  0  0  0  0  0
   -0.5625    3.2119   -1.5481 C   0  0  0  0  0  0  0  0  0  0  0  0
    1.0664    4.3212   -0.6536 H   0  0  0  0  0  0  0  0  0  0  0  0
    2.7435    2.5497   -1.1600 H   0  0  0  0  0  0  0  0  0  0  0  0
   -1.3632   -0.0329   -3.2892 H   0  0  0  0  0  0  0  0  0  0  0  0
   -1.9736    1.8958   -2.4922 H   0  0  0  0  0  0  0  0  0  0  0  0
    2.3215    0.2307   -2.3886 N   0  0  0  0  0  0  0  0  0  0  0  0
    3.4993    0.4957   -2.0601 N   0  0  0  0  0  0  0  0  0  0  0  0
    6.7272    0.6997   -3.0730 C   0  0  0  0  0  0  0  0  0  0  0  0
    7.5834    1.3206   -3.9784 C   0  0  0  0  0  0  0  0  0  0  0  0
    7.4374    1.1325   -5.3616 C   0  0  0  0  0  0  0  0  0  0  0  0
    6.4031    0.3037   -5.8206 C   0  0  0  0  0  0  0  0  0  0  0  0
    5.5339   -0.3238   -4.9308 C   0  0  0  0  0  0  0  0  0  0  0  0
    5.7059   -0.1191   -3.5608 C   0  0  0  0  0  0  0  0  0  0  0  0
    6.8503    0.8316   -2.0033 H   0  0  0  0  0  0  0  0  0  0  0  0
    8.3815    1.9581   -3.6069 H   0  0  0  0  0  0  0  0  0  0  0  0
    6.2794    0.1450   -6.8888 H   0  0  0  0  0  0  0  0  0  0  0  0
    4.7382   -0.9720   -5.2820 H   0  0  0  0  0  0  0  0  0  0  0  0
    4.5877   -0.9071   -2.4100 S   0  0  0  0  0  0  0  0  0  0  0  0
   -0.4122   -0.0929   -3.1313 O   0  0  0  0  0  0  0  0  0  0  0  0
    5.2842   -1.1182   -1.1364 O   0  0  0  0  0  0  0  0  0  0  0  0
    3.8825   -1.9905   -3.0980 O   0  0  0  0  0  0  0  0  0  0  0  0
    8.3941    1.7828   -6.3317 C   0  0  0  0  0  0  0  0  0  0  0  0
    8.7189    2.7647   -5.9760 H   0  0  0  0  0  0  0  0  0  0  0  0
    9.2945    1.1700   -6.4616 H   0  0  0  0  0  0  0  0  0  0  0  0
    7.9402    1.9094   -7.3184 H   0  0  0  0  0  0  0  0  0  0  0  0
   -1.3131    3.9673   -1.3346 H   0  0  0  0  0  0  0  0  0  0  0  0
  1  7  1  0  0  0  0
  2  1  1  0  0  0  0
  2  8  1  0  0  0  0
  3  2  2  0  0  0  0
  4  5  2  0  0  0  0
  4  3  1  0  0  0  0
  5  6  1  0  0  0  0
  6 31  1  0  0  0  0
  6  1  2  0  0  0  0
  9 24  1  0  0  0  0
 10  5  1  0  0  0  0
 11  3  1  0  0  0  0
 11 12  1  0  0  0  0
 13 19  1  0  0  0  0
 14 20  1  0  0  0  0
 14 13  2  0  0  0  0
 15 14  1  0  0  0  0
 16 15  2  0  0  0  0
 16 17  1  0  0  0  0
 17 18  2  0  0  0  0
 18 13  1  0  0  0  0
 18 23  1  0  0  0  0
 21 16  1  0  0  0  0
 22 17  1  0  0  0  0
 23 12  1  0  0  0  0
 23 25  2  0  0  0  0
 24  4  1  0  0  0  0
 26 23  2  0  0  0  0
 27 28  1  0  0  0  0
 27 15  1  0  0  0  0
 29 27  1  0  0  0  0
 30 27  1  0  0  0  0
M  RAD  2  11   2  12   2
M  END
