Coordinates from ORCA-job Ph-N2-X-OTs-B3LYPG-6-31G_dp-scan-d09-49-n400
 OpenBabel08281821363D

 31 30  0  0  0  0  0  0  0  0999 V2000
    0.1258    0.6115   -3.7681 C   0  0  0  0  0  0  0  0  0  0  0  0
    1.2720    0.4285   -2.9996 C   0  0  0  0  0  0  0  0  0  0  0  0
    1.5869    1.4311   -2.0792 C   0  0  0  0  0  0  0  0  0  0  0  0
    0.8251    2.5980   -1.8920 C   0  0  0  0  0  0  0  0  0  0  0  0
   -0.3140    2.7396   -2.6771 C   0  0  0  0  0  0  0  0  0  0  0  0
   -0.6642    1.7546   -3.6072 C   0  0  0  0  0  0  0  0  0  0  0  0
   -0.1472   -0.1473   -4.4937 H   0  0  0  0  0  0  0  0  0  0  0  0
    1.8935   -0.4529   -3.1174 H   0  0  0  0  0  0  0  0  0  0  0  0
    1.1481    3.3520   -1.1605 H   0  0  0  0  0  0  0  0  0  0  0  0
   -0.9282    3.6269   -2.5603 H   0  0  0  0  0  0  0  0  0  0  0  0
    2.7293    1.3417   -1.2457 N   0  0  0  0  0  0  0  0  0  0  0  0
    3.3888    1.7798   -0.4422 N   0  0  0  0  0  0  0  0  0  0  0  0
    5.5955   -0.4109   -4.8575 C   0  0  0  0  0  0  0  0  0  0  0  0
    6.5290    0.4378   -5.4531 C   0  0  0  0  0  0  0  0  0  0  0  0
    7.3181    1.3047   -4.6838 C   0  0  0  0  0  0  0  0  0  0  0  0
    7.1513    1.3011   -3.2894 C   0  0  0  0  0  0  0  0  0  0  0  0
    6.2234    0.4617   -2.6775 C   0  0  0  0  0  0  0  0  0  0  0  0
    5.4383   -0.3767   -3.4728 C   0  0  0  0  0  0  0  0  0  0  0  0
    4.9818   -1.0812   -5.4500 H   0  0  0  0  0  0  0  0  0  0  0  0
    6.6479    0.4255   -6.5340 H   0  0  0  0  0  0  0  0  0  0  0  0
    7.7565    1.9644   -2.6765 H   0  0  0  0  0  0  0  0  0  0  0  0
    6.0983    0.4645   -1.5993 H   0  0  0  0  0  0  0  0  0  0  0  0
    4.2842   -1.5422   -2.6750 S   0  0  0  0  0  0  0  0  0  0  0  0
    2.2540    4.3972    0.0502 O   0  0  0  0  0  0  0  0  0  0  0  0
    3.3287   -1.9613   -3.7614 O   0  0  0  0  0  0  0  0  0  0  0  0
    3.6631   -0.7412   -1.5257 O   0  0  0  0  0  0  0  0  0  0  0  0
    8.3101    2.2375   -5.3356 C   0  0  0  0  0  0  0  0  0  0  0  0
    8.5944    1.8882   -6.3316 H   0  0  0  0  0  0  0  0  0  0  0  0
    7.8867    3.2432   -5.4486 H   0  0  0  0  0  0  0  0  0  0  0  0
    9.2202    2.3363   -4.7361 H   0  0  0  0  0  0  0  0  0  0  0  0
   -1.5580    1.8788   -4.2114 H   0  0  0  0  0  0  0  0  0  0  0  0
  1  6  2  0  0  0  0
  1  2  1  0  0  0  0
  2  3  2  0  0  0  0
  3  4  1  0  0  0  0
  3 11  1  0  0  0  0
  4  9  1  0  0  0  0
  5 10  1  0  0  0  0
  5  4  2  0  0  0  0
  6  5  1  0  0  0  0
  7  1  1  0  0  0  0
  8  2  1  0  0  0  0
 11 12  2  0  0  0  0
 13 18  1  0  0  0  0
 14 13  2  0  0  0  0
 14 15  1  0  0  0  0
 15 16  2  0  0  0  0
 16 17  1  0  0  0  0
 16 21  1  0  0  0  0
 17 22  1  0  0  0  0
 18 17  2  0  0  0  0
 18 23  1  0  0  0  0
 19 13  1  0  0  0  0
 20 14  1  0  0  0  0
 23 26  1  0  0  0  0
 25 23  1  0  0  0  0
 27 30  1  0  0  0  0
 27 15  1  0  0  0  0
 28 27  1  0  0  0  0
 29 27  1  0  0  0  0
 31  6  1  0  0  0  0
M  RAD  4  12   2  24   3  25   2  26   2
M  END
