Coordinates from ORCA-job Ph-N2-X-OTs-B3LYPG-6-31G_dp-scan-d09-49-n400
 OpenBabel08281821363D

 31 32  0  0  0  0  0  0  0  0999 V2000
    0.7465    3.6315   -1.9087 C   0  0  0  0  0  0  0  0  0  0  0  0
    1.6920    2.6548   -2.2063 C   0  0  0  0  0  0  0  0  0  0  0  0
    1.3131    1.3085   -2.2371 C   0  0  0  0  0  0  0  0  0  0  0  0
   -0.0076    0.9305   -1.9413 C   0  0  0  0  0  0  0  0  0  0  0  0
   -0.9520    1.9129   -1.6294 C   0  0  0  0  0  0  0  0  0  0  0  0
   -0.5711    3.2550   -1.6219 C   0  0  0  0  0  0  0  0  0  0  0  0
    1.0277    4.6796   -1.9054 H   0  0  0  0  0  0  0  0  0  0  0  0
    2.7188    2.9100   -2.4451 H   0  0  0  0  0  0  0  0  0  0  0  0
   -1.1812   -0.5629   -1.7569 H   0  0  0  0  0  0  0  0  0  0  0  0
   -1.9731    1.6263   -1.3898 H   0  0  0  0  0  0  0  0  0  0  0  0
    2.1629    0.2381   -2.6047 N   0  0  0  0  0  0  0  0  0  0  0  0
    3.3488    0.3887   -2.2956 N   0  0  0  0  0  0  0  0  0  0  0  0
    6.6542    0.4290   -3.0763 C   0  0  0  0  0  0  0  0  0  0  0  0
    7.6214    1.1146   -3.8061 C   0  0  0  0  0  0  0  0  0  0  0  0
    7.5513    1.1980   -5.2056 C   0  0  0  0  0  0  0  0  0  0  0  0
    6.4799    0.5752   -5.8618 C   0  0  0  0  0  0  0  0  0  0  0  0
    5.5003   -0.1138   -5.1489 C   0  0  0  0  0  0  0  0  0  0  0  0
    5.5979   -0.1799   -3.7583 C   0  0  0  0  0  0  0  0  0  0  0  0
    6.7168    0.3506   -1.9960 H   0  0  0  0  0  0  0  0  0  0  0  0
    8.4472    1.5902   -3.2831 H   0  0  0  0  0  0  0  0  0  0  0  0
    6.4134    0.6280   -6.9456 H   0  0  0  0  0  0  0  0  0  0  0  0
    4.6757   -0.6047   -5.6546 H   0  0  0  0  0  0  0  0  0  0  0  0
    4.3395   -1.0469   -2.8303 S   0  0  0  0  0  0  0  0  0  0  0  0
   -0.2451   -0.4000   -1.9359 O   0  0  0  0  0  0  0  0  0  0  0  0
    4.9268   -1.5483   -1.5829 O   0  0  0  0  0  0  0  0  0  0  0  0
    3.5889   -1.9145   -3.7417 O   0  0  0  0  0  0  0  0  0  0  0  0
    8.6242    1.9189   -5.9859 C   0  0  0  0  0  0  0  0  0  0  0  0
    8.9782    2.8059   -5.4521 H   0  0  0  0  0  0  0  0  0  0  0  0
    9.4930    1.2689   -6.1475 H   0  0  0  0  0  0  0  0  0  0  0  0
    8.2631    2.2332   -6.9685 H   0  0  0  0  0  0  0  0  0  0  0  0
   -1.3122    4.0138   -1.3887 H   0  0  0  0  0  0  0  0  0  0  0  0
  1  7  1  0  0  0  0
  1  6  2  0  0  0  0
  2  1  1  0  0  0  0
  3  2  2  0  0  0  0
  3  4  1  0  0  0  0
  4 24  1  0  0  0  0
  4  5  2  0  0  0  0
  5  6  1  0  0  0  0
  5 10  1  0  0  0  0
  6 31  1  0  0  0  0
  8  2  1  0  0  0  0
 11 12  1  0  0  0  0
 11  3  1  0  0  0  0
 13 19  1  0  0  0  0
 14 20  1  0  0  0  0
 14 13  2  0  0  0  0
 15 14  1  0  0  0  0
 16 15  2  0  0  0  0
 16 17  1  0  0  0  0
 17 18  2  0  0  0  0
 18 13  1  0  0  0  0
 18 23  1  0  0  0  0
 21 16  1  0  0  0  0
 22 17  1  0  0  0  0
 23 12  1  0  0  0  0
 23 25  2  0  0  0  0
 24  9  1  0  0  0  0
 26 23  2  0  0  0  0
 27 28  1  0  0  0  0
 27 15  1  0  0  0  0
 29 27  1  0  0  0  0
 30 27  1  0  0  0  0
M  RAD  2  11   2  12   2
M  END
