Coordinates from ORCA-job Ph-N2-X-OTs-B3LYPG-6-31G_dp-scan-d09-49-n400
 OpenBabel08281821363D

 31 32  0  0  0  0  0  0  0  0999 V2000
   -0.4977    0.1806   -1.2732 C   0  0  0  0  0  0  0  0  0  0  0  0
    0.7954    0.5910   -1.5861 C   0  0  0  0  0  0  0  0  0  0  0  0
    1.0090    1.4378   -2.6832 C   0  0  0  0  0  0  0  0  0  0  0  0
   -0.0705    1.8686   -3.4677 C   0  0  0  0  0  0  0  0  0  0  0  0
   -1.3594    1.4553   -3.1327 C   0  0  0  0  0  0  0  0  0  0  0  0
   -1.5809    0.6152   -2.0402 C   0  0  0  0  0  0  0  0  0  0  0  0
   -0.6587   -0.4761   -0.4231 H   0  0  0  0  0  0  0  0  0  0  0  0
    1.6442    0.2630   -0.9983 H   0  0  0  0  0  0  0  0  0  0  0  0
    0.0959    2.5071   -4.3230 H   0  0  0  0  0  0  0  0  0  0  0  0
   -2.1948    1.7888   -3.7409 H   0  0  0  0  0  0  0  0  0  0  0  0
    2.3489    1.8266   -2.9788 N   0  0  0  0  0  0  0  0  0  0  0  0
    2.8083    3.0212   -3.5465 N   0  0  0  0  0  0  0  0  0  0  0  0
    5.9438    1.5932   -4.7708 C   0  0  0  0  0  0  0  0  0  0  0  0
    7.2857    1.9535   -4.7283 C   0  0  0  0  0  0  0  0  0  0  0  0
    8.2289    1.1717   -4.0385 C   0  0  0  0  0  0  0  0  0  0  0  0
    7.7914    0.0115   -3.3858 C   0  0  0  0  0  0  0  0  0  0  0  0
    6.4498   -0.3676   -3.4205 C   0  0  0  0  0  0  0  0  0  0  0  0
    5.5359    0.4310   -4.1104 C   0  0  0  0  0  0  0  0  0  0  0  0
    5.2086    2.1923   -5.2974 H   0  0  0  0  0  0  0  0  0  0  0  0
    7.6123    2.8591   -5.2328 H   0  0  0  0  0  0  0  0  0  0  0  0
    8.5085   -0.6037   -2.8492 H   0  0  0  0  0  0  0  0  0  0  0  0
    6.1229   -1.2736   -2.9166 H   0  0  0  0  0  0  0  0  0  0  0  0
    3.8212   -0.0749   -4.1481 S   0  0  2  0  0  0  0  0  0  0  0  0
    1.9819    3.8111   -3.7987 O   0  0  0  0  0  0  0  0  0  0  0  0
    3.1537    0.6402   -5.2736 O   0  0  0  0  0  0  0  0  0  0  0  0
    3.3482    1.0026   -2.6316 O   0  0  0  0  0  0  0  0  0  0  0  0
    9.6860    1.5647   -4.0273 C   0  0  0  0  0  0  0  0  0  0  0  0
   10.1737    1.2865   -4.9701 H   0  0  0  0  0  0  0  0  0  0  0  0
    9.8063    2.6463   -3.9094 H   0  0  0  0  0  0  0  0  0  0  0  0
   10.2297    1.0703   -3.2181 H   0  0  0  0  0  0  0  0  0  0  0  0
   -2.5888    0.2978   -1.7909 H   0  0  0  0  0  0  0  0  0  0  0  0
  1  7  1  0  0  0  0
  2  1  1  0  0  0  0
  2  8  1  0  0  0  0
  3  2  2  0  0  0  0
  4  5  2  0  0  0  0
  4  3  1  0  0  0  0
  5  6  1  0  0  0  0
  6 31  1  0  0  0  0
  6  1  2  0  0  0  0
  9  4  1  0  0  0  0
 10  5  1  0  0  0  0
 11  3  1  0  0  0  0
 11 26  1  0  0  0  0
 12 11  1  0  0  0  0
 13 14  2  0  0  0  0
 13 18  1  0  0  0  0
 14 15  1  0  0  0  0
 15 27  1  0  0  0  0
 15 16  2  0  0  0  0
 16 21  1  0  0  0  0
 17 16  1  0  0  0  0
 17 22  1  0  0  0  0
 18 17  2  0  0  0  0
 19 13  1  0  0  0  0
 20 14  1  0  0  0  0
 23 25  1  6  0  0  0
 23 18  1  0  0  0  0
 23 26  1  0  0  0  0
 24 12  2  0  0  0  0
 27 29  1  0  0  0  0
 27 30  1  0  0  0  0
 28 27  1  0  0  0  0
M  RAD  1  25   2
M  END
