Coordinates from ORCA-job Ph-N2-X-OTs-B3LYPG-6-31G_dp-scan-d09-49-n400
 OpenBabel08281821363D

 31 30  0  0  0  0  0  0  0  0999 V2000
    0.0501    0.6025   -3.7403 C   0  0  0  0  0  0  0  0  0  0  0  0
    1.2369    0.4565   -3.0275 C   0  0  0  0  0  0  0  0  0  0  0  0
    1.5549    1.4598   -2.1091 C   0  0  0  0  0  0  0  0  0  0  0  0
    0.7571    2.5932   -1.8723 C   0  0  0  0  0  0  0  0  0  0  0  0
   -0.4230    2.6972   -2.6008 C   0  0  0  0  0  0  0  0  0  0  0  0
   -0.7770    1.7100   -3.5268 C   0  0  0  0  0  0  0  0  0  0  0  0
   -0.2260   -0.1579   -4.4632 H   0  0  0  0  0  0  0  0  0  0  0  0
    1.8860   -0.3984   -3.1859 H   0  0  0  0  0  0  0  0  0  0  0  0
    1.0863    3.3518   -1.1486 H   0  0  0  0  0  0  0  0  0  0  0  0
   -1.0663    3.5573   -2.4432 H   0  0  0  0  0  0  0  0  0  0  0  0
    2.7423    1.4084   -1.3351 N   0  0  0  0  0  0  0  0  0  0  0  0
    3.4277    1.8870   -0.5762 N   0  0  0  0  0  0  0  0  0  0  0  0
    5.6283   -0.3926   -4.8725 C   0  0  0  0  0  0  0  0  0  0  0  0
    6.5872    0.4352   -5.4572 C   0  0  0  0  0  0  0  0  0  0  0  0
    7.3874    1.2831   -4.6785 C   0  0  0  0  0  0  0  0  0  0  0  0
    7.2057    1.2821   -3.2859 C   0  0  0  0  0  0  0  0  0  0  0  0
    6.2527    0.4636   -2.6848 C   0  0  0  0  0  0  0  0  0  0  0  0
    5.4573   -0.3560   -3.4896 C   0  0  0  0  0  0  0  0  0  0  0  0
    5.0062   -1.0486   -5.4722 H   0  0  0  0  0  0  0  0  0  0  0  0
    6.7173    0.4212   -6.5368 H   0  0  0  0  0  0  0  0  0  0  0  0
    7.8191    1.9311   -2.6659 H   0  0  0  0  0  0  0  0  0  0  0  0
    6.1158    0.4687   -1.6080 H   0  0  0  0  0  0  0  0  0  0  0  0
    4.2700   -1.4964   -2.7061 S   0  0  0  0  0  0  0  0  0  0  0  0
    2.2514    4.3998    0.0052 O   0  0  0  0  0  0  0  0  0  0  0  0
    3.3231   -1.9019   -3.8046 O   0  0  0  0  0  0  0  0  0  0  0  0
    3.6481   -0.6830   -1.5659 O   0  0  0  0  0  0  0  0  0  0  0  0
    8.4075    2.1936   -5.3184 C   0  0  0  0  0  0  0  0  0  0  0  0
    8.6859    1.8452   -6.3164 H   0  0  0  0  0  0  0  0  0  0  0  0
    8.0125    3.2116   -5.4240 H   0  0  0  0  0  0  0  0  0  0  0  0
    9.3176    2.2620   -4.7146 H   0  0  0  0  0  0  0  0  0  0  0  0
   -1.7027    1.8045   -4.0867 H   0  0  0  0  0  0  0  0  0  0  0  0
  1  6  2  0  0  0  0
  1  2  1  0  0  0  0
  2  3  2  0  0  0  0
  3  4  1  0  0  0  0
  3 11  1  0  0  0  0
  4  9  1  0  0  0  0
  5 10  1  0  0  0  0
  5  4  2  0  0  0  0
  6  5  1  0  0  0  0
  7  1  1  0  0  0  0
  8  2  1  0  0  0  0
 11 12  2  0  0  0  0
 13 18  1  0  0  0  0
 14 13  2  0  0  0  0
 14 15  1  0  0  0  0
 15 16  2  0  0  0  0
 16 17  1  0  0  0  0
 16 21  1  0  0  0  0
 17 22  1  0  0  0  0
 18 23  1  0  0  0  0
 18 17  2  0  0  0  0
 19 13  1  0  0  0  0
 20 14  1  0  0  0  0
 23 26  1  0  0  0  0
 25 23  1  0  0  0  0
 27 30  1  0  0  0  0
 27 15  1  0  0  0  0
 28 27  1  0  0  0  0
 29 27  1  0  0  0  0
 31  6  1  0  0  0  0
M  RAD  4  12   2  24   3  25   2  26   2
M  END
