Coordinates from ORCA-job Ph-N2-X-OTs-B3LYPG-6-31G_dp-scan-d09-49-n400
 OpenBabel08281821363D

 31 30  0  0  0  0  0  0  0  0999 V2000
   -0.1223    0.5588   -3.6564 C   0  0  0  0  0  0  0  0  0  0  0  0
    1.1364    0.4712   -3.0677 C   0  0  0  0  0  0  0  0  0  0  0  0
    1.5023    1.4909   -2.1870 C   0  0  0  0  0  0  0  0  0  0  0  0
    0.6808    2.5870   -1.8714 C   0  0  0  0  0  0  0  0  0  0  0  0
   -0.5728    2.6328   -2.4722 C   0  0  0  0  0  0  0  0  0  0  0  0
   -0.9743    1.6266   -3.3572 C   0  0  0  0  0  0  0  0  0  0  0  0
   -0.4356   -0.2156   -4.3488 H   0  0  0  0  0  0  0  0  0  0  0  0
    1.8061   -0.3520   -3.2930 H   0  0  0  0  0  0  0  0  0  0  0  0
    1.0625    3.3574   -1.1919 H   0  0  0  0  0  0  0  0  0  0  0  0
   -1.2364    3.4624   -2.2491 H   0  0  0  0  0  0  0  0  0  0  0  0
    2.7731    1.4956   -1.5509 N   0  0  0  0  0  0  0  0  0  0  0  0
    3.5081    2.0674   -0.9028 N   0  0  0  0  0  0  0  0  0  0  0  0
    5.6850   -0.3524   -4.8928 C   0  0  0  0  0  0  0  0  0  0  0  0
    6.6859    0.4473   -5.4454 C   0  0  0  0  0  0  0  0  0  0  0  0
    7.4865    1.2691   -4.6401 C   0  0  0  0  0  0  0  0  0  0  0  0
    7.2621    1.2713   -3.2533 C   0  0  0  0  0  0  0  0  0  0  0  0
    6.2682    0.4806   -2.6832 C   0  0  0  0  0  0  0  0  0  0  0  0
    5.4735   -0.3121   -3.5157 C   0  0  0  0  0  0  0  0  0  0  0  0
    5.0627   -0.9886   -5.5132 H   0  0  0  0  0  0  0  0  0  0  0  0
    6.8486    0.4308   -6.5203 H   0  0  0  0  0  0  0  0  0  0  0  0
    7.8738    1.9021   -2.6134 H   0  0  0  0  0  0  0  0  0  0  0  0
    6.0974    0.4902   -1.6116 H   0  0  0  0  0  0  0  0  0  0  0  0
    4.2307   -1.4172   -2.7767 S   0  0  0  0  0  0  0  0  0  0  0  0
    2.5406    4.3023   -0.2787 O   0  0  0  0  0  0  0  0  0  0  0  0
    3.3125   -1.8064   -3.9019 O   0  0  0  0  0  0  0  0  0  0  0  0
    3.5965   -0.5956   -1.6480 O   0  0  0  0  0  0  0  0  0  0  0  0
    8.5531    2.1492   -5.2450 C   0  0  0  0  0  0  0  0  0  0  0  0
    8.8276    1.8145   -6.2487 H   0  0  0  0  0  0  0  0  0  0  0  0
    8.2046    3.1862   -5.3271 H   0  0  0  0  0  0  0  0  0  0  0  0
    9.4582    2.1614   -4.6297 H   0  0  0  0  0  0  0  0  0  0  0  0
   -1.9560    1.6757   -3.8188 H   0  0  0  0  0  0  0  0  0  0  0  0
  1  6  2  0  0  0  0
  1  2  1  0  0  0  0
  2  3  2  0  0  0  0
  3  4  1  0  0  0  0
  3 11  1  0  0  0  0
  4  9  1  0  0  0  0
  5 10  1  0  0  0  0
  5  4  2  0  0  0  0
  6  5  1  0  0  0  0
  7  1  1  0  0  0  0
  8  2  1  0  0  0  0
 11 12  2  0  0  0  0
 13 18  1  0  0  0  0
 14 13  2  0  0  0  0
 14 15  1  0  0  0  0
 15 16  2  0  0  0  0
 16 17  1  0  0  0  0
 16 21  1  0  0  0  0
 17 22  1  0  0  0  0
 18 23  1  0  0  0  0
 18 17  2  0  0  0  0
 19 13  1  0  0  0  0
 20 14  1  0  0  0  0
 23 26  1  0  0  0  0
 25 23  1  0  0  0  0
 27 15  1  0  0  0  0
 27 30  1  0  0  0  0
 28 27  1  0  0  0  0
 29 27  1  0  0  0  0
 31  6  1  0  0  0  0
M  RAD  4  12   2  24   3  25   2  26   2
M  END
