Coordinates from ORCA-job Ph-N2-X-OTs-B3LYPG-6-31G_dp-scan-d09-49-n400
 OpenBabel08281821363D

 31 32  0  0  0  0  0  0  0  0999 V2000
   -0.5167    0.1664   -1.3145 C   0  0  0  0  0  0  0  0  0  0  0  0
    0.7851    0.5716   -1.5975 C   0  0  0  0  0  0  0  0  0  0  0  0
    1.0218    1.4444   -2.6683 C   0  0  0  0  0  0  0  0  0  0  0  0
   -0.0394    1.9078   -3.4580 C   0  0  0  0  0  0  0  0  0  0  0  0
   -1.3364    1.4946   -3.1557 C   0  0  0  0  0  0  0  0  0  0  0  0
   -1.5827    0.6291   -2.0885 C   0  0  0  0  0  0  0  0  0  0  0  0
   -0.6971   -0.5090   -0.4833 H   0  0  0  0  0  0  0  0  0  0  0  0
    1.6209    0.2201   -1.0051 H   0  0  0  0  0  0  0  0  0  0  0  0
    0.1487    2.5742   -4.2865 H   0  0  0  0  0  0  0  0  0  0  0  0
   -2.1589    1.8519   -3.7677 H   0  0  0  0  0  0  0  0  0  0  0  0
    2.3764    1.8172   -2.9339 N   0  0  0  0  0  0  0  0  0  0  0  0
    2.8620    2.9694   -3.4774 N   0  0  0  0  0  0  0  0  0  0  0  0
    5.9191    1.5633   -4.7700 C   0  0  0  0  0  0  0  0  0  0  0  0
    7.2571    1.9394   -4.7492 C   0  0  0  0  0  0  0  0  0  0  0  0
    8.2164    1.1827   -4.0535 C   0  0  0  0  0  0  0  0  0  0  0  0
    7.7995    0.0312   -3.3723 C   0  0  0  0  0  0  0  0  0  0  0  0
    6.4621   -0.3635   -3.3844 C   0  0  0  0  0  0  0  0  0  0  0  0
    5.5323    0.4105   -4.0809 C   0  0  0  0  0  0  0  0  0  0  0  0
    5.1718    2.1433   -5.3009 H   0  0  0  0  0  0  0  0  0  0  0  0
    7.5677    2.8382   -5.2756 H   0  0  0  0  0  0  0  0  0  0  0  0
    8.5294   -0.5644   -2.8310 H   0  0  0  0  0  0  0  0  0  0  0  0
    6.1510   -1.2623   -2.8581 H   0  0  0  0  0  0  0  0  0  0  0  0
    3.8241   -0.1170   -4.0900 S   0  0  2  0  0  0  0  0  0  0  0  0
    2.0128    3.8187   -3.7467 O   0  0  0  0  0  0  0  0  0  0  0  0
    3.1388    0.5688   -5.2214 O   0  0  0  0  0  0  0  0  0  0  0  0
    3.3494    0.9564   -2.5808 O   0  0  0  0  0  0  0  0  0  0  0  0
    9.6686    1.5928   -4.0658 C   0  0  0  0  0  0  0  0  0  0  0  0
   10.1483    1.3044   -5.0096 H   0  0  0  0  0  0  0  0  0  0  0  0
    9.7773    2.6775   -3.9673 H   0  0  0  0  0  0  0  0  0  0  0  0
   10.2275    1.1183   -3.2549 H   0  0  0  0  0  0  0  0  0  0  0  0
   -2.5974    0.3150   -1.8634 H   0  0  0  0  0  0  0  0  0  0  0  0
  1  7  1  0  0  0  0
  2  1  1  0  0  0  0
  2  8  1  0  0  0  0
  3  2  2  0  0  0  0
  4  5  2  0  0  0  0
  4  3  1  0  0  0  0
  5  6  1  0  0  0  0
  6 31  1  0  0  0  0
  6  1  2  0  0  0  0
  9  4  1  0  0  0  0
 10  5  1  0  0  0  0
 11  3  1  0  0  0  0
 11 26  1  0  0  0  0
 12 11  1  0  0  0  0
 13 14  2  0  0  0  0
 13 18  1  0  0  0  0
 14 15  1  0  0  0  0
 15 16  2  0  0  0  0
 16 21  1  0  0  0  0
 17 16  1  0  0  0  0
 17 22  1  0  0  0  0
 18 17  2  0  0  0  0
 19 13  1  0  0  0  0
 20 14  1  0  0  0  0
 23 25  1  6  0  0  0
 23 18  1  0  0  0  0
 23 26  1  0  0  0  0
 24 12  2  0  0  0  0
 27 15  1  0  0  0  0
 27 29  1  0  0  0  0
 27 30  1  0  0  0  0
 28 27  1  0  0  0  0
M  RAD  1  25   2
M  END
