Coordinates from ORCA-job Ph-N2-X-OTs-B3LYPG-6-31G_dp-scan-d09-49-n400
 OpenBabel08281821363D

 31 32  0  0  0  0  0  0  0  0999 V2000
   -0.6559    0.2453   -2.4051 C   0  0  0  0  0  0  0  0  0  0  0  0
    0.6850    0.1355   -2.0514 C   0  0  0  0  0  0  0  0  0  0  0  0
    1.5579    1.1802   -2.3823 C   0  0  0  0  0  0  0  0  0  0  0  0
    1.1194    2.3215   -3.0625 C   0  0  0  0  0  0  0  0  0  0  0  0
   -0.2251    2.3977   -3.4224 C   0  0  0  0  0  0  0  0  0  0  0  0
   -1.1133    1.3722   -3.0943 C   0  0  0  0  0  0  0  0  0  0  0  0
   -1.3423   -0.5540   -2.1444 H   0  0  0  0  0  0  0  0  0  0  0  0
    1.0513   -0.7363   -1.5268 H   0  0  0  0  0  0  0  0  0  0  0  0
    1.8350    3.1118   -3.2480 H   0  0  0  0  0  0  0  0  0  0  0  0
   -0.5784    3.2739   -3.9574 H   0  0  0  0  0  0  0  0  0  0  0  0
    2.9472    1.0550   -2.0059 N   0  0  0  0  0  0  0  0  0  0  0  0
    3.8610    1.8704   -1.7850 N   0  0  0  0  0  0  0  0  0  0  0  0
    5.3027    0.6499   -4.8187 C   0  0  0  0  0  0  0  0  0  0  0  0
    6.3931    1.4460   -5.1538 C   0  0  0  0  0  0  0  0  0  0  0  0
    7.5266    1.5093   -4.3270 C   0  0  0  0  0  0  0  0  0  0  0  0
    7.5433    0.7494   -3.1476 C   0  0  0  0  0  0  0  0  0  0  0  0
    6.4616   -0.0521   -2.7942 C   0  0  0  0  0  0  0  0  0  0  0  0
    5.3451   -0.0869   -3.6335 C   0  0  0  0  0  0  0  0  0  0  0  0
    4.4246    0.5889   -5.4533 H   0  0  0  0  0  0  0  0  0  0  0  0
    6.3661    2.0301   -6.0696 H   0  0  0  0  0  0  0  0  0  0  0  0
    8.4115    0.7939   -2.4959 H   0  0  0  0  0  0  0  0  0  0  0  0
    6.4784   -0.6213   -1.8692 H   0  0  0  0  0  0  0  0  0  0  0  0
    3.9844   -1.1825   -3.2239 S   0  0  2  0  0  0  0  0  0  0  0  0
    3.3123    3.5780   -1.9617 O   0  0  0  0  0  0  0  0  0  0  0  0
    3.0129   -1.0882   -4.3444 O   0  0  0  0  0  0  0  0  0  0  0  0
    3.3506   -0.2930   -1.7861 O   0  0  0  0  0  0  0  0  0  0  0  0
    8.7052    2.3685   -4.7128 C   0  0  0  0  0  0  0  0  0  0  0  0
    9.2304    1.9476   -5.5786 H   0  0  0  0  0  0  0  0  0  0  0  0
    8.3838    3.3776   -4.9887 H   0  0  0  0  0  0  0  0  0  0  0  0
    9.4251    2.4538   -3.8944 H   0  0  0  0  0  0  0  0  0  0  0  0
   -2.1601    1.4489   -3.3731 H   0  0  0  0  0  0  0  0  0  0  0  0
  1  7  1  0  0  0  0
  1  2  2  0  0  0  0
  2  8  1  0  0  0  0
  3  2  1  0  0  0  0
  3 11  1  0  0  0  0
  4  3  2  0  0  0  0
  5  6  2  0  0  0  0
  5  4  1  0  0  0  0
  6  1  1  0  0  0  0
  9  4  1  0  0  0  0
 10  5  1  0  0  0  0
 11 26  1  0  0  0  0
 11 12  1  0  0  0  0
 13 18  1  0  0  0  0
 14 13  2  0  0  0  0
 14 15  1  0  0  0  0
 15 16  2  0  0  0  0
 16 17  1  0  0  0  0
 16 21  1  0  0  0  0
 17 22  1  0  0  0  0
 18 23  1  0  0  0  0
 18 17  2  0  0  0  0
 19 13  1  0  0  0  0
 20 14  1  0  0  0  0
 23 25  1  6  0  0  0
 23 26  1  0  0  0  0
 24 12  1  0  0  0  0
 27 15  1  0  0  0  0
 27 30  1  0  0  0  0
 28 27  1  0  0  0  0
 29 27  1  0  0  0  0
 31  6  1  0  0  0  0
M  RAD  3  12   2  24   2  25   2
M  END
