Coordinates from ORCA-job Ph-N2-X-OTs-B3LYPG-6-31G_dp-scan-d09-49-n400
 OpenBabel08281821363D

 31 30  0  0  0  0  0  0  0  0999 V2000
    0.4552    0.6851   -3.9033 C   0  0  0  0  0  0  0  0  0  0  0  0
    1.4214    0.3806   -2.9490 C   0  0  0  0  0  0  0  0  0  0  0  0
    1.6912    1.3540   -1.9834 C   0  0  0  0  0  0  0  0  0  0  0  0
    1.0531    2.6055   -1.9241 C   0  0  0  0  0  0  0  0  0  0  0  0
    0.0972    2.8706   -2.8992 C   0  0  0  0  0  0  0  0  0  0  0  0
   -0.2022    1.9194   -3.8807 C   0  0  0  0  0  0  0  0  0  0  0  0
    0.2203   -0.0491   -4.6666 H   0  0  0  0  0  0  0  0  0  0  0  0
    1.9409   -0.5718   -2.9589 H   0  0  0  0  0  0  0  0  0  0  0  0
    1.3147    3.3256   -1.1332 H   0  0  0  0  0  0  0  0  0  0  0  0
   -0.4148    3.8275   -2.8887 H   0  0  0  0  0  0  0  0  0  0  0  0
    2.6390    1.1302   -0.9569 N   0  0  0  0  0  0  0  0  0  0  0  0
    3.1505    1.4371   -0.0011 N   0  0  0  0  0  0  0  0  0  0  0  0
    5.4977   -0.4995   -4.7885 C   0  0  0  0  0  0  0  0  0  0  0  0
    6.3432    0.3976   -5.4416 C   0  0  0  0  0  0  0  0  0  0  0  0
    7.0727    1.3596   -4.7285 C   0  0  0  0  0  0  0  0  0  0  0  0
    6.9367    1.4018   -3.3315 C   0  0  0  0  0  0  0  0  0  0  0  0
    6.0969    0.5141   -2.6626 C   0  0  0  0  0  0  0  0  0  0  0  0
    5.3684   -0.4201   -3.4027 C   0  0  0  0  0  0  0  0  0  0  0  0
    4.9292   -1.2422   -5.3384 H   0  0  0  0  0  0  0  0  0  0  0  0
    6.4391    0.3492   -6.5238 H   0  0  0  0  0  0  0  0  0  0  0  0
    7.4964    2.1393   -2.7616 H   0  0  0  0  0  0  0  0  0  0  0  0
    5.9956    0.5513   -1.5824 H   0  0  0  0  0  0  0  0  0  0  0  0
    4.3332   -1.6443   -2.5317 S   0  0  0  0  0  0  0  0  0  0  0  0
    2.0707    4.1665    0.4190 O   0  0  0  0  0  0  0  0  0  0  0  0
    3.3542   -2.1413   -3.5635 O   0  0  0  0  0  0  0  0  0  0  0  0
    3.7194   -0.8620   -1.3665 O   0  0  0  0  0  0  0  0  0  0  0  0
    7.9692    2.3426   -5.4426 C   0  0  0  0  0  0  0  0  0  0  0  0
    8.2491    1.9817   -6.4357 H   0  0  0  0  0  0  0  0  0  0  0  0
    7.4668    3.3090   -5.5735 H   0  0  0  0  0  0  0  0  0  0  0  0
    8.8870    2.5307   -4.8773 H   0  0  0  0  0  0  0  0  0  0  0  0
   -0.9527    2.1419   -4.6338 H   0  0  0  0  0  0  0  0  0  0  0  0
  1  6  2  0  0  0  0
  1  2  1  0  0  0  0
  2  3  2  0  0  0  0
  3  4  1  0  0  0  0
  3 11  1  0  0  0  0
  4  9  1  0  0  0  0
  5 10  1  0  0  0  0
  5  4  2  0  0  0  0
  6  5  1  0  0  0  0
  7  1  1  0  0  0  0
  8  2  1  0  0  0  0
 11 12  2  0  0  0  0
 13 18  1  0  0  0  0
 14 13  2  0  0  0  0
 14 15  1  0  0  0  0
 15 16  2  0  0  0  0
 16 21  1  0  0  0  0
 16 17  1  0  0  0  0
 17 22  1  0  0  0  0
 18 17  2  0  0  0  0
 18 23  1  0  0  0  0
 19 13  1  0  0  0  0
 20 14  1  0  0  0  0
 23 26  1  0  0  0  0
 25 23  1  0  0  0  0
 27 30  1  0  0  0  0
 27 15  1  0  0  0  0
 28 27  1  0  0  0  0
 29 27  1  0  0  0  0
 31  6  1  0  0  0  0
M  RAD  4  12   2  24   3  25   2  26   2
M  END
