Coordinates from ORCA-job Ph-N2-X-OTs-B3LYPG-6-31G_dp-scan-d09-49-n400
 OpenBabel08281821363D

 31 32  0  0  0  0  0  0  0  0999 V2000
    0.7311    3.4255   -1.1314 C   0  0  0  0  0  0  0  0  0  0  0  0
    1.6977    2.4699   -1.4013 C   0  0  0  0  0  0  0  0  0  0  0  0
    1.3730    1.2812   -2.0809 C   0  0  0  0  0  0  0  0  0  0  0  0
    0.0362    1.0569   -2.4923 C   0  0  0  0  0  0  0  0  0  0  0  0
   -0.9333    2.0333   -2.2146 C   0  0  0  0  0  0  0  0  0  0  0  0
   -0.5900    3.2007   -1.5432 C   0  0  0  0  0  0  0  0  0  0  0  0
    0.9930    4.3366   -0.6036 H   0  0  0  0  0  0  0  0  0  0  0  0
    2.7275    2.6065   -1.0903 H   0  0  0  0  0  0  0  0  0  0  0  0
   -1.2193   -0.0936   -3.3419 H   0  0  0  0  0  0  0  0  0  0  0  0
   -1.9601    1.8653   -2.5313 H   0  0  0  0  0  0  0  0  0  0  0  0
    2.3163    0.2666   -2.3722 N   0  0  0  0  0  0  0  0  0  0  0  0
    3.4946    0.5187   -2.0598 N   0  0  0  0  0  0  0  0  0  0  0  0
    6.7254    0.6868   -3.0802 C   0  0  0  0  0  0  0  0  0  0  0  0
    7.5864    1.3009   -3.9857 C   0  0  0  0  0  0  0  0  0  0  0  0
    7.4343    1.1195   -5.3692 C   0  0  0  0  0  0  0  0  0  0  0  0
    6.3890    0.3048   -5.8282 C   0  0  0  0  0  0  0  0  0  0  0  0
    5.5148   -0.3156   -4.9382 C   0  0  0  0  0  0  0  0  0  0  0  0
    5.6930   -0.1180   -3.5679 C   0  0  0  0  0  0  0  0  0  0  0  0
    6.8530    0.8134   -2.0103 H   0  0  0  0  0  0  0  0  0  0  0  0
    8.3932    1.9273   -3.6142 H   0  0  0  0  0  0  0  0  0  0  0  0
    6.2604    0.1516   -6.8966 H   0  0  0  0  0  0  0  0  0  0  0  0
    4.7105   -0.9529   -5.2895 H   0  0  0  0  0  0  0  0  0  0  0  0
    4.5686   -0.8963   -2.4165 S   0  0  0  0  0  0  0  0  0  0  0  0
   -0.2731   -0.0865   -3.1463 O   0  0  0  0  0  0  0  0  0  0  0  0
    5.2667   -1.1197   -1.1457 O   0  0  0  0  0  0  0  0  0  0  0  0
    3.8491   -1.9696   -3.1060 O   0  0  0  0  0  0  0  0  0  0  0  0
    8.3961    1.7621   -6.3395 C   0  0  0  0  0  0  0  0  0  0  0  0
    8.7325    2.7392   -5.9816 H   0  0  0  0  0  0  0  0  0  0  0  0
    9.2894    1.1397   -6.4732 H   0  0  0  0  0  0  0  0  0  0  0  0
    7.9415    1.8966   -7.3248 H   0  0  0  0  0  0  0  0  0  0  0  0
   -1.3581    3.9401   -1.3355 H   0  0  0  0  0  0  0  0  0  0  0  0
  1  7  1  0  0  0  0
  2  1  1  0  0  0  0
  2  8  1  0  0  0  0
  3  2  2  0  0  0  0
  4  5  2  0  0  0  0
  4  3  1  0  0  0  0
  5  6  1  0  0  0  0
  6 31  1  0  0  0  0
  6  1  2  0  0  0  0
  9 24  1  0  0  0  0
 10  5  1  0  0  0  0
 11  3  1  0  0  0  0
 11 12  1  0  0  0  0
 13 19  1  0  0  0  0
 14 20  1  0  0  0  0
 14 13  2  0  0  0  0
 15 14  1  0  0  0  0
 16 15  2  0  0  0  0
 16 17  1  0  0  0  0
 17 18  2  0  0  0  0
 18 13  1  0  0  0  0
 18 23  1  0  0  0  0
 21 16  1  0  0  0  0
 22 17  1  0  0  0  0
 23 12  1  0  0  0  0
 23 25  2  0  0  0  0
 24  4  1  0  0  0  0
 26 23  2  0  0  0  0
 27 28  1  0  0  0  0
 27 15  1  0  0  0  0
 29 27  1  0  0  0  0
 30 27  1  0  0  0  0
M  RAD  2  11   2  12   2
M  END
