Coordinates from ORCA-job Ph-N2-X-OTs-B3LYPG-6-31G_dp-scan-d09-49-n400
 OpenBabel08281821363D

 31 32  0  0  0  0  0  0  0  0999 V2000
   -0.5855    0.1271   -1.4371 C   0  0  0  0  0  0  0  0  0  0  0  0
    0.7448    0.4846   -1.6408 C   0  0  0  0  0  0  0  0  0  0  0  0
    1.0625    1.4276   -2.6273 C   0  0  0  0  0  0  0  0  0  0  0  0
    0.0597    2.0101   -3.4132 C   0  0  0  0  0  0  0  0  0  0  0  0
   -1.2653    1.6343   -3.1961 C   0  0  0  0  0  0  0  0  0  0  0  0
   -1.5951    0.7007   -2.2122 C   0  0  0  0  0  0  0  0  0  0  0  0
   -0.8309   -0.6006   -0.6691 H   0  0  0  0  0  0  0  0  0  0  0  0
    1.5370    0.0444   -1.0488 H   0  0  0  0  0  0  0  0  0  0  0  0
    0.3205    2.7408   -4.1630 H   0  0  0  0  0  0  0  0  0  0  0  0
   -2.0447    2.0804   -3.8060 H   0  0  0  0  0  0  0  0  0  0  0  0
    2.4503    1.7400   -2.8157 N   0  0  0  0  0  0  0  0  0  0  0  0
    3.0279    2.8283   -3.2813 N   0  0  0  0  0  0  0  0  0  0  0  0
    5.8533    1.4581   -4.7923 C   0  0  0  0  0  0  0  0  0  0  0  0
    7.1744    1.8889   -4.8243 C   0  0  0  0  0  0  0  0  0  0  0  0
    8.1755    1.2245   -4.0945 C   0  0  0  0  0  0  0  0  0  0  0  0
    7.8188    0.1092   -3.3239 C   0  0  0  0  0  0  0  0  0  0  0  0
    6.4996   -0.3391   -3.2807 C   0  0  0  0  0  0  0  0  0  0  0  0
    5.5271    0.3440   -4.0138 C   0  0  0  0  0  0  0  0  0  0  0  0
    5.0743    1.9662   -5.3502 H   0  0  0  0  0  0  0  0  0  0  0  0
    7.4375    2.7589   -5.4202 H   0  0  0  0  0  0  0  0  0  0  0  0
    8.5819   -0.4148   -2.7552 H   0  0  0  0  0  0  0  0  0  0  0  0
    6.2354   -1.2083   -2.6834 H   0  0  0  0  0  0  0  0  0  0  0  0
    3.8454   -0.2570   -3.9562 S   0  0  2  0  0  0  0  0  0  0  0  0
    2.1501    3.8378   -3.5821 O   0  0  0  0  0  0  0  0  0  0  0  0
    3.1084    0.3620   -5.0910 O   0  0  0  0  0  0  0  0  0  0  0  0
    3.3437    0.7872   -2.4486 O   0  0  0  0  0  0  0  0  0  0  0  0
    9.6084    1.6921   -4.1637 C   0  0  0  0  0  0  0  0  0  0  0  0
   10.0778    1.3740   -5.1031 H   0  0  0  0  0  0  0  0  0  0  0  0
    9.6733    2.7841   -4.1243 H   0  0  0  0  0  0  0  0  0  0  0  0
   10.2050    1.2842   -3.3434 H   0  0  0  0  0  0  0  0  0  0  0  0
   -2.6320    0.4212   -2.0506 H   0  0  0  0  0  0  0  0  0  0  0  0
  1  7  1  0  0  0  0
  2  1  1  0  0  0  0
  2  8  1  0  0  0  0
  3  2  2  0  0  0  0
  4  5  2  0  0  0  0
  4  3  1  0  0  0  0
  5  6  1  0  0  0  0
  6 31  1  0  0  0  0
  6  1  2  0  0  0  0
  9  4  1  0  0  0  0
 10  5  1  0  0  0  0
 11  3  1  0  0  0  0
 11 26  1  0  0  0  0
 12 11  1  0  0  0  0
 13 18  1  0  0  0  0
 14 13  2  0  0  0  0
 14 15  1  0  0  0  0
 15 16  2  0  0  0  0
 16 17  1  0  0  0  0
 16 21  1  0  0  0  0
 17 22  1  0  0  0  0
 18 23  1  0  0  0  0
 18 17  2  0  0  0  0
 19 13  1  0  0  0  0
 20 14  1  0  0  0  0
 23 25  1  6  0  0  0
 23 26  1  0  0  0  0
 24 12  1  0  0  0  0
 27 29  1  0  0  0  0
 27 15  1  0  0  0  0
 27 30  1  0  0  0  0
 28 27  1  0  0  0  0
M  RAD  3  12   2  24   2  25   2
M  END
