Coordinates from ORCA-job Ph-N2-X-OTs-B3LYPG-6-31G_dp-scan-d09-49-n400
 OpenBabel08281821363D

 31 32  0  0  0  0  0  0  0  0999 V2000
    0.6638    3.6502   -2.1765 C   0  0  0  0  0  0  0  0  0  0  0  0
    1.6027    2.6785   -2.5262 C   0  0  0  0  0  0  0  0  0  0  0  0
    1.2895    1.3320   -2.3520 C   0  0  0  0  0  0  0  0  0  0  0  0
    0.0679    0.9423   -1.7863 C   0  0  0  0  0  0  0  0  0  0  0  0
   -0.8639    1.9152   -1.4232 C   0  0  0  0  0  0  0  0  0  0  0  0
   -0.5633    3.2643   -1.6312 C   0  0  0  0  0  0  0  0  0  0  0  0
    0.8868    4.7007   -2.3325 H   0  0  0  0  0  0  0  0  0  0  0  0
    2.5615    2.9436   -2.9589 H   0  0  0  0  0  0  0  0  0  0  0  0
   -0.9452   -0.5887   -1.2460 H   0  0  0  0  0  0  0  0  0  0  0  0
   -1.8100    1.6214   -0.9750 H   0  0  0  0  0  0  0  0  0  0  0  0
    2.1202    0.2533   -2.7699 N   0  0  0  0  0  0  0  0  0  0  0  0
    3.2805    0.3288   -2.3657 N   0  0  0  0  0  0  0  0  0  0  0  0
    6.6147    0.3291   -3.0731 C   0  0  0  0  0  0  0  0  0  0  0  0
    7.6107    1.0377   -3.7397 C   0  0  0  0  0  0  0  0  0  0  0  0
    7.5695    1.2126   -5.1320 C   0  0  0  0  0  0  0  0  0  0  0  0
    6.4978    0.6584   -5.8466 C   0  0  0  0  0  0  0  0  0  0  0  0
    5.4897   -0.0525   -5.1978 C   0  0  0  0  0  0  0  0  0  0  0  0
    5.5595   -0.2105   -3.8127 C   0  0  0  0  0  0  0  0  0  0  0  0
    6.6543    0.1800   -1.9994 H   0  0  0  0  0  0  0  0  0  0  0  0
    8.4362    1.4597   -3.1723 H   0  0  0  0  0  0  0  0  0  0  0  0
    6.4532    0.7832   -6.9255 H   0  0  0  0  0  0  0  0  0  0  0  0
    4.6647   -0.4909   -5.7489 H   0  0  0  0  0  0  0  0  0  0  0  0
    4.2625   -1.1022   -2.9661 S   0  0  0  0  0  0  0  0  0  0  0  0
   -0.0607   -0.3919   -1.5831 O   0  0  0  0  0  0  0  0  0  0  0  0
    4.8053   -1.6854   -1.7347 O   0  0  0  0  0  0  0  0  0  0  0  0
    3.5128   -1.8956   -3.9433 O   0  0  0  0  0  0  0  0  0  0  0  0
    8.6722    1.9576   -5.8448 C   0  0  0  0  0  0  0  0  0  0  0  0
    9.0259    2.8086   -5.2549 H   0  0  0  0  0  0  0  0  0  0  0  0
    9.5351    1.3034   -6.0202 H   0  0  0  0  0  0  0  0  0  0  0  0
    8.3408    2.3303   -6.8174 H   0  0  0  0  0  0  0  0  0  0  0  0
   -1.2952    4.0177   -1.3562 H   0  0  0  0  0  0  0  0  0  0  0  0
  1  6  2  0  0  0  0
  2  3  2  0  0  0  0
  2  1  1  0  0  0  0
  3  4  1  0  0  0  0
  4 24  1  0  0  0  0
  4  5  2  0  0  0  0
  5 10  1  0  0  0  0
  6  5  1  0  0  0  0
  6 31  1  0  0  0  0
  7  1  1  0  0  0  0
  8  2  1  0  0  0  0
 11 12  1  0  0  0  0
 11  3  1  0  0  0  0
 13 19  1  0  0  0  0
 14 20  1  0  0  0  0
 14 13  1  0  0  0  0
 15 14  2  0  0  0  0
 16 17  2  0  0  0  0
 16 15  1  0  0  0  0
 17 18  1  0  0  0  0
 18 13  2  0  0  0  0
 18 23  1  0  0  0  0
 21 16  1  0  0  0  0
 22 17  1  0  0  0  0
 23 12  1  0  0  0  0
 23 25  2  0  0  0  0
 24  9  1  0  0  0  0
 26 23  2  0  0  0  0
 27 28  1  0  0  0  0
 27 15  1  0  0  0  0
 29 27  1  0  0  0  0
 30 27  1  0  0  0  0
M  RAD  2  11   2  12   2
M  END
