Coordinates from ORCA-job Ph-N2-X-OTs-B3LYPG-6-31G_dp-scan-d09-49-n400
 OpenBabel08281821363D

 31 32  0  0  0  0  0  0  0  0999 V2000
    0.8447    3.2929   -1.1884 C   0  0  0  0  0  0  0  0  0  0  0  0
    1.6622    2.2330   -1.5296 C   0  0  0  0  0  0  0  0  0  0  0  0
    1.2713    1.0569   -2.2127 C   0  0  0  0  0  0  0  0  0  0  0  0
   -0.1877    0.9689   -2.5884 C   0  0  0  0  0  0  0  0  0  0  0  0
   -0.9561    2.0925   -2.2093 C   0  0  0  0  0  0  0  0  0  0  0  0
   -0.4979    3.2162   -1.5411 C   0  0  0  0  0  0  0  0  0  0  0  0
    1.2462    4.1513   -0.6601 H   0  0  0  0  0  0  0  0  0  0  0  0
    2.7115    2.2723   -1.2573 H   0  0  0  0  0  0  0  0  0  0  0  0
   -1.9000    0.3964   -3.2525 H   0  0  0  0  0  0  0  0  0  0  0  0
   -2.0138    2.0717   -2.4691 H   0  0  0  0  0  0  0  0  0  0  0  0
    2.4072    0.1198   -2.4124 N   0  0  0  0  0  0  0  0  0  0  0  0
    3.5802    0.4501   -2.0126 N   0  0  0  0  0  0  0  0  0  0  0  0
    6.7841    0.7716   -3.0560 C   0  0  0  0  0  0  0  0  0  0  0  0
    7.6024    1.4021   -3.9895 C   0  0  0  0  0  0  0  0  0  0  0  0
    7.4558    1.1601   -5.3641 C   0  0  0  0  0  0  0  0  0  0  0  0
    6.4599    0.2668   -5.7861 C   0  0  0  0  0  0  0  0  0  0  0  0
    5.6287   -0.3715   -4.8688 C   0  0  0  0  0  0  0  0  0  0  0  0
    5.8010   -0.1120   -3.5077 C   0  0  0  0  0  0  0  0  0  0  0  0
    6.9080    0.9462   -1.9925 H   0  0  0  0  0  0  0  0  0  0  0  0
    8.3709    2.0902   -3.6468 H   0  0  0  0  0  0  0  0  0  0  0  0
    6.3361    0.0666   -6.8472 H   0  0  0  0  0  0  0  0  0  0  0  0
    4.8629   -1.0688   -5.1911 H   0  0  0  0  0  0  0  0  0  0  0  0
    4.7303   -0.9131   -2.3231 S   0  0  0  0  0  0  0  0  0  0  0  0
   -1.0152    0.0133   -3.2522 O   0  0  0  0  0  0  0  0  0  0  0  0
    5.4347   -1.0373   -1.0438 O   0  0  0  0  0  0  0  0  0  0  0  0
    4.0766   -2.0534   -2.9650 O   0  0  0  0  0  0  0  0  0  0  0  0
    8.3722    1.8222   -6.3645 C   0  0  0  0  0  0  0  0  0  0  0  0
    8.6775    2.8177   -6.0303 H   0  0  0  0  0  0  0  0  0  0  0  0
    9.2858    1.2321   -6.5061 H   0  0  0  0  0  0  0  0  0  0  0  0
    7.8931    1.9211   -7.3425 H   0  0  0  0  0  0  0  0  0  0  0  0
   -1.1933    4.0150   -1.3009 H   0  0  0  0  0  0  0  0  0  0  0  0
  1  7  1  0  0  0  0
  2  8  1  0  0  0  0
  2  1  2  0  0  0  0
  3  2  1  0  0  0  0
  4  3  2  0  0  0  0
  4  5  1  0  0  0  0
  5  6  2  0  0  0  0
  6 31  1  0  0  0  0
  6  1  1  0  0  0  0
  9 24  1  0  0  0  0
 10  5  1  0  0  0  0
 11  3  1  0  0  0  0
 11 12  1  0  0  0  0
 13 19  1  0  0  0  0
 14 20  1  0  0  0  0
 14 13  2  0  0  0  0
 15 14  1  0  0  0  0
 16 15  2  0  0  0  0
 16 17  1  0  0  0  0
 17 18  2  0  0  0  0
 18 13  1  0  0  0  0
 18 23  1  0  0  0  0
 21 16  1  0  0  0  0
 22 17  1  0  0  0  0
 23 12  1  0  0  0  0
 23 25  2  0  0  0  0
 24  4  1  0  0  0  0
 26 23  2  0  0  0  0
 27 28  1  0  0  0  0
 27 15  1  0  0  0  0
 29 27  1  0  0  0  0
 30 27  1  0  0  0  0
M  RAD  2  11   2  12   2
M  END
