Coordinates from ORCA-job Ph-N2-X-OTs-B3LYPG-6-31G_dp-scan-d09-49-n400
 OpenBabel08281821363D

 31 32  0  0  0  0  0  0  0  0999 V2000
   -1.0448    2.4390   -2.9376 C   0  0  0  0  0  0  0  0  0  0  0  0
    0.0006    1.6433   -3.3784 C   0  0  0  0  0  0  0  0  0  0  0  0
    1.1102    1.2986   -2.5728 C   0  0  0  0  0  0  0  0  0  0  0  0
    1.1375    1.8048   -1.2317 C   0  0  0  0  0  0  0  0  0  0  0  0
    0.0676    2.6078   -0.8039 C   0  0  0  0  0  0  0  0  0  0  0  0
   -1.0044    2.9248   -1.6298 C   0  0  0  0  0  0  0  0  0  0  0  0
   -1.8734    2.6755   -3.5963 H   0  0  0  0  0  0  0  0  0  0  0  0
    0.0132    1.2395   -4.3846 H   0  0  0  0  0  0  0  0  0  0  0  0
    1.9405    1.9766    0.4836 H   0  0  0  0  0  0  0  0  0  0  0  0
    0.0918    2.9916    0.2143 H   0  0  0  0  0  0  0  0  0  0  0  0
    1.9887    0.4779   -3.3344 N   0  0  0  0  0  0  0  0  0  0  0  0
    3.0604    0.0202   -2.9137 N   0  0  0  0  0  0  0  0  0  0  0  0
    6.3755   -0.3956   -3.3876 C   0  0  0  0  0  0  0  0  0  0  0  0
    7.5930    0.2695   -3.5100 C   0  0  0  0  0  0  0  0  0  0  0  0
    7.8461    1.1271   -4.5913 C   0  0  0  0  0  0  0  0  0  0  0  0
    6.8412    1.3084   -5.5530 C   0  0  0  0  0  0  0  0  0  0  0  0
    5.6149    0.6560   -5.4458 C   0  0  0  0  0  0  0  0  0  0  0  0
    5.3943   -0.1943   -4.3609 C   0  0  0  0  0  0  0  0  0  0  0  0
    6.1861   -1.0695   -2.5594 H   0  0  0  0  0  0  0  0  0  0  0  0
    8.3614    0.1174   -2.7562 H   0  0  0  0  0  0  0  0  0  0  0  0
    7.0227    1.9673   -6.3982 H   0  0  0  0  0  0  0  0  0  0  0  0
    4.8385    0.7889   -6.1918 H   0  0  0  0  0  0  0  0  0  0  0  0
    3.8207   -1.0271   -4.2039 S   0  0  0  0  0  0  0  0  0  0  0  0
    2.1428    1.5481   -0.3583 O   0  0  0  0  0  0  0  0  0  0  0  0
    4.0264   -2.3136   -3.5285 O   0  0  0  0  0  0  0  0  0  0  0  0
    3.0997   -0.9264   -5.4770 O   0  0  0  0  0  0  0  0  0  0  0  0
    9.1826    1.8151   -4.7335 C   0  0  0  0  0  0  0  0  0  0  0  0
    9.6399    2.0064   -3.7587 H   0  0  0  0  0  0  0  0  0  0  0  0
    9.8826    1.1939   -5.3065 H   0  0  0  0  0  0  0  0  0  0  0  0
    9.0886    2.7693   -5.2598 H   0  0  0  0  0  0  0  0  0  0  0  0
   -1.8053    3.5505   -1.2465 H   0  0  0  0  0  0  0  0  0  0  0  0
  1  6  1  0  0  0  0
  2  1  2  0  0  0  0
  2  3  1  0  0  0  0
  3  4  2  0  0  0  0
  4  5  1  0  0  0  0
  4 24  1  0  0  0  0
  5 10  1  0  0  0  0
  6 31  1  0  0  0  0
  6  5  2  0  0  0  0
  7  1  1  0  0  0  0
  8  2  1  0  0  0  0
 11 12  1  0  0  0  0
 11  3  1  0  0  0  0
 13 19  1  0  0  0  0
 14 13  1  0  0  0  0
 14 20  1  0  0  0  0
 15 14  2  0  0  0  0
 16 17  2  0  0  0  0
 16 15  1  0  0  0  0
 17 18  1  0  0  0  0
 18 23  1  0  0  0  0
 18 13  2  0  0  0  0
 21 16  1  0  0  0  0
 22 17  1  0  0  0  0
 23 25  2  0  0  0  0
 23 12  1  0  0  0  0
 24  9  1  0  0  0  0
 26 23  2  0  0  0  0
 27 15  1  0  0  0  0
 27 28  1  0  0  0  0
 29 27  1  0  0  0  0
 30 27  1  0  0  0  0
M  RAD  2  11   2  12   2
M  END
