Coordinates from ORCA-job Ph-N2-X-OTs-B3LYPG-6-31G_dp-scan-d09-49-n400
 OpenBabel08281821363D

 31 30  0  0  0  0  0  0  0  0999 V2000
   -0.2149    0.5309   -3.6070 C   0  0  0  0  0  0  0  0  0  0  0  0
    1.0713    0.4545   -3.0786 C   0  0  0  0  0  0  0  0  0  0  0  0
    1.4824    1.4846   -2.2310 C   0  0  0  0  0  0  0  0  0  0  0  0
    0.6717    2.5802   -1.8921 C   0  0  0  0  0  0  0  0  0  0  0  0
   -0.6115    2.6171   -2.4286 C   0  0  0  0  0  0  0  0  0  0  0  0
   -1.0546    1.6000   -3.2800 C   0  0  0  0  0  0  0  0  0  0  0  0
   -0.5601   -0.2532   -4.2730 H   0  0  0  0  0  0  0  0  0  0  0  0
    1.7299   -0.3704   -3.3267 H   0  0  0  0  0  0  0  0  0  0  0  0
    1.0962    3.3545   -1.2514 H   0  0  0  0  0  0  0  0  0  0  0  0
   -1.2648    3.4487   -2.1833 H   0  0  0  0  0  0  0  0  0  0  0  0
    2.7874    1.4886   -1.6626 N   0  0  0  0  0  0  0  0  0  0  0  0
    3.5295    2.1229   -1.0631 N   0  0  0  0  0  0  0  0  0  0  0  0
    5.6975   -0.3193   -4.8873 C   0  0  0  0  0  0  0  0  0  0  0  0
    6.7134    0.4711   -5.4252 C   0  0  0  0  0  0  0  0  0  0  0  0
    7.5129    1.2814   -4.6075 C   0  0  0  0  0  0  0  0  0  0  0  0
    7.2723    1.2820   -3.2230 C   0  0  0  0  0  0  0  0  0  0  0  0
    6.2644    0.5007   -2.6664 C   0  0  0  0  0  0  0  0  0  0  0  0
    5.4712   -0.2796   -3.5125 C   0  0  0  0  0  0  0  0  0  0  0  0
    5.0762   -0.9472   -5.5170 H   0  0  0  0  0  0  0  0  0  0  0  0
    6.8885    0.4561   -6.4980 H   0  0  0  0  0  0  0  0  0  0  0  0
    7.8813    1.9061   -2.5743 H   0  0  0  0  0  0  0  0  0  0  0  0
    6.0790    0.5127   -1.5975 H   0  0  0  0  0  0  0  0  0  0  0  0
    4.2087   -1.3705   -2.7977 S   0  0  0  0  0  0  0  0  0  0  0  0
    2.8630    4.1051   -0.5944 O   0  0  0  0  0  0  0  0  0  0  0  0
    3.3123   -1.7710   -3.9316 O   0  0  0  0  0  0  0  0  0  0  0  0
    3.5628   -0.5487   -1.6708 O   0  0  0  0  0  0  0  0  0  0  0  0
    8.5965    2.1514   -5.1957 C   0  0  0  0  0  0  0  0  0  0  0  0
    8.8566    1.8379   -6.2100 H   0  0  0  0  0  0  0  0  0  0  0  0
    8.2726    3.1983   -5.2460 H   0  0  0  0  0  0  0  0  0  0  0  0
    9.5054    2.1247   -4.5863 H   0  0  0  0  0  0  0  0  0  0  0  0
   -2.0578    1.6414   -3.6934 H   0  0  0  0  0  0  0  0  0  0  0  0
  1  6  2  0  0  0  0
  1  2  1  0  0  0  0
  2  3  2  0  0  0  0
  3  4  1  0  0  0  0
  3 11  1  0  0  0  0
  4  9  1  0  0  0  0
  5 10  1  0  0  0  0
  5  4  2  0  0  0  0
  6  5  1  0  0  0  0
  7  1  1  0  0  0  0
  8  2  1  0  0  0  0
 11 12  2  0  0  0  0
 13 18  1  0  0  0  0
 14 13  2  0  0  0  0
 14 15  1  0  0  0  0
 15 16  2  0  0  0  0
 16 17  1  0  0  0  0
 16 21  1  0  0  0  0
 17 22  1  0  0  0  0
 18 23  1  0  0  0  0
 18 17  2  0  0  0  0
 19 13  1  0  0  0  0
 20 14  1  0  0  0  0
 23 26  1  0  0  0  0
 25 23  1  0  0  0  0
 27 15  1  0  0  0  0
 27 30  1  0  0  0  0
 28 27  1  0  0  0  0
 29 27  1  0  0  0  0
 31  6  1  0  0  0  0
M  RAD  4  12   2  24   3  25   2  26   2
M  END
