Coordinates from ORCA-job Ph-N2-X-OTs-B3LYPG-6-31G_dp-scan-d09-49-n400
 OpenBabel08281821363D

 31 32  0  0  0  0  0  0  0  0999 V2000
   -0.5341    0.1534   -1.3476 C   0  0  0  0  0  0  0  0  0  0  0  0
    0.7754    0.5478   -1.6099 C   0  0  0  0  0  0  0  0  0  0  0  0
    1.0321    1.4423   -2.6576 C   0  0  0  0  0  0  0  0  0  0  0  0
   -0.0149    1.9389   -3.4458 C   0  0  0  0  0  0  0  0  0  0  0  0
   -1.3192    1.5331   -3.1661 C   0  0  0  0  0  0  0  0  0  0  0  0
   -1.5865    0.6465   -2.1214 C   0  0  0  0  0  0  0  0  0  0  0  0
   -0.7307   -0.5380   -0.5335 H   0  0  0  0  0  0  0  0  0  0  0  0
    1.6007    0.1719   -1.0180 H   0  0  0  0  0  0  0  0  0  0  0  0
    0.1913    2.6259   -4.2524 H   0  0  0  0  0  0  0  0  0  0  0  0
   -2.1314    1.9150   -3.7770 H   0  0  0  0  0  0  0  0  0  0  0  0
    2.3968    1.7992   -2.9025 N   0  0  0  0  0  0  0  0  0  0  0  0
    2.9071    2.9297   -3.4262 N   0  0  0  0  0  0  0  0  0  0  0  0
    5.9016    1.5350   -4.7773 C   0  0  0  0  0  0  0  0  0  0  0  0
    7.2355    1.9257   -4.7705 C   0  0  0  0  0  0  0  0  0  0  0  0
    8.2061    1.1937   -4.0643 C   0  0  0  0  0  0  0  0  0  0  0  0
    7.8051    0.0516   -3.3579 C   0  0  0  0  0  0  0  0  0  0  0  0
    6.4721   -0.3575   -3.3552 C   0  0  0  0  0  0  0  0  0  0  0  0
    5.5308    0.3924   -4.0628 C   0  0  0  0  0  0  0  0  0  0  0  0
    5.1458    2.0958   -5.3164 H   0  0  0  0  0  0  0  0  0  0  0  0
    7.5336    2.8170   -5.3165 H   0  0  0  0  0  0  0  0  0  0  0  0
    8.5439   -0.5249   -2.8082 H   0  0  0  0  0  0  0  0  0  0  0  0
    6.1733   -1.2486   -2.8089 H   0  0  0  0  0  0  0  0  0  0  0  0
    3.8290   -0.1543   -4.0533 S   0  0  2  0  0  0  0  0  0  0  0  0
    2.0474    3.8233   -3.7052 O   0  0  0  0  0  0  0  0  0  0  0  0
    3.1298    0.5134   -5.1861 O   0  0  0  0  0  0  0  0  0  0  0  0
    3.3484    0.9122   -2.5447 O   0  0  0  0  0  0  0  0  0  0  0  0
    9.6536    1.6192   -4.0918 C   0  0  0  0  0  0  0  0  0  0  0  0
   10.1307    1.3208   -5.0338 H   0  0  0  0  0  0  0  0  0  0  0  0
    9.7509    2.7065   -4.0113 H   0  0  0  0  0  0  0  0  0  0  0  0
   10.2223    1.1638   -3.2768 H   0  0  0  0  0  0  0  0  0  0  0  0
   -2.6071    0.3402   -1.9131 H   0  0  0  0  0  0  0  0  0  0  0  0
  1  7  1  0  0  0  0
  2  1  1  0  0  0  0
  2  8  1  0  0  0  0
  3  2  2  0  0  0  0
  4  5  2  0  0  0  0
  4  3  1  0  0  0  0
  5  6  1  0  0  0  0
  6 31  1  0  0  0  0
  6  1  2  0  0  0  0
  9  4  1  0  0  0  0
 10  5  1  0  0  0  0
 11  3  1  0  0  0  0
 11 26  1  0  0  0  0
 12 11  1  0  0  0  0
 13 14  2  0  0  0  0
 13 18  1  0  0  0  0
 14 15  1  0  0  0  0
 15 16  2  0  0  0  0
 16 17  1  0  0  0  0
 16 21  1  0  0  0  0
 17 22  1  0  0  0  0
 18 23  1  0  0  0  0
 18 17  2  0  0  0  0
 19 13  1  0  0  0  0
 20 14  1  0  0  0  0
 23 25  1  6  0  0  0
 23 26  1  0  0  0  0
 24 12  1  0  0  0  0
 27 15  1  0  0  0  0
 27 29  1  0  0  0  0
 27 30  1  0  0  0  0
 28 27  1  0  0  0  0
M  RAD  3  12   2  24   2  25   2
M  END
