Coordinates from ORCA-job Ph-N2-X-OTs-B3LYPG-6-31G_dp-scan-d09-49-n400
 OpenBabel08281821363D

 31 32  0  0  0  0  0  0  0  0999 V2000
   -1.0645    2.4339   -2.9165 C   0  0  0  0  0  0  0  0  0  0  0  0
   -0.0307    1.6386   -3.3857 C   0  0  0  0  0  0  0  0  0  0  0  0
    1.0968    1.2980   -2.6059 C   0  0  0  0  0  0  0  0  0  0  0  0
    1.1606    1.8047   -1.2689 C   0  0  0  0  0  0  0  0  0  0  0  0
    0.1038    2.6076   -0.8111 C   0  0  0  0  0  0  0  0  0  0  0  0
   -0.9896    2.9213   -1.6103 C   0  0  0  0  0  0  0  0  0  0  0  0
   -1.9109    2.6696   -3.5523 H   0  0  0  0  0  0  0  0  0  0  0  0
   -0.0435    1.2339   -4.3916 H   0  0  0  0  0  0  0  0  0  0  0  0
    2.0257    1.9698    0.4162 H   0  0  0  0  0  0  0  0  0  0  0  0
    0.1549    2.9928    0.2055 H   0  0  0  0  0  0  0  0  0  0  0  0
    1.9684    0.4767   -3.3702 N   0  0  0  0  0  0  0  0  0  0  0  0
    3.0398    0.0284   -2.9373 N   0  0  0  0  0  0  0  0  0  0  0  0
    6.3601   -0.3849   -3.3737 C   0  0  0  0  0  0  0  0  0  0  0  0
    7.5774    0.2817   -3.4896 C   0  0  0  0  0  0  0  0  0  0  0  0
    7.8395    1.1308   -4.5755 C   0  0  0  0  0  0  0  0  0  0  0  0
    6.8436    1.3020   -5.5484 C   0  0  0  0  0  0  0  0  0  0  0  0
    5.6177    0.6479   -5.4479 C   0  0  0  0  0  0  0  0  0  0  0  0
    5.3881   -0.1937   -4.3581 C   0  0  0  0  0  0  0  0  0  0  0  0
    6.1639   -1.0523   -2.5418 H   0  0  0  0  0  0  0  0  0  0  0  0
    8.3388    0.1374   -2.7271 H   0  0  0  0  0  0  0  0  0  0  0  0
    7.0321    1.9542   -6.3973 H   0  0  0  0  0  0  0  0  0  0  0  0
    4.8484    0.7729   -6.2026 H   0  0  0  0  0  0  0  0  0  0  0  0
    3.8147   -1.0285   -4.2094 S   0  0  0  0  0  0  0  0  0  0  0  0
    2.1956    1.5434   -0.4340 O   0  0  0  0  0  0  0  0  0  0  0  0
    4.0166   -2.3082   -3.5200 O   0  0  0  0  0  0  0  0  0  0  0  0
    3.1069   -0.9416   -5.4908 O   0  0  0  0  0  0  0  0  0  0  0  0
    9.1758    1.8205   -4.7103 C   0  0  0  0  0  0  0  0  0  0  0  0
    9.6256    2.0163   -3.7329 H   0  0  0  0  0  0  0  0  0  0  0  0
    9.8811    1.1985   -5.2759 H   0  0  0  0  0  0  0  0  0  0  0  0
    9.0841    2.7726   -5.2409 H   0  0  0  0  0  0  0  0  0  0  0  0
   -1.7813    3.5466   -1.2078 H   0  0  0  0  0  0  0  0  0  0  0  0
  1  6  1  0  0  0  0
  2  1  2  0  0  0  0
  2  3  1  0  0  0  0
  3  4  2  0  0  0  0
  4  5  1  0  0  0  0
  4 24  1  0  0  0  0
  5 10  1  0  0  0  0
  6 31  1  0  0  0  0
  6  5  2  0  0  0  0
  7  1  1  0  0  0  0
  8  2  1  0  0  0  0
 11 12  1  0  0  0  0
 11  3  1  0  0  0  0
 13 19  1  0  0  0  0
 14 13  1  0  0  0  0
 14 20  1  0  0  0  0
 15 14  2  0  0  0  0
 16 17  2  0  0  0  0
 16 15  1  0  0  0  0
 17 18  1  0  0  0  0
 18 23  1  0  0  0  0
 18 13  2  0  0  0  0
 21 16  1  0  0  0  0
 22 17  1  0  0  0  0
 23 25  2  0  0  0  0
 23 12  1  0  0  0  0
 24  9  1  0  0  0  0
 26 23  2  0  0  0  0
 27 15  1  0  0  0  0
 27 28  1  0  0  0  0
 29 27  1  0  0  0  0
 30 27  1  0  0  0  0
M  RAD  2  11   2  12   2
M  END
