Coordinates from ORCA-job Ph-N2-X-OTs-B3LYPG-6-31G_dp-scan-d09-49-n400
 OpenBabel08281821363D

 31 31  0  0  0  0  0  0  0  0999 V2000
   -0.4842    1.3063   -3.6028 C   0  0  0  0  0  0  0  0  0  0  0  0
    0.7225    0.8883   -3.0554 C   0  0  0  0  0  0  0  0  0  0  0  0
    1.0917    1.3608   -1.7912 C   0  0  0  0  0  0  0  0  0  0  0  0
    0.2893    2.2653   -1.0639 C   0  0  0  0  0  0  0  0  0  0  0  0
   -0.9091    2.6866   -1.6495 C   0  0  0  0  0  0  0  0  0  0  0  0
   -1.2898    2.2088   -2.9013 C   0  0  0  0  0  0  0  0  0  0  0  0
   -0.7884    0.9380   -4.5755 H   0  0  0  0  0  0  0  0  0  0  0  0
    1.3922    0.2074   -3.5663 H   0  0  0  0  0  0  0  0  0  0  0  0
    0.0766    3.3152    0.5173 H   0  0  0  0  0  0  0  0  0  0  0  0
   -1.5413    3.3890   -1.1119 H   0  0  0  0  0  0  0  0  0  0  0  0
    2.2936    0.8865   -1.2052 N   0  0  0  0  0  0  0  0  0  0  0  0
    2.7958    0.5438   -0.2430 N   0  0  0  0  0  0  0  0  0  0  0  0
    6.1781   -0.6038   -4.7949 C   0  0  0  0  0  0  0  0  0  0  0  0
    7.3333   -0.2244   -5.4813 C   0  0  0  0  0  0  0  0  0  0  0  0
    8.0657    0.9056   -5.0979 C   0  0  0  0  0  0  0  0  0  0  0  0
    7.6104    1.6542   -4.0008 C   0  0  0  0  0  0  0  0  0  0  0  0
    6.4567    1.2904   -3.3107 C   0  0  0  0  0  0  0  0  0  0  0  0
    5.7447    0.1610   -3.7165 C   0  0  0  0  0  0  0  0  0  0  0  0
    5.6035   -1.4788   -5.0830 H   0  0  0  0  0  0  0  0  0  0  0  0
    7.6723   -0.8181   -6.3272 H   0  0  0  0  0  0  0  0  0  0  0  0
    8.1653    2.5361   -3.6884 H   0  0  0  0  0  0  0  0  0  0  0  0
    6.1025    1.8842   -2.4734 H   0  0  0  0  0  0  0  0  0  0  0  0
    4.2797   -0.4002   -2.7828 S   0  0  0  0  0  0  0  0  0  0  0  0
    0.7138    2.6896    0.1478 O   0  0  0  0  0  0  0  0  0  0  0  0
    3.6358   -1.4672   -3.6301 O   0  0  0  0  0  0  0  0  0  0  0  0
    3.4751    0.9657   -2.8545 O   0  0  0  0  0  0  0  0  0  0  0  0
    9.3019    1.3265   -5.8574 C   0  0  0  0  0  0  0  0  0  0  0  0
    9.7301    0.4907   -6.4186 H   0  0  0  0  0  0  0  0  0  0  0  0
    9.0735    2.1222   -6.5777 H   0  0  0  0  0  0  0  0  0  0  0  0
   10.0744    1.7125   -5.1843 H   0  0  0  0  0  0  0  0  0  0  0  0
   -2.2265    2.5487   -3.3316 H   0  0  0  0  0  0  0  0  0  0  0  0
  1  2  2  0  0  0  0
  1  6  1  0  0  0  0
  2  3  1  0  0  0  0
  3 11  1  0  0  0  0
  3  4  2  0  0  0  0
  4 24  1  0  0  0  0
  5 10  1  0  0  0  0
  5  4  1  0  0  0  0
  6  5  2  0  0  0  0
  7  1  1  0  0  0  0
  8  2  1  0  0  0  0
 11 12  2  0  0  0  0
 13 18  2  0  0  0  0
 14 15  2  0  0  0  0
 14 13  1  0  0  0  0
 15 16  1  0  0  0  0
 16 21  1  0  0  0  0
 16 17  2  0  0  0  0
 17 22  1  0  0  0  0
 18 17  1  0  0  0  0
 18 23  1  0  0  0  0
 19 13  1  0  0  0  0
 20 14  1  0  0  0  0
 24  9  1  0  0  0  0
 25 23  1  0  0  0  0
 26 23  1  0  0  0  0
 27 30  1  0  0  0  0
 27 15  1  0  0  0  0
 28 27  1  0  0  0  0
 29 27  1  0  0  0  0
 31  6  1  0  0  0  0
M  RAD  3  12   2  25   2  26   2
M  END
