Coordinates from ORCA-job Ph-N2-X-OTs-B3LYPG-6-31G_dp-scan-d09-49-n400
 OpenBabel08281821363D

 31 32  0  0  0  0  0  0  0  0999 V2000
    0.8448    3.2958   -1.1913 C   0  0  0  0  0  0  0  0  0  0  0  0
    1.6632    2.2363   -1.5316 C   0  0  0  0  0  0  0  0  0  0  0  0
    1.2713    1.0587   -2.2118 C   0  0  0  0  0  0  0  0  0  0  0  0
   -0.1864    0.9686   -2.5842 C   0  0  0  0  0  0  0  0  0  0  0  0
   -0.9567    2.0914   -2.2066 C   0  0  0  0  0  0  0  0  0  0  0  0
   -0.4985    3.2169   -1.5415 C   0  0  0  0  0  0  0  0  0  0  0  0
    1.2461    4.1559   -0.6655 H   0  0  0  0  0  0  0  0  0  0  0  0
    2.7130    2.2770   -1.2614 H   0  0  0  0  0  0  0  0  0  0  0  0
   -1.8961    0.3885   -3.2468 H   0  0  0  0  0  0  0  0  0  0  0  0
   -2.0148    2.0680   -2.4647 H   0  0  0  0  0  0  0  0  0  0  0  0
    2.4042    0.1206   -2.4132 N   0  0  0  0  0  0  0  0  0  0  0  0
    3.5777    0.4503   -2.0153 N   0  0  0  0  0  0  0  0  0  0  0  0
    6.7829    0.7703   -3.0562 C   0  0  0  0  0  0  0  0  0  0  0  0
    7.6024    1.4009   -3.9886 C   0  0  0  0  0  0  0  0  0  0  0  0
    7.4567    1.1601   -5.3635 C   0  0  0  0  0  0  0  0  0  0  0  0
    6.4604    0.2678   -5.7870 C   0  0  0  0  0  0  0  0  0  0  0  0
    5.6281   -0.3706   -4.8707 C   0  0  0  0  0  0  0  0  0  0  0  0
    5.7994   -0.1122   -3.5094 C   0  0  0  0  0  0  0  0  0  0  0  0
    6.9060    0.9441   -1.9925 H   0  0  0  0  0  0  0  0  0  0  0  0
    8.3710    2.0882   -3.6448 H   0  0  0  0  0  0  0  0  0  0  0  0
    6.3373    0.0685   -6.8483 H   0  0  0  0  0  0  0  0  0  0  0  0
    4.8620   -1.0670   -5.1942 H   0  0  0  0  0  0  0  0  0  0  0  0
    4.7272   -0.9133   -2.3261 S   0  0  0  0  0  0  0  0  0  0  0  0
   -1.0097    0.0092   -3.2444 O   0  0  0  0  0  0  0  0  0  0  0  0
    5.4307   -1.0394   -1.0465 O   0  0  0  0  0  0  0  0  0  0  0  0
    4.0731   -2.0527   -2.9695 O   0  0  0  0  0  0  0  0  0  0  0  0
    8.3743    1.8223   -6.3626 C   0  0  0  0  0  0  0  0  0  0  0  0
    8.6796    2.8175   -6.0278 H   0  0  0  0  0  0  0  0  0  0  0  0
    9.2879    1.2319   -6.5035 H   0  0  0  0  0  0  0  0  0  0  0  0
    7.8963    1.9217   -7.3411 H   0  0  0  0  0  0  0  0  0  0  0  0
   -1.1942    4.0155   -1.3016 H   0  0  0  0  0  0  0  0  0  0  0  0
  1  7  1  0  0  0  0
  2  8  1  0  0  0  0
  2  1  2  0  0  0  0
  3  2  1  0  0  0  0
  4  3  2  0  0  0  0
  4  5  1  0  0  0  0
  5  6  2  0  0  0  0
  6 31  1  0  0  0  0
  6  1  1  0  0  0  0
  9 24  1  0  0  0  0
 10  5  1  0  0  0  0
 11  3  1  0  0  0  0
 11 12  1  0  0  0  0
 13 19  1  0  0  0  0
 14 20  1  0  0  0  0
 14 13  2  0  0  0  0
 15 14  1  0  0  0  0
 16 15  2  0  0  0  0
 16 17  1  0  0  0  0
 17 18  2  0  0  0  0
 18 13  1  0  0  0  0
 18 23  1  0  0  0  0
 21 16  1  0  0  0  0
 22 17  1  0  0  0  0
 23 12  1  0  0  0  0
 23 25  2  0  0  0  0
 24  4  1  0  0  0  0
 26 23  2  0  0  0  0
 27 28  1  0  0  0  0
 27 15  1  0  0  0  0
 29 27  1  0  0  0  0
 30 27  1  0  0  0  0
M  RAD  2  11   2  12   2
M  END
