Coordinates from ORCA-job Ph-N2-X-OTs-B3LYPG-6-31G_dp-scan-d09-49-n400
 OpenBabel08281821363D

 31 30  0  0  0  0  0  0  0  0999 V2000
    0.1175    0.6141   -3.7678 C   0  0  0  0  0  0  0  0  0  0  0  0
    1.2681    0.4353   -3.0049 C   0  0  0  0  0  0  0  0  0  0  0  0
    1.5811    1.4362   -2.0819 C   0  0  0  0  0  0  0  0  0  0  0  0
    0.8121    2.5974   -1.8866 C   0  0  0  0  0  0  0  0  0  0  0  0
   -0.3312    2.7347   -2.6662 C   0  0  0  0  0  0  0  0  0  0  0  0
   -0.6789    1.7514   -3.5990 C   0  0  0  0  0  0  0  0  0  0  0  0
   -0.1540   -0.1436   -4.4952 H   0  0  0  0  0  0  0  0  0  0  0  0
    1.8939   -0.4422   -3.1289 H   0  0  0  0  0  0  0  0  0  0  0  0
    1.1341    3.3485   -1.1518 H   0  0  0  0  0  0  0  0  0  0  0  0
   -0.9510    3.6173   -2.5431 H   0  0  0  0  0  0  0  0  0  0  0  0
    2.7288    1.3511   -1.2556 N   0  0  0  0  0  0  0  0  0  0  0  0
    3.3919    1.7937   -0.4571 N   0  0  0  0  0  0  0  0  0  0  0  0
    5.6023   -0.4116   -4.8583 C   0  0  0  0  0  0  0  0  0  0  0  0
    6.5392    0.4335   -5.4537 C   0  0  0  0  0  0  0  0  0  0  0  0
    7.3274    1.3014   -4.6846 C   0  0  0  0  0  0  0  0  0  0  0  0
    7.1563    1.3025   -3.2907 C   0  0  0  0  0  0  0  0  0  0  0  0
    6.2251    0.4668   -2.6790 C   0  0  0  0  0  0  0  0  0  0  0  0
    5.4409   -0.3727   -3.4741 C   0  0  0  0  0  0  0  0  0  0  0  0
    4.9893   -1.0828   -5.4506 H   0  0  0  0  0  0  0  0  0  0  0  0
    6.6614    0.4176   -6.5342 H   0  0  0  0  0  0  0  0  0  0  0  0
    7.7608    1.9667   -2.6781 H   0  0  0  0  0  0  0  0  0  0  0  0
    6.0966    0.4732   -1.6012 H   0  0  0  0  0  0  0  0  0  0  0  0
    4.2831   -1.5341   -2.6766 S   0  0  0  0  0  0  0  0  0  0  0  0
    2.2627    4.3767    0.0535 O   0  0  0  0  0  0  0  0  0  0  0  0
    3.3295   -1.9546   -3.7638 O   0  0  0  0  0  0  0  0  0  0  0  0
    3.6615   -0.7308   -1.5295 O   0  0  0  0  0  0  0  0  0  0  0  0
    8.3233    2.2302   -5.3363 C   0  0  0  0  0  0  0  0  0  0  0  0
    8.6099    1.8773   -6.3303 H   0  0  0  0  0  0  0  0  0  0  0  0
    7.9021    3.2364   -5.4537 H   0  0  0  0  0  0  0  0  0  0  0  0
    9.2317    2.3292   -4.7342 H   0  0  0  0  0  0  0  0  0  0  0  0
   -1.5761    1.8722   -4.1988 H   0  0  0  0  0  0  0  0  0  0  0  0
  1  6  2  0  0  0  0
  1  2  1  0  0  0  0
  2  3  2  0  0  0  0
  3  4  1  0  0  0  0
  3 11  1  0  0  0  0
  4  9  1  0  0  0  0
  5 10  1  0  0  0  0
  5  4  2  0  0  0  0
  6  5  1  0  0  0  0
  7  1  1  0  0  0  0
  8  2  1  0  0  0  0
 11 12  2  0  0  0  0
 13 18  1  0  0  0  0
 14 13  2  0  0  0  0
 14 15  1  0  0  0  0
 15 16  2  0  0  0  0
 16 17  1  0  0  0  0
 16 21  1  0  0  0  0
 17 22  1  0  0  0  0
 18 17  2  0  0  0  0
 18 23  1  0  0  0  0
 19 13  1  0  0  0  0
 20 14  1  0  0  0  0
 23 26  1  0  0  0  0
 25 23  1  0  0  0  0
 27 30  1  0  0  0  0
 27 15  1  0  0  0  0
 28 27  1  0  0  0  0
 29 27  1  0  0  0  0
 31  6  1  0  0  0  0
M  RAD  4  12   2  24   3  25   2  26   2
M  END
