Coordinates from ORCA-job Ph-N2-X-OTs-B3LYPG-6-31G_dp-scan-d09-49-n400
 OpenBabel08281821363D

 31 30  0  0  0  0  0  0  0  0999 V2000
   -0.1924    0.5363   -3.6177 C   0  0  0  0  0  0  0  0  0  0  0  0
    1.0873    0.4581   -3.0741 C   0  0  0  0  0  0  0  0  0  0  0  0
    1.4866    1.4869   -2.2194 C   0  0  0  0  0  0  0  0  0  0  0  0
    0.6735    2.5829   -1.8875 C   0  0  0  0  0  0  0  0  0  0  0  0
   -0.6026    2.6210   -2.4401 C   0  0  0  0  0  0  0  0  0  0  0  0
   -1.0354    1.6053   -3.2988 C   0  0  0  0  0  0  0  0  0  0  0  0
   -0.5295   -0.2462   -4.2896 H   0  0  0  0  0  0  0  0  0  0  0  0
    1.7494   -0.3660   -3.3156 H   0  0  0  0  0  0  0  0  0  0  0  0
    1.0882    3.3565   -1.2376 H   0  0  0  0  0  0  0  0  0  0  0  0
   -1.2588    3.4523   -2.2012 H   0  0  0  0  0  0  0  0  0  0  0  0
    2.7837    1.4931   -1.6339 N   0  0  0  0  0  0  0  0  0  0  0  0
    3.5256    2.1102   -1.0236 N   0  0  0  0  0  0  0  0  0  0  0  0
    5.6951   -0.3282   -4.8901 C   0  0  0  0  0  0  0  0  0  0  0  0
    6.7073    0.4653   -5.4307 C   0  0  0  0  0  0  0  0  0  0  0  0
    7.5063    1.2783   -4.6153 C   0  0  0  0  0  0  0  0  0  0  0  0
    7.2691    1.2784   -3.2303 C   0  0  0  0  0  0  0  0  0  0  0  0
    6.2647    0.4939   -2.6713 C   0  0  0  0  0  0  0  0  0  0  0  0
    5.4717   -0.2893   -3.5148 C   0  0  0  0  0  0  0  0  0  0  0  0
    5.0741   -0.9580   -5.5181 H   0  0  0  0  0  0  0  0  0  0  0  0
    6.8798    0.4507   -6.5040 H   0  0  0  0  0  0  0  0  0  0  0  0
    7.8783    1.9040   -2.5832 H   0  0  0  0  0  0  0  0  0  0  0  0
    6.0827    0.5043   -1.6018 H   0  0  0  0  0  0  0  0  0  0  0  0
    4.2139   -1.3846   -2.7949 S   0  0  0  0  0  0  0  0  0  0  0  0
    2.7870    4.1664   -0.5145 O   0  0  0  0  0  0  0  0  0  0  0  0
    3.3120   -1.7806   -3.9274 O   0  0  0  0  0  0  0  0  0  0  0  0
    3.5711   -0.5642   -1.6672 O   0  0  0  0  0  0  0  0  0  0  0  0
    8.5857    2.1517   -5.2067 C   0  0  0  0  0  0  0  0  0  0  0  0
    8.8492    1.8341   -6.2188 H   0  0  0  0  0  0  0  0  0  0  0  0
    8.2556    3.1964   -5.2635 H   0  0  0  0  0  0  0  0  0  0  0  0
    9.4938    2.1339   -4.5958 H   0  0  0  0  0  0  0  0  0  0  0  0
   -2.0335    1.6481   -3.7243 H   0  0  0  0  0  0  0  0  0  0  0  0
  1  6  2  0  0  0  0
  1  2  1  0  0  0  0
  2  3  2  0  0  0  0
  3  4  1  0  0  0  0
  3 11  1  0  0  0  0
  4  9  1  0  0  0  0
  5 10  1  0  0  0  0
  5  4  2  0  0  0  0
  6  5  1  0  0  0  0
  7  1  1  0  0  0  0
  8  2  1  0  0  0  0
 11 12  2  0  0  0  0
 13 18  1  0  0  0  0
 14 13  2  0  0  0  0
 14 15  1  0  0  0  0
 15 16  2  0  0  0  0
 16 17  1  0  0  0  0
 16 21  1  0  0  0  0
 17 22  1  0  0  0  0
 18 23  1  0  0  0  0
 18 17  2  0  0  0  0
 19 13  1  0  0  0  0
 20 14  1  0  0  0  0
 23 26  1  0  0  0  0
 25 23  1  0  0  0  0
 27 15  1  0  0  0  0
 27 30  1  0  0  0  0
 28 27  1  0  0  0  0
 29 27  1  0  0  0  0
 31  6  1  0  0  0  0
M  RAD  4  12   2  24   3  25   2  26   2
M  END
