Coordinates from ORCA-job Ph-N2-X-OTs-B3LYPG-6-31G_dp-scan-d09-49-n400
 OpenBabel08281821363D

 31 30  0  0  0  0  0  0  0  0999 V2000
   -0.1882    0.5373   -3.6194 C   0  0  0  0  0  0  0  0  0  0  0  0
    1.0904    0.4583   -3.0732 C   0  0  0  0  0  0  0  0  0  0  0  0
    1.4880    1.4869   -2.2175 C   0  0  0  0  0  0  0  0  0  0  0  0
    0.6750    2.5835   -1.8871 C   0  0  0  0  0  0  0  0  0  0  0  0
   -0.5998    2.6223   -2.4426 C   0  0  0  0  0  0  0  0  0  0  0  0
   -1.0313    1.6068   -3.3022 C   0  0  0  0  0  0  0  0  0  0  0  0
   -0.5243   -0.2450   -4.2921 H   0  0  0  0  0  0  0  0  0  0  0  0
    1.7527   -0.3660   -3.3134 H   0  0  0  0  0  0  0  0  0  0  0  0
    1.0883    3.3571   -1.2359 H   0  0  0  0  0  0  0  0  0  0  0  0
   -1.2561    3.4538   -2.2051 H   0  0  0  0  0  0  0  0  0  0  0  0
    2.7836    1.4932   -1.6290 N   0  0  0  0  0  0  0  0  0  0  0  0
    3.5258    2.1069   -1.0168 N   0  0  0  0  0  0  0  0  0  0  0  0
    5.6948   -0.3303   -4.8906 C   0  0  0  0  0  0  0  0  0  0  0  0
    6.7060    0.4641   -5.4316 C   0  0  0  0  0  0  0  0  0  0  0  0
    7.5045    1.2780   -4.6166 C   0  0  0  0  0  0  0  0  0  0  0  0
    7.2676    1.2781   -3.2315 C   0  0  0  0  0  0  0  0  0  0  0  0
    6.2641    0.4927   -2.6722 C   0  0  0  0  0  0  0  0  0  0  0  0
    5.4716   -0.2915   -3.5152 C   0  0  0  0  0  0  0  0  0  0  0  0
    5.0742   -0.9608   -5.5184 H   0  0  0  0  0  0  0  0  0  0  0  0
    6.8783    0.4494   -6.5049 H   0  0  0  0  0  0  0  0  0  0  0  0
    7.8764    1.9043   -2.5846 H   0  0  0  0  0  0  0  0  0  0  0  0
    6.0824    0.5028   -1.6026 H   0  0  0  0  0  0  0  0  0  0  0  0
    4.2148   -1.3879   -2.7946 S   0  0  0  0  0  0  0  0  0  0  0  0
    2.7730    4.1779   -0.4998 O   0  0  0  0  0  0  0  0  0  0  0  0
    3.3118   -1.7828   -3.9268 O   0  0  0  0  0  0  0  0  0  0  0  0
    3.5725   -0.5677   -1.6666 O   0  0  0  0  0  0  0  0  0  0  0  0
    8.5828    2.1524   -5.2083 C   0  0  0  0  0  0  0  0  0  0  0  0
    8.8473    1.8340   -6.2199 H   0  0  0  0  0  0  0  0  0  0  0  0
    8.2511    3.1965   -5.2667 H   0  0  0  0  0  0  0  0  0  0  0  0
    9.4906    2.1368   -4.5969 H   0  0  0  0  0  0  0  0  0  0  0  0
   -2.0285    1.6500   -3.7298 H   0  0  0  0  0  0  0  0  0  0  0  0
  1  6  2  0  0  0  0
  1  2  1  0  0  0  0
  2  3  2  0  0  0  0
  3  4  1  0  0  0  0
  3 11  1  0  0  0  0
  4  9  1  0  0  0  0
  5 10  1  0  0  0  0
  5  4  2  0  0  0  0
  6  5  1  0  0  0  0
  7  1  1  0  0  0  0
  8  2  1  0  0  0  0
 11 12  2  0  0  0  0
 13 18  1  0  0  0  0
 14 13  2  0  0  0  0
 14 15  1  0  0  0  0
 15 16  2  0  0  0  0
 16 17  1  0  0  0  0
 16 21  1  0  0  0  0
 17 22  1  0  0  0  0
 18 23  1  0  0  0  0
 18 17  2  0  0  0  0
 19 13  1  0  0  0  0
 20 14  1  0  0  0  0
 23 26  1  0  0  0  0
 25 23  1  0  0  0  0
 27 15  1  0  0  0  0
 27 30  1  0  0  0  0
 28 27  1  0  0  0  0
 29 27  1  0  0  0  0
 31  6  1  0  0  0  0
M  RAD  4  12   2  24   3  25   2  26   2
M  END
