Coordinates from ORCA-job Ph-N2-X-OTs-B3LYPG-6-31G_dp-scan-d09-49-n400
 OpenBabel08281821363D

 31 32  0  0  0  0  0  0  0  0999 V2000
   -0.5599    0.1365   -1.3946 C   0  0  0  0  0  0  0  0  0  0  0  0
    0.7604    0.5127   -1.6276 C   0  0  0  0  0  0  0  0  0  0  0  0
    1.0471    1.4355   -2.6424 C   0  0  0  0  0  0  0  0  0  0  0  0
    0.0214    1.9790   -3.4271 C   0  0  0  0  0  0  0  0  0  0  0  0
   -1.2936    1.5876   -3.1787 C   0  0  0  0  0  0  0  0  0  0  0  0
   -1.5918    0.6735   -2.1667 C   0  0  0  0  0  0  0  0  0  0  0  0
   -0.7806   -0.5761   -0.6052 H   0  0  0  0  0  0  0  0  0  0  0  0
    1.5698    0.1020   -1.0374 H   0  0  0  0  0  0  0  0  0  0  0  0
    0.2545    2.6916   -4.2032 H   0  0  0  0  0  0  0  0  0  0  0  0
   -2.0901    2.0046   -3.7872 H   0  0  0  0  0  0  0  0  0  0  0  0
    2.4243    1.7695   -2.8589 N   0  0  0  0  0  0  0  0  0  0  0  0
    2.9694    2.8773   -3.3534 N   0  0  0  0  0  0  0  0  0  0  0  0
    5.8778    1.4940   -4.7887 C   0  0  0  0  0  0  0  0  0  0  0  0
    7.2054    1.9055   -4.8012 C   0  0  0  0  0  0  0  0  0  0  0  0
    8.1910    1.2096   -4.0795 C   0  0  0  0  0  0  0  0  0  0  0  0
    7.8118    0.0825   -3.3376 C   0  0  0  0  0  0  0  0  0  0  0  0
    6.4857   -0.3470   -3.3149 C   0  0  0  0  0  0  0  0  0  0  0  0
    5.5290    0.3673   -4.0388 C   0  0  0  0  0  0  0  0  0  0  0  0
    5.1106    2.0266   -5.3401 H   0  0  0  0  0  0  0  0  0  0  0  0
    7.4862    2.7849   -5.3748 H   0  0  0  0  0  0  0  0  0  0  0  0
    8.5626   -0.4659   -2.7755 H   0  0  0  0  0  0  0  0  0  0  0  0
    6.2039   -1.2259   -2.7403 H   0  0  0  0  0  0  0  0  0  0  0  0
    3.8369   -0.2067   -4.0050 S   0  0  2  0  0  0  0  0  0  0  0  0
    2.1008    3.8295   -3.6432 O   0  0  0  0  0  0  0  0  0  0  0  0
    3.1186    0.4371   -5.1388 O   0  0  0  0  0  0  0  0  0  0  0  0
    3.3464    0.8483   -2.4963 O   0  0  0  0  0  0  0  0  0  0  0  0
    9.6313    1.6568   -4.1275 C   0  0  0  0  0  0  0  0  0  0  0  0
   10.1059    1.3450   -5.0664 H   0  0  0  0  0  0  0  0  0  0  0  0
    9.7121    2.7471   -4.0720 H   0  0  0  0  0  0  0  0  0  0  0  0
   10.2132    1.2285   -3.3072 H   0  0  0  0  0  0  0  0  0  0  0  0
   -2.6208    0.3804   -1.9817 H   0  0  0  0  0  0  0  0  0  0  0  0
  1  7  1  0  0  0  0
  2  1  1  0  0  0  0
  2  8  1  0  0  0  0
  3  2  2  0  0  0  0
  4  5  2  0  0  0  0
  4  3  1  0  0  0  0
  5  6  1  0  0  0  0
  6 31  1  0  0  0  0
  6  1  2  0  0  0  0
  9  4  1  0  0  0  0
 10  5  1  0  0  0  0
 11  3  1  0  0  0  0
 11 26  1  0  0  0  0
 12 11  1  0  0  0  0
 13 18  1  0  0  0  0
 14 13  2  0  0  0  0
 14 15  1  0  0  0  0
 15 16  2  0  0  0  0
 16 17  1  0  0  0  0
 16 21  1  0  0  0  0
 17 22  1  0  0  0  0
 18 23  1  0  0  0  0
 18 17  2  0  0  0  0
 19 13  1  0  0  0  0
 20 14  1  0  0  0  0
 23 25  1  6  0  0  0
 23 26  1  0  0  0  0
 24 12  1  0  0  0  0
 27 15  1  0  0  0  0
 27 29  1  0  0  0  0
 27 30  1  0  0  0  0
 28 27  1  0  0  0  0
M  RAD  3  12   2  24   2  25   2
M  END
