Coordinates from ORCA-job Ph-N2-X-OTs-B3LYPG-6-31G_dp-scan-d09-49-n400
 OpenBabel08281821363D

 31 32  0  0  0  0  0  0  0  0999 V2000
    0.7883    3.3904   -1.1657 C   0  0  0  0  0  0  0  0  0  0  0  0
    1.7027    2.3947   -1.4580 C   0  0  0  0  0  0  0  0  0  0  0  0
    1.3448    1.2045   -2.1280 C   0  0  0  0  0  0  0  0  0  0  0  0
   -0.0253    1.0263   -2.5124 C   0  0  0  0  0  0  0  0  0  0  0  0
   -0.9343    2.0560   -2.2043 C   0  0  0  0  0  0  0  0  0  0  0  0
   -0.5470    3.2142   -1.5467 C   0  0  0  0  0  0  0  0  0  0  0  0
    1.1023    4.2901   -0.6469 H   0  0  0  0  0  0  0  0  0  0  0  0
    2.7431    2.4966   -1.1701 H   0  0  0  0  0  0  0  0  0  0  0  0
   -1.4493    0.0378   -3.3011 H   0  0  0  0  0  0  0  0  0  0  0  0
   -1.9747    1.9273   -2.4963 H   0  0  0  0  0  0  0  0  0  0  0  0
    2.3333    0.2103   -2.3955 N   0  0  0  0  0  0  0  0  0  0  0  0
    3.5088    0.4854   -2.0500 N   0  0  0  0  0  0  0  0  0  0  0  0
    6.7326    0.7150   -3.0691 C   0  0  0  0  0  0  0  0  0  0  0  0
    7.5814    1.3377   -3.9802 C   0  0  0  0  0  0  0  0  0  0  0  0
    7.4356    1.1378   -5.3618 C   0  0  0  0  0  0  0  0  0  0  0  0
    6.4091    0.2954   -5.8133 C   0  0  0  0  0  0  0  0  0  0  0  0
    5.5472   -0.3341   -4.9179 C   0  0  0  0  0  0  0  0  0  0  0  0
    5.7189   -0.1175   -3.5496 C   0  0  0  0  0  0  0  0  0  0  0  0
    6.8557    0.8561   -2.0005 H   0  0  0  0  0  0  0  0  0  0  0  0
    8.3736    1.9859   -3.6145 H   0  0  0  0  0  0  0  0  0  0  0  0
    6.2857    0.1276   -6.8801 H   0  0  0  0  0  0  0  0  0  0  0  0
    4.7576   -0.9928   -5.2632 H   0  0  0  0  0  0  0  0  0  0  0  0
    4.6100   -0.9082   -2.3920 S   0  0  0  0  0  0  0  0  0  0  0  0
   -0.5006   -0.0763   -3.1608 O   0  0  0  0  0  0  0  0  0  0  0  0
    5.3087   -1.1024   -1.1172 O   0  0  0  0  0  0  0  0  0  0  0  0
    3.9151   -2.0035   -3.0712 O   0  0  0  0  0  0  0  0  0  0  0  0
    8.3846    1.7904   -6.3380 C   0  0  0  0  0  0  0  0  0  0  0  0
    8.7017    2.7772   -5.9891 H   0  0  0  0  0  0  0  0  0  0  0  0
    9.2899    1.1845   -6.4660 H   0  0  0  0  0  0  0  0  0  0  0  0
    7.9275    1.9068   -7.3244 H   0  0  0  0  0  0  0  0  0  0  0  0
   -1.2879    3.9776   -1.3282 H   0  0  0  0  0  0  0  0  0  0  0  0
  1  7  1  0  0  0  0
  2  8  1  0  0  0  0
  2  1  1  0  0  0  0
  3  2  2  0  0  0  0
  4  5  2  0  0  0  0
  4  3  1  0  0  0  0
  5  6  1  0  0  0  0
  6 31  1  0  0  0  0
  6  1  2  0  0  0  0
  9 24  1  0  0  0  0
 10  5  1  0  0  0  0
 11  3  1  0  0  0  0
 11 12  1  0  0  0  0
 13 19  1  0  0  0  0
 14 20  1  0  0  0  0
 14 13  2  0  0  0  0
 15 14  1  0  0  0  0
 16 15  2  0  0  0  0
 16 17  1  0  0  0  0
 17 18  2  0  0  0  0
 18 13  1  0  0  0  0
 18 23  1  0  0  0  0
 21 16  1  0  0  0  0
 22 17  1  0  0  0  0
 23 12  1  0  0  0  0
 23 25  2  0  0  0  0
 24  4  1  0  0  0  0
 26 23  2  0  0  0  0
 27 28  1  0  0  0  0
 27 15  1  0  0  0  0
 29 27  1  0  0  0  0
 30 27  1  0  0  0  0
M  RAD  2  11   2  12   2
M  END
