Coordinates from ORCA-job Ph-N2-X-OTs-B3LYPG-6-31G_dp-scan-d09-49-n400
 OpenBabel08281821363D

 31 30  0  0  0  0  0  0  0  0999 V2000
    0.4477    0.6876   -3.9032 C   0  0  0  0  0  0  0  0  0  0  0  0
    1.4186    0.3862   -2.9525 C   0  0  0  0  0  0  0  0  0  0  0  0
    1.6855    1.3588   -1.9854 C   0  0  0  0  0  0  0  0  0  0  0  0
    1.0398    2.6059   -1.9207 C   0  0  0  0  0  0  0  0  0  0  0  0
    0.0795    2.8683   -2.8921 C   0  0  0  0  0  0  0  0  0  0  0  0
   -0.2169    1.9180   -3.8754 C   0  0  0  0  0  0  0  0  0  0  0  0
    0.2149   -0.0459   -4.6677 H   0  0  0  0  0  0  0  0  0  0  0  0
    1.9432   -0.5633   -2.9661 H   0  0  0  0  0  0  0  0  0  0  0  0
    1.3005    3.3231   -1.1270 H   0  0  0  0  0  0  0  0  0  0  0  0
   -0.4384    3.8220   -2.8773 H   0  0  0  0  0  0  0  0  0  0  0  0
    2.6387    1.1396   -0.9632 N   0  0  0  0  0  0  0  0  0  0  0  0
    3.1538    1.4519   -0.0106 N   0  0  0  0  0  0  0  0  0  0  0  0
    5.5031   -0.4996   -4.7890 C   0  0  0  0  0  0  0  0  0  0  0  0
    6.3516    0.3943   -5.4426 C   0  0  0  0  0  0  0  0  0  0  0  0
    7.0822    1.3561   -4.7303 C   0  0  0  0  0  0  0  0  0  0  0  0
    6.9442    1.4014   -3.3337 C   0  0  0  0  0  0  0  0  0  0  0  0
    6.1015    0.5170   -2.6642 C   0  0  0  0  0  0  0  0  0  0  0  0
    5.3720   -0.4171   -3.4035 C   0  0  0  0  0  0  0  0  0  0  0  0
    4.9339   -1.2421   -5.3383 H   0  0  0  0  0  0  0  0  0  0  0  0
    6.4491    0.3436   -6.5246 H   0  0  0  0  0  0  0  0  0  0  0  0
    7.5047    2.1388   -2.7643 H   0  0  0  0  0  0  0  0  0  0  0  0
    5.9986    0.5566   -1.5842 H   0  0  0  0  0  0  0  0  0  0  0  0
    4.3331   -1.6373   -2.5316 S   0  0  0  0  0  0  0  0  0  0  0  0
    2.0690    4.1429    0.4326 O   0  0  0  0  0  0  0  0  0  0  0  0
    3.3551   -2.1352   -3.5638 O   0  0  0  0  0  0  0  0  0  0  0  0
    3.7192   -0.8520   -1.3686 O   0  0  0  0  0  0  0  0  0  0  0  0
    7.9820    2.3356   -5.4450 C   0  0  0  0  0  0  0  0  0  0  0  0
    8.2617    1.9727   -6.4374 H   0  0  0  0  0  0  0  0  0  0  0  0
    7.4825    3.3033   -5.5774 H   0  0  0  0  0  0  0  0  0  0  0  0
    8.8999    2.5217   -4.8792 H   0  0  0  0  0  0  0  0  0  0  0  0
   -0.9710    2.1379   -4.6256 H   0  0  0  0  0  0  0  0  0  0  0  0
  1  6  2  0  0  0  0
  1  2  1  0  0  0  0
  2  3  2  0  0  0  0
  3  4  1  0  0  0  0
  3 11  1  0  0  0  0
  4  9  1  0  0  0  0
  5 10  1  0  0  0  0
  5  4  2  0  0  0  0
  6  5  1  0  0  0  0
  7  1  1  0  0  0  0
  8  2  1  0  0  0  0
 11 12  2  0  0  0  0
 13 18  1  0  0  0  0
 14 13  2  0  0  0  0
 14 15  1  0  0  0  0
 15 16  2  0  0  0  0
 16 21  1  0  0  0  0
 16 17  1  0  0  0  0
 17 22  1  0  0  0  0
 18 17  2  0  0  0  0
 18 23  1  0  0  0  0
 19 13  1  0  0  0  0
 20 14  1  0  0  0  0
 23 26  1  0  0  0  0
 25 23  1  0  0  0  0
 27 30  1  0  0  0  0
 27 15  1  0  0  0  0
 28 27  1  0  0  0  0
 29 27  1  0  0  0  0
 31  6  1  0  0  0  0
M  RAD  4  12   2  24   3  25   2  26   2
M  END
