Coordinates from ORCA-job Ph-N2-X-OTs-B3LYPG-6-31G_dp-scan-d09-49-n400
 OpenBabel08281821363D

 31 32  0  0  0  0  0  0  0  0999 V2000
   -0.7065    0.2484   -2.2603 C   0  0  0  0  0  0  0  0  0  0  0  0
    0.6535    0.1733   -1.9760 C   0  0  0  0  0  0  0  0  0  0  0  0
    1.5025    1.1989   -2.4132 C   0  0  0  0  0  0  0  0  0  0  0  0
    1.0054    2.2917   -3.1350 C   0  0  0  0  0  0  0  0  0  0  0  0
   -0.3588    2.3384   -3.4193 C   0  0  0  0  0  0  0  0  0  0  0  0
   -1.2177    1.3285   -2.9840 C   0  0  0  0  0  0  0  0  0  0  0  0
   -1.3663   -0.5420   -1.9158 H   0  0  0  0  0  0  0  0  0  0  0  0
    1.0587   -0.6643   -1.4234 H   0  0  0  0  0  0  0  0  0  0  0  0
    1.6804    3.0768   -3.4370 H   0  0  0  0  0  0  0  0  0  0  0  0
   -0.7493    3.1800   -3.9835 H   0  0  0  0  0  0  0  0  0  0  0  0
    2.9024    1.0822   -2.1077 N   0  0  0  0  0  0  0  0  0  0  0  0
    3.8250    1.9609   -1.9195 N   0  0  0  0  0  0  0  0  0  0  0  0
    5.3647    0.7263   -4.8439 C   0  0  0  0  0  0  0  0  0  0  0  0
    6.4814    1.5005   -5.1425 C   0  0  0  0  0  0  0  0  0  0  0  0
    7.6084    1.5012   -4.3051 C   0  0  0  0  0  0  0  0  0  0  0  0
    7.5911    0.7015   -3.1522 C   0  0  0  0  0  0  0  0  0  0  0  0
    6.4828   -0.0787   -2.8362 C   0  0  0  0  0  0  0  0  0  0  0  0
    5.3739   -0.0525   -3.6855 C   0  0  0  0  0  0  0  0  0  0  0  0
    4.4901    0.7146   -5.4864 H   0  0  0  0  0  0  0  0  0  0  0  0
    6.4797    2.1170   -6.0375 H   0  0  0  0  0  0  0  0  0  0  0  0
    8.4543    0.6967   -2.4922 H   0  0  0  0  0  0  0  0  0  0  0  0
    6.4748   -0.6806   -1.9318 H   0  0  0  0  0  0  0  0  0  0  0  0
    3.9741   -1.1106   -3.3160 S   0  0  2  0  0  0  0  0  0  0  0  0
    3.3240    3.3757   -2.0986 O   0  0  0  0  0  0  0  0  0  0  0  0
    3.0140   -0.9480   -4.4393 O   0  0  0  0  0  0  0  0  0  0  0  0
    3.3516   -0.2077   -1.8583 O   0  0  0  0  0  0  0  0  0  0  0  0
    8.8182    2.3331   -4.6528 C   0  0  0  0  0  0  0  0  0  0  0  0
    9.3760    1.8849   -5.4841 H   0  0  0  0  0  0  0  0  0  0  0  0
    8.5290    3.3416   -4.9636 H   0  0  0  0  0  0  0  0  0  0  0  0
    9.5015    2.4222   -3.8038 H   0  0  0  0  0  0  0  0  0  0  0  0
   -2.2792    1.3811   -3.2073 H   0  0  0  0  0  0  0  0  0  0  0  0
  1  2  1  0  0  0  0
  1  7  1  0  0  0  0
  2  8  1  0  0  0  0
  3 11  1  0  0  0  0
  3  2  2  0  0  0  0
  4  3  1  0  0  0  0
  5  4  2  0  0  0  0
  5  6  1  0  0  0  0
  6  1  2  0  0  0  0
  9  4  1  0  0  0  0
 10  5  1  0  0  0  0
 11 12  1  0  0  0  0
 11 26  1  0  0  0  0
 13 18  1  0  0  0  0
 14 13  2  0  0  0  0
 14 15  1  0  0  0  0
 15 16  2  0  0  0  0
 16 17  1  0  0  0  0
 16 21  1  0  0  0  0
 17 22  1  0  0  0  0
 18 23  1  0  0  0  0
 18 17  2  0  0  0  0
 19 13  1  0  0  0  0
 20 14  1  0  0  0  0
 23 25  1  6  0  0  0
 23 26  1  0  0  0  0
 24 12  1  0  0  0  0
 27 15  1  0  0  0  0
 27 30  1  0  0  0  0
 28 27  1  0  0  0  0
 29 27  1  0  0  0  0
 31  6  1  0  0  0  0
M  RAD  3  12   2  24   2  25   2
M  END
