Coordinates from ORCA-job Ph-N2-X-OTs-B3LYPG-6-31G_dp-scan-d09-49-n400
 OpenBabel08281821363D

 31 32  0  0  0  0  0  0  0  0999 V2000
    0.7815    3.6091   -1.6951 C   0  0  0  0  0  0  0  0  0  0  0  0
    1.7385    2.6397   -1.9707 C   0  0  0  0  0  0  0  0  0  0  0  0
    1.3465    1.3110   -2.1812 C   0  0  0  0  0  0  0  0  0  0  0  0
   -0.0092    0.9468   -2.0954 C   0  0  0  0  0  0  0  0  0  0  0  0
   -0.9689    1.9238   -1.8083 C   0  0  0  0  0  0  0  0  0  0  0  0
   -0.5695    3.2451   -1.6152 C   0  0  0  0  0  0  0  0  0  0  0  0
    1.0776    4.6425   -1.5473 H   0  0  0  0  0  0  0  0  0  0  0  0
    2.7918    2.8865   -2.0496 H   0  0  0  0  0  0  0  0  0  0  0  0
   -1.2340   -0.5091   -2.2102 H   0  0  0  0  0  0  0  0  0  0  0  0
   -2.0178    1.6467   -1.7338 H   0  0  0  0  0  0  0  0  0  0  0  0
    2.2144    0.2516   -2.5288 N   0  0  0  0  0  0  0  0  0  0  0  0
    3.3960    0.4115   -2.2045 N   0  0  0  0  0  0  0  0  0  0  0  0
    6.6779    0.4918   -3.0704 C   0  0  0  0  0  0  0  0  0  0  0  0
    7.6137    1.1643   -3.8517 C   0  0  0  0  0  0  0  0  0  0  0  0
    7.5112    1.1835   -5.2515 C   0  0  0  0  0  0  0  0  0  0  0  0
    6.4391    0.5103   -5.8549 C   0  0  0  0  0  0  0  0  0  0  0  0
    5.4905   -0.1660   -5.0901 C   0  0  0  0  0  0  0  0  0  0  0  0
    5.6203   -0.1686   -3.7005 C   0  0  0  0  0  0  0  0  0  0  0  0
    6.7661    0.4625   -1.9895 H   0  0  0  0  0  0  0  0  0  0  0  0
    8.4405    1.6792   -3.3693 H   0  0  0  0  0  0  0  0  0  0  0  0
    6.3478    0.5132   -6.9382 H   0  0  0  0  0  0  0  0  0  0  0  0
    4.6653   -0.6952   -5.5543 H   0  0  0  0  0  0  0  0  0  0  0  0
    4.4013   -1.0206   -2.7077 S   0  0  0  0  0  0  0  0  0  0  0  0
   -0.2795   -0.3648   -2.2656 O   0  0  0  0  0  0  0  0  0  0  0  0
    5.0281   -1.4599   -1.4561 O   0  0  0  0  0  0  0  0  0  0  0  0
    3.6483   -1.9394   -3.5651 O   0  0  0  0  0  0  0  0  0  0  0  0
    8.5516    1.8891   -6.0878 C   0  0  0  0  0  0  0  0  0  0  0  0
    8.9079    2.7998   -5.5974 H   0  0  0  0  0  0  0  0  0  0  0  0
    9.4245    1.2449   -6.2503 H   0  0  0  0  0  0  0  0  0  0  0  0
    8.1590    2.1623   -7.0707 H   0  0  0  0  0  0  0  0  0  0  0  0
   -1.3210    3.9992   -1.4007 H   0  0  0  0  0  0  0  0  0  0  0  0
  1  6  1  0  0  0  0
  1  7  1  0  0  0  0
  2  1  2  0  0  0  0
  3  4  2  0  0  0  0
  3  2  1  0  0  0  0
  4  5  1  0  0  0  0
  5 10  1  0  0  0  0
  5  6  2  0  0  0  0
  6 31  1  0  0  0  0
  8  2  1  0  0  0  0
 11 12  1  0  0  0  0
 11  3  1  0  0  0  0
 13 19  1  0  0  0  0
 14 20  1  0  0  0  0
 14 13  2  0  0  0  0
 15 14  1  0  0  0  0
 16 15  2  0  0  0  0
 16 17  1  0  0  0  0
 17 18  2  0  0  0  0
 18 13  1  0  0  0  0
 18 23  1  0  0  0  0
 21 16  1  0  0  0  0
 22 17  1  0  0  0  0
 23 12  1  0  0  0  0
 23 25  2  0  0  0  0
 24  9  1  0  0  0  0
 24  4  1  0  0  0  0
 26 23  2  0  0  0  0
 27 28  1  0  0  0  0
 27 15  1  0  0  0  0
 29 27  1  0  0  0  0
 30 27  1  0  0  0  0
M  RAD  2  11   2  12   2
M  END
