Coordinates from ORCA-job Ph-N2-X-OTs-B3LYPG-6-31G_dp-scan-d09-49-n400
 OpenBabel08281821363D

 31 32  0  0  0  0  0  0  0  0999 V2000
    0.6641    3.3885   -1.0088 C   0  0  0  0  0  0  0  0  0  0  0  0
    1.6631    2.4626   -1.2728 C   0  0  0  0  0  0  0  0  0  0  0  0
    1.3871    1.3186   -2.0399 C   0  0  0  0  0  0  0  0  0  0  0  0
    0.0881    1.1076   -2.5475 C   0  0  0  0  0  0  0  0  0  0  0  0
   -0.9153    2.0490   -2.2797 C   0  0  0  0  0  0  0  0  0  0  0  0
   -0.6257    3.1758   -1.5163 C   0  0  0  0  0  0  0  0  0  0  0  0
    0.8767    4.2673   -0.4089 H   0  0  0  0  0  0  0  0  0  0  0  0
    2.6686    2.5874   -0.8865 H   0  0  0  0  0  0  0  0  0  0  0  0
   -1.0468   -0.0453   -3.5505 H   0  0  0  0  0  0  0  0  0  0  0  0
   -1.9174    1.8911   -2.6709 H   0  0  0  0  0  0  0  0  0  0  0  0
    2.3243    0.3039   -2.3357 N   0  0  0  0  0  0  0  0  0  0  0  0
    3.5022    0.5643   -2.0498 N   0  0  0  0  0  0  0  0  0  0  0  0
    6.7262    0.7119   -3.0955 C   0  0  0  0  0  0  0  0  0  0  0  0
    7.5816    1.3068   -4.0189 C   0  0  0  0  0  0  0  0  0  0  0  0
    7.4234    1.0937   -5.3971 C   0  0  0  0  0  0  0  0  0  0  0  0
    6.3776    0.2666   -5.8324 C   0  0  0  0  0  0  0  0  0  0  0  0
    5.5088   -0.3350   -4.9245 C   0  0  0  0  0  0  0  0  0  0  0  0
    5.6931   -0.1058   -3.5600 C   0  0  0  0  0  0  0  0  0  0  0  0
    6.8584    0.8633   -2.0296 H   0  0  0  0  0  0  0  0  0  0  0  0
    8.3887    1.9434   -3.6655 H   0  0  0  0  0  0  0  0  0  0  0  0
    6.2444    0.0889   -6.8965 H   0  0  0  0  0  0  0  0  0  0  0  0
    4.7040   -0.9816   -5.2573 H   0  0  0  0  0  0  0  0  0  0  0  0
    4.5758   -0.8593   -2.3856 S   0  0  0  0  0  0  0  0  0  0  0  0
   -0.1172   -0.0020   -3.2893 O   0  0  0  0  0  0  0  0  0  0  0  0
    5.2819   -1.0568   -1.1147 O   0  0  0  0  0  0  0  0  0  0  0  0
    3.8509   -1.9464   -3.0479 O   0  0  0  0  0  0  0  0  0  0  0  0
    8.3792    1.7161   -6.3862 C   0  0  0  0  0  0  0  0  0  0  0  0
    8.7109    2.7041   -6.0545 H   0  0  0  0  0  0  0  0  0  0  0  0
    9.2757    1.0957   -6.5060 H   0  0  0  0  0  0  0  0  0  0  0  0
    7.9213    1.8227   -7.3734 H   0  0  0  0  0  0  0  0  0  0  0  0
   -1.4142    3.8939   -1.3102 H   0  0  0  0  0  0  0  0  0  0  0  0
  1  7  1  0  0  0  0
  2  1  1  0  0  0  0
  2  8  1  0  0  0  0
  3  2  2  0  0  0  0
  4  5  2  0  0  0  0
  4  3  1  0  0  0  0
  5  6  1  0  0  0  0
  6 31  1  0  0  0  0
  6  1  2  0  0  0  0
  9 24  1  0  0  0  0
 10  5  1  0  0  0  0
 11 12  1  0  0  0  0
 11  3  1  0  0  0  0
 13 19  1  0  0  0  0
 14 20  1  0  0  0  0
 14 13  2  0  0  0  0
 15 14  1  0  0  0  0
 16 15  2  0  0  0  0
 16 17  1  0  0  0  0
 17 18  2  0  0  0  0
 18 13  1  0  0  0  0
 18 23  1  0  0  0  0
 21 16  1  0  0  0  0
 22 17  1  0  0  0  0
 23 12  1  0  0  0  0
 23 25  2  0  0  0  0
 24  4  1  0  0  0  0
 26 23  2  0  0  0  0
 27 28  1  0  0  0  0
 27 15  1  0  0  0  0
 29 27  1  0  0  0  0
 30 27  1  0  0  0  0
M  RAD  2  11   2  12   2
M  END
