Coordinates from ORCA-job Ph-N2-X-OTs-B3LYPG-6-31G_dp-scan-d09-49-n400
 OpenBabel08281821363D

 31 30  0  0  0  0  0  0  0  0999 V2000
   -0.1056    0.5654   -3.6668 C   0  0  0  0  0  0  0  0  0  0  0  0
    1.1480    0.4752   -3.0677 C   0  0  0  0  0  0  0  0  0  0  0  0
    1.5056    1.4916   -2.1797 C   0  0  0  0  0  0  0  0  0  0  0  0
    0.6814    2.5866   -1.8665 C   0  0  0  0  0  0  0  0  0  0  0  0
   -0.5667    2.6348   -2.4784 C   0  0  0  0  0  0  0  0  0  0  0  0
   -0.9602    1.6320   -3.3709 C   0  0  0  0  0  0  0  0  0  0  0  0
   -0.4128   -0.2063   -4.3650 H   0  0  0  0  0  0  0  0  0  0  0  0
    1.8195   -0.3474   -3.2903 H   0  0  0  0  0  0  0  0  0  0  0  0
    1.0550    3.3551   -1.1792 H   0  0  0  0  0  0  0  0  0  0  0  0
   -1.2323    3.4634   -2.2577 H   0  0  0  0  0  0  0  0  0  0  0  0
    2.7700    1.4955   -1.5318 N   0  0  0  0  0  0  0  0  0  0  0  0
    3.5011    2.0588   -0.8737 N   0  0  0  0  0  0  0  0  0  0  0  0
    5.6822   -0.3572   -4.8924 C   0  0  0  0  0  0  0  0  0  0  0  0
    6.6808    0.4429   -5.4485 C   0  0  0  0  0  0  0  0  0  0  0  0
    7.4825    1.2667   -4.6463 C   0  0  0  0  0  0  0  0  0  0  0  0
    7.2614    1.2706   -3.2590 C   0  0  0  0  0  0  0  0  0  0  0  0
    6.2696    0.4795   -2.6855 C   0  0  0  0  0  0  0  0  0  0  0  0
    5.4739   -0.3154   -3.5148 C   0  0  0  0  0  0  0  0  0  0  0  0
    5.0591   -0.9950   -5.5103 H   0  0  0  0  0  0  0  0  0  0  0  0
    6.8410    0.4252   -6.5238 H   0  0  0  0  0  0  0  0  0  0  0  0
    7.8742    1.9027   -2.6214 H   0  0  0  0  0  0  0  0  0  0  0  0
    6.1015    0.4900   -1.6135 H   0  0  0  0  0  0  0  0  0  0  0  0
    4.2344   -1.4217   -2.7706 S   0  0  0  0  0  0  0  0  0  0  0  0
    2.4827    4.3216   -0.2276 O   0  0  0  0  0  0  0  0  0  0  0  0
    3.3128   -1.8109   -3.8936 O   0  0  0  0  0  0  0  0  0  0  0  0
    3.6024   -0.5989   -1.6418 O   0  0  0  0  0  0  0  0  0  0  0  0
    8.5466    2.1472   -5.2551 C   0  0  0  0  0  0  0  0  0  0  0  0
    8.8224    1.8085   -6.2571 H   0  0  0  0  0  0  0  0  0  0  0  0
    8.1950    3.1827   -5.3425 H   0  0  0  0  0  0  0  0  0  0  0  0
    9.4515    2.1651   -4.6396 H   0  0  0  0  0  0  0  0  0  0  0  0
   -1.9378    1.6828   -3.8409 H   0  0  0  0  0  0  0  0  0  0  0  0
  1  6  2  0  0  0  0
  1  2  1  0  0  0  0
  2  3  2  0  0  0  0
  3  4  1  0  0  0  0
  3 11  1  0  0  0  0
  4  9  1  0  0  0  0
  5 10  1  0  0  0  0
  5  4  2  0  0  0  0
  6  5  1  0  0  0  0
  7  1  1  0  0  0  0
  8  2  1  0  0  0  0
 11 12  2  0  0  0  0
 13 18  1  0  0  0  0
 14 13  2  0  0  0  0
 14 15  1  0  0  0  0
 15 16  2  0  0  0  0
 16 17  1  0  0  0  0
 16 21  1  0  0  0  0
 17 22  1  0  0  0  0
 18 23  1  0  0  0  0
 18 17  2  0  0  0  0
 19 13  1  0  0  0  0
 20 14  1  0  0  0  0
 23 26  1  0  0  0  0
 25 23  1  0  0  0  0
 27 15  1  0  0  0  0
 27 30  1  0  0  0  0
 28 27  1  0  0  0  0
 29 27  1  0  0  0  0
 31  6  1  0  0  0  0
M  RAD  4  12   2  24   3  25   2  26   2
M  END
