Coordinates from ORCA-job Ph-N2-X-OTs-B3LYPG-6-31G_dp-scan-d09-49-n400
 OpenBabel08281821363D

 31 32  0  0  0  0  0  0  0  0999 V2000
    0.8413    3.3036   -1.1830 C   0  0  0  0  0  0  0  0  0  0  0  0
    1.6698    2.2508   -1.5188 C   0  0  0  0  0  0  0  0  0  0  0  0
    1.2821    1.0734   -2.2028 C   0  0  0  0  0  0  0  0  0  0  0  0
   -0.1620    0.9763   -2.5803 C   0  0  0  0  0  0  0  0  0  0  0  0
   -0.9495    2.0895   -2.2094 C   0  0  0  0  0  0  0  0  0  0  0  0
   -0.5009    3.2164   -1.5408 C   0  0  0  0  0  0  0  0  0  0  0  0
    1.2326    4.1664   -0.6542 H   0  0  0  0  0  0  0  0  0  0  0  0
    2.7180    2.2955   -1.2438 H   0  0  0  0  0  0  0  0  0  0  0  0
   -1.8415    0.3560   -3.2715 H   0  0  0  0  0  0  0  0  0  0  0  0
   -2.0053    2.0540   -2.4749 H   0  0  0  0  0  0  0  0  0  0  0  0
    2.3962    0.1300   -2.4116 N   0  0  0  0  0  0  0  0  0  0  0  0
    3.5687    0.4536   -2.0168 N   0  0  0  0  0  0  0  0  0  0  0  0
    6.7742    0.7675   -3.0572 C   0  0  0  0  0  0  0  0  0  0  0  0
    7.5959    1.3969   -3.9885 C   0  0  0  0  0  0  0  0  0  0  0  0
    7.4506    1.1577   -5.3637 C   0  0  0  0  0  0  0  0  0  0  0  0
    6.4525    0.2683   -5.7887 C   0  0  0  0  0  0  0  0  0  0  0  0
    5.6179   -0.3689   -4.8735 C   0  0  0  0  0  0  0  0  0  0  0  0
    5.7888   -0.1122   -3.5118 C   0  0  0  0  0  0  0  0  0  0  0  0
    6.8971    0.9399   -1.9933 H   0  0  0  0  0  0  0  0  0  0  0  0
    8.3660    2.0820   -3.6435 H   0  0  0  0  0  0  0  0  0  0  0  0
    6.3297    0.0701   -6.8503 H   0  0  0  0  0  0  0  0  0  0  0  0
    4.8504   -1.0632   -5.1981 H   0  0  0  0  0  0  0  0  0  0  0  0
    4.7139   -0.9120   -2.3300 S   0  0  0  0  0  0  0  0  0  0  0  0
   -0.9447    0.0023   -3.2459 O   0  0  0  0  0  0  0  0  0  0  0  0
    5.4179   -1.0434   -1.0510 O   0  0  0  0  0  0  0  0  0  0  0  0
    4.0563   -2.0482   -2.9759 O   0  0  0  0  0  0  0  0  0  0  0  0
    8.3706    1.8186   -6.3616 C   0  0  0  0  0  0  0  0  0  0  0  0
    8.6745    2.8145   -6.0276 H   0  0  0  0  0  0  0  0  0  0  0  0
    9.2850    1.2285   -6.4989 H   0  0  0  0  0  0  0  0  0  0  0  0
    7.8952    1.9161   -7.3415 H   0  0  0  0  0  0  0  0  0  0  0  0
   -1.2018    4.0110   -1.3029 H   0  0  0  0  0  0  0  0  0  0  0  0
  1  7  1  0  0  0  0
  2  8  1  0  0  0  0
  2  1  1  0  0  0  0
  3  2  2  0  0  0  0
  4  5  2  0  0  0  0
  4  3  1  0  0  0  0
  5  6  1  0  0  0  0
  6 31  1  0  0  0  0
  6  1  2  0  0  0  0
  9 24  1  0  0  0  0
 10  5  1  0  0  0  0
 11  3  1  0  0  0  0
 11 12  1  0  0  0  0
 13 19  1  0  0  0  0
 14 20  1  0  0  0  0
 14 13  2  0  0  0  0
 15 14  1  0  0  0  0
 16 15  2  0  0  0  0
 16 17  1  0  0  0  0
 17 18  2  0  0  0  0
 18 13  1  0  0  0  0
 18 23  1  0  0  0  0
 21 16  1  0  0  0  0
 22 17  1  0  0  0  0
 23 12  1  0  0  0  0
 23 25  2  0  0  0  0
 24  4  1  0  0  0  0
 26 23  2  0  0  0  0
 27 28  1  0  0  0  0
 27 15  1  0  0  0  0
 29 27  1  0  0  0  0
 30 27  1  0  0  0  0
M  RAD  2  11   2  12   2
M  END
