Coordinates from ORCA-job Ph-N2-X-OTs-B3LYPG-6-31G_dp-scan-d09-49-n400
 OpenBabel08281821363D

 31 32  0  0  0  0  0  0  0  0999 V2000
   -0.5949    0.1255   -1.4519 C   0  0  0  0  0  0  0  0  0  0  0  0
    0.7389    0.4757   -1.6446 C   0  0  0  0  0  0  0  0  0  0  0  0
    1.0684    1.4244   -2.6218 C   0  0  0  0  0  0  0  0  0  0  0  0
    0.0747    2.0197   -3.4094 C   0  0  0  0  0  0  0  0  0  0  0  0
   -1.2538    1.6502   -3.2038 C   0  0  0  0  0  0  0  0  0  0  0  0
   -1.5959    0.7112   -2.2292 C   0  0  0  0  0  0  0  0  0  0  0  0
   -0.8498   -0.6062   -0.6908 H   0  0  0  0  0  0  0  0  0  0  0  0
    1.5243    0.0256   -1.0511 H   0  0  0  0  0  0  0  0  0  0  0  0
    0.3462    2.7555   -4.1503 H   0  0  0  0  0  0  0  0  0  0  0  0
   -2.0265    2.1058   -3.8152 H   0  0  0  0  0  0  0  0  0  0  0  0
    2.4599    1.7288   -2.7996 N   0  0  0  0  0  0  0  0  0  0  0  0
    3.0492    2.8099   -3.2544 N   0  0  0  0  0  0  0  0  0  0  0  0
    5.8438    1.4459   -4.7917 C   0  0  0  0  0  0  0  0  0  0  0  0
    7.1623    1.8837   -4.8311 C   0  0  0  0  0  0  0  0  0  0  0  0
    8.1695    1.2300   -4.1000 C   0  0  0  0  0  0  0  0  0  0  0  0
    7.8216    0.1181   -3.3204 C   0  0  0  0  0  0  0  0  0  0  0  0
    6.5051   -0.3371   -3.2695 C   0  0  0  0  0  0  0  0  0  0  0  0
    5.5264    0.3355   -4.0042 C   0  0  0  0  0  0  0  0  0  0  0  0
    5.0602    1.9456   -5.3506 H   0  0  0  0  0  0  0  0  0  0  0  0
    7.4185    2.7510   -5.4339 H   0  0  0  0  0  0  0  0  0  0  0  0
    8.5895   -0.3977   -2.7507 H   0  0  0  0  0  0  0  0  0  0  0  0
    6.2477   -1.2035   -2.6651 H   0  0  0  0  0  0  0  0  0  0  0  0
    3.8489   -0.2758   -3.9377 S   0  0  2  0  0  0  0  0  0  0  0  0
    2.1673    3.8416   -3.5599 O   0  0  0  0  0  0  0  0  0  0  0  0
    3.1049    0.3335   -5.0731 O   0  0  0  0  0  0  0  0  0  0  0  0
    3.3426    0.7644   -2.4309 O   0  0  0  0  0  0  0  0  0  0  0  0
    9.5994    1.7051   -4.1772 C   0  0  0  0  0  0  0  0  0  0  0  0
   10.0661    1.3869   -5.1179 H   0  0  0  0  0  0  0  0  0  0  0  0
    9.6584    2.7976   -4.1412 H   0  0  0  0  0  0  0  0  0  0  0  0
   10.2020    1.3029   -3.3585 H   0  0  0  0  0  0  0  0  0  0  0  0
   -2.6354    0.4371   -2.0763 H   0  0  0  0  0  0  0  0  0  0  0  0
  1  7  1  0  0  0  0
  2  1  1  0  0  0  0
  2  8  1  0  0  0  0
  3  2  2  0  0  0  0
  4  5  2  0  0  0  0
  4  3  1  0  0  0  0
  5  6  1  0  0  0  0
  6 31  1  0  0  0  0
  6  1  2  0  0  0  0
  9  4  1  0  0  0  0
 10  5  1  0  0  0  0
 11  3  1  0  0  0  0
 11 26  1  0  0  0  0
 12 11  1  0  0  0  0
 13 18  1  0  0  0  0
 14 13  2  0  0  0  0
 14 15  1  0  0  0  0
 15 16  2  0  0  0  0
 16 17  1  0  0  0  0
 16 21  1  0  0  0  0
 17 22  1  0  0  0  0
 18 23  1  0  0  0  0
 18 17  2  0  0  0  0
 19 13  1  0  0  0  0
 20 14  1  0  0  0  0
 23 25  1  6  0  0  0
 23 26  1  0  0  0  0
 24 12  1  0  0  0  0
 27 29  1  0  0  0  0
 27 15  1  0  0  0  0
 27 30  1  0  0  0  0
 28 27  1  0  0  0  0
M  RAD  3  12   2  24   2  25   2
M  END
