Coordinates from ORCA-job Ph-N2-X-OTs-B3LYPG-6-31G_dp-scan-d09-49-n400
 OpenBabel08281821363D

 31 32  0  0  0  0  0  0  0  0999 V2000
    0.8410    3.3059   -1.1843 C   0  0  0  0  0  0  0  0  0  0  0  0
    1.6706    2.2540   -1.5198 C   0  0  0  0  0  0  0  0  0  0  0  0
    1.2826    1.0759   -2.2026 C   0  0  0  0  0  0  0  0  0  0  0  0
   -0.1601    0.9769   -2.5778 C   0  0  0  0  0  0  0  0  0  0  0  0
   -0.9498    2.0887   -2.2076 C   0  0  0  0  0  0  0  0  0  0  0  0
   -0.5018    3.2167   -1.5406 C   0  0  0  0  0  0  0  0  0  0  0  0
    1.2315    4.1698   -0.6566 H   0  0  0  0  0  0  0  0  0  0  0  0
    2.7191    2.2999   -1.2460 H   0  0  0  0  0  0  0  0  0  0  0  0
   -1.8365    0.3490   -3.2682 H   0  0  0  0  0  0  0  0  0  0  0  0
   -2.0058    2.0508   -2.4719 H   0  0  0  0  0  0  0  0  0  0  0  0
    2.3939    0.1315   -2.4130 N   0  0  0  0  0  0  0  0  0  0  0  0
    3.5665    0.4539   -2.0190 N   0  0  0  0  0  0  0  0  0  0  0  0
    6.7730    0.7666   -3.0575 C   0  0  0  0  0  0  0  0  0  0  0  0
    7.5956    1.3960   -3.9879 C   0  0  0  0  0  0  0  0  0  0  0  0
    7.4511    1.1574   -5.3634 C   0  0  0  0  0  0  0  0  0  0  0  0
    6.4528    0.2687   -5.7893 C   0  0  0  0  0  0  0  0  0  0  0  0
    5.6173   -0.3684   -4.8750 C   0  0  0  0  0  0  0  0  0  0  0  0
    5.7874   -0.1124   -3.5131 C   0  0  0  0  0  0  0  0  0  0  0  0
    6.8953    0.9384   -1.9934 H   0  0  0  0  0  0  0  0  0  0  0  0
    8.3659    2.0805   -3.6422 H   0  0  0  0  0  0  0  0  0  0  0  0
    6.3306    0.0711   -6.8511 H   0  0  0  0  0  0  0  0  0  0  0  0
    4.8496   -1.0622   -5.2004 H   0  0  0  0  0  0  0  0  0  0  0  0
    4.7112   -0.9121   -2.3322 S   0  0  0  0  0  0  0  0  0  0  0  0
   -0.9381   -0.0005   -3.2408 O   0  0  0  0  0  0  0  0  0  0  0  0
    5.4145   -1.0449   -1.0530 O   0  0  0  0  0  0  0  0  0  0  0  0
    4.0533   -2.0475   -2.9792 O   0  0  0  0  0  0  0  0  0  0  0  0
    8.3721    1.8182   -6.3603 C   0  0  0  0  0  0  0  0  0  0  0  0
    8.6758    2.8142   -6.0260 H   0  0  0  0  0  0  0  0  0  0  0  0
    9.2866    1.2281   -6.4968 H   0  0  0  0  0  0  0  0  0  0  0  0
    7.8977    1.9158   -7.3407 H   0  0  0  0  0  0  0  0  0  0  0  0
   -1.2032    4.0108   -1.3024 H   0  0  0  0  0  0  0  0  0  0  0  0
  1  7  1  0  0  0  0
  2  8  1  0  0  0  0
  2  1  1  0  0  0  0
  3  2  2  0  0  0  0
  4  5  2  0  0  0  0
  4  3  1  0  0  0  0
  5  6  1  0  0  0  0
  6 31  1  0  0  0  0
  6  1  2  0  0  0  0
  9 24  1  0  0  0  0
 10  5  1  0  0  0  0
 11  3  1  0  0  0  0
 11 12  1  0  0  0  0
 13 19  1  0  0  0  0
 14 20  1  0  0  0  0
 14 13  2  0  0  0  0
 15 14  1  0  0  0  0
 16 15  2  0  0  0  0
 16 17  1  0  0  0  0
 17 18  2  0  0  0  0
 18 13  1  0  0  0  0
 18 23  1  0  0  0  0
 21 16  1  0  0  0  0
 22 17  1  0  0  0  0
 23 12  1  0  0  0  0
 23 25  2  0  0  0  0
 24  4  1  0  0  0  0
 26 23  2  0  0  0  0
 27 28  1  0  0  0  0
 27 15  1  0  0  0  0
 29 27  1  0  0  0  0
 30 27  1  0  0  0  0
M  RAD  2  11   2  12   2
M  END
