Coordinates from ORCA-job Ph-N2-X-OTs-B3LYPG-6-31G_dp-scan-d09-49-n400
 OpenBabel08281821363D

 31 32  0  0  0  0  0  0  0  0999 V2000
   -0.5063    0.1747   -1.2927 C   0  0  0  0  0  0  0  0  0  0  0  0
    0.7908    0.5842   -1.5907 C   0  0  0  0  0  0  0  0  0  0  0  0
    1.0151    1.4427   -2.6759 C   0  0  0  0  0  0  0  0  0  0  0  0
   -0.0555    1.8869   -3.4645 C   0  0  0  0  0  0  0  0  0  0  0  0
   -1.3481    1.4719   -3.1459 C   0  0  0  0  0  0  0  0  0  0  0  0
   -1.5812    0.6204   -2.0647 C   0  0  0  0  0  0  0  0  0  0  0  0
   -0.6764   -0.4903   -0.4510 H   0  0  0  0  0  0  0  0  0  0  0  0
    1.6332    0.2467   -0.9994 H   0  0  0  0  0  0  0  0  0  0  0  0
    0.1211    2.5387   -4.3073 H   0  0  0  0  0  0  0  0  0  0  0  0
   -2.1772    1.8150   -3.7572 H   0  0  0  0  0  0  0  0  0  0  0  0
    2.3624    1.8247   -2.9563 N   0  0  0  0  0  0  0  0  0  0  0  0
    2.8334    2.9958   -3.5124 N   0  0  0  0  0  0  0  0  0  0  0  0
    5.9314    1.5802   -4.7682 C   0  0  0  0  0  0  0  0  0  0  0  0
    7.2716    1.9475   -4.7369 C   0  0  0  0  0  0  0  0  0  0  0  0
    8.2229    1.1765   -4.0460 C   0  0  0  0  0  0  0  0  0  0  0  0
    7.7955    0.0197   -3.3805 C   0  0  0  0  0  0  0  0  0  0  0  0
    6.4556   -0.3663   -3.4035 C   0  0  0  0  0  0  0  0  0  0  0  0
    5.5338    0.4217   -4.0948 C   0  0  0  0  0  0  0  0  0  0  0  0
    5.1901    2.1712   -5.2954 H   0  0  0  0  0  0  0  0  0  0  0  0
    7.5905    2.8504   -5.2512 H   0  0  0  0  0  0  0  0  0  0  0  0
    8.5190   -0.5870   -2.8430 H   0  0  0  0  0  0  0  0  0  0  0  0
    6.1364   -1.2694   -2.8896 H   0  0  0  0  0  0  0  0  0  0  0  0
    3.8219   -0.0940   -4.1179 S   0  0  2  0  0  0  0  0  0  0  0  0
    1.9951    3.8152   -3.7724 O   0  0  0  0  0  0  0  0  0  0  0  0
    3.1460    0.6055   -5.2472 O   0  0  0  0  0  0  0  0  0  0  0  0
    3.3492    0.9821   -2.6064 O   0  0  0  0  0  0  0  0  0  0  0  0
    9.6779    1.5771   -4.0470 C   0  0  0  0  0  0  0  0  0  0  0  0
   10.1608    1.2946   -4.9909 H   0  0  0  0  0  0  0  0  0  0  0  0
    9.7932    2.6601   -3.9377 H   0  0  0  0  0  0  0  0  0  0  0  0
   10.2294    1.0914   -3.2378 H   0  0  0  0  0  0  0  0  0  0  0  0
   -2.5922    0.3033   -1.8276 H   0  0  0  0  0  0  0  0  0  0  0  0
  1  7  1  0  0  0  0
  2  1  1  0  0  0  0
  2  8  1  0  0  0  0
  3  2  2  0  0  0  0
  4  5  2  0  0  0  0
  4  3  1  0  0  0  0
  5  6  1  0  0  0  0
  6 31  1  0  0  0  0
  6  1  2  0  0  0  0
  9  4  1  0  0  0  0
 10  5  1  0  0  0  0
 11  3  1  0  0  0  0
 11 26  1  0  0  0  0
 12 11  1  0  0  0  0
 13 14  2  0  0  0  0
 13 18  1  0  0  0  0
 14 15  1  0  0  0  0
 15 16  2  0  0  0  0
 16 21  1  0  0  0  0
 17 16  1  0  0  0  0
 17 22  1  0  0  0  0
 18 17  2  0  0  0  0
 19 13  1  0  0  0  0
 20 14  1  0  0  0  0
 23 25  1  6  0  0  0
 23 18  1  0  0  0  0
 23 26  1  0  0  0  0
 24 12  2  0  0  0  0
 27 15  1  0  0  0  0
 27 29  1  0  0  0  0
 27 30  1  0  0  0  0
 28 27  1  0  0  0  0
M  RAD  1  25   2
M  END
