Coordinates from ORCA-job Ph-N2-X-OTs-B3LYPG-6-31G_dp-scan-d09-49-n400
 OpenBabel08281821363D

 31 32  0  0  0  0  0  0  0  0999 V2000
    0.7037    3.4160   -1.0860 C   0  0  0  0  0  0  0  0  0  0  0  0
    1.6859    2.4743   -1.3525 C   0  0  0  0  0  0  0  0  0  0  0  0
    1.3809    1.3007   -2.0642 C   0  0  0  0  0  0  0  0  0  0  0  0
    0.0592    1.0762   -2.5117 C   0  0  0  0  0  0  0  0  0  0  0  0
   -0.9269    2.0359   -2.2392 C   0  0  0  0  0  0  0  0  0  0  0  0
   -0.6057    3.1906   -1.5340 C   0  0  0  0  0  0  0  0  0  0  0  0
    0.9446    4.3172   -0.5319 H   0  0  0  0  0  0  0  0  0  0  0  0
    2.7067    2.6105   -1.0132 H   0  0  0  0  0  0  0  0  0  0  0  0
   -1.1422   -0.0875   -3.4197 H   0  0  0  0  0  0  0  0  0  0  0  0
   -1.9444    1.8676   -2.5839 H   0  0  0  0  0  0  0  0  0  0  0  0
    2.3196    0.2851   -2.3589 N   0  0  0  0  0  0  0  0  0  0  0  0
    3.4972    0.5366   -2.0538 N   0  0  0  0  0  0  0  0  0  0  0  0
    6.7264    0.6922   -3.0857 C   0  0  0  0  0  0  0  0  0  0  0  0
    7.5859    1.2992   -3.9974 C   0  0  0  0  0  0  0  0  0  0  0  0
    7.4298    1.1093   -5.3793 C   0  0  0  0  0  0  0  0  0  0  0  0
    6.3818    0.2935   -5.8303 C   0  0  0  0  0  0  0  0  0  0  0  0
    5.5090   -0.3199   -4.9340 C   0  0  0  0  0  0  0  0  0  0  0  0
    5.6913   -0.1139   -3.5656 C   0  0  0  0  0  0  0  0  0  0  0  0
    6.8570    0.8254   -2.0170 H   0  0  0  0  0  0  0  0  0  0  0  0
    8.3947    1.9267   -3.6321 H   0  0  0  0  0  0  0  0  0  0  0  0
    6.2501    0.1337   -6.8974 H   0  0  0  0  0  0  0  0  0  0  0  0
    4.7027   -0.9581   -5.2791 H   0  0  0  0  0  0  0  0  0  0  0  0
    4.5688   -0.8829   -2.4062 S   0  0  0  0  0  0  0  0  0  0  0  0
   -0.2021   -0.0586   -3.1973 O   0  0  0  0  0  0  0  0  0  0  0  0
    5.2703   -1.1002   -1.1360 O   0  0  0  0  0  0  0  0  0  0  0  0
    3.8449   -1.9589   -3.0871 O   0  0  0  0  0  0  0  0  0  0  0  0
    8.3899    1.7441   -6.3562 C   0  0  0  0  0  0  0  0  0  0  0  0
    8.7280    2.7235   -6.0059 H   0  0  0  0  0  0  0  0  0  0  0  0
    9.2824    1.1201   -6.4875 H   0  0  0  0  0  0  0  0  0  0  0  0
    7.9333    1.8722   -7.3414 H   0  0  0  0  0  0  0  0  0  0  0  0
   -1.3833    3.9203   -1.3275 H   0  0  0  0  0  0  0  0  0  0  0  0
  1  7  1  0  0  0  0
  2  1  1  0  0  0  0
  2  8  1  0  0  0  0
  3  2  2  0  0  0  0
  4  5  2  0  0  0  0
  4  3  1  0  0  0  0
  5  6  1  0  0  0  0
  6 31  1  0  0  0  0
  6  1  2  0  0  0  0
  9 24  1  0  0  0  0
 10  5  1  0  0  0  0
 11  3  1  0  0  0  0
 11 12  1  0  0  0  0
 13 19  1  0  0  0  0
 14 20  1  0  0  0  0
 14 13  2  0  0  0  0
 15 14  1  0  0  0  0
 16 15  2  0  0  0  0
 16 17  1  0  0  0  0
 17 18  2  0  0  0  0
 18 13  1  0  0  0  0
 18 23  1  0  0  0  0
 21 16  1  0  0  0  0
 22 17  1  0  0  0  0
 23 12  1  0  0  0  0
 23 25  2  0  0  0  0
 24  4  1  0  0  0  0
 26 23  2  0  0  0  0
 27 28  1  0  0  0  0
 27 15  1  0  0  0  0
 29 27  1  0  0  0  0
 30 27  1  0  0  0  0
M  RAD  2  11   2  12   2
M  END
