Coordinates from ORCA-job Ph-N2-X-OTs-B3LYPG-6-31G_dp-scan-d09-49-n400
 OpenBabel08281821363D

 31 32  0  0  0  0  0  0  0  0999 V2000
   -0.6552    0.2440   -2.4080 C   0  0  0  0  0  0  0  0  0  0  0  0
    0.6856    0.1341   -2.0536 C   0  0  0  0  0  0  0  0  0  0  0  0
    1.5578    1.1801   -2.3820 C   0  0  0  0  0  0  0  0  0  0  0  0
    1.1195    2.3226   -3.0600 C   0  0  0  0  0  0  0  0  0  0  0  0
   -0.2249    2.3988   -3.4207 C   0  0  0  0  0  0  0  0  0  0  0  0
   -1.1126    1.3720   -3.0953 C   0  0  0  0  0  0  0  0  0  0  0  0
   -1.3414   -0.5562   -2.1494 H   0  0  0  0  0  0  0  0  0  0  0  0
    1.0520   -0.7385   -1.5304 H   0  0  0  0  0  0  0  0  0  0  0  0
    1.8353    3.1137   -3.2425 H   0  0  0  0  0  0  0  0  0  0  0  0
   -0.5783    3.2758   -3.9542 H   0  0  0  0  0  0  0  0  0  0  0  0
    2.9475    1.0562   -2.0049 N   0  0  0  0  0  0  0  0  0  0  0  0
    3.8599    1.8708   -1.7845 N   0  0  0  0  0  0  0  0  0  0  0  0
    5.3027    0.6485   -4.8184 C   0  0  0  0  0  0  0  0  0  0  0  0
    6.3931    1.4445   -5.1542 C   0  0  0  0  0  0  0  0  0  0  0  0
    7.5265    1.5086   -4.3275 C   0  0  0  0  0  0  0  0  0  0  0  0
    7.5433    0.7498   -3.1473 C   0  0  0  0  0  0  0  0  0  0  0  0
    6.4616   -0.0514   -2.7932 C   0  0  0  0  0  0  0  0  0  0  0  0
    5.3451   -0.0872   -3.6324 C   0  0  0  0  0  0  0  0  0  0  0  0
    4.4246    0.5868   -5.4530 H   0  0  0  0  0  0  0  0  0  0  0  0
    6.3661    2.0277   -6.0706 H   0  0  0  0  0  0  0  0  0  0  0  0
    8.4115    0.7949   -2.4958 H   0  0  0  0  0  0  0  0  0  0  0  0
    6.4784   -0.6198   -1.8677 H   0  0  0  0  0  0  0  0  0  0  0  0
    3.9847   -1.1829   -3.2223 S   0  0  2  0  0  0  0  0  0  0  0  0
    3.3091    3.5884   -1.9610 O   0  0  0  0  0  0  0  0  0  0  0  0
    3.0134   -1.0899   -4.3430 O   0  0  0  0  0  0  0  0  0  0  0  0
    3.3509   -0.2940   -1.7856 O   0  0  0  0  0  0  0  0  0  0  0  0
    8.7049    2.3678   -4.7140 C   0  0  0  0  0  0  0  0  0  0  0  0
    9.2277    1.9486   -5.5821 H   0  0  0  0  0  0  0  0  0  0  0  0
    8.3836    3.3778   -4.9866 H   0  0  0  0  0  0  0  0  0  0  0  0
    9.4268    2.4506   -3.8971 H   0  0  0  0  0  0  0  0  0  0  0  0
   -2.1593    1.4487   -3.3747 H   0  0  0  0  0  0  0  0  0  0  0  0
  1  7  1  0  0  0  0
  1  2  2  0  0  0  0
  2  8  1  0  0  0  0
  3  2  1  0  0  0  0
  3 11  1  0  0  0  0
  4  3  2  0  0  0  0
  5  6  2  0  0  0  0
  5  4  1  0  0  0  0
  6  1  1  0  0  0  0
  9  4  1  0  0  0  0
 10  5  1  0  0  0  0
 11 26  1  0  0  0  0
 11 12  1  0  0  0  0
 13 18  1  0  0  0  0
 14 13  2  0  0  0  0
 14 15  1  0  0  0  0
 15 16  2  0  0  0  0
 16 17  1  0  0  0  0
 16 21  1  0  0  0  0
 17 22  1  0  0  0  0
 18 23  1  0  0  0  0
 18 17  2  0  0  0  0
 19 13  1  0  0  0  0
 20 14  1  0  0  0  0
 23 25  1  6  0  0  0
 23 26  1  0  0  0  0
 24 12  1  0  0  0  0
 27 15  1  0  0  0  0
 27 30  1  0  0  0  0
 28 27  1  0  0  0  0
 29 27  1  0  0  0  0
 31  6  1  0  0  0  0
M  RAD  3  12   2  24   2  25   2
M  END
