Coordinates from ORCA-job Ph-N2-X-OTs-B3LYPG-6-31G_dp-scan-d09-49-n400
 OpenBabel08281821363D

 31 32  0  0  0  0  0  0  0  0999 V2000
    0.8478    3.2800   -1.1950 C   0  0  0  0  0  0  0  0  0  0  0  0
    1.6524    2.2109   -1.5417 C   0  0  0  0  0  0  0  0  0  0  0  0
    1.2572    1.0367   -2.2225 C   0  0  0  0  0  0  0  0  0  0  0  0
   -0.2211    0.9602   -2.5970 C   0  0  0  0  0  0  0  0  0  0  0  0
   -0.9650    2.0970   -2.2109 C   0  0  0  0  0  0  0  0  0  0  0  0
   -0.4944    3.2168   -1.5429 C   0  0  0  0  0  0  0  0  0  0  0  0
    1.2618    4.1331   -0.6677 H   0  0  0  0  0  0  0  0  0  0  0  0
    2.7030    2.2442   -1.2726 H   0  0  0  0  0  0  0  0  0  0  0  0
   -1.9730    0.4408   -3.2187 H   0  0  0  0  0  0  0  0  0  0  0  0
   -2.0239    2.0968   -2.4669 H   0  0  0  0  0  0  0  0  0  0  0  0
    2.4216    0.1065   -2.4133 N   0  0  0  0  0  0  0  0  0  0  0  0
    3.5947    0.4448   -2.0074 N   0  0  0  0  0  0  0  0  0  0  0  0
    6.7970    0.7758   -3.0545 C   0  0  0  0  0  0  0  0  0  0  0  0
    7.6110    1.4079   -3.9907 C   0  0  0  0  0  0  0  0  0  0  0  0
    7.4625    1.1633   -5.3646 C   0  0  0  0  0  0  0  0  0  0  0  0
    6.4692    0.2655   -5.7833 C   0  0  0  0  0  0  0  0  0  0  0  0
    5.6424   -0.3747   -4.8634 C   0  0  0  0  0  0  0  0  0  0  0  0
    5.8165   -0.1124   -3.5031 C   0  0  0  0  0  0  0  0  0  0  0  0
    6.9221    0.9526   -1.9916 H   0  0  0  0  0  0  0  0  0  0  0  0
    8.3774    2.0996   -3.6506 H   0  0  0  0  0  0  0  0  0  0  0  0
    6.3440    0.0633   -6.8439 H   0  0  0  0  0  0  0  0  0  0  0  0
    4.8787   -1.0754   -5.1833 H   0  0  0  0  0  0  0  0  0  0  0  0
    4.7514   -0.9155   -2.3152 S   0  0  0  0  0  0  0  0  0  0  0  0
   -1.1028    0.0283   -3.2617 O   0  0  0  0  0  0  0  0  0  0  0  0
    5.4562   -1.0313   -1.0356 O   0  0  0  0  0  0  0  0  0  0  0  0
    4.1024   -2.0607   -2.9527 O   0  0  0  0  0  0  0  0  0  0  0  0
    8.3742    1.8274   -6.3679 C   0  0  0  0  0  0  0  0  0  0  0  0
    8.6813    2.8221   -6.0331 H   0  0  0  0  0  0  0  0  0  0  0  0
    9.2869    1.2373   -6.5152 H   0  0  0  0  0  0  0  0  0  0  0  0
    7.8904    1.9284   -7.3434 H   0  0  0  0  0  0  0  0  0  0  0  0
   -1.1826    4.0215   -1.3017 H   0  0  0  0  0  0  0  0  0  0  0  0
  1  7  1  0  0  0  0
  2  8  1  0  0  0  0
  2  1  2  0  0  0  0
  3  2  1  0  0  0  0
  4  3  2  0  0  0  0
  4  5  1  0  0  0  0
  5  6  2  0  0  0  0
  6 31  1  0  0  0  0
  6  1  1  0  0  0  0
 10  5  1  0  0  0  0
 11  3  1  0  0  0  0
 11 12  1  0  0  0  0
 13 19  1  0  0  0  0
 14 20  1  0  0  0  0
 14 13  2  0  0  0  0
 15 14  1  0  0  0  0
 16 15  2  0  0  0  0
 16 17  1  0  0  0  0
 17 18  2  0  0  0  0
 18 13  1  0  0  0  0
 18 23  1  0  0  0  0
 21 16  1  0  0  0  0
 22 17  1  0  0  0  0
 23 12  1  0  0  0  0
 23 25  2  0  0  0  0
 24  9  1  0  0  0  0
 24  4  1  0  0  0  0
 26 23  2  0  0  0  0
 27 28  1  0  0  0  0
 27 15  1  0  0  0  0
 29 27  1  0  0  0  0
 30 27  1  0  0  0  0
M  RAD  2  11   2  12   2
M  END
