Coordinates from ORCA-job Ph-N2-X-OTs-B3LYPG-6-31G_dp-scan-d09-49-n400
 OpenBabel08281821363D

 31 32  0  0  0  0  0  0  0  0999 V2000
   -1.0297    2.4459   -2.9515 C   0  0  0  0  0  0  0  0  0  0  0  0
    0.0209    1.6476   -3.3747 C   0  0  0  0  0  0  0  0  0  0  0  0
    1.1178    1.2977   -2.5529 C   0  0  0  0  0  0  0  0  0  0  0  0
    1.1227    1.8019   -1.2093 C   0  0  0  0  0  0  0  0  0  0  0  0
    0.0469    2.6072   -0.8001 C   0  0  0  0  0  0  0  0  0  0  0  0
   -1.0101    2.9296   -1.6426 C   0  0  0  0  0  0  0  0  0  0  0  0
   -1.8459    2.6853   -3.6243 H   0  0  0  0  0  0  0  0  0  0  0  0
    0.0486    1.2449   -4.3809 H   0  0  0  0  0  0  0  0  0  0  0  0
    1.8862    1.9727    0.5242 H   0  0  0  0  0  0  0  0  0  0  0  0
    0.0547    2.9890    0.2191 H   0  0  0  0  0  0  0  0  0  0  0  0
    2.0002    0.4764   -3.3123 N   0  0  0  0  0  0  0  0  0  0  0  0
    3.0728    0.0148   -2.8988 N   0  0  0  0  0  0  0  0  0  0  0  0
    6.3849   -0.4015   -3.3953 C   0  0  0  0  0  0  0  0  0  0  0  0
    7.6019    0.2636   -3.5220 C   0  0  0  0  0  0  0  0  0  0  0  0
    7.8490    1.1258   -4.6011 C   0  0  0  0  0  0  0  0  0  0  0  0
    6.8383    1.3118   -5.5559 C   0  0  0  0  0  0  0  0  0  0  0  0
    5.6124    0.6595   -5.4442 C   0  0  0  0  0  0  0  0  0  0  0  0
    5.3980   -0.1955   -4.3618 C   0  0  0  0  0  0  0  0  0  0  0  0
    6.2001   -1.0789   -2.5688 H   0  0  0  0  0  0  0  0  0  0  0  0
    8.3747    0.1079   -2.7734 H   0  0  0  0  0  0  0  0  0  0  0  0
    7.0151    1.9743   -6.3993 H   0  0  0  0  0  0  0  0  0  0  0  0
    4.8316    0.7961   -6.1850 H   0  0  0  0  0  0  0  0  0  0  0  0
    3.8248   -1.0278   -4.1987 S   0  0  0  0  0  0  0  0  0  0  0  0
    2.1076    1.5438   -0.3126 O   0  0  0  0  0  0  0  0  0  0  0  0
    4.0334   -2.3174   -3.5302 O   0  0  0  0  0  0  0  0  0  0  0  0
    3.0957   -0.9207   -5.4667 O   0  0  0  0  0  0  0  0  0  0  0  0
    9.1849    1.8138   -4.7483 C   0  0  0  0  0  0  0  0  0  0  0  0
    9.6466    2.0036   -3.7752 H   0  0  0  0  0  0  0  0  0  0  0  0
    9.8822    1.1934   -5.3254 H   0  0  0  0  0  0  0  0  0  0  0  0
    9.0886    2.7688   -5.2727 H   0  0  0  0  0  0  0  0  0  0  0  0
   -1.8154    3.5571   -1.2714 H   0  0  0  0  0  0  0  0  0  0  0  0
  1  6  1  0  0  0  0
  2  1  2  0  0  0  0
  2  3  1  0  0  0  0
  3  4  2  0  0  0  0
  4  5  1  0  0  0  0
  4 24  1  0  0  0  0
  5 10  1  0  0  0  0
  6 31  1  0  0  0  0
  6  5  2  0  0  0  0
  7  1  1  0  0  0  0
  8  2  1  0  0  0  0
 11 12  1  0  0  0  0
 11  3  1  0  0  0  0
 13 19  1  0  0  0  0
 14 13  1  0  0  0  0
 14 20  1  0  0  0  0
 15 14  2  0  0  0  0
 16 17  2  0  0  0  0
 16 15  1  0  0  0  0
 17 18  1  0  0  0  0
 18 23  1  0  0  0  0
 18 13  2  0  0  0  0
 21 16  1  0  0  0  0
 22 17  1  0  0  0  0
 23 25  2  0  0  0  0
 23 12  1  0  0  0  0
 24  9  1  0  0  0  0
 26 23  2  0  0  0  0
 27 15  1  0  0  0  0
 27 28  1  0  0  0  0
 29 27  1  0  0  0  0
 30 27  1  0  0  0  0
M  RAD  2  11   2  12   2
M  END
