Coordinates from ORCA-job Ph-N2-X-OTs-B3LYPG-6-31G_dp-scan-d09-49-n400
 OpenBabel08281821363D

 31 30  0  0  0  0  0  0  0  0999 V2000
   -0.1839    0.5382   -3.6213 C   0  0  0  0  0  0  0  0  0  0  0  0
    1.0934    0.4587   -3.0723 C   0  0  0  0  0  0  0  0  0  0  0  0
    1.4892    1.4871   -2.2155 C   0  0  0  0  0  0  0  0  0  0  0  0
    0.6760    2.5841   -1.8868 C   0  0  0  0  0  0  0  0  0  0  0  0
   -0.5975    2.6233   -2.4452 C   0  0  0  0  0  0  0  0  0  0  0  0
   -1.0273    1.6080   -3.3058 C   0  0  0  0  0  0  0  0  0  0  0  0
   -0.5187   -0.2439   -4.2948 H   0  0  0  0  0  0  0  0  0  0  0  0
    1.7561   -0.3658   -3.3110 H   0  0  0  0  0  0  0  0  0  0  0  0
    1.0877    3.3578   -1.2341 H   0  0  0  0  0  0  0  0  0  0  0  0
   -1.2540    3.4551   -2.2092 H   0  0  0  0  0  0  0  0  0  0  0  0
    2.7832    1.4936   -1.6238 N   0  0  0  0  0  0  0  0  0  0  0  0
    3.5254    2.1039   -1.0095 N   0  0  0  0  0  0  0  0  0  0  0  0
    5.6940   -0.3319   -4.8910 C   0  0  0  0  0  0  0  0  0  0  0  0
    6.7044    0.4632   -5.4326 C   0  0  0  0  0  0  0  0  0  0  0  0
    7.5029    1.2776   -4.6179 C   0  0  0  0  0  0  0  0  0  0  0  0
    7.2669    1.2772   -3.2328 C   0  0  0  0  0  0  0  0  0  0  0  0
    6.2642    0.4911   -2.6730 C   0  0  0  0  0  0  0  0  0  0  0  0
    5.4717   -0.2935   -3.5155 C   0  0  0  0  0  0  0  0  0  0  0  0
    5.0734   -0.9627   -5.5185 H   0  0  0  0  0  0  0  0  0  0  0  0
    6.8760    0.4489   -6.5060 H   0  0  0  0  0  0  0  0  0  0  0  0
    7.8759    1.9037   -2.5861 H   0  0  0  0  0  0  0  0  0  0  0  0
    6.0833    0.5008   -1.6032 H   0  0  0  0  0  0  0  0  0  0  0  0
    4.2159   -1.3908   -2.7939 S   0  0  0  0  0  0  0  0  0  0  0  0
    2.7578    4.1895   -0.4848 O   0  0  0  0  0  0  0  0  0  0  0  0
    3.3117   -1.7848   -3.9258 O   0  0  0  0  0  0  0  0  0  0  0  0
    3.5741   -0.5708   -1.6657 O   0  0  0  0  0  0  0  0  0  0  0  0
    8.5802    2.1528   -5.2103 C   0  0  0  0  0  0  0  0  0  0  0  0
    8.8454    1.8337   -6.2215 H   0  0  0  0  0  0  0  0  0  0  0  0
    8.2473    3.1964   -5.2698 H   0  0  0  0  0  0  0  0  0  0  0  0
    9.4880    2.1389   -4.5987 H   0  0  0  0  0  0  0  0  0  0  0  0
   -2.0235    1.6516   -3.7357 H   0  0  0  0  0  0  0  0  0  0  0  0
  1  6  2  0  0  0  0
  1  2  1  0  0  0  0
  2  3  2  0  0  0  0
  3  4  1  0  0  0  0
  3 11  1  0  0  0  0
  4  9  1  0  0  0  0
  5 10  1  0  0  0  0
  5  4  2  0  0  0  0
  6  5  1  0  0  0  0
  7  1  1  0  0  0  0
  8  2  1  0  0  0  0
 11 12  2  0  0  0  0
 13 18  1  0  0  0  0
 14 13  2  0  0  0  0
 14 15  1  0  0  0  0
 15 16  2  0  0  0  0
 16 17  1  0  0  0  0
 16 21  1  0  0  0  0
 17 22  1  0  0  0  0
 18 23  1  0  0  0  0
 18 17  2  0  0  0  0
 19 13  1  0  0  0  0
 20 14  1  0  0  0  0
 23 26  1  0  0  0  0
 25 23  1  0  0  0  0
 27 15  1  0  0  0  0
 27 30  1  0  0  0  0
 28 27  1  0  0  0  0
 29 27  1  0  0  0  0
 31  6  1  0  0  0  0
M  RAD  4  12   2  24   3  25   2  26   2
M  END
