Coordinates from ORCA-job Ph-N2-X-OTs-B3LYPG-6-31G_dp-scan-d09-49-n400
 OpenBabel08281821363D

 31 32  0  0  0  0  0  0  0  0999 V2000
    0.6554    3.3828   -0.9936 C   0  0  0  0  0  0  0  0  0  0  0  0
    1.6577    2.4599   -1.2569 C   0  0  0  0  0  0  0  0  0  0  0  0
    1.3873    1.3219   -2.0341 C   0  0  0  0  0  0  0  0  0  0  0  0
    0.0927    1.1137   -2.5532 C   0  0  0  0  0  0  0  0  0  0  0  0
   -0.9139    2.0516   -2.2863 C   0  0  0  0  0  0  0  0  0  0  0  0
   -0.6304    3.1726   -1.5121 C   0  0  0  0  0  0  0  0  0  0  0  0
    0.8623    4.2571   -0.3852 H   0  0  0  0  0  0  0  0  0  0  0  0
    2.6601    2.5825   -0.8618 H   0  0  0  0  0  0  0  0  0  0  0  0
   -1.0287   -0.0362   -3.5749 H   0  0  0  0  0  0  0  0  0  0  0  0
   -1.9129    1.8959   -2.6864 H   0  0  0  0  0  0  0  0  0  0  0  0
    2.3242    0.3073   -2.3304 N   0  0  0  0  0  0  0  0  0  0  0  0
    3.5027    0.5707   -2.0508 N   0  0  0  0  0  0  0  0  0  0  0  0
    6.7263    0.7161   -3.0980 C   0  0  0  0  0  0  0  0  0  0  0  0
    7.5813    1.3084   -4.0234 C   0  0  0  0  0  0  0  0  0  0  0  0
    7.4232    1.0903   -5.4009 C   0  0  0  0  0  0  0  0  0  0  0  0
    6.3780    0.2611   -5.8333 C   0  0  0  0  0  0  0  0  0  0  0  0
    5.5095   -0.3379   -4.9233 C   0  0  0  0  0  0  0  0  0  0  0  0
    5.6937   -0.1039   -3.5596 C   0  0  0  0  0  0  0  0  0  0  0  0
    6.8585    0.8713   -2.0326 H   0  0  0  0  0  0  0  0  0  0  0  0
    8.3880    1.9466   -3.6723 H   0  0  0  0  0  0  0  0  0  0  0  0
    6.2448    0.0796   -6.8967 H   0  0  0  0  0  0  0  0  0  0  0  0
    4.7051   -0.9861   -5.2538 H   0  0  0  0  0  0  0  0  0  0  0  0
    4.5769   -0.8539   -2.3826 S   0  0  0  0  0  0  0  0  0  0  0  0
   -0.1014    0.0095   -3.3058 O   0  0  0  0  0  0  0  0  0  0  0  0
    5.2836   -1.0472   -1.1112 O   0  0  0  0  0  0  0  0  0  0  0  0
    3.8522   -1.9434   -3.0411 O   0  0  0  0  0  0  0  0  0  0  0  0
    8.3786    1.7100   -6.3921 C   0  0  0  0  0  0  0  0  0  0  0  0
    8.7088    2.6998   -6.0643 H   0  0  0  0  0  0  0  0  0  0  0  0
    9.2760    1.0903   -6.5090 H   0  0  0  0  0  0  0  0  0  0  0  0
    7.9209    1.8119   -7.3800 H   0  0  0  0  0  0  0  0  0  0  0  0
   -1.4209    3.8886   -1.3060 H   0  0  0  0  0  0  0  0  0  0  0  0
  1  7  1  0  0  0  0
  2  1  1  0  0  0  0
  2  8  1  0  0  0  0
  3  2  2  0  0  0  0
  4  5  2  0  0  0  0
  4  3  1  0  0  0  0
  5  6  1  0  0  0  0
  6 31  1  0  0  0  0
  6  1  2  0  0  0  0
  9 24  1  0  0  0  0
 10  5  1  0  0  0  0
 11 12  1  0  0  0  0
 11  3  1  0  0  0  0
 13 19  1  0  0  0  0
 14 20  1  0  0  0  0
 14 13  2  0  0  0  0
 15 14  1  0  0  0  0
 16 15  2  0  0  0  0
 16 17  1  0  0  0  0
 17 18  2  0  0  0  0
 18 13  1  0  0  0  0
 18 23  1  0  0  0  0
 21 16  1  0  0  0  0
 22 17  1  0  0  0  0
 23 12  1  0  0  0  0
 23 25  2  0  0  0  0
 24  4  1  0  0  0  0
 26 23  2  0  0  0  0
 27 28  1  0  0  0  0
 27 15  1  0  0  0  0
 29 27  1  0  0  0  0
 30 27  1  0  0  0  0
M  RAD  2  11   2  12   2
M  END
