Coordinates from ORCA-job Ph-N2-X-OTs-B3LYPG-6-31G_dp-scan-d09-49-n400
 OpenBabel08281821363D

 31 32  0  0  0  0  0  0  0  0999 V2000
   -0.6933    0.2477   -2.2935 C   0  0  0  0  0  0  0  0  0  0  0  0
    0.6619    0.1658   -1.9896 C   0  0  0  0  0  0  0  0  0  0  0  0
    1.5177    1.1958   -2.4026 C   0  0  0  0  0  0  0  0  0  0  0  0
    1.0362    2.2982   -3.1194 C   0  0  0  0  0  0  0  0  0  0  0  0
   -0.3229    2.3497   -3.4260 C   0  0  0  0  0  0  0  0  0  0  0  0
   -1.1899    1.3368   -3.0145 C   0  0  0  0  0  0  0  0  0  0  0  0
   -1.3605   -0.5441   -1.9676 H   0  0  0  0  0  0  0  0  0  0  0  0
    1.0568   -0.6785   -1.4401 H   0  0  0  0  0  0  0  0  0  0  0  0
    1.7227    3.0844   -3.3933 H   0  0  0  0  0  0  0  0  0  0  0  0
   -0.7033    3.1978   -3.9874 H   0  0  0  0  0  0  0  0  0  0  0  0
    2.9147    1.0760   -2.0771 N   0  0  0  0  0  0  0  0  0  0  0  0
    3.8383    1.9345   -1.8834 N   0  0  0  0  0  0  0  0  0  0  0  0
    5.3464    0.7116   -4.8368 C   0  0  0  0  0  0  0  0  0  0  0  0
    6.4570    1.4911   -5.1437 C   0  0  0  0  0  0  0  0  0  0  0  0
    7.5871    1.5036   -4.3104 C   0  0  0  0  0  0  0  0  0  0  0  0
    7.5793    0.7100   -3.1531 C   0  0  0  0  0  0  0  0  0  0  0  0
    6.4772   -0.0754   -2.8286 C   0  0  0  0  0  0  0  0  0  0  0  0
    5.3649   -0.0606   -3.6739 C   0  0  0  0  0  0  0  0  0  0  0  0
    4.4697    0.6909   -5.4761 H   0  0  0  0  0  0  0  0  0  0  0  0
    6.4481    2.1026   -6.0420 H   0  0  0  0  0  0  0  0  0  0  0  0
    8.4448    0.7147   -2.4962 H   0  0  0  0  0  0  0  0  0  0  0  0
    6.4762   -0.6719   -1.9206 H   0  0  0  0  0  0  0  0  0  0  0  0
    3.9749   -1.1274   -3.2950 S   0  0  2  0  0  0  0  0  0  0  0  0
    3.3186    3.4279   -2.0665 O   0  0  0  0  0  0  0  0  0  0  0  0
    3.0103   -0.9798   -4.4163 O   0  0  0  0  0  0  0  0  0  0  0  0
    3.3502   -0.2274   -1.8377 O   0  0  0  0  0  0  0  0  0  0  0  0
    8.7897    2.3421   -4.6668 C   0  0  0  0  0  0  0  0  0  0  0  0
    9.3418    1.8988   -5.5044 H   0  0  0  0  0  0  0  0  0  0  0  0
    8.4925    3.3499   -4.9722 H   0  0  0  0  0  0  0  0  0  0  0  0
    9.4801    2.4323   -3.8238 H   0  0  0  0  0  0  0  0  0  0  0  0
   -2.2478    1.3939   -3.2535 H   0  0  0  0  0  0  0  0  0  0  0  0
  1  2  1  0  0  0  0
  1  7  1  0  0  0  0
  2  8  1  0  0  0  0
  3 11  1  0  0  0  0
  3  2  2  0  0  0  0
  4  3  1  0  0  0  0
  5  4  2  0  0  0  0
  5  6  1  0  0  0  0
  6  1  2  0  0  0  0
  9  4  1  0  0  0  0
 10  5  1  0  0  0  0
 11 12  1  0  0  0  0
 11 26  1  0  0  0  0
 13 18  1  0  0  0  0
 14 13  2  0  0  0  0
 14 15  1  0  0  0  0
 15 16  2  0  0  0  0
 16 17  1  0  0  0  0
 16 21  1  0  0  0  0
 17 22  1  0  0  0  0
 18 23  1  0  0  0  0
 18 17  2  0  0  0  0
 19 13  1  0  0  0  0
 20 14  1  0  0  0  0
 23 25  1  6  0  0  0
 23 26  1  0  0  0  0
 24 12  1  0  0  0  0
 27 15  1  0  0  0  0
 27 30  1  0  0  0  0
 28 27  1  0  0  0  0
 29 27  1  0  0  0  0
 31  6  1  0  0  0  0
M  RAD  3  12   2  24   2  25   2
M  END
