Coordinates from ORCA-job Ph-N2-X-OTs-B3LYPG-6-31G_dp-scan-d09-49-n400
 OpenBabel08281821363D

 31 32  0  0  0  0  0  0  0  0999 V2000
    0.8355    3.3181   -1.1771 C   0  0  0  0  0  0  0  0  0  0  0  0
    1.6788    2.2751   -1.5059 C   0  0  0  0  0  0  0  0  0  0  0  0
    1.2956    1.0963   -2.1906 C   0  0  0  0  0  0  0  0  0  0  0  0
   -0.1312    0.9867   -2.5700 C   0  0  0  0  0  0  0  0  0  0  0  0
   -0.9428    2.0854   -2.2096 C   0  0  0  0  0  0  0  0  0  0  0  0
   -0.5061    3.2166   -1.5408 C   0  0  0  0  0  0  0  0  0  0  0  0
    1.2131    4.1867   -0.6478 H   0  0  0  0  0  0  0  0  0  0  0  0
    2.7256    2.3277   -1.2275 H   0  0  0  0  0  0  0  0  0  0  0  0
   -1.7675    0.3006   -3.2891 H   0  0  0  0  0  0  0  0  0  0  0  0
   -1.9960    2.0315   -2.4817 H   0  0  0  0  0  0  0  0  0  0  0  0
    2.3828    0.1438   -2.4110 N   0  0  0  0  0  0  0  0  0  0  0  0
    3.5549    0.4581   -2.0224 N   0  0  0  0  0  0  0  0  0  0  0  0
    6.7627    0.7611   -3.0590 C   0  0  0  0  0  0  0  0  0  0  0  0
    7.5889    1.3893   -3.9870 C   0  0  0  0  0  0  0  0  0  0  0  0
    7.4450    1.1543   -5.3632 C   0  0  0  0  0  0  0  0  0  0  0  0
    6.4436    0.2706   -5.7922 C   0  0  0  0  0  0  0  0  0  0  0  0
    5.6045   -0.3651   -4.8802 C   0  0  0  0  0  0  0  0  0  0  0  0
    5.7740   -0.1128   -3.5176 C   0  0  0  0  0  0  0  0  0  0  0  0
    6.8846    0.9300   -1.9943 H   0  0  0  0  0  0  0  0  0  0  0  0
    8.3615    2.0699   -3.6389 H   0  0  0  0  0  0  0  0  0  0  0  0
    6.3219    0.0758   -6.8546 H   0  0  0  0  0  0  0  0  0  0  0  0
    4.8344   -1.0551   -5.2079 H   0  0  0  0  0  0  0  0  0  0  0  0
    4.6934   -0.9112   -2.3396 S   0  0  0  0  0  0  0  0  0  0  0  0
   -0.8565   -0.0118   -3.2357 O   0  0  0  0  0  0  0  0  0  0  0  0
    5.3966   -1.0525   -1.0611 O   0  0  0  0  0  0  0  0  0  0  0  0
    4.0302   -2.0413   -2.9910 O   0  0  0  0  0  0  0  0  0  0  0  0
    8.3699    1.8138   -6.3576 C   0  0  0  0  0  0  0  0  0  0  0  0
    8.6730    2.8098   -6.0230 H   0  0  0  0  0  0  0  0  0  0  0  0
    9.2844    1.2230   -6.4904 H   0  0  0  0  0  0  0  0  0  0  0  0
    7.8988    1.9109   -7.3396 H   0  0  0  0  0  0  0  0  0  0  0  0
   -1.2141    4.0057   -1.3055 H   0  0  0  0  0  0  0  0  0  0  0  0
  1  7  1  0  0  0  0
  2  8  1  0  0  0  0
  2  1  1  0  0  0  0
  3  2  2  0  0  0  0
  4  5  2  0  0  0  0
  4  3  1  0  0  0  0
  5  6  1  0  0  0  0
  6 31  1  0  0  0  0
  6  1  2  0  0  0  0
  9 24  1  0  0  0  0
 10  5  1  0  0  0  0
 11  3  1  0  0  0  0
 11 12  1  0  0  0  0
 13 19  1  0  0  0  0
 14 20  1  0  0  0  0
 14 13  2  0  0  0  0
 15 14  1  0  0  0  0
 16 15  2  0  0  0  0
 16 17  1  0  0  0  0
 17 18  2  0  0  0  0
 18 13  1  0  0  0  0
 18 23  1  0  0  0  0
 21 16  1  0  0  0  0
 22 17  1  0  0  0  0
 23 12  1  0  0  0  0
 23 25  2  0  0  0  0
 24  4  1  0  0  0  0
 26 23  2  0  0  0  0
 27 28  1  0  0  0  0
 27 15  1  0  0  0  0
 29 27  1  0  0  0  0
 30 27  1  0  0  0  0
M  RAD  2  11   2  12   2
M  END
