Coordinates from ORCA-job Ph-N2-X-OTs-B3LYPG-6-31G_dp-scan-d09-49-n400
 OpenBabel08281821363D

 31 32  0  0  0  0  0  0  0  0999 V2000
    0.5144    3.6388   -2.4115 C   0  0  0  0  0  0  0  0  0  0  0  0
    1.4293    2.6710   -2.8358 C   0  0  0  0  0  0  0  0  0  0  0  0
    1.2428    1.3455   -2.4600 C   0  0  0  0  0  0  0  0  0  0  0  0
    0.1770    0.9704   -1.6325 C   0  0  0  0  0  0  0  0  0  0  0  0
   -0.7281    1.9401   -1.2010 C   0  0  0  0  0  0  0  0  0  0  0  0
   -0.5596    3.2692   -1.6010 C   0  0  0  0  0  0  0  0  0  0  0  0
    0.6427    4.6728   -2.7141 H   0  0  0  0  0  0  0  0  0  0  0  0
    2.2713    2.9287   -3.4703 H   0  0  0  0  0  0  0  0  0  0  0  0
   -0.6338   -0.5286   -0.7567 H   0  0  0  0  0  0  0  0  0  0  0  0
   -1.5522    1.6588   -0.5492 H   0  0  0  0  0  0  0  0  0  0  0  0
    2.0653    0.2689   -2.9365 N   0  0  0  0  0  0  0  0  0  0  0  0
    3.2066    0.2886   -2.4800 N   0  0  0  0  0  0  0  0  0  0  0  0
    6.5538    0.2567   -3.0790 C   0  0  0  0  0  0  0  0  0  0  0  0
    7.5844    0.9799   -3.6739 C   0  0  0  0  0  0  0  0  0  0  0  0
    7.6009    1.2164   -5.0574 C   0  0  0  0  0  0  0  0  0  0  0  0
    6.5513    0.7100   -5.8378 C   0  0  0  0  0  0  0  0  0  0  0  0
    5.5091   -0.0135   -5.2615 C   0  0  0  0  0  0  0  0  0  0  0  0
    5.5223   -0.2341   -3.8831 C   0  0  0  0  0  0  0  0  0  0  0  0
    6.5488    0.0601   -2.0123 H   0  0  0  0  0  0  0  0  0  0  0  0
    8.3914    1.3647   -3.0559 H   0  0  0  0  0  0  0  0  0  0  0  0
    6.5512    0.8836   -6.9107 H   0  0  0  0  0  0  0  0  0  0  0  0
    4.7005   -0.4144   -5.8632 H   0  0  0  0  0  0  0  0  0  0  0  0
    4.1791   -1.1388   -3.1286 S   0  0  0  0  0  0  0  0  0  0  0  0
    0.1603   -0.3408   -1.2745 O   0  0  0  0  0  0  0  0  0  0  0  0
    4.6638   -1.7975   -1.9114 O   0  0  0  0  0  0  0  0  0  0  0  0
    3.4418   -1.8584   -4.1701 O   0  0  0  0  0  0  0  0  0  0  0  0
    8.7406    1.9743   -5.6941 C   0  0  0  0  0  0  0  0  0  0  0  0
    9.1111    2.7673   -5.0375 H   0  0  0  0  0  0  0  0  0  0  0  0
    9.5842    1.3053   -5.9041 H   0  0  0  0  0  0  0  0  0  0  0  0
    8.4399    2.4281   -6.6423 H   0  0  0  0  0  0  0  0  0  0  0  0
   -1.2709    4.0179   -1.2661 H   0  0  0  0  0  0  0  0  0  0  0  0
  1  6  2  0  0  0  0
  2  3  2  0  0  0  0
  2  1  1  0  0  0  0
  3  4  1  0  0  0  0
  4 24  1  0  0  0  0
  4  5  2  0  0  0  0
  5 10  1  0  0  0  0
  6 31  1  0  0  0  0
  6  5  1  0  0  0  0
  7  1  1  0  0  0  0
  8  2  1  0  0  0  0
 11 12  1  0  0  0  0
 11  3  1  0  0  0  0
 13 19  1  0  0  0  0
 14 13  1  0  0  0  0
 14 20  1  0  0  0  0
 15 14  2  0  0  0  0
 16 17  2  0  0  0  0
 16 15  1  0  0  0  0
 17 18  1  0  0  0  0
 18 23  1  0  0  0  0
 18 13  2  0  0  0  0
 21 16  1  0  0  0  0
 22 17  1  0  0  0  0
 23 12  1  0  0  0  0
 23 25  2  0  0  0  0
 24  9  1  0  0  0  0
 26 23  2  0  0  0  0
 27 15  1  0  0  0  0
 27 28  1  0  0  0  0
 29 27  1  0  0  0  0
 30 27  1  0  0  0  0
M  RAD  2  11   2  12   2
M  END
