Coordinates from ORCA-job Ph-N2-X-OTs-B3LYPG-6-31G_dp-scan-d09-49-n400
 OpenBabel08281821363D

 31 32  0  0  0  0  0  0  0  0999 V2000
   -0.5131    0.1692   -1.3072 C   0  0  0  0  0  0  0  0  0  0  0  0
    0.7871    0.5760   -1.5953 C   0  0  0  0  0  0  0  0  0  0  0  0
    1.0194    1.4441   -2.6710 C   0  0  0  0  0  0  0  0  0  0  0  0
   -0.0450    1.9009   -3.4604 C   0  0  0  0  0  0  0  0  0  0  0  0
   -1.3405    1.4868   -3.1525 C   0  0  0  0  0  0  0  0  0  0  0  0
   -1.5822    0.6260   -2.0805 C   0  0  0  0  0  0  0  0  0  0  0  0
   -0.6898   -0.5027   -0.4724 H   0  0  0  0  0  0  0  0  0  0  0  0
    1.6252    0.2293   -1.0033 H   0  0  0  0  0  0  0  0  0  0  0  0
    0.1391    2.5624   -4.2937 H   0  0  0  0  0  0  0  0  0  0  0  0
   -2.1653    1.8392   -3.7643 H   0  0  0  0  0  0  0  0  0  0  0  0
    2.3717    1.8200   -2.9416 N   0  0  0  0  0  0  0  0  0  0  0  0
    2.8525    2.9779   -3.4892 N   0  0  0  0  0  0  0  0  0  0  0  0
    5.9232    1.5690   -4.7694 C   0  0  0  0  0  0  0  0  0  0  0  0
    7.2619    1.9421   -4.7451 C   0  0  0  0  0  0  0  0  0  0  0  0
    8.2186    1.1806   -4.0510 C   0  0  0  0  0  0  0  0  0  0  0  0
    7.7982    0.0273   -3.3750 C   0  0  0  0  0  0  0  0  0  0  0  0
    6.4599   -0.3644   -3.3907 C   0  0  0  0  0  0  0  0  0  0  0  0
    5.5327    0.4143   -4.0855 C   0  0  0  0  0  0  0  0  0  0  0  0
    5.1780    2.1527   -5.2990 H   0  0  0  0  0  0  0  0  0  0  0  0
    7.5753    2.8423   -5.2674 H   0  0  0  0  0  0  0  0  0  0  0  0
    8.5259   -0.5721   -2.8349 H   0  0  0  0  0  0  0  0  0  0  0  0
    6.1460   -1.2647   -2.8685 H   0  0  0  0  0  0  0  0  0  0  0  0
    3.8233   -0.1092   -4.0992 S   0  0  2  0  0  0  0  0  0  0  0  0
    2.0072    3.8178   -3.7544 O   0  0  0  0  0  0  0  0  0  0  0  0
    3.1412    0.5809   -5.2301 O   0  0  0  0  0  0  0  0  0  0  0  0
    3.3492    0.9650   -2.5895 O   0  0  0  0  0  0  0  0  0  0  0  0
    9.6717    1.5875   -4.0595 C   0  0  0  0  0  0  0  0  0  0  0  0
   10.1525    1.3010   -5.0034 H   0  0  0  0  0  0  0  0  0  0  0  0
    9.7827    2.6716   -3.9574 H   0  0  0  0  0  0  0  0  0  0  0  0
   10.2282    1.1091   -3.2492 H   0  0  0  0  0  0  0  0  0  0  0  0
   -2.5956    0.3108   -1.8513 H   0  0  0  0  0  0  0  0  0  0  0  0
  1  7  1  0  0  0  0
  2  1  1  0  0  0  0
  2  8  1  0  0  0  0
  3  2  2  0  0  0  0
  4  5  2  0  0  0  0
  4  3  1  0  0  0  0
  5  6  1  0  0  0  0
  6 31  1  0  0  0  0
  6  1  2  0  0  0  0
  9  4  1  0  0  0  0
 10  5  1  0  0  0  0
 11  3  1  0  0  0  0
 11 26  1  0  0  0  0
 12 11  1  0  0  0  0
 13 14  2  0  0  0  0
 13 18  1  0  0  0  0
 14 15  1  0  0  0  0
 15 16  2  0  0  0  0
 16 21  1  0  0  0  0
 17 16  1  0  0  0  0
 17 22  1  0  0  0  0
 18 17  2  0  0  0  0
 19 13  1  0  0  0  0
 20 14  1  0  0  0  0
 23 25  1  6  0  0  0
 23 18  1  0  0  0  0
 23 26  1  0  0  0  0
 24 12  2  0  0  0  0
 27 15  1  0  0  0  0
 27 29  1  0  0  0  0
 27 30  1  0  0  0  0
 28 27  1  0  0  0  0
M  RAD  1  25   2
M  END
