Coordinates from ORCA-job Ph-N2-X-OTs-B3LYPG-6-31G_dp-scan-d09-49-n400
 OpenBabel08281821363D

 31 31  0  0  0  0  0  0  0  0999 V2000
   -0.6236    0.2476   -2.4966 C   0  0  0  0  0  0  0  0  0  0  0  0
    0.7059    0.1278   -2.1046 C   0  0  0  0  0  0  0  0  0  0  0  0
    1.5844    1.1828   -2.3819 C   0  0  0  0  0  0  0  0  0  0  0  0
    1.1680    2.3434   -3.0419 C   0  0  0  0  0  0  0  0  0  0  0  0
   -0.1651    2.4290   -3.4399 C   0  0  0  0  0  0  0  0  0  0  0  0
   -1.0606    1.3932   -3.1681 C   0  0  0  0  0  0  0  0  0  0  0  0
   -1.3169   -0.5589   -2.2798 H   0  0  0  0  0  0  0  0  0  0  0  0
    1.0564   -0.7572   -1.5924 H   0  0  0  0  0  0  0  0  0  0  0  0
    1.8925    3.1394   -3.1761 H   0  0  0  0  0  0  0  0  0  0  0  0
   -0.5040    3.3197   -3.9600 H   0  0  0  0  0  0  0  0  0  0  0  0
    2.9658    1.0642   -1.9657 N   0  0  0  0  0  0  0  0  0  0  0  0
    3.8664    1.8654   -1.7287 N   0  0  0  0  0  0  0  0  0  0  0  0
    5.2932    0.5420   -4.8095 C   0  0  0  0  0  0  0  0  0  0  0  0
    6.3688    1.3445   -5.1837 C   0  0  0  0  0  0  0  0  0  0  0  0
    7.4855    1.4952   -4.3488 C   0  0  0  0  0  0  0  0  0  0  0  0
    7.5083    0.8094   -3.1227 C   0  0  0  0  0  0  0  0  0  0  0  0
    6.4445    0.0047   -2.7311 C   0  0  0  0  0  0  0  0  0  0  0  0
    5.3382   -0.1126   -3.5790 C   0  0  0  0  0  0  0  0  0  0  0  0
    4.4282    0.4123   -5.4516 H   0  0  0  0  0  0  0  0  0  0  0  0
    6.3426    1.8619   -6.1383 H   0  0  0  0  0  0  0  0  0  0  0  0
    8.3685    0.9155   -2.4677 H   0  0  0  0  0  0  0  0  0  0  0  0
    6.4647   -0.5065   -1.7732 H   0  0  0  0  0  0  0  0  0  0  0  0
    4.0008   -1.2233   -3.1239 S   0  0  2  0  0  0  0  0  0  0  0  0
    3.3244    3.6783   -1.9267 O   0  0  0  0  0  0  0  0  0  0  0  0
    3.0305   -1.1980   -4.2494 O   0  0  0  0  0  0  0  0  0  0  0  0
    3.3567   -0.3120   -1.7284 O   0  0  0  0  0  0  0  0  0  0  0  0
    8.6305    2.3944   -4.7436 C   0  0  0  0  0  0  0  0  0  0  0  0
    8.6777    2.5333   -5.8271 H   0  0  0  0  0  0  0  0  0  0  0  0
    8.5150    3.3858   -4.2894 H   0  0  0  0  0  0  0  0  0  0  0  0
    9.5903    1.9930   -4.4052 H   0  0  0  0  0  0  0  0  0  0  0  0
   -2.0984    1.4765   -3.4770 H   0  0  0  0  0  0  0  0  0  0  0  0
  1  7  1  0  0  0  0
  1  2  2  0  0  0  0
  2  8  1  0  0  0  0
  3  2  1  0  0  0  0
  3 11  1  0  0  0  0
  4  3  2  0  0  0  0
  5  6  2  0  0  0  0
  5  4  1  0  0  0  0
  6  1  1  0  0  0  0
  9  4  1  0  0  0  0
 10  5  1  0  0  0  0
 11 12  1  0  0  0  0
 11 26  1  0  0  0  0
 13 18  1  0  0  0  0
 14 13  2  0  0  0  0
 14 15  1  0  0  0  0
 15 16  2  0  0  0  0
 16 17  1  0  0  0  0
 16 21  1  0  0  0  0
 17 22  1  0  0  0  0
 18 23  1  0  0  0  0
 18 17  2  0  0  0  0
 19 13  1  0  0  0  0
 20 14  1  0  0  0  0
 23 25  1  6  0  0  0
 23 26  1  0  0  0  0
 27 30  1  0  0  0  0
 27 15  1  0  0  0  0
 27 29  1  0  0  0  0
 28 27  1  0  0  0  0
 31  6  1  0  0  0  0
M  RAD  3  12   3  24   3  25   2
M  END
