Coordinates from ORCA-job Ph-N2-X-OTs-B3LYPG-6-31G_dp-scan-d09-49-n400
 OpenBabel08281821363D

 31 30  0  0  0  0  0  0  0  0999 V2000
   -0.1870    0.5374   -3.6198 C   0  0  0  0  0  0  0  0  0  0  0  0
    1.0912    0.4586   -3.0730 C   0  0  0  0  0  0  0  0  0  0  0  0
    1.4883    1.4872   -2.2169 C   0  0  0  0  0  0  0  0  0  0  0  0
    0.6747    2.5840   -1.8868 C   0  0  0  0  0  0  0  0  0  0  0  0
   -0.5999    2.6222   -2.4431 C   0  0  0  0  0  0  0  0  0  0  0  0
   -1.0305    1.6066   -3.3030 C   0  0  0  0  0  0  0  0  0  0  0  0
   -0.5227   -0.2449   -4.2927 H   0  0  0  0  0  0  0  0  0  0  0  0
    1.7537   -0.3657   -3.3131 H   0  0  0  0  0  0  0  0  0  0  0  0
    1.0865    3.3585   -1.2352 H   0  0  0  0  0  0  0  0  0  0  0  0
   -1.2565    3.4535   -2.2060 H   0  0  0  0  0  0  0  0  0  0  0  0
    2.7837    1.4931   -1.6279 N   0  0  0  0  0  0  0  0  0  0  0  0
    3.5257    2.1059   -1.0152 N   0  0  0  0  0  0  0  0  0  0  0  0
    5.6943   -0.3301   -4.8908 C   0  0  0  0  0  0  0  0  0  0  0  0
    6.7054    0.4643   -5.4320 C   0  0  0  0  0  0  0  0  0  0  0  0
    7.5045    1.2777   -4.6170 C   0  0  0  0  0  0  0  0  0  0  0  0
    7.2684    1.2770   -3.2318 C   0  0  0  0  0  0  0  0  0  0  0  0
    6.2650    0.4915   -2.6723 C   0  0  0  0  0  0  0  0  0  0  0  0
    5.4719   -0.2920   -3.5153 C   0  0  0  0  0  0  0  0  0  0  0  0
    5.0732   -0.9602   -5.5186 H   0  0  0  0  0  0  0  0  0  0  0  0
    6.8771    0.4502   -6.5054 H   0  0  0  0  0  0  0  0  0  0  0  0
    7.8778    1.9027   -2.5849 H   0  0  0  0  0  0  0  0  0  0  0  0
    6.0840    0.5011   -1.6026 H   0  0  0  0  0  0  0  0  0  0  0  0
    4.2154   -1.3886   -2.7944 S   0  0  0  0  0  0  0  0  0  0  0  0
    2.7664    4.1848   -0.4954 O   0  0  0  0  0  0  0  0  0  0  0  0
    3.3120   -1.7834   -3.9266 O   0  0  0  0  0  0  0  0  0  0  0  0
    3.5732   -0.5687   -1.6664 O   0  0  0  0  0  0  0  0  0  0  0  0
    8.5826    2.1521   -5.2089 C   0  0  0  0  0  0  0  0  0  0  0  0
    8.8468    1.8340   -6.2207 H   0  0  0  0  0  0  0  0  0  0  0  0
    8.2511    3.1963   -5.2668 H   0  0  0  0  0  0  0  0  0  0  0  0
    9.4907    2.1362   -4.5979 H   0  0  0  0  0  0  0  0  0  0  0  0
   -2.0275    1.6496   -3.7311 H   0  0  0  0  0  0  0  0  0  0  0  0
  1  6  2  0  0  0  0
  1  2  1  0  0  0  0
  2  3  2  0  0  0  0
  3  4  1  0  0  0  0
  3 11  1  0  0  0  0
  4  9  1  0  0  0  0
  5 10  1  0  0  0  0
  5  4  2  0  0  0  0
  6  5  1  0  0  0  0
  7  1  1  0  0  0  0
  8  2  1  0  0  0  0
 11 12  2  0  0  0  0
 13 18  1  0  0  0  0
 14 13  2  0  0  0  0
 14 15  1  0  0  0  0
 15 16  2  0  0  0  0
 16 17  1  0  0  0  0
 16 21  1  0  0  0  0
 17 22  1  0  0  0  0
 18 23  1  0  0  0  0
 18 17  2  0  0  0  0
 19 13  1  0  0  0  0
 20 14  1  0  0  0  0
 23 26  1  0  0  0  0
 25 23  1  0  0  0  0
 27 15  1  0  0  0  0
 27 30  1  0  0  0  0
 28 27  1  0  0  0  0
 29 27  1  0  0  0  0
 31  6  1  0  0  0  0
M  RAD  4  12   2  24   3  25   2  26   2
M  END
