Coordinates from ORCA-job Ph-N2-X-OTs-B3LYPG-6-31G_dp-scan-d09-49-n400
 OpenBabel08281821363D

 31 30  0  0  0  0  0  0  0  0999 V2000
    0.0449    0.6051   -3.7417 C   0  0  0  0  0  0  0  0  0  0  0  0
    1.2342    0.4617   -3.0323 C   0  0  0  0  0  0  0  0  0  0  0  0
    1.5506    1.4630   -2.1114 C   0  0  0  0  0  0  0  0  0  0  0  0
    0.7482    2.5920   -1.8684 C   0  0  0  0  0  0  0  0  0  0  0  0
   -0.4343    2.6936   -2.5933 C   0  0  0  0  0  0  0  0  0  0  0  0
   -0.7863    1.7082   -3.5221 C   0  0  0  0  0  0  0  0  0  0  0  0
   -0.2299   -0.1539   -4.4665 H   0  0  0  0  0  0  0  0  0  0  0  0
    1.8861   -0.3903   -3.1952 H   0  0  0  0  0  0  0  0  0  0  0  0
    1.0777    3.3476   -1.1420 H   0  0  0  0  0  0  0  0  0  0  0  0
   -1.0811    3.5501   -2.4310 H   0  0  0  0  0  0  0  0  0  0  0  0
    2.7409    1.4145   -1.3418 N   0  0  0  0  0  0  0  0  0  0  0  0
    3.4268    1.8973   -0.5854 N   0  0  0  0  0  0  0  0  0  0  0  0
    5.6330   -0.3938   -4.8718 C   0  0  0  0  0  0  0  0  0  0  0  0
    6.5939    0.4315   -5.4567 C   0  0  0  0  0  0  0  0  0  0  0  0
    7.3927    1.2814   -4.6787 C   0  0  0  0  0  0  0  0  0  0  0  0
    7.2074    1.2851   -3.2866 C   0  0  0  0  0  0  0  0  0  0  0  0
    6.2524    0.4692   -2.6852 C   0  0  0  0  0  0  0  0  0  0  0  0
    5.4586   -0.3524   -3.4894 C   0  0  0  0  0  0  0  0  0  0  0  0
    5.0120   -1.0514   -5.4710 H   0  0  0  0  0  0  0  0  0  0  0  0
    6.7268    0.4137   -6.5359 H   0  0  0  0  0  0  0  0  0  0  0  0
    7.8195    1.9359   -2.6672 H   0  0  0  0  0  0  0  0  0  0  0  0
    6.1127    0.4781   -1.6088 H   0  0  0  0  0  0  0  0  0  0  0  0
    4.2689   -1.4897   -2.7056 S   0  0  0  0  0  0  0  0  0  0  0  0
    2.2719    4.3733    0.0029 O   0  0  0  0  0  0  0  0  0  0  0  0
    3.3237   -1.8974   -3.8045 O   0  0  0  0  0  0  0  0  0  0  0  0
    3.6465   -0.6744   -1.5672 O   0  0  0  0  0  0  0  0  0  0  0  0
    8.4150    2.1890   -5.3190 C   0  0  0  0  0  0  0  0  0  0  0  0
    8.6947    1.8379   -6.3157 H   0  0  0  0  0  0  0  0  0  0  0  0
    8.0215    3.2073   -5.4276 H   0  0  0  0  0  0  0  0  0  0  0  0
    9.3242    2.2577   -4.7137 H   0  0  0  0  0  0  0  0  0  0  0  0
   -1.7138    1.8008   -4.0793 H   0  0  0  0  0  0  0  0  0  0  0  0
  1  6  2  0  0  0  0
  1  2  1  0  0  0  0
  2  3  2  0  0  0  0
  3  4  1  0  0  0  0
  3 11  1  0  0  0  0
  4  9  1  0  0  0  0
  5 10  1  0  0  0  0
  5  4  2  0  0  0  0
  6  5  1  0  0  0  0
  7  1  1  0  0  0  0
  8  2  1  0  0  0  0
 11 12  2  0  0  0  0
 13 18  1  0  0  0  0
 14 13  2  0  0  0  0
 14 15  1  0  0  0  0
 15 16  2  0  0  0  0
 16 17  1  0  0  0  0
 16 21  1  0  0  0  0
 17 22  1  0  0  0  0
 18 23  1  0  0  0  0
 18 17  2  0  0  0  0
 19 13  1  0  0  0  0
 20 14  1  0  0  0  0
 23 26  1  0  0  0  0
 25 23  1  0  0  0  0
 27 30  1  0  0  0  0
 27 15  1  0  0  0  0
 28 27  1  0  0  0  0
 29 27  1  0  0  0  0
 31  6  1  0  0  0  0
M  RAD  4  12   2  24   3  25   2  26   2
M  END
