Coordinates from ORCA-job Ph-N2-X-OTs-B3LYPG-6-31G_dp-scan-d09-49-n400
 OpenBabel08281821363D

 31 30  0  0  0  0  0  0  0  0999 V2000
   -0.0686    0.5781   -3.6884 C   0  0  0  0  0  0  0  0  0  0  0  0
    1.1736    0.4837   -3.0667 C   0  0  0  0  0  0  0  0  0  0  0  0
    1.5122    1.4937   -2.1641 C   0  0  0  0  0  0  0  0  0  0  0  0
    0.6824    2.5855   -1.8570 C   0  0  0  0  0  0  0  0  0  0  0  0
   -0.5538    2.6380   -2.4922 C   0  0  0  0  0  0  0  0  0  0  0  0
   -0.9296    1.6420   -3.4000 C   0  0  0  0  0  0  0  0  0  0  0  0
   -0.3618   -0.1883   -4.3981 H   0  0  0  0  0  0  0  0  0  0  0  0
    1.8495   -0.3374   -3.2826 H   0  0  0  0  0  0  0  0  0  0  0  0
    1.0372    3.3510   -1.1547 H   0  0  0  0  0  0  0  0  0  0  0  0
   -1.2238    3.4645   -2.2770 H   0  0  0  0  0  0  0  0  0  0  0  0
    2.7618    1.4968   -1.4901 N   0  0  0  0  0  0  0  0  0  0  0  0
    3.4850    2.0409   -0.8112 N   0  0  0  0  0  0  0  0  0  0  0  0
    5.6736   -0.3640   -4.8914 C   0  0  0  0  0  0  0  0  0  0  0  0
    6.6672    0.4368   -5.4554 C   0  0  0  0  0  0  0  0  0  0  0  0
    7.4748    1.2611   -4.6596 C   0  0  0  0  0  0  0  0  0  0  0  0
    7.2644    1.2648   -3.2707 C   0  0  0  0  0  0  0  0  0  0  0  0
    6.2772    0.4732   -2.6898 C   0  0  0  0  0  0  0  0  0  0  0  0
    5.4757   -0.3228   -3.5123 C   0  0  0  0  0  0  0  0  0  0  0  0
    5.0460   -1.0024   -5.5043 H   0  0  0  0  0  0  0  0  0  0  0  0
    6.8190    0.4193   -6.5320 H   0  0  0  0  0  0  0  0  0  0  0  0
    7.8824    1.8967   -2.6378 H   0  0  0  0  0  0  0  0  0  0  0  0
    6.1177    0.4829   -1.6163 H   0  0  0  0  0  0  0  0  0  0  0  0
    4.2427   -1.4307   -2.7565 S   0  0  0  0  0  0  0  0  0  0  0  0
    2.3436    4.3714   -0.1239 O   0  0  0  0  0  0  0  0  0  0  0  0
    3.3130   -1.8183   -3.8748 O   0  0  0  0  0  0  0  0  0  0  0  0
    3.6156   -0.6042   -1.6282 O   0  0  0  0  0  0  0  0  0  0  0  0
    8.5339    2.1419   -5.2769 C   0  0  0  0  0  0  0  0  0  0  0  0
    8.8067    1.7991   -6.2783 H   0  0  0  0  0  0  0  0  0  0  0  0
    8.1790    3.1759   -5.3683 H   0  0  0  0  0  0  0  0  0  0  0  0
    9.4412    2.1656   -4.6653 H   0  0  0  0  0  0  0  0  0  0  0  0
   -1.8983    1.6960   -3.8877 H   0  0  0  0  0  0  0  0  0  0  0  0
  1  6  2  0  0  0  0
  1  2  1  0  0  0  0
  2  3  2  0  0  0  0
  3  4  1  0  0  0  0
  3 11  1  0  0  0  0
  4  9  1  0  0  0  0
  5 10  1  0  0  0  0
  5  4  2  0  0  0  0
  6  5  1  0  0  0  0
  7  1  1  0  0  0  0
  8  2  1  0  0  0  0
 11 12  2  0  0  0  0
 13 18  1  0  0  0  0
 14 13  2  0  0  0  0
 14 15  1  0  0  0  0
 15 16  2  0  0  0  0
 16 17  1  0  0  0  0
 16 21  1  0  0  0  0
 17 22  1  0  0  0  0
 18 23  1  0  0  0  0
 18 17  2  0  0  0  0
 19 13  1  0  0  0  0
 20 14  1  0  0  0  0
 23 26  1  0  0  0  0
 25 23  1  0  0  0  0
 27 30  1  0  0  0  0
 27 15  1  0  0  0  0
 28 27  1  0  0  0  0
 29 27  1  0  0  0  0
 31  6  1  0  0  0  0
M  RAD  4  12   2  24   3  25   2  26   2
M  END
