Coordinates from ORCA-job Ph-N2-X-OTs-B3LYPG-6-31G_dp-scan-d09-49-n400
 OpenBabel08281821363D

 31 32  0  0  0  0  0  0  0  0999 V2000
    0.4696    3.6283   -2.4659 C   0  0  0  0  0  0  0  0  0  0  0  0
    1.3739    2.6581   -2.9074 C   0  0  0  0  0  0  0  0  0  0  0  0
    1.2274    1.3431   -2.4813 C   0  0  0  0  0  0  0  0  0  0  0  0
    0.2076    0.9794   -1.5936 C   0  0  0  0  0  0  0  0  0  0  0  0
   -0.6874    1.9520   -1.1467 C   0  0  0  0  0  0  0  0  0  0  0  0
   -0.5571    3.2710   -1.5915 C   0  0  0  0  0  0  0  0  0  0  0  0
    0.5701    4.6541   -2.8045 H   0  0  0  0  0  0  0  0  0  0  0  0
    2.1790    2.9071   -3.5915 H   0  0  0  0  0  0  0  0  0  0  0  0
   -0.5493   -0.4967   -0.6351 H   0  0  0  0  0  0  0  0  0  0  0  0
   -1.4750    1.6799   -0.4474 H   0  0  0  0  0  0  0  0  0  0  0  0
    2.0486    0.2688   -2.9732 N   0  0  0  0  0  0  0  0  0  0  0  0
    3.1885    0.2805   -2.5135 N   0  0  0  0  0  0  0  0  0  0  0  0
    6.5360    0.2427   -3.0823 C   0  0  0  0  0  0  0  0  0  0  0  0
    7.5760    0.9682   -3.6577 C   0  0  0  0  0  0  0  0  0  0  0  0
    7.6106    1.2170   -5.0387 C   0  0  0  0  0  0  0  0  0  0  0  0
    6.5692    0.7209   -5.8366 C   0  0  0  0  0  0  0  0  0  0  0  0
    5.5177   -0.0044   -5.2800 C   0  0  0  0  0  0  0  0  0  0  0  0
    5.5132   -0.2375   -3.9036 C   0  0  0  0  0  0  0  0  0  0  0  0
    6.5172    0.0366   -2.0176 H   0  0  0  0  0  0  0  0  0  0  0  0
    8.3762    1.3450   -3.0262 H   0  0  0  0  0  0  0  0  0  0  0  0
    6.5829    0.9043   -6.9078 H   0  0  0  0  0  0  0  0  0  0  0  0
    4.7154   -0.3972   -5.8952 H   0  0  0  0  0  0  0  0  0  0  0  0
    4.1582   -1.1447   -3.1739 S   0  0  0  0  0  0  0  0  0  0  0  0
    0.2152   -0.3222   -1.1998 O   0  0  0  0  0  0  0  0  0  0  0  0
    4.6275   -1.8231   -1.9615 O   0  0  0  0  0  0  0  0  0  0  0  0
    3.4254   -1.8449   -4.2316 O   0  0  0  0  0  0  0  0  0  0  0  0
    8.7605    1.9764   -5.6548 C   0  0  0  0  0  0  0  0  0  0  0  0
    9.1400    2.7480   -4.9783 H   0  0  0  0  0  0  0  0  0  0  0  0
    9.5957    1.3021   -5.8808 H   0  0  0  0  0  0  0  0  0  0  0  0
    8.4669    2.4575   -6.5919 H   0  0  0  0  0  0  0  0  0  0  0  0
   -1.2602    4.0208   -1.2422 H   0  0  0  0  0  0  0  0  0  0  0  0
  1  6  2  0  0  0  0
  2  3  2  0  0  0  0
  2  1  1  0  0  0  0
  3  4  1  0  0  0  0
  4 24  1  0  0  0  0
  4  5  2  0  0  0  0
  5 10  1  0  0  0  0
  6 31  1  0  0  0  0
  6  5  1  0  0  0  0
  7  1  1  0  0  0  0
  8  2  1  0  0  0  0
 11 12  1  0  0  0  0
 11  3  1  0  0  0  0
 13 19  1  0  0  0  0
 14 13  1  0  0  0  0
 14 20  1  0  0  0  0
 15 14  2  0  0  0  0
 16 17  2  0  0  0  0
 16 15  1  0  0  0  0
 17 18  1  0  0  0  0
 18 23  1  0  0  0  0
 18 13  2  0  0  0  0
 21 16  1  0  0  0  0
 22 17  1  0  0  0  0
 23 12  1  0  0  0  0
 23 25  2  0  0  0  0
 24  9  1  0  0  0  0
 26 23  2  0  0  0  0
 27 15  1  0  0  0  0
 27 28  1  0  0  0  0
 29 27  1  0  0  0  0
 30 27  1  0  0  0  0
M  RAD  2  11   2  12   2
M  END
