Coordinates from ORCA-job Ph-N2-X-OTs-B3LYPG-6-31G_dp-scan-d09-49-n400
 OpenBabel08281821363D

 31 32  0  0  0  0  0  0  0  0999 V2000
    0.7707    3.6203   -1.7822 C   0  0  0  0  0  0  0  0  0  0  0  0
    1.7226    2.6475   -2.0664 C   0  0  0  0  0  0  0  0  0  0  0  0
    1.3325    1.3094   -2.2030 C   0  0  0  0  0  0  0  0  0  0  0  0
   -0.0129    0.9379   -2.0311 C   0  0  0  0  0  0  0  0  0  0  0  0
   -0.9660    1.9178   -1.7342 C   0  0  0  0  0  0  0  0  0  0  0  0
   -0.5702    3.2496   -1.6173 C   0  0  0  0  0  0  0  0  0  0  0  0
    1.0638    4.6613   -1.6939 H   0  0  0  0  0  0  0  0  0  0  0  0
    2.7678    2.8989   -2.2112 H   0  0  0  0  0  0  0  0  0  0  0  0
   -1.2234   -0.5353   -2.0209 H   0  0  0  0  0  0  0  0  0  0  0  0
   -2.0065    1.6356   -1.5918 H   0  0  0  0  0  0  0  0  0  0  0  0
    2.1926    0.2452   -2.5580 N   0  0  0  0  0  0  0  0  0  0  0  0
    3.3771    0.4025   -2.2435 N   0  0  0  0  0  0  0  0  0  0  0  0
    6.6679    0.4679   -3.0730 C   0  0  0  0  0  0  0  0  0  0  0  0
    7.6171    1.1458   -3.8331 C   0  0  0  0  0  0  0  0  0  0  0  0
    7.5291    1.1898   -5.2334 C   0  0  0  0  0  0  0  0  0  0  0  0
    6.4580    0.5357   -5.8591 C   0  0  0  0  0  0  0  0  0  0  0  0
    5.4962   -0.1459   -5.1156 C   0  0  0  0  0  0  0  0  0  0  0  0
    5.6116   -0.1730   -3.7250 C   0  0  0  0  0  0  0  0  0  0  0  0
    6.7448    0.4196   -1.9919 H   0  0  0  0  0  0  0  0  0  0  0  0
    8.4429    1.6458   -3.3336 H   0  0  0  0  0  0  0  0  0  0  0  0
    6.3778    0.5578   -6.9430 H   0  0  0  0  0  0  0  0  0  0  0  0
    4.6718   -0.6605   -5.5972 H   0  0  0  0  0  0  0  0  0  0  0  0
    4.3757   -1.0313   -2.7589 S   0  0  0  0  0  0  0  0  0  0  0  0
   -0.2747   -0.3834   -2.1287 O   0  0  0  0  0  0  0  0  0  0  0  0
    4.9860   -1.4963   -1.5084 O   0  0  0  0  0  0  0  0  0  0  0  0
    3.6237   -1.9294   -3.6389 O   0  0  0  0  0  0  0  0  0  0  0  0
    8.5834    1.9018   -6.0466 C   0  0  0  0  0  0  0  0  0  0  0  0
    8.9388    2.8029   -5.5383 H   0  0  0  0  0  0  0  0  0  0  0  0
    9.4546    1.2551   -6.2084 H   0  0  0  0  0  0  0  0  0  0  0  0
    8.2040    2.1919   -7.0298 H   0  0  0  0  0  0  0  0  0  0  0  0
   -1.3172    4.0061   -1.3955 H   0  0  0  0  0  0  0  0  0  0  0  0
  1  7  1  0  0  0  0
  1  6  2  0  0  0  0
  2  1  1  0  0  0  0
  3  2  2  0  0  0  0
  3  4  1  0  0  0  0
  4  5  2  0  0  0  0
  5  6  1  0  0  0  0
  5 10  1  0  0  0  0
  6 31  1  0  0  0  0
  8  2  1  0  0  0  0
 11 12  1  0  0  0  0
 11  3  1  0  0  0  0
 13 19  1  0  0  0  0
 14 20  1  0  0  0  0
 14 13  2  0  0  0  0
 15 14  1  0  0  0  0
 16 15  2  0  0  0  0
 16 17  1  0  0  0  0
 17 18  2  0  0  0  0
 18 13  1  0  0  0  0
 18 23  1  0  0  0  0
 21 16  1  0  0  0  0
 22 17  1  0  0  0  0
 23 12  1  0  0  0  0
 23 25  2  0  0  0  0
 24  4  1  0  0  0  0
 24  9  1  0  0  0  0
 26 23  2  0  0  0  0
 27 28  1  0  0  0  0
 27 15  1  0  0  0  0
 29 27  1  0  0  0  0
 30 27  1  0  0  0  0
M  RAD  2  11   2  12   2
M  END
