Coordinates from ORCA-job Ph-N2-X-OTs-B3LYPG-6-31G_dp-scan-d09-49-n400
 OpenBabel08281821363D

 31 32  0  0  0  0  0  0  0  0999 V2000
   -1.0157    2.4539   -2.9630 C   0  0  0  0  0  0  0  0  0  0  0  0
    0.0377    1.6522   -3.3722 C   0  0  0  0  0  0  0  0  0  0  0  0
    1.1234    1.2961   -2.5374 C   0  0  0  0  0  0  0  0  0  0  0  0
    1.1103    1.7976   -1.1917 C   0  0  0  0  0  0  0  0  0  0  0  0
    0.0311    2.6061   -0.7973 C   0  0  0  0  0  0  0  0  0  0  0  0
   -1.0127    2.9351   -1.6533 C   0  0  0  0  0  0  0  0  0  0  0  0
   -1.8212    2.6974   -3.6471 H   0  0  0  0  0  0  0  0  0  0  0  0
    0.0773    1.2510   -4.3786 H   0  0  0  0  0  0  0  0  0  0  0  0
    1.8413    1.9639    0.5564 H   0  0  0  0  0  0  0  0  0  0  0  0
    0.0257    2.9854    0.2230 H   0  0  0  0  0  0  0  0  0  0  0  0
    2.0088    0.4739   -3.2946 N   0  0  0  0  0  0  0  0  0  0  0  0
    3.0825    0.0105   -2.8867 N   0  0  0  0  0  0  0  0  0  0  0  0
    6.3922   -0.4051   -3.4004 C   0  0  0  0  0  0  0  0  0  0  0  0
    7.6085    0.2604   -3.5311 C   0  0  0  0  0  0  0  0  0  0  0  0
    7.8505    1.1253   -4.6091 C   0  0  0  0  0  0  0  0  0  0  0  0
    6.8355    1.3137   -5.5588 C   0  0  0  0  0  0  0  0  0  0  0  0
    5.6101    0.6611   -5.4430 C   0  0  0  0  0  0  0  0  0  0  0  0
    5.4008   -0.1967   -4.3619 C   0  0  0  0  0  0  0  0  0  0  0  0
    6.2113   -1.0847   -2.5749 H   0  0  0  0  0  0  0  0  0  0  0  0
    8.3848    0.1029   -2.7865 H   0  0  0  0  0  0  0  0  0  0  0  0
    7.0084    1.9784   -6.4013 H   0  0  0  0  0  0  0  0  0  0  0  0
    4.8259    0.7996   -6.1798 H   0  0  0  0  0  0  0  0  0  0  0  0
    3.8283   -1.0291   -4.1935 S   0  0  0  0  0  0  0  0  0  0  0  0
    2.0776    1.5354   -0.2764 O   0  0  0  0  0  0  0  0  0  0  0  0
    4.0397   -2.3206   -3.5294 O   0  0  0  0  0  0  0  0  0  0  0  0
    3.0929   -0.9182   -5.4575 O   0  0  0  0  0  0  0  0  0  0  0  0
    9.1857    1.8139   -4.7606 C   0  0  0  0  0  0  0  0  0  0  0  0
    9.6508    2.0034   -3.7891 H   0  0  0  0  0  0  0  0  0  0  0  0
    9.8812    1.1940   -5.3404 H   0  0  0  0  0  0  0  0  0  0  0  0
    9.0873    2.7691   -5.2842 H   0  0  0  0  0  0  0  0  0  0  0  0
   -1.8205    3.5650   -1.2917 H   0  0  0  0  0  0  0  0  0  0  0  0
  1  6  1  0  0  0  0
  2  1  2  0  0  0  0
  2  3  1  0  0  0  0
  3  4  2  0  0  0  0
  4  5  1  0  0  0  0
  4 24  1  0  0  0  0
  5 10  1  0  0  0  0
  6 31  1  0  0  0  0
  6  5  2  0  0  0  0
  7  1  1  0  0  0  0
  8  2  1  0  0  0  0
 11 12  1  0  0  0  0
 11  3  1  0  0  0  0
 13 19  1  0  0  0  0
 14 13  1  0  0  0  0
 14 20  1  0  0  0  0
 15 14  2  0  0  0  0
 16 17  2  0  0  0  0
 16 15  1  0  0  0  0
 17 18  1  0  0  0  0
 18 23  1  0  0  0  0
 18 13  2  0  0  0  0
 21 16  1  0  0  0  0
 22 17  1  0  0  0  0
 23 25  2  0  0  0  0
 23 12  1  0  0  0  0
 24  9  1  0  0  0  0
 26 23  2  0  0  0  0
 27 15  1  0  0  0  0
 27 28  1  0  0  0  0
 29 27  1  0  0  0  0
 30 27  1  0  0  0  0
M  RAD  2  11   2  12   2
M  END
