Coordinates from ORCA-job Ph-N2-X-OTs-B3LYPG-6-31G_dp-scan-d09-49-n400
 OpenBabel08281821363D

 31 32  0  0  0  0  0  0  0  0999 V2000
   -0.7038    0.2485   -2.2650 C   0  0  0  0  0  0  0  0  0  0  0  0
    0.6553    0.1724   -1.9770 C   0  0  0  0  0  0  0  0  0  0  0  0
    1.5055    1.1984   -2.4109 C   0  0  0  0  0  0  0  0  0  0  0  0
    1.0117    2.2921   -3.1331 C   0  0  0  0  0  0  0  0  0  0  0  0
   -0.3515    2.3394   -3.4218 C   0  0  0  0  0  0  0  0  0  0  0  0
   -1.2120    1.3295   -2.9897 C   0  0  0  0  0  0  0  0  0  0  0  0
   -1.3652   -0.5416   -1.9231 H   0  0  0  0  0  0  0  0  0  0  0  0
    1.0586   -0.6659   -1.4240 H   0  0  0  0  0  0  0  0  0  0  0  0
    1.6892    3.0771   -3.4302 H   0  0  0  0  0  0  0  0  0  0  0  0
   -0.7400    3.1815   -3.9866 H   0  0  0  0  0  0  0  0  0  0  0  0
    2.9051    1.0812   -2.1015 N   0  0  0  0  0  0  0  0  0  0  0  0
    3.8278    1.9552   -1.9134 N   0  0  0  0  0  0  0  0  0  0  0  0
    5.3609    0.7245   -4.8427 C   0  0  0  0  0  0  0  0  0  0  0  0
    6.4766    1.4996   -5.1423 C   0  0  0  0  0  0  0  0  0  0  0  0
    7.6044    1.5016   -4.3058 C   0  0  0  0  0  0  0  0  0  0  0  0
    7.5889    0.7021   -3.1528 C   0  0  0  0  0  0  0  0  0  0  0  0
    6.4815   -0.0791   -2.8356 C   0  0  0  0  0  0  0  0  0  0  0  0
    5.3718   -0.0541   -3.6840 C   0  0  0  0  0  0  0  0  0  0  0  0
    4.4858    0.7119   -5.4844 H   0  0  0  0  0  0  0  0  0  0  0  0
    6.4736    2.1159   -6.0374 H   0  0  0  0  0  0  0  0  0  0  0  0
    8.4526    0.6984   -2.4935 H   0  0  0  0  0  0  0  0  0  0  0  0
    6.4749   -0.6808   -1.9310 H   0  0  0  0  0  0  0  0  0  0  0  0
    3.9739   -1.1136   -3.3131 S   0  0  2  0  0  0  0  0  0  0  0  0
    3.3208    3.3890   -2.0942 O   0  0  0  0  0  0  0  0  0  0  0  0
    3.0126   -0.9531   -4.4357 O   0  0  0  0  0  0  0  0  0  0  0  0
    3.3513   -0.2117   -1.8546 O   0  0  0  0  0  0  0  0  0  0  0  0
    8.8129    2.3348   -4.6546 C   0  0  0  0  0  0  0  0  0  0  0  0
    9.3693    1.8882   -5.4878 H   0  0  0  0  0  0  0  0  0  0  0  0
    8.5223    3.3436   -4.9634 H   0  0  0  0  0  0  0  0  0  0  0  0
    9.4978    2.4231   -3.8069 H   0  0  0  0  0  0  0  0  0  0  0  0
   -2.2728    1.3828   -3.2160 H   0  0  0  0  0  0  0  0  0  0  0  0
  1  2  1  0  0  0  0
  1  7  1  0  0  0  0
  2  8  1  0  0  0  0
  3 11  1  0  0  0  0
  3  2  2  0  0  0  0
  4  3  1  0  0  0  0
  5  4  2  0  0  0  0
  5  6  1  0  0  0  0
  6  1  2  0  0  0  0
  9  4  1  0  0  0  0
 10  5  1  0  0  0  0
 11 12  1  0  0  0  0
 11 26  1  0  0  0  0
 13 18  1  0  0  0  0
 14 13  2  0  0  0  0
 14 15  1  0  0  0  0
 15 16  2  0  0  0  0
 16 17  1  0  0  0  0
 16 21  1  0  0  0  0
 17 22  1  0  0  0  0
 18 23  1  0  0  0  0
 18 17  2  0  0  0  0
 19 13  1  0  0  0  0
 20 14  1  0  0  0  0
 23 25  1  6  0  0  0
 23 26  1  0  0  0  0
 24 12  1  0  0  0  0
 27 15  1  0  0  0  0
 27 30  1  0  0  0  0
 28 27  1  0  0  0  0
 29 27  1  0  0  0  0
 31  6  1  0  0  0  0
M  RAD  3  12   2  24   2  25   2
M  END
