Coordinates from ORCA-job Ph-N2-X-OTs-B3LYPG-6-31G_dp-scan-d09-49-n400
 OpenBabel08281821363D

 31 32  0  0  0  0  0  0  0  0999 V2000
   -0.9906    2.4716   -2.9812 C   0  0  0  0  0  0  0  0  0  0  0  0
    0.0640    1.6618   -3.3699 C   0  0  0  0  0  0  0  0  0  0  0  0
    1.1308    1.2920   -2.5156 C   0  0  0  0  0  0  0  0  0  0  0  0
    1.0907    1.7866   -1.1662 C   0  0  0  0  0  0  0  0  0  0  0  0
    0.0093    2.6029   -0.7934 C   0  0  0  0  0  0  0  0  0  0  0  0
   -1.0122    2.9468   -1.6697 C   0  0  0  0  0  0  0  0  0  0  0  0
   -1.7785    2.7249   -3.6821 H   0  0  0  0  0  0  0  0  0  0  0  0
    0.1210    1.2640   -4.3768 H   0  0  0  0  0  0  0  0  0  0  0  0
    1.7714    1.9381    0.6036 H   0  0  0  0  0  0  0  0  0  0  0  0
   -0.0156    2.9765    0.2287 H   0  0  0  0  0  0  0  0  0  0  0  0
    2.0199    0.4676   -3.2688 N   0  0  0  0  0  0  0  0  0  0  0  0
    3.0963    0.0043   -2.8685 N   0  0  0  0  0  0  0  0  0  0  0  0
    6.4025   -0.4082   -3.4059 C   0  0  0  0  0  0  0  0  0  0  0  0
    7.6172    0.2589   -3.5432 C   0  0  0  0  0  0  0  0  0  0  0  0
    7.8513    1.1261   -4.6213 C   0  0  0  0  0  0  0  0  0  0  0  0
    6.8300    1.3149   -5.5640 C   0  0  0  0  0  0  0  0  0  0  0  0
    5.6061    0.6607   -5.4416 C   0  0  0  0  0  0  0  0  0  0  0  0
    5.4048   -0.1992   -4.3606 C   0  0  0  0  0  0  0  0  0  0  0  0
    6.2277   -1.0894   -2.5804 H   0  0  0  0  0  0  0  0  0  0  0  0
    8.3984    0.1011   -2.8039 H   0  0  0  0  0  0  0  0  0  0  0  0
    6.9967    1.9813   -6.4065 H   0  0  0  0  0  0  0  0  0  0  0  0
    4.8169    0.7997   -6.1730 H   0  0  0  0  0  0  0  0  0  0  0  0
    3.8340   -1.0329   -4.1831 S   0  0  0  0  0  0  0  0  0  0  0  0
    2.0291    1.5118   -0.2239 O   0  0  0  0  0  0  0  0  0  0  0  0
    4.0506   -2.3256   -3.5231 O   0  0  0  0  0  0  0  0  0  0  0  0
    3.0895   -0.9196   -5.4415 O   0  0  0  0  0  0  0  0  0  0  0  0
    9.1847    1.8164   -4.7801 C   0  0  0  0  0  0  0  0  0  0  0  0
    9.6542    2.0078   -3.8111 H   0  0  0  0  0  0  0  0  0  0  0  0
    9.8783    1.1968   -5.3626 H   0  0  0  0  0  0  0  0  0  0  0  0
    9.0823    2.7709   -5.3043 H   0  0  0  0  0  0  0  0  0  0  0  0
   -1.8216    3.5823   -1.3222 H   0  0  0  0  0  0  0  0  0  0  0  0
  1  6  1  0  0  0  0
  2  1  2  0  0  0  0
  2  3  1  0  0  0  0
  3  4  2  0  0  0  0
  4  5  1  0  0  0  0
  4 24  1  0  0  0  0
  5 10  1  0  0  0  0
  6 31  1  0  0  0  0
  6  5  2  0  0  0  0
  7  1  1  0  0  0  0
  8  2  1  0  0  0  0
 11 12  1  0  0  0  0
 11  3  1  0  0  0  0
 13 19  1  0  0  0  0
 14 13  1  0  0  0  0
 14 20  1  0  0  0  0
 15 14  2  0  0  0  0
 16 17  2  0  0  0  0
 16 15  1  0  0  0  0
 17 18  1  0  0  0  0
 18 23  1  0  0  0  0
 18 13  2  0  0  0  0
 21 16  1  0  0  0  0
 22 17  1  0  0  0  0
 23 25  2  0  0  0  0
 23 12  1  0  0  0  0
 24  9  1  0  0  0  0
 26 23  2  0  0  0  0
 27 15  1  0  0  0  0
 27 28  1  0  0  0  0
 29 27  1  0  0  0  0
 30 27  1  0  0  0  0
M  RAD  2  11   2  12   2
M  END
