Coordinates from ORCA-job Ph-N2-X-OTs-B3LYPG-6-31G_dp-scan-d09-49-n400
 OpenBabel08281821363D

 31 31  0  0  0  0  0  0  0  0999 V2000
   -0.6499    0.2425   -2.4261 C   0  0  0  0  0  0  0  0  0  0  0  0
    0.6891    0.1286   -2.0663 C   0  0  0  0  0  0  0  0  0  0  0  0
    1.5621    1.1781   -2.3805 C   0  0  0  0  0  0  0  0  0  0  0  0
    1.1279    2.3278   -3.0487 C   0  0  0  0  0  0  0  0  0  0  0  0
   -0.2148    2.4077   -3.4149 C   0  0  0  0  0  0  0  0  0  0  0  0
   -1.1038    1.3775   -3.1042 C   0  0  0  0  0  0  0  0  0  0  0  0
   -1.3375   -0.5602   -2.1790 H   0  0  0  0  0  0  0  0  0  0  0  0
    1.0528   -0.7491   -1.5500 H   0  0  0  0  0  0  0  0  0  0  0  0
    1.8461    3.1208   -3.2173 H   0  0  0  0  0  0  0  0  0  0  0  0
   -0.5659    3.2902   -3.9409 H   0  0  0  0  0  0  0  0  0  0  0  0
    2.9511    1.0548   -1.9979 N   0  0  0  0  0  0  0  0  0  0  0  0
    3.8608    1.8644   -1.7740 N   0  0  0  0  0  0  0  0  0  0  0  0
    5.2995    0.6360   -4.8172 C   0  0  0  0  0  0  0  0  0  0  0  0
    6.3872    1.4339   -5.1574 C   0  0  0  0  0  0  0  0  0  0  0  0
    7.5195    1.5082   -4.3301 C   0  0  0  0  0  0  0  0  0  0  0  0
    7.5381    0.7575   -3.1448 C   0  0  0  0  0  0  0  0  0  0  0  0
    6.4591   -0.0454   -2.7862 C   0  0  0  0  0  0  0  0  0  0  0  0
    5.3435   -0.0911   -3.6260 C   0  0  0  0  0  0  0  0  0  0  0  0
    4.4225    0.5662   -5.4524 H   0  0  0  0  0  0  0  0  0  0  0  0
    6.3589    2.0104   -6.0780 H   0  0  0  0  0  0  0  0  0  0  0  0
    8.4054    0.8105   -2.4928 H   0  0  0  0  0  0  0  0  0  0  0  0
    6.4772   -0.6074   -1.8568 H   0  0  0  0  0  0  0  0  0  0  0  0
    3.9867   -1.1906   -3.2110 S   0  0  2  0  0  0  0  0  0  0  0  0
    3.3094    3.6136   -1.9481 O   0  0  0  0  0  0  0  0  0  0  0  0
    3.0155   -1.1063   -4.3326 O   0  0  0  0  0  0  0  0  0  0  0  0
    3.3513   -0.3038   -1.7803 O   0  0  0  0  0  0  0  0  0  0  0  0
    8.6942    2.3705   -4.7209 C   0  0  0  0  0  0  0  0  0  0  0  0
    9.2083    1.9590   -5.5977 H   0  0  0  0  0  0  0  0  0  0  0  0
    8.3701    3.3829   -4.9817 H   0  0  0  0  0  0  0  0  0  0  0  0
    9.4240    2.4467   -3.9104 H   0  0  0  0  0  0  0  0  0  0  0  0
   -2.1491    1.4569   -3.3880 H   0  0  0  0  0  0  0  0  0  0  0  0
  1  7  1  0  0  0  0
  1  2  2  0  0  0  0
  2  8  1  0  0  0  0
  3  2  1  0  0  0  0
  3 11  1  0  0  0  0
  4  3  2  0  0  0  0
  5  6  2  0  0  0  0
  5  4  1  0  0  0  0
  6  1  1  0  0  0  0
  9  4  1  0  0  0  0
 10  5  1  0  0  0  0
 11 26  1  0  0  0  0
 11 12  1  0  0  0  0
 13 18  1  0  0  0  0
 14 13  2  0  0  0  0
 14 15  1  0  0  0  0
 15 16  2  0  0  0  0
 16 17  1  0  0  0  0
 16 21  1  0  0  0  0
 17 22  1  0  0  0  0
 18 23  1  0  0  0  0
 18 17  2  0  0  0  0
 19 13  1  0  0  0  0
 20 14  1  0  0  0  0
 23 25  1  6  0  0  0
 23 26  1  0  0  0  0
 27 15  1  0  0  0  0
 27 30  1  0  0  0  0
 28 27  1  0  0  0  0
 29 27  1  0  0  0  0
 31  6  1  0  0  0  0
M  RAD  3  12   3  24   3  25   2
M  END
