Coordinates from ORCA-job Ph-N2-X-OTs-B3LYPG-6-31G_dp-scan-d09-49-n400
 OpenBabel08281821363D

 31 30  0  0  0  0  0  0  0  0999 V2000
   -0.1386    0.5511   -3.6449 C   0  0  0  0  0  0  0  0  0  0  0  0
    1.1254    0.4657   -3.0672 C   0  0  0  0  0  0  0  0  0  0  0  0
    1.5004    1.4894   -2.1950 C   0  0  0  0  0  0  0  0  0  0  0  0
    0.6825    2.5874   -1.8778 C   0  0  0  0  0  0  0  0  0  0  0  0
   -0.5768    2.6312   -2.4671 C   0  0  0  0  0  0  0  0  0  0  0  0
   -0.9873    1.6208   -3.3432 C   0  0  0  0  0  0  0  0  0  0  0  0
   -0.4587   -0.2264   -4.3306 H   0  0  0  0  0  0  0  0  0  0  0  0
    1.7927   -0.3585   -3.2949 H   0  0  0  0  0  0  0  0  0  0  0  0
    1.0725    3.3608   -1.2072 H   0  0  0  0  0  0  0  0  0  0  0  0
   -1.2376    3.4625   -2.2421 H   0  0  0  0  0  0  0  0  0  0  0  0
    2.7777    1.4950   -1.5710 N   0  0  0  0  0  0  0  0  0  0  0  0
    3.5165    2.0753   -0.9333 N   0  0  0  0  0  0  0  0  0  0  0  0
    5.6863   -0.3464   -4.8934 C   0  0  0  0  0  0  0  0  0  0  0  0
    6.6892    0.4533   -5.4422 C   0  0  0  0  0  0  0  0  0  0  0  0
    7.4896    1.2718   -4.6334 C   0  0  0  0  0  0  0  0  0  0  0  0
    7.2631    1.2705   -3.2468 C   0  0  0  0  0  0  0  0  0  0  0  0
    6.2674    0.4797   -2.6804 C   0  0  0  0  0  0  0  0  0  0  0  0
    5.4728   -0.3094   -3.5164 C   0  0  0  0  0  0  0  0  0  0  0  0
    5.0641   -0.9802   -5.5163 H   0  0  0  0  0  0  0  0  0  0  0  0
    6.8535    0.4396   -6.5168 H   0  0  0  0  0  0  0  0  0  0  0  0
    7.8745    1.8990   -2.6043 H   0  0  0  0  0  0  0  0  0  0  0  0
    6.0948    0.4870   -1.6091 H   0  0  0  0  0  0  0  0  0  0  0  0
    4.2268   -1.4139   -2.7830 S   0  0  0  0  0  0  0  0  0  0  0  0
    2.5926    4.2903   -0.3330 O   0  0  0  0  0  0  0  0  0  0  0  0
    3.3117   -1.8021   -3.9106 O   0  0  0  0  0  0  0  0  0  0  0  0
    3.5906   -0.5938   -1.6538 O   0  0  0  0  0  0  0  0  0  0  0  0
    8.5584    2.1520   -5.2339 C   0  0  0  0  0  0  0  0  0  0  0  0
    8.8295    1.8237   -6.2407 H   0  0  0  0  0  0  0  0  0  0  0  0
    8.2141    3.1910   -5.3074 H   0  0  0  0  0  0  0  0  0  0  0  0
    9.4649    2.1559   -4.6205 H   0  0  0  0  0  0  0  0  0  0  0  0
   -1.9731    1.6684   -3.7959 H   0  0  0  0  0  0  0  0  0  0  0  0
  1  6  2  0  0  0  0
  1  2  1  0  0  0  0
  2  3  2  0  0  0  0
  3  4  1  0  0  0  0
  3 11  1  0  0  0  0
  4  9  1  0  0  0  0
  5 10  1  0  0  0  0
  5  4  2  0  0  0  0
  6  5  1  0  0  0  0
  7  1  1  0  0  0  0
  8  2  1  0  0  0  0
 11 12  2  0  0  0  0
 13 18  1  0  0  0  0
 14 13  2  0  0  0  0
 14 15  1  0  0  0  0
 15 16  2  0  0  0  0
 16 17  1  0  0  0  0
 16 21  1  0  0  0  0
 17 22  1  0  0  0  0
 18 23  1  0  0  0  0
 18 17  2  0  0  0  0
 19 13  1  0  0  0  0
 20 14  1  0  0  0  0
 23 26  1  0  0  0  0
 25 23  1  0  0  0  0
 27 15  1  0  0  0  0
 27 30  1  0  0  0  0
 28 27  1  0  0  0  0
 29 27  1  0  0  0  0
 31  6  1  0  0  0  0
M  RAD  4  12   2  24   3  25   2  26   2
M  END
