Coordinates from ORCA-job Ph-N2-X-OTs-B3LYPG-6-31G_dp-scan-d09-49-n400
 OpenBabel08281821363D

 31 30  0  0  0  0  0  0  0  0999 V2000
   -0.3238    0.4957   -3.5368 C   0  0  0  0  0  0  0  0  0  0  0  0
    1.0004    0.4596   -3.1073 C   0  0  0  0  0  0  0  0  0  0  0  0
    1.4424    1.4982   -2.2859 C   0  0  0  0  0  0  0  0  0  0  0  0
    0.6232    2.5628   -1.8770 C   0  0  0  0  0  0  0  0  0  0  0  0
   -0.6986    2.5585   -2.3120 C   0  0  0  0  0  0  0  0  0  0  0  0
   -1.1716    1.5329   -3.1364 C   0  0  0  0  0  0  0  0  0  0  0  0
   -0.6929   -0.2950   -4.1819 H   0  0  0  0  0  0  0  0  0  0  0  0
    1.6666   -0.3403   -3.4112 H   0  0  0  0  0  0  0  0  0  0  0  0
    1.0683    3.3530   -1.2746 H   0  0  0  0  0  0  0  0  0  0  0  0
   -1.3585    3.3660   -2.0102 H   0  0  0  0  0  0  0  0  0  0  0  0
    2.7891    1.5388   -1.8265 N   0  0  0  0  0  0  0  0  0  0  0  0
    3.5607    2.2253   -1.3214 N   0  0  0  0  0  0  0  0  0  0  0  0
    5.7223   -0.2652   -4.9028 C   0  0  0  0  0  0  0  0  0  0  0  0
    6.7685    0.5032   -5.4145 C   0  0  0  0  0  0  0  0  0  0  0  0
    7.5866    1.2678   -4.5724 C   0  0  0  0  0  0  0  0  0  0  0  0
    7.3343    1.2449   -3.1898 C   0  0  0  0  0  0  0  0  0  0  0  0
    6.2970    0.4849   -2.6591 C   0  0  0  0  0  0  0  0  0  0  0  0
    5.4862   -0.2491   -3.5295 C   0  0  0  0  0  0  0  0  0  0  0  0
    5.0863   -0.8581   -5.5513 H   0  0  0  0  0  0  0  0  0  0  0  0
    6.9521    0.5067   -6.4859 H   0  0  0  0  0  0  0  0  0  0  0  0
    7.9568    1.8351   -2.5225 H   0  0  0  0  0  0  0  0  0  0  0  0
    6.1018    0.4809   -1.5920 H   0  0  0  0  0  0  0  0  0  0  0  0
    4.1801   -1.3107   -2.8513 S   0  0  0  0  0  0  0  0  0  0  0  0
    2.9491    4.1680   -0.9934 O   0  0  0  0  0  0  0  0  0  0  0  0
    3.3012   -1.6849   -4.0066 O   0  0  0  0  0  0  0  0  0  0  0  0
    3.5260   -0.4748   -1.7356 O   0  0  0  0  0  0  0  0  0  0  0  0
    8.7041    2.1141   -5.1308 C   0  0  0  0  0  0  0  0  0  0  0  0
    8.9375    1.8406   -6.1630 H   0  0  0  0  0  0  0  0  0  0  0  0
    8.4311    3.1766   -5.1226 H   0  0  0  0  0  0  0  0  0  0  0  0
    9.6176    2.0123   -4.5360 H   0  0  0  0  0  0  0  0  0  0  0  0
   -2.2044    1.5433   -3.4719 H   0  0  0  0  0  0  0  0  0  0  0  0
  1  6  2  0  0  0  0
  1  2  1  0  0  0  0
  2  3  2  0  0  0  0
  3  4  1  0  0  0  0
  3 11  1  0  0  0  0
  4  9  1  0  0  0  0
  5 10  1  0  0  0  0
  5  4  2  0  0  0  0
  6  5  1  0  0  0  0
  7  1  1  0  0  0  0
  8  2  1  0  0  0  0
 11 12  2  0  0  0  0
 13 18  1  0  0  0  0
 14 13  2  0  0  0  0
 14 15  1  0  0  0  0
 15 16  2  0  0  0  0
 16 17  1  0  0  0  0
 16 21  1  0  0  0  0
 17 22  1  0  0  0  0
 18 23  1  0  0  0  0
 18 17  2  0  0  0  0
 19 13  1  0  0  0  0
 20 14  1  0  0  0  0
 23 26  1  0  0  0  0
 25 23  1  0  0  0  0
 27 29  1  0  0  0  0
 27 15  1  0  0  0  0
 27 30  1  0  0  0  0
 28 27  1  0  0  0  0
 31  6  1  0  0  0  0
M  RAD  4  12   2  24   3  25   2  26   2
M  END
