Coordinates from ORCA-job Ph-N2-X-OTs-B3LYPG-6-31G_dp-scan-d09-49-n400
 OpenBabel08281821363D

 31 32  0  0  0  0  0  0  0  0999 V2000
    0.7465    3.4252   -1.1508 C   0  0  0  0  0  0  0  0  0  0  0  0
    1.7022    2.4603   -1.4241 C   0  0  0  0  0  0  0  0  0  0  0  0
    1.3668    1.2663   -2.0911 C   0  0  0  0  0  0  0  0  0  0  0  0
    0.0216    1.0472   -2.4866 C   0  0  0  0  0  0  0  0  0  0  0  0
   -0.9358    2.0351   -2.2042 C   0  0  0  0  0  0  0  0  0  0  0  0
   -0.5801    3.2059   -1.5464 C   0  0  0  0  0  0  0  0  0  0  0  0
    1.0214    4.3384   -0.6335 H   0  0  0  0  0  0  0  0  0  0  0  0
    2.7362    2.5932   -1.1257 H   0  0  0  0  0  0  0  0  0  0  0  0
   -1.2703   -0.0826   -3.3092 H   0  0  0  0  0  0  0  0  0  0  0  0
   -1.9672    1.8714   -2.5083 H   0  0  0  0  0  0  0  0  0  0  0  0
    2.3159    0.2538   -2.3790 N   0  0  0  0  0  0  0  0  0  0  0  0
    3.4945    0.5093   -2.0625 N   0  0  0  0  0  0  0  0  0  0  0  0
    6.7251    0.6885   -3.0774 C   0  0  0  0  0  0  0  0  0  0  0  0
    7.5856    1.3058   -3.9811 C   0  0  0  0  0  0  0  0  0  0  0  0
    7.4365    1.1249   -5.3650 C   0  0  0  0  0  0  0  0  0  0  0  0
    6.3946    0.3071   -5.8263 C   0  0  0  0  0  0  0  0  0  0  0  0
    5.5208   -0.3166   -4.9382 C   0  0  0  0  0  0  0  0  0  0  0  0
    5.6961   -0.1192   -3.5675 C   0  0  0  0  0  0  0  0  0  0  0  0
    6.8504    0.8148   -2.0073 H   0  0  0  0  0  0  0  0  0  0  0  0
    8.3898    1.9346   -3.6078 H   0  0  0  0  0  0  0  0  0  0  0  0
    6.2684    0.1542   -6.8950 H   0  0  0  0  0  0  0  0  0  0  0  0
    4.7192   -0.9563   -5.2913 H   0  0  0  0  0  0  0  0  0  0  0  0
    4.5722   -0.9020   -2.4186 S   0  0  0  0  0  0  0  0  0  0  0  0
   -0.3212   -0.0952   -3.1286 O   0  0  0  0  0  0  0  0  0  0  0  0
    5.2688   -1.1243   -1.1468 O   0  0  0  0  0  0  0  0  0  0  0  0
    3.8570   -1.9768   -3.1101 O   0  0  0  0  0  0  0  0  0  0  0  0
    8.3979    1.7711   -6.3333 C   0  0  0  0  0  0  0  0  0  0  0  0
    8.7310    2.7489   -5.9740 H   0  0  0  0  0  0  0  0  0  0  0  0
    9.2932    1.1514   -6.4661 H   0  0  0  0  0  0  0  0  0  0  0  0
    7.9445    1.9051   -7.3191 H   0  0  0  0  0  0  0  0  0  0  0  0
   -1.3419    3.9513   -1.3372 H   0  0  0  0  0  0  0  0  0  0  0  0
  1  7  1  0  0  0  0
  2  1  1  0  0  0  0
  2  8  1  0  0  0  0
  3  2  2  0  0  0  0
  4  5  2  0  0  0  0
  4  3  1  0  0  0  0
  5  6  1  0  0  0  0
  6 31  1  0  0  0  0
  6  1  2  0  0  0  0
  9 24  1  0  0  0  0
 10  5  1  0  0  0  0
 11  3  1  0  0  0  0
 11 12  1  0  0  0  0
 13 19  1  0  0  0  0
 14 20  1  0  0  0  0
 14 13  2  0  0  0  0
 15 14  1  0  0  0  0
 16 15  2  0  0  0  0
 16 17  1  0  0  0  0
 17 18  2  0  0  0  0
 18 13  1  0  0  0  0
 18 23  1  0  0  0  0
 21 16  1  0  0  0  0
 22 17  1  0  0  0  0
 23 12  1  0  0  0  0
 23 25  2  0  0  0  0
 24  4  1  0  0  0  0
 26 23  2  0  0  0  0
 27 28  1  0  0  0  0
 27 15  1  0  0  0  0
 29 27  1  0  0  0  0
 30 27  1  0  0  0  0
M  RAD  2  11   2  12   2
M  END
