Coordinates from ORCA-job Ph-N2-X-OTs-B3LYPG-6-31G_dp-scan-d09-49-n400
 OpenBabel08281821363D

 31 32  0  0  0  0  0  0  0  0999 V2000
    0.7767    3.6151   -1.7372 C   0  0  0  0  0  0  0  0  0  0  0  0
    1.7314    2.6443   -2.0170 C   0  0  0  0  0  0  0  0  0  0  0  0
    1.3400    1.3107   -2.1919 C   0  0  0  0  0  0  0  0  0  0  0  0
   -0.0113    0.9423   -2.0644 C   0  0  0  0  0  0  0  0  0  0  0  0
   -0.9681    1.9205   -1.7726 C   0  0  0  0  0  0  0  0  0  0  0  0
   -0.5700    3.2473   -1.6163 C   0  0  0  0  0  0  0  0  0  0  0  0
    1.0715    4.6525   -1.6180 H   0  0  0  0  0  0  0  0  0  0  0  0
    2.7812    2.8938   -2.1277 H   0  0  0  0  0  0  0  0  0  0  0  0
   -1.2296   -0.5231   -2.1182 H   0  0  0  0  0  0  0  0  0  0  0  0
   -2.0133    1.6405   -1.6652 H   0  0  0  0  0  0  0  0  0  0  0  0
    2.2040    0.2489   -2.5431 N   0  0  0  0  0  0  0  0  0  0  0  0
    3.3869    0.4070   -2.2230 N   0  0  0  0  0  0  0  0  0  0  0  0
    6.6731    0.4802   -3.0716 C   0  0  0  0  0  0  0  0  0  0  0  0
    7.6155    1.1553   -3.8427 C   0  0  0  0  0  0  0  0  0  0  0  0
    7.5199    1.1866   -5.2428 C   0  0  0  0  0  0  0  0  0  0  0  0
    6.4482    0.5226   -5.8570 C   0  0  0  0  0  0  0  0  0  0  0  0
    5.4932   -0.1563   -5.1024 C   0  0  0  0  0  0  0  0  0  0  0  0
    5.6161   -0.1709   -3.7123 C   0  0  0  0  0  0  0  0  0  0  0  0
    6.7559    0.4417   -1.9905 H   0  0  0  0  0  0  0  0  0  0  0  0
    8.4418    1.6631   -3.3520 H   0  0  0  0  0  0  0  0  0  0  0  0
    6.3623    0.5347   -6.9407 H   0  0  0  0  0  0  0  0  0  0  0  0
    4.6684   -0.6785   -5.5751 H   0  0  0  0  0  0  0  0  0  0  0  0
    4.3889   -1.0259   -2.7324 S   0  0  0  0  0  0  0  0  0  0  0  0
   -0.2777   -0.3745   -2.1993 O   0  0  0  0  0  0  0  0  0  0  0  0
    5.0077   -1.4779   -1.4814 O   0  0  0  0  0  0  0  0  0  0  0  0
    3.6361   -1.9346   -3.6009 O   0  0  0  0  0  0  0  0  0  0  0  0
    8.5671    1.8953   -6.0680 C   0  0  0  0  0  0  0  0  0  0  0  0
    8.9232    2.8012   -5.5688 H   0  0  0  0  0  0  0  0  0  0  0  0
    9.4390    1.2497   -6.2304 H   0  0  0  0  0  0  0  0  0  0  0  0
    8.1808    2.1769   -7.0510 H   0  0  0  0  0  0  0  0  0  0  0  0
   -1.3194    4.0024   -1.3982 H   0  0  0  0  0  0  0  0  0  0  0  0
  1  7  1  0  0  0  0
  1  6  1  0  0  0  0
  2  1  2  0  0  0  0
  3  4  2  0  0  0  0
  3  2  1  0  0  0  0
  4  5  1  0  0  0  0
  5 10  1  0  0  0  0
  5  6  2  0  0  0  0
  6 31  1  0  0  0  0
  8  2  1  0  0  0  0
 11 12  1  0  0  0  0
 11  3  1  0  0  0  0
 13 19  1  0  0  0  0
 14 20  1  0  0  0  0
 14 13  2  0  0  0  0
 15 14  1  0  0  0  0
 16 15  2  0  0  0  0
 16 17  1  0  0  0  0
 17 18  2  0  0  0  0
 18 13  1  0  0  0  0
 18 23  1  0  0  0  0
 21 16  1  0  0  0  0
 22 17  1  0  0  0  0
 23 12  1  0  0  0  0
 23 25  2  0  0  0  0
 24  9  1  0  0  0  0
 24  4  1  0  0  0  0
 26 23  2  0  0  0  0
 27 28  1  0  0  0  0
 27 15  1  0  0  0  0
 29 27  1  0  0  0  0
 30 27  1  0  0  0  0
M  RAD  2  11   2  12   2
M  END
