Coordinates from ORCA-job Ph-N2-X-OTs-B3LYPG-6-31G_dp-scan-d09-49-n400
 OpenBabel08281821363D

 31 32  0  0  0  0  0  0  0  0999 V2000
   -1.0207    2.4509   -2.9590 C   0  0  0  0  0  0  0  0  0  0  0  0
    0.0319    1.6505   -3.3730 C   0  0  0  0  0  0  0  0  0  0  0  0
    1.1216    1.2967   -2.5427 C   0  0  0  0  0  0  0  0  0  0  0  0
    1.1145    1.7993   -1.1976 C   0  0  0  0  0  0  0  0  0  0  0  0
    0.0363    2.6066   -0.7982 C   0  0  0  0  0  0  0  0  0  0  0  0
   -1.0121    2.9331   -1.6496 C   0  0  0  0  0  0  0  0  0  0  0  0
   -1.8300    2.6928   -3.6393 H   0  0  0  0  0  0  0  0  0  0  0  0
    0.0675    1.2487   -4.3793 H   0  0  0  0  0  0  0  0  0  0  0  0
    1.8568    1.9675    0.5455 H   0  0  0  0  0  0  0  0  0  0  0  0
    0.0355    2.9868    0.2217 H   0  0  0  0  0  0  0  0  0  0  0  0
    2.0059    0.4749   -3.3006 N   0  0  0  0  0  0  0  0  0  0  0  0
    3.0792    0.0120   -2.8908 N   0  0  0  0  0  0  0  0  0  0  0  0
    6.3897   -0.4040   -3.3988 C   0  0  0  0  0  0  0  0  0  0  0  0
    7.6063    0.2613   -3.5280 C   0  0  0  0  0  0  0  0  0  0  0  0
    7.8501    1.1254   -4.6064 C   0  0  0  0  0  0  0  0  0  0  0  0
    6.8365    1.3131   -5.5577 C   0  0  0  0  0  0  0  0  0  0  0  0
    5.6109    0.6607   -5.4434 C   0  0  0  0  0  0  0  0  0  0  0  0
    5.3999   -0.1962   -4.3619 C   0  0  0  0  0  0  0  0  0  0  0  0
    6.2075   -1.0829   -2.5730 H   0  0  0  0  0  0  0  0  0  0  0  0
    8.3814    0.1043   -2.7821 H   0  0  0  0  0  0  0  0  0  0  0  0
    7.0108    1.9772   -6.4005 H   0  0  0  0  0  0  0  0  0  0  0  0
    4.8278    0.7986   -6.1815 H   0  0  0  0  0  0  0  0  0  0  0  0
    3.8271   -1.0286   -4.1954 S   0  0  0  0  0  0  0  0  0  0  0  0
    2.0880    1.5388   -0.2887 O   0  0  0  0  0  0  0  0  0  0  0  0
    4.0375   -2.3195   -3.5299 O   0  0  0  0  0  0  0  0  0  0  0  0
    3.0938   -0.9188   -5.4607 O   0  0  0  0  0  0  0  0  0  0  0  0
    9.1855    1.8137   -4.7563 C   0  0  0  0  0  0  0  0  0  0  0  0
    9.6495    2.0032   -3.7843 H   0  0  0  0  0  0  0  0  0  0  0  0
    9.8816    1.1937   -5.3353 H   0  0  0  0  0  0  0  0  0  0  0  0
    9.0879    2.7690   -5.2801 H   0  0  0  0  0  0  0  0  0  0  0  0
   -1.8191    3.5620   -1.2848 H   0  0  0  0  0  0  0  0  0  0  0  0
  1  6  1  0  0  0  0
  2  1  2  0  0  0  0
  2  3  1  0  0  0  0
  3  4  2  0  0  0  0
  4  5  1  0  0  0  0
  4 24  1  0  0  0  0
  5 10  1  0  0  0  0
  6 31  1  0  0  0  0
  6  5  2  0  0  0  0
  7  1  1  0  0  0  0
  8  2  1  0  0  0  0
 11 12  1  0  0  0  0
 11  3  1  0  0  0  0
 13 19  1  0  0  0  0
 14 13  1  0  0  0  0
 14 20  1  0  0  0  0
 15 14  2  0  0  0  0
 16 17  2  0  0  0  0
 16 15  1  0  0  0  0
 17 18  1  0  0  0  0
 18 23  1  0  0  0  0
 18 13  2  0  0  0  0
 21 16  1  0  0  0  0
 22 17  1  0  0  0  0
 23 25  2  0  0  0  0
 23 12  1  0  0  0  0
 24  9  1  0  0  0  0
 26 23  2  0  0  0  0
 27 15  1  0  0  0  0
 27 28  1  0  0  0  0
 29 27  1  0  0  0  0
 30 27  1  0  0  0  0
M  RAD  2  11   2  12   2
M  END
