Coordinates from ORCA-job Ph-N2-X-OTs-B3LYPG-6-31G_dp-scan-d09-49-n400
 OpenBabel08281821363D

 31 30  0  0  0  0  0  0  0  0999 V2000
   -0.1798    0.5390   -3.6230 C   0  0  0  0  0  0  0  0  0  0  0  0
    1.0963    0.4590   -3.0714 C   0  0  0  0  0  0  0  0  0  0  0  0
    1.4902    1.4873   -2.2136 C   0  0  0  0  0  0  0  0  0  0  0  0
    0.6768    2.5847   -1.8864 C   0  0  0  0  0  0  0  0  0  0  0  0
   -0.5954    2.6243   -2.4477 C   0  0  0  0  0  0  0  0  0  0  0  0
   -1.0236    1.6090   -3.3093 C   0  0  0  0  0  0  0  0  0  0  0  0
   -0.5134   -0.2429   -4.2974 H   0  0  0  0  0  0  0  0  0  0  0  0
    1.7594   -0.3656   -3.3088 H   0  0  0  0  0  0  0  0  0  0  0  0
    1.0867    3.3585   -1.2323 H   0  0  0  0  0  0  0  0  0  0  0  0
   -1.2522    3.4562   -2.2130 H   0  0  0  0  0  0  0  0  0  0  0  0
    2.7826    1.4940   -1.6188 N   0  0  0  0  0  0  0  0  0  0  0  0
    3.5249    2.1012   -1.0026 N   0  0  0  0  0  0  0  0  0  0  0  0
    5.6932   -0.3332   -4.8915 C   0  0  0  0  0  0  0  0  0  0  0  0
    6.7029    0.4626   -5.4335 C   0  0  0  0  0  0  0  0  0  0  0  0
    7.5016    1.2771   -4.6193 C   0  0  0  0  0  0  0  0  0  0  0  0
    7.2667    1.2762   -3.2340 C   0  0  0  0  0  0  0  0  0  0  0  0
    6.2646    0.4894   -2.6737 C   0  0  0  0  0  0  0  0  0  0  0  0
    5.4718   -0.2953   -3.5158 C   0  0  0  0  0  0  0  0  0  0  0  0
    5.0724   -0.9640   -5.5186 H   0  0  0  0  0  0  0  0  0  0  0  0
    6.8737    0.4487   -6.5071 H   0  0  0  0  0  0  0  0  0  0  0  0
    7.8759    1.9027   -2.5875 H   0  0  0  0  0  0  0  0  0  0  0  0
    6.0847    0.4985   -1.6037 H   0  0  0  0  0  0  0  0  0  0  0  0
    4.2169   -1.3934   -2.7932 S   0  0  0  0  0  0  0  0  0  0  0  0
    2.7422    4.2012   -0.4701 O   0  0  0  0  0  0  0  0  0  0  0  0
    3.3117   -1.7867   -3.9248 O   0  0  0  0  0  0  0  0  0  0  0  0
    3.5756   -0.5736   -1.6650 O   0  0  0  0  0  0  0  0  0  0  0  0
    8.5780    2.1530   -5.2123 C   0  0  0  0  0  0  0  0  0  0  0  0
    8.8437    1.8333   -6.2232 H   0  0  0  0  0  0  0  0  0  0  0  0
    8.2440    3.1962   -5.2728 H   0  0  0  0  0  0  0  0  0  0  0  0
    9.4857    2.1407   -4.6006 H   0  0  0  0  0  0  0  0  0  0  0  0
   -2.0188    1.6529   -3.7413 H   0  0  0  0  0  0  0  0  0  0  0  0
  1  6  2  0  0  0  0
  1  2  1  0  0  0  0
  2  3  2  0  0  0  0
  3  4  1  0  0  0  0
  3 11  1  0  0  0  0
  4  9  1  0  0  0  0
  5 10  1  0  0  0  0
  5  4  2  0  0  0  0
  6  5  1  0  0  0  0
  7  1  1  0  0  0  0
  8  2  1  0  0  0  0
 11 12  2  0  0  0  0
 13 18  1  0  0  0  0
 14 13  2  0  0  0  0
 14 15  1  0  0  0  0
 15 16  2  0  0  0  0
 16 17  1  0  0  0  0
 16 21  1  0  0  0  0
 17 22  1  0  0  0  0
 18 23  1  0  0  0  0
 18 17  2  0  0  0  0
 19 13  1  0  0  0  0
 20 14  1  0  0  0  0
 23 26  1  0  0  0  0
 25 23  1  0  0  0  0
 27 15  1  0  0  0  0
 27 30  1  0  0  0  0
 28 27  1  0  0  0  0
 29 27  1  0  0  0  0
 31  6  1  0  0  0  0
M  RAD  4  12   2  24   3  25   2  26   2
M  END
