Coordinates from ORCA-job Ph-N2-X-OTs-B3LYPG-6-31G_dp-scan-d09-49-n400
 OpenBabel08281821363D

 31 30  0  0  0  0  0  0  0  0999 V2000
   -0.2107    0.5310   -3.6081 C   0  0  0  0  0  0  0  0  0  0  0  0
    1.0745    0.4551   -3.0772 C   0  0  0  0  0  0  0  0  0  0  0  0
    1.4832    1.4855   -2.2287 C   0  0  0  0  0  0  0  0  0  0  0  0
    0.6717    2.5813   -1.8914 C   0  0  0  0  0  0  0  0  0  0  0  0
   -0.6103    2.6173   -2.4307 C   0  0  0  0  0  0  0  0  0  0  0  0
   -1.0514    1.5999   -3.2828 C   0  0  0  0  0  0  0  0  0  0  0  0
   -0.5542   -0.2532   -4.2749 H   0  0  0  0  0  0  0  0  0  0  0  0
    1.7340   -0.3694   -3.3240 H   0  0  0  0  0  0  0  0  0  0  0  0
    1.0929    3.3570   -1.2495 H   0  0  0  0  0  0  0  0  0  0  0  0
   -1.2645    3.4486   -2.1868 H   0  0  0  0  0  0  0  0  0  0  0  0
    2.7871    1.4900   -1.6576 N   0  0  0  0  0  0  0  0  0  0  0  0
    3.5294    2.1206   -1.0566 N   0  0  0  0  0  0  0  0  0  0  0  0
    5.6966   -0.3201   -4.8885 C   0  0  0  0  0  0  0  0  0  0  0  0
    6.7120    0.4710   -5.4266 C   0  0  0  0  0  0  0  0  0  0  0  0
    7.5122    1.2804   -4.6089 C   0  0  0  0  0  0  0  0  0  0  0  0
    7.2730    1.2795   -3.2242 C   0  0  0  0  0  0  0  0  0  0  0  0
    6.2655    0.4975   -2.6675 C   0  0  0  0  0  0  0  0  0  0  0  0
    5.4716   -0.2820   -3.5134 C   0  0  0  0  0  0  0  0  0  0  0  0
    5.0748   -0.9474   -5.5183 H   0  0  0  0  0  0  0  0  0  0  0  0
    6.8860    0.4571   -6.4996 H   0  0  0  0  0  0  0  0  0  0  0  0
    7.8827    1.9029   -2.5754 H   0  0  0  0  0  0  0  0  0  0  0  0
    6.0815    0.5080   -1.5983 H   0  0  0  0  0  0  0  0  0  0  0  0
    4.2098   -1.3740   -2.7982 S   0  0  0  0  0  0  0  0  0  0  0  0
    2.8440    4.1269   -0.5795 O   0  0  0  0  0  0  0  0  0  0  0  0
    3.3121   -1.7725   -3.9320 O   0  0  0  0  0  0  0  0  0  0  0  0
    3.5647   -0.5530   -1.6709 O   0  0  0  0  0  0  0  0  0  0  0  0
    8.5952    2.1512   -5.1973 C   0  0  0  0  0  0  0  0  0  0  0  0
    8.8550    1.8380   -6.2117 H   0  0  0  0  0  0  0  0  0  0  0  0
    8.2707    3.1980   -5.2472 H   0  0  0  0  0  0  0  0  0  0  0  0
    9.5043    2.1248   -4.5881 H   0  0  0  0  0  0  0  0  0  0  0  0
   -2.0538    1.6410   -3.6982 H   0  0  0  0  0  0  0  0  0  0  0  0
  1  6  2  0  0  0  0
  1  2  1  0  0  0  0
  2  3  2  0  0  0  0
  3  4  1  0  0  0  0
  3 11  1  0  0  0  0
  4  9  1  0  0  0  0
  5 10  1  0  0  0  0
  5  4  2  0  0  0  0
  6  5  1  0  0  0  0
  7  1  1  0  0  0  0
  8  2  1  0  0  0  0
 11 12  2  0  0  0  0
 13 18  1  0  0  0  0
 14 13  2  0  0  0  0
 14 15  1  0  0  0  0
 15 16  2  0  0  0  0
 16 17  1  0  0  0  0
 16 21  1  0  0  0  0
 17 22  1  0  0  0  0
 18 23  1  0  0  0  0
 18 17  2  0  0  0  0
 19 13  1  0  0  0  0
 20 14  1  0  0  0  0
 23 26  1  0  0  0  0
 25 23  1  0  0  0  0
 27 15  1  0  0  0  0
 27 30  1  0  0  0  0
 28 27  1  0  0  0  0
 29 27  1  0  0  0  0
 31  6  1  0  0  0  0
M  RAD  4  12   2  24   3  25   2  26   2
M  END
