Coordinates from ORCA-job Ph-N2-X-OTs-B3LYPG-6-31G_dp-scan-d09-49-n400
 OpenBabel08281821363D

 31 32  0  0  0  0  0  0  0  0999 V2000
    0.8300    3.3292   -1.1737 C   0  0  0  0  0  0  0  0  0  0  0  0
    1.6844    2.2936   -1.4974 C   0  0  0  0  0  0  0  0  0  0  0  0
    1.3046    1.1136   -2.1816 C   0  0  0  0  0  0  0  0  0  0  0  0
   -0.1110    0.9941   -2.5618 C   0  0  0  0  0  0  0  0  0  0  0  0
   -0.9395    2.0819   -2.2092 C   0  0  0  0  0  0  0  0  0  0  0  0
   -0.5112    3.2166   -1.5410 C   0  0  0  0  0  0  0  0  0  0  0  0
    1.1975    4.2023   -0.6448 H   0  0  0  0  0  0  0  0  0  0  0  0
    2.7302    2.3528   -1.2171 H   0  0  0  0  0  0  0  0  0  0  0  0
   -1.7152    0.2584   -3.2969 H   0  0  0  0  0  0  0  0  0  0  0  0
   -1.9908    2.0149   -2.4853 H   0  0  0  0  0  0  0  0  0  0  0  0
    2.3735    0.1542   -2.4105 N   0  0  0  0  0  0  0  0  0  0  0  0
    3.5456    0.4617   -2.0270 N   0  0  0  0  0  0  0  0  0  0  0  0
    6.7557    0.7553   -3.0604 C   0  0  0  0  0  0  0  0  0  0  0  0
    7.5854    1.3826   -3.9859 C   0  0  0  0  0  0  0  0  0  0  0  0
    7.4421    1.1518   -5.3629 C   0  0  0  0  0  0  0  0  0  0  0  0
    6.4376    0.2733   -5.7952 C   0  0  0  0  0  0  0  0  0  0  0  0
    5.5950   -0.3614   -4.8856 C   0  0  0  0  0  0  0  0  0  0  0  0
    5.7640   -0.1134   -3.5222 C   0  0  0  0  0  0  0  0  0  0  0  0
    6.8772    0.9209   -1.9952 H   0  0  0  0  0  0  0  0  0  0  0  0
    8.3604    2.0592   -3.6352 H   0  0  0  0  0  0  0  0  0  0  0  0
    6.3163    0.0816   -6.8582 H   0  0  0  0  0  0  0  0  0  0  0  0
    4.8225   -1.0476   -5.2159 H   0  0  0  0  0  0  0  0  0  0  0  0
    4.6789   -0.9106   -2.3473 S   0  0  0  0  0  0  0  0  0  0  0  0
   -0.7949   -0.0225   -3.2262 O   0  0  0  0  0  0  0  0  0  0  0  0
    5.3815   -1.0596   -1.0692 O   0  0  0  0  0  0  0  0  0  0  0  0
    4.0114   -2.0359   -3.0029 O   0  0  0  0  0  0  0  0  0  0  0  0
    8.3707    1.8101   -6.3545 C   0  0  0  0  0  0  0  0  0  0  0  0
    8.6743    2.8057   -6.0189 H   0  0  0  0  0  0  0  0  0  0  0  0
    9.2849    1.2182   -6.4848 H   0  0  0  0  0  0  0  0  0  0  0  0
    7.9026    1.9082   -7.3378 H   0  0  0  0  0  0  0  0  0  0  0  0
   -1.2243    4.0017   -1.3076 H   0  0  0  0  0  0  0  0  0  0  0  0
  1  7  1  0  0  0  0
  2  8  1  0  0  0  0
  2  1  1  0  0  0  0
  3  2  2  0  0  0  0
  4  5  2  0  0  0  0
  4  3  1  0  0  0  0
  5  6  1  0  0  0  0
  6 31  1  0  0  0  0
  6  1  2  0  0  0  0
  9 24  1  0  0  0  0
 10  5  1  0  0  0  0
 11  3  1  0  0  0  0
 11 12  1  0  0  0  0
 13 19  1  0  0  0  0
 14 20  1  0  0  0  0
 14 13  2  0  0  0  0
 15 14  1  0  0  0  0
 16 15  2  0  0  0  0
 16 17  1  0  0  0  0
 17 18  2  0  0  0  0
 18 13  1  0  0  0  0
 18 23  1  0  0  0  0
 21 16  1  0  0  0  0
 22 17  1  0  0  0  0
 23 12  1  0  0  0  0
 23 25  2  0  0  0  0
 24  4  1  0  0  0  0
 26 23  2  0  0  0  0
 27 28  1  0  0  0  0
 27 15  1  0  0  0  0
 29 27  1  0  0  0  0
 30 27  1  0  0  0  0
M  RAD  2  11   2  12   2
M  END
