Coordinates from ORCA-job Ph-N2-X-OTs-B3LYPG-6-31G_dp-scan-d09-49-n400
 OpenBabel08281821363D

 31 32  0  0  0  0  0  0  0  0999 V2000
   -0.7017    0.2496   -2.2701 C   0  0  0  0  0  0  0  0  0  0  0  0
    0.6566    0.1716   -1.9788 C   0  0  0  0  0  0  0  0  0  0  0  0
    1.5087    1.1975   -2.4094 C   0  0  0  0  0  0  0  0  0  0  0  0
    1.0180    2.2927   -3.1314 C   0  0  0  0  0  0  0  0  0  0  0  0
   -0.3444    2.3415   -3.4237 C   0  0  0  0  0  0  0  0  0  0  0  0
   -1.2069    1.3319   -2.9949 C   0  0  0  0  0  0  0  0  0  0  0  0
   -1.3647   -0.5402   -1.9307 H   0  0  0  0  0  0  0  0  0  0  0  0
    1.0577   -0.6677   -1.4259 H   0  0  0  0  0  0  0  0  0  0  0  0
    1.6977    3.0772   -3.4248 H   0  0  0  0  0  0  0  0  0  0  0  0
   -0.7307    3.1846   -3.9886 H   0  0  0  0  0  0  0  0  0  0  0  0
    2.9076    1.0789   -2.0968 N   0  0  0  0  0  0  0  0  0  0  0  0
    3.8313    1.9494   -1.9077 N   0  0  0  0  0  0  0  0  0  0  0  0
    5.3572    0.7217   -4.8413 C   0  0  0  0  0  0  0  0  0  0  0  0
    6.4716    1.4983   -5.1422 C   0  0  0  0  0  0  0  0  0  0  0  0
    7.5999    1.5026   -4.3064 C   0  0  0  0  0  0  0  0  0  0  0  0
    7.5863    0.7040   -3.1528 C   0  0  0  0  0  0  0  0  0  0  0  0
    6.4804   -0.0787   -2.8343 C   0  0  0  0  0  0  0  0  0  0  0  0
    5.3701   -0.0560   -3.6820 C   0  0  0  0  0  0  0  0  0  0  0  0
    4.4818    0.7073   -5.4825 H   0  0  0  0  0  0  0  0  0  0  0  0
    6.4671    2.1140   -6.0378 H   0  0  0  0  0  0  0  0  0  0  0  0
    8.4504    0.7021   -2.4940 H   0  0  0  0  0  0  0  0  0  0  0  0
    6.4752   -0.6797   -1.9292 H   0  0  0  0  0  0  0  0  0  0  0  0
    3.9742   -1.1176   -3.3096 S   0  0  2  0  0  0  0  0  0  0  0  0
    3.3231    3.3935   -2.0889 O   0  0  0  0  0  0  0  0  0  0  0  0
    3.0121   -0.9598   -4.4318 O   0  0  0  0  0  0  0  0  0  0  0  0
    3.3510   -0.2162   -1.8512 O   0  0  0  0  0  0  0  0  0  0  0  0
    8.8068    2.3375   -4.6566 C   0  0  0  0  0  0  0  0  0  0  0  0
    9.3627    1.8919   -5.4905 H   0  0  0  0  0  0  0  0  0  0  0  0
    8.5144    3.3460   -4.9647 H   0  0  0  0  0  0  0  0  0  0  0  0
    9.4926    2.4265   -3.8097 H   0  0  0  0  0  0  0  0  0  0  0  0
   -2.2671    1.3864   -3.2238 H   0  0  0  0  0  0  0  0  0  0  0  0
  1  2  1  0  0  0  0
  1  7  1  0  0  0  0
  2  8  1  0  0  0  0
  3 11  1  0  0  0  0
  3  2  2  0  0  0  0
  4  3  1  0  0  0  0
  5  4  2  0  0  0  0
  5  6  1  0  0  0  0
  6  1  2  0  0  0  0
  9  4  1  0  0  0  0
 10  5  1  0  0  0  0
 11 12  1  0  0  0  0
 11 26  1  0  0  0  0
 13 18  1  0  0  0  0
 14 13  2  0  0  0  0
 14 15  1  0  0  0  0
 15 16  2  0  0  0  0
 16 17  1  0  0  0  0
 16 21  1  0  0  0  0
 17 22  1  0  0  0  0
 18 23  1  0  0  0  0
 18 17  2  0  0  0  0
 19 13  1  0  0  0  0
 20 14  1  0  0  0  0
 23 25  1  6  0  0  0
 23 26  1  0  0  0  0
 24 12  1  0  0  0  0
 27 15  1  0  0  0  0
 27 30  1  0  0  0  0
 28 27  1  0  0  0  0
 29 27  1  0  0  0  0
 31  6  1  0  0  0  0
M  RAD  3  12   2  24   2  25   2
M  END
