Coordinates from ORCA-job Ph-N2-X-OTs-B3LYPG-6-31G_dp-scan-d09-49-n400
 OpenBabel08281821363D

 31 32  0  0  0  0  0  0  0  0999 V2000
    0.7361    3.6347   -1.9510 C   0  0  0  0  0  0  0  0  0  0  0  0
    1.6804    2.6577   -2.2539 C   0  0  0  0  0  0  0  0  0  0  0  0
    1.3079    1.3100   -2.2508 C   0  0  0  0  0  0  0  0  0  0  0  0
   -0.0016    0.9299   -1.9135 C   0  0  0  0  0  0  0  0  0  0  0  0
   -0.9439    1.9120   -1.5960 C   0  0  0  0  0  0  0  0  0  0  0  0
   -0.5712    3.2565   -1.6241 C   0  0  0  0  0  0  0  0  0  0  0  0
    1.0111    4.6842   -1.9747 H   0  0  0  0  0  0  0  0  0  0  0  0
    2.6993    2.9142   -2.5232 H   0  0  0  0  0  0  0  0  0  0  0  0
   -1.1570   -0.5704   -1.6725 H   0  0  0  0  0  0  0  0  0  0  0  0
   -1.9566    1.6241   -1.3242 H   0  0  0  0  0  0  0  0  0  0  0  0
    2.1543    0.2378   -2.6239 N   0  0  0  0  0  0  0  0  0  0  0  0
    3.3391    0.3825   -2.3096 N   0  0  0  0  0  0  0  0  0  0  0  0
    6.6495    0.4144   -3.0767 C   0  0  0  0  0  0  0  0  0  0  0  0
    7.6221    1.1029   -3.7966 C   0  0  0  0  0  0  0  0  0  0  0  0
    7.5568    1.2005   -5.1955 C   0  0  0  0  0  0  0  0  0  0  0  0
    6.4848    0.5890   -5.8613 C   0  0  0  0  0  0  0  0  0  0  0  0
    5.4999   -0.1028   -5.1584 C   0  0  0  0  0  0  0  0  0  0  0  0
    5.5928   -0.1831   -3.7682 C   0  0  0  0  0  0  0  0  0  0  0  0
    6.7083    0.3250   -1.9971 H   0  0  0  0  0  0  0  0  0  0  0  0
    8.4483    1.5696   -3.2664 H   0  0  0  0  0  0  0  0  0  0  0  0
    6.4219    0.6530   -6.9447 H   0  0  0  0  0  0  0  0  0  0  0  0
    4.6749   -0.5851   -5.6715 H   0  0  0  0  0  0  0  0  0  0  0  0
    4.3276   -1.0532   -2.8527 S   0  0  0  0  0  0  0  0  0  0  0  0
   -0.2266   -0.4026   -1.8747 O   0  0  0  0  0  0  0  0  0  0  0  0
    4.9076   -1.5672   -1.6071 O   0  0  0  0  0  0  0  0  0  0  0  0
    3.5771   -1.9100   -3.7744 O   0  0  0  0  0  0  0  0  0  0  0  0
    8.6352    1.9245   -5.9651 C   0  0  0  0  0  0  0  0  0  0  0  0
    8.9892    2.8063   -5.4228 H   0  0  0  0  0  0  0  0  0  0  0  0
    9.5030    1.2735   -6.1278 H   0  0  0  0  0  0  0  0  0  0  0  0
    8.2796    2.2475   -6.9469 H   0  0  0  0  0  0  0  0  0  0  0  0
   -1.3108    4.0154   -1.3865 H   0  0  0  0  0  0  0  0  0  0  0  0
  1  6  2  0  0  0  0
  2  3  2  0  0  0  0
  2  1  1  0  0  0  0
  3  4  1  0  0  0  0
  4 24  1  0  0  0  0
  4  5  2  0  0  0  0
  5 10  1  0  0  0  0
  6  5  1  0  0  0  0
  6 31  1  0  0  0  0
  7  1  1  0  0  0  0
  8  2  1  0  0  0  0
 11 12  1  0  0  0  0
 11  3  1  0  0  0  0
 13 19  1  0  0  0  0
 14 20  1  0  0  0  0
 14 13  2  0  0  0  0
 15 14  1  0  0  0  0
 16 15  2  0  0  0  0
 16 17  1  0  0  0  0
 17 18  2  0  0  0  0
 18 13  1  0  0  0  0
 18 23  1  0  0  0  0
 21 16  1  0  0  0  0
 22 17  1  0  0  0  0
 23 12  1  0  0  0  0
 23 25  2  0  0  0  0
 24  9  1  0  0  0  0
 26 23  2  0  0  0  0
 27 28  1  0  0  0  0
 27 15  1  0  0  0  0
 29 27  1  0  0  0  0
 30 27  1  0  0  0  0
M  RAD  2  11   2  12   2
M  END
