Coordinates from ORCA-job Ph-N2-BF4-B3LYPG-aug-cc-pVDZ-scan-d09-49-n400
 OpenBabel11081710393D

 18 16  0  0  0  0  0  0  0  0999 V2000
   -1.3084   -0.0982    0.0363 C   0  0  0  0  0  0  0  0  0  0  0  0
   -0.0025   -0.0005    0.5290 C   0  0  0  0  0  0  0  0  0  0  0  0
    0.4727    1.2612    0.8623 C   0  0  0  0  0  0  0  0  0  0  0  0
   -0.2786    2.4202    0.7233 C   0  0  0  0  0  0  0  0  0  0  0  0
   -1.5821    2.3009    0.2287 C   0  0  0  0  0  0  0  0  0  0  0  0
   -2.0984    1.0466   -0.1133 C   0  0  0  0  0  0  0  0  0  0  0  0
   -1.7069   -1.0769   -0.2318 H   0  0  0  0  0  0  0  0  0  0  0  0
    0.6354   -0.8743    0.6491 H   0  0  0  0  0  0  0  0  0  0  0  0
    0.1506    3.3833    0.9944 H   0  0  0  0  0  0  0  0  0  0  0  0
   -2.1940    3.1955    0.1110 H   0  0  0  0  0  0  0  0  0  0  0  0
    2.8623    1.5463   -2.5041 N   0  0  0  0  0  0  0  0  0  0  0  0
    2.7945    1.5065   -3.6056 N   0  0  0  0  0  0  0  0  0  0  0  0
    3.7996   -0.2035    1.6179 B   0  0  0  0  0  0  0  0  0  0  0  0
    3.5069   -0.9044    0.5258 F   0  0  0  0  0  0  0  0  0  0  0  0
    4.6143    0.8398    1.5384 F   0  0  0  0  0  0  0  0  0  0  0  0
    1.7523    1.3749    1.3451 F   0  0  0  0  0  0  0  0  0  0  0  0
    3.3374   -0.6028    2.7971 F   0  0  0  0  0  0  0  0  0  0  0  0
   -3.1145    0.9615   -0.4978 H   0  0  0  0  0  0  0  0  0  0  0  0
  1  2  1  0  0  0  0
  2  8  1  0  0  0  0
  2  3  2  0  0  0  0
  3 16  1  0  0  0  0
  4  3  1  0  0  0  0
  4  9  1  0  0  0  0
  5  4  2  0  0  0  0
  6  1  2  0  0  0  0
  6  5  1  0  0  0  0
  7  1  1  0  0  0  0
 10  5  1  0  0  0  0
 12 11  3  0  0  0  0
 13 17  1  0  0  0  0
 14 13  1  0  0  0  0
 15 13  1  0  0  0  0
 18  6  1  0  0  0  0
M  END
