Coordinates from ORCA-job Ph-N2-BF4-B3LYPG-aug-cc-pVDZ-scan-d09-49-n400
 OpenBabel11081710393D

 18 16  0  0  0  0  0  0  0  0999 V2000
   -1.0212   -0.0545    0.5106 C   0  0  0  0  0  0  0  0  0  0  0  0
    0.3103    0.1490    0.0702 C   0  0  0  0  0  0  0  0  0  0  0  0
    0.4270    1.4075   -0.3898 C   0  0  0  0  0  0  0  0  0  0  0  0
   -0.3527    2.5083   -0.5351 C   0  0  0  0  0  0  0  0  0  0  0  0
   -1.6584    2.2249   -0.0757 C   0  0  0  0  0  0  0  0  0  0  0  0
   -1.9782    0.9618    0.4349 C   0  0  0  0  0  0  0  0  0  0  0  0
   -1.2592   -1.0301    0.9338 H   0  0  0  0  0  0  0  0  0  0  0  0
    1.1184   -0.5810    0.1550 H   0  0  0  0  0  0  0  0  0  0  0  0
   -0.0444    3.4693   -0.9329 H   0  0  0  0  0  0  0  0  0  0  0  0
   -2.4016    3.0202   -0.1290 H   0  0  0  0  0  0  0  0  0  0  0  0
    2.3121    1.8048   -1.0990 N   0  0  0  0  0  0  0  0  0  0  0  0
    3.2712    2.1116   -1.5453 N   0  0  0  0  0  0  0  0  0  0  0  0
    3.2107   -0.1451    1.3951 B   0  0  0  0  0  0  0  0  0  0  0  0
    3.1312   -0.5523    0.0048 F   0  0  0  0  0  0  0  0  0  0  0  0
    4.4805   -0.3691    1.8958 F   0  0  0  0  0  0  0  0  0  0  0  0
    2.8739    1.2480    1.4288 F   0  0  0  0  0  0  0  0  0  0  0  0
    2.2109   -0.8683    2.0932 F   0  0  0  0  0  0  0  0  0  0  0  0
   -2.9900    0.7710    0.7905 H   0  0  0  0  0  0  0  0  0  0  0  0
  1  7  1  0  0  0  0
  2  8  1  0  0  0  0
  2  1  2  0  0  0  0
  3  2  1  0  0  0  0
  4  3  2  0  0  0  0
  4  5  1  0  0  0  0
  5  6  2  0  0  0  0
  6  1  1  0  0  0  0
  6 18  1  0  0  0  0
  9  4  1  0  0  0  0
 10  5  1  0  0  0  0
 12 11  3  0  0  0  0
 13 16  1  0  0  0  0
 13 15  1  0  0  0  0
 13 17  1  0  0  0  0
 14 13  1  0  0  0  0
M  RAD  1   3   2
M  END
