Coordinates from ORCA-job Ph-N2-BF4-B3LYPG-aug-cc-pVDZ-scan-d09-49-n400
 OpenBabel11081710393D

 18 16  0  0  0  0  0  0  0  0999 V2000
   -1.3368   -0.0996    0.0671 C   0  0  0  0  0  0  0  0  0  0  0  0
   -0.0253    0.0024    0.5440 C   0  0  0  0  0  0  0  0  0  0  0  0
    0.4448    1.2643    0.8839 C   0  0  0  0  0  0  0  0  0  0  0  0
   -0.3159    2.4193    0.7661 C   0  0  0  0  0  0  0  0  0  0  0  0
   -1.6248    2.2955    0.2869 C   0  0  0  0  0  0  0  0  0  0  0  0
   -2.1365    1.0410   -0.0610 C   0  0  0  0  0  0  0  0  0  0  0  0
   -1.7318   -1.0784   -0.2058 H   0  0  0  0  0  0  0  0  0  0  0  0
    0.6203   -0.8678    0.6471 H   0  0  0  0  0  0  0  0  0  0  0  0
    0.1093    3.3830    1.0415 H   0  0  0  0  0  0  0  0  0  0  0  0
   -2.2444    3.1869    0.1858 H   0  0  0  0  0  0  0  0  0  0  0  0
    3.0756    1.5375   -2.7307 N   0  0  0  0  0  0  0  0  0  0  0  0
    3.0669    1.4959   -3.8343 N   0  0  0  0  0  0  0  0  0  0  0  0
    3.7764   -0.1954    1.6226 B   0  0  0  0  0  0  0  0  0  0  0  0
    3.4980   -0.8816    0.5176 F   0  0  0  0  0  0  0  0  0  0  0  0
    4.5904    0.8499    1.5669 F   0  0  0  0  0  0  0  0  0  0  0  0
    1.7305    1.3820    1.3507 F   0  0  0  0  0  0  0  0  0  0  0  0
    3.3007   -0.6114    2.7907 F   0  0  0  0  0  0  0  0  0  0  0  0
   -3.1569    0.9525   -0.4333 H   0  0  0  0  0  0  0  0  0  0  0  0
  1  2  1  0  0  0  0
  2  8  1  0  0  0  0
  2  3  2  0  0  0  0
  3 16  1  0  0  0  0
  4  3  1  0  0  0  0
  4  9  1  0  0  0  0
  5  4  2  0  0  0  0
  6  1  2  0  0  0  0
  6  5  1  0  0  0  0
  7  1  1  0  0  0  0
 10  5  1  0  0  0  0
 12 11  3  0  0  0  0
 13 17  1  0  0  0  0
 14 13  1  0  0  0  0
 15 13  1  0  0  0  0
 18  6  1  0  0  0  0
M  END
