Coordinates from ORCA-job Ph-N2-BF4-B3LYPG-aug-cc-pVDZ-scan-d09-49-n400
 OpenBabel11081710393D

 18 16  0  0  0  0  0  0  0  0999 V2000
   -1.3270   -0.0996    0.0567 C   0  0  0  0  0  0  0  0  0  0  0  0
   -0.0171    0.0009    0.5381 C   0  0  0  0  0  0  0  0  0  0  0  0
    0.4570    1.2631    0.8737 C   0  0  0  0  0  0  0  0  0  0  0  0
   -0.3028    2.4202    0.7502 C   0  0  0  0  0  0  0  0  0  0  0  0
   -1.6101    2.2977    0.2668 C   0  0  0  0  0  0  0  0  0  0  0  0
   -2.1232    1.0429   -0.0787 C   0  0  0  0  0  0  0  0  0  0  0  0
   -1.7239   -1.0783   -0.2134 H   0  0  0  0  0  0  0  0  0  0  0  0
    0.6246   -0.8715    0.6484 H   0  0  0  0  0  0  0  0  0  0  0  0
    0.1230    3.3840    1.0250 H   0  0  0  0  0  0  0  0  0  0  0  0
   -2.2276    3.1899    0.1609 H   0  0  0  0  0  0  0  0  0  0  0  0
    3.0019    1.5416   -2.6538 N   0  0  0  0  0  0  0  0  0  0  0  0
    2.9735    1.5010   -3.7571 N   0  0  0  0  0  0  0  0  0  0  0  0
    3.7842   -0.1984    1.6221 B   0  0  0  0  0  0  0  0  0  0  0  0
    3.5007   -0.8895    0.5213 F   0  0  0  0  0  0  0  0  0  0  0  0
    4.5988    0.8463    1.5594 F   0  0  0  0  0  0  0  0  0  0  0  0
    1.7387    1.3795    1.3472 F   0  0  0  0  0  0  0  0  0  0  0  0
    3.3124   -0.6091    2.7933 F   0  0  0  0  0  0  0  0  0  0  0  0
   -3.1426    0.9554   -0.4542 H   0  0  0  0  0  0  0  0  0  0  0  0
  1  2  1  0  0  0  0
  2  8  1  0  0  0  0
  2  3  2  0  0  0  0
  3 16  1  0  0  0  0
  4  3  1  0  0  0  0
  4  9  1  0  0  0  0
  5  4  2  0  0  0  0
  6  1  2  0  0  0  0
  6  5  1  0  0  0  0
  7  1  1  0  0  0  0
 10  5  1  0  0  0  0
 12 11  3  0  0  0  0
 13 17  1  0  0  0  0
 14 13  1  0  0  0  0
 15 13  1  0  0  0  0
 18  6  1  0  0  0  0
M  END
