Coordinates from ORCA-job Ph-N2-BF4-B3LYPG-aug-cc-pVDZ-scan-d09-49-n400
 OpenBabel11081710393D

 18 17  0  0  0  0  0  0  0  0999 V2000
   -0.7164   -0.2327    0.1922 C   0  0  0  0  0  0  0  0  0  0  0  0
    0.3771   -0.0627   -0.6273 C   0  0  0  0  0  0  0  0  0  0  0  0
    0.8356    1.2755   -0.9666 C   0  0  0  0  0  0  0  0  0  0  0  0
    0.0951    2.4018   -0.4161 C   0  0  0  0  0  0  0  0  0  0  0  0
   -0.9977    2.1887    0.3863 C   0  0  0  0  0  0  0  0  0  0  0  0
   -1.3984    0.8783    0.7023 C   0  0  0  0  0  0  0  0  0  0  0  0
   -1.0173   -1.2400    0.4720 H   0  0  0  0  0  0  0  0  0  0  0  0
    0.9569   -0.8977   -1.0106 H   0  0  0  0  0  0  0  0  0  0  0  0
    0.4649    3.3995   -0.6475 H   0  0  0  0  0  0  0  0  0  0  0  0
   -1.5311    3.0418    0.8025 H   0  0  0  0  0  0  0  0  0  0  0  0
    1.6882    1.4224   -1.5444 N   0  0  0  0  0  0  0  0  0  0  0  0
    2.6232    1.5823   -2.1763 N   0  0  0  0  0  0  0  0  0  0  0  0
    2.5200    0.3121    1.7274 B   0  0  0  0  0  0  0  0  0  0  0  0
    2.8002   -0.3088    0.4523 F   0  0  0  0  0  0  0  0  0  0  0  0
    3.6473    0.2980    2.5324 F   0  0  0  0  0  0  0  0  0  0  0  0
    2.1121    1.6621    1.4418 F   0  0  0  0  0  0  0  0  0  0  0  0
    1.4275   -0.3700    2.3165 F   0  0  0  0  0  0  0  0  0  0  0  0
   -2.2468    0.7255    1.3693 H   0  0  0  0  0  0  0  0  0  0  0  0
  1  7  1  0  0  0  0
  1  6  2  0  0  0  0
  2  1  1  0  0  0  0
  3  2  2  0  0  0  0
  3  4  1  0  0  0  0
  4  5  2  0  0  0  0
  5  6  1  0  0  0  0
  5 10  1  0  0  0  0
  6 18  1  0  0  0  0
  8  2  1  0  0  0  0
  9  4  1  0  0  0  0
 11  3  1  0  0  0  0
 12 11  1  0  0  0  0
 13 17  1  0  0  0  0
 13 15  1  0  0  0  0
 14 13  1  0  0  0  0
 16 13  1  0  0  0  0
M  RAD  2  11   2  12   3
M  END
