Coordinates from ORCA-job Ph-N2-BF4-B3LYPG-aug-cc-pVDZ-scan-d09-49-n400
 OpenBabel11081710393D

 18 16  0  0  0  0  0  0  0  0999 V2000
   -1.3060   -0.0980    0.0335 C   0  0  0  0  0  0  0  0  0  0  0  0
   -0.0005   -0.0006    0.5275 C   0  0  0  0  0  0  0  0  0  0  0  0
    0.4753    1.2611    0.8601 C   0  0  0  0  0  0  0  0  0  0  0  0
   -0.2755    2.4204    0.7195 C   0  0  0  0  0  0  0  0  0  0  0  0
   -1.5785    2.3014    0.2236 C   0  0  0  0  0  0  0  0  0  0  0  0
   -2.0951    1.0471   -0.1179 C   0  0  0  0  0  0  0  0  0  0  0  0
   -1.7048   -1.0767   -0.2340 H   0  0  0  0  0  0  0  0  0  0  0  0
    0.6364   -0.8748    0.6493 H   0  0  0  0  0  0  0  0  0  0  0  0
    0.1536    3.3836    0.9905 H   0  0  0  0  0  0  0  0  0  0  0  0
   -2.1898    3.1962    0.1047 H   0  0  0  0  0  0  0  0  0  0  0  0
    2.8441    1.5468   -2.4840 N   0  0  0  0  0  0  0  0  0  0  0  0
    2.7709    1.5072   -3.5852 N   0  0  0  0  0  0  0  0  0  0  0  0
    3.8018   -0.2043    1.6174 B   0  0  0  0  0  0  0  0  0  0  0  0
    3.5079   -0.9067    0.5266 F   0  0  0  0  0  0  0  0  0  0  0  0
    4.6163    0.8390    1.5357 F   0  0  0  0  0  0  0  0  0  0  0  0
    1.7542    1.3744    1.3443 F   0  0  0  0  0  0  0  0  0  0  0  0
    3.3410   -0.6023    2.7976 F   0  0  0  0  0  0  0  0  0  0  0  0
   -3.1109    0.9623   -0.5034 H   0  0  0  0  0  0  0  0  0  0  0  0
  1  2  1  0  0  0  0
  2  8  1  0  0  0  0
  2  3  2  0  0  0  0
  3 16  1  0  0  0  0
  4  3  1  0  0  0  0
  4  9  1  0  0  0  0
  5  4  2  0  0  0  0
  6  1  2  0  0  0  0
  6  5  1  0  0  0  0
  7  1  1  0  0  0  0
 10  5  1  0  0  0  0
 12 11  3  0  0  0  0
 13 17  1  0  0  0  0
 14 13  1  0  0  0  0
 15 13  1  0  0  0  0
 18  6  1  0  0  0  0
M  END
