Coordinates from ORCA-job Ph-N2-BF4-B3LYPG-aug-cc-pVDZ-scan-d09-49-n400
 OpenBabel11081710393D

 18 16  0  0  0  0  0  0  0  0999 V2000
   -1.1798   -0.0815   -0.1332 C   0  0  0  0  0  0  0  0  0  0  0  0
    0.1084   -0.0010    0.4051 C   0  0  0  0  0  0  0  0  0  0  0  0
    0.6178    1.2582    0.6964 C   0  0  0  0  0  0  0  0  0  0  0  0
   -0.1178    2.4260    0.5355 C   0  0  0  0  0  0  0  0  0  0  0  0
   -1.4041    2.3260   -0.0033 C   0  0  0  0  0  0  0  0  0  0  0  0
   -1.9351    1.0771   -0.3446 C   0  0  0  0  0  0  0  0  0  0  0  0
   -1.5949   -1.0581   -0.3827 H   0  0  0  0  0  0  0  0  0  0  0  0
    0.7139   -0.8887    0.5780 H   0  0  0  0  0  0  0  0  0  0  0  0
    0.3169    3.3852    0.8112 H   0  0  0  0  0  0  0  0  0  0  0  0
   -1.9945    3.2305   -0.1514 H   0  0  0  0  0  0  0  0  0  0  0  0
    1.8939    1.5055   -1.3967 N   0  0  0  0  0  0  0  0  0  0  0  0
    1.6377    1.4666   -2.4714 N   0  0  0  0  0  0  0  0  0  0  0  0
    3.9006   -0.2171    1.5869 B   0  0  0  0  0  0  0  0  0  0  0  0
    3.5166   -0.9915    0.5753 F   0  0  0  0  0  0  0  0  0  0  0  0
    4.7255    0.7984    1.3697 F   0  0  0  0  0  0  0  0  0  0  0  0
    1.8543    1.3491    1.2724 F   0  0  0  0  0  0  0  0  0  0  0  0
    3.5191   -0.5150    2.8230 F   0  0  0  0  0  0  0  0  0  0  0  0
   -2.9382    1.0063   -0.7644 H   0  0  0  0  0  0  0  0  0  0  0  0
  1  2  1  0  0  0  0
  2  8  1  0  0  0  0
  2  3  2  0  0  0  0
  3 16  1  0  0  0  0
  4  3  1  0  0  0  0
  4  9  1  0  0  0  0
  5  4  2  0  0  0  0
  6  1  2  0  0  0  0
  6  5  1  0  0  0  0
  7  1  1  0  0  0  0
 10  5  1  0  0  0  0
 12 11  3  0  0  0  0
 13 17  1  0  0  0  0
 14 13  1  0  0  0  0
 15 13  1  0  0  0  0
 18  6  1  0  0  0  0
M  END
