Coordinates from ORCA-job Ph-N2-BF4-B3LYPG-aug-cc-pVDZ-scan-d09-49-n400
 OpenBabel11081710393D

 18 16  0  0  0  0  0  0  0  0999 V2000
   -1.2600   -0.0959   -0.0129 C   0  0  0  0  0  0  0  0  0  0  0  0
    0.0365   -0.0030    0.5049 C   0  0  0  0  0  0  0  0  0  0  0  0
    0.5169    1.2586    0.8321 C   0  0  0  0  0  0  0  0  0  0  0  0
   -0.2232    2.4221    0.6651 C   0  0  0  0  0  0  0  0  0  0  0  0
   -1.5173    2.3077    0.1459 C   0  0  0  0  0  0  0  0  0  0  0  0
   -2.0370    1.0535   -0.1922 C   0  0  0  0  0  0  0  0  0  0  0  0
   -1.6615   -1.0744   -0.2768 H   0  0  0  0  0  0  0  0  0  0  0  0
    0.6635   -0.8810    0.6489 H   0  0  0  0  0  0  0  0  0  0  0  0
    0.2072    3.3851    0.9351 H   0  0  0  0  0  0  0  0  0  0  0  0
   -2.1196    3.2056    0.0062 H   0  0  0  0  0  0  0  0  0  0  0  0
    2.5449    1.5493   -2.1607 N   0  0  0  0  0  0  0  0  0  0  0  0
    2.3956    1.5095   -3.2542 N   0  0  0  0  0  0  0  0  0  0  0  0
    3.8235   -0.2107    1.6033 B   0  0  0  0  0  0  0  0  0  0  0  0
    3.4929   -0.9300    0.5340 F   0  0  0  0  0  0  0  0  0  0  0  0
    4.6477    0.8211    1.4810 F   0  0  0  0  0  0  0  0  0  0  0  0
    1.7860    1.3681    1.3398 F   0  0  0  0  0  0  0  0  0  0  0  0
    3.3903   -0.5817    2.8024 F   0  0  0  0  0  0  0  0  0  0  0  0
   -3.0459    0.9722   -0.5961 H   0  0  0  0  0  0  0  0  0  0  0  0
  1  2  1  0  0  0  0
  2  8  1  0  0  0  0
  2  3  2  0  0  0  0
  3 16  1  0  0  0  0
  4  3  1  0  0  0  0
  4  9  1  0  0  0  0
  5  4  2  0  0  0  0
  6  1  2  0  0  0  0
  6  5  1  0  0  0  0
  7  1  1  0  0  0  0
 10  5  1  0  0  0  0
 12 11  3  0  0  0  0
 13 17  1  0  0  0  0
 14 13  1  0  0  0  0
 15 13  1  0  0  0  0
 18  6  1  0  0  0  0
M  END
