Coordinates from ORCA-job Ph-N2-BF4-B3LYPG-aug-cc-pVDZ-scan-d09-49-n400
 OpenBabel11081710393D

 18 16  0  0  0  0  0  0  0  0999 V2000
   -1.2262   -0.0924   -0.0551 C   0  0  0  0  0  0  0  0  0  0  0  0
    0.0652   -0.0052    0.4763 C   0  0  0  0  0  0  0  0  0  0  0  0
    0.5511    1.2548    0.8012 C   0  0  0  0  0  0  0  0  0  0  0  0
   -0.1805    2.4219    0.6220 C   0  0  0  0  0  0  0  0  0  0  0  0
   -1.4696    2.3134    0.0892 C   0  0  0  0  0  0  0  0  0  0  0  0
   -1.9937    1.0610   -0.2490 C   0  0  0  0  0  0  0  0  0  0  0  0
   -1.6313   -1.0698   -0.3181 H   0  0  0  0  0  0  0  0  0  0  0  0
    0.6844   -0.8868    0.6320 H   0  0  0  0  0  0  0  0  0  0  0  0
    0.2526    3.3833    0.8929 H   0  0  0  0  0  0  0  0  0  0  0  0
   -2.0647    3.2144   -0.0606 H   0  0  0  0  0  0  0  0  0  0  0  0
    2.3003    1.5477   -1.9173 N   0  0  0  0  0  0  0  0  0  0  0  0
    2.0905    1.5107   -3.0009 N   0  0  0  0  0  0  0  0  0  0  0  0
    3.8468   -0.2152    1.6060 B   0  0  0  0  0  0  0  0  0  0  0  0
    3.4970   -0.9550    0.5567 F   0  0  0  0  0  0  0  0  0  0  0  0
    4.6707    0.8121    1.4493 F   0  0  0  0  0  0  0  0  0  0  0  0
    1.8130    1.3585    1.3257 F   0  0  0  0  0  0  0  0  0  0  0  0
    3.4335   -0.5616    2.8192 F   0  0  0  0  0  0  0  0  0  0  0  0
   -2.9986    0.9842   -0.6635 H   0  0  0  0  0  0  0  0  0  0  0  0
  1  2  1  0  0  0  0
  2  8  1  0  0  0  0
  2  3  2  0  0  0  0
  3 16  1  0  0  0  0
  4  3  1  0  0  0  0
  4  9  1  0  0  0  0
  5  4  2  0  0  0  0
  6  1  2  0  0  0  0
  6  5  1  0  0  0  0
  7  1  1  0  0  0  0
 10  5  1  0  0  0  0
 12 11  3  0  0  0  0
 13 17  1  0  0  0  0
 14 13  1  0  0  0  0
 15 13  1  0  0  0  0
 18  6  1  0  0  0  0
M  END
