Coordinates from ORCA-job Ph-N2-BF4-B3LYPG-aug-cc-pVDZ-scan-d09-49-n400
 OpenBabel11081710393D

 18 16  0  0  0  0  0  0  0  0999 V2000
   -1.3168   -0.0990    0.0455 C   0  0  0  0  0  0  0  0  0  0  0  0
   -0.0090   -0.0001    0.5329 C   0  0  0  0  0  0  0  0  0  0  0  0
    0.4666    1.2621    0.8666 C   0  0  0  0  0  0  0  0  0  0  0  0
   -0.2897    2.4205    0.7355 C   0  0  0  0  0  0  0  0  0  0  0  0
   -1.5949    2.2997    0.2462 C   0  0  0  0  0  0  0  0  0  0  0  0
   -2.1096    1.0449   -0.0975 C   0  0  0  0  0  0  0  0  0  0  0  0
   -1.7148   -1.0777   -0.2232 H   0  0  0  0  0  0  0  0  0  0  0  0
    0.6302   -0.8736    0.6490 H   0  0  0  0  0  0  0  0  0  0  0  0
    0.1372    3.3842    1.0090 H   0  0  0  0  0  0  0  0  0  0  0  0
   -2.2097    3.1930    0.1344 H   0  0  0  0  0  0  0  0  0  0  0  0
    2.9261    1.5443   -2.5736 N   0  0  0  0  0  0  0  0  0  0  0  0
    2.8765    1.5042   -3.6761 N   0  0  0  0  0  0  0  0  0  0  0  0
    3.7925   -0.2012    1.6204 B   0  0  0  0  0  0  0  0  0  0  0  0
    3.5040   -0.8977    0.5243 F   0  0  0  0  0  0  0  0  0  0  0  0
    4.6075    0.8426    1.5490 F   0  0  0  0  0  0  0  0  0  0  0  0
    1.7464    1.3770    1.3457 F   0  0  0  0  0  0  0  0  0  0  0  0
    3.3255   -0.6058    2.7956 F   0  0  0  0  0  0  0  0  0  0  0  0
   -3.1273    0.9587   -0.4777 H   0  0  0  0  0  0  0  0  0  0  0  0
  1  2  1  0  0  0  0
  2  8  1  0  0  0  0
  2  3  2  0  0  0  0
  3 16  1  0  0  0  0
  4  3  1  0  0  0  0
  4  9  1  0  0  0  0
  5  4  2  0  0  0  0
  6  1  2  0  0  0  0
  6  5  1  0  0  0  0
  7  1  1  0  0  0  0
 10  5  1  0  0  0  0
 12 11  3  0  0  0  0
 13 17  1  0  0  0  0
 14 13  1  0  0  0  0
 15 13  1  0  0  0  0
 18  6  1  0  0  0  0
M  END
