Coordinates from ORCA-job Ph-N2-BF4-B3LYPG-aug-cc-pVDZ-scan-d09-49-n400
 OpenBabel11081710393D

 18 16  0  0  0  0  0  0  0  0999 V2000
   -1.1903   -0.0855   -0.1131 C   0  0  0  0  0  0  0  0  0  0  0  0
    0.0969   -0.0042    0.4289 C   0  0  0  0  0  0  0  0  0  0  0  0
    0.5949    1.2540    0.7396 C   0  0  0  0  0  0  0  0  0  0  0  0
   -0.1327    2.4231    0.5608 C   0  0  0  0  0  0  0  0  0  0  0  0
   -1.4178    2.3219    0.0181 C   0  0  0  0  0  0  0  0  0  0  0  0
   -1.9475    1.0722   -0.3217 C   0  0  0  0  0  0  0  0  0  0  0  0
   -1.6012   -1.0619   -0.3708 H   0  0  0  0  0  0  0  0  0  0  0  0
    0.7070   -0.8898    0.5963 H   0  0  0  0  0  0  0  0  0  0  0  0
    0.3048    3.3822    0.8325 H   0  0  0  0  0  0  0  0  0  0  0  0
   -2.0064    3.2263   -0.1371 H   0  0  0  0  0  0  0  0  0  0  0  0
    1.9912    1.5216   -1.5374 N   0  0  0  0  0  0  0  0  0  0  0  0
    1.7461    1.4962   -2.6144 N   0  0  0  0  0  0  0  0  0  0  0  0
    3.8855   -0.2181    1.5920 B   0  0  0  0  0  0  0  0  0  0  0  0
    3.5048   -0.9948    0.5810 F   0  0  0  0  0  0  0  0  0  0  0  0
    4.7080    0.7993    1.3745 F   0  0  0  0  0  0  0  0  0  0  0  0
    1.8426    1.3491    1.2928 F   0  0  0  0  0  0  0  0  0  0  0  0
    3.5039   -0.5161    2.8281 F   0  0  0  0  0  0  0  0  0  0  0  0
   -2.9493    1.0005   -0.7444 H   0  0  0  0  0  0  0  0  0  0  0  0
  1  2  1  0  0  0  0
  2  8  1  0  0  0  0
  2  3  2  0  0  0  0
  3 16  1  0  0  0  0
  4  3  1  0  0  0  0
  4  9  1  0  0  0  0
  5  4  2  0  0  0  0
  6  1  2  0  0  0  0
  6  5  1  0  0  0  0
  7  1  1  0  0  0  0
 10  5  1  0  0  0  0
 12 11  3  0  0  0  0
 13 17  1  0  0  0  0
 14 13  1  0  0  0  0
 15 13  1  0  0  0  0
 18  6  1  0  0  0  0
M  END
