Coordinates from ORCA-job Ph-N2-BF4-B3LYPG-aug-cc-pVDZ-scan-d09-49-n400
 OpenBabel11081710393D

 18 16  0  0  0  0  0  0  0  0999 V2000
   -1.1861   -0.0840   -0.1200 C   0  0  0  0  0  0  0  0  0  0  0  0
    0.1009   -0.0030    0.4220 C   0  0  0  0  0  0  0  0  0  0  0  0
    0.6022    1.2555    0.7275 C   0  0  0  0  0  0  0  0  0  0  0  0
   -0.1279    2.4243    0.5535 C   0  0  0  0  0  0  0  0  0  0  0  0
   -1.4129    2.3233    0.0109 C   0  0  0  0  0  0  0  0  0  0  0  0
   -1.9426    1.0739   -0.3302 C   0  0  0  0  0  0  0  0  0  0  0  0
   -1.5981   -1.0605   -0.3755 H   0  0  0  0  0  0  0  0  0  0  0  0
    0.7082   -0.8900    0.5922 H   0  0  0  0  0  0  0  0  0  0  0  0
    0.3064    3.3840    0.8281 H   0  0  0  0  0  0  0  0  0  0  0  0
   -2.0021    3.2277   -0.1423 H   0  0  0  0  0  0  0  0  0  0  0  0
    1.9594    1.5150   -1.4918 N   0  0  0  0  0  0  0  0  0  0  0  0
    1.7095    1.4861   -2.5677 N   0  0  0  0  0  0  0  0  0  0  0  0
    3.8903   -0.2178    1.5895 B   0  0  0  0  0  0  0  0  0  0  0  0
    3.5078   -0.9946    0.5792 F   0  0  0  0  0  0  0  0  0  0  0  0
    4.7136    0.7987    1.3707 F   0  0  0  0  0  0  0  0  0  0  0  0
    1.8468    1.3495    1.2867 F   0  0  0  0  0  0  0  0  0  0  0  0
    3.5094   -0.5146    2.8260 F   0  0  0  0  0  0  0  0  0  0  0  0
   -2.9444    1.0025   -0.7530 H   0  0  0  0  0  0  0  0  0  0  0  0
  1  2  1  0  0  0  0
  2  8  1  0  0  0  0
  2  3  2  0  0  0  0
  3 16  1  0  0  0  0
  4  3  1  0  0  0  0
  4  9  1  0  0  0  0
  5  4  2  0  0  0  0
  6  1  2  0  0  0  0
  6  5  1  0  0  0  0
  7  1  1  0  0  0  0
 10  5  1  0  0  0  0
 12 11  3  0  0  0  0
 13 17  1  0  0  0  0
 14 13  1  0  0  0  0
 15 13  1  0  0  0  0
 18  6  1  0  0  0  0
M  END
