Coordinates from ORCA-job Ph-N2-BF4-B3LYPG-aug-cc-pVDZ-scan-d09-49-n400
 OpenBabel11081710393D

 18 16  0  0  0  0  0  0  0  0999 V2000
   -1.2551   -0.0955   -0.0185 C   0  0  0  0  0  0  0  0  0  0  0  0
    0.0406   -0.0033    0.5015 C   0  0  0  0  0  0  0  0  0  0  0  0
    0.5214    1.2582    0.8287 C   0  0  0  0  0  0  0  0  0  0  0  0
   -0.2175    2.4222    0.6597 C   0  0  0  0  0  0  0  0  0  0  0  0
   -1.5108    2.3084    0.1382 C   0  0  0  0  0  0  0  0  0  0  0  0
   -2.0308    1.0544   -0.2000 C   0  0  0  0  0  0  0  0  0  0  0  0
   -1.6568   -1.0739   -0.2825 H   0  0  0  0  0  0  0  0  0  0  0  0
    0.6666   -0.8817    0.6473 H   0  0  0  0  0  0  0  0  0  0  0  0
    0.2130    3.3849    0.9299 H   0  0  0  0  0  0  0  0  0  0  0  0
   -2.1121    3.2067   -0.0031 H   0  0  0  0  0  0  0  0  0  0  0  0
    2.5118    1.5493   -2.1287 N   0  0  0  0  0  0  0  0  0  0  0  0
    2.3543    1.5099   -3.2211 N   0  0  0  0  0  0  0  0  0  0  0  0
    3.8262   -0.2114    1.6035 B   0  0  0  0  0  0  0  0  0  0  0  0
    3.4924   -0.9334    0.5369 F   0  0  0  0  0  0  0  0  0  0  0  0
    4.6511    0.8192    1.4763 F   0  0  0  0  0  0  0  0  0  0  0  0
    1.7896    1.3671    1.3389 F   0  0  0  0  0  0  0  0  0  0  0  0
    3.3955   -0.5786    2.8047 F   0  0  0  0  0  0  0  0  0  0  0  0
   -3.0391    0.9736   -0.6057 H   0  0  0  0  0  0  0  0  0  0  0  0
  1  2  1  0  0  0  0
  2  8  1  0  0  0  0
  2  3  2  0  0  0  0
  3 16  1  0  0  0  0
  4  3  1  0  0  0  0
  4  9  1  0  0  0  0
  5  4  2  0  0  0  0
  6  1  2  0  0  0  0
  6  5  1  0  0  0  0
  7  1  1  0  0  0  0
 10  5  1  0  0  0  0
 12 11  3  0  0  0  0
 13 17  1  0  0  0  0
 14 13  1  0  0  0  0
 15 13  1  0  0  0  0
 18  6  1  0  0  0  0
M  END
