Coordinates from ORCA-job Ph-N2-BF4-B3LYPG-aug-cc-pVDZ-scan-d09-49-n400
 OpenBabel11081710393D

 18 16  0  0  0  0  0  0  0  0999 V2000
   -1.2817   -0.0969    0.0087 C   0  0  0  0  0  0  0  0  0  0  0  0
    0.0189   -0.0020    0.5157 C   0  0  0  0  0  0  0  0  0  0  0  0
    0.4980    1.2598    0.8441 C   0  0  0  0  0  0  0  0  0  0  0  0
   -0.2469    2.4217    0.6881 C   0  0  0  0  0  0  0  0  0  0  0  0
   -1.5451    2.3052    0.1795 C   0  0  0  0  0  0  0  0  0  0  0  0
   -2.0638    1.0508   -0.1591 C   0  0  0  0  0  0  0  0  0  0  0  0
   -1.6823   -1.0756   -0.2559 H   0  0  0  0  0  0  0  0  0  0  0  0
    0.6500   -0.8786    0.6507 H   0  0  0  0  0  0  0  0  0  0  0  0
    0.1829    3.3850    0.9579 H   0  0  0  0  0  0  0  0  0  0  0  0
   -2.1513    3.2018    0.0485 H   0  0  0  0  0  0  0  0  0  0  0  0
    2.6789    1.5486   -2.3000 N   0  0  0  0  0  0  0  0  0  0  0  0
    2.5638    1.5084   -3.3977 N   0  0  0  0  0  0  0  0  0  0  0  0
    3.8159   -0.2083    1.6078 B   0  0  0  0  0  0  0  0  0  0  0  0
    3.5051   -0.9204    0.5279 F   0  0  0  0  0  0  0  0  0  0  0  0
    4.6345    0.8300    1.5059 F   0  0  0  0  0  0  0  0  0  0  0  0
    1.7715    1.3709    1.3409 F   0  0  0  0  0  0  0  0  0  0  0  0
    3.3679   -0.5924    2.7974 F   0  0  0  0  0  0  0  0  0  0  0  0
   -3.0759    0.9679   -0.5546 H   0  0  0  0  0  0  0  0  0  0  0  0
  1  2  1  0  0  0  0
  2  8  1  0  0  0  0
  2  3  2  0  0  0  0
  3 16  1  0  0  0  0
  4  3  1  0  0  0  0
  4  9  1  0  0  0  0
  5  4  2  0  0  0  0
  6  1  2  0  0  0  0
  6  5  1  0  0  0  0
  7  1  1  0  0  0  0
 10  5  1  0  0  0  0
 12 11  3  0  0  0  0
 13 17  1  0  0  0  0
 14 13  1  0  0  0  0
 15 13  1  0  0  0  0
 18  6  1  0  0  0  0
M  END
