Coordinates from ORCA-job Ph-N2-BF4-B3LYPG-aug-cc-pVDZ-scan-d09-49-n400
 OpenBabel11081710393D

 18 16  0  0  0  0  0  0  0  0999 V2000
   -1.0367   -0.0294    0.5393 C   0  0  0  0  0  0  0  0  0  0  0  0
    0.2994    0.1753    0.1287 C   0  0  0  0  0  0  0  0  0  0  0  0
    0.4447    1.4237   -0.3716 C   0  0  0  0  0  0  0  0  0  0  0  0
   -0.3636    2.5046   -0.5618 C   0  0  0  0  0  0  0  0  0  0  0  0
   -1.6762    2.2269   -0.1309 C   0  0  0  0  0  0  0  0  0  0  0  0
   -1.9996    0.9764    0.4088 C   0  0  0  0  0  0  0  0  0  0  0  0
   -1.2843   -0.9945    0.9803 H   0  0  0  0  0  0  0  0  0  0  0  0
    1.1048   -0.5505    0.2471 H   0  0  0  0  0  0  0  0  0  0  0  0
   -0.0560    3.4581   -0.9789 H   0  0  0  0  0  0  0  0  0  0  0  0
   -2.4267    3.0112   -0.2254 H   0  0  0  0  0  0  0  0  0  0  0  0
    2.2455    1.8023   -0.9942 N   0  0  0  0  0  0  0  0  0  0  0  0
    3.2036    2.1152   -1.4377 N   0  0  0  0  0  0  0  0  0  0  0  0
    3.2710   -0.1770    1.3627 B   0  0  0  0  0  0  0  0  0  0  0  0
    3.1585   -0.5274   -0.0400 F   0  0  0  0  0  0  0  0  0  0  0  0
    4.5558   -0.4047    1.8213 F   0  0  0  0  0  0  0  0  0  0  0  0
    2.9221    1.2126    1.4574 F   0  0  0  0  0  0  0  0  0  0  0  0
    2.2976   -0.9342    2.0589 F   0  0  0  0  0  0  0  0  0  0  0  0
   -3.0194    0.7873    0.7419 H   0  0  0  0  0  0  0  0  0  0  0  0
  1  7  1  0  0  0  0
  2  8  1  0  0  0  0
  2  1  2  0  0  0  0
  3  2  1  0  0  0  0
  4  3  2  0  0  0  0
  4  5  1  0  0  0  0
  5  6  2  0  0  0  0
  6  1  1  0  0  0  0
  6 18  1  0  0  0  0
  9  4  1  0  0  0  0
 10  5  1  0  0  0  0
 12 11  3  0  0  0  0
 13 16  1  0  0  0  0
 13 15  1  0  0  0  0
 13 17  1  0  0  0  0
 14 13  1  0  0  0  0
M  RAD  1   3   2
M  END
