Coordinates from ORCA-job Ph-N2-BF4-B3LYPG-aug-cc-pVDZ-scan-d09-49-n400
 OpenBabel11081710393D

 18 16  0  0  0  0  0  0  0  0999 V2000
   -1.1847   -0.0835   -0.1227 C   0  0  0  0  0  0  0  0  0  0  0  0
    0.1024   -0.0027    0.4188 C   0  0  0  0  0  0  0  0  0  0  0  0
    0.6051    1.2560    0.7220 C   0  0  0  0  0  0  0  0  0  0  0  0
   -0.1258    2.4246    0.5500 C   0  0  0  0  0  0  0  0  0  0  0  0
   -1.4110    2.3239    0.0079 C   0  0  0  0  0  0  0  0  0  0  0  0
   -1.9409    1.0746   -0.3332 C   0  0  0  0  0  0  0  0  0  0  0  0
   -1.5973   -1.0600   -0.3772 H   0  0  0  0  0  0  0  0  0  0  0  0
    0.7094   -0.8898    0.5896 H   0  0  0  0  0  0  0  0  0  0  0  0
    0.3086    3.3842    0.8248 H   0  0  0  0  0  0  0  0  0  0  0  0
   -2.0003    3.2283   -0.1445 H   0  0  0  0  0  0  0  0  0  0  0  0
    1.9459    1.5129   -1.4722 N   0  0  0  0  0  0  0  0  0  0  0  0
    1.6947    1.4824   -2.5478 N   0  0  0  0  0  0  0  0  0  0  0  0
    3.8923   -0.2176    1.5886 B   0  0  0  0  0  0  0  0  0  0  0  0
    3.5094   -0.9942    0.5784 F   0  0  0  0  0  0  0  0  0  0  0  0
    4.7158    0.7986    1.3698 F   0  0  0  0  0  0  0  0  0  0  0  0
    1.8483    1.3494    1.2841 F   0  0  0  0  0  0  0  0  0  0  0  0
    3.5114   -0.5143    2.8252 F   0  0  0  0  0  0  0  0  0  0  0  0
   -2.9428    1.0033   -0.7557 H   0  0  0  0  0  0  0  0  0  0  0  0
  1  2  1  0  0  0  0
  2  8  1  0  0  0  0
  2  3  2  0  0  0  0
  3 16  1  0  0  0  0
  4  3  1  0  0  0  0
  4  9  1  0  0  0  0
  5  4  2  0  0  0  0
  6  1  2  0  0  0  0
  6  5  1  0  0  0  0
  7  1  1  0  0  0  0
 10  5  1  0  0  0  0
 12 11  3  0  0  0  0
 13 17  1  0  0  0  0
 14 13  1  0  0  0  0
 15 13  1  0  0  0  0
 18  6  1  0  0  0  0
M  END
