Coordinates from ORCA-job Ph-N2-BF4-B3LYPG-aug-cc-pVDZ-scan-d09-49-n400
 OpenBabel11081710403D

 18 16  0  0  0  0  0  0  0  0999 V2000
   -1.3596   -0.0873    0.0611 C   0  0  0  0  0  0  0  0  0  0  0  0
   -0.0420    0.0192    0.5206 C   0  0  0  0  0  0  0  0  0  0  0  0
    0.4118    1.2751    0.9020 C   0  0  0  0  0  0  0  0  0  0  0  0
   -0.3725    2.4200    0.8458 C   0  0  0  0  0  0  0  0  0  0  0  0
   -1.6867    2.2915    0.3835 C   0  0  0  0  0  0  0  0  0  0  0  0
   -2.1812    1.0426   -0.0077 C   0  0  0  0  0  0  0  0  0  0  0  0
   -1.7425   -1.0614   -0.2438 H   0  0  0  0  0  0  0  0  0  0  0  0
    0.6198   -0.8429    0.5804 H   0  0  0  0  0  0  0  0  0  0  0  0
    0.0387    3.3791    1.1562 H   0  0  0  0  0  0  0  0  0  0  0  0
   -2.3242    3.1742    0.3301 H   0  0  0  0  0  0  0  0  0  0  0  0
    3.3116    1.4626   -2.9684 N   0  0  0  0  0  0  0  0  0  0  0  0
    3.3606    1.4000   -4.0699 N   0  0  0  0  0  0  0  0  0  0  0  0
    3.7624   -0.1720    1.6303 B   0  0  0  0  0  0  0  0  0  0  0  0
    3.5034   -0.8641    0.5244 F   0  0  0  0  0  0  0  0  0  0  0  0
    4.5710    0.8781    1.5806 F   0  0  0  0  0  0  0  0  0  0  0  0
    1.7026    1.3966    1.3538 F   0  0  0  0  0  0  0  0  0  0  0  0
    3.2734   -0.5852    2.7936 F   0  0  0  0  0  0  0  0  0  0  0  0
   -3.2060    0.9500   -0.3668 H   0  0  0  0  0  0  0  0  0  0  0  0
  1  2  1  0  0  0  0
  2  8  1  0  0  0  0
  2  3  2  0  0  0  0
  3 16  1  0  0  0  0
  4  3  1  0  0  0  0
  4  9  1  0  0  0  0
  5  4  2  0  0  0  0
  6  1  2  0  0  0  0
  6  5  1  0  0  0  0
  7  1  1  0  0  0  0
 10  5  1  0  0  0  0
 12 11  3  0  0  0  0
 13 17  1  0  0  0  0
 14 13  1  0  0  0  0
 15 13  1  0  0  0  0
 18  6  1  0  0  0  0
M  END
