Coordinates from ORCA-job Ph-N2-BF4-B3LYPG-aug-cc-pVDZ-scan-d09-49-n400
 OpenBabel11081710393D

 18 16  0  0  0  0  0  0  0  0999 V2000
   -1.2399   -0.0939   -0.0374 C   0  0  0  0  0  0  0  0  0  0  0  0
    0.0534   -0.0041    0.4891 C   0  0  0  0  0  0  0  0  0  0  0  0
    0.5365    1.2567    0.8153 C   0  0  0  0  0  0  0  0  0  0  0  0
   -0.1986    2.4222    0.6403 C   0  0  0  0  0  0  0  0  0  0  0  0
   -1.4895    2.3110    0.1125 C   0  0  0  0  0  0  0  0  0  0  0  0
   -2.0114    1.0578   -0.2257 C   0  0  0  0  0  0  0  0  0  0  0  0
   -1.6432   -1.0718   -0.3009 H   0  0  0  0  0  0  0  0  0  0  0  0
    0.6759   -0.8841    0.6405 H   0  0  0  0  0  0  0  0  0  0  0  0
    0.2331    3.3844    0.9110 H   0  0  0  0  0  0  0  0  0  0  0  0
   -2.0876    3.2106   -0.0337 H   0  0  0  0  0  0  0  0  0  0  0  0
    2.4017    1.5492   -2.0198 N   0  0  0  0  0  0  0  0  0  0  0  0
    2.2165    1.5110   -3.1079 N   0  0  0  0  0  0  0  0  0  0  0  0
    3.8373   -0.2141    1.6046 B   0  0  0  0  0  0  0  0  0  0  0  0
    3.4957   -0.9457    0.5471 F   0  0  0  0  0  0  0  0  0  0  0  0
    4.6625    0.8143    1.4624 F   0  0  0  0  0  0  0  0  0  0  0  0
    1.8014    1.3631    1.3330 F   0  0  0  0  0  0  0  0  0  0  0  0
    3.4142   -0.5694    2.8120 F   0  0  0  0  0  0  0  0  0  0  0  0
   -3.0177    0.9788   -0.6364 H   0  0  0  0  0  0  0  0  0  0  0  0
  1  2  1  0  0  0  0
  2  8  1  0  0  0  0
  2  3  2  0  0  0  0
  3 16  1  0  0  0  0
  4  3  1  0  0  0  0
  4  9  1  0  0  0  0
  5  4  2  0  0  0  0
  6  1  2  0  0  0  0
  6  5  1  0  0  0  0
  7  1  1  0  0  0  0
 10  5  1  0  0  0  0
 12 11  3  0  0  0  0
 13 17  1  0  0  0  0
 14 13  1  0  0  0  0
 15 13  1  0  0  0  0
 18  6  1  0  0  0  0
M  END
