Coordinates from ORCA-job Ph-N2-BF4-B3LYPG-aug-cc-pVDZ-scan-d09-49-n400
 OpenBabel11081710393D

 18 16  0  0  0  0  0  0  0  0999 V2000
   -1.2541   -0.0954   -0.0197 C   0  0  0  0  0  0  0  0  0  0  0  0
    0.0414   -0.0033    0.5008 C   0  0  0  0  0  0  0  0  0  0  0  0
    0.5223    1.2581    0.8280 C   0  0  0  0  0  0  0  0  0  0  0  0
   -0.2163    2.4222    0.6586 C   0  0  0  0  0  0  0  0  0  0  0  0
   -1.5095    2.3085    0.1366 C   0  0  0  0  0  0  0  0  0  0  0  0
   -2.0296    1.0546   -0.2016 C   0  0  0  0  0  0  0  0  0  0  0  0
   -1.6559   -1.0738   -0.2836 H   0  0  0  0  0  0  0  0  0  0  0  0
    0.6672   -0.8818    0.6469 H   0  0  0  0  0  0  0  0  0  0  0  0
    0.2142    3.3849    0.9289 H   0  0  0  0  0  0  0  0  0  0  0  0
   -2.1106    3.2069   -0.0049 H   0  0  0  0  0  0  0  0  0  0  0  0
    2.5052    1.5493   -2.1224 N   0  0  0  0  0  0  0  0  0  0  0  0
    2.3459    1.5100   -3.2145 N   0  0  0  0  0  0  0  0  0  0  0  0
    3.8268   -0.2116    1.6036 B   0  0  0  0  0  0  0  0  0  0  0  0
    3.4924   -0.9342    0.5376 F   0  0  0  0  0  0  0  0  0  0  0  0
    4.6518    0.8188    1.4754 F   0  0  0  0  0  0  0  0  0  0  0  0
    1.7903    1.3669    1.3386 F   0  0  0  0  0  0  0  0  0  0  0  0
    3.3966   -0.5780    2.8052 F   0  0  0  0  0  0  0  0  0  0  0  0
   -3.0377    0.9739   -0.6076 H   0  0  0  0  0  0  0  0  0  0  0  0
  1  2  1  0  0  0  0
  2  8  1  0  0  0  0
  2  3  2  0  0  0  0
  3 16  1  0  0  0  0
  4  3  1  0  0  0  0
  4  9  1  0  0  0  0
  5  4  2  0  0  0  0
  6  1  2  0  0  0  0
  6  5  1  0  0  0  0
  7  1  1  0  0  0  0
 10  5  1  0  0  0  0
 12 11  3  0  0  0  0
 13 17  1  0  0  0  0
 14 13  1  0  0  0  0
 15 13  1  0  0  0  0
 18  6  1  0  0  0  0
M  END
