Coordinates from ORCA-job Ph-N2-BF4-B3LYPG-aug-cc-pVDZ-scan-d09-49-n400
 OpenBabel11081710393D

 18 16  0  0  0  0  0  0  0  0999 V2000
   -1.1777   -0.0802   -0.1390 C   0  0  0  0  0  0  0  0  0  0  0  0
    0.1115    0.0002    0.3960 C   0  0  0  0  0  0  0  0  0  0  0  0
    0.6260    1.2599    0.6782 C   0  0  0  0  0  0  0  0  0  0  0  0
   -0.1137    2.4269    0.5262 C   0  0  0  0  0  0  0  0  0  0  0  0
   -1.4011    2.3274   -0.0091 C   0  0  0  0  0  0  0  0  0  0  0  0
   -1.9328    1.0786   -0.3504 C   0  0  0  0  0  0  0  0  0  0  0  0
   -1.5949   -1.0570   -0.3847 H   0  0  0  0  0  0  0  0  0  0  0  0
    0.7166   -0.8876    0.5699 H   0  0  0  0  0  0  0  0  0  0  0  0
    0.3216    3.3856    0.8029 H   0  0  0  0  0  0  0  0  0  0  0  0
   -1.9925    3.2318   -0.1533 H   0  0  0  0  0  0  0  0  0  0  0  0
    1.8651    1.5024   -1.3555 N   0  0  0  0  0  0  0  0  0  0  0  0
    1.6069    1.4568   -2.4298 N   0  0  0  0  0  0  0  0  0  0  0  0
    3.9065   -0.2175    1.5877 B   0  0  0  0  0  0  0  0  0  0  0  0
    3.5221   -0.9888    0.5740 F   0  0  0  0  0  0  0  0  0  0  0  0
    4.7324    0.7978    1.3731 F   0  0  0  0  0  0  0  0  0  0  0  0
    1.8575    1.3490    1.2644 F   0  0  0  0  0  0  0  0  0  0  0  0
    3.5238   -0.5172    2.8228 F   0  0  0  0  0  0  0  0  0  0  0  0
   -2.9370    1.0077   -0.7675 H   0  0  0  0  0  0  0  0  0  0  0  0
  1  2  1  0  0  0  0
  2  8  1  0  0  0  0
  2  3  2  0  0  0  0
  3 16  1  0  0  0  0
  4  3  1  0  0  0  0
  4  9  1  0  0  0  0
  5  4  2  0  0  0  0
  6  1  2  0  0  0  0
  6  5  1  0  0  0  0
  7  1  1  0  0  0  0
 10  5  1  0  0  0  0
 12 11  3  0  0  0  0
 13 17  1  0  0  0  0
 14 13  1  0  0  0  0
 15 13  1  0  0  0  0
 18  6  1  0  0  0  0
M  END
