Coordinates from ORCA-job Ph-N2-BF4-B3LYPG-aug-cc-pVDZ-scan-d09-49-n400
 OpenBabel11081710393D

 18 16  0  0  0  0  0  0  0  0999 V2000
   -1.3068   -0.0984    0.0345 C   0  0  0  0  0  0  0  0  0  0  0  0
   -0.0009   -0.0008    0.5273 C   0  0  0  0  0  0  0  0  0  0  0  0
    0.4763    1.2613    0.8588 C   0  0  0  0  0  0  0  0  0  0  0  0
   -0.2768    2.4210    0.7206 C   0  0  0  0  0  0  0  0  0  0  0  0
   -1.5801    2.3016    0.2259 C   0  0  0  0  0  0  0  0  0  0  0  0
   -2.0962    1.0469   -0.1159 C   0  0  0  0  0  0  0  0  0  0  0  0
   -1.7058   -1.0770   -0.2326 H   0  0  0  0  0  0  0  0  0  0  0  0
    0.6356   -0.8756    0.6492 H   0  0  0  0  0  0  0  0  0  0  0  0
    0.1510    3.3846    0.9929 H   0  0  0  0  0  0  0  0  0  0  0  0
   -2.1923    3.1959    0.1085 H   0  0  0  0  0  0  0  0  0  0  0  0
    2.8516    1.5467   -2.4930 N   0  0  0  0  0  0  0  0  0  0  0  0
    2.7808    1.5071   -3.5944 N   0  0  0  0  0  0  0  0  0  0  0  0
    3.8008   -0.2041    1.6184 B   0  0  0  0  0  0  0  0  0  0  0  0
    3.5070   -0.9060    0.5271 F   0  0  0  0  0  0  0  0  0  0  0  0
    4.6154    0.8392    1.5380 F   0  0  0  0  0  0  0  0  0  0  0  0
    1.7541    1.3748    1.3434 F   0  0  0  0  0  0  0  0  0  0  0  0
    3.3391   -0.6028    2.7977 F   0  0  0  0  0  0  0  0  0  0  0  0
   -3.1124    0.9618   -0.5003 H   0  0  0  0  0  0  0  0  0  0  0  0
  1  2  1  0  0  0  0
  2  8  1  0  0  0  0
  2  3  2  0  0  0  0
  3 16  1  0  0  0  0
  4  3  1  0  0  0  0
  4  9  1  0  0  0  0
  5  4  2  0  0  0  0
  6  1  2  0  0  0  0
  6  5  1  0  0  0  0
  7  1  1  0  0  0  0
 10  5  1  0  0  0  0
 12 11  3  0  0  0  0
 13 17  1  0  0  0  0
 14 13  1  0  0  0  0
 15 13  1  0  0  0  0
 18  6  1  0  0  0  0
M  END
