Coordinates from ORCA-job Ph-N2-BF4-B3LYPG-aug-cc-pVDZ-scan-d09-49-n400
 OpenBabel11081710393D

 18 16  0  0  0  0  0  0  0  0999 V2000
   -1.3100   -0.0984    0.0381 C   0  0  0  0  0  0  0  0  0  0  0  0
   -0.0037   -0.0003    0.5296 C   0  0  0  0  0  0  0  0  0  0  0  0
    0.4719    1.2614    0.8627 C   0  0  0  0  0  0  0  0  0  0  0  0
   -0.2808    2.4202    0.7257 C   0  0  0  0  0  0  0  0  0  0  0  0
   -1.5846    2.3006    0.2323 C   0  0  0  0  0  0  0  0  0  0  0  0
   -2.1006    1.0462   -0.1101 C   0  0  0  0  0  0  0  0  0  0  0  0
   -1.7085   -1.0771   -0.2299 H   0  0  0  0  0  0  0  0  0  0  0  0
    0.6342   -0.8742    0.6491 H   0  0  0  0  0  0  0  0  0  0  0  0
    0.1477    3.3835    0.9976 H   0  0  0  0  0  0  0  0  0  0  0  0
   -2.1973    3.1949    0.1161 H   0  0  0  0  0  0  0  0  0  0  0  0
    2.8753    1.5459   -2.5186 N   0  0  0  0  0  0  0  0  0  0  0  0
    2.8112    1.5061   -3.6204 N   0  0  0  0  0  0  0  0  0  0  0  0
    3.7980   -0.2030    1.6187 B   0  0  0  0  0  0  0  0  0  0  0  0
    3.5061   -0.9030    0.5257 F   0  0  0  0  0  0  0  0  0  0  0  0
    4.6128    0.8403    1.5409 F   0  0  0  0  0  0  0  0  0  0  0  0
    1.7512    1.3754    1.3450 F   0  0  0  0  0  0  0  0  0  0  0  0
    3.3347   -0.6034    2.7970 F   0  0  0  0  0  0  0  0  0  0  0  0
   -3.1171    0.9609   -0.4935 H   0  0  0  0  0  0  0  0  0  0  0  0
  1  2  1  0  0  0  0
  2  8  1  0  0  0  0
  2  3  2  0  0  0  0
  3 16  1  0  0  0  0
  4  3  1  0  0  0  0
  4  9  1  0  0  0  0
  5  4  2  0  0  0  0
  6  1  2  0  0  0  0
  6  5  1  0  0  0  0
  7  1  1  0  0  0  0
 10  5  1  0  0  0  0
 12 11  3  0  0  0  0
 13 17  1  0  0  0  0
 14 13  1  0  0  0  0
 15 13  1  0  0  0  0
 18  6  1  0  0  0  0
M  END
