Coordinates from ORCA-job Ph-N2-BF4-B3LYPG-aug-cc-pVDZ-scan-d09-49-n400
 OpenBabel11081710393D

 18 17  0  0  0  0  0  0  0  0999 V2000
   -0.9360   -0.2546    0.1529 C   0  0  0  0  0  0  0  0  0  0  0  0
    0.2780   -0.0994   -0.4968 C   0  0  0  0  0  0  0  0  0  0  0  0
    0.7549    1.2178   -0.7360 C   0  0  0  0  0  0  0  0  0  0  0  0
    0.0341    2.3602   -0.2849 C   0  0  0  0  0  0  0  0  0  0  0  0
   -1.1666    2.1676    0.3704 C   0  0  0  0  0  0  0  0  0  0  0  0
   -1.6521    0.8664    0.5848 C   0  0  0  0  0  0  0  0  0  0  0  0
   -1.3053   -1.2574    0.3589 H   0  0  0  0  0  0  0  0  0  0  0  0
    0.8960   -0.9445   -0.7875 H   0  0  0  0  0  0  0  0  0  0  0  0
    0.4531    3.3514   -0.4452 H   0  0  0  0  0  0  0  0  0  0  0  0
   -1.7250    3.0288    0.7334 H   0  0  0  0  0  0  0  0  0  0  0  0
    1.8254    1.3797   -1.3215 N   0  0  0  0  0  0  0  0  0  0  0  0
    2.7855    1.5406   -1.8743 N   0  0  0  0  0  0  0  0  0  0  0  0
    2.8179    0.3909    1.5611 B   0  0  0  0  0  0  0  0  0  0  0  0
    3.0654   -0.3424    0.3435 F   0  0  0  0  0  0  0  0  0  0  0  0
    3.8368    0.1909    2.4766 F   0  0  0  0  0  0  0  0  0  0  0  0
    2.7166    1.7768    1.1917 F   0  0  0  0  0  0  0  0  0  0  0  0
    1.5563   -0.0257    2.0644 F   0  0  0  0  0  0  0  0  0  0  0  0
   -2.5948    0.7291    1.1144 H   0  0  0  0  0  0  0  0  0  0  0  0
  1  7  1  0  0  0  0
  1  6  2  0  0  0  0
  2  1  1  0  0  0  0
  3  2  2  0  0  0  0
  3  4  1  0  0  0  0
  4  5  2  0  0  0  0
  5  6  1  0  0  0  0
  5 10  1  0  0  0  0
  6 18  1  0  0  0  0
  8  2  1  0  0  0  0
  9  4  1  0  0  0  0
 11  3  1  0  0  0  0
 12 11  1  0  0  0  0
 13 17  1  0  0  0  0
 13 15  1  0  0  0  0
 14 13  1  0  0  0  0
 16 13  1  0  0  0  0
M  RAD  2  11   2  12   3
M  END
