Coordinates from ORCA-job Ph-N2-BF4-B3LYPG-aug-cc-pVDZ-scan-d09-49-n400
 OpenBabel11081710393D

 18 16  0  0  0  0  0  0  0  0999 V2000
   -1.0366   -0.0308    0.5359 C   0  0  0  0  0  0  0  0  0  0  0  0
    0.2993    0.1718    0.1255 C   0  0  0  0  0  0  0  0  0  0  0  0
    0.4507    1.4214   -0.3732 C   0  0  0  0  0  0  0  0  0  0  0  0
   -0.3585    2.5035   -0.5599 C   0  0  0  0  0  0  0  0  0  0  0  0
   -1.6713    2.2283   -0.1293 C   0  0  0  0  0  0  0  0  0  0  0  0
   -1.9974    0.9774    0.4078 C   0  0  0  0  0  0  0  0  0  0  0  0
   -1.2869   -0.9961    0.9748 H   0  0  0  0  0  0  0  0  0  0  0  0
    1.1023   -0.5565    0.2424 H   0  0  0  0  0  0  0  0  0  0  0  0
   -0.0496    3.4574   -0.9750 H   0  0  0  0  0  0  0  0  0  0  0  0
   -2.4203    3.0143   -0.2217 H   0  0  0  0  0  0  0  0  0  0  0  0
    2.2327    1.7962   -0.9899 N   0  0  0  0  0  0  0  0  0  0  0  0
    3.1900    2.1093   -1.4348 N   0  0  0  0  0  0  0  0  0  0  0  0
    3.2706   -0.1730    1.3634 B   0  0  0  0  0  0  0  0  0  0  0  0
    3.1581   -0.5256   -0.0389 F   0  0  0  0  0  0  0  0  0  0  0  0
    4.5571   -0.3946    1.8204 F   0  0  0  0  0  0  0  0  0  0  0  0
    2.9168    1.2156    1.4559 F   0  0  0  0  0  0  0  0  0  0  0  0
    2.3010   -0.9326    2.0616 F   0  0  0  0  0  0  0  0  0  0  0  0
   -3.0175    0.7899    0.7408 H   0  0  0  0  0  0  0  0  0  0  0  0
  1  7  1  0  0  0  0
  2  8  1  0  0  0  0
  2  1  2  0  0  0  0
  3  2  1  0  0  0  0
  4  3  2  0  0  0  0
  4  5  1  0  0  0  0
  5  6  2  0  0  0  0
  6  1  1  0  0  0  0
  6 18  1  0  0  0  0
  9  4  1  0  0  0  0
 10  5  1  0  0  0  0
 12 11  3  0  0  0  0
 13 16  1  0  0  0  0
 13 15  1  0  0  0  0
 13 17  1  0  0  0  0
 14 13  1  0  0  0  0
M  RAD  1   3   2
M  END
