Coordinates from ORCA-job Ph-N2-BF4-B3LYPG-aug-cc-pVDZ-scan-d09-49-n400
 OpenBabel11081710393D

 18 16  0  0  0  0  0  0  0  0999 V2000
   -1.3109   -0.0984    0.0390 C   0  0  0  0  0  0  0  0  0  0  0  0
   -0.0045   -0.0003    0.5304 C   0  0  0  0  0  0  0  0  0  0  0  0
    0.4703    1.2614    0.8643 C   0  0  0  0  0  0  0  0  0  0  0  0
   -0.2818    2.4201    0.7271 C   0  0  0  0  0  0  0  0  0  0  0  0
   -1.5858    2.3004    0.2337 C   0  0  0  0  0  0  0  0  0  0  0  0
   -2.1017    1.0461   -0.1088 C   0  0  0  0  0  0  0  0  0  0  0  0
   -1.7091   -1.0771   -0.2295 H   0  0  0  0  0  0  0  0  0  0  0  0
    0.6340   -0.8738    0.6491 H   0  0  0  0  0  0  0  0  0  0  0  0
    0.1472    3.3832    0.9985 H   0  0  0  0  0  0  0  0  0  0  0  0
   -2.1983    3.1947    0.1174 H   0  0  0  0  0  0  0  0  0  0  0  0
    2.8808    1.5457   -2.5243 N   0  0  0  0  0  0  0  0  0  0  0  0
    2.8183    1.5058   -3.6261 N   0  0  0  0  0  0  0  0  0  0  0  0
    3.7975   -0.2027    1.6184 B   0  0  0  0  0  0  0  0  0  0  0  0
    3.5062   -0.9023    0.5251 F   0  0  0  0  0  0  0  0  0  0  0  0
    4.6123    0.8406    1.5411 F   0  0  0  0  0  0  0  0  0  0  0  0
    1.7504    1.3754    1.3458 F   0  0  0  0  0  0  0  0  0  0  0  0
    3.3339   -0.6035    2.7966 F   0  0  0  0  0  0  0  0  0  0  0  0
   -3.1182    0.9608   -0.4922 H   0  0  0  0  0  0  0  0  0  0  0  0
  1  2  1  0  0  0  0
  2  8  1  0  0  0  0
  2  3  2  0  0  0  0
  3 16  1  0  0  0  0
  4  3  1  0  0  0  0
  4  9  1  0  0  0  0
  5  4  2  0  0  0  0
  6  1  2  0  0  0  0
  6  5  1  0  0  0  0
  7  1  1  0  0  0  0
 10  5  1  0  0  0  0
 12 11  3  0  0  0  0
 13 17  1  0  0  0  0
 14 13  1  0  0  0  0
 15 13  1  0  0  0  0
 18  6  1  0  0  0  0
M  END
