Coordinates from ORCA-job Ph-N2-BF4-B3LYPG-aug-cc-pVDZ-scan-d09-49-n400
 OpenBabel11081710393D

 18 16  0  0  0  0  0  0  0  0999 V2000
   -1.2675   -0.0962   -0.0056 C   0  0  0  0  0  0  0  0  0  0  0  0
    0.0304   -0.0026    0.5087 C   0  0  0  0  0  0  0  0  0  0  0  0
    0.5103    1.2591    0.8362 C   0  0  0  0  0  0  0  0  0  0  0  0
   -0.2313    2.4221    0.6727 C   0  0  0  0  0  0  0  0  0  0  0  0
   -1.5268    2.3069    0.1569 C   0  0  0  0  0  0  0  0  0  0  0  0
   -2.0462    1.0527   -0.1812 C   0  0  0  0  0  0  0  0  0  0  0  0
   -1.6687   -1.0748   -0.2697 H   0  0  0  0  0  0  0  0  0  0  0  0
    0.6587   -0.8802    0.6498 H   0  0  0  0  0  0  0  0  0  0  0  0
    0.1988    3.3852    0.9425 H   0  0  0  0  0  0  0  0  0  0  0  0
   -2.1303    3.2044    0.0199 H   0  0  0  0  0  0  0  0  0  0  0  0
    2.5896    1.5493   -2.2069 N   0  0  0  0  0  0  0  0  0  0  0  0
    2.4517    1.5093   -3.3019 N   0  0  0  0  0  0  0  0  0  0  0  0
    3.8217   -0.2102    1.6047 B   0  0  0  0  0  0  0  0  0  0  0  0
    3.4984   -0.9274    0.5319 F   0  0  0  0  0  0  0  0  0  0  0  0
    4.6437    0.8241    1.4894 F   0  0  0  0  0  0  0  0  0  0  0  0
    1.7809    1.3691    1.3404 F   0  0  0  0  0  0  0  0  0  0  0  0
    3.3832   -0.5855    2.8006 F   0  0  0  0  0  0  0  0  0  0  0  0
   -3.0561    0.9708   -0.5824 H   0  0  0  0  0  0  0  0  0  0  0  0
  1  2  1  0  0  0  0
  2  8  1  0  0  0  0
  2  3  2  0  0  0  0
  3 16  1  0  0  0  0
  4  3  1  0  0  0  0
  4  9  1  0  0  0  0
  5  4  2  0  0  0  0
  6  1  2  0  0  0  0
  6  5  1  0  0  0  0
  7  1  1  0  0  0  0
 10  5  1  0  0  0  0
 12 11  3  0  0  0  0
 13 17  1  0  0  0  0
 14 13  1  0  0  0  0
 15 13  1  0  0  0  0
 18  6  1  0  0  0  0
M  END
