Coordinates from ORCA-job Ph-N2-BF4-B3LYPG-aug-cc-pVDZ-scan-d09-49-n400
 OpenBabel11081710393D

 18 16  0  0  0  0  0  0  0  0999 V2000
   -1.2664   -0.0961   -0.0066 C   0  0  0  0  0  0  0  0  0  0  0  0
    0.0313   -0.0027    0.5081 C   0  0  0  0  0  0  0  0  0  0  0  0
    0.5112    1.2590    0.8356 C   0  0  0  0  0  0  0  0  0  0  0  0
   -0.2301    2.4221    0.6716 C   0  0  0  0  0  0  0  0  0  0  0  0
   -1.5254    2.3070    0.1553 C   0  0  0  0  0  0  0  0  0  0  0  0
   -2.0449    1.0528   -0.1828 C   0  0  0  0  0  0  0  0  0  0  0  0
   -1.6677   -1.0747   -0.2707 H   0  0  0  0  0  0  0  0  0  0  0  0
    0.6593   -0.8803    0.6497 H   0  0  0  0  0  0  0  0  0  0  0  0
    0.2000    3.3852    0.9414 H   0  0  0  0  0  0  0  0  0  0  0  0
   -2.1288    3.2046    0.0179 H   0  0  0  0  0  0  0  0  0  0  0  0
    2.5832    1.5493   -2.2003 N   0  0  0  0  0  0  0  0  0  0  0  0
    2.4437    1.5093   -3.2951 N   0  0  0  0  0  0  0  0  0  0  0  0
    3.8220   -0.2103    1.6045 B   0  0  0  0  0  0  0  0  0  0  0  0
    3.4977   -0.9278    0.5322 F   0  0  0  0  0  0  0  0  0  0  0  0
    4.6443    0.8236    1.4882 F   0  0  0  0  0  0  0  0  0  0  0  0
    1.7816    1.3690    1.3403 F   0  0  0  0  0  0  0  0  0  0  0  0
    3.3842   -0.5850    2.8009 F   0  0  0  0  0  0  0  0  0  0  0  0
   -3.0547    0.9710   -0.5844 H   0  0  0  0  0  0  0  0  0  0  0  0
  1  2  1  0  0  0  0
  2  8  1  0  0  0  0
  2  3  2  0  0  0  0
  3 16  1  0  0  0  0
  4  3  1  0  0  0  0
  4  9  1  0  0  0  0
  5  4  2  0  0  0  0
  6  1  2  0  0  0  0
  6  5  1  0  0  0  0
  7  1  1  0  0  0  0
 10  5  1  0  0  0  0
 12 11  3  0  0  0  0
 13 17  1  0  0  0  0
 14 13  1  0  0  0  0
 15 13  1  0  0  0  0
 18  6  1  0  0  0  0
M  END
