Coordinates from ORCA-job Ph-N2-BF4-B3LYPG-aug-cc-pVDZ-scan-d09-49-n400
 OpenBabel11081710393D

 18 16  0  0  0  0  0  0  0  0999 V2000
   -1.2654   -0.0961   -0.0077 C   0  0  0  0  0  0  0  0  0  0  0  0
    0.0321   -0.0027    0.5076 C   0  0  0  0  0  0  0  0  0  0  0  0
    0.5122    1.2590    0.8350 C   0  0  0  0  0  0  0  0  0  0  0  0
   -0.2290    2.4221    0.6705 C   0  0  0  0  0  0  0  0  0  0  0  0
   -1.5241    2.3071    0.1537 C   0  0  0  0  0  0  0  0  0  0  0  0
   -2.0436    1.0529   -0.1844 C   0  0  0  0  0  0  0  0  0  0  0  0
   -1.6667   -1.0747   -0.2717 H   0  0  0  0  0  0  0  0  0  0  0  0
    0.6600   -0.8804    0.6496 H   0  0  0  0  0  0  0  0  0  0  0  0
    0.2012    3.3852    0.9403 H   0  0  0  0  0  0  0  0  0  0  0  0
   -2.1273    3.2048    0.0160 H   0  0  0  0  0  0  0  0  0  0  0  0
    2.5768    1.5493   -2.1936 N   0  0  0  0  0  0  0  0  0  0  0  0
    2.4357    1.5094   -3.2883 N   0  0  0  0  0  0  0  0  0  0  0  0
    3.8223   -0.2104    1.6043 B   0  0  0  0  0  0  0  0  0  0  0  0
    3.4970   -0.9282    0.5325 F   0  0  0  0  0  0  0  0  0  0  0  0
    4.6449    0.8232    1.4870 F   0  0  0  0  0  0  0  0  0  0  0  0
    1.7823    1.3688    1.3403 F   0  0  0  0  0  0  0  0  0  0  0  0
    3.3853   -0.5845    2.8011 F   0  0  0  0  0  0  0  0  0  0  0  0
   -3.0532    0.9712   -0.5863 H   0  0  0  0  0  0  0  0  0  0  0  0
  1  2  1  0  0  0  0
  2  8  1  0  0  0  0
  2  3  2  0  0  0  0
  3 16  1  0  0  0  0
  4  3  1  0  0  0  0
  4  9  1  0  0  0  0
  5  4  2  0  0  0  0
  6  1  2  0  0  0  0
  6  5  1  0  0  0  0
  7  1  1  0  0  0  0
 10  5  1  0  0  0  0
 12 11  3  0  0  0  0
 13 17  1  0  0  0  0
 14 13  1  0  0  0  0
 15 13  1  0  0  0  0
 18  6  1  0  0  0  0
M  END
