Coordinates from ORCA-job Ph-N2-BF4-B3LYPG-aug-cc-pVDZ-scan-d09-49-n400
 OpenBabel11081710393D

 18 16  0  0  0  0  0  0  0  0999 V2000
   -1.1834   -0.0830   -0.1253 C   0  0  0  0  0  0  0  0  0  0  0  0
    0.1040   -0.0023    0.4156 C   0  0  0  0  0  0  0  0  0  0  0  0
    0.6081    1.2565    0.7161 C   0  0  0  0  0  0  0  0  0  0  0  0
   -0.1237    2.4249    0.5465 C   0  0  0  0  0  0  0  0  0  0  0  0
   -1.4091    2.3244    0.0050 C   0  0  0  0  0  0  0  0  0  0  0  0
   -1.9393    1.0752   -0.3362 C   0  0  0  0  0  0  0  0  0  0  0  0
   -1.5965   -1.0595   -0.3788 H   0  0  0  0  0  0  0  0  0  0  0  0
    0.7105   -0.8895    0.5870 H   0  0  0  0  0  0  0  0  0  0  0  0
    0.3107    3.3845    0.8215 H   0  0  0  0  0  0  0  0  0  0  0  0
   -1.9986    3.2288   -0.1466 H   0  0  0  0  0  0  0  0  0  0  0  0
    1.9327    1.5109   -1.4529 N   0  0  0  0  0  0  0  0  0  0  0  0
    1.6801    1.4786   -2.5283 N   0  0  0  0  0  0  0  0  0  0  0  0
    3.8943   -0.2174    1.5879 B   0  0  0  0  0  0  0  0  0  0  0  0
    3.5111   -0.9937    0.5775 F   0  0  0  0  0  0  0  0  0  0  0  0
    4.7181    0.7986    1.3692 F   0  0  0  0  0  0  0  0  0  0  0  0
    1.8498    1.3493    1.2813 F   0  0  0  0  0  0  0  0  0  0  0  0
    3.5133   -0.5142    2.8245 F   0  0  0  0  0  0  0  0  0  0  0  0
   -2.9414    1.0041   -0.7582 H   0  0  0  0  0  0  0  0  0  0  0  0
  1  2  1  0  0  0  0
  2  8  1  0  0  0  0
  2  3  2  0  0  0  0
  3 16  1  0  0  0  0
  4  3  1  0  0  0  0
  4  9  1  0  0  0  0
  5  4  2  0  0  0  0
  6  1  2  0  0  0  0
  6  5  1  0  0  0  0
  7  1  1  0  0  0  0
 10  5  1  0  0  0  0
 12 11  3  0  0  0  0
 13 17  1  0  0  0  0
 14 13  1  0  0  0  0
 15 13  1  0  0  0  0
 18  6  1  0  0  0  0
M  END
