Coordinates from ORCA-job Ph-N2-BF4-B3LYPG-aug-cc-pVDZ-scan-d09-49-n400
 OpenBabel11081710393D

 18 16  0  0  0  0  0  0  0  0999 V2000
   -1.2962   -0.0976    0.0232 C   0  0  0  0  0  0  0  0  0  0  0  0
    0.0073   -0.0014    0.5225 C   0  0  0  0  0  0  0  0  0  0  0  0
    0.4853    1.2605    0.8523 C   0  0  0  0  0  0  0  0  0  0  0  0
   -0.2632    2.4212    0.7050 C   0  0  0  0  0  0  0  0  0  0  0  0
   -1.5643    2.3032    0.2040 C   0  0  0  0  0  0  0  0  0  0  0  0
   -2.0821    1.0488   -0.1356 C   0  0  0  0  0  0  0  0  0  0  0  0
   -1.6961   -1.0764   -0.2424 H   0  0  0  0  0  0  0  0  0  0  0  0
    0.6414   -0.8769    0.6505 H   0  0  0  0  0  0  0  0  0  0  0  0
    0.1661    3.3846    0.9752 H   0  0  0  0  0  0  0  0  0  0  0  0
   -2.1734    3.1988    0.0798 H   0  0  0  0  0  0  0  0  0  0  0  0
    2.7731    1.5478   -2.4012 N   0  0  0  0  0  0  0  0  0  0  0  0
    2.6819    1.5076   -3.5012 N   0  0  0  0  0  0  0  0  0  0  0  0
    3.8089   -0.2061    1.6123 B   0  0  0  0  0  0  0  0  0  0  0  0
    3.5090   -0.9126    0.5258 F   0  0  0  0  0  0  0  0  0  0  0  0
    4.6245    0.8357    1.5230 F   0  0  0  0  0  0  0  0  0  0  0  0
    1.7618    1.3728    1.3416 F   0  0  0  0  0  0  0  0  0  0  0  0
    3.3528   -0.5988    2.7960 F   0  0  0  0  0  0  0  0  0  0  0  0
   -3.0964    0.9648   -0.5251 H   0  0  0  0  0  0  0  0  0  0  0  0
  1  2  1  0  0  0  0
  2  8  1  0  0  0  0
  2  3  2  0  0  0  0
  3 16  1  0  0  0  0
  4  3  1  0  0  0  0
  4  9  1  0  0  0  0
  5  4  2  0  0  0  0
  6  1  2  0  0  0  0
  6  5  1  0  0  0  0
  7  1  1  0  0  0  0
 10  5  1  0  0  0  0
 12 11  3  0  0  0  0
 13 17  1  0  0  0  0
 14 13  1  0  0  0  0
 15 13  1  0  0  0  0
 18  6  1  0  0  0  0
M  END
