Coordinates from ORCA-job Ph-N2-BF4-B3LYPG-aug-cc-pVDZ-scan-d09-49-n400
 OpenBabel11081710393D

 18 17  0  0  0  0  0  0  0  0999 V2000
   -1.0562   -0.2440    0.1960 C   0  0  0  0  0  0  0  0  0  0  0  0
    0.2281   -0.1056   -0.3606 C   0  0  0  0  0  0  0  0  0  0  0  0
    0.5594    1.2048   -0.5376 C   0  0  0  0  0  0  0  0  0  0  0  0
   -0.0730    2.3832   -0.2540 C   0  0  0  0  0  0  0  0  0  0  0  0
   -1.3452    2.1754    0.3041 C   0  0  0  0  0  0  0  0  0  0  0  0
   -1.8257    0.8780    0.5183 C   0  0  0  0  0  0  0  0  0  0  0  0
   -1.4234   -1.2491    0.3986 H   0  0  0  0  0  0  0  0  0  0  0  0
    0.9043   -0.9324   -0.5525 H   0  0  0  0  0  0  0  0  0  0  0  0
    0.3604    3.3658   -0.4106 H   0  0  0  0  0  0  0  0  0  0  0  0
   -1.9415    3.0448    0.5782 H   0  0  0  0  0  0  0  0  0  0  0  0
    2.1946    1.4568   -1.3014 N   0  0  0  0  0  0  0  0  0  0  0  0
    3.1110    1.6688   -1.8743 N   0  0  0  0  0  0  0  0  0  0  0  0
    2.9685    0.3287    1.5046 B   0  0  0  0  0  0  0  0  0  0  0  0
    3.0573   -0.4112    0.2611 F   0  0  0  0  0  0  0  0  0  0  0  0
    4.0875    0.0970    2.2858 F   0  0  0  0  0  0  0  0  0  0  0  0
    2.8761    1.7197    1.1383 F   0  0  0  0  0  0  0  0  0  0  0  0
    1.7684   -0.0452    2.1478 F   0  0  0  0  0  0  0  0  0  0  0  0
   -2.8100    0.7406    0.9641 H   0  0  0  0  0  0  0  0  0  0  0  0
  1  7  1  0  0  0  0
  1  6  2  0  0  0  0
  2  1  1  0  0  0  0
  3  2  2  0  0  0  0
  3  4  1  0  0  0  0
  4  5  2  0  0  0  0
  5  6  1  0  0  0  0
  5 10  1  0  0  0  0
  6 18  1  0  0  0  0
  8  2  1  0  0  0  0
  9  4  1  0  0  0  0
 11  3  1  0  0  0  0
 12 11  1  0  0  0  0
 13 17  1  0  0  0  0
 13 15  1  0  0  0  0
 14 13  1  0  0  0  0
 16 13  1  0  0  0  0
M  RAD  2  11   2  12   3
M  END
