Coordinates from ORCA-job Ph-N2-BF4-B3LYPG-aug-cc-pVDZ-scan-d09-49-n400
 OpenBabel11081710393D

 18 16  0  0  0  0  0  0  0  0999 V2000
   -1.3253   -0.0992    0.0548 C   0  0  0  0  0  0  0  0  0  0  0  0
   -0.0160    0.0011    0.5377 C   0  0  0  0  0  0  0  0  0  0  0  0
    0.4573    1.2629    0.8738 C   0  0  0  0  0  0  0  0  0  0  0  0
   -0.3004    2.4196    0.7479 C   0  0  0  0  0  0  0  0  0  0  0  0
   -1.6072    2.2977    0.2630 C   0  0  0  0  0  0  0  0  0  0  0  0
   -2.1210    1.0432   -0.0822 C   0  0  0  0  0  0  0  0  0  0  0  0
   -1.7221   -1.0780   -0.2154 H   0  0  0  0  0  0  0  0  0  0  0  0
    0.6259   -0.8710    0.6485 H   0  0  0  0  0  0  0  0  0  0  0  0
    0.1265    3.3830    1.0217 H   0  0  0  0  0  0  0  0  0  0  0  0
   -2.2238    3.1903    0.1554 H   0  0  0  0  0  0  0  0  0  0  0  0
    2.9881    1.5421   -2.6391 N   0  0  0  0  0  0  0  0  0  0  0  0
    2.9558    1.5015   -3.7423 N   0  0  0  0  0  0  0  0  0  0  0  0
    3.7858   -0.1988    1.6214 B   0  0  0  0  0  0  0  0  0  0  0  0
    3.5015   -0.8908    0.5214 F   0  0  0  0  0  0  0  0  0  0  0  0
    4.6004    0.8456    1.5568 F   0  0  0  0  0  0  0  0  0  0  0  0
    1.7397    1.3790    1.3478 F   0  0  0  0  0  0  0  0  0  0  0  0
    3.3150   -0.6083    2.7937 F   0  0  0  0  0  0  0  0  0  0  0  0
   -3.1398    0.9561   -0.4590 H   0  0  0  0  0  0  0  0  0  0  0  0
  1  2  1  0  0  0  0
  2  8  1  0  0  0  0
  2  3  2  0  0  0  0
  3 16  1  0  0  0  0
  4  3  1  0  0  0  0
  4  9  1  0  0  0  0
  5  4  2  0  0  0  0
  6  1  2  0  0  0  0
  6  5  1  0  0  0  0
  7  1  1  0  0  0  0
 10  5  1  0  0  0  0
 12 11  3  0  0  0  0
 13 17  1  0  0  0  0
 14 13  1  0  0  0  0
 15 13  1  0  0  0  0
 18  6  1  0  0  0  0
M  END
