Coordinates from ORCA-job Ph-N2-BF4-B3LYPG-aug-cc-pVDZ-scan-d09-49-n400
 OpenBabel11081710393D

 18 16  0  0  0  0  0  0  0  0999 V2000
   -1.3345   -0.1000    0.0649 C   0  0  0  0  0  0  0  0  0  0  0  0
   -0.0231    0.0018    0.5420 C   0  0  0  0  0  0  0  0  0  0  0  0
    0.4497    1.2640    0.8793 C   0  0  0  0  0  0  0  0  0  0  0  0
   -0.3126    2.4199    0.7615 C   0  0  0  0  0  0  0  0  0  0  0  0
   -1.6213    2.2962    0.2822 C   0  0  0  0  0  0  0  0  0  0  0  0
   -2.1333    1.0413   -0.0648 C   0  0  0  0  0  0  0  0  0  0  0  0
   -1.7304   -1.0787   -0.2064 H   0  0  0  0  0  0  0  0  0  0  0  0
    0.6207   -0.8696    0.6478 H   0  0  0  0  0  0  0  0  0  0  0  0
    0.1123    3.3838    1.0373 H   0  0  0  0  0  0  0  0  0  0  0  0
   -2.2408    3.1875    0.1807 H   0  0  0  0  0  0  0  0  0  0  0  0
    3.0586    1.5394   -2.7138 N   0  0  0  0  0  0  0  0  0  0  0  0
    3.0456    1.4983   -3.8174 N   0  0  0  0  0  0  0  0  0  0  0  0
    3.7778   -0.1963    1.6233 B   0  0  0  0  0  0  0  0  0  0  0  0
    3.4979   -0.8835    0.5192 F   0  0  0  0  0  0  0  0  0  0  0  0
    4.5920    0.8490    1.5668 F   0  0  0  0  0  0  0  0  0  0  0  0
    1.7330    1.3816    1.3486 F   0  0  0  0  0  0  0  0  0  0  0  0
    3.3028   -0.6116    2.7916 F   0  0  0  0  0  0  0  0  0  0  0  0
   -3.1538    0.9529   -0.4370 H   0  0  0  0  0  0  0  0  0  0  0  0
  1  2  1  0  0  0  0
  2  8  1  0  0  0  0
  2  3  2  0  0  0  0
  3 16  1  0  0  0  0
  4  3  1  0  0  0  0
  4  9  1  0  0  0  0
  5  4  2  0  0  0  0
  6  1  2  0  0  0  0
  6  5  1  0  0  0  0
  7  1  1  0  0  0  0
 10  5  1  0  0  0  0
 12 11  3  0  0  0  0
 13 17  1  0  0  0  0
 14 13  1  0  0  0  0
 15 13  1  0  0  0  0
 18  6  1  0  0  0  0
M  END
