Coordinates from ORCA-job Ph-N2-BF4-B3LYPG-aug-cc-pVDZ-scan-d09-49-n400
 OpenBabel11081710393D

 18 16  0  0  0  0  0  0  0  0999 V2000
   -1.3076   -0.0982    0.0353 C   0  0  0  0  0  0  0  0  0  0  0  0
   -0.0017   -0.0005    0.5282 C   0  0  0  0  0  0  0  0  0  0  0  0
    0.4743    1.2613    0.8607 C   0  0  0  0  0  0  0  0  0  0  0  0
   -0.2776    2.4203    0.7220 C   0  0  0  0  0  0  0  0  0  0  0  0
   -1.5810    2.3011    0.2272 C   0  0  0  0  0  0  0  0  0  0  0  0
   -2.0973    1.0467   -0.1147 C   0  0  0  0  0  0  0  0  0  0  0  0
   -1.7063   -1.0769   -0.2322 H   0  0  0  0  0  0  0  0  0  0  0  0
    0.6356   -0.8746    0.6491 H   0  0  0  0  0  0  0  0  0  0  0  0
    0.1511    3.3836    0.9936 H   0  0  0  0  0  0  0  0  0  0  0  0
   -2.1930    3.1956    0.1097 H   0  0  0  0  0  0  0  0  0  0  0  0
    2.8568    1.5465   -2.4984 N   0  0  0  0  0  0  0  0  0  0  0  0
    2.7874    1.5068   -3.5999 N   0  0  0  0  0  0  0  0  0  0  0  0
    3.8001   -0.2038    1.6181 B   0  0  0  0  0  0  0  0  0  0  0  0
    3.5069   -0.9051    0.5264 F   0  0  0  0  0  0  0  0  0  0  0  0
    4.6148    0.8395    1.5381 F   0  0  0  0  0  0  0  0  0  0  0  0
    1.7531    1.3749    1.3443 F   0  0  0  0  0  0  0  0  0  0  0  0
    3.3382   -0.6028    2.7975 F   0  0  0  0  0  0  0  0  0  0  0  0
   -3.1135    0.9617   -0.4991 H   0  0  0  0  0  0  0  0  0  0  0  0
  1  2  1  0  0  0  0
  2  8  1  0  0  0  0
  2  3  2  0  0  0  0
  3 16  1  0  0  0  0
  4  3  1  0  0  0  0
  4  9  1  0  0  0  0
  5  4  2  0  0  0  0
  6  1  2  0  0  0  0
  6  5  1  0  0  0  0
  7  1  1  0  0  0  0
 10  5  1  0  0  0  0
 12 11  3  0  0  0  0
 13 17  1  0  0  0  0
 14 13  1  0  0  0  0
 15 13  1  0  0  0  0
 18  6  1  0  0  0  0
M  END
