Coordinates from ORCA-job Ph-N2-BF4-B3LYPG-aug-cc-pVDZ-scan-d09-49-n400
 OpenBabel11081710393D

 18 16  0  0  0  0  0  0  0  0999 V2000
   -1.3185   -0.0988    0.0473 C   0  0  0  0  0  0  0  0  0  0  0  0
   -0.0106    0.0003    0.5346 C   0  0  0  0  0  0  0  0  0  0  0  0
    0.4630    1.2621    0.8699 C   0  0  0  0  0  0  0  0  0  0  0  0
   -0.2916    2.4198    0.7382 C   0  0  0  0  0  0  0  0  0  0  0  0
   -1.5970    2.2990    0.2490 C   0  0  0  0  0  0  0  0  0  0  0  0
   -2.1118    1.0446   -0.0949 C   0  0  0  0  0  0  0  0  0  0  0  0
   -1.7159   -1.0775   -0.2223 H   0  0  0  0  0  0  0  0  0  0  0  0
    0.6299   -0.8723    0.6489 H   0  0  0  0  0  0  0  0  0  0  0  0
    0.1366    3.3830    1.0106 H   0  0  0  0  0  0  0  0  0  0  0  0
   -2.2115    3.1925    0.1370 H   0  0  0  0  0  0  0  0  0  0  0  0
    2.9370    1.5438   -2.5846 N   0  0  0  0  0  0  0  0  0  0  0  0
    2.8904    1.5035   -3.6872 N   0  0  0  0  0  0  0  0  0  0  0  0
    3.7914   -0.2006    1.6199 B   0  0  0  0  0  0  0  0  0  0  0  0
    3.5040   -0.8962    0.5230 F   0  0  0  0  0  0  0  0  0  0  0  0
    4.6063    0.8432    1.5492 F   0  0  0  0  0  0  0  0  0  0  0  0
    1.7446    1.3771    1.3473 F   0  0  0  0  0  0  0  0  0  0  0  0
    3.3239   -0.6059    2.7950 F   0  0  0  0  0  0  0  0  0  0  0  0
   -3.1295    0.9584   -0.4751 H   0  0  0  0  0  0  0  0  0  0  0  0
  1  2  1  0  0  0  0
  2  8  1  0  0  0  0
  2  3  2  0  0  0  0
  3 16  1  0  0  0  0
  4  3  1  0  0  0  0
  4  9  1  0  0  0  0
  5  4  2  0  0  0  0
  6  1  2  0  0  0  0
  6  5  1  0  0  0  0
  7  1  1  0  0  0  0
 10  5  1  0  0  0  0
 12 11  3  0  0  0  0
 13 17  1  0  0  0  0
 14 13  1  0  0  0  0
 15 13  1  0  0  0  0
 18  6  1  0  0  0  0
M  END
