Coordinates from ORCA-job Ph-N2-BF4-B3LYPG-aug-cc-pVDZ-scan-d09-49-n400
 OpenBabel11081710393D

 18 16  0  0  0  0  0  0  0  0999 V2000
   -1.3008   -0.0979    0.0279 C   0  0  0  0  0  0  0  0  0  0  0  0
    0.0037   -0.0011    0.5246 C   0  0  0  0  0  0  0  0  0  0  0  0
    0.4812    1.2607    0.8551 C   0  0  0  0  0  0  0  0  0  0  0  0
   -0.2685    2.4210    0.7108 C   0  0  0  0  0  0  0  0  0  0  0  0
   -1.5705    2.3026    0.2123 C   0  0  0  0  0  0  0  0  0  0  0  0
   -2.0879    1.0481   -0.1279 C   0  0  0  0  0  0  0  0  0  0  0  0
   -1.7004   -1.0766   -0.2382 H   0  0  0  0  0  0  0  0  0  0  0  0
    0.6387   -0.8762    0.6502 H   0  0  0  0  0  0  0  0  0  0  0  0
    0.1605    3.3844    0.9813 H   0  0  0  0  0  0  0  0  0  0  0  0
   -2.1806    3.1978    0.0904 H   0  0  0  0  0  0  0  0  0  0  0  0
    2.8041    1.5474   -2.4352 N   0  0  0  0  0  0  0  0  0  0  0  0
    2.7207    1.5073   -3.5358 N   0  0  0  0  0  0  0  0  0  0  0  0
    3.8063   -0.2053    1.6140 B   0  0  0  0  0  0  0  0  0  0  0  0
    3.5095   -0.9101    0.5256 F   0  0  0  0  0  0  0  0  0  0  0  0
    4.6210    0.8375    1.5284 F   0  0  0  0  0  0  0  0  0  0  0  0
    1.7586    1.3734    1.3420 F   0  0  0  0  0  0  0  0  0  0  0  0
    3.3479   -0.6006    2.7960 F   0  0  0  0  0  0  0  0  0  0  0  0
   -3.1030    0.9638   -0.5154 H   0  0  0  0  0  0  0  0  0  0  0  0
  1  2  1  0  0  0  0
  2  8  1  0  0  0  0
  2  3  2  0  0  0  0
  3 16  1  0  0  0  0
  4  3  1  0  0  0  0
  4  9  1  0  0  0  0
  5  4  2  0  0  0  0
  6  1  2  0  0  0  0
  6  5  1  0  0  0  0
  7  1  1  0  0  0  0
 10  5  1  0  0  0  0
 12 11  3  0  0  0  0
 13 17  1  0  0  0  0
 14 13  1  0  0  0  0
 15 13  1  0  0  0  0
 18  6  1  0  0  0  0
M  END
