Coordinates from ORCA-job Ph-N2-BF4-B3LYPG-aug-cc-pVDZ-scan-d09-49-n400
 OpenBabel11081710403D

 18 16  0  0  0  0  0  0  0  0999 V2000
   -1.3589   -0.0886    0.0633 C   0  0  0  0  0  0  0  0  0  0  0  0
   -0.0417    0.0175    0.5240 C   0  0  0  0  0  0  0  0  0  0  0  0
    0.4136    1.2740    0.9013 C   0  0  0  0  0  0  0  0  0  0  0  0
   -0.3687    2.4199    0.8397 C   0  0  0  0  0  0  0  0  0  0  0  0
   -1.6825    2.2918    0.3763 C   0  0  0  0  0  0  0  0  0  0  0  0
   -2.1786    1.0423   -0.0109 C   0  0  0  0  0  0  0  0  0  0  0  0
   -1.7430   -1.0633   -0.2385 H   0  0  0  0  0  0  0  0  0  0  0  0
    0.6186   -0.8454    0.5879 H   0  0  0  0  0  0  0  0  0  0  0  0
    0.0436    3.3796    1.1470 H   0  0  0  0  0  0  0  0  0  0  0  0
   -2.3186    3.1754    0.3188 H   0  0  0  0  0  0  0  0  0  0  0  0
    3.2982    1.4698   -2.9551 N   0  0  0  0  0  0  0  0  0  0  0  0
    3.3439    1.4092   -4.0568 N   0  0  0  0  0  0  0  0  0  0  0  0
    3.7633   -0.1740    1.6294 B   0  0  0  0  0  0  0  0  0  0  0  0
    3.5035   -0.8650    0.5230 F   0  0  0  0  0  0  0  0  0  0  0  0
    4.5722    0.8759    1.5804 F   0  0  0  0  0  0  0  0  0  0  0  0
    1.7041    1.3952    1.3542 F   0  0  0  0  0  0  0  0  0  0  0  0
    3.2746   -0.5882    2.7926 F   0  0  0  0  0  0  0  0  0  0  0  0
   -3.2031    0.9500   -0.3709 H   0  0  0  0  0  0  0  0  0  0  0  0
  1  2  1  0  0  0  0
  2  8  1  0  0  0  0
  2  3  2  0  0  0  0
  3 16  1  0  0  0  0
  4  3  1  0  0  0  0
  4  9  1  0  0  0  0
  5  4  2  0  0  0  0
  6  1  2  0  0  0  0
  6  5  1  0  0  0  0
  7  1  1  0  0  0  0
 10  5  1  0  0  0  0
 12 11  3  0  0  0  0
 13 17  1  0  0  0  0
 14 13  1  0  0  0  0
 15 13  1  0  0  0  0
 18  6  1  0  0  0  0
M  END
