Coordinates from ORCA-job Ph-N2-BF4-B3LYPG-aug-cc-pVDZ-scan-d09-49-n400
 OpenBabel11081710393D

 18 17  0  0  0  0  0  0  0  0999 V2000
   -1.0089   -0.2575    0.1473 C   0  0  0  0  0  0  0  0  0  0  0  0
    0.2345   -0.1102   -0.4639 C   0  0  0  0  0  0  0  0  0  0  0  0
    0.6695    1.2001   -0.6542 C   0  0  0  0  0  0  0  0  0  0  0  0
   -0.0066    2.3560   -0.2583 C   0  0  0  0  0  0  0  0  0  0  0  0
   -1.2404    2.1645    0.3548 C   0  0  0  0  0  0  0  0  0  0  0  0
   -1.7363    0.8672    0.5513 C   0  0  0  0  0  0  0  0  0  0  0  0
   -1.3923   -1.2585    0.3363 H   0  0  0  0  0  0  0  0  0  0  0  0
    0.8641   -0.9536   -0.7301 H   0  0  0  0  0  0  0  0  0  0  0  0
    0.4266    3.3427   -0.4012 H   0  0  0  0  0  0  0  0  0  0  0  0
   -1.8087    3.0287    0.6948 H   0  0  0  0  0  0  0  0  0  0  0  0
    1.9816    1.3909   -1.2923 N   0  0  0  0  0  0  0  0  0  0  0  0
    2.9345    1.5631   -1.8290 N   0  0  0  0  0  0  0  0  0  0  0  0
    2.9003    0.3928    1.5382 B   0  0  0  0  0  0  0  0  0  0  0  0
    3.0633   -0.3677    0.3175 F   0  0  0  0  0  0  0  0  0  0  0  0
    3.9668    0.1777    2.3939 F   0  0  0  0  0  0  0  0  0  0  0  0
    2.8294    1.7762    1.1403 F   0  0  0  0  0  0  0  0  0  0  0  0
    1.6610    0.0305    2.1143 F   0  0  0  0  0  0  0  0  0  0  0  0
   -2.6979    0.7332    1.0462 H   0  0  0  0  0  0  0  0  0  0  0  0
  1  7  1  0  0  0  0
  1  6  2  0  0  0  0
  2  1  1  0  0  0  0
  3  2  2  0  0  0  0
  3  4  1  0  0  0  0
  4  5  2  0  0  0  0
  5  6  1  0  0  0  0
  5 10  1  0  0  0  0
  6 18  1  0  0  0  0
  8  2  1  0  0  0  0
  9  4  1  0  0  0  0
 11  3  1  0  0  0  0
 12 11  1  0  0  0  0
 13 17  1  0  0  0  0
 13 15  1  0  0  0  0
 14 13  1  0  0  0  0
 16 13  1  0  0  0  0
M  RAD  2  11   2  12   3
M  END
