Coordinates from ORCA-job Ph-N2-BF4-B3LYPG-aug-cc-pVDZ-scan-d09-49-n400
 OpenBabel11081710393D

 18 16  0  0  0  0  0  0  0  0999 V2000
   -1.2201   -0.0915   -0.0648 C   0  0  0  0  0  0  0  0  0  0  0  0
    0.0705   -0.0056    0.4688 C   0  0  0  0  0  0  0  0  0  0  0  0
    0.5580    1.2541    0.7927 C   0  0  0  0  0  0  0  0  0  0  0  0
   -0.1721    2.4218    0.6120 C   0  0  0  0  0  0  0  0  0  0  0  0
   -1.4605    2.3147    0.0773 C   0  0  0  0  0  0  0  0  0  0  0  0
   -1.9857    1.0628   -0.2610 C   0  0  0  0  0  0  0  0  0  0  0  0
   -1.6261   -1.0686   -0.3273 H   0  0  0  0  0  0  0  0  0  0  0  0
    0.6881   -0.8879    0.6264 H   0  0  0  0  0  0  0  0  0  0  0  0
    0.2616    3.3829    0.8831 H   0  0  0  0  0  0  0  0  0  0  0  0
   -2.0543    3.2164   -0.0740 H   0  0  0  0  0  0  0  0  0  0  0  0
    2.2475    1.5451   -1.8567 N   0  0  0  0  0  0  0  0  0  0  0  0
    2.0328    1.5110   -2.9395 N   0  0  0  0  0  0  0  0  0  0  0  0
    3.8530   -0.2159    1.6044 B   0  0  0  0  0  0  0  0  0  0  0  0
    3.4974   -0.9635    0.5627 F   0  0  0  0  0  0  0  0  0  0  0  0
    4.6767    0.8097    1.4358 F   0  0  0  0  0  0  0  0  0  0  0  0
    1.8182    1.3562    1.3208 F   0  0  0  0  0  0  0  0  0  0  0  0
    3.4457   -0.5525    2.8224 F   0  0  0  0  0  0  0  0  0  0  0  0
   -2.9900    0.9870   -0.6771 H   0  0  0  0  0  0  0  0  0  0  0  0
  1  2  1  0  0  0  0
  2  8  1  0  0  0  0
  2  3  2  0  0  0  0
  3 16  1  0  0  0  0
  4  3  1  0  0  0  0
  4  9  1  0  0  0  0
  5  4  2  0  0  0  0
  6  1  2  0  0  0  0
  6  5  1  0  0  0  0
  7  1  1  0  0  0  0
 10  5  1  0  0  0  0
 12 11  3  0  0  0  0
 13 17  1  0  0  0  0
 14 13  1  0  0  0  0
 15 13  1  0  0  0  0
 18  6  1  0  0  0  0
M  END
