Coordinates from ORCA-job Ph-N2-BF4-B3LYPG-aug-cc-pVDZ-scan-d09-49-n400
 OpenBabel11081710393D

 18 17  0  0  0  0  0  0  0  0999 V2000
   -1.0050   -0.2575    0.1477 C   0  0  0  0  0  0  0  0  0  0  0  0
    0.2361   -0.1095   -0.4668 C   0  0  0  0  0  0  0  0  0  0  0  0
    0.6738    1.2011   -0.6598 C   0  0  0  0  0  0  0  0  0  0  0  0
   -0.0048    2.3560   -0.2601 C   0  0  0  0  0  0  0  0  0  0  0  0
   -1.2362    2.1644    0.3565 C   0  0  0  0  0  0  0  0  0  0  0  0
   -1.7313    0.8669    0.5543 C   0  0  0  0  0  0  0  0  0  0  0  0
   -1.3877   -1.2585    0.3378 H   0  0  0  0  0  0  0  0  0  0  0  0
    0.8647   -0.9532   -0.7353 H   0  0  0  0  0  0  0  0  0  0  0  0
    0.4273    3.3431   -0.4040 H   0  0  0  0  0  0  0  0  0  0  0  0
   -1.8038    3.0282    0.6985 H   0  0  0  0  0  0  0  0  0  0  0  0
    1.9756    1.3905   -1.2963 N   0  0  0  0  0  0  0  0  0  0  0  0
    2.9294    1.5607   -1.8309 N   0  0  0  0  0  0  0  0  0  0  0  0
    2.8948    0.3933    1.5396 B   0  0  0  0  0  0  0  0  0  0  0  0
    3.0638   -0.3660    0.3192 F   0  0  0  0  0  0  0  0  0  0  0  0
    3.9582    0.1787    2.3994 F   0  0  0  0  0  0  0  0  0  0  0  0
    2.8233    1.7770    1.1431 F   0  0  0  0  0  0  0  0  0  0  0  0
    1.6538    0.0282    2.1110 F   0  0  0  0  0  0  0  0  0  0  0  0
   -2.6914    0.7326    1.0520 H   0  0  0  0  0  0  0  0  0  0  0  0
  1  7  1  0  0  0  0
  1  6  2  0  0  0  0
  2  1  1  0  0  0  0
  3  2  2  0  0  0  0
  3  4  1  0  0  0  0
  4  5  2  0  0  0  0
  5  6  1  0  0  0  0
  5 10  1  0  0  0  0
  6 18  1  0  0  0  0
  8  2  1  0  0  0  0
  9  4  1  0  0  0  0
 11  3  1  0  0  0  0
 12 11  1  0  0  0  0
 13 17  1  0  0  0  0
 13 15  1  0  0  0  0
 14 13  1  0  0  0  0
 16 13  1  0  0  0  0
M  RAD  2  11   2  12   3
M  END
