Coordinates from ORCA-job Ph-N2-BF4-B3LYPG-aug-cc-pVDZ-scan-d09-49-n400
 OpenBabel11081710393D

 18 16  0  0  0  0  0  0  0  0999 V2000
   -1.2999   -0.0978    0.0269 C   0  0  0  0  0  0  0  0  0  0  0  0
    0.0044   -0.0012    0.5242 C   0  0  0  0  0  0  0  0  0  0  0  0
    0.4821    1.2607    0.8546 C   0  0  0  0  0  0  0  0  0  0  0  0
   -0.2675    2.4210    0.7096 C   0  0  0  0  0  0  0  0  0  0  0  0
   -1.5693    2.3027    0.2106 C   0  0  0  0  0  0  0  0  0  0  0  0
   -2.0868    1.0482   -0.1295 C   0  0  0  0  0  0  0  0  0  0  0  0
   -1.6995   -1.0766   -0.2390 H   0  0  0  0  0  0  0  0  0  0  0  0
    0.6393   -0.8764    0.6503 H   0  0  0  0  0  0  0  0  0  0  0  0
    0.1616    3.3844    0.9801 H   0  0  0  0  0  0  0  0  0  0  0  0
   -2.1792    3.1980    0.0882 H   0  0  0  0  0  0  0  0  0  0  0  0
    2.7979    1.5475   -2.4284 N   0  0  0  0  0  0  0  0  0  0  0  0
    2.7129    1.5074   -3.5289 N   0  0  0  0  0  0  0  0  0  0  0  0
    3.8068   -0.2055    1.6137 B   0  0  0  0  0  0  0  0  0  0  0  0
    3.5094   -0.9106    0.5256 F   0  0  0  0  0  0  0  0  0  0  0  0
    4.6217    0.8372    1.5274 F   0  0  0  0  0  0  0  0  0  0  0  0
    1.7593    1.3733    1.3419 F   0  0  0  0  0  0  0  0  0  0  0  0
    3.3489   -0.6003    2.7960 F   0  0  0  0  0  0  0  0  0  0  0  0
   -3.1017    0.9640   -0.5174 H   0  0  0  0  0  0  0  0  0  0  0  0
  1  2  1  0  0  0  0
  2  8  1  0  0  0  0
  2  3  2  0  0  0  0
  3 16  1  0  0  0  0
  4  3  1  0  0  0  0
  4  9  1  0  0  0  0
  5  4  2  0  0  0  0
  6  1  2  0  0  0  0
  6  5  1  0  0  0  0
  7  1  1  0  0  0  0
 10  5  1  0  0  0  0
 12 11  3  0  0  0  0
 13 17  1  0  0  0  0
 14 13  1  0  0  0  0
 15 13  1  0  0  0  0
 18  6  1  0  0  0  0
M  END
