Coordinates from ORCA-job Ph-N2-BF4-B3LYPG-aug-cc-pVDZ-scan-d09-49-n400
 OpenBabel11081710393D

 18 16  0  0  0  0  0  0  0  0999 V2000
   -1.2425   -0.0942   -0.0341 C   0  0  0  0  0  0  0  0  0  0  0  0
    0.0512   -0.0039    0.4913 C   0  0  0  0  0  0  0  0  0  0  0  0
    0.5338    1.2570    0.8177 C   0  0  0  0  0  0  0  0  0  0  0  0
   -0.2019    2.4223    0.6438 C   0  0  0  0  0  0  0  0  0  0  0  0
   -1.4933    2.3105    0.1170 C   0  0  0  0  0  0  0  0  0  0  0  0
   -2.0148    1.0572   -0.2213 C   0  0  0  0  0  0  0  0  0  0  0  0
   -1.6455   -1.0722   -0.2977 H   0  0  0  0  0  0  0  0  0  0  0  0
    0.6743   -0.8836    0.6417 H   0  0  0  0  0  0  0  0  0  0  0  0
    0.2294    3.3845    0.9144 H   0  0  0  0  0  0  0  0  0  0  0  0
   -2.0920    3.2099   -0.0284 H   0  0  0  0  0  0  0  0  0  0  0  0
    2.4210    1.5493   -2.0392 N   0  0  0  0  0  0  0  0  0  0  0  0
    2.2406    1.5109   -3.1280 N   0  0  0  0  0  0  0  0  0  0  0  0
    3.8354   -0.2137    1.6045 B   0  0  0  0  0  0  0  0  0  0  0  0
    3.4951   -0.9437    0.5454 F   0  0  0  0  0  0  0  0  0  0  0  0
    4.6607    0.8150    1.4648 F   0  0  0  0  0  0  0  0  0  0  0  0
    1.7993    1.3639    1.3342 F   0  0  0  0  0  0  0  0  0  0  0  0
    3.4109   -0.5709    2.8108 F   0  0  0  0  0  0  0  0  0  0  0  0
   -3.0214    0.9779   -0.6311 H   0  0  0  0  0  0  0  0  0  0  0  0
  1  2  1  0  0  0  0
  2  8  1  0  0  0  0
  2  3  2  0  0  0  0
  3 16  1  0  0  0  0
  4  3  1  0  0  0  0
  4  9  1  0  0  0  0
  5  4  2  0  0  0  0
  6  1  2  0  0  0  0
  6  5  1  0  0  0  0
  7  1  1  0  0  0  0
 10  5  1  0  0  0  0
 12 11  3  0  0  0  0
 13 17  1  0  0  0  0
 14 13  1  0  0  0  0
 15 13  1  0  0  0  0
 18  6  1  0  0  0  0
M  END
