Coordinates from ORCA-job Ph-N2-BF4-B3LYPG-aug-cc-pVDZ-scan-d09-49-n400
 OpenBabel11081710393D

 18 16  0  0  0  0  0  0  0  0999 V2000
   -1.0346   -0.0288    0.5429 C   0  0  0  0  0  0  0  0  0  0  0  0
    0.3015    0.1788    0.1290 C   0  0  0  0  0  0  0  0  0  0  0  0
    0.4330    1.4260   -0.3708 C   0  0  0  0  0  0  0  0  0  0  0  0
   -0.3708    2.5069   -0.5638 C   0  0  0  0  0  0  0  0  0  0  0  0
   -1.6825    2.2243   -0.1294 C   0  0  0  0  0  0  0  0  0  0  0  0
   -2.0008    0.9737    0.4127 C   0  0  0  0  0  0  0  0  0  0  0  0
   -1.2765   -0.9944    0.9862 H   0  0  0  0  0  0  0  0  0  0  0  0
    1.1108   -0.5436    0.2474 H   0  0  0  0  0  0  0  0  0  0  0  0
   -0.0656    3.4601   -0.9831 H   0  0  0  0  0  0  0  0  0  0  0  0
   -2.4349    3.0068   -0.2243 H   0  0  0  0  0  0  0  0  0  0  0  0
    2.2694    1.8140   -1.0097 N   0  0  0  0  0  0  0  0  0  0  0  0
    3.2293    2.1258   -1.4503 N   0  0  0  0  0  0  0  0  0  0  0  0
    3.2666   -0.1812    1.3644 B   0  0  0  0  0  0  0  0  0  0  0  0
    3.1563   -0.5322   -0.0379 F   0  0  0  0  0  0  0  0  0  0  0  0
    4.5473   -0.4201    1.8289 F   0  0  0  0  0  0  0  0  0  0  0  0
    2.9275    1.2100    1.4586 F   0  0  0  0  0  0  0  0  0  0  0  0
    2.2839   -0.9320    2.0569 F   0  0  0  0  0  0  0  0  0  0  0  0
   -3.0193    0.7818    0.7482 H   0  0  0  0  0  0  0  0  0  0  0  0
  1  7  1  0  0  0  0
  2  8  1  0  0  0  0
  2  1  2  0  0  0  0
  3  2  1  0  0  0  0
  4  3  2  0  0  0  0
  4  5  1  0  0  0  0
  5  6  2  0  0  0  0
  6  1  1  0  0  0  0
  6 18  1  0  0  0  0
  9  4  1  0  0  0  0
 10  5  1  0  0  0  0
 12 11  3  0  0  0  0
 13 16  1  0  0  0  0
 13 15  1  0  0  0  0
 13 17  1  0  0  0  0
 14 13  1  0  0  0  0
M  RAD  1   3   2
M  END
