Coordinates from ORCA-job Ph-N2-BF4-B3LYPG-aug-cc-pVDZ-scan-d09-49-n400
 OpenBabel11081710393D

 18 16  0  0  0  0  0  0  0  0999 V2000
   -1.2560   -0.0956   -0.0174 C   0  0  0  0  0  0  0  0  0  0  0  0
    0.0398   -0.0032    0.5022 C   0  0  0  0  0  0  0  0  0  0  0  0
    0.5205    1.2583    0.8294 C   0  0  0  0  0  0  0  0  0  0  0  0
   -0.2186    2.4221    0.6608 C   0  0  0  0  0  0  0  0  0  0  0  0
   -1.5121    2.3082    0.1397 C   0  0  0  0  0  0  0  0  0  0  0  0
   -2.0320    1.0542   -0.1985 C   0  0  0  0  0  0  0  0  0  0  0  0
   -1.6577   -1.0740   -0.2813 H   0  0  0  0  0  0  0  0  0  0  0  0
    0.6660   -0.8816    0.6477 H   0  0  0  0  0  0  0  0  0  0  0  0
    0.2119    3.3850    0.9310 H   0  0  0  0  0  0  0  0  0  0  0  0
   -2.1136    3.2064   -0.0013 H   0  0  0  0  0  0  0  0  0  0  0  0
    2.5185    1.5493   -2.1350 N   0  0  0  0  0  0  0  0  0  0  0  0
    2.3626    1.5098   -3.2276 N   0  0  0  0  0  0  0  0  0  0  0  0
    3.8256   -0.2113    1.6034 B   0  0  0  0  0  0  0  0  0  0  0  0
    3.4923   -0.9326    0.5363 F   0  0  0  0  0  0  0  0  0  0  0  0
    4.6504    0.8196    1.4771 F   0  0  0  0  0  0  0  0  0  0  0  0
    1.7889    1.3673    1.3391 F   0  0  0  0  0  0  0  0  0  0  0  0
    3.3945   -0.5792    2.8042 F   0  0  0  0  0  0  0  0  0  0  0  0
   -3.0404    0.9733   -0.6038 H   0  0  0  0  0  0  0  0  0  0  0  0
  1  2  1  0  0  0  0
  2  8  1  0  0  0  0
  2  3  2  0  0  0  0
  3 16  1  0  0  0  0
  4  3  1  0  0  0  0
  4  9  1  0  0  0  0
  5  4  2  0  0  0  0
  6  1  2  0  0  0  0
  6  5  1  0  0  0  0
  7  1  1  0  0  0  0
 10  5  1  0  0  0  0
 12 11  3  0  0  0  0
 13 17  1  0  0  0  0
 14 13  1  0  0  0  0
 15 13  1  0  0  0  0
 18  6  1  0  0  0  0
M  END
