Coordinates from ORCA-job Ph-N2-BF4-B3LYPG-aug-cc-pVDZ-scan-d09-49-n400
 OpenBabel11081710393D

 18 16  0  0  0  0  0  0  0  0999 V2000
   -1.0119   -0.0690    0.4972 C   0  0  0  0  0  0  0  0  0  0  0  0
    0.3231    0.1492    0.0515 C   0  0  0  0  0  0  0  0  0  0  0  0
    0.3907    1.4131   -0.3706 C   0  0  0  0  0  0  0  0  0  0  0  0
   -0.3635    2.5235   -0.4973 C   0  0  0  0  0  0  0  0  0  0  0  0
   -1.6680    2.2177   -0.0326 C   0  0  0  0  0  0  0  0  0  0  0  0
   -1.9762    0.9413    0.4506 C   0  0  0  0  0  0  0  0  0  0  0  0
   -1.2306   -1.0550    0.9079 H   0  0  0  0  0  0  0  0  0  0  0  0
    1.1431   -0.5719    0.1346 H   0  0  0  0  0  0  0  0  0  0  0  0
   -0.0591    3.4907   -0.8822 H   0  0  0  0  0  0  0  0  0  0  0  0
   -2.4136    3.0122   -0.0682 H   0  0  0  0  0  0  0  0  0  0  0  0
    2.4257    1.8516   -1.2331 N   0  0  0  0  0  0  0  0  0  0  0  0
    3.4139    2.0866   -1.6604 N   0  0  0  0  0  0  0  0  0  0  0  0
    3.1605   -0.1347    1.4108 B   0  0  0  0  0  0  0  0  0  0  0  0
    3.1014   -0.5972    0.0378 F   0  0  0  0  0  0  0  0  0  0  0  0
    4.4162   -0.3544    1.9470 F   0  0  0  0  0  0  0  0  0  0  0  0
    2.8358    1.2600    1.3889 F   0  0  0  0  0  0  0  0  0  0  0  0
    2.1369   -0.8228    2.1150 F   0  0  0  0  0  0  0  0  0  0  0  0
   -2.9837    0.7352    0.8092 H   0  0  0  0  0  0  0  0  0  0  0  0
  1  7  1  0  0  0  0
  2  8  1  0  0  0  0
  2  1  2  0  0  0  0
  3  2  1  0  0  0  0
  4  3  2  0  0  0  0
  4  5  1  0  0  0  0
  5  6  2  0  0  0  0
  6  1  1  0  0  0  0
  6 18  1  0  0  0  0
  9  4  1  0  0  0  0
 10  5  1  0  0  0  0
 12 11  3  0  0  0  0
 13 15  1  0  0  0  0
 13 17  1  0  0  0  0
 14 13  1  0  0  0  0
 16 13  1  0  0  0  0
M  RAD  1   3   2
M  END
