Coordinates from ORCA-job Ph-N2-BF4-B3LYPG-aug-cc-pVDZ-scan-d09-49-n400
 OpenBabel11081710393D

 18 16  0  0  0  0  0  0  0  0999 V2000
   -1.2381   -0.0937   -0.0396 C   0  0  0  0  0  0  0  0  0  0  0  0
    0.0549   -0.0043    0.4876 C   0  0  0  0  0  0  0  0  0  0  0  0
    0.5383    1.2565    0.8136 C   0  0  0  0  0  0  0  0  0  0  0  0
   -0.1963    2.4222    0.6380 C   0  0  0  0  0  0  0  0  0  0  0  0
   -1.4870    2.3113    0.1095 C   0  0  0  0  0  0  0  0  0  0  0  0
   -2.0091    1.0582   -0.2287 C   0  0  0  0  0  0  0  0  0  0  0  0
   -1.6416   -1.0716   -0.3030 H   0  0  0  0  0  0  0  0  0  0  0  0
    0.6770   -0.8844    0.6396 H   0  0  0  0  0  0  0  0  0  0  0  0
    0.2355    3.3843    0.9087 H   0  0  0  0  0  0  0  0  0  0  0  0
   -2.0847    3.2111   -0.0372 H   0  0  0  0  0  0  0  0  0  0  0  0
    2.3889    1.5491   -2.0070 N   0  0  0  0  0  0  0  0  0  0  0  0
    2.2005    1.5110   -3.0945 N   0  0  0  0  0  0  0  0  0  0  0  0
    3.8385   -0.2143    1.6048 B   0  0  0  0  0  0  0  0  0  0  0  0
    3.4961   -0.9470    0.5483 F   0  0  0  0  0  0  0  0  0  0  0  0
    4.6637    0.8139    1.4608 F   0  0  0  0  0  0  0  0  0  0  0  0
    1.8029    1.3626    1.3322 F   0  0  0  0  0  0  0  0  0  0  0  0
    3.4165   -0.5683    2.8129 F   0  0  0  0  0  0  0  0  0  0  0  0
   -3.0153    0.9795   -0.6399 H   0  0  0  0  0  0  0  0  0  0  0  0
  1  2  1  0  0  0  0
  2  8  1  0  0  0  0
  2  3  2  0  0  0  0
  3 16  1  0  0  0  0
  4  3  1  0  0  0  0
  4  9  1  0  0  0  0
  5  4  2  0  0  0  0
  6  1  2  0  0  0  0
  6  5  1  0  0  0  0
  7  1  1  0  0  0  0
 10  5  1  0  0  0  0
 12 11  3  0  0  0  0
 13 17  1  0  0  0  0
 14 13  1  0  0  0  0
 15 13  1  0  0  0  0
 18  6  1  0  0  0  0
M  END
