Coordinates from ORCA-job Ph-N2-BF4-B3LYPG-aug-cc-pVDZ-scan-d09-49-n400
 OpenBabel11081710393D

 18 16  0  0  0  0  0  0  0  0999 V2000
   -1.2295   -0.0928   -0.0507 C   0  0  0  0  0  0  0  0  0  0  0  0
    0.0623   -0.0050    0.4797 C   0  0  0  0  0  0  0  0  0  0  0  0
    0.5474    1.2552    0.8050 C   0  0  0  0  0  0  0  0  0  0  0  0
   -0.1848    2.4220    0.6266 C   0  0  0  0  0  0  0  0  0  0  0  0
   -1.4744    2.3128    0.0948 C   0  0  0  0  0  0  0  0  0  0  0  0
   -1.9979    1.0602   -0.2434 C   0  0  0  0  0  0  0  0  0  0  0  0
   -1.6341   -1.0703   -0.3138 H   0  0  0  0  0  0  0  0  0  0  0  0
    0.6823   -0.8861    0.6345 H   0  0  0  0  0  0  0  0  0  0  0  0
    0.2479    3.3835    0.8974 H   0  0  0  0  0  0  0  0  0  0  0  0
   -2.0702    3.2135   -0.0543 H   0  0  0  0  0  0  0  0  0  0  0  0
    2.3252    1.5484   -1.9429 N   0  0  0  0  0  0  0  0  0  0  0  0
    2.1206    1.5110   -3.0276 N   0  0  0  0  0  0  0  0  0  0  0  0
    3.8443   -0.2150    1.6056 B   0  0  0  0  0  0  0  0  0  0  0  0
    3.4968   -0.9526    0.5541 F   0  0  0  0  0  0  0  0  0  0  0  0
    4.6687    0.8126    1.4529 F   0  0  0  0  0  0  0  0  0  0  0  0
    1.8102    1.3596    1.3277 F   0  0  0  0  0  0  0  0  0  0  0  0
    3.4284   -0.5637    2.8174 F   0  0  0  0  0  0  0  0  0  0  0  0
   -3.0031    0.9829   -0.6571 H   0  0  0  0  0  0  0  0  0  0  0  0
  1  2  1  0  0  0  0
  2  8  1  0  0  0  0
  2  3  2  0  0  0  0
  3 16  1  0  0  0  0
  4  3  1  0  0  0  0
  4  9  1  0  0  0  0
  5  4  2  0  0  0  0
  6  1  2  0  0  0  0
  6  5  1  0  0  0  0
  7  1  1  0  0  0  0
 10  5  1  0  0  0  0
 12 11  3  0  0  0  0
 13 17  1  0  0  0  0
 14 13  1  0  0  0  0
 15 13  1  0  0  0  0
 18  6  1  0  0  0  0
M  END
