Coordinates from ORCA-job Ph-N2-BF4-B3LYPG-aug-cc-pVDZ-scan-d09-49-n400
 OpenBabel11081710393D

 18 16  0  0  0  0  0  0  0  0999 V2000
   -1.0214   -0.0548    0.5106 C   0  0  0  0  0  0  0  0  0  0  0  0
    0.3103    0.1492    0.0702 C   0  0  0  0  0  0  0  0  0  0  0  0
    0.4247    1.4078   -0.3888 C   0  0  0  0  0  0  0  0  0  0  0  0
   -0.3539    2.5088   -0.5340 C   0  0  0  0  0  0  0  0  0  0  0  0
   -1.6596    2.2245   -0.0746 C   0  0  0  0  0  0  0  0  0  0  0  0
   -1.9789    0.9610    0.4354 C   0  0  0  0  0  0  0  0  0  0  0  0
   -1.2586   -1.0308    0.9335 H   0  0  0  0  0  0  0  0  0  0  0  0
    1.1187   -0.5804    0.1550 H   0  0  0  0  0  0  0  0  0  0  0  0
   -0.0457    3.4700   -0.9315 H   0  0  0  0  0  0  0  0  0  0  0  0
   -2.4030    3.0197   -0.1277 H   0  0  0  0  0  0  0  0  0  0  0  0
    2.3183    1.8067   -1.1033 N   0  0  0  0  0  0  0  0  0  0  0  0
    3.2781    2.1118   -1.5492 N   0  0  0  0  0  0  0  0  0  0  0  0
    3.2097   -0.1451    1.3953 B   0  0  0  0  0  0  0  0  0  0  0  0
    3.1300   -0.5542    0.0057 F   0  0  0  0  0  0  0  0  0  0  0  0
    4.4790   -0.3698    1.8970 F   0  0  0  0  0  0  0  0  0  0  0  0
    2.8745    1.2484    1.4274 F   0  0  0  0  0  0  0  0  0  0  0  0
    2.2088   -0.8665    2.0938 F   0  0  0  0  0  0  0  0  0  0  0  0
   -2.9905    0.7696    0.7909 H   0  0  0  0  0  0  0  0  0  0  0  0
  1  7  1  0  0  0  0
  2  8  1  0  0  0  0
  2  1  2  0  0  0  0
  3  2  1  0  0  0  0
  4  3  2  0  0  0  0
  4  5  1  0  0  0  0
  5  6  2  0  0  0  0
  6  1  1  0  0  0  0
  6 18  1  0  0  0  0
  9  4  1  0  0  0  0
 10  5  1  0  0  0  0
 12 11  3  0  0  0  0
 13 16  1  0  0  0  0
 13 15  1  0  0  0  0
 13 17  1  0  0  0  0
 14 13  1  0  0  0  0
M  RAD  1   3   2
M  END
