Coordinates from ORCA-job Ph-N2-BF4-B3LYPG-aug-cc-pVDZ-scan-d09-49-n400
 OpenBabel11081710393D

 18 16  0  0  0  0  0  0  0  0999 V2000
   -1.3236   -0.0991    0.0529 C   0  0  0  0  0  0  0  0  0  0  0  0
   -0.0147    0.0008    0.5372 C   0  0  0  0  0  0  0  0  0  0  0  0
    0.4581    1.2626    0.8735 C   0  0  0  0  0  0  0  0  0  0  0  0
   -0.2982    2.4196    0.7456 C   0  0  0  0  0  0  0  0  0  0  0  0
   -1.6046    2.2980    0.2593 C   0  0  0  0  0  0  0  0  0  0  0  0
   -2.1187    1.0436   -0.0855 C   0  0  0  0  0  0  0  0  0  0  0  0
   -1.7205   -1.0779   -0.2174 H   0  0  0  0  0  0  0  0  0  0  0  0
    0.6271   -0.8712    0.6486 H   0  0  0  0  0  0  0  0  0  0  0  0
    0.1295    3.3829    1.0186 H   0  0  0  0  0  0  0  0  0  0  0  0
   -2.2205    3.1910    0.1502 H   0  0  0  0  0  0  0  0  0  0  0  0
    2.9749    1.5425   -2.6247 N   0  0  0  0  0  0  0  0  0  0  0  0
    2.9388    1.5019   -3.7277 N   0  0  0  0  0  0  0  0  0  0  0  0
    3.7874   -0.1992    1.6208 B   0  0  0  0  0  0  0  0  0  0  0  0
    3.5024   -0.8921    0.5215 F   0  0  0  0  0  0  0  0  0  0  0  0
    4.6020    0.8450    1.5544 F   0  0  0  0  0  0  0  0  0  0  0  0
    1.7407    1.3784    1.3481 F   0  0  0  0  0  0  0  0  0  0  0  0
    3.3174   -0.6076    2.7939 F   0  0  0  0  0  0  0  0  0  0  0  0
   -3.1371    0.9568   -0.4634 H   0  0  0  0  0  0  0  0  0  0  0  0
  1  2  1  0  0  0  0
  2  8  1  0  0  0  0
  2  3  2  0  0  0  0
  3 16  1  0  0  0  0
  4  3  1  0  0  0  0
  4  9  1  0  0  0  0
  5  4  2  0  0  0  0
  6  1  2  0  0  0  0
  6  5  1  0  0  0  0
  7  1  1  0  0  0  0
 10  5  1  0  0  0  0
 12 11  3  0  0  0  0
 13 17  1  0  0  0  0
 14 13  1  0  0  0  0
 15 13  1  0  0  0  0
 18  6  1  0  0  0  0
M  END
