Coordinates from ORCA-job Ph-N2-BF4-B3LYPG-aug-cc-pVDZ-scan-d09-49-n400
 OpenBabel11081710393D

 18 16  0  0  0  0  0  0  0  0999 V2000
   -1.1817   -0.0824   -0.1288 C   0  0  0  0  0  0  0  0  0  0  0  0
    0.1060   -0.0017    0.4111 C   0  0  0  0  0  0  0  0  0  0  0  0
    0.6123    1.2572    0.7078 C   0  0  0  0  0  0  0  0  0  0  0  0
   -0.1211    2.4254    0.5417 C   0  0  0  0  0  0  0  0  0  0  0  0
   -1.4068    2.3251    0.0012 C   0  0  0  0  0  0  0  0  0  0  0  0
   -1.9373    1.0760   -0.3400 C   0  0  0  0  0  0  0  0  0  0  0  0
   -1.5957   -1.0589   -0.3806 H   0  0  0  0  0  0  0  0  0  0  0  0
    0.7120   -0.8892    0.5831 H   0  0  0  0  0  0  0  0  0  0  0  0
    0.3135    3.3848    0.8170 H   0  0  0  0  0  0  0  0  0  0  0  0
   -1.9966    3.2296   -0.1490 H   0  0  0  0  0  0  0  0  0  0  0  0
    1.9152    1.5083   -1.4275 N   0  0  0  0  0  0  0  0  0  0  0  0
    1.6610    1.4733   -2.5026 N   0  0  0  0  0  0  0  0  0  0  0  0
    3.8970   -0.2173    1.5873 B   0  0  0  0  0  0  0  0  0  0  0  0
    3.5134   -0.9929    0.5765 F   0  0  0  0  0  0  0  0  0  0  0  0
    4.7212    0.7985    1.3690 F   0  0  0  0  0  0  0  0  0  0  0  0
    1.8518    1.3492    1.2775 F   0  0  0  0  0  0  0  0  0  0  0  0
    3.5159   -0.5143    2.8236 F   0  0  0  0  0  0  0  0  0  0  0  0
   -2.9398    1.0051   -0.7612 H   0  0  0  0  0  0  0  0  0  0  0  0
  1  2  1  0  0  0  0
  2  8  1  0  0  0  0
  2  3  2  0  0  0  0
  3 16  1  0  0  0  0
  4  3  1  0  0  0  0
  4  9  1  0  0  0  0
  5  4  2  0  0  0  0
  6  1  2  0  0  0  0
  6  5  1  0  0  0  0
  7  1  1  0  0  0  0
 10  5  1  0  0  0  0
 12 11  3  0  0  0  0
 13 17  1  0  0  0  0
 14 13  1  0  0  0  0
 15 13  1  0  0  0  0
 18  6  1  0  0  0  0
M  END
