Coordinates from ORCA-job Ph-N2-BF4-B3LYPG-aug-cc-pVDZ-scan-d09-49-n400
 OpenBabel11081710393D

 18 16  0  0  0  0  0  0  0  0999 V2000
   -1.0196   -0.0587    0.5088 C   0  0  0  0  0  0  0  0  0  0  0  0
    0.3144    0.1515    0.0676 C   0  0  0  0  0  0  0  0  0  0  0  0
    0.4048    1.4106   -0.3796 C   0  0  0  0  0  0  0  0  0  0  0  0
   -0.3623    2.5150   -0.5228 C   0  0  0  0  0  0  0  0  0  0  0  0
   -1.6679    2.2211   -0.0616 C   0  0  0  0  0  0  0  0  0  0  0  0
   -1.9814    0.9533    0.4410 C   0  0  0  0  0  0  0  0  0  0  0  0
   -1.2482   -1.0383    0.9288 H   0  0  0  0  0  0  0  0  0  0  0  0
    1.1273   -0.5750    0.1535 H   0  0  0  0  0  0  0  0  0  0  0  0
   -0.0557    3.4777   -0.9175 H   0  0  0  0  0  0  0  0  0  0  0  0
   -2.4130    3.0152   -0.1107 H   0  0  0  0  0  0  0  0  0  0  0  0
    2.3713    1.8264   -1.1515 N   0  0  0  0  0  0  0  0  0  0  0  0
    3.3380    2.1141   -1.5946 N   0  0  0  0  0  0  0  0  0  0  0  0
    3.1946   -0.1449    1.4004 B   0  0  0  0  0  0  0  0  0  0  0  0
    3.1193   -0.5722    0.0167 F   0  0  0  0  0  0  0  0  0  0  0  0
    4.4580   -0.3759    1.9142 F   0  0  0  0  0  0  0  0  0  0  0  0
    2.8708    1.2507    1.4155 F   0  0  0  0  0  0  0  0  0  0  0  0
    2.1817   -0.8499    2.1008 F   0  0  0  0  0  0  0  0  0  0  0  0
   -2.9915    0.7553    0.7970 H   0  0  0  0  0  0  0  0  0  0  0  0
  1  7  1  0  0  0  0
  2  8  1  0  0  0  0
  2  1  2  0  0  0  0
  3  2  1  0  0  0  0
  4  3  2  0  0  0  0
  4  5  1  0  0  0  0
  5  6  2  0  0  0  0
  6  1  1  0  0  0  0
  6 18  1  0  0  0  0
  9  4  1  0  0  0  0
 10  5  1  0  0  0  0
 12 11  3  0  0  0  0
 13 16  1  0  0  0  0
 13 15  1  0  0  0  0
 13 17  1  0  0  0  0
 14 13  1  0  0  0  0
M  RAD  1   3   2
M  END
