Coordinates from ORCA-job Ph-N2-BF4-B3LYPG-aug-cc-pVDZ-scan-d09-49-n400
 OpenBabel11081710393D

 18 17  0  0  0  0  0  0  0  0999 V2000
   -0.6842   -0.2289    0.2003 C   0  0  0  0  0  0  0  0  0  0  0  0
    0.4001   -0.0619   -0.6256 C   0  0  0  0  0  0  0  0  0  0  0  0
    0.8757    1.2864   -1.0004 C   0  0  0  0  0  0  0  0  0  0  0  0
    0.1079    2.4092   -0.4219 C   0  0  0  0  0  0  0  0  0  0  0  0
   -0.9743    2.1921    0.3860 C   0  0  0  0  0  0  0  0  0  0  0  0
   -1.3684    0.8806    0.7104 C   0  0  0  0  0  0  0  0  0  0  0  0
   -0.9783   -1.2369    0.4861 H   0  0  0  0  0  0  0  0  0  0  0  0
    0.9839   -0.8898   -1.0186 H   0  0  0  0  0  0  0  0  0  0  0  0
    0.4791    3.4039   -0.6659 H   0  0  0  0  0  0  0  0  0  0  0  0
   -1.5077    3.0449    0.8034 H   0  0  0  0  0  0  0  0  0  0  0  0
    1.6265    1.4180   -1.5333 N   0  0  0  0  0  0  0  0  0  0  0  0
    2.5572    1.5862   -2.1952 N   0  0  0  0  0  0  0  0  0  0  0  0
    2.4870    0.3021    1.7336 B   0  0  0  0  0  0  0  0  0  0  0  0
    2.7848   -0.3071    0.4578 F   0  0  0  0  0  0  0  0  0  0  0  0
    3.6066    0.3050    2.5473 F   0  0  0  0  0  0  0  0  0  0  0  0
    2.0564    1.6457    1.4484 F   0  0  0  0  0  0  0  0  0  0  0  0
    1.4007   -0.4005    2.3112 F   0  0  0  0  0  0  0  0  0  0  0  0
   -2.2126    0.7270    1.3824 H   0  0  0  0  0  0  0  0  0  0  0  0
  1  7  1  0  0  0  0
  1  6  2  0  0  0  0
  2  1  1  0  0  0  0
  3  2  2  0  0  0  0
  3  4  1  0  0  0  0
  4  5  2  0  0  0  0
  5  6  1  0  0  0  0
  5 10  1  0  0  0  0
  6 18  1  0  0  0  0
  8  2  1  0  0  0  0
  9  4  1  0  0  0  0
 11  3  1  0  0  0  0
 12 11  1  0  0  0  0
 13 17  1  0  0  0  0
 13 15  1  0  0  0  0
 14 13  1  0  0  0  0
 16 13  1  0  0  0  0
M  RAD  2  11   2  12   3
M  END
