Coordinates from ORCA-job Ph-N2-BF4-B3LYPG-aug-cc-pVDZ-scan-d09-49-n400
 OpenBabel11081710393D

 18 16  0  0  0  0  0  0  0  0999 V2000
   -1.2002   -0.0883   -0.0983 C   0  0  0  0  0  0  0  0  0  0  0  0
    0.0879   -0.0065    0.4416 C   0  0  0  0  0  0  0  0  0  0  0  0
    0.5827    1.2523    0.7588 C   0  0  0  0  0  0  0  0  0  0  0  0
   -0.1448    2.4222    0.5772 C   0  0  0  0  0  0  0  0  0  0  0  0
   -1.4307    2.3195    0.0363 C   0  0  0  0  0  0  0  0  0  0  0  0
   -1.9593    1.0691   -0.3028 C   0  0  0  0  0  0  0  0  0  0  0  0
   -1.6100   -1.0644   -0.3586 H   0  0  0  0  0  0  0  0  0  0  0  0
    0.7004   -0.8913    0.6056 H   0  0  0  0  0  0  0  0  0  0  0  0
    0.2919    3.3819    0.8485 H   0  0  0  0  0  0  0  0  0  0  0  0
   -2.0204    3.2233   -0.1188 H   0  0  0  0  0  0  0  0  0  0  0  0
    2.0683    1.5325   -1.6393 N   0  0  0  0  0  0  0  0  0  0  0  0
    1.8376    1.5099   -2.7192 N   0  0  0  0  0  0  0  0  0  0  0  0
    3.8757   -0.2181    1.5974 B   0  0  0  0  0  0  0  0  0  0  0  0
    3.4999   -0.9928    0.5828 F   0  0  0  0  0  0  0  0  0  0  0  0
    4.6978    0.8008    1.3857 F   0  0  0  0  0  0  0  0  0  0  0  0
    1.8355    1.3493    1.3017 F   0  0  0  0  0  0  0  0  0  0  0  0
    3.4902   -0.5200    2.8312 F   0  0  0  0  0  0  0  0  0  0  0  0
   -2.9618    0.9966   -0.7238 H   0  0  0  0  0  0  0  0  0  0  0  0
  1  2  1  0  0  0  0
  2  8  1  0  0  0  0
  2  3  2  0  0  0  0
  3 16  1  0  0  0  0
  4  3  1  0  0  0  0
  4  9  1  0  0  0  0
  5  4  2  0  0  0  0
  6  1  2  0  0  0  0
  6  5  1  0  0  0  0
  7  1  1  0  0  0  0
 10  5  1  0  0  0  0
 12 11  3  0  0  0  0
 13 17  1  0  0  0  0
 14 13  1  0  0  0  0
 15 13  1  0  0  0  0
 18  6  1  0  0  0  0
M  END
