Coordinates from ORCA-job Ph-N2-BF4-B3LYPG-aug-cc-pVDZ-scan-d09-49-n400
 OpenBabel11081710393D

 18 16  0  0  0  0  0  0  0  0999 V2000
   -1.0215   -0.0556    0.5104 C   0  0  0  0  0  0  0  0  0  0  0  0
    0.3108    0.1498    0.0700 C   0  0  0  0  0  0  0  0  0  0  0  0
    0.4201    1.4083   -0.3868 C   0  0  0  0  0  0  0  0  0  0  0  0
   -0.3560    2.5100   -0.5319 C   0  0  0  0  0  0  0  0  0  0  0  0
   -1.6618    2.2237   -0.0722 C   0  0  0  0  0  0  0  0  0  0  0  0
   -1.9799    0.9595    0.4364 C   0  0  0  0  0  0  0  0  0  0  0  0
   -1.2570   -1.0322    0.9328 H   0  0  0  0  0  0  0  0  0  0  0  0
    1.1200   -0.5793    0.1552 H   0  0  0  0  0  0  0  0  0  0  0  0
   -0.0480    3.4714   -0.9289 H   0  0  0  0  0  0  0  0  0  0  0  0
   -2.4055    3.0187   -0.1247 H   0  0  0  0  0  0  0  0  0  0  0  0
    2.3303    1.8113   -1.1131 N   0  0  0  0  0  0  0  0  0  0  0  0
    3.2913    2.1135   -1.5585 N   0  0  0  0  0  0  0  0  0  0  0  0
    3.2072   -0.1455    1.3963 B   0  0  0  0  0  0  0  0  0  0  0  0
    3.1276   -0.5584    0.0080 F   0  0  0  0  0  0  0  0  0  0  0  0
    4.4754   -0.3716    1.9002 F   0  0  0  0  0  0  0  0  0  0  0  0
    2.8751    1.2487    1.4251 F   0  0  0  0  0  0  0  0  0  0  0  0
    2.2038   -0.8631    2.0955 F   0  0  0  0  0  0  0  0  0  0  0  0
   -2.9912    0.7667    0.7920 H   0  0  0  0  0  0  0  0  0  0  0  0
  1  7  1  0  0  0  0
  2  8  1  0  0  0  0
  2  1  2  0  0  0  0
  3  2  1  0  0  0  0
  4  3  2  0  0  0  0
  4  5  1  0  0  0  0
  5  6  2  0  0  0  0
  6  1  1  0  0  0  0
  6 18  1  0  0  0  0
  9  4  1  0  0  0  0
 10  5  1  0  0  0  0
 12 11  3  0  0  0  0
 13 16  1  0  0  0  0
 13 15  1  0  0  0  0
 13 17  1  0  0  0  0
 14 13  1  0  0  0  0
M  RAD  1   3   2
M  END
