Coordinates from ORCA-job Ph-N2-BF4-B3LYPG-aug-cc-pVDZ-scan-d09-49-n400
 OpenBabel11081710393D

 18 17  0  0  0  0  0  0  0  0999 V2000
   -0.7087   -0.2320    0.1931 C   0  0  0  0  0  0  0  0  0  0  0  0
    0.3828   -0.0625   -0.6283 C   0  0  0  0  0  0  0  0  0  0  0  0
    0.8443    1.2767   -0.9741 C   0  0  0  0  0  0  0  0  0  0  0  0
    0.0997    2.4022   -0.4193 C   0  0  0  0  0  0  0  0  0  0  0  0
   -0.9911    2.1893    0.3849 C   0  0  0  0  0  0  0  0  0  0  0  0
   -1.3906    0.8790    0.7032 C   0  0  0  0  0  0  0  0  0  0  0  0
   -1.0085   -1.2393    0.4740 H   0  0  0  0  0  0  0  0  0  0  0  0
    0.9623   -0.8969   -1.0136 H   0  0  0  0  0  0  0  0  0  0  0  0
    0.4696    3.3994   -0.6531 H   0  0  0  0  0  0  0  0  0  0  0  0
   -1.5240    3.0427    0.8011 H   0  0  0  0  0  0  0  0  0  0  0  0
    1.6693    1.4193   -1.5396 N   0  0  0  0  0  0  0  0  0  0  0  0
    2.6027    1.5898   -2.1753 N   0  0  0  0  0  0  0  0  0  0  0  0
    2.5129    0.3097    1.7298 B   0  0  0  0  0  0  0  0  0  0  0  0
    2.7947   -0.3103    0.4547 F   0  0  0  0  0  0  0  0  0  0  0  0
    3.6402    0.2998    2.5346 F   0  0  0  0  0  0  0  0  0  0  0  0
    2.1005    1.6582    1.4439 F   0  0  0  0  0  0  0  0  0  0  0  0
    1.4223   -0.3757    2.3183 F   0  0  0  0  0  0  0  0  0  0  0  0
   -2.2380    0.7264    1.3715 H   0  0  0  0  0  0  0  0  0  0  0  0
  1  7  1  0  0  0  0
  1  6  2  0  0  0  0
  2  1  1  0  0  0  0
  3  2  2  0  0  0  0
  3  4  1  0  0  0  0
  4  5  2  0  0  0  0
  5  6  1  0  0  0  0
  5 10  1  0  0  0  0
  6 18  1  0  0  0  0
  8  2  1  0  0  0  0
  9  4  1  0  0  0  0
 11  3  1  0  0  0  0
 12 11  1  0  0  0  0
 13 17  1  0  0  0  0
 13 15  1  0  0  0  0
 14 13  1  0  0  0  0
 16 13  1  0  0  0  0
M  RAD  2  11   2  12   3
M  END
