Coordinates from ORCA-job Ph-N2-BF4-B3LYPG-aug-cc-pVDZ-scan-d09-49-n400
 OpenBabel11081710393D

 18 16  0  0  0  0  0  0  0  0999 V2000
   -1.2390   -0.0938   -0.0385 C   0  0  0  0  0  0  0  0  0  0  0  0
    0.0542   -0.0042    0.4883 C   0  0  0  0  0  0  0  0  0  0  0  0
    0.5374    1.2566    0.8145 C   0  0  0  0  0  0  0  0  0  0  0  0
   -0.1974    2.4222    0.6392 C   0  0  0  0  0  0  0  0  0  0  0  0
   -1.4883    2.3111    0.1110 C   0  0  0  0  0  0  0  0  0  0  0  0
   -2.0103    1.0580   -0.2272 C   0  0  0  0  0  0  0  0  0  0  0  0
   -1.6424   -1.0717   -0.3019 H   0  0  0  0  0  0  0  0  0  0  0  0
    0.6764   -0.8842    0.6400 H   0  0  0  0  0  0  0  0  0  0  0  0
    0.2343    3.3843    0.9098 H   0  0  0  0  0  0  0  0  0  0  0  0
   -2.0862    3.2109   -0.0355 H   0  0  0  0  0  0  0  0  0  0  0  0
    2.3953    1.5492   -2.0134 N   0  0  0  0  0  0  0  0  0  0  0  0
    2.2085    1.5110   -3.1012 N   0  0  0  0  0  0  0  0  0  0  0  0
    3.8379   -0.2142    1.6047 B   0  0  0  0  0  0  0  0  0  0  0  0
    3.4959   -0.9463    0.5477 F   0  0  0  0  0  0  0  0  0  0  0  0
    4.6631    0.8141    1.4616 F   0  0  0  0  0  0  0  0  0  0  0  0
    1.8022    1.3628    1.3326 F   0  0  0  0  0  0  0  0  0  0  0  0
    3.4154   -0.5689    2.8125 F   0  0  0  0  0  0  0  0  0  0  0  0
   -3.0165    0.9792   -0.6381 H   0  0  0  0  0  0  0  0  0  0  0  0
  1  2  1  0  0  0  0
  2  8  1  0  0  0  0
  2  3  2  0  0  0  0
  3 16  1  0  0  0  0
  4  3  1  0  0  0  0
  4  9  1  0  0  0  0
  5  4  2  0  0  0  0
  6  1  2  0  0  0  0
  6  5  1  0  0  0  0
  7  1  1  0  0  0  0
 10  5  1  0  0  0  0
 12 11  3  0  0  0  0
 13 17  1  0  0  0  0
 14 13  1  0  0  0  0
 15 13  1  0  0  0  0
 18  6  1  0  0  0  0
M  END
