Coordinates from ORCA-job Ph-N2-BF4-B3LYPG-aug-cc-pVDZ-scan-d09-49-n400
 OpenBabel11081710393D

 18 17  0  0  0  0  0  0  0  0999 V2000
   -0.9549   -0.2559    0.1513 C   0  0  0  0  0  0  0  0  0  0  0  0
    0.2647   -0.1021   -0.4925 C   0  0  0  0  0  0  0  0  0  0  0  0
    0.7305    1.2128   -0.7172 C   0  0  0  0  0  0  0  0  0  0  0  0
    0.0227    2.3584   -0.2797 C   0  0  0  0  0  0  0  0  0  0  0  0
   -1.1851    2.1662    0.3680 C   0  0  0  0  0  0  0  0  0  0  0  0
   -1.6723    0.8659    0.5790 C   0  0  0  0  0  0  0  0  0  0  0  0
   -1.3277   -1.2581    0.3538 H   0  0  0  0  0  0  0  0  0  0  0  0
    0.8841   -0.9472   -0.7794 H   0  0  0  0  0  0  0  0  0  0  0  0
    0.4445    3.3488   -0.4357 H   0  0  0  0  0  0  0  0  0  0  0  0
   -1.7455    3.0277    0.7270 H   0  0  0  0  0  0  0  0  0  0  0  0
    1.8713    1.3829   -1.3192 N   0  0  0  0  0  0  0  0  0  0  0  0
    2.8318    1.5444   -1.8603 N   0  0  0  0  0  0  0  0  0  0  0  0
    2.8369    0.3929    1.5563 B   0  0  0  0  0  0  0  0  0  0  0  0
    3.0643   -0.3477    0.3373 F   0  0  0  0  0  0  0  0  0  0  0  0
    3.8674    0.1879    2.4575 F   0  0  0  0  0  0  0  0  0  0  0  0
    2.7461    1.7785    1.1792 F   0  0  0  0  0  0  0  0  0  0  0  0
    1.5798   -0.0087    2.0773 F   0  0  0  0  0  0  0  0  0  0  0  0
   -2.6182    0.7292    1.1031 H   0  0  0  0  0  0  0  0  0  0  0  0
  1  7  1  0  0  0  0
  1  6  2  0  0  0  0
  2  1  1  0  0  0  0
  3  2  2  0  0  0  0
  3  4  1  0  0  0  0
  4  5  2  0  0  0  0
  5  6  1  0  0  0  0
  5 10  1  0  0  0  0
  6 18  1  0  0  0  0
  8  2  1  0  0  0  0
  9  4  1  0  0  0  0
 11  3  1  0  0  0  0
 12 11  1  0  0  0  0
 13 17  1  0  0  0  0
 13 15  1  0  0  0  0
 14 13  1  0  0  0  0
 16 13  1  0  0  0  0
M  RAD  2  11   2  12   3
M  END
