Coordinates from ORCA-job Ph-N2-BF4-B3LYPG-aug-cc-pVDZ-scan-d09-49-n400
 OpenBabel11081710393D

 18 16  0  0  0  0  0  0  0  0999 V2000
   -1.2512   -0.0951   -0.0232 C   0  0  0  0  0  0  0  0  0  0  0  0
    0.0439   -0.0034    0.4986 C   0  0  0  0  0  0  0  0  0  0  0  0
    0.5251    1.2579    0.8256 C   0  0  0  0  0  0  0  0  0  0  0  0
   -0.2130    2.4222    0.6553 C   0  0  0  0  0  0  0  0  0  0  0  0
   -1.5057    2.3090    0.1321 C   0  0  0  0  0  0  0  0  0  0  0  0
   -2.0260    1.0552   -0.2063 C   0  0  0  0  0  0  0  0  0  0  0  0
   -1.6532   -1.0734   -0.2871 H   0  0  0  0  0  0  0  0  0  0  0  0
    0.6690   -0.8821    0.6457 H   0  0  0  0  0  0  0  0  0  0  0  0
    0.2176    3.3849    0.9258 H   0  0  0  0  0  0  0  0  0  0  0  0
   -2.1063    3.2076   -0.0103 H   0  0  0  0  0  0  0  0  0  0  0  0
    2.4853    1.5494   -2.1036 N   0  0  0  0  0  0  0  0  0  0  0  0
    2.3210    1.5103   -3.1950 N   0  0  0  0  0  0  0  0  0  0  0  0
    3.8288   -0.2123    1.6040 B   0  0  0  0  0  0  0  0  0  0  0  0
    3.4927   -0.9366    0.5398 F   0  0  0  0  0  0  0  0  0  0  0  0
    4.6540    0.8177    1.4729 F   0  0  0  0  0  0  0  0  0  0  0  0
    1.7923    1.3663    1.3379 F   0  0  0  0  0  0  0  0  0  0  0  0
    3.4000   -0.5762    2.8068 F   0  0  0  0  0  0  0  0  0  0  0  0
   -3.0338    0.9747   -0.6132 H   0  0  0  0  0  0  0  0  0  0  0  0
  1  2  1  0  0  0  0
  2  8  1  0  0  0  0
  2  3  2  0  0  0  0
  3 16  1  0  0  0  0
  4  3  1  0  0  0  0
  4  9  1  0  0  0  0
  5  4  2  0  0  0  0
  6  1  2  0  0  0  0
  6  5  1  0  0  0  0
  7  1  1  0  0  0  0
 10  5  1  0  0  0  0
 12 11  3  0  0  0  0
 13 17  1  0  0  0  0
 14 13  1  0  0  0  0
 15 13  1  0  0  0  0
 18  6  1  0  0  0  0
M  END
