Coordinates from ORCA-job Ph-N2-BF4-B3LYPG-aug-cc-pVDZ-scan-d09-49-n400
 OpenBabel11081710393D

 18 16  0  0  0  0  0  0  0  0999 V2000
   -1.1857   -0.0839   -0.1209 C   0  0  0  0  0  0  0  0  0  0  0  0
    0.1014   -0.0029    0.4209 C   0  0  0  0  0  0  0  0  0  0  0  0
    0.6032    1.2557    0.7257 C   0  0  0  0  0  0  0  0  0  0  0  0
   -0.1272    2.4244    0.5524 C   0  0  0  0  0  0  0  0  0  0  0  0
   -1.4123    2.3235    0.0099 C   0  0  0  0  0  0  0  0  0  0  0  0
   -1.9420    1.0741   -0.3312 C   0  0  0  0  0  0  0  0  0  0  0  0
   -1.5978   -1.0603   -0.3761 H   0  0  0  0  0  0  0  0  0  0  0  0
    0.7086   -0.8899    0.5914 H   0  0  0  0  0  0  0  0  0  0  0  0
    0.3072    3.3841    0.8270 H   0  0  0  0  0  0  0  0  0  0  0  0
   -2.0015    3.2279   -0.1430 H   0  0  0  0  0  0  0  0  0  0  0  0
    1.9549    1.5143   -1.4852 N   0  0  0  0  0  0  0  0  0  0  0  0
    1.7046    1.4849   -2.5610 N   0  0  0  0  0  0  0  0  0  0  0  0
    3.8910   -0.2177    1.5892 B   0  0  0  0  0  0  0  0  0  0  0  0
    3.5083   -0.9945    0.5789 F   0  0  0  0  0  0  0  0  0  0  0  0
    4.7143    0.7987    1.3703 F   0  0  0  0  0  0  0  0  0  0  0  0
    1.8473    1.3494    1.2859 F   0  0  0  0  0  0  0  0  0  0  0  0
    3.5101   -0.5145    2.8257 F   0  0  0  0  0  0  0  0  0  0  0  0
   -2.9438    1.0028   -0.7539 H   0  0  0  0  0  0  0  0  0  0  0  0
  1  2  1  0  0  0  0
  2  8  1  0  0  0  0
  2  3  2  0  0  0  0
  3 16  1  0  0  0  0
  4  3  1  0  0  0  0
  4  9  1  0  0  0  0
  5  4  2  0  0  0  0
  6  1  2  0  0  0  0
  6  5  1  0  0  0  0
  7  1  1  0  0  0  0
 10  5  1  0  0  0  0
 12 11  3  0  0  0  0
 13 17  1  0  0  0  0
 14 13  1  0  0  0  0
 15 13  1  0  0  0  0
 18  6  1  0  0  0  0
M  END
