Coordinates from ORCA-job Ph-N2-BF4-B3LYPG-aug-cc-pVDZ-scan-d09-49-n400
 OpenBabel11081710393D

 18 16  0  0  0  0  0  0  0  0999 V2000
   -1.2152   -0.0908   -0.0732 C   0  0  0  0  0  0  0  0  0  0  0  0
    0.0747   -0.0059    0.4622 C   0  0  0  0  0  0  0  0  0  0  0  0
    0.5637    1.2534    0.7849 C   0  0  0  0  0  0  0  0  0  0  0  0
   -0.1653    2.4217    0.6034 C   0  0  0  0  0  0  0  0  0  0  0  0
   -1.4530    2.3158    0.0669 C   0  0  0  0  0  0  0  0  0  0  0  0
   -1.9791    1.0643   -0.2716 C   0  0  0  0  0  0  0  0  0  0  0  0
   -1.6221   -1.0675   -0.3353 H   0  0  0  0  0  0  0  0  0  0  0  0
    0.6910   -0.8888    0.6215 H   0  0  0  0  0  0  0  0  0  0  0  0
    0.2692    3.3825    0.8745 H   0  0  0  0  0  0  0  0  0  0  0  0
   -2.0456    3.2181   -0.0856 H   0  0  0  0  0  0  0  0  0  0  0  0
    2.2019    1.5424   -1.8018 N   0  0  0  0  0  0  0  0  0  0  0  0
    1.9849    1.5115   -2.8843 N   0  0  0  0  0  0  0  0  0  0  0  0
    3.8587   -0.2165    1.6024 B   0  0  0  0  0  0  0  0  0  0  0  0
    3.4976   -0.9718    0.5681 F   0  0  0  0  0  0  0  0  0  0  0  0
    4.6824    0.8071    1.4218 F   0  0  0  0  0  0  0  0  0  0  0  0
    1.8224    1.3543    1.3163 F   0  0  0  0  0  0  0  0  0  0  0  0
    3.4570   -0.5432    2.8249 F   0  0  0  0  0  0  0  0  0  0  0  0
   -2.9829    0.9894   -0.6891 H   0  0  0  0  0  0  0  0  0  0  0  0
  1  2  1  0  0  0  0
  2  8  1  0  0  0  0
  2  3  2  0  0  0  0
  3 16  1  0  0  0  0
  4  3  1  0  0  0  0
  4  9  1  0  0  0  0
  5  4  2  0  0  0  0
  6  1  2  0  0  0  0
  6  5  1  0  0  0  0
  7  1  1  0  0  0  0
 10  5  1  0  0  0  0
 12 11  3  0  0  0  0
 13 17  1  0  0  0  0
 14 13  1  0  0  0  0
 15 13  1  0  0  0  0
 18  6  1  0  0  0  0
M  END
