Coordinates from ORCA-job Ph-N2-BF4-B3LYPG-aug-cc-pVDZ-scan-d09-49-n400
 OpenBabel11081710393D

 18 16  0  0  0  0  0  0  0  0999 V2000
   -1.1883   -0.0850   -0.1159 C   0  0  0  0  0  0  0  0  0  0  0  0
    0.0987   -0.0038    0.4264 C   0  0  0  0  0  0  0  0  0  0  0  0
    0.5982    1.2547    0.7346 C   0  0  0  0  0  0  0  0  0  0  0  0
   -0.1304    2.4235    0.5576 C   0  0  0  0  0  0  0  0  0  0  0  0
   -1.4155    2.3224    0.0146 C   0  0  0  0  0  0  0  0  0  0  0  0
   -1.9451    1.0728   -0.3257 C   0  0  0  0  0  0  0  0  0  0  0  0
   -1.5997   -1.0614   -0.3724 H   0  0  0  0  0  0  0  0  0  0  0  0
    0.7064   -0.8906    0.5960 H   0  0  0  0  0  0  0  0  0  0  0  0
    0.3056    3.3829    0.8307 H   0  0  0  0  0  0  0  0  0  0  0  0
   -2.0043    3.2268   -0.1398 H   0  0  0  0  0  0  0  0  0  0  0  0
    1.9773    1.5195   -1.5179 N   0  0  0  0  0  0  0  0  0  0  0  0
    1.7297    1.4930   -2.5943 N   0  0  0  0  0  0  0  0  0  0  0  0
    3.8875   -0.2180    1.5907 B   0  0  0  0  0  0  0  0  0  0  0  0
    3.5058   -0.9947    0.5801 F   0  0  0  0  0  0  0  0  0  0  0  0
    4.7105    0.7989    1.3726 F   0  0  0  0  0  0  0  0  0  0  0  0
    1.8445    1.3494    1.2903 F   0  0  0  0  0  0  0  0  0  0  0  0
    3.5064   -0.5155    2.8270 F   0  0  0  0  0  0  0  0  0  0  0  0
   -2.9468    1.0013   -0.7487 H   0  0  0  0  0  0  0  0  0  0  0  0
  1  2  1  0  0  0  0
  2  8  1  0  0  0  0
  2  3  2  0  0  0  0
  3 16  1  0  0  0  0
  4  3  1  0  0  0  0
  4  9  1  0  0  0  0
  5  4  2  0  0  0  0
  6  1  2  0  0  0  0
  6  5  1  0  0  0  0
  7  1  1  0  0  0  0
 10  5  1  0  0  0  0
 12 11  3  0  0  0  0
 13 17  1  0  0  0  0
 14 13  1  0  0  0  0
 15 13  1  0  0  0  0
 18  6  1  0  0  0  0
M  END
