Coordinates from ORCA-job Ph-N2-BF4-B3LYPG-aug-cc-pVDZ-scan-d09-49-n400
 OpenBabel11081710393D

 18 16  0  0  0  0  0  0  0  0999 V2000
   -1.2696   -0.0963   -0.0035 C   0  0  0  0  0  0  0  0  0  0  0  0
    0.0287   -0.0025    0.5097 C   0  0  0  0  0  0  0  0  0  0  0  0
    0.5085    1.2592    0.8373 C   0  0  0  0  0  0  0  0  0  0  0  0
   -0.2336    2.4221    0.6749 C   0  0  0  0  0  0  0  0  0  0  0  0
   -1.5294    2.3067    0.1601 C   0  0  0  0  0  0  0  0  0  0  0  0
   -2.0487    1.0524   -0.1781 C   0  0  0  0  0  0  0  0  0  0  0  0
   -1.6707   -1.0749   -0.2677 H   0  0  0  0  0  0  0  0  0  0  0  0
    0.6573   -0.8800    0.6500 H   0  0  0  0  0  0  0  0  0  0  0  0
    0.1965    3.3852    0.9447 H   0  0  0  0  0  0  0  0  0  0  0  0
   -2.1333    3.2041    0.0239 H   0  0  0  0  0  0  0  0  0  0  0  0
    2.6024    1.5492   -2.2201 N   0  0  0  0  0  0  0  0  0  0  0  0
    2.4678    1.5091   -3.3156 N   0  0  0  0  0  0  0  0  0  0  0  0
    3.8210   -0.2100    1.6051 B   0  0  0  0  0  0  0  0  0  0  0  0
    3.4996   -0.9265    0.5313 F   0  0  0  0  0  0  0  0  0  0  0  0
    4.6425    0.8249    1.4917 F   0  0  0  0  0  0  0  0  0  0  0  0
    1.7795    1.3694    1.3405 F   0  0  0  0  0  0  0  0  0  0  0  0
    3.3810   -0.5865    2.8001 F   0  0  0  0  0  0  0  0  0  0  0  0
   -3.0590    0.9704   -0.5785 H   0  0  0  0  0  0  0  0  0  0  0  0
  1  2  1  0  0  0  0
  2  8  1  0  0  0  0
  2  3  2  0  0  0  0
  3 16  1  0  0  0  0
  4  3  1  0  0  0  0
  4  9  1  0  0  0  0
  5  4  2  0  0  0  0
  6  1  2  0  0  0  0
  6  5  1  0  0  0  0
  7  1  1  0  0  0  0
 10  5  1  0  0  0  0
 12 11  3  0  0  0  0
 13 17  1  0  0  0  0
 14 13  1  0  0  0  0
 15 13  1  0  0  0  0
 18  6  1  0  0  0  0
M  END
