Coordinates from ORCA-job Ph-N2-BF4-B3LYPG-aug-cc-pVDZ-scan-d09-49-n400
 OpenBabel11081710393D

 18 17  0  0  0  0  0  0  0  0999 V2000
   -1.0567   -0.2524    0.1655 C   0  0  0  0  0  0  0  0  0  0  0  0
    0.2177   -0.1138   -0.4013 C   0  0  0  0  0  0  0  0  0  0  0  0
    0.5942    1.1955   -0.5695 C   0  0  0  0  0  0  0  0  0  0  0  0
   -0.0491    2.3671   -0.2427 C   0  0  0  0  0  0  0  0  0  0  0  0
   -1.3135    2.1686    0.3246 C   0  0  0  0  0  0  0  0  0  0  0  0
   -1.8081    0.8728    0.5197 C   0  0  0  0  0  0  0  0  0  0  0  0
   -1.4381   -1.2549    0.3528 H   0  0  0  0  0  0  0  0  0  0  0  0
    0.8739   -0.9493   -0.6227 H   0  0  0  0  0  0  0  0  0  0  0  0
    0.3916    3.3495   -0.3830 H   0  0  0  0  0  0  0  0  0  0  0  0
   -1.8980    3.0372    0.6247 H   0  0  0  0  0  0  0  0  0  0  0  0
    2.1240    1.4223   -1.2802 N   0  0  0  0  0  0  0  0  0  0  0  0
    3.0514    1.6206   -1.8412 N   0  0  0  0  0  0  0  0  0  0  0  0
    2.9642    0.3652    1.5151 B   0  0  0  0  0  0  0  0  0  0  0  0
    3.0580   -0.3954    0.2846 F   0  0  0  0  0  0  0  0  0  0  0  0
    4.0706    0.1333    2.3136 F   0  0  0  0  0  0  0  0  0  0  0  0
    2.8953    1.7512    1.1217 F   0  0  0  0  0  0  0  0  0  0  0  0
    1.7518    0.0195    2.1491 F   0  0  0  0  0  0  0  0  0  0  0  0
   -2.7888    0.7390    0.9750 H   0  0  0  0  0  0  0  0  0  0  0  0
  1  7  1  0  0  0  0
  1  6  2  0  0  0  0
  2  1  1  0  0  0  0
  3  2  2  0  0  0  0
  3  4  1  0  0  0  0
  4  5  2  0  0  0  0
  5  6  1  0  0  0  0
  5 10  1  0  0  0  0
  6 18  1  0  0  0  0
  8  2  1  0  0  0  0
  9  4  1  0  0  0  0
 11  3  1  0  0  0  0
 12 11  1  0  0  0  0
 13 17  1  0  0  0  0
 13 15  1  0  0  0  0
 14 13  1  0  0  0  0
 16 13  1  0  0  0  0
M  RAD  2  11   2  12   3
M  END
