Coordinates from ORCA-job Ph-N2-BF4-B3LYPG-aug-cc-pVDZ-scan-d09-49-n400
 OpenBabel11081710403D

 18 16  0  0  0  0  0  0  0  0999 V2000
   -1.3500   -0.0964    0.0723 C   0  0  0  0  0  0  0  0  0  0  0  0
   -0.0366    0.0074    0.5433 C   0  0  0  0  0  0  0  0  0  0  0  0
    0.4272    1.2677    0.8977 C   0  0  0  0  0  0  0  0  0  0  0  0
   -0.3406    2.4196    0.7992 C   0  0  0  0  0  0  0  0  0  0  0  0
   -1.6516    2.2938    0.3256 C   0  0  0  0  0  0  0  0  0  0  0  0
   -2.1574    1.0409   -0.0363 C   0  0  0  0  0  0  0  0  0  0  0  0
   -1.7406   -1.0738   -0.2116 H   0  0  0  0  0  0  0  0  0  0  0  0
    0.6155   -0.8597    0.6311 H   0  0  0  0  0  0  0  0  0  0  0  0
    0.0781    3.3827    1.0858 H   0  0  0  0  0  0  0  0  0  0  0  0
   -2.2771    3.1825    0.2395 H   0  0  0  0  0  0  0  0  0  0  0  0
    3.1885    1.5139   -2.8472 N   0  0  0  0  0  0  0  0  0  0  0  0
    3.2076    1.4659   -3.9504 N   0  0  0  0  0  0  0  0  0  0  0  0
    3.7701   -0.1874    1.6242 B   0  0  0  0  0  0  0  0  0  0  0  0
    3.5016   -0.8730    0.5164 F   0  0  0  0  0  0  0  0  0  0  0  0
    4.5817    0.8602    1.5752 F   0  0  0  0  0  0  0  0  0  0  0  0
    1.7160    1.3866    1.3567 F   0  0  0  0  0  0  0  0  0  0  0  0
    3.2873   -0.6057    2.7886 F   0  0  0  0  0  0  0  0  0  0  0  0
   -3.1792    0.9509   -0.4044 H   0  0  0  0  0  0  0  0  0  0  0  0
  1  2  1  0  0  0  0
  2  8  1  0  0  0  0
  2  3  2  0  0  0  0
  3 16  1  0  0  0  0
  4  3  1  0  0  0  0
  4  9  1  0  0  0  0
  5  4  2  0  0  0  0
  6  1  2  0  0  0  0
  6  5  1  0  0  0  0
  7  1  1  0  0  0  0
 10  5  1  0  0  0  0
 12 11  3  0  0  0  0
 13 17  1  0  0  0  0
 14 13  1  0  0  0  0
 15 13  1  0  0  0  0
 18  6  1  0  0  0  0
M  END
