Coordinates from ORCA-job Ph-N2-BF4-B3LYPG-aug-cc-pVDZ-scan-d09-49-n400
 OpenBabel11081710393D

 18 16  0  0  0  0  0  0  0  0999 V2000
   -1.1877   -0.0847   -0.1170 C   0  0  0  0  0  0  0  0  0  0  0  0
    0.0993   -0.0036    0.4252 C   0  0  0  0  0  0  0  0  0  0  0  0
    0.5992    1.2550    0.7328 C   0  0  0  0  0  0  0  0  0  0  0  0
   -0.1298    2.4238    0.5567 C   0  0  0  0  0  0  0  0  0  0  0  0
   -1.4148    2.3227    0.0138 C   0  0  0  0  0  0  0  0  0  0  0  0
   -1.9444    1.0732   -0.3269 C   0  0  0  0  0  0  0  0  0  0  0  0
   -1.5992   -1.0611   -0.3734 H   0  0  0  0  0  0  0  0  0  0  0  0
    0.7069   -0.8904    0.5949 H   0  0  0  0  0  0  0  0  0  0  0  0
    0.3054    3.3833    0.8305 H   0  0  0  0  0  0  0  0  0  0  0  0
   -2.0038    3.2270   -0.1402 H   0  0  0  0  0  0  0  0  0  0  0  0
    1.9729    1.5180   -1.5114 N   0  0  0  0  0  0  0  0  0  0  0  0
    1.7246    1.4908   -2.5877 N   0  0  0  0  0  0  0  0  0  0  0  0
    3.8882   -0.2179    1.5904 B   0  0  0  0  0  0  0  0  0  0  0  0
    3.5062   -0.9947    0.5799 F   0  0  0  0  0  0  0  0  0  0  0  0
    4.7113    0.7988    1.3720 F   0  0  0  0  0  0  0  0  0  0  0  0
    1.8451    1.3495    1.2894 F   0  0  0  0  0  0  0  0  0  0  0  0
    3.5072   -0.5151    2.8268 F   0  0  0  0  0  0  0  0  0  0  0  0
   -2.9461    1.0017   -0.7499 H   0  0  0  0  0  0  0  0  0  0  0  0
  1  2  1  0  0  0  0
  2  8  1  0  0  0  0
  2  3  2  0  0  0  0
  3 16  1  0  0  0  0
  4  3  1  0  0  0  0
  4  9  1  0  0  0  0
  5  4  2  0  0  0  0
  6  1  2  0  0  0  0
  6  5  1  0  0  0  0
  7  1  1  0  0  0  0
 10  5  1  0  0  0  0
 12 11  3  0  0  0  0
 13 17  1  0  0  0  0
 14 13  1  0  0  0  0
 15 13  1  0  0  0  0
 18  6  1  0  0  0  0
M  END
