Coordinates from ORCA-job Ph-N2-BF4-B3LYPG-aug-cc-pVDZ-scan-d09-49-n400
 OpenBabel11081710403D

 18 16  0  0  0  0  0  0  0  0999 V2000
   -1.3522   -0.0959    0.0731 C   0  0  0  0  0  0  0  0  0  0  0  0
   -0.0384    0.0083    0.5429 C   0  0  0  0  0  0  0  0  0  0  0  0
    0.4244    1.2682    0.8997 C   0  0  0  0  0  0  0  0  0  0  0  0
   -0.3447    2.4195    0.8047 C   0  0  0  0  0  0  0  0  0  0  0  0
   -1.6561    2.2934    0.3322 C   0  0  0  0  0  0  0  0  0  0  0  0
   -2.1610    1.0409   -0.0320 C   0  0  0  0  0  0  0  0  0  0  0  0
   -1.7421   -1.0730   -0.2127 H   0  0  0  0  0  0  0  0  0  0  0  0
    0.6147   -0.8583    0.6280 H   0  0  0  0  0  0  0  0  0  0  0  0
    0.0733    3.3825    1.0931 H   0  0  0  0  0  0  0  0  0  0  0  0
   -2.2826    3.1817    0.2489 H   0  0  0  0  0  0  0  0  0  0  0  0
    3.2075    1.5099   -2.8669 N   0  0  0  0  0  0  0  0  0  0  0  0
    3.2311    1.4609   -3.9700 N   0  0  0  0  0  0  0  0  0  0  0  0
    3.7689   -0.1860    1.6248 B   0  0  0  0  0  0  0  0  0  0  0  0
    3.5020   -0.8715    0.5166 F   0  0  0  0  0  0  0  0  0  0  0  0
    4.5800    0.8621    1.5768 F   0  0  0  0  0  0  0  0  0  0  0  0
    1.7136    1.3874    1.3575 F   0  0  0  0  0  0  0  0  0  0  0  0
    3.2851   -0.6047    2.7885 F   0  0  0  0  0  0  0  0  0  0  0  0
   -3.1831    0.9507   -0.3992 H   0  0  0  0  0  0  0  0  0  0  0  0
  1  2  1  0  0  0  0
  2  8  1  0  0  0  0
  2  3  2  0  0  0  0
  3 16  1  0  0  0  0
  4  3  1  0  0  0  0
  4  9  1  0  0  0  0
  5  4  2  0  0  0  0
  6  1  2  0  0  0  0
  6  5  1  0  0  0  0
  7  1  1  0  0  0  0
 10  5  1  0  0  0  0
 12 11  3  0  0  0  0
 13 17  1  0  0  0  0
 14 13  1  0  0  0  0
 15 13  1  0  0  0  0
 18  6  1  0  0  0  0
M  END
