Coordinates from ORCA-job Ph-N2-BF4-B3LYPG-aug-cc-pVDZ-scan-d09-49-n400
 OpenBabel11081710393D

 18 16  0  0  0  0  0  0  0  0999 V2000
   -1.1890   -0.0852   -0.1149 C   0  0  0  0  0  0  0  0  0  0  0  0
    0.0981   -0.0039    0.4272 C   0  0  0  0  0  0  0  0  0  0  0  0
    0.5970    1.2544    0.7363 C   0  0  0  0  0  0  0  0  0  0  0  0
   -0.1312    2.4233    0.5587 C   0  0  0  0  0  0  0  0  0  0  0  0
   -1.4163    2.3222    0.0158 C   0  0  0  0  0  0  0  0  0  0  0  0
   -1.9459    1.0726   -0.3243 C   0  0  0  0  0  0  0  0  0  0  0  0
   -1.6002   -1.0615   -0.3719 H   0  0  0  0  0  0  0  0  0  0  0  0
    0.7068   -0.8902    0.5960 H   0  0  0  0  0  0  0  0  0  0  0  0
    0.3055    3.3826    0.8312 H   0  0  0  0  0  0  0  0  0  0  0  0
   -2.0050    3.2267   -0.1390 H   0  0  0  0  0  0  0  0  0  0  0  0
    1.9818    1.5202   -1.5244 N   0  0  0  0  0  0  0  0  0  0  0  0
    1.7350    1.4940   -2.6009 N   0  0  0  0  0  0  0  0  0  0  0  0
    3.8869   -0.2181    1.5912 B   0  0  0  0  0  0  0  0  0  0  0  0
    3.5054   -0.9947    0.5804 F   0  0  0  0  0  0  0  0  0  0  0  0
    4.7096    0.7990    1.3732 F   0  0  0  0  0  0  0  0  0  0  0  0
    1.8439    1.3492    1.2912 F   0  0  0  0  0  0  0  0  0  0  0  0
    3.5056   -0.5157    2.8274 F   0  0  0  0  0  0  0  0  0  0  0  0
   -2.9476    1.0010   -0.7473 H   0  0  0  0  0  0  0  0  0  0  0  0
  1  2  1  0  0  0  0
  2  8  1  0  0  0  0
  2  3  2  0  0  0  0
  3 16  1  0  0  0  0
  4  3  1  0  0  0  0
  4  9  1  0  0  0  0
  5  4  2  0  0  0  0
  6  1  2  0  0  0  0
  6  5  1  0  0  0  0
  7  1  1  0  0  0  0
 10  5  1  0  0  0  0
 12 11  3  0  0  0  0
 13 17  1  0  0  0  0
 14 13  1  0  0  0  0
 15 13  1  0  0  0  0
 18  6  1  0  0  0  0
M  END
