Coordinates from ORCA-job Ph-N2-BF4-B3LYPG-aug-cc-pVDZ-scan-d09-49-n400
 OpenBabel11081710403D

 18 16  0  0  0  0  0  0  0  0999 V2000
   -1.3560   -0.0932    0.0705 C   0  0  0  0  0  0  0  0  0  0  0  0
   -0.0406    0.0117    0.5363 C   0  0  0  0  0  0  0  0  0  0  0  0
    0.4198    1.2704    0.8999 C   0  0  0  0  0  0  0  0  0  0  0  0
   -0.3553    2.4199    0.8189 C   0  0  0  0  0  0  0  0  0  0  0  0
   -1.6677    2.2929    0.3507 C   0  0  0  0  0  0  0  0  0  0  0  0
   -2.1690    1.0413   -0.0224 C   0  0  0  0  0  0  0  0  0  0  0  0
   -1.7440   -1.0695   -0.2207 H   0  0  0  0  0  0  0  0  0  0  0  0
    0.6150   -0.8538    0.6140 H   0  0  0  0  0  0  0  0  0  0  0  0
    0.0605    3.3814    1.1151 H   0  0  0  0  0  0  0  0  0  0  0  0
   -2.2983    3.1793    0.2783 H   0  0  0  0  0  0  0  0  0  0  0  0
    3.2497    1.4948   -2.9081 N   0  0  0  0  0  0  0  0  0  0  0  0
    3.2836    1.4414   -4.0107 N   0  0  0  0  0  0  0  0  0  0  0  0
    3.7664   -0.1813    1.6267 B   0  0  0  0  0  0  0  0  0  0  0  0
    3.5032   -0.8685    0.5187 F   0  0  0  0  0  0  0  0  0  0  0  0
    4.5765    0.8676    1.5793 F   0  0  0  0  0  0  0  0  0  0  0  0
    1.7093    1.3904    1.3562 F   0  0  0  0  0  0  0  0  0  0  0  0
    3.2798   -0.5988    2.7896 F   0  0  0  0  0  0  0  0  0  0  0  0
   -3.1923    0.9500   -0.3863 H   0  0  0  0  0  0  0  0  0  0  0  0
  1  2  1  0  0  0  0
  2  8  1  0  0  0  0
  2  3  2  0  0  0  0
  3 16  1  0  0  0  0
  4  3  1  0  0  0  0
  4  9  1  0  0  0  0
  5  4  2  0  0  0  0
  6  1  2  0  0  0  0
  6  5  1  0  0  0  0
  7  1  1  0  0  0  0
 10  5  1  0  0  0  0
 12 11  3  0  0  0  0
 13 17  1  0  0  0  0
 14 13  1  0  0  0  0
 15 13  1  0  0  0  0
 18  6  1  0  0  0  0
M  END
