Coordinates from ORCA-job Ph-N2-BF4-B3LYPG-aug-cc-pVDZ-scan-d09-49-n400
 OpenBabel11081710393D

 18 16  0  0  0  0  0  0  0  0999 V2000
   -1.2885   -0.0973    0.0157 C   0  0  0  0  0  0  0  0  0  0  0  0
    0.0135   -0.0017    0.5191 C   0  0  0  0  0  0  0  0  0  0  0  0
    0.4921    1.2601    0.8479 C   0  0  0  0  0  0  0  0  0  0  0  0
   -0.2545    2.4215    0.6959 C   0  0  0  0  0  0  0  0  0  0  0  0
   -1.5541    2.3043    0.1909 C   0  0  0  0  0  0  0  0  0  0  0  0
   -2.0724    1.0498   -0.1480 C   0  0  0  0  0  0  0  0  0  0  0  0
   -1.6889   -1.0761   -0.2492 H   0  0  0  0  0  0  0  0  0  0  0  0
    0.6459   -0.8778    0.6508 H   0  0  0  0  0  0  0  0  0  0  0  0
    0.1751    3.3848    0.9657 H   0  0  0  0  0  0  0  0  0  0  0  0
   -2.1616    3.2004    0.0630 H   0  0  0  0  0  0  0  0  0  0  0  0
    2.7232    1.5483   -2.3471 N   0  0  0  0  0  0  0  0  0  0  0  0
    2.6195    1.5081   -3.4459 N   0  0  0  0  0  0  0  0  0  0  0  0
    3.8125   -0.2072    1.6097 B   0  0  0  0  0  0  0  0  0  0  0  0
    3.5072   -0.9166    0.5265 F   0  0  0  0  0  0  0  0  0  0  0  0
    4.6297    0.8328    1.5140 F   0  0  0  0  0  0  0  0  0  0  0  0
    1.7670    1.3718    1.3412 F   0  0  0  0  0  0  0  0  0  0  0  0
    3.3602   -0.5955    2.7963 F   0  0  0  0  0  0  0  0  0  0  0  0
   -3.0855    0.9664   -0.5406 H   0  0  0  0  0  0  0  0  0  0  0  0
  1  2  1  0  0  0  0
  2  8  1  0  0  0  0
  2  3  2  0  0  0  0
  3 16  1  0  0  0  0
  4  3  1  0  0  0  0
  4  9  1  0  0  0  0
  5  4  2  0  0  0  0
  6  1  2  0  0  0  0
  6  5  1  0  0  0  0
  7  1  1  0  0  0  0
 10  5  1  0  0  0  0
 12 11  3  0  0  0  0
 13 17  1  0  0  0  0
 14 13  1  0  0  0  0
 15 13  1  0  0  0  0
 18  6  1  0  0  0  0
M  END
