Coordinates from ORCA-job Ph-N2-BF4-B3LYPG-aug-cc-pVDZ-scan-d09-49-n400
 OpenBabel11081710393D

 18 16  0  0  0  0  0  0  0  0999 V2000
   -1.3287   -0.0994    0.0585 C   0  0  0  0  0  0  0  0  0  0  0  0
   -0.0188    0.0013    0.5398 C   0  0  0  0  0  0  0  0  0  0  0  0
    0.4533    1.2632    0.8771 C   0  0  0  0  0  0  0  0  0  0  0  0
   -0.3047    2.4194    0.7530 C   0  0  0  0  0  0  0  0  0  0  0  0
   -1.6121    2.2970    0.2696 C   0  0  0  0  0  0  0  0  0  0  0  0
   -2.1255    1.0426   -0.0761 C   0  0  0  0  0  0  0  0  0  0  0  0
   -1.7249   -1.0782   -0.2126 H   0  0  0  0  0  0  0  0  0  0  0  0
    0.6244   -0.8701    0.6482 H   0  0  0  0  0  0  0  0  0  0  0  0
    0.1225    3.3828    1.0266 H   0  0  0  0  0  0  0  0  0  0  0  0
   -2.2294    3.1894    0.1635 H   0  0  0  0  0  0  0  0  0  0  0  0
    3.0128    1.5411   -2.6647 N   0  0  0  0  0  0  0  0  0  0  0  0
    2.9873    1.5003   -3.7680 N   0  0  0  0  0  0  0  0  0  0  0  0
    3.7831   -0.1978    1.6215 B   0  0  0  0  0  0  0  0  0  0  0  0
    3.5007   -0.8880    0.5200 F   0  0  0  0  0  0  0  0  0  0  0  0
    4.5975    0.8469    1.5595 F   0  0  0  0  0  0  0  0  0  0  0  0
    1.7369    1.3797    1.3489 F   0  0  0  0  0  0  0  0  0  0  0  0
    3.3108   -0.6092    2.7926 F   0  0  0  0  0  0  0  0  0  0  0  0
   -3.1447    0.9551   -0.4517 H   0  0  0  0  0  0  0  0  0  0  0  0
  1  2  1  0  0  0  0
  2  8  1  0  0  0  0
  2  3  2  0  0  0  0
  3 16  1  0  0  0  0
  4  3  1  0  0  0  0
  4  9  1  0  0  0  0
  5  4  2  0  0  0  0
  6  1  2  0  0  0  0
  6  5  1  0  0  0  0
  7  1  1  0  0  0  0
 10  5  1  0  0  0  0
 12 11  3  0  0  0  0
 13 17  1  0  0  0  0
 14 13  1  0  0  0  0
 15 13  1  0  0  0  0
 18  6  1  0  0  0  0
M  END
