Coordinates from ORCA-job Ph-N2-BF4-B3LYPG-aug-cc-pVDZ-scan-d09-49-n400
 OpenBabel11081710393D

 18 17  0  0  0  0  0  0  0  0999 V2000
   -1.0579   -0.2466    0.1870 C   0  0  0  0  0  0  0  0  0  0  0  0
    0.2243   -0.1085   -0.3714 C   0  0  0  0  0  0  0  0  0  0  0  0
    0.5677    1.2015   -0.5451 C   0  0  0  0  0  0  0  0  0  0  0  0
   -0.0667    2.3784   -0.2500 C   0  0  0  0  0  0  0  0  0  0  0  0
   -1.3374    2.1733    0.3099 C   0  0  0  0  0  0  0  0  0  0  0  0
   -1.8223    0.8764    0.5178 C   0  0  0  0  0  0  0  0  0  0  0  0
   -1.4294   -1.2510    0.3848 H   0  0  0  0  0  0  0  0  0  0  0  0
    0.8951   -0.9379   -0.5709 H   0  0  0  0  0  0  0  0  0  0  0  0
    0.3691    3.3610   -0.4014 H   0  0  0  0  0  0  0  0  0  0  0  0
   -1.9303    3.0427    0.5910 H   0  0  0  0  0  0  0  0  0  0  0  0
    2.1772    1.4469   -1.2944 N   0  0  0  0  0  0  0  0  0  0  0  0
    3.0958    1.6558   -1.8651 N   0  0  0  0  0  0  0  0  0  0  0  0
    2.9690    0.3396    1.5072 B   0  0  0  0  0  0  0  0  0  0  0  0
    3.0573   -0.4067    0.2674 F   0  0  0  0  0  0  0  0  0  0  0  0
    4.0847    0.1063    2.2924 F   0  0  0  0  0  0  0  0  0  0  0  0
    2.8852    1.7292    1.1329 F   0  0  0  0  0  0  0  0  0  0  0  0
    1.7652   -0.0245    2.1486 F   0  0  0  0  0  0  0  0  0  0  0  0
   -2.8061    0.7403    0.9654 H   0  0  0  0  0  0  0  0  0  0  0  0
  1  7  1  0  0  0  0
  1  6  2  0  0  0  0
  2  1  1  0  0  0  0
  3  2  2  0  0  0  0
  3  4  1  0  0  0  0
  4  5  2  0  0  0  0
  5  6  1  0  0  0  0
  5 10  1  0  0  0  0
  6 18  1  0  0  0  0
  8  2  1  0  0  0  0
  9  4  1  0  0  0  0
 11  3  1  0  0  0  0
 12 11  1  0  0  0  0
 13 17  1  0  0  0  0
 13 15  1  0  0  0  0
 14 13  1  0  0  0  0
 16 13  1  0  0  0  0
M  RAD  2  11   2  12   3
M  END
