Coordinates from ORCA-job Ph-N2-BF4-B3LYPG-aug-cc-pVDZ-scan-d09-49-n400
 OpenBabel11081710393D

 18 16  0  0  0  0  0  0  0  0999 V2000
   -1.0100   -0.0776    0.4883 C   0  0  0  0  0  0  0  0  0  0  0  0
    0.3264    0.1453    0.0428 C   0  0  0  0  0  0  0  0  0  0  0  0
    0.3829    1.4126   -0.3612 C   0  0  0  0  0  0  0  0  0  0  0  0
   -0.3618    2.5280   -0.4757 C   0  0  0  0  0  0  0  0  0  0  0  0
   -1.6669    2.2152   -0.0124 C   0  0  0  0  0  0  0  0  0  0  0  0
   -1.9743    0.9330    0.4553 C   0  0  0  0  0  0  0  0  0  0  0  0
   -1.2250   -1.0681    0.8903 H   0  0  0  0  0  0  0  0  0  0  0  0
    1.1506   -0.5729    0.1228 H   0  0  0  0  0  0  0  0  0  0  0  0
   -0.0567    3.4984   -0.8519 H   0  0  0  0  0  0  0  0  0  0  0  0
   -2.4119    3.0107   -0.0395 H   0  0  0  0  0  0  0  0  0  0  0  0
    2.4653    1.8632   -1.2884 N   0  0  0  0  0  0  0  0  0  0  0  0
    3.4641    2.0700   -1.7058 N   0  0  0  0  0  0  0  0  0  0  0  0
    3.1385   -0.1250    1.4166 B   0  0  0  0  0  0  0  0  0  0  0  0
    3.0888   -0.6136    0.0524 F   0  0  0  0  0  0  0  0  0  0  0  0
    4.3896   -0.3344    1.9666 F   0  0  0  0  0  0  0  0  0  0  0  0
    2.8131    1.2689    1.3667 F   0  0  0  0  0  0  0  0  0  0  0  0
    2.1090   -0.8002    2.1258 F   0  0  0  0  0  0  0  0  0  0  0  0
   -2.9811    0.7225    0.8133 H   0  0  0  0  0  0  0  0  0  0  0  0
  1  7  1  0  0  0  0
  2  8  1  0  0  0  0
  2  1  2  0  0  0  0
  3  2  1  0  0  0  0
  4  3  2  0  0  0  0
  4  5  1  0  0  0  0
  5  6  2  0  0  0  0
  6  1  1  0  0  0  0
  6 18  1  0  0  0  0
  9  4  1  0  0  0  0
 10  5  1  0  0  0  0
 12 11  3  0  0  0  0
 13 15  1  0  0  0  0
 13 17  1  0  0  0  0
 14 13  1  0  0  0  0
 16 13  1  0  0  0  0
M  RAD  1   3   2
M  END
