Coordinates from ORCA-job Ph-N2-BF4-B3LYPG-aug-cc-pVDZ-scan-d09-49-n400
 OpenBabel11081710393D

 18 16  0  0  0  0  0  0  0  0999 V2000
   -1.1813   -0.0822   -0.1297 C   0  0  0  0  0  0  0  0  0  0  0  0
    0.1064   -0.0016    0.4099 C   0  0  0  0  0  0  0  0  0  0  0  0
    0.6134    1.2574    0.7056 C   0  0  0  0  0  0  0  0  0  0  0  0
   -0.1204    2.4255    0.5405 C   0  0  0  0  0  0  0  0  0  0  0  0
   -1.4062    2.3253    0.0003 C   0  0  0  0  0  0  0  0  0  0  0  0
   -1.9368    1.0763   -0.3410 C   0  0  0  0  0  0  0  0  0  0  0  0
   -1.5955   -1.0587   -0.3811 H   0  0  0  0  0  0  0  0  0  0  0  0
    0.7124   -0.8891    0.5822 H   0  0  0  0  0  0  0  0  0  0  0  0
    0.3142    3.3849    0.8158 H   0  0  0  0  0  0  0  0  0  0  0  0
   -1.9961    3.2298   -0.1495 H   0  0  0  0  0  0  0  0  0  0  0  0
    1.9109    1.5077   -1.4213 N   0  0  0  0  0  0  0  0  0  0  0  0
    1.6563    1.4720   -2.4963 N   0  0  0  0  0  0  0  0  0  0  0  0
    3.8977   -0.2172    1.5871 B   0  0  0  0  0  0  0  0  0  0  0  0
    3.5140   -0.9926    0.5762 F   0  0  0  0  0  0  0  0  0  0  0  0
    4.7221    0.7985    1.3691 F   0  0  0  0  0  0  0  0  0  0  0  0
    1.8523    1.3492    1.2765 F   0  0  0  0  0  0  0  0  0  0  0  0
    3.5165   -0.5144    2.8235 F   0  0  0  0  0  0  0  0  0  0  0  0
   -2.9394    1.0053   -0.7619 H   0  0  0  0  0  0  0  0  0  0  0  0
  1  2  1  0  0  0  0
  2  8  1  0  0  0  0
  2  3  2  0  0  0  0
  3 16  1  0  0  0  0
  4  3  1  0  0  0  0
  4  9  1  0  0  0  0
  5  4  2  0  0  0  0
  6  1  2  0  0  0  0
  6  5  1  0  0  0  0
  7  1  1  0  0  0  0
 10  5  1  0  0  0  0
 12 11  3  0  0  0  0
 13 17  1  0  0  0  0
 14 13  1  0  0  0  0
 15 13  1  0  0  0  0
 18  6  1  0  0  0  0
M  END
