Coordinates from ORCA-job Ph-N2-BF4-B3LYPG-aug-cc-pVDZ-scan-d09-49-n400
 OpenBabel11081710393D

 18 16  0  0  0  0  0  0  0  0999 V2000
   -1.1929   -0.0863   -0.1092 C   0  0  0  0  0  0  0  0  0  0  0  0
    0.0945   -0.0048    0.4324 C   0  0  0  0  0  0  0  0  0  0  0  0
    0.5910    1.2533    0.7457 C   0  0  0  0  0  0  0  0  0  0  0  0
   -0.1357    2.4226    0.5652 C   0  0  0  0  0  0  0  0  0  0  0  0
   -1.4210    2.3212    0.0228 C   0  0  0  0  0  0  0  0  0  0  0  0
   -1.9506    1.0713   -0.3166 C   0  0  0  0  0  0  0  0  0  0  0  0
   -1.6033   -1.0625   -0.3681 H   0  0  0  0  0  0  0  0  0  0  0  0
    0.7061   -0.8897    0.5981 H   0  0  0  0  0  0  0  0  0  0  0  0
    0.3025    3.3817    0.8360 H   0  0  0  0  0  0  0  0  0  0  0  0
   -2.0096    3.2256   -0.1329 H   0  0  0  0  0  0  0  0  0  0  0  0
    2.0106    1.5245   -1.5640 N   0  0  0  0  0  0  0  0  0  0  0  0
    1.7690    1.5004   -2.6416 N   0  0  0  0  0  0  0  0  0  0  0  0
    3.8829   -0.2181    1.5935 B   0  0  0  0  0  0  0  0  0  0  0  0
    3.5034   -0.9947    0.5820 F   0  0  0  0  0  0  0  0  0  0  0  0
    4.7050    0.7998    1.3769 F   0  0  0  0  0  0  0  0  0  0  0  0
    1.8404    1.3489    1.2957 F   0  0  0  0  0  0  0  0  0  0  0  0
    3.5007   -0.5169    2.8292 F   0  0  0  0  0  0  0  0  0  0  0  0
   -2.9526    0.9996   -0.7390 H   0  0  0  0  0  0  0  0  0  0  0  0
  1  2  1  0  0  0  0
  2  8  1  0  0  0  0
  2  3  2  0  0  0  0
  3 16  1  0  0  0  0
  4  3  1  0  0  0  0
  4  9  1  0  0  0  0
  5  4  2  0  0  0  0
  6  1  2  0  0  0  0
  6  5  1  0  0  0  0
  7  1  1  0  0  0  0
 10  5  1  0  0  0  0
 12 11  3  0  0  0  0
 13 17  1  0  0  0  0
 14 13  1  0  0  0  0
 15 13  1  0  0  0  0
 18  6  1  0  0  0  0
M  END
