Coordinates from ORCA-job Ph-N2-BF4-B3LYPG-aug-cc-pVDZ-scan-d09-49-n400
 OpenBabel11081710393D

 18 16  0  0  0  0  0  0  0  0999 V2000
   -1.2303   -0.0929   -0.0496 C   0  0  0  0  0  0  0  0  0  0  0  0
    0.0616   -0.0050    0.4805 C   0  0  0  0  0  0  0  0  0  0  0  0
    0.5465    1.2554    0.8059 C   0  0  0  0  0  0  0  0  0  0  0  0
   -0.1860    2.4220    0.6277 C   0  0  0  0  0  0  0  0  0  0  0  0
   -1.4756    2.3126    0.0962 C   0  0  0  0  0  0  0  0  0  0  0  0
   -1.9990    1.0600   -0.2419 C   0  0  0  0  0  0  0  0  0  0  0  0
   -1.6348   -1.0704   -0.3127 H   0  0  0  0  0  0  0  0  0  0  0  0
    0.6818   -0.8859    0.6351 H   0  0  0  0  0  0  0  0  0  0  0  0
    0.2467    3.3836    0.8985 H   0  0  0  0  0  0  0  0  0  0  0  0
   -2.0716    3.2132   -0.0527 H   0  0  0  0  0  0  0  0  0  0  0  0
    2.3315    1.5485   -1.9493 N   0  0  0  0  0  0  0  0  0  0  0  0
    2.1286    1.5110   -3.0342 N   0  0  0  0  0  0  0  0  0  0  0  0
    3.8438   -0.2150    1.6055 B   0  0  0  0  0  0  0  0  0  0  0  0
    3.4968   -0.9521    0.5535 F   0  0  0  0  0  0  0  0  0  0  0  0
    4.6682    0.8126    1.4537 F   0  0  0  0  0  0  0  0  0  0  0  0
    1.8095    1.3599    1.3282 F   0  0  0  0  0  0  0  0  0  0  0  0
    3.4271   -0.5641    2.8169 F   0  0  0  0  0  0  0  0  0  0  0  0
   -3.0043    0.9825   -0.6554 H   0  0  0  0  0  0  0  0  0  0  0  0
  1  2  1  0  0  0  0
  2  8  1  0  0  0  0
  2  3  2  0  0  0  0
  3 16  1  0  0  0  0
  4  3  1  0  0  0  0
  4  9  1  0  0  0  0
  5  4  2  0  0  0  0
  6  1  2  0  0  0  0
  6  5  1  0  0  0  0
  7  1  1  0  0  0  0
 10  5  1  0  0  0  0
 12 11  3  0  0  0  0
 13 17  1  0  0  0  0
 14 13  1  0  0  0  0
 15 13  1  0  0  0  0
 18  6  1  0  0  0  0
M  END
