Coordinates from ORCA-job Ph-N2-BF4-B3LYPG-aug-cc-pVDZ-scan-d09-49-n400
 OpenBabel11081710393D

 18 16  0  0  0  0  0  0  0  0999 V2000
   -1.2146   -0.0907   -0.0742 C   0  0  0  0  0  0  0  0  0  0  0  0
    0.0753   -0.0059    0.4613 C   0  0  0  0  0  0  0  0  0  0  0  0
    0.5645    1.2534    0.7840 C   0  0  0  0  0  0  0  0  0  0  0  0
   -0.1644    2.4217    0.6023 C   0  0  0  0  0  0  0  0  0  0  0  0
   -1.4520    2.3159    0.0656 C   0  0  0  0  0  0  0  0  0  0  0  0
   -1.9783    1.0645   -0.2729 C   0  0  0  0  0  0  0  0  0  0  0  0
   -1.6216   -1.0674   -0.3363 H   0  0  0  0  0  0  0  0  0  0  0  0
    0.6913   -0.8889    0.6208 H   0  0  0  0  0  0  0  0  0  0  0  0
    0.2701    3.3824    0.8734 H   0  0  0  0  0  0  0  0  0  0  0  0
   -2.0445    3.2183   -0.0870 H   0  0  0  0  0  0  0  0  0  0  0  0
    2.1962    1.5420   -1.7950 N   0  0  0  0  0  0  0  0  0  0  0  0
    1.9790    1.5115   -2.8774 N   0  0  0  0  0  0  0  0  0  0  0  0
    3.8595   -0.2165    1.6021 B   0  0  0  0  0  0  0  0  0  0  0  0
    3.4977   -0.9728    0.5687 F   0  0  0  0  0  0  0  0  0  0  0  0
    4.6831    0.8068    1.4201 F   0  0  0  0  0  0  0  0  0  0  0  0
    1.8229    1.3541    1.3157 F   0  0  0  0  0  0  0  0  0  0  0  0
    3.4584   -0.5420    2.8251 F   0  0  0  0  0  0  0  0  0  0  0  0
   -2.9820    0.9897   -0.6905 H   0  0  0  0  0  0  0  0  0  0  0  0
  1  2  1  0  0  0  0
  2  8  1  0  0  0  0
  2  3  2  0  0  0  0
  3 16  1  0  0  0  0
  4  3  1  0  0  0  0
  4  9  1  0  0  0  0
  5  4  2  0  0  0  0
  6  1  2  0  0  0  0
  6  5  1  0  0  0  0
  7  1  1  0  0  0  0
 10  5  1  0  0  0  0
 12 11  3  0  0  0  0
 13 17  1  0  0  0  0
 14 13  1  0  0  0  0
 15 13  1  0  0  0  0
 18  6  1  0  0  0  0
M  END
