Coordinates from ORCA-job Ph-N2-BF4-B3LYPG-aug-cc-pVDZ-scan-d09-49-n400
 OpenBabel11081710393D

 18 16  0  0  0  0  0  0  0  0999 V2000
   -1.2953   -0.0976    0.0223 C   0  0  0  0  0  0  0  0  0  0  0  0
    0.0081   -0.0014    0.5221 C   0  0  0  0  0  0  0  0  0  0  0  0
    0.4862    1.2604    0.8518 C   0  0  0  0  0  0  0  0  0  0  0  0
   -0.2621    2.4212    0.7038 C   0  0  0  0  0  0  0  0  0  0  0  0
   -1.5630    2.3034    0.2024 C   0  0  0  0  0  0  0  0  0  0  0  0
   -2.0809    1.0489   -0.1372 C   0  0  0  0  0  0  0  0  0  0  0  0
   -1.6952   -1.0763   -0.2432 H   0  0  0  0  0  0  0  0  0  0  0  0
    0.6419   -0.8770    0.6505 H   0  0  0  0  0  0  0  0  0  0  0  0
    0.1672    3.3846    0.9740 H   0  0  0  0  0  0  0  0  0  0  0  0
   -2.1719    3.1990    0.0777 H   0  0  0  0  0  0  0  0  0  0  0  0
    2.7669    1.5478   -2.3944 N   0  0  0  0  0  0  0  0  0  0  0  0
    2.6742    1.5077   -3.4943 N   0  0  0  0  0  0  0  0  0  0  0  0
    3.8094   -0.2062    1.6120 B   0  0  0  0  0  0  0  0  0  0  0  0
    3.5088   -0.9131    0.5259 F   0  0  0  0  0  0  0  0  0  0  0  0
    4.6252    0.8354    1.5219 F   0  0  0  0  0  0  0  0  0  0  0  0
    1.7624    1.3727    1.3415 F   0  0  0  0  0  0  0  0  0  0  0  0
    3.3538   -0.5984    2.7960 F   0  0  0  0  0  0  0  0  0  0  0  0
   -3.0951    0.9650   -0.5270 H   0  0  0  0  0  0  0  0  0  0  0  0
  1  2  1  0  0  0  0
  2  8  1  0  0  0  0
  2  3  2  0  0  0  0
  3 16  1  0  0  0  0
  4  3  1  0  0  0  0
  4  9  1  0  0  0  0
  5  4  2  0  0  0  0
  6  1  2  0  0  0  0
  6  5  1  0  0  0  0
  7  1  1  0  0  0  0
 10  5  1  0  0  0  0
 12 11  3  0  0  0  0
 13 17  1  0  0  0  0
 14 13  1  0  0  0  0
 15 13  1  0  0  0  0
 18  6  1  0  0  0  0
M  END
