Coordinates from ORCA-job Ph-N2-BF4-B3LYPG-aug-cc-pVDZ-scan-d09-49-n400
 OpenBabel11081710393D

 18 16  0  0  0  0  0  0  0  0999 V2000
   -1.2110   -0.0901   -0.0804 C   0  0  0  0  0  0  0  0  0  0  0  0
    0.0784   -0.0061    0.4564 C   0  0  0  0  0  0  0  0  0  0  0  0
    0.5689    1.2529    0.7778 C   0  0  0  0  0  0  0  0  0  0  0  0
   -0.1593    2.4217    0.5957 C   0  0  0  0  0  0  0  0  0  0  0  0
   -1.4465    2.3168    0.0579 C   0  0  0  0  0  0  0  0  0  0  0  0
   -1.9735    1.0656   -0.2807 C   0  0  0  0  0  0  0  0  0  0  0  0
   -1.6187   -1.0667   -0.3420 H   0  0  0  0  0  0  0  0  0  0  0  0
    0.6934   -0.8896    0.6172 H   0  0  0  0  0  0  0  0  0  0  0  0
    0.2757    3.3821    0.8669 H   0  0  0  0  0  0  0  0  0  0  0  0
   -2.0381    3.2195   -0.0955 H   0  0  0  0  0  0  0  0  0  0  0  0
    2.1625    1.5398   -1.7539 N   0  0  0  0  0  0  0  0  0  0  0  0
    1.9439    1.5118   -2.8361 N   0  0  0  0  0  0  0  0  0  0  0  0
    3.8637   -0.2169    1.6005 B   0  0  0  0  0  0  0  0  0  0  0  0
    3.4980   -0.9787    0.5726 F   0  0  0  0  0  0  0  0  0  0  0  0
    4.6872    0.8049    1.4099 F   0  0  0  0  0  0  0  0  0  0  0  0
    1.8261    1.3527    1.3121 F   0  0  0  0  0  0  0  0  0  0  0  0
    3.4668   -0.5353    2.8267 F   0  0  0  0  0  0  0  0  0  0  0  0
   -2.9769    0.9915   -0.6993 H   0  0  0  0  0  0  0  0  0  0  0  0
  1  2  1  0  0  0  0
  2  8  1  0  0  0  0
  2  3  2  0  0  0  0
  3 16  1  0  0  0  0
  4  3  1  0  0  0  0
  4  9  1  0  0  0  0
  5  4  2  0  0  0  0
  6  1  2  0  0  0  0
  6  5  1  0  0  0  0
  7  1  1  0  0  0  0
 10  5  1  0  0  0  0
 12 11  3  0  0  0  0
 13 17  1  0  0  0  0
 14 13  1  0  0  0  0
 15 13  1  0  0  0  0
 18  6  1  0  0  0  0
M  END
