Coordinates from ORCA-job Ph-N2-BF4-B3LYPG-aug-cc-pVDZ-scan-d09-49-n400
 OpenBabel11081710393D

 18 17  0  0  0  0  0  0  0  0999 V2000
   -0.9490   -0.2556    0.1519 C   0  0  0  0  0  0  0  0  0  0  0  0
    0.2687   -0.1012   -0.4942 C   0  0  0  0  0  0  0  0  0  0  0  0
    0.7378    1.2144   -0.7233 C   0  0  0  0  0  0  0  0  0  0  0  0
    0.0261    2.3589   -0.2815 C   0  0  0  0  0  0  0  0  0  0  0  0
   -1.1792    2.1665    0.3690 C   0  0  0  0  0  0  0  0  0  0  0  0
   -1.6657    0.8660    0.5813 C   0  0  0  0  0  0  0  0  0  0  0  0
   -1.3206   -1.2579    0.3557 H   0  0  0  0  0  0  0  0  0  0  0  0
    0.8875   -0.9464   -0.7826 H   0  0  0  0  0  0  0  0  0  0  0  0
    0.4468    3.3496   -0.4390 H   0  0  0  0  0  0  0  0  0  0  0  0
   -1.7390    3.0279    0.7296 H   0  0  0  0  0  0  0  0  0  0  0  0
    1.8582    1.3821   -1.3211 N   0  0  0  0  0  0  0  0  0  0  0  0
    2.8186    1.5431   -1.8651 N   0  0  0  0  0  0  0  0  0  0  0  0
    2.8304    0.3924    1.5579 B   0  0  0  0  0  0  0  0  0  0  0  0
    3.0645   -0.3459    0.3394 F   0  0  0  0  0  0  0  0  0  0  0  0
    3.8572    0.1887    2.4639 F   0  0  0  0  0  0  0  0  0  0  0  0
    2.7367    1.7781    1.1833 F   0  0  0  0  0  0  0  0  0  0  0  0
    1.5718   -0.0138    2.0732 F   0  0  0  0  0  0  0  0  0  0  0  0
   -2.6104    0.7290    1.1076 H   0  0  0  0  0  0  0  0  0  0  0  0
  1  7  1  0  0  0  0
  1  6  2  0  0  0  0
  2  1  1  0  0  0  0
  3  2  2  0  0  0  0
  3  4  1  0  0  0  0
  4  5  2  0  0  0  0
  5  6  1  0  0  0  0
  5 10  1  0  0  0  0
  6 18  1  0  0  0  0
  8  2  1  0  0  0  0
  9  4  1  0  0  0  0
 11  3  1  0  0  0  0
 12 11  1  0  0  0  0
 13 17  1  0  0  0  0
 13 15  1  0  0  0  0
 14 13  1  0  0  0  0
 16 13  1  0  0  0  0
M  RAD  2  11   2  12   3
M  END
