Coordinates from ORCA-job Ph-N2-BF4-B3LYPG-aug-cc-pVDZ-scan-d09-49-n400
 OpenBabel11081710393D

 18 16  0  0  0  0  0  0  0  0999 V2000
   -1.2777   -0.0967    0.0046 C   0  0  0  0  0  0  0  0  0  0  0  0
    0.0221   -0.0022    0.5138 C   0  0  0  0  0  0  0  0  0  0  0  0
    0.5014    1.2596    0.8419 C   0  0  0  0  0  0  0  0  0  0  0  0
   -0.2425    2.4219    0.6837 C   0  0  0  0  0  0  0  0  0  0  0  0
   -1.5399    2.3057    0.1730 C   0  0  0  0  0  0  0  0  0  0  0  0
   -2.0588    1.0514   -0.1654 C   0  0  0  0  0  0  0  0  0  0  0  0
   -1.6785   -1.0754   -0.2598 H   0  0  0  0  0  0  0  0  0  0  0  0
    0.6524   -0.8791    0.6506 H   0  0  0  0  0  0  0  0  0  0  0  0
    0.1874    3.3851    0.9534 H   0  0  0  0  0  0  0  0  0  0  0  0
   -2.1453    3.2026    0.0402 H   0  0  0  0  0  0  0  0  0  0  0  0
    2.6534    1.5488   -2.2733 N   0  0  0  0  0  0  0  0  0  0  0  0
    2.5319    1.5086   -3.3703 N   0  0  0  0  0  0  0  0  0  0  0  0
    3.8177   -0.2089    1.6069 B   0  0  0  0  0  0  0  0  0  0  0  0
    3.5036   -0.9225    0.5290 F   0  0  0  0  0  0  0  0  0  0  0  0
    4.6372    0.8284    1.5012 F   0  0  0  0  0  0  0  0  0  0  0  0
    1.7741    1.3704    1.3408 F   0  0  0  0  0  0  0  0  0  0  0  0
    3.3723   -0.5905    2.7982 F   0  0  0  0  0  0  0  0  0  0  0  0
   -3.0703    0.9688   -0.5626 H   0  0  0  0  0  0  0  0  0  0  0  0
  1  2  1  0  0  0  0
  2  8  1  0  0  0  0
  2  3  2  0  0  0  0
  3 16  1  0  0  0  0
  4  3  1  0  0  0  0
  4  9  1  0  0  0  0
  5  4  2  0  0  0  0
  6  1  2  0  0  0  0
  6  5  1  0  0  0  0
  7  1  1  0  0  0  0
 10  5  1  0  0  0  0
 12 11  3  0  0  0  0
 13 17  1  0  0  0  0
 14 13  1  0  0  0  0
 15 13  1  0  0  0  0
 18  6  1  0  0  0  0
M  END
