Coordinates from ORCA-job Ph-N2-BF4-B3LYPG-aug-cc-pVDZ-scan-d09-49-n400
 OpenBabel11081710393D

 18 16  0  0  0  0  0  0  0  0999 V2000
   -1.0193   -0.0592    0.5085 C   0  0  0  0  0  0  0  0  0  0  0  0
    0.3150    0.1518    0.0670 C   0  0  0  0  0  0  0  0  0  0  0  0
    0.4027    1.4111   -0.3787 C   0  0  0  0  0  0  0  0  0  0  0  0
   -0.3632    2.5158   -0.5213 C   0  0  0  0  0  0  0  0  0  0  0  0
   -1.6688    2.2207   -0.0599 C   0  0  0  0  0  0  0  0  0  0  0  0
   -1.9815    0.9524    0.4417 C   0  0  0  0  0  0  0  0  0  0  0  0
   -1.2468   -1.0392    0.9280 H   0  0  0  0  0  0  0  0  0  0  0  0
    1.1285   -0.5743    0.1530 H   0  0  0  0  0  0  0  0  0  0  0  0
   -0.0569    3.4788   -0.9156 H   0  0  0  0  0  0  0  0  0  0  0  0
   -2.4140    3.0147   -0.1084 H   0  0  0  0  0  0  0  0  0  0  0  0
    2.3771    1.8285   -1.1575 N   0  0  0  0  0  0  0  0  0  0  0  0
    3.3448    2.1137   -1.6003 N   0  0  0  0  0  0  0  0  0  0  0  0
    3.1926   -0.1448    1.4011 B   0  0  0  0  0  0  0  0  0  0  0  0
    3.1183   -0.5742    0.0181 F   0  0  0  0  0  0  0  0  0  0  0  0
    4.4552   -0.3764    1.9166 F   0  0  0  0  0  0  0  0  0  0  0  0
    2.8699    1.2510    1.4142 F   0  0  0  0  0  0  0  0  0  0  0  0
    2.1782   -0.8480    2.1015 F   0  0  0  0  0  0  0  0  0  0  0  0
   -2.9914    0.7536    0.7979 H   0  0  0  0  0  0  0  0  0  0  0  0
  1  7  1  0  0  0  0
  2  8  1  0  0  0  0
  2  1  2  0  0  0  0
  3  2  1  0  0  0  0
  4  3  2  0  0  0  0
  4  5  1  0  0  0  0
  5  6  2  0  0  0  0
  6  1  1  0  0  0  0
  6 18  1  0  0  0  0
  9  4  1  0  0  0  0
 10  5  1  0  0  0  0
 12 11  3  0  0  0  0
 13 16  1  0  0  0  0
 13 15  1  0  0  0  0
 13 17  1  0  0  0  0
 14 13  1  0  0  0  0
M  RAD  1   3   2
M  END
