Coordinates from ORCA-job Ph-N2-BF4-B3LYPG-aug-cc-pVDZ-scan-d09-49-n400
 OpenBabel11081710393D

 18 17  0  0  0  0  0  0  0  0999 V2000
   -0.6989   -0.2309    0.1953 C   0  0  0  0  0  0  0  0  0  0  0  0
    0.3894   -0.0622   -0.6284 C   0  0  0  0  0  0  0  0  0  0  0  0
    0.8563    1.2803   -0.9844 C   0  0  0  0  0  0  0  0  0  0  0  0
    0.1031    2.4048   -0.4211 C   0  0  0  0  0  0  0  0  0  0  0  0
   -0.9841    2.1903    0.3851 C   0  0  0  0  0  0  0  0  0  0  0  0
   -1.3811    0.8795    0.7062 C   0  0  0  0  0  0  0  0  0  0  0  0
   -0.9964   -1.2385    0.4781 H   0  0  0  0  0  0  0  0  0  0  0  0
    0.9695   -0.8948   -1.0170 H   0  0  0  0  0  0  0  0  0  0  0  0
    0.4726    3.4013   -0.6589 H   0  0  0  0  0  0  0  0  0  0  0  0
   -1.5171    3.0434    0.8019 H   0  0  0  0  0  0  0  0  0  0  0  0
    1.6531    1.4189   -1.5383 N   0  0  0  0  0  0  0  0  0  0  0  0
    2.5852    1.5910   -2.1832 N   0  0  0  0  0  0  0  0  0  0  0  0
    2.5024    0.3066    1.7325 B   0  0  0  0  0  0  0  0  0  0  0  0
    2.7881   -0.3108    0.4571 F   0  0  0  0  0  0  0  0  0  0  0  0
    3.6283    0.3021    2.5387 F   0  0  0  0  0  0  0  0  0  0  0  0
    2.0828    1.6532    1.4466 F   0  0  0  0  0  0  0  0  0  0  0  0
    1.4142   -0.3845    2.3192 F   0  0  0  0  0  0  0  0  0  0  0  0
   -2.2267    0.7265    1.3766 H   0  0  0  0  0  0  0  0  0  0  0  0
  1  7  1  0  0  0  0
  1  6  2  0  0  0  0
  2  1  1  0  0  0  0
  3  2  2  0  0  0  0
  3  4  1  0  0  0  0
  4  5  2  0  0  0  0
  5  6  1  0  0  0  0
  5 10  1  0  0  0  0
  6 18  1  0  0  0  0
  8  2  1  0  0  0  0
  9  4  1  0  0  0  0
 11  3  1  0  0  0  0
 12 11  1  0  0  0  0
 13 17  1  0  0  0  0
 13 15  1  0  0  0  0
 14 13  1  0  0  0  0
 16 13  1  0  0  0  0
M  RAD  2  11   2  12   3
M  END
