Coordinates from ORCA-job Ph-N2-BF4-B3LYPG-aug-cc-pVDZ-scan-d09-49-n400
 OpenBabel11081710393D

 18 17  0  0  0  0  0  0  0  0999 V2000
   -1.0240   -0.2573    0.1477 C   0  0  0  0  0  0  0  0  0  0  0  0
    0.2276   -0.1124   -0.4513 C   0  0  0  0  0  0  0  0  0  0  0  0
    0.6525    1.1970   -0.6337 C   0  0  0  0  0  0  0  0  0  0  0  0
   -0.0153    2.3564   -0.2516 C   0  0  0  0  0  0  0  0  0  0  0  0
   -1.2575    2.1646    0.3488 C   0  0  0  0  0  0  0  0  0  0  0  0
   -1.7557    0.8682    0.5417 C   0  0  0  0  0  0  0  0  0  0  0  0
   -1.4094   -1.2581    0.3337 H   0  0  0  0  0  0  0  0  0  0  0  0
    0.8621   -0.9548   -0.7084 H   0  0  0  0  0  0  0  0  0  0  0  0
    0.4212    3.3418   -0.3910 H   0  0  0  0  0  0  0  0  0  0  0  0
   -1.8289    3.0299    0.6809 H   0  0  0  0  0  0  0  0  0  0  0  0
    2.0140    1.3946   -1.2836 N   0  0  0  0  0  0  0  0  0  0  0  0
    2.9605    1.5733   -1.8260 N   0  0  0  0  0  0  0  0  0  0  0  0
    2.9191    0.3902    1.5325 B   0  0  0  0  0  0  0  0  0  0  0  0
    3.0623   -0.3744    0.3110 F   0  0  0  0  0  0  0  0  0  0  0  0
    3.9967    0.1717    2.3732 F   0  0  0  0  0  0  0  0  0  0  0  0
    2.8517    1.7733    1.1307 F   0  0  0  0  0  0  0  0  0  0  0  0
    1.6864    0.0371    2.1254 F   0  0  0  0  0  0  0  0  0  0  0  0
   -2.7227    0.7349    1.0260 H   0  0  0  0  0  0  0  0  0  0  0  0
  1  7  1  0  0  0  0
  1  6  2  0  0  0  0
  2  1  1  0  0  0  0
  3  2  2  0  0  0  0
  3  4  1  0  0  0  0
  4  5  2  0  0  0  0
  5  6  1  0  0  0  0
  5 10  1  0  0  0  0
  6 18  1  0  0  0  0
  8  2  1  0  0  0  0
  9  4  1  0  0  0  0
 11  3  1  0  0  0  0
 12 11  1  0  0  0  0
 13 17  1  0  0  0  0
 13 15  1  0  0  0  0
 14 13  1  0  0  0  0
 16 13  1  0  0  0  0
M  RAD  2  11   2  12   3
M  END
