Coordinates from ORCA-job Ph-N2-BF4-B3LYPG-aug-cc-pVDZ-scan-d09-49-n400
 OpenBabel11081710403D

 18 16  0  0  0  0  0  0  0  0999 V2000
   -1.3425   -0.0982    0.0696 C   0  0  0  0  0  0  0  0  0  0  0  0
   -0.0304    0.0045    0.5444 C   0  0  0  0  0  0  0  0  0  0  0  0
    0.4367    1.2658    0.8909 C   0  0  0  0  0  0  0  0  0  0  0  0
   -0.3269    2.4196    0.7810 C   0  0  0  0  0  0  0  0  0  0  0  0
   -1.6366    2.2948    0.3037 C   0  0  0  0  0  0  0  0  0  0  0  0
   -2.1456    1.0410   -0.0505 C   0  0  0  0  0  0  0  0  0  0  0  0
   -1.7356   -1.0764   -0.2082 H   0  0  0  0  0  0  0  0  0  0  0  0
    0.6183   -0.8642    0.6410 H   0  0  0  0  0  0  0  0  0  0  0  0
    0.0945    3.3834    1.0616 H   0  0  0  0  0  0  0  0  0  0  0  0
   -2.2587    3.1851    0.2087 H   0  0  0  0  0  0  0  0  0  0  0  0
    3.1253    1.5270   -2.7818 N   0  0  0  0  0  0  0  0  0  0  0  0
    3.1289    1.4826   -3.8853 N   0  0  0  0  0  0  0  0  0  0  0  0
    3.7737   -0.1920    1.6227 B   0  0  0  0  0  0  0  0  0  0  0  0
    3.4998   -0.8780    0.5165 F   0  0  0  0  0  0  0  0  0  0  0  0
    4.5869    0.8541    1.5700 F   0  0  0  0  0  0  0  0  0  0  0  0
    1.7241    1.3840    1.3537 F   0  0  0  0  0  0  0  0  0  0  0  0
    3.2948   -0.6089    2.7892 F   0  0  0  0  0  0  0  0  0  0  0  0
   -3.1664    0.9518   -0.4214 H   0  0  0  0  0  0  0  0  0  0  0  0
  1  2  1  0  0  0  0
  2  8  1  0  0  0  0
  2  3  2  0  0  0  0
  3 16  1  0  0  0  0
  4  3  1  0  0  0  0
  4  9  1  0  0  0  0
  5  4  2  0  0  0  0
  6  1  2  0  0  0  0
  6  5  1  0  0  0  0
  7  1  1  0  0  0  0
 10  5  1  0  0  0  0
 12 11  3  0  0  0  0
 13 17  1  0  0  0  0
 14 13  1  0  0  0  0
 15 13  1  0  0  0  0
 18  6  1  0  0  0  0
M  END
