Coordinates from ORCA-job Ph-N2-BF4-B3LYPG-aug-cc-pVDZ-scan-d09-49-n400
 OpenBabel11081710393D

 18 16  0  0  0  0  0  0  0  0999 V2000
   -1.0129   -0.0664    0.4999 C   0  0  0  0  0  0  0  0  0  0  0  0
    0.3217    0.1494    0.0547 C   0  0  0  0  0  0  0  0  0  0  0  0
    0.3954    1.4123   -0.3735 C   0  0  0  0  0  0  0  0  0  0  0  0
   -0.3622    2.5213   -0.5042 C   0  0  0  0  0  0  0  0  0  0  0  0
   -1.6668    2.2187   -0.0398 C   0  0  0  0  0  0  0  0  0  0  0  0
   -1.9764    0.9445    0.4482 C   0  0  0  0  0  0  0  0  0  0  0  0
   -1.2341   -1.0507    0.9130 H   0  0  0  0  0  0  0  0  0  0  0  0
    1.1400   -0.5729    0.1386 H   0  0  0  0  0  0  0  0  0  0  0  0
   -0.0575    3.4875   -0.8914 H   0  0  0  0  0  0  0  0  0  0  0  0
   -2.4121    3.0134   -0.0783 H   0  0  0  0  0  0  0  0  0  0  0  0
    2.4083    1.8460   -1.2121 N   0  0  0  0  0  0  0  0  0  0  0  0
    3.3916    2.0925   -1.6440 N   0  0  0  0  0  0  0  0  0  0  0  0
    3.1683   -0.1372    1.4086 B   0  0  0  0  0  0  0  0  0  0  0  0
    3.1059   -0.5906    0.0326 F   0  0  0  0  0  0  0  0  0  0  0  0
    4.4259   -0.3588    1.9394 F   0  0  0  0  0  0  0  0  0  0  0  0
    2.8421    1.2574    1.3961 F   0  0  0  0  0  0  0  0  0  0  0  0
    2.1478   -0.8308    2.1116 F   0  0  0  0  0  0  0  0  0  0  0  0
   -2.9845    0.7406    0.8065 H   0  0  0  0  0  0  0  0  0  0  0  0
  1  7  1  0  0  0  0
  2  8  1  0  0  0  0
  2  1  2  0  0  0  0
  3  2  1  0  0  0  0
  4  3  2  0  0  0  0
  4  5  1  0  0  0  0
  5  6  2  0  0  0  0
  6  1  1  0  0  0  0
  6 18  1  0  0  0  0
  9  4  1  0  0  0  0
 10  5  1  0  0  0  0
 12 11  3  0  0  0  0
 13 15  1  0  0  0  0
 13 17  1  0  0  0  0
 14 13  1  0  0  0  0
 16 13  1  0  0  0  0
M  RAD  1   3   2
M  END
