Coordinates from ORCA-job Ph-N2-BF4-B3LYPG-aug-cc-pVDZ-scan-d09-49-n400
 OpenBabel11081710403D

 18 16  0  0  0  0  0  0  0  0999 V2000
   -1.3440   -0.0979    0.0702 C   0  0  0  0  0  0  0  0  0  0  0  0
   -0.0316    0.0051    0.5443 C   0  0  0  0  0  0  0  0  0  0  0  0
    0.4348    1.2662    0.8923 C   0  0  0  0  0  0  0  0  0  0  0  0
   -0.3297    2.4196    0.7846 C   0  0  0  0  0  0  0  0  0  0  0  0
   -1.6396    2.2946    0.3081 C   0  0  0  0  0  0  0  0  0  0  0  0
   -2.1479    1.0410   -0.0477 C   0  0  0  0  0  0  0  0  0  0  0  0
   -1.7365   -1.0759   -0.2089 H   0  0  0  0  0  0  0  0  0  0  0  0
    0.6177   -0.8633    0.6391 H   0  0  0  0  0  0  0  0  0  0  0  0
    0.0911    3.3833    1.0665 H   0  0  0  0  0  0  0  0  0  0  0  0
   -2.2623    3.1846    0.2148 H   0  0  0  0  0  0  0  0  0  0  0  0
    3.1380    1.5244   -2.7948 N   0  0  0  0  0  0  0  0  0  0  0  0
    3.1446    1.4792   -3.8983 N   0  0  0  0  0  0  0  0  0  0  0  0
    3.7730   -0.1911    1.6230 B   0  0  0  0  0  0  0  0  0  0  0  0
    3.5002   -0.8770    0.5164 F   0  0  0  0  0  0  0  0  0  0  0  0
    4.5859    0.8553    1.5710 F   0  0  0  0  0  0  0  0  0  0  0  0
    1.7224    1.3845    1.3543 F   0  0  0  0  0  0  0  0  0  0  0  0
    3.2933   -0.6083    2.7890 F   0  0  0  0  0  0  0  0  0  0  0  0
   -3.1689    0.9516   -0.4181 H   0  0  0  0  0  0  0  0  0  0  0  0
  1  2  1  0  0  0  0
  2  8  1  0  0  0  0
  2  3  2  0  0  0  0
  3 16  1  0  0  0  0
  4  3  1  0  0  0  0
  4  9  1  0  0  0  0
  5  4  2  0  0  0  0
  6  1  2  0  0  0  0
  6  5  1  0  0  0  0
  7  1  1  0  0  0  0
 10  5  1  0  0  0  0
 12 11  3  0  0  0  0
 13 17  1  0  0  0  0
 14 13  1  0  0  0  0
 15 13  1  0  0  0  0
 18  6  1  0  0  0  0
M  END
