Coordinates from ORCA-job Ph-N2-BF4-B3LYPG-aug-cc-pVDZ-scan-d09-49-n400
 OpenBabel11081710393D

 18 17  0  0  0  0  0  0  0  0999 V2000
   -0.7228   -0.2330    0.1900 C   0  0  0  0  0  0  0  0  0  0  0  0
    0.3733   -0.0628   -0.6273 C   0  0  0  0  0  0  0  0  0  0  0  0
    0.8287    1.2732   -0.9606 C   0  0  0  0  0  0  0  0  0  0  0  0
    0.0941    2.3999   -0.4158 C   0  0  0  0  0  0  0  0  0  0  0  0
   -1.0018    2.1884    0.3848 C   0  0  0  0  0  0  0  0  0  0  0  0
   -1.4047    0.8785    0.6991 C   0  0  0  0  0  0  0  0  0  0  0  0
   -1.0255   -1.2401    0.4685 H   0  0  0  0  0  0  0  0  0  0  0  0
    0.9533   -0.8987   -1.0080 H   0  0  0  0  0  0  0  0  0  0  0  0
    0.4650    3.3976   -0.6450 H   0  0  0  0  0  0  0  0  0  0  0  0
   -1.5350    3.0419    0.8001 H   0  0  0  0  0  0  0  0  0  0  0  0
    1.6922    1.4213   -1.5401 N   0  0  0  0  0  0  0  0  0  0  0  0
    2.6272    1.5819   -2.1665 N   0  0  0  0  0  0  0  0  0  0  0  0
    2.5286    0.3137    1.7259 B   0  0  0  0  0  0  0  0  0  0  0  0
    2.8069   -0.3078    0.4506 F   0  0  0  0  0  0  0  0  0  0  0  0
    3.6566    0.2968    2.5303 F   0  0  0  0  0  0  0  0  0  0  0  0
    2.1243    1.6647    1.4412 F   0  0  0  0  0  0  0  0  0  0  0  0
    1.4346   -0.3659    2.3146 F   0  0  0  0  0  0  0  0  0  0  0  0
   -2.2547    0.7264    1.3642 H   0  0  0  0  0  0  0  0  0  0  0  0
  1  7  1  0  0  0  0
  1  6  2  0  0  0  0
  2  1  1  0  0  0  0
  3  2  2  0  0  0  0
  3  4  1  0  0  0  0
  4  5  2  0  0  0  0
  5  6  1  0  0  0  0
  5 10  1  0  0  0  0
  6 18  1  0  0  0  0
  8  2  1  0  0  0  0
  9  4  1  0  0  0  0
 11  3  1  0  0  0  0
 12 11  1  0  0  0  0
 13 17  1  0  0  0  0
 13 15  1  0  0  0  0
 14 13  1  0  0  0  0
 16 13  1  0  0  0  0
M  RAD  2  11   2  12   3
M  END
