Coordinates from ORCA-job Ph-N2-BF4-B3LYPG-aug-cc-pVDZ-scan-d09-49-n400
 OpenBabel11081710403D

 18 16  0  0  0  0  0  0  0  0999 V2000
   -1.3573   -0.0913    0.0674 C   0  0  0  0  0  0  0  0  0  0  0  0
   -0.0411    0.0141    0.5309 C   0  0  0  0  0  0  0  0  0  0  0  0
    0.4173    1.2719    0.9001 C   0  0  0  0  0  0  0  0  0  0  0  0
   -0.3611    2.4199    0.8277 C   0  0  0  0  0  0  0  0  0  0  0  0
   -1.6741    2.2925    0.3618 C   0  0  0  0  0  0  0  0  0  0  0  0
   -2.1733    1.0417   -0.0173 C   0  0  0  0  0  0  0  0  0  0  0  0
   -1.7438   -1.0669   -0.2281 H   0  0  0  0  0  0  0  0  0  0  0  0
    0.6164   -0.8503    0.6028 H   0  0  0  0  0  0  0  0  0  0  0  0
    0.0533    3.3806    1.1288 H   0  0  0  0  0  0  0  0  0  0  0  0
   -2.3071    3.1776    0.2960 H   0  0  0  0  0  0  0  0  0  0  0  0
    3.2709    1.4841   -2.9284 N   0  0  0  0  0  0  0  0  0  0  0  0
    3.3100    1.4276   -4.0307 N   0  0  0  0  0  0  0  0  0  0  0  0
    3.7650   -0.1781    1.6279 B   0  0  0  0  0  0  0  0  0  0  0  0
    3.5034   -0.8669    0.5205 F   0  0  0  0  0  0  0  0  0  0  0  0
    4.5746    0.8712    1.5799 F   0  0  0  0  0  0  0  0  0  0  0  0
    1.7071    1.3925    1.3551 F   0  0  0  0  0  0  0  0  0  0  0  0
    3.2774   -0.5942    2.7908 F   0  0  0  0  0  0  0  0  0  0  0  0
   -3.1971    0.9500   -0.3794 H   0  0  0  0  0  0  0  0  0  0  0  0
  1  2  1  0  0  0  0
  2  8  1  0  0  0  0
  2  3  2  0  0  0  0
  3 16  1  0  0  0  0
  4  3  1  0  0  0  0
  4  9  1  0  0  0  0
  5  4  2  0  0  0  0
  6  1  2  0  0  0  0
  6  5  1  0  0  0  0
  7  1  1  0  0  0  0
 10  5  1  0  0  0  0
 12 11  3  0  0  0  0
 13 17  1  0  0  0  0
 14 13  1  0  0  0  0
 15 13  1  0  0  0  0
 18  6  1  0  0  0  0
M  END
