Coordinates from ORCA-job Ph-N2-BF4-B3LYPG-aug-cc-pVDZ-scan-d09-49-n400
 OpenBabel11081710393D

 18 16  0  0  0  0  0  0  0  0999 V2000
   -1.3410   -0.0986    0.0690 C   0  0  0  0  0  0  0  0  0  0  0  0
   -0.0291    0.0040    0.5445 C   0  0  0  0  0  0  0  0  0  0  0  0
    0.4386    1.2654    0.8894 C   0  0  0  0  0  0  0  0  0  0  0  0
   -0.3241    2.4196    0.7773 C   0  0  0  0  0  0  0  0  0  0  0  0
   -1.6336    2.2950    0.2994 C   0  0  0  0  0  0  0  0  0  0  0  0
   -2.1432    1.0410   -0.0532 C   0  0  0  0  0  0  0  0  0  0  0  0
   -1.7346   -1.0769   -0.2075 H   0  0  0  0  0  0  0  0  0  0  0  0
    0.6188   -0.8651    0.6428 H   0  0  0  0  0  0  0  0  0  0  0  0
    0.0979    3.3835    1.0567 H   0  0  0  0  0  0  0  0  0  0  0  0
   -2.2550    3.1855    0.2027 H   0  0  0  0  0  0  0  0  0  0  0  0
    3.1128    1.5297   -2.7688 N   0  0  0  0  0  0  0  0  0  0  0  0
    3.1133    1.4859   -3.8723 N   0  0  0  0  0  0  0  0  0  0  0  0
    3.7744   -0.1929    1.6225 B   0  0  0  0  0  0  0  0  0  0  0  0
    3.4994   -0.8789    0.5166 F   0  0  0  0  0  0  0  0  0  0  0  0
    4.5879    0.8530    1.5690 F   0  0  0  0  0  0  0  0  0  0  0  0
    1.7257    1.3835    1.3530 F   0  0  0  0  0  0  0  0  0  0  0  0
    3.2964   -0.6096    2.7895 F   0  0  0  0  0  0  0  0  0  0  0  0
   -3.1639    0.9520   -0.4246 H   0  0  0  0  0  0  0  0  0  0  0  0
  1  2  1  0  0  0  0
  2  8  1  0  0  0  0
  2  3  2  0  0  0  0
  3 16  1  0  0  0  0
  4  3  1  0  0  0  0
  4  9  1  0  0  0  0
  5  4  2  0  0  0  0
  6  1  2  0  0  0  0
  6  5  1  0  0  0  0
  7  1  1  0  0  0  0
 10  5  1  0  0  0  0
 12 11  3  0  0  0  0
 13 17  1  0  0  0  0
 14 13  1  0  0  0  0
 15 13  1  0  0  0  0
 18  6  1  0  0  0  0
M  END
