Coordinates from ORCA-job Ph-N2-BF4-B3LYPG-aug-cc-pVDZ-scan-d09-49-n400
 OpenBabel11081710403D

 18 16  0  0  0  0  0  0  0  0999 V2000
   -1.3581   -0.0900    0.0654 C   0  0  0  0  0  0  0  0  0  0  0  0
   -0.0414    0.0158    0.5274 C   0  0  0  0  0  0  0  0  0  0  0  0
    0.4155    1.2730    0.9006 C   0  0  0  0  0  0  0  0  0  0  0  0
   -0.3649    2.4199    0.8337 C   0  0  0  0  0  0  0  0  0  0  0  0
   -1.6783    2.2922    0.3691 C   0  0  0  0  0  0  0  0  0  0  0  0
   -2.1760    1.0420   -0.0141 C   0  0  0  0  0  0  0  0  0  0  0  0
   -1.7434   -1.0651   -0.2332 H   0  0  0  0  0  0  0  0  0  0  0  0
    0.6175   -0.8479    0.5954 H   0  0  0  0  0  0  0  0  0  0  0  0
    0.0485    3.3801    1.1379 H   0  0  0  0  0  0  0  0  0  0  0  0
   -2.3129    3.1765    0.3074 H   0  0  0  0  0  0  0  0  0  0  0  0
    3.2846    1.4770   -2.9417 N   0  0  0  0  0  0  0  0  0  0  0  0
    3.3271    1.4184   -4.0438 N   0  0  0  0  0  0  0  0  0  0  0  0
    3.7642   -0.1761    1.6286 B   0  0  0  0  0  0  0  0  0  0  0  0
    3.5035   -0.8659    0.5218 F   0  0  0  0  0  0  0  0  0  0  0  0
    4.5734    0.8736    1.5802 F   0  0  0  0  0  0  0  0  0  0  0  0
    1.7056    1.3938    1.3546 F   0  0  0  0  0  0  0  0  0  0  0  0
    3.2760   -0.5912    2.7917 F   0  0  0  0  0  0  0  0  0  0  0  0
   -3.2001    0.9500   -0.3751 H   0  0  0  0  0  0  0  0  0  0  0  0
  1  2  1  0  0  0  0
  2  8  1  0  0  0  0
  2  3  2  0  0  0  0
  3 16  1  0  0  0  0
  4  3  1  0  0  0  0
  4  9  1  0  0  0  0
  5  4  2  0  0  0  0
  6  1  2  0  0  0  0
  6  5  1  0  0  0  0
  7  1  1  0  0  0  0
 10  5  1  0  0  0  0
 12 11  3  0  0  0  0
 13 17  1  0  0  0  0
 14 13  1  0  0  0  0
 15 13  1  0  0  0  0
 18  6  1  0  0  0  0
M  END
