Coordinates from ORCA-job Ph-N2-BF4-B3LYPG-aug-cc-pVDZ-scan-d09-49-n400
 OpenBabel11081710393D

 18 16  0  0  0  0  0  0  0  0999 V2000
   -1.1829   -0.0829   -0.1262 C   0  0  0  0  0  0  0  0  0  0  0  0
    0.1045   -0.0021    0.4145 C   0  0  0  0  0  0  0  0  0  0  0  0
    0.6092    1.2567    0.7141 C   0  0  0  0  0  0  0  0  0  0  0  0
   -0.1231    2.4250    0.5453 C   0  0  0  0  0  0  0  0  0  0  0  0
   -1.4085    2.3246    0.0040 C   0  0  0  0  0  0  0  0  0  0  0  0
   -1.9388    1.0754   -0.3372 C   0  0  0  0  0  0  0  0  0  0  0  0
   -1.5963   -1.0594   -0.3792 H   0  0  0  0  0  0  0  0  0  0  0  0
    0.7109   -0.8895    0.5860 H   0  0  0  0  0  0  0  0  0  0  0  0
    0.3114    3.3846    0.8203 H   0  0  0  0  0  0  0  0  0  0  0  0
   -1.9981    3.2290   -0.1472 H   0  0  0  0  0  0  0  0  0  0  0  0
    1.9283    1.5102   -1.4465 N   0  0  0  0  0  0  0  0  0  0  0  0
    1.6752    1.4773   -2.5218 N   0  0  0  0  0  0  0  0  0  0  0  0
    3.8949   -0.2174    1.5877 B   0  0  0  0  0  0  0  0  0  0  0  0
    3.5116   -0.9935    0.5773 F   0  0  0  0  0  0  0  0  0  0  0  0
    4.7189    0.7986    1.3691 F   0  0  0  0  0  0  0  0  0  0  0  0
    1.8503    1.3493    1.2804 F   0  0  0  0  0  0  0  0  0  0  0  0
    3.5140   -0.5142    2.8242 F   0  0  0  0  0  0  0  0  0  0  0  0
   -2.9410    1.0043   -0.7590 H   0  0  0  0  0  0  0  0  0  0  0  0
  1  2  1  0  0  0  0
  2  8  1  0  0  0  0
  2  3  2  0  0  0  0
  3 16  1  0  0  0  0
  4  3  1  0  0  0  0
  4  9  1  0  0  0  0
  5  4  2  0  0  0  0
  6  1  2  0  0  0  0
  6  5  1  0  0  0  0
  7  1  1  0  0  0  0
 10  5  1  0  0  0  0
 12 11  3  0  0  0  0
 13 17  1  0  0  0  0
 14 13  1  0  0  0  0
 15 13  1  0  0  0  0
 18  6  1  0  0  0  0
M  END
