Coordinates from ORCA-job Ph-N2-BF4-B3LYPG-aug-cc-pVDZ-scan-d09-49-n400
 OpenBabel11081710393D

 18 17  0  0  0  0  0  0  0  0999 V2000
   -1.0533   -0.2394    0.2109 C   0  0  0  0  0  0  0  0  0  0  0  0
    0.2341   -0.0999   -0.3430 C   0  0  0  0  0  0  0  0  0  0  0  0
    0.5463    1.2107   -0.5255 C   0  0  0  0  0  0  0  0  0  0  0  0
   -0.0841    2.3909   -0.2604 C   0  0  0  0  0  0  0  0  0  0  0  0
   -1.3583    2.1785    0.2957 C   0  0  0  0  0  0  0  0  0  0  0  0
   -1.8312    0.8803    0.5199 C   0  0  0  0  0  0  0  0  0  0  0  0
   -1.4132   -1.2456    0.4214 H   0  0  0  0  0  0  0  0  0  0  0  0
    0.9187   -0.9227   -0.5232 H   0  0  0  0  0  0  0  0  0  0  0  0
    0.3448    3.3739   -0.4258 H   0  0  0  0  0  0  0  0  0  0  0  0
   -1.9602    3.0477    0.5584 H   0  0  0  0  0  0  0  0  0  0  0  0
    2.2234    1.4736   -1.3154 N   0  0  0  0  0  0  0  0  0  0  0  0
    3.1391    1.6881   -1.8887 N   0  0  0  0  0  0  0  0  0  0  0  0
    2.9675    0.3112    1.5001 B   0  0  0  0  0  0  0  0  0  0  0  0
    3.0587   -0.4191    0.2511 F   0  0  0  0  0  0  0  0  0  0  0  0
    4.0902    0.0817    2.2767 F   0  0  0  0  0  0  0  0  0  0  0  0
    2.8621    1.7039    1.1462 F   0  0  0  0  0  0  0  0  0  0  0  0
    1.7721   -0.0782    2.1443 F   0  0  0  0  0  0  0  0  0  0  0  0
   -2.8163    0.7405    0.9630 H   0  0  0  0  0  0  0  0  0  0  0  0
  1  7  1  0  0  0  0
  1  6  2  0  0  0  0
  2  1  1  0  0  0  0
  3  2  2  0  0  0  0
  3  4  1  0  0  0  0
  4  5  2  0  0  0  0
  5  6  1  0  0  0  0
  5 10  1  0  0  0  0
  6 18  1  0  0  0  0
  8  2  1  0  0  0  0
  9  4  1  0  0  0  0
 11  3  1  0  0  0  0
 12 11  1  0  0  0  0
 13 17  1  0  0  0  0
 13 15  1  0  0  0  0
 14 13  1  0  0  0  0
 16 13  1  0  0  0  0
M  RAD  2  11   2  12   3
M  END
