Coordinates from ORCA-job Ph-N2-BF4-B3LYPG-aug-cc-pVDZ-scan-d09-49-n400
 OpenBabel11081710393D

 18 16  0  0  0  0  0  0  0  0999 V2000
   -1.2214   -0.0917   -0.0627 C   0  0  0  0  0  0  0  0  0  0  0  0
    0.0694   -0.0055    0.4704 C   0  0  0  0  0  0  0  0  0  0  0  0
    0.5566    1.2542    0.7945 C   0  0  0  0  0  0  0  0  0  0  0  0
   -0.1739    2.4218    0.6142 C   0  0  0  0  0  0  0  0  0  0  0  0
   -1.4624    2.3144    0.0799 C   0  0  0  0  0  0  0  0  0  0  0  0
   -1.9874    1.0624   -0.2584 C   0  0  0  0  0  0  0  0  0  0  0  0
   -1.6272   -1.0688   -0.3253 H   0  0  0  0  0  0  0  0  0  0  0  0
    0.6873   -0.8876    0.6276 H   0  0  0  0  0  0  0  0  0  0  0  0
    0.2597    3.3830    0.8852 H   0  0  0  0  0  0  0  0  0  0  0  0
   -2.0565    3.2159   -0.0711 H   0  0  0  0  0  0  0  0  0  0  0  0
    2.2590    1.5458   -1.8704 N   0  0  0  0  0  0  0  0  0  0  0  0
    2.0449    1.5108   -2.9533 N   0  0  0  0  0  0  0  0  0  0  0  0
    3.8516   -0.2158    1.6049 B   0  0  0  0  0  0  0  0  0  0  0  0
    3.4973   -0.9614    0.5613 F   0  0  0  0  0  0  0  0  0  0  0  0
    4.6752    0.8103    1.4393 F   0  0  0  0  0  0  0  0  0  0  0  0
    1.8171    1.3567    1.3219 F   0  0  0  0  0  0  0  0  0  0  0  0
    3.4429   -0.5549    2.8218 F   0  0  0  0  0  0  0  0  0  0  0  0
   -2.9919    0.9864   -0.6741 H   0  0  0  0  0  0  0  0  0  0  0  0
  1  2  1  0  0  0  0
  2  8  1  0  0  0  0
  2  3  2  0  0  0  0
  3 16  1  0  0  0  0
  4  3  1  0  0  0  0
  4  9  1  0  0  0  0
  5  4  2  0  0  0  0
  6  1  2  0  0  0  0
  6  5  1  0  0  0  0
  7  1  1  0  0  0  0
 10  5  1  0  0  0  0
 12 11  3  0  0  0  0
 13 17  1  0  0  0  0
 14 13  1  0  0  0  0
 15 13  1  0  0  0  0
 18  6  1  0  0  0  0
M  END
