Coordinates from ORCA-job Ph-N2-BF4-B3LYPG-aug-cc-pVDZ-scan-d09-49-n400
 OpenBabel11081710393D

 18 17  0  0  0  0  0  0  0  0999 V2000
   -0.9196   -0.2526    0.1541 C   0  0  0  0  0  0  0  0  0  0  0  0
    0.2919   -0.0973   -0.4952 C   0  0  0  0  0  0  0  0  0  0  0  0
    0.7844    1.2231   -0.7518 C   0  0  0  0  0  0  0  0  0  0  0  0
    0.0457    2.3622   -0.2861 C   0  0  0  0  0  0  0  0  0  0  0  0
   -1.1501    2.1693    0.3713 C   0  0  0  0  0  0  0  0  0  0  0  0
   -1.6362    0.8676    0.5864 C   0  0  0  0  0  0  0  0  0  0  0  0
   -1.2866   -1.2559    0.3617 H   0  0  0  0  0  0  0  0  0  0  0  0
    0.9107   -0.9419   -0.7869 H   0  0  0  0  0  0  0  0  0  0  0  0
    0.4644    3.3535   -0.4492 H   0  0  0  0  0  0  0  0  0  0  0  0
   -1.7072    3.0308    0.7360 H   0  0  0  0  0  0  0  0  0  0  0  0
    1.7753    1.3752   -1.3165 N   0  0  0  0  0  0  0  0  0  0  0  0
    2.7336    1.5363   -1.8847 N   0  0  0  0  0  0  0  0  0  0  0  0
    2.8036    0.3883    1.5625 B   0  0  0  0  0  0  0  0  0  0  0  0
    3.0703   -0.3388    0.3473 F   0  0  0  0  0  0  0  0  0  0  0  0
    3.8120    0.1964    2.4909 F   0  0  0  0  0  0  0  0  0  0  0  0
    2.6882    1.7744    1.1995 F   0  0  0  0  0  0  0  0  0  0  0  0
    1.5388   -0.0448    2.0502 F   0  0  0  0  0  0  0  0  0  0  0  0
   -2.5788    0.7303    1.1163 H   0  0  0  0  0  0  0  0  0  0  0  0
  1  7  1  0  0  0  0
  1  6  2  0  0  0  0
  2  1  1  0  0  0  0
  3  2  2  0  0  0  0
  3  4  1  0  0  0  0
  4  5  2  0  0  0  0
  5  6  1  0  0  0  0
  5 10  1  0  0  0  0
  6 18  1  0  0  0  0
  8  2  1  0  0  0  0
  9  4  1  0  0  0  0
 11  3  1  0  0  0  0
 12 11  1  0  0  0  0
 13 17  1  0  0  0  0
 13 15  1  0  0  0  0
 14 13  1  0  0  0  0
 16 13  1  0  0  0  0
M  RAD  2  11   2  12   3
M  END
