Coordinates from ORCA-job Ph-N2-BF4-B3LYPG-aug-cc-pVDZ-scan-d09-49-n400
 OpenBabel11081710393D

 18 16  0  0  0  0  0  0  0  0999 V2000
   -1.1871   -0.0844   -0.1182 C   0  0  0  0  0  0  0  0  0  0  0  0
    0.0999   -0.0033    0.4240 C   0  0  0  0  0  0  0  0  0  0  0  0
    0.6003    1.2552    0.7310 C   0  0  0  0  0  0  0  0  0  0  0  0
   -0.1292    2.4240    0.5558 C   0  0  0  0  0  0  0  0  0  0  0  0
   -1.4142    2.3230    0.0130 C   0  0  0  0  0  0  0  0  0  0  0  0
   -1.9437    1.0735   -0.3281 C   0  0  0  0  0  0  0  0  0  0  0  0
   -1.5988   -1.0608   -0.3743 H   0  0  0  0  0  0  0  0  0  0  0  0
    0.7074   -0.8902    0.5939 H   0  0  0  0  0  0  0  0  0  0  0  0
    0.3050    3.3838    0.8303 H   0  0  0  0  0  0  0  0  0  0  0  0
   -2.0034    3.2273   -0.1406 H   0  0  0  0  0  0  0  0  0  0  0  0
    1.9685    1.5165   -1.5050 N   0  0  0  0  0  0  0  0  0  0  0  0
    1.7196    1.4885   -2.5811 N   0  0  0  0  0  0  0  0  0  0  0  0
    3.8890   -0.2179    1.5901 B   0  0  0  0  0  0  0  0  0  0  0  0
    3.5067   -0.9948    0.5798 F   0  0  0  0  0  0  0  0  0  0  0  0
    4.7122    0.7987    1.3714 F   0  0  0  0  0  0  0  0  0  0  0  0
    1.8457    1.3495    1.2885 F   0  0  0  0  0  0  0  0  0  0  0  0
    3.5080   -0.5148    2.8266 F   0  0  0  0  0  0  0  0  0  0  0  0
   -2.9454    1.0020   -0.7511 H   0  0  0  0  0  0  0  0  0  0  0  0
  1  2  1  0  0  0  0
  2  8  1  0  0  0  0
  2  3  2  0  0  0  0
  3 16  1  0  0  0  0
  4  3  1  0  0  0  0
  4  9  1  0  0  0  0
  5  4  2  0  0  0  0
  6  1  2  0  0  0  0
  6  5  1  0  0  0  0
  7  1  1  0  0  0  0
 10  5  1  0  0  0  0
 12 11  3  0  0  0  0
 13 17  1  0  0  0  0
 14 13  1  0  0  0  0
 15 13  1  0  0  0  0
 18  6  1  0  0  0  0
M  END
