Coordinates from ORCA-job Ph-N2-BF4-B3LYPG-aug-cc-pVDZ-scan-d09-49-n400
 OpenBabel11081710393D

 18 17  0  0  0  0  0  0  0  0999 V2000
   -0.9799   -0.2570    0.1490 C   0  0  0  0  0  0  0  0  0  0  0  0
    0.2494   -0.1057   -0.4822 C   0  0  0  0  0  0  0  0  0  0  0  0
    0.7019    1.2067   -0.6900 C   0  0  0  0  0  0  0  0  0  0  0  0
    0.0088    2.3567   -0.2710 C   0  0  0  0  0  0  0  0  0  0  0  0
   -1.2101    2.1651    0.3627 C   0  0  0  0  0  0  0  0  0  0  0  0
   -1.7009    0.8662    0.5679 C   0  0  0  0  0  0  0  0  0  0  0  0
   -1.3575   -1.2585    0.3461 H   0  0  0  0  0  0  0  0  0  0  0  0
    0.8725   -0.9504   -0.7611 H   0  0  0  0  0  0  0  0  0  0  0  0
    0.4355    3.3456   -0.4209 H   0  0  0  0  0  0  0  0  0  0  0  0
   -1.7738    3.0276    0.7142 H   0  0  0  0  0  0  0  0  0  0  0  0
    1.9237    1.3864   -1.3086 N   0  0  0  0  0  0  0  0  0  0  0  0
    2.8828    1.5513   -1.8423 N   0  0  0  0  0  0  0  0  0  0  0  0
    2.8650    0.3939    1.5483 B   0  0  0  0  0  0  0  0  0  0  0  0
    3.0643   -0.3562    0.3283 F   0  0  0  0  0  0  0  0  0  0  0  0
    3.9116    0.1841    2.4297 F   0  0  0  0  0  0  0  0  0  0  0  0
    2.7849    1.7786    1.1612 F   0  0  0  0  0  0  0  0  0  0  0  0
    1.6152    0.0108    2.0936 F   0  0  0  0  0  0  0  0  0  0  0  0
   -2.6529    0.7306    1.0808 H   0  0  0  0  0  0  0  0  0  0  0  0
  1  7  1  0  0  0  0
  1  6  2  0  0  0  0
  2  1  1  0  0  0  0
  3  2  2  0  0  0  0
  3  4  1  0  0  0  0
  4  5  2  0  0  0  0
  5  6  1  0  0  0  0
  5 10  1  0  0  0  0
  6 18  1  0  0  0  0
  8  2  1  0  0  0  0
  9  4  1  0  0  0  0
 11  3  1  0  0  0  0
 12 11  1  0  0  0  0
 13 17  1  0  0  0  0
 13 15  1  0  0  0  0
 14 13  1  0  0  0  0
 16 13  1  0  0  0  0
M  RAD  2  11   2  12   3
M  END
