Coordinates from ORCA-job Ph-N2-BF4-B3LYPG-aug-cc-pVDZ-scan-d09-49-n400
 OpenBabel11081710393D

 18 17  0  0  0  0  0  0  0  0999 V2000
   -0.6858   -0.2291    0.1999 C   0  0  0  0  0  0  0  0  0  0  0  0
    0.3987   -0.0618   -0.6258 C   0  0  0  0  0  0  0  0  0  0  0  0
    0.8731    1.2863   -0.9984 C   0  0  0  0  0  0  0  0  0  0  0  0
    0.1065    2.4094   -0.4211 C   0  0  0  0  0  0  0  0  0  0  0  0
   -0.9760    2.1920    0.3866 C   0  0  0  0  0  0  0  0  0  0  0  0
   -1.3700    0.8803    0.7104 C   0  0  0  0  0  0  0  0  0  0  0  0
   -0.9800   -1.2371    0.4854 H   0  0  0  0  0  0  0  0  0  0  0  0
    0.9820   -0.8901   -1.0187 H   0  0  0  0  0  0  0  0  0  0  0  0
    0.4771    3.4045   -0.6645 H   0  0  0  0  0  0  0  0  0  0  0  0
   -1.5095    3.0445    0.8043 H   0  0  0  0  0  0  0  0  0  0  0  0
    1.6326    1.4195   -1.5362 N   0  0  0  0  0  0  0  0  0  0  0  0
    2.5638    1.5837   -2.1976 N   0  0  0  0  0  0  0  0  0  0  0  0
    2.4883    0.3026    1.7336 B   0  0  0  0  0  0  0  0  0  0  0  0
    2.7849   -0.3073    0.4579 F   0  0  0  0  0  0  0  0  0  0  0  0
    3.6086    0.3047    2.5465 F   0  0  0  0  0  0  0  0  0  0  0  0
    2.0586    1.6465    1.4487 F   0  0  0  0  0  0  0  0  0  0  0  0
    1.4020   -0.3989    2.3124 F   0  0  0  0  0  0  0  0  0  0  0  0
   -2.2142    0.7264    1.3824 H   0  0  0  0  0  0  0  0  0  0  0  0
  1  7  1  0  0  0  0
  1  6  2  0  0  0  0
  2  1  1  0  0  0  0
  3  2  2  0  0  0  0
  3  4  1  0  0  0  0
  4  5  2  0  0  0  0
  5  6  1  0  0  0  0
  5 10  1  0  0  0  0
  6 18  1  0  0  0  0
  8  2  1  0  0  0  0
  9  4  1  0  0  0  0
 11  3  1  0  0  0  0
 12 11  1  0  0  0  0
 13 17  1  0  0  0  0
 13 15  1  0  0  0  0
 14 13  1  0  0  0  0
 16 13  1  0  0  0  0
M  RAD  2  11   2  12   3
M  END
