Coordinates from ORCA-job Ph-N2-BF4-B3LYPG-aug-cc-pVDZ-scan-d09-49-n400
 OpenBabel11081710403D

 18 16  0  0  0  0  0  0  0  0999 V2000
   -1.3544   -0.0953    0.0738 C   0  0  0  0  0  0  0  0  0  0  0  0
   -0.0402    0.0091    0.5424 C   0  0  0  0  0  0  0  0  0  0  0  0
    0.4217    1.2688    0.9017 C   0  0  0  0  0  0  0  0  0  0  0  0
   -0.3488    2.4195    0.8102 C   0  0  0  0  0  0  0  0  0  0  0  0
   -1.6605    2.2931    0.3389 C   0  0  0  0  0  0  0  0  0  0  0  0
   -2.1645    1.0409   -0.0278 C   0  0  0  0  0  0  0  0  0  0  0  0
   -1.7436   -1.0722   -0.2139 H   0  0  0  0  0  0  0  0  0  0  0  0
    0.6139   -0.8570    0.6247 H   0  0  0  0  0  0  0  0  0  0  0  0
    0.0685    3.3822    1.1004 H   0  0  0  0  0  0  0  0  0  0  0  0
   -2.2881    3.1809    0.2583 H   0  0  0  0  0  0  0  0  0  0  0  0
    3.2264    1.5058   -2.8867 N   0  0  0  0  0  0  0  0  0  0  0  0
    3.2546    1.4558   -3.9896 N   0  0  0  0  0  0  0  0  0  0  0  0
    3.7678   -0.1845    1.6254 B   0  0  0  0  0  0  0  0  0  0  0  0
    3.5023   -0.8700    0.5168 F   0  0  0  0  0  0  0  0  0  0  0  0
    4.5783    0.8640    1.5783 F   0  0  0  0  0  0  0  0  0  0  0  0
    1.7112    1.3882    1.3583 F   0  0  0  0  0  0  0  0  0  0  0  0
    3.2829   -0.6037    2.7886 F   0  0  0  0  0  0  0  0  0  0  0  0
   -3.1869    0.9504   -0.3940 H   0  0  0  0  0  0  0  0  0  0  0  0
  1  2  1  0  0  0  0
  2  8  1  0  0  0  0
  2  3  2  0  0  0  0
  3 16  1  0  0  0  0
  4  3  1  0  0  0  0
  4  9  1  0  0  0  0
  5  4  2  0  0  0  0
  6  1  2  0  0  0  0
  6  5  1  0  0  0  0
  7  1  1  0  0  0  0
 10  5  1  0  0  0  0
 12 11  3  0  0  0  0
 13 17  1  0  0  0  0
 14 13  1  0  0  0  0
 15 13  1  0  0  0  0
 18  6  1  0  0  0  0
M  END
