Coordinates from ORCA-job Ph-N2-BF4-B3LYPG-aug-cc-pVDZ-scan-d09-49-n400
 OpenBabel11081710393D

 18 16  0  0  0  0  0  0  0  0999 V2000
   -1.3211   -0.0990    0.0501 C   0  0  0  0  0  0  0  0  0  0  0  0
   -0.0127    0.0006    0.5359 C   0  0  0  0  0  0  0  0  0  0  0  0
    0.4605    1.2624    0.8717 C   0  0  0  0  0  0  0  0  0  0  0  0
   -0.2949    2.4197    0.7419 C   0  0  0  0  0  0  0  0  0  0  0  0
   -1.6008    2.2985    0.2541 C   0  0  0  0  0  0  0  0  0  0  0  0
   -2.1153    1.0441   -0.0902 C   0  0  0  0  0  0  0  0  0  0  0  0
   -1.7182   -1.0777   -0.2199 H   0  0  0  0  0  0  0  0  0  0  0  0
    0.6285   -0.8718    0.6487 H   0  0  0  0  0  0  0  0  0  0  0  0
    0.1331    3.3829    1.0146 H   0  0  0  0  0  0  0  0  0  0  0  0
   -2.2160    3.1917    0.1436 H   0  0  0  0  0  0  0  0  0  0  0  0
    2.9559    1.5431   -2.6046 N   0  0  0  0  0  0  0  0  0  0  0  0
    2.9146    1.5027   -3.7075 N   0  0  0  0  0  0  0  0  0  0  0  0
    3.7894   -0.1999    1.6203 B   0  0  0  0  0  0  0  0  0  0  0  0
    3.5032   -0.8941    0.5223 F   0  0  0  0  0  0  0  0  0  0  0  0
    4.6042    0.8441    1.5519 F   0  0  0  0  0  0  0  0  0  0  0  0
    1.7427    1.3778    1.3477 F   0  0  0  0  0  0  0  0  0  0  0  0
    3.3206   -0.6067    2.7944 F   0  0  0  0  0  0  0  0  0  0  0  0
   -3.1333    0.9576   -0.4692 H   0  0  0  0  0  0  0  0  0  0  0  0
  1  2  1  0  0  0  0
  2  8  1  0  0  0  0
  2  3  2  0  0  0  0
  3 16  1  0  0  0  0
  4  3  1  0  0  0  0
  4  9  1  0  0  0  0
  5  4  2  0  0  0  0
  6  1  2  0  0  0  0
  6  5  1  0  0  0  0
  7  1  1  0  0  0  0
 10  5  1  0  0  0  0
 12 11  3  0  0  0  0
 13 17  1  0  0  0  0
 14 13  1  0  0  0  0
 15 13  1  0  0  0  0
 18  6  1  0  0  0  0
M  END
