Coordinates from ORCA-job Ph-N2-BF4-B3LYPG-aug-cc-pVDZ-scan-d09-49-n400
 OpenBabel11081710393D

 18 16  0  0  0  0  0  0  0  0999 V2000
   -1.2807   -0.0969    0.0077 C   0  0  0  0  0  0  0  0  0  0  0  0
    0.0197   -0.0021    0.5153 C   0  0  0  0  0  0  0  0  0  0  0  0
    0.4989    1.2598    0.8436 C   0  0  0  0  0  0  0  0  0  0  0  0
   -0.2458    2.4218    0.6870 C   0  0  0  0  0  0  0  0  0  0  0  0
   -1.5438    2.3053    0.1778 C   0  0  0  0  0  0  0  0  0  0  0  0
   -2.0625    1.0510   -0.1607 C   0  0  0  0  0  0  0  0  0  0  0  0
   -1.6814   -1.0756   -0.2569 H   0  0  0  0  0  0  0  0  0  0  0  0
    0.6506   -0.8787    0.6507 H   0  0  0  0  0  0  0  0  0  0  0  0
    0.1840    3.3850    0.9568 H   0  0  0  0  0  0  0  0  0  0  0  0
   -2.1498    3.2020    0.0464 H   0  0  0  0  0  0  0  0  0  0  0  0
    2.6725    1.5486   -2.2933 N   0  0  0  0  0  0  0  0  0  0  0  0
    2.5559    1.5084   -3.3909 N   0  0  0  0  0  0  0  0  0  0  0  0
    3.8164   -0.2085    1.6076 B   0  0  0  0  0  0  0  0  0  0  0  0
    3.5048   -0.9209    0.5282 F   0  0  0  0  0  0  0  0  0  0  0  0
    4.6352    0.8296    1.5047 F   0  0  0  0  0  0  0  0  0  0  0  0
    1.7722    1.3708    1.3409 F   0  0  0  0  0  0  0  0  0  0  0  0
    3.3690   -0.5919    2.7976 F   0  0  0  0  0  0  0  0  0  0  0  0
   -3.0745    0.9681   -0.5566 H   0  0  0  0  0  0  0  0  0  0  0  0
  1  2  1  0  0  0  0
  2  8  1  0  0  0  0
  2  3  2  0  0  0  0
  3 16  1  0  0  0  0
  4  3  1  0  0  0  0
  4  9  1  0  0  0  0
  5  4  2  0  0  0  0
  6  1  2  0  0  0  0
  6  5  1  0  0  0  0
  7  1  1  0  0  0  0
 10  5  1  0  0  0  0
 12 11  3  0  0  0  0
 13 17  1  0  0  0  0
 14 13  1  0  0  0  0
 15 13  1  0  0  0  0
 18  6  1  0  0  0  0
M  END
