Coordinates from ORCA-job Ph-N2-BF4-B3LYPG-aug-cc-pVDZ-scan-d09-49-n400
 OpenBabel11081710393D

 18 17  0  0  0  0  0  0  0  0999 V2000
   -1.0146   -0.2575    0.1474 C   0  0  0  0  0  0  0  0  0  0  0  0
    0.2317   -0.1111   -0.4597 C   0  0  0  0  0  0  0  0  0  0  0  0
    0.6627    1.1989   -0.6468 C   0  0  0  0  0  0  0  0  0  0  0  0
   -0.0098    2.3561   -0.2559 C   0  0  0  0  0  0  0  0  0  0  0  0
   -1.2466    2.1644    0.3530 C   0  0  0  0  0  0  0  0  0  0  0  0
   -1.7433    0.8674    0.5481 C   0  0  0  0  0  0  0  0  0  0  0  0
   -1.3987   -1.2584    0.3353 H   0  0  0  0  0  0  0  0  0  0  0  0
    0.8630   -0.9541   -0.7229 H   0  0  0  0  0  0  0  0  0  0  0  0
    0.4246    3.3423   -0.3975 H   0  0  0  0  0  0  0  0  0  0  0  0
   -1.8159    3.0290    0.6903 H   0  0  0  0  0  0  0  0  0  0  0  0
    1.9945    1.3922   -1.2897 N   0  0  0  0  0  0  0  0  0  0  0  0
    2.9454    1.5664   -1.8280 N   0  0  0  0  0  0  0  0  0  0  0  0
    2.9068    0.3921    1.5362 B   0  0  0  0  0  0  0  0  0  0  0  0
    3.0629   -0.3700    0.3152 F   0  0  0  0  0  0  0  0  0  0  0  0
    3.9773    0.1758    2.3866 F   0  0  0  0  0  0  0  0  0  0  0  0
    2.8375    1.7754    1.1366 F   0  0  0  0  0  0  0  0  0  0  0  0
    1.6699    0.0334    2.1181 F   0  0  0  0  0  0  0  0  0  0  0  0
   -2.7068    0.7337    1.0395 H   0  0  0  0  0  0  0  0  0  0  0  0
  1  7  1  0  0  0  0
  1  6  2  0  0  0  0
  2  1  1  0  0  0  0
  3  2  2  0  0  0  0
  3  4  1  0  0  0  0
  4  5  2  0  0  0  0
  5  6  1  0  0  0  0
  5 10  1  0  0  0  0
  6 18  1  0  0  0  0
  8  2  1  0  0  0  0
  9  4  1  0  0  0  0
 11  3  1  0  0  0  0
 12 11  1  0  0  0  0
 13 17  1  0  0  0  0
 13 15  1  0  0  0  0
 14 13  1  0  0  0  0
 16 13  1  0  0  0  0
M  RAD  2  11   2  12   3
M  END
