Coordinates from ORCA-job Ph-N2-BF4-B3LYPG-aug-cc-pVDZ-scan-d09-49-n400
 OpenBabel11081710393D

 18 16  0  0  0  0  0  0  0  0999 V2000
   -1.1909   -0.0857   -0.1121 C   0  0  0  0  0  0  0  0  0  0  0  0
    0.0963   -0.0044    0.4298 C   0  0  0  0  0  0  0  0  0  0  0  0
    0.5939    1.2538    0.7412 C   0  0  0  0  0  0  0  0  0  0  0  0
   -0.1334    2.4230    0.5619 C   0  0  0  0  0  0  0  0  0  0  0  0
   -1.4186    2.3217    0.0193 C   0  0  0  0  0  0  0  0  0  0  0  0
   -1.9483    1.0720   -0.3204 C   0  0  0  0  0  0  0  0  0  0  0  0
   -1.6017   -1.0620   -0.3702 H   0  0  0  0  0  0  0  0  0  0  0  0
    0.7069   -0.8897    0.5967 H   0  0  0  0  0  0  0  0  0  0  0  0
    0.3043    3.3821    0.8333 H   0  0  0  0  0  0  0  0  0  0  0  0
   -2.0072    3.2262   -0.1361 H   0  0  0  0  0  0  0  0  0  0  0  0
    1.9960    1.5223   -1.5440 N   0  0  0  0  0  0  0  0  0  0  0  0
    1.7517    1.4972   -2.6211 N   0  0  0  0  0  0  0  0  0  0  0  0
    3.8849   -0.2181    1.5924 B   0  0  0  0  0  0  0  0  0  0  0  0
    3.5044   -0.9948    0.5813 F   0  0  0  0  0  0  0  0  0  0  0  0
    4.7072    0.7994    1.3751 F   0  0  0  0  0  0  0  0  0  0  0  0
    1.8421    1.3490    1.2936 F   0  0  0  0  0  0  0  0  0  0  0  0
    3.5031   -0.5163    2.8284 F   0  0  0  0  0  0  0  0  0  0  0  0
   -2.9501    1.0003   -0.7430 H   0  0  0  0  0  0  0  0  0  0  0  0
  1  2  1  0  0  0  0
  2  8  1  0  0  0  0
  2  3  2  0  0  0  0
  3 16  1  0  0  0  0
  4  3  1  0  0  0  0
  4  9  1  0  0  0  0
  5  4  2  0  0  0  0
  6  1  2  0  0  0  0
  6  5  1  0  0  0  0
  7  1  1  0  0  0  0
 10  5  1  0  0  0  0
 12 11  3  0  0  0  0
 13 17  1  0  0  0  0
 14 13  1  0  0  0  0
 15 13  1  0  0  0  0
 18  6  1  0  0  0  0
M  END
