Coordinates from ORCA-job Ph-N2-BF4-B3LYPG-aug-cc-pVDZ-scan-d09-49-n400
 OpenBabel11081710393D

 18 16  0  0  0  0  0  0  0  0999 V2000
   -1.1773   -0.0798   -0.1407 C   0  0  0  0  0  0  0  0  0  0  0  0
    0.1123    0.0006    0.3932 C   0  0  0  0  0  0  0  0  0  0  0  0
    0.6284    1.2605    0.6723 C   0  0  0  0  0  0  0  0  0  0  0  0
   -0.1128    2.4273    0.5232 C   0  0  0  0  0  0  0  0  0  0  0  0
   -1.4006    2.3279   -0.0107 C   0  0  0  0  0  0  0  0  0  0  0  0
   -1.9324    1.0791   -0.3519 C   0  0  0  0  0  0  0  0  0  0  0  0
   -1.5952   -1.0566   -0.3849 H   0  0  0  0  0  0  0  0  0  0  0  0
    0.7175   -0.8870    0.5676 H   0  0  0  0  0  0  0  0  0  0  0  0
    0.3230    3.3855    0.8007 H   0  0  0  0  0  0  0  0  0  0  0  0
   -1.9922    3.2323   -0.1535 H   0  0  0  0  0  0  0  0  0  0  0  0
    1.8571    1.5018   -1.3442 N   0  0  0  0  0  0  0  0  0  0  0  0
    1.5986    1.4539   -2.4185 N   0  0  0  0  0  0  0  0  0  0  0  0
    3.9085   -0.2178    1.5884 B   0  0  0  0  0  0  0  0  0  0  0  0
    3.5242   -0.9878    0.5736 F   0  0  0  0  0  0  0  0  0  0  0  0
    4.7348    0.7974    1.3747 F   0  0  0  0  0  0  0  0  0  0  0  0
    1.8583    1.3490    1.2619 F   0  0  0  0  0  0  0  0  0  0  0  0
    3.5252   -0.5182    2.8230 F   0  0  0  0  0  0  0  0  0  0  0  0
   -2.9369    1.0078   -0.7681 H   0  0  0  0  0  0  0  0  0  0  0  0
  1  2  1  0  0  0  0
  2  8  1  0  0  0  0
  2  3  2  0  0  0  0
  3 16  1  0  0  0  0
  4  3  1  0  0  0  0
  4  9  1  0  0  0  0
  5  4  2  0  0  0  0
  6  1  2  0  0  0  0
  6  5  1  0  0  0  0
  7  1  1  0  0  0  0
 10  5  1  0  0  0  0
 12 11  3  0  0  0  0
 13 17  1  0  0  0  0
 14 13  1  0  0  0  0
 15 13  1  0  0  0  0
 18  6  1  0  0  0  0
M  END
