Coordinates from ORCA-job Ph-N2-BF4-B3LYPG-aug-cc-pVDZ-scan-d09-49-n400
 OpenBabel11081710393D

 18 16  0  0  0  0  0  0  0  0999 V2000
   -1.2866   -0.0972    0.0137 C   0  0  0  0  0  0  0  0  0  0  0  0
    0.0150   -0.0018    0.5181 C   0  0  0  0  0  0  0  0  0  0  0  0
    0.4938    1.2601    0.8468 C   0  0  0  0  0  0  0  0  0  0  0  0
   -0.2523    2.4216    0.6937 C   0  0  0  0  0  0  0  0  0  0  0  0
   -1.5515    2.3045    0.1876 C   0  0  0  0  0  0  0  0  0  0  0  0
   -2.0699    1.0501   -0.1511 C   0  0  0  0  0  0  0  0  0  0  0  0
   -1.6870   -1.0759   -0.2511 H   0  0  0  0  0  0  0  0  0  0  0  0
    0.6471   -0.8780    0.6508 H   0  0  0  0  0  0  0  0  0  0  0  0
    0.1773    3.3849    0.9635 H   0  0  0  0  0  0  0  0  0  0  0  0
   -2.1587    3.2008    0.0588 H   0  0  0  0  0  0  0  0  0  0  0  0
    2.7106    1.5484   -2.3336 N   0  0  0  0  0  0  0  0  0  0  0  0
    2.6036    1.5081   -3.4321 N   0  0  0  0  0  0  0  0  0  0  0  0
    3.8135   -0.2075    1.6091 B   0  0  0  0  0  0  0  0  0  0  0  0
    3.5067   -0.9177    0.5268 F   0  0  0  0  0  0  0  0  0  0  0  0
    4.6311    0.8320    1.5117 F   0  0  0  0  0  0  0  0  0  0  0  0
    1.7683    1.3716    1.3411 F   0  0  0  0  0  0  0  0  0  0  0  0
    3.3624   -0.5946    2.7965 F   0  0  0  0  0  0  0  0  0  0  0  0
   -3.0828    0.9668   -0.5446 H   0  0  0  0  0  0  0  0  0  0  0  0
  1  2  1  0  0  0  0
  2  8  1  0  0  0  0
  2  3  2  0  0  0  0
  3 16  1  0  0  0  0
  4  3  1  0  0  0  0
  4  9  1  0  0  0  0
  5  4  2  0  0  0  0
  6  1  2  0  0  0  0
  6  5  1  0  0  0  0
  7  1  1  0  0  0  0
 10  5  1  0  0  0  0
 12 11  3  0  0  0  0
 13 17  1  0  0  0  0
 14 13  1  0  0  0  0
 15 13  1  0  0  0  0
 18  6  1  0  0  0  0
M  END
