Coordinates from ORCA-job Ph-N2-BF4-B3LYPG-aug-cc-pVDZ-scan-d09-49-n400
 OpenBabel11081710393D

 18 16  0  0  0  0  0  0  0  0999 V2000
   -1.0214   -0.0560    0.5103 C   0  0  0  0  0  0  0  0  0  0  0  0
    0.3112    0.1499    0.0699 C   0  0  0  0  0  0  0  0  0  0  0  0
    0.4178    1.4085   -0.3858 C   0  0  0  0  0  0  0  0  0  0  0  0
   -0.3569    2.5106   -0.5307 C   0  0  0  0  0  0  0  0  0  0  0  0
   -1.6627    2.2233   -0.0709 C   0  0  0  0  0  0  0  0  0  0  0  0
   -1.9802    0.9586    0.4370 C   0  0  0  0  0  0  0  0  0  0  0  0
   -1.2560   -1.0330    0.9325 H   0  0  0  0  0  0  0  0  0  0  0  0
    1.1208   -0.5789    0.1553 H   0  0  0  0  0  0  0  0  0  0  0  0
   -0.0491    3.4722   -0.9276 H   0  0  0  0  0  0  0  0  0  0  0  0
   -2.4066    3.0182   -0.1230 H   0  0  0  0  0  0  0  0  0  0  0  0
    2.3361    1.8138   -1.1182 N   0  0  0  0  0  0  0  0  0  0  0  0
    3.2978    2.1144   -1.5634 N   0  0  0  0  0  0  0  0  0  0  0  0
    3.2056   -0.1456    1.3968 B   0  0  0  0  0  0  0  0  0  0  0  0
    3.1262   -0.5605    0.0093 F   0  0  0  0  0  0  0  0  0  0  0  0
    4.4733   -0.3724    1.9019 F   0  0  0  0  0  0  0  0  0  0  0  0
    2.8749    1.2489    1.4238 F   0  0  0  0  0  0  0  0  0  0  0  0
    2.2010   -0.8614    2.0963 F   0  0  0  0  0  0  0  0  0  0  0  0
   -2.9914    0.7652    0.7926 H   0  0  0  0  0  0  0  0  0  0  0  0
  1  7  1  0  0  0  0
  2  8  1  0  0  0  0
  2  1  2  0  0  0  0
  3  2  1  0  0  0  0
  4  3  2  0  0  0  0
  4  5  1  0  0  0  0
  5  6  2  0  0  0  0
  6  1  1  0  0  0  0
  6 18  1  0  0  0  0
  9  4  1  0  0  0  0
 10  5  1  0  0  0  0
 12 11  3  0  0  0  0
 13 16  1  0  0  0  0
 13 15  1  0  0  0  0
 13 17  1  0  0  0  0
 14 13  1  0  0  0  0
M  RAD  1   3   2
M  END
