Coordinates from ORCA-job Ph-N2-BF4-B3LYPG-aug-cc-pVDZ-scan-d09-49-n400
 OpenBabel11081710393D

 18 16  0  0  0  0  0  0  0  0999 V2000
   -1.1770   -0.0794   -0.1422 C   0  0  0  0  0  0  0  0  0  0  0  0
    0.1131    0.0013    0.3905 C   0  0  0  0  0  0  0  0  0  0  0  0
    0.6309    1.2614    0.6658 C   0  0  0  0  0  0  0  0  0  0  0  0
   -0.1122    2.4279    0.5199 C   0  0  0  0  0  0  0  0  0  0  0  0
   -1.4003    2.3284   -0.0125 C   0  0  0  0  0  0  0  0  0  0  0  0
   -1.9320    1.0795   -0.3534 C   0  0  0  0  0  0  0  0  0  0  0  0
   -1.5957   -1.0561   -0.3849 H   0  0  0  0  0  0  0  0  0  0  0  0
    0.7189   -0.8858    0.5657 H   0  0  0  0  0  0  0  0  0  0  0  0
    0.3243    3.3854    0.7990 H   0  0  0  0  0  0  0  0  0  0  0  0
   -1.9923    3.2329   -0.1537 H   0  0  0  0  0  0  0  0  0  0  0  0
    1.8494    1.5015   -1.3334 N   0  0  0  0  0  0  0  0  0  0  0  0
    1.5907    1.4512   -2.4077 N   0  0  0  0  0  0  0  0  0  0  0  0
    3.9104   -0.2187    1.5893 B   0  0  0  0  0  0  0  0  0  0  0  0
    3.5265   -0.9869    0.5731 F   0  0  0  0  0  0  0  0  0  0  0  0
    4.7375    0.7966    1.3765 F   0  0  0  0  0  0  0  0  0  0  0  0
    1.8590    1.3491    1.2590 F   0  0  0  0  0  0  0  0  0  0  0  0
    3.5265   -0.5196    2.8233 F   0  0  0  0  0  0  0  0  0  0  0  0
   -2.9371    1.0072   -0.7683 H   0  0  0  0  0  0  0  0  0  0  0  0
  1  2  1  0  0  0  0
  2  8  1  0  0  0  0
  2  3  2  0  0  0  0
  3 16  1  0  0  0  0
  4  3  1  0  0  0  0
  4  9  1  0  0  0  0
  5  4  2  0  0  0  0
  6  1  2  0  0  0  0
  6  5  1  0  0  0  0
  7  1  1  0  0  0  0
 10  5  1  0  0  0  0
 12 11  3  0  0  0  0
 13 17  1  0  0  0  0
 14 13  1  0  0  0  0
 15 13  1  0  0  0  0
 18  6  1  0  0  0  0
M  END
