Coordinates from ORCA-job Ph-N2-BF4-B3LYPG-aug-cc-pVDZ-scan-d09-49-n400
 OpenBabel11081710393D

 18 17  0  0  0  0  0  0  0  0999 V2000
   -0.9841   -0.2571    0.1484 C   0  0  0  0  0  0  0  0  0  0  0  0
    0.2474   -0.1064   -0.4799 C   0  0  0  0  0  0  0  0  0  0  0  0
    0.6974    1.2057   -0.6847 C   0  0  0  0  0  0  0  0  0  0  0  0
    0.0070    2.3565   -0.2694 C   0  0  0  0  0  0  0  0  0  0  0  0
   -1.2143    2.1652    0.3612 C   0  0  0  0  0  0  0  0  0  0  0  0
   -1.7059    0.8664    0.5651 C   0  0  0  0  0  0  0  0  0  0  0  0
   -1.3625   -1.2585    0.3443 H   0  0  0  0  0  0  0  0  0  0  0  0
    0.8712   -0.9509   -0.7569 H   0  0  0  0  0  0  0  0  0  0  0  0
    0.4347    3.3451   -0.4182 H   0  0  0  0  0  0  0  0  0  0  0  0
   -1.7787    3.0280    0.7110 H   0  0  0  0  0  0  0  0  0  0  0  0
    1.9298    1.3866   -1.3044 N   0  0  0  0  0  0  0  0  0  0  0  0
    2.8887    1.5529   -1.8388 N   0  0  0  0  0  0  0  0  0  0  0  0
    2.8707    0.3938    1.5469 B   0  0  0  0  0  0  0  0  0  0  0  0
    3.0640   -0.3579    0.3267 F   0  0  0  0  0  0  0  0  0  0  0  0
    3.9205    0.1834    2.4244 F   0  0  0  0  0  0  0  0  0  0  0  0
    2.7918    1.7781    1.1580 F   0  0  0  0  0  0  0  0  0  0  0  0
    1.6225    0.0139    2.0968 F   0  0  0  0  0  0  0  0  0  0  0  0
   -2.6594    0.7311    1.0755 H   0  0  0  0  0  0  0  0  0  0  0  0
  1  7  1  0  0  0  0
  1  6  2  0  0  0  0
  2  1  1  0  0  0  0
  3  2  2  0  0  0  0
  3  4  1  0  0  0  0
  4  5  2  0  0  0  0
  5  6  1  0  0  0  0
  5 10  1  0  0  0  0
  6 18  1  0  0  0  0
  8  2  1  0  0  0  0
  9  4  1  0  0  0  0
 11  3  1  0  0  0  0
 12 11  1  0  0  0  0
 13 17  1  0  0  0  0
 13 15  1  0  0  0  0
 14 13  1  0  0  0  0
 16 13  1  0  0  0  0
M  RAD  2  11   2  12   3
M  END
