Coordinates from ORCA-job Ph-N2-BF4-B3LYPG-aug-cc-pVDZ-scan-d09-49-n400
 OpenBabel11081710393D

 18 17  0  0  0  0  0  0  0  0999 V2000
   -0.9968   -0.2574    0.1477 C   0  0  0  0  0  0  0  0  0  0  0  0
    0.2407   -0.1083   -0.4720 C   0  0  0  0  0  0  0  0  0  0  0  0
    0.6833    1.2028   -0.6695 C   0  0  0  0  0  0  0  0  0  0  0  0
    0.0001    2.3562   -0.2637 C   0  0  0  0  0  0  0  0  0  0  0  0
   -1.2274    2.1647    0.3583 C   0  0  0  0  0  0  0  0  0  0  0  0
   -1.7214    0.8668    0.5581 C   0  0  0  0  0  0  0  0  0  0  0  0
   -1.3783   -1.2585    0.3395 H   0  0  0  0  0  0  0  0  0  0  0  0
    0.8671   -0.9523   -0.7440 H   0  0  0  0  0  0  0  0  0  0  0  0
    0.4305    3.3438   -0.4096 H   0  0  0  0  0  0  0  0  0  0  0  0
   -1.7938    3.0282    0.7033 H   0  0  0  0  0  0  0  0  0  0  0  0
    1.9556    1.3886   -1.2982 N   0  0  0  0  0  0  0  0  0  0  0  0
    2.9120    1.5573   -1.8330 N   0  0  0  0  0  0  0  0  0  0  0  0
    2.8860    0.3936    1.5426 B   0  0  0  0  0  0  0  0  0  0  0  0
    3.0640   -0.3628    0.3222 F   0  0  0  0  0  0  0  0  0  0  0  0
    3.9443    0.1809    2.4091 F   0  0  0  0  0  0  0  0  0  0  0  0
    2.8114    1.7774    1.1489 F   0  0  0  0  0  0  0  0  0  0  0  0
    1.6423    0.0230    2.1059 F   0  0  0  0  0  0  0  0  0  0  0  0
   -2.6791    0.7321    1.0604 H   0  0  0  0  0  0  0  0  0  0  0  0
  1  7  1  0  0  0  0
  1  6  2  0  0  0  0
  2  1  1  0  0  0  0
  3  2  2  0  0  0  0
  3  4  1  0  0  0  0
  4  5  2  0  0  0  0
  5  6  1  0  0  0  0
  5 10  1  0  0  0  0
  6 18  1  0  0  0  0
  8  2  1  0  0  0  0
  9  4  1  0  0  0  0
 11  3  1  0  0  0  0
 12 11  1  0  0  0  0
 13 17  1  0  0  0  0
 13 15  1  0  0  0  0
 14 13  1  0  0  0  0
 16 13  1  0  0  0  0
M  RAD  2  11   2  12   3
M  END
