Coordinates from ORCA-job Ph-N2-BF4-B3LYPG-aug-cc-pVDZ-scan-d09-49-n400
 OpenBabel11081710393D

 18 16  0  0  0  0  0  0  0  0999 V2000
   -1.3134   -0.0985    0.0418 C   0  0  0  0  0  0  0  0  0  0  0  0
   -0.0065   -0.0001    0.5318 C   0  0  0  0  0  0  0  0  0  0  0  0
    0.4679    1.2616    0.8662 C   0  0  0  0  0  0  0  0  0  0  0  0
   -0.2851    2.4200    0.7308 C   0  0  0  0  0  0  0  0  0  0  0  0
   -1.5895    2.2999    0.2388 C   0  0  0  0  0  0  0  0  0  0  0  0
   -2.1050    1.0456   -0.1042 C   0  0  0  0  0  0  0  0  0  0  0  0
   -1.7113   -1.0772   -0.2271 H   0  0  0  0  0  0  0  0  0  0  0  0
    0.6326   -0.8733    0.6490 H   0  0  0  0  0  0  0  0  0  0  0  0
    0.1437    3.3831    1.0026 H   0  0  0  0  0  0  0  0  0  0  0  0
   -2.2027    3.1940    0.1239 H   0  0  0  0  0  0  0  0  0  0  0  0
    2.8994    1.5451   -2.5444 N   0  0  0  0  0  0  0  0  0  0  0  0
    2.8422    1.5051   -3.6466 N   0  0  0  0  0  0  0  0  0  0  0  0
    3.7955   -0.2020    1.6189 B   0  0  0  0  0  0  0  0  0  0  0  0
    3.5054   -0.9002    0.5244 F   0  0  0  0  0  0  0  0  0  0  0  0
    4.6103    0.8415    1.5439 F   0  0  0  0  0  0  0  0  0  0  0  0
    1.7485    1.3759    1.3463 F   0  0  0  0  0  0  0  0  0  0  0  0
    3.3305   -0.6043    2.7961 F   0  0  0  0  0  0  0  0  0  0  0  0
   -3.1219    0.9600   -0.4865 H   0  0  0  0  0  0  0  0  0  0  0  0
  1  2  1  0  0  0  0
  2  8  1  0  0  0  0
  2  3  2  0  0  0  0
  3 16  1  0  0  0  0
  4  3  1  0  0  0  0
  4  9  1  0  0  0  0
  5  4  2  0  0  0  0
  6  1  2  0  0  0  0
  6  5  1  0  0  0  0
  7  1  1  0  0  0  0
 10  5  1  0  0  0  0
 12 11  3  0  0  0  0
 13 17  1  0  0  0  0
 14 13  1  0  0  0  0
 15 13  1  0  0  0  0
 18  6  1  0  0  0  0
M  END
