Coordinates from ORCA-job Ph-N2-BF4-B3LYPG-aug-cc-pVDZ-scan-d09-49-n400
 OpenBabel11081710393D

 18 16  0  0  0  0  0  0  0  0999 V2000
   -1.2459   -0.0945   -0.0297 C   0  0  0  0  0  0  0  0  0  0  0  0
    0.0483   -0.0037    0.4942 C   0  0  0  0  0  0  0  0  0  0  0  0
    0.5304    1.2574    0.8209 C   0  0  0  0  0  0  0  0  0  0  0  0
   -0.2064    2.4223    0.6484 C   0  0  0  0  0  0  0  0  0  0  0  0
   -1.4982    2.3099    0.1230 C   0  0  0  0  0  0  0  0  0  0  0  0
   -2.0193    1.0564   -0.2153 C   0  0  0  0  0  0  0  0  0  0  0  0
   -1.6485   -1.0727   -0.2934 H   0  0  0  0  0  0  0  0  0  0  0  0
    0.6722   -0.8830    0.6434 H   0  0  0  0  0  0  0  0  0  0  0  0
    0.2247    3.3847    0.9190 H   0  0  0  0  0  0  0  0  0  0  0  0
   -2.0977    3.2090   -0.0211 H   0  0  0  0  0  0  0  0  0  0  0  0
    2.4467    1.5494   -2.0650 N   0  0  0  0  0  0  0  0  0  0  0  0
    2.2728    1.5107   -3.1549 N   0  0  0  0  0  0  0  0  0  0  0  0
    3.8327   -0.2132    1.6043 B   0  0  0  0  0  0  0  0  0  0  0  0
    3.4941   -0.9409    0.5432 F   0  0  0  0  0  0  0  0  0  0  0  0
    4.6580    0.8160    1.4680 F   0  0  0  0  0  0  0  0  0  0  0  0
    1.7965    1.3649    1.3358 F   0  0  0  0  0  0  0  0  0  0  0  0
    3.4064   -0.5730    2.8092 F   0  0  0  0  0  0  0  0  0  0  0  0
   -3.0263    0.9766   -0.6240 H   0  0  0  0  0  0  0  0  0  0  0  0
  1  2  1  0  0  0  0
  2  8  1  0  0  0  0
  2  3  2  0  0  0  0
  3 16  1  0  0  0  0
  4  3  1  0  0  0  0
  4  9  1  0  0  0  0
  5  4  2  0  0  0  0
  6  1  2  0  0  0  0
  6  5  1  0  0  0  0
  7  1  1  0  0  0  0
 10  5  1  0  0  0  0
 12 11  3  0  0  0  0
 13 17  1  0  0  0  0
 14 13  1  0  0  0  0
 15 13  1  0  0  0  0
 18  6  1  0  0  0  0
M  END
