Coordinates from ORCA-job Ph-N2-BF4-B3LYPG-aug-cc-pVDZ-scan-d09-49-n400
 OpenBabel11081710393D

 18 17  0  0  0  0  0  0  0  0999 V2000
   -0.9989   -0.2574    0.1479 C   0  0  0  0  0  0  0  0  0  0  0  0
    0.2392   -0.1085   -0.4709 C   0  0  0  0  0  0  0  0  0  0  0  0
    0.6807    1.2024   -0.6675 C   0  0  0  0  0  0  0  0  0  0  0  0
   -0.0015    2.3561   -0.2628 C   0  0  0  0  0  0  0  0  0  0  0  0
   -1.2296    2.1645    0.3582 C   0  0  0  0  0  0  0  0  0  0  0  0
   -1.7238    0.8667    0.5577 C   0  0  0  0  0  0  0  0  0  0  0  0
   -1.3806   -1.2585    0.3395 H   0  0  0  0  0  0  0  0  0  0  0  0
    0.8662   -0.9525   -0.7422 H   0  0  0  0  0  0  0  0  0  0  0  0
    0.4292    3.3436   -0.4083 H   0  0  0  0  0  0  0  0  0  0  0  0
   -1.7963    3.0280    0.7028 H   0  0  0  0  0  0  0  0  0  0  0  0
    1.9626    1.3893   -1.2994 N   0  0  0  0  0  0  0  0  0  0  0  0
    2.9181    1.5579   -1.8331 N   0  0  0  0  0  0  0  0  0  0  0  0
    2.8876    0.3936    1.5418 B   0  0  0  0  0  0  0  0  0  0  0  0
    3.0642   -0.3635    0.3215 F   0  0  0  0  0  0  0  0  0  0  0  0
    3.9468    0.1803    2.4071 F   0  0  0  0  0  0  0  0  0  0  0  0
    2.8141    1.7776    1.1475 F   0  0  0  0  0  0  0  0  0  0  0  0
    1.6443    0.0243    2.1068 F   0  0  0  0  0  0  0  0  0  0  0  0
   -2.6819    0.7321    1.0592 H   0  0  0  0  0  0  0  0  0  0  0  0
  1  7  1  0  0  0  0
  1  6  2  0  0  0  0
  2  1  1  0  0  0  0
  3  2  2  0  0  0  0
  3  4  1  0  0  0  0
  4  5  2  0  0  0  0
  5  6  1  0  0  0  0
  5 10  1  0  0  0  0
  6 18  1  0  0  0  0
  8  2  1  0  0  0  0
  9  4  1  0  0  0  0
 11  3  1  0  0  0  0
 12 11  1  0  0  0  0
 13 17  1  0  0  0  0
 13 15  1  0  0  0  0
 14 13  1  0  0  0  0
 16 13  1  0  0  0  0
M  RAD  2  11   2  12   3
M  END
