Coordinates from ORCA-job Ph-N2-BF4-B3LYPG-aug-cc-pVDZ-scan-d09-49-n400
 OpenBabel11081710393D

 18 16  0  0  0  0  0  0  0  0999 V2000
   -1.1974   -0.0874   -0.1025 C   0  0  0  0  0  0  0  0  0  0  0  0
    0.0903   -0.0058    0.4384 C   0  0  0  0  0  0  0  0  0  0  0  0
    0.5847    1.2522    0.7553 C   0  0  0  0  0  0  0  0  0  0  0  0
   -0.1410    2.4218    0.5728 C   0  0  0  0  0  0  0  0  0  0  0  0
   -1.4266    2.3199    0.0310 C   0  0  0  0  0  0  0  0  0  0  0  0
   -1.9560    1.0699   -0.3080 C   0  0  0  0  0  0  0  0  0  0  0  0
   -1.6071   -1.0635   -0.3629 H   0  0  0  0  0  0  0  0  0  0  0  0
    0.7032   -0.8901    0.6021 H   0  0  0  0  0  0  0  0  0  0  0  0
    0.2974    3.3809    0.8431 H   0  0  0  0  0  0  0  0  0  0  0  0
   -2.0154    3.2242   -0.1249 H   0  0  0  0  0  0  0  0  0  0  0  0
    2.0454    1.5298   -1.6112 N   0  0  0  0  0  0  0  0  0  0  0  0
    1.8101    1.5072   -2.6902 N   0  0  0  0  0  0  0  0  0  0  0  0
    3.8785   -0.2180    1.5962 B   0  0  0  0  0  0  0  0  0  0  0  0
    3.5009   -0.9941    0.5835 F   0  0  0  0  0  0  0  0  0  0  0  0
    4.6999    0.8008    1.3816 F   0  0  0  0  0  0  0  0  0  0  0  0
    1.8367    1.3486    1.3002 F   0  0  0  0  0  0  0  0  0  0  0  0
    3.4951   -0.5185    2.8311 F   0  0  0  0  0  0  0  0  0  0  0  0
   -2.9582    0.9979   -0.7298 H   0  0  0  0  0  0  0  0  0  0  0  0
  1  2  1  0  0  0  0
  2  8  1  0  0  0  0
  2  3  2  0  0  0  0
  3 16  1  0  0  0  0
  4  3  1  0  0  0  0
  4  9  1  0  0  0  0
  5  4  2  0  0  0  0
  6  1  2  0  0  0  0
  6  5  1  0  0  0  0
  7  1  1  0  0  0  0
 10  5  1  0  0  0  0
 12 11  3  0  0  0  0
 13 17  1  0  0  0  0
 14 13  1  0  0  0  0
 15 13  1  0  0  0  0
 18  6  1  0  0  0  0
M  END
