Coordinates from ORCA-job Ph-N2-BF4-B3LYPG-aug-cc-pVDZ-scan-d09-49-n400
 OpenBabel11081710393D

 18 16  0  0  0  0  0  0  0  0999 V2000
   -1.2364   -0.0935   -0.0418 C   0  0  0  0  0  0  0  0  0  0  0  0
    0.0564   -0.0044    0.4861 C   0  0  0  0  0  0  0  0  0  0  0  0
    0.5401    1.2562    0.8120 C   0  0  0  0  0  0  0  0  0  0  0  0
   -0.1940    2.4222    0.6357 C   0  0  0  0  0  0  0  0  0  0  0  0
   -1.4845    2.3116    0.1065 C   0  0  0  0  0  0  0  0  0  0  0  0
   -2.0069    1.0586   -0.2317 C   0  0  0  0  0  0  0  0  0  0  0  0
   -1.6401   -1.0713   -0.3051 H   0  0  0  0  0  0  0  0  0  0  0  0
    0.6780   -0.8847    0.6386 H   0  0  0  0  0  0  0  0  0  0  0  0
    0.2380    3.3842    0.9064 H   0  0  0  0  0  0  0  0  0  0  0  0
   -2.0818    3.2116   -0.0407 H   0  0  0  0  0  0  0  0  0  0  0  0
    2.3761    1.5490   -1.9941 N   0  0  0  0  0  0  0  0  0  0  0  0
    2.1844    1.5111   -3.0811 N   0  0  0  0  0  0  0  0  0  0  0  0
    3.8398   -0.2145    1.6049 B   0  0  0  0  0  0  0  0  0  0  0  0
    3.4964   -0.9482    0.5494 F   0  0  0  0  0  0  0  0  0  0  0  0
    4.6648    0.8135    1.4592 F   0  0  0  0  0  0  0  0  0  0  0  0
    1.8043    1.3620    1.3313 F   0  0  0  0  0  0  0  0  0  0  0  0
    3.4188   -0.5674    2.8137 F   0  0  0  0  0  0  0  0  0  0  0  0
   -3.0128    0.9801   -0.6434 H   0  0  0  0  0  0  0  0  0  0  0  0
  1  2  1  0  0  0  0
  2  8  1  0  0  0  0
  2  3  2  0  0  0  0
  3 16  1  0  0  0  0
  4  3  1  0  0  0  0
  4  9  1  0  0  0  0
  5  4  2  0  0  0  0
  6  1  2  0  0  0  0
  6  5  1  0  0  0  0
  7  1  1  0  0  0  0
 10  5  1  0  0  0  0
 12 11  3  0  0  0  0
 13 17  1  0  0  0  0
 14 13  1  0  0  0  0
 15 13  1  0  0  0  0
 18  6  1  0  0  0  0
M  END
