Coordinates from ORCA-job Ph-N2-BF4-B3LYPG-aug-cc-pVDZ-scan-d09-49-n400
 OpenBabel11081710393D

 18 17  0  0  0  0  0  0  0  0999 V2000
   -0.9229   -0.2531    0.1540 C   0  0  0  0  0  0  0  0  0  0  0  0
    0.2888   -0.0977   -0.4963 C   0  0  0  0  0  0  0  0  0  0  0  0
    0.7770    1.2219   -0.7488 C   0  0  0  0  0  0  0  0  0  0  0  0
    0.0430    2.3618   -0.2864 C   0  0  0  0  0  0  0  0  0  0  0  0
   -1.1535    2.1689    0.3714 C   0  0  0  0  0  0  0  0  0  0  0  0
   -1.6391    0.8672    0.5867 C   0  0  0  0  0  0  0  0  0  0  0  0
   -1.2901   -1.2563    0.3615 H   0  0  0  0  0  0  0  0  0  0  0  0
    0.9071   -0.9424   -0.7882 H   0  0  0  0  0  0  0  0  0  0  0  0
    0.4613    3.3532   -0.4492 H   0  0  0  0  0  0  0  0  0  0  0  0
   -1.7108    3.0302    0.7360 H   0  0  0  0  0  0  0  0  0  0  0  0
    1.7876    1.3765   -1.3191 N   0  0  0  0  0  0  0  0  0  0  0  0
    2.7463    1.5374   -1.8833 N   0  0  0  0  0  0  0  0  0  0  0  0
    2.8060    0.3889    1.5627 B   0  0  0  0  0  0  0  0  0  0  0  0
    3.0687   -0.3395    0.3469 F   0  0  0  0  0  0  0  0  0  0  0  0
    3.8164    0.1946    2.4885 F   0  0  0  0  0  0  0  0  0  0  0  0
    2.6944    1.7750    1.1985 F   0  0  0  0  0  0  0  0  0  0  0  0
    1.5417   -0.0403    2.0535 F   0  0  0  0  0  0  0  0  0  0  0  0
   -2.5813    0.7298    1.1173 H   0  0  0  0  0  0  0  0  0  0  0  0
  1  7  1  0  0  0  0
  1  6  2  0  0  0  0
  2  1  1  0  0  0  0
  3  2  2  0  0  0  0
  3  4  1  0  0  0  0
  4  5  2  0  0  0  0
  5  6  1  0  0  0  0
  5 10  1  0  0  0  0
  6 18  1  0  0  0  0
  8  2  1  0  0  0  0
  9  4  1  0  0  0  0
 11  3  1  0  0  0  0
 12 11  1  0  0  0  0
 13 17  1  0  0  0  0
 13 15  1  0  0  0  0
 14 13  1  0  0  0  0
 16 13  1  0  0  0  0
M  RAD  2  11   2  12   3
M  END
