Coordinates from ORCA-job Ph-N2-BF4-B3LYPG-aug-cc-pVDZ-scan-d09-49-n400
 OpenBabel11081710393D

 18 17  0  0  0  0  0  0  0  0999 V2000
   -0.9209   -0.2527    0.1545 C   0  0  0  0  0  0  0  0  0  0  0  0
    0.2906   -0.0974   -0.4953 C   0  0  0  0  0  0  0  0  0  0  0  0
    0.7816    1.2227   -0.7509 C   0  0  0  0  0  0  0  0  0  0  0  0
    0.0444    2.3621   -0.2859 C   0  0  0  0  0  0  0  0  0  0  0  0
   -1.1514    2.1690    0.3718 C   0  0  0  0  0  0  0  0  0  0  0  0
   -1.6373    0.8674    0.5869 C   0  0  0  0  0  0  0  0  0  0  0  0
   -1.2879   -1.2560    0.3621 H   0  0  0  0  0  0  0  0  0  0  0  0
    0.9093   -0.9421   -0.7871 H   0  0  0  0  0  0  0  0  0  0  0  0
    0.4629    3.3534   -0.4490 H   0  0  0  0  0  0  0  0  0  0  0  0
   -1.7086    3.0304    0.7365 H   0  0  0  0  0  0  0  0  0  0  0  0
    1.7819    1.3760   -1.3192 N   0  0  0  0  0  0  0  0  0  0  0  0
    2.7401    1.5366   -1.8852 N   0  0  0  0  0  0  0  0  0  0  0  0
    2.8039    0.3886    1.5624 B   0  0  0  0  0  0  0  0  0  0  0  0
    3.0700   -0.3390    0.3471 F   0  0  0  0  0  0  0  0  0  0  0  0
    3.8127    0.1958    2.4901 F   0  0  0  0  0  0  0  0  0  0  0  0
    2.6900    1.7748    1.1991 F   0  0  0  0  0  0  0  0  0  0  0  0
    1.5392   -0.0435    2.0509 F   0  0  0  0  0  0  0  0  0  0  0  0
   -2.5797    0.7300    1.1172 H   0  0  0  0  0  0  0  0  0  0  0  0
  1  7  1  0  0  0  0
  1  6  2  0  0  0  0
  2  1  1  0  0  0  0
  3  2  2  0  0  0  0
  3  4  1  0  0  0  0
  4  5  2  0  0  0  0
  5  6  1  0  0  0  0
  5 10  1  0  0  0  0
  6 18  1  0  0  0  0
  8  2  1  0  0  0  0
  9  4  1  0  0  0  0
 11  3  1  0  0  0  0
 12 11  1  0  0  0  0
 13 17  1  0  0  0  0
 13 15  1  0  0  0  0
 14 13  1  0  0  0  0
 16 13  1  0  0  0  0
M  RAD  2  11   2  12   3
M  END
