Coordinates from ORCA-job Ph-N2-BF4-B3LYPG-aug-cc-pVDZ-scan-d09-49-n400
 OpenBabel11081710393D

 18 16  0  0  0  0  0  0  0  0999 V2000
   -1.2531   -0.0953   -0.0208 C   0  0  0  0  0  0  0  0  0  0  0  0
    0.0423   -0.0033    0.5001 C   0  0  0  0  0  0  0  0  0  0  0  0
    0.5232    1.2581    0.8272 C   0  0  0  0  0  0  0  0  0  0  0  0
   -0.2152    2.4222    0.6575 C   0  0  0  0  0  0  0  0  0  0  0  0
   -1.5082    2.3087    0.1351 C   0  0  0  0  0  0  0  0  0  0  0  0
   -2.0284    1.0548   -0.2032 C   0  0  0  0  0  0  0  0  0  0  0  0
   -1.6550   -1.0736   -0.2848 H   0  0  0  0  0  0  0  0  0  0  0  0
    0.6678   -0.8819    0.6466 H   0  0  0  0  0  0  0  0  0  0  0  0
    0.2154    3.3849    0.9279 H   0  0  0  0  0  0  0  0  0  0  0  0
   -2.1092    3.2071   -0.0067 H   0  0  0  0  0  0  0  0  0  0  0  0
    2.4985    1.5493   -2.1161 N   0  0  0  0  0  0  0  0  0  0  0  0
    2.3376    1.5101   -3.2080 N   0  0  0  0  0  0  0  0  0  0  0  0
    3.8275   -0.2118    1.6037 B   0  0  0  0  0  0  0  0  0  0  0  0
    3.4925   -0.9350    0.5383 F   0  0  0  0  0  0  0  0  0  0  0  0
    4.6525    0.8184    1.4745 F   0  0  0  0  0  0  0  0  0  0  0  0
    1.7910    1.3667    1.3384 F   0  0  0  0  0  0  0  0  0  0  0  0
    3.3977   -0.5774    2.8057 F   0  0  0  0  0  0  0  0  0  0  0  0
   -3.0364    0.9742   -0.6095 H   0  0  0  0  0  0  0  0  0  0  0  0
  1  2  1  0  0  0  0
  2  8  1  0  0  0  0
  2  3  2  0  0  0  0
  3 16  1  0  0  0  0
  4  3  1  0  0  0  0
  4  9  1  0  0  0  0
  5  4  2  0  0  0  0
  6  1  2  0  0  0  0
  6  5  1  0  0  0  0
  7  1  1  0  0  0  0
 10  5  1  0  0  0  0
 12 11  3  0  0  0  0
 13 17  1  0  0  0  0
 14 13  1  0  0  0  0
 15 13  1  0  0  0  0
 18  6  1  0  0  0  0
M  END
