Coordinates from ORCA-job Ph-N2-BF4-B3LYPG-aug-cc-pVDZ-scan-d09-49-n400
 OpenBabel11081710393D

 18 17  0  0  0  0  0  0  0  0999 V2000
   -1.0275   -0.2571    0.1478 C   0  0  0  0  0  0  0  0  0  0  0  0
    0.2264   -0.1130   -0.4477 C   0  0  0  0  0  0  0  0  0  0  0  0
    0.6488    1.1964   -0.6282 C   0  0  0  0  0  0  0  0  0  0  0  0
   -0.0173    2.3567   -0.2500 C   0  0  0  0  0  0  0  0  0  0  0  0
   -1.2618    2.1648    0.3468 C   0  0  0  0  0  0  0  0  0  0  0  0
   -1.7605    0.8686    0.5387 C   0  0  0  0  0  0  0  0  0  0  0  0
   -1.4134   -1.2579    0.3330 H   0  0  0  0  0  0  0  0  0  0  0  0
    0.8622   -0.9551   -0.7020 H   0  0  0  0  0  0  0  0  0  0  0  0
    0.4201    3.3418   -0.3884 H   0  0  0  0  0  0  0  0  0  0  0  0
   -1.8341    3.0304    0.6765 H   0  0  0  0  0  0  0  0  0  0  0  0
    2.0203    1.3954   -1.2803 N   0  0  0  0  0  0  0  0  0  0  0  0
    2.9647    1.5765   -1.8254 N   0  0  0  0  0  0  0  0  0  0  0  0
    2.9243    0.3891    1.5312 B   0  0  0  0  0  0  0  0  0  0  0  0
    3.0618   -0.3762    0.3092 F   0  0  0  0  0  0  0  0  0  0  0  0
    4.0049    0.1699    2.3676 F   0  0  0  0  0  0  0  0  0  0  0  0
    2.8570    1.7722    1.1287 F   0  0  0  0  0  0  0  0  0  0  0  0
    1.6935    0.0380    2.1285 F   0  0  0  0  0  0  0  0  0  0  0  0
   -2.7290    0.7356    1.0200 H   0  0  0  0  0  0  0  0  0  0  0  0
  1  7  1  0  0  0  0
  1  6  2  0  0  0  0
  2  1  1  0  0  0  0
  3  2  2  0  0  0  0
  3  4  1  0  0  0  0
  4  5  2  0  0  0  0
  5  6  1  0  0  0  0
  5 10  1  0  0  0  0
  6 18  1  0  0  0  0
  8  2  1  0  0  0  0
  9  4  1  0  0  0  0
 11  3  1  0  0  0  0
 12 11  1  0  0  0  0
 13 17  1  0  0  0  0
 13 15  1  0  0  0  0
 14 13  1  0  0  0  0
 16 13  1  0  0  0  0
M  RAD  2  11   2  12   3
M  END
