Coordinates from ORCA-job Ph-N2-BF4-B3LYPG-aug-cc-pVDZ-scan-d09-49-n400
 OpenBabel11081710393D

 18 17  0  0  0  0  0  0  0  0999 V2000
   -0.9147   -0.2506    0.1547 C   0  0  0  0  0  0  0  0  0  0  0  0
    0.2979   -0.0965   -0.4900 C   0  0  0  0  0  0  0  0  0  0  0  0
    0.8044    1.2253   -0.7567 C   0  0  0  0  0  0  0  0  0  0  0  0
    0.0520    2.3624   -0.2828 C   0  0  0  0  0  0  0  0  0  0  0  0
   -1.1442    2.1701    0.3693 C   0  0  0  0  0  0  0  0  0  0  0  0
   -1.6338    0.8691    0.5828 C   0  0  0  0  0  0  0  0  0  0  0  0
   -1.2823   -1.2540    0.3610 H   0  0  0  0  0  0  0  0  0  0  0  0
    0.9179   -0.9415   -0.7791 H   0  0  0  0  0  0  0  0  0  0  0  0
    0.4733    3.3533   -0.4431 H   0  0  0  0  0  0  0  0  0  0  0  0
   -1.7018    3.0323    0.7316 H   0  0  0  0  0  0  0  0  0  0  0  0
    1.7469    1.3708   -1.3059 N   0  0  0  0  0  0  0  0  0  0  0  0
    2.7035    1.5341   -1.8837 N   0  0  0  0  0  0  0  0  0  0  0  0
    2.8029    0.3873    1.5596 B   0  0  0  0  0  0  0  0  0  0  0  0
    3.0760   -0.3375    0.3463 F   0  0  0  0  0  0  0  0  0  0  0  0
    3.8079    0.2032    2.4930 F   0  0  0  0  0  0  0  0  0  0  0  0
    2.6754    1.7720    1.1983 F   0  0  0  0  0  0  0  0  0  0  0  0
    1.5381   -0.0566    2.0426 F   0  0  0  0  0  0  0  0  0  0  0  0
   -2.5791    0.7326    1.1081 H   0  0  0  0  0  0  0  0  0  0  0  0
  1  7  1  0  0  0  0
  1  6  2  0  0  0  0
  2  1  1  0  0  0  0
  3  2  2  0  0  0  0
  3  4  1  0  0  0  0
  4  5  2  0  0  0  0
  5  6  1  0  0  0  0
  5 10  1  0  0  0  0
  6 18  1  0  0  0  0
  8  2  1  0  0  0  0
  9  4  1  0  0  0  0
 11  3  1  0  0  0  0
 12 11  1  0  0  0  0
 13 17  1  0  0  0  0
 13 15  1  0  0  0  0
 14 13  1  0  0  0  0
 16 13  1  0  0  0  0
M  RAD  2  11   2  12   3
M  END
