Coordinates from ORCA-job Ph-N2-BF4-B3LYPG-aug-cc-pVDZ-scan-d09-49-n400
 OpenBabel11081710393D

 18 16  0  0  0  0  0  0  0  0999 V2000
   -1.2846   -0.0971    0.0117 C   0  0  0  0  0  0  0  0  0  0  0  0
    0.0166   -0.0019    0.5172 C   0  0  0  0  0  0  0  0  0  0  0  0
    0.4955    1.2600    0.8457 C   0  0  0  0  0  0  0  0  0  0  0  0
   -0.2502    2.4216    0.6915 C   0  0  0  0  0  0  0  0  0  0  0  0
   -1.5490    2.3048    0.1844 C   0  0  0  0  0  0  0  0  0  0  0  0
   -2.0675    1.0504   -0.1543 C   0  0  0  0  0  0  0  0  0  0  0  0
   -1.6852   -1.0758   -0.2530 H   0  0  0  0  0  0  0  0  0  0  0  0
    0.6482   -0.8783    0.6508 H   0  0  0  0  0  0  0  0  0  0  0  0
    0.1795    3.3849    0.9612 H   0  0  0  0  0  0  0  0  0  0  0  0
   -2.1557    3.2012    0.0547 H   0  0  0  0  0  0  0  0  0  0  0  0
    2.6979    1.5485   -2.3201 N   0  0  0  0  0  0  0  0  0  0  0  0
    2.5878    1.5082   -3.4183 N   0  0  0  0  0  0  0  0  0  0  0  0
    3.8145   -0.2079    1.6086 B   0  0  0  0  0  0  0  0  0  0  0  0
    3.5061   -0.9188    0.5273 F   0  0  0  0  0  0  0  0  0  0  0  0
    4.6325    0.8312    1.5094 F   0  0  0  0  0  0  0  0  0  0  0  0
    1.7696    1.3713    1.3410 F   0  0  0  0  0  0  0  0  0  0  0  0
    3.3646   -0.5937    2.7968 F   0  0  0  0  0  0  0  0  0  0  0  0
   -3.0800    0.9673   -0.5486 H   0  0  0  0  0  0  0  0  0  0  0  0
  1  2  1  0  0  0  0
  2  8  1  0  0  0  0
  2  3  2  0  0  0  0
  3 16  1  0  0  0  0
  4  3  1  0  0  0  0
  4  9  1  0  0  0  0
  5  4  2  0  0  0  0
  6  1  2  0  0  0  0
  6  5  1  0  0  0  0
  7  1  1  0  0  0  0
 10  5  1  0  0  0  0
 12 11  3  0  0  0  0
 13 17  1  0  0  0  0
 14 13  1  0  0  0  0
 15 13  1  0  0  0  0
 18  6  1  0  0  0  0
M  END
