Coordinates from ORCA-job Ph-N2-BF4-B3LYPG-aug-cc-pVDZ-scan-d09-49-n400
 OpenBabel11081710393D

 18 16  0  0  0  0  0  0  0  0999 V2000
   -1.0133   -0.0651    0.5014 C   0  0  0  0  0  0  0  0  0  0  0  0
    0.3211    0.1489    0.0568 C   0  0  0  0  0  0  0  0  0  0  0  0
    0.3991    1.4113   -0.3751 C   0  0  0  0  0  0  0  0  0  0  0  0
   -0.3603    2.5196   -0.5080 C   0  0  0  0  0  0  0  0  0  0  0  0
   -1.6652    2.2193   -0.0440 C   0  0  0  0  0  0  0  0  0  0  0  0
   -1.9761    0.9465    0.4467 C   0  0  0  0  0  0  0  0  0  0  0  0
   -1.2362   -1.0484    0.9159 H   0  0  0  0  0  0  0  0  0  0  0  0
    1.1385   -0.5741    0.1412 H   0  0  0  0  0  0  0  0  0  0  0  0
   -0.0551    3.4851   -0.8964 H   0  0  0  0  0  0  0  0  0  0  0  0
   -2.4100    3.0143   -0.0843 H   0  0  0  0  0  0  0  0  0  0  0  0
    2.3962    1.8427   -1.1996 N   0  0  0  0  0  0  0  0  0  0  0  0
    3.3762    2.0968   -1.6344 N   0  0  0  0  0  0  0  0  0  0  0  0
    3.1723   -0.1383    1.4072 B   0  0  0  0  0  0  0  0  0  0  0  0
    3.1082   -0.5864    0.0294 F   0  0  0  0  0  0  0  0  0  0  0  0
    4.4312   -0.3605    1.9349 F   0  0  0  0  0  0  0  0  0  0  0  0
    2.8445    1.2559    1.4001 F   0  0  0  0  0  0  0  0  0  0  0  0
    2.1540   -0.8356    2.1097 F   0  0  0  0  0  0  0  0  0  0  0  0
   -2.9846    0.7441    0.8046 H   0  0  0  0  0  0  0  0  0  0  0  0
  1  7  1  0  0  0  0
  2  8  1  0  0  0  0
  2  1  2  0  0  0  0
  3  2  1  0  0  0  0
  4  3  2  0  0  0  0
  4  5  1  0  0  0  0
  5  6  2  0  0  0  0
  6  1  1  0  0  0  0
  6 18  1  0  0  0  0
  9  4  1  0  0  0  0
 10  5  1  0  0  0  0
 12 11  3  0  0  0  0
 13 15  1  0  0  0  0
 13 17  1  0  0  0  0
 14 13  1  0  0  0  0
 16 13  1  0  0  0  0
M  RAD  1   3   2
M  END
