Coordinates from ORCA-job Ph-N2-BF4-B3LYPG-aug-cc-pVDZ-scan-d09-49-n400
 OpenBabel11081710393D

 18 16  0  0  0  0  0  0  0  0999 V2000
   -1.0195   -0.0525    0.5120 C   0  0  0  0  0  0  0  0  0  0  0  0
    0.3117    0.1494    0.0708 C   0  0  0  0  0  0  0  0  0  0  0  0
    0.4312    1.4074   -0.3925 C   0  0  0  0  0  0  0  0  0  0  0  0
   -0.3505    2.5075   -0.5402 C   0  0  0  0  0  0  0  0  0  0  0  0
   -1.6563    2.2254   -0.0808 C   0  0  0  0  0  0  0  0  0  0  0  0
   -1.9763    0.9638    0.4333 C   0  0  0  0  0  0  0  0  0  0  0  0
   -1.2583   -1.0271    0.9371 H   0  0  0  0  0  0  0  0  0  0  0  0
    1.1189   -0.5811    0.1556 H   0  0  0  0  0  0  0  0  0  0  0  0
   -0.0424    3.4679   -0.9393 H   0  0  0  0  0  0  0  0  0  0  0  0
   -2.3997    3.0205   -0.1359 H   0  0  0  0  0  0  0  0  0  0  0  0
    2.2915    1.8007   -1.0827 N   0  0  0  0  0  0  0  0  0  0  0  0
    3.2510    2.1115   -1.5250 N   0  0  0  0  0  0  0  0  0  0  0  0
    3.2151   -0.1460    1.3923 B   0  0  0  0  0  0  0  0  0  0  0  0
    3.1325   -0.5505    0.0015 F   0  0  0  0  0  0  0  0  0  0  0  0
    4.4853   -0.3728    1.8905 F   0  0  0  0  0  0  0  0  0  0  0  0
    2.8794    1.2471    1.4292 F   0  0  0  0  0  0  0  0  0  0  0  0
    2.2152   -0.8694    2.0909 F   0  0  0  0  0  0  0  0  0  0  0  0
   -2.9882    0.7742    0.7892 H   0  0  0  0  0  0  0  0  0  0  0  0
  1  7  1  0  0  0  0
  2  8  1  0  0  0  0
  2  1  2  0  0  0  0
  3  2  1  0  0  0  0
  4  3  2  0  0  0  0
  4  5  1  0  0  0  0
  5  6  2  0  0  0  0
  6  1  1  0  0  0  0
  6 18  1  0  0  0  0
  9  4  1  0  0  0  0
 10  5  1  0  0  0  0
 12 11  3  0  0  0  0
 13 16  1  0  0  0  0
 13 15  1  0  0  0  0
 13 17  1  0  0  0  0
 14 13  1  0  0  0  0
M  RAD  1   3   2
M  END
