Coordinates from ORCA-job Ph-N2-BF4-B3LYPG-aug-cc-pVDZ-scan-d09-49-n400
 OpenBabel11081710393D

 18 16  0  0  0  0  0  0  0  0999 V2000
   -1.2028   -0.0886   -0.0939 C   0  0  0  0  0  0  0  0  0  0  0  0
    0.0855   -0.0062    0.4457 C   0  0  0  0  0  0  0  0  0  0  0  0
    0.5778    1.2520    0.7652 C   0  0  0  0  0  0  0  0  0  0  0  0
   -0.1479    2.4214    0.5817 C   0  0  0  0  0  0  0  0  0  0  0  0
   -1.4340    2.3185    0.0410 C   0  0  0  0  0  0  0  0  0  0  0  0
   -1.9627    1.0682   -0.2976 C   0  0  0  0  0  0  0  0  0  0  0  0
   -1.6116   -1.0648   -0.3551 H   0  0  0  0  0  0  0  0  0  0  0  0
    0.6996   -0.8900    0.6081 H   0  0  0  0  0  0  0  0  0  0  0  0
    0.2900    3.3808    0.8518 H   0  0  0  0  0  0  0  0  0  0  0  0
   -2.0235    3.2223   -0.1146 H   0  0  0  0  0  0  0  0  0  0  0  0
    2.0885    1.5343   -1.6645 N   0  0  0  0  0  0  0  0  0  0  0  0
    1.8630    1.5110   -2.7454 N   0  0  0  0  0  0  0  0  0  0  0  0
    3.8726   -0.2175    1.5974 B   0  0  0  0  0  0  0  0  0  0  0  0
    3.4988   -0.9897    0.5801 F   0  0  0  0  0  0  0  0  0  0  0  0
    4.6950    0.8019    1.3895 F   0  0  0  0  0  0  0  0  0  0  0  0
    1.8325    1.3497    1.3051 F   0  0  0  0  0  0  0  0  0  0  0  0
    3.4849   -0.5227    2.8299 F   0  0  0  0  0  0  0  0  0  0  0  0
   -2.9652    0.9955   -0.7185 H   0  0  0  0  0  0  0  0  0  0  0  0
  1  2  1  0  0  0  0
  2  8  1  0  0  0  0
  2  3  2  0  0  0  0
  3 16  1  0  0  0  0
  4  3  1  0  0  0  0
  4  9  1  0  0  0  0
  5  4  2  0  0  0  0
  6  1  2  0  0  0  0
  6  5  1  0  0  0  0
  7  1  1  0  0  0  0
 10  5  1  0  0  0  0
 12 11  3  0  0  0  0
 13 17  1  0  0  0  0
 14 13  1  0  0  0  0
 15 13  1  0  0  0  0
 18  6  1  0  0  0  0
M  END
