Coordinates from ORCA-job Ph-N2-BF4-B3LYPG-aug-cc-pVDZ-scan-d09-49-n400
 OpenBabel11081710393D

 18 17  0  0  0  0  0  0  0  0999 V2000
   -0.7326   -0.2337    0.1886 C   0  0  0  0  0  0  0  0  0  0  0  0
    0.3670   -0.0642   -0.6252 C   0  0  0  0  0  0  0  0  0  0  0  0
    0.8208    1.2701   -0.9524 C   0  0  0  0  0  0  0  0  0  0  0  0
    0.0906    2.3982   -0.4133 C   0  0  0  0  0  0  0  0  0  0  0  0
   -1.0088    2.1879    0.3841 C   0  0  0  0  0  0  0  0  0  0  0  0
   -1.4144    0.8785    0.6960 C   0  0  0  0  0  0  0  0  0  0  0  0
   -1.0377   -1.2405    0.4657 H   0  0  0  0  0  0  0  0  0  0  0  0
    0.9477   -0.9013   -1.0021 H   0  0  0  0  0  0  0  0  0  0  0  0
    0.4630    3.3959   -0.6397 H   0  0  0  0  0  0  0  0  0  0  0  0
   -1.5422    3.0418    0.7983 H   0  0  0  0  0  0  0  0  0  0  0  0
    1.7050    1.4201   -1.5368 N   0  0  0  0  0  0  0  0  0  0  0  0
    2.6428    1.5802   -2.1547 N   0  0  0  0  0  0  0  0  0  0  0  0
    2.5394    0.3166    1.7211 B   0  0  0  0  0  0  0  0  0  0  0  0
    2.8162   -0.3051    0.4456 F   0  0  0  0  0  0  0  0  0  0  0  0
    3.6673    0.2950    2.5259 F   0  0  0  0  0  0  0  0  0  0  0  0
    2.1401    1.6690    1.4371 F   0  0  0  0  0  0  0  0  0  0  0  0
    1.4431   -0.3597    2.3092 F   0  0  0  0  0  0  0  0  0  0  0  0
   -2.2668    0.7272    1.3583 H   0  0  0  0  0  0  0  0  0  0  0  0
  1  7  1  0  0  0  0
  1  6  2  0  0  0  0
  2  1  1  0  0  0  0
  3  2  2  0  0  0  0
  3  4  1  0  0  0  0
  4  5  2  0  0  0  0
  5  6  1  0  0  0  0
  5 10  1  0  0  0  0
  6 18  1  0  0  0  0
  8  2  1  0  0  0  0
  9  4  1  0  0  0  0
 11  3  1  0  0  0  0
 12 11  1  0  0  0  0
 13 17  1  0  0  0  0
 13 15  1  0  0  0  0
 14 13  1  0  0  0  0
 16 13  1  0  0  0  0
M  RAD  2  11   2  12   3
M  END
