Coordinates from ORCA-job Ph-N2-BF4-B3LYPG-aug-cc-pVDZ-scan-d09-49-n400
 OpenBabel11081710393D

 18 16  0  0  0  0  0  0  0  0999 V2000
   -1.2980   -0.0977    0.0251 C   0  0  0  0  0  0  0  0  0  0  0  0
    0.0059   -0.0013    0.5234 C   0  0  0  0  0  0  0  0  0  0  0  0
    0.4837    1.2606    0.8535 C   0  0  0  0  0  0  0  0  0  0  0  0
   -0.2653    2.4211    0.7073 C   0  0  0  0  0  0  0  0  0  0  0  0
   -1.5668    2.3030    0.2073 C   0  0  0  0  0  0  0  0  0  0  0  0
   -2.0844    1.0485   -0.1325 C   0  0  0  0  0  0  0  0  0  0  0  0
   -1.6978   -1.0765   -0.2407 H   0  0  0  0  0  0  0  0  0  0  0  0
    0.6403   -0.8766    0.6504 H   0  0  0  0  0  0  0  0  0  0  0  0
    0.1638    3.3845    0.9776 H   0  0  0  0  0  0  0  0  0  0  0  0
   -2.1763    3.1984    0.0840 H   0  0  0  0  0  0  0  0  0  0  0  0
    2.7855    1.5476   -2.4148 N   0  0  0  0  0  0  0  0  0  0  0  0
    2.6974    1.5075   -3.5150 N   0  0  0  0  0  0  0  0  0  0  0  0
    3.8079   -0.2058    1.6130 B   0  0  0  0  0  0  0  0  0  0  0  0
    3.5092   -0.9116    0.5257 F   0  0  0  0  0  0  0  0  0  0  0  0
    4.6231    0.8365    1.5252 F   0  0  0  0  0  0  0  0  0  0  0  0
    1.7605    1.3731    1.3417 F   0  0  0  0  0  0  0  0  0  0  0  0
    3.3508   -0.5996    2.7960 F   0  0  0  0  0  0  0  0  0  0  0  0
   -3.0991    0.9644   -0.5212 H   0  0  0  0  0  0  0  0  0  0  0  0
  1  2  1  0  0  0  0
  2  8  1  0  0  0  0
  2  3  2  0  0  0  0
  3 16  1  0  0  0  0
  4  3  1  0  0  0  0
  4  9  1  0  0  0  0
  5  4  2  0  0  0  0
  6  1  2  0  0  0  0
  6  5  1  0  0  0  0
  7  1  1  0  0  0  0
 10  5  1  0  0  0  0
 12 11  3  0  0  0  0
 13 17  1  0  0  0  0
 14 13  1  0  0  0  0
 15 13  1  0  0  0  0
 18  6  1  0  0  0  0
M  END
