Coordinates from ORCA-job Ph-N2-BF4-B3LYPG-aug-cc-pVDZ-scan-d09-49-n400
 OpenBabel11081710393D

 18 16  0  0  0  0  0  0  0  0999 V2000
   -1.0132   -0.0642    0.5028 C   0  0  0  0  0  0  0  0  0  0  0  0
    0.3213    0.1478    0.0591 C   0  0  0  0  0  0  0  0  0  0  0  0
    0.4034    1.4097   -0.3761 C   0  0  0  0  0  0  0  0  0  0  0  0
   -0.3571    2.5178   -0.5111 C   0  0  0  0  0  0  0  0  0  0  0  0
   -1.6625    2.2197   -0.0477 C   0  0  0  0  0  0  0  0  0  0  0  0
   -1.9750    0.9482    0.4452 C   0  0  0  0  0  0  0  0  0  0  0  0
   -1.2378   -1.0465    0.9186 H   0  0  0  0  0  0  0  0  0  0  0  0
    1.1378   -0.5758    0.1439 H   0  0  0  0  0  0  0  0  0  0  0  0
   -0.0513    3.4827   -0.9006 H   0  0  0  0  0  0  0  0  0  0  0  0
   -2.4066    3.0152   -0.0897 H   0  0  0  0  0  0  0  0  0  0  0  0
    2.3830    1.8405   -1.1896 N   0  0  0  0  0  0  0  0  0  0  0  0
    3.3599    2.1022   -1.6267 N   0  0  0  0  0  0  0  0  0  0  0  0
    3.1751   -0.1391    1.4059 B   0  0  0  0  0  0  0  0  0  0  0  0
    3.1094   -0.5824    0.0266 F   0  0  0  0  0  0  0  0  0  0  0  0
    4.4349   -0.3614    1.9311 F   0  0  0  0  0  0  0  0  0  0  0  0
    2.8448    1.2544    1.4038 F   0  0  0  0  0  0  0  0  0  0  0  0
    2.1586   -0.8402    2.1078 F   0  0  0  0  0  0  0  0  0  0  0  0
   -2.9841    0.7476    0.8025 H   0  0  0  0  0  0  0  0  0  0  0  0
  1  7  1  0  0  0  0
  2  8  1  0  0  0  0
  2  1  2  0  0  0  0
  3  2  1  0  0  0  0
  4  3  2  0  0  0  0
  4  5  1  0  0  0  0
  5  6  2  0  0  0  0
  6  1  1  0  0  0  0
  6 18  1  0  0  0  0
  9  4  1  0  0  0  0
 10  5  1  0  0  0  0
 12 11  3  0  0  0  0
 13 15  1  0  0  0  0
 13 17  1  0  0  0  0
 14 13  1  0  0  0  0
 16 13  1  0  0  0  0
M  RAD  1   3   2
M  END
