Coordinates from ORCA-job Ph-N2-BF4-B3LYPG-aug-cc-pVDZ-scan-d09-49-n400
 OpenBabel11081710393D

 18 17  0  0  0  0  0  0  0  0999 V2000
   -1.0584   -0.2496    0.1769 C   0  0  0  0  0  0  0  0  0  0  0  0
    0.2209   -0.1115   -0.3843 C   0  0  0  0  0  0  0  0  0  0  0  0
    0.5784    1.1983   -0.5546 C   0  0  0  0  0  0  0  0  0  0  0  0
   -0.0585    2.3733   -0.2463 C   0  0  0  0  0  0  0  0  0  0  0  0
   -1.3271    2.1711    0.3160 C   0  0  0  0  0  0  0  0  0  0  0  0
   -1.8170    0.8748    0.5177 C   0  0  0  0  0  0  0  0  0  0  0  0
   -1.4347   -1.2531    0.3695 H   0  0  0  0  0  0  0  0  0  0  0  0
    0.8851   -0.9436   -0.5932 H   0  0  0  0  0  0  0  0  0  0  0  0
    0.3800    3.3556   -0.3924 H   0  0  0  0  0  0  0  0  0  0  0  0
   -1.9163    3.0404    0.6052 H   0  0  0  0  0  0  0  0  0  0  0  0
    2.1528    1.4355   -1.2860 N   0  0  0  0  0  0  0  0  0  0  0  0
    3.0752    1.6405   -1.8534 N   0  0  0  0  0  0  0  0  0  0  0  0
    2.9686    0.3515    1.5104 B   0  0  0  0  0  0  0  0  0  0  0  0
    3.0577   -0.4015    0.2749 F   0  0  0  0  0  0  0  0  0  0  0  0
    4.0805    0.1176    2.3008 F   0  0  0  0  0  0  0  0  0  0  0  0
    2.8923    1.7396    1.1277 F   0  0  0  0  0  0  0  0  0  0  0  0
    1.7608   -0.0030    2.1490 F   0  0  0  0  0  0  0  0  0  0  0  0
   -2.7997    0.7399    0.9679 H   0  0  0  0  0  0  0  0  0  0  0  0
  1  7  1  0  0  0  0
  1  6  2  0  0  0  0
  2  1  1  0  0  0  0
  3  2  2  0  0  0  0
  3  4  1  0  0  0  0
  4  5  2  0  0  0  0
  5  6  1  0  0  0  0
  5 10  1  0  0  0  0
  6 18  1  0  0  0  0
  8  2  1  0  0  0  0
  9  4  1  0  0  0  0
 11  3  1  0  0  0  0
 12 11  1  0  0  0  0
 13 17  1  0  0  0  0
 13 15  1  0  0  0  0
 14 13  1  0  0  0  0
 16 13  1  0  0  0  0
M  RAD  2  11   2  12   3
M  END
