Coordinates from ORCA-job Ph-N2-BF4-B3LYPG-aug-cc-pVDZ-scan-d09-49-n400
 OpenBabel11081710393D

 18 16  0  0  0  0  0  0  0  0999 V2000
   -1.2128   -0.0904   -0.0773 C   0  0  0  0  0  0  0  0  0  0  0  0
    0.0768   -0.0060    0.4588 C   0  0  0  0  0  0  0  0  0  0  0  0
    0.5667    1.2531    0.7809 C   0  0  0  0  0  0  0  0  0  0  0  0
   -0.1619    2.4217    0.5990 C   0  0  0  0  0  0  0  0  0  0  0  0
   -1.4493    2.3163    0.0617 C   0  0  0  0  0  0  0  0  0  0  0  0
   -1.9759    1.0651   -0.2768 C   0  0  0  0  0  0  0  0  0  0  0  0
   -1.6201   -1.0670   -0.3392 H   0  0  0  0  0  0  0  0  0  0  0  0
    0.6924   -0.8893    0.6190 H   0  0  0  0  0  0  0  0  0  0  0  0
    0.2729    3.3823    0.8702 H   0  0  0  0  0  0  0  0  0  0  0  0
   -2.0413    3.2189   -0.0913 H   0  0  0  0  0  0  0  0  0  0  0  0
    2.1793    1.5409   -1.7744 N   0  0  0  0  0  0  0  0  0  0  0  0
    1.9614    1.5116   -2.8567 N   0  0  0  0  0  0  0  0  0  0  0  0
    3.8616   -0.2167    1.6013 B   0  0  0  0  0  0  0  0  0  0  0  0
    3.4978   -0.9758    0.5707 F   0  0  0  0  0  0  0  0  0  0  0  0
    4.6852    0.8059    1.4149 F   0  0  0  0  0  0  0  0  0  0  0  0
    1.8245    1.3534    1.3139 F   0  0  0  0  0  0  0  0  0  0  0  0
    3.4626   -0.5387    2.8259 F   0  0  0  0  0  0  0  0  0  0  0  0
   -2.9794    0.9906   -0.6949 H   0  0  0  0  0  0  0  0  0  0  0  0
  1  2  1  0  0  0  0
  2  8  1  0  0  0  0
  2  3  2  0  0  0  0
  3 16  1  0  0  0  0
  4  3  1  0  0  0  0
  4  9  1  0  0  0  0
  5  4  2  0  0  0  0
  6  1  2  0  0  0  0
  6  5  1  0  0  0  0
  7  1  1  0  0  0  0
 10  5  1  0  0  0  0
 12 11  3  0  0  0  0
 13 17  1  0  0  0  0
 14 13  1  0  0  0  0
 15 13  1  0  0  0  0
 18  6  1  0  0  0  0
M  END
