Coordinates from ORCA-job Ph-N2-BF4-B3LYPG-aug-cc-pVDZ-scan-d09-49-n400
 OpenBabel11081710393D

 18 16  0  0  0  0  0  0  0  0999 V2000
   -1.2080   -0.0896   -0.0854 C   0  0  0  0  0  0  0  0  0  0  0  0
    0.0809   -0.0063    0.4523 C   0  0  0  0  0  0  0  0  0  0  0  0
    0.5726    1.2526    0.7727 C   0  0  0  0  0  0  0  0  0  0  0  0
   -0.1551    2.4217    0.5903 C   0  0  0  0  0  0  0  0  0  0  0  0
   -1.4419    2.3174    0.0515 C   0  0  0  0  0  0  0  0  0  0  0  0
   -1.9695    1.0666   -0.2871 C   0  0  0  0  0  0  0  0  0  0  0  0
   -1.6163   -1.0661   -0.3466 H   0  0  0  0  0  0  0  0  0  0  0  0
    0.6952   -0.8901    0.6141 H   0  0  0  0  0  0  0  0  0  0  0  0
    0.2804    3.3819    0.8614 H   0  0  0  0  0  0  0  0  0  0  0  0
   -2.0329    3.2205   -0.1025 H   0  0  0  0  0  0  0  0  0  0  0  0
    2.1345    1.5379   -1.7197 N   0  0  0  0  0  0  0  0  0  0  0  0
    1.9150    1.5119   -2.8018 N   0  0  0  0  0  0  0  0  0  0  0  0
    3.8672   -0.2172    1.5991 B   0  0  0  0  0  0  0  0  0  0  0  0
    3.4983   -0.9834    0.5756 F   0  0  0  0  0  0  0  0  0  0  0  0
    4.6905    0.8035    1.4015 F   0  0  0  0  0  0  0  0  0  0  0  0
    1.8287    1.3516    1.3091 F   0  0  0  0  0  0  0  0  0  0  0  0
    3.4736   -0.5300    2.8278 F   0  0  0  0  0  0  0  0  0  0  0  0
   -2.9726    0.9929   -0.7064 H   0  0  0  0  0  0  0  0  0  0  0  0
  1  2  1  0  0  0  0
  2  8  1  0  0  0  0
  2  3  2  0  0  0  0
  3 16  1  0  0  0  0
  4  3  1  0  0  0  0
  4  9  1  0  0  0  0
  5  4  2  0  0  0  0
  6  1  2  0  0  0  0
  6  5  1  0  0  0  0
  7  1  1  0  0  0  0
 10  5  1  0  0  0  0
 12 11  3  0  0  0  0
 13 17  1  0  0  0  0
 14 13  1  0  0  0  0
 15 13  1  0  0  0  0
 18  6  1  0  0  0  0
M  END
