Coordinates from ORCA-job Ph-N2-BF4-B3LYPG-aug-cc-pVDZ-scan-d09-49-n400
 OpenBabel11081710393D

 18 16  0  0  0  0  0  0  0  0999 V2000
   -1.2182   -0.0912   -0.0679 C   0  0  0  0  0  0  0  0  0  0  0  0
    0.0721   -0.0057    0.4663 C   0  0  0  0  0  0  0  0  0  0  0  0
    0.5601    1.2538    0.7898 C   0  0  0  0  0  0  0  0  0  0  0  0
   -0.1695    2.4218    0.6088 C   0  0  0  0  0  0  0  0  0  0  0  0
   -1.4577    2.3151    0.0733 C   0  0  0  0  0  0  0  0  0  0  0  0
   -1.9832    1.0634   -0.2650 C   0  0  0  0  0  0  0  0  0  0  0  0
   -1.6246   -1.0682   -0.3303 H   0  0  0  0  0  0  0  0  0  0  0  0
    0.6892   -0.8882    0.6245 H   0  0  0  0  0  0  0  0  0  0  0  0
    0.2645    3.3827    0.8799 H   0  0  0  0  0  0  0  0  0  0  0  0
   -2.0510    3.2170   -0.0784 H   0  0  0  0  0  0  0  0  0  0  0  0
    2.2303    1.5441   -1.8361 N   0  0  0  0  0  0  0  0  0  0  0  0
    2.0147    1.5112   -2.9187 N   0  0  0  0  0  0  0  0  0  0  0  0
    3.8552   -0.2161    1.6037 B   0  0  0  0  0  0  0  0  0  0  0  0
    3.4974   -0.9666    0.5647 F   0  0  0  0  0  0  0  0  0  0  0  0
    4.6788    0.8087    1.4305 F   0  0  0  0  0  0  0  0  0  0  0  0
    1.8198    1.3555    1.3191 F   0  0  0  0  0  0  0  0  0  0  0  0
    3.4500   -0.5490    2.8234 F   0  0  0  0  0  0  0  0  0  0  0  0
   -2.9873    0.9879   -0.6816 H   0  0  0  0  0  0  0  0  0  0  0  0
  1  2  1  0  0  0  0
  2  8  1  0  0  0  0
  2  3  2  0  0  0  0
  3 16  1  0  0  0  0
  4  3  1  0  0  0  0
  4  9  1  0  0  0  0
  5  4  2  0  0  0  0
  6  1  2  0  0  0  0
  6  5  1  0  0  0  0
  7  1  1  0  0  0  0
 10  5  1  0  0  0  0
 12 11  3  0  0  0  0
 13 17  1  0  0  0  0
 14 13  1  0  0  0  0
 15 13  1  0  0  0  0
 18  6  1  0  0  0  0
M  END
