Coordinates from ORCA-job Ph-N2-BF4-B3LYPG-aug-cc-pVDZ-scan-d09-49-n400
 OpenBabel11081710393D

 18 17  0  0  0  0  0  0  0  0999 V2000
   -0.9379   -0.2547    0.1531 C   0  0  0  0  0  0  0  0  0  0  0  0
    0.2765   -0.0996   -0.4964 C   0  0  0  0  0  0  0  0  0  0  0  0
    0.7523    1.2174   -0.7345 C   0  0  0  0  0  0  0  0  0  0  0  0
    0.0326    2.3600   -0.2843 C   0  0  0  0  0  0  0  0  0  0  0  0
   -1.1684    2.1673    0.3707 C   0  0  0  0  0  0  0  0  0  0  0  0
   -1.6539    0.8662    0.5849 C   0  0  0  0  0  0  0  0  0  0  0  0
   -1.3074   -1.2575    0.3589 H   0  0  0  0  0  0  0  0  0  0  0  0
    0.8946   -0.9447   -0.7870 H   0  0  0  0  0  0  0  0  0  0  0  0
    0.4517    3.3512   -0.4444 H   0  0  0  0  0  0  0  0  0  0  0  0
   -1.7270    3.0284    0.7335 H   0  0  0  0  0  0  0  0  0  0  0  0
    1.8323    1.3804   -1.3234 N   0  0  0  0  0  0  0  0  0  0  0  0
    2.7921    1.5408   -1.8740 N   0  0  0  0  0  0  0  0  0  0  0  0
    2.8190    0.3911    1.5607 B   0  0  0  0  0  0  0  0  0  0  0  0
    3.0655   -0.3428    0.3429 F   0  0  0  0  0  0  0  0  0  0  0  0
    3.8386    0.1905    2.4752 F   0  0  0  0  0  0  0  0  0  0  0  0
    2.7190    1.7772    1.1906 F   0  0  0  0  0  0  0  0  0  0  0  0
    1.5576   -0.0242    2.0652 F   0  0  0  0  0  0  0  0  0  0  0  0
   -2.5967    0.7289    1.1143 H   0  0  0  0  0  0  0  0  0  0  0  0
  1  7  1  0  0  0  0
  1  6  2  0  0  0  0
  2  1  1  0  0  0  0
  3  2  2  0  0  0  0
  3  4  1  0  0  0  0
  4  5  2  0  0  0  0
  5  6  1  0  0  0  0
  5 10  1  0  0  0  0
  6 18  1  0  0  0  0
  8  2  1  0  0  0  0
  9  4  1  0  0  0  0
 11  3  1  0  0  0  0
 12 11  1  0  0  0  0
 13 17  1  0  0  0  0
 13 15  1  0  0  0  0
 14 13  1  0  0  0  0
 16 13  1  0  0  0  0
M  RAD  2  11   2  12   3
M  END
