Coordinates from ORCA-job Ph-N2-BF4-B3LYPG-aug-cc-pVDZ-scan-d09-49-n400
 OpenBabel11081710393D

 18 16  0  0  0  0  0  0  0  0999 V2000
   -1.0352   -0.0288    0.5424 C   0  0  0  0  0  0  0  0  0  0  0  0
    0.3009    0.1782    0.1296 C   0  0  0  0  0  0  0  0  0  0  0  0
    0.4359    1.4256   -0.3707 C   0  0  0  0  0  0  0  0  0  0  0  0
   -0.3693    2.5063   -0.5636 C   0  0  0  0  0  0  0  0  0  0  0  0
   -1.6812    2.2249   -0.1303 C   0  0  0  0  0  0  0  0  0  0  0  0
   -2.0008    0.9744    0.4116 C   0  0  0  0  0  0  0  0  0  0  0  0
   -1.2786   -0.9941    0.9853 H   0  0  0  0  0  0  0  0  0  0  0  0
    1.1092   -0.5449    0.2482 H   0  0  0  0  0  0  0  0  0  0  0  0
   -0.0635    3.4595   -0.9826 H   0  0  0  0  0  0  0  0  0  0  0  0
   -2.4333    3.0077   -0.2254 H   0  0  0  0  0  0  0  0  0  0  0  0
    2.2635    1.8113   -1.0051 N   0  0  0  0  0  0  0  0  0  0  0  0
    3.2229    2.1235   -1.4464 N   0  0  0  0  0  0  0  0  0  0  0  0
    3.2681   -0.1805    1.3636 B   0  0  0  0  0  0  0  0  0  0  0  0
    3.1571   -0.5308   -0.0389 F   0  0  0  0  0  0  0  0  0  0  0  0
    4.5499   -0.4169    1.8264 F   0  0  0  0  0  0  0  0  0  0  0  0
    2.9267    1.2103    1.4585 F   0  0  0  0  0  0  0  0  0  0  0  0
    2.2877   -0.9330    2.0569 F   0  0  0  0  0  0  0  0  0  0  0  0
   -3.0196    0.7832    0.7463 H   0  0  0  0  0  0  0  0  0  0  0  0
  1  7  1  0  0  0  0
  2  8  1  0  0  0  0
  2  1  2  0  0  0  0
  3  2  1  0  0  0  0
  4  3  2  0  0  0  0
  4  5  1  0  0  0  0
  5  6  2  0  0  0  0
  6  1  1  0  0  0  0
  6 18  1  0  0  0  0
  9  4  1  0  0  0  0
 10  5  1  0  0  0  0
 12 11  3  0  0  0  0
 13 16  1  0  0  0  0
 13 15  1  0  0  0  0
 13 17  1  0  0  0  0
 14 13  1  0  0  0  0
M  RAD  1   3   2
M  END
