Coordinates from ORCA-job Ph-N2-BF4-B3LYPG-aug-cc-pVDZ-scan-d09-49-n400
 OpenBabel11081710393D

 18 16  0  0  0  0  0  0  0  0999 V2000
   -1.2797   -0.0968    0.0067 C   0  0  0  0  0  0  0  0  0  0  0  0
    0.0205   -0.0021    0.5148 C   0  0  0  0  0  0  0  0  0  0  0  0
    0.4997    1.2597    0.8430 C   0  0  0  0  0  0  0  0  0  0  0  0
   -0.2447    2.4218    0.6859 C   0  0  0  0  0  0  0  0  0  0  0  0
   -1.5425    2.3055    0.1762 C   0  0  0  0  0  0  0  0  0  0  0  0
   -2.0613    1.0511   -0.1623 C   0  0  0  0  0  0  0  0  0  0  0  0
   -1.6804   -1.0755   -0.2578 H   0  0  0  0  0  0  0  0  0  0  0  0
    0.6511   -0.8788    0.6507 H   0  0  0  0  0  0  0  0  0  0  0  0
    0.1851    3.3850    0.9557 H   0  0  0  0  0  0  0  0  0  0  0  0
   -2.1483    3.2022    0.0443 H   0  0  0  0  0  0  0  0  0  0  0  0
    2.6661    1.5487   -2.2867 N   0  0  0  0  0  0  0  0  0  0  0  0
    2.5479    1.5085   -3.3840 N   0  0  0  0  0  0  0  0  0  0  0  0
    3.8168   -0.2086    1.6074 B   0  0  0  0  0  0  0  0  0  0  0  0
    3.5044   -0.9214    0.5284 F   0  0  0  0  0  0  0  0  0  0  0  0
    4.6359    0.8292    1.5036 F   0  0  0  0  0  0  0  0  0  0  0  0
    1.7728    1.3707    1.3409 F   0  0  0  0  0  0  0  0  0  0  0  0
    3.3701   -0.5914    2.7978 F   0  0  0  0  0  0  0  0  0  0  0  0
   -3.0731    0.9684   -0.5586 H   0  0  0  0  0  0  0  0  0  0  0  0
  1  2  1  0  0  0  0
  2  8  1  0  0  0  0
  2  3  2  0  0  0  0
  3 16  1  0  0  0  0
  4  3  1  0  0  0  0
  4  9  1  0  0  0  0
  5  4  2  0  0  0  0
  6  1  2  0  0  0  0
  6  5  1  0  0  0  0
  7  1  1  0  0  0  0
 10  5  1  0  0  0  0
 12 11  3  0  0  0  0
 13 17  1  0  0  0  0
 14 13  1  0  0  0  0
 15 13  1  0  0  0  0
 18  6  1  0  0  0  0
M  END
