Coordinates from ORCA-job Ph-N2-BF4-B3LYPG-aug-cc-pVDZ-scan-d09-49-n400
 OpenBabel11081710393D

 18 17  0  0  0  0  0  0  0  0999 V2000
   -0.6892   -0.2293    0.1973 C   0  0  0  0  0  0  0  0  0  0  0  0
    0.3966   -0.0606   -0.6280 C   0  0  0  0  0  0  0  0  0  0  0  0
    0.8675    1.2853   -0.9938 C   0  0  0  0  0  0  0  0  0  0  0  0
    0.1059    2.4082   -0.4215 C   0  0  0  0  0  0  0  0  0  0  0  0
   -0.9781    2.1915    0.3859 C   0  0  0  0  0  0  0  0  0  0  0  0
   -1.3729    0.8800    0.7084 C   0  0  0  0  0  0  0  0  0  0  0  0
   -0.9841   -1.2374    0.4815 H   0  0  0  0  0  0  0  0  0  0  0  0
    0.9784   -0.8903   -1.0201 H   0  0  0  0  0  0  0  0  0  0  0  0
    0.4757    3.4040   -0.6627 H   0  0  0  0  0  0  0  0  0  0  0  0
   -1.5117    3.0441    0.8034 H   0  0  0  0  0  0  0  0  0  0  0  0
    1.6364    1.4209   -1.5352 N   0  0  0  0  0  0  0  0  0  0  0  0
    2.5663    1.5806   -2.1939 N   0  0  0  0  0  0  0  0  0  0  0  0
    2.4930    0.3038    1.7348 B   0  0  0  0  0  0  0  0  0  0  0  0
    2.7852   -0.3087    0.4589 F   0  0  0  0  0  0  0  0  0  0  0  0
    3.6160    0.3040    2.5445 F   0  0  0  0  0  0  0  0  0  0  0  0
    2.0662    1.6485    1.4502 F   0  0  0  0  0  0  0  0  0  0  0  0
    1.4067   -0.3946    2.3167 F   0  0  0  0  0  0  0  0  0  0  0  0
   -2.2175    0.7260    1.3798 H   0  0  0  0  0  0  0  0  0  0  0  0
  1  7  1  0  0  0  0
  1  6  2  0  0  0  0
  2  1  1  0  0  0  0
  3  2  2  0  0  0  0
  3  4  1  0  0  0  0
  4  5  2  0  0  0  0
  5  6  1  0  0  0  0
  5 10  1  0  0  0  0
  6 18  1  0  0  0  0
  8  2  1  0  0  0  0
  9  4  1  0  0  0  0
 11  3  1  0  0  0  0
 12 11  1  0  0  0  0
 13 17  1  0  0  0  0
 13 15  1  0  0  0  0
 14 13  1  0  0  0  0
 16 13  1  0  0  0  0
M  RAD  2  11   2  12   3
M  END
