Coordinates from ORCA-job Ph-N2-BF4-B3LYPG-aug-cc-pVDZ-scan-d09-49-n400
 OpenBabel11081710403D

 18 16  0  0  0  0  0  0  0  0999 V2000
   -1.3515   -0.0961    0.0728 C   0  0  0  0  0  0  0  0  0  0  0  0
   -0.0378    0.0080    0.5430 C   0  0  0  0  0  0  0  0  0  0  0  0
    0.4254    1.2681    0.8990 C   0  0  0  0  0  0  0  0  0  0  0  0
   -0.3434    2.4195    0.8029 C   0  0  0  0  0  0  0  0  0  0  0  0
   -1.6546    2.2935    0.3300 C   0  0  0  0  0  0  0  0  0  0  0  0
   -2.1598    1.0409   -0.0335 C   0  0  0  0  0  0  0  0  0  0  0  0
   -1.7416   -1.0733   -0.2123 H   0  0  0  0  0  0  0  0  0  0  0  0
    0.6149   -0.8588    0.6291 H   0  0  0  0  0  0  0  0  0  0  0  0
    0.0749    3.3826    1.0906 H   0  0  0  0  0  0  0  0  0  0  0  0
   -2.2808    3.1820    0.2458 H   0  0  0  0  0  0  0  0  0  0  0  0
    3.2012    1.5112   -2.8603 N   0  0  0  0  0  0  0  0  0  0  0  0
    3.2233    1.4625   -3.9634 N   0  0  0  0  0  0  0  0  0  0  0  0
    3.7693   -0.1865    1.6246 B   0  0  0  0  0  0  0  0  0  0  0  0
    3.5019   -0.8720    0.5165 F   0  0  0  0  0  0  0  0  0  0  0  0
    4.5806    0.8614    1.5762 F   0  0  0  0  0  0  0  0  0  0  0  0
    1.7144    1.3872    1.3572 F   0  0  0  0  0  0  0  0  0  0  0  0
    3.2858   -0.6050    2.7885 F   0  0  0  0  0  0  0  0  0  0  0  0
   -3.1818    0.9507   -0.4009 H   0  0  0  0  0  0  0  0  0  0  0  0
  1  2  1  0  0  0  0
  2  8  1  0  0  0  0
  2  3  2  0  0  0  0
  3 16  1  0  0  0  0
  4  3  1  0  0  0  0
  4  9  1  0  0  0  0
  5  4  2  0  0  0  0
  6  1  2  0  0  0  0
  6  5  1  0  0  0  0
  7  1  1  0  0  0  0
 10  5  1  0  0  0  0
 12 11  3  0  0  0  0
 13 17  1  0  0  0  0
 14 13  1  0  0  0  0
 15 13  1  0  0  0  0
 18  6  1  0  0  0  0
M  END
