Coordinates from ORCA-job Ph-N2-BF4-B3LYPG-aug-cc-pVDZ-scan-d09-49-n400
 OpenBabel11081710393D

 18 16  0  0  0  0  0  0  0  0999 V2000
   -1.2685   -0.0962   -0.0046 C   0  0  0  0  0  0  0  0  0  0  0  0
    0.0296   -0.0026    0.5092 C   0  0  0  0  0  0  0  0  0  0  0  0
    0.5094    1.2592    0.8368 C   0  0  0  0  0  0  0  0  0  0  0  0
   -0.2324    2.4221    0.6738 C   0  0  0  0  0  0  0  0  0  0  0  0
   -1.5281    2.3068    0.1585 C   0  0  0  0  0  0  0  0  0  0  0  0
   -2.0474    1.0526   -0.1797 C   0  0  0  0  0  0  0  0  0  0  0  0
   -1.6697   -1.0749   -0.2687 H   0  0  0  0  0  0  0  0  0  0  0  0
    0.6580   -0.8801    0.6499 H   0  0  0  0  0  0  0  0  0  0  0  0
    0.1977    3.3852    0.9436 H   0  0  0  0  0  0  0  0  0  0  0  0
   -2.1318    3.2042    0.0219 H   0  0  0  0  0  0  0  0  0  0  0  0
    2.5960    1.5492   -2.2135 N   0  0  0  0  0  0  0  0  0  0  0  0
    2.4598    1.5092   -3.3087 N   0  0  0  0  0  0  0  0  0  0  0  0
    3.8213   -0.2101    1.6049 B   0  0  0  0  0  0  0  0  0  0  0  0
    3.4990   -0.9270    0.5316 F   0  0  0  0  0  0  0  0  0  0  0  0
    4.6431    0.8245    1.4905 F   0  0  0  0  0  0  0  0  0  0  0  0
    1.7802    1.3693    1.3404 F   0  0  0  0  0  0  0  0  0  0  0  0
    3.3821   -0.5860    2.8003 F   0  0  0  0  0  0  0  0  0  0  0  0
   -3.0575    0.9706   -0.5804 H   0  0  0  0  0  0  0  0  0  0  0  0
  1  2  1  0  0  0  0
  2  8  1  0  0  0  0
  2  3  2  0  0  0  0
  3 16  1  0  0  0  0
  4  3  1  0  0  0  0
  4  9  1  0  0  0  0
  5  4  2  0  0  0  0
  6  1  2  0  0  0  0
  6  5  1  0  0  0  0
  7  1  1  0  0  0  0
 10  5  1  0  0  0  0
 12 11  3  0  0  0  0
 13 17  1  0  0  0  0
 14 13  1  0  0  0  0
 15 13  1  0  0  0  0
 18  6  1  0  0  0  0
M  END
