Coordinates from ORCA-job Ph-N2-BF4-B3LYPG-aug-cc-pVDZ-scan-d09-49-n400
 OpenBabel11081710393D

 18 16  0  0  0  0  0  0  0  0999 V2000
   -1.1955   -0.0869   -0.1054 C   0  0  0  0  0  0  0  0  0  0  0  0
    0.0921   -0.0054    0.4358 C   0  0  0  0  0  0  0  0  0  0  0  0
    0.5874    1.2526    0.7513 C   0  0  0  0  0  0  0  0  0  0  0  0
   -0.1387    2.4221    0.5696 C   0  0  0  0  0  0  0  0  0  0  0  0
   -1.4242    2.3205    0.0275 C   0  0  0  0  0  0  0  0  0  0  0  0
   -1.9537    1.0705   -0.3117 C   0  0  0  0  0  0  0  0  0  0  0  0
   -1.6054   -1.0631   -0.3652 H   0  0  0  0  0  0  0  0  0  0  0  0
    0.7045   -0.8899    0.6004 H   0  0  0  0  0  0  0  0  0  0  0  0
    0.2997    3.3812    0.8400 H   0  0  0  0  0  0  0  0  0  0  0  0
   -2.0128    3.2248   -0.1284 H   0  0  0  0  0  0  0  0  0  0  0  0
    2.0304    1.5275   -1.5908 N   0  0  0  0  0  0  0  0  0  0  0  0
    1.7924    1.5044   -2.6693 N   0  0  0  0  0  0  0  0  0  0  0  0
    3.8804   -0.2181    1.5950 B   0  0  0  0  0  0  0  0  0  0  0  0
    3.5020   -0.9944    0.5829 F   0  0  0  0  0  0  0  0  0  0  0  0
    4.7020    0.8004    1.3795 F   0  0  0  0  0  0  0  0  0  0  0  0
    1.8383    1.3487    1.2983 F   0  0  0  0  0  0  0  0  0  0  0  0
    3.4975   -0.5177    2.8303 F   0  0  0  0  0  0  0  0  0  0  0  0
   -2.9558    0.9986   -0.7338 H   0  0  0  0  0  0  0  0  0  0  0  0
  1  2  1  0  0  0  0
  2  8  1  0  0  0  0
  2  3  2  0  0  0  0
  3 16  1  0  0  0  0
  4  3  1  0  0  0  0
  4  9  1  0  0  0  0
  5  4  2  0  0  0  0
  6  1  2  0  0  0  0
  6  5  1  0  0  0  0
  7  1  1  0  0  0  0
 10  5  1  0  0  0  0
 12 11  3  0  0  0  0
 13 17  1  0  0  0  0
 14 13  1  0  0  0  0
 15 13  1  0  0  0  0
 18  6  1  0  0  0  0
M  END
