Coordinates from ORCA-job Ph-N2-BF4-B3LYPG-aug-cc-pVDZ-scan-d09-49-n400
 OpenBabel11081710403D

 18 16  0  0  0  0  0  0  0  0999 V2000
   -1.3592   -0.0880    0.0622 C   0  0  0  0  0  0  0  0  0  0  0  0
   -0.0418    0.0183    0.5223 C   0  0  0  0  0  0  0  0  0  0  0  0
    0.4127    1.2745    0.9017 C   0  0  0  0  0  0  0  0  0  0  0  0
   -0.3706    2.4200    0.8428 C   0  0  0  0  0  0  0  0  0  0  0  0
   -1.6846    2.2917    0.3799 C   0  0  0  0  0  0  0  0  0  0  0  0
   -2.1799    1.0424   -0.0093 C   0  0  0  0  0  0  0  0  0  0  0  0
   -1.7428   -1.0623   -0.2411 H   0  0  0  0  0  0  0  0  0  0  0  0
    0.6192   -0.8442    0.5841 H   0  0  0  0  0  0  0  0  0  0  0  0
    0.0411    3.3793    1.1516 H   0  0  0  0  0  0  0  0  0  0  0  0
   -2.3214    3.1748    0.3245 H   0  0  0  0  0  0  0  0  0  0  0  0
    3.3049    1.4662   -2.9617 N   0  0  0  0  0  0  0  0  0  0  0  0
    3.3523    1.4046   -4.0634 N   0  0  0  0  0  0  0  0  0  0  0  0
    3.7629   -0.1730    1.6299 B   0  0  0  0  0  0  0  0  0  0  0  0
    3.5035   -0.8645    0.5237 F   0  0  0  0  0  0  0  0  0  0  0  0
    4.5716    0.8770    1.5805 F   0  0  0  0  0  0  0  0  0  0  0  0
    1.7034    1.3959    1.3540 F   0  0  0  0  0  0  0  0  0  0  0  0
    3.2740   -0.5867    2.7931 F   0  0  0  0  0  0  0  0  0  0  0  0
   -3.2046    0.9500   -0.3688 H   0  0  0  0  0  0  0  0  0  0  0  0
  1  2  1  0  0  0  0
  2  8  1  0  0  0  0
  2  3  2  0  0  0  0
  3 16  1  0  0  0  0
  4  3  1  0  0  0  0
  4  9  1  0  0  0  0
  5  4  2  0  0  0  0
  6  1  2  0  0  0  0
  6  5  1  0  0  0  0
  7  1  1  0  0  0  0
 10  5  1  0  0  0  0
 12 11  3  0  0  0  0
 13 17  1  0  0  0  0
 14 13  1  0  0  0  0
 15 13  1  0  0  0  0
 18  6  1  0  0  0  0
M  END
