Coordinates from ORCA-job Ph-N2-BF4-B3LYPG-aug-cc-pVDZ-scan-d09-49-n400
 OpenBabel11081710393D

 18 17  0  0  0  0  0  0  0  0999 V2000
   -1.0109   -0.2575    0.1476 C   0  0  0  0  0  0  0  0  0  0  0  0
    0.2331   -0.1104   -0.4627 C   0  0  0  0  0  0  0  0  0  0  0  0
    0.6669    1.1997   -0.6522 C   0  0  0  0  0  0  0  0  0  0  0  0
   -0.0081    2.3560   -0.2575 C   0  0  0  0  0  0  0  0  0  0  0  0
   -1.2425    2.1643    0.3547 C   0  0  0  0  0  0  0  0  0  0  0  0
   -1.7386    0.8671    0.5509 C   0  0  0  0  0  0  0  0  0  0  0  0
   -1.3945   -1.2585    0.3364 H   0  0  0  0  0  0  0  0  0  0  0  0
    0.8633   -0.9538   -0.7282 H   0  0  0  0  0  0  0  0  0  0  0  0
    0.4254    3.3425   -0.4000 H   0  0  0  0  0  0  0  0  0  0  0  0
   -1.8111    3.0285    0.6942 H   0  0  0  0  0  0  0  0  0  0  0  0
    1.9885    1.3917   -1.2935 N   0  0  0  0  0  0  0  0  0  0  0  0
    2.9405    1.5639   -1.8294 N   0  0  0  0  0  0  0  0  0  0  0  0
    2.9017    0.3928    1.5375 B   0  0  0  0  0  0  0  0  0  0  0  0
    3.0635   -0.3683    0.3168 F   0  0  0  0  0  0  0  0  0  0  0  0
    3.9691    0.1770    2.3920 F   0  0  0  0  0  0  0  0  0  0  0  0
    2.8319    1.7763    1.1391 F   0  0  0  0  0  0  0  0  0  0  0  0
    1.6629    0.0316    2.1151 F   0  0  0  0  0  0  0  0  0  0  0  0
   -2.7006    0.7331    1.0450 H   0  0  0  0  0  0  0  0  0  0  0  0
  1  7  1  0  0  0  0
  1  6  2  0  0  0  0
  2  1  1  0  0  0  0
  3  2  2  0  0  0  0
  3  4  1  0  0  0  0
  4  5  2  0  0  0  0
  5  6  1  0  0  0  0
  5 10  1  0  0  0  0
  6 18  1  0  0  0  0
  8  2  1  0  0  0  0
  9  4  1  0  0  0  0
 11  3  1  0  0  0  0
 12 11  1  0  0  0  0
 13 17  1  0  0  0  0
 13 15  1  0  0  0  0
 14 13  1  0  0  0  0
 16 13  1  0  0  0  0
M  RAD  2  11   2  12   3
M  END
