Coordinates from ORCA-job Ph-N2-BF4-B3LYPG-aug-cc-pVDZ-scan-d09-49-n400
 OpenBabel11081710393D

 18 17  0  0  0  0  0  0  0  0999 V2000
   -0.7459   -0.2345    0.1865 C   0  0  0  0  0  0  0  0  0  0  0  0
    0.3592   -0.0660   -0.6216 C   0  0  0  0  0  0  0  0  0  0  0  0
    0.8113    1.2658   -0.9410 C   0  0  0  0  0  0  0  0  0  0  0  0
    0.0870    2.3955   -0.4101 C   0  0  0  0  0  0  0  0  0  0  0  0
   -1.0180    2.1874    0.3823 C   0  0  0  0  0  0  0  0  0  0  0  0
   -1.4281    0.8789    0.6909 C   0  0  0  0  0  0  0  0  0  0  0  0
   -1.0546   -1.2408    0.4614 H   0  0  0  0  0  0  0  0  0  0  0  0
    0.9413   -0.9043   -0.9933 H   0  0  0  0  0  0  0  0  0  0  0  0
    0.4621    3.3928   -0.6330 H   0  0  0  0  0  0  0  0  0  0  0  0
   -1.5518    3.0422    0.7942 H   0  0  0  0  0  0  0  0  0  0  0  0
    1.7177    1.4172   -1.5282 N   0  0  0  0  0  0  0  0  0  0  0  0
    2.6587    1.5786   -2.1353 N   0  0  0  0  0  0  0  0  0  0  0  0
    2.5551    0.3203    1.7142 B   0  0  0  0  0  0  0  0  0  0  0  0
    2.8302   -0.3013    0.4382 F   0  0  0  0  0  0  0  0  0  0  0  0
    3.6828    0.2927    2.5197 F   0  0  0  0  0  0  0  0  0  0  0  0
    2.1622    1.6746    1.4317 F   0  0  0  0  0  0  0  0  0  0  0  0
    1.4556   -0.3520    2.3007 F   0  0  0  0  0  0  0  0  0  0  0  0
   -2.2842    0.7290    1.3487 H   0  0  0  0  0  0  0  0  0  0  0  0
  1  7  1  0  0  0  0
  1  6  2  0  0  0  0
  2  1  1  0  0  0  0
  3  2  2  0  0  0  0
  3  4  1  0  0  0  0
  4  5  2  0  0  0  0
  5  6  1  0  0  0  0
  5 10  1  0  0  0  0
  6 18  1  0  0  0  0
  8  2  1  0  0  0  0
  9  4  1  0  0  0  0
 11  3  1  0  0  0  0
 12 11  1  0  0  0  0
 13 17  1  0  0  0  0
 13 15  1  0  0  0  0
 14 13  1  0  0  0  0
 16 13  1  0  0  0  0
M  RAD  2  11   2  12   3
M  END
