Coordinates from ORCA-job Ph-N2-BF4-B3LYPG-aug-cc-pVDZ-scan-d09-49-n400
 OpenBabel11081710393D

 18 16  0  0  0  0  0  0  0  0999 V2000
   -1.3194   -0.0992    0.0483 C   0  0  0  0  0  0  0  0  0  0  0  0
   -0.0110    0.0002    0.5342 C   0  0  0  0  0  0  0  0  0  0  0  0
    0.4642    1.2623    0.8683 C   0  0  0  0  0  0  0  0  0  0  0  0
   -0.2930    2.4205    0.7392 C   0  0  0  0  0  0  0  0  0  0  0  0
   -1.5987    2.2992    0.2514 C   0  0  0  0  0  0  0  0  0  0  0  0
   -2.1130    1.0444   -0.0928 C   0  0  0  0  0  0  0  0  0  0  0  0
   -1.7171   -1.0778   -0.2207 H   0  0  0  0  0  0  0  0  0  0  0  0
    0.6288   -0.8731    0.6489 H   0  0  0  0  0  0  0  0  0  0  0  0
    0.1336    3.3842    1.0130 H   0  0  0  0  0  0  0  0  0  0  0  0
   -2.2142    3.1922    0.1410 H   0  0  0  0  0  0  0  0  0  0  0  0
    2.9451    1.5437   -2.5937 N   0  0  0  0  0  0  0  0  0  0  0  0
    2.9008    1.5034   -3.6965 N   0  0  0  0  0  0  0  0  0  0  0  0
    3.7905   -0.2005    1.6209 B   0  0  0  0  0  0  0  0  0  0  0  0
    3.5032   -0.8956    0.5235 F   0  0  0  0  0  0  0  0  0  0  0  0
    4.6054    0.8435    1.5516 F   0  0  0  0  0  0  0  0  0  0  0  0
    1.7445    1.3776    1.3460 F   0  0  0  0  0  0  0  0  0  0  0  0
    3.3222   -0.6066    2.7950 F   0  0  0  0  0  0  0  0  0  0  0  0
   -3.1312    0.9579   -0.4717 H   0  0  0  0  0  0  0  0  0  0  0  0
  1  2  1  0  0  0  0
  2  8  1  0  0  0  0
  2  3  2  0  0  0  0
  3 16  1  0  0  0  0
  4  3  1  0  0  0  0
  4  9  1  0  0  0  0
  5  4  2  0  0  0  0
  6  1  2  0  0  0  0
  6  5  1  0  0  0  0
  7  1  1  0  0  0  0
 10  5  1  0  0  0  0
 12 11  3  0  0  0  0
 13 17  1  0  0  0  0
 14 13  1  0  0  0  0
 15 13  1  0  0  0  0
 18  6  1  0  0  0  0
M  END
