Coordinates from ORCA-job Ph-N2-BF4-B3LYPG-aug-cc-pVDZ-scan-d09-49-n400
 OpenBabel11081710393D

 18 16  0  0  0  0  0  0  0  0999 V2000
   -1.2827   -0.0970    0.0097 C   0  0  0  0  0  0  0  0  0  0  0  0
    0.0182   -0.0020    0.5162 C   0  0  0  0  0  0  0  0  0  0  0  0
    0.4972    1.2599    0.8447 C   0  0  0  0  0  0  0  0  0  0  0  0
   -0.2480    2.4217    0.6892 C   0  0  0  0  0  0  0  0  0  0  0  0
   -1.5464    2.3051    0.1811 C   0  0  0  0  0  0  0  0  0  0  0  0
   -2.0650    1.0507   -0.1575 C   0  0  0  0  0  0  0  0  0  0  0  0
   -1.6833   -1.0757   -0.2549 H   0  0  0  0  0  0  0  0  0  0  0  0
    0.6494   -0.8785    0.6508 H   0  0  0  0  0  0  0  0  0  0  0  0
    0.1818    3.3850    0.9590 H   0  0  0  0  0  0  0  0  0  0  0  0
   -2.1528    3.2016    0.0505 H   0  0  0  0  0  0  0  0  0  0  0  0
    2.6852    1.5486   -2.3067 N   0  0  0  0  0  0  0  0  0  0  0  0
    2.5718    1.5083   -3.4046 N   0  0  0  0  0  0  0  0  0  0  0  0
    3.8154   -0.2082    1.6081 B   0  0  0  0  0  0  0  0  0  0  0  0
    3.5055   -0.9198    0.5277 F   0  0  0  0  0  0  0  0  0  0  0  0
    4.6339    0.8304    1.5071 F   0  0  0  0  0  0  0  0  0  0  0  0
    1.7709    1.3710    1.3410 F   0  0  0  0  0  0  0  0  0  0  0  0
    3.3668   -0.5928    2.7972 F   0  0  0  0  0  0  0  0  0  0  0  0
   -3.0773    0.9677   -0.5526 H   0  0  0  0  0  0  0  0  0  0  0  0
  1  2  1  0  0  0  0
  2  8  1  0  0  0  0
  2  3  2  0  0  0  0
  3 16  1  0  0  0  0
  4  3  1  0  0  0  0
  4  9  1  0  0  0  0
  5  4  2  0  0  0  0
  6  1  2  0  0  0  0
  6  5  1  0  0  0  0
  7  1  1  0  0  0  0
 10  5  1  0  0  0  0
 12 11  3  0  0  0  0
 13 17  1  0  0  0  0
 14 13  1  0  0  0  0
 15 13  1  0  0  0  0
 18  6  1  0  0  0  0
M  END
