Coordinates from ORCA-job Ph-N2-BF4-B3LYPG-aug-cc-pVDZ-scan-d09-49-n400
 OpenBabel11081710393D

 18 16  0  0  0  0  0  0  0  0999 V2000
   -1.3015   -0.0979    0.0287 C   0  0  0  0  0  0  0  0  0  0  0  0
    0.0031   -0.0011    0.5249 C   0  0  0  0  0  0  0  0  0  0  0  0
    0.4806    1.2608    0.8555 C   0  0  0  0  0  0  0  0  0  0  0  0
   -0.2696    2.4210    0.7120 C   0  0  0  0  0  0  0  0  0  0  0  0
   -1.5717    2.3024    0.2140 C   0  0  0  0  0  0  0  0  0  0  0  0
   -2.0890    1.0479   -0.1264 C   0  0  0  0  0  0  0  0  0  0  0  0
   -1.7011   -1.0767   -0.2375 H   0  0  0  0  0  0  0  0  0  0  0  0
    0.6384   -0.8761    0.6500 H   0  0  0  0  0  0  0  0  0  0  0  0
    0.1593    3.3844    0.9827 H   0  0  0  0  0  0  0  0  0  0  0  0
   -2.1821    3.1976    0.0927 H   0  0  0  0  0  0  0  0  0  0  0  0
    2.8100    1.5474   -2.4425 N   0  0  0  0  0  0  0  0  0  0  0  0
    2.7281    1.5074   -3.5433 N   0  0  0  0  0  0  0  0  0  0  0  0
    3.8057   -0.2052    1.6147 B   0  0  0  0  0  0  0  0  0  0  0  0
    3.5093   -0.9097    0.5259 F   0  0  0  0  0  0  0  0  0  0  0  0
    4.6204    0.8377    1.5298 F   0  0  0  0  0  0  0  0  0  0  0  0
    1.7580    1.3736    1.3422 F   0  0  0  0  0  0  0  0  0  0  0  0
    3.3469   -0.6009    2.7963 F   0  0  0  0  0  0  0  0  0  0  0  0
   -3.1042    0.9635   -0.5135 H   0  0  0  0  0  0  0  0  0  0  0  0
  1  2  1  0  0  0  0
  2  8  1  0  0  0  0
  2  3  2  0  0  0  0
  3 16  1  0  0  0  0
  4  3  1  0  0  0  0
  4  9  1  0  0  0  0
  5  4  2  0  0  0  0
  6  1  2  0  0  0  0
  6  5  1  0  0  0  0
  7  1  1  0  0  0  0
 10  5  1  0  0  0  0
 12 11  3  0  0  0  0
 13 17  1  0  0  0  0
 14 13  1  0  0  0  0
 15 13  1  0  0  0  0
 18  6  1  0  0  0  0
M  END
