Coordinates from ORCA-job Ph-N2-BF4-B3LYPG-aug-cc-pVDZ-scan-d09-49-n400
 OpenBabel11081710393D

 18 17  0  0  0  0  0  0  0  0999 V2000
   -1.0293   -0.2569    0.1486 C   0  0  0  0  0  0  0  0  0  0  0  0
    0.2252   -0.1130   -0.4460 C   0  0  0  0  0  0  0  0  0  0  0  0
    0.6464    1.1963   -0.6258 C   0  0  0  0  0  0  0  0  0  0  0  0
   -0.0193    2.3568   -0.2489 C   0  0  0  0  0  0  0  0  0  0  0  0
   -1.2648    2.1649    0.3461 C   0  0  0  0  0  0  0  0  0  0  0  0
   -1.7631    0.8686    0.5382 C   0  0  0  0  0  0  0  0  0  0  0  0
   -1.4152   -1.2577    0.3337 H   0  0  0  0  0  0  0  0  0  0  0  0
    0.8616   -0.9550   -0.6996 H   0  0  0  0  0  0  0  0  0  0  0  0
    0.4184    3.3418   -0.3870 H   0  0  0  0  0  0  0  0  0  0  0  0
   -1.8378    3.0305    0.6745 H   0  0  0  0  0  0  0  0  0  0  0  0
    2.0272    1.3966   -1.2813 N   0  0  0  0  0  0  0  0  0  0  0  0
    2.9707    1.5772   -1.8259 N   0  0  0  0  0  0  0  0  0  0  0  0
    2.9264    0.3885    1.5303 B   0  0  0  0  0  0  0  0  0  0  0  0
    3.0622   -0.3769    0.3081 F   0  0  0  0  0  0  0  0  0  0  0  0
    4.0076    0.1683    2.3657 F   0  0  0  0  0  0  0  0  0  0  0  0
    2.8606    1.7718    1.1274 F   0  0  0  0  0  0  0  0  0  0  0  0
    1.6962    0.0386    2.1294 F   0  0  0  0  0  0  0  0  0  0  0  0
   -2.7322    0.7355    1.0184 H   0  0  0  0  0  0  0  0  0  0  0  0
  1  7  1  0  0  0  0
  1  6  2  0  0  0  0
  2  1  1  0  0  0  0
  3  2  2  0  0  0  0
  3  4  1  0  0  0  0
  4  5  2  0  0  0  0
  5  6  1  0  0  0  0
  5 10  1  0  0  0  0
  6 18  1  0  0  0  0
  8  2  1  0  0  0  0
  9  4  1  0  0  0  0
 11  3  1  0  0  0  0
 12 11  1  0  0  0  0
 13 17  1  0  0  0  0
 13 15  1  0  0  0  0
 14 13  1  0  0  0  0
 16 13  1  0  0  0  0
M  RAD  2  11   2  12   3
M  END
