Coordinates from ORCA-job Ph-N2-BF4-B3LYPG-aug-cc-pVDZ-scan-d09-49-n400
 OpenBabel11081710393D

 18 16  0  0  0  0  0  0  0  0999 V2000
   -1.2158   -0.0909   -0.0721 C   0  0  0  0  0  0  0  0  0  0  0  0
    0.0742   -0.0058    0.4630 C   0  0  0  0  0  0  0  0  0  0  0  0
    0.5630    1.2535    0.7859 C   0  0  0  0  0  0  0  0  0  0  0  0
   -0.1661    2.4217    0.6045 C   0  0  0  0  0  0  0  0  0  0  0  0
   -1.4539    2.3156    0.0681 C   0  0  0  0  0  0  0  0  0  0  0  0
   -1.9799    1.0641   -0.2703 C   0  0  0  0  0  0  0  0  0  0  0  0
   -1.6226   -1.0677   -0.3343 H   0  0  0  0  0  0  0  0  0  0  0  0
    0.6906   -0.8887    0.6221 H   0  0  0  0  0  0  0  0  0  0  0  0
    0.2683    3.3825    0.8756 H   0  0  0  0  0  0  0  0  0  0  0  0
   -2.0466    3.2178   -0.0842 H   0  0  0  0  0  0  0  0  0  0  0  0
    2.2075    1.5427   -1.8087 N   0  0  0  0  0  0  0  0  0  0  0  0
    1.9908    1.5114   -2.8912 N   0  0  0  0  0  0  0  0  0  0  0  0
    3.8580   -0.2164    1.6026 B   0  0  0  0  0  0  0  0  0  0  0  0
    3.4976   -0.9708    0.5674 F   0  0  0  0  0  0  0  0  0  0  0  0
    4.6817    0.8074    1.4235 F   0  0  0  0  0  0  0  0  0  0  0  0
    1.8219    1.3546    1.3168 F   0  0  0  0  0  0  0  0  0  0  0  0
    3.4556   -0.5443    2.8246 F   0  0  0  0  0  0  0  0  0  0  0  0
   -2.9838    0.9891   -0.6876 H   0  0  0  0  0  0  0  0  0  0  0  0
  1  2  1  0  0  0  0
  2  8  1  0  0  0  0
  2  3  2  0  0  0  0
  3 16  1  0  0  0  0
  4  3  1  0  0  0  0
  4  9  1  0  0  0  0
  5  4  2  0  0  0  0
  6  1  2  0  0  0  0
  6  5  1  0  0  0  0
  7  1  1  0  0  0  0
 10  5  1  0  0  0  0
 12 11  3  0  0  0  0
 13 17  1  0  0  0  0
 14 13  1  0  0  0  0
 15 13  1  0  0  0  0
 18  6  1  0  0  0  0
M  END
