Coordinates from ORCA-job Ph-N2-BF4-B3LYPG-aug-cc-pVDZ-scan-d09-49-n400
 OpenBabel11081710393D

 18 17  0  0  0  0  0  0  0  0999 V2000
   -0.7105   -0.2320    0.1923 C   0  0  0  0  0  0  0  0  0  0  0  0
    0.3814   -0.0619   -0.6284 C   0  0  0  0  0  0  0  0  0  0  0  0
    0.8423    1.2780   -0.9720 C   0  0  0  0  0  0  0  0  0  0  0  0
    0.0975    2.4034   -0.4172 C   0  0  0  0  0  0  0  0  0  0  0  0
   -0.9937    2.1892    0.3863 C   0  0  0  0  0  0  0  0  0  0  0  0
   -1.3930    0.8784    0.7030 C   0  0  0  0  0  0  0  0  0  0  0  0
   -1.0103   -1.2396    0.4726 H   0  0  0  0  0  0  0  0  0  0  0  0
    0.9613   -0.8960   -1.0134 H   0  0  0  0  0  0  0  0  0  0  0  0
    0.4668    3.4011   -0.6497 H   0  0  0  0  0  0  0  0  0  0  0  0
   -1.5272    3.0420    0.8030 H   0  0  0  0  0  0  0  0  0  0  0  0
    1.6763    1.4230   -1.5416 N   0  0  0  0  0  0  0  0  0  0  0  0
    2.6103    1.5786   -2.1802 N   0  0  0  0  0  0  0  0  0  0  0  0
    2.5146    0.3107    1.7296 B   0  0  0  0  0  0  0  0  0  0  0  0
    2.7960   -0.3091    0.4543 F   0  0  0  0  0  0  0  0  0  0  0  0
    3.6419    0.2991    2.5345 F   0  0  0  0  0  0  0  0  0  0  0  0
    2.1039    1.6599    1.4440 F   0  0  0  0  0  0  0  0  0  0  0  0
    1.4234   -0.3738    2.3181 F   0  0  0  0  0  0  0  0  0  0  0  0
   -2.2406    0.7250    1.3708 H   0  0  0  0  0  0  0  0  0  0  0  0
  1  7  1  0  0  0  0
  1  6  2  0  0  0  0
  2  1  1  0  0  0  0
  3  2  2  0  0  0  0
  3  4  1  0  0  0  0
  4  5  2  0  0  0  0
  5  6  1  0  0  0  0
  5 10  1  0  0  0  0
  6 18  1  0  0  0  0
  8  2  1  0  0  0  0
  9  4  1  0  0  0  0
 11  3  1  0  0  0  0
 12 11  1  0  0  0  0
 13 17  1  0  0  0  0
 13 15  1  0  0  0  0
 14 13  1  0  0  0  0
 16 13  1  0  0  0  0
M  RAD  2  11   2  12   3
M  END
