Coordinates from ORCA-job Ph-N2-BF4-B3LYPG-aug-cc-pVDZ-scan-d09-49-n400
 OpenBabel11081710393D

 18 16  0  0  0  0  0  0  0  0999 V2000
   -1.1942   -0.0866   -0.1073 C   0  0  0  0  0  0  0  0  0  0  0  0
    0.0933   -0.0051    0.4341 C   0  0  0  0  0  0  0  0  0  0  0  0
    0.5892    1.2530    0.7485 C   0  0  0  0  0  0  0  0  0  0  0  0
   -0.1372    2.4224    0.5674 C   0  0  0  0  0  0  0  0  0  0  0  0
   -1.4226    2.3208    0.0251 C   0  0  0  0  0  0  0  0  0  0  0  0
   -1.9521    1.0709   -0.3141 C   0  0  0  0  0  0  0  0  0  0  0  0
   -1.6043   -1.0628   -0.3667 H   0  0  0  0  0  0  0  0  0  0  0  0
    0.7053   -0.8898    0.5992 H   0  0  0  0  0  0  0  0  0  0  0  0
    0.3011    3.3815    0.8380 H   0  0  0  0  0  0  0  0  0  0  0  0
   -2.0112    3.2252   -0.1307 H   0  0  0  0  0  0  0  0  0  0  0  0
    2.0205    1.5260   -1.5774 N   0  0  0  0  0  0  0  0  0  0  0  0
    1.7807    1.5024   -2.6554 N   0  0  0  0  0  0  0  0  0  0  0  0
    3.8817   -0.2181    1.5943 B   0  0  0  0  0  0  0  0  0  0  0  0
    3.5027   -0.9946    0.5825 F   0  0  0  0  0  0  0  0  0  0  0  0
    4.7035    0.8001    1.3782 F   0  0  0  0  0  0  0  0  0  0  0  0
    1.8393    1.3488    1.2970 F   0  0  0  0  0  0  0  0  0  0  0  0
    3.4991   -0.5173    2.8298 F   0  0  0  0  0  0  0  0  0  0  0  0
   -2.9542    0.9991   -0.7364 H   0  0  0  0  0  0  0  0  0  0  0  0
  1  2  1  0  0  0  0
  2  8  1  0  0  0  0
  2  3  2  0  0  0  0
  3 16  1  0  0  0  0
  4  3  1  0  0  0  0
  4  9  1  0  0  0  0
  5  4  2  0  0  0  0
  6  1  2  0  0  0  0
  6  5  1  0  0  0  0
  7  1  1  0  0  0  0
 10  5  1  0  0  0  0
 12 11  3  0  0  0  0
 13 17  1  0  0  0  0
 14 13  1  0  0  0  0
 15 13  1  0  0  0  0
 18  6  1  0  0  0  0
M  END
