Coordinates from ORCA-job Ph-N2-BF4-B3LYPG-aug-cc-pVDZ-scan-d09-49-n400
 OpenBabel11081710393D

 18 17  0  0  0  0  0  0  0  0999 V2000
   -0.9924   -0.2573    0.1484 C   0  0  0  0  0  0  0  0  0  0  0  0
    0.2425   -0.1075   -0.4752 C   0  0  0  0  0  0  0  0  0  0  0  0
    0.6877    1.2038   -0.6754 C   0  0  0  0  0  0  0  0  0  0  0  0
    0.0020    2.3563   -0.2659 C   0  0  0  0  0  0  0  0  0  0  0  0
   -1.2229    2.1647    0.3598 C   0  0  0  0  0  0  0  0  0  0  0  0
   -1.7158    0.8665    0.5615 C   0  0  0  0  0  0  0  0  0  0  0  0
   -1.3725   -1.2585    0.3421 H   0  0  0  0  0  0  0  0  0  0  0  0
    0.8681   -0.9519   -0.7491 H   0  0  0  0  0  0  0  0  0  0  0  0
    0.4313    3.3443   -0.4128 H   0  0  0  0  0  0  0  0  0  0  0  0
   -1.7886    3.0279    0.7068 H   0  0  0  0  0  0  0  0  0  0  0  0
    1.9497    1.3883   -1.3026 N   0  0  0  0  0  0  0  0  0  0  0  0
    2.9068    1.5557   -1.8356 N   0  0  0  0  0  0  0  0  0  0  0  0
    2.8797    0.3938    1.5440 B   0  0  0  0  0  0  0  0  0  0  0  0
    3.0644   -0.3609    0.3237 F   0  0  0  0  0  0  0  0  0  0  0  0
    3.9345    0.1817    2.4150 F   0  0  0  0  0  0  0  0  0  0  0  0
    2.8040    1.7780    1.1522 F   0  0  0  0  0  0  0  0  0  0  0  0
    1.6340    0.0196    2.1019 F   0  0  0  0  0  0  0  0  0  0  0  0
   -2.6718    0.7316    1.0672 H   0  0  0  0  0  0  0  0  0  0  0  0
  1  7  1  0  0  0  0
  1  6  2  0  0  0  0
  2  1  1  0  0  0  0
  3  2  2  0  0  0  0
  3  4  1  0  0  0  0
  4  5  2  0  0  0  0
  5  6  1  0  0  0  0
  5 10  1  0  0  0  0
  6 18  1  0  0  0  0
  8  2  1  0  0  0  0
  9  4  1  0  0  0  0
 11  3  1  0  0  0  0
 12 11  1  0  0  0  0
 13 17  1  0  0  0  0
 13 15  1  0  0  0  0
 14 13  1  0  0  0  0
 16 13  1  0  0  0  0
M  RAD  2  11   2  12   3
M  END
