Coordinates from ORCA-job Ph-N2-BF4-B3LYPG-aug-cc-pVDZ-scan-d09-49-n400
 OpenBabel11081710393D

 18 16  0  0  0  0  0  0  0  0999 V2000
   -1.0358   -0.0288    0.5417 C   0  0  0  0  0  0  0  0  0  0  0  0
    0.3003    0.1776    0.1298 C   0  0  0  0  0  0  0  0  0  0  0  0
    0.4387    1.4252   -0.3708 C   0  0  0  0  0  0  0  0  0  0  0  0
   -0.3676    2.5057   -0.5632 C   0  0  0  0  0  0  0  0  0  0  0  0
   -1.6798    2.2255   -0.1309 C   0  0  0  0  0  0  0  0  0  0  0  0
   -2.0006    0.9751    0.4105 C   0  0  0  0  0  0  0  0  0  0  0  0
   -1.2807   -0.9939    0.9841 H   0  0  0  0  0  0  0  0  0  0  0  0
    1.1077   -0.5464    0.2487 H   0  0  0  0  0  0  0  0  0  0  0  0
   -0.0613    3.4590   -0.9817 H   0  0  0  0  0  0  0  0  0  0  0  0
   -2.4314    3.0087   -0.2262 H   0  0  0  0  0  0  0  0  0  0  0  0
    2.2576    1.8084   -1.0008 N   0  0  0  0  0  0  0  0  0  0  0  0
    3.2165    2.1210   -1.4429 N   0  0  0  0  0  0  0  0  0  0  0  0
    3.2695   -0.1797    1.3630 B   0  0  0  0  0  0  0  0  0  0  0  0
    3.1577   -0.5295   -0.0396 F   0  0  0  0  0  0  0  0  0  0  0  0
    4.5524   -0.4133    1.8241 F   0  0  0  0  0  0  0  0  0  0  0  0
    2.9256    1.2107    1.4583 F   0  0  0  0  0  0  0  0  0  0  0  0
    2.2916   -0.9340    2.0573 F   0  0  0  0  0  0  0  0  0  0  0  0
   -3.0198    0.7846    0.7445 H   0  0  0  0  0  0  0  0  0  0  0  0
  1  7  1  0  0  0  0
  2  8  1  0  0  0  0
  2  1  2  0  0  0  0
  3  2  1  0  0  0  0
  4  3  2  0  0  0  0
  4  5  1  0  0  0  0
  5  6  2  0  0  0  0
  6  1  1  0  0  0  0
  6 18  1  0  0  0  0
  9  4  1  0  0  0  0
 10  5  1  0  0  0  0
 12 11  3  0  0  0  0
 13 16  1  0  0  0  0
 13 15  1  0  0  0  0
 13 17  1  0  0  0  0
 14 13  1  0  0  0  0
M  RAD  1   3   2
M  END
