Coordinates from ORCA-job Ph-N2-BF4-B3LYPG-aug-cc-pVDZ-scan-d09-49-n400
 OpenBabel11081710393D

 18 16  0  0  0  0  0  0  0  0999 V2000
   -1.1782   -0.0806   -0.1374 C   0  0  0  0  0  0  0  0  0  0  0  0
    0.1107   -0.0002    0.3987 C   0  0  0  0  0  0  0  0  0  0  0  0
    0.6236    1.2594    0.6838 C   0  0  0  0  0  0  0  0  0  0  0  0
   -0.1148    2.4266    0.5289 C   0  0  0  0  0  0  0  0  0  0  0  0
   -1.4018    2.3270   -0.0075 C   0  0  0  0  0  0  0  0  0  0  0  0
   -1.9333    1.0782   -0.3488 C   0  0  0  0  0  0  0  0  0  0  0  0
   -1.5947   -1.0573   -0.3842 H   0  0  0  0  0  0  0  0  0  0  0  0
    0.7159   -0.8880    0.5723 H   0  0  0  0  0  0  0  0  0  0  0  0
    0.3203    3.3855    0.8052 H   0  0  0  0  0  0  0  0  0  0  0  0
   -1.9929    3.2314   -0.1529 H   0  0  0  0  0  0  0  0  0  0  0  0
    1.8732    1.5032   -1.3670 N   0  0  0  0  0  0  0  0  0  0  0  0
    1.6155    1.4596   -2.4414 N   0  0  0  0  0  0  0  0  0  0  0  0
    3.9047   -0.2173    1.5872 B   0  0  0  0  0  0  0  0  0  0  0  0
    3.5203   -0.9897    0.5744 F   0  0  0  0  0  0  0  0  0  0  0  0
    4.7303    0.7980    1.3718 F   0  0  0  0  0  0  0  0  0  0  0  0
    1.8567    1.3490    1.2668 F   0  0  0  0  0  0  0  0  0  0  0  0
    3.5224   -0.5163    2.8227 F   0  0  0  0  0  0  0  0  0  0  0  0
   -2.9371    1.0074   -0.7668 H   0  0  0  0  0  0  0  0  0  0  0  0
  1  2  1  0  0  0  0
  2  8  1  0  0  0  0
  2  3  2  0  0  0  0
  3 16  1  0  0  0  0
  4  3  1  0  0  0  0
  4  9  1  0  0  0  0
  5  4  2  0  0  0  0
  6  1  2  0  0  0  0
  6  5  1  0  0  0  0
  7  1  1  0  0  0  0
 10  5  1  0  0  0  0
 12 11  3  0  0  0  0
 13 17  1  0  0  0  0
 14 13  1  0  0  0  0
 15 13  1  0  0  0  0
 18  6  1  0  0  0  0
M  END
