Coordinates from ORCA-job Ph-N2-BF4-B3LYPG-aug-cc-pVDZ-scan-d09-49-n400
 OpenBabel11081710393D

 18 16  0  0  0  0  0  0  0  0999 V2000
   -1.2170   -0.0910   -0.0700 C   0  0  0  0  0  0  0  0  0  0  0  0
    0.0732   -0.0058    0.4646 C   0  0  0  0  0  0  0  0  0  0  0  0
    0.5616    1.2537    0.7879 C   0  0  0  0  0  0  0  0  0  0  0  0
   -0.1678    2.4218    0.6066 C   0  0  0  0  0  0  0  0  0  0  0  0
   -1.4558    2.3154    0.0707 C   0  0  0  0  0  0  0  0  0  0  0  0
   -1.9815    1.0637   -0.2676 C   0  0  0  0  0  0  0  0  0  0  0  0
   -1.6236   -1.0679   -0.3323 H   0  0  0  0  0  0  0  0  0  0  0  0
    0.6899   -0.8885    0.6233 H   0  0  0  0  0  0  0  0  0  0  0  0
    0.2664    3.3826    0.8778 H   0  0  0  0  0  0  0  0  0  0  0  0
   -2.0488    3.2174   -0.0813 H   0  0  0  0  0  0  0  0  0  0  0  0
    2.2189    1.5434   -1.8224 N   0  0  0  0  0  0  0  0  0  0  0  0
    2.0027    1.5113   -2.9049 N   0  0  0  0  0  0  0  0  0  0  0  0
    3.8566   -0.2162    1.6032 B   0  0  0  0  0  0  0  0  0  0  0  0
    3.4975   -0.9687    0.5661 F   0  0  0  0  0  0  0  0  0  0  0  0
    4.6803    0.8081    1.4270 F   0  0  0  0  0  0  0  0  0  0  0  0
    1.8208    1.3550    1.3180 F   0  0  0  0  0  0  0  0  0  0  0  0
    3.4528   -0.5467    2.8240 F   0  0  0  0  0  0  0  0  0  0  0  0
   -2.9855    0.9885   -0.6846 H   0  0  0  0  0  0  0  0  0  0  0  0
  1  2  1  0  0  0  0
  2  8  1  0  0  0  0
  2  3  2  0  0  0  0
  3 16  1  0  0  0  0
  4  3  1  0  0  0  0
  4  9  1  0  0  0  0
  5  4  2  0  0  0  0
  6  1  2  0  0  0  0
  6  5  1  0  0  0  0
  7  1  1  0  0  0  0
 10  5  1  0  0  0  0
 12 11  3  0  0  0  0
 13 17  1  0  0  0  0
 14 13  1  0  0  0  0
 15 13  1  0  0  0  0
 18  6  1  0  0  0  0
M  END
