Coordinates from ORCA-job Ph-N2-BF4-B3LYPG-aug-cc-pVDZ-scan-d09-49-n400
 OpenBabel11081710393D

 18 17  0  0  0  0  0  0  0  0999 V2000
   -0.6944   -0.2303    0.1969 C   0  0  0  0  0  0  0  0  0  0  0  0
    0.3924   -0.0619   -0.6279 C   0  0  0  0  0  0  0  0  0  0  0  0
    0.8613    1.2825   -0.9888 C   0  0  0  0  0  0  0  0  0  0  0  0
    0.1037    2.4066   -0.4211 C   0  0  0  0  0  0  0  0  0  0  0  0
   -0.9816    2.1909    0.3860 C   0  0  0  0  0  0  0  0  0  0  0  0
   -1.3772    0.8796    0.7079 C   0  0  0  0  0  0  0  0  0  0  0  0
   -0.9906   -1.2381    0.4806 H   0  0  0  0  0  0  0  0  0  0  0  0
    0.9731   -0.8932   -1.0182 H   0  0  0  0  0  0  0  0  0  0  0  0
    0.4730    3.4030   -0.6606 H   0  0  0  0  0  0  0  0  0  0  0  0
   -1.5149    3.0437    0.8032 H   0  0  0  0  0  0  0  0  0  0  0  0
    1.6482    1.4201   -1.5392 N   0  0  0  0  0  0  0  0  0  0  0  0
    2.5802    1.5872   -2.1901 N   0  0  0  0  0  0  0  0  0  0  0  0
    2.4972    0.3052    1.7333 B   0  0  0  0  0  0  0  0  0  0  0  0
    2.7861   -0.3099    0.4578 F   0  0  0  0  0  0  0  0  0  0  0  0
    3.6218    0.3030    2.5410 F   0  0  0  0  0  0  0  0  0  0  0  0
    2.0741    1.6509    1.4479 F   0  0  0  0  0  0  0  0  0  0  0  0
    1.4101   -0.3894    2.3180 F   0  0  0  0  0  0  0  0  0  0  0  0
   -2.2221    0.7261    1.3791 H   0  0  0  0  0  0  0  0  0  0  0  0
  1  7  1  0  0  0  0
  1  6  2  0  0  0  0
  2  1  1  0  0  0  0
  3  2  2  0  0  0  0
  3  4  1  0  0  0  0
  4  5  2  0  0  0  0
  5  6  1  0  0  0  0
  5 10  1  0  0  0  0
  6 18  1  0  0  0  0
  8  2  1  0  0  0  0
  9  4  1  0  0  0  0
 11  3  1  0  0  0  0
 12 11  1  0  0  0  0
 13 17  1  0  0  0  0
 13 15  1  0  0  0  0
 14 13  1  0  0  0  0
 16 13  1  0  0  0  0
M  RAD  2  11   2  12   3
M  END
