Coordinates from ORCA-job Ph-N2-BF4-B3LYPG-aug-cc-pVDZ-scan-d09-49-n400
 OpenBabel11081710393D

 18 17  0  0  0  0  0  0  0  0999 V2000
   -0.6825   -0.2289    0.2015 C   0  0  0  0  0  0  0  0  0  0  0  0
    0.4013   -0.0629   -0.6241 C   0  0  0  0  0  0  0  0  0  0  0  0
    0.8802    1.2872   -1.0042 C   0  0  0  0  0  0  0  0  0  0  0  0
    0.1083    2.4103   -0.4215 C   0  0  0  0  0  0  0  0  0  0  0  0
   -0.9729    2.1925    0.3864 C   0  0  0  0  0  0  0  0  0  0  0  0
   -1.3670    0.8808    0.7111 C   0  0  0  0  0  0  0  0  0  0  0  0
   -0.9763   -1.2368    0.4881 H   0  0  0  0  0  0  0  0  0  0  0  0
    0.9869   -0.8898   -1.0170 H   0  0  0  0  0  0  0  0  0  0  0  0
    0.4802    3.4045   -0.6667 H   0  0  0  0  0  0  0  0  0  0  0  0
   -1.5062    3.0453    0.8042 H   0  0  0  0  0  0  0  0  0  0  0  0
    1.6220    1.4164   -1.5328 N   0  0  0  0  0  0  0  0  0  0  0  0
    2.5541    1.5881   -2.1969 N   0  0  0  0  0  0  0  0  0  0  0  0
    2.4847    0.3014    1.7329 B   0  0  0  0  0  0  0  0  0  0  0  0
    2.7853   -0.3064    0.4573 F   0  0  0  0  0  0  0  0  0  0  0  0
    3.6025    0.3051    2.5489 F   0  0  0  0  0  0  0  0  0  0  0  0
    2.0529    1.6443    1.4471 F   0  0  0  0  0  0  0  0  0  0  0  0
    1.3982   -0.4024    2.3085 F   0  0  0  0  0  0  0  0  0  0  0  0
   -2.2113    0.7272    1.3830 H   0  0  0  0  0  0  0  0  0  0  0  0
  1  7  1  0  0  0  0
  1  6  2  0  0  0  0
  2  1  1  0  0  0  0
  3  2  2  0  0  0  0
  3  4  1  0  0  0  0
  4  5  2  0  0  0  0
  5  6  1  0  0  0  0
  5 10  1  0  0  0  0
  6 18  1  0  0  0  0
  8  2  1  0  0  0  0
  9  4  1  0  0  0  0
 11  3  1  0  0  0  0
 12 11  1  0  0  0  0
 13 17  1  0  0  0  0
 13 15  1  0  0  0  0
 14 13  1  0  0  0  0
 16 13  1  0  0  0  0
M  RAD  2  11   2  12   3
M  END
