Coordinates from ORCA-job Ph-N2-BF4-B3LYPG-aug-cc-pVDZ-scan-d09-49-n400
 OpenBabel11081710393D

 18 17  0  0  0  0  0  0  0  0999 V2000
   -1.0587   -0.2503    0.1738 C   0  0  0  0  0  0  0  0  0  0  0  0
    0.2194   -0.1122   -0.3889 C   0  0  0  0  0  0  0  0  0  0  0  0
    0.5820    1.1974   -0.5584 C   0  0  0  0  0  0  0  0  0  0  0  0
   -0.0568    2.3714   -0.2449 C   0  0  0  0  0  0  0  0  0  0  0  0
   -1.3243    2.1704    0.3187 C   0  0  0  0  0  0  0  0  0  0  0  0
   -1.8153    0.8742    0.5184 C   0  0  0  0  0  0  0  0  0  0  0  0
   -1.4365   -1.2535    0.3648 H   0  0  0  0  0  0  0  0  0  0  0  0
    0.8815   -0.9453   -0.6013 H   0  0  0  0  0  0  0  0  0  0  0  0
    0.3824    3.3538   -0.3892 H   0  0  0  0  0  0  0  0  0  0  0  0
   -1.9121    3.0394    0.6110 H   0  0  0  0  0  0  0  0  0  0  0  0
    2.1478    1.4319   -1.2851 N   0  0  0  0  0  0  0  0  0  0  0  0
    3.0715    1.6347   -1.8502 N   0  0  0  0  0  0  0  0  0  0  0  0
    2.9679    0.3555    1.5115 B   0  0  0  0  0  0  0  0  0  0  0  0
    3.0581   -0.3998    0.2774 F   0  0  0  0  0  0  0  0  0  0  0  0
    4.0780    0.1219    2.3043 F   0  0  0  0  0  0  0  0  0  0  0  0
    2.8944    1.7430    1.1254 F   0  0  0  0  0  0  0  0  0  0  0  0
    1.7588    0.0040    2.1490 F   0  0  0  0  0  0  0  0  0  0  0  0
   -2.7976    0.7396    0.9699 H   0  0  0  0  0  0  0  0  0  0  0  0
  1  7  1  0  0  0  0
  1  6  2  0  0  0  0
  2  1  1  0  0  0  0
  3  2  2  0  0  0  0
  3  4  1  0  0  0  0
  4  5  2  0  0  0  0
  5  6  1  0  0  0  0
  5 10  1  0  0  0  0
  6 18  1  0  0  0  0
  8  2  1  0  0  0  0
  9  4  1  0  0  0  0
 11  3  1  0  0  0  0
 12 11  1  0  0  0  0
 13 17  1  0  0  0  0
 13 15  1  0  0  0  0
 14 13  1  0  0  0  0
 16 13  1  0  0  0  0
M  RAD  2  11   2  12   3
M  END
