Coordinates from ORCA-job Ph-N2-BF4-B3LYPG-aug-cc-pVDZ-scan-d09-49-n400
 OpenBabel11081710393D

 18 17  0  0  0  0  0  0  0  0999 V2000
   -1.0360   -0.0314    0.5342 C   0  0  0  0  0  0  0  0  0  0  0  0
    0.2999    0.1702    0.1236 C   0  0  0  0  0  0  0  0  0  0  0  0
    0.4532    1.4203   -0.3742 C   0  0  0  0  0  0  0  0  0  0  0  0
   -0.3558    2.5031   -0.5594 C   0  0  0  0  0  0  0  0  0  0  0  0
   -1.6687    2.2289   -0.1286 C   0  0  0  0  0  0  0  0  0  0  0  0
   -1.9958    0.9780    0.4075 C   0  0  0  0  0  0  0  0  0  0  0  0
   -1.2874   -0.9967    0.9724 H   0  0  0  0  0  0  0  0  0  0  0  0
    1.1017   -0.5593    0.2400 H   0  0  0  0  0  0  0  0  0  0  0  0
   -0.0462    3.4571   -0.9736 H   0  0  0  0  0  0  0  0  0  0  0  0
   -2.4170    3.0157   -0.2199 H   0  0  0  0  0  0  0  0  0  0  0  0
    2.2254    1.7942   -0.9887 N   0  0  0  0  0  0  0  0  0  0  0  0
    3.1822    2.1077   -1.4344 N   0  0  0  0  0  0  0  0  0  0  0  0
    3.2701   -0.1716    1.3642 B   0  0  0  0  0  0  0  0  0  0  0  0
    3.1575   -0.5254   -0.0378 F   0  0  0  0  0  0  0  0  0  0  0  0
    4.5574   -0.3902    1.8205 F   0  0  0  0  0  0  0  0  0  0  0  0
    2.9137    1.2166    1.4561 F   0  0  0  0  0  0  0  0  0  0  0  0
    2.3023   -0.9325    2.0633 F   0  0  0  0  0  0  0  0  0  0  0  0
   -3.0160    0.7912    0.7407 H   0  0  0  0  0  0  0  0  0  0  0  0
  1  7  1  0  0  0  0
  2  8  1  0  0  0  0
  2  1  2  0  0  0  0
  3  2  1  0  0  0  0
  4  3  2  0  0  0  0
  4  5  1  0  0  0  0
  5  6  2  0  0  0  0
  6  1  1  0  0  0  0
  6 18  1  0  0  0  0
  9  4  1  0  0  0  0
 10  5  1  0  0  0  0
 11  3  1  0  0  0  0
 12 11  1  0  0  0  0
 13 16  1  0  0  0  0
 13 15  1  0  0  0  0
 13 17  1  0  0  0  0
 14 13  1  0  0  0  0
M  RAD  2  11   2  12   3
M  END
