Coordinates from ORCA-job Ph-N2-BF4-B3LYPG-aug-cc-pVDZ-scan-d09-49-n400
 OpenBabel11081710393D

 18 17  0  0  0  0  0  0  0  0999 V2000
   -0.9413   -0.2551    0.1523 C   0  0  0  0  0  0  0  0  0  0  0  0
    0.2742   -0.1002   -0.4960 C   0  0  0  0  0  0  0  0  0  0  0  0
    0.7476    1.2164   -0.7307 C   0  0  0  0  0  0  0  0  0  0  0  0
    0.0309    2.3596   -0.2836 C   0  0  0  0  0  0  0  0  0  0  0  0
   -1.1717    2.1672    0.3697 C   0  0  0  0  0  0  0  0  0  0  0  0
   -1.6576    0.8662    0.5832 C   0  0  0  0  0  0  0  0  0  0  0  0
   -1.3116   -1.2576    0.3574 H   0  0  0  0  0  0  0  0  0  0  0  0
    0.8923   -0.9453   -0.7858 H   0  0  0  0  0  0  0  0  0  0  0  0
    0.4506    3.3507   -0.4428 H   0  0  0  0  0  0  0  0  0  0  0  0
   -1.7307    3.0284    0.7317 H   0  0  0  0  0  0  0  0  0  0  0  0
    1.8383    1.3806   -1.3208 N   0  0  0  0  0  0  0  0  0  0  0  0
    2.7988    1.5417   -1.8701 N   0  0  0  0  0  0  0  0  0  0  0  0
    2.8233    0.3915    1.5599 B   0  0  0  0  0  0  0  0  0  0  0  0
    3.0648   -0.3438    0.3418 F   0  0  0  0  0  0  0  0  0  0  0  0
    3.8456    0.1900    2.4713 F   0  0  0  0  0  0  0  0  0  0  0  0
    2.7252    1.7773    1.1883 F   0  0  0  0  0  0  0  0  0  0  0  0
    1.5630   -0.0205    2.0684 F   0  0  0  0  0  0  0  0  0  0  0  0
   -2.6011    0.7291    1.1116 H   0  0  0  0  0  0  0  0  0  0  0  0
  1  7  1  0  0  0  0
  1  6  2  0  0  0  0
  2  1  1  0  0  0  0
  3  2  2  0  0  0  0
  3  4  1  0  0  0  0
  4  5  2  0  0  0  0
  5  6  1  0  0  0  0
  5 10  1  0  0  0  0
  6 18  1  0  0  0  0
  8  2  1  0  0  0  0
  9  4  1  0  0  0  0
 11  3  1  0  0  0  0
 12 11  1  0  0  0  0
 13 17  1  0  0  0  0
 13 15  1  0  0  0  0
 14 13  1  0  0  0  0
 16 13  1  0  0  0  0
M  RAD  2  11   2  12   3
M  END
