Coordinates from ORCA-job Ph-N2-BF4-B3LYPG-aug-cc-pVDZ-scan-d09-49-n400
 OpenBabel11081710393D

 18 16  0  0  0  0  0  0  0  0999 V2000
   -1.2767   -0.0966    0.0036 C   0  0  0  0  0  0  0  0  0  0  0  0
    0.0229   -0.0022    0.5133 C   0  0  0  0  0  0  0  0  0  0  0  0
    0.5023    1.2596    0.8413 C   0  0  0  0  0  0  0  0  0  0  0  0
   -0.2414    2.4219    0.6826 C   0  0  0  0  0  0  0  0  0  0  0  0
   -1.5386    2.3058    0.1714 C   0  0  0  0  0  0  0  0  0  0  0  0
   -2.0576    1.0515   -0.1670 C   0  0  0  0  0  0  0  0  0  0  0  0
   -1.6776   -1.0753   -0.2608 H   0  0  0  0  0  0  0  0  0  0  0  0
    0.6530   -0.8792    0.6505 H   0  0  0  0  0  0  0  0  0  0  0  0
    0.1885    3.3851    0.9523 H   0  0  0  0  0  0  0  0  0  0  0  0
   -2.1439    3.2028    0.0382 H   0  0  0  0  0  0  0  0  0  0  0  0
    2.6470    1.5488   -2.2666 N   0  0  0  0  0  0  0  0  0  0  0  0
    2.5239    1.5086   -3.3634 N   0  0  0  0  0  0  0  0  0  0  0  0
    3.8182   -0.2090    1.6067 B   0  0  0  0  0  0  0  0  0  0  0  0
    3.5032   -0.9230    0.5292 F   0  0  0  0  0  0  0  0  0  0  0  0
    4.6379    0.8279    1.5000 F   0  0  0  0  0  0  0  0  0  0  0  0
    1.7748    1.3703    1.3408 F   0  0  0  0  0  0  0  0  0  0  0  0
    3.3734   -0.5900    2.7984 F   0  0  0  0  0  0  0  0  0  0  0  0
   -3.0689    0.9690   -0.5646 H   0  0  0  0  0  0  0  0  0  0  0  0
  1  2  1  0  0  0  0
  2  8  1  0  0  0  0
  2  3  2  0  0  0  0
  3 16  1  0  0  0  0
  4  3  1  0  0  0  0
  4  9  1  0  0  0  0
  5  4  2  0  0  0  0
  6  1  2  0  0  0  0
  6  5  1  0  0  0  0
  7  1  1  0  0  0  0
 10  5  1  0  0  0  0
 12 11  3  0  0  0  0
 13 17  1  0  0  0  0
 14 13  1  0  0  0  0
 15 13  1  0  0  0  0
 18  6  1  0  0  0  0
M  END
