Coordinates from ORCA-job Ph-N2-BF4-B3LYPG-aug-cc-pVDZ-scan-d09-49-n400
 OpenBabel11081710393D

 18 16  0  0  0  0  0  0  0  0999 V2000
   -1.1852   -0.0837   -0.1218 C   0  0  0  0  0  0  0  0  0  0  0  0
    0.1019   -0.0028    0.4199 C   0  0  0  0  0  0  0  0  0  0  0  0
    0.6041    1.2558    0.7238 C   0  0  0  0  0  0  0  0  0  0  0  0
   -0.1265    2.4245    0.5512 C   0  0  0  0  0  0  0  0  0  0  0  0
   -1.4116    2.3237    0.0089 C   0  0  0  0  0  0  0  0  0  0  0  0
   -1.9414    1.0743   -0.3322 C   0  0  0  0  0  0  0  0  0  0  0  0
   -1.5975   -1.0601   -0.3766 H   0  0  0  0  0  0  0  0  0  0  0  0
    0.7090   -0.8899    0.5905 H   0  0  0  0  0  0  0  0  0  0  0  0
    0.3079    3.3842    0.8259 H   0  0  0  0  0  0  0  0  0  0  0  0
   -2.0009    3.2281   -0.1438 H   0  0  0  0  0  0  0  0  0  0  0  0
    1.9504    1.5136   -1.4787 N   0  0  0  0  0  0  0  0  0  0  0  0
    1.6996    1.4836   -2.5544 N   0  0  0  0  0  0  0  0  0  0  0  0
    3.8916   -0.2177    1.5889 B   0  0  0  0  0  0  0  0  0  0  0  0
    3.5089   -0.9944    0.5787 F   0  0  0  0  0  0  0  0  0  0  0  0
    4.7151    0.7986    1.3700 F   0  0  0  0  0  0  0  0  0  0  0  0
    1.8478    1.3494    1.2850 F   0  0  0  0  0  0  0  0  0  0  0  0
    3.5107   -0.5144    2.8255 F   0  0  0  0  0  0  0  0  0  0  0  0
   -2.9433    1.0030   -0.7548 H   0  0  0  0  0  0  0  0  0  0  0  0
  1  2  1  0  0  0  0
  2  8  1  0  0  0  0
  2  3  2  0  0  0  0
  3 16  1  0  0  0  0
  4  3  1  0  0  0  0
  4  9  1  0  0  0  0
  5  4  2  0  0  0  0
  6  1  2  0  0  0  0
  6  5  1  0  0  0  0
  7  1  1  0  0  0  0
 10  5  1  0  0  0  0
 12 11  3  0  0  0  0
 13 17  1  0  0  0  0
 14 13  1  0  0  0  0
 15 13  1  0  0  0  0
 18  6  1  0  0  0  0
M  END
