Coordinates from ORCA-job Ph-N2-BF4-B3LYPG-aug-cc-pVDZ-scan-d09-49-n400
 OpenBabel11081710393D

 18 16  0  0  0  0  0  0  0  0999 V2000
   -1.2286   -0.0927   -0.0518 C   0  0  0  0  0  0  0  0  0  0  0  0
    0.0631   -0.0051    0.4788 C   0  0  0  0  0  0  0  0  0  0  0  0
    0.5484    1.2551    0.8040 C   0  0  0  0  0  0  0  0  0  0  0  0
   -0.1837    2.4219    0.6254 C   0  0  0  0  0  0  0  0  0  0  0  0
   -1.4731    2.3129    0.0934 C   0  0  0  0  0  0  0  0  0  0  0  0
   -1.9968    1.0604   -0.2448 C   0  0  0  0  0  0  0  0  0  0  0  0
   -1.6334   -1.0702   -0.3149 H   0  0  0  0  0  0  0  0  0  0  0  0
    0.6829   -0.8863    0.6339 H   0  0  0  0  0  0  0  0  0  0  0  0
    0.2492    3.3835    0.8962 H   0  0  0  0  0  0  0  0  0  0  0  0
   -2.0687    3.2137   -0.0559 H   0  0  0  0  0  0  0  0  0  0  0  0
    2.3189    1.5482   -1.9366 N   0  0  0  0  0  0  0  0  0  0  0  0
    2.1127    1.5109   -3.0209 N   0  0  0  0  0  0  0  0  0  0  0  0
    3.8449   -0.2151    1.6058 B   0  0  0  0  0  0  0  0  0  0  0  0
    3.4968   -0.9531    0.5548 F   0  0  0  0  0  0  0  0  0  0  0  0
    4.6691    0.8125    1.4521 F   0  0  0  0  0  0  0  0  0  0  0  0
    1.8110    1.3593    1.3272 F   0  0  0  0  0  0  0  0  0  0  0  0
    3.4297   -0.5633    2.8179 F   0  0  0  0  0  0  0  0  0  0  0  0
   -3.0019    0.9832   -0.6587 H   0  0  0  0  0  0  0  0  0  0  0  0
  1  2  1  0  0  0  0
  2  8  1  0  0  0  0
  2  3  2  0  0  0  0
  3 16  1  0  0  0  0
  4  3  1  0  0  0  0
  4  9  1  0  0  0  0
  5  4  2  0  0  0  0
  6  1  2  0  0  0  0
  6  5  1  0  0  0  0
  7  1  1  0  0  0  0
 10  5  1  0  0  0  0
 12 11  3  0  0  0  0
 13 17  1  0  0  0  0
 14 13  1  0  0  0  0
 15 13  1  0  0  0  0
 18  6  1  0  0  0  0
M  END
