Coordinates from ORCA-job Ph-N2-BF4-B3LYPG-aug-cc-pVDZ-scan-d09-49-n400
 OpenBabel11081710393D

 18 16  0  0  0  0  0  0  0  0999 V2000
   -1.0368   -0.0299    0.5377 C   0  0  0  0  0  0  0  0  0  0  0  0
    0.2992    0.1738    0.1273 C   0  0  0  0  0  0  0  0  0  0  0  0
    0.4477    1.4227   -0.3723 C   0  0  0  0  0  0  0  0  0  0  0  0
   -0.3613    2.5041   -0.5610 C   0  0  0  0  0  0  0  0  0  0  0  0
   -1.6740    2.2276   -0.1304 C   0  0  0  0  0  0  0  0  0  0  0  0
   -1.9987    0.9770    0.4082 C   0  0  0  0  0  0  0  0  0  0  0  0
   -1.2858   -0.9951    0.9777 H   0  0  0  0  0  0  0  0  0  0  0  0
    1.1034   -0.5532    0.2451 H   0  0  0  0  0  0  0  0  0  0  0  0
   -0.0531    3.4578   -0.9772 H   0  0  0  0  0  0  0  0  0  0  0  0
   -2.4238    3.0127   -0.2239 H   0  0  0  0  0  0  0  0  0  0  0  0
    2.2391    1.7993   -0.9918 N   0  0  0  0  0  0  0  0  0  0  0  0
    3.1968    2.1123   -1.4360 N   0  0  0  0  0  0  0  0  0  0  0  0
    3.2713   -0.1753    1.3630 B   0  0  0  0  0  0  0  0  0  0  0  0
    3.1586   -0.5266   -0.0395 F   0  0  0  0  0  0  0  0  0  0  0  0
    4.5570   -0.3999    1.8206 F   0  0  0  0  0  0  0  0  0  0  0  0
    2.9198    1.2138    1.4568 F   0  0  0  0  0  0  0  0  0  0  0  0
    2.2999   -0.9339    2.0603 F   0  0  0  0  0  0  0  0  0  0  0  0
   -3.0187    0.7886    0.7412 H   0  0  0  0  0  0  0  0  0  0  0  0
  1  7  1  0  0  0  0
  2  8  1  0  0  0  0
  2  1  2  0  0  0  0
  3  2  1  0  0  0  0
  4  3  2  0  0  0  0
  4  5  1  0  0  0  0
  5  6  2  0  0  0  0
  6  1  1  0  0  0  0
  6 18  1  0  0  0  0
  9  4  1  0  0  0  0
 10  5  1  0  0  0  0
 12 11  3  0  0  0  0
 13 16  1  0  0  0  0
 13 15  1  0  0  0  0
 13 17  1  0  0  0  0
 14 13  1  0  0  0  0
M  RAD  1   3   2
M  END
