Coordinates from ORCA-job Ph-N2-BF4-B3LYPG-aug-cc-pVDZ-scan-d09-49-n400
 OpenBabel11081710403D

 18 16  0  0  0  0  0  0  0  0999 V2000
   -1.3577   -0.0906    0.0664 C   0  0  0  0  0  0  0  0  0  0  0  0
   -0.0412    0.0149    0.5291 C   0  0  0  0  0  0  0  0  0  0  0  0
    0.4164    1.2724    0.9003 C   0  0  0  0  0  0  0  0  0  0  0  0
   -0.3630    2.4199    0.8307 C   0  0  0  0  0  0  0  0  0  0  0  0
   -1.6763    2.2924    0.3655 C   0  0  0  0  0  0  0  0  0  0  0  0
   -2.1746    1.0418   -0.0157 C   0  0  0  0  0  0  0  0  0  0  0  0
   -1.7436   -1.0660   -0.2306 H   0  0  0  0  0  0  0  0  0  0  0  0
    0.6169   -0.8491    0.5991 H   0  0  0  0  0  0  0  0  0  0  0  0
    0.0509    3.3803    1.1334 H   0  0  0  0  0  0  0  0  0  0  0  0
   -2.3100    3.1771    0.3017 H   0  0  0  0  0  0  0  0  0  0  0  0
    3.2778    1.4805   -2.9351 N   0  0  0  0  0  0  0  0  0  0  0  0
    3.3186    1.4230   -4.0372 N   0  0  0  0  0  0  0  0  0  0  0  0
    3.7646   -0.1771    1.6282 B   0  0  0  0  0  0  0  0  0  0  0  0
    3.5035   -0.8664    0.5211 F   0  0  0  0  0  0  0  0  0  0  0  0
    4.5740    0.8724    1.5801 F   0  0  0  0  0  0  0  0  0  0  0  0
    1.7063    1.3932    1.3549 F   0  0  0  0  0  0  0  0  0  0  0  0
    3.2767   -0.5927    2.7912 F   0  0  0  0  0  0  0  0  0  0  0  0
   -3.1986    0.9500   -0.3772 H   0  0  0  0  0  0  0  0  0  0  0  0
  1  2  1  0  0  0  0
  2  8  1  0  0  0  0
  2  3  2  0  0  0  0
  3 16  1  0  0  0  0
  4  3  1  0  0  0  0
  4  9  1  0  0  0  0
  5  4  2  0  0  0  0
  6  1  2  0  0  0  0
  6  5  1  0  0  0  0
  7  1  1  0  0  0  0
 10  5  1  0  0  0  0
 12 11  3  0  0  0  0
 13 17  1  0  0  0  0
 14 13  1  0  0  0  0
 15 13  1  0  0  0  0
 18  6  1  0  0  0  0
M  END
