Coordinates from ORCA-job Ph-N2-BF4-B3LYPG-aug-cc-pVDZ-scan-d09-49-n400
 OpenBabel11081710393D

 18 17  0  0  0  0  0  0  0  0999 V2000
   -1.0352   -0.2564    0.1495 C   0  0  0  0  0  0  0  0  0  0  0  0
    0.2230   -0.1135   -0.4392 C   0  0  0  0  0  0  0  0  0  0  0  0
    0.6395    1.1956   -0.6159 C   0  0  0  0  0  0  0  0  0  0  0  0
   -0.0235    2.3577   -0.2462 C   0  0  0  0  0  0  0  0  0  0  0  0
   -1.2730    2.1653    0.3423 C   0  0  0  0  0  0  0  0  0  0  0  0
   -1.7718    0.8693    0.5332 C   0  0  0  0  0  0  0  0  0  0  0  0
   -1.4215   -1.2574    0.3337 H   0  0  0  0  0  0  0  0  0  0  0  0
    0.8618   -0.9550   -0.6884 H   0  0  0  0  0  0  0  0  0  0  0  0
    0.4158    3.3421   -0.3827 H   0  0  0  0  0  0  0  0  0  0  0  0
   -1.8479    3.0314    0.6662 H   0  0  0  0  0  0  0  0  0  0  0  0
    2.0394    1.3990   -1.2774 N   0  0  0  0  0  0  0  0  0  0  0  0
    2.9798    1.5821   -1.8255 N   0  0  0  0  0  0  0  0  0  0  0  0
    2.9355    0.3863    1.5279 B   0  0  0  0  0  0  0  0  0  0  0  0
    3.0618   -0.3798    0.3051 F   0  0  0  0  0  0  0  0  0  0  0  0
    4.0216    0.1638    2.3561 F   0  0  0  0  0  0  0  0  0  0  0  0
    2.8704    1.7695    1.1246 F   0  0  0  0  0  0  0  0  0  0  0  0
    1.7082    0.0397    2.1345 F   0  0  0  0  0  0  0  0  0  0  0  0
   -2.7435    0.7363    1.0081 H   0  0  0  0  0  0  0  0  0  0  0  0
  1  7  1  0  0  0  0
  1  6  2  0  0  0  0
  2  1  1  0  0  0  0
  3  2  2  0  0  0  0
  3  4  1  0  0  0  0
  4  5  2  0  0  0  0
  5  6  1  0  0  0  0
  5 10  1  0  0  0  0
  6 18  1  0  0  0  0
  8  2  1  0  0  0  0
  9  4  1  0  0  0  0
 11  3  1  0  0  0  0
 12 11  1  0  0  0  0
 13 17  1  0  0  0  0
 13 15  1  0  0  0  0
 14 13  1  0  0  0  0
 16 13  1  0  0  0  0
M  RAD  2  11   2  12   3
M  END
