Coordinates from ORCA-job Ph-N2-BF4-B3LYPG-aug-cc-pVDZ-scan-d09-49-n400
 OpenBabel11081710393D

 18 17  0  0  0  0  0  0  0  0999 V2000
   -1.0472   -0.2551    0.1543 C   0  0  0  0  0  0  0  0  0  0  0  0
    0.2189   -0.1144   -0.4230 C   0  0  0  0  0  0  0  0  0  0  0  0
    0.6199    1.1946   -0.5940 C   0  0  0  0  0  0  0  0  0  0  0  0
   -0.0346    2.3607   -0.2426 C   0  0  0  0  0  0  0  0  0  0  0  0
   -1.2915    2.1663    0.3350 C   0  0  0  0  0  0  0  0  0  0  0  0
   -1.7899    0.8706    0.5255 C   0  0  0  0  0  0  0  0  0  0  0  0
   -1.4327   -1.2565    0.3381 H   0  0  0  0  0  0  0  0  0  0  0  0
    0.8649   -0.9536   -0.6604 H   0  0  0  0  0  0  0  0  0  0  0  0
    0.4061    3.3441   -0.3792 H   0  0  0  0  0  0  0  0  0  0  0  0
   -1.8704    3.0336    0.6489 H   0  0  0  0  0  0  0  0  0  0  0  0
    2.0759    1.4076   -1.2759 N   0  0  0  0  0  0  0  0  0  0  0  0
    3.0113    1.5966   -1.8283 N   0  0  0  0  0  0  0  0  0  0  0  0
    2.9512    0.3790    1.5219 B   0  0  0  0  0  0  0  0  0  0  0  0
    3.0597   -0.3868    0.2964 F   0  0  0  0  0  0  0  0  0  0  0  0
    4.0474    0.1518    2.3354 F   0  0  0  0  0  0  0  0  0  0  0  0
    2.8867    1.7631    1.1202 F   0  0  0  0  0  0  0  0  0  0  0  0
    1.7310    0.0368    2.1434 F   0  0  0  0  0  0  0  0  0  0  0  0
   -2.7663    0.7376    0.9903 H   0  0  0  0  0  0  0  0  0  0  0  0
  1  7  1  0  0  0  0
  1  6  2  0  0  0  0
  2  1  1  0  0  0  0
  3  2  2  0  0  0  0
  3  4  1  0  0  0  0
  4  5  2  0  0  0  0
  5  6  1  0  0  0  0
  5 10  1  0  0  0  0
  6 18  1  0  0  0  0
  8  2  1  0  0  0  0
  9  4  1  0  0  0  0
 11  3  1  0  0  0  0
 12 11  1  0  0  0  0
 13 17  1  0  0  0  0
 13 15  1  0  0  0  0
 14 13  1  0  0  0  0
 16 13  1  0  0  0  0
M  RAD  2  11   2  12   3
M  END
