Coordinates from ORCA-job Ph-N2-BF4-B3LYPG-aug-cc-pVDZ-scan-d09-49-n400
 OpenBabel11081710393D

 18 16  0  0  0  0  0  0  0  0999 V2000
   -1.0126   -0.0672    0.4990 C   0  0  0  0  0  0  0  0  0  0  0  0
    0.3221    0.1494    0.0537 C   0  0  0  0  0  0  0  0  0  0  0  0
    0.3937    1.4126   -0.3726 C   0  0  0  0  0  0  0  0  0  0  0  0
   -0.3628    2.5221   -0.5021 C   0  0  0  0  0  0  0  0  0  0  0  0
   -1.6674    2.2184   -0.0375 C   0  0  0  0  0  0  0  0  0  0  0  0
   -1.9764    0.9435    0.4490 C   0  0  0  0  0  0  0  0  0  0  0  0
   -1.2329   -1.0521    0.9114 H   0  0  0  0  0  0  0  0  0  0  0  0
    1.1410   -0.5725    0.1373 H   0  0  0  0  0  0  0  0  0  0  0  0
   -0.0582    3.4886   -0.8886 H   0  0  0  0  0  0  0  0  0  0  0  0
   -2.4128    3.0130   -0.0751 H   0  0  0  0  0  0  0  0  0  0  0  0
    2.4142    1.8479   -1.2188 N   0  0  0  0  0  0  0  0  0  0  0  0
    3.3991    2.0906   -1.6492 N   0  0  0  0  0  0  0  0  0  0  0  0
    3.1659   -0.1365    1.4093 B   0  0  0  0  0  0  0  0  0  0  0  0
    3.1045   -0.5928    0.0342 F   0  0  0  0  0  0  0  0  0  0  0  0
    4.4229   -0.3576    1.9418 F   0  0  0  0  0  0  0  0  0  0  0  0
    2.8403    1.2582    1.3939 F   0  0  0  0  0  0  0  0  0  0  0  0
    2.1444   -0.8283    2.1127 F   0  0  0  0  0  0  0  0  0  0  0  0
   -2.9843    0.7388    0.8074 H   0  0  0  0  0  0  0  0  0  0  0  0
  1  7  1  0  0  0  0
  2  8  1  0  0  0  0
  2  1  2  0  0  0  0
  3  2  1  0  0  0  0
  4  3  2  0  0  0  0
  4  5  1  0  0  0  0
  5  6  2  0  0  0  0
  6  1  1  0  0  0  0
  6 18  1  0  0  0  0
  9  4  1  0  0  0  0
 10  5  1  0  0  0  0
 12 11  3  0  0  0  0
 13 15  1  0  0  0  0
 13 17  1  0  0  0  0
 14 13  1  0  0  0  0
 16 13  1  0  0  0  0
M  RAD  1   3   2
M  END
