Coordinates from ORCA-job Ph-N2-BF4-B3LYPG-aug-cc-pVDZ-scan-d09-49-n400
 OpenBabel11081710393D

 18 16  0  0  0  0  0  0  0  0999 V2000
   -1.2373   -0.0936   -0.0407 C   0  0  0  0  0  0  0  0  0  0  0  0
    0.0556   -0.0043    0.4868 C   0  0  0  0  0  0  0  0  0  0  0  0
    0.5392    1.2564    0.8128 C   0  0  0  0  0  0  0  0  0  0  0  0
   -0.1952    2.4222    0.6369 C   0  0  0  0  0  0  0  0  0  0  0  0
   -1.4857    2.3114    0.1080 C   0  0  0  0  0  0  0  0  0  0  0  0
   -2.0080    1.0584   -0.2302 C   0  0  0  0  0  0  0  0  0  0  0  0
   -1.6409   -1.0714   -0.3041 H   0  0  0  0  0  0  0  0  0  0  0  0
    0.6775   -0.8846    0.6391 H   0  0  0  0  0  0  0  0  0  0  0  0
    0.2367    3.3842    0.9076 H   0  0  0  0  0  0  0  0  0  0  0  0
   -2.0833    3.2113   -0.0390 H   0  0  0  0  0  0  0  0  0  0  0  0
    2.3825    1.5491   -2.0006 N   0  0  0  0  0  0  0  0  0  0  0  0
    2.1924    1.5111   -3.0878 N   0  0  0  0  0  0  0  0  0  0  0  0
    3.8392   -0.2144    1.6048 B   0  0  0  0  0  0  0  0  0  0  0  0
    3.4962   -0.9476    0.5488 F   0  0  0  0  0  0  0  0  0  0  0  0
    4.6643    0.8137    1.4600 F   0  0  0  0  0  0  0  0  0  0  0  0
    1.8036    1.3623    1.3318 F   0  0  0  0  0  0  0  0  0  0  0  0
    3.4177   -0.5678    2.8133 F   0  0  0  0  0  0  0  0  0  0  0  0
   -3.0140    0.9798   -0.6417 H   0  0  0  0  0  0  0  0  0  0  0  0
  1  2  1  0  0  0  0
  2  8  1  0  0  0  0
  2  3  2  0  0  0  0
  3 16  1  0  0  0  0
  4  3  1  0  0  0  0
  4  9  1  0  0  0  0
  5  4  2  0  0  0  0
  6  1  2  0  0  0  0
  6  5  1  0  0  0  0
  7  1  1  0  0  0  0
 10  5  1  0  0  0  0
 12 11  3  0  0  0  0
 13 17  1  0  0  0  0
 14 13  1  0  0  0  0
 15 13  1  0  0  0  0
 18  6  1  0  0  0  0
M  END
