Coordinates from ORCA-job Ph-N2-BF4-B3LYPG-aug-cc-pVDZ-scan-d09-49-n400
 OpenBabel11081710393D

 18 16  0  0  0  0  0  0  0  0999 V2000
   -1.2494   -0.0949   -0.0254 C   0  0  0  0  0  0  0  0  0  0  0  0
    0.0454   -0.0035    0.4971 C   0  0  0  0  0  0  0  0  0  0  0  0
    0.5269    1.2578    0.8240 C   0  0  0  0  0  0  0  0  0  0  0  0
   -0.2108    2.4223    0.6530 C   0  0  0  0  0  0  0  0  0  0  0  0
   -1.5032    2.3093    0.1291 C   0  0  0  0  0  0  0  0  0  0  0  0
   -2.0237    1.0556   -0.2093 C   0  0  0  0  0  0  0  0  0  0  0  0
   -1.6516   -1.0732   -0.2892 H   0  0  0  0  0  0  0  0  0  0  0  0
    0.6702   -0.8824    0.6449 H   0  0  0  0  0  0  0  0  0  0  0  0
    0.2200    3.3848    0.9235 H   0  0  0  0  0  0  0  0  0  0  0  0
   -2.1035    3.2080   -0.0139 H   0  0  0  0  0  0  0  0  0  0  0  0
    2.4723    1.5494   -2.0909 N   0  0  0  0  0  0  0  0  0  0  0  0
    2.3048    1.5105   -3.1818 N   0  0  0  0  0  0  0  0  0  0  0  0
    3.8301   -0.2126    1.6042 B   0  0  0  0  0  0  0  0  0  0  0  0
    3.4931   -0.9382    0.5410 F   0  0  0  0  0  0  0  0  0  0  0  0
    4.6554    0.8170    1.4713 F   0  0  0  0  0  0  0  0  0  0  0  0
    1.7937    1.3659    1.3373 F   0  0  0  0  0  0  0  0  0  0  0  0
    3.4021   -0.5751    2.8077 F   0  0  0  0  0  0  0  0  0  0  0  0
   -3.0313    0.9753   -0.6168 H   0  0  0  0  0  0  0  0  0  0  0  0
  1  2  1  0  0  0  0
  2  8  1  0  0  0  0
  2  3  2  0  0  0  0
  3 16  1  0  0  0  0
  4  3  1  0  0  0  0
  4  9  1  0  0  0  0
  5  4  2  0  0  0  0
  6  1  2  0  0  0  0
  6  5  1  0  0  0  0
  7  1  1  0  0  0  0
 10  5  1  0  0  0  0
 12 11  3  0  0  0  0
 13 17  1  0  0  0  0
 14 13  1  0  0  0  0
 15 13  1  0  0  0  0
 18  6  1  0  0  0  0
M  END
