Coordinates from ORCA-job Ph-N2-BF4-B3LYPG-aug-cc-pVDZ-scan-d09-49-n400
 OpenBabel11081710393D

 18 16  0  0  0  0  0  0  0  0999 V2000
   -1.2895   -0.0973    0.0167 C   0  0  0  0  0  0  0  0  0  0  0  0
    0.0127   -0.0017    0.5195 C   0  0  0  0  0  0  0  0  0  0  0  0
    0.4912    1.2602    0.8485 C   0  0  0  0  0  0  0  0  0  0  0  0
   -0.2556    2.4215    0.6970 C   0  0  0  0  0  0  0  0  0  0  0  0
   -1.5554    2.3041    0.1925 C   0  0  0  0  0  0  0  0  0  0  0  0
   -2.0736    1.0497   -0.1464 C   0  0  0  0  0  0  0  0  0  0  0  0
   -1.6898   -1.0761   -0.2484 H   0  0  0  0  0  0  0  0  0  0  0  0
    0.6453   -0.8777    0.6508 H   0  0  0  0  0  0  0  0  0  0  0  0
    0.1740    3.3848    0.9669 H   0  0  0  0  0  0  0  0  0  0  0  0
   -2.1631    3.2002    0.0651 H   0  0  0  0  0  0  0  0  0  0  0  0
    2.7294    1.5482   -2.3538 N   0  0  0  0  0  0  0  0  0  0  0  0
    2.6273    1.5080   -3.4528 N   0  0  0  0  0  0  0  0  0  0  0  0
    3.8121   -0.2071    1.6100 B   0  0  0  0  0  0  0  0  0  0  0  0
    3.5075   -0.9161    0.5264 F   0  0  0  0  0  0  0  0  0  0  0  0
    4.6291    0.8332    1.5152 F   0  0  0  0  0  0  0  0  0  0  0  0
    1.7664    1.3719    1.3412 F   0  0  0  0  0  0  0  0  0  0  0  0
    3.3594   -0.5960    2.7962 F   0  0  0  0  0  0  0  0  0  0  0  0
   -3.0869    0.9662   -0.5387 H   0  0  0  0  0  0  0  0  0  0  0  0
  1  2  1  0  0  0  0
  2  8  1  0  0  0  0
  2  3  2  0  0  0  0
  3 16  1  0  0  0  0
  4  3  1  0  0  0  0
  4  9  1  0  0  0  0
  5  4  2  0  0  0  0
  6  1  2  0  0  0  0
  6  5  1  0  0  0  0
  7  1  1  0  0  0  0
 10  5  1  0  0  0  0
 12 11  3  0  0  0  0
 13 17  1  0  0  0  0
 14 13  1  0  0  0  0
 15 13  1  0  0  0  0
 18  6  1  0  0  0  0
M  END
