Coordinates from ORCA-job Ph-N2-BF4-B3LYPG-aug-cc-pVDZ-scan-d09-49-n400
 OpenBabel11081710393D

 18 16  0  0  0  0  0  0  0  0999 V2000
   -1.1825   -0.0827   -0.1271 C   0  0  0  0  0  0  0  0  0  0  0  0
    0.1050   -0.0020    0.4134 C   0  0  0  0  0  0  0  0  0  0  0  0
    0.6102    1.2569    0.7120 C   0  0  0  0  0  0  0  0  0  0  0  0
   -0.1224    2.4252    0.5441 C   0  0  0  0  0  0  0  0  0  0  0  0
   -1.4079    2.3248    0.0031 C   0  0  0  0  0  0  0  0  0  0  0  0
   -1.9383    1.0756   -0.3381 C   0  0  0  0  0  0  0  0  0  0  0  0
   -1.5961   -1.0592   -0.3797 H   0  0  0  0  0  0  0  0  0  0  0  0
    0.7113   -0.8894    0.5851 H   0  0  0  0  0  0  0  0  0  0  0  0
    0.3121    3.3846    0.8192 H   0  0  0  0  0  0  0  0  0  0  0  0
   -1.9976    3.2292   -0.1479 H   0  0  0  0  0  0  0  0  0  0  0  0
    1.9239    1.5096   -1.4401 N   0  0  0  0  0  0  0  0  0  0  0  0
    1.6705    1.4760   -2.5154 N   0  0  0  0  0  0  0  0  0  0  0  0
    3.8956   -0.2173    1.5876 B   0  0  0  0  0  0  0  0  0  0  0  0
    3.5122   -0.9933    0.5770 F   0  0  0  0  0  0  0  0  0  0  0  0
    4.7196    0.7986    1.3691 F   0  0  0  0  0  0  0  0  0  0  0  0
    1.8508    1.3493    1.2794 F   0  0  0  0  0  0  0  0  0  0  0  0
    3.5146   -0.5142    2.8240 F   0  0  0  0  0  0  0  0  0  0  0  0
   -2.9406    1.0046   -0.7598 H   0  0  0  0  0  0  0  0  0  0  0  0
  1  2  1  0  0  0  0
  2  8  1  0  0  0  0
  2  3  2  0  0  0  0
  3 16  1  0  0  0  0
  4  3  1  0  0  0  0
  4  9  1  0  0  0  0
  5  4  2  0  0  0  0
  6  1  2  0  0  0  0
  6  5  1  0  0  0  0
  7  1  1  0  0  0  0
 10  5  1  0  0  0  0
 12 11  3  0  0  0  0
 13 17  1  0  0  0  0
 14 13  1  0  0  0  0
 15 13  1  0  0  0  0
 18  6  1  0  0  0  0
M  END
