Coordinates from ORCA-job Ph-N2-BF4-B3LYPG-aug-cc-pVDZ-scan-d09-49-n400
 OpenBabel11081710403D

 18 16  0  0  0  0  0  0  0  0999 V2000
   -1.3606   -0.0852    0.0579 C   0  0  0  0  0  0  0  0  0  0  0  0
   -0.0424    0.0218    0.5154 C   0  0  0  0  0  0  0  0  0  0  0  0
    0.4090    1.2767    0.9032 C   0  0  0  0  0  0  0  0  0  0  0  0
   -0.3781    2.4199    0.8549 C   0  0  0  0  0  0  0  0  0  0  0  0
   -1.6928    2.2909    0.3943 C   0  0  0  0  0  0  0  0  0  0  0  0
   -2.1851    1.0430   -0.0031 C   0  0  0  0  0  0  0  0  0  0  0  0
   -1.7418   -1.0585   -0.2519 H   0  0  0  0  0  0  0  0  0  0  0  0
    0.6216   -0.8390    0.5691 H   0  0  0  0  0  0  0  0  0  0  0  0
    0.0313    3.3783    1.1700 H   0  0  0  0  0  0  0  0  0  0  0  0
   -2.3326    3.1723    0.3471 H   0  0  0  0  0  0  0  0  0  0  0  0
    3.3315    1.4518   -2.9883 N   0  0  0  0  0  0  0  0  0  0  0  0
    3.3853    1.3861   -4.0895 N   0  0  0  0  0  0  0  0  0  0  0  0
    3.7612   -0.1689    1.6316 B   0  0  0  0  0  0  0  0  0  0  0  0
    3.5032   -0.8627    0.5265 F   0  0  0  0  0  0  0  0  0  0  0  0
    4.5692    0.8816    1.5809 F   0  0  0  0  0  0  0  0  0  0  0  0
    1.7004    1.3987    1.3533 F   0  0  0  0  0  0  0  0  0  0  0  0
    3.2716   -0.5807    2.7952 F   0  0  0  0  0  0  0  0  0  0  0  0
   -3.2103    0.9500   -0.3608 H   0  0  0  0  0  0  0  0  0  0  0  0
  1  2  1  0  0  0  0
  2  8  1  0  0  0  0
  2  3  2  0  0  0  0
  3 16  1  0  0  0  0
  4  3  1  0  0  0  0
  4  9  1  0  0  0  0
  5  4  2  0  0  0  0
  6  1  2  0  0  0  0
  6  5  1  0  0  0  0
  7  1  1  0  0  0  0
 10  5  1  0  0  0  0
 12 11  3  0  0  0  0
 13 17  1  0  0  0  0
 14 13  1  0  0  0  0
 15 13  1  0  0  0  0
 18  6  1  0  0  0  0
M  END
