Coordinates from ORCA-job Ph-N2-BF4-B3LYPG-aug-cc-pVDZ-scan-d09-49-n400
 OpenBabel11081710393D

 18 17  0  0  0  0  0  0  0  0999 V2000
   -0.9284   -0.2538    0.1540 C   0  0  0  0  0  0  0  0  0  0  0  0
    0.2839   -0.0983   -0.4968 C   0  0  0  0  0  0  0  0  0  0  0  0
    0.7669    1.2202   -0.7438 C   0  0  0  0  0  0  0  0  0  0  0  0
    0.0387    2.3611   -0.2859 C   0  0  0  0  0  0  0  0  0  0  0  0
   -1.1590    2.1681    0.3716 C   0  0  0  0  0  0  0  0  0  0  0  0
   -1.6443    0.8667    0.5868 C   0  0  0  0  0  0  0  0  0  0  0  0
   -1.2963   -1.2568    0.3612 H   0  0  0  0  0  0  0  0  0  0  0  0
    0.9020   -0.9432   -0.7886 H   0  0  0  0  0  0  0  0  0  0  0  0
    0.4570    3.3525   -0.4479 H   0  0  0  0  0  0  0  0  0  0  0  0
   -1.7168    3.0293    0.7359 H   0  0  0  0  0  0  0  0  0  0  0  0
    1.8068    1.3784   -1.3230 N   0  0  0  0  0  0  0  0  0  0  0  0
    2.7658    1.5387   -1.8811 N   0  0  0  0  0  0  0  0  0  0  0  0
    2.8099    0.3898    1.5622 B   0  0  0  0  0  0  0  0  0  0  0  0
    3.0673   -0.3405    0.3457 F   0  0  0  0  0  0  0  0  0  0  0  0
    3.8235    0.1927    2.4841 F   0  0  0  0  0  0  0  0  0  0  0  0
    2.7033    1.7761    1.1960 F   0  0  0  0  0  0  0  0  0  0  0  0
    1.5465   -0.0341    2.0577 F   0  0  0  0  0  0  0  0  0  0  0  0
   -2.5863    0.7292    1.1177 H   0  0  0  0  0  0  0  0  0  0  0  0
  1  7  1  0  0  0  0
  1  6  2  0  0  0  0
  2  1  1  0  0  0  0
  3  2  2  0  0  0  0
  3  4  1  0  0  0  0
  4  5  2  0  0  0  0
  5  6  1  0  0  0  0
  5 10  1  0  0  0  0
  6 18  1  0  0  0  0
  8  2  1  0  0  0  0
  9  4  1  0  0  0  0
 11  3  1  0  0  0  0
 12 11  1  0  0  0  0
 13 17  1  0  0  0  0
 13 15  1  0  0  0  0
 14 13  1  0  0  0  0
 16 13  1  0  0  0  0
M  RAD  2  11   2  12   3
M  END
