Coordinates from ORCA-job Ph-N2-BF4-B3LYPG-aug-cc-pVDZ-scan-d09-49-n400
 OpenBabel11081710393D

 18 16  0  0  0  0  0  0  0  0999 V2000
   -1.2021   -0.0884   -0.0950 C   0  0  0  0  0  0  0  0  0  0  0  0
    0.0861   -0.0061    0.4447 C   0  0  0  0  0  0  0  0  0  0  0  0
    0.5788    1.2521    0.7637 C   0  0  0  0  0  0  0  0  0  0  0  0
   -0.1470    2.4214    0.5806 C   0  0  0  0  0  0  0  0  0  0  0  0
   -1.4331    2.3187    0.0398 C   0  0  0  0  0  0  0  0  0  0  0  0
   -1.9619    1.0684   -0.2989 C   0  0  0  0  0  0  0  0  0  0  0  0
   -1.6111   -1.0647   -0.3560 H   0  0  0  0  0  0  0  0  0  0  0  0
    0.6999   -0.8901    0.6075 H   0  0  0  0  0  0  0  0  0  0  0  0
    0.2907    3.3809    0.8509 H   0  0  0  0  0  0  0  0  0  0  0  0
   -2.0226    3.2225   -0.1157 H   0  0  0  0  0  0  0  0  0  0  0  0
    2.0833    1.5338   -1.6581 N   0  0  0  0  0  0  0  0  0  0  0  0
    1.8565    1.5107   -2.7388 N   0  0  0  0  0  0  0  0  0  0  0  0
    3.8733   -0.2176    1.5974 B   0  0  0  0  0  0  0  0  0  0  0  0
    3.4990   -0.9905    0.5808 F   0  0  0  0  0  0  0  0  0  0  0  0
    4.6956    0.8016    1.3884 F   0  0  0  0  0  0  0  0  0  0  0  0
    1.8331    1.3496    1.3043 F   0  0  0  0  0  0  0  0  0  0  0  0
    3.4862   -0.5220    2.8303 F   0  0  0  0  0  0  0  0  0  0  0  0
   -2.9644    0.9957   -0.7199 H   0  0  0  0  0  0  0  0  0  0  0  0
  1  2  1  0  0  0  0
  2  8  1  0  0  0  0
  2  3  2  0  0  0  0
  3 16  1  0  0  0  0
  4  3  1  0  0  0  0
  4  9  1  0  0  0  0
  5  4  2  0  0  0  0
  6  1  2  0  0  0  0
  6  5  1  0  0  0  0
  7  1  1  0  0  0  0
 10  5  1  0  0  0  0
 12 11  3  0  0  0  0
 13 17  1  0  0  0  0
 14 13  1  0  0  0  0
 15 13  1  0  0  0  0
 18  6  1  0  0  0  0
M  END
