Coordinates from ORCA-job Ph-N2-BF4-B3LYPG-aug-cc-pVDZ-scan-d09-49-n400
 OpenBabel11081710393D

 18 16  0  0  0  0  0  0  0  0999 V2000
   -1.3312   -0.0996    0.0612 C   0  0  0  0  0  0  0  0  0  0  0  0
   -0.0208    0.0016    0.5411 C   0  0  0  0  0  0  0  0  0  0  0  0
    0.4508    1.2635    0.8790 C   0  0  0  0  0  0  0  0  0  0  0  0
   -0.3079    2.4193    0.7567 C   0  0  0  0  0  0  0  0  0  0  0  0
   -1.6159    2.2965    0.2747 C   0  0  0  0  0  0  0  0  0  0  0  0
   -2.1288    1.0421   -0.0714 C   0  0  0  0  0  0  0  0  0  0  0  0
   -1.7271   -1.0783   -0.2102 H   0  0  0  0  0  0  0  0  0  0  0  0
    0.6231   -0.8695    0.6480 H   0  0  0  0  0  0  0  0  0  0  0  0
    0.1189    3.3827    1.0306 H   0  0  0  0  0  0  0  0  0  0  0  0
   -2.2338    3.1886    0.1701 H   0  0  0  0  0  0  0  0  0  0  0  0
    3.0317    1.5403   -2.6847 N   0  0  0  0  0  0  0  0  0  0  0  0
    3.0114    1.4994   -3.7881 N   0  0  0  0  0  0  0  0  0  0  0  0
    3.7809   -0.1971    1.6219 B   0  0  0  0  0  0  0  0  0  0  0  0
    3.4997   -0.8860    0.5193 F   0  0  0  0  0  0  0  0  0  0  0  0
    4.5953    0.8478    1.5620 F   0  0  0  0  0  0  0  0  0  0  0  0
    1.7350    1.3804    1.3493 F   0  0  0  0  0  0  0  0  0  0  0  0
    3.3076   -0.6100    2.7921 F   0  0  0  0  0  0  0  0  0  0  0  0
   -3.1485    0.9543   -0.4459 H   0  0  0  0  0  0  0  0  0  0  0  0
  1  2  1  0  0  0  0
  2  8  1  0  0  0  0
  2  3  2  0  0  0  0
  3 16  1  0  0  0  0
  4  3  1  0  0  0  0
  4  9  1  0  0  0  0
  5  4  2  0  0  0  0
  6  1  2  0  0  0  0
  6  5  1  0  0  0  0
  7  1  1  0  0  0  0
 10  5  1  0  0  0  0
 12 11  3  0  0  0  0
 13 17  1  0  0  0  0
 14 13  1  0  0  0  0
 15 13  1  0  0  0  0
 18  6  1  0  0  0  0
M  END
