Coordinates from ORCA-job Ph-N2-BF4-B3LYPG-aug-cc-pVDZ-scan-d09-49-n400
 OpenBabel11081710393D

 18 16  0  0  0  0  0  0  0  0999 V2000
   -1.2140   -0.0906   -0.0752 C   0  0  0  0  0  0  0  0  0  0  0  0
    0.0758   -0.0059    0.4605 C   0  0  0  0  0  0  0  0  0  0  0  0
    0.5652    1.2533    0.7830 C   0  0  0  0  0  0  0  0  0  0  0  0
   -0.1636    2.4217    0.6012 C   0  0  0  0  0  0  0  0  0  0  0  0
   -1.4511    2.3161    0.0643 C   0  0  0  0  0  0  0  0  0  0  0  0
   -1.9775    1.0647   -0.2742 C   0  0  0  0  0  0  0  0  0  0  0  0
   -1.6211   -1.0673   -0.3372 H   0  0  0  0  0  0  0  0  0  0  0  0
    0.6917   -0.8890    0.6202 H   0  0  0  0  0  0  0  0  0  0  0  0
    0.2711    3.3824    0.8724 H   0  0  0  0  0  0  0  0  0  0  0  0
   -2.0434    3.2185   -0.0885 H   0  0  0  0  0  0  0  0  0  0  0  0
    2.1906    1.5416   -1.7881 N   0  0  0  0  0  0  0  0  0  0  0  0
    1.9731    1.5116   -2.8705 N   0  0  0  0  0  0  0  0  0  0  0  0
    3.8602   -0.2166    1.6019 B   0  0  0  0  0  0  0  0  0  0  0  0
    3.4977   -0.9738    0.5694 F   0  0  0  0  0  0  0  0  0  0  0  0
    4.6838    0.8065    1.4184 F   0  0  0  0  0  0  0  0  0  0  0  0
    1.8235    1.3538    1.3151 F   0  0  0  0  0  0  0  0  0  0  0  0
    3.4598   -0.5409    2.8254 F   0  0  0  0  0  0  0  0  0  0  0  0
   -2.9812    0.9900   -0.6920 H   0  0  0  0  0  0  0  0  0  0  0  0
  1  2  1  0  0  0  0
  2  8  1  0  0  0  0
  2  3  2  0  0  0  0
  3 16  1  0  0  0  0
  4  3  1  0  0  0  0
  4  9  1  0  0  0  0
  5  4  2  0  0  0  0
  6  1  2  0  0  0  0
  6  5  1  0  0  0  0
  7  1  1  0  0  0  0
 10  5  1  0  0  0  0
 12 11  3  0  0  0  0
 13 17  1  0  0  0  0
 14 13  1  0  0  0  0
 15 13  1  0  0  0  0
 18  6  1  0  0  0  0
M  END
