Coordinates from ORCA-job Ph-N2-BF4-B3LYPG-aug-cc-pVDZ-scan-d09-49-n400
 OpenBabel11081710393D

 18 17  0  0  0  0  0  0  0  0999 V2000
   -0.9244   -0.2533    0.1543 C   0  0  0  0  0  0  0  0  0  0  0  0
    0.2873   -0.0978   -0.4963 C   0  0  0  0  0  0  0  0  0  0  0  0
    0.7743    1.2215   -0.7477 C   0  0  0  0  0  0  0  0  0  0  0  0
    0.0416    2.3616   -0.2861 C   0  0  0  0  0  0  0  0  0  0  0  0
   -1.1550    2.1686    0.3718 C   0  0  0  0  0  0  0  0  0  0  0  0
   -1.6404    0.8670    0.5871 C   0  0  0  0  0  0  0  0  0  0  0  0
   -1.2917   -1.2564    0.3618 H   0  0  0  0  0  0  0  0  0  0  0  0
    0.9057   -0.9426   -0.7882 H   0  0  0  0  0  0  0  0  0  0  0  0
    0.4599    3.3530   -0.4488 H   0  0  0  0  0  0  0  0  0  0  0  0
   -1.7124    3.0298    0.7364 H   0  0  0  0  0  0  0  0  0  0  0  0
    1.7942    1.3773   -1.3216 N   0  0  0  0  0  0  0  0  0  0  0  0
    2.7528    1.5377   -1.8836 N   0  0  0  0  0  0  0  0  0  0  0  0
    2.8065    0.3892    1.5625 B   0  0  0  0  0  0  0  0  0  0  0  0
    3.0685   -0.3397    0.3466 F   0  0  0  0  0  0  0  0  0  0  0  0
    3.8175    0.1941    2.4875 F   0  0  0  0  0  0  0  0  0  0  0  0
    2.6963    1.7754    1.1979 F   0  0  0  0  0  0  0  0  0  0  0  0
    1.5423   -0.0389    2.0542 F   0  0  0  0  0  0  0  0  0  0  0  0
   -2.5825    0.7295    1.1180 H   0  0  0  0  0  0  0  0  0  0  0  0
  1  7  1  0  0  0  0
  1  6  2  0  0  0  0
  2  1  1  0  0  0  0
  3  2  2  0  0  0  0
  3  4  1  0  0  0  0
  4  5  2  0  0  0  0
  5  6  1  0  0  0  0
  5 10  1  0  0  0  0
  6 18  1  0  0  0  0
  8  2  1  0  0  0  0
  9  4  1  0  0  0  0
 11  3  1  0  0  0  0
 12 11  1  0  0  0  0
 13 17  1  0  0  0  0
 13 15  1  0  0  0  0
 14 13  1  0  0  0  0
 16 13  1  0  0  0  0
M  RAD  2  11   2  12   3
M  END
