Coordinates from ORCA-job Ph-N2-BF4-B3LYPG-aug-cc-pVDZ-scan-d09-49-n400
 OpenBabel11081710393D

 18 16  0  0  0  0  0  0  0  0999 V2000
   -1.2233   -0.0920   -0.0595 C   0  0  0  0  0  0  0  0  0  0  0  0
    0.0678   -0.0054    0.4728 C   0  0  0  0  0  0  0  0  0  0  0  0
    0.5544    1.2545    0.7973 C   0  0  0  0  0  0  0  0  0  0  0  0
   -0.1765    2.4219    0.6174 C   0  0  0  0  0  0  0  0  0  0  0  0
   -1.4653    2.3140    0.0838 C   0  0  0  0  0  0  0  0  0  0  0  0
   -1.9899    1.0618   -0.2544 C   0  0  0  0  0  0  0  0  0  0  0  0
   -1.6288   -1.0692   -0.3222 H   0  0  0  0  0  0  0  0  0  0  0  0
    0.6862   -0.8873    0.6294 H   0  0  0  0  0  0  0  0  0  0  0  0
    0.2569    3.3831    0.8884 H   0  0  0  0  0  0  0  0  0  0  0  0
   -2.0598    3.2153   -0.0666 H   0  0  0  0  0  0  0  0  0  0  0  0
    2.2762    1.5468   -1.8910 N   0  0  0  0  0  0  0  0  0  0  0  0
    2.0631    1.5106   -2.9740 N   0  0  0  0  0  0  0  0  0  0  0  0
    3.8495   -0.2156    1.6057 B   0  0  0  0  0  0  0  0  0  0  0  0
    3.4973   -0.9581    0.5592 F   0  0  0  0  0  0  0  0  0  0  0  0
    4.6731    0.8113    1.4447 F   0  0  0  0  0  0  0  0  0  0  0  0
    1.8155    1.3575    1.3235 F   0  0  0  0  0  0  0  0  0  0  0  0
    3.4386   -0.5585    2.8208 F   0  0  0  0  0  0  0  0  0  0  0  0
   -2.9946    0.9854   -0.6695 H   0  0  0  0  0  0  0  0  0  0  0  0
  1  2  1  0  0  0  0
  2  8  1  0  0  0  0
  2  3  2  0  0  0  0
  3 16  1  0  0  0  0
  4  3  1  0  0  0  0
  4  9  1  0  0  0  0
  5  4  2  0  0  0  0
  6  1  2  0  0  0  0
  6  5  1  0  0  0  0
  7  1  1  0  0  0  0
 10  5  1  0  0  0  0
 12 11  3  0  0  0  0
 13 17  1  0  0  0  0
 14 13  1  0  0  0  0
 15 13  1  0  0  0  0
 18  6  1  0  0  0  0
M  END
