Coordinates from ORCA-job Ph-N2-H-BF4-B3LYPG-6-31G_dp-scan-d09-49-n400
 OpenBabel08281821063D

 18 17  0  0  0  0  0  0  0  0999 V2000
   -1.2937    0.4305    1.0622 C   0  0  0  0  0  0  0  0  0  0  0  0
    0.0600    0.7377    1.1499 C   0  0  0  0  0  0  0  0  0  0  0  0
    0.5769    1.5932    0.1676 C   0  0  0  0  0  0  0  0  0  0  0  0
   -0.1862    2.1380   -0.8783 C   0  0  0  0  0  0  0  0  0  0  0  0
   -1.5302    1.7959   -0.9390 C   0  0  0  0  0  0  0  0  0  0  0  0
   -2.0810    0.9476    0.0291 C   0  0  0  0  0  0  0  0  0  0  0  0
   -1.7318   -0.2310    1.8021 H   0  0  0  0  0  0  0  0  0  0  0  0
    0.7181    0.3328    1.9095 H   0  0  0  0  0  0  0  0  0  0  0  0
    0.2712    2.7905   -1.6136 H   0  0  0  0  0  0  0  0  0  0  0  0
   -2.1465    2.1897   -1.7399 H   0  0  0  0  0  0  0  0  0  0  0  0
    1.9072    1.9939    0.2243 N   0  0  0  0  0  0  0  0  0  0  0  0
    2.9267    2.4399    0.2216 N   0  0  0  0  0  0  0  0  0  0  0  0
    3.4805   -0.3921    0.7247 B   0  0  0  0  0  0  0  0  0  0  0  0
    2.6271   -0.3687   -0.4108 F   0  0  0  0  0  0  0  0  0  0  0  0
    4.4617    0.6091    0.5420 F   0  0  0  0  0  0  0  0  0  0  0  0
    2.6871    0.0147    1.8526 F   0  0  0  0  0  0  0  0  0  0  0  0
    4.0259   -1.6305    0.9290 F   0  0  0  0  0  0  0  0  0  0  0  0
   -3.1327    0.6848   -0.0271 H   0  0  0  0  0  0  0  0  0  0  0  0
  1  2  1  0  0  0  0
  1  7  1  0  0  0  0
  2  8  1  0  0  0  0
  3 11  1  0  0  0  0
  3  2  2  0  0  0  0
  4  3  1  0  0  0  0
  5  4  2  0  0  0  0
  5  6  1  0  0  0  0
  6  1  2  0  0  0  0
  9  4  1  0  0  0  0
 10  5  1  0  0  0  0
 12 11  1  0  0  0  0
 13 17  1  0  0  0  0
 13 16  1  0  0  0  0
 14 13  1  0  0  0  0
 15 13  1  0  0  0  0
 18  6  1  0  0  0  0
M  RAD  2  11   2  12   3
M  END
