Coordinates from ORCA-job Ph-N2-H-BF4-B3LYPG-6-31G_dp-scan-d09-49-n400
 OpenBabel08281821063D

 18 17  0  0  0  0  0  0  0  0999 V2000
   -1.8206    1.7386    1.2349 C   0  0  0  0  0  0  0  0  0  0  0  0
   -0.5402    1.7181    1.7676 C   0  0  0  0  0  0  0  0  0  0  0  0
    0.4624    1.0724    1.0182 C   0  0  0  0  0  0  0  0  0  0  0  0
    0.2402    0.4369   -0.2130 C   0  0  0  0  0  0  0  0  0  0  0  0
   -1.0608    0.4750   -0.7062 C   0  0  0  0  0  0  0  0  0  0  0  0
   -2.0767    1.1215    0.0024 C   0  0  0  0  0  0  0  0  0  0  0  0
   -2.6191    2.2318    1.7779 H   0  0  0  0  0  0  0  0  0  0  0  0
   -0.3157    2.1799    2.7233 H   0  0  0  0  0  0  0  0  0  0  0  0
    1.0696   -0.0559   -0.7150 H   0  0  0  0  0  0  0  0  0  0  0  0
   -1.2770   -0.0016   -1.6559 H   0  0  0  0  0  0  0  0  0  0  0  0
    1.7359    1.0495    1.5673 N   0  0  0  0  0  0  0  0  0  0  0  0
    2.7306    1.0555    2.0708 N   0  0  0  0  0  0  0  0  0  0  0  0
    3.6687    0.3806   -0.7225 B   0  0  0  0  0  0  0  0  0  0  0  0
    2.8047    1.5107   -0.7672 F   0  0  0  0  0  0  0  0  0  0  0  0
    4.3630    0.4326    0.5147 F   0  0  0  0  0  0  0  0  0  0  0  0
    2.8313   -0.7728   -0.6978 F   0  0  0  0  0  0  0  0  0  0  0  0
    4.5272    0.3583   -1.7888 F   0  0  0  0  0  0  0  0  0  0  0  0
   -3.0830    1.1449   -0.4048 H   0  0  0  0  0  0  0  0  0  0  0  0
  1  2  1  0  0  0  0
  1  7  1  0  0  0  0
  2  8  1  0  0  0  0
  3 11  1  0  0  0  0
  3  2  2  0  0  0  0
  4  3  1  0  0  0  0
  5  4  2  0  0  0  0
  5  6  1  0  0  0  0
  6  1  2  0  0  0  0
  9  4  1  0  0  0  0
 10  5  1  0  0  0  0
 11 12  1  0  0  0  0
 13 16  1  0  0  0  0
 13 15  1  0  0  0  0
 14 13  1  0  0  0  0
 17 13  1  0  0  0  0
 18  6  1  0  0  0  0
M  RAD  2  11   2  12   3
M  END
