Coordinates from ORCA-job Ph-N2-H-BF4-B3LYPG-6-31G_dp-scan-d09-49-n400
 OpenBabel08281821063D

 18 17  0  0  0  0  0  0  0  0999 V2000
   -1.5757    0.9093    1.3794 C   0  0  0  0  0  0  0  0  0  0  0  0
   -0.2673    1.2667    1.6750 C   0  0  0  0  0  0  0  0  0  0  0  0
    0.5805    1.5646    0.6016 C   0  0  0  0  0  0  0  0  0  0  0  0
    0.1976    1.5038   -0.7429 C   0  0  0  0  0  0  0  0  0  0  0  0
   -1.1225    1.1531   -1.0015 C   0  0  0  0  0  0  0  0  0  0  0  0
   -2.0013    0.8606    0.0468 C   0  0  0  0  0  0  0  0  0  0  0  0
   -2.2578    0.6595    2.1844 H   0  0  0  0  0  0  0  0  0  0  0  0
    0.1213    1.2877    2.6847 H   0  0  0  0  0  0  0  0  0  0  0  0
    0.9323    1.6694   -1.5176 H   0  0  0  0  0  0  0  0  0  0  0  0
   -1.4601    1.0868   -2.0301 H   0  0  0  0  0  0  0  0  0  0  0  0
    1.8685    1.9717    0.9284 N   0  0  0  0  0  0  0  0  0  0  0  0
    2.8490    2.3875    1.2463 N   0  0  0  0  0  0  0  0  0  0  0  0
    3.3869   -0.2031   -0.0634 B   0  0  0  0  0  0  0  0  0  0  0  0
    2.7997    0.6850   -1.0302 F   0  0  0  0  0  0  0  0  0  0  0  0
    4.3865    0.5284    0.6080 F   0  0  0  0  0  0  0  0  0  0  0  0
    2.3590   -0.4959    0.8766 F   0  0  0  0  0  0  0  0  0  0  0  0
    3.8684   -1.3349   -0.6626 F   0  0  0  0  0  0  0  0  0  0  0  0
   -3.0245    0.5759   -0.1769 H   0  0  0  0  0  0  0  0  0  0  0  0
  1  2  1  0  0  0  0
  1  7  1  0  0  0  0
  2  8  1  0  0  0  0
  3 11  1  0  0  0  0
  3  2  2  0  0  0  0
  4  3  1  0  0  0  0
  5  4  2  0  0  0  0
  5  6  1  0  0  0  0
  6  1  2  0  0  0  0
  9  4  1  0  0  0  0
 10  5  1  0  0  0  0
 11 12  1  0  0  0  0
 13 15  1  0  0  0  0
 13 16  1  0  0  0  0
 14 13  1  0  0  0  0
 17 13  1  0  0  0  0
 18  6  1  0  0  0  0
M  RAD  2  11   2  12   3
M  END
