Coordinates from ORCA-job Ph-N2-H-BF4-B3LYPG-6-31G_dp-scan-d09-49-n400
 OpenBabel08281821063D

 18 17  0  0  0  0  0  0  0  0999 V2000
   -1.4490    0.7383    1.3218 C   0  0  0  0  0  0  0  0  0  0  0  0
   -0.1423    1.1287    1.5842 C   0  0  0  0  0  0  0  0  0  0  0  0
    0.6020    1.6310    0.5113 C   0  0  0  0  0  0  0  0  0  0  0  0
    0.1290    1.7184   -0.8024 C   0  0  0  0  0  0  0  0  0  0  0  0
   -1.1828    1.3209   -1.0287 C   0  0  0  0  0  0  0  0  0  0  0  0
   -1.9670    0.8401    0.0255 C   0  0  0  0  0  0  0  0  0  0  0  0
   -2.0573    0.3373    2.1248 H   0  0  0  0  0  0  0  0  0  0  0  0
    0.3122    1.0215    2.5605 H   0  0  0  0  0  0  0  0  0  0  0  0
    0.7884    2.0407   -1.5967 H   0  0  0  0  0  0  0  0  0  0  0  0
   -1.5868    1.3674   -2.0341 H   0  0  0  0  0  0  0  0  0  0  0  0
    1.8903    2.0780    0.7741 N   0  0  0  0  0  0  0  0  0  0  0  0
    2.8812    2.5214    1.0119 N   0  0  0  0  0  0  0  0  0  0  0  0
    3.3068   -0.2759    0.1363 B   0  0  0  0  0  0  0  0  0  0  0  0
    2.6199    0.3797   -0.9361 F   0  0  0  0  0  0  0  0  0  0  0  0
    4.3650    0.5682    0.5292 F   0  0  0  0  0  0  0  0  0  0  0  0
    2.3863   -0.3402    1.2282 F   0  0  0  0  0  0  0  0  0  0  0  0
    3.7313   -1.5230   -0.2351 F   0  0  0  0  0  0  0  0  0  0  0  0
   -2.9867    0.5236   -0.1687 H   0  0  0  0  0  0  0  0  0  0  0  0
  1  2  1  0  0  0  0
  1  7  1  0  0  0  0
  2  8  1  0  0  0  0
  3 11  1  0  0  0  0
  3  2  2  0  0  0  0
  4  3  1  0  0  0  0
  5  4  2  0  0  0  0
  5  6  1  0  0  0  0
  6  1  2  0  0  0  0
  9  4  1  0  0  0  0
 10  5  1  0  0  0  0
 11 12  1  0  0  0  0
 13 15  1  0  0  0  0
 13 16  1  0  0  0  0
 14 13  1  0  0  0  0
 17 13  1  0  0  0  0
 18  6  1  0  0  0  0
M  RAD  2  11   2  12   3
M  END
