Coordinates from ORCA-job Ph-N2-H-BF4-B3LYPG-6-31G_dp-scan-d09-49-n400
 OpenBabel08281821053D

 18 17  0  0  0  0  0  0  0  0999 V2000
   -1.1763    0.0642    0.5509 C   0  0  0  0  0  0  0  0  0  0  0  0
    0.1857    0.2133    0.3087 C   0  0  0  0  0  0  0  0  0  0  0  0
    0.5843    1.4094   -0.3071 C   0  0  0  0  0  0  0  0  0  0  0  0
   -0.2975    2.4391   -0.6806 C   0  0  0  0  0  0  0  0  0  0  0  0
   -1.6457    2.2551   -0.4103 C   0  0  0  0  0  0  0  0  0  0  0  0
   -2.0805    1.0718    0.2026 C   0  0  0  0  0  0  0  0  0  0  0  0
   -1.5299   -0.8449    1.0252 H   0  0  0  0  0  0  0  0  0  0  0  0
    0.9359   -0.5306    0.5674 H   0  0  0  0  0  0  0  0  0  0  0  0
    0.0740    3.3418   -1.1523 H   0  0  0  0  0  0  0  0  0  0  0  0
   -2.3568    3.0295   -0.6761 H   0  0  0  0  0  0  0  0  0  0  0  0
    1.9260    1.6011   -0.6037 N   0  0  0  0  0  0  0  0  0  0  0  0
    2.9801    1.7924   -0.9103 N   0  0  0  0  0  0  0  0  0  0  0  0
    3.4600   -0.1576    1.3659 B   0  0  0  0  0  0  0  0  0  0  0  0
    2.7346   -1.1712    0.6778 F   0  0  0  0  0  0  0  0  0  0  0  0
    4.3525    0.4391    0.4380 F   0  0  0  0  0  0  0  0  0  0  0  0
    2.5154    0.8434    1.7413 F   0  0  0  0  0  0  0  0  0  0  0  0
    4.1163   -0.6583    2.4575 F   0  0  0  0  0  0  0  0  0  0  0  0
   -3.1377    0.9382    0.4110 H   0  0  0  0  0  0  0  0  0  0  0  0
  1  7  1  0  0  0  0
  2  1  1  0  0  0  0
  2  8  1  0  0  0  0
  3  2  2  0  0  0  0
  4  5  2  0  0  0  0
  4  3  1  0  0  0  0
  5  6  1  0  0  0  0
  6 18  1  0  0  0  0
  6  1  2  0  0  0  0
  9  4  1  0  0  0  0
 10  5  1  0  0  0  0
 11  3  1  0  0  0  0
 12 11  1  0  0  0  0
 13 16  1  0  0  0  0
 13 17  1  0  0  0  0
 14 13  1  0  0  0  0
 15 13  1  0  0  0  0
M  RAD  2  11   2  12   3
M  END
