Coordinates from ORCA-job Ph-N2-H-BF4-B3LYPG-6-31G_dp-scan-d09-49-n400
 OpenBabel08281821063D

 18 17  0  0  0  0  0  0  0  0999 V2000
   -1.3700    0.6109    1.2447 C   0  0  0  0  0  0  0  0  0  0  0  0
   -0.0482    0.9853    1.4545 C   0  0  0  0  0  0  0  0  0  0  0  0
    0.6019    1.6340    0.3978 C   0  0  0  0  0  0  0  0  0  0  0  0
    0.0124    1.8966   -0.8451 C   0  0  0  0  0  0  0  0  0  0  0  0
   -1.3064    1.4994   -1.0216 C   0  0  0  0  0  0  0  0  0  0  0  0
   -1.9942    0.8651    0.0189 C   0  0  0  0  0  0  0  0  0  0  0  0
   -1.9086    0.1023    2.0368 H   0  0  0  0  0  0  0  0  0  0  0  0
    0.4818    0.7639    2.3709 H   0  0  0  0  0  0  0  0  0  0  0  0
    0.5848    2.3662   -1.6357 H   0  0  0  0  0  0  0  0  0  0  0  0
   -1.7939    1.6766   -1.9741 H   0  0  0  0  0  0  0  0  0  0  0  0
    1.9002    2.0879    0.5904 N   0  0  0  0  0  0  0  0  0  0  0  0
    2.9035    2.5477    0.7235 N   0  0  0  0  0  0  0  0  0  0  0  0
    3.3441   -0.3405    0.3464 B   0  0  0  0  0  0  0  0  0  0  0  0
    2.6035    0.0686   -0.7992 F   0  0  0  0  0  0  0  0  0  0  0  0
    4.3780    0.6022    0.5427 F   0  0  0  0  0  0  0  0  0  0  0  0
    2.4591   -0.2271    1.4700 F   0  0  0  0  0  0  0  0  0  0  0  0
    3.8160   -1.6188    0.2166 F   0  0  0  0  0  0  0  0  0  0  0  0
   -3.0234    0.5557   -0.1318 H   0  0  0  0  0  0  0  0  0  0  0  0
  1  2  1  0  0  0  0
  1  7  1  0  0  0  0
  2  8  1  0  0  0  0
  3 11  1  0  0  0  0
  3  2  2  0  0  0  0
  4  3  1  0  0  0  0
  5  4  2  0  0  0  0
  5  6  1  0  0  0  0
  6  1  2  0  0  0  0
  9  4  1  0  0  0  0
 10  5  1  0  0  0  0
 11 12  1  0  0  0  0
 13 15  1  0  0  0  0
 13 16  1  0  0  0  0
 14 13  1  0  0  0  0
 17 13  1  0  0  0  0
 18  6  1  0  0  0  0
M  RAD  2  11   2  12   3
M  END
