Coordinates from ORCA-job Ph-N2-H-BF4-B3LYPG-6-31G_dp-scan-d09-49-n400
 OpenBabel08281821053D

 18 17  0  0  0  0  0  0  0  0999 V2000
   -1.1186    0.0725    0.5443 C   0  0  0  0  0  0  0  0  0  0  0  0
    0.2415    0.2550    0.3070 C   0  0  0  0  0  0  0  0  0  0  0  0
    0.6016    1.4595   -0.3187 C   0  0  0  0  0  0  0  0  0  0  0  0
   -0.3064    2.4627   -0.7049 C   0  0  0  0  0  0  0  0  0  0  0  0
   -1.6490    2.2407   -0.4402 C   0  0  0  0  0  0  0  0  0  0  0  0
   -2.0503    1.0491    0.1817 C   0  0  0  0  0  0  0  0  0  0  0  0
   -1.4494   -0.8415    1.0260 H   0  0  0  0  0  0  0  0  0  0  0  0
    1.0243   -0.4699    0.5822 H   0  0  0  0  0  0  0  0  0  0  0  0
    0.0418    3.3714   -1.1829 H   0  0  0  0  0  0  0  0  0  0  0  0
   -2.3822    2.9905   -0.7162 H   0  0  0  0  0  0  0  0  0  0  0  0
    1.9388    1.6786   -0.6088 N   0  0  0  0  0  0  0  0  0  0  0  0
    3.0047    1.8490   -0.8849 N   0  0  0  0  0  0  0  0  0  0  0  0
    3.3989   -0.1954    1.3975 B   0  0  0  0  0  0  0  0  0  0  0  0
    2.5023   -1.2024    0.9107 F   0  0  0  0  0  0  0  0  0  0  0  0
    4.2225    0.2022    0.3147 F   0  0  0  0  0  0  0  0  0  0  0  0
    2.5950    0.9223    1.7543 F   0  0  0  0  0  0  0  0  0  0  0  0
    4.1293   -0.6541    2.4584 F   0  0  0  0  0  0  0  0  0  0  0  0
   -3.1043    0.8858    0.3856 H   0  0  0  0  0  0  0  0  0  0  0  0
  1  7  1  0  0  0  0
  2  1  1  0  0  0  0
  2  8  1  0  0  0  0
  3  2  2  0  0  0  0
  4  5  2  0  0  0  0
  4  3  1  0  0  0  0
  5  6  1  0  0  0  0
  6 18  1  0  0  0  0
  6  1  2  0  0  0  0
  9  4  1  0  0  0  0
 10  5  1  0  0  0  0
 11  3  1  0  0  0  0
 12 11  1  0  0  0  0
 13 16  1  0  0  0  0
 13 17  1  0  0  0  0
 14 13  1  0  0  0  0
 15 13  1  0  0  0  0
M  RAD  2  11   2  12   3
M  END
