Coordinates from ORCA-job Ph-N2-H-BF4-B3LYPG-6-31G_dp-scan-d09-49-n400
 OpenBabel08281821063D

 18 17  0  0  0  0  0  0  0  0999 V2000
   -1.3142    0.4654    1.1034 C   0  0  0  0  0  0  0  0  0  0  0  0
    0.0330    0.7883    1.2263 C   0  0  0  0  0  0  0  0  0  0  0  0
    0.5804    1.6015    0.2249 C   0  0  0  0  0  0  0  0  0  0  0  0
   -0.1481    2.0940   -0.8697 C   0  0  0  0  0  0  0  0  0  0  0  0
   -1.4870    1.7393   -0.9632 C   0  0  0  0  0  0  0  0  0  0  0  0
   -2.0668    0.9295    0.0203 C   0  0  0  0  0  0  0  0  0  0  0  0
   -1.7744   -0.1669    1.8552 H   0  0  0  0  0  0  0  0  0  0  0  0
    0.6611    0.4188    2.0265 H   0  0  0  0  0  0  0  0  0  0  0  0
    0.3325    2.7153   -1.6169 H   0  0  0  0  0  0  0  0  0  0  0  0
   -2.0760    2.0929   -1.8024 H   0  0  0  0  0  0  0  0  0  0  0  0
    1.9049    2.0156    0.3107 N   0  0  0  0  0  0  0  0  0  0  0  0
    2.9196    2.4708    0.3332 N   0  0  0  0  0  0  0  0  0  0  0  0
    3.4616   -0.3874    0.6391 B   0  0  0  0  0  0  0  0  0  0  0  0
    2.6251   -0.3099   -0.5051 F   0  0  0  0  0  0  0  0  0  0  0  0
    4.4550    0.6102    0.5108 F   0  0  0  0  0  0  0  0  0  0  0  0
    2.6554   -0.0178    1.7719 F   0  0  0  0  0  0  0  0  0  0  0  0
    3.9920   -1.6383    0.8036 F   0  0  0  0  0  0  0  0  0  0  0  0
   -3.1136    0.6546   -0.0626 H   0  0  0  0  0  0  0  0  0  0  0  0
  1  2  1  0  0  0  0
  1  7  1  0  0  0  0
  2  8  1  0  0  0  0
  3 11  1  0  0  0  0
  3  2  2  0  0  0  0
  4  3  1  0  0  0  0
  5  4  2  0  0  0  0
  5  6  1  0  0  0  0
  6  1  2  0  0  0  0
  9  4  1  0  0  0  0
 10  5  1  0  0  0  0
 11 12  1  0  0  0  0
 13 17  1  0  0  0  0
 13 16  1  0  0  0  0
 14 13  1  0  0  0  0
 15 13  1  0  0  0  0
 18  6  1  0  0  0  0
M  RAD  2  11   2  12   3
M  END
