Coordinates from ORCA-job Ph-N2-H-BF4-B3LYPG-6-31G_dp-scan-d09-49-n400
 OpenBabel08281821053D

 18 17  0  0  0  0  0  0  0  0999 V2000
   -1.0570    0.0896    0.5602 C   0  0  0  0  0  0  0  0  0  0  0  0
    0.3037    0.3031    0.3314 C   0  0  0  0  0  0  0  0  0  0  0  0
    0.6133    1.5092   -0.3211 C   0  0  0  0  0  0  0  0  0  0  0  0
   -0.3224    2.4762   -0.7409 C   0  0  0  0  0  0  0  0  0  0  0  0
   -1.6571    2.2133   -0.4836 C   0  0  0  0  0  0  0  0  0  0  0  0
   -2.0194    1.0217    0.1659 C   0  0  0  0  0  0  0  0  0  0  0  0
   -1.3650   -0.8216    1.0633 H   0  0  0  0  0  0  0  0  0  0  0  0
    1.1433   -0.4130    0.6524 H   0  0  0  0  0  0  0  0  0  0  0  0
   -0.0005    3.3846   -1.2381 H   0  0  0  0  0  0  0  0  0  0  0  0
   -2.4151    2.9283   -0.7840 H   0  0  0  0  0  0  0  0  0  0  0  0
    1.9450    1.7681   -0.5990 N   0  0  0  0  0  0  0  0  0  0  0  0
    3.0181    1.9454   -0.8380 N   0  0  0  0  0  0  0  0  0  0  0  0
    3.3511   -0.2279    1.4045 B   0  0  0  0  0  0  0  0  0  0  0  0
    2.2593   -1.1392    1.0558 F   0  0  0  0  0  0  0  0  0  0  0  0
    4.0779    0.0055    0.2234 F   0  0  0  0  0  0  0  0  0  0  0  0
    2.7254    0.9775    1.7889 F   0  0  0  0  0  0  0  0  0  0  0  0
    4.1091   -0.7707    2.3996 F   0  0  0  0  0  0  0  0  0  0  0  0
   -3.0692    0.8261    0.3651 H   0  0  0  0  0  0  0  0  0  0  0  0
  1  7  1  0  0  0  0
  2  1  1  0  0  0  0
  2  8  1  0  0  0  0
  3  2  2  0  0  0  0
  4  5  2  0  0  0  0
  4  3  1  0  0  0  0
  5  6  1  0  0  0  0
  6 18  1  0  0  0  0
  6  1  2  0  0  0  0
  9  4  1  0  0  0  0
 10  5  1  0  0  0  0
 11  3  1  0  0  0  0
 12 11  1  0  0  0  0
 13 16  1  0  0  0  0
 13 17  1  0  0  0  0
 14 13  1  0  0  0  0
 15 13  1  0  0  0  0
M  RAD  2  11   2  12   3
M  END
