Coordinates from ORCA-job Ph-N2-H-BF4-B3LYPG-6-31G_dp-scan-d09-49-n400
 OpenBabel08281821063D

 18 17  0  0  0  0  0  0  0  0999 V2000
   -1.5333    0.8408    1.3589 C   0  0  0  0  0  0  0  0  0  0  0  0
   -0.2260    1.2075    1.6492 C   0  0  0  0  0  0  0  0  0  0  0  0
    0.5882    1.5863    0.5758 C   0  0  0  0  0  0  0  0  0  0  0  0
    0.1764    1.5898   -0.7614 C   0  0  0  0  0  0  0  0  0  0  0  0
   -1.1411    1.2265   -1.0139 C   0  0  0  0  0  0  0  0  0  0  0  0
   -1.9894    0.8581    0.0354 C   0  0  0  0  0  0  0  0  0  0  0  0
   -2.1925    0.5311    2.1622 H   0  0  0  0  0  0  0  0  0  0  0  0
    0.1750    1.1782    2.6542 H   0  0  0  0  0  0  0  0  0  0  0  0
    0.8877    1.8167   -1.5428 H   0  0  0  0  0  0  0  0  0  0  0  0
   -1.5001    1.2119   -2.0373 H   0  0  0  0  0  0  0  0  0  0  0  0
    1.8754    2.0123    0.8774 N   0  0  0  0  0  0  0  0  0  0  0  0
    2.8621    2.4401    1.1580 N   0  0  0  0  0  0  0  0  0  0  0  0
    3.3601   -0.2355    0.0057 B   0  0  0  0  0  0  0  0  0  0  0  0
    2.6996    0.5154   -1.0225 F   0  0  0  0  0  0  0  0  0  0  0  0
    4.3760    0.5900    0.5312 F   0  0  0  0  0  0  0  0  0  0  0  0
    2.3939   -0.4368    1.0352 F   0  0  0  0  0  0  0  0  0  0  0  0
    3.8404   -1.4223   -0.4781 F   0  0  0  0  0  0  0  0  0  0  0  0
   -3.0119    0.5661   -0.1811 H   0  0  0  0  0  0  0  0  0  0  0  0
  1  2  1  0  0  0  0
  1  7  1  0  0  0  0
  2  8  1  0  0  0  0
  3 11  1  0  0  0  0
  3  2  2  0  0  0  0
  4  3  1  0  0  0  0
  5  4  2  0  0  0  0
  5  6  1  0  0  0  0
  6  1  2  0  0  0  0
  9  4  1  0  0  0  0
 10  5  1  0  0  0  0
 11 12  1  0  0  0  0
 13 15  1  0  0  0  0
 13 16  1  0  0  0  0
 14 13  1  0  0  0  0
 17 13  1  0  0  0  0
 18  6  1  0  0  0  0
M  RAD  2  11   2  12   3
M  END
