Coordinates from ORCA-job Ph-N2-H-BF4-B3LYPG-6-31G_dp-scan-d09-49-n400
 OpenBabel08281821063D

 18 17  0  0  0  0  0  0  0  0999 V2000
   -1.6357    1.0147    1.3959 C   0  0  0  0  0  0  0  0  0  0  0  0
   -0.3199    1.3375    1.6972 C   0  0  0  0  0  0  0  0  0  0  0  0
    0.5687    1.5125    0.6302 C   0  0  0  0  0  0  0  0  0  0  0  0
    0.2157    1.3694   -0.7159 C   0  0  0  0  0  0  0  0  0  0  0  0
   -1.1135    1.0607   -0.9825 C   0  0  0  0  0  0  0  0  0  0  0  0
   -2.0308    0.8860    0.0591 C   0  0  0  0  0  0  0  0  0  0  0  0
   -2.3477    0.8579    2.1987 H   0  0  0  0  0  0  0  0  0  0  0  0
    0.0493    1.4272    2.7094 H   0  0  0  0  0  0  0  0  0  0  0  0
    0.9811    1.4467   -1.4753 H   0  0  0  0  0  0  0  0  0  0  0  0
   -1.4297    0.9353   -2.0124 H   0  0  0  0  0  0  0  0  0  0  0  0
    1.8585    1.8875    0.9908 N   0  0  0  0  0  0  0  0  0  0  0  0
    2.8178    2.2670    1.4049 N   0  0  0  0  0  0  0  0  0  0  0  0
    3.4468   -0.1523   -0.1528 B   0  0  0  0  0  0  0  0  0  0  0  0
    2.8907    0.8633   -1.0166 F   0  0  0  0  0  0  0  0  0  0  0  0
    4.3999    0.4902    0.6576 F   0  0  0  0  0  0  0  0  0  0  0  0
    2.3773   -0.5808    0.6765 F   0  0  0  0  0  0  0  0  0  0  0  0
    3.9728   -1.1792   -0.8873 F   0  0  0  0  0  0  0  0  0  0  0  0
   -3.0608    0.6326   -0.1714 H   0  0  0  0  0  0  0  0  0  0  0  0
  1  2  1  0  0  0  0
  1  7  1  0  0  0  0
  2  8  1  0  0  0  0
  3 11  1  0  0  0  0
  3  2  2  0  0  0  0
  4  3  1  0  0  0  0
  5  4  2  0  0  0  0
  5  6  1  0  0  0  0
  6  1  2  0  0  0  0
  9  4  1  0  0  0  0
 10  5  1  0  0  0  0
 11 12  1  0  0  0  0
 13 15  1  0  0  0  0
 13 16  1  0  0  0  0
 14 13  1  0  0  0  0
 17 13  1  0  0  0  0
 18  6  1  0  0  0  0
M  RAD  2  11   2  12   3
M  END
