Coordinates from ORCA-job Ph-N2-H-BF4-B3LYPG-6-31G_dp-scan-d09-49-n400
 OpenBabel08281821063D

 18 17  0  0  0  0  0  0  0  0999 V2000
   -1.3422    0.5569    1.1980 C   0  0  0  0  0  0  0  0  0  0  0  0
   -0.0093    0.9129    1.3675 C   0  0  0  0  0  0  0  0  0  0  0  0
    0.5942    1.6240    0.3227 C   0  0  0  0  0  0  0  0  0  0  0  0
   -0.0592    1.9774   -0.8663 C   0  0  0  0  0  0  0  0  0  0  0  0
   -1.3860    1.5919   -1.0052 C   0  0  0  0  0  0  0  0  0  0  0  0
   -2.0244    0.8895    0.0234 C   0  0  0  0  0  0  0  0  0  0  0  0
   -1.8444    0.0017    1.9828 H   0  0  0  0  0  0  0  0  0  0  0  0
    0.5676    0.6325    2.2376 H   0  0  0  0  0  0  0  0  0  0  0  0
    0.4691    2.5104   -1.6480 H   0  0  0  0  0  0  0  0  0  0  0  0
   -1.9200    1.8358   -1.9171 H   0  0  0  0  0  0  0  0  0  0  0  0
    1.9017    2.0685    0.4755 N   0  0  0  0  0  0  0  0  0  0  0  0
    2.9105    2.5275    0.5649 N   0  0  0  0  0  0  0  0  0  0  0  0
    3.3934   -0.3672    0.4651 B   0  0  0  0  0  0  0  0  0  0  0  0
    2.6466   -0.0541   -0.7039 F   0  0  0  0  0  0  0  0  0  0  0  0
    4.4121    0.6039    0.5947 F   0  0  0  0  0  0  0  0  0  0  0  0
    2.5067   -0.1837    1.5794 F   0  0  0  0  0  0  0  0  0  0  0  0
    3.8852   -1.6436    0.4312 F   0  0  0  0  0  0  0  0  0  0  0  0
   -3.0611    0.5918   -0.0963 H   0  0  0  0  0  0  0  0  0  0  0  0
  1  2  1  0  0  0  0
  1  7  1  0  0  0  0
  2  8  1  0  0  0  0
  3 11  1  0  0  0  0
  3  2  2  0  0  0  0
  4  3  1  0  0  0  0
  5  4  2  0  0  0  0
  5  6  1  0  0  0  0
  6  1  2  0  0  0  0
  9  4  1  0  0  0  0
 10  5  1  0  0  0  0
 11 12  1  0  0  0  0
 13 15  1  0  0  0  0
 13 16  1  0  0  0  0
 14 13  1  0  0  0  0
 17 13  1  0  0  0  0
 18  6  1  0  0  0  0
M  RAD  2  11   2  12   3
M  END
