Coordinates from ORCA-job Ph-N2-H-BF4-B3LYPG-6-31G_dp-scan-d09-49-n400
 OpenBabel08281821053D

 18 16  0  0  0  0  0  0  0  0999 V2000
   -0.9617    0.1240    0.4986 C   0  0  0  0  0  0  0  0  0  0  0  0
    0.3822    0.4134    0.1701 C   0  0  0  0  0  0  0  0  0  0  0  0
    0.4926    1.6786   -0.4412 C   0  0  0  0  0  0  0  0  0  0  0  0
   -0.5327    2.6152   -0.7331 C   0  0  0  0  0  0  0  0  0  0  0  0
   -1.8111    2.2459   -0.3734 C   0  0  0  0  0  0  0  0  0  0  0  0
   -2.0196    0.9942    0.2443 C   0  0  0  0  0  0  0  0  0  0  0  0
   -1.1834   -0.8264    0.9795 H   0  0  0  0  0  0  0  0  0  0  0  0
    1.5879   -0.5464    0.4909 H   0  0  0  0  0  0  0  0  0  0  0  0
   -0.3167    3.5665   -1.2091 H   0  0  0  0  0  0  0  0  0  0  0  0
   -2.6453    2.9125   -0.5642 H   0  0  0  0  0  0  0  0  0  0  0  0
    1.7725    2.0563   -0.8116 N   0  0  0  0  0  0  0  0  0  0  0  0
    2.8116    2.3372   -1.1045 N   0  0  0  0  0  0  0  0  0  0  0  0
    3.5498   -0.3756    1.5625 B   0  0  0  0  0  0  0  0  0  0  0  0
    2.3029   -1.1215    0.6955 F   0  0  0  0  0  0  0  0  0  0  0  0
    4.6161   -1.1065    1.1848 F   0  0  0  0  0  0  0  0  0  0  0  0
    3.4908    0.8952    1.0512 F   0  0  0  0  0  0  0  0  0  0  0  0
    3.1359   -0.4985    2.8400 F   0  0  0  0  0  0  0  0  0  0  0  0
   -3.0312    0.7119    0.5257 H   0  0  0  0  0  0  0  0  0  0  0  0
  1  7  1  0  0  0  0
  2  1  2  0  0  0  0
  3  2  1  0  0  0  0
  4  3  2  0  0  0  0
  4  5  1  0  0  0  0
  5  6  2  0  0  0  0
  6  1  1  0  0  0  0
  6 18  1  0  0  0  0
  8 14  1  0  0  0  0
  9  4  1  0  0  0  0
 10  5  1  0  0  0  0
 11  3  1  0  0  0  0
 12 11  1  0  0  0  0
 13 17  1  0  0  0  0
 15 13  1  0  0  0  0
 16 13  1  0  0  0  0
M  RAD  3   2   2  11   2  12   3
M  END
