Coordinates from ORCA-job Ph-N2-H-BF4-B3LYPG-6-31G_dp-scan-d09-49-n400
 OpenBabel08281821063D

 18 17  0  0  0  0  0  0  0  0999 V2000
   -1.3267    0.4919    1.1333 C   0  0  0  0  0  0  0  0  0  0  0  0
    0.0154    0.8262    1.2782 C   0  0  0  0  0  0  0  0  0  0  0  0
    0.5841    1.6075    0.2635 C   0  0  0  0  0  0  0  0  0  0  0  0
   -0.1187    2.0592   -0.8643 C   0  0  0  0  0  0  0  0  0  0  0  0
   -1.4534    1.6949   -0.9786 C   0  0  0  0  0  0  0  0  0  0  0  0
   -2.0540    0.9154    0.0167 C   0  0  0  0  0  0  0  0  0  0  0  0
   -1.8025   -0.1177    1.8940 H   0  0  0  0  0  0  0  0  0  0  0  0
    0.6221    0.4846    2.1061 H   0  0  0  0  0  0  0  0  0  0  0  0
    0.3787    2.6557   -1.6206 H   0  0  0  0  0  0  0  0  0  0  0  0
   -2.0226    2.0166   -1.8438 H   0  0  0  0  0  0  0  0  0  0  0  0
    1.9036    2.0318    0.3710 N   0  0  0  0  0  0  0  0  0  0  0  0
    2.9150    2.4924    0.4127 N   0  0  0  0  0  0  0  0  0  0  0  0
    3.4431   -0.3817    0.5776 B   0  0  0  0  0  0  0  0  0  0  0  0
    2.6251   -0.2513   -0.5746 F   0  0  0  0  0  0  0  0  0  0  0  0
    4.4478    0.6095    0.5032 F   0  0  0  0  0  0  0  0  0  0  0  0
    2.6224   -0.0474    1.7116 F   0  0  0  0  0  0  0  0  0  0  0  0
    3.9579   -1.6436    0.7029 F   0  0  0  0  0  0  0  0  0  0  0  0
   -3.0969    0.6320   -0.0831 H   0  0  0  0  0  0  0  0  0  0  0  0
  1  2  1  0  0  0  0
  1  7  1  0  0  0  0
  2  8  1  0  0  0  0
  3 11  1  0  0  0  0
  3  2  2  0  0  0  0
  4  3  1  0  0  0  0
  5  4  2  0  0  0  0
  5  6  1  0  0  0  0
  6  1  2  0  0  0  0
  9  4  1  0  0  0  0
 10  5  1  0  0  0  0
 11 12  1  0  0  0  0
 13 17  1  0  0  0  0
 13 16  1  0  0  0  0
 14 13  1  0  0  0  0
 15 13  1  0  0  0  0
 18  6  1  0  0  0  0
M  RAD  2  11   2  12   3
M  END
