Coordinates from ORCA-job Ph-N2-H-BF4-B3LYPG-6-31G_dp-scan-d09-49-n400
 OpenBabel08281821063D

 18 17  0  0  0  0  0  0  0  0999 V2000
   -1.2977    0.4353    1.0681 C   0  0  0  0  0  0  0  0  0  0  0  0
    0.0554    0.7435    1.1606 C   0  0  0  0  0  0  0  0  0  0  0  0
    0.5772    1.5929    0.1760 C   0  0  0  0  0  0  0  0  0  0  0  0
   -0.1810    2.1314   -0.8768 C   0  0  0  0  0  0  0  0  0  0  0  0
   -1.5246    1.7887   -0.9422 C   0  0  0  0  0  0  0  0  0  0  0  0
   -2.0801    0.9461    0.0281 C   0  0  0  0  0  0  0  0  0  0  0  0
   -1.7393   -0.2221    1.8096 H   0  0  0  0  0  0  0  0  0  0  0  0
    0.7093    0.3420    1.9253 H   0  0  0  0  0  0  0  0  0  0  0  0
    0.2801    2.7795   -1.6137 H   0  0  0  0  0  0  0  0  0  0  0  0
   -2.1368    2.1776   -1.7486 H   0  0  0  0  0  0  0  0  0  0  0  0
    1.9067    1.9953    0.2365 N   0  0  0  0  0  0  0  0  0  0  0  0
    2.9249    2.4441    0.2366 N   0  0  0  0  0  0  0  0  0  0  0  0
    3.4795   -0.3909    0.7126 B   0  0  0  0  0  0  0  0  0  0  0  0
    2.6296   -0.3614   -0.4250 F   0  0  0  0  0  0  0  0  0  0  0  0
    4.4631    0.6094    0.5370 F   0  0  0  0  0  0  0  0  0  0  0  0
    2.6834    0.0130    1.8393 F   0  0  0  0  0  0  0  0  0  0  0  0
    4.0220   -1.6310    0.9144 F   0  0  0  0  0  0  0  0  0  0  0  0
   -3.1314    0.6825   -0.0318 H   0  0  0  0  0  0  0  0  0  0  0  0
  1  2  1  0  0  0  0
  1  7  1  0  0  0  0
  2  8  1  0  0  0  0
  3 11  1  0  0  0  0
  3  2  2  0  0  0  0
  4  3  1  0  0  0  0
  5  4  2  0  0  0  0
  5  6  1  0  0  0  0
  6  1  2  0  0  0  0
  9  4  1  0  0  0  0
 10  5  1  0  0  0  0
 11 12  1  0  0  0  0
 13 17  1  0  0  0  0
 13 16  1  0  0  0  0
 14 13  1  0  0  0  0
 15 13  1  0  0  0  0
 18  6  1  0  0  0  0
M  RAD  2  11   2  12   3
M  END
