Coordinates from ORCA-job Ph-N2-H-BF4-B3LYPG-6-31G_dp-scan-d09-49-n400
 OpenBabel08281821053D

 18 17  0  0  0  0  0  0  0  0999 V2000
   -1.2146    0.3188    0.9320 C   0  0  0  0  0  0  0  0  0  0  0  0
    0.1430    0.6220    0.9513 C   0  0  0  0  0  0  0  0  0  0  0  0
    0.5814    1.5943    0.0414 C   0  0  0  0  0  0  0  0  0  0  0  0
   -0.2608    2.2654   -0.8627 C   0  0  0  0  0  0  0  0  0  0  0  0
   -1.6063    1.9268   -0.8563 C   0  0  0  0  0  0  0  0  0  0  0  0
   -2.0786    0.9560    0.0367 C   0  0  0  0  0  0  0  0  0  0  0  0
   -1.5965   -0.4312    1.6165 H   0  0  0  0  0  0  0  0  0  0  0  0
    0.8643    0.1597    1.6176 H   0  0  0  0  0  0  0  0  0  0  0  0
    0.1390    3.0097   -1.5426 H   0  0  0  0  0  0  0  0  0  0  0  0
   -2.2853    2.4169   -1.5455 H   0  0  0  0  0  0  0  0  0  0  0  0
    1.9210    1.9586    0.0172 N   0  0  0  0  0  0  0  0  0  0  0  0
    2.9617    2.3474   -0.0606 N   0  0  0  0  0  0  0  0  0  0  0  0
    3.4674   -0.3901    0.9323 B   0  0  0  0  0  0  0  0  0  0  0  0
    2.5147   -0.5441   -0.1147 F   0  0  0  0  0  0  0  0  0  0  0  0
    4.4273    0.5514    0.4947 F   0  0  0  0  0  0  0  0  0  0  0  0
    2.7652    0.2046    2.0303 F   0  0  0  0  0  0  0  0  0  0  0  0
    4.0303   -1.5853    1.2874 F   0  0  0  0  0  0  0  0  0  0  0  0
   -3.1325    0.6951    0.0308 H   0  0  0  0  0  0  0  0  0  0  0  0
  1  2  1  0  0  0  0
  1  7  1  0  0  0  0
  2  8  1  0  0  0  0
  3  2  2  0  0  0  0
  4  5  2  0  0  0  0
  4  3  1  0  0  0  0
  5  6  1  0  0  0  0
  6  1  2  0  0  0  0
  9  4  1  0  0  0  0
 10  5  1  0  0  0  0
 11  3  1  0  0  0  0
 12 11  1  0  0  0  0
 13 17  1  0  0  0  0
 13 16  1  0  0  0  0
 14 13  1  0  0  0  0
 15 13  1  0  0  0  0
 18  6  1  0  0  0  0
M  RAD  2  11   2  12   3
M  END
