Coordinates from ORCA-job Ph-N2-H-BF4-B3LYPG-6-31G_dp-scan-d09-49-n400
 OpenBabel08281821063D

 18 17  0  0  0  0  0  0  0  0999 V2000
   -1.2919    0.4290    1.0607 C   0  0  0  0  0  0  0  0  0  0  0  0
    0.0617    0.7369    1.1473 C   0  0  0  0  0  0  0  0  0  0  0  0
    0.5771    1.5941    0.1658 C   0  0  0  0  0  0  0  0  0  0  0  0
   -0.1873    2.1400   -0.8786 C   0  0  0  0  0  0  0  0  0  0  0  0
   -1.5312    1.7972   -0.9383 C   0  0  0  0  0  0  0  0  0  0  0  0
   -2.0805    0.9473    0.0292 C   0  0  0  0  0  0  0  0  0  0  0  0
   -1.7289   -0.2337    1.8000 H   0  0  0  0  0  0  0  0  0  0  0  0
    0.7212    0.3315    1.9056 H   0  0  0  0  0  0  0  0  0  0  0  0
    0.2690    2.7938   -1.6135 H   0  0  0  0  0  0  0  0  0  0  0  0
   -2.1485    2.1918   -1.7380 H   0  0  0  0  0  0  0  0  0  0  0  0
    1.9074    1.9946    0.2216 N   0  0  0  0  0  0  0  0  0  0  0  0
    2.9272    2.4399    0.2186 N   0  0  0  0  0  0  0  0  0  0  0  0
    3.4794   -0.3927    0.7278 B   0  0  0  0  0  0  0  0  0  0  0  0
    2.6240   -0.3701   -0.4064 F   0  0  0  0  0  0  0  0  0  0  0  0
    4.4608    0.6080    0.5421 F   0  0  0  0  0  0  0  0  0  0  0  0
    2.6881    0.0154    1.8561 F   0  0  0  0  0  0  0  0  0  0  0  0
    4.0249   -1.6311    0.9321 F   0  0  0  0  0  0  0  0  0  0  0  0
   -3.1322    0.6841   -0.0262 H   0  0  0  0  0  0  0  0  0  0  0  0
  1  2  1  0  0  0  0
  1  7  1  0  0  0  0
  2  8  1  0  0  0  0
  3 11  1  0  0  0  0
  3  2  2  0  0  0  0
  4  3  1  0  0  0  0
  5  4  2  0  0  0  0
  5  6  1  0  0  0  0
  6  1  2  0  0  0  0
  9  4  1  0  0  0  0
 10  5  1  0  0  0  0
 12 11  1  0  0  0  0
 13 17  1  0  0  0  0
 13 16  1  0  0  0  0
 14 13  1  0  0  0  0
 15 13  1  0  0  0  0
 18  6  1  0  0  0  0
M  RAD  2  11   2  12   3
M  END
