Coordinates from ORCA-job Ph-N2-H-BF4-B3LYPG-6-31G_dp-scan-d09-49-n400
 OpenBabel08281821063D

 18 17  0  0  0  0  0  0  0  0999 V2000
   -1.2592    0.3901    1.0112 C   0  0  0  0  0  0  0  0  0  0  0  0
    0.0985    0.6891    1.0569 C   0  0  0  0  0  0  0  0  0  0  0  0
    0.5762    1.5931    0.0981 C   0  0  0  0  0  0  0  0  0  0  0  0
   -0.2278    2.1923   -0.8866 C   0  0  0  0  0  0  0  0  0  0  0  0
   -1.5743    1.8562   -0.9074 C   0  0  0  0  0  0  0  0  0  0  0  0
   -2.0868    0.9609    0.0399 C   0  0  0  0  0  0  0  0  0  0  0  0
   -1.6691   -0.3059    1.7353 H   0  0  0  0  0  0  0  0  0  0  0  0
    0.7898    0.2545    1.7719 H   0  0  0  0  0  0  0  0  0  0  0  0
    0.2006    2.8814   -1.6060 H   0  0  0  0  0  0  0  0  0  0  0  0
   -2.2230    2.2913   -1.6598 H   0  0  0  0  0  0  0  0  0  0  0  0
    1.9111    1.9791    0.1174 N   0  0  0  0  0  0  0  0  0  0  0  0
    2.9410    2.4003    0.0829 N   0  0  0  0  0  0  0  0  0  0  0  0
    3.4850   -0.3999    0.8275 B   0  0  0  0  0  0  0  0  0  0  0  0
    2.6087   -0.4300   -0.2919 F   0  0  0  0  0  0  0  0  0  0  0  0
    4.4455    0.6113    0.5891 F   0  0  0  0  0  0  0  0  0  0  0  0
    2.7069    0.0286    1.9541 F   0  0  0  0  0  0  0  0  0  0  0  0
    4.0587   -1.6208    1.0574 F   0  0  0  0  0  0  0  0  0  0  0  0
   -3.1415    0.7045    0.0158 H   0  0  0  0  0  0  0  0  0  0  0  0
  1  2  1  0  0  0  0
  1  7  1  0  0  0  0
  2  8  1  0  0  0  0
  3 11  1  0  0  0  0
  3  2  2  0  0  0  0
  4  3  1  0  0  0  0
  5  4  2  0  0  0  0
  5  6  1  0  0  0  0
  6  1  2  0  0  0  0
  9  4  1  0  0  0  0
 10  5  1  0  0  0  0
 12 11  1  0  0  0  0
 13 17  1  0  0  0  0
 13 16  1  0  0  0  0
 14 13  1  0  0  0  0
 15 13  1  0  0  0  0
 18  6  1  0  0  0  0
M  RAD  2  11   2  12   3
M  END
