Coordinates from ORCA-job Ph-N2-H-BF4-B3LYPG-6-31G_dp-scan-d09-49-n400
 OpenBabel08281821063D

 18 17  0  0  0  0  0  0  0  0999 V2000
   -1.3884    0.6424    1.2676 C   0  0  0  0  0  0  0  0  0  0  0  0
   -0.0726    1.0248    1.4973 C   0  0  0  0  0  0  0  0  0  0  0  0
    0.6042    1.6388    0.4370 C   0  0  0  0  0  0  0  0  0  0  0  0
    0.0529    1.8486   -0.8324 C   0  0  0  0  0  0  0  0  0  0  0  0
   -1.2624    1.4481   -1.0276 C   0  0  0  0  0  0  0  0  0  0  0  0
   -1.9796    0.8550    0.0174 C   0  0  0  0  0  0  0  0  0  0  0  0
   -1.9477    0.1597    2.0615 H   0  0  0  0  0  0  0  0  0  0  0  0
    0.4367    0.8307    2.4318 H   0  0  0  0  0  0  0  0  0  0  0  0
    0.6520    2.2780   -1.6253 H   0  0  0  0  0  0  0  0  0  0  0  0
   -1.7234    1.5868   -1.9995 H   0  0  0  0  0  0  0  0  0  0  0  0
    1.8979    2.0946    0.6531 N   0  0  0  0  0  0  0  0  0  0  0  0
    2.8990    2.5511    0.8111 N   0  0  0  0  0  0  0  0  0  0  0  0
    3.3195   -0.3221    0.2834 B   0  0  0  0  0  0  0  0  0  0  0  0
    2.5738    0.1428   -0.8395 F   0  0  0  0  0  0  0  0  0  0  0  0
    4.3636    0.6013    0.5088 F   0  0  0  0  0  0  0  0  0  0  0  0
    2.4433   -0.2480    1.4166 F   0  0  0  0  0  0  0  0  0  0  0  0
    3.7769   -1.5981    0.0943 F   0  0  0  0  0  0  0  0  0  0  0  0
   -3.0050    0.5417   -0.1496 H   0  0  0  0  0  0  0  0  0  0  0  0
  1  2  1  0  0  0  0
  1  7  1  0  0  0  0
  2  8  1  0  0  0  0
  3 11  1  0  0  0  0
  3  2  2  0  0  0  0
  4  3  1  0  0  0  0
  5  4  2  0  0  0  0
  5  6  1  0  0  0  0
  6  1  2  0  0  0  0
  9  4  1  0  0  0  0
 10  5  1  0  0  0  0
 11 12  1  0  0  0  0
 13 15  1  0  0  0  0
 13 16  1  0  0  0  0
 14 13  1  0  0  0  0
 17 13  1  0  0  0  0
 18  6  1  0  0  0  0
M  RAD  2  11   2  12   3
M  END
