Coordinates from ORCA-job Ph-N2-H-BF4-B3LYPG-6-31G_dp-scan-d09-49-n400
 OpenBabel08281821063D

 18 17  0  0  0  0  0  0  0  0999 V2000
   -1.4313    0.7164    1.3117 C   0  0  0  0  0  0  0  0  0  0  0  0
   -0.1240    1.1097    1.5666 C   0  0  0  0  0  0  0  0  0  0  0  0
    0.6038    1.6388    0.4949 C   0  0  0  0  0  0  0  0  0  0  0  0
    0.1151    1.7470   -0.8115 C   0  0  0  0  0  0  0  0  0  0  0  0
   -1.1961    1.3443   -1.0307 C   0  0  0  0  0  0  0  0  0  0  0  0
   -1.9649    0.8390    0.0237 C   0  0  0  0  0  0  0  0  0  0  0  0
   -2.0274    0.2956    2.1138 H   0  0  0  0  0  0  0  0  0  0  0  0
    0.3464    0.9820    2.5328 H   0  0  0  0  0  0  0  0  0  0  0  0
    0.7618    2.0907   -1.6076 H   0  0  0  0  0  0  0  0  0  0  0  0
   -1.6119    1.4059   -2.0305 H   0  0  0  0  0  0  0  0  0  0  0  0
    1.8928    2.0893    0.7485 N   0  0  0  0  0  0  0  0  0  0  0  0
    2.8850    2.5348    0.9766 N   0  0  0  0  0  0  0  0  0  0  0  0
    3.2998   -0.2853    0.1682 B   0  0  0  0  0  0  0  0  0  0  0  0
    2.6043    0.3457   -0.9126 F   0  0  0  0  0  0  0  0  0  0  0  0
    4.3643    0.5649    0.5305 F   0  0  0  0  0  0  0  0  0  0  0  0
    2.3902   -0.3194    1.2713 F   0  0  0  0  0  0  0  0  0  0  0  0
    3.7175   -1.5426   -0.1753 F   0  0  0  0  0  0  0  0  0  0  0  0
   -2.9846    0.5192   -0.1648 H   0  0  0  0  0  0  0  0  0  0  0  0
  1  2  1  0  0  0  0
  1  7  1  0  0  0  0
  2  8  1  0  0  0  0
  3 11  1  0  0  0  0
  3  2  2  0  0  0  0
  4  3  1  0  0  0  0
  5  4  2  0  0  0  0
  5  6  1  0  0  0  0
  6  1  2  0  0  0  0
  9  4  1  0  0  0  0
 10  5  1  0  0  0  0
 11 12  1  0  0  0  0
 13 15  1  0  0  0  0
 13 16  1  0  0  0  0
 14 13  1  0  0  0  0
 17 13  1  0  0  0  0
 18  6  1  0  0  0  0
M  RAD  2  11   2  12   3
M  END
