Coordinates from ORCA-job Ph-N2-H-BF4-B3LYPG-6-31G_dp-scan-d09-49-n400
 OpenBabel08281821053D

 18 17  0  0  0  0  0  0  0  0999 V2000
   -1.0580    0.0887    0.5594 C   0  0  0  0  0  0  0  0  0  0  0  0
    0.3026    0.3010    0.3291 C   0  0  0  0  0  0  0  0  0  0  0  0
    0.6137    1.5072   -0.3225 C   0  0  0  0  0  0  0  0  0  0  0  0
   -0.3212    2.4757   -0.7402 C   0  0  0  0  0  0  0  0  0  0  0  0
   -1.6560    2.2144   -0.4815 C   0  0  0  0  0  0  0  0  0  0  0  0
   -2.0194    1.0227    0.1671 C   0  0  0  0  0  0  0  0  0  0  0  0
   -1.3663   -0.8226    1.0619 H   0  0  0  0  0  0  0  0  0  0  0  0
    1.1398   -0.4147    0.6471 H   0  0  0  0  0  0  0  0  0  0  0  0
    0.0014    3.3842   -1.2368 H   0  0  0  0  0  0  0  0  0  0  0  0
   -2.4133    2.9308   -0.7803 H   0  0  0  0  0  0  0  0  0  0  0  0
    1.9456    1.7642   -0.6013 N   0  0  0  0  0  0  0  0  0  0  0  0
    3.0185    1.9405   -0.8418 N   0  0  0  0  0  0  0  0  0  0  0  0
    3.3502   -0.2264    1.4057 B   0  0  0  0  0  0  0  0  0  0  0  0
    2.2668   -1.1430    1.0509 F   0  0  0  0  0  0  0  0  0  0  0  0
    4.0833    0.0125    0.2293 F   0  0  0  0  0  0  0  0  0  0  0  0
    2.7158    0.9763    1.7868 F   0  0  0  0  0  0  0  0  0  0  0  0
    4.1062   -0.7637    2.4055 F   0  0  0  0  0  0  0  0  0  0  0  0
   -3.0692    0.8285    0.3674 H   0  0  0  0  0  0  0  0  0  0  0  0
  1  7  1  0  0  0  0
  2  1  1  0  0  0  0
  2  8  1  0  0  0  0
  3  2  2  0  0  0  0
  4  5  2  0  0  0  0
  4  3  1  0  0  0  0
  5  6  1  0  0  0  0
  6 18  1  0  0  0  0
  6  1  2  0  0  0  0
  9  4  1  0  0  0  0
 10  5  1  0  0  0  0
 11  3  1  0  0  0  0
 12 11  1  0  0  0  0
 13 16  1  0  0  0  0
 13 17  1  0  0  0  0
 14 13  1  0  0  0  0
 15 13  1  0  0  0  0
M  RAD  2  11   2  12   3
M  END
