Coordinates from ORCA-job Ph-N2-H-BF4-B3LYPG-6-31G_dp-scan-d09-49-n400
 OpenBabel08281821063D

 18 17  0  0  0  0  0  0  0  0999 V2000
   -1.2724    0.4044    1.0297 C   0  0  0  0  0  0  0  0  0  0  0  0
    0.0843    0.7053    1.0901 C   0  0  0  0  0  0  0  0  0  0  0  0
    0.5761    1.5922    0.1228 C   0  0  0  0  0  0  0  0  0  0  0  0
   -0.2135    2.1727   -0.8842 C   0  0  0  0  0  0  0  0  0  0  0  0
   -1.5596    1.8353   -0.9191 C   0  0  0  0  0  0  0  0  0  0  0  0
   -2.0859    0.9570    0.0362 C   0  0  0  0  0  0  0  0  0  0  0  0
   -1.6924   -0.2794    1.7597 H   0  0  0  0  0  0  0  0  0  0  0  0
    0.7641    0.2800    1.8205 H   0  0  0  0  0  0  0  0  0  0  0  0
    0.2252    2.8489   -1.6096 H   0  0  0  0  0  0  0  0  0  0  0  0
   -2.1968    2.2563   -1.6891 H   0  0  0  0  0  0  0  0  0  0  0  0
    1.9096    1.9835    0.1557 N   0  0  0  0  0  0  0  0  0  0  0  0
    2.9353    2.4153    0.1338 N   0  0  0  0  0  0  0  0  0  0  0  0
    3.4853   -0.3971    0.7909 B   0  0  0  0  0  0  0  0  0  0  0  0
    2.6177   -0.4085   -0.3350 F   0  0  0  0  0  0  0  0  0  0  0  0
    4.4545    0.6096    0.5720 F   0  0  0  0  0  0  0  0  0  0  0  0
    2.7016    0.0261    1.9171 F   0  0  0  0  0  0  0  0  0  0  0  0
    4.0473   -1.6248    1.0137 F   0  0  0  0  0  0  0  0  0  0  0  0
   -3.1399    0.6992    0.0008 H   0  0  0  0  0  0  0  0  0  0  0  0
  1  2  1  0  0  0  0
  1  7  1  0  0  0  0
  2  8  1  0  0  0  0
  3 11  1  0  0  0  0
  3  2  2  0  0  0  0
  4  3  1  0  0  0  0
  5  4  2  0  0  0  0
  5  6  1  0  0  0  0
  6  1  2  0  0  0  0
  9  4  1  0  0  0  0
 10  5  1  0  0  0  0
 12 11  1  0  0  0  0
 13 17  1  0  0  0  0
 13 16  1  0  0  0  0
 14 13  1  0  0  0  0
 15 13  1  0  0  0  0
 18  6  1  0  0  0  0
M  RAD  2  11   2  12   3
M  END
