Coordinates from ORCA-job Ph-N2-H-BF4-B3LYPG-6-31G_dp-scan-d09-49-n400
 OpenBabel08281821053D

 18 17  0  0  0  0  0  0  0  0999 V2000
   -1.1460    0.0707    0.5628 C   0  0  0  0  0  0  0  0  0  0  0  0
    0.2150    0.2354    0.3218 C   0  0  0  0  0  0  0  0  0  0  0  0
    0.5935    1.4301   -0.3101 C   0  0  0  0  0  0  0  0  0  0  0  0
   -0.3015    2.4426   -0.7008 C   0  0  0  0  0  0  0  0  0  0  0  0
   -1.6469    2.2409   -0.4318 C   0  0  0  0  0  0  0  0  0  0  0  0
   -2.0643    1.0590    0.1973 C   0  0  0  0  0  0  0  0  0  0  0  0
   -1.4881   -0.8364    1.0495 H   0  0  0  0  0  0  0  0  0  0  0  0
    0.9886   -0.4912    0.5908 H   0  0  0  0  0  0  0  0  0  0  0  0
    0.0577    3.3440   -1.1845 H   0  0  0  0  0  0  0  0  0  0  0  0
   -2.3699    2.9996   -0.7105 H   0  0  0  0  0  0  0  0  0  0  0  0
    1.9337    1.6324   -0.6038 N   0  0  0  0  0  0  0  0  0  0  0  0
    2.9917    1.8159   -0.9012 N   0  0  0  0  0  0  0  0  0  0  0  0
    3.4262   -0.1694    1.3752 B   0  0  0  0  0  0  0  0  0  0  0  0
    2.6169   -1.1519    0.7222 F   0  0  0  0  0  0  0  0  0  0  0  0
    4.3222    0.3562    0.4119 F   0  0  0  0  0  0  0  0  0  0  0  0
    2.5515    0.8862    1.7595 F   0  0  0  0  0  0  0  0  0  0  0  0
    4.0801   -0.7005    2.4528 F   0  0  0  0  0  0  0  0  0  0  0  0
   -3.1201    0.9124    0.4047 H   0  0  0  0  0  0  0  0  0  0  0  0
  1  7  1  0  0  0  0
  2  1  1  0  0  0  0
  2  8  1  0  0  0  0
  3  2  2  0  0  0  0
  4  5  2  0  0  0  0
  4  3  1  0  0  0  0
  5  6  1  0  0  0  0
  6 18  1  0  0  0  0
  6  1  2  0  0  0  0
  9  4  1  0  0  0  0
 10  5  1  0  0  0  0
 11  3  1  0  0  0  0
 12 11  1  0  0  0  0
 13 16  1  0  0  0  0
 13 17  1  0  0  0  0
 14 13  1  0  0  0  0
 15 13  1  0  0  0  0
M  RAD  2  11   2  12   3
M  END
