Coordinates from ORCA-job Ph-N2-H-BF4-B3LYPG-6-31G_dp-scan-d09-49-n400
 OpenBabel08281821063D

 18 17  0  0  0  0  0  0  0  0999 V2000
   -1.5237    0.8294    1.3555 C   0  0  0  0  0  0  0  0  0  0  0  0
   -0.2164    1.1988    1.6425 C   0  0  0  0  0  0  0  0  0  0  0  0
    0.5903    1.5915    0.5686 C   0  0  0  0  0  0  0  0  0  0  0  0
    0.1721    1.6037   -0.7666 C   0  0  0  0  0  0  0  0  0  0  0  0
   -1.1448    1.2365   -1.0160 C   0  0  0  0  0  0  0  0  0  0  0  0
   -1.9864    0.8560    0.0345 C   0  0  0  0  0  0  0  0  0  0  0  0
   -2.1774    0.5096    2.1593 H   0  0  0  0  0  0  0  0  0  0  0  0
    0.1905    1.1609    2.6448 H   0  0  0  0  0  0  0  0  0  0  0  0
    0.8783    1.8403   -1.5498 H   0  0  0  0  0  0  0  0  0  0  0  0
   -1.5087    1.2284   -2.0377 H   0  0  0  0  0  0  0  0  0  0  0  0
    1.8772    2.0206    0.8661 N   0  0  0  0  0  0  0  0  0  0  0  0
    2.8641    2.4509    1.1422 N   0  0  0  0  0  0  0  0  0  0  0  0
    3.3529   -0.2400    0.0200 B   0  0  0  0  0  0  0  0  0  0  0  0
    2.6895    0.5013   -1.0132 F   0  0  0  0  0  0  0  0  0  0  0  0
    4.3728    0.5884    0.5325 F   0  0  0  0  0  0  0  0  0  0  0  0
    2.3907   -0.4287    1.0560 F   0  0  0  0  0  0  0  0  0  0  0  0
    3.8281   -1.4332   -0.4533 F   0  0  0  0  0  0  0  0  0  0  0  0
   -3.0087    0.5614   -0.1795 H   0  0  0  0  0  0  0  0  0  0  0  0
  1  2  1  0  0  0  0
  1  7  1  0  0  0  0
  2  8  1  0  0  0  0
  3 11  1  0  0  0  0
  3  2  2  0  0  0  0
  4  3  1  0  0  0  0
  5  4  2  0  0  0  0
  5  6  1  0  0  0  0
  6  1  2  0  0  0  0
  9  4  1  0  0  0  0
 10  5  1  0  0  0  0
 11 12  1  0  0  0  0
 13 15  1  0  0  0  0
 13 16  1  0  0  0  0
 14 13  1  0  0  0  0
 17 13  1  0  0  0  0
 18  6  1  0  0  0  0
M  RAD  2  11   2  12   3
M  END
