Coordinates from ORCA-job Ph-N2-H-BF4-B3LYPG-6-31G_dp-scan-d09-49-n400
 OpenBabel08281821053D

 18 16  0  0  0  0  0  0  0  0999 V2000
   -1.0404    0.1068    0.5664 C   0  0  0  0  0  0  0  0  0  0  0  0
    0.3263    0.3332    0.3550 C   0  0  0  0  0  0  0  0  0  0  0  0
    0.6022    1.5412   -0.3120 C   0  0  0  0  0  0  0  0  0  0  0  0
   -0.3454    2.4884   -0.7591 C   0  0  0  0  0  0  0  0  0  0  0  0
   -1.6758    2.2021   -0.5152 C   0  0  0  0  0  0  0  0  0  0  0  0
   -2.0184    1.0102    0.1482 C   0  0  0  0  0  0  0  0  0  0  0  0
   -1.3432   -0.8020    1.0788 H   0  0  0  0  0  0  0  0  0  0  0  0
    1.2314   -0.4166    0.7362 H   0  0  0  0  0  0  0  0  0  0  0  0
   -0.0348    3.3958   -1.2659 H   0  0  0  0  0  0  0  0  0  0  0  0
   -2.4459    2.8954   -0.8349 H   0  0  0  0  0  0  0  0  0  0  0  0
    1.9309    1.8319   -0.5752 N   0  0  0  0  0  0  0  0  0  0  0  0
    3.0041    2.0350   -0.7920 N   0  0  0  0  0  0  0  0  0  0  0  0
    3.3731   -0.2489    1.3970 B   0  0  0  0  0  0  0  0  0  0  0  0
    2.1486   -1.0862    1.1261 F   0  0  0  0  0  0  0  0  0  0  0  0
    4.0011   -0.0955    0.1614 F   0  0  0  0  0  0  0  0  0  0  0  0
    2.8659    0.9811    1.8259 F   0  0  0  0  0  0  0  0  0  0  0  0
    4.1271   -0.8907    2.3272 F   0  0  0  0  0  0  0  0  0  0  0  0
   -3.0663    0.7947    0.3381 H   0  0  0  0  0  0  0  0  0  0  0  0
  1  7  1  0  0  0  0
  2  1  1  0  0  0  0
  3  2  2  0  0  0  0
  4  5  2  0  0  0  0
  4  3  1  0  0  0  0
  5  6  1  0  0  0  0
  6 18  1  0  0  0  0
  6  1  2  0  0  0  0
  8 14  1  0  0  0  0
  9  4  1  0  0  0  0
 10  5  1  0  0  0  0
 11  3  1  0  0  0  0
 12 11  1  0  0  0  0
 13 16  1  0  0  0  0
 13 17  1  0  0  0  0
 15 13  1  0  0  0  0
M  RAD  3   2   2  11   2  12   3
M  END
