Coordinates from ORCA-job Ph-N2-H-BF4-B3LYPG-6-31G_dp-scan-d09-49-n400
 OpenBabel08281821063D

 18 17  0  0  0  0  0  0  0  0999 V2000
   -1.4793    0.7762    1.3375 C   0  0  0  0  0  0  0  0  0  0  0  0
   -0.1724    1.1582    1.6097 C   0  0  0  0  0  0  0  0  0  0  0  0
    0.5980    1.6156    0.5351 C   0  0  0  0  0  0  0  0  0  0  0  0
    0.1492    1.6696   -0.7888 C   0  0  0  0  0  0  0  0  0  0  0  0
   -1.1649    1.2844   -1.0243 C   0  0  0  0  0  0  0  0  0  0  0  0
   -1.9738    0.8466    0.0299 C   0  0  0  0  0  0  0  0  0  0  0  0
   -2.1068    0.4086    2.1418 H   0  0  0  0  0  0  0  0  0  0  0  0
    0.2638    1.0789    2.5971 H   0  0  0  0  0  0  0  0  0  0  0  0
    0.8291    1.9546   -1.5796 H   0  0  0  0  0  0  0  0  0  0  0  0
   -1.5517    1.3066   -2.0373 H   0  0  0  0  0  0  0  0  0  0  0  0
    1.8851    2.0566    0.8134 N   0  0  0  0  0  0  0  0  0  0  0  0
    2.8741    2.4952    1.0676 N   0  0  0  0  0  0  0  0  0  0  0  0
    3.3225   -0.2603    0.0871 B   0  0  0  0  0  0  0  0  0  0  0  0
    2.6477    0.4336   -0.9700 F   0  0  0  0  0  0  0  0  0  0  0  0
    4.3640    0.5779    0.5344 F   0  0  0  0  0  0  0  0  0  0  0  0
    2.3810   -0.3803    1.1541 F   0  0  0  0  0  0  0  0  0  0  0  0
    3.7692   -1.4853   -0.3295 F   0  0  0  0  0  0  0  0  0  0  0  0
   -2.9947    0.5392   -0.1724 H   0  0  0  0  0  0  0  0  0  0  0  0
  1  2  1  0  0  0  0
  1  7  1  0  0  0  0
  2  8  1  0  0  0  0
  3 11  1  0  0  0  0
  3  2  2  0  0  0  0
  4  3  1  0  0  0  0
  5  4  2  0  0  0  0
  5  6  1  0  0  0  0
  6  1  2  0  0  0  0
  9  4  1  0  0  0  0
 10  5  1  0  0  0  0
 11 12  1  0  0  0  0
 13 15  1  0  0  0  0
 13 16  1  0  0  0  0
 14 13  1  0  0  0  0
 17 13  1  0  0  0  0
 18  6  1  0  0  0  0
M  RAD  2  11   2  12   3
M  END
