Coordinates from ORCA-job Ph-N2-H-BF4-B3LYPG-6-31G_dp-scan-d09-49-n400
 OpenBabel08281821063D

 18 17  0  0  0  0  0  0  0  0999 V2000
   -1.3050    0.4433    1.0773 C   0  0  0  0  0  0  0  0  0  0  0  0
    0.0476    0.7515    1.1769 C   0  0  0  0  0  0  0  0  0  0  0  0
    0.5773    1.5913    0.1882 C   0  0  0  0  0  0  0  0  0  0  0  0
   -0.1730    2.1205   -0.8747 C   0  0  0  0  0  0  0  0  0  0  0  0
   -1.5164    1.7780   -0.9470 C   0  0  0  0  0  0  0  0  0  0  0  0
   -2.0794    0.9446    0.0268 C   0  0  0  0  0  0  0  0  0  0  0  0
   -1.7523   -0.2071    1.8214 H   0  0  0  0  0  0  0  0  0  0  0  0
    0.6943    0.3553    1.9500 H   0  0  0  0  0  0  0  0  0  0  0  0
    0.2939    2.7614   -1.6141 H   0  0  0  0  0  0  0  0  0  0  0  0
   -2.1222    2.1598   -1.7615 H   0  0  0  0  0  0  0  0  0  0  0  0
    1.9060    1.9960    0.2547 N   0  0  0  0  0  0  0  0  0  0  0  0
    2.9221    2.4492    0.2590 N   0  0  0  0  0  0  0  0  0  0  0  0
    3.4796   -0.3885    0.6938 B   0  0  0  0  0  0  0  0  0  0  0  0
    2.6365   -0.3504   -0.4482 F   0  0  0  0  0  0  0  0  0  0  0  0
    4.4652    0.6118    0.5311 F   0  0  0  0  0  0  0  0  0  0  0  0
    2.6774    0.0091    1.8193 F   0  0  0  0  0  0  0  0  0  0  0  0
    4.0192   -1.6306    0.8913 F   0  0  0  0  0  0  0  0  0  0  0  0
   -3.1303    0.6808   -0.0385 H   0  0  0  0  0  0  0  0  0  0  0  0
  1  2  1  0  0  0  0
  1  7  1  0  0  0  0
  2  8  1  0  0  0  0
  3 11  1  0  0  0  0
  3  2  2  0  0  0  0
  4  3  1  0  0  0  0
  5  4  2  0  0  0  0
  5  6  1  0  0  0  0
  6  1  2  0  0  0  0
  9  4  1  0  0  0  0
 10  5  1  0  0  0  0
 11 12  1  0  0  0  0
 13 17  1  0  0  0  0
 13 16  1  0  0  0  0
 14 13  1  0  0  0  0
 15 13  1  0  0  0  0
 18  6  1  0  0  0  0
M  RAD  2  11   2  12   3
M  END
