Coordinates from ORCA-job Ph-N2-H-BF4-B3LYPG-6-31G_dp-scan-d09-49-n400
 OpenBabel08281821053D

 18 16  0  0  0  0  0  0  0  0999 V2000
   -1.0411    0.1042    0.5663 C   0  0  0  0  0  0  0  0  0  0  0  0
    0.3245    0.3289    0.3512 C   0  0  0  0  0  0  0  0  0  0  0  0
    0.6042    1.5368   -0.3140 C   0  0  0  0  0  0  0  0  0  0  0  0
   -0.3423    2.4866   -0.7568 C   0  0  0  0  0  0  0  0  0  0  0  0
   -1.6731    2.2032   -0.5099 C   0  0  0  0  0  0  0  0  0  0  0  0
   -2.0175    1.0113    0.1522 C   0  0  0  0  0  0  0  0  0  0  0  0
   -1.3440   -0.8049    1.0779 H   0  0  0  0  0  0  0  0  0  0  0  0
    1.2211   -0.4145    0.7221 H   0  0  0  0  0  0  0  0  0  0  0  0
   -0.0308    3.3942   -1.2627 H   0  0  0  0  0  0  0  0  0  0  0  0
   -2.4420    2.8994   -0.8264 H   0  0  0  0  0  0  0  0  0  0  0  0
    1.9332    1.8231   -0.5800 N   0  0  0  0  0  0  0  0  0  0  0  0
    3.0065    2.0222   -0.7996 N   0  0  0  0  0  0  0  0  0  0  0  0
    3.3679   -0.2456    1.3983 B   0  0  0  0  0  0  0  0  0  0  0  0
    2.1604   -1.0906    1.1105 F   0  0  0  0  0  0  0  0  0  0  0  0
    4.0144   -0.0813    0.1719 F   0  0  0  0  0  0  0  0  0  0  0  0
    2.8455    0.9818    1.8219 F   0  0  0  0  0  0  0  0  0  0  0  0
    4.1191   -0.8772    2.3387 F   0  0  0  0  0  0  0  0  0  0  0  0
   -3.0655    0.7985    0.3443 H   0  0  0  0  0  0  0  0  0  0  0  0
  1  7  1  0  0  0  0
  2  1  1  0  0  0  0
  3  2  2  0  0  0  0
  4  5  2  0  0  0  0
  4  3  1  0  0  0  0
  5  6  1  0  0  0  0
  6 18  1  0  0  0  0
  6  1  2  0  0  0  0
  8 14  1  0  0  0  0
  9  4  1  0  0  0  0
 10  5  1  0  0  0  0
 11  3  1  0  0  0  0
 12 11  1  0  0  0  0
 13 16  1  0  0  0  0
 13 17  1  0  0  0  0
 15 13  1  0  0  0  0
M  RAD  3   2   2  11   2  12   3
M  END
