Coordinates from ORCA-job Ph-N2-H-BF4-B3LYPG-6-31G_dp-scan-d09-49-n400
 OpenBabel08281821053D

 18 17  0  0  0  0  0  0  0  0999 V2000
   -1.2189    0.3260    0.9418 C   0  0  0  0  0  0  0  0  0  0  0  0
    0.1380    0.6319    0.9683 C   0  0  0  0  0  0  0  0  0  0  0  0
    0.5814    1.5966    0.0529 C   0  0  0  0  0  0  0  0  0  0  0  0
   -0.2552    2.2573   -0.8636 C   0  0  0  0  0  0  0  0  0  0  0  0
   -1.6003    1.9164   -0.8641 C   0  0  0  0  0  0  0  0  0  0  0  0
   -2.0775    0.9532    0.0343 C   0  0  0  0  0  0  0  0  0  0  0  0
   -1.6044   -0.4183    1.6304 H   0  0  0  0  0  0  0  0  0  0  0  0
    0.8540    0.1759    1.6446 H   0  0  0  0  0  0  0  0  0  0  0  0
    0.1483    2.9957   -1.5478 H   0  0  0  0  0  0  0  0  0  0  0  0
   -2.2748    2.3988   -1.5631 H   0  0  0  0  0  0  0  0  0  0  0  0
    1.9204    1.9642    0.0353 N   0  0  0  0  0  0  0  0  0  0  0  0
    2.9594    2.3585   -0.0366 N   0  0  0  0  0  0  0  0  0  0  0  0
    3.4664   -0.3915    0.9159 B   0  0  0  0  0  0  0  0  0  0  0  0
    2.5146   -0.5322   -0.1338 F   0  0  0  0  0  0  0  0  0  0  0  0
    4.4294    0.5515    0.4895 F   0  0  0  0  0  0  0  0  0  0  0  0
    2.7647    0.1939    2.0200 F   0  0  0  0  0  0  0  0  0  0  0  0
    4.0258   -1.5920    1.2591 F   0  0  0  0  0  0  0  0  0  0  0  0
   -3.1308    0.6902    0.0230 H   0  0  0  0  0  0  0  0  0  0  0  0
  1  2  1  0  0  0  0
  1  7  1  0  0  0  0
  2  8  1  0  0  0  0
  3  2  2  0  0  0  0
  4  3  1  0  0  0  0
  5  4  2  0  0  0  0
  5  6  1  0  0  0  0
  6  1  2  0  0  0  0
  9  4  1  0  0  0  0
 10  5  1  0  0  0  0
 11  3  1  0  0  0  0
 12 11  1  0  0  0  0
 13 17  1  0  0  0  0
 13 16  1  0  0  0  0
 14 13  1  0  0  0  0
 15 13  1  0  0  0  0
 18  6  1  0  0  0  0
M  RAD  2  11   2  12   3
M  END
