Coordinates from ORCA-job Ph-N2-H-BF4-B3LYPG-6-31G_dp-scan-d09-49-n400
 OpenBabel08281821053D

 18 16  0  0  0  0  0  0  0  0999 V2000
   -0.9493    0.1153    0.5166 C   0  0  0  0  0  0  0  0  0  0  0  0
    0.3922    0.4065    0.1971 C   0  0  0  0  0  0  0  0  0  0  0  0
    0.5220    1.6626   -0.4270 C   0  0  0  0  0  0  0  0  0  0  0  0
   -0.5020    2.5927   -0.7364 C   0  0  0  0  0  0  0  0  0  0  0  0
   -1.7853    2.2284   -0.3850 C   0  0  0  0  0  0  0  0  0  0  0  0
   -2.0035    0.9849    0.2426 C   0  0  0  0  0  0  0  0  0  0  0  0
   -1.1704   -0.8307    1.0050 H   0  0  0  0  0  0  0  0  0  0  0  0
    1.4925   -0.4612    0.5076 H   0  0  0  0  0  0  0  0  0  0  0  0
   -0.2812    3.5389   -1.2198 H   0  0  0  0  0  0  0  0  0  0  0  0
   -2.6155    2.8952   -0.5911 H   0  0  0  0  0  0  0  0  0  0  0  0
    1.8036    2.0365   -0.7931 N   0  0  0  0  0  0  0  0  0  0  0  0
    2.8400    2.3227   -1.0868 N   0  0  0  0  0  0  0  0  0  0  0  0
    3.4885   -0.3817    1.5241 B   0  0  0  0  0  0  0  0  0  0  0  0
    2.2639   -1.0859    0.7440 F   0  0  0  0  0  0  0  0  0  0  0  0
    4.5835   -1.0138    1.0379 F   0  0  0  0  0  0  0  0  0  0  0  0
    3.3681    0.9367    1.1172 F   0  0  0  0  0  0  0  0  0  0  0  0
    3.2113   -0.5780    2.8366 F   0  0  0  0  0  0  0  0  0  0  0  0
   -3.0179    0.7068    0.5166 H   0  0  0  0  0  0  0  0  0  0  0  0
  1  7  1  0  0  0  0
  2  1  2  0  0  0  0
  3  2  1  0  0  0  0
  4  3  2  0  0  0  0
  4  5  1  0  0  0  0
  5  6  2  0  0  0  0
  6 18  1  0  0  0  0
  6  1  1  0  0  0  0
  8 14  1  0  0  0  0
  9  4  1  0  0  0  0
 10  5  1  0  0  0  0
 11  3  1  0  0  0  0
 12 11  1  0  0  0  0
 13 17  1  0  0  0  0
 15 13  1  0  0  0  0
 16 13  1  0  0  0  0
M  RAD  3   2   2  11   2  12   3
M  END
