Coordinates from ORCA-job Ph-N2-H-BF4-B3LYPG-6-31G_dp-scan-d09-49-n400
 OpenBabel08281821063D

 18 17  0  0  0  0  0  0  0  0999 V2000
   -1.8467    1.7030    1.2601 C   0  0  0  0  0  0  0  0  0  0  0  0
   -0.5663    1.7076    1.7929 C   0  0  0  0  0  0  0  0  0  0  0  0
    0.4545    1.1099    1.0262 C   0  0  0  0  0  0  0  0  0  0  0  0
    0.2477    0.4949   -0.2186 C   0  0  0  0  0  0  0  0  0  0  0  0
   -1.0541    0.5101   -0.7118 C   0  0  0  0  0  0  0  0  0  0  0  0
   -2.0865    1.1121    0.0113 C   0  0  0  0  0  0  0  0  0  0  0  0
   -2.6592    2.1573    1.8162 H   0  0  0  0  0  0  0  0  0  0  0  0
   -0.3647    2.1491    2.7642 H   0  0  0  0  0  0  0  0  0  0  0  0
    1.0850    0.0230   -0.7278 H   0  0  0  0  0  0  0  0  0  0  0  0
   -1.2576    0.0478   -1.6713 H   0  0  0  0  0  0  0  0  0  0  0  0
    1.7342    1.1188    1.5601 N   0  0  0  0  0  0  0  0  0  0  0  0
    2.7421    1.1332    2.0375 N   0  0  0  0  0  0  0  0  0  0  0  0
    3.6895    0.3361   -0.7381 B   0  0  0  0  0  0  0  0  0  0  0  0
    2.8721    1.4910   -0.8552 F   0  0  0  0  0  0  0  0  0  0  0  0
    4.3429    0.4090    0.5237 F   0  0  0  0  0  0  0  0  0  0  0  0
    2.8125   -0.7862   -0.7020 F   0  0  0  0  0  0  0  0  0  0  0  0
    4.5885    0.2410   -1.7666 F   0  0  0  0  0  0  0  0  0  0  0  0
   -3.0934    1.1183   -0.3951 H   0  0  0  0  0  0  0  0  0  0  0  0
  1  2  1  0  0  0  0
  1  7  1  0  0  0  0
  2  8  1  0  0  0  0
  3 11  1  0  0  0  0
  3  2  2  0  0  0  0
  4  3  1  0  0  0  0
  5  4  2  0  0  0  0
  5  6  1  0  0  0  0
  6  1  2  0  0  0  0
  9  4  1  0  0  0  0
 10  5  1  0  0  0  0
 11 12  1  0  0  0  0
 13 16  1  0  0  0  0
 13 15  1  0  0  0  0
 14 13  1  0  0  0  0
 17 13  1  0  0  0  0
 18  6  1  0  0  0  0
M  RAD  2  11   2  12   3
M  END
