Coordinates from ORCA-job Ph-N2-H-BF4-B3LYPG-6-31G_dp-scan-d09-49-n400
 OpenBabel08281821053D

 18 17  0  0  0  0  0  0  0  0999 V2000
   -1.2319    0.3392    0.9571 C   0  0  0  0  0  0  0  0  0  0  0  0
    0.1259    0.6399    0.9882 C   0  0  0  0  0  0  0  0  0  0  0  0
    0.5794    1.5915    0.0641 C   0  0  0  0  0  0  0  0  0  0  0  0
   -0.2489    2.2420   -0.8672 C   0  0  0  0  0  0  0  0  0  0  0  0
   -1.5951    1.9055   -0.8728 C   0  0  0  0  0  0  0  0  0  0  0  0
   -2.0825    0.9574    0.0359 C   0  0  0  0  0  0  0  0  0  0  0  0
   -1.6246   -0.3946    1.6530 H   0  0  0  0  0  0  0  0  0  0  0  0
    0.8348    0.1854    1.6730 H   0  0  0  0  0  0  0  0  0  0  0  0
    0.1617    2.9697   -1.5584 H   0  0  0  0  0  0  0  0  0  0  0  0
   -2.2628    2.3802   -1.5836 H   0  0  0  0  0  0  0  0  0  0  0  0
    1.9178    1.9631    0.0550 N   0  0  0  0  0  0  0  0  0  0  0  0
    2.9539    2.3653   -0.0118 N   0  0  0  0  0  0  0  0  0  0  0  0
    3.4757   -0.3913    0.8942 B   0  0  0  0  0  0  0  0  0  0  0  0
    2.5457   -0.5157   -0.1751 F   0  0  0  0  0  0  0  0  0  0  0  0
    4.4403    0.5673    0.5085 F   0  0  0  0  0  0  0  0  0  0  0  0
    2.7518    0.1677    1.9994 F   0  0  0  0  0  0  0  0  0  0  0  0
    4.0360   -1.5949    1.2246 F   0  0  0  0  0  0  0  0  0  0  0  0
   -3.1368    0.6986    0.0217 H   0  0  0  0  0  0  0  0  0  0  0  0
  1  2  1  0  0  0  0
  1  7  1  0  0  0  0
  2  8  1  0  0  0  0
  3  2  2  0  0  0  0
  4  3  1  0  0  0  0
  5  4  2  0  0  0  0
  5  6  1  0  0  0  0
  6  1  2  0  0  0  0
  9  4  1  0  0  0  0
 10  5  1  0  0  0  0
 11  3  1  0  0  0  0
 12 11  1  0  0  0  0
 13 17  1  0  0  0  0
 13 16  1  0  0  0  0
 14 13  1  0  0  0  0
 15 13  1  0  0  0  0
 18  6  1  0  0  0  0
M  RAD  2  11   2  12   3
M  END
