Coordinates from ORCA-job Ph-N2-H-BF4-B3LYPG-6-31G_dp-scan-d09-49-n400
 OpenBabel08281821063D

 18 17  0  0  0  0  0  0  0  0999 V2000
   -1.4261    0.7094    1.3083 C   0  0  0  0  0  0  0  0  0  0  0  0
   -0.1185    1.1033    1.5609 C   0  0  0  0  0  0  0  0  0  0  0  0
    0.6043    1.6406    0.4899 C   0  0  0  0  0  0  0  0  0  0  0  0
    0.1104    1.7563   -0.8139 C   0  0  0  0  0  0  0  0  0  0  0  0
   -1.2007    1.3522   -1.0311 C   0  0  0  0  0  0  0  0  0  0  0  0
   -1.9647    0.8389    0.0230 C   0  0  0  0  0  0  0  0  0  0  0  0
   -2.0184    0.2826    2.1099 H   0  0  0  0  0  0  0  0  0  0  0  0
    0.3558    0.9698    2.5244 H   0  0  0  0  0  0  0  0  0  0  0  0
    0.7528    2.1074   -1.6103 H   0  0  0  0  0  0  0  0  0  0  0  0
   -1.6203    1.4193   -2.0289 H   0  0  0  0  0  0  0  0  0  0  0  0
    1.8935    2.0920    0.7405 N   0  0  0  0  0  0  0  0  0  0  0  0
    2.8864    2.5383    0.9640 N   0  0  0  0  0  0  0  0  0  0  0  0
    3.2986   -0.2884    0.1783 B   0  0  0  0  0  0  0  0  0  0  0  0
    2.5998    0.3327   -0.9057 F   0  0  0  0  0  0  0  0  0  0  0  0
    4.3640    0.5650    0.5302 F   0  0  0  0  0  0  0  0  0  0  0  0
    2.3926   -0.3128    1.2850 F   0  0  0  0  0  0  0  0  0  0  0  0
    3.7153   -1.5488   -0.1548 F   0  0  0  0  0  0  0  0  0  0  0  0
   -2.9844    0.5182   -0.1637 H   0  0  0  0  0  0  0  0  0  0  0  0
  1  2  1  0  0  0  0
  1  7  1  0  0  0  0
  2  8  1  0  0  0  0
  3 11  1  0  0  0  0
  3  2  2  0  0  0  0
  4  3  1  0  0  0  0
  5  4  2  0  0  0  0
  5  6  1  0  0  0  0
  6  1  2  0  0  0  0
  9  4  1  0  0  0  0
 10  5  1  0  0  0  0
 11 12  1  0  0  0  0
 13 15  1  0  0  0  0
 13 16  1  0  0  0  0
 14 13  1  0  0  0  0
 17 13  1  0  0  0  0
 18  6  1  0  0  0  0
M  RAD  2  11   2  12   3
M  END
