Coordinates from ORCA-job Ph-N2-H-BF4-B3LYPG-6-31G_dp-scan-d09-49-n400
 OpenBabel08281821053D

 18 17  0  0  0  0  0  0  0  0999 V2000
   -1.1702    0.0633    0.5517 C   0  0  0  0  0  0  0  0  0  0  0  0
    0.1913    0.2149    0.3078 C   0  0  0  0  0  0  0  0  0  0  0  0
    0.5861    1.4119   -0.3088 C   0  0  0  0  0  0  0  0  0  0  0  0
   -0.2980    2.4400   -0.6817 C   0  0  0  0  0  0  0  0  0  0  0  0
   -1.6454    2.2530   -0.4099 C   0  0  0  0  0  0  0  0  0  0  0  0
   -2.0768    1.0689    0.2039 C   0  0  0  0  0  0  0  0  0  0  0  0
   -1.5216   -0.8463    1.0267 H   0  0  0  0  0  0  0  0  0  0  0  0
    0.9457   -0.5268    0.5654 H   0  0  0  0  0  0  0  0  0  0  0  0
    0.0713    3.3433   -1.1541 H   0  0  0  0  0  0  0  0  0  0  0  0
   -2.3585    3.0257   -0.6752 H   0  0  0  0  0  0  0  0  0  0  0  0
    1.9273    1.6052   -0.6061 N   0  0  0  0  0  0  0  0  0  0  0  0
    2.9820    1.7955   -0.9111 N   0  0  0  0  0  0  0  0  0  0  0  0
    3.4528   -0.1572    1.3669 B   0  0  0  0  0  0  0  0  0  0  0  0
    2.7135   -1.1634    0.6799 F   0  0  0  0  0  0  0  0  0  0  0  0
    4.3491    0.4285    0.4364 F   0  0  0  0  0  0  0  0  0  0  0  0
    2.5201    0.8533    1.7442 F   0  0  0  0  0  0  0  0  0  0  0  0
    4.1054   -0.6668    2.4564 F   0  0  0  0  0  0  0  0  0  0  0  0
   -3.1335    0.9332    0.4135 H   0  0  0  0  0  0  0  0  0  0  0  0
  1  7  1  0  0  0  0
  2  1  1  0  0  0  0
  2  8  1  0  0  0  0
  3  2  2  0  0  0  0
  4  5  2  0  0  0  0
  4  3  1  0  0  0  0
  5  6  1  0  0  0  0
  6 18  1  0  0  0  0
  6  1  2  0  0  0  0
  9  4  1  0  0  0  0
 10  5  1  0  0  0  0
 11  3  1  0  0  0  0
 12 11  1  0  0  0  0
 13 16  1  0  0  0  0
 13 17  1  0  0  0  0
 14 13  1  0  0  0  0
 15 13  1  0  0  0  0
M  RAD  2  11   2  12   3
M  END
