Coordinates from ORCA-job Ph-N2-H-BF4-B3LYPG-6-31G_dp-scan-d09-49-n400
 OpenBabel08281821053D

 18 17  0  0  0  0  0  0  0  0999 V2000
   -1.1075    0.0777    0.5503 C   0  0  0  0  0  0  0  0  0  0  0  0
    0.2522    0.2639    0.3115 C   0  0  0  0  0  0  0  0  0  0  0  0
    0.6049    1.4664   -0.3225 C   0  0  0  0  0  0  0  0  0  0  0  0
   -0.3074    2.4631   -0.7162 C   0  0  0  0  0  0  0  0  0  0  0  0
   -1.6487    2.2364   -0.4502 C   0  0  0  0  0  0  0  0  0  0  0  0
   -2.0438    1.0472    0.1810 C   0  0  0  0  0  0  0  0  0  0  0  0
   -1.4343   -0.8341    1.0389 H   0  0  0  0  0  0  0  0  0  0  0  0
    1.0429   -0.4560    0.5923 H   0  0  0  0  0  0  0  0  0  0  0  0
    0.0366    3.3700   -1.2008 H   0  0  0  0  0  0  0  0  0  0  0  0
   -2.3859    2.9801   -0.7320 H   0  0  0  0  0  0  0  0  0  0  0  0
    1.9415    1.6899   -0.6107 N   0  0  0  0  0  0  0  0  0  0  0  0
    3.0097    1.8568   -0.8798 N   0  0  0  0  0  0  0  0  0  0  0  0
    3.3860   -0.2019    1.4021 B   0  0  0  0  0  0  0  0  0  0  0  0
    2.4677   -1.1995    0.9280 F   0  0  0  0  0  0  0  0  0  0  0  0
    4.2036    0.1775    0.3095 F   0  0  0  0  0  0  0  0  0  0  0  0
    2.6012    0.9276    1.7611 F   0  0  0  0  0  0  0  0  0  0  0  0
    4.1188   -0.6697    2.4568 F   0  0  0  0  0  0  0  0  0  0  0  0
   -3.0969    0.8806    0.3866 H   0  0  0  0  0  0  0  0  0  0  0  0
  1  7  1  0  0  0  0
  2  1  1  0  0  0  0
  2  8  1  0  0  0  0
  3  2  2  0  0  0  0
  4  5  2  0  0  0  0
  4  3  1  0  0  0  0
  5  6  1  0  0  0  0
  6 18  1  0  0  0  0
  6  1  2  0  0  0  0
  9  4  1  0  0  0  0
 10  5  1  0  0  0  0
 11  3  1  0  0  0  0
 12 11  1  0  0  0  0
 13 16  1  0  0  0  0
 13 17  1  0  0  0  0
 14 13  1  0  0  0  0
 15 13  1  0  0  0  0
M  RAD  2  11   2  12   3
M  END
