Coordinates from ORCA-job Ph-N2-H-BF4-B3LYPG-6-31G_dp-scan-d09-49-n400
 OpenBabel08281821063D

 18 17  0  0  0  0  0  0  0  0999 V2000
   -1.8269    1.7321    1.2397 C   0  0  0  0  0  0  0  0  0  0  0  0
   -0.5465    1.7186    1.7728 C   0  0  0  0  0  0  0  0  0  0  0  0
    0.4604    1.0823    1.0207 C   0  0  0  0  0  0  0  0  0  0  0  0
    0.2416    0.4489   -0.2124 C   0  0  0  0  0  0  0  0  0  0  0  0
   -1.0595    0.4809   -0.7058 C   0  0  0  0  0  0  0  0  0  0  0  0
   -2.0793    1.1192    0.0044 C   0  0  0  0  0  0  0  0  0  0  0  0
   -2.6288    2.2172    1.7850 H   0  0  0  0  0  0  0  0  0  0  0  0
   -0.3299    2.1775    2.7321 H   0  0  0  0  0  0  0  0  0  0  0  0
    1.0713   -0.0433   -0.7147 H   0  0  0  0  0  0  0  0  0  0  0  0
   -1.2727    0.0050   -1.6566 H   0  0  0  0  0  0  0  0  0  0  0  0
    1.7363    1.0683    1.5647 N   0  0  0  0  0  0  0  0  0  0  0  0
    2.7320    1.0637    2.0663 N   0  0  0  0  0  0  0  0  0  0  0  0
    3.6751    0.3721   -0.7275 B   0  0  0  0  0  0  0  0  0  0  0  0
    2.8229    1.5097   -0.7842 F   0  0  0  0  0  0  0  0  0  0  0  0
    4.3596    0.4218    0.5159 F   0  0  0  0  0  0  0  0  0  0  0  0
    2.8274   -0.7736   -0.7059 F   0  0  0  0  0  0  0  0  0  0  0  0
    4.5433    0.3373   -1.7856 F   0  0  0  0  0  0  0  0  0  0  0  0
   -3.0857    1.1384   -0.4029 H   0  0  0  0  0  0  0  0  0  0  0  0
  1  2  1  0  0  0  0
  1  7  1  0  0  0  0
  2  8  1  0  0  0  0
  3 11  1  0  0  0  0
  3  2  2  0  0  0  0
  4  3  1  0  0  0  0
  5  4  2  0  0  0  0
  5  6  1  0  0  0  0
  6  1  2  0  0  0  0
  9  4  1  0  0  0  0
 10  5  1  0  0  0  0
 11 12  1  0  0  0  0
 13 16  1  0  0  0  0
 13 15  1  0  0  0  0
 14 13  1  0  0  0  0
 17 13  1  0  0  0  0
 18  6  1  0  0  0  0
M  RAD  2  11   2  12   3
M  END
