Coordinates from ORCA-job Ph-N2-H-BF4-B3LYPG-6-31G_dp-scan-d09-49-n400
 OpenBabel08281821063D

 18 17  0  0  0  0  0  0  0  0999 V2000
   -1.2483    0.3796    0.9969 C   0  0  0  0  0  0  0  0  0  0  0  0
    0.1099    0.6781    1.0314 C   0  0  0  0  0  0  0  0  0  0  0  0
    0.5764    1.5946    0.0790 C   0  0  0  0  0  0  0  0  0  0  0  0
   -0.2385    2.2073   -0.8885 C   0  0  0  0  0  0  0  0  0  0  0  0
   -1.5851    1.8715   -0.8984 C   0  0  0  0  0  0  0  0  0  0  0  0
   -2.0867    0.9634    0.0427 C   0  0  0  0  0  0  0  0  0  0  0  0
   -1.6504   -0.3256    1.7166 H   0  0  0  0  0  0  0  0  0  0  0  0
    0.8098    0.2373    1.7350 H   0  0  0  0  0  0  0  0  0  0  0  0
    0.1818    2.9063   -1.6032 H   0  0  0  0  0  0  0  0  0  0  0  0
   -2.2425    2.3168   -1.6371 H   0  0  0  0  0  0  0  0  0  0  0  0
    1.9122    1.9766    0.0875 N   0  0  0  0  0  0  0  0  0  0  0  0
    2.9459    2.3882    0.0432 N   0  0  0  0  0  0  0  0  0  0  0  0
    3.4836   -0.4024    0.8560 B   0  0  0  0  0  0  0  0  0  0  0  0
    2.6001   -0.4459   -0.2578 F   0  0  0  0  0  0  0  0  0  0  0  0
    4.4358    0.6139    0.6035 F   0  0  0  0  0  0  0  0  0  0  0  0
    2.7097    0.0265    1.9838 F   0  0  0  0  0  0  0  0  0  0  0  0
    4.0685   -1.6176    1.0881 F   0  0  0  0  0  0  0  0  0  0  0  0
   -3.1417    0.7075    0.0273 H   0  0  0  0  0  0  0  0  0  0  0  0
  1  2  1  0  0  0  0
  1  7  1  0  0  0  0
  2  8  1  0  0  0  0
  3 11  1  0  0  0  0
  3  2  2  0  0  0  0
  4  3  1  0  0  0  0
  5  4  2  0  0  0  0
  5  6  1  0  0  0  0
  6  1  2  0  0  0  0
  9  4  1  0  0  0  0
 10  5  1  0  0  0  0
 12 11  1  0  0  0  0
 13 17  1  0  0  0  0
 13 16  1  0  0  0  0
 14 13  1  0  0  0  0
 15 13  1  0  0  0  0
 18  6  1  0  0  0  0
M  RAD  2  11   2  12   3
M  END
