Coordinates from ORCA-job Ph-N2-H-BF4-B3LYPG-6-31G_dp-scan-d09-49-n400
 OpenBabel08281821063D

 18 17  0  0  0  0  0  0  0  0999 V2000
   -1.5785    0.9128    1.3801 C   0  0  0  0  0  0  0  0  0  0  0  0
   -0.2704    1.2699    1.6776 C   0  0  0  0  0  0  0  0  0  0  0  0
    0.5798    1.5624    0.6048 C   0  0  0  0  0  0  0  0  0  0  0  0
    0.1982    1.5001   -0.7400 C   0  0  0  0  0  0  0  0  0  0  0  0
   -1.1217    1.1499   -1.0002 C   0  0  0  0  0  0  0  0  0  0  0  0
   -2.0024    0.8600    0.0470 C   0  0  0  0  0  0  0  0  0  0  0  0
   -2.2627    0.6670    2.1846 H   0  0  0  0  0  0  0  0  0  0  0  0
    0.1100    1.2972    2.6902 H   0  0  0  0  0  0  0  0  0  0  0  0
    0.9347    1.6639   -1.5136 H   0  0  0  0  0  0  0  0  0  0  0  0
   -1.4579    1.0831   -2.0293 H   0  0  0  0  0  0  0  0  0  0  0  0
    1.8679    1.9685    0.9318 N   0  0  0  0  0  0  0  0  0  0  0  0
    2.8482    2.3837    1.2510 N   0  0  0  0  0  0  0  0  0  0  0  0
    3.3910   -0.2024   -0.0692 B   0  0  0  0  0  0  0  0  0  0  0  0
    2.8062    0.6877   -1.0358 F   0  0  0  0  0  0  0  0  0  0  0  0
    4.3886    0.5277    0.6063 F   0  0  0  0  0  0  0  0  0  0  0  0
    2.3613   -0.4980    0.8683 F   0  0  0  0  0  0  0  0  0  0  0  0
    3.8736   -1.3328   -0.6702 F   0  0  0  0  0  0  0  0  0  0  0  0
   -3.0254    0.5755   -0.1775 H   0  0  0  0  0  0  0  0  0  0  0  0
  1  2  1  0  0  0  0
  1  7  1  0  0  0  0
  2  8  1  0  0  0  0
  3 11  1  0  0  0  0
  3  2  2  0  0  0  0
  4  3  1  0  0  0  0
  5  4  2  0  0  0  0
  5  6  1  0  0  0  0
  6  1  2  0  0  0  0
  9  4  1  0  0  0  0
 10  5  1  0  0  0  0
 11 12  1  0  0  0  0
 13 15  1  0  0  0  0
 13 16  1  0  0  0  0
 14 13  1  0  0  0  0
 17 13  1  0  0  0  0
 18  6  1  0  0  0  0
M  RAD  2  11   2  12   3
M  END
