Coordinates from ORCA-job Ph-N2-H-BF4-B3LYPG-6-31G_dp-scan-d09-49-n400
 OpenBabel08281821053D

 18 17  0  0  0  0  0  0  0  0999 V2000
   -1.2692    0.1021    0.6154 C   0  0  0  0  0  0  0  0  0  0  0  0
    0.1033    0.2046    0.4119 C   0  0  0  0  0  0  0  0  0  0  0  0
    0.5601    1.3533   -0.2490 C   0  0  0  0  0  0  0  0  0  0  0  0
   -0.2851    2.3825   -0.7015 C   0  0  0  0  0  0  0  0  0  0  0  0
   -1.6467    2.2496   -0.4685 C   0  0  0  0  0  0  0  0  0  0  0  0
   -2.1351    1.1123    0.1871 C   0  0  0  0  0  0  0  0  0  0  0  0
   -1.6608   -0.7733    1.1220 H   0  0  0  0  0  0  0  0  0  0  0  0
    0.8039   -0.5472    0.7426 H   0  0  0  0  0  0  0  0  0  0  0  0
    0.1252    3.2505   -1.2054 H   0  0  0  0  0  0  0  0  0  0  0  0
   -2.3250    3.0292   -0.7972 H   0  0  0  0  0  0  0  0  0  0  0  0
    1.9134    1.5214   -0.5204 N   0  0  0  0  0  0  0  0  0  0  0  0
    2.9484    1.7544   -0.8608 N   0  0  0  0  0  0  0  0  0  0  0  0
    3.5680   -0.1426    1.2979 B   0  0  0  0  0  0  0  0  0  0  0  0
    3.0200   -1.0333    0.3440 F   0  0  0  0  0  0  0  0  0  0  0  0
    4.4594    0.7247    0.6175 F   0  0  0  0  0  0  0  0  0  0  0  0
    2.4854    0.6719    1.7703 F   0  0  0  0  0  0  0  0  0  0  0  0
    4.1771   -0.8002    2.3335 F   0  0  0  0  0  0  0  0  0  0  0  0
   -3.2016    1.0161    0.3663 H   0  0  0  0  0  0  0  0  0  0  0  0
  1  7  1  0  0  0  0
  2  1  1  0  0  0  0
  2  8  1  0  0  0  0
  3  2  2  0  0  0  0
  4  5  2  0  0  0  0
  4  3  1  0  0  0  0
  5  6  1  0  0  0  0
  6 18  1  0  0  0  0
  6  1  2  0  0  0  0
  9  4  1  0  0  0  0
 10  5  1  0  0  0  0
 11  3  1  0  0  0  0
 12 11  1  0  0  0  0
 13 16  1  0  0  0  0
 13 17  1  0  0  0  0
 14 13  1  0  0  0  0
 15 13  1  0  0  0  0
M  RAD  2  11   2  12   3
M  END
