Coordinates from ORCA-job Ph-N2-H-BF4-B3LYPG-6-31G_dp-scan-d09-49-n400
 OpenBabel08281821053D

 18 17  0  0  0  0  0  0  0  0999 V2000
   -1.0424    0.1021    0.5662 C   0  0  0  0  0  0  0  0  0  0  0  0
    0.3225    0.3259    0.3492 C   0  0  0  0  0  0  0  0  0  0  0  0
    0.6059    1.5335   -0.3145 C   0  0  0  0  0  0  0  0  0  0  0  0
   -0.3397    2.4851   -0.7546 C   0  0  0  0  0  0  0  0  0  0  0  0
   -1.6709    2.2039   -0.5063 C   0  0  0  0  0  0  0  0  0  0  0  0
   -2.0173    1.0121    0.1544 C   0  0  0  0  0  0  0  0  0  0  0  0
   -1.3454   -0.8072    1.0770 H   0  0  0  0  0  0  0  0  0  0  0  0
    1.2105   -0.4119    0.7124 H   0  0  0  0  0  0  0  0  0  0  0  0
   -0.0271    3.3927   -1.2595 H   0  0  0  0  0  0  0  0  0  0  0  0
   -2.4387    2.9021   -0.8210 H   0  0  0  0  0  0  0  0  0  0  0  0
    1.9352    1.8165   -0.5820 N   0  0  0  0  0  0  0  0  0  0  0  0
    3.0087    2.0124   -0.8037 N   0  0  0  0  0  0  0  0  0  0  0  0
    3.3642   -0.2436    1.3984 B   0  0  0  0  0  0  0  0  0  0  0  0
    2.1710   -1.0949    1.1006 F   0  0  0  0  0  0  0  0  0  0  0  0
    4.0230   -0.0703    0.1781 F   0  0  0  0  0  0  0  0  0  0  0  0
    2.8304    0.9820    1.8183 F   0  0  0  0  0  0  0  0  0  0  0  0
    4.1161   -0.8657    2.3456 F   0  0  0  0  0  0  0  0  0  0  0  0
   -3.0654    0.8012    0.3474 H   0  0  0  0  0  0  0  0  0  0  0  0
  1  7  1  0  0  0  0
  2  1  1  0  0  0  0
  2  8  1  0  0  0  0
  3  2  2  0  0  0  0
  4  5  2  0  0  0  0
  4  3  1  0  0  0  0
  5  6  1  0  0  0  0
  6 18  1  0  0  0  0
  6  1  2  0  0  0  0
  9  4  1  0  0  0  0
 10  5  1  0  0  0  0
 11  3  1  0  0  0  0
 12 11  1  0  0  0  0
 13 16  1  0  0  0  0
 13 17  1  0  0  0  0
 14 13  1  0  0  0  0
 15 13  1  0  0  0  0
M  RAD  2  11   2  12   3
M  END
