Coordinates from ORCA-job Ph-N2-H-BF4-B3LYPG-6-31G_dp-scan-d09-49-n400
 OpenBabel08281821053D

 18 17  0  0  0  0  0  0  0  0999 V2000
   -1.2085    0.3088    0.9178 C   0  0  0  0  0  0  0  0  0  0  0  0
    0.1502    0.6076    0.9257 C   0  0  0  0  0  0  0  0  0  0  0  0
    0.5815    1.5903    0.0235 C   0  0  0  0  0  0  0  0  0  0  0  0
   -0.2688    2.2764   -0.8618 C   0  0  0  0  0  0  0  0  0  0  0  0
   -1.6151    1.9419   -0.8446 C   0  0  0  0  0  0  0  0  0  0  0  0
   -2.0803    0.9608    0.0410 C   0  0  0  0  0  0  0  0  0  0  0  0
   -1.5852   -0.4489    1.5967 H   0  0  0  0  0  0  0  0  0  0  0  0
    0.8792    0.1352    1.5763 H   0  0  0  0  0  0  0  0  0  0  0  0
    0.1255    3.0290   -1.5359 H   0  0  0  0  0  0  0  0  0  0  0  0
   -2.3005    2.4432   -1.5192 H   0  0  0  0  0  0  0  0  0  0  0  0
    1.9219    1.9499   -0.0104 N   0  0  0  0  0  0  0  0  0  0  0  0
    2.9651    2.3300   -0.0978 N   0  0  0  0  0  0  0  0  0  0  0  0
    3.4688   -0.3875    0.9574 B   0  0  0  0  0  0  0  0  0  0  0  0
    2.5154   -0.5587   -0.0864 F   0  0  0  0  0  0  0  0  0  0  0  0
    4.4238    0.5538    0.5067 F   0  0  0  0  0  0  0  0  0  0  0  0
    2.7636    0.2158    2.0474 F   0  0  0  0  0  0  0  0  0  0  0  0
    4.0391   -1.5752    1.3255 F   0  0  0  0  0  0  0  0  0  0  0  0
   -3.1352    0.7035    0.0438 H   0  0  0  0  0  0  0  0  0  0  0  0
  1  2  1  0  0  0  0
  1  7  1  0  0  0  0
  2  8  1  0  0  0  0
  3  2  2  0  0  0  0
  4  5  2  0  0  0  0
  4  3  1  0  0  0  0
  5  6  1  0  0  0  0
  6 18  1  0  0  0  0
  6  1  2  0  0  0  0
  9  4  1  0  0  0  0
 10  5  1  0  0  0  0
 11  3  1  0  0  0  0
 12 11  1  0  0  0  0
 13 17  1  0  0  0  0
 13 16  1  0  0  0  0
 14 13  1  0  0  0  0
 15 13  1  0  0  0  0
M  RAD  2  11   2  12   3
M  END
