Coordinates from ORCA-job Ph-N2-H-BF4-B3LYPG-6-31G_dp-scan-d09-49-n400
 OpenBabel08281821053D

 18 17  0  0  0  0  0  0  0  0999 V2000
   -1.2207    0.3272    0.9431 C   0  0  0  0  0  0  0  0  0  0  0  0
    0.1364    0.6321    0.9697 C   0  0  0  0  0  0  0  0  0  0  0  0
    0.5809    1.5957    0.0536 C   0  0  0  0  0  0  0  0  0  0  0  0
   -0.2550    2.2561   -0.8639 C   0  0  0  0  0  0  0  0  0  0  0  0
   -1.6003    1.9161   -0.8645 C   0  0  0  0  0  0  0  0  0  0  0  0
   -2.0785    0.9542    0.0348 C   0  0  0  0  0  0  0  0  0  0  0  0
   -1.6069   -0.4163    1.6322 H   0  0  0  0  0  0  0  0  0  0  0  0
    0.8522    0.1758    1.6460 H   0  0  0  0  0  0  0  0  0  0  0  0
    0.1492    2.9936   -1.5486 H   0  0  0  0  0  0  0  0  0  0  0  0
   -2.2742    2.3982   -1.5642 H   0  0  0  0  0  0  0  0  0  0  0  0
    1.9199    1.9634    0.0365 N   0  0  0  0  0  0  0  0  0  0  0  0
    2.9589    2.3577   -0.0349 N   0  0  0  0  0  0  0  0  0  0  0  0
    3.4682   -0.3916    0.9139 B   0  0  0  0  0  0  0  0  0  0  0  0
    2.5208   -0.5328   -0.1391 F   0  0  0  0  0  0  0  0  0  0  0  0
    4.4310    0.5539    0.4924 F   0  0  0  0  0  0  0  0  0  0  0  0
    2.7625    0.1920    2.0167 F   0  0  0  0  0  0  0  0  0  0  0  0
    4.0281   -1.5913    1.2587 F   0  0  0  0  0  0  0  0  0  0  0  0
   -3.1320    0.6919    0.0234 H   0  0  0  0  0  0  0  0  0  0  0  0
  1  2  1  0  0  0  0
  1  7  1  0  0  0  0
  2  8  1  0  0  0  0
  3  2  2  0  0  0  0
  4  3  1  0  0  0  0
  5  4  2  0  0  0  0
  5  6  1  0  0  0  0
  6  1  2  0  0  0  0
  9  4  1  0  0  0  0
 10  5  1  0  0  0  0
 11  3  1  0  0  0  0
 12 11  1  0  0  0  0
 13 17  1  0  0  0  0
 13 16  1  0  0  0  0
 14 13  1  0  0  0  0
 15 13  1  0  0  0  0
 18  6  1  0  0  0  0
M  RAD  2  11   2  12   3
M  END
