Coordinates from ORCA-job Ph-N2-H-BF4-B3LYPG-6-31G_dp-scan-d09-49-n400
 OpenBabel08281821053D

 18 17  0  0  0  0  0  0  0  0999 V2000
   -1.1847    0.0655    0.5501 C   0  0  0  0  0  0  0  0  0  0  0  0
    0.1779    0.2112    0.3099 C   0  0  0  0  0  0  0  0  0  0  0  0
    0.5815    1.4060   -0.3048 C   0  0  0  0  0  0  0  0  0  0  0  0
   -0.2972    2.4380   -0.6793 C   0  0  0  0  0  0  0  0  0  0  0  0
   -1.6464    2.2579   -0.4110 C   0  0  0  0  0  0  0  0  0  0  0  0
   -2.0856    1.0758    0.2008 C   0  0  0  0  0  0  0  0  0  0  0  0
   -1.5414   -0.8429    1.0234 H   0  0  0  0  0  0  0  0  0  0  0  0
    0.9231   -0.5354    0.5699 H   0  0  0  0  0  0  0  0  0  0  0  0
    0.0775    3.3398   -1.1502 H   0  0  0  0  0  0  0  0  0  0  0  0
   -2.3548    3.0345   -0.6777 H   0  0  0  0  0  0  0  0  0  0  0  0
    1.9240    1.5954   -0.6003 N   0  0  0  0  0  0  0  0  0  0  0  0
    2.9773    1.7884   -0.9090 N   0  0  0  0  0  0  0  0  0  0  0  0
    3.4705   -0.1582    1.3648 B   0  0  0  0  0  0  0  0  0  0  0  0
    2.7631   -1.1807    0.6745 F   0  0  0  0  0  0  0  0  0  0  0  0
    4.3578    0.4530    0.4406 F   0  0  0  0  0  0  0  0  0  0  0  0
    2.5106    0.8308    1.7377 F   0  0  0  0  0  0  0  0  0  0  0  0
    4.1307   -0.6482    2.4590 F   0  0  0  0  0  0  0  0  0  0  0  0
   -3.1434    0.9450    0.4076 H   0  0  0  0  0  0  0  0  0  0  0  0
  1  7  1  0  0  0  0
  2  1  1  0  0  0  0
  2  8  1  0  0  0  0
  3  2  2  0  0  0  0
  4  5  2  0  0  0  0
  4  3  1  0  0  0  0
  5  6  1  0  0  0  0
  6 18  1  0  0  0  0
  6  1  2  0  0  0  0
  9  4  1  0  0  0  0
 10  5  1  0  0  0  0
 11  3  1  0  0  0  0
 12 11  1  0  0  0  0
 13 16  1  0  0  0  0
 13 17  1  0  0  0  0
 14 13  1  0  0  0  0
 15 13  1  0  0  0  0
M  RAD  2  11   2  12   3
M  END
