Coordinates from ORCA-job Ph-N2-H-BF4-B3LYPG-6-31G_dp-scan-d09-49-n400
 OpenBabel08281821053D

 18 17  0  0  0  0  0  0  0  0999 V2000
   -1.1606    0.0616    0.5528 C   0  0  0  0  0  0  0  0  0  0  0  0
    0.2002    0.2169    0.3063 C   0  0  0  0  0  0  0  0  0  0  0  0
    0.5891    1.4153   -0.3116 C   0  0  0  0  0  0  0  0  0  0  0  0
   -0.2984    2.4410   -0.6835 C   0  0  0  0  0  0  0  0  0  0  0  0
   -1.6446    2.2496   -0.4092 C   0  0  0  0  0  0  0  0  0  0  0  0
   -2.0709    1.0642    0.2061 C   0  0  0  0  0  0  0  0  0  0  0  0
   -1.5086   -0.8487    1.0290 H   0  0  0  0  0  0  0  0  0  0  0  0
    0.9617   -0.5214    0.5617 H   0  0  0  0  0  0  0  0  0  0  0  0
    0.0672    3.3453   -1.1568 H   0  0  0  0  0  0  0  0  0  0  0  0
   -2.3609    3.0197   -0.6735 H   0  0  0  0  0  0  0  0  0  0  0  0
    1.9295    1.6111   -0.6098 N   0  0  0  0  0  0  0  0  0  0  0  0
    2.9848    1.8013   -0.9128 N   0  0  0  0  0  0  0  0  0  0  0  0
    3.4410   -0.1558    1.3687 B   0  0  0  0  0  0  0  0  0  0  0  0
    2.6788   -1.1495    0.6833 F   0  0  0  0  0  0  0  0  0  0  0  0
    4.3435    0.4112    0.4339 F   0  0  0  0  0  0  0  0  0  0  0  0
    2.5281    0.8698    1.7493 F   0  0  0  0  0  0  0  0  0  0  0  0
    4.0874   -0.6808    2.4543 F   0  0  0  0  0  0  0  0  0  0  0  0
   -3.1268    0.9253    0.4177 H   0  0  0  0  0  0  0  0  0  0  0  0
  1  7  1  0  0  0  0
  2  1  1  0  0  0  0
  2  8  1  0  0  0  0
  3  2  2  0  0  0  0
  4  5  2  0  0  0  0
  4  3  1  0  0  0  0
  5  6  1  0  0  0  0
  6 18  1  0  0  0  0
  6  1  2  0  0  0  0
  9  4  1  0  0  0  0
 10  5  1  0  0  0  0
 11  3  1  0  0  0  0
 12 11  1  0  0  0  0
 13 16  1  0  0  0  0
 13 17  1  0  0  0  0
 14 13  1  0  0  0  0
 15 13  1  0  0  0  0
M  RAD  2  11   2  12   3
M  END
