Coordinates from ORCA-job Ph-N2-H-BF4-B3LYPG-6-31G_dp-scan-d09-49-n400
 OpenBabel08281821063D

 18 17  0  0  0  0  0  0  0  0999 V2000
   -1.3305    0.5147    1.1591 C   0  0  0  0  0  0  0  0  0  0  0  0
    0.0067    0.8614    1.3173 C   0  0  0  0  0  0  0  0  0  0  0  0
    0.5897    1.6163    0.2909 C   0  0  0  0  0  0  0  0  0  0  0  0
   -0.0924    2.0279   -0.8637 C   0  0  0  0  0  0  0  0  0  0  0  0
   -1.4227    1.6512   -0.9914 C   0  0  0  0  0  0  0  0  0  0  0  0
   -2.0384    0.9002    0.0164 C   0  0  0  0  0  0  0  0  0  0  0  0
   -1.8166   -0.0753    1.9286 H   0  0  0  0  0  0  0  0  0  0  0  0
    0.6001    0.5451    2.1640 H   0  0  0  0  0  0  0  0  0  0  0  0
    0.4170    2.6009   -1.6298 H   0  0  0  0  0  0  0  0  0  0  0  0
   -1.9769    1.9407   -1.8775 H   0  0  0  0  0  0  0  0  0  0  0  0
    1.9036    2.0515    0.4195 N   0  0  0  0  0  0  0  0  0  0  0  0
    2.9128    2.5142    0.4812 N   0  0  0  0  0  0  0  0  0  0  0  0
    3.4173   -0.3750    0.5295 B   0  0  0  0  0  0  0  0  0  0  0  0
    2.6177   -0.1692   -0.6262 F   0  0  0  0  0  0  0  0  0  0  0  0
    4.4401    0.5988    0.5197 F   0  0  0  0  0  0  0  0  0  0  0  0
    2.5857   -0.0831    1.6670 F   0  0  0  0  0  0  0  0  0  0  0  0
    3.9048   -1.6519    0.5956 F   0  0  0  0  0  0  0  0  0  0  0  0
   -3.0776    0.6077   -0.0944 H   0  0  0  0  0  0  0  0  0  0  0  0
  1  2  1  0  0  0  0
  1  7  1  0  0  0  0
  2  8  1  0  0  0  0
  3 11  1  0  0  0  0
  3  2  2  0  0  0  0
  4  3  1  0  0  0  0
  5  4  2  0  0  0  0
  5  6  1  0  0  0  0
  6  1  2  0  0  0  0
  9  4  1  0  0  0  0
 10  5  1  0  0  0  0
 11 12  1  0  0  0  0
 13 17  1  0  0  0  0
 13 16  1  0  0  0  0
 14 13  1  0  0  0  0
 15 13  1  0  0  0  0
 18  6  1  0  0  0  0
M  RAD  2  11   2  12   3
M  END
