Coordinates from ORCA-job Ph-N2-H-BF4-B3LYPG-6-31G_dp-scan-d09-49-n400
 OpenBabel08281821053D

 18 17  0  0  0  0  0  0  0  0999 V2000
   -1.1020    0.0807    0.5555 C   0  0  0  0  0  0  0  0  0  0  0  0
    0.2575    0.2686    0.3161 C   0  0  0  0  0  0  0  0  0  0  0  0
    0.6064    1.4693   -0.3241 C   0  0  0  0  0  0  0  0  0  0  0  0
   -0.3079    2.4620   -0.7236 C   0  0  0  0  0  0  0  0  0  0  0  0
   -1.6485    2.2330   -0.4565 C   0  0  0  0  0  0  0  0  0  0  0  0
   -2.0405    1.0460    0.1809 C   0  0  0  0  0  0  0  0  0  0  0  0
   -1.4270   -0.8292    1.0490 H   0  0  0  0  0  0  0  0  0  0  0  0
    1.0541   -0.4482    0.6004 H   0  0  0  0  0  0  0  0  0  0  0  0
    0.0339    3.3672   -1.2128 H   0  0  0  0  0  0  0  0  0  0  0  0
   -2.3878    2.9733   -0.7421 H   0  0  0  0  0  0  0  0  0  0  0  0
    1.9430    1.6936   -0.6118 N   0  0  0  0  0  0  0  0  0  0  0  0
    3.0121    1.8586   -0.8780 N   0  0  0  0  0  0  0  0  0  0  0  0
    3.3798   -0.2031    1.4043 B   0  0  0  0  0  0  0  0  0  0  0  0
    2.4477   -1.1895    0.9260 F   0  0  0  0  0  0  0  0  0  0  0  0
    4.1999    0.1683    0.3117 F   0  0  0  0  0  0  0  0  0  0  0  0
    2.6078    0.9326    1.7669 F   0  0  0  0  0  0  0  0  0  0  0  0
    4.1055   -0.6853    2.4568 F   0  0  0  0  0  0  0  0  0  0  0  0
   -3.0934    0.8780    0.3872 H   0  0  0  0  0  0  0  0  0  0  0  0
  1  7  1  0  0  0  0
  2  1  1  0  0  0  0
  2  8  1  0  0  0  0
  3  2  2  0  0  0  0
  4  5  2  0  0  0  0
  4  3  1  0  0  0  0
  5  6  1  0  0  0  0
  6 18  1  0  0  0  0
  6  1  2  0  0  0  0
  9  4  1  0  0  0  0
 10  5  1  0  0  0  0
 11  3  1  0  0  0  0
 12 11  1  0  0  0  0
 13 16  1  0  0  0  0
 13 17  1  0  0  0  0
 14 13  1  0  0  0  0
 15 13  1  0  0  0  0
M  RAD  2  11   2  12   3
M  END
