Coordinates from ORCA-job Ph-N2-H-BF4-B3LYPG-6-31G_dp-scan-d09-49-n400
 OpenBabel08281821053D

 18 17  0  0  0  0  0  0  0  0999 V2000
   -1.2528    0.0944    0.6087 C   0  0  0  0  0  0  0  0  0  0  0  0
    0.1179    0.2017    0.3961 C   0  0  0  0  0  0  0  0  0  0  0  0
    0.5662    1.3568   -0.2597 C   0  0  0  0  0  0  0  0  0  0  0  0
   -0.2839    2.3873   -0.6997 C   0  0  0  0  0  0  0  0  0  0  0  0
   -1.6433    2.2489   -0.4579 C   0  0  0  0  0  0  0  0  0  0  0  0
   -2.1239    1.1057    0.1937 C   0  0  0  0  0  0  0  0  0  0  0  0
   -1.6392   -0.7855    1.1117 H   0  0  0  0  0  0  0  0  0  0  0  0
    0.8260   -0.5512    0.7098 H   0  0  0  0  0  0  0  0  0  0  0  0
    0.1210    3.2597   -1.2003 H   0  0  0  0  0  0  0  0  0  0  0  0
   -2.3264    3.0286   -0.7765 H   0  0  0  0  0  0  0  0  0  0  0  0
    1.9175    1.5251   -0.5378 N   0  0  0  0  0  0  0  0  0  0  0  0
    2.9557    1.7480   -0.8753 N   0  0  0  0  0  0  0  0  0  0  0  0
    3.5444   -0.1347    1.3100 B   0  0  0  0  0  0  0  0  0  0  0  0
    2.9614   -1.0266    0.3736 F   0  0  0  0  0  0  0  0  0  0  0  0
    4.4508    0.6957    0.6039 F   0  0  0  0  0  0  0  0  0  0  0  0
    2.4893    0.7114    1.7796 F   0  0  0  0  0  0  0  0  0  0  0  0
    4.1486   -0.7951    2.3463 F   0  0  0  0  0  0  0  0  0  0  0  0
   -3.1889    1.0058    0.3798 H   0  0  0  0  0  0  0  0  0  0  0  0
  1  7  1  0  0  0  0
  2  1  1  0  0  0  0
  2  8  1  0  0  0  0
  3  2  2  0  0  0  0
  4  5  2  0  0  0  0
  4  3  1  0  0  0  0
  5  6  1  0  0  0  0
  6 18  1  0  0  0  0
  6  1  2  0  0  0  0
  9  4  1  0  0  0  0
 10  5  1  0  0  0  0
 11  3  1  0  0  0  0
 12 11  1  0  0  0  0
 13 16  1  0  0  0  0
 13 17  1  0  0  0  0
 14 13  1  0  0  0  0
 15 13  1  0  0  0  0
M  RAD  2  11   2  12   3
M  END
