Coordinates from ORCA-job Ph-N2-H-BF4-B3LYPG-6-31G_dp-scan-d09-49-n400
 OpenBabel08281821063D

 18 17  0  0  0  0  0  0  0  0999 V2000
   -1.3511    0.5702    1.2097 C   0  0  0  0  0  0  0  0  0  0  0  0
   -0.0196    0.9274    1.3872 C   0  0  0  0  0  0  0  0  0  0  0  0
    0.5949    1.6231    0.3380 C   0  0  0  0  0  0  0  0  0  0  0  0
   -0.0462    1.9594   -0.8621 C   0  0  0  0  0  0  0  0  0  0  0  0
   -1.3721    1.5733   -1.0085 C   0  0  0  0  0  0  0  0  0  0  0  0
   -2.0213    0.8865    0.0236 C   0  0  0  0  0  0  0  0  0  0  0  0
   -1.8618    0.0269    1.9973 H   0  0  0  0  0  0  0  0  0  0  0  0
    0.5438    0.6616    2.2705 H   0  0  0  0  0  0  0  0  0  0  0  0
    0.4913    2.4790   -1.6465 H   0  0  0  0  0  0  0  0  0  0  0  0
   -1.8968    1.8045   -1.9290 H   0  0  0  0  0  0  0  0  0  0  0  0
    1.9008    2.0691    0.4982 N   0  0  0  0  0  0  0  0  0  0  0  0
    2.9088    2.5281    0.5959 N   0  0  0  0  0  0  0  0  0  0  0  0
    3.3898   -0.3623    0.4382 B   0  0  0  0  0  0  0  0  0  0  0  0
    2.6561   -0.0297   -0.7339 F   0  0  0  0  0  0  0  0  0  0  0  0
    4.4077    0.6060    0.5944 F   0  0  0  0  0  0  0  0  0  0  0  0
    2.4915   -0.1971    1.5469 F   0  0  0  0  0  0  0  0  0  0  0  0
    3.8819   -1.6381    0.3882 F   0  0  0  0  0  0  0  0  0  0  0  0
   -3.0571    0.5881   -0.1022 H   0  0  0  0  0  0  0  0  0  0  0  0
  1  2  1  0  0  0  0
  1  7  1  0  0  0  0
  2  8  1  0  0  0  0
  3 11  1  0  0  0  0
  3  2  2  0  0  0  0
  4  3  1  0  0  0  0
  5  4  2  0  0  0  0
  5  6  1  0  0  0  0
  6  1  2  0  0  0  0
  9  4  1  0  0  0  0
 10  5  1  0  0  0  0
 11 12  1  0  0  0  0
 13 15  1  0  0  0  0
 13 16  1  0  0  0  0
 14 13  1  0  0  0  0
 17 13  1  0  0  0  0
 18  6  1  0  0  0  0
M  RAD  2  11   2  12   3
M  END
