Coordinates from ORCA-job Ph-N2-H-BF4-B3LYPG-6-31G_dp-scan-d09-49-n400
 OpenBabel08281821053D

 18 17  0  0  0  0  0  0  0  0999 V2000
   -1.2032    0.3049    0.9132 C   0  0  0  0  0  0  0  0  0  0  0  0
    0.1550    0.6064    0.9201 C   0  0  0  0  0  0  0  0  0  0  0  0
    0.5827    1.5931    0.0205 C   0  0  0  0  0  0  0  0  0  0  0  0
   -0.2702    2.2808   -0.8611 C   0  0  0  0  0  0  0  0  0  0  0  0
   -1.6159    1.9439   -0.8426 C   0  0  0  0  0  0  0  0  0  0  0  0
   -2.0776    0.9583    0.0401 C   0  0  0  0  0  0  0  0  0  0  0  0
   -1.5774   -0.4556    1.5902 H   0  0  0  0  0  0  0  0  0  0  0  0
    0.8853    0.1345    1.5692 H   0  0  0  0  0  0  0  0  0  0  0  0
    0.1216    3.0363   -1.5333 H   0  0  0  0  0  0  0  0  0  0  0  0
   -2.3035    2.4464   -1.5142 H   0  0  0  0  0  0  0  0  0  0  0  0
    1.9231    1.9519   -0.0159 N   0  0  0  0  0  0  0  0  0  0  0  0
    2.9669    2.3304   -0.1051 N   0  0  0  0  0  0  0  0  0  0  0  0
    3.4640   -0.3876    0.9644 B   0  0  0  0  0  0  0  0  0  0  0  0
    2.4999   -0.5592   -0.0708 F   0  0  0  0  0  0  0  0  0  0  0  0
    4.4187    0.5473    0.5002 F   0  0  0  0  0  0  0  0  0  0  0  0
    2.7697    0.2219    2.0570 F   0  0  0  0  0  0  0  0  0  0  0  0
    4.0332   -1.5766    1.3302 F   0  0  0  0  0  0  0  0  0  0  0  0
   -3.1320    0.6990    0.0438 H   0  0  0  0  0  0  0  0  0  0  0  0
  1  2  1  0  0  0  0
  1  7  1  0  0  0  0
  2  8  1  0  0  0  0
  3  2  2  0  0  0  0
  4  5  2  0  0  0  0
  4  3  1  0  0  0  0
  5  6  1  0  0  0  0
  6 18  1  0  0  0  0
  6  1  2  0  0  0  0
  9  4  1  0  0  0  0
 10  5  1  0  0  0  0
 11  3  1  0  0  0  0
 12 11  1  0  0  0  0
 13 17  1  0  0  0  0
 13 16  1  0  0  0  0
 14 13  1  0  0  0  0
 15 13  1  0  0  0  0
M  RAD  2  11   2  12   3
M  END
