Coordinates from ORCA-job Ph-N2-H-BF4-B3LYPG-6-31G_dp-scan-d09-49-n400
 OpenBabel08281821063D

 18 17  0  0  0  0  0  0  0  0999 V2000
   -1.3075    0.4467    1.0813 C   0  0  0  0  0  0  0  0  0  0  0  0
    0.0447    0.7558    1.1843 C   0  0  0  0  0  0  0  0  0  0  0  0
    0.5776    1.5914    0.1938 C   0  0  0  0  0  0  0  0  0  0  0  0
   -0.1693    2.1159   -0.8738 C   0  0  0  0  0  0  0  0  0  0  0  0
   -1.5123    1.7727   -0.9492 C   0  0  0  0  0  0  0  0  0  0  0  0
   -2.0785    0.9433    0.0260 C   0  0  0  0  0  0  0  0  0  0  0  0
   -1.7572   -0.2008    1.8266 H   0  0  0  0  0  0  0  0  0  0  0  0
    0.6883    0.3624    1.9611 H   0  0  0  0  0  0  0  0  0  0  0  0
    0.3001    2.7537   -1.6143 H   0  0  0  0  0  0  0  0  0  0  0  0
   -2.1154    2.1510   -1.7674 H   0  0  0  0  0  0  0  0  0  0  0  0
    1.9058    1.9973    0.2632 N   0  0  0  0  0  0  0  0  0  0  0  0
    2.9210    2.4523    0.2697 N   0  0  0  0  0  0  0  0  0  0  0  0
    3.4785   -0.3877    0.6854 B   0  0  0  0  0  0  0  0  0  0  0  0
    2.6372   -0.3450   -0.4576 F   0  0  0  0  0  0  0  0  0  0  0  0
    4.4652    0.6121    0.5278 F   0  0  0  0  0  0  0  0  0  0  0  0
    2.6747    0.0070    1.8110 F   0  0  0  0  0  0  0  0  0  0  0  0
    4.0164   -1.6310    0.8801 F   0  0  0  0  0  0  0  0  0  0  0  0
   -3.1290    0.6788   -0.0418 H   0  0  0  0  0  0  0  0  0  0  0  0
  1  2  1  0  0  0  0
  1  7  1  0  0  0  0
  2  8  1  0  0  0  0
  3 11  1  0  0  0  0
  3  2  2  0  0  0  0
  4  3  1  0  0  0  0
  5  4  2  0  0  0  0
  5  6  1  0  0  0  0
  6  1  2  0  0  0  0
  9  4  1  0  0  0  0
 10  5  1  0  0  0  0
 11 12  1  0  0  0  0
 13 17  1  0  0  0  0
 13 16  1  0  0  0  0
 14 13  1  0  0  0  0
 15 13  1  0  0  0  0
 18  6  1  0  0  0  0
M  RAD  2  11   2  12   3
M  END
