Coordinates from ORCA-job Ph-N2-H-BF4-B3LYPG-6-31G_dp-scan-d09-49-n400
 OpenBabel08281821063D

 18 17  0  0  0  0  0  0  0  0999 V2000
   -1.4270    0.7107    1.3087 C   0  0  0  0  0  0  0  0  0  0  0  0
   -0.1195    1.1045    1.5621 C   0  0  0  0  0  0  0  0  0  0  0  0
    0.6043    1.6397    0.4910 C   0  0  0  0  0  0  0  0  0  0  0  0
    0.1107    1.7550   -0.8130 C   0  0  0  0  0  0  0  0  0  0  0  0
   -1.2003    1.3509   -1.0309 C   0  0  0  0  0  0  0  0  0  0  0  0
   -1.9649    0.8383    0.0230 C   0  0  0  0  0  0  0  0  0  0  0  0
   -2.0202    0.2853    2.1105 H   0  0  0  0  0  0  0  0  0  0  0  0
    0.3510    0.9747    2.5279 H   0  0  0  0  0  0  0  0  0  0  0  0
    0.7534    2.1060   -1.6093 H   0  0  0  0  0  0  0  0  0  0  0  0
   -1.6192    1.4178   -2.0290 H   0  0  0  0  0  0  0  0  0  0  0  0
    1.8938    2.0906    0.7412 N   0  0  0  0  0  0  0  0  0  0  0  0
    2.8864    2.5369    0.9662 N   0  0  0  0  0  0  0  0  0  0  0  0
    3.2998   -0.2882    0.1760 B   0  0  0  0  0  0  0  0  0  0  0  0
    2.6029    0.3340   -0.9085 F   0  0  0  0  0  0  0  0  0  0  0  0
    4.3646    0.5649    0.5304 F   0  0  0  0  0  0  0  0  0  0  0  0
    2.3929   -0.3140    1.2820 F   0  0  0  0  0  0  0  0  0  0  0  0
    3.7165   -1.5483   -0.1583 F   0  0  0  0  0  0  0  0  0  0  0  0
   -2.9845    0.5174   -0.1640 H   0  0  0  0  0  0  0  0  0  0  0  0
  1  2  1  0  0  0  0
  1  7  1  0  0  0  0
  2  8  1  0  0  0  0
  3 11  1  0  0  0  0
  3  2  2  0  0  0  0
  4  3  1  0  0  0  0
  5  4  2  0  0  0  0
  5  6  1  0  0  0  0
  6  1  2  0  0  0  0
  9  4  1  0  0  0  0
 10  5  1  0  0  0  0
 11 12  1  0  0  0  0
 13 15  1  0  0  0  0
 13 16  1  0  0  0  0
 14 13  1  0  0  0  0
 17 13  1  0  0  0  0
 18  6  1  0  0  0  0
M  RAD  2  11   2  12   3
M  END
