Coordinates from ORCA-job Ph-N2-H-BF4-B3LYPG-6-31G_dp-scan-d09-49-n400
 OpenBabel08281821063D

 18 17  0  0  0  0  0  0  0  0999 V2000
   -1.4211    0.7026    1.3047 C   0  0  0  0  0  0  0  0  0  0  0  0
   -0.1131    1.0967    1.5551 C   0  0  0  0  0  0  0  0  0  0  0  0
    0.6047    1.6422    0.4848 C   0  0  0  0  0  0  0  0  0  0  0  0
    0.1054    1.7656   -0.8164 C   0  0  0  0  0  0  0  0  0  0  0  0
   -1.2057    1.3604   -1.0313 C   0  0  0  0  0  0  0  0  0  0  0  0
   -1.9647    0.8391    0.0224 C   0  0  0  0  0  0  0  0  0  0  0  0
   -2.0097    0.2697    2.1059 H   0  0  0  0  0  0  0  0  0  0  0  0
    0.3654    0.9571    2.5156 H   0  0  0  0  0  0  0  0  0  0  0  0
    0.7435    2.1242   -1.6130 H   0  0  0  0  0  0  0  0  0  0  0  0
   -1.6291    1.4332   -2.0271 H   0  0  0  0  0  0  0  0  0  0  0  0
    1.8942    2.0944    0.7322 N   0  0  0  0  0  0  0  0  0  0  0  0
    2.8878    2.5413    0.9514 N   0  0  0  0  0  0  0  0  0  0  0  0
    3.2979   -0.2916    0.1884 B   0  0  0  0  0  0  0  0  0  0  0  0
    2.5957    0.3186   -0.8989 F   0  0  0  0  0  0  0  0  0  0  0  0
    4.3638    0.5658    0.5296 F   0  0  0  0  0  0  0  0  0  0  0  0
    2.3953   -0.3063    1.2985 F   0  0  0  0  0  0  0  0  0  0  0  0
    3.7149   -1.5549   -0.1334 F   0  0  0  0  0  0  0  0  0  0  0  0
   -2.9846    0.5179   -0.1625 H   0  0  0  0  0  0  0  0  0  0  0  0
  1  2  1  0  0  0  0
  1  7  1  0  0  0  0
  2  8  1  0  0  0  0
  3 11  1  0  0  0  0
  3  2  2  0  0  0  0
  4  3  1  0  0  0  0
  5  4  2  0  0  0  0
  5  6  1  0  0  0  0
  6  1  2  0  0  0  0
  9  4  1  0  0  0  0
 10  5  1  0  0  0  0
 11 12  1  0  0  0  0
 13 15  1  0  0  0  0
 13 16  1  0  0  0  0
 14 13  1  0  0  0  0
 17 13  1  0  0  0  0
 18  6  1  0  0  0  0
M  RAD  2  11   2  12   3
M  END
