Coordinates from ORCA-job Ph-N2-H-BF4-B3LYPG-6-31G_dp-scan-d09-49-n400
 OpenBabel08281821053D

 18 17  0  0  0  0  0  0  0  0999 V2000
   -1.0972    0.0836    0.5616 C   0  0  0  0  0  0  0  0  0  0  0  0
    0.2628    0.2720    0.3229 C   0  0  0  0  0  0  0  0  0  0  0  0
    0.6079    1.4707   -0.3231 C   0  0  0  0  0  0  0  0  0  0  0  0
   -0.3080    2.4597   -0.7294 C   0  0  0  0  0  0  0  0  0  0  0  0
   -1.6482    2.2290   -0.4629 C   0  0  0  0  0  0  0  0  0  0  0  0
   -2.0377    1.0443    0.1806 C   0  0  0  0  0  0  0  0  0  0  0  0
   -1.4214   -0.8240    1.0599 H   0  0  0  0  0  0  0  0  0  0  0  0
    1.0662   -0.4422    0.6131 H   0  0  0  0  0  0  0  0  0  0  0  0
    0.0324    3.3630   -1.2233 H   0  0  0  0  0  0  0  0  0  0  0  0
   -2.3890    2.9659   -0.7534 H   0  0  0  0  0  0  0  0  0  0  0  0
    1.9439    1.6974   -0.6110 N   0  0  0  0  0  0  0  0  0  0  0  0
    3.0126    1.8659   -0.8765 N   0  0  0  0  0  0  0  0  0  0  0  0
    3.3751   -0.2031    1.4037 B   0  0  0  0  0  0  0  0  0  0  0  0
    2.4246   -1.1727    0.9149 F   0  0  0  0  0  0  0  0  0  0  0  0
    4.2018    0.1607    0.3163 F   0  0  0  0  0  0  0  0  0  0  0  0
    2.6176    0.9393    1.7717 F   0  0  0  0  0  0  0  0  0  0  0  0
    4.0873   -0.7085    2.4540 F   0  0  0  0  0  0  0  0  0  0  0  0
   -3.0904    0.8749    0.3869 H   0  0  0  0  0  0  0  0  0  0  0  0
  1  7  1  0  0  0  0
  2  1  1  0  0  0  0
  2  8  1  0  0  0  0
  3  2  2  0  0  0  0
  4  5  2  0  0  0  0
  4  3  1  0  0  0  0
  5  6  1  0  0  0  0
  6 18  1  0  0  0  0
  6  1  2  0  0  0  0
  9  4  1  0  0  0  0
 10  5  1  0  0  0  0
 11  3  1  0  0  0  0
 12 11  1  0  0  0  0
 13 16  1  0  0  0  0
 13 17  1  0  0  0  0
 14 13  1  0  0  0  0
 15 13  1  0  0  0  0
M  RAD  2  11   2  12   3
M  END
