Coordinates from ORCA-job Ph-N2-H-BF4-B3LYPG-6-31G_dp-scan-d09-49-n400
 OpenBabel08281821053D

 18 17  0  0  0  0  0  0  0  0999 V2000
   -1.2608    0.0989    0.6129 C   0  0  0  0  0  0  0  0  0  0  0  0
    0.1107    0.2049    0.4054 C   0  0  0  0  0  0  0  0  0  0  0  0
    0.5626    1.3569   -0.2531 C   0  0  0  0  0  0  0  0  0  0  0  0
   -0.2852    2.3860   -0.7007 C   0  0  0  0  0  0  0  0  0  0  0  0
   -1.6456    2.2495   -0.4634 C   0  0  0  0  0  0  0  0  0  0  0  0
   -2.1296    1.1092    0.1904 C   0  0  0  0  0  0  0  0  0  0  0  0
   -1.6497   -0.7787    1.1178 H   0  0  0  0  0  0  0  0  0  0  0  0
    0.8164   -0.5461    0.7268 H   0  0  0  0  0  0  0  0  0  0  0  0
    0.1223    3.2562   -1.2033 H   0  0  0  0  0  0  0  0  0  0  0  0
   -2.3268    3.0286   -0.7875 H   0  0  0  0  0  0  0  0  0  0  0  0
    1.9151    1.5219   -0.5292 N   0  0  0  0  0  0  0  0  0  0  0  0
    2.9514    1.7483   -0.8701 N   0  0  0  0  0  0  0  0  0  0  0  0
    3.5571   -0.1398    1.3038 B   0  0  0  0  0  0  0  0  0  0  0  0
    2.9958   -1.0317    0.3563 F   0  0  0  0  0  0  0  0  0  0  0  0
    4.4557    0.7127    0.6148 F   0  0  0  0  0  0  0  0  0  0  0  0
    2.4835    0.6866    1.7717 F   0  0  0  0  0  0  0  0  0  0  0  0
    4.1629   -0.7978    2.3407 F   0  0  0  0  0  0  0  0  0  0  0  0
   -3.1954    1.0106    0.3725 H   0  0  0  0  0  0  0  0  0  0  0  0
  1  7  1  0  0  0  0
  2  1  1  0  0  0  0
  2  8  1  0  0  0  0
  3  2  2  0  0  0  0
  4  5  2  0  0  0  0
  4  3  1  0  0  0  0
  5  6  1  0  0  0  0
  6 18  1  0  0  0  0
  6  1  2  0  0  0  0
  9  4  1  0  0  0  0
 10  5  1  0  0  0  0
 11  3  1  0  0  0  0
 12 11  1  0  0  0  0
 13 16  1  0  0  0  0
 13 17  1  0  0  0  0
 14 13  1  0  0  0  0
 15 13  1  0  0  0  0
M  RAD  2  11   2  12   3
M  END
