Coordinates from ORCA-job Ph-N2-H-BF4-B3LYPG-6-31G_dp-scan-d09-49-n400
 OpenBabel08281821053D

 18 17  0  0  0  0  0  0  0  0999 V2000
   -1.2189    0.0851    0.6030 C   0  0  0  0  0  0  0  0  0  0  0  0
    0.1487    0.2073    0.3784 C   0  0  0  0  0  0  0  0  0  0  0  0
    0.5771    1.3723   -0.2737 C   0  0  0  0  0  0  0  0  0  0  0  0
   -0.2862    2.3971   -0.7018 C   0  0  0  0  0  0  0  0  0  0  0  0
   -1.6416    2.2416   -0.4499 C   0  0  0  0  0  0  0  0  0  0  0  0
   -2.1037    1.0897    0.2005 C   0  0  0  0  0  0  0  0  0  0  0  0
   -1.5925   -0.8013    1.1041 H   0  0  0  0  0  0  0  0  0  0  0  0
    0.8774   -0.5386    0.6705 H   0  0  0  0  0  0  0  0  0  0  0  0
    0.1055    3.2763   -1.2010 H   0  0  0  0  0  0  0  0  0  0  0  0
   -2.3366    3.0145   -0.7595 H   0  0  0  0  0  0  0  0  0  0  0  0
    1.9251    1.5508   -0.5561 N   0  0  0  0  0  0  0  0  0  0  0  0
    2.9684    1.7690   -0.8803 N   0  0  0  0  0  0  0  0  0  0  0  0
    3.5024   -0.1346    1.3250 B   0  0  0  0  0  0  0  0  0  0  0  0
    2.8377   -1.0199    0.4292 F   0  0  0  0  0  0  0  0  0  0  0  0
    4.4322    0.6182    0.5663 F   0  0  0  0  0  0  0  0  0  0  0  0
    2.5118    0.7775    1.7992 F   0  0  0  0  0  0  0  0  0  0  0  0
    4.1000   -0.8066    2.3571 F   0  0  0  0  0  0  0  0  0  0  0  0
   -3.1661    0.9776    0.3948 H   0  0  0  0  0  0  0  0  0  0  0  0
  1  7  1  0  0  0  0
  2  1  1  0  0  0  0
  2  8  1  0  0  0  0
  3  2  2  0  0  0  0
  4  5  2  0  0  0  0
  4  3  1  0  0  0  0
  5  6  1  0  0  0  0
  6 18  1  0  0  0  0
  6  1  2  0  0  0  0
  9  4  1  0  0  0  0
 10  5  1  0  0  0  0
 11  3  1  0  0  0  0
 12 11  1  0  0  0  0
 13 16  1  0  0  0  0
 13 17  1  0  0  0  0
 14 13  1  0  0  0  0
 15 13  1  0  0  0  0
M  RAD  2  11   2  12   3
M  END
