Coordinates from ORCA-job Ph-N2-H-BF4-B3LYPG-6-31G_dp-scan-d09-49-n400
 OpenBabel08281821063D

 18 17  0  0  0  0  0  0  0  0999 V2000
   -1.8296    1.7289    1.2421 C   0  0  0  0  0  0  0  0  0  0  0  0
   -0.5496    1.7170    1.7760 C   0  0  0  0  0  0  0  0  0  0  0  0
    0.4593    1.0852    1.0225 C   0  0  0  0  0  0  0  0  0  0  0  0
    0.2423    0.4538   -0.2119 C   0  0  0  0  0  0  0  0  0  0  0  0
   -1.0586    0.4845   -0.7063 C   0  0  0  0  0  0  0  0  0  0  0  0
   -2.0800    1.1191    0.0048 C   0  0  0  0  0  0  0  0  0  0  0  0
   -2.6331    2.2105    1.7884 H   0  0  0  0  0  0  0  0  0  0  0  0
   -0.3360    2.1733    2.7373 H   0  0  0  0  0  0  0  0  0  0  0  0
    1.0724   -0.0378   -0.7142 H   0  0  0  0  0  0  0  0  0  0  0  0
   -1.2703    0.0101   -1.6581 H   0  0  0  0  0  0  0  0  0  0  0  0
    1.7358    1.0743    1.5650 N   0  0  0  0  0  0  0  0  0  0  0  0
    2.7336    1.0722    2.0624 N   0  0  0  0  0  0  0  0  0  0  0  0
    3.6774    0.3682   -0.7300 B   0  0  0  0  0  0  0  0  0  0  0  0
    2.8296    1.5080   -0.7951 F   0  0  0  0  0  0  0  0  0  0  0  0
    4.3576    0.4211    0.5161 F   0  0  0  0  0  0  0  0  0  0  0  0
    2.8259   -0.7747   -0.7062 F   0  0  0  0  0  0  0  0  0  0  0  0
    4.5501    0.3250   -1.7841 F   0  0  0  0  0  0  0  0  0  0  0  0
   -3.0862    1.1374   -0.4030 H   0  0  0  0  0  0  0  0  0  0  0  0
  1  2  1  0  0  0  0
  1  7  1  0  0  0  0
  2  8  1  0  0  0  0
  3 11  1  0  0  0  0
  3  2  2  0  0  0  0
  4  3  1  0  0  0  0
  5  4  2  0  0  0  0
  5  6  1  0  0  0  0
  6  1  2  0  0  0  0
  9  4  1  0  0  0  0
 10  5  1  0  0  0  0
 11 12  1  0  0  0  0
 13 16  1  0  0  0  0
 13 15  1  0  0  0  0
 14 13  1  0  0  0  0
 17 13  1  0  0  0  0
 18  6  1  0  0  0  0
M  RAD  2  11   2  12   3
M  END
