Coordinates from ORCA-job Ph-N2-H-BF4-B3LYPG-6-31G_dp-scan-d09-49-n400
 OpenBabel08281821063D

 18 17  0  0  0  0  0  0  0  0999 V2000
   -1.5606    0.8745    1.3684 C   0  0  0  0  0  0  0  0  0  0  0  0
   -0.2529    1.2335    1.6666 C   0  0  0  0  0  0  0  0  0  0  0  0
    0.5822    1.5720    0.5957 C   0  0  0  0  0  0  0  0  0  0  0  0
    0.1880    1.5492   -0.7468 C   0  0  0  0  0  0  0  0  0  0  0  0
   -1.1309    1.1959   -1.0074 C   0  0  0  0  0  0  0  0  0  0  0  0
   -1.9980    0.8635    0.0386 C   0  0  0  0  0  0  0  0  0  0  0  0
   -2.2346    0.5942    2.1703 H   0  0  0  0  0  0  0  0  0  0  0  0
    0.1347    1.2289    2.6774 H   0  0  0  0  0  0  0  0  0  0  0  0
    0.9136    1.7470   -1.5226 H   0  0  0  0  0  0  0  0  0  0  0  0
   -1.4764    1.1611   -2.0349 H   0  0  0  0  0  0  0  0  0  0  0  0
    1.8700    1.9875    0.9097 N   0  0  0  0  0  0  0  0  0  0  0  0
    2.8565    2.4066    1.2041 N   0  0  0  0  0  0  0  0  0  0  0  0
    3.3802   -0.2210   -0.0349 B   0  0  0  0  0  0  0  0  0  0  0  0
    2.7331    0.5636   -1.0464 F   0  0  0  0  0  0  0  0  0  0  0  0
    4.3854    0.5889    0.5339 F   0  0  0  0  0  0  0  0  0  0  0  0
    2.3992   -0.4591    0.9711 F   0  0  0  0  0  0  0  0  0  0  0  0
    3.8720   -1.3888   -0.5520 F   0  0  0  0  0  0  0  0  0  0  0  0
   -3.0210    0.5784   -0.1850 H   0  0  0  0  0  0  0  0  0  0  0  0
  1  2  1  0  0  0  0
  1  7  1  0  0  0  0
  2  8  1  0  0  0  0
  3 11  1  0  0  0  0
  3  2  2  0  0  0  0
  4  3  1  0  0  0  0
  5  4  2  0  0  0  0
  5  6  1  0  0  0  0
  6  1  2  0  0  0  0
  9  4  1  0  0  0  0
 10  5  1  0  0  0  0
 11 12  1  0  0  0  0
 13 15  1  0  0  0  0
 13 16  1  0  0  0  0
 14 13  1  0  0  0  0
 17 13  1  0  0  0  0
 18  6  1  0  0  0  0
M  RAD  2  11   2  12   3
M  END
