Coordinates from ORCA-job Ph-N2-H-BF4-B3LYPG-6-31G_dp-scan-d09-49-n400
 OpenBabel08281821063D

 18 17  0  0  0  0  0  0  0  0999 V2000
   -1.6331    1.0101    1.3955 C   0  0  0  0  0  0  0  0  0  0  0  0
   -0.3174    1.3344    1.6954 C   0  0  0  0  0  0  0  0  0  0  0  0
    0.5695    1.5148    0.6270 C   0  0  0  0  0  0  0  0  0  0  0  0
    0.2144    1.3754   -0.7189 C   0  0  0  0  0  0  0  0  0  0  0  0
   -1.1147    1.0650   -0.9836 C   0  0  0  0  0  0  0  0  0  0  0  0
   -2.0299    0.8852    0.0589 C   0  0  0  0  0  0  0  0  0  0  0  0
   -2.3435    0.8491    2.1989 H   0  0  0  0  0  0  0  0  0  0  0  0
    0.0554    1.4204    2.7068 H   0  0  0  0  0  0  0  0  0  0  0  0
    0.9780    1.4568   -1.4796 H   0  0  0  0  0  0  0  0  0  0  0  0
   -1.4327    0.9422   -2.0133 H   0  0  0  0  0  0  0  0  0  0  0  0
    1.8590    1.8918    0.9874 N   0  0  0  0  0  0  0  0  0  0  0  0
    2.8189    2.2722    1.3993 N   0  0  0  0  0  0  0  0  0  0  0  0
    3.4445   -0.1549   -0.1476 B   0  0  0  0  0  0  0  0  0  0  0  0
    2.8857    0.8560   -1.0148 F   0  0  0  0  0  0  0  0  0  0  0  0
    4.3991    0.4923    0.6574 F   0  0  0  0  0  0  0  0  0  0  0  0
    2.3771   -0.5802    0.6862 F   0  0  0  0  0  0  0  0  0  0  0  0
    3.9698   -1.1851   -0.8779 F   0  0  0  0  0  0  0  0  0  0  0  0
   -3.0597    0.6307   -0.1710 H   0  0  0  0  0  0  0  0  0  0  0  0
  1  2  1  0  0  0  0
  1  7  1  0  0  0  0
  2  8  1  0  0  0  0
  3 11  1  0  0  0  0
  3  2  2  0  0  0  0
  4  3  1  0  0  0  0
  5  4  2  0  0  0  0
  5  6  1  0  0  0  0
  6  1  2  0  0  0  0
  9  4  1  0  0  0  0
 10  5  1  0  0  0  0
 11 12  1  0  0  0  0
 13 15  1  0  0  0  0
 13 16  1  0  0  0  0
 14 13  1  0  0  0  0
 17 13  1  0  0  0  0
 18  6  1  0  0  0  0
M  RAD  2  11   2  12   3
M  END
