Coordinates from ORCA-job Ph-N2-H-BF4-B3LYPG-6-31G_dp-scan-d09-49-n400
 OpenBabel08281821053D

 18 17  0  0  0  0  0  0  0  0999 V2000
   -1.2629    0.0996    0.6134 C   0  0  0  0  0  0  0  0  0  0  0  0
    0.1088    0.2043    0.4064 C   0  0  0  0  0  0  0  0  0  0  0  0
    0.5621    1.3555   -0.2526 C   0  0  0  0  0  0  0  0  0  0  0  0
   -0.2850    2.3848   -0.7010 C   0  0  0  0  0  0  0  0  0  0  0  0
   -1.6456    2.2495   -0.4644 C   0  0  0  0  0  0  0  0  0  0  0  0
   -2.1309    1.1100    0.1899 C   0  0  0  0  0  0  0  0  0  0  0  0
   -1.6525   -0.7775    1.1189 H   0  0  0  0  0  0  0  0  0  0  0  0
    0.8131   -0.5472    0.7303 H   0  0  0  0  0  0  0  0  0  0  0  0
    0.1232    3.2544   -1.2039 H   0  0  0  0  0  0  0  0  0  0  0  0
   -2.3260    3.0290   -0.7894 H   0  0  0  0  0  0  0  0  0  0  0  0
    1.9148    1.5219   -0.5275 N   0  0  0  0  0  0  0  0  0  0  0  0
    2.9508    1.7502   -0.8679 N   0  0  0  0  0  0  0  0  0  0  0  0
    3.5595   -0.1403    1.3024 B   0  0  0  0  0  0  0  0  0  0  0  0
    3.0020   -1.0319    0.3532 F   0  0  0  0  0  0  0  0  0  0  0  0
    4.4563    0.7160    0.6156 F   0  0  0  0  0  0  0  0  0  0  0  0
    2.4838    0.6835    1.7718 F   0  0  0  0  0  0  0  0  0  0  0  0
    4.1657   -0.7983    2.3392 F   0  0  0  0  0  0  0  0  0  0  0  0
   -3.1968    1.0124    0.3717 H   0  0  0  0  0  0  0  0  0  0  0  0
  1  7  1  0  0  0  0
  2  1  1  0  0  0  0
  2  8  1  0  0  0  0
  3  2  2  0  0  0  0
  4  5  2  0  0  0  0
  4  3  1  0  0  0  0
  5  6  1  0  0  0  0
  6 18  1  0  0  0  0
  6  1  2  0  0  0  0
  9  4  1  0  0  0  0
 10  5  1  0  0  0  0
 11  3  1  0  0  0  0
 12 11  1  0  0  0  0
 13 16  1  0  0  0  0
 13 17  1  0  0  0  0
 14 13  1  0  0  0  0
 15 13  1  0  0  0  0
M  RAD  2  11   2  12   3
M  END
