Coordinates from ORCA-job Ph-N2-H-BF4-B3LYPG-6-31G_dp-scan-d09-49-n400
 OpenBabel08281821063D

 18 17  0  0  0  0  0  0  0  0999 V2000
   -1.4434    0.7313    1.3186 C   0  0  0  0  0  0  0  0  0  0  0  0
   -0.1366    1.1228    1.5789 C   0  0  0  0  0  0  0  0  0  0  0  0
    0.6027    1.6334    0.5064 C   0  0  0  0  0  0  0  0  0  0  0  0
    0.1247    1.7275   -0.8051 C   0  0  0  0  0  0  0  0  0  0  0  0
   -1.1868    1.3282   -1.0294 C   0  0  0  0  0  0  0  0  0  0  0  0
   -1.9662    0.8393    0.0248 C   0  0  0  0  0  0  0  0  0  0  0  0
   -2.0479    0.3241    2.1214 H   0  0  0  0  0  0  0  0  0  0  0  0
    0.3218    1.0101    2.5527 H   0  0  0  0  0  0  0  0  0  0  0  0
    0.7801    2.0569   -1.5999 H   0  0  0  0  0  0  0  0  0  0  0  0
   -1.5944    1.3795   -2.0331 H   0  0  0  0  0  0  0  0  0  0  0  0
    1.8913    2.0815    0.7661 N   0  0  0  0  0  0  0  0  0  0  0  0
    2.8825    2.5258    1.0008 N   0  0  0  0  0  0  0  0  0  0  0  0
    3.3045   -0.2789    0.1461 B   0  0  0  0  0  0  0  0  0  0  0  0
    2.6152    0.3690   -0.9291 F   0  0  0  0  0  0  0  0  0  0  0  0
    4.3650    0.5668    0.5291 F   0  0  0  0  0  0  0  0  0  0  0  0
    2.3878   -0.3333    1.2419 F   0  0  0  0  0  0  0  0  0  0  0  0
    3.7261   -1.5296   -0.2166 F   0  0  0  0  0  0  0  0  0  0  0  0
   -2.9857    0.5215   -0.1677 H   0  0  0  0  0  0  0  0  0  0  0  0
  1  2  1  0  0  0  0
  1  7  1  0  0  0  0
  2  8  1  0  0  0  0
  3 11  1  0  0  0  0
  3  2  2  0  0  0  0
  4  3  1  0  0  0  0
  5  4  2  0  0  0  0
  5  6  1  0  0  0  0
  6  1  2  0  0  0  0
  9  4  1  0  0  0  0
 10  5  1  0  0  0  0
 11 12  1  0  0  0  0
 13 15  1  0  0  0  0
 13 16  1  0  0  0  0
 14 13  1  0  0  0  0
 17 13  1  0  0  0  0
 18  6  1  0  0  0  0
M  RAD  2  11   2  12   3
M  END
