Coordinates from ORCA-job Ph-N2-H-BF4-B3LYPG-6-31G_dp-scan-d09-49-n400
 OpenBabel08281821063D

 18 17  0  0  0  0  0  0  0  0999 V2000
   -1.4536    0.7444    1.3246 C   0  0  0  0  0  0  0  0  0  0  0  0
   -0.1470    1.1334    1.5881 C   0  0  0  0  0  0  0  0  0  0  0  0
    0.6013    1.6294    0.5148 C   0  0  0  0  0  0  0  0  0  0  0  0
    0.1328    1.7103   -0.8009 C   0  0  0  0  0  0  0  0  0  0  0  0
   -1.1794    1.3149   -1.0283 C   0  0  0  0  0  0  0  0  0  0  0  0
   -1.9678    0.8416    0.0264 C   0  0  0  0  0  0  0  0  0  0  0  0
   -2.0648    0.3481    2.1279 H   0  0  0  0  0  0  0  0  0  0  0  0
    0.3079    1.0280    2.5646 H   0  0  0  0  0  0  0  0  0  0  0  0
    0.7959    2.0257   -1.5948 H   0  0  0  0  0  0  0  0  0  0  0  0
   -1.5807    1.3566   -2.0350 H   0  0  0  0  0  0  0  0  0  0  0  0
    1.8892    2.0758    0.7807 N   0  0  0  0  0  0  0  0  0  0  0  0
    2.8798    2.5182    1.0215 N   0  0  0  0  0  0  0  0  0  0  0  0
    3.3080   -0.2732    0.1289 B   0  0  0  0  0  0  0  0  0  0  0  0
    2.6224    0.3896   -0.9402 F   0  0  0  0  0  0  0  0  0  0  0  0
    4.3643    0.5696    0.5303 F   0  0  0  0  0  0  0  0  0  0  0  0
    2.3839   -0.3464    1.2168 F   0  0  0  0  0  0  0  0  0  0  0  0
    3.7359   -1.5167   -0.2504 F   0  0  0  0  0  0  0  0  0  0  0  0
   -2.9877    0.5267   -0.1691 H   0  0  0  0  0  0  0  0  0  0  0  0
  1  2  1  0  0  0  0
  1  7  1  0  0  0  0
  2  8  1  0  0  0  0
  3 11  1  0  0  0  0
  3  2  2  0  0  0  0
  4  3  1  0  0  0  0
  5  4  2  0  0  0  0
  5  6  1  0  0  0  0
  6  1  2  0  0  0  0
  9  4  1  0  0  0  0
 10  5  1  0  0  0  0
 11 12  1  0  0  0  0
 13 15  1  0  0  0  0
 13 16  1  0  0  0  0
 14 13  1  0  0  0  0
 17 13  1  0  0  0  0
 18  6  1  0  0  0  0
M  RAD  2  11   2  12   3
M  END
