Coordinates from ORCA-job Ph-N2-H-BF4-B3LYPG-6-31G_dp-scan-d09-49-n400
 OpenBabel08281821053D

 18 17  0  0  0  0  0  0  0  0999 V2000
   -1.2463    0.1955    0.7588 C   0  0  0  0  0  0  0  0  0  0  0  0
    0.1298    0.3765    0.6538 C   0  0  0  0  0  0  0  0  0  0  0  0
    0.5658    1.4585   -0.1238 C   0  0  0  0  0  0  0  0  0  0  0  0
   -0.3030    2.3438   -0.7905 C   0  0  0  0  0  0  0  0  0  0  0  0
   -1.6670    2.1297   -0.6602 C   0  0  0  0  0  0  0  0  0  0  0  0
   -2.1350    1.0577    0.1118 C   0  0  0  0  0  0  0  0  0  0  0  0
   -1.6235   -0.6293    1.3538 H   0  0  0  0  0  0  0  0  0  0  0  0
    0.8598   -0.2447    1.1531 H   0  0  0  0  0  0  0  0  0  0  0  0
    0.0922    3.1631   -1.3811 H   0  0  0  0  0  0  0  0  0  0  0  0
   -2.3642    2.7946   -1.1582 H   0  0  0  0  0  0  0  0  0  0  0  0
    1.9220    1.7104   -0.2928 N   0  0  0  0  0  0  0  0  0  0  0  0
    2.9609    2.0438   -0.5208 N   0  0  0  0  0  0  0  0  0  0  0  0
    3.5570   -0.2793    1.1544 B   0  0  0  0  0  0  0  0  0  0  0  0
    2.8214   -0.8444    0.0831 F   0  0  0  0  0  0  0  0  0  0  0  0
    4.4642    0.6643    0.6069 F   0  0  0  0  0  0  0  0  0  0  0  0
    2.6145    0.4622    1.9382 F   0  0  0  0  0  0  0  0  0  0  0  0
    4.1965   -1.2240    1.9106 F   0  0  0  0  0  0  0  0  0  0  0  0
   -3.2047    0.8976    0.2087 H   0  0  0  0  0  0  0  0  0  0  0  0
  1  7  1  0  0  0  0
  2  1  1  0  0  0  0
  2  8  1  0  0  0  0
  3  2  2  0  0  0  0
  4  5  2  0  0  0  0
  4  3  1  0  0  0  0
  5  6  1  0  0  0  0
  6 18  1  0  0  0  0
  6  1  2  0  0  0  0
  9  4  1  0  0  0  0
 10  5  1  0  0  0  0
 11  3  1  0  0  0  0
 12 11  1  0  0  0  0
 13 17  1  0  0  0  0
 13 16  1  0  0  0  0
 14 13  1  0  0  0  0
 15 13  1  0  0  0  0
M  RAD  2  11   2  12   3
M  END
