Coordinates from ORCA-job Ph-N2-H-BF4-B3LYPG-6-31G_dp-scan-d09-49-n400
 OpenBabel08281821053D

 18 17  0  0  0  0  0  0  0  0999 V2000
   -1.0725    0.0848    0.5632 C   0  0  0  0  0  0  0  0  0  0  0  0
    0.2863    0.2798    0.3162 C   0  0  0  0  0  0  0  0  0  0  0  0
    0.6122    1.4820   -0.3348 C   0  0  0  0  0  0  0  0  0  0  0  0
   -0.3126    2.4643   -0.7395 C   0  0  0  0  0  0  0  0  0  0  0  0
   -1.6486    2.2230   -0.4646 C   0  0  0  0  0  0  0  0  0  0  0  0
   -2.0233    1.0363    0.1858 C   0  0  0  0  0  0  0  0  0  0  0  0
   -1.3882   -0.8231    1.0671 H   0  0  0  0  0  0  0  0  0  0  0  0
    1.1141   -0.4338    0.6103 H   0  0  0  0  0  0  0  0  0  0  0  0
    0.0178    3.3690   -1.2376 H   0  0  0  0  0  0  0  0  0  0  0  0
   -2.3979    2.9522   -0.7524 H   0  0  0  0  0  0  0  0  0  0  0  0
    1.9458    1.7191   -0.6237 N   0  0  0  0  0  0  0  0  0  0  0  0
    3.0176    1.8875   -0.8763 N   0  0  0  0  0  0  0  0  0  0  0  0
    3.3522   -0.2058    1.4112 B   0  0  0  0  0  0  0  0  0  0  0  0
    2.3487   -1.1455    0.9343 F   0  0  0  0  0  0  0  0  0  0  0  0
    4.1723    0.1150    0.3110 F   0  0  0  0  0  0  0  0  0  0  0  0
    2.6401    0.9586    1.7839 F   0  0  0  0  0  0  0  0  0  0  0  0
    4.0498   -0.7468    2.4519 F   0  0  0  0  0  0  0  0  0  0  0  0
   -3.0733    0.8593    0.3998 H   0  0  0  0  0  0  0  0  0  0  0  0
  1  7  1  0  0  0  0
  2  1  1  0  0  0  0
  2  8  1  0  0  0  0
  3  2  2  0  0  0  0
  4  5  2  0  0  0  0
  4  3  1  0  0  0  0
  5  6  1  0  0  0  0
  6 18  1  0  0  0  0
  6  1  2  0  0  0  0
  9  4  1  0  0  0  0
 10  5  1  0  0  0  0
 11  3  1  0  0  0  0
 12 11  1  0  0  0  0
 13 16  1  0  0  0  0
 13 17  1  0  0  0  0
 14 13  1  0  0  0  0
 15 13  1  0  0  0  0
M  RAD  2  11   2  12   3
M  END
