Coordinates from ORCA-job Ph-N2-H-BF4-B3LYPG-6-31G_dp-scan-d09-49-n400
 OpenBabel08281821063D

 18 17  0  0  0  0  0  0  0  0999 V2000
   -1.2451    0.3768    0.9930 C   0  0  0  0  0  0  0  0  0  0  0  0
    0.1132    0.6754    1.0243 C   0  0  0  0  0  0  0  0  0  0  0  0
    0.5765    1.5953    0.0735 C   0  0  0  0  0  0  0  0  0  0  0  0
   -0.2415    2.2116   -0.8892 C   0  0  0  0  0  0  0  0  0  0  0  0
   -1.5881    1.8757   -0.8959 C   0  0  0  0  0  0  0  0  0  0  0  0
   -2.0864    0.9639    0.0435 C   0  0  0  0  0  0  0  0  0  0  0  0
   -1.6449   -0.3309    1.7115 H   0  0  0  0  0  0  0  0  0  0  0  0
    0.8156    0.2332    1.7246 H   0  0  0  0  0  0  0  0  0  0  0  0
    0.1764    2.9132   -1.6026 H   0  0  0  0  0  0  0  0  0  0  0  0
   -2.2480    2.3236   -1.6308 H   0  0  0  0  0  0  0  0  0  0  0  0
    1.9126    1.9762    0.0789 N   0  0  0  0  0  0  0  0  0  0  0  0
    2.9474    2.3847    0.0318 N   0  0  0  0  0  0  0  0  0  0  0  0
    3.4828   -0.4033    0.8641 B   0  0  0  0  0  0  0  0  0  0  0  0
    2.5973   -0.4499   -0.2482 F   0  0  0  0  0  0  0  0  0  0  0  0
    4.4324    0.6149    0.6083 F   0  0  0  0  0  0  0  0  0  0  0  0
    2.7102    0.0245    1.9927 F   0  0  0  0  0  0  0  0  0  0  0  0
    4.0714   -1.6168    1.0957 F   0  0  0  0  0  0  0  0  0  0  0  0
   -3.1415    0.7081    0.0305 H   0  0  0  0  0  0  0  0  0  0  0  0
  1  2  1  0  0  0  0
  1  7  1  0  0  0  0
  2  8  1  0  0  0  0
  3 11  1  0  0  0  0
  3  2  2  0  0  0  0
  4  3  1  0  0  0  0
  5  4  2  0  0  0  0
  5  6  1  0  0  0  0
  6  1  2  0  0  0  0
  9  4  1  0  0  0  0
 10  5  1  0  0  0  0
 12 11  1  0  0  0  0
 13 17  1  0  0  0  0
 13 16  1  0  0  0  0
 14 13  1  0  0  0  0
 15 13  1  0  0  0  0
 18  6  1  0  0  0  0
M  RAD  2  11   2  12   3
M  END
