Coordinates from ORCA-job Ph-N2-H-BF4-B3LYPG-6-31G_dp-scan-d09-49-n400
 OpenBabel08281821063D

 18 17  0  0  0  0  0  0  0  0999 V2000
   -1.8310    1.7272    1.2435 C   0  0  0  0  0  0  0  0  0  0  0  0
   -0.5512    1.7161    1.7777 C   0  0  0  0  0  0  0  0  0  0  0  0
    0.4587    1.0866    1.0234 C   0  0  0  0  0  0  0  0  0  0  0  0
    0.2427    0.4563   -0.2118 C   0  0  0  0  0  0  0  0  0  0  0  0
   -1.0581    0.4864   -0.7065 C   0  0  0  0  0  0  0  0  0  0  0  0
   -2.0804    1.1190    0.0051 C   0  0  0  0  0  0  0  0  0  0  0  0
   -2.6353    2.2068    1.7903 H   0  0  0  0  0  0  0  0  0  0  0  0
   -0.3388    2.1711    2.7400 H   0  0  0  0  0  0  0  0  0  0  0  0
    1.0731   -0.0348   -0.7140 H   0  0  0  0  0  0  0  0  0  0  0  0
   -1.2690    0.0129   -1.6590 H   0  0  0  0  0  0  0  0  0  0  0  0
    1.7355    1.0775    1.5650 N   0  0  0  0  0  0  0  0  0  0  0  0
    2.7344    1.0770    2.0602 N   0  0  0  0  0  0  0  0  0  0  0  0
    3.6784    0.3661   -0.7312 B   0  0  0  0  0  0  0  0  0  0  0  0
    2.8329    1.5070   -0.8007 F   0  0  0  0  0  0  0  0  0  0  0  0
    4.3564    0.4208    0.5163 F   0  0  0  0  0  0  0  0  0  0  0  0
    2.8250   -0.7753   -0.7062 F   0  0  0  0  0  0  0  0  0  0  0  0
    4.5535    0.3185   -1.7831 F   0  0  0  0  0  0  0  0  0  0  0  0
   -3.0864    1.1369   -0.4030 H   0  0  0  0  0  0  0  0  0  0  0  0
  1  2  1  0  0  0  0
  1  7  1  0  0  0  0
  2  8  1  0  0  0  0
  3 11  1  0  0  0  0
  3  2  2  0  0  0  0
  4  3  1  0  0  0  0
  5  4  2  0  0  0  0
  5  6  1  0  0  0  0
  6  1  2  0  0  0  0
  9  4  1  0  0  0  0
 10  5  1  0  0  0  0
 11 12  1  0  0  0  0
 13 16  1  0  0  0  0
 13 15  1  0  0  0  0
 14 13  1  0  0  0  0
 17 13  1  0  0  0  0
 18  6  1  0  0  0  0
M  RAD  2  11   2  12   3
M  END
