Coordinates from ORCA-job Ph-N2-H-BF4-B3LYPG-6-31G_dp-scan-d09-49-n400
 OpenBabel08281821063D

 18 17  0  0  0  0  0  0  0  0999 V2000
   -1.8228    1.7365    1.2366 C   0  0  0  0  0  0  0  0  0  0  0  0
   -0.5417    1.7203    1.7679 C   0  0  0  0  0  0  0  0  0  0  0  0
    0.4620    1.0774    1.0176 C   0  0  0  0  0  0  0  0  0  0  0  0
    0.2404    0.4418   -0.2137 C   0  0  0  0  0  0  0  0  0  0  0  0
   -1.0611    0.4758   -0.7055 C   0  0  0  0  0  0  0  0  0  0  0  0
   -2.0783    1.1193    0.0041 C   0  0  0  0  0  0  0  0  0  0  0  0
   -2.6225    2.2268    1.7805 H   0  0  0  0  0  0  0  0  0  0  0  0
   -0.3190    2.1830    2.7238 H   0  0  0  0  0  0  0  0  0  0  0  0
    1.0705   -0.0501   -0.7157 H   0  0  0  0  0  0  0  0  0  0  0  0
   -1.2768   -0.0017   -1.6549 H   0  0  0  0  0  0  0  0  0  0  0  0
    1.7369    1.0594    1.5644 N   0  0  0  0  0  0  0  0  0  0  0  0
    2.7294    1.0515    2.0720 N   0  0  0  0  0  0  0  0  0  0  0  0
    3.6714    0.3778   -0.7240 B   0  0  0  0  0  0  0  0  0  0  0  0
    2.8122    1.5116   -0.7702 F   0  0  0  0  0  0  0  0  0  0  0  0
    4.3609    0.4249    0.5163 F   0  0  0  0  0  0  0  0  0  0  0  0
    2.8293   -0.7720   -0.7050 F   0  0  0  0  0  0  0  0  0  0  0  0
    4.5347    0.3537   -1.7862 F   0  0  0  0  0  0  0  0  0  0  0  0
   -3.0850    1.1400   -0.4021 H   0  0  0  0  0  0  0  0  0  0  0  0
  1  2  1  0  0  0  0
  1  7  1  0  0  0  0
  2  8  1  0  0  0  0
  3 11  1  0  0  0  0
  3  2  2  0  0  0  0
  4  3  1  0  0  0  0
  5  4  2  0  0  0  0
  5  6  1  0  0  0  0
  6  1  2  0  0  0  0
  9  4  1  0  0  0  0
 10  5  1  0  0  0  0
 11 12  1  0  0  0  0
 13 16  1  0  0  0  0
 13 15  1  0  0  0  0
 14 13  1  0  0  0  0
 17 13  1  0  0  0  0
 18  6  1  0  0  0  0
M  RAD  2  11   2  12   3
M  END
