Coordinates from ORCA-job Ph-N2-H-BF4-B3LYPG-6-31G_dp-scan-d09-49-n400
 OpenBabel08281821063D

 18 17  0  0  0  0  0  0  0  0999 V2000
   -1.5767    0.9109    1.3797 C   0  0  0  0  0  0  0  0  0  0  0  0
   -0.2685    1.2683    1.6760 C   0  0  0  0  0  0  0  0  0  0  0  0
    0.5802    1.5633    0.6031 C   0  0  0  0  0  0  0  0  0  0  0  0
    0.1979    1.5020   -0.7415 C   0  0  0  0  0  0  0  0  0  0  0  0
   -1.1221    1.1515   -1.0009 C   0  0  0  0  0  0  0  0  0  0  0  0
   -2.0018    0.8600    0.0469 C   0  0  0  0  0  0  0  0  0  0  0  0
   -2.2599    0.6630    2.1845 H   0  0  0  0  0  0  0  0  0  0  0  0
    0.1153    1.2933    2.6875 H   0  0  0  0  0  0  0  0  0  0  0  0
    0.9336    1.6669   -1.5154 H   0  0  0  0  0  0  0  0  0  0  0  0
   -1.4591    1.0852   -2.0298 H   0  0  0  0  0  0  0  0  0  0  0  0
    1.8683    1.9699    0.9300 N   0  0  0  0  0  0  0  0  0  0  0  0
    2.8486    2.3855    1.2487 N   0  0  0  0  0  0  0  0  0  0  0  0
    3.3887   -0.2028   -0.0661 B   0  0  0  0  0  0  0  0  0  0  0  0
    2.8028    0.6865   -1.0327 F   0  0  0  0  0  0  0  0  0  0  0  0
    4.3874    0.5278    0.6073 F   0  0  0  0  0  0  0  0  0  0  0  0
    2.3600   -0.4970    0.8726 F   0  0  0  0  0  0  0  0  0  0  0  0
    3.8705   -1.3338   -0.6666 F   0  0  0  0  0  0  0  0  0  0  0  0
   -3.0248    0.5752   -0.1771 H   0  0  0  0  0  0  0  0  0  0  0  0
  1  2  1  0  0  0  0
  1  7  1  0  0  0  0
  2  8  1  0  0  0  0
  3 11  1  0  0  0  0
  3  2  2  0  0  0  0
  4  3  1  0  0  0  0
  5  4  2  0  0  0  0
  5  6  1  0  0  0  0
  6  1  2  0  0  0  0
  9  4  1  0  0  0  0
 10  5  1  0  0  0  0
 11 12  1  0  0  0  0
 13 15  1  0  0  0  0
 13 16  1  0  0  0  0
 14 13  1  0  0  0  0
 17 13  1  0  0  0  0
 18  6  1  0  0  0  0
M  RAD  2  11   2  12   3
M  END
