Coordinates from ORCA-job Ph-N2-H-BF4-B3LYPG-6-31G_dp-scan-d09-49-n400
 OpenBabel08281821053D

 18 17  0  0  0  0  0  0  0  0999 V2000
   -1.0977    0.0832    0.5604 C   0  0  0  0  0  0  0  0  0  0  0  0
    0.2621    0.2715    0.3210 C   0  0  0  0  0  0  0  0  0  0  0  0
    0.6077    1.4705   -0.3240 C   0  0  0  0  0  0  0  0  0  0  0  0
   -0.3079    2.4601   -0.7288 C   0  0  0  0  0  0  0  0  0  0  0  0
   -1.6482    2.2298   -0.4618 C   0  0  0  0  0  0  0  0  0  0  0  0
   -2.0379    1.0448    0.1810 C   0  0  0  0  0  0  0  0  0  0  0  0
   -1.4217   -0.8248    1.0580 H   0  0  0  0  0  0  0  0  0  0  0  0
    1.0637   -0.4433    0.6099 H   0  0  0  0  0  0  0  0  0  0  0  0
    0.0326    3.3638   -1.2220 H   0  0  0  0  0  0  0  0  0  0  0  0
   -2.3887    2.9672   -0.7513 H   0  0  0  0  0  0  0  0  0  0  0  0
    1.9439    1.6969   -0.6115 N   0  0  0  0  0  0  0  0  0  0  0  0
    3.0127    1.8650   -0.8772 N   0  0  0  0  0  0  0  0  0  0  0  0
    3.3754   -0.2036    1.4042 B   0  0  0  0  0  0  0  0  0  0  0  0
    2.4297   -1.1782    0.9192 F   0  0  0  0  0  0  0  0  0  0  0  0
    4.1996    0.1627    0.3153 F   0  0  0  0  0  0  0  0  0  0  0  0
    2.6136    0.9370    1.7712 F   0  0  0  0  0  0  0  0  0  0  0  0
    4.0921   -0.7024    2.4547 F   0  0  0  0  0  0  0  0  0  0  0  0
   -3.0906    0.8757    0.3877 H   0  0  0  0  0  0  0  0  0  0  0  0
  1  7  1  0  0  0  0
  2  1  1  0  0  0  0
  2  8  1  0  0  0  0
  3  2  2  0  0  0  0
  4  5  2  0  0  0  0
  4  3  1  0  0  0  0
  5  6  1  0  0  0  0
  6 18  1  0  0  0  0
  6  1  2  0  0  0  0
  9  4  1  0  0  0  0
 10  5  1  0  0  0  0
 11  3  1  0  0  0  0
 12 11  1  0  0  0  0
 13 16  1  0  0  0  0
 13 17  1  0  0  0  0
 14 13  1  0  0  0  0
 15 13  1  0  0  0  0
M  RAD  2  11   2  12   3
M  END
