Coordinates from ORCA-job Ph-N2-H-BF4-B3LYPG-6-31G_dp-scan-d09-49-n400
 OpenBabel08281821053D

 18 16  0  0  0  0  0  0  0  0999 V2000
   -0.9535    0.1193    0.5077 C   0  0  0  0  0  0  0  0  0  0  0  0
    0.3890    0.4104    0.1837 C   0  0  0  0  0  0  0  0  0  0  0  0
    0.5080    1.6713   -0.4341 C   0  0  0  0  0  0  0  0  0  0  0  0
   -0.5174    2.6040   -0.7344 C   0  0  0  0  0  0  0  0  0  0  0  0
   -1.7980    2.2363   -0.3787 C   0  0  0  0  0  0  0  0  0  0  0  0
   -2.0103    0.9884    0.2437 C   0  0  0  0  0  0  0  0  0  0  0  0
   -1.1743   -0.8291    0.9922 H   0  0  0  0  0  0  0  0  0  0  0  0
    1.5399   -0.5005    0.4999 H   0  0  0  0  0  0  0  0  0  0  0  0
   -0.2997    3.5530   -1.2139 H   0  0  0  0  0  0  0  0  0  0  0  0
   -2.6307    2.9026   -0.5768 H   0  0  0  0  0  0  0  0  0  0  0  0
    1.7882    2.0485   -0.8029 N   0  0  0  0  0  0  0  0  0  0  0  0
    2.8255    2.3332   -1.0967 N   0  0  0  0  0  0  0  0  0  0  0  0
    3.5163   -0.3804    1.5417 B   0  0  0  0  0  0  0  0  0  0  0  0
    2.2827   -1.1011    0.7200 F   0  0  0  0  0  0  0  0  0  0  0  0
    4.5982   -1.0680    1.1158 F   0  0  0  0  0  0  0  0  0  0  0  0
    3.4328    0.9148    1.0779 F   0  0  0  0  0  0  0  0  0  0  0  0
    3.1669   -0.5340    2.8392 F   0  0  0  0  0  0  0  0  0  0  0  0
   -3.0231    0.7074    0.5215 H   0  0  0  0  0  0  0  0  0  0  0  0
  1  7  1  0  0  0  0
  2  1  2  0  0  0  0
  3  2  1  0  0  0  0
  4  3  2  0  0  0  0
  4  5  1  0  0  0  0
  5  6  2  0  0  0  0
  6  1  1  0  0  0  0
  6 18  1  0  0  0  0
  8 14  1  0  0  0  0
  9  4  1  0  0  0  0
 10  5  1  0  0  0  0
 11  3  1  0  0  0  0
 12 11  1  0  0  0  0
 13 17  1  0  0  0  0
 15 13  1  0  0  0  0
 16 13  1  0  0  0  0
M  RAD  3   2   2  11   2  12   3
M  END
