Coordinates from ORCA-job Ph-N2-H-BF4-B3LYPG-6-31G_dp-scan-d09-49-n400
 OpenBabel08281821053D

 18 17  0  0  0  0  0  0  0  0999 V2000
   -1.2020    0.3010    0.9070 C   0  0  0  0  0  0  0  0  0  0  0  0
    0.1570    0.5989    0.9075 C   0  0  0  0  0  0  0  0  0  0  0  0
    0.5821    1.5897    0.0111 C   0  0  0  0  0  0  0  0  0  0  0  0
   -0.2743    2.2854   -0.8609 C   0  0  0  0  0  0  0  0  0  0  0  0
   -1.6207    1.9518   -0.8364 C   0  0  0  0  0  0  0  0  0  0  0  0
   -2.0798    0.9622    0.0433 C   0  0  0  0  0  0  0  0  0  0  0  0
   -1.5742   -0.4628    1.5815 H   0  0  0  0  0  0  0  0  0  0  0  0
    0.8915    0.1210    1.5475 H   0  0  0  0  0  0  0  0  0  0  0  0
    0.1153    3.0444   -1.5304 H   0  0  0  0  0  0  0  0  0  0  0  0
   -2.3111    2.4602   -1.5006 H   0  0  0  0  0  0  0  0  0  0  0  0
    1.9229    1.9460   -0.0298 N   0  0  0  0  0  0  0  0  0  0  0  0
    2.9682    2.3194   -0.1240 N   0  0  0  0  0  0  0  0  0  0  0  0
    3.4670   -0.3861    0.9760 B   0  0  0  0  0  0  0  0  0  0  0  0
    2.5087   -0.5681   -0.0624 F   0  0  0  0  0  0  0  0  0  0  0  0
    4.4187    0.5522    0.5115 F   0  0  0  0  0  0  0  0  0  0  0  0
    2.7649    0.2250    2.0623 F   0  0  0  0  0  0  0  0  0  0  0  0
    4.0411   -1.5699    1.3509 F   0  0  0  0  0  0  0  0  0  0  0  0
   -3.1349    0.7059    0.0518 H   0  0  0  0  0  0  0  0  0  0  0  0
  1  2  1  0  0  0  0
  1  7  1  0  0  0  0
  2  8  1  0  0  0  0
  3  2  2  0  0  0  0
  4  5  2  0  0  0  0
  4  3  1  0  0  0  0
  5  6  1  0  0  0  0
  6 18  1  0  0  0  0
  6  1  2  0  0  0  0
  9  4  1  0  0  0  0
 10  5  1  0  0  0  0
 11  3  1  0  0  0  0
 12 11  1  0  0  0  0
 13 17  1  0  0  0  0
 13 16  1  0  0  0  0
 14 13  1  0  0  0  0
 15 13  1  0  0  0  0
M  RAD  2  11   2  12   3
M  END
