Coordinates from ORCA-job Ph-N2-H-BF4-B3LYPG-6-31G_dp-scan-d09-49-n400
 OpenBabel08281821063D

 18 17  0  0  0  0  0  0  0  0999 V2000
   -1.2515    0.3825    1.0009 C   0  0  0  0  0  0  0  0  0  0  0  0
    0.1066    0.6810    1.0386 C   0  0  0  0  0  0  0  0  0  0  0  0
    0.5763    1.5940    0.0844 C   0  0  0  0  0  0  0  0  0  0  0  0
   -0.2355    2.2031   -0.8879 C   0  0  0  0  0  0  0  0  0  0  0  0
   -1.5821    1.8673   -0.9009 C   0  0  0  0  0  0  0  0  0  0  0  0
   -2.0868    0.9627    0.0419 C   0  0  0  0  0  0  0  0  0  0  0  0
   -1.6559   -0.3201    1.7219 H   0  0  0  0  0  0  0  0  0  0  0  0
    0.8040    0.2418    1.7453 H   0  0  0  0  0  0  0  0  0  0  0  0
    0.1871    2.8993   -1.6040 H   0  0  0  0  0  0  0  0  0  0  0  0
   -2.2371    2.3098   -1.6435 H   0  0  0  0  0  0  0  0  0  0  0  0
    1.9119    1.9771    0.0960 N   0  0  0  0  0  0  0  0  0  0  0  0
    2.9445    2.3916    0.0544 N   0  0  0  0  0  0  0  0  0  0  0  0
    3.4842   -0.4016    0.8479 B   0  0  0  0  0  0  0  0  0  0  0  0
    2.6029   -0.4416   -0.2676 F   0  0  0  0  0  0  0  0  0  0  0  0
    4.4389    0.6130    0.5993 F   0  0  0  0  0  0  0  0  0  0  0  0
    2.7091    0.0277    1.9752 F   0  0  0  0  0  0  0  0  0  0  0  0
    4.0657   -1.6185    1.0799 F   0  0  0  0  0  0  0  0  0  0  0  0
   -3.1418    0.7069    0.0240 H   0  0  0  0  0  0  0  0  0  0  0  0
  1  2  1  0  0  0  0
  1  7  1  0  0  0  0
  2  8  1  0  0  0  0
  3 11  1  0  0  0  0
  3  2  2  0  0  0  0
  4  3  1  0  0  0  0
  5  4  2  0  0  0  0
  5  6  1  0  0  0  0
  6  1  2  0  0  0  0
  9  4  1  0  0  0  0
 10  5  1  0  0  0  0
 12 11  1  0  0  0  0
 13 17  1  0  0  0  0
 13 16  1  0  0  0  0
 14 13  1  0  0  0  0
 15 13  1  0  0  0  0
 18  6  1  0  0  0  0
M  RAD  2  11   2  12   3
M  END
