Coordinates from ORCA-job Ph-N2-H-BF4-B3LYPG-6-31G_dp-scan-d09-49-n400
 OpenBabel08281821053D

 18 17  0  0  0  0  0  0  0  0999 V2000
   -1.2183    0.3217    0.9355 C   0  0  0  0  0  0  0  0  0  0  0  0
    0.1397    0.6232    0.9558 C   0  0  0  0  0  0  0  0  0  0  0  0
    0.5808    1.5924    0.0440 C   0  0  0  0  0  0  0  0  0  0  0  0
   -0.2594    2.2618   -0.8633 C   0  0  0  0  0  0  0  0  0  0  0  0
   -1.6054    1.9249   -0.8580 C   0  0  0  0  0  0  0  0  0  0  0  0
   -2.0802    0.9575    0.0372 C   0  0  0  0  0  0  0  0  0  0  0  0
   -1.6021   -0.4260    1.6215 H   0  0  0  0  0  0  0  0  0  0  0  0
    0.8595    0.1607    1.6235 H   0  0  0  0  0  0  0  0  0  0  0  0
    0.1421    3.0038   -1.5447 H   0  0  0  0  0  0  0  0  0  0  0  0
   -2.2827    2.4137   -1.5498 H   0  0  0  0  0  0  0  0  0  0  0  0
    1.9203    1.9575    0.0217 N   0  0  0  0  0  0  0  0  0  0  0  0
    2.9604    2.3478   -0.0549 N   0  0  0  0  0  0  0  0  0  0  0  0
    3.4703   -0.3898    0.9271 B   0  0  0  0  0  0  0  0  0  0  0  0
    2.5238   -0.5417   -0.1250 F   0  0  0  0  0  0  0  0  0  0  0  0
    4.4307    0.5555    0.4987 F   0  0  0  0  0  0  0  0  0  0  0  0
    2.7616    0.2001    2.0242 F   0  0  0  0  0  0  0  0  0  0  0  0
    4.0338   -1.5849    1.2817 F   0  0  0  0  0  0  0  0  0  0  0  0
   -3.1345    0.6979    0.0306 H   0  0  0  0  0  0  0  0  0  0  0  0
  1  2  1  0  0  0  0
  1  7  1  0  0  0  0
  2  8  1  0  0  0  0
  3  2  2  0  0  0  0
  4  5  2  0  0  0  0
  4  3  1  0  0  0  0
  5  6  1  0  0  0  0
  6  1  2  0  0  0  0
  9  4  1  0  0  0  0
 10  5  1  0  0  0  0
 11  3  1  0  0  0  0
 12 11  1  0  0  0  0
 13 17  1  0  0  0  0
 13 16  1  0  0  0  0
 14 13  1  0  0  0  0
 15 13  1  0  0  0  0
 18  6  1  0  0  0  0
M  RAD  2  11   2  12   3
M  END
