Coordinates from ORCA-job Ph-N2-H-BF4-B3LYPG-6-31G_dp-scan-d09-49-n400
 OpenBabel08281821063D

 18 17  0  0  0  0  0  0  0  0999 V2000
   -1.6228    0.9920    1.3927 C   0  0  0  0  0  0  0  0  0  0  0  0
   -0.3074    1.3205    1.6902 C   0  0  0  0  0  0  0  0  0  0  0  0
    0.5712    1.5220    0.6189 C   0  0  0  0  0  0  0  0  0  0  0  0
    0.2086    1.3992   -0.7265 C   0  0  0  0  0  0  0  0  0  0  0  0
   -1.1199    1.0837   -0.9885 C   0  0  0  0  0  0  0  0  0  0  0  0
   -2.0273    0.8833    0.0571 C   0  0  0  0  0  0  0  0  0  0  0  0
   -2.3268    0.8148    2.1982 H   0  0  0  0  0  0  0  0  0  0  0  0
    0.0686    1.3931    2.7016 H   0  0  0  0  0  0  0  0  0  0  0  0
    0.9657    1.4958   -1.4917 H   0  0  0  0  0  0  0  0  0  0  0  0
   -1.4431    0.9732   -2.0179 H   0  0  0  0  0  0  0  0  0  0  0  0
    1.8611    1.9046    0.9711 N   0  0  0  0  0  0  0  0  0  0  0  0
    2.8214    2.2910    1.3767 N   0  0  0  0  0  0  0  0  0  0  0  0
    3.4384   -0.1650   -0.1288 B   0  0  0  0  0  0  0  0  0  0  0  0
    2.8681    0.8208   -1.0167 F   0  0  0  0  0  0  0  0  0  0  0  0
    4.4003    0.5057    0.6486 F   0  0  0  0  0  0  0  0  0  0  0  0
    2.3817   -0.5710    0.7277 F   0  0  0  0  0  0  0  0  0  0  0  0
    3.9596   -1.2128   -0.8368 F   0  0  0  0  0  0  0  0  0  0  0  0
   -3.0568    0.6252   -0.1700 H   0  0  0  0  0  0  0  0  0  0  0  0
  1  2  1  0  0  0  0
  1  7  1  0  0  0  0
  2  8  1  0  0  0  0
  3 11  1  0  0  0  0
  3  2  2  0  0  0  0
  4  3  1  0  0  0  0
  5  4  2  0  0  0  0
  5  6  1  0  0  0  0
  6  1  2  0  0  0  0
  9  4  1  0  0  0  0
 10  5  1  0  0  0  0
 11 12  1  0  0  0  0
 13 15  1  0  0  0  0
 13 16  1  0  0  0  0
 14 13  1  0  0  0  0
 17 13  1  0  0  0  0
 18  6  1  0  0  0  0
M  RAD  2  11   2  12   3
M  END
