Coordinates from ORCA-job Ph-N2-H-BF4-B3LYPG-6-31G_dp-scan-d09-49-n400
 OpenBabel08281821063D

 18 17  0  0  0  0  0  0  0  0999 V2000
   -1.3940    0.6487    1.2715 C   0  0  0  0  0  0  0  0  0  0  0  0
   -0.0790    1.0316    1.5051 C   0  0  0  0  0  0  0  0  0  0  0  0
    0.6038    1.6374    0.4441 C   0  0  0  0  0  0  0  0  0  0  0  0
    0.0584    1.8401   -0.8290 C   0  0  0  0  0  0  0  0  0  0  0  0
   -1.2564    1.4398   -1.0279 C   0  0  0  0  0  0  0  0  0  0  0  0
   -1.9790    0.8535    0.0171 C   0  0  0  0  0  0  0  0  0  0  0  0
   -1.9575    0.1721    2.0660 H   0  0  0  0  0  0  0  0  0  0  0  0
    0.4227    0.8461    2.4457 H   0  0  0  0  0  0  0  0  0  0  0  0
    0.6617    2.2634   -1.6220 H   0  0  0  0  0  0  0  0  0  0  0  0
   -1.7125    1.5734   -2.0028 H   0  0  0  0  0  0  0  0  0  0  0  0
    1.8971    2.0929    0.6631 N   0  0  0  0  0  0  0  0  0  0  0  0
    2.8979    2.5488    0.8243 N   0  0  0  0  0  0  0  0  0  0  0  0
    3.3200   -0.3195    0.2714 B   0  0  0  0  0  0  0  0  0  0  0  0
    2.5770    0.1534   -0.8499 F   0  0  0  0  0  0  0  0  0  0  0  0
    4.3649    0.6014    0.5041 F   0  0  0  0  0  0  0  0  0  0  0  0
    2.4427   -0.2522    1.4034 F   0  0  0  0  0  0  0  0  0  0  0  0
    3.7766   -1.5948    0.0743 F   0  0  0  0  0  0  0  0  0  0  0  0
   -3.0038    0.5398   -0.1528 H   0  0  0  0  0  0  0  0  0  0  0  0
  1  2  1  0  0  0  0
  1  7  1  0  0  0  0
  2  8  1  0  0  0  0
  3 11  1  0  0  0  0
  3  2  2  0  0  0  0
  4  3  1  0  0  0  0
  5  4  2  0  0  0  0
  5  6  1  0  0  0  0
  6  1  2  0  0  0  0
  9  4  1  0  0  0  0
 10  5  1  0  0  0  0
 11 12  1  0  0  0  0
 13 15  1  0  0  0  0
 13 16  1  0  0  0  0
 14 13  1  0  0  0  0
 17 13  1  0  0  0  0
 18  6  1  0  0  0  0
M  RAD  2  11   2  12   3
M  END
