Coordinates from ORCA-job Ph-N2-H-BF4-B3LYPG-6-31G_dp-scan-d09-49-n400
 OpenBabel08281821053D

 18 17  0  0  0  0  0  0  0  0999 V2000
   -1.0742    0.0845    0.5627 C   0  0  0  0  0  0  0  0  0  0  0  0
    0.2846    0.2788    0.3157 C   0  0  0  0  0  0  0  0  0  0  0  0
    0.6121    1.4808   -0.3347 C   0  0  0  0  0  0  0  0  0  0  0  0
   -0.3120    2.4639   -0.7388 C   0  0  0  0  0  0  0  0  0  0  0  0
   -1.6482    2.2237   -0.4640 C   0  0  0  0  0  0  0  0  0  0  0  0
   -2.0241    1.0371    0.1857 C   0  0  0  0  0  0  0  0  0  0  0  0
   -1.3905   -0.8234    1.0660 H   0  0  0  0  0  0  0  0  0  0  0  0
    1.1099   -0.4350    0.6085 H   0  0  0  0  0  0  0  0  0  0  0  0
    0.0193    3.3686   -1.2365 H   0  0  0  0  0  0  0  0  0  0  0  0
   -2.3968    2.9538   -0.7515 H   0  0  0  0  0  0  0  0  0  0  0  0
    1.9459    1.7168   -0.6237 N   0  0  0  0  0  0  0  0  0  0  0  0
    3.0176    1.8846   -0.8770 N   0  0  0  0  0  0  0  0  0  0  0  0
    3.3531   -0.2052    1.4115 B   0  0  0  0  0  0  0  0  0  0  0  0
    2.3551   -1.1483    0.9337 F   0  0  0  0  0  0  0  0  0  0  0  0
    4.1742    0.1192    0.3124 F   0  0  0  0  0  0  0  0  0  0  0  0
    2.6365    0.9573    1.7829 F   0  0  0  0  0  0  0  0  0  0  0  0
    4.0522   -0.7421    2.4535 F   0  0  0  0  0  0  0  0  0  0  0  0
   -3.0742    0.8610    0.3996 H   0  0  0  0  0  0  0  0  0  0  0  0
  1  7  1  0  0  0  0
  2  1  1  0  0  0  0
  2  8  1  0  0  0  0
  3  2  2  0  0  0  0
  4  5  2  0  0  0  0
  4  3  1  0  0  0  0
  5  6  1  0  0  0  0
  6 18  1  0  0  0  0
  6  1  2  0  0  0  0
  9  4  1  0  0  0  0
 10  5  1  0  0  0  0
 11  3  1  0  0  0  0
 12 11  1  0  0  0  0
 13 16  1  0  0  0  0
 13 17  1  0  0  0  0
 14 13  1  0  0  0  0
 15 13  1  0  0  0  0
M  RAD  2  11   2  12   3
M  END
