Coordinates from ORCA-job Ph-N2-H-BF4-B3LYPG-6-31G_dp-scan-d09-49-n400
 OpenBabel08281821063D

 18 17  0  0  0  0  0  0  0  0999 V2000
   -1.4718    0.7672    1.3342 C   0  0  0  0  0  0  0  0  0  0  0  0
   -0.1650    1.1512    1.6035 C   0  0  0  0  0  0  0  0  0  0  0  0
    0.5990    1.6202    0.5290 C   0  0  0  0  0  0  0  0  0  0  0  0
    0.1450    1.6810   -0.7928 C   0  0  0  0  0  0  0  0  0  0  0  0
   -1.1687    1.2929   -1.0256 C   0  0  0  0  0  0  0  0  0  0  0  0
   -1.9718    0.8455    0.0290 C   0  0  0  0  0  0  0  0  0  0  0  0
   -2.0945    0.3910    2.1382 H   0  0  0  0  0  0  0  0  0  0  0  0
    0.2790    1.0624    2.5866 H   0  0  0  0  0  0  0  0  0  0  0  0
    0.8204    1.9739   -1.5847 H   0  0  0  0  0  0  0  0  0  0  0  0
   -1.5596    1.3200   -2.0369 H   0  0  0  0  0  0  0  0  0  0  0  0
    1.8861    2.0629    0.8044 N   0  0  0  0  0  0  0  0  0  0  0  0
    2.8756    2.5025    1.0550 N   0  0  0  0  0  0  0  0  0  0  0  0
    3.3174   -0.2637    0.0993 B   0  0  0  0  0  0  0  0  0  0  0  0
    2.6392    0.4221   -0.9607 F   0  0  0  0  0  0  0  0  0  0  0  0
    4.3635    0.5755    0.5337 F   0  0  0  0  0  0  0  0  0  0  0  0
    2.3803   -0.3707    1.1721 F   0  0  0  0  0  0  0  0  0  0  0  0
    3.7588   -1.4940   -0.3071 F   0  0  0  0  0  0  0  0  0  0  0  0
   -2.9925    0.5362   -0.1713 H   0  0  0  0  0  0  0  0  0  0  0  0
  1  2  1  0  0  0  0
  1  7  1  0  0  0  0
  2  8  1  0  0  0  0
  3 11  1  0  0  0  0
  3  2  2  0  0  0  0
  4  3  1  0  0  0  0
  5  4  2  0  0  0  0
  5  6  1  0  0  0  0
  6  1  2  0  0  0  0
  9  4  1  0  0  0  0
 10  5  1  0  0  0  0
 11 12  1  0  0  0  0
 13 15  1  0  0  0  0
 13 16  1  0  0  0  0
 14 13  1  0  0  0  0
 17 13  1  0  0  0  0
 18  6  1  0  0  0  0
M  RAD  2  11   2  12   3
M  END
