Coordinates from ORCA-job Ph-N2-H-BF4-B3LYPG-6-31G_dp-scan-d09-49-n400
 OpenBabel08281821063D

 18 17  0  0  0  0  0  0  0  0999 V2000
   -1.3857    0.6357    1.2627 C   0  0  0  0  0  0  0  0  0  0  0  0
   -0.0684    1.0158    1.4886 C   0  0  0  0  0  0  0  0  0  0  0  0
    0.6033    1.6364    0.4289 C   0  0  0  0  0  0  0  0  0  0  0  0
    0.0433    1.8593   -0.8346 C   0  0  0  0  0  0  0  0  0  0  0  0
   -1.2729    1.4600   -1.0262 C   0  0  0  0  0  0  0  0  0  0  0  0
   -1.9839    0.8573    0.0175 C   0  0  0  0  0  0  0  0  0  0  0  0
   -1.9410    0.1481    2.0564 H   0  0  0  0  0  0  0  0  0  0  0  0
    0.4427    0.8178    2.4215 H   0  0  0  0  0  0  0  0  0  0  0  0
    0.6362    2.2986   -1.6269 H   0  0  0  0  0  0  0  0  0  0  0  0
   -1.7395    1.6084   -1.9939 H   0  0  0  0  0  0  0  0  0  0  0  0
    1.8982    2.0917    0.6392 N   0  0  0  0  0  0  0  0  0  0  0  0
    2.8998    2.5492    0.7911 N   0  0  0  0  0  0  0  0  0  0  0  0
    3.3275   -0.3267    0.2963 B   0  0  0  0  0  0  0  0  0  0  0  0
    2.5842    0.1230   -0.8334 F   0  0  0  0  0  0  0  0  0  0  0  0
    4.3685    0.6025    0.5151 F   0  0  0  0  0  0  0  0  0  0  0  0
    2.4484   -0.2430    1.4264 F   0  0  0  0  0  0  0  0  0  0  0  0
    3.7899   -1.6034    0.1233 F   0  0  0  0  0  0  0  0  0  0  0  0
   -3.0101    0.5451   -0.1462 H   0  0  0  0  0  0  0  0  0  0  0  0
  1  2  1  0  0  0  0
  1  7  1  0  0  0  0
  2  8  1  0  0  0  0
  3 11  1  0  0  0  0
  3  2  2  0  0  0  0
  4  3  1  0  0  0  0
  5  4  2  0  0  0  0
  5  6  1  0  0  0  0
  6  1  2  0  0  0  0
  9  4  1  0  0  0  0
 10  5  1  0  0  0  0
 11 12  1  0  0  0  0
 13 15  1  0  0  0  0
 13 16  1  0  0  0  0
 14 13  1  0  0  0  0
 17 13  1  0  0  0  0
 18  6  1  0  0  0  0
M  RAD  2  11   2  12   3
M  END
