Coordinates from ORCA-job Ph-N2-H-BF4-B3LYPG-6-31G_dp-scan-d09-49-n400
 OpenBabel08281821063D

 18 17  0  0  0  0  0  0  0  0999 V2000
   -1.3293    0.5130    1.1574 C   0  0  0  0  0  0  0  0  0  0  0  0
    0.0078    0.8600    1.3153 C   0  0  0  0  0  0  0  0  0  0  0  0
    0.5896    1.6168    0.2897 C   0  0  0  0  0  0  0  0  0  0  0  0
   -0.0936    2.0302   -0.8637 C   0  0  0  0  0  0  0  0  0  0  0  0
   -1.4238    1.6533   -0.9909 C   0  0  0  0  0  0  0  0  0  0  0  0
   -2.0383    0.9002    0.0160 C   0  0  0  0  0  0  0  0  0  0  0  0
   -1.8147   -0.0785    1.9263 H   0  0  0  0  0  0  0  0  0  0  0  0
    0.6029    0.5420    2.1604 H   0  0  0  0  0  0  0  0  0  0  0  0
    0.4149    2.6049   -1.6292 H   0  0  0  0  0  0  0  0  0  0  0  0
   -1.9789    1.9443   -1.8761 H   0  0  0  0  0  0  0  0  0  0  0  0
    1.9037    2.0517    0.4171 N   0  0  0  0  0  0  0  0  0  0  0  0
    2.9131    2.5142    0.4778 N   0  0  0  0  0  0  0  0  0  0  0  0
    3.4171   -0.3756    0.5326 B   0  0  0  0  0  0  0  0  0  0  0  0
    2.6141   -0.1736   -0.6214 F   0  0  0  0  0  0  0  0  0  0  0  0
    4.4396    0.5984    0.5170 F   0  0  0  0  0  0  0  0  0  0  0  0
    2.5883   -0.0808    1.6709 F   0  0  0  0  0  0  0  0  0  0  0  0
    3.9054   -1.6521    0.6010 F   0  0  0  0  0  0  0  0  0  0  0  0
   -3.0776    0.6075   -0.0944 H   0  0  0  0  0  0  0  0  0  0  0  0
  1  2  1  0  0  0  0
  1  7  1  0  0  0  0
  2  8  1  0  0  0  0
  3 11  1  0  0  0  0
  3  2  2  0  0  0  0
  4  3  1  0  0  0  0
  5  4  2  0  0  0  0
  5  6  1  0  0  0  0
  6  1  2  0  0  0  0
  9  4  1  0  0  0  0
 10  5  1  0  0  0  0
 11 12  1  0  0  0  0
 13 17  1  0  0  0  0
 13 16  1  0  0  0  0
 14 13  1  0  0  0  0
 15 13  1  0  0  0  0
 18  6  1  0  0  0  0
M  RAD  2  11   2  12   3
M  END
