Coordinates from ORCA-job Ph-N2-H-BF4-B3LYPG-6-31G_dp-scan-d09-49-n400
 OpenBabel08281821053D

 18 17  0  0  0  0  0  0  0  0999 V2000
   -1.0810    0.0832    0.5601 C   0  0  0  0  0  0  0  0  0  0  0  0
    0.2777    0.2750    0.3132 C   0  0  0  0  0  0  0  0  0  0  0  0
    0.6114    1.4765   -0.3343 C   0  0  0  0  0  0  0  0  0  0  0  0
   -0.3098    2.4629   -0.7359 C   0  0  0  0  0  0  0  0  0  0  0  0
   -1.6471    2.2266   -0.4617 C   0  0  0  0  0  0  0  0  0  0  0  0
   -2.0275    1.0402    0.1851 C   0  0  0  0  0  0  0  0  0  0  0  0
   -1.3995   -0.8251    1.0610 H   0  0  0  0  0  0  0  0  0  0  0  0
    1.0937   -0.4397    0.6018 H   0  0  0  0  0  0  0  0  0  0  0  0
    0.0244    3.3676   -1.2314 H   0  0  0  0  0  0  0  0  0  0  0  0
   -2.3929    2.9601   -0.7477 H   0  0  0  0  0  0  0  0  0  0  0  0
    1.9460    1.7087   -0.6234 N   0  0  0  0  0  0  0  0  0  0  0  0
    3.0172    1.8749   -0.8796 N   0  0  0  0  0  0  0  0  0  0  0  0
    3.3577   -0.2037    1.4124 B   0  0  0  0  0  0  0  0  0  0  0  0
    2.3798   -1.1606    0.9348 F   0  0  0  0  0  0  0  0  0  0  0  0
    4.1805    0.1333    0.3159 F   0  0  0  0  0  0  0  0  0  0  0  0
    2.6240    0.9519    1.7782 F   0  0  0  0  0  0  0  0  0  0  0  0
    4.0640   -0.7228    2.4591 F   0  0  0  0  0  0  0  0  0  0  0  0
   -3.0782    0.8670    0.3983 H   0  0  0  0  0  0  0  0  0  0  0  0
  1  7  1  0  0  0  0
  2  1  1  0  0  0  0
  2  8  1  0  0  0  0
  3  2  2  0  0  0  0
  4  5  2  0  0  0  0
  4  3  1  0  0  0  0
  5  6  1  0  0  0  0
  6 18  1  0  0  0  0
  6  1  2  0  0  0  0
  9  4  1  0  0  0  0
 10  5  1  0  0  0  0
 11  3  1  0  0  0  0
 12 11  1  0  0  0  0
 13 16  1  0  0  0  0
 13 17  1  0  0  0  0
 14 13  1  0  0  0  0
 15 13  1  0  0  0  0
M  RAD  2  11   2  12   3
M  END
