Coordinates from ORCA-job Ph-N2-H-BF4-B3LYPG-6-31G_dp-scan-d09-49-n400
 OpenBabel08281821053D

 18 17  0  0  0  0  0  0  0  0999 V2000
   -1.0607    0.0864    0.5571 C   0  0  0  0  0  0  0  0  0  0  0  0
    0.2990    0.2944    0.3213 C   0  0  0  0  0  0  0  0  0  0  0  0
    0.6139    1.5010   -0.3278 C   0  0  0  0  0  0  0  0  0  0  0  0
   -0.3186    2.4739   -0.7392 C   0  0  0  0  0  0  0  0  0  0  0  0
   -1.6537    2.2174   -0.4757 C   0  0  0  0  0  0  0  0  0  0  0  0
   -2.0196    1.0261    0.1717 C   0  0  0  0  0  0  0  0  0  0  0  0
   -1.3705   -0.8249    1.0587 H   0  0  0  0  0  0  0  0  0  0  0  0
    1.1326   -0.4209    0.6306 H   0  0  0  0  0  0  0  0  0  0  0  0
    0.0056    3.3825   -1.2345 H   0  0  0  0  0  0  0  0  0  0  0  0
   -2.4091    2.9377   -0.7699 H   0  0  0  0  0  0  0  0  0  0  0  0
    1.9463    1.7541   -0.6078 N   0  0  0  0  0  0  0  0  0  0  0  0
    3.0194    1.9268   -0.8504 N   0  0  0  0  0  0  0  0  0  0  0  0
    3.3484   -0.2217    1.4100 B   0  0  0  0  0  0  0  0  0  0  0  0
    2.2864   -1.1482    1.0304 F   0  0  0  0  0  0  0  0  0  0  0  0
    4.1010    0.0370    0.2480 F   0  0  0  0  0  0  0  0  0  0  0  0
    2.6933    0.9718    1.7875 F   0  0  0  0  0  0  0  0  0  0  0  0
    4.0959   -0.7537    2.4193 F   0  0  0  0  0  0  0  0  0  0  0  0
   -3.0692    0.8364    0.3765 H   0  0  0  0  0  0  0  0  0  0  0  0
  1  7  1  0  0  0  0
  2  1  1  0  0  0  0
  2  8  1  0  0  0  0
  3  2  2  0  0  0  0
  4  5  2  0  0  0  0
  4  3  1  0  0  0  0
  5  6  1  0  0  0  0
  6 18  1  0  0  0  0
  6  1  2  0  0  0  0
  9  4  1  0  0  0  0
 10  5  1  0  0  0  0
 11  3  1  0  0  0  0
 12 11  1  0  0  0  0
 13 16  1  0  0  0  0
 13 17  1  0  0  0  0
 14 13  1  0  0  0  0
 15 13  1  0  0  0  0
M  RAD  2  11   2  12   3
M  END
