Coordinates from ORCA-job Ph-N2-H-BF4-B3LYPG-6-31G_dp-scan-d09-49-n400
 OpenBabel08281821053D

 18 17  0  0  0  0  0  0  0  0999 V2000
   -1.2243    0.3304    0.9467 C   0  0  0  0  0  0  0  0  0  0  0  0
    0.1331    0.6333    0.9740 C   0  0  0  0  0  0  0  0  0  0  0  0
    0.5803    1.5938    0.0559 C   0  0  0  0  0  0  0  0  0  0  0  0
   -0.2536    2.2523   -0.8647 C   0  0  0  0  0  0  0  0  0  0  0  0
   -1.5994    1.9140   -0.8663 C   0  0  0  0  0  0  0  0  0  0  0  0
   -2.0803    0.9558    0.0354 C   0  0  0  0  0  0  0  0  0  0  0  0
   -1.6125   -0.4106    1.6374 H   0  0  0  0  0  0  0  0  0  0  0  0
    0.8471    0.1766    1.6519 H   0  0  0  0  0  0  0  0  0  0  0  0
    0.1524    2.9873   -1.5510 H   0  0  0  0  0  0  0  0  0  0  0  0
   -2.2717    2.3947   -1.5686 H   0  0  0  0  0  0  0  0  0  0  0  0
    1.9192    1.9624    0.0407 N   0  0  0  0  0  0  0  0  0  0  0  0
    2.9575    2.3584   -0.0296 N   0  0  0  0  0  0  0  0  0  0  0  0
    3.4714   -0.3913    0.9090 B   0  0  0  0  0  0  0  0  0  0  0  0
    2.5300   -0.5295   -0.1493 F   0  0  0  0  0  0  0  0  0  0  0  0
    4.4345    0.5584    0.4976 F   0  0  0  0  0  0  0  0  0  0  0  0
    2.7590    0.1861    2.0114 F   0  0  0  0  0  0  0  0  0  0  0  0
    4.0320   -1.5912    1.2517 F   0  0  0  0  0  0  0  0  0  0  0  0
   -3.1342    0.6951    0.0237 H   0  0  0  0  0  0  0  0  0  0  0  0
  1  2  1  0  0  0  0
  1  7  1  0  0  0  0
  2  8  1  0  0  0  0
  3  2  2  0  0  0  0
  4  3  1  0  0  0  0
  5  4  2  0  0  0  0
  5  6  1  0  0  0  0
  6  1  2  0  0  0  0
  9  4  1  0  0  0  0
 10  5  1  0  0  0  0
 11  3  1  0  0  0  0
 12 11  1  0  0  0  0
 13 17  1  0  0  0  0
 13 16  1  0  0  0  0
 14 13  1  0  0  0  0
 15 13  1  0  0  0  0
 18  6  1  0  0  0  0
M  RAD  2  11   2  12   3
M  END
