Coordinates from ORCA-job Ph-N2-H-BF4-B3LYPG-6-31G_dp-scan-d09-49-n400
 OpenBabel08281821063D

 18 17  0  0  0  0  0  0  0  0999 V2000
   -1.2903    0.4276    1.0590 C   0  0  0  0  0  0  0  0  0  0  0  0
    0.0634    0.7355    1.1443 C   0  0  0  0  0  0  0  0  0  0  0  0
    0.5773    1.5943    0.1634 C   0  0  0  0  0  0  0  0  0  0  0  0
   -0.1885    2.1418   -0.8791 C   0  0  0  0  0  0  0  0  0  0  0  0
   -1.5325    1.7989   -0.9376 C   0  0  0  0  0  0  0  0  0  0  0  0
   -2.0803    0.9474    0.0293 C   0  0  0  0  0  0  0  0  0  0  0  0
   -1.7263   -0.2363    1.7979 H   0  0  0  0  0  0  0  0  0  0  0  0
    0.7240    0.3296    1.9014 H   0  0  0  0  0  0  0  0  0  0  0  0
    0.2667    2.7968   -1.6135 H   0  0  0  0  0  0  0  0  0  0  0  0
   -2.1510    2.1946   -1.7358 H   0  0  0  0  0  0  0  0  0  0  0  0
    1.9077    1.9947    0.2186 N   0  0  0  0  0  0  0  0  0  0  0  0
    2.9278    2.4393    0.2153 N   0  0  0  0  0  0  0  0  0  0  0  0
    3.4790   -0.3930    0.7310 B   0  0  0  0  0  0  0  0  0  0  0  0
    2.6216   -0.3716   -0.4018 F   0  0  0  0  0  0  0  0  0  0  0  0
    4.4597    0.6075    0.5427 F   0  0  0  0  0  0  0  0  0  0  0  0
    2.6895    0.0160    1.8607 F   0  0  0  0  0  0  0  0  0  0  0  0
    4.0248   -1.6312    0.9353 F   0  0  0  0  0  0  0  0  0  0  0  0
   -3.1321    0.6842   -0.0251 H   0  0  0  0  0  0  0  0  0  0  0  0
  1  2  1  0  0  0  0
  1  7  1  0  0  0  0
  2  8  1  0  0  0  0
  3 11  1  0  0  0  0
  3  2  2  0  0  0  0
  4  3  1  0  0  0  0
  5  4  2  0  0  0  0
  5  6  1  0  0  0  0
  6  1  2  0  0  0  0
  9  4  1  0  0  0  0
 10  5  1  0  0  0  0
 12 11  1  0  0  0  0
 13 17  1  0  0  0  0
 13 16  1  0  0  0  0
 14 13  1  0  0  0  0
 15 13  1  0  0  0  0
 18  6  1  0  0  0  0
M  RAD  2  11   2  12   3
M  END
