Coordinates from ORCA-job Ph-N2-H-BF4-B3LYPG-6-31G_dp-scan-d09-49-n400
 OpenBabel08281821063D

 18 17  0  0  0  0  0  0  0  0999 V2000
   -1.2884    0.4262    1.0576 C   0  0  0  0  0  0  0  0  0  0  0  0
    0.0651    0.7349    1.1421 C   0  0  0  0  0  0  0  0  0  0  0  0
    0.5776    1.5953    0.1618 C   0  0  0  0  0  0  0  0  0  0  0  0
   -0.1893    2.1435   -0.8795 C   0  0  0  0  0  0  0  0  0  0  0  0
   -1.5331    1.7998   -0.9372 C   0  0  0  0  0  0  0  0  0  0  0  0
   -2.0796    0.9468    0.0292 C   0  0  0  0  0  0  0  0  0  0  0  0
   -1.7233   -0.2388    1.7961 H   0  0  0  0  0  0  0  0  0  0  0  0
    0.7269    0.3289    1.8982 H   0  0  0  0  0  0  0  0  0  0  0  0
    0.2648    2.7997   -1.6136 H   0  0  0  0  0  0  0  0  0  0  0  0
   -2.1526    2.1961   -1.7343 H   0  0  0  0  0  0  0  0  0  0  0  0
    1.9080    1.9958    0.2165 N   0  0  0  0  0  0  0  0  0  0  0  0
    2.9283    2.4398    0.2132 N   0  0  0  0  0  0  0  0  0  0  0  0
    3.4776   -0.3935    0.7336 B   0  0  0  0  0  0  0  0  0  0  0  0
    2.6174   -0.3724   -0.3973 F   0  0  0  0  0  0  0  0  0  0  0  0
    4.4585    0.6061    0.5421 F   0  0  0  0  0  0  0  0  0  0  0  0
    2.6909    0.0166    1.8646 F   0  0  0  0  0  0  0  0  0  0  0  0
    4.0230   -1.6320    0.9371 F   0  0  0  0  0  0  0  0  0  0  0  0
   -3.1313    0.6831   -0.0246 H   0  0  0  0  0  0  0  0  0  0  0  0
  1  2  1  0  0  0  0
  1  7  1  0  0  0  0
  2  8  1  0  0  0  0
  3 11  1  0  0  0  0
  3  2  2  0  0  0  0
  4  3  1  0  0  0  0
  5  4  2  0  0  0  0
  5  6  1  0  0  0  0
  6  1  2  0  0  0  0
  9  4  1  0  0  0  0
 10  5  1  0  0  0  0
 12 11  1  0  0  0  0
 13 17  1  0  0  0  0
 13 16  1  0  0  0  0
 14 13  1  0  0  0  0
 15 13  1  0  0  0  0
 18  6  1  0  0  0  0
M  RAD  2  11   2  12   3
M  END
