Coordinates from ORCA-job Ph-N2-H-BF4-B3LYPG-6-31G_dp-scan-d09-49-n400
 OpenBabel08281821063D

 18 17  0  0  0  0  0  0  0  0999 V2000
   -1.3332    0.5440    1.1870 C   0  0  0  0  0  0  0  0  0  0  0  0
    0.0002    0.9007    1.3510 C   0  0  0  0  0  0  0  0  0  0  0  0
    0.5945    1.6263    0.3103 C   0  0  0  0  0  0  0  0  0  0  0  0
   -0.0691    1.9940   -0.8690 C   0  0  0  0  0  0  0  0  0  0  0  0
   -1.3960    1.6071   -1.0025 C   0  0  0  0  0  0  0  0  0  0  0  0
   -2.0250    0.8901    0.0220 C   0  0  0  0  0  0  0  0  0  0  0  0
   -1.8284   -0.0221    1.9685 H   0  0  0  0  0  0  0  0  0  0  0  0
    0.5889    0.6070    2.2090 H   0  0  0  0  0  0  0  0  0  0  0  0
    0.4513    2.5395   -1.6474 H   0  0  0  0  0  0  0  0  0  0  0  0
   -1.9378    1.8615   -1.9069 H   0  0  0  0  0  0  0  0  0  0  0  0
    1.9031    2.0702    0.4569 N   0  0  0  0  0  0  0  0  0  0  0  0
    2.9124    2.5294    0.5391 N   0  0  0  0  0  0  0  0  0  0  0  0
    3.3929   -0.3711    0.4887 B   0  0  0  0  0  0  0  0  0  0  0  0
    2.6282   -0.0757   -0.6741 F   0  0  0  0  0  0  0  0  0  0  0  0
    4.4155    0.5990    0.5857 F   0  0  0  0  0  0  0  0  0  0  0  0
    2.5239   -0.1665    1.6134 F   0  0  0  0  0  0  0  0  0  0  0  0
    3.8811   -1.6492    0.4678 F   0  0  0  0  0  0  0  0  0  0  0  0
   -3.0619    0.5916   -0.0937 H   0  0  0  0  0  0  0  0  0  0  0  0
  1  2  1  0  0  0  0
  1  7  1  0  0  0  0
  2  8  1  0  0  0  0
  3 11  1  0  0  0  0
  3  2  2  0  0  0  0
  4  3  1  0  0  0  0
  5  4  2  0  0  0  0
  5  6  1  0  0  0  0
  6  1  2  0  0  0  0
  9  4  1  0  0  0  0
 10  5  1  0  0  0  0
 11 12  1  0  0  0  0
 13 15  1  0  0  0  0
 13 16  1  0  0  0  0
 14 13  1  0  0  0  0
 17 13  1  0  0  0  0
 18  6  1  0  0  0  0
M  RAD  2  11   2  12   3
M  END
