Coordinates from ORCA-job Ph-N2-H-BF4-B3LYPG-6-31G_dp-scan-d09-49-n400
 OpenBabel08281821063D

 18 17  0  0  0  0  0  0  0  0999 V2000
   -1.3236    0.4838    1.1242 C   0  0  0  0  0  0  0  0  0  0  0  0
    0.0201    0.8141    1.2628 C   0  0  0  0  0  0  0  0  0  0  0  0
    0.5827    1.6051    0.2521 C   0  0  0  0  0  0  0  0  0  0  0  0
   -0.1278    2.0699   -0.8657 C   0  0  0  0  0  0  0  0  0  0  0  0
   -1.4640    1.7091   -0.9740 C   0  0  0  0  0  0  0  0  0  0  0  0
   -2.0585    0.9202    0.0175 C   0  0  0  0  0  0  0  0  0  0  0  0
   -1.7950   -0.1328    1.8821 H   0  0  0  0  0  0  0  0  0  0  0  0
    0.6329    0.4637    2.0827 H   0  0  0  0  0  0  0  0  0  0  0  0
    0.3646    2.6742   -1.6190 H   0  0  0  0  0  0  0  0  0  0  0  0
   -2.0392    2.0412   -1.8314 H   0  0  0  0  0  0  0  0  0  0  0  0
    1.9039    2.0261    0.3528 N   0  0  0  0  0  0  0  0  0  0  0  0
    2.9162    2.4855    0.3882 N   0  0  0  0  0  0  0  0  0  0  0  0
    3.4500   -0.3836    0.5961 B   0  0  0  0  0  0  0  0  0  0  0  0
    2.6262   -0.2721   -0.5540 F   0  0  0  0  0  0  0  0  0  0  0  0
    4.4505    0.6106    0.5035 F   0  0  0  0  0  0  0  0  0  0  0  0
    2.6335   -0.0373    1.7295 F   0  0  0  0  0  0  0  0  0  0  0  0
    3.9708   -1.6415    0.7358 F   0  0  0  0  0  0  0  0  0  0  0  0
   -3.1027    0.6397   -0.0774 H   0  0  0  0  0  0  0  0  0  0  0  0
  1  2  1  0  0  0  0
  1  7  1  0  0  0  0
  2  8  1  0  0  0  0
  3 11  1  0  0  0  0
  3  2  2  0  0  0  0
  4  3  1  0  0  0  0
  5  4  2  0  0  0  0
  5  6  1  0  0  0  0
  6  1  2  0  0  0  0
  9  4  1  0  0  0  0
 10  5  1  0  0  0  0
 11 12  1  0  0  0  0
 13 17  1  0  0  0  0
 13 16  1  0  0  0  0
 14 13  1  0  0  0  0
 15 13  1  0  0  0  0
 18  6  1  0  0  0  0
M  RAD  2  11   2  12   3
M  END
