Coordinates from ORCA-job Ph-N2-H-BF4-B3LYPG-6-31G_dp-scan-d09-49-n400
 OpenBabel08281821053D

 18 17  0  0  0  0  0  0  0  0999 V2000
   -1.2307    0.3465    0.9655 C   0  0  0  0  0  0  0  0  0  0  0  0
    0.1257    0.6529    1.0005 C   0  0  0  0  0  0  0  0  0  0  0  0
    0.5799    1.5982    0.0704 C   0  0  0  0  0  0  0  0  0  0  0  0
   -0.2455    2.2369   -0.8712 C   0  0  0  0  0  0  0  0  0  0  0  0
   -1.5905    1.8950   -0.8803 C   0  0  0  0  0  0  0  0  0  0  0  0
   -2.0788    0.9533    0.0345 C   0  0  0  0  0  0  0  0  0  0  0  0
   -1.6241   -0.3824    1.6661 H   0  0  0  0  0  0  0  0  0  0  0  0
    0.8337    0.2078    1.6927 H   0  0  0  0  0  0  0  0  0  0  0  0
    0.1659    2.9594   -1.5674 H   0  0  0  0  0  0  0  0  0  0  0  0
   -2.2565    2.3606   -1.5987 H   0  0  0  0  0  0  0  0  0  0  0  0
    1.9175    1.9725    0.0663 N   0  0  0  0  0  0  0  0  0  0  0  0
    2.9538    2.3754    0.0062 N   0  0  0  0  0  0  0  0  0  0  0  0
    3.4700   -0.3957    0.8844 B   0  0  0  0  0  0  0  0  0  0  0  0
    2.5387   -0.4996   -0.1867 F   0  0  0  0  0  0  0  0  0  0  0  0
    4.4335    0.5704    0.5158 F   0  0  0  0  0  0  0  0  0  0  0  0
    2.7485    0.1401    2.0022 F   0  0  0  0  0  0  0  0  0  0  0  0
    4.0317   -1.6057    1.1885 F   0  0  0  0  0  0  0  0  0  0  0  0
   -3.1321    0.6903    0.0173 H   0  0  0  0  0  0  0  0  0  0  0  0
  1  2  1  0  0  0  0
  1  7  1  0  0  0  0
  2  8  1  0  0  0  0
  3  2  2  0  0  0  0
  4  3  1  0  0  0  0
  5  4  2  0  0  0  0
  5  6  1  0  0  0  0
  6  1  2  0  0  0  0
  9  4  1  0  0  0  0
 10  5  1  0  0  0  0
 11  3  1  0  0  0  0
 12 11  1  0  0  0  0
 13 17  1  0  0  0  0
 13 16  1  0  0  0  0
 14 13  1  0  0  0  0
 15 13  1  0  0  0  0
 18  6  1  0  0  0  0
M  RAD  2  11   2  12   3
M  END
