Coordinates from ORCA-job Ph-N2-H-BF4-B3LYPG-6-31G_dp-scan-d09-49-n400
 OpenBabel08281821063D

 18 17  0  0  0  0  0  0  0  0999 V2000
   -1.5396    0.8484    1.3614 C   0  0  0  0  0  0  0  0  0  0  0  0
   -0.2320    1.2130    1.6529 C   0  0  0  0  0  0  0  0  0  0  0  0
    0.5870    1.5836    0.5799 C   0  0  0  0  0  0  0  0  0  0  0  0
    0.1799    1.5800   -0.7589 C   0  0  0  0  0  0  0  0  0  0  0  0
   -1.1381    1.2195   -1.0127 C   0  0  0  0  0  0  0  0  0  0  0  0
   -1.9910    0.8604    0.0363 C   0  0  0  0  0  0  0  0  0  0  0  0
   -2.2019    0.5445    2.1643 H   0  0  0  0  0  0  0  0  0  0  0  0
    0.1715    1.1855    2.6570 H   0  0  0  0  0  0  0  0  0  0  0  0
    0.8950    1.7985   -1.5390 H   0  0  0  0  0  0  0  0  0  0  0  0
   -1.4941    1.1993   -2.0370 H   0  0  0  0  0  0  0  0  0  0  0  0
    1.8740    2.0073    0.8852 N   0  0  0  0  0  0  0  0  0  0  0  0
    2.8609    2.4325    1.1693 N   0  0  0  0  0  0  0  0  0  0  0  0
    3.3628   -0.2311   -0.0031 B   0  0  0  0  0  0  0  0  0  0  0  0
    2.7043    0.5270   -1.0272 F   0  0  0  0  0  0  0  0  0  0  0  0
    4.3764    0.5913    0.5319 F   0  0  0  0  0  0  0  0  0  0  0  0
    2.3932   -0.4402    1.0210 F   0  0  0  0  0  0  0  0  0  0  0  0
    3.8459   -1.4140   -0.4936 F   0  0  0  0  0  0  0  0  0  0  0  0
   -3.0139    0.5706   -0.1820 H   0  0  0  0  0  0  0  0  0  0  0  0
  1  2  1  0  0  0  0
  1  7  1  0  0  0  0
  2  8  1  0  0  0  0
  3 11  1  0  0  0  0
  3  2  2  0  0  0  0
  4  3  1  0  0  0  0
  5  4  2  0  0  0  0
  5  6  1  0  0  0  0
  6  1  2  0  0  0  0
  9  4  1  0  0  0  0
 10  5  1  0  0  0  0
 11 12  1  0  0  0  0
 13 15  1  0  0  0  0
 13 16  1  0  0  0  0
 14 13  1  0  0  0  0
 17 13  1  0  0  0  0
 18  6  1  0  0  0  0
M  RAD  2  11   2  12   3
M  END
