Coordinates from ORCA-job Ph-N2-H-BF4-B3LYPG-6-31G_dp-scan-d09-49-n400
 OpenBabel08281821063D

 18 17  0  0  0  0  0  0  0  0999 V2000
   -1.5125    0.8166    1.3515 C   0  0  0  0  0  0  0  0  0  0  0  0
   -0.2051    1.1888    1.6342 C   0  0  0  0  0  0  0  0  0  0  0  0
    0.5925    1.5975    0.5598 C   0  0  0  0  0  0  0  0  0  0  0  0
    0.1673    1.6190   -0.7729 C   0  0  0  0  0  0  0  0  0  0  0  0
   -1.1492    1.2479   -1.0185 C   0  0  0  0  0  0  0  0  0  0  0  0
   -1.9831    0.8543    0.0336 C   0  0  0  0  0  0  0  0  0  0  0  0
   -2.1597    0.4848    2.1558 H   0  0  0  0  0  0  0  0  0  0  0  0
    0.2115    1.1394    2.6320 H   0  0  0  0  0  0  0  0  0  0  0  0
    0.8676    1.8660   -1.5583 H   0  0  0  0  0  0  0  0  0  0  0  0
   -1.5187    1.2465   -2.0382 H   0  0  0  0  0  0  0  0  0  0  0  0
    1.8792    2.0301    0.8534 N   0  0  0  0  0  0  0  0  0  0  0  0
    2.8663    2.4628    1.1246 N   0  0  0  0  0  0  0  0  0  0  0  0
    3.3441   -0.2445    0.0370 B   0  0  0  0  0  0  0  0  0  0  0  0
    2.6772    0.4869   -1.0009 F   0  0  0  0  0  0  0  0  0  0  0  0
    4.3689    0.5864    0.5348 F   0  0  0  0  0  0  0  0  0  0  0  0
    2.3866   -0.4188    1.0800 F   0  0  0  0  0  0  0  0  0  0  0  0
    3.8131   -1.4447   -0.4248 F   0  0  0  0  0  0  0  0  0  0  0  0
   -3.0053    0.5570   -0.1773 H   0  0  0  0  0  0  0  0  0  0  0  0
  1  2  1  0  0  0  0
  1  7  1  0  0  0  0
  2  8  1  0  0  0  0
  3 11  1  0  0  0  0
  3  2  2  0  0  0  0
  4  3  1  0  0  0  0
  5  4  2  0  0  0  0
  5  6  1  0  0  0  0
  6  1  2  0  0  0  0
  9  4  1  0  0  0  0
 10  5  1  0  0  0  0
 11 12  1  0  0  0  0
 13 15  1  0  0  0  0
 13 16  1  0  0  0  0
 14 13  1  0  0  0  0
 17 13  1  0  0  0  0
 18  6  1  0  0  0  0
M  RAD  2  11   2  12   3
M  END
