Coordinates from ORCA-job Ph-N2-H-BF4-B3LYPG-6-31G_dp-scan-d09-49-n400
 OpenBabel08281821053D

 18 17  0  0  0  0  0  0  0  0999 V2000
   -1.2266    0.0871    0.6049 C   0  0  0  0  0  0  0  0  0  0  0  0
    0.1417    0.2058    0.3835 C   0  0  0  0  0  0  0  0  0  0  0  0
    0.5750    1.3683   -0.2698 C   0  0  0  0  0  0  0  0  0  0  0  0
   -0.2851    2.3942   -0.7012 C   0  0  0  0  0  0  0  0  0  0  0  0
   -1.6416    2.2428   -0.4521 C   0  0  0  0  0  0  0  0  0  0  0  0
   -2.1082    1.0931    0.1989 C   0  0  0  0  0  0  0  0  0  0  0  0
   -1.6033   -0.7976    1.1068 H   0  0  0  0  0  0  0  0  0  0  0  0
    0.8653   -0.5419    0.6807 H   0  0  0  0  0  0  0  0  0  0  0  0
    0.1098    3.2717   -1.2009 H   0  0  0  0  0  0  0  0  0  0  0  0
   -2.3336    3.0171   -0.7644 H   0  0  0  0  0  0  0  0  0  0  0  0
    1.9240    1.5448   -0.5506 N   0  0  0  0  0  0  0  0  0  0  0  0
    2.9660    1.7646   -0.8780 N   0  0  0  0  0  0  0  0  0  0  0  0
    3.5110   -0.1339    1.3207 B   0  0  0  0  0  0  0  0  0  0  0  0
    2.8647   -1.0196    0.4139 F   0  0  0  0  0  0  0  0  0  0  0  0
    4.4369    0.6363    0.5747 F   0  0  0  0  0  0  0  0  0  0  0  0
    2.5063    0.7643    1.7949 F   0  0  0  0  0  0  0  0  0  0  0  0
    4.1094   -0.8052    2.3529 F   0  0  0  0  0  0  0  0  0  0  0  0
   -3.1712    0.9839    0.3911 H   0  0  0  0  0  0  0  0  0  0  0  0
  1  7  1  0  0  0  0
  2  1  1  0  0  0  0
  2  8  1  0  0  0  0
  3  2  2  0  0  0  0
  4  5  2  0  0  0  0
  4  3  1  0  0  0  0
  5  6  1  0  0  0  0
  6 18  1  0  0  0  0
  6  1  2  0  0  0  0
  9  4  1  0  0  0  0
 10  5  1  0  0  0  0
 11  3  1  0  0  0  0
 12 11  1  0  0  0  0
 13 16  1  0  0  0  0
 13 17  1  0  0  0  0
 14 13  1  0  0  0  0
 15 13  1  0  0  0  0
M  RAD  2  11   2  12   3
M  END
