Coordinates from ORCA-job Ph-N2-H-BF4-B3LYPG-6-31G_dp-scan-d09-49-n400
 OpenBabel08281821063D

 18 17  0  0  0  0  0  0  0  0999 V2000
   -1.2739    0.4056    1.0311 C   0  0  0  0  0  0  0  0  0  0  0  0
    0.0828    0.7062    1.0926 C   0  0  0  0  0  0  0  0  0  0  0  0
    0.5758    1.5916    0.1247 C   0  0  0  0  0  0  0  0  0  0  0  0
   -0.2125    2.1710   -0.8838 C   0  0  0  0  0  0  0  0  0  0  0  0
   -1.5587    1.8340   -0.9197 C   0  0  0  0  0  0  0  0  0  0  0  0
   -2.0863    0.9572    0.0361 C   0  0  0  0  0  0  0  0  0  0  0  0
   -1.6949   -0.2770    1.7617 H   0  0  0  0  0  0  0  0  0  0  0  0
    0.7614    0.2814    1.8242 H   0  0  0  0  0  0  0  0  0  0  0  0
    0.2272    2.8460   -1.6097 H   0  0  0  0  0  0  0  0  0  0  0  0
   -2.1950    2.2543   -1.6910 H   0  0  0  0  0  0  0  0  0  0  0  0
    1.9094    1.9828    0.1583 N   0  0  0  0  0  0  0  0  0  0  0  0
    2.9348    2.4153    0.1366 N   0  0  0  0  0  0  0  0  0  0  0  0
    3.4861   -0.3967    0.7880 B   0  0  0  0  0  0  0  0  0  0  0  0
    2.6210   -0.4067   -0.3398 F   0  0  0  0  0  0  0  0  0  0  0  0
    4.4555    0.6102    0.5721 F   0  0  0  0  0  0  0  0  0  0  0  0
    2.7005    0.0259    1.9136 F   0  0  0  0  0  0  0  0  0  0  0  0
    4.0475   -1.6245    1.0109 F   0  0  0  0  0  0  0  0  0  0  0  0
   -3.1403    0.6996    0.0000 H   0  0  0  0  0  0  0  0  0  0  0  0
  1  2  1  0  0  0  0
  1  7  1  0  0  0  0
  2  8  1  0  0  0  0
  3 11  1  0  0  0  0
  3  2  2  0  0  0  0
  4  3  1  0  0  0  0
  5  4  2  0  0  0  0
  5  6  1  0  0  0  0
  6  1  2  0  0  0  0
  9  4  1  0  0  0  0
 10  5  1  0  0  0  0
 12 11  1  0  0  0  0
 13 17  1  0  0  0  0
 13 16  1  0  0  0  0
 14 13  1  0  0  0  0
 15 13  1  0  0  0  0
 18  6  1  0  0  0  0
M  RAD  2  11   2  12   3
M  END
