Coordinates from ORCA-job Ph-N2-H-BF4-B3LYPG-6-31G_dp-scan-d09-49-n400
 OpenBabel08281821063D

 18 17  0  0  0  0  0  0  0  0999 V2000
   -1.3810    0.6305    1.2594 C   0  0  0  0  0  0  0  0  0  0  0  0
   -0.0635    1.0113    1.4828 C   0  0  0  0  0  0  0  0  0  0  0  0
    0.6039    1.6375    0.4237 C   0  0  0  0  0  0  0  0  0  0  0  0
    0.0389    1.8664   -0.8366 C   0  0  0  0  0  0  0  0  0  0  0  0
   -1.2772    1.4659   -1.0259 C   0  0  0  0  0  0  0  0  0  0  0  0
   -1.9837    0.8570    0.0173 C   0  0  0  0  0  0  0  0  0  0  0  0
   -1.9329    0.1386    2.0528 H   0  0  0  0  0  0  0  0  0  0  0  0
    0.4513    0.8096    2.4127 H   0  0  0  0  0  0  0  0  0  0  0  0
    0.6278    2.3116   -1.6288 H   0  0  0  0  0  0  0  0  0  0  0  0
   -1.7474    1.6186   -1.9912 H   0  0  0  0  0  0  0  0  0  0  0  0
    1.8992    2.0933    0.6311 N   0  0  0  0  0  0  0  0  0  0  0  0
    2.9008    2.5517    0.7800 N   0  0  0  0  0  0  0  0  0  0  0  0
    3.3268   -0.3292    0.3055 B   0  0  0  0  0  0  0  0  0  0  0  0
    2.5820    0.1162   -0.8252 F   0  0  0  0  0  0  0  0  0  0  0  0
    4.3682    0.6004    0.5192 F   0  0  0  0  0  0  0  0  0  0  0  0
    2.4491   -0.2407    1.4364 F   0  0  0  0  0  0  0  0  0  0  0  0
    3.7881   -1.6068    0.1369 F   0  0  0  0  0  0  0  0  0  0  0  0
   -3.0100    0.5440   -0.1444 H   0  0  0  0  0  0  0  0  0  0  0  0
  1  2  1  0  0  0  0
  1  7  1  0  0  0  0
  2  8  1  0  0  0  0
  3 11  1  0  0  0  0
  3  2  2  0  0  0  0
  4  3  1  0  0  0  0
  5  4  2  0  0  0  0
  5  6  1  0  0  0  0
  6  1  2  0  0  0  0
  9  4  1  0  0  0  0
 10  5  1  0  0  0  0
 11 12  1  0  0  0  0
 13 15  1  0  0  0  0
 13 16  1  0  0  0  0
 14 13  1  0  0  0  0
 17 13  1  0  0  0  0
 18  6  1  0  0  0  0
M  RAD  2  11   2  12   3
M  END
