Coordinates from ORCA-job Ph-N2-H-BF4-B3LYPG-6-31G_dp-scan-d09-49-n400
 OpenBabel08281821053D

 18 17  0  0  0  0  0  0  0  0999 V2000
   -1.2418    0.0917    0.6080 C   0  0  0  0  0  0  0  0  0  0  0  0
    0.1280    0.2042    0.3926 C   0  0  0  0  0  0  0  0  0  0  0  0
    0.5700    1.3620   -0.2629 C   0  0  0  0  0  0  0  0  0  0  0  0
   -0.2845    2.3899   -0.7007 C   0  0  0  0  0  0  0  0  0  0  0  0
   -1.6428    2.2456   -0.4567 C   0  0  0  0  0  0  0  0  0  0  0  0
   -2.1175    1.1001    0.1953 C   0  0  0  0  0  0  0  0  0  0  0  0
   -1.6241   -0.7899    1.1110 H   0  0  0  0  0  0  0  0  0  0  0  0
    0.8424   -0.5462    0.7002 H   0  0  0  0  0  0  0  0  0  0  0  0
    0.1162    3.2642   -1.2012 H   0  0  0  0  0  0  0  0  0  0  0  0
   -2.3297    3.0226   -0.7738 H   0  0  0  0  0  0  0  0  0  0  0  0
    1.9204    1.5347   -0.5414 N   0  0  0  0  0  0  0  0  0  0  0  0
    2.9599    1.7571   -0.8749 N   0  0  0  0  0  0  0  0  0  0  0  0
    3.5305   -0.1349    1.3136 B   0  0  0  0  0  0  0  0  0  0  0  0
    2.9190   -1.0226    0.3887 F   0  0  0  0  0  0  0  0  0  0  0  0
    4.4461    0.6699    0.5907 F   0  0  0  0  0  0  0  0  0  0  0  0
    2.4978    0.7339    1.7872 F   0  0  0  0  0  0  0  0  0  0  0  0
    4.1321   -0.8022    2.3469 F   0  0  0  0  0  0  0  0  0  0  0  0
   -3.1817    0.9959    0.3832 H   0  0  0  0  0  0  0  0  0  0  0  0
  1  7  1  0  0  0  0
  2  1  1  0  0  0  0
  2  8  1  0  0  0  0
  3  2  2  0  0  0  0
  4  5  2  0  0  0  0
  4  3  1  0  0  0  0
  5  6  1  0  0  0  0
  6 18  1  0  0  0  0
  6  1  2  0  0  0  0
  9  4  1  0  0  0  0
 10  5  1  0  0  0  0
 11  3  1  0  0  0  0
 12 11  1  0  0  0  0
 13 16  1  0  0  0  0
 13 17  1  0  0  0  0
 14 13  1  0  0  0  0
 15 13  1  0  0  0  0
M  RAD  2  11   2  12   3
M  END
