Coordinates from ORCA-job Ph-N2-H-BF4-B3LYPG-6-31G_dp-scan-d09-49-n400
 OpenBabel08281821053D

 18 17  0  0  0  0  0  0  0  0999 V2000
   -1.1168    0.0720    0.5404 C   0  0  0  0  0  0  0  0  0  0  0  0
    0.2430    0.2594    0.3059 C   0  0  0  0  0  0  0  0  0  0  0  0
    0.6011    1.4662   -0.3166 C   0  0  0  0  0  0  0  0  0  0  0  0
   -0.3092    2.4674   -0.7020 C   0  0  0  0  0  0  0  0  0  0  0  0
   -1.6517    2.2409   -0.4401 C   0  0  0  0  0  0  0  0  0  0  0  0
   -2.0506    1.0468    0.1784 C   0  0  0  0  0  0  0  0  0  0  0  0
   -1.4453   -0.8441    1.0196 H   0  0  0  0  0  0  0  0  0  0  0  0
    1.0249   -0.4637    0.5824 H   0  0  0  0  0  0  0  0  0  0  0  0
    0.0371    3.3783   -1.1773 H   0  0  0  0  0  0  0  0  0  0  0  0
   -2.3867    2.9893   -0.7155 H   0  0  0  0  0  0  0  0  0  0  0  0
    1.9383    1.6897   -0.6036 N   0  0  0  0  0  0  0  0  0  0  0  0
    3.0054    1.8584   -0.8757 N   0  0  0  0  0  0  0  0  0  0  0  0
    3.3995   -0.2035    1.3958 B   0  0  0  0  0  0  0  0  0  0  0  0
    2.5061   -1.2235    0.9368 F   0  0  0  0  0  0  0  0  0  0  0  0
    4.2050    0.1880    0.2955 F   0  0  0  0  0  0  0  0  0  0  0  0
    2.5936    0.9142    1.7502 F   0  0  0  0  0  0  0  0  0  0  0  0
    4.1513   -0.6400    2.4515 F   0  0  0  0  0  0  0  0  0  0  0  0
   -3.1045    0.8801    0.3801 H   0  0  0  0  0  0  0  0  0  0  0  0
  1  7  1  0  0  0  0
  2  1  1  0  0  0  0
  2  8  1  0  0  0  0
  3  2  2  0  0  0  0
  4  5  2  0  0  0  0
  4  3  1  0  0  0  0
  5  6  1  0  0  0  0
  6 18  1  0  0  0  0
  6  1  2  0  0  0  0
  9  4  1  0  0  0  0
 10  5  1  0  0  0  0
 11  3  1  0  0  0  0
 12 11  1  0  0  0  0
 13 16  1  0  0  0  0
 13 17  1  0  0  0  0
 14 13  1  0  0  0  0
 15 13  1  0  0  0  0
M  RAD  2  11   2  12   3
M  END
