Coordinates from ORCA-job Ph-N2-H-BF4-B3LYPG-6-31G_dp-scan-d09-49-n400
 OpenBabel08281821063D

 18 17  0  0  0  0  0  0  0  0999 V2000
   -1.2993    0.4368    1.0698 C   0  0  0  0  0  0  0  0  0  0  0  0
    0.0538    0.7447    1.1635 C   0  0  0  0  0  0  0  0  0  0  0  0
    0.5771    1.5923    0.1780 C   0  0  0  0  0  0  0  0  0  0  0  0
   -0.1796    2.1293   -0.8765 C   0  0  0  0  0  0  0  0  0  0  0  0
   -1.5233    1.7869   -0.9430 C   0  0  0  0  0  0  0  0  0  0  0  0
   -2.0802    0.9461    0.0279 C   0  0  0  0  0  0  0  0  0  0  0  0
   -1.7421   -0.2191    1.8118 H   0  0  0  0  0  0  0  0  0  0  0  0
    0.7062    0.3441    1.9299 H   0  0  0  0  0  0  0  0  0  0  0  0
    0.2825    2.7761   -1.6138 H   0  0  0  0  0  0  0  0  0  0  0  0
   -2.1344    2.1747   -1.7508 H   0  0  0  0  0  0  0  0  0  0  0  0
    1.9066    1.9950    0.2396 N   0  0  0  0  0  0  0  0  0  0  0  0
    2.9244    2.4447    0.2404 N   0  0  0  0  0  0  0  0  0  0  0  0
    3.4801   -0.3904    0.7092 B   0  0  0  0  0  0  0  0  0  0  0  0
    2.6317   -0.3596   -0.4295 F   0  0  0  0  0  0  0  0  0  0  0  0
    4.4636    0.6102    0.5362 F   0  0  0  0  0  0  0  0  0  0  0  0
    2.6825    0.0122    1.8360 F   0  0  0  0  0  0  0  0  0  0  0  0
    4.0225   -1.6306    0.9102 F   0  0  0  0  0  0  0  0  0  0  0  0
   -3.1315    0.6827   -0.0330 H   0  0  0  0  0  0  0  0  0  0  0  0
  1  2  1  0  0  0  0
  1  7  1  0  0  0  0
  2  8  1  0  0  0  0
  3 11  1  0  0  0  0
  3  2  2  0  0  0  0
  4  3  1  0  0  0  0
  5  4  2  0  0  0  0
  5  6  1  0  0  0  0
  6  1  2  0  0  0  0
  9  4  1  0  0  0  0
 10  5  1  0  0  0  0
 11 12  1  0  0  0  0
 13 17  1  0  0  0  0
 13 16  1  0  0  0  0
 14 13  1  0  0  0  0
 15 13  1  0  0  0  0
 18  6  1  0  0  0  0
M  RAD  2  11   2  12   3
M  END
