Coordinates from ORCA-job Ph-N2-H-BF4-B3LYPG-6-31G_dp-scan-d09-49-n400
 OpenBabel08281821063D

 18 17  0  0  0  0  0  0  0  0999 V2000
   -1.4607    0.7529    1.3281 C   0  0  0  0  0  0  0  0  0  0  0  0
   -0.1540    1.1403    1.5945 C   0  0  0  0  0  0  0  0  0  0  0  0
    0.6006    1.6254    0.5208 C   0  0  0  0  0  0  0  0  0  0  0  0
    0.1372    1.6995   -0.7971 C   0  0  0  0  0  0  0  0  0  0  0  0
   -1.1753    1.3065   -1.0272 C   0  0  0  0  0  0  0  0  0  0  0  0
   -1.9693    0.8422    0.0272 C   0  0  0  0  0  0  0  0  0  0  0  0
   -2.0765    0.3647    2.1317 H   0  0  0  0  0  0  0  0  0  0  0  0
    0.2931    1.0441    2.5754 H   0  0  0  0  0  0  0  0  0  0  0  0
    0.8047    2.0075   -1.5902 H   0  0  0  0  0  0  0  0  0  0  0  0
   -1.5724    1.3433   -2.0357 H   0  0  0  0  0  0  0  0  0  0  0  0
    1.8884    2.0702    0.7897 N   0  0  0  0  0  0  0  0  0  0  0  0
    2.8785    2.5118    1.0340 N   0  0  0  0  0  0  0  0  0  0  0  0
    3.3123   -0.2699    0.1168 B   0  0  0  0  0  0  0  0  0  0  0  0
    2.6305    0.4009   -0.9499 F   0  0  0  0  0  0  0  0  0  0  0  0
    4.3646    0.5717    0.5306 F   0  0  0  0  0  0  0  0  0  0  0  0
    2.3836   -0.3553    1.1995 F   0  0  0  0  0  0  0  0  0  0  0  0
    3.7445   -1.5089   -0.2721 F   0  0  0  0  0  0  0  0  0  0  0  0
   -2.9893    0.5290   -0.1704 H   0  0  0  0  0  0  0  0  0  0  0  0
  1  2  1  0  0  0  0
  1  7  1  0  0  0  0
  2  8  1  0  0  0  0
  3 11  1  0  0  0  0
  3  2  2  0  0  0  0
  4  3  1  0  0  0  0
  5  4  2  0  0  0  0
  5  6  1  0  0  0  0
  6  1  2  0  0  0  0
  9  4  1  0  0  0  0
 10  5  1  0  0  0  0
 11 12  1  0  0  0  0
 13 15  1  0  0  0  0
 13 16  1  0  0  0  0
 14 13  1  0  0  0  0
 17 13  1  0  0  0  0
 18  6  1  0  0  0  0
M  RAD  2  11   2  12   3
M  END
