Coordinates from ORCA-job Ph-N2-H-BF4-B3LYPG-6-31G_dp-scan-d09-49-n400
 OpenBabel08281821053D

 18 17  0  0  0  0  0  0  0  0999 V2000
   -1.2607    0.0966    0.6096 C   0  0  0  0  0  0  0  0  0  0  0  0
    0.1106    0.2003    0.3994 C   0  0  0  0  0  0  0  0  0  0  0  0
    0.5634    1.3531   -0.2573 C   0  0  0  0  0  0  0  0  0  0  0  0
   -0.2839    2.3850   -0.6996 C   0  0  0  0  0  0  0  0  0  0  0  0
   -1.6441    2.2504   -0.4602 C   0  0  0  0  0  0  0  0  0  0  0  0
   -2.1288    1.1093    0.1917 C   0  0  0  0  0  0  0  0  0  0  0  0
   -1.6498   -0.7817    1.1132 H   0  0  0  0  0  0  0  0  0  0  0  0
    0.8143   -0.5540    0.7190 H   0  0  0  0  0  0  0  0  0  0  0  0
    0.1239    3.2560   -1.2003 H   0  0  0  0  0  0  0  0  0  0  0  0
   -2.3245    3.0316   -0.7809 H   0  0  0  0  0  0  0  0  0  0  0  0
    1.9153    1.5213   -0.5329 N   0  0  0  0  0  0  0  0  0  0  0  0
    2.9525    1.7472   -0.8714 N   0  0  0  0  0  0  0  0  0  0  0  0
    3.5548   -0.1357    1.3065 B   0  0  0  0  0  0  0  0  0  0  0  0
    2.9881   -1.0300    0.3642 F   0  0  0  0  0  0  0  0  0  0  0  0
    4.4545    0.7093    0.6091 F   0  0  0  0  0  0  0  0  0  0  0  0
    2.4876    0.6974    1.7758 F   0  0  0  0  0  0  0  0  0  0  0  0
    4.1613   -0.7921    2.3442 F   0  0  0  0  0  0  0  0  0  0  0  0
   -3.1944    1.0120    0.3760 H   0  0  0  0  0  0  0  0  0  0  0  0
  1  7  1  0  0  0  0
  2  1  1  0  0  0  0
  2  8  1  0  0  0  0
  3  2  2  0  0  0  0
  4  5  2  0  0  0  0
  4  3  1  0  0  0  0
  5  6  1  0  0  0  0
  6 18  1  0  0  0  0
  6  1  2  0  0  0  0
  9  4  1  0  0  0  0
 10  5  1  0  0  0  0
 11  3  1  0  0  0  0
 12 11  1  0  0  0  0
 13 16  1  0  0  0  0
 13 17  1  0  0  0  0
 14 13  1  0  0  0  0
 15 13  1  0  0  0  0
M  RAD  2  11   2  12   3
M  END
