Coordinates from ORCA-job Ph-N2-H-BF4-B3LYPG-6-31G_dp-scan-d09-49-n400
 OpenBabel08281821063D

 18 17  0  0  0  0  0  0  0  0999 V2000
   -1.4324    0.7175    1.3121 C   0  0  0  0  0  0  0  0  0  0  0  0
   -0.1252    1.1108    1.5678 C   0  0  0  0  0  0  0  0  0  0  0  0
    0.6038    1.6378    0.4962 C   0  0  0  0  0  0  0  0  0  0  0  0
    0.1156    1.7457   -0.8104 C   0  0  0  0  0  0  0  0  0  0  0  0
   -1.1955    1.3431   -1.0305 C   0  0  0  0  0  0  0  0  0  0  0  0
   -1.9651    0.8384    0.0236 C   0  0  0  0  0  0  0  0  0  0  0  0
   -2.0294    0.2982    2.1143 H   0  0  0  0  0  0  0  0  0  0  0  0
    0.3412    0.9868    2.5365 H   0  0  0  0  0  0  0  0  0  0  0  0
    0.7626    2.0893   -1.6063 H   0  0  0  0  0  0  0  0  0  0  0  0
   -1.6106    1.4045   -2.0306 H   0  0  0  0  0  0  0  0  0  0  0  0
    1.8930    2.0878    0.7498 N   0  0  0  0  0  0  0  0  0  0  0  0
    2.8851    2.5335    0.9781 N   0  0  0  0  0  0  0  0  0  0  0  0
    3.3010   -0.2850    0.1659 B   0  0  0  0  0  0  0  0  0  0  0  0
    2.6067    0.3465   -0.9153 F   0  0  0  0  0  0  0  0  0  0  0  0
    4.3648    0.5651    0.5298 F   0  0  0  0  0  0  0  0  0  0  0  0
    2.3910   -0.3204    1.2687 F   0  0  0  0  0  0  0  0  0  0  0  0
    3.7186   -1.5421   -0.1786 F   0  0  0  0  0  0  0  0  0  0  0  0
   -2.9847    0.5184   -0.1653 H   0  0  0  0  0  0  0  0  0  0  0  0
  1  2  1  0  0  0  0
  1  7  1  0  0  0  0
  2  8  1  0  0  0  0
  3 11  1  0  0  0  0
  3  2  2  0  0  0  0
  4  3  1  0  0  0  0
  5  4  2  0  0  0  0
  5  6  1  0  0  0  0
  6  1  2  0  0  0  0
  9  4  1  0  0  0  0
 10  5  1  0  0  0  0
 11 12  1  0  0  0  0
 13 15  1  0  0  0  0
 13 16  1  0  0  0  0
 14 13  1  0  0  0  0
 17 13  1  0  0  0  0
 18  6  1  0  0  0  0
M  RAD  2  11   2  12   3
M  END
