Coordinates from ORCA-job Ph-N2-H-BF4-B3LYPG-6-31G_dp-scan-d09-49-n400
 OpenBabel08281821063D

 18 17  0  0  0  0  0  0  0  0999 V2000
   -1.3041    0.4506    1.0874 C   0  0  0  0  0  0  0  0  0  0  0  0
    0.0452    0.7693    1.1979 C   0  0  0  0  0  0  0  0  0  0  0  0
    0.5804    1.5999    0.2040 C   0  0  0  0  0  0  0  0  0  0  0  0
   -0.1611    2.1114   -0.8732 C   0  0  0  0  0  0  0  0  0  0  0  0
   -1.5015    1.7595   -0.9553 C   0  0  0  0  0  0  0  0  0  0  0  0
   -2.0699    0.9342    0.0222 C   0  0  0  0  0  0  0  0  0  0  0  0
   -1.7554   -0.1936    1.8344 H   0  0  0  0  0  0  0  0  0  0  0  0
    0.6859    0.3865    1.9827 H   0  0  0  0  0  0  0  0  0  0  0  0
    0.3102    2.7453   -1.6158 H   0  0  0  0  0  0  0  0  0  0  0  0
   -2.1010    2.1274   -1.7808 H   0  0  0  0  0  0  0  0  0  0  0  0
    1.9065    2.0109    0.2813 N   0  0  0  0  0  0  0  0  0  0  0  0
    2.9220    2.4649    0.2962 N   0  0  0  0  0  0  0  0  0  0  0  0
    3.4643   -0.3892    0.6715 B   0  0  0  0  0  0  0  0  0  0  0  0
    2.6124   -0.3319   -0.4638 F   0  0  0  0  0  0  0  0  0  0  0  0
    4.4555    0.6057    0.5122 F   0  0  0  0  0  0  0  0  0  0  0  0
    2.6723   -0.0004    1.8073 F   0  0  0  0  0  0  0  0  0  0  0  0
    3.9970   -1.6374    0.8492 F   0  0  0  0  0  0  0  0  0  0  0  0
   -3.1182    0.6628   -0.0515 H   0  0  0  0  0  0  0  0  0  0  0  0
  1  2  1  0  0  0  0
  1  7  1  0  0  0  0
  2  8  1  0  0  0  0
  3 11  1  0  0  0  0
  3  2  2  0  0  0  0
  4  3  1  0  0  0  0
  5  4  2  0  0  0  0
  5  6  1  0  0  0  0
  6  1  2  0  0  0  0
  9  4  1  0  0  0  0
 10  5  1  0  0  0  0
 11 12  1  0  0  0  0
 13 17  1  0  0  0  0
 13 16  1  0  0  0  0
 14 13  1  0  0  0  0
 15 13  1  0  0  0  0
 18  6  1  0  0  0  0
M  RAD  2  11   2  12   3
M  END
