Coordinates from ORCA-job Ph-N2-H-BF4-B3LYPG-6-31G_dp-scan-d09-49-n400
 OpenBabel08281821063D

 18 17  0  0  0  0  0  0  0  0999 V2000
   -1.4782    0.7751    1.3373 C   0  0  0  0  0  0  0  0  0  0  0  0
   -0.1712    1.1572    1.6085 C   0  0  0  0  0  0  0  0  0  0  0  0
    0.5981    1.6168    0.5338 C   0  0  0  0  0  0  0  0  0  0  0  0
    0.1490    1.6708   -0.7900 C   0  0  0  0  0  0  0  0  0  0  0  0
   -1.1652    1.2855   -1.0246 C   0  0  0  0  0  0  0  0  0  0  0  0
   -1.9734    0.8470    0.0299 C   0  0  0  0  0  0  0  0  0  0  0  0
   -2.1047    0.4060    2.1415 H   0  0  0  0  0  0  0  0  0  0  0  0
    0.2692    1.0742    2.5938 H   0  0  0  0  0  0  0  0  0  0  0  0
    0.8286    1.9559   -1.5810 H   0  0  0  0  0  0  0  0  0  0  0  0
   -1.5527    1.3077   -2.0373 H   0  0  0  0  0  0  0  0  0  0  0  0
    1.8850    2.0582    0.8123 N   0  0  0  0  0  0  0  0  0  0  0  0
    2.8741    2.4967    1.0664 N   0  0  0  0  0  0  0  0  0  0  0  0
    3.3210   -0.2605    0.0893 B   0  0  0  0  0  0  0  0  0  0  0  0
    2.6450    0.4331   -0.9673 F   0  0  0  0  0  0  0  0  0  0  0  0
    4.3634    0.5776    0.5350 F   0  0  0  0  0  0  0  0  0  0  0  0
    2.3798   -0.3792    1.1568 F   0  0  0  0  0  0  0  0  0  0  0  0
    3.7674   -1.4858   -0.3264 F   0  0  0  0  0  0  0  0  0  0  0  0
   -2.9944    0.5398   -0.1720 H   0  0  0  0  0  0  0  0  0  0  0  0
  1  2  1  0  0  0  0
  1  7  1  0  0  0  0
  2  8  1  0  0  0  0
  3 11  1  0  0  0  0
  3  2  2  0  0  0  0
  4  3  1  0  0  0  0
  5  4  2  0  0  0  0
  5  6  1  0  0  0  0
  6  1  2  0  0  0  0
  9  4  1  0  0  0  0
 10  5  1  0  0  0  0
 11 12  1  0  0  0  0
 13 15  1  0  0  0  0
 13 16  1  0  0  0  0
 14 13  1  0  0  0  0
 17 13  1  0  0  0  0
 18  6  1  0  0  0  0
M  RAD  2  11   2  12   3
M  END
