Coordinates from ORCA-job Ph-N2-H-BF4-B3LYPG-6-31G_dp-scan-d09-49-n400
 OpenBabel08281821063D

 18 17  0  0  0  0  0  0  0  0999 V2000
   -1.5949    0.9411    1.3858 C   0  0  0  0  0  0  0  0  0  0  0  0
   -0.2831    1.2862    1.6812 C   0  0  0  0  0  0  0  0  0  0  0  0
    0.5768    1.5460    0.6085 C   0  0  0  0  0  0  0  0  0  0  0  0
    0.2016    1.4622   -0.7369 C   0  0  0  0  0  0  0  0  0  0  0  0
   -1.1223    1.1269   -0.9962 C   0  0  0  0  0  0  0  0  0  0  0  0
   -2.0128    0.8701    0.0517 C   0  0  0  0  0  0  0  0  0  0  0  0
   -2.2860    0.7199    2.1916 H   0  0  0  0  0  0  0  0  0  0  0  0
    0.0986    1.3279    2.6923 H   0  0  0  0  0  0  0  0  0  0  0  0
    0.9460    1.6002   -1.5080 H   0  0  0  0  0  0  0  0  0  0  0  0
   -1.4544    1.0450   -2.0255 H   0  0  0  0  0  0  0  0  0  0  0  0
    1.8651    1.9448    0.9457 N   0  0  0  0  0  0  0  0  0  0  0  0
    2.8396    2.3580    1.2845 N   0  0  0  0  0  0  0  0  0  0  0  0
    3.4087   -0.1894   -0.0871 B   0  0  0  0  0  0  0  0  0  0  0  0
    2.8314    0.7417   -1.0232 F   0  0  0  0  0  0  0  0  0  0  0  0
    4.3908    0.5175    0.6327 F   0  0  0  0  0  0  0  0  0  0  0  0
    2.3659   -0.5327    0.8155 F   0  0  0  0  0  0  0  0  0  0  0  0
    3.9084   -1.2865   -0.7339 F   0  0  0  0  0  0  0  0  0  0  0  0
   -3.0389    0.5968   -0.1729 H   0  0  0  0  0  0  0  0  0  0  0  0
  1  2  1  0  0  0  0
  1  7  1  0  0  0  0
  2  8  1  0  0  0  0
  3 11  1  0  0  0  0
  3  2  2  0  0  0  0
  4  3  1  0  0  0  0
  5  4  2  0  0  0  0
  5  6  1  0  0  0  0
  6  1  2  0  0  0  0
  9  4  1  0  0  0  0
 10  5  1  0  0  0  0
 11 12  1  0  0  0  0
 13 15  1  0  0  0  0
 13 16  1  0  0  0  0
 14 13  1  0  0  0  0
 17 13  1  0  0  0  0
 18  6  1  0  0  0  0
M  RAD  2  11   2  12   3
M  END
