Coordinates from ORCA-job Ph-N2-H-BF4-B3LYPG-6-31G_dp-scan-d09-49-n400
 OpenBabel08281821063D

 18 17  0  0  0  0  0  0  0  0999 V2000
   -1.3433    0.5584    1.1993 C   0  0  0  0  0  0  0  0  0  0  0  0
   -0.0106    0.9143    1.3696 C   0  0  0  0  0  0  0  0  0  0  0  0
    0.5944    1.6237    0.3241 C   0  0  0  0  0  0  0  0  0  0  0  0
   -0.0579    1.9754   -0.8659 C   0  0  0  0  0  0  0  0  0  0  0  0
   -1.3847    1.5899   -1.0055 C   0  0  0  0  0  0  0  0  0  0  0  0
   -2.0243    0.8893    0.0235 C   0  0  0  0  0  0  0  0  0  0  0  0
   -1.8465    0.0046    1.9845 H   0  0  0  0  0  0  0  0  0  0  0  0
    0.5638    0.6358    2.2418 H   0  0  0  0  0  0  0  0  0  0  0  0
    0.4713    2.5071   -1.6479 H   0  0  0  0  0  0  0  0  0  0  0  0
   -1.9178    1.8326   -1.9182 H   0  0  0  0  0  0  0  0  0  0  0  0
    1.9016    2.0684    0.4777 N   0  0  0  0  0  0  0  0  0  0  0  0
    2.9103    2.5275    0.5681 N   0  0  0  0  0  0  0  0  0  0  0  0
    3.3937   -0.3668    0.4621 B   0  0  0  0  0  0  0  0  0  0  0  0
    2.6488   -0.0519   -0.7078 F   0  0  0  0  0  0  0  0  0  0  0  0
    4.4119    0.6041    0.5950 F   0  0  0  0  0  0  0  0  0  0  0  0
    2.5051   -0.1854    1.5760 F   0  0  0  0  0  0  0  0  0  0  0  0
    3.8856   -1.6430    0.4265 F   0  0  0  0  0  0  0  0  0  0  0  0
   -3.0609    0.5917   -0.0969 H   0  0  0  0  0  0  0  0  0  0  0  0
  1  2  1  0  0  0  0
  1  7  1  0  0  0  0
  2  8  1  0  0  0  0
  3 11  1  0  0  0  0
  3  2  2  0  0  0  0
  4  3  1  0  0  0  0
  5  4  2  0  0  0  0
  5  6  1  0  0  0  0
  6  1  2  0  0  0  0
  9  4  1  0  0  0  0
 10  5  1  0  0  0  0
 11 12  1  0  0  0  0
 13 15  1  0  0  0  0
 13 16  1  0  0  0  0
 14 13  1  0  0  0  0
 17 13  1  0  0  0  0
 18  6  1  0  0  0  0
M  RAD  2  11   2  12   3
M  END
