Coordinates from ORCA-job Ph-N2-H-BF4-B3LYPG-6-31G_dp-scan-d09-49-n400
 OpenBabel08281821063D

 18 17  0  0  0  0  0  0  0  0999 V2000
   -1.3644    0.5970    1.2331 C   0  0  0  0  0  0  0  0  0  0  0  0
   -0.0386    0.9642    1.4310 C   0  0  0  0  0  0  0  0  0  0  0  0
    0.5985    1.6293    0.3764 C   0  0  0  0  0  0  0  0  0  0  0  0
   -0.0103    1.9193   -0.8514 C   0  0  0  0  0  0  0  0  0  0  0  0
   -1.3320    1.5269   -1.0170 C   0  0  0  0  0  0  0  0  0  0  0  0
   -2.0057    0.8739    0.0212 C   0  0  0  0  0  0  0  0  0  0  0  0
   -1.8930    0.0762    2.0240 H   0  0  0  0  0  0  0  0  0  0  0  0
    0.5034    0.7268    2.3361 H   0  0  0  0  0  0  0  0  0  0  0  0
    0.5493    2.4073   -1.6403 H   0  0  0  0  0  0  0  0  0  0  0  0
   -1.8332    1.7243   -1.9582 H   0  0  0  0  0  0  0  0  0  0  0  0
    1.9000    2.0798    0.5562 N   0  0  0  0  0  0  0  0  0  0  0  0
    2.9055    2.5386    0.6760 N   0  0  0  0  0  0  0  0  0  0  0  0
    3.3638   -0.3490    0.3788 B   0  0  0  0  0  0  0  0  0  0  0  0
    2.6315    0.0315   -0.7805 F   0  0  0  0  0  0  0  0  0  0  0  0
    4.3899    0.6047    0.5668 F   0  0  0  0  0  0  0  0  0  0  0  0
    2.4678   -0.2175    1.4923 F   0  0  0  0  0  0  0  0  0  0  0  0
    3.8456   -1.6263    0.2815 F   0  0  0  0  0  0  0  0  0  0  0  0
   -3.0375    0.5690   -0.1202 H   0  0  0  0  0  0  0  0  0  0  0  0
  1  2  1  0  0  0  0
  1  7  1  0  0  0  0
  2  8  1  0  0  0  0
  3 11  1  0  0  0  0
  3  2  2  0  0  0  0
  4  3  1  0  0  0  0
  5  4  2  0  0  0  0
  5  6  1  0  0  0  0
  6  1  2  0  0  0  0
  9  4  1  0  0  0  0
 10  5  1  0  0  0  0
 11 12  1  0  0  0  0
 13 15  1  0  0  0  0
 13 16  1  0  0  0  0
 14 13  1  0  0  0  0
 17 13  1  0  0  0  0
 18  6  1  0  0  0  0
M  RAD  2  11   2  12   3
M  END
