Coordinates from ORCA-job Ph-N2-H-BF4-B3LYPG-6-31G_dp-scan-d09-49-n400
 OpenBabel08281821063D

 18 17  0  0  0  0  0  0  0  0999 V2000
   -1.3295    0.5032    1.1460 C   0  0  0  0  0  0  0  0  0  0  0  0
    0.0101    0.8437    1.2985 C   0  0  0  0  0  0  0  0  0  0  0  0
    0.5863    1.6118    0.2782 C   0  0  0  0  0  0  0  0  0  0  0  0
   -0.1060    2.0443   -0.8632 C   0  0  0  0  0  0  0  0  0  0  0  0
   -1.4386    1.6741   -0.9849 C   0  0  0  0  0  0  0  0  0  0  0  0
   -2.0468    0.9081    0.0161 C   0  0  0  0  0  0  0  0  0  0  0  0
   -1.8109   -0.0967    1.9109 H   0  0  0  0  0  0  0  0  0  0  0  0
    0.6095    0.5145    2.1362 H   0  0  0  0  0  0  0  0  0  0  0  0
    0.3977    2.6296   -1.6239 H   0  0  0  0  0  0  0  0  0  0  0  0
   -2.0000    1.9806   -1.8607 H   0  0  0  0  0  0  0  0  0  0  0  0
    1.9034    2.0407    0.3954 N   0  0  0  0  0  0  0  0  0  0  0  0
    2.9140    2.5022    0.4464 N   0  0  0  0  0  0  0  0  0  0  0  0
    3.4318   -0.3789    0.5529 B   0  0  0  0  0  0  0  0  0  0  0  0
    2.6230   -0.2162   -0.6019 F   0  0  0  0  0  0  0  0  0  0  0  0
    4.4440    0.6060    0.5083 F   0  0  0  0  0  0  0  0  0  0  0  0
    2.6048   -0.0638    1.6877 F   0  0  0  0  0  0  0  0  0  0  0  0
    3.9357   -1.6473    0.6536 F   0  0  0  0  0  0  0  0  0  0  0  0
   -3.0879    0.6202   -0.0897 H   0  0  0  0  0  0  0  0  0  0  0  0
  1  2  1  0  0  0  0
  1  7  1  0  0  0  0
  2  8  1  0  0  0  0
  3 11  1  0  0  0  0
  3  2  2  0  0  0  0
  4  3  1  0  0  0  0
  5  4  2  0  0  0  0
  5  6  1  0  0  0  0
  6  1  2  0  0  0  0
  9  4  1  0  0  0  0
 10  5  1  0  0  0  0
 11 12  1  0  0  0  0
 13 17  1  0  0  0  0
 13 16  1  0  0  0  0
 14 13  1  0  0  0  0
 15 13  1  0  0  0  0
 18  6  1  0  0  0  0
M  RAD  2  11   2  12   3
M  END
