Coordinates from ORCA-job Ph-N2-H-BF4-B3LYPG-6-31G_dp-scan-d09-49-n400
 OpenBabel08281821053D

 18 17  0  0  0  0  0  0  0  0999 V2000
   -1.0693    0.0855    0.5643 C   0  0  0  0  0  0  0  0  0  0  0  0
    0.2898    0.2821    0.3177 C   0  0  0  0  0  0  0  0  0  0  0  0
    0.6123    1.4847   -0.3345 C   0  0  0  0  0  0  0  0  0  0  0  0
   -0.3141    2.4651   -0.7408 C   0  0  0  0  0  0  0  0  0  0  0  0
   -1.6495    2.2215   -0.4661 C   0  0  0  0  0  0  0  0  0  0  0  0
   -2.0219    1.0345    0.1855 C   0  0  0  0  0  0  0  0  0  0  0  0
   -1.3838   -0.8223    1.0691 H   0  0  0  0  0  0  0  0  0  0  0  0
    1.1223   -0.4316    0.6146 H   0  0  0  0  0  0  0  0  0  0  0  0
    0.0148    3.3699   -1.2398 H   0  0  0  0  0  0  0  0  0  0  0  0
   -2.4003    2.9489   -0.7548 H   0  0  0  0  0  0  0  0  0  0  0  0
    1.9455    1.7243   -0.6231 N   0  0  0  0  0  0  0  0  0  0  0  0
    3.0174    1.8942   -0.8740 N   0  0  0  0  0  0  0  0  0  0  0  0
    3.3506   -0.2071    1.4106 B   0  0  0  0  0  0  0  0  0  0  0  0
    2.3355   -1.1400    0.9371 F   0  0  0  0  0  0  0  0  0  0  0  0
    4.1675    0.1055    0.3068 F   0  0  0  0  0  0  0  0  0  0  0  0
    2.6485    0.9613    1.7861 F   0  0  0  0  0  0  0  0  0  0  0  0
    4.0467   -0.7562    2.4479 F   0  0  0  0  0  0  0  0  0  0  0  0
   -3.0716    0.8557    0.3994 H   0  0  0  0  0  0  0  0  0  0  0  0
  1  7  1  0  0  0  0
  2  1  1  0  0  0  0
  2  8  1  0  0  0  0
  3  2  2  0  0  0  0
  4  5  2  0  0  0  0
  4  3  1  0  0  0  0
  5  6  1  0  0  0  0
  6 18  1  0  0  0  0
  6  1  2  0  0  0  0
  9  4  1  0  0  0  0
 10  5  1  0  0  0  0
 11  3  1  0  0  0  0
 12 11  1  0  0  0  0
 13 16  1  0  0  0  0
 13 17  1  0  0  0  0
 14 13  1  0  0  0  0
 15 13  1  0  0  0  0
M  RAD  2  11   2  12   3
M  END
