Coordinates from ORCA-job Ph-N2-H-BF4-B3LYPG-6-31G_dp-scan-d09-49-n400
 OpenBabel08281821063D

 18 17  0  0  0  0  0  0  0  0999 V2000
   -1.8338    1.7239    1.2459 C   0  0  0  0  0  0  0  0  0  0  0  0
   -0.5543    1.7145    1.7809 C   0  0  0  0  0  0  0  0  0  0  0  0
    0.4576    1.0896    1.0253 C   0  0  0  0  0  0  0  0  0  0  0  0
    0.2434    0.4615   -0.2114 C   0  0  0  0  0  0  0  0  0  0  0  0
   -1.0571    0.4901   -0.7070 C   0  0  0  0  0  0  0  0  0  0  0  0
   -2.0811    1.1188    0.0056 C   0  0  0  0  0  0  0  0  0  0  0  0
   -2.6396    2.1999    1.7937 H   0  0  0  0  0  0  0  0  0  0  0  0
   -0.3447    2.1670    2.7451 H   0  0  0  0  0  0  0  0  0  0  0  0
    1.0747   -0.0283   -0.7137 H   0  0  0  0  0  0  0  0  0  0  0  0
   -1.2664    0.0182   -1.6605 H   0  0  0  0  0  0  0  0  0  0  0  0
    1.7349    1.0834    1.5655 N   0  0  0  0  0  0  0  0  0  0  0  0
    2.7360    1.0853    2.0565 N   0  0  0  0  0  0  0  0  0  0  0  0
    3.6806    0.3620   -0.7337 B   0  0  0  0  0  0  0  0  0  0  0  0
    2.8395    1.5049   -0.8120 F   0  0  0  0  0  0  0  0  0  0  0  0
    4.3541    0.4203    0.5165 F   0  0  0  0  0  0  0  0  0  0  0  0
    2.8235   -0.7766   -0.7064 F   0  0  0  0  0  0  0  0  0  0  0  0
    4.5602    0.3059   -1.7814 F   0  0  0  0  0  0  0  0  0  0  0  0
   -3.0870    1.1356   -0.4030 H   0  0  0  0  0  0  0  0  0  0  0  0
  1  2  1  0  0  0  0
  1  7  1  0  0  0  0
  2  8  1  0  0  0  0
  3 11  1  0  0  0  0
  3  2  2  0  0  0  0
  4  3  1  0  0  0  0
  5  4  2  0  0  0  0
  5  6  1  0  0  0  0
  6  1  2  0  0  0  0
  9  4  1  0  0  0  0
 10  5  1  0  0  0  0
 11 12  1  0  0  0  0
 13 16  1  0  0  0  0
 13 15  1  0  0  0  0
 14 13  1  0  0  0  0
 17 13  1  0  0  0  0
 18  6  1  0  0  0  0
M  RAD  2  11   2  12   3
M  END
