Coordinates from ORCA-job Ph-N2-H-BF4-B3LYPG-6-31G_dp-scan-d09-49-n400
 OpenBabel08281821053D

 18 16  0  0  0  0  0  0  0  0999 V2000
   -1.0406    0.1079    0.5660 C   0  0  0  0  0  0  0  0  0  0  0  0
    0.3265    0.3346    0.3560 C   0  0  0  0  0  0  0  0  0  0  0  0
    0.6009    1.5427   -0.3116 C   0  0  0  0  0  0  0  0  0  0  0  0
   -0.3470    2.4893   -0.7603 C   0  0  0  0  0  0  0  0  0  0  0  0
   -1.6773    2.2020   -0.5173 C   0  0  0  0  0  0  0  0  0  0  0  0
   -2.0191    1.0100    0.1466 C   0  0  0  0  0  0  0  0  0  0  0  0
   -1.3436   -0.8008    1.0786 H   0  0  0  0  0  0  0  0  0  0  0  0
    1.2368   -0.4184    0.7419 H   0  0  0  0  0  0  0  0  0  0  0  0
   -0.0368    3.3966   -1.2674 H   0  0  0  0  0  0  0  0  0  0  0  0
   -2.4479    2.8944   -0.8380 H   0  0  0  0  0  0  0  0  0  0  0  0
    1.9294    1.8353   -0.5740 N   0  0  0  0  0  0  0  0  0  0  0  0
    3.0025    2.0398   -0.7898 N   0  0  0  0  0  0  0  0  0  0  0  0
    3.3762   -0.2501    1.3975 B   0  0  0  0  0  0  0  0  0  0  0  0
    2.1443   -1.0833    1.1320 F   0  0  0  0  0  0  0  0  0  0  0  0
    3.9972   -0.1011    0.1581 F   0  0  0  0  0  0  0  0  0  0  0  0
    2.8760    0.9808    1.8286 F   0  0  0  0  0  0  0  0  0  0  0  0
    4.1301   -0.8975    2.3231 F   0  0  0  0  0  0  0  0  0  0  0  0
   -3.0670    0.7937    0.3358 H   0  0  0  0  0  0  0  0  0  0  0  0
  1  7  1  0  0  0  0
  2  1  1  0  0  0  0
  3  2  2  0  0  0  0
  4  5  2  0  0  0  0
  4  3  1  0  0  0  0
  5  6  1  0  0  0  0
  6 18  1  0  0  0  0
  6  1  2  0  0  0  0
  8 14  1  0  0  0  0
  9  4  1  0  0  0  0
 10  5  1  0  0  0  0
 11  3  1  0  0  0  0
 12 11  1  0  0  0  0
 13 16  1  0  0  0  0
 13 17  1  0  0  0  0
 15 13  1  0  0  0  0
M  RAD  3   2   2  11   2  12   3
M  END
