Coordinates from ORCA-job Ph-N2-H-BF4-B3LYPG-6-31G_dp-scan-d09-49-n400
 OpenBabel08281821063D

 18 17  0  0  0  0  0  0  0  0999 V2000
   -1.3272    0.5093    1.1541 C   0  0  0  0  0  0  0  0  0  0  0  0
    0.0100    0.8566    1.3107 C   0  0  0  0  0  0  0  0  0  0  0  0
    0.5895    1.6175    0.2866 C   0  0  0  0  0  0  0  0  0  0  0  0
   -0.0962    2.0351   -0.8640 C   0  0  0  0  0  0  0  0  0  0  0  0
   -1.4265    1.6580   -0.9898 C   0  0  0  0  0  0  0  0  0  0  0  0
   -2.0385    0.9005    0.0155 C   0  0  0  0  0  0  0  0  0  0  0  0
   -1.8108   -0.0853    1.9217 H   0  0  0  0  0  0  0  0  0  0  0  0
    0.6086    0.5352    2.1524 H   0  0  0  0  0  0  0  0  0  0  0  0
    0.4103    2.6133   -1.6282 H   0  0  0  0  0  0  0  0  0  0  0  0
   -1.9836    1.9521   -1.8725 H   0  0  0  0  0  0  0  0  0  0  0  0
    1.9043    2.0516    0.4114 N   0  0  0  0  0  0  0  0  0  0  0  0
    2.9139    2.5140    0.4699 N   0  0  0  0  0  0  0  0  0  0  0  0
    3.4169   -0.3768    0.5394 B   0  0  0  0  0  0  0  0  0  0  0  0
    2.6081   -0.1822   -0.6121 F   0  0  0  0  0  0  0  0  0  0  0  0
    4.4388    0.5980    0.5127 F   0  0  0  0  0  0  0  0  0  0  0  0
    2.5934   -0.0761    1.6799 F   0  0  0  0  0  0  0  0  0  0  0  0
    3.9073   -1.6524    0.6123 F   0  0  0  0  0  0  0  0  0  0  0  0
   -3.0778    0.6077   -0.0941 H   0  0  0  0  0  0  0  0  0  0  0  0
  1  2  1  0  0  0  0
  1  7  1  0  0  0  0
  2  8  1  0  0  0  0
  3 11  1  0  0  0  0
  3  2  2  0  0  0  0
  4  3  1  0  0  0  0
  5  4  2  0  0  0  0
  5  6  1  0  0  0  0
  6  1  2  0  0  0  0
  9  4  1  0  0  0  0
 10  5  1  0  0  0  0
 11 12  1  0  0  0  0
 13 17  1  0  0  0  0
 13 16  1  0  0  0  0
 14 13  1  0  0  0  0
 15 13  1  0  0  0  0
 18  6  1  0  0  0  0
M  RAD  2  11   2  12   3
M  END
