Coordinates from ORCA-job Ph-N2-H-BF4-B3LYPG-6-31G_dp-scan-d09-49-n400
 OpenBabel08281821063D

 18 17  0  0  0  0  0  0  0  0999 V2000
   -1.3182    0.4725    1.1115 C   0  0  0  0  0  0  0  0  0  0  0  0
    0.0277    0.7981    1.2406 C   0  0  0  0  0  0  0  0  0  0  0  0
    0.5811    1.6026    0.2355 C   0  0  0  0  0  0  0  0  0  0  0  0
   -0.1404    2.0847   -0.8681 C   0  0  0  0  0  0  0  0  0  0  0  0
   -1.4783    1.7280   -0.9674 C   0  0  0  0  0  0  0  0  0  0  0  0
   -2.0639    0.9261    0.0191 C   0  0  0  0  0  0  0  0  0  0  0  0
   -1.7829   -0.1537    1.8656 H   0  0  0  0  0  0  0  0  0  0  0  0
    0.6497    0.4358    2.0486 H   0  0  0  0  0  0  0  0  0  0  0  0
    0.3449    2.6995   -1.6176 H   0  0  0  0  0  0  0  0  0  0  0  0
   -2.0619    2.0735   -1.8137 H   0  0  0  0  0  0  0  0  0  0  0  0
    1.9044    2.0193    0.3270 N   0  0  0  0  0  0  0  0  0  0  0  0
    2.9182    2.4763    0.3543 N   0  0  0  0  0  0  0  0  0  0  0  0
    3.4577   -0.3860    0.6224 B   0  0  0  0  0  0  0  0  0  0  0  0
    2.6262   -0.2964   -0.5243 F   0  0  0  0  0  0  0  0  0  0  0  0
    4.4536    0.6107    0.5073 F   0  0  0  0  0  0  0  0  0  0  0  0
    2.6474   -0.0250    1.7552 F   0  0  0  0  0  0  0  0  0  0  0  0
    3.9849   -1.6394    0.7782 F   0  0  0  0  0  0  0  0  0  0  0  0
   -3.1097    0.6493   -0.0685 H   0  0  0  0  0  0  0  0  0  0  0  0
  1  2  1  0  0  0  0
  1  7  1  0  0  0  0
  2  8  1  0  0  0  0
  3 11  1  0  0  0  0
  3  2  2  0  0  0  0
  4  3  1  0  0  0  0
  5  4  2  0  0  0  0
  5  6  1  0  0  0  0
  6  1  2  0  0  0  0
  9  4  1  0  0  0  0
 10  5  1  0  0  0  0
 11 12  1  0  0  0  0
 13 17  1  0  0  0  0
 13 16  1  0  0  0  0
 14 13  1  0  0  0  0
 15 13  1  0  0  0  0
 18  6  1  0  0  0  0
M  RAD  2  11   2  12   3
M  END
