Coordinates from ORCA-job Ph-N2-H-BF4-B3LYPG-6-31G_dp-scan-d09-49-n400
 OpenBabel08281821063D

 18 17  0  0  0  0  0  0  0  0999 V2000
   -1.2364    0.3704    0.9834 C   0  0  0  0  0  0  0  0  0  0  0  0
    0.1219    0.6698    1.0068 C   0  0  0  0  0  0  0  0  0  0  0  0
    0.5769    1.5978    0.0598 C   0  0  0  0  0  0  0  0  0  0  0  0
   -0.2489    2.2223   -0.8910 C   0  0  0  0  0  0  0  0  0  0  0  0
   -1.5953    1.8855   -0.8899 C   0  0  0  0  0  0  0  0  0  0  0  0
   -2.0854    0.9650    0.0455 C   0  0  0  0  0  0  0  0  0  0  0  0
   -1.6303   -0.3435    1.6990 H   0  0  0  0  0  0  0  0  0  0  0  0
    0.8306    0.2245    1.6993 H   0  0  0  0  0  0  0  0  0  0  0  0
    0.1629    2.9305   -1.6015 H   0  0  0  0  0  0  0  0  0  0  0  0
   -2.2615    2.3394   -1.6154 H   0  0  0  0  0  0  0  0  0  0  0  0
    1.9133    1.9763    0.0574 N   0  0  0  0  0  0  0  0  0  0  0  0
    2.9513    2.3762    0.0032 N   0  0  0  0  0  0  0  0  0  0  0  0
    3.4803   -0.4061    0.8844 B   0  0  0  0  0  0  0  0  0  0  0  0
    2.5896   -0.4595   -0.2237 F   0  0  0  0  0  0  0  0  0  0  0  0
    4.4223    0.6180    0.6217 F   0  0  0  0  0  0  0  0  0  0  0  0
    2.7105    0.0162    2.0156 F   0  0  0  0  0  0  0  0  0  0  0  0
    4.0790   -1.6153    1.1126 F   0  0  0  0  0  0  0  0  0  0  0  0
   -3.1404    0.7086    0.0386 H   0  0  0  0  0  0  0  0  0  0  0  0
  1  2  1  0  0  0  0
  1  7  1  0  0  0  0
  2  8  1  0  0  0  0
  3  2  2  0  0  0  0
  4  5  2  0  0  0  0
  4  3  1  0  0  0  0
  5  6  1  0  0  0  0
  6  1  2  0  0  0  0
  9  4  1  0  0  0  0
 10  5  1  0  0  0  0
 11  3  1  0  0  0  0
 12 11  1  0  0  0  0
 13 17  1  0  0  0  0
 13 16  1  0  0  0  0
 14 13  1  0  0  0  0
 15 13  1  0  0  0  0
 18  6  1  0  0  0  0
M  RAD  2  11   2  12   3
M  END
