Coordinates from ORCA-job Ph-N2-H-BF4-B3LYPG-6-31G_dp-scan-d09-49-n400
 OpenBabel08281821053D

 18 16  0  0  0  0  0  0  0  0999 V2000
   -0.9524    0.1130    0.5266 C   0  0  0  0  0  0  0  0  0  0  0  0
    0.3892    0.4008    0.2136 C   0  0  0  0  0  0  0  0  0  0  0  0
    0.5340    1.6508   -0.4184 C   0  0  0  0  0  0  0  0  0  0  0  0
   -0.4858    2.5799   -0.7411 C   0  0  0  0  0  0  0  0  0  0  0  0
   -1.7732    2.2222   -0.3961 C   0  0  0  0  0  0  0  0  0  0  0  0
   -2.0014    0.9849    0.2387 C   0  0  0  0  0  0  0  0  0  0  0  0
   -1.1771   -0.8292    1.0202 H   0  0  0  0  0  0  0  0  0  0  0  0
    1.4444   -0.4278    0.5207 H   0  0  0  0  0  0  0  0  0  0  0  0
   -0.2588    3.5218   -1.2295 H   0  0  0  0  0  0  0  0  0  0  0  0
   -2.5991    2.8909   -0.6130 H   0  0  0  0  0  0  0  0  0  0  0  0
    1.8192    2.0176   -0.7781 N   0  0  0  0  0  0  0  0  0  0  0  0
    2.8565    2.3022   -1.0686 N   0  0  0  0  0  0  0  0  0  0  0  0
    3.4686   -0.3787    1.5066 B   0  0  0  0  0  0  0  0  0  0  0  0
    2.2468   -1.0729    0.7746 F   0  0  0  0  0  0  0  0  0  0  0  0
    4.5689   -0.9308    0.9314 F   0  0  0  0  0  0  0  0  0  0  0  0
    3.2888    0.9629    1.1839 F   0  0  0  0  0  0  0  0  0  0  0  0
    3.2904   -0.6443    2.8268 F   0  0  0  0  0  0  0  0  0  0  0  0
   -3.0185    0.7126    0.5076 H   0  0  0  0  0  0  0  0  0  0  0  0
  1  7  1  0  0  0  0
  2  1  2  0  0  0  0
  3  2  1  0  0  0  0
  4  3  2  0  0  0  0
  4  5  1  0  0  0  0
  5  6  2  0  0  0  0
  6 18  1  0  0  0  0
  6  1  1  0  0  0  0
  8 14  1  0  0  0  0
  9  4  1  0  0  0  0
 10  5  1  0  0  0  0
 11  3  1  0  0  0  0
 12 11  1  0  0  0  0
 13 17  1  0  0  0  0
 15 13  1  0  0  0  0
 16 13  1  0  0  0  0
M  RAD  3   2   2  11   2  12   3
M  END
