Coordinates from ORCA-job Ph-N2-H-BF4-B3LYPG-6-31G_dp-scan-d09-49-n400
 OpenBabel08281821063D

 18 17  0  0  0  0  0  0  0  0999 V2000
   -1.8324    1.7256    1.2446 C   0  0  0  0  0  0  0  0  0  0  0  0
   -0.5528    1.7154    1.7793 C   0  0  0  0  0  0  0  0  0  0  0  0
    0.4581    1.0881    1.0244 C   0  0  0  0  0  0  0  0  0  0  0  0
    0.2431    0.4589   -0.2115 C   0  0  0  0  0  0  0  0  0  0  0  0
   -1.0576    0.4882   -0.7067 C   0  0  0  0  0  0  0  0  0  0  0  0
   -2.0807    1.1189    0.0053 C   0  0  0  0  0  0  0  0  0  0  0  0
   -2.6374    2.2035    1.7919 H   0  0  0  0  0  0  0  0  0  0  0  0
   -0.3418    2.1691    2.7426 H   0  0  0  0  0  0  0  0  0  0  0  0
    1.0739   -0.0316   -0.7138 H   0  0  0  0  0  0  0  0  0  0  0  0
   -1.2677    0.0154   -1.6596 H   0  0  0  0  0  0  0  0  0  0  0  0
    1.7352    1.0803    1.5653 N   0  0  0  0  0  0  0  0  0  0  0  0
    2.7352    1.0809    2.0585 N   0  0  0  0  0  0  0  0  0  0  0  0
    3.6795    0.3641   -0.7325 B   0  0  0  0  0  0  0  0  0  0  0  0
    2.8362    1.5060   -0.8063 F   0  0  0  0  0  0  0  0  0  0  0  0
    4.3553    0.4206    0.5163 F   0  0  0  0  0  0  0  0  0  0  0  0
    2.8243   -0.7759   -0.7064 F   0  0  0  0  0  0  0  0  0  0  0  0
    4.5568    0.3124   -1.7824 F   0  0  0  0  0  0  0  0  0  0  0  0
   -3.0867    1.1362   -0.4031 H   0  0  0  0  0  0  0  0  0  0  0  0
  1  2  1  0  0  0  0
  1  7  1  0  0  0  0
  2  8  1  0  0  0  0
  3 11  1  0  0  0  0
  3  2  2  0  0  0  0
  4  3  1  0  0  0  0
  5  4  2  0  0  0  0
  5  6  1  0  0  0  0
  6  1  2  0  0  0  0
  9  4  1  0  0  0  0
 10  5  1  0  0  0  0
 11 12  1  0  0  0  0
 13 16  1  0  0  0  0
 13 15  1  0  0  0  0
 14 13  1  0  0  0  0
 17 13  1  0  0  0  0
 18  6  1  0  0  0  0
M  RAD  2  11   2  12   3
M  END
