Coordinates from ORCA-job Ph-N2-H-BF4-B3LYPG-6-31G_dp-scan-d09-49-n400
 OpenBabel08281821063D

 18 17  0  0  0  0  0  0  0  0999 V2000
   -1.2680    0.3995    1.0235 C   0  0  0  0  0  0  0  0  0  0  0  0
    0.0890    0.6997    1.0790 C   0  0  0  0  0  0  0  0  0  0  0  0
    0.5761    1.5924    0.1145 C   0  0  0  0  0  0  0  0  0  0  0  0
   -0.2184    2.1793   -0.8850 C   0  0  0  0  0  0  0  0  0  0  0  0
   -1.5646    1.8424   -0.9152 C   0  0  0  0  0  0  0  0  0  0  0  0
   -2.0863    0.9584    0.0374 C   0  0  0  0  0  0  0  0  0  0  0  0
   -1.6847   -0.2883    1.7516 H   0  0  0  0  0  0  0  0  0  0  0  0
    0.7727    0.2712    1.8042 H   0  0  0  0  0  0  0  0  0  0  0  0
    0.2169    2.8598   -1.6085 H   0  0  0  0  0  0  0  0  0  0  0  0
   -2.2057    2.2682   -1.6794 H   0  0  0  0  0  0  0  0  0  0  0  0
    1.9101    1.9820    0.1429 N   0  0  0  0  0  0  0  0  0  0  0  0
    2.9372    2.4104    0.1169 N   0  0  0  0  0  0  0  0  0  0  0  0
    3.4854   -0.3980    0.8031 B   0  0  0  0  0  0  0  0  0  0  0  0
    2.6150   -0.4157   -0.3207 F   0  0  0  0  0  0  0  0  0  0  0  0
    4.4519    0.6100    0.5777 F   0  0  0  0  0  0  0  0  0  0  0  0
    2.7036    0.0273    1.9294 F   0  0  0  0  0  0  0  0  0  0  0  0
    4.0510   -1.6236    1.0286 F   0  0  0  0  0  0  0  0  0  0  0  0
   -3.1406    0.7011    0.0059 H   0  0  0  0  0  0  0  0  0  0  0  0
  1  2  1  0  0  0  0
  1  7  1  0  0  0  0
  2  8  1  0  0  0  0
  3 11  1  0  0  0  0
  3  2  2  0  0  0  0
  4  3  1  0  0  0  0
  5  4  2  0  0  0  0
  5  6  1  0  0  0  0
  6  1  2  0  0  0  0
  9  4  1  0  0  0  0
 10  5  1  0  0  0  0
 12 11  1  0  0  0  0
 13 17  1  0  0  0  0
 13 16  1  0  0  0  0
 14 13  1  0  0  0  0
 15 13  1  0  0  0  0
 18  6  1  0  0  0  0
M  RAD  2  11   2  12   3
M  END
