Coordinates from ORCA-job Ph-N2-H-BF4-B3LYPG-6-31G_dp-scan-d09-49-n400
 OpenBabel08281821053D

 18 17  0  0  0  0  0  0  0  0999 V2000
   -1.2361    0.0901    0.6069 C   0  0  0  0  0  0  0  0  0  0  0  0
    0.1332    0.2049    0.3892 C   0  0  0  0  0  0  0  0  0  0  0  0
    0.5719    1.3644   -0.2656 C   0  0  0  0  0  0  0  0  0  0  0  0
   -0.2848    2.3915   -0.7011 C   0  0  0  0  0  0  0  0  0  0  0  0
   -1.6424    2.2446   -0.4550 C   0  0  0  0  0  0  0  0  0  0  0  0
   -2.1140    1.0976    0.1967 C   0  0  0  0  0  0  0  0  0  0  0  0
   -1.6163   -0.7928    1.1095 H   0  0  0  0  0  0  0  0  0  0  0  0
    0.8508   -0.5448    0.6929 H   0  0  0  0  0  0  0  0  0  0  0  0
    0.1138    3.2670   -1.2014 H   0  0  0  0  0  0  0  0  0  0  0  0
   -2.3313    3.0206   -0.7703 H   0  0  0  0  0  0  0  0  0  0  0  0
    1.9216    1.5384   -0.5450 N   0  0  0  0  0  0  0  0  0  0  0  0
    2.9619    1.7599   -0.8765 N   0  0  0  0  0  0  0  0  0  0  0  0
    3.5235   -0.1346    1.3164 B   0  0  0  0  0  0  0  0  0  0  0  0
    2.8986   -1.0210    0.3977 F   0  0  0  0  0  0  0  0  0  0  0  0
    4.4434    0.6578    0.5855 F   0  0  0  0  0  0  0  0  0  0  0  0
    2.5011    0.7449    1.7904 F   0  0  0  0  0  0  0  0  0  0  0  0
    4.1235   -0.8038    2.3491 F   0  0  0  0  0  0  0  0  0  0  0  0
   -3.1778    0.9915    0.3863 H   0  0  0  0  0  0  0  0  0  0  0  0
  1  7  1  0  0  0  0
  2  1  1  0  0  0  0
  2  8  1  0  0  0  0
  3  2  2  0  0  0  0
  4  5  2  0  0  0  0
  4  3  1  0  0  0  0
  5  6  1  0  0  0  0
  6 18  1  0  0  0  0
  6  1  2  0  0  0  0
  9  4  1  0  0  0  0
 10  5  1  0  0  0  0
 11  3  1  0  0  0  0
 12 11  1  0  0  0  0
 13 16  1  0  0  0  0
 13 17  1  0  0  0  0
 14 13  1  0  0  0  0
 15 13  1  0  0  0  0
M  RAD  2  11   2  12   3
M  END
