Coordinates from ORCA-job Ph-N2-H-BF4-B3LYPG-6-31G_dp-scan-d09-49-n400
 OpenBabel08281821063D

 18 17  0  0  0  0  0  0  0  0999 V2000
   -1.5687    0.9018    1.3780 C   0  0  0  0  0  0  0  0  0  0  0  0
   -0.2609    1.2626    1.6722 C   0  0  0  0  0  0  0  0  0  0  0  0
    0.5826    1.5676    0.5980 C   0  0  0  0  0  0  0  0  0  0  0  0
    0.1968    1.5110   -0.7457 C   0  0  0  0  0  0  0  0  0  0  0  0
   -1.1226    1.1570   -1.0029 C   0  0  0  0  0  0  0  0  0  0  0  0
   -1.9979    0.8569    0.0462 C   0  0  0  0  0  0  0  0  0  0  0  0
   -2.2486    0.6461    2.1831 H   0  0  0  0  0  0  0  0  0  0  0  0
    0.1266    1.2817    2.6823 H   0  0  0  0  0  0  0  0  0  0  0  0
    0.9310    1.6814   -1.5199 H   0  0  0  0  0  0  0  0  0  0  0  0
   -1.4624    1.0943   -2.0310 H   0  0  0  0  0  0  0  0  0  0  0  0
    1.8699    1.9789    0.9233 N   0  0  0  0  0  0  0  0  0  0  0  0
    2.8490    2.3999    1.2382 N   0  0  0  0  0  0  0  0  0  0  0  0
    3.3804   -0.2057   -0.0569 B   0  0  0  0  0  0  0  0  0  0  0  0
    2.7970    0.6826   -1.0265 F   0  0  0  0  0  0  0  0  0  0  0  0
    4.3851    0.5215    0.6101 F   0  0  0  0  0  0  0  0  0  0  0  0
    2.3522   -0.4880    0.8869 F   0  0  0  0  0  0  0  0  0  0  0  0
    3.8515   -1.3432   -0.6534 F   0  0  0  0  0  0  0  0  0  0  0  0
   -3.0206    0.5695   -0.1760 H   0  0  0  0  0  0  0  0  0  0  0  0
  1  2  1  0  0  0  0
  1  7  1  0  0  0  0
  2  8  1  0  0  0  0
  3 11  1  0  0  0  0
  3  2  2  0  0  0  0
  4  3  1  0  0  0  0
  5  4  2  0  0  0  0
  5  6  1  0  0  0  0
  6  1  2  0  0  0  0
  9  4  1  0  0  0  0
 10  5  1  0  0  0  0
 11 12  1  0  0  0  0
 13 15  1  0  0  0  0
 13 16  1  0  0  0  0
 14 13  1  0  0  0  0
 17 13  1  0  0  0  0
 18  6  1  0  0  0  0
M  RAD  2  11   2  12   3
M  END
