Coordinates from ORCA-job Ph-N2-H-BF4-B3LYPG-6-31G_dp-scan-d09-49-n400
 OpenBabel08281821053D

 18 16  0  0  0  0  0  0  0  0999 V2000
   -0.9531    0.1081    0.5325 C   0  0  0  0  0  0  0  0  0  0  0  0
    0.3877    0.3944    0.2226 C   0  0  0  0  0  0  0  0  0  0  0  0
    0.5445    1.6411   -0.4119 C   0  0  0  0  0  0  0  0  0  0  0  0
   -0.4721    2.5705   -0.7399 C   0  0  0  0  0  0  0  0  0  0  0  0
   -1.7624    2.2176   -0.3983 C   0  0  0  0  0  0  0  0  0  0  0  0
   -1.9979    0.9835    0.2385 C   0  0  0  0  0  0  0  0  0  0  0  0
   -1.1794   -0.8324    1.0277 H   0  0  0  0  0  0  0  0  0  0  0  0
    1.4048   -0.4033    0.5215 H   0  0  0  0  0  0  0  0  0  0  0  0
   -0.2409    3.5106   -1.2296 H   0  0  0  0  0  0  0  0  0  0  0  0
   -2.5848    2.8890   -0.6200 H   0  0  0  0  0  0  0  0  0  0  0  0
    1.8319    2.0025   -0.7684 N   0  0  0  0  0  0  0  0  0  0  0  0
    2.8687    2.2875   -1.0587 N   0  0  0  0  0  0  0  0  0  0  0  0
    3.4492   -0.3752    1.4918 B   0  0  0  0  0  0  0  0  0  0  0  0
    2.2401   -1.0677    0.7897 F   0  0  0  0  0  0  0  0  0  0  0  0
    4.5558   -0.8670    0.8684 F   0  0  0  0  0  0  0  0  0  0  0  0
    3.2308    0.9787    1.2216 F   0  0  0  0  0  0  0  0  0  0  0  0
    3.3345   -0.6772    2.8137 F   0  0  0  0  0  0  0  0  0  0  0  0
   -3.0168    0.7154    0.5046 H   0  0  0  0  0  0  0  0  0  0  0  0
  1  7  1  0  0  0  0
  2  1  2  0  0  0  0
  3  2  1  0  0  0  0
  4  3  2  0  0  0  0
  4  5  1  0  0  0  0
  5  6  2  0  0  0  0
  6 18  1  0  0  0  0
  6  1  1  0  0  0  0
  8 14  1  0  0  0  0
  9  4  1  0  0  0  0
 10  5  1  0  0  0  0
 11  3  1  0  0  0  0
 12 11  1  0  0  0  0
 13 17  1  0  0  0  0
 15 13  1  0  0  0  0
 16 13  1  0  0  0  0
M  RAD  3   2   2  11   2  12   3
M  END
