Coordinates from ORCA-job Ph-N2-H-BF4-B3LYPG-6-31G_dp-scan-d09-49-n400
 OpenBabel08281821063D

 18 17  0  0  0  0  0  0  0  0999 V2000
   -1.5219    0.8275    1.3550 C   0  0  0  0  0  0  0  0  0  0  0  0
   -0.2144    1.1972    1.6409 C   0  0  0  0  0  0  0  0  0  0  0  0
    0.5906    1.5926    0.5670 C   0  0  0  0  0  0  0  0  0  0  0  0
    0.1717    1.6057   -0.7679 C   0  0  0  0  0  0  0  0  0  0  0  0
   -1.1453    1.2382   -1.0165 C   0  0  0  0  0  0  0  0  0  0  0  0
   -1.9858    0.8561    0.0345 C   0  0  0  0  0  0  0  0  0  0  0  0
   -2.1744    0.5054    2.1589 H   0  0  0  0  0  0  0  0  0  0  0  0
    0.1963    1.1563    2.6415 H   0  0  0  0  0  0  0  0  0  0  0  0
    0.8772    1.8432   -1.5514 H   0  0  0  0  0  0  0  0  0  0  0  0
   -1.5100    1.2306   -2.0379 H   0  0  0  0  0  0  0  0  0  0  0  0
    1.8774    2.0223    0.8644 N   0  0  0  0  0  0  0  0  0  0  0  0
    2.8644    2.4526    1.1399 N   0  0  0  0  0  0  0  0  0  0  0  0
    3.3507   -0.2402    0.0229 B   0  0  0  0  0  0  0  0  0  0  0  0
    2.6867    0.5000   -1.0107 F   0  0  0  0  0  0  0  0  0  0  0  0
    4.3714    0.5884    0.5335 F   0  0  0  0  0  0  0  0  0  0  0  0
    2.3890   -0.4267    1.0596 F   0  0  0  0  0  0  0  0  0  0  0  0
    3.8249   -1.4344   -0.4487 F   0  0  0  0  0  0  0  0  0  0  0  0
   -3.0082    0.5613   -0.1790 H   0  0  0  0  0  0  0  0  0  0  0  0
  1  2  1  0  0  0  0
  1  7  1  0  0  0  0
  2  8  1  0  0  0  0
  3 11  1  0  0  0  0
  3  2  2  0  0  0  0
  4  3  1  0  0  0  0
  5  4  2  0  0  0  0
  5  6  1  0  0  0  0
  6  1  2  0  0  0  0
  9  4  1  0  0  0  0
 10  5  1  0  0  0  0
 11 12  1  0  0  0  0
 13 15  1  0  0  0  0
 13 16  1  0  0  0  0
 14 13  1  0  0  0  0
 17 13  1  0  0  0  0
 18  6  1  0  0  0  0
M  RAD  2  11   2  12   3
M  END
