Coordinates from ORCA-job Ph-N2-H-BF4-B3LYPG-6-31G_dp-scan-d09-49-n400
 OpenBabel08281821053D

 18 17  0  0  0  0  0  0  0  0999 V2000
   -1.1064    0.0779    0.5515 C   0  0  0  0  0  0  0  0  0  0  0  0
    0.2533    0.2644    0.3130 C   0  0  0  0  0  0  0  0  0  0  0  0
    0.6053    1.4669   -0.3218 C   0  0  0  0  0  0  0  0  0  0  0  0
   -0.3072    2.4628   -0.7167 C   0  0  0  0  0  0  0  0  0  0  0  0
   -1.6485    2.2355   -0.4509 C   0  0  0  0  0  0  0  0  0  0  0  0
   -2.0431    1.0466    0.1809 C   0  0  0  0  0  0  0  0  0  0  0  0
   -1.4330   -0.8335    1.0410 H   0  0  0  0  0  0  0  0  0  0  0  0
    1.0459   -0.4545    0.5942 H   0  0  0  0  0  0  0  0  0  0  0  0
    0.0363    3.3697   -1.2018 H   0  0  0  0  0  0  0  0  0  0  0  0
   -2.3862    2.9786   -0.7331 H   0  0  0  0  0  0  0  0  0  0  0  0
    1.9418    1.6907   -0.6105 N   0  0  0  0  0  0  0  0  0  0  0  0
    3.0103    1.8565   -0.8789 N   0  0  0  0  0  0  0  0  0  0  0  0
    3.3846   -0.2014    1.4016 B   0  0  0  0  0  0  0  0  0  0  0  0
    2.4623   -1.1948    0.9235 F   0  0  0  0  0  0  0  0  0  0  0  0
    4.2047    0.1762    0.3104 F   0  0  0  0  0  0  0  0  0  0  0  0
    2.6033    0.9296    1.7610 F   0  0  0  0  0  0  0  0  0  0  0  0
    4.1135   -0.6748    2.4563 F   0  0  0  0  0  0  0  0  0  0  0  0
   -3.0963    0.8797    0.3861 H   0  0  0  0  0  0  0  0  0  0  0  0
  1  7  1  0  0  0  0
  2  1  1  0  0  0  0
  2  8  1  0  0  0  0
  3  2  2  0  0  0  0
  4  5  2  0  0  0  0
  4  3  1  0  0  0  0
  5  6  1  0  0  0  0
  6 18  1  0  0  0  0
  6  1  2  0  0  0  0
  9  4  1  0  0  0  0
 10  5  1  0  0  0  0
 11  3  1  0  0  0  0
 12 11  1  0  0  0  0
 13 16  1  0  0  0  0
 13 17  1  0  0  0  0
 14 13  1  0  0  0  0
 15 13  1  0  0  0  0
M  RAD  2  11   2  12   3
M  END
