Coordinates from ORCA-job Ph-N2-H-BF4-B3LYPG-6-31G_dp-scan-d09-49-n400
 OpenBabel08281821053D

 18 17  0  0  0  0  0  0  0  0999 V2000
   -1.2455    0.0926    0.6082 C   0  0  0  0  0  0  0  0  0  0  0  0
    0.1246    0.2034    0.3937 C   0  0  0  0  0  0  0  0  0  0  0  0
    0.5687    1.3603   -0.2618 C   0  0  0  0  0  0  0  0  0  0  0  0
   -0.2843    2.3890   -0.7003 C   0  0  0  0  0  0  0  0  0  0  0  0
   -1.6429    2.2467   -0.4571 C   0  0  0  0  0  0  0  0  0  0  0  0
   -2.1196    1.1020    0.1947 C   0  0  0  0  0  0  0  0  0  0  0  0
   -1.6292   -0.7885    1.1112 H   0  0  0  0  0  0  0  0  0  0  0  0
    0.8369   -0.5478    0.7036 H   0  0  0  0  0  0  0  0  0  0  0  0
    0.1179    3.2628   -1.2009 H   0  0  0  0  0  0  0  0  0  0  0  0
   -2.3286    3.0246   -0.7747 H   0  0  0  0  0  0  0  0  0  0  0  0
    1.9194    1.5314   -0.5401 N   0  0  0  0  0  0  0  0  0  0  0  0
    2.9585    1.7539   -0.8751 N   0  0  0  0  0  0  0  0  0  0  0  0
    3.5351   -0.1349    1.3124 B   0  0  0  0  0  0  0  0  0  0  0  0
    2.9330   -1.0239    0.3837 F   0  0  0  0  0  0  0  0  0  0  0  0
    4.4476    0.6787    0.5949 F   0  0  0  0  0  0  0  0  0  0  0  0
    2.4951    0.7264    1.7851 F   0  0  0  0  0  0  0  0  0  0  0  0
    4.1379   -0.7999    2.3465 F   0  0  0  0  0  0  0  0  0  0  0  0
   -3.1842    0.9992    0.3819 H   0  0  0  0  0  0  0  0  0  0  0  0
  1  7  1  0  0  0  0
  2  1  1  0  0  0  0
  2  8  1  0  0  0  0
  3  2  2  0  0  0  0
  4  5  2  0  0  0  0
  4  3  1  0  0  0  0
  5  6  1  0  0  0  0
  6 18  1  0  0  0  0
  6  1  2  0  0  0  0
  9  4  1  0  0  0  0
 10  5  1  0  0  0  0
 11  3  1  0  0  0  0
 12 11  1  0  0  0  0
 13 16  1  0  0  0  0
 13 17  1  0  0  0  0
 14 13  1  0  0  0  0
 15 13  1  0  0  0  0
M  RAD  2  11   2  12   3
M  END
