Coordinates from ORCA-job Ph-N2-H-BF4-B3LYPG-6-31G_dp-scan-d09-49-n400
 OpenBabel08281821053D

 18 16  0  0  0  0  0  0  0  0999 V2000
   -0.9554    0.1075    0.5347 C   0  0  0  0  0  0  0  0  0  0  0  0
    0.3856    0.3921    0.2268 C   0  0  0  0  0  0  0  0  0  0  0  0
    0.5472    1.6373   -0.4093 C   0  0  0  0  0  0  0  0  0  0  0  0
   -0.4675    2.5671   -0.7407 C   0  0  0  0  0  0  0  0  0  0  0  0
   -1.7591    2.2168   -0.4012 C   0  0  0  0  0  0  0  0  0  0  0  0
   -1.9982    0.9843    0.2372 C   0  0  0  0  0  0  0  0  0  0  0  0
   -1.1836   -0.8320    1.0310 H   0  0  0  0  0  0  0  0  0  0  0  0
    1.3937   -0.3988    0.5254 H   0  0  0  0  0  0  0  0  0  0  0  0
   -0.2340    3.5061   -1.2315 H   0  0  0  0  0  0  0  0  0  0  0  0
   -2.5800    2.8892   -0.6257 H   0  0  0  0  0  0  0  0  0  0  0  0
    1.8358    1.9960   -0.7636 N   0  0  0  0  0  0  0  0  0  0  0  0
    2.8731    2.2801   -1.0530 N   0  0  0  0  0  0  0  0  0  0  0  0
    3.4454   -0.3728    1.4875 B   0  0  0  0  0  0  0  0  0  0  0  0
    2.2373   -1.0675    0.7983 F   0  0  0  0  0  0  0  0  0  0  0  0
    4.5500   -0.8376    0.8383 F   0  0  0  0  0  0  0  0  0  0  0  0
    3.2074    0.9840    1.2425 F   0  0  0  0  0  0  0  0  0  0  0  0
    3.3608   -0.6942    2.8076 F   0  0  0  0  0  0  0  0  0  0  0  0
   -3.0181    0.7184    0.5017 H   0  0  0  0  0  0  0  0  0  0  0  0
  1  7  1  0  0  0  0
  2  1  2  0  0  0  0
  3  2  1  0  0  0  0
  4  3  2  0  0  0  0
  4  5  1  0  0  0  0
  5  6  2  0  0  0  0
  6 18  1  0  0  0  0
  6  1  1  0  0  0  0
  8 14  1  0  0  0  0
  9  4  1  0  0  0  0
 10  5  1  0  0  0  0
 11  3  1  0  0  0  0
 12 11  1  0  0  0  0
 13 17  1  0  0  0  0
 15 13  1  0  0  0  0
 16 13  1  0  0  0  0
M  RAD  3   2   2  11   2  12   3
M  END
