Coordinates from ORCA-job Ph-N2-H-BF4-B3LYPG-6-31G_dp-scan-d09-49-n400
 OpenBabel08281821053D

 18 17  0  0  0  0  0  0  0  0999 V2000
   -1.2038    0.3027    0.9092 C   0  0  0  0  0  0  0  0  0  0  0  0
    0.1553    0.6000    0.9110 C   0  0  0  0  0  0  0  0  0  0  0  0
    0.5820    1.5889    0.0133 C   0  0  0  0  0  0  0  0  0  0  0  0
   -0.2731    2.2831   -0.8612 C   0  0  0  0  0  0  0  0  0  0  0  0
   -1.6196    1.9500   -0.8380 C   0  0  0  0  0  0  0  0  0  0  0  0
   -2.0803    0.9625    0.0431 C   0  0  0  0  0  0  0  0  0  0  0  0
   -1.5772   -0.4596    1.5848 H   0  0  0  0  0  0  0  0  0  0  0  0
    0.8884    0.1224    1.5529 H   0  0  0  0  0  0  0  0  0  0  0  0
    0.1177    3.0407   -1.5317 H   0  0  0  0  0  0  0  0  0  0  0  0
   -2.3088    2.4573   -1.5042 H   0  0  0  0  0  0  0  0  0  0  0  0
    1.9227    1.9461   -0.0262 N   0  0  0  0  0  0  0  0  0  0  0  0
    2.9675    2.3210   -0.1194 N   0  0  0  0  0  0  0  0  0  0  0  0
    3.4678   -0.3859    0.9724 B   0  0  0  0  0  0  0  0  0  0  0  0
    2.5109   -0.5654   -0.0671 F   0  0  0  0  0  0  0  0  0  0  0  0
    4.4202    0.5537    0.5117 F   0  0  0  0  0  0  0  0  0  0  0  0
    2.7641    0.2223    2.0592 F   0  0  0  0  0  0  0  0  0  0  0  0
    4.0422   -1.5703    1.3454 F   0  0  0  0  0  0  0  0  0  0  0  0
   -3.1355    0.7065    0.0507 H   0  0  0  0  0  0  0  0  0  0  0  0
  1  2  1  0  0  0  0
  1  7  1  0  0  0  0
  2  8  1  0  0  0  0
  3  2  2  0  0  0  0
  4  5  2  0  0  0  0
  4  3  1  0  0  0  0
  5  6  1  0  0  0  0
  6 18  1  0  0  0  0
  6  1  2  0  0  0  0
  9  4  1  0  0  0  0
 10  5  1  0  0  0  0
 11  3  1  0  0  0  0
 12 11  1  0  0  0  0
 13 17  1  0  0  0  0
 13 16  1  0  0  0  0
 14 13  1  0  0  0  0
 15 13  1  0  0  0  0
M  RAD  2  11   2  12   3
M  END
