Coordinates from ORCA-job Ph-N2-H-BF4-B3LYPG-6-31G_dp-scan-d09-49-n400
 OpenBabel08281821063D

 18 17  0  0  0  0  0  0  0  0999 V2000
   -1.4016    0.6657    1.2824 C   0  0  0  0  0  0  0  0  0  0  0  0
   -0.0891    1.0530    1.5221 C   0  0  0  0  0  0  0  0  0  0  0  0
    0.6048    1.6399    0.4580 C   0  0  0  0  0  0  0  0  0  0  0  0
    0.0748    1.8160   -0.8253 C   0  0  0  0  0  0  0  0  0  0  0  0
   -1.2384    1.4135   -1.0301 C   0  0  0  0  0  0  0  0  0  0  0  0
   -1.9729    0.8479    0.0182 C   0  0  0  0  0  0  0  0  0  0  0  0
   -1.9733    0.2029    2.0791 H   0  0  0  0  0  0  0  0  0  0  0  0
    0.4042    0.8826    2.4699 H   0  0  0  0  0  0  0  0  0  0  0  0
    0.6895    2.2185   -1.6200 H   0  0  0  0  0  0  0  0  0  0  0  0
   -1.6835    1.5269   -2.0125 H   0  0  0  0  0  0  0  0  0  0  0  0
    1.8969    2.0946    0.6860 N   0  0  0  0  0  0  0  0  0  0  0  0
    2.8947    2.5479    0.8711 N   0  0  0  0  0  0  0  0  0  0  0  0
    3.3100   -0.3103    0.2436 B   0  0  0  0  0  0  0  0  0  0  0  0
    2.5757    0.2058   -0.8663 F   0  0  0  0  0  0  0  0  0  0  0  0
    4.3626    0.5920    0.5073 F   0  0  0  0  0  0  0  0  0  0  0  0
    2.4293   -0.2687    1.3730 F   0  0  0  0  0  0  0  0  0  0  0  0
    3.7526   -1.5835    0.0062 F   0  0  0  0  0  0  0  0  0  0  0  0
   -2.9959    0.5312   -0.1570 H   0  0  0  0  0  0  0  0  0  0  0  0
  1  2  1  0  0  0  0
  1  7  1  0  0  0  0
  2  8  1  0  0  0  0
  3 11  1  0  0  0  0
  3  2  2  0  0  0  0
  4  3  1  0  0  0  0
  5  4  2  0  0  0  0
  5  6  1  0  0  0  0
  6  1  2  0  0  0  0
  9  4  1  0  0  0  0
 10  5  1  0  0  0  0
 11 12  1  0  0  0  0
 13 15  1  0  0  0  0
 13 16  1  0  0  0  0
 14 13  1  0  0  0  0
 17 13  1  0  0  0  0
 18  6  1  0  0  0  0
M  RAD  2  11   2  12   3
M  END
