Coordinates from ORCA-job Ph-N2-H-BF4-B3LYPG-6-31G_dp-scan-d09-49-n400
 OpenBabel08281821063D

 18 17  0  0  0  0  0  0  0  0999 V2000
   -1.3581    0.5881    1.2257 C   0  0  0  0  0  0  0  0  0  0  0  0
   -0.0311    0.9539    1.4176 C   0  0  0  0  0  0  0  0  0  0  0  0
    0.5983    1.6290    0.3646 C   0  0  0  0  0  0  0  0  0  0  0  0
   -0.0204    1.9323   -0.8553 C   0  0  0  0  0  0  0  0  0  0  0  0
   -1.3430    1.5403   -1.0151 C   0  0  0  0  0  0  0  0  0  0  0  0
   -2.0086    0.8763    0.0215 C   0  0  0  0  0  0  0  0  0  0  0  0
   -1.8807    0.0597    2.0157 H   0  0  0  0  0  0  0  0  0  0  0  0
    0.5187    0.7077    2.3155 H   0  0  0  0  0  0  0  0  0  0  0  0
    0.5319    2.4304   -1.6430 H   0  0  0  0  0  0  0  0  0  0  0  0
   -1.8516    1.7473   -1.9503 H   0  0  0  0  0  0  0  0  0  0  0  0
    1.9007    2.0791    0.5389 N   0  0  0  0  0  0  0  0  0  0  0  0
    2.9070    2.5380    0.6528 N   0  0  0  0  0  0  0  0  0  0  0  0
    3.3679   -0.3534    0.3980 B   0  0  0  0  0  0  0  0  0  0  0  0
    2.6313    0.0145   -0.7627 F   0  0  0  0  0  0  0  0  0  0  0  0
    4.3925    0.6042    0.5738 F   0  0  0  0  0  0  0  0  0  0  0  0
    2.4750   -0.2129    1.5128 F   0  0  0  0  0  0  0  0  0  0  0  0
    3.8521   -1.6305    0.3111 F   0  0  0  0  0  0  0  0  0  0  0  0
   -3.0412    0.5722   -0.1153 H   0  0  0  0  0  0  0  0  0  0  0  0
  1  2  1  0  0  0  0
  1  7  1  0  0  0  0
  2  8  1  0  0  0  0
  3 11  1  0  0  0  0
  3  2  2  0  0  0  0
  4  3  1  0  0  0  0
  5  4  2  0  0  0  0
  5  6  1  0  0  0  0
  6  1  2  0  0  0  0
  9  4  1  0  0  0  0
 10  5  1  0  0  0  0
 11 12  1  0  0  0  0
 13 15  1  0  0  0  0
 13 16  1  0  0  0  0
 14 13  1  0  0  0  0
 17 13  1  0  0  0  0
 18  6  1  0  0  0  0
M  RAD  2  11   2  12   3
M  END
