Coordinates from ORCA-job Ph-N2-H-BF4-B3LYPG-6-31G_dp-scan-d09-49-n400
 OpenBabel08281821063D

 18 17  0  0  0  0  0  0  0  0999 V2000
   -1.5980    0.9447    1.3867 C   0  0  0  0  0  0  0  0  0  0  0  0
   -0.2867    1.2892    1.6845 C   0  0  0  0  0  0  0  0  0  0  0  0
    0.5760    1.5449    0.6126 C   0  0  0  0  0  0  0  0  0  0  0  0
    0.2036    1.4584   -0.7333 C   0  0  0  0  0  0  0  0  0  0  0  0
   -1.1200    1.1232   -0.9948 C   0  0  0  0  0  0  0  0  0  0  0  0
   -2.0129    0.8700    0.0518 C   0  0  0  0  0  0  0  0  0  0  0  0
   -2.2913    0.7269    2.1915 H   0  0  0  0  0  0  0  0  0  0  0  0
    0.0917    1.3345    2.6970 H   0  0  0  0  0  0  0  0  0  0  0  0
    0.9500    1.5933   -1.5030 H   0  0  0  0  0  0  0  0  0  0  0  0
   -1.4500    1.0388   -2.0245 H   0  0  0  0  0  0  0  0  0  0  0  0
    1.8646    1.9417    0.9503 N   0  0  0  0  0  0  0  0  0  0  0  0
    2.8388    2.3524    1.2933 N   0  0  0  0  0  0  0  0  0  0  0  0
    3.4104   -0.1870   -0.0949 B   0  0  0  0  0  0  0  0  0  0  0  0
    2.8374    0.7432   -1.0332 F   0  0  0  0  0  0  0  0  0  0  0  0
    4.3907    0.5193    0.6282 F   0  0  0  0  0  0  0  0  0  0  0  0
    2.3640   -0.5285    0.8054 F   0  0  0  0  0  0  0  0  0  0  0  0
    3.9111   -1.2860   -0.7376 F   0  0  0  0  0  0  0  0  0  0  0  0
   -3.0388    0.5970   -0.1743 H   0  0  0  0  0  0  0  0  0  0  0  0
  1  2  1  0  0  0  0
  1  7  1  0  0  0  0
  2  8  1  0  0  0  0
  3 11  1  0  0  0  0
  3  2  2  0  0  0  0
  4  3  1  0  0  0  0
  5  4  2  0  0  0  0
  5  6  1  0  0  0  0
  6  1  2  0  0  0  0
  9  4  1  0  0  0  0
 10  5  1  0  0  0  0
 11 12  1  0  0  0  0
 13 15  1  0  0  0  0
 13 16  1  0  0  0  0
 14 13  1  0  0  0  0
 17 13  1  0  0  0  0
 18  6  1  0  0  0  0
M  RAD  2  11   2  12   3
M  END
