Coordinates from ORCA-job Ph-N2-H-BF4-B3LYPG-6-31G_dp-scan-d09-49-n400
 OpenBabel08281821053D

 18 16  0  0  0  0  0  0  0  0999 V2000
   -0.9622    0.1240    0.4951 C   0  0  0  0  0  0  0  0  0  0  0  0
    0.3815    0.4139    0.1643 C   0  0  0  0  0  0  0  0  0  0  0  0
    0.4889    1.6810   -0.4438 C   0  0  0  0  0  0  0  0  0  0  0  0
   -0.5369    2.6188   -0.7308 C   0  0  0  0  0  0  0  0  0  0  0  0
   -1.8142    2.2483   -0.3691 C   0  0  0  0  0  0  0  0  0  0  0  0
   -2.0208    0.9947    0.2458 C   0  0  0  0  0  0  0  0  0  0  0  0
   -1.1832   -0.8276    0.9740 H   0  0  0  0  0  0  0  0  0  0  0  0
    1.6013   -0.5596    0.4840 H   0  0  0  0  0  0  0  0  0  0  0  0
   -0.3222    3.5714   -1.2049 H   0  0  0  0  0  0  0  0  0  0  0  0
   -2.6492    2.9151   -0.5561 H   0  0  0  0  0  0  0  0  0  0  0  0
    1.7683    2.0594   -0.8155 N   0  0  0  0  0  0  0  0  0  0  0  0
    2.8073    2.3401   -1.1091 N   0  0  0  0  0  0  0  0  0  0  0  0
    3.5569   -0.3737    1.5685 B   0  0  0  0  0  0  0  0  0  0  0  0
    2.3096   -1.1281    0.6844 F   0  0  0  0  0  0  0  0  0  0  0  0
    4.6182   -1.1226    1.2171 F   0  0  0  0  0  0  0  0  0  0  0  0
    3.5133    0.8867    1.0354 F   0  0  0  0  0  0  0  0  0  0  0  0
    3.1155   -0.4775    2.8375 F   0  0  0  0  0  0  0  0  0  0  0  0
   -3.0317    0.7115    0.5290 H   0  0  0  0  0  0  0  0  0  0  0  0
  1  7  1  0  0  0  0
  2  1  2  0  0  0  0
  3  2  1  0  0  0  0
  4  3  2  0  0  0  0
  4  5  1  0  0  0  0
  5  6  2  0  0  0  0
  6  1  1  0  0  0  0
  6 18  1  0  0  0  0
  8 14  1  0  0  0  0
  9  4  1  0  0  0  0
 10  5  1  0  0  0  0
 11  3  1  0  0  0  0
 12 11  1  0  0  0  0
 13 17  1  0  0  0  0
 15 13  1  0  0  0  0
 16 13  1  0  0  0  0
M  RAD  3   2   2  11   2  12   3
M  END
