Coordinates from ORCA-job Ph-N2-H-BF4-B3LYPG-6-31G_dp-scan-d09-49-n400
 OpenBabel08281821063D

 18 17  0  0  0  0  0  0  0  0999 V2000
   -1.4595    0.7517    1.3278 C   0  0  0  0  0  0  0  0  0  0  0  0
   -0.1529    1.1393    1.5933 C   0  0  0  0  0  0  0  0  0  0  0  0
    0.6006    1.6265    0.5196 C   0  0  0  0  0  0  0  0  0  0  0  0
    0.1369    1.7008   -0.7982 C   0  0  0  0  0  0  0  0  0  0  0  0
   -1.1757    1.3076   -1.0275 C   0  0  0  0  0  0  0  0  0  0  0  0
   -1.9690    0.8427    0.0272 C   0  0  0  0  0  0  0  0  0  0  0  0
   -2.0745    0.3620    2.1313 H   0  0  0  0  0  0  0  0  0  0  0  0
    0.2983    1.0394    2.5720 H   0  0  0  0  0  0  0  0  0  0  0  0
    0.8041    2.0089   -1.5915 H   0  0  0  0  0  0  0  0  0  0  0  0
   -1.5736    1.3445   -2.0357 H   0  0  0  0  0  0  0  0  0  0  0  0
    1.8882    2.0717    0.7886 N   0  0  0  0  0  0  0  0  0  0  0  0
    2.8785    2.5133    1.0326 N   0  0  0  0  0  0  0  0  0  0  0  0
    3.3109   -0.2701    0.1191 B   0  0  0  0  0  0  0  0  0  0  0  0
    2.6278    0.4003   -0.9471 F   0  0  0  0  0  0  0  0  0  0  0  0
    4.3641    0.5714    0.5312 F   0  0  0  0  0  0  0  0  0  0  0  0
    2.3826   -0.3542    1.2022 F   0  0  0  0  0  0  0  0  0  0  0  0
    3.7428   -1.5095   -0.2691 F   0  0  0  0  0  0  0  0  0  0  0  0
   -2.9891    0.5296   -0.1699 H   0  0  0  0  0  0  0  0  0  0  0  0
  1  2  1  0  0  0  0
  1  7  1  0  0  0  0
  2  8  1  0  0  0  0
  3 11  1  0  0  0  0
  3  2  2  0  0  0  0
  4  3  1  0  0  0  0
  5  4  2  0  0  0  0
  5  6  1  0  0  0  0
  6  1  2  0  0  0  0
  9  4  1  0  0  0  0
 10  5  1  0  0  0  0
 11 12  1  0  0  0  0
 13 15  1  0  0  0  0
 13 16  1  0  0  0  0
 14 13  1  0  0  0  0
 17 13  1  0  0  0  0
 18  6  1  0  0  0  0
M  RAD  2  11   2  12   3
M  END
