Coordinates from ORCA-job Ph-N2-H-BF4-B3LYPG-6-31G_dp-scan-d09-49-n400
 OpenBabel08281821053D

 18 17  0  0  0  0  0  0  0  0999 V2000
   -1.1518    0.0618    0.5494 C   0  0  0  0  0  0  0  0  0  0  0  0
    0.2080    0.2223    0.3009 C   0  0  0  0  0  0  0  0  0  0  0  0
    0.5908    1.4233   -0.3160 C   0  0  0  0  0  0  0  0  0  0  0  0
   -0.3008    2.4462   -0.6855 C   0  0  0  0  0  0  0  0  0  0  0  0
   -1.6458    2.2492   -0.4096 C   0  0  0  0  0  0  0  0  0  0  0  0
   -2.0664    1.0615    0.2053 C   0  0  0  0  0  0  0  0  0  0  0  0
   -1.4957   -0.8502    1.0253 H   0  0  0  0  0  0  0  0  0  0  0  0
    0.9741   -0.5135    0.5549 H   0  0  0  0  0  0  0  0  0  0  0  0
    0.0607    3.3524   -1.1584 H   0  0  0  0  0  0  0  0  0  0  0  0
   -2.3657    3.0167   -0.6720 H   0  0  0  0  0  0  0  0  0  0  0  0
    1.9304    1.6229   -0.6141 N   0  0  0  0  0  0  0  0  0  0  0  0
    2.9885    1.8049   -0.9122 N   0  0  0  0  0  0  0  0  0  0  0  0
    3.4321   -0.1626    1.3747 B   0  0  0  0  0  0  0  0  0  0  0  0
    2.6570   -1.1659    0.7182 F   0  0  0  0  0  0  0  0  0  0  0  0
    4.3262    0.3828    0.4180 F   0  0  0  0  0  0  0  0  0  0  0  0
    2.5303    0.8751    1.7469 F   0  0  0  0  0  0  0  0  0  0  0  0
    4.0901   -0.6699    2.4616 F   0  0  0  0  0  0  0  0  0  0  0  0
   -3.1215    0.9186    0.4186 H   0  0  0  0  0  0  0  0  0  0  0  0
  1  7  1  0  0  0  0
  2  1  1  0  0  0  0
  2  8  1  0  0  0  0
  3  2  2  0  0  0  0
  4  5  2  0  0  0  0
  4  3  1  0  0  0  0
  5  6  1  0  0  0  0
  6 18  1  0  0  0  0
  6  1  2  0  0  0  0
  9  4  1  0  0  0  0
 10  5  1  0  0  0  0
 11  3  1  0  0  0  0
 12 11  1  0  0  0  0
 13 16  1  0  0  0  0
 13 17  1  0  0  0  0
 14 13  1  0  0  0  0
 15 13  1  0  0  0  0
M  RAD  2  11   2  12   3
M  END
