Coordinates from ORCA-job Ph-N2-H-BF4-B3LYPG-6-31G_dp-scan-d09-49-n400
 OpenBabel08281821063D

 18 17  0  0  0  0  0  0  0  0999 V2000
   -1.3385    0.5508    1.1926 C   0  0  0  0  0  0  0  0  0  0  0  0
   -0.0050    0.9062    1.3589 C   0  0  0  0  0  0  0  0  0  0  0  0
    0.5941    1.6242    0.3161 C   0  0  0  0  0  0  0  0  0  0  0  0
   -0.0647    1.9853   -0.8677 C   0  0  0  0  0  0  0  0  0  0  0  0
   -1.3918    1.6000   -1.0037 C   0  0  0  0  0  0  0  0  0  0  0  0
   -2.0257    0.8906    0.0230 C   0  0  0  0  0  0  0  0  0  0  0  0
   -1.8373   -0.0096    1.9759 H   0  0  0  0  0  0  0  0  0  0  0  0
    0.5766    0.6197    2.2238 H   0  0  0  0  0  0  0  0  0  0  0  0
    0.4597    2.5244   -1.6479 H   0  0  0  0  0  0  0  0  0  0  0  0
   -1.9299    1.8497   -1.9116 H   0  0  0  0  0  0  0  0  0  0  0  0
    1.9021    2.0681    0.4658 N   0  0  0  0  0  0  0  0  0  0  0  0
    2.9113    2.5271    0.5516 N   0  0  0  0  0  0  0  0  0  0  0  0
    3.3951   -0.3691    0.4767 B   0  0  0  0  0  0  0  0  0  0  0  0
    2.6415   -0.0656   -0.6905 F   0  0  0  0  0  0  0  0  0  0  0  0
    4.4148    0.6024    0.5920 F   0  0  0  0  0  0  0  0  0  0  0  0
    2.5152   -0.1755    1.5948 F   0  0  0  0  0  0  0  0  0  0  0  0
    3.8858   -1.6461    0.4506 F   0  0  0  0  0  0  0  0  0  0  0  0
   -3.0628    0.5932   -0.0944 H   0  0  0  0  0  0  0  0  0  0  0  0
  1  2  1  0  0  0  0
  1  7  1  0  0  0  0
  2  8  1  0  0  0  0
  3 11  1  0  0  0  0
  3  2  2  0  0  0  0
  4  3  1  0  0  0  0
  5  4  2  0  0  0  0
  5  6  1  0  0  0  0
  6  1  2  0  0  0  0
  9  4  1  0  0  0  0
 10  5  1  0  0  0  0
 11 12  1  0  0  0  0
 13 15  1  0  0  0  0
 13 16  1  0  0  0  0
 14 13  1  0  0  0  0
 17 13  1  0  0  0  0
 18  6  1  0  0  0  0
M  RAD  2  11   2  12   3
M  END
