Coordinates from ORCA-job Ph-N2-H-BF4-B3LYPG-6-31G_dp-scan-d09-49-n400
 OpenBabel08281821063D

 18 17  0  0  0  0  0  0  0  0999 V2000
   -1.2391    0.3725    0.9878 C   0  0  0  0  0  0  0  0  0  0  0  0
    0.1187    0.6736    1.0167 C   0  0  0  0  0  0  0  0  0  0  0  0
    0.5774    1.5983    0.0684 C   0  0  0  0  0  0  0  0  0  0  0  0
   -0.2443    2.2176   -0.8893 C   0  0  0  0  0  0  0  0  0  0  0  0
   -1.5903    1.8794   -0.8933 C   0  0  0  0  0  0  0  0  0  0  0  0
   -2.0842    0.9623    0.0433 C   0  0  0  0  0  0  0  0  0  0  0  0
   -1.6356   -0.3389    1.7045 H   0  0  0  0  0  0  0  0  0  0  0  0
    0.8241    0.2314    1.7144 H   0  0  0  0  0  0  0  0  0  0  0  0
    0.1704    2.9229   -1.6010 H   0  0  0  0  0  0  0  0  0  0  0  0
   -2.2533    2.3295   -1.6241 H   0  0  0  0  0  0  0  0  0  0  0  0
    1.9135    1.9783    0.0705 N   0  0  0  0  0  0  0  0  0  0  0  0
    2.9498    2.3832    0.0209 N   0  0  0  0  0  0  0  0  0  0  0  0
    3.4785   -0.4047    0.8731 B   0  0  0  0  0  0  0  0  0  0  0  0
    2.5857   -0.4544   -0.2336 F   0  0  0  0  0  0  0  0  0  0  0  0
    4.4271    0.6118    0.6073 F   0  0  0  0  0  0  0  0  0  0  0  0
    2.7124    0.0264    2.0043 F   0  0  0  0  0  0  0  0  0  0  0  0
    4.0686   -1.6177    1.1038 F   0  0  0  0  0  0  0  0  0  0  0  0
   -3.1388    0.7046    0.0322 H   0  0  0  0  0  0  0  0  0  0  0  0
  1  2  1  0  0  0  0
  1  7  1  0  0  0  0
  2  8  1  0  0  0  0
  3 11  1  0  0  0  0
  3  2  2  0  0  0  0
  4  3  1  0  0  0  0
  5  4  2  0  0  0  0
  5  6  1  0  0  0  0
  6  1  2  0  0  0  0
  9  4  1  0  0  0  0
 10  5  1  0  0  0  0
 12 11  1  0  0  0  0
 13 17  1  0  0  0  0
 13 16  1  0  0  0  0
 14 13  1  0  0  0  0
 15 13  1  0  0  0  0
 18  6  1  0  0  0  0
M  RAD  2  11   2  12   3
M  END
