Coordinates from ORCA-job Ph-N2-H-BF4-B3LYPG-6-31G_dp-scan-d09-49-n400
 OpenBabel08281821063D

 18 17  0  0  0  0  0  0  0  0999 V2000
   -1.2753    0.4071    1.0332 C   0  0  0  0  0  0  0  0  0  0  0  0
    0.0813    0.7082    1.0963 C   0  0  0  0  0  0  0  0  0  0  0  0
    0.5759    1.5917    0.1277 C   0  0  0  0  0  0  0  0  0  0  0  0
   -0.2109    2.1690   -0.8834 C   0  0  0  0  0  0  0  0  0  0  0  0
   -1.5570    1.8317   -0.9209 C   0  0  0  0  0  0  0  0  0  0  0  0
   -2.0861    0.9565    0.0357 C   0  0  0  0  0  0  0  0  0  0  0  0
   -1.6973   -0.2743    1.7643 H   0  0  0  0  0  0  0  0  0  0  0  0
    0.7587    0.2846    1.8297 H   0  0  0  0  0  0  0  0  0  0  0  0
    0.2299    2.8425   -1.6099 H   0  0  0  0  0  0  0  0  0  0  0  0
   -2.1920    2.2503   -1.6941 H   0  0  0  0  0  0  0  0  0  0  0  0
    1.9093    1.9831    0.1624 N   0  0  0  0  0  0  0  0  0  0  0  0
    2.9342    2.4167    0.1414 N   0  0  0  0  0  0  0  0  0  0  0  0
    3.4859   -0.3962    0.7840 B   0  0  0  0  0  0  0  0  0  0  0  0
    2.6221   -0.4038   -0.3447 F   0  0  0  0  0  0  0  0  0  0  0  0
    4.4568    0.6098    0.5707 F   0  0  0  0  0  0  0  0  0  0  0  0
    2.6995    0.0256    1.9089 F   0  0  0  0  0  0  0  0  0  0  0  0
    4.0454   -1.6252    1.0062 F   0  0  0  0  0  0  0  0  0  0  0  0
   -3.1399    0.6986   -0.0017 H   0  0  0  0  0  0  0  0  0  0  0  0
  1  2  1  0  0  0  0
  1  7  1  0  0  0  0
  2  8  1  0  0  0  0
  3 11  1  0  0  0  0
  3  2  2  0  0  0  0
  4  3  1  0  0  0  0
  5  4  2  0  0  0  0
  5  6  1  0  0  0  0
  6  1  2  0  0  0  0
  9  4  1  0  0  0  0
 10  5  1  0  0  0  0
 12 11  1  0  0  0  0
 13 17  1  0  0  0  0
 13 16  1  0  0  0  0
 14 13  1  0  0  0  0
 15 13  1  0  0  0  0
 18  6  1  0  0  0  0
M  RAD  2  11   2  12   3
M  END
