Coordinates from ORCA-job Ph-N2-H-BF4-B3LYPG-6-31G_dp-scan-d09-49-n400
 OpenBabel08281821063D

 18 17  0  0  0  0  0  0  0  0999 V2000
   -1.2432    0.3754    0.9911 C   0  0  0  0  0  0  0  0  0  0  0  0
    0.1150    0.6743    1.0210 C   0  0  0  0  0  0  0  0  0  0  0  0
    0.5767    1.5959    0.0710 C   0  0  0  0  0  0  0  0  0  0  0  0
   -0.2428    2.2137   -0.8895 C   0  0  0  0  0  0  0  0  0  0  0  0
   -1.5893    1.8774   -0.8948 C   0  0  0  0  0  0  0  0  0  0  0  0
   -2.0860    0.9639    0.0438 C   0  0  0  0  0  0  0  0  0  0  0  0
   -1.6419   -0.3336    1.7090 H   0  0  0  0  0  0  0  0  0  0  0  0
    0.8186    0.2318    1.7200 H   0  0  0  0  0  0  0  0  0  0  0  0
    0.1739    2.9166   -1.6023 H   0  0  0  0  0  0  0  0  0  0  0  0
   -2.2504    2.3264   -1.6279 H   0  0  0  0  0  0  0  0  0  0  0  0
    1.9128    1.9764    0.0752 N   0  0  0  0  0  0  0  0  0  0  0  0
    2.9482    2.3834    0.0270 N   0  0  0  0  0  0  0  0  0  0  0  0
    3.4820   -0.4037    0.8678 B   0  0  0  0  0  0  0  0  0  0  0  0
    2.5952   -0.4516   -0.2434 F   0  0  0  0  0  0  0  0  0  0  0  0
    4.4306    0.6149    0.6099 F   0  0  0  0  0  0  0  0  0  0  0  0
    2.7106    0.0239    1.9971 F   0  0  0  0  0  0  0  0  0  0  0  0
    4.0717   -1.6168    1.0990 F   0  0  0  0  0  0  0  0  0  0  0  0
   -3.1411    0.7078    0.0319 H   0  0  0  0  0  0  0  0  0  0  0  0
  1  2  1  0  0  0  0
  1  7  1  0  0  0  0
  2  8  1  0  0  0  0
  3 11  1  0  0  0  0
  3  2  2  0  0  0  0
  4  3  1  0  0  0  0
  5  4  2  0  0  0  0
  5  6  1  0  0  0  0
  6  1  2  0  0  0  0
  9  4  1  0  0  0  0
 10  5  1  0  0  0  0
 12 11  1  0  0  0  0
 13 17  1  0  0  0  0
 13 16  1  0  0  0  0
 14 13  1  0  0  0  0
 15 13  1  0  0  0  0
 18  6  1  0  0  0  0
M  RAD  2  11   2  12   3
M  END
