Coordinates from ORCA-job Ph-N2-H-BF4-B3LYPG-6-31G_dp-scan-d09-49-n400
 OpenBabel08281821053D

 18 17  0  0  0  0  0  0  0  0999 V2000
   -1.1986    0.2986    0.9041 C   0  0  0  0  0  0  0  0  0  0  0  0
    0.1601    0.5984    0.9043 C   0  0  0  0  0  0  0  0  0  0  0  0
    0.5830    1.5916    0.0096 C   0  0  0  0  0  0  0  0  0  0  0  0
   -0.2750    2.2880   -0.8604 C   0  0  0  0  0  0  0  0  0  0  0  0
   -1.6209    1.9527   -0.8354 C   0  0  0  0  0  0  0  0  0  0  0  0
   -2.0779    0.9604    0.0425 C   0  0  0  0  0  0  0  0  0  0  0  0
   -1.5692   -0.4668    1.5776 H   0  0  0  0  0  0  0  0  0  0  0  0
    0.8950    0.1208    1.5438 H   0  0  0  0  0  0  0  0  0  0  0  0
    0.1132    3.0487   -1.5288 H   0  0  0  0  0  0  0  0  0  0  0  0
   -2.3125    2.4616   -1.4979 H   0  0  0  0  0  0  0  0  0  0  0  0
    1.9238    1.9476   -0.0329 N   0  0  0  0  0  0  0  0  0  0  0  0
    2.9693    2.3202   -0.1283 N   0  0  0  0  0  0  0  0  0  0  0  0
    3.4636   -0.3861    0.9803 B   0  0  0  0  0  0  0  0  0  0  0  0
    2.4974   -0.5673   -0.0518 F   0  0  0  0  0  0  0  0  0  0  0  0
    4.4154    0.5475    0.5065 F   0  0  0  0  0  0  0  0  0  0  0  0
    2.7697    0.2290    2.0688 F   0  0  0  0  0  0  0  0  0  0  0  0
    4.0368   -1.5713    1.3525 F   0  0  0  0  0  0  0  0  0  0  0  0
   -3.1326    0.7026    0.0513 H   0  0  0  0  0  0  0  0  0  0  0  0
  1  2  1  0  0  0  0
  1  7  1  0  0  0  0
  2  8  1  0  0  0  0
  3  2  2  0  0  0  0
  4  5  2  0  0  0  0
  4  3  1  0  0  0  0
  5  6  1  0  0  0  0
  6 18  1  0  0  0  0
  6  1  2  0  0  0  0
  9  4  1  0  0  0  0
 10  5  1  0  0  0  0
 11  3  1  0  0  0  0
 12 11  1  0  0  0  0
 13 17  1  0  0  0  0
 13 16  1  0  0  0  0
 14 13  1  0  0  0  0
 15 13  1  0  0  0  0
M  RAD  2  11   2  12   3
M  END
