Coordinates from ORCA-job Ph-N2-H-BF4-B3LYPG-6-31G_dp-scan-d09-49-n400
 OpenBabel08281821053D

 18 17  0  0  0  0  0  0  0  0999 V2000
   -1.2231    0.0861    0.6039 C   0  0  0  0  0  0  0  0  0  0  0  0
    0.1450    0.2065    0.3813 C   0  0  0  0  0  0  0  0  0  0  0  0
    0.5760    1.3702   -0.2714 C   0  0  0  0  0  0  0  0  0  0  0  0
   -0.2856    2.3955   -0.7013 C   0  0  0  0  0  0  0  0  0  0  0  0
   -1.6416    2.2420   -0.4513 C   0  0  0  0  0  0  0  0  0  0  0  0
   -2.1061    1.0913    0.1994 C   0  0  0  0  0  0  0  0  0  0  0  0
   -1.5983   -0.7994    1.1055 H   0  0  0  0  0  0  0  0  0  0  0  0
    0.8713   -0.5400    0.6760 H   0  0  0  0  0  0  0  0  0  0  0  0
    0.1078    3.2739   -1.2007 H   0  0  0  0  0  0  0  0  0  0  0  0
   -2.3351    3.0156   -0.7624 H   0  0  0  0  0  0  0  0  0  0  0  0
    1.9246    1.5483   -0.5528 N   0  0  0  0  0  0  0  0  0  0  0  0
    2.9674    1.7676   -0.8782 N   0  0  0  0  0  0  0  0  0  0  0  0
    3.5067   -0.1342    1.3227 B   0  0  0  0  0  0  0  0  0  0  0  0
    2.8509   -1.0202    0.4219 F   0  0  0  0  0  0  0  0  0  0  0  0
    4.4344    0.6262    0.5691 F   0  0  0  0  0  0  0  0  0  0  0  0
    2.5099    0.7719    1.7973 F   0  0  0  0  0  0  0  0  0  0  0  0
    4.1052   -0.8059    2.3546 F   0  0  0  0  0  0  0  0  0  0  0  0
   -3.1689    0.9806    0.3924 H   0  0  0  0  0  0  0  0  0  0  0  0
  1  7  1  0  0  0  0
  2  1  1  0  0  0  0
  2  8  1  0  0  0  0
  3  2  2  0  0  0  0
  4  5  2  0  0  0  0
  4  3  1  0  0  0  0
  5  6  1  0  0  0  0
  6 18  1  0  0  0  0
  6  1  2  0  0  0  0
  9  4  1  0  0  0  0
 10  5  1  0  0  0  0
 11  3  1  0  0  0  0
 12 11  1  0  0  0  0
 13 16  1  0  0  0  0
 13 17  1  0  0  0  0
 14 13  1  0  0  0  0
 15 13  1  0  0  0  0
M  RAD  2  11   2  12   3
M  END
