Coordinates from ORCA-job Ph-N2-H-BF4-B3LYPG-6-31G_dp-scan-d09-49-n400
 OpenBabel08281821053D

 18 17  0  0  0  0  0  0  0  0999 V2000
   -1.2582    0.0959    0.6092 C   0  0  0  0  0  0  0  0  0  0  0  0
    0.1128    0.2006    0.3977 C   0  0  0  0  0  0  0  0  0  0  0  0
    0.5641    1.3542   -0.2586 C   0  0  0  0  0  0  0  0  0  0  0  0
   -0.2841    2.3858   -0.6997 C   0  0  0  0  0  0  0  0  0  0  0  0
   -1.6440    2.2501   -0.4591 C   0  0  0  0  0  0  0  0  0  0  0  0
   -2.1273    1.1083    0.1926 C   0  0  0  0  0  0  0  0  0  0  0  0
   -1.6465   -0.7829    1.1126 H   0  0  0  0  0  0  0  0  0  0  0  0
    0.8178   -0.5531    0.7147 H   0  0  0  0  0  0  0  0  0  0  0  0
    0.1227    3.2573   -1.2004 H   0  0  0  0  0  0  0  0  0  0  0  0
   -2.3252    3.0310   -0.7787 H   0  0  0  0  0  0  0  0  0  0  0  0
    1.9160    1.5222   -0.5353 N   0  0  0  0  0  0  0  0  0  0  0  0
    2.9537    1.7464   -0.8734 N   0  0  0  0  0  0  0  0  0  0  0  0
    3.5514   -0.1353    1.3083 B   0  0  0  0  0  0  0  0  0  0  0  0
    2.9822   -1.0294    0.3670 F   0  0  0  0  0  0  0  0  0  0  0  0
    4.4530    0.7054    0.6082 F   0  0  0  0  0  0  0  0  0  0  0  0
    2.4878    0.7023    1.7776 F   0  0  0  0  0  0  0  0  0  0  0  0
    4.1569   -0.7932    2.3455 F   0  0  0  0  0  0  0  0  0  0  0  0
   -3.1926    1.0104    0.3779 H   0  0  0  0  0  0  0  0  0  0  0  0
  1  7  1  0  0  0  0
  2  1  1  0  0  0  0
  2  8  1  0  0  0  0
  3  2  2  0  0  0  0
  4  5  2  0  0  0  0
  4  3  1  0  0  0  0
  5  6  1  0  0  0  0
  6 18  1  0  0  0  0
  6  1  2  0  0  0  0
  9  4  1  0  0  0  0
 10  5  1  0  0  0  0
 11  3  1  0  0  0  0
 12 11  1  0  0  0  0
 13 16  1  0  0  0  0
 13 17  1  0  0  0  0
 14 13  1  0  0  0  0
 15 13  1  0  0  0  0
M  RAD  2  11   2  12   3
M  END
