Coordinates from ORCA-job Ph-N2-H-BF4-B3LYPG-6-31G_dp-scan-d09-49-n400
 OpenBabel08281821063D

 18 17  0  0  0  0  0  0  0  0999 V2000
   -1.3473    0.5650    1.2052 C   0  0  0  0  0  0  0  0  0  0  0  0
   -0.0153    0.9220    1.3794 C   0  0  0  0  0  0  0  0  0  0  0  0
    0.5945    1.6239    0.3322 C   0  0  0  0  0  0  0  0  0  0  0  0
   -0.0513    1.9664   -0.8638 C   0  0  0  0  0  0  0  0  0  0  0  0
   -1.3775    1.5806   -1.0073 C   0  0  0  0  0  0  0  0  0  0  0  0
   -2.0224    0.8877    0.0236 C   0  0  0  0  0  0  0  0  0  0  0  0
   -1.8545    0.0167    1.9916 H   0  0  0  0  0  0  0  0  0  0  0  0
    0.5545    0.6498    2.2567 H   0  0  0  0  0  0  0  0  0  0  0  0
    0.4827    2.4910   -1.6473 H   0  0  0  0  0  0  0  0  0  0  0  0
   -1.9058    1.8166   -1.9245 H   0  0  0  0  0  0  0  0  0  0  0  0
    1.9011    2.0691    0.4894 N   0  0  0  0  0  0  0  0  0  0  0  0
    2.9094    2.5282    0.5837 N   0  0  0  0  0  0  0  0  0  0  0  0
    3.3907   -0.3642    0.4489 B   0  0  0  0  0  0  0  0  0  0  0  0
    2.6517   -0.0388   -0.7215 F   0  0  0  0  0  0  0  0  0  0  0  0
    4.4090    0.6052    0.5952 F   0  0  0  0  0  0  0  0  0  0  0  0
    2.4969   -0.1923    1.5591 F   0  0  0  0  0  0  0  0  0  0  0  0
    3.8826   -1.6404    0.4050 F   0  0  0  0  0  0  0  0  0  0  0  0
   -3.0585    0.5894   -0.0996 H   0  0  0  0  0  0  0  0  0  0  0  0
  1  2  1  0  0  0  0
  1  7  1  0  0  0  0
  2  8  1  0  0  0  0
  3 11  1  0  0  0  0
  3  2  2  0  0  0  0
  4  3  1  0  0  0  0
  5  4  2  0  0  0  0
  5  6  1  0  0  0  0
  6  1  2  0  0  0  0
  9  4  1  0  0  0  0
 10  5  1  0  0  0  0
 11 12  1  0  0  0  0
 13 15  1  0  0  0  0
 13 16  1  0  0  0  0
 14 13  1  0  0  0  0
 17 13  1  0  0  0  0
 18  6  1  0  0  0  0
M  RAD  2  11   2  12   3
M  END
