Coordinates from ORCA-job Ph-N2-H-BF4-B3LYPG-6-31G_dp-scan-d09-49-n400
 OpenBabel08281821063D

 18 17  0  0  0  0  0  0  0  0999 V2000
   -1.2561    0.3870    1.0071 C   0  0  0  0  0  0  0  0  0  0  0  0
    0.1018    0.6858    1.0496 C   0  0  0  0  0  0  0  0  0  0  0  0
    0.5762    1.5934    0.0927 C   0  0  0  0  0  0  0  0  0  0  0  0
   -0.2309    2.1966   -0.8871 C   0  0  0  0  0  0  0  0  0  0  0  0
   -1.5775    1.8606   -0.9048 C   0  0  0  0  0  0  0  0  0  0  0  0
   -2.0868    0.9617    0.0407 C   0  0  0  0  0  0  0  0  0  0  0  0
   -1.6639   -0.3117    1.7299 H   0  0  0  0  0  0  0  0  0  0  0  0
    0.7955    0.2492    1.7613 H   0  0  0  0  0  0  0  0  0  0  0  0
    0.1952    2.8886   -1.6052 H   0  0  0  0  0  0  0  0  0  0  0  0
   -2.2287    2.2988   -1.6533 H   0  0  0  0  0  0  0  0  0  0  0  0
    1.9114    1.9782    0.1089 N   0  0  0  0  0  0  0  0  0  0  0  0
    2.9424    2.3969    0.0716 N   0  0  0  0  0  0  0  0  0  0  0  0
    3.4847   -0.4006    0.8357 B   0  0  0  0  0  0  0  0  0  0  0  0
    2.6065   -0.4346   -0.2822 F   0  0  0  0  0  0  0  0  0  0  0  0
    4.4430    0.6119    0.5930 F   0  0  0  0  0  0  0  0  0  0  0  0
    2.7079    0.0286    1.9624 F   0  0  0  0  0  0  0  0  0  0  0  0
    4.0614   -1.6199    1.0666 F   0  0  0  0  0  0  0  0  0  0  0  0
   -3.1416    0.7055    0.0191 H   0  0  0  0  0  0  0  0  0  0  0  0
  1  2  1  0  0  0  0
  1  7  1  0  0  0  0
  2  8  1  0  0  0  0
  3 11  1  0  0  0  0
  3  2  2  0  0  0  0
  4  3  1  0  0  0  0
  5  4  2  0  0  0  0
  5  6  1  0  0  0  0
  6  1  2  0  0  0  0
  9  4  1  0  0  0  0
 10  5  1  0  0  0  0
 12 11  1  0  0  0  0
 13 17  1  0  0  0  0
 13 16  1  0  0  0  0
 14 13  1  0  0  0  0
 15 13  1  0  0  0  0
 18  6  1  0  0  0  0
M  RAD  2  11   2  12   3
M  END
