Coordinates from ORCA-job Ph-N2-H-BF4-B3LYPG-6-31G_dp-scan-d09-49-n400
 OpenBabel08281821053D

 18 17  0  0  0  0  0  0  0  0999 V2000
   -1.0539    0.0921    0.5622 C   0  0  0  0  0  0  0  0  0  0  0  0
    0.3076    0.3086    0.3368 C   0  0  0  0  0  0  0  0  0  0  0  0
    0.6122    1.5149   -0.3181 C   0  0  0  0  0  0  0  0  0  0  0  0
   -0.3259    2.4780   -0.7430 C   0  0  0  0  0  0  0  0  0  0  0  0
   -1.6601    2.2107   -0.4886 C   0  0  0  0  0  0  0  0  0  0  0  0
   -2.0191    1.0190    0.1631 C   0  0  0  0  0  0  0  0  0  0  0  0
   -1.3605   -0.8188    1.0669 H   0  0  0  0  0  0  0  0  0  0  0  0
    1.1548   -0.4096    0.6657 H   0  0  0  0  0  0  0  0  0  0  0  0
   -0.0061    3.3863   -1.2417 H   0  0  0  0  0  0  0  0  0  0  0  0
   -2.4202    2.9217   -0.7929 H   0  0  0  0  0  0  0  0  0  0  0  0
    1.9434    1.7791   -0.5935 N   0  0  0  0  0  0  0  0  0  0  0  0
    3.0168    1.9595   -0.8283 N   0  0  0  0  0  0  0  0  0  0  0  0
    3.3533   -0.2320    1.4016 B   0  0  0  0  0  0  0  0  0  0  0  0
    2.2390   -1.1287    1.0657 F   0  0  0  0  0  0  0  0  0  0  0  0
    4.0646   -0.0122    0.2101 F   0  0  0  0  0  0  0  0  0  0  0  0
    2.7500    0.9796    1.7951 F   0  0  0  0  0  0  0  0  0  0  0  0
    4.1133   -0.7917    2.3849 F   0  0  0  0  0  0  0  0  0  0  0  0
   -3.0686    0.8197    0.3600 H   0  0  0  0  0  0  0  0  0  0  0  0
  1  7  1  0  0  0  0
  2  1  1  0  0  0  0
  2  8  1  0  0  0  0
  3  2  2  0  0  0  0
  4  5  2  0  0  0  0
  4  3  1  0  0  0  0
  5  6  1  0  0  0  0
  6 18  1  0  0  0  0
  6  1  2  0  0  0  0
  9  4  1  0  0  0  0
 10  5  1  0  0  0  0
 11  3  1  0  0  0  0
 12 11  1  0  0  0  0
 13 16  1  0  0  0  0
 13 17  1  0  0  0  0
 14 13  1  0  0  0  0
 15 13  1  0  0  0  0
M  RAD  2  11   2  12   3
M  END
