Coordinates from ORCA-job Ph-N2-H-BF4-B3LYPG-6-31G_dp-scan-d09-49-n400
 OpenBabel08281821053D

 18 17  0  0  0  0  0  0  0  0999 V2000
   -1.0778    0.0838    0.5615 C   0  0  0  0  0  0  0  0  0  0  0  0
    0.2810    0.2766    0.3145 C   0  0  0  0  0  0  0  0  0  0  0  0
    0.6119    1.4782   -0.3345 C   0  0  0  0  0  0  0  0  0  0  0  0
   -0.3106    2.4631   -0.7374 C   0  0  0  0  0  0  0  0  0  0  0  0
   -1.6474    2.2252   -0.4628 C   0  0  0  0  0  0  0  0  0  0  0  0
   -2.0258    1.0388    0.1855 C   0  0  0  0  0  0  0  0  0  0  0  0
   -1.3954   -0.8242    1.0637 H   0  0  0  0  0  0  0  0  0  0  0  0
    1.1015   -0.4376    0.6049 H   0  0  0  0  0  0  0  0  0  0  0  0
    0.0223    3.3678   -1.2340 H   0  0  0  0  0  0  0  0  0  0  0  0
   -2.3945    2.9571   -0.7496 H   0  0  0  0  0  0  0  0  0  0  0  0
    1.9461    1.7120   -0.6235 N   0  0  0  0  0  0  0  0  0  0  0  0
    3.0176    1.8788   -0.8783 N   0  0  0  0  0  0  0  0  0  0  0  0
    3.3551   -0.2040    1.4119 B   0  0  0  0  0  0  0  0  0  0  0  0
    2.3680   -1.1539    0.9328 F   0  0  0  0  0  0  0  0  0  0  0  0
    4.1777    0.1278    0.3147 F   0  0  0  0  0  0  0  0  0  0  0  0
    2.6295    0.9547    1.7809 F   0  0  0  0  0  0  0  0  0  0  0  0
    4.0576   -0.7325    2.4562 F   0  0  0  0  0  0  0  0  0  0  0  0
   -3.0762    0.8644    0.3992 H   0  0  0  0  0  0  0  0  0  0  0  0
  1  7  1  0  0  0  0
  2  1  1  0  0  0  0
  2  8  1  0  0  0  0
  3  2  2  0  0  0  0
  4  5  2  0  0  0  0
  4  3  1  0  0  0  0
  5  6  1  0  0  0  0
  6 18  1  0  0  0  0
  6  1  2  0  0  0  0
  9  4  1  0  0  0  0
 10  5  1  0  0  0  0
 11  3  1  0  0  0  0
 12 11  1  0  0  0  0
 13 16  1  0  0  0  0
 13 17  1  0  0  0  0
 14 13  1  0  0  0  0
 15 13  1  0  0  0  0
M  RAD  2  11   2  12   3
M  END
