Coordinates from ORCA-job Ph-N2-H-BF4-B3LYPG-6-31G_dp-scan-d09-49-n400
 OpenBabel08281821063D

 18 17  0  0  0  0  0  0  0  0999 V2000
   -1.5430    0.8523    1.3622 C   0  0  0  0  0  0  0  0  0  0  0  0
   -0.2356    1.2162    1.6556 C   0  0  0  0  0  0  0  0  0  0  0  0
    0.5861    1.5811    0.5829 C   0  0  0  0  0  0  0  0  0  0  0  0
    0.1804    1.5760   -0.7562 C   0  0  0  0  0  0  0  0  0  0  0  0
   -1.1376    1.2163   -1.0117 C   0  0  0  0  0  0  0  0  0  0  0  0
   -1.9925    0.8601    0.0364 C   0  0  0  0  0  0  0  0  0  0  0  0
   -2.2075    0.5527    2.1650 H   0  0  0  0  0  0  0  0  0  0  0  0
    0.1596    1.1956    2.6632 H   0  0  0  0  0  0  0  0  0  0  0  0
    0.8968    1.7931   -1.5356 H   0  0  0  0  0  0  0  0  0  0  0  0
   -1.4919    1.1953   -2.0366 H   0  0  0  0  0  0  0  0  0  0  0  0
    1.8735    2.0038    0.8886 N   0  0  0  0  0  0  0  0  0  0  0  0
    2.8601    2.4289    1.1737 N   0  0  0  0  0  0  0  0  0  0  0  0
    3.3676   -0.2309   -0.0086 B   0  0  0  0  0  0  0  0  0  0  0  0
    2.7106    0.5300   -1.0317 F   0  0  0  0  0  0  0  0  0  0  0  0
    4.3796    0.5908    0.5305 F   0  0  0  0  0  0  0  0  0  0  0  0
    2.3970   -0.4446    1.0140 F   0  0  0  0  0  0  0  0  0  0  0  0
    3.8524   -1.4114   -0.5030 F   0  0  0  0  0  0  0  0  0  0  0  0
   -3.0152    0.5706   -0.1827 H   0  0  0  0  0  0  0  0  0  0  0  0
  1  2  1  0  0  0  0
  1  7  1  0  0  0  0
  2  8  1  0  0  0  0
  3 11  1  0  0  0  0
  3  2  2  0  0  0  0
  4  3  1  0  0  0  0
  5  4  2  0  0  0  0
  5  6  1  0  0  0  0
  6  1  2  0  0  0  0
  9  4  1  0  0  0  0
 10  5  1  0  0  0  0
 11 12  1  0  0  0  0
 13 15  1  0  0  0  0
 13 16  1  0  0  0  0
 14 13  1  0  0  0  0
 17 13  1  0  0  0  0
 18  6  1  0  0  0  0
M  RAD  2  11   2  12   3
M  END
