Coordinates from ORCA-job Ph-N2-H-BF4-B3LYPG-6-31G_dp-scan-d09-49-n400
 OpenBabel08281821053D

 18 17  0  0  0  0  0  0  0  0999 V2000
   -1.1119    0.0748    0.5467 C   0  0  0  0  0  0  0  0  0  0  0  0
    0.2478    0.2606    0.3095 C   0  0  0  0  0  0  0  0  0  0  0  0
    0.6035    1.4649   -0.3195 C   0  0  0  0  0  0  0  0  0  0  0  0
   -0.3073    2.4641   -0.7095 C   0  0  0  0  0  0  0  0  0  0  0  0
   -1.6493    2.2383   -0.4450 C   0  0  0  0  0  0  0  0  0  0  0  0
   -2.0466    1.0473    0.1805 C   0  0  0  0  0  0  0  0  0  0  0  0
   -1.4401   -0.8385    1.0315 H   0  0  0  0  0  0  0  0  0  0  0  0
    1.0353   -0.4608    0.5876 H   0  0  0  0  0  0  0  0  0  0  0  0
    0.0380    3.3727   -1.1900 H   0  0  0  0  0  0  0  0  0  0  0  0
   -2.3852    2.9845   -0.7237 H   0  0  0  0  0  0  0  0  0  0  0  0
    1.9401    1.6878   -0.6083 N   0  0  0  0  0  0  0  0  0  0  0  0
    3.0077    1.8552   -0.8794 N   0  0  0  0  0  0  0  0  0  0  0  0
    3.3916   -0.2006    1.3988 B   0  0  0  0  0  0  0  0  0  0  0  0
    2.4830   -1.2045    0.9239 F   0  0  0  0  0  0  0  0  0  0  0  0
    4.2088    0.1855    0.3074 F   0  0  0  0  0  0  0  0  0  0  0  0
    2.5982    0.9240    1.7557 F   0  0  0  0  0  0  0  0  0  0  0  0
    4.1272   -0.6606    2.4552 F   0  0  0  0  0  0  0  0  0  0  0  0
   -3.1003    0.8813    0.3845 H   0  0  0  0  0  0  0  0  0  0  0  0
  1  7  1  0  0  0  0
  2  1  1  0  0  0  0
  2  8  1  0  0  0  0
  3  2  2  0  0  0  0
  4  5  2  0  0  0  0
  4  3  1  0  0  0  0
  5  6  1  0  0  0  0
  6 18  1  0  0  0  0
  6  1  2  0  0  0  0
  9  4  1  0  0  0  0
 10  5  1  0  0  0  0
 11  3  1  0  0  0  0
 12 11  1  0  0  0  0
 13 16  1  0  0  0  0
 13 17  1  0  0  0  0
 14 13  1  0  0  0  0
 15 13  1  0  0  0  0
M  RAD  2  11   2  12   3
M  END
