Coordinates from ORCA-job Ph-N2-H-BF4-B3LYPG-6-31G_dp-scan-d09-49-n400
 OpenBabel08281821053D

 18 17  0  0  0  0  0  0  0  0999 V2000
   -1.1742    0.0639    0.5511 C   0  0  0  0  0  0  0  0  0  0  0  0
    0.1876    0.2139    0.3083 C   0  0  0  0  0  0  0  0  0  0  0  0
    0.5849    1.4104   -0.3078 C   0  0  0  0  0  0  0  0  0  0  0  0
   -0.2978    2.4395   -0.6811 C   0  0  0  0  0  0  0  0  0  0  0  0
   -1.6457    2.2544   -0.4101 C   0  0  0  0  0  0  0  0  0  0  0  0
   -2.0792    1.0709    0.2031 C   0  0  0  0  0  0  0  0  0  0  0  0
   -1.5270   -0.8454    1.0256 H   0  0  0  0  0  0  0  0  0  0  0  0
    0.9394   -0.5291    0.5665 H   0  0  0  0  0  0  0  0  0  0  0  0
    0.0729    3.3425   -1.1530 H   0  0  0  0  0  0  0  0  0  0  0  0
   -2.3575    3.0283   -0.6756 H   0  0  0  0  0  0  0  0  0  0  0  0
    1.9263    1.6026   -0.6048 N   0  0  0  0  0  0  0  0  0  0  0  0
    2.9807    1.7934   -0.9109 N   0  0  0  0  0  0  0  0  0  0  0  0
    3.4576   -0.1576    1.3665 B   0  0  0  0  0  0  0  0  0  0  0  0
    2.7276   -1.1688    0.6787 F   0  0  0  0  0  0  0  0  0  0  0  0
    4.3516    0.4354    0.4377 F   0  0  0  0  0  0  0  0  0  0  0  0
    2.5170    0.8466    1.7423 F   0  0  0  0  0  0  0  0  0  0  0  0
    4.1126   -0.6611    2.4575 F   0  0  0  0  0  0  0  0  0  0  0  0
   -3.1362    0.9365    0.4120 H   0  0  0  0  0  0  0  0  0  0  0  0
  1  7  1  0  0  0  0
  2  1  1  0  0  0  0
  2  8  1  0  0  0  0
  3  2  2  0  0  0  0
  4  5  2  0  0  0  0
  4  3  1  0  0  0  0
  5  6  1  0  0  0  0
  6 18  1  0  0  0  0
  6  1  2  0  0  0  0
  9  4  1  0  0  0  0
 10  5  1  0  0  0  0
 11  3  1  0  0  0  0
 12 11  1  0  0  0  0
 13 16  1  0  0  0  0
 13 17  1  0  0  0  0
 14 13  1  0  0  0  0
 15 13  1  0  0  0  0
M  RAD  2  11   2  12   3
M  END
