Coordinates from ORCA-job Ph-N2-H-BF4-B3LYPG-6-31G_dp-scan-d09-49-n400
 OpenBabel08281821053D

 18 17  0  0  0  0  0  0  0  0999 V2000
   -1.2098    0.3123    0.9232 C   0  0  0  0  0  0  0  0  0  0  0  0
    0.1482    0.6141    0.9363 C   0  0  0  0  0  0  0  0  0  0  0  0
    0.5818    1.5931    0.0312 C   0  0  0  0  0  0  0  0  0  0  0  0
   -0.2654    2.2726   -0.8620 C   0  0  0  0  0  0  0  0  0  0  0  0
   -1.6112    1.9354   -0.8496 C   0  0  0  0  0  0  0  0  0  0  0  0
   -2.0787    0.9577    0.0386 C   0  0  0  0  0  0  0  0  0  0  0  0
   -1.5882   -0.4426    1.6042 H   0  0  0  0  0  0  0  0  0  0  0  0
    0.8740    0.1468    1.5941 H   0  0  0  0  0  0  0  0  0  0  0  0
    0.1307    3.0222   -1.5383 H   0  0  0  0  0  0  0  0  0  0  0  0
   -2.2942    2.4317   -1.5303 H   0  0  0  0  0  0  0  0  0  0  0  0
    1.9219    1.9547    0.0012 N   0  0  0  0  0  0  0  0  0  0  0  0
    2.9640    2.3386   -0.0821 N   0  0  0  0  0  0  0  0  0  0  0  0
    3.4667   -0.3889    0.9474 B   0  0  0  0  0  0  0  0  0  0  0  0
    2.5105   -0.5524   -0.0954 F   0  0  0  0  0  0  0  0  0  0  0  0
    4.4240    0.5504    0.4986 F   0  0  0  0  0  0  0  0  0  0  0  0
    2.7663    0.2128    2.0419 F   0  0  0  0  0  0  0  0  0  0  0  0
    4.0329   -1.5805    1.3093 F   0  0  0  0  0  0  0  0  0  0  0  0
   -3.1329    0.6980    0.0375 H   0  0  0  0  0  0  0  0  0  0  0  0
  1  2  1  0  0  0  0
  1  7  1  0  0  0  0
  2  8  1  0  0  0  0
  3  2  2  0  0  0  0
  4  5  2  0  0  0  0
  4  3  1  0  0  0  0
  5  6  1  0  0  0  0
  6  1  2  0  0  0  0
  9  4  1  0  0  0  0
 10  5  1  0  0  0  0
 11  3  1  0  0  0  0
 12 11  1  0  0  0  0
 13 17  1  0  0  0  0
 13 16  1  0  0  0  0
 14 13  1  0  0  0  0
 15 13  1  0  0  0  0
 18  6  1  0  0  0  0
M  RAD  2  11   2  12   3
M  END
