Coordinates from ORCA-job Ph-N2-H-BF4-B3LYPG-6-31G_dp-scan-d09-49-n400
 OpenBabel08281821063D

 18 17  0  0  0  0  0  0  0  0999 V2000
   -1.2949    0.4321    1.0642 C   0  0  0  0  0  0  0  0  0  0  0  0
    0.0585    0.7398    1.1536 C   0  0  0  0  0  0  0  0  0  0  0  0
    0.5770    1.5933    0.1706 C   0  0  0  0  0  0  0  0  0  0  0  0
   -0.1844    2.1358   -0.8777 C   0  0  0  0  0  0  0  0  0  0  0  0
   -1.5283    1.7934   -0.9401 C   0  0  0  0  0  0  0  0  0  0  0  0
   -2.0806    0.9470    0.0288 C   0  0  0  0  0  0  0  0  0  0  0  0
   -1.7342   -0.2281    1.8046 H   0  0  0  0  0  0  0  0  0  0  0  0
    0.7153    0.3361    1.9149 H   0  0  0  0  0  0  0  0  0  0  0  0
    0.2742    2.7869   -1.6135 H   0  0  0  0  0  0  0  0  0  0  0  0
   -2.1431    2.1854   -1.7429 H   0  0  0  0  0  0  0  0  0  0  0  0
    1.9070    1.9945    0.2285 N   0  0  0  0  0  0  0  0  0  0  0  0
    2.9260    2.4415    0.2267 N   0  0  0  0  0  0  0  0  0  0  0  0
    3.4800   -0.3917    0.7206 B   0  0  0  0  0  0  0  0  0  0  0  0
    2.6278   -0.3662   -0.4156 F   0  0  0  0  0  0  0  0  0  0  0  0
    4.4623    0.6090    0.5402 F   0  0  0  0  0  0  0  0  0  0  0  0
    2.6858    0.0143    1.8477 F   0  0  0  0  0  0  0  0  0  0  0  0
    4.0242   -1.6308    0.9241 F   0  0  0  0  0  0  0  0  0  0  0  0
   -3.1321    0.6838   -0.0287 H   0  0  0  0  0  0  0  0  0  0  0  0
  1  2  1  0  0  0  0
  1  7  1  0  0  0  0
  2  8  1  0  0  0  0
  3 11  1  0  0  0  0
  3  2  2  0  0  0  0
  4  3  1  0  0  0  0
  5  4  2  0  0  0  0
  5  6  1  0  0  0  0
  6  1  2  0  0  0  0
  9  4  1  0  0  0  0
 10  5  1  0  0  0  0
 12 11  1  0  0  0  0
 13 17  1  0  0  0  0
 13 16  1  0  0  0  0
 14 13  1  0  0  0  0
 15 13  1  0  0  0  0
 18  6  1  0  0  0  0
M  RAD  2  11   2  12   3
M  END
