Coordinates from ORCA-job Ph-N2-H-BF4-B3LYPG-6-31G_dp-scan-d09-49-n400
 OpenBabel08281821063D

 18 17  0  0  0  0  0  0  0  0999 V2000
   -1.2771    0.4086    1.0348 C   0  0  0  0  0  0  0  0  0  0  0  0
    0.0795    0.7091    1.0991 C   0  0  0  0  0  0  0  0  0  0  0  0
    0.5757    1.5909    0.1296 C   0  0  0  0  0  0  0  0  0  0  0  0
   -0.2098    2.1669   -0.8832 C   0  0  0  0  0  0  0  0  0  0  0  0
   -1.5559    1.8302   -0.9217 C   0  0  0  0  0  0  0  0  0  0  0  0
   -2.0865    0.9568    0.0355 C   0  0  0  0  0  0  0  0  0  0  0  0
   -1.7003   -0.2715    1.7665 H   0  0  0  0  0  0  0  0  0  0  0  0
    0.7557    0.2861    1.8338 H   0  0  0  0  0  0  0  0  0  0  0  0
    0.2322    2.8392   -1.6101 H   0  0  0  0  0  0  0  0  0  0  0  0
   -2.1898    2.2479   -1.6963 H   0  0  0  0  0  0  0  0  0  0  0  0
    1.9091    1.9826    0.1654 N   0  0  0  0  0  0  0  0  0  0  0  0
    2.9335    2.4172    0.1451 N   0  0  0  0  0  0  0  0  0  0  0  0
    3.4869   -0.3958    0.7808 B   0  0  0  0  0  0  0  0  0  0  0  0
    2.6248   -0.4022   -0.3492 F   0  0  0  0  0  0  0  0  0  0  0  0
    4.4578    0.6107    0.5703 F   0  0  0  0  0  0  0  0  0  0  0  0
    2.6988    0.0249    1.9055 F   0  0  0  0  0  0  0  0  0  0  0  0
    4.0463   -1.6248    1.0026 F   0  0  0  0  0  0  0  0  0  0  0  0
   -3.1404    0.6992   -0.0027 H   0  0  0  0  0  0  0  0  0  0  0  0
  1  2  1  0  0  0  0
  1  7  1  0  0  0  0
  2  8  1  0  0  0  0
  3 11  1  0  0  0  0
  3  2  2  0  0  0  0
  4  3  1  0  0  0  0
  5  4  2  0  0  0  0
  5  6  1  0  0  0  0
  6  1  2  0  0  0  0
  9  4  1  0  0  0  0
 10  5  1  0  0  0  0
 12 11  1  0  0  0  0
 13 17  1  0  0  0  0
 13 16  1  0  0  0  0
 14 13  1  0  0  0  0
 15 13  1  0  0  0  0
 18  6  1  0  0  0  0
M  RAD  2  11   2  12   3
M  END
