Coordinates from ORCA-job Ph-N2-H-BF4-B3LYPG-6-31G_dp-scan-d09-49-n400
 OpenBabel08281821063D

 18 17  0  0  0  0  0  0  0  0999 V2000
   -1.3279    0.5110    1.1555 C   0  0  0  0  0  0  0  0  0  0  0  0
    0.0091    0.8585    1.3131 C   0  0  0  0  0  0  0  0  0  0  0  0
    0.5896    1.6175    0.2881 C   0  0  0  0  0  0  0  0  0  0  0  0
   -0.0951    2.0331   -0.8636 C   0  0  0  0  0  0  0  0  0  0  0  0
   -1.4253    1.6559   -0.9903 C   0  0  0  0  0  0  0  0  0  0  0  0
   -2.0382    0.9000    0.0155 C   0  0  0  0  0  0  0  0  0  0  0  0
   -1.8123   -0.0822    1.9237 H   0  0  0  0  0  0  0  0  0  0  0  0
    0.6055    0.5388    2.1567 H   0  0  0  0  0  0  0  0  0  0  0  0
    0.4124    2.6099   -1.6283 H   0  0  0  0  0  0  0  0  0  0  0  0
   -1.9815    1.9485   -1.8742 H   0  0  0  0  0  0  0  0  0  0  0  0
    1.9041    2.0518    0.4140 N   0  0  0  0  0  0  0  0  0  0  0  0
    2.9138    2.5138    0.4734 N   0  0  0  0  0  0  0  0  0  0  0  0
    3.4169   -0.3764    0.5361 B   0  0  0  0  0  0  0  0  0  0  0  0
    2.6105   -0.1787   -0.6165 F   0  0  0  0  0  0  0  0  0  0  0  0
    4.4389    0.5981    0.5142 F   0  0  0  0  0  0  0  0  0  0  0  0
    2.5909   -0.0782    1.6758 F   0  0  0  0  0  0  0  0  0  0  0  0
    3.9063   -1.6523    0.6073 F   0  0  0  0  0  0  0  0  0  0  0  0
   -3.0773    0.6068   -0.0945 H   0  0  0  0  0  0  0  0  0  0  0  0
  1  2  1  0  0  0  0
  1  7  1  0  0  0  0
  2  8  1  0  0  0  0
  3 11  1  0  0  0  0
  3  2  2  0  0  0  0
  4  3  1  0  0  0  0
  5  4  2  0  0  0  0
  5  6  1  0  0  0  0
  6  1  2  0  0  0  0
  9  4  1  0  0  0  0
 10  5  1  0  0  0  0
 11 12  1  0  0  0  0
 13 17  1  0  0  0  0
 13 16  1  0  0  0  0
 14 13  1  0  0  0  0
 15 13  1  0  0  0  0
 18  6  1  0  0  0  0
M  RAD  2  11   2  12   3
M  END
