Coordinates from ORCA-job Ph-N2-H-BF4-B3LYPG-6-31G_dp-scan-d09-49-n400
 OpenBabel08281821053D

 18 16  0  0  0  0  0  0  0  0999 V2000
   -0.9684    0.1243    0.4835 C   0  0  0  0  0  0  0  0  0  0  0  0
    0.3758    0.4144    0.1488 C   0  0  0  0  0  0  0  0  0  0  0  0
    0.4762    1.6873   -0.4488 C   0  0  0  0  0  0  0  0  0  0  0  0
   -0.5499    2.6295   -0.7236 C   0  0  0  0  0  0  0  0  0  0  0  0
   -1.8251    2.2562   -0.3588 C   0  0  0  0  0  0  0  0  0  0  0  0
   -2.0281    0.9968    0.2468 C   0  0  0  0  0  0  0  0  0  0  0  0
   -1.1894   -0.8308    0.9558 H   0  0  0  0  0  0  0  0  0  0  0  0
    1.6385   -0.6021    0.4687 H   0  0  0  0  0  0  0  0  0  0  0  0
   -0.3370    3.5860   -1.1906 H   0  0  0  0  0  0  0  0  0  0  0  0
   -2.6614    2.9242   -0.5357 H   0  0  0  0  0  0  0  0  0  0  0  0
    1.7547    2.0681   -0.8219 N   0  0  0  0  0  0  0  0  0  0  0  0
    2.7943    2.3483   -1.1155 N   0  0  0  0  0  0  0  0  0  0  0  0
    3.5866   -0.3662    1.5861 B   0  0  0  0  0  0  0  0  0  0  0  0
    2.3274   -1.1496    0.6573 F   0  0  0  0  0  0  0  0  0  0  0  0
    4.6245   -1.1694    1.3071 F   0  0  0  0  0  0  0  0  0  0  0  0
    3.5875    0.8581    0.9867 F   0  0  0  0  0  0  0  0  0  0  0  0
    3.0719   -0.4104    2.8272 F   0  0  0  0  0  0  0  0  0  0  0  0
   -3.0377    0.7113    0.5327 H   0  0  0  0  0  0  0  0  0  0  0  0
  1  7  1  0  0  0  0
  2  1  2  0  0  0  0
  3  2  1  0  0  0  0
  4  3  2  0  0  0  0
  4  5  1  0  0  0  0
  5  6  2  0  0  0  0
  6  1  1  0  0  0  0
  6 18  1  0  0  0  0
  8 14  1  0  0  0  0
  9  4  1  0  0  0  0
 10  5  1  0  0  0  0
 11  3  1  0  0  0  0
 12 11  1  0  0  0  0
 13 17  1  0  0  0  0
 15 13  1  0  0  0  0
 16 13  1  0  0  0  0
M  RAD  3   2   2  11   2  12   3
M  END
