Coordinates from ORCA-job Ph-N2-H-BF4-B3LYPG-6-31G_dp-scan-d09-49-n400
 OpenBabel08281821063D

 18 17  0  0  0  0  0  0  0  0999 V2000
   -1.8283    1.7304    1.2410 C   0  0  0  0  0  0  0  0  0  0  0  0
   -0.5480    1.7177    1.7744 C   0  0  0  0  0  0  0  0  0  0  0  0
    0.4598    1.0837    1.0216 C   0  0  0  0  0  0  0  0  0  0  0  0
    0.2420    0.4514   -0.2122 C   0  0  0  0  0  0  0  0  0  0  0  0
   -1.0591    0.4828   -0.7061 C   0  0  0  0  0  0  0  0  0  0  0  0
   -2.0797    1.1192    0.0046 C   0  0  0  0  0  0  0  0  0  0  0  0
   -2.6310    2.2137    1.7869 H   0  0  0  0  0  0  0  0  0  0  0  0
   -0.3329    2.1753    2.7347 H   0  0  0  0  0  0  0  0  0  0  0  0
    1.0718   -0.0406   -0.7145 H   0  0  0  0  0  0  0  0  0  0  0  0
   -1.2715    0.0077   -1.6574 H   0  0  0  0  0  0  0  0  0  0  0  0
    1.7361    1.0715    1.5647 N   0  0  0  0  0  0  0  0  0  0  0  0
    2.7328    1.0684    2.0641 N   0  0  0  0  0  0  0  0  0  0  0  0
    3.6762    0.3700   -0.7287 B   0  0  0  0  0  0  0  0  0  0  0  0
    2.8263    1.5089   -0.7896 F   0  0  0  0  0  0  0  0  0  0  0  0
    4.3586    0.4214    0.5161 F   0  0  0  0  0  0  0  0  0  0  0  0
    2.8265   -0.7741   -0.7060 F   0  0  0  0  0  0  0  0  0  0  0  0
    4.5467    0.3309   -1.7847 F   0  0  0  0  0  0  0  0  0  0  0  0
   -3.0859    1.1380   -0.4029 H   0  0  0  0  0  0  0  0  0  0  0  0
  1  2  1  0  0  0  0
  1  7  1  0  0  0  0
  2  8  1  0  0  0  0
  3 11  1  0  0  0  0
  3  2  2  0  0  0  0
  4  3  1  0  0  0  0
  5  4  2  0  0  0  0
  5  6  1  0  0  0  0
  6  1  2  0  0  0  0
  9  4  1  0  0  0  0
 10  5  1  0  0  0  0
 11 12  1  0  0  0  0
 13 16  1  0  0  0  0
 13 15  1  0  0  0  0
 14 13  1  0  0  0  0
 17 13  1  0  0  0  0
 18  6  1  0  0  0  0
M  RAD  2  11   2  12   3
M  END
