Coordinates from ORCA-job Ph-N2-H-BF4-B3LYPG-6-31G_dp-scan-d09-49-n400
 OpenBabel08281821053D

 18 17  0  0  0  0  0  0  0  0999 V2000
   -1.1013    0.0815    0.5569 C   0  0  0  0  0  0  0  0  0  0  0  0
    0.2585    0.2688    0.3179 C   0  0  0  0  0  0  0  0  0  0  0  0
    0.6068    1.4689   -0.3235 C   0  0  0  0  0  0  0  0  0  0  0  0
   -0.3075    2.4610   -0.7248 C   0  0  0  0  0  0  0  0  0  0  0  0
   -1.6483    2.2321   -0.4582 C   0  0  0  0  0  0  0  0  0  0  0  0
   -2.0401    1.0458    0.1806 C   0  0  0  0  0  0  0  0  0  0  0  0
   -1.4265   -0.8277    1.0516 H   0  0  0  0  0  0  0  0  0  0  0  0
    1.0561   -0.4477    0.6042 H   0  0  0  0  0  0  0  0  0  0  0  0
    0.0343    3.3656   -1.2151 H   0  0  0  0  0  0  0  0  0  0  0  0
   -2.3876    2.9718   -0.7452 H   0  0  0  0  0  0  0  0  0  0  0  0
    1.9431    1.6942   -0.6117 N   0  0  0  0  0  0  0  0  0  0  0  0
    3.0120    1.8604   -0.8780 N   0  0  0  0  0  0  0  0  0  0  0  0
    3.3791   -0.2026    1.4041 B   0  0  0  0  0  0  0  0  0  0  0  0
    2.4420   -1.1847    0.9232 F   0  0  0  0  0  0  0  0  0  0  0  0
    4.2013    0.1669    0.3134 F   0  0  0  0  0  0  0  0  0  0  0  0
    2.6103    0.9348    1.7676 F   0  0  0  0  0  0  0  0  0  0  0  0
    4.1012   -0.6908    2.4562 F   0  0  0  0  0  0  0  0  0  0  0  0
   -3.0929    0.8777    0.3868 H   0  0  0  0  0  0  0  0  0  0  0  0
  1  7  1  0  0  0  0
  2  1  1  0  0  0  0
  2  8  1  0  0  0  0
  3  2  2  0  0  0  0
  4  5  2  0  0  0  0
  4  3  1  0  0  0  0
  5  6  1  0  0  0  0
  6 18  1  0  0  0  0
  6  1  2  0  0  0  0
  9  4  1  0  0  0  0
 10  5  1  0  0  0  0
 11  3  1  0  0  0  0
 12 11  1  0  0  0  0
 13 16  1  0  0  0  0
 13 17  1  0  0  0  0
 14 13  1  0  0  0  0
 15 13  1  0  0  0  0
M  RAD  2  11   2  12   3
M  END
