Coordinates from ORCA-job Ph-N2-H-BF4-B3LYPG-6-31G_dp-scan-d09-49-n400
 OpenBabel08281821063D

 18 17  0  0  0  0  0  0  0  0999 V2000
   -1.3087    0.4569    1.0939 C   0  0  0  0  0  0  0  0  0  0  0  0
    0.0398    0.7771    1.2094 C   0  0  0  0  0  0  0  0  0  0  0  0
    0.5799    1.6004    0.2122 C   0  0  0  0  0  0  0  0  0  0  0  0
   -0.1565    2.1046   -0.8718 C   0  0  0  0  0  0  0  0  0  0  0  0
   -1.4965    1.7519   -0.9583 C   0  0  0  0  0  0  0  0  0  0  0  0
   -2.0693    0.9328    0.0216 C   0  0  0  0  0  0  0  0  0  0  0  0
   -1.7636   -0.1824    1.8429 H   0  0  0  0  0  0  0  0  0  0  0  0
    0.6752    0.3995    2.0005 H   0  0  0  0  0  0  0  0  0  0  0  0
    0.3185    2.7334   -1.6163 H   0  0  0  0  0  0  0  0  0  0  0  0
   -2.0918    2.1144   -1.7893 H   0  0  0  0  0  0  0  0  0  0  0  0
    1.9056    2.0121    0.2924 N   0  0  0  0  0  0  0  0  0  0  0  0
    2.9213    2.4656    0.3099 N   0  0  0  0  0  0  0  0  0  0  0  0
    3.4646   -0.3888    0.6585 B   0  0  0  0  0  0  0  0  0  0  0  0
    2.6209   -0.3240   -0.4817 F   0  0  0  0  0  0  0  0  0  0  0  0
    4.4558    0.6086    0.5138 F   0  0  0  0  0  0  0  0  0  0  0  0
    2.6647   -0.0089    1.7921 F   0  0  0  0  0  0  0  0  0  0  0  0
    3.9976   -1.6374    0.8318 F   0  0  0  0  0  0  0  0  0  0  0  0
   -3.1171    0.6601   -0.0557 H   0  0  0  0  0  0  0  0  0  0  0  0
  1  2  1  0  0  0  0
  1  7  1  0  0  0  0
  2  8  1  0  0  0  0
  3 11  1  0  0  0  0
  3  2  2  0  0  0  0
  4  3  1  0  0  0  0
  5  4  2  0  0  0  0
  5  6  1  0  0  0  0
  6  1  2  0  0  0  0
  9  4  1  0  0  0  0
 10  5  1  0  0  0  0
 11 12  1  0  0  0  0
 13 17  1  0  0  0  0
 13 16  1  0  0  0  0
 14 13  1  0  0  0  0
 15 13  1  0  0  0  0
 18  6  1  0  0  0  0
M  RAD  2  11   2  12   3
M  END
