Coordinates from ORCA-job Ph-N2-H-BF4-B3LYPG-6-31G_dp-scan-d09-49-n400
 OpenBabel08281821063D

 18 17  0  0  0  0  0  0  0  0999 V2000
   -1.3296    0.5319    1.1766 C   0  0  0  0  0  0  0  0  0  0  0  0
    0.0044    0.8874    1.3389 C   0  0  0  0  0  0  0  0  0  0  0  0
    0.5935    1.6250    0.3035 C   0  0  0  0  0  0  0  0  0  0  0  0
   -0.0770    2.0075   -0.8673 C   0  0  0  0  0  0  0  0  0  0  0  0
   -1.4044    1.6217   -0.9991 C   0  0  0  0  0  0  0  0  0  0  0  0
   -2.0275    0.8912    0.0193 C   0  0  0  0  0  0  0  0  0  0  0  0
   -1.8207   -0.0439    1.9537 H   0  0  0  0  0  0  0  0  0  0  0  0
    0.5970    0.5847    2.1912 H   0  0  0  0  0  0  0  0  0  0  0  0
    0.4386    2.5639   -1.6414 H   0  0  0  0  0  0  0  0  0  0  0  0
   -1.9510    1.8876   -1.8973 H   0  0  0  0  0  0  0  0  0  0  0  0
    1.9038    2.0667    0.4441 N   0  0  0  0  0  0  0  0  0  0  0  0
    2.9129    2.5276    0.5189 N   0  0  0  0  0  0  0  0  0  0  0  0
    3.3976   -0.3723    0.5044 B   0  0  0  0  0  0  0  0  0  0  0  0
    2.6172   -0.1033   -0.6539 F   0  0  0  0  0  0  0  0  0  0  0  0
    4.4264    0.5934    0.5601 F   0  0  0  0  0  0  0  0  0  0  0  0
    2.5472   -0.1319    1.6376 F   0  0  0  0  0  0  0  0  0  0  0  0
    3.8769   -1.6540    0.5116 F   0  0  0  0  0  0  0  0  0  0  0  0
   -3.0647    0.5928   -0.0950 H   0  0  0  0  0  0  0  0  0  0  0  0
  1  2  1  0  0  0  0
  1  7  1  0  0  0  0
  2  8  1  0  0  0  0
  3 11  1  0  0  0  0
  3  2  2  0  0  0  0
  4  3  1  0  0  0  0
  5  4  2  0  0  0  0
  5  6  1  0  0  0  0
  6  1  2  0  0  0  0
  9  4  1  0  0  0  0
 10  5  1  0  0  0  0
 11 12  1  0  0  0  0
 13 17  1  0  0  0  0
 13 15  1  0  0  0  0
 13 16  1  0  0  0  0
 14 13  1  0  0  0  0
 18  6  1  0  0  0  0
M  RAD  2  11   2  12   3
M  END
