Coordinates from ORCA-job Ph-N2-H-BF4-B3LYPG-6-31G_dp-scan-d09-49-n400
 OpenBabel08281821063D

 18 17  0  0  0  0  0  0  0  0999 V2000
   -1.2892    0.4209    1.0501 C   0  0  0  0  0  0  0  0  0  0  0  0
    0.0666    0.7221    1.1267 C   0  0  0  0  0  0  0  0  0  0  0  0
    0.5755    1.5888    0.1505 C   0  0  0  0  0  0  0  0  0  0  0  0
   -0.1973    2.1498   -0.8800 C   0  0  0  0  0  0  0  0  0  0  0  0
   -1.5431    1.8131   -0.9304 C   0  0  0  0  0  0  0  0  0  0  0  0
   -2.0861    0.9542    0.0328 C   0  0  0  0  0  0  0  0  0  0  0  0
   -1.7215   -0.2485    1.7863 H   0  0  0  0  0  0  0  0  0  0  0  0
    0.7321    0.3066    1.8744 H   0  0  0  0  0  0  0  0  0  0  0  0
    0.2541    2.8108   -1.6115 H   0  0  0  0  0  0  0  0  0  0  0  0
   -2.1668    2.2194   -1.7192 H   0  0  0  0  0  0  0  0  0  0  0  0
    1.9077    1.9842    0.1967 N   0  0  0  0  0  0  0  0  0  0  0  0
    2.9285    2.4274    0.1842 N   0  0  0  0  0  0  0  0  0  0  0  0
    3.4879   -0.3924    0.7498 B   0  0  0  0  0  0  0  0  0  0  0  0
    2.6354   -0.3848   -0.3867 F   0  0  0  0  0  0  0  0  0  0  0  0
    4.4644    0.6119    0.5577 F   0  0  0  0  0  0  0  0  0  0  0  0
    2.6921    0.0222    1.8723 F   0  0  0  0  0  0  0  0  0  0  0  0
    4.0395   -1.6258    0.9669 F   0  0  0  0  0  0  0  0  0  0  0  0
   -3.1394    0.6960   -0.0149 H   0  0  0  0  0  0  0  0  0  0  0  0
  1  2  1  0  0  0  0
  1  7  1  0  0  0  0
  2  8  1  0  0  0  0
  3 11  1  0  0  0  0
  3  2  2  0  0  0  0
  4  3  1  0  0  0  0
  5  4  2  0  0  0  0
  5  6  1  0  0  0  0
  6  1  2  0  0  0  0
  9  4  1  0  0  0  0
 10  5  1  0  0  0  0
 12 11  1  0  0  0  0
 13 17  1  0  0  0  0
 13 16  1  0  0  0  0
 14 13  1  0  0  0  0
 15 13  1  0  0  0  0
 18  6  1  0  0  0  0
M  RAD  2  11   2  12   3
M  END
