Coordinates from ORCA-job Ph-N2-H-BF4-B3LYPG-6-31G_dp-scan-d09-49-n400
 OpenBabel08281821053D

 18 17  0  0  0  0  0  0  0  0999 V2000
   -1.1626    0.0620    0.5525 C   0  0  0  0  0  0  0  0  0  0  0  0
    0.1983    0.2165    0.3066 C   0  0  0  0  0  0  0  0  0  0  0  0
    0.5884    1.4146   -0.3109 C   0  0  0  0  0  0  0  0  0  0  0  0
   -0.2984    2.4408   -0.6831 C   0  0  0  0  0  0  0  0  0  0  0  0
   -1.6448    2.2503   -0.4094 C   0  0  0  0  0  0  0  0  0  0  0  0
   -2.0722    1.0651    0.2056 C   0  0  0  0  0  0  0  0  0  0  0  0
   -1.5113   -0.8482    1.0285 H   0  0  0  0  0  0  0  0  0  0  0  0
    0.9585   -0.5224    0.5625 H   0  0  0  0  0  0  0  0  0  0  0  0
    0.0679    3.3449   -1.1562 H   0  0  0  0  0  0  0  0  0  0  0  0
   -2.3605    3.0209   -0.6739 H   0  0  0  0  0  0  0  0  0  0  0  0
    1.9290    1.6100   -0.6090 N   0  0  0  0  0  0  0  0  0  0  0  0
    2.9843    1.7998   -0.9124 N   0  0  0  0  0  0  0  0  0  0  0  0
    3.4435   -0.1561    1.3684 B   0  0  0  0  0  0  0  0  0  0  0  0
    2.6857   -1.1521    0.6826 F   0  0  0  0  0  0  0  0  0  0  0  0
    4.3448    0.4146    0.4344 F   0  0  0  0  0  0  0  0  0  0  0  0
    2.5268    0.8667    1.7483 F   0  0  0  0  0  0  0  0  0  0  0  0
    4.0911   -0.6782    2.4547 F   0  0  0  0  0  0  0  0  0  0  0  0
   -3.1283    0.9268    0.4167 H   0  0  0  0  0  0  0  0  0  0  0  0
  1  7  1  0  0  0  0
  2  1  1  0  0  0  0
  2  8  1  0  0  0  0
  3  2  2  0  0  0  0
  4  5  2  0  0  0  0
  4  3  1  0  0  0  0
  5  6  1  0  0  0  0
  6 18  1  0  0  0  0
  6  1  2  0  0  0  0
  9  4  1  0  0  0  0
 10  5  1  0  0  0  0
 11  3  1  0  0  0  0
 12 11  1  0  0  0  0
 13 16  1  0  0  0  0
 13 17  1  0  0  0  0
 14 13  1  0  0  0  0
 15 13  1  0  0  0  0
M  RAD  2  11   2  12   3
M  END
