Coordinates from ORCA-job Ph-N2-H-BF4-B3LYPG-6-31G_dp-scan-d09-49-n400
 OpenBabel08281821063D

 18 17  0  0  0  0  0  0  0  0999 V2000
   -1.3279    0.5216    1.1670 C   0  0  0  0  0  0  0  0  0  0  0  0
    0.0071    0.8746    1.3278 C   0  0  0  0  0  0  0  0  0  0  0  0
    0.5922    1.6223    0.2973 C   0  0  0  0  0  0  0  0  0  0  0  0
   -0.0845    2.0193   -0.8654 C   0  0  0  0  0  0  0  0  0  0  0  0
   -1.4128    1.6363   -0.9955 C   0  0  0  0  0  0  0  0  0  0  0  0
   -2.0312    0.8937    0.0171 C   0  0  0  0  0  0  0  0  0  0  0  0
   -1.8157   -0.0627    1.9399 H   0  0  0  0  0  0  0  0  0  0  0  0
    0.6015    0.5645    2.1762 H   0  0  0  0  0  0  0  0  0  0  0  0
    0.4272    2.5853   -1.6351 H   0  0  0  0  0  0  0  0  0  0  0  0
   -1.9636    1.9137   -1.8875 H   0  0  0  0  0  0  0  0  0  0  0  0
    1.9043    2.0613    0.4316 N   0  0  0  0  0  0  0  0  0  0  0  0
    2.9132    2.5236    0.4992 N   0  0  0  0  0  0  0  0  0  0  0  0
    3.4044   -0.3737    0.5182 B   0  0  0  0  0  0  0  0  0  0  0  0
    2.6108   -0.1341   -0.6366 F   0  0  0  0  0  0  0  0  0  0  0  0
    4.4340    0.5921    0.5365 F   0  0  0  0  0  0  0  0  0  0  0  0
    2.5684   -0.1031    1.6568 F   0  0  0  0  0  0  0  0  0  0  0  0
    3.8821   -1.6555    0.5541 F   0  0  0  0  0  0  0  0  0  0  0  0
   -3.0689    0.5967   -0.0959 H   0  0  0  0  0  0  0  0  0  0  0  0
  1  2  1  0  0  0  0
  1  7  1  0  0  0  0
  2  8  1  0  0  0  0
  3 11  1  0  0  0  0
  3  2  2  0  0  0  0
  4  3  1  0  0  0  0
  5  4  2  0  0  0  0
  5  6  1  0  0  0  0
  6  1  2  0  0  0  0
  9  4  1  0  0  0  0
 10  5  1  0  0  0  0
 11 12  1  0  0  0  0
 13 15  1  0  0  0  0
 13 17  1  0  0  0  0
 13 16  1  0  0  0  0
 14 13  1  0  0  0  0
 18  6  1  0  0  0  0
M  RAD  2  11   2  12   3
M  END
