Coordinates from ORCA-job Ph-N2-H-BF4-B3LYPG-6-31G_dp-scan-d09-49-n400
 OpenBabel08281821053D

 18 17  0  0  0  0  0  0  0  0999 V2000
   -1.0710    0.0851    0.5638 C   0  0  0  0  0  0  0  0  0  0  0  0
    0.2880    0.2809    0.3170 C   0  0  0  0  0  0  0  0  0  0  0  0
    0.6123    1.4832   -0.3346 C   0  0  0  0  0  0  0  0  0  0  0  0
   -0.3133    2.4646   -0.7401 C   0  0  0  0  0  0  0  0  0  0  0  0
   -1.6490    2.2222   -0.4653 C   0  0  0  0  0  0  0  0  0  0  0  0
   -2.0226    1.0354    0.1856 C   0  0  0  0  0  0  0  0  0  0  0  0
   -1.3861   -0.8227    1.0681 H   0  0  0  0  0  0  0  0  0  0  0  0
    1.1181   -0.4328    0.6124 H   0  0  0  0  0  0  0  0  0  0  0  0
    0.0164    3.3694   -1.2387 H   0  0  0  0  0  0  0  0  0  0  0  0
   -2.3990    2.9506   -0.7536 H   0  0  0  0  0  0  0  0  0  0  0  0
    1.9457    1.7216   -0.6234 N   0  0  0  0  0  0  0  0  0  0  0  0
    3.0175    1.8907   -0.8752 N   0  0  0  0  0  0  0  0  0  0  0  0
    3.3513   -0.2064    1.4109 B   0  0  0  0  0  0  0  0  0  0  0  0
    2.3421   -1.1427    0.9355 F   0  0  0  0  0  0  0  0  0  0  0  0
    4.1699    0.1105    0.3089 F   0  0  0  0  0  0  0  0  0  0  0  0
    2.6442    0.9600    1.7850 F   0  0  0  0  0  0  0  0  0  0  0  0
    4.0482   -0.7514    2.4498 F   0  0  0  0  0  0  0  0  0  0  0  0
   -3.0724    0.8575    0.3996 H   0  0  0  0  0  0  0  0  0  0  0  0
  1  7  1  0  0  0  0
  2  1  1  0  0  0  0
  2  8  1  0  0  0  0
  3  2  2  0  0  0  0
  4  5  2  0  0  0  0
  4  3  1  0  0  0  0
  5  6  1  0  0  0  0
  6 18  1  0  0  0  0
  6  1  2  0  0  0  0
  9  4  1  0  0  0  0
 10  5  1  0  0  0  0
 11  3  1  0  0  0  0
 12 11  1  0  0  0  0
 13 16  1  0  0  0  0
 13 17  1  0  0  0  0
 14 13  1  0  0  0  0
 15 13  1  0  0  0  0
M  RAD  2  11   2  12   3
M  END
