Coordinates from ORCA-job Ph-N2-H-BF4-B3LYPG-6-31G_dp-scan-d09-49-n400
 OpenBabel08281821063D

 18 17  0  0  0  0  0  0  0  0999 V2000
   -1.3023    0.4400    1.0734 C   0  0  0  0  0  0  0  0  0  0  0  0
    0.0507    0.7478    1.1700 C   0  0  0  0  0  0  0  0  0  0  0  0
    0.5771    1.5916    0.1829 C   0  0  0  0  0  0  0  0  0  0  0  0
   -0.1765    2.1250   -0.8756 C   0  0  0  0  0  0  0  0  0  0  0  0
   -1.5201    1.7828   -0.9449 C   0  0  0  0  0  0  0  0  0  0  0  0
   -2.0800    0.9456    0.0274 C   0  0  0  0  0  0  0  0  0  0  0  0
   -1.7473   -0.2133    1.8164 H   0  0  0  0  0  0  0  0  0  0  0  0
    0.7003    0.3491    1.9395 H   0  0  0  0  0  0  0  0  0  0  0  0
    0.2880    2.7689   -1.6140 H   0  0  0  0  0  0  0  0  0  0  0  0
   -2.1286    2.1678   -1.7558 H   0  0  0  0  0  0  0  0  0  0  0  0
    1.9063    1.9951    0.2468 N   0  0  0  0  0  0  0  0  0  0  0  0
    2.9232    2.4466    0.2491 N   0  0  0  0  0  0  0  0  0  0  0  0
    3.4803   -0.3894    0.7018 B   0  0  0  0  0  0  0  0  0  0  0  0
    2.6348   -0.3554   -0.4388 F   0  0  0  0  0  0  0  0  0  0  0  0
    4.4646    0.6112    0.5340 F   0  0  0  0  0  0  0  0  0  0  0  0
    2.6800    0.0108    1.8277 F   0  0  0  0  0  0  0  0  0  0  0  0
    4.0214   -1.6304    0.9015 F   0  0  0  0  0  0  0  0  0  0  0  0
   -3.1312    0.6822   -0.0355 H   0  0  0  0  0  0  0  0  0  0  0  0
  1  2  1  0  0  0  0
  1  7  1  0  0  0  0
  2  8  1  0  0  0  0
  3 11  1  0  0  0  0
  3  2  2  0  0  0  0
  4  3  1  0  0  0  0
  5  4  2  0  0  0  0
  5  6  1  0  0  0  0
  6  1  2  0  0  0  0
  9  4  1  0  0  0  0
 10  5  1  0  0  0  0
 11 12  1  0  0  0  0
 13 17  1  0  0  0  0
 13 16  1  0  0  0  0
 14 13  1  0  0  0  0
 15 13  1  0  0  0  0
 18  6  1  0  0  0  0
M  RAD  2  11   2  12   3
M  END
