Coordinates from ORCA-job Ph-N2-H-BF4-B3LYPG-6-31G_dp-scan-d09-49-n400
 OpenBabel08281821063D

 18 17  0  0  0  0  0  0  0  0999 V2000
   -1.2413    0.3740    0.9894 C   0  0  0  0  0  0  0  0  0  0  0  0
    0.1168    0.6736    1.0184 C   0  0  0  0  0  0  0  0  0  0  0  0
    0.5769    1.5969    0.0692 C   0  0  0  0  0  0  0  0  0  0  0  0
   -0.2438    2.2156   -0.8896 C   0  0  0  0  0  0  0  0  0  0  0  0
   -1.5901    1.8786   -0.8939 C   0  0  0  0  0  0  0  0  0  0  0  0
   -2.0853    0.9634    0.0437 C   0  0  0  0  0  0  0  0  0  0  0  0
   -1.6388   -0.3362    1.7067 H   0  0  0  0  0  0  0  0  0  0  0  0
    0.8215    0.2312    1.7165 H   0  0  0  0  0  0  0  0  0  0  0  0
    0.1719    2.9198   -1.6019 H   0  0  0  0  0  0  0  0  0  0  0  0
   -2.2523    2.3284   -1.6257 H   0  0  0  0  0  0  0  0  0  0  0  0
    1.9131    1.9771    0.0724 N   0  0  0  0  0  0  0  0  0  0  0  0
    2.9490    2.3829    0.0234 N   0  0  0  0  0  0  0  0  0  0  0  0
    3.4806   -0.4042    0.8709 B   0  0  0  0  0  0  0  0  0  0  0  0
    2.5914   -0.4530   -0.2387 F   0  0  0  0  0  0  0  0  0  0  0  0
    4.4288    0.6139    0.6096 F   0  0  0  0  0  0  0  0  0  0  0  0
    2.7116    0.0246    2.0013 F   0  0  0  0  0  0  0  0  0  0  0  0
    4.0707   -1.6172    1.1016 F   0  0  0  0  0  0  0  0  0  0  0  0
   -3.1402    0.7067    0.0325 H   0  0  0  0  0  0  0  0  0  0  0  0
  1  2  1  0  0  0  0
  1  7  1  0  0  0  0
  2  8  1  0  0  0  0
  3 11  1  0  0  0  0
  3  2  2  0  0  0  0
  4  3  1  0  0  0  0
  5  4  2  0  0  0  0
  5  6  1  0  0  0  0
  6  1  2  0  0  0  0
  9  4  1  0  0  0  0
 10  5  1  0  0  0  0
 12 11  1  0  0  0  0
 13 17  1  0  0  0  0
 13 16  1  0  0  0  0
 14 13  1  0  0  0  0
 15 13  1  0  0  0  0
 18  6  1  0  0  0  0
M  RAD  2  11   2  12   3
M  END
