Coordinates from ORCA-job Ph-N2-H-BF4-B3LYPG-6-31G_dp-scan-d09-49-n400
 OpenBabel08281821053D

 18 17  0  0  0  0  0  0  0  0999 V2000
   -1.1268    0.0676    0.5365 C   0  0  0  0  0  0  0  0  0  0  0  0
    0.2335    0.2501    0.3022 C   0  0  0  0  0  0  0  0  0  0  0  0
    0.5982    1.4577   -0.3143 C   0  0  0  0  0  0  0  0  0  0  0  0
   -0.3078    2.4650   -0.6935 C   0  0  0  0  0  0  0  0  0  0  0  0
   -1.6514    2.2441   -0.4317 C   0  0  0  0  0  0  0  0  0  0  0  0
   -2.0562    1.0489    0.1803 C   0  0  0  0  0  0  0  0  0  0  0  0
   -1.4593   -0.8496    1.0108 H   0  0  0  0  0  0  0  0  0  0  0  0
    1.0092   -0.4780    0.5738 H   0  0  0  0  0  0  0  0  0  0  0  0
    0.0426    3.3766   -1.1644 H   0  0  0  0  0  0  0  0  0  0  0  0
   -2.3825    2.9978   -0.7027 H   0  0  0  0  0  0  0  0  0  0  0  0
    1.9358    1.6767   -0.6040 N   0  0  0  0  0  0  0  0  0  0  0  0
    3.0002    1.8496   -0.8840 N   0  0  0  0  0  0  0  0  0  0  0  0
    3.4108   -0.1947    1.3928 B   0  0  0  0  0  0  0  0  0  0  0  0
    2.5372   -1.2198    0.9126 F   0  0  0  0  0  0  0  0  0  0  0  0
    4.2279    0.2168    0.3083 F   0  0  0  0  0  0  0  0  0  0  0  0
    2.5866    0.9111    1.7454 F   0  0  0  0  0  0  0  0  0  0  0  0
    4.1530   -0.6298    2.4561 F   0  0  0  0  0  0  0  0  0  0  0  0
   -3.1107    0.8860    0.3816 H   0  0  0  0  0  0  0  0  0  0  0  0
  1  7  1  0  0  0  0
  2  1  1  0  0  0  0
  2  8  1  0  0  0  0
  3  2  2  0  0  0  0
  4  5  2  0  0  0  0
  4  3  1  0  0  0  0
  5  6  1  0  0  0  0
  6 18  1  0  0  0  0
  6  1  2  0  0  0  0
  9  4  1  0  0  0  0
 10  5  1  0  0  0  0
 11  3  1  0  0  0  0
 12 11  1  0  0  0  0
 13 16  1  0  0  0  0
 13 17  1  0  0  0  0
 14 13  1  0  0  0  0
 15 13  1  0  0  0  0
M  RAD  2  11   2  12   3
M  END
