Coordinates from ORCA-job Ph-N2-H-BF4-B3LYPG-6-31G_dp-scan-d09-49-n400
 OpenBabel08281821063D

 18 17  0  0  0  0  0  0  0  0999 V2000
   -1.5623    0.8764    1.3689 C   0  0  0  0  0  0  0  0  0  0  0  0
   -0.2549    1.2353    1.6683 C   0  0  0  0  0  0  0  0  0  0  0  0
    0.5817    1.5712    0.5972 C   0  0  0  0  0  0  0  0  0  0  0  0
    0.1882    1.5473   -0.7455 C   0  0  0  0  0  0  0  0  0  0  0  0
   -1.1306    1.1943   -1.0068 C   0  0  0  0  0  0  0  0  0  0  0  0
   -1.9986    0.8634    0.0387 C   0  0  0  0  0  0  0  0  0  0  0  0
   -2.2374    0.5982    2.1706 H   0  0  0  0  0  0  0  0  0  0  0  0
    0.1291    1.2331    2.6804 H   0  0  0  0  0  0  0  0  0  0  0  0
    0.9145    1.7442   -1.5210 H   0  0  0  0  0  0  0  0  0  0  0  0
   -1.4753    1.1587   -2.0345 H   0  0  0  0  0  0  0  0  0  0  0  0
    1.8696    1.9862    0.9113 N   0  0  0  0  0  0  0  0  0  0  0  0
    2.8562    2.4051    1.2060 N   0  0  0  0  0  0  0  0  0  0  0  0
    3.3826   -0.2209   -0.0377 B   0  0  0  0  0  0  0  0  0  0  0  0
    2.7367    0.5654   -1.0489 F   0  0  0  0  0  0  0  0  0  0  0  0
    4.3870    0.5881    0.5337 F   0  0  0  0  0  0  0  0  0  0  0  0
    2.4005   -0.4610    0.9670 F   0  0  0  0  0  0  0  0  0  0  0  0
    3.8751   -1.3876   -0.5565 F   0  0  0  0  0  0  0  0  0  0  0  0
   -3.0215    0.5784   -0.1853 H   0  0  0  0  0  0  0  0  0  0  0  0
  1  2  1  0  0  0  0
  1  7  1  0  0  0  0
  2  8  1  0  0  0  0
  3 11  1  0  0  0  0
  3  2  2  0  0  0  0
  4  3  1  0  0  0  0
  5  4  2  0  0  0  0
  5  6  1  0  0  0  0
  6  1  2  0  0  0  0
  9  4  1  0  0  0  0
 10  5  1  0  0  0  0
 11 12  1  0  0  0  0
 13 15  1  0  0  0  0
 13 16  1  0  0  0  0
 14 13  1  0  0  0  0
 17 13  1  0  0  0  0
 18  6  1  0  0  0  0
M  RAD  2  11   2  12   3
M  END
