Coordinates from ORCA-job Ph-N2-H-BF4-B3LYPG-6-31G_dp-scan-d09-49-n400
 OpenBabel08281821053D

 18 17  0  0  0  0  0  0  0  0999 V2000
   -1.2671    0.1012    0.6147 C   0  0  0  0  0  0  0  0  0  0  0  0
    0.1050    0.2043    0.4098 C   0  0  0  0  0  0  0  0  0  0  0  0
    0.5608    1.3537   -0.2504 C   0  0  0  0  0  0  0  0  0  0  0  0
   -0.2850    2.3832   -0.7014 C   0  0  0  0  0  0  0  0  0  0  0  0
   -1.6462    2.2496   -0.4670 C   0  0  0  0  0  0  0  0  0  0  0  0
   -2.1337    1.1116    0.1882 C   0  0  0  0  0  0  0  0  0  0  0  0
   -1.6582   -0.7748    1.1208 H   0  0  0  0  0  0  0  0  0  0  0  0
    0.8067   -0.5477    0.7381 H   0  0  0  0  0  0  0  0  0  0  0  0
    0.1247    3.2517   -1.2049 H   0  0  0  0  0  0  0  0  0  0  0  0
   -2.3252    3.0293   -0.7943 H   0  0  0  0  0  0  0  0  0  0  0  0
    1.9138    1.5215   -0.5229 N   0  0  0  0  0  0  0  0  0  0  0  0
    2.9492    1.7529   -0.8632 N   0  0  0  0  0  0  0  0  0  0  0  0
    3.5652   -0.1416    1.2995 B   0  0  0  0  0  0  0  0  0  0  0  0
    3.0140   -1.0326    0.3470 F   0  0  0  0  0  0  0  0  0  0  0  0
    4.4583    0.7221    0.6169 F   0  0  0  0  0  0  0  0  0  0  0  0
    2.4849    0.6758    1.7709 F   0  0  0  0  0  0  0  0  0  0  0  0
    4.1732   -0.7992    2.3356 F   0  0  0  0  0  0  0  0  0  0  0  0
   -3.2000    1.0151    0.3684 H   0  0  0  0  0  0  0  0  0  0  0  0
  1  7  1  0  0  0  0
  2  1  1  0  0  0  0
  2  8  1  0  0  0  0
  3  2  2  0  0  0  0
  4  5  2  0  0  0  0
  4  3  1  0  0  0  0
  5  6  1  0  0  0  0
  6 18  1  0  0  0  0
  6  1  2  0  0  0  0
  9  4  1  0  0  0  0
 10  5  1  0  0  0  0
 11  3  1  0  0  0  0
 12 11  1  0  0  0  0
 13 16  1  0  0  0  0
 13 17  1  0  0  0  0
 14 13  1  0  0  0  0
 15 13  1  0  0  0  0
M  RAD  2  11   2  12   3
M  END
