Coordinates from ORCA-job Ph-N2-H-BF4-B3LYPG-6-31G_dp-scan-d09-49-n400
 OpenBabel08281821063D

 18 17  0  0  0  0  0  0  0  0999 V2000
   -1.3063    0.4537    1.0904 C   0  0  0  0  0  0  0  0  0  0  0  0
    0.0426    0.7731    1.2032 C   0  0  0  0  0  0  0  0  0  0  0  0
    0.5800    1.6001    0.2077 C   0  0  0  0  0  0  0  0  0  0  0  0
   -0.1592    2.1082   -0.8726 C   0  0  0  0  0  0  0  0  0  0  0  0
   -1.4994    1.7561   -0.9567 C   0  0  0  0  0  0  0  0  0  0  0  0
   -2.0698    0.9337    0.0220 C   0  0  0  0  0  0  0  0  0  0  0  0
   -1.7594   -0.1882    1.8385 H   0  0  0  0  0  0  0  0  0  0  0  0
    0.6807    0.3927    1.9910 H   0  0  0  0  0  0  0  0  0  0  0  0
    0.3139    2.7398   -1.6161 H   0  0  0  0  0  0  0  0  0  0  0  0
   -2.0970    2.1216   -1.7847 H   0  0  0  0  0  0  0  0  0  0  0  0
    1.9060    2.0112    0.2863 N   0  0  0  0  0  0  0  0  0  0  0  0
    2.9217    2.4647    0.3024 N   0  0  0  0  0  0  0  0  0  0  0  0
    3.4649   -0.3892    0.6654 B   0  0  0  0  0  0  0  0  0  0  0  0
    2.6175   -0.3285   -0.4726 F   0  0  0  0  0  0  0  0  0  0  0  0
    4.4556    0.6075    0.5138 F   0  0  0  0  0  0  0  0  0  0  0  0
    2.6684   -0.0050    1.7999 F   0  0  0  0  0  0  0  0  0  0  0  0
    3.9981   -1.6373    0.8413 F   0  0  0  0  0  0  0  0  0  0  0  0
   -3.1179    0.6617   -0.0533 H   0  0  0  0  0  0  0  0  0  0  0  0
  1  2  1  0  0  0  0
  1  7  1  0  0  0  0
  2  8  1  0  0  0  0
  3 11  1  0  0  0  0
  3  2  2  0  0  0  0
  4  3  1  0  0  0  0
  5  4  2  0  0  0  0
  5  6  1  0  0  0  0
  6  1  2  0  0  0  0
  9  4  1  0  0  0  0
 10  5  1  0  0  0  0
 11 12  1  0  0  0  0
 13 17  1  0  0  0  0
 13 16  1  0  0  0  0
 14 13  1  0  0  0  0
 15 13  1  0  0  0  0
 18  6  1  0  0  0  0
M  RAD  2  11   2  12   3
M  END
