Coordinates from ORCA-job Ph-N2-H-BF4-B3LYPG-6-31G_dp-scan-d09-49-n400
 OpenBabel08281821053D

 18 17  0  0  0  0  0  0  0  0999 V2000
   -1.2226    0.3288    0.9448 C   0  0  0  0  0  0  0  0  0  0  0  0
    0.1347    0.6326    0.9717 C   0  0  0  0  0  0  0  0  0  0  0  0
    0.5806    1.5946    0.0546 C   0  0  0  0  0  0  0  0  0  0  0  0
   -0.2544    2.2542   -0.8643 C   0  0  0  0  0  0  0  0  0  0  0  0
   -1.5999    1.9152   -0.8653 C   0  0  0  0  0  0  0  0  0  0  0  0
   -2.0795    0.9552    0.0352 C   0  0  0  0  0  0  0  0  0  0  0  0
   -1.6098   -0.4135    1.6347 H   0  0  0  0  0  0  0  0  0  0  0  0
    0.8497    0.1759    1.6486 H   0  0  0  0  0  0  0  0  0  0  0  0
    0.1507    2.9905   -1.5498 H   0  0  0  0  0  0  0  0  0  0  0  0
   -2.2731    2.3967   -1.5662 H   0  0  0  0  0  0  0  0  0  0  0  0
    1.9195    1.9627    0.0384 N   0  0  0  0  0  0  0  0  0  0  0  0
    2.9582    2.3578   -0.0324 N   0  0  0  0  0  0  0  0  0  0  0  0
    3.4700   -0.3914    0.9116 B   0  0  0  0  0  0  0  0  0  0  0  0
    2.5258   -0.5314   -0.1442 F   0  0  0  0  0  0  0  0  0  0  0  0
    4.4329    0.5563    0.4952 F   0  0  0  0  0  0  0  0  0  0  0  0
    2.7606    0.1891    2.0141 F   0  0  0  0  0  0  0  0  0  0  0  0
    4.0303   -1.5911    1.2556 F   0  0  0  0  0  0  0  0  0  0  0  0
   -3.1332    0.6937    0.0237 H   0  0  0  0  0  0  0  0  0  0  0  0
  1  2  1  0  0  0  0
  1  7  1  0  0  0  0
  2  8  1  0  0  0  0
  3  2  2  0  0  0  0
  4  3  1  0  0  0  0
  5  4  2  0  0  0  0
  5  6  1  0  0  0  0
  6  1  2  0  0  0  0
  9  4  1  0  0  0  0
 10  5  1  0  0  0  0
 11  3  1  0  0  0  0
 12 11  1  0  0  0  0
 13 17  1  0  0  0  0
 13 16  1  0  0  0  0
 14 13  1  0  0  0  0
 15 13  1  0  0  0  0
 18  6  1  0  0  0  0
M  RAD  2  11   2  12   3
M  END
