Coordinates from ORCA-job p-NO2-Ph-N2-OTs-B3LYPG-6-31G_dp-scan-d09-49-n400
 OpenBabel08281821283D

 33 33  0  0  0  0  0  0  0  0999 V2000
   -1.1992    0.3685   -1.7095 C   0  0  0  0  0  0  0  0  0  0  0  0
   -0.4346    1.4080   -1.1980 C   0  0  0  0  0  0  0  0  0  0  0  0
    0.7353    1.8284   -1.8557 C   0  0  0  0  0  0  0  0  0  0  0  0
    1.1301    1.2109   -3.0584 C   0  0  0  0  0  0  0  0  0  0  0  0
    0.3568    0.1783   -3.5801 C   0  0  0  0  0  0  0  0  0  0  0  0
   -0.7870   -0.2306   -2.8979 C   0  0  0  0  0  0  0  0  0  0  0  0
   -2.0991    0.0222   -1.2184 H   0  0  0  0  0  0  0  0  0  0  0  0
   -0.7197    1.9155   -0.2835 H   0  0  0  0  0  0  0  0  0  0  0  0
    2.0194    1.5336   -3.5775 H   0  0  0  0  0  0  0  0  0  0  0  0
    0.6289   -0.3155   -4.5043 H   0  0  0  0  0  0  0  0  0  0  0  0
   -1.5907   -1.3350   -3.4548 N   0  0  0  0  0  0  0  0  0  0  0  0
   -1.2017   -1.8488   -4.5018 O   0  0  0  0  0  0  0  0  0  0  0  0
   -2.5974   -1.6712   -2.8344 O   0  0  0  0  0  0  0  0  0  0  0  0
    1.3729    2.9122   -1.1920 N   0  0  0  0  0  0  0  0  0  0  0  0
    2.4766    3.3814   -1.4239 N   0  0  0  0  0  0  0  0  0  0  0  0
    6.0332    1.3620   -2.5890 C   0  0  0  0  0  0  0  0  0  0  0  0
    6.7345    0.3401   -3.2221 C   0  0  0  0  0  0  0  0  0  0  0  0
    7.0606    0.4228   -4.5861 C   0  0  0  0  0  0  0  0  0  0  0  0
    6.6674    1.5628   -5.3016 C   0  0  0  0  0  0  0  0  0  0  0  0
    5.9635    2.5954   -4.6833 C   0  0  0  0  0  0  0  0  0  0  0  0
    5.6431    2.4804   -3.3319 C   0  0  0  0  0  0  0  0  0  0  0  0
    5.7886    1.2866   -1.5327 H   0  0  0  0  0  0  0  0  0  0  0  0
    7.0395   -0.5329   -2.6511 H   0  0  0  0  0  0  0  0  0  0  0  0
    6.9230    1.6460   -6.3545 H   0  0  0  0  0  0  0  0  0  0  0  0
    5.6678    3.4875   -5.2266 H   0  0  0  0  0  0  0  0  0  0  0  0
    4.8303    3.8569   -2.4858 S   0  0  2  0  0  0  0  0  0  0  0  0
    3.5959    5.2891   -0.3612 O   0  0  0  0  0  0  0  0  0  0  0  0
    3.2822    2.8504   -2.3987 O   0  0  0  0  0  0  0  0  0  0  0  0
    4.6480    4.9079   -3.5090 O   0  0  0  0  0  0  0  0  0  0  0  0
    7.8090   -0.6995   -5.2631 C   0  0  0  0  0  0  0  0  0  0  0  0
    8.6252   -1.0708   -4.6354 H   0  0  0  0  0  0  0  0  0  0  0  0
    7.1435   -1.5479   -5.4634 H   0  0  0  0  0  0  0  0  0  0  0  0
    8.2322   -0.3799   -6.2184 H   0  0  0  0  0  0  0  0  0  0  0  0
  1  7  1  0  0  0  0
  1  2  1  0  0  0  0
  2  8  1  0  0  0  0
  3  2  2  0  0  0  0
  3 14  1  0  0  0  0
  4  3  1  0  0  0  0
  5  4  2  0  0  0  0
  5  6  1  0  0  0  0
  6  1  2  0  0  0  0
  9  4  1  0  0  0  0
 10  5  1  0  0  0  0
 11  6  1  0  0  0  0
 11 13  2  0  0  0  0
 12 11  2  0  0  0  0
 15 14  2  0  0  0  0
 16 22  1  0  0  0  0
 17 23  1  0  0  0  0
 17 16  1  0  0  0  0
 18 17  2  0  0  0  0
 19 20  2  0  0  0  0
 19 18  1  0  0  0  0
 20 21  1  0  0  0  0
 21 16  2  0  0  0  0
 21 26  1  0  0  0  0
 24 19  1  0  0  0  0
 25 20  1  0  0  0  0
 26 29  1  6  0  0  0
 26 28  1  0  0  0  0
 28 15  1  0  0  0  0
 30 31  1  0  0  0  0
 30 18  1  0  0  0  0
 32 30  1  0  0  0  0
 33 30  1  0  0  0  0
M  RAD  2  27   3  29   2
M  END
