Coordinates from ORCA-job p-NO2-Ph-N2-OTs-B3LYPG-6-31G_dp-scan-d09-49-n400
 OpenBabel08281821283D

 33 34  0  0  0  0  0  0  0  0999 V2000
   -0.7236    0.1666   -1.6447 C   0  0  0  0  0  0  0  0  0  0  0  0
   -0.1188    1.3047   -1.1311 C   0  0  0  0  0  0  0  0  0  0  0  0
    0.8025    2.0418   -1.9004 C   0  0  0  0  0  0  0  0  0  0  0  0
    1.0745    1.6441   -3.2247 C   0  0  0  0  0  0  0  0  0  0  0  0
    0.4555    0.5155   -3.7479 C   0  0  0  0  0  0  0  0  0  0  0  0
   -0.4249   -0.2159   -2.9518 C   0  0  0  0  0  0  0  0  0  0  0  0
   -1.4221   -0.4200   -1.0615 H   0  0  0  0  0  0  0  0  0  0  0  0
   -0.3406    1.6462   -0.1265 H   0  0  0  0  0  0  0  0  0  0  0  0
    1.7555    2.2155   -3.8393 H   0  0  0  0  0  0  0  0  0  0  0  0
    0.6454    0.1917   -4.7633 H   0  0  0  0  0  0  0  0  0  0  0  0
   -1.0615   -1.4165   -3.5086 N   0  0  0  0  0  0  0  0  0  0  0  0
   -0.7757   -1.7311   -4.6640 O   0  0  0  0  0  0  0  0  0  0  0  0
   -1.8407   -2.0362   -2.7846 O   0  0  0  0  0  0  0  0  0  0  0  0
    1.2708    3.1996   -1.2525 N   0  0  0  0  0  0  0  0  0  0  0  0
    2.3972    3.7078   -1.4800 N   0  0  0  0  0  0  0  0  0  0  0  0
    5.8437    1.3208   -2.5108 C   0  0  0  0  0  0  0  0  0  0  0  0
    6.4466    0.2396   -3.1471 C   0  0  0  0  0  0  0  0  0  0  0  0
    6.8062    0.3057   -4.5033 C   0  0  0  0  0  0  0  0  0  0  0  0
    6.5499    1.4907   -5.2081 C   0  0  0  0  0  0  0  0  0  0  0  0
    5.9452    2.5827   -4.5878 C   0  0  0  0  0  0  0  0  0  0  0  0
    5.5893    2.4833   -3.2439 C   0  0  0  0  0  0  0  0  0  0  0  0
    5.5687    1.2554   -1.4616 H   0  0  0  0  0  0  0  0  0  0  0  0
    6.6452   -0.6688   -2.5845 H   0  0  0  0  0  0  0  0  0  0  0  0
    6.8336    1.5611   -6.2546 H   0  0  0  0  0  0  0  0  0  0  0  0
    5.7538    3.5077   -5.1230 H   0  0  0  0  0  0  0  0  0  0  0  0
    4.9015    3.9272   -2.4047 S   0  0  2  0  0  0  0  0  0  0  0  0
    2.8322    4.7889   -0.9245 O   0  0  0  0  0  0  0  0  0  0  0  0
    3.2826    3.0697   -2.3681 O   0  0  0  0  0  0  0  0  0  0  0  0
    4.8492    5.0082   -3.4139 O   0  0  0  0  0  0  0  0  0  0  0  0
    7.4399   -0.8810   -5.1873 C   0  0  0  0  0  0  0  0  0  0  0  0
    8.1294   -1.4063   -4.5194 H   0  0  0  0  0  0  0  0  0  0  0  0
    6.6759   -1.6037   -5.4990 H   0  0  0  0  0  0  0  0  0  0  0  0
    7.9918   -0.5806   -6.0817 H   0  0  0  0  0  0  0  0  0  0  0  0
  1  2  1  0  0  0  0
  1  7  1  0  0  0  0
  2  8  1  0  0  0  0
  3 14  1  0  0  0  0
  3  2  2  0  0  0  0
  4  3  1  0  0  0  0
  5  4  2  0  0  0  0
  5  6  1  0  0  0  0
  6  1  2  0  0  0  0
  9  4  1  0  0  0  0
 10  5  1  0  0  0  0
 11  6  1  0  0  0  0
 11 13  2  0  0  0  0
 12 11  2  0  0  0  0
 15 14  1  0  0  0  0
 15 27  1  0  0  0  0
 16 22  1  0  0  0  0
 17 23  1  0  0  0  0
 17 16  1  0  0  0  0
 18 17  2  0  0  0  0
 19 20  2  0  0  0  0
 19 18  1  0  0  0  0
 20 21  1  0  0  0  0
 21 16  2  0  0  0  0
 21 26  1  0  0  0  0
 24 19  1  0  0  0  0
 25 20  1  0  0  0  0
 26 29  1  6  0  0  0
 26 28  1  0  0  0  0
 28 15  1  0  0  0  0
 30 31  1  0  0  0  0
 30 18  1  0  0  0  0
 32 30  1  0  0  0  0
 33 30  1  0  0  0  0
M  RAD  3  14   2  27   2  29   2
M  END
