Coordinates from ORCA-job p-NO2-Ph-N2-OTs-B3LYPG-6-31G_dp-scan-d09-49-n400
 OpenBabel08281821283D

 33 34  0  0  0  0  0  0  0  0999 V2000
   -1.3409   -0.0704   -1.5627 C   0  0  0  0  0  0  0  0  0  0  0  0
   -0.0135    0.0970   -1.1909 C   0  0  0  0  0  0  0  0  0  0  0  0
    0.8910    0.7482   -2.0481 C   0  0  0  0  0  0  0  0  0  0  0  0
    0.4699    1.2108   -3.3103 C   0  0  0  0  0  0  0  0  0  0  0  0
   -0.8558    1.0251   -3.6905 C   0  0  0  0  0  0  0  0  0  0  0  0
   -1.7378    0.3975   -2.8134 C   0  0  0  0  0  0  0  0  0  0  0  0
   -2.0607   -0.5565   -0.9169 H   0  0  0  0  0  0  0  0  0  0  0  0
    0.3483   -0.2640   -0.2352 H   0  0  0  0  0  0  0  0  0  0  0  0
    1.1631    1.7021   -3.9752 H   0  0  0  0  0  0  0  0  0  0  0  0
   -1.2155    1.3659   -4.6528 H   0  0  0  0  0  0  0  0  0  0  0  0
   -3.1435    0.2143   -3.2273 N   0  0  0  0  0  0  0  0  0  0  0  0
   -3.4638    0.6246   -4.3404 O   0  0  0  0  0  0  0  0  0  0  0  0
   -3.8988   -0.3413   -2.4326 O   0  0  0  0  0  0  0  0  0  0  0  0
    2.2009    0.8186   -1.5113 N   0  0  0  0  0  0  0  0  0  0  0  0
    3.1781    1.4635   -1.8042 N   0  0  0  0  0  0  0  0  0  0  0  0
    6.4358    1.9543   -2.5361 C   0  0  0  0  0  0  0  0  0  0  0  0
    7.5196    1.1339   -2.8401 C   0  0  0  0  0  0  0  0  0  0  0  0
    7.7977    0.7568   -4.1624 C   0  0  0  0  0  0  0  0  0  0  0  0
    6.9632    1.2330   -5.1845 C   0  0  0  0  0  0  0  0  0  0  0  0
    5.8735    2.0535   -4.9025 C   0  0  0  0  0  0  0  0  0  0  0  0
    5.6180    2.4026   -3.5751 C   0  0  0  0  0  0  0  0  0  0  0  0
    6.2294    2.2566   -1.5159 H   0  0  0  0  0  0  0  0  0  0  0  0
    8.1646    0.7861   -2.0379 H   0  0  0  0  0  0  0  0  0  0  0  0
    7.1740    0.9637   -6.2158 H   0  0  0  0  0  0  0  0  0  0  0  0
    5.2399    2.4365   -5.6946 H   0  0  0  0  0  0  0  0  0  0  0  0
    4.2305    3.4588   -3.2077 S   0  0  0  0  0  0  0  0  0  0  0  0
    4.4594    4.1234   -1.9310 O   0  0  0  0  0  0  0  0  0  0  0  0
    2.9652    2.3872   -3.0337 O   0  0  0  0  0  0  0  0  0  0  0  0
    3.8499    4.1934   -4.4085 O   0  0  0  0  0  0  0  0  0  0  0  0
    8.9585   -0.1551   -4.4759 C   0  0  0  0  0  0  0  0  0  0  0  0
    9.7893   -0.0005   -3.7810 H   0  0  0  0  0  0  0  0  0  0  0  0
    8.6597   -1.2081   -4.3972 H   0  0  0  0  0  0  0  0  0  0  0  0
    9.3291    0.0031   -5.4926 H   0  0  0  0  0  0  0  0  0  0  0  0
  1  2  1  0  0  0  0
  1  7  1  0  0  0  0
  2  8  1  0  0  0  0
  3 14  1  0  0  0  0
  3  2  2  0  0  0  0
  4  3  1  0  0  0  0
  5  4  2  0  0  0  0
  5  6  1  0  0  0  0
  6  1  2  0  0  0  0
  9  4  1  0  0  0  0
 10  5  1  0  0  0  0
 11  6  1  0  0  0  0
 11 13  2  0  0  0  0
 12 11  2  0  0  0  0
 15 14  1  0  0  0  0
 16 22  1  0  0  0  0
 17 16  1  0  0  0  0
 17 23  1  0  0  0  0
 18 17  2  0  0  0  0
 19 20  2  0  0  0  0
 19 18  1  0  0  0  0
 20 21  1  0  0  0  0
 21 26  1  0  0  0  0
 21 16  2  0  0  0  0
 24 19  1  0  0  0  0
 25 20  1  0  0  0  0
 26 28  1  0  0  0  0
 26 27  2  0  0  0  0
 28 15  1  0  0  0  0
 29 26  2  0  0  0  0
 30 32  1  0  0  0  0
 30 18  1  0  0  0  0
 30 31  1  0  0  0  0
 33 30  1  0  0  0  0
M  RAD  2  14   2  15   2
M  END
