Coordinates from ORCA-job p-NO2-Ph-N2-OTs-B3LYPG-6-31G_dp-scan-d09-49-n400
 OpenBabel08281821283D

 33 34  0  0  0  0  0  0  0  0999 V2000
   -0.9029   -0.6333   -2.4048 C   0  0  0  0  0  0  0  0  0  0  0  0
    0.1616   -0.6180   -3.2970 C   0  0  0  0  0  0  0  0  0  0  0  0
    0.7047    0.6016   -3.7300 C   0  0  0  0  0  0  0  0  0  0  0  0
    0.1427    1.8211   -3.3137 C   0  0  0  0  0  0  0  0  0  0  0  0
   -0.9446    1.8071   -2.4469 C   0  0  0  0  0  0  0  0  0  0  0  0
   -1.4405    0.5851   -1.9959 C   0  0  0  0  0  0  0  0  0  0  0  0
   -1.3303   -1.5576   -2.0386 H   0  0  0  0  0  0  0  0  0  0  0  0
    0.5916   -1.5415   -3.6680 H   0  0  0  0  0  0  0  0  0  0  0  0
    0.5470    2.7599   -3.6633 H   0  0  0  0  0  0  0  0  0  0  0  0
   -1.4049    2.7261   -2.1073 H   0  0  0  0  0  0  0  0  0  0  0  0
   -2.5807    0.5806   -1.0611 N   0  0  0  0  0  0  0  0  0  0  0  0
   -3.0408    1.6686   -0.7213 O   0  0  0  0  0  0  0  0  0  0  0  0
   -2.9975   -0.5121   -0.6810 O   0  0  0  0  0  0  0  0  0  0  0  0
    1.7556    0.4605   -4.6784 N   0  0  0  0  0  0  0  0  0  0  0  0
    2.7163    1.1799   -4.8749 N   0  0  0  0  0  0  0  0  0  0  0  0
    6.0270    2.3135   -2.6827 C   0  0  0  0  0  0  0  0  0  0  0  0
    7.1427    1.5289   -2.4036 C   0  0  0  0  0  0  0  0  0  0  0  0
    7.7467    0.7447   -3.3984 C   0  0  0  0  0  0  0  0  0  0  0  0
    7.2074    0.7713   -4.6931 C   0  0  0  0  0  0  0  0  0  0  0  0
    6.0924    1.5494   -4.9953 C   0  0  0  0  0  0  0  0  0  0  0  0
    5.5109    2.3119   -3.9807 C   0  0  0  0  0  0  0  0  0  0  0  0
    5.5711    2.9324   -1.9179 H   0  0  0  0  0  0  0  0  0  0  0  0
    7.5575    1.5323   -1.3994 H   0  0  0  0  0  0  0  0  0  0  0  0
    7.6717    0.1813   -5.4784 H   0  0  0  0  0  0  0  0  0  0  0  0
    5.6834    1.5801   -5.9986 H   0  0  0  0  0  0  0  0  0  0  0  0
    4.0950    3.3248   -4.3490 S   0  0  0  0  0  0  0  0  0  0  0  0
    3.9690    4.3805   -3.3573 O   0  0  0  0  0  0  0  0  0  0  0  0
    2.7973    2.3395   -3.9361 O   0  0  0  0  0  0  0  0  0  0  0  0
    4.0407    3.5809   -5.7811 O   0  0  0  0  0  0  0  0  0  0  0  0
    8.9405   -0.1210   -3.0776 C   0  0  0  0  0  0  0  0  0  0  0  0
    9.5543    0.3208   -2.2874 H   0  0  0  0  0  0  0  0  0  0  0  0
    8.6215   -1.1105   -2.7280 H   0  0  0  0  0  0  0  0  0  0  0  0
    9.5716   -0.2743   -3.9575 H   0  0  0  0  0  0  0  0  0  0  0  0
  1  7  1  0  0  0  0
  1  6  1  0  0  0  0
  2  1  2  0  0  0  0
  3  4  2  0  0  0  0
  3  2  1  0  0  0  0
  4  5  1  0  0  0  0
  5 10  1  0  0  0  0
  5  6  2  0  0  0  0
  6 11  1  0  0  0  0
  8  2  1  0  0  0  0
  9  4  1  0  0  0  0
 11 12  2  0  0  0  0
 11 13  2  0  0  0  0
 14  3  1  0  0  0  0
 15 14  1  0  0  0  0
 15 28  1  0  0  0  0
 16 17  1  0  0  0  0
 16 22  1  0  0  0  0
 17 23  1  0  0  0  0
 18 30  1  0  0  0  0
 18 17  2  0  0  0  0
 19 18  1  0  0  0  0
 20 19  2  0  0  0  0
 20 21  1  0  0  0  0
 21 16  2  0  0  0  0
 24 19  1  0  0  0  0
 25 20  1  0  0  0  0
 26 21  1  0  0  0  0
 26 28  1  0  0  0  0
 26 27  2  0  0  0  0
 29 26  2  0  0  0  0
 30 32  1  0  0  0  0
 30 31  1  0  0  0  0
 33 30  1  0  0  0  0
M  RAD  2  14   2  15   2
M  END
