Coordinates from ORCA-job p-NO2-Ph-N2-OTs-B3LYPG-6-31G_dp-scan-d09-49-n400
 OpenBabel08281821283D

 33 34  0  0  0  0  0  0  0  0999 V2000
   -1.2132    0.4658   -1.7538 C   0  0  0  0  0  0  0  0  0  0  0  0
   -0.4886    1.5543   -1.2928 C   0  0  0  0  0  0  0  0  0  0  0  0
    0.7330    1.9180   -1.8956 C   0  0  0  0  0  0  0  0  0  0  0  0
    1.2133    1.1792   -2.9973 C   0  0  0  0  0  0  0  0  0  0  0  0
    0.4809    0.0950   -3.4676 C   0  0  0  0  0  0  0  0  0  0  0  0
   -0.7137   -0.2518   -2.8399 C   0  0  0  0  0  0  0  0  0  0  0  0
   -2.1487    0.1672   -1.2993 H   0  0  0  0  0  0  0  0  0  0  0  0
   -0.8427    2.1476   -0.4573 H   0  0  0  0  0  0  0  0  0  0  0  0
    2.1383    1.4507   -3.4820 H   0  0  0  0  0  0  0  0  0  0  0  0
    0.8230   -0.4871   -4.3142 H   0  0  0  0  0  0  0  0  0  0  0  0
   -1.4722   -1.4088   -3.3407 N   0  0  0  0  0  0  0  0  0  0  0  0
   -1.0071   -2.0233   -4.2998 O   0  0  0  0  0  0  0  0  0  0  0  0
   -2.5268   -1.6860   -2.7711 O   0  0  0  0  0  0  0  0  0  0  0  0
    1.3064    3.0549   -1.2952 N   0  0  0  0  0  0  0  0  0  0  0  0
    2.4487    3.4708   -1.5278 N   0  0  0  0  0  0  0  0  0  0  0  0
    6.0241    1.3067   -2.5758 C   0  0  0  0  0  0  0  0  0  0  0  0
    6.6695    0.2865   -3.2686 C   0  0  0  0  0  0  0  0  0  0  0  0
    7.0078    0.4342   -4.6237 C   0  0  0  0  0  0  0  0  0  0  0  0
    6.6854    1.6376   -5.2687 C   0  0  0  0  0  0  0  0  0  0  0  0
    6.0373    2.6681   -4.5904 C   0  0  0  0  0  0  0  0  0  0  0  0
    5.7048    2.4908   -3.2477 C   0  0  0  0  0  0  0  0  0  0  0  0
    5.7695    1.1800   -1.5267 H   0  0  0  0  0  0  0  0  0  0  0  0
    6.9203   -0.6364   -2.7522 H   0  0  0  0  0  0  0  0  0  0  0  0
    6.9519    1.7704   -6.3137 H   0  0  0  0  0  0  0  0  0  0  0  0
    5.7953    3.6066   -5.0791 H   0  0  0  0  0  0  0  0  0  0  0  0
    4.9636    3.8475   -2.3091 S   0  0  2  0  0  0  0  0  0  0  0  0
    3.0193    4.7441   -0.8264 O   0  0  0  0  0  0  0  0  0  0  0  0
    3.3229    2.8934   -2.3734 O   0  0  0  0  0  0  0  0  0  0  0  0
    4.8974    4.9821   -3.2521 O   0  0  0  0  0  0  0  0  0  0  0  0
    7.6903   -0.6864   -5.3692 C   0  0  0  0  0  0  0  0  0  0  0  0
    8.4414   -1.1817   -4.7463 H   0  0  0  0  0  0  0  0  0  0  0  0
    6.9646   -1.4514   -5.6715 H   0  0  0  0  0  0  0  0  0  0  0  0
    8.1823   -0.3241   -6.2753 H   0  0  0  0  0  0  0  0  0  0  0  0
  1  7  1  0  0  0  0
  1  2  1  0  0  0  0
  2  8  1  0  0  0  0
  3 14  1  0  0  0  0
  3  2  2  0  0  0  0
  4  3  1  0  0  0  0
  5  4  2  0  0  0  0
  5  6  1  0  0  0  0
  6  1  2  0  0  0  0
  9  4  1  0  0  0  0
 10  5  1  0  0  0  0
 11  6  1  0  0  0  0
 11 13  2  0  0  0  0
 12 11  2  0  0  0  0
 15 14  1  0  0  0  0
 15 27  1  0  0  0  0
 16 22  1  0  0  0  0
 17 23  1  0  0  0  0
 17 16  2  0  0  0  0
 18 17  1  0  0  0  0
 19 18  2  0  0  0  0
 19 20  1  0  0  0  0
 20 21  2  0  0  0  0
 21 16  1  0  0  0  0
 21 26  1  0  0  0  0
 24 19  1  0  0  0  0
 25 20  1  0  0  0  0
 26 29  1  6  0  0  0
 28 26  1  0  0  0  0
 28 15  1  0  0  0  0
 30 31  1  0  0  0  0
 30 18  1  0  0  0  0
 32 30  1  0  0  0  0
 33 30  1  0  0  0  0
M  RAD  3  14   2  27   2  29   2
M  END
