Coordinates from ORCA-job p-NO2-Ph-N2-OTs-B3LYPG-6-31G_dp-scan-d09-49-n400
 OpenBabel08281821283D

 33 34  0  0  0  0  0  0  0  0999 V2000
   -1.2766    0.5013   -1.7745 C   0  0  0  0  0  0  0  0  0  0  0  0
   -0.5334    1.5799   -1.3188 C   0  0  0  0  0  0  0  0  0  0  0  0
    0.7133    1.8913   -1.8964 C   0  0  0  0  0  0  0  0  0  0  0  0
    1.2061    1.1114   -2.9625 C   0  0  0  0  0  0  0  0  0  0  0  0
    0.4563    0.0362   -3.4268 C   0  0  0  0  0  0  0  0  0  0  0  0
   -0.7663   -0.2576   -2.8266 C   0  0  0  0  0  0  0  0  0  0  0  0
   -2.2332    0.2410   -1.3409 H   0  0  0  0  0  0  0  0  0  0  0  0
   -0.8923    2.2044   -0.5083 H   0  0  0  0  0  0  0  0  0  0  0  0
    2.1540    1.3436   -3.4233 H   0  0  0  0  0  0  0  0  0  0  0  0
    0.8058   -0.5791   -4.2467 H   0  0  0  0  0  0  0  0  0  0  0  0
   -1.5448   -1.4053   -3.3215 N   0  0  0  0  0  0  0  0  0  0  0  0
   -1.0684   -2.0590   -4.2482 O   0  0  0  0  0  0  0  0  0  0  0  0
   -2.6225   -1.6373   -2.7761 O   0  0  0  0  0  0  0  0  0  0  0  0
    1.3114    3.0251   -1.3057 N   0  0  0  0  0  0  0  0  0  0  0  0
    2.4536    3.4174   -1.5436 N   0  0  0  0  0  0  0  0  0  0  0  0
    6.0577    1.3106   -2.5844 C   0  0  0  0  0  0  0  0  0  0  0  0
    6.7113    0.2990   -3.2822 C   0  0  0  0  0  0  0  0  0  0  0  0
    7.0441    0.4548   -4.6377 C   0  0  0  0  0  0  0  0  0  0  0  0
    6.7079    1.6574   -5.2775 C   0  0  0  0  0  0  0  0  0  0  0  0
    6.0515    2.6787   -4.5938 C   0  0  0  0  0  0  0  0  0  0  0  0
    5.7248    2.4946   -3.2503 C   0  0  0  0  0  0  0  0  0  0  0  0
    5.8080    1.1780   -1.5347 H   0  0  0  0  0  0  0  0  0  0  0  0
    6.9730   -0.6231   -2.7698 H   0  0  0  0  0  0  0  0  0  0  0  0
    6.9701    1.7963   -6.3228 H   0  0  0  0  0  0  0  0  0  0  0  0
    5.7987    3.6163   -5.0789 H   0  0  0  0  0  0  0  0  0  0  0  0
    4.9740    3.8371   -2.2971 S   0  0  2  0  0  0  0  0  0  0  0  0
    3.1066    4.7984   -0.7930 O   0  0  0  0  0  0  0  0  0  0  0  0
    3.3225    2.8462   -2.3763 O   0  0  0  0  0  0  0  0  0  0  0  0
    4.9013    4.9739   -3.2365 O   0  0  0  0  0  0  0  0  0  0  0  0
    7.7349   -0.6565   -5.3895 C   0  0  0  0  0  0  0  0  0  0  0  0
    8.4865   -1.1527   -4.7680 H   0  0  0  0  0  0  0  0  0  0  0  0
    7.0143   -1.4228   -5.7003 H   0  0  0  0  0  0  0  0  0  0  0  0
    8.2280   -0.2847   -6.2912 H   0  0  0  0  0  0  0  0  0  0  0  0
  1  7  1  0  0  0  0
  1  2  1  0  0  0  0
  2  8  1  0  0  0  0
  3  2  2  0  0  0  0
  3 14  1  0  0  0  0
  4  3  1  0  0  0  0
  5  4  2  0  0  0  0
  5  6  1  0  0  0  0
  6  1  2  0  0  0  0
  9  4  1  0  0  0  0
 10  5  1  0  0  0  0
 11  6  1  0  0  0  0
 11 13  2  0  0  0  0
 12 11  2  0  0  0  0
 15 14  1  0  0  0  0
 15 27  1  0  0  0  0
 16 22  1  0  0  0  0
 17 23  1  0  0  0  0
 17 16  2  0  0  0  0
 18 17  1  0  0  0  0
 19 18  2  0  0  0  0
 19 20  1  0  0  0  0
 20 21  2  0  0  0  0
 21 16  1  0  0  0  0
 24 19  1  0  0  0  0
 25 20  1  0  0  0  0
 26 21  1  6  0  0  0
 28 26  1  0  0  0  0
 28 15  1  0  0  0  0
 29 26  1  0  0  0  0
 30 31  1  0  0  0  0
 30 18  1  0  0  0  0
 32 30  1  0  0  0  0
 33 30  1  0  0  0  0
M  RAD  3  14   2  27   2  29   2
M  END
