Coordinates from ORCA-job p-NO2-Ph-N2-OTs-B3LYPG-6-31G_dp-scan-d09-49-n400
 OpenBabel08281821283D

 33 33  0  0  0  0  0  0  0  0999 V2000
   -1.8630    0.4680   -1.3645 C   0  0  0  0  0  0  0  0  0  0  0  0
   -0.5622    0.2541   -0.9270 C   0  0  0  0  0  0  0  0  0  0  0  0
    0.5000    0.4872   -1.8111 C   0  0  0  0  0  0  0  0  0  0  0  0
    0.3047    0.9404   -3.1257 C   0  0  0  0  0  0  0  0  0  0  0  0
   -1.0020    1.1596   -3.5504 C   0  0  0  0  0  0  0  0  0  0  0  0
   -2.0547    0.9174   -2.6696 C   0  0  0  0  0  0  0  0  0  0  0  0
   -2.7183    0.2995   -0.7235 H   0  0  0  0  0  0  0  0  0  0  0  0
   -0.3568   -0.0882    0.0806 H   0  0  0  0  0  0  0  0  0  0  0  0
    1.1549    1.1106   -3.7740 H   0  0  0  0  0  0  0  0  0  0  0  0
   -1.2124    1.5139   -4.5515 H   0  0  0  0  0  0  0  0  0  0  0  0
   -3.4406    1.1474   -3.1383 N   0  0  0  0  0  0  0  0  0  0  0  0
   -3.5868    1.5356   -4.2930 O   0  0  0  0  0  0  0  0  0  0  0  0
   -4.3467    0.9315   -2.3375 O   0  0  0  0  0  0  0  0  0  0  0  0
    1.7886    0.2589   -1.2910 N   0  0  0  0  0  0  0  0  0  0  0  0
    2.9203    0.2463   -1.5211 N   0  0  0  0  0  0  0  0  0  0  0  0
    6.5202    1.5853   -2.6946 C   0  0  0  0  0  0  0  0  0  0  0  0
    7.8651    1.3272   -2.9595 C   0  0  0  0  0  0  0  0  0  0  0  0
    8.3338    1.1991   -4.2732 C   0  0  0  0  0  0  0  0  0  0  0  0
    7.4175    1.3466   -5.3262 C   0  0  0  0  0  0  0  0  0  0  0  0
    6.0720    1.6048   -5.0799 C   0  0  0  0  0  0  0  0  0  0  0  0
    5.6306    1.7176   -3.7596 C   0  0  0  0  0  0  0  0  0  0  0  0
    6.1625    1.7026   -1.6774 H   0  0  0  0  0  0  0  0  0  0  0  0
    8.5623    1.2292   -2.1316 H   0  0  0  0  0  0  0  0  0  0  0  0
    7.7649    1.2632   -6.3531 H   0  0  0  0  0  0  0  0  0  0  0  0
    5.3685    1.7367   -5.8946 H   0  0  0  0  0  0  0  0  0  0  0  0
    3.8965    2.0130   -3.4307 S   0  0  0  0  0  0  0  0  0  0  0  0
    3.7799    2.6161   -2.0895 O   0  0  0  0  0  0  0  0  0  0  0  0
    3.2520    0.5788   -3.3773 O   0  0  0  0  0  0  0  0  0  0  0  0
    3.3312    2.7232   -4.5862 O   0  0  0  0  0  0  0  0  0  0  0  0
    9.7878    0.9073   -4.5580 C   0  0  0  0  0  0  0  0  0  0  0  0
   10.3928    0.9594   -3.6490 H   0  0  0  0  0  0  0  0  0  0  0  0
    9.9132   -0.0953   -4.9844 H   0  0  0  0  0  0  0  0  0  0  0  0
   10.2024    1.6177   -5.2816 H   0  0  0  0  0  0  0  0  0  0  0  0
  1  2  1  0  0  0  0
  1  7  1  0  0  0  0
  2  8  1  0  0  0  0
  3 14  1  0  0  0  0
  3  2  2  0  0  0  0
  4  3  1  0  0  0  0
  5  4  2  0  0  0  0
  5  6  1  0  0  0  0
  6  1  2  0  0  0  0
  9  4  1  0  0  0  0
 10  5  1  0  0  0  0
 11  6  1  0  0  0  0
 11 13  2  0  0  0  0
 12 11  2  0  0  0  0
 15 14  2  0  0  0  0
 16 22  1  0  0  0  0
 17 16  1  0  0  0  0
 17 23  1  0  0  0  0
 18 17  2  0  0  0  0
 19 20  2  0  0  0  0
 19 18  1  0  0  0  0
 20 21  1  0  0  0  0
 21 26  1  0  0  0  0
 21 16  2  0  0  0  0
 24 19  1  0  0  0  0
 25 20  1  0  0  0  0
 26 28  2  0  0  0  0
 26 27  1  0  0  0  0
 29 26  2  0  0  0  0
 30 18  1  0  0  0  0
 30 31  1  0  0  0  0
 32 30  1  0  0  0  0
 33 30  1  0  0  0  0
M  RAD  2  15   2  27   2
M  END
