Coordinates from ORCA-job p-NO2-Ph-N2-OTs-B3LYPG-6-31G_dp-scan-d09-49-n400
 OpenBabel08281821283D

 33 34  0  0  0  0  0  0  0  0999 V2000
   -1.2919    0.5037   -1.7812 C   0  0  0  0  0  0  0  0  0  0  0  0
   -0.5437    1.5790   -1.3247 C   0  0  0  0  0  0  0  0  0  0  0  0
    0.7074    1.8784   -1.8967 C   0  0  0  0  0  0  0  0  0  0  0  0
    1.2026    1.0922   -2.9563 C   0  0  0  0  0  0  0  0  0  0  0  0
    0.4483    0.0203   -3.4215 C   0  0  0  0  0  0  0  0  0  0  0  0
   -0.7800   -0.2619   -2.8275 C   0  0  0  0  0  0  0  0  0  0  0  0
   -2.2529    0.2514   -1.3528 H   0  0  0  0  0  0  0  0  0  0  0  0
   -0.9026    2.2089   -0.5183 H   0  0  0  0  0  0  0  0  0  0  0  0
    2.1556    1.3166   -3.4106 H   0  0  0  0  0  0  0  0  0  0  0  0
    0.7983   -0.6010   -4.2365 H   0  0  0  0  0  0  0  0  0  0  0  0
   -1.5640   -1.4065   -3.3232 N   0  0  0  0  0  0  0  0  0  0  0  0
   -1.0863   -2.0667   -4.2443 O   0  0  0  0  0  0  0  0  0  0  0  0
   -2.6463   -1.6288   -2.7834 O   0  0  0  0  0  0  0  0  0  0  0  0
    1.3148    3.0112   -1.3060 N   0  0  0  0  0  0  0  0  0  0  0  0
    2.4547    3.3994   -1.5438 N   0  0  0  0  0  0  0  0  0  0  0  0
    6.0674    1.3170   -2.5857 C   0  0  0  0  0  0  0  0  0  0  0  0
    6.7217    0.3054   -3.2829 C   0  0  0  0  0  0  0  0  0  0  0  0
    7.0506    0.4592   -4.6396 C   0  0  0  0  0  0  0  0  0  0  0  0
    6.7097    1.6597   -5.2810 C   0  0  0  0  0  0  0  0  0  0  0  0
    6.0524    2.6807   -4.5977 C   0  0  0  0  0  0  0  0  0  0  0  0
    5.7295    2.4990   -3.2528 C   0  0  0  0  0  0  0  0  0  0  0  0
    5.8208    1.1859   -1.5350 H   0  0  0  0  0  0  0  0  0  0  0  0
    6.9871   -0.6149   -2.7693 H   0  0  0  0  0  0  0  0  0  0  0  0
    6.9689    1.7971   -6.3273 H   0  0  0  0  0  0  0  0  0  0  0  0
    5.7959    3.6165   -5.0844 H   0  0  0  0  0  0  0  0  0  0  0  0
    4.9779    3.8400   -2.2978 S   0  0  2  0  0  0  0  0  0  0  0  0
    3.1709    4.8649   -0.7539 O   0  0  0  0  0  0  0  0  0  0  0  0
    3.3208    2.8331   -2.3743 O   0  0  0  0  0  0  0  0  0  0  0  0
    4.8990    4.9734   -3.2405 O   0  0  0  0  0  0  0  0  0  0  0  0
    7.7418   -0.6519   -5.3911 C   0  0  0  0  0  0  0  0  0  0  0  0
    8.4922   -1.1491   -4.7689 H   0  0  0  0  0  0  0  0  0  0  0  0
    7.0212   -1.4176   -5.7036 H   0  0  0  0  0  0  0  0  0  0  0  0
    8.2365   -0.2798   -6.2919 H   0  0  0  0  0  0  0  0  0  0  0  0
  1  7  1  0  0  0  0
  1  2  1  0  0  0  0
  2  8  1  0  0  0  0
  3  2  2  0  0  0  0
  3 14  1  0  0  0  0
  4  3  1  0  0  0  0
  5  4  2  0  0  0  0
  5  6  1  0  0  0  0
  6  1  2  0  0  0  0
  9  4  1  0  0  0  0
 10  5  1  0  0  0  0
 11  6  1  0  0  0  0
 11 13  2  0  0  0  0
 12 11  2  0  0  0  0
 15 14  1  0  0  0  0
 15 27  1  0  0  0  0
 16 22  1  0  0  0  0
 17 23  1  0  0  0  0
 17 16  2  0  0  0  0
 18 17  1  0  0  0  0
 19 18  2  0  0  0  0
 19 20  1  0  0  0  0
 20 21  2  0  0  0  0
 21 16  1  0  0  0  0
 24 19  1  0  0  0  0
 25 20  1  0  0  0  0
 26 21  1  6  0  0  0
 28 26  1  0  0  0  0
 28 15  1  0  0  0  0
 29 26  1  0  0  0  0
 30 31  1  0  0  0  0
 30 18  1  0  0  0  0
 32 30  1  0  0  0  0
 33 30  1  0  0  0  0
M  RAD  3  14   2  27   2  29   2
M  END
