Coordinates from ORCA-job p-NO2-Ph-N2-OTs-B3LYPG-6-31G_dp-scan-d09-49-n400
 OpenBabel08281821283D

 33 34  0  0  0  0  0  0  0  0999 V2000
   -0.5169    0.0583   -1.8208 C   0  0  0  0  0  0  0  0  0  0  0  0
    0.1310    1.0189   -1.0530 C   0  0  0  0  0  0  0  0  0  0  0  0
    0.8097    2.0787   -1.6718 C   0  0  0  0  0  0  0  0  0  0  0  0
    0.8015    2.2045   -3.0719 C   0  0  0  0  0  0  0  0  0  0  0  0
    0.1508    1.2488   -3.8409 C   0  0  0  0  0  0  0  0  0  0  0  0
   -0.4950    0.1861   -3.2078 C   0  0  0  0  0  0  0  0  0  0  0  0
   -1.0357   -0.7773   -1.3687 H   0  0  0  0  0  0  0  0  0  0  0  0
    0.1232    0.9597    0.0301 H   0  0  0  0  0  0  0  0  0  0  0  0
    1.3148    3.0302   -3.5506 H   0  0  0  0  0  0  0  0  0  0  0  0
    0.1335    1.3134   -4.9218 H   0  0  0  0  0  0  0  0  0  0  0  0
   -1.1767   -0.8246   -4.0271 N   0  0  0  0  0  0  0  0  0  0  0  0
   -1.1386   -0.6897   -5.2500 O   0  0  0  0  0  0  0  0  0  0  0  0
   -1.7437   -1.7472   -3.4411 O   0  0  0  0  0  0  0  0  0  0  0  0
    1.3355    3.0622   -0.8052 N   0  0  0  0  0  0  0  0  0  0  0  0
    2.5012    3.5275   -0.9352 N   0  0  0  0  0  0  0  0  0  0  0  0
    6.2916    1.6916   -2.5756 C   0  0  0  0  0  0  0  0  0  0  0  0
    7.1037    0.6546   -3.0280 C   0  0  0  0  0  0  0  0  0  0  0  0
    7.0243    0.1962   -4.3524 C   0  0  0  0  0  0  0  0  0  0  0  0
    6.1126    0.8129   -5.2214 C   0  0  0  0  0  0  0  0  0  0  0  0
    5.2934    1.8534   -4.7868 C   0  0  0  0  0  0  0  0  0  0  0  0
    5.3859    2.2749   -3.4627 C   0  0  0  0  0  0  0  0  0  0  0  0
    6.3584    2.0338   -1.5470 H   0  0  0  0  0  0  0  0  0  0  0  0
    7.8112    0.1926   -2.3445 H   0  0  0  0  0  0  0  0  0  0  0  0
    6.0459    0.4759   -6.2525 H   0  0  0  0  0  0  0  0  0  0  0  0
    4.5913    2.3453   -5.4528 H   0  0  0  0  0  0  0  0  0  0  0  0
    4.3651    3.6723   -2.9278 S   0  0  2  0  0  0  0  0  0  0  0  0
    3.0176    4.3227   -0.4604 O   0  0  0  0  0  0  0  0  0  0  0  0
    3.4085    2.6416   -1.9757 O   0  0  0  0  0  0  0  0  0  0  0  0
    3.5669    4.1155   -4.1103 O   0  0  0  0  0  0  0  0  0  0  0  0
    7.8864   -0.9494   -4.8250 C   0  0  0  0  0  0  0  0  0  0  0  0
    8.8139   -1.0178   -4.2504 H   0  0  0  0  0  0  0  0  0  0  0  0
    7.3600   -1.9057   -4.7128 H   0  0  0  0  0  0  0  0  0  0  0  0
    8.1469   -0.8452   -5.8822 H   0  0  0  0  0  0  0  0  0  0  0  0
  1  7  1  0  0  0  0
  1  2  2  0  0  0  0
  2  8  1  0  0  0  0
  3  2  1  0  0  0  0
  3 14  1  0  0  0  0
  4  3  2  0  0  0  0
  5  6  2  0  0  0  0
  5  4  1  0  0  0  0
  6  1  1  0  0  0  0
  9  4  1  0  0  0  0
 10  5  1  0  0  0  0
 11 13  2  0  0  0  0
 11  6  1  0  0  0  0
 12 11  2  0  0  0  0
 15 14  1  0  0  0  0
 15 27  1  0  0  0  0
 16 22  1  0  0  0  0
 17 16  1  0  0  0  0
 17 23  1  0  0  0  0
 18 17  2  0  0  0  0
 19 20  2  0  0  0  0
 19 18  1  0  0  0  0
 20 21  1  0  0  0  0
 21 26  1  0  0  0  0
 21 16  2  0  0  0  0
 24 19  1  0  0  0  0
 25 20  1  0  0  0  0
 26 29  1  6  0  0  0
 26 28  1  0  0  0  0
 28 15  1  0  0  0  0
 30 32  1  0  0  0  0
 30 18  1  0  0  0  0
 30 31  1  0  0  0  0
 33 30  1  0  0  0  0
M  RAD  3  14   2  27   2  29   2
M  END
