Coordinates from ORCA-job p-NO2-Ph-N2-OTs-B3LYPG-6-31G_dp-scan-d09-49-n400
 OpenBabel08281821283D

 33 33  0  0  0  0  0  0  0  0999 V2000
   -1.1938    0.3435   -1.6806 C   0  0  0  0  0  0  0  0  0  0  0  0
   -0.4183    1.3762   -1.1718 C   0  0  0  0  0  0  0  0  0  0  0  0
    0.7246    1.8209   -1.8602 C   0  0  0  0  0  0  0  0  0  0  0  0
    1.0788    1.2376   -3.0922 C   0  0  0  0  0  0  0  0  0  0  0  0
    0.2941    0.2121   -3.6109 C   0  0  0  0  0  0  0  0  0  0  0  0
   -0.8207   -0.2230   -2.8976 C   0  0  0  0  0  0  0  0  0  0  0  0
   -2.0729   -0.0218   -1.1659 H   0  0  0  0  0  0  0  0  0  0  0  0
   -0.6735    1.8589   -0.2353 H   0  0  0  0  0  0  0  0  0  0  0  0
    1.9459    1.5807   -3.6352 H   0  0  0  0  0  0  0  0  0  0  0  0
    0.5359   -0.2567   -4.5563 H   0  0  0  0  0  0  0  0  0  0  0  0
   -1.6359   -1.3205   -3.4516 N   0  0  0  0  0  0  0  0  0  0  0  0
   -1.2791   -1.8084   -4.5221 O   0  0  0  0  0  0  0  0  0  0  0  0
   -2.6187   -1.6776   -2.8052 O   0  0  0  0  0  0  0  0  0  0  0  0
    1.3802    2.8903   -1.1913 N   0  0  0  0  0  0  0  0  0  0  0  0
    2.4770    3.3692   -1.4328 N   0  0  0  0  0  0  0  0  0  0  0  0
    6.0168    1.3682   -2.6007 C   0  0  0  0  0  0  0  0  0  0  0  0
    6.7405    0.3504   -3.2144 C   0  0  0  0  0  0  0  0  0  0  0  0
    7.0914    0.4281   -4.5728 C   0  0  0  0  0  0  0  0  0  0  0  0
    6.7000    1.5593   -5.3024 C   0  0  0  0  0  0  0  0  0  0  0  0
    5.9741    2.5887   -4.7038 C   0  0  0  0  0  0  0  0  0  0  0  0
    5.6288    2.4771   -3.3587 C   0  0  0  0  0  0  0  0  0  0  0  0
    5.7525    1.2967   -1.5491 H   0  0  0  0  0  0  0  0  0  0  0  0
    7.0434   -0.5162   -2.6324 H   0  0  0  0  0  0  0  0  0  0  0  0
    6.9733    1.6385   -6.3511 H   0  0  0  0  0  0  0  0  0  0  0  0
    5.6789    3.4740   -5.2584 H   0  0  0  0  0  0  0  0  0  0  0  0
    4.7804    3.8509   -2.5422 S   0  0  2  0  0  0  0  0  0  0  0  0
    3.7616    5.2429   -0.2655 O   0  0  0  0  0  0  0  0  0  0  0  0
    3.2611    2.8429   -2.4475 O   0  0  0  0  0  0  0  0  0  0  0  0
    4.5936    4.8893   -3.5785 O   0  0  0  0  0  0  0  0  0  0  0  0
    7.8655   -0.6900   -5.2273 C   0  0  0  0  0  0  0  0  0  0  0  0
    8.7052   -1.0125   -4.6034 H   0  0  0  0  0  0  0  0  0  0  0  0
    7.2267   -1.5671   -5.3870 H   0  0  0  0  0  0  0  0  0  0  0  0
    8.2610   -0.3878   -6.1999 H   0  0  0  0  0  0  0  0  0  0  0  0
  1  2  1  0  0  0  0
  1  7  1  0  0  0  0
  2  8  1  0  0  0  0
  3 14  1  0  0  0  0
  3  2  2  0  0  0  0
  4  3  1  0  0  0  0
  5  4  2  0  0  0  0
  5  6  1  0  0  0  0
  6  1  2  0  0  0  0
  9  4  1  0  0  0  0
 10  5  1  0  0  0  0
 11  6  1  0  0  0  0
 11 13  2  0  0  0  0
 12 11  2  0  0  0  0
 15 14  2  0  0  0  0
 16 22  1  0  0  0  0
 17 23  1  0  0  0  0
 17 16  1  0  0  0  0
 18 17  2  0  0  0  0
 19 20  2  0  0  0  0
 19 18  1  0  0  0  0
 20 21  1  0  0  0  0
 21 16  2  0  0  0  0
 21 26  1  0  0  0  0
 24 19  1  0  0  0  0
 25 20  1  0  0  0  0
 26 29  1  6  0  0  0
 26 28  1  0  0  0  0
 28 15  1  0  0  0  0
 30 31  1  0  0  0  0
 30 18  1  0  0  0  0
 32 30  1  0  0  0  0
 33 30  1  0  0  0  0
M  RAD  2  27   3  29   2
M  END
