Coordinates from ORCA-job p-NO2-Ph-N2-OTs-B3LYPG-6-31G_dp-scan-d09-49-n400
 OpenBabel08281821283D

 33 34  0  0  0  0  0  0  0  0999 V2000
   -1.0118    0.3313   -1.6868 C   0  0  0  0  0  0  0  0  0  0  0  0
   -0.3388    1.4454   -1.2091 C   0  0  0  0  0  0  0  0  0  0  0  0
    0.7687    1.9764   -1.9025 C   0  0  0  0  0  0  0  0  0  0  0  0
    1.1722    1.3860   -3.1185 C   0  0  0  0  0  0  0  0  0  0  0  0
    0.4876    0.2792   -3.6070 C   0  0  0  0  0  0  0  0  0  0  0  0
   -0.5855   -0.2402   -2.8851 C   0  0  0  0  0  0  0  0  0  0  0  0
   -1.8563   -0.0946   -1.1607 H   0  0  0  0  0  0  0  0  0  0  0  0
   -0.6468    1.9303   -0.2899 H   0  0  0  0  0  0  0  0  0  0  0  0
    2.0017    1.7905   -3.6784 H   0  0  0  0  0  0  0  0  0  0  0  0
    0.7740   -0.1887   -4.5403 H   0  0  0  0  0  0  0  0  0  0  0  0
   -1.2913   -1.4196   -3.4054 N   0  0  0  0  0  0  0  0  0  0  0  0
   -0.8881   -1.9069   -4.4612 O   0  0  0  0  0  0  0  0  0  0  0  0
   -2.2415   -1.8482   -2.7511 O   0  0  0  0  0  0  0  0  0  0  0  0
    1.2919    3.1235   -1.2806 N   0  0  0  0  0  0  0  0  0  0  0  0
    2.4275    3.5888   -1.5074 N   0  0  0  0  0  0  0  0  0  0  0  0
    5.9364    1.3081   -2.5482 C   0  0  0  0  0  0  0  0  0  0  0  0
    6.5609    0.2605   -3.2187 C   0  0  0  0  0  0  0  0  0  0  0  0
    6.9161    0.3771   -4.5727 C   0  0  0  0  0  0  0  0  0  0  0  0
    6.6324    1.5779   -5.2397 C   0  0  0  0  0  0  0  0  0  0  0  0
    6.0058    2.6364   -4.5844 C   0  0  0  0  0  0  0  0  0  0  0  0
    5.6555    2.4883   -3.2432 C   0  0  0  0  0  0  0  0  0  0  0  0
    5.6669    1.2046   -1.5005 H   0  0  0  0  0  0  0  0  0  0  0  0
    6.7810   -0.6604   -2.6852 H   0  0  0  0  0  0  0  0  0  0  0  0
    6.9121    1.6870   -6.2840 H   0  0  0  0  0  0  0  0  0  0  0  0
    5.7938    3.5734   -5.0901 H   0  0  0  0  0  0  0  0  0  0  0  0
    4.9411    3.8849   -2.3467 S   0  0  2  0  0  0  0  0  0  0  0  0
    2.9112    4.7448   -0.8804 O   0  0  0  0  0  0  0  0  0  0  0  0
    3.3095    2.9897   -2.3747 O   0  0  0  0  0  0  0  0  0  0  0  0
    4.8909    5.0024   -3.3129 O   0  0  0  0  0  0  0  0  0  0  0  0
    7.5755   -0.7732   -5.2933 C   0  0  0  0  0  0  0  0  0  0  0  0
    8.3067   -1.2783   -4.6547 H   0  0  0  0  0  0  0  0  0  0  0  0
    6.8325   -1.5231   -5.5910 H   0  0  0  0  0  0  0  0  0  0  0  0
    8.0863   -0.4386   -6.1997 H   0  0  0  0  0  0  0  0  0  0  0  0
  1  2  1  0  0  0  0
  1  7  1  0  0  0  0
  2  8  1  0  0  0  0
  3 14  1  0  0  0  0
  3  2  2  0  0  0  0
  4  3  1  0  0  0  0
  5  4  2  0  0  0  0
  5  6  1  0  0  0  0
  6  1  2  0  0  0  0
  9  4  1  0  0  0  0
 10  5  1  0  0  0  0
 11  6  1  0  0  0  0
 11 13  2  0  0  0  0
 12 11  2  0  0  0  0
 15 14  1  0  0  0  0
 15 27  1  0  0  0  0
 16 22  1  0  0  0  0
 17 23  1  0  0  0  0
 17 16  1  0  0  0  0
 18 17  2  0  0  0  0
 19 20  2  0  0  0  0
 19 18  1  0  0  0  0
 20 21  1  0  0  0  0
 21 16  2  0  0  0  0
 21 26  1  0  0  0  0
 24 19  1  0  0  0  0
 25 20  1  0  0  0  0
 26 29  1  6  0  0  0
 28 26  1  0  0  0  0
 28 15  1  0  0  0  0
 30 31  1  0  0  0  0
 30 18  1  0  0  0  0
 32 30  1  0  0  0  0
 33 30  1  0  0  0  0
M  RAD  3  14   2  27   2  29   2
M  END
