Coordinates from ORCA-job p-NO2-Ph-N2-OTs-B3LYPG-6-31G_dp-scan-d09-49-n400
 OpenBabel08281821283D

 33 33  0  0  0  0  0  0  0  0999 V2000
   -1.4397   -0.2065   -3.1589 C   0  0  0  0  0  0  0  0  0  0  0  0
   -0.1810   -0.7127   -2.8567 C   0  0  0  0  0  0  0  0  0  0  0  0
    0.7428    0.1579   -2.2706 C   0  0  0  0  0  0  0  0  0  0  0  0
    0.4878    1.4997   -1.9814 C   0  0  0  0  0  0  0  0  0  0  0  0
   -0.7814    1.9830   -2.2803 C   0  0  0  0  0  0  0  0  0  0  0  0
   -1.7164    1.1262   -2.8589 C   0  0  0  0  0  0  0  0  0  0  0  0
   -2.2028   -0.8236   -3.6158 H   0  0  0  0  0  0  0  0  0  0  0  0
    0.0811   -1.7410   -3.0740 H   0  0  0  0  0  0  0  0  0  0  0  0
    1.2827    2.1201   -1.5778 H   0  0  0  0  0  0  0  0  0  0  0  0
   -1.0476    3.0132   -2.0829 H   0  0  0  0  0  0  0  0  0  0  0  0
   -3.0634    1.6515   -3.1729 N   0  0  0  0  0  0  0  0  0  0  0  0
   -3.2913    2.8217   -2.8825 O   0  0  0  0  0  0  0  0  0  0  0  0
   -3.8593    0.8771   -3.6978 O   0  0  0  0  0  0  0  0  0  0  0  0
    1.9932   -0.4050   -1.9012 N   0  0  0  0  0  0  0  0  0  0  0  0
    2.6546   -1.0809   -1.3001 N   0  0  0  0  0  0  0  0  0  0  0  0
    6.2278    1.1835   -2.5447 C   0  0  0  0  0  0  0  0  0  0  0  0
    7.5882    1.0412   -2.8110 C   0  0  0  0  0  0  0  0  0  0  0  0
    8.1181    1.3612   -4.0696 C   0  0  0  0  0  0  0  0  0  0  0  0
    7.2461    1.8438   -5.0557 C   0  0  0  0  0  0  0  0  0  0  0  0
    5.8835    1.9937   -4.8033 C   0  0  0  0  0  0  0  0  0  0  0  0
    5.3795    1.6578   -3.5462 C   0  0  0  0  0  0  0  0  0  0  0  0
    5.8237    0.9561   -1.5644 H   0  0  0  0  0  0  0  0  0  0  0  0
    8.2518    0.6844   -2.0272 H   0  0  0  0  0  0  0  0  0  0  0  0
    7.6408    2.1137   -6.0319 H   0  0  0  0  0  0  0  0  0  0  0  0
    5.2137    2.3867   -5.5603 H   0  0  0  0  0  0  0  0  0  0  0  0
    3.6205    1.8176   -3.2329 S   0  0  0  0  0  0  0  0  0  0  0  0
    3.1224    2.9106   -4.0861 O   0  0  0  0  0  0  0  0  0  0  0  0
    3.4625    1.9975   -1.7589 O   0  0  0  0  0  0  0  0  0  0  0  0
    3.0247    0.4561   -3.6276 O   0  0  0  0  0  0  0  0  0  0  0  0
    9.5885    1.1746   -4.3596 C   0  0  0  0  0  0  0  0  0  0  0  0
   10.1981    1.3412   -3.4664 H   0  0  0  0  0  0  0  0  0  0  0  0
    9.7957    0.1543   -4.7070 H   0  0  0  0  0  0  0  0  0  0  0  0
    9.9331    1.8599   -5.1396 H   0  0  0  0  0  0  0  0  0  0  0  0
  1  6  2  0  0  0  0
  1  2  1  0  0  0  0
  2  3  2  0  0  0  0
  3  4  1  0  0  0  0
  3 14  1  0  0  0  0
  4  9  1  0  0  0  0
  5 10  1  0  0  0  0
  5  4  2  0  0  0  0
  6  5  1  0  0  0  0
  7  1  1  0  0  0  0
  8  2  1  0  0  0  0
 11 12  2  0  0  0  0
 11  6  1  0  0  0  0
 13 11  2  0  0  0  0
 14 15  2  0  0  0  0
 16 22  1  0  0  0  0
 17 16  1  0  0  0  0
 17 23  1  0  0  0  0
 18 17  2  0  0  0  0
 19 20  2  0  0  0  0
 19 18  1  0  0  0  0
 20 21  1  0  0  0  0
 21 26  1  0  0  0  0
 21 16  2  0  0  0  0
 24 19  1  0  0  0  0
 25 20  1  0  0  0  0
 26 28  1  0  0  0  0
 27 26  2  0  0  0  0
 29 26  2  0  0  0  0
 30 18  1  0  0  0  0
 30 31  1  0  0  0  0
 32 30  1  0  0  0  0
 33 30  1  0  0  0  0
M  RAD  2  15   2  28   2
M  END
