Coordinates from ORCA-job p-NO2-Ph-N2-OTs-B3LYPG-6-31G_dp-scan-d09-49-n400
 OpenBabel08281821283D

 33 33  0  0  0  0  0  0  0  0999 V2000
   -1.2850    0.4907   -1.7792 C   0  0  0  0  0  0  0  0  0  0  0  0
   -0.5357    1.5624   -1.3157 C   0  0  0  0  0  0  0  0  0  0  0  0
    0.7109    1.8694   -1.8923 C   0  0  0  0  0  0  0  0  0  0  0  0
    1.2018    1.0960   -2.9627 C   0  0  0  0  0  0  0  0  0  0  0  0
    0.4464    0.0276   -3.4350 C   0  0  0  0  0  0  0  0  0  0  0  0
   -0.7778   -0.2626   -2.8366 C   0  0  0  0  0  0  0  0  0  0  0  0
   -2.2430    0.2319   -1.3479 H   0  0  0  0  0  0  0  0  0  0  0  0
   -0.8906    2.1833   -0.5006 H   0  0  0  0  0  0  0  0  0  0  0  0
    2.1520    1.3271   -3.4195 H   0  0  0  0  0  0  0  0  0  0  0  0
    0.7926   -0.5845   -4.2585 H   0  0  0  0  0  0  0  0  0  0  0  0
   -1.5631   -1.4035   -3.3400 N   0  0  0  0  0  0  0  0  0  0  0  0
   -1.0892   -2.0536   -4.2700 O   0  0  0  0  0  0  0  0  0  0  0  0
   -2.6412   -1.6338   -2.7952 O   0  0  0  0  0  0  0  0  0  0  0  0
    1.3221    2.9982   -1.2930 N   0  0  0  0  0  0  0  0  0  0  0  0
    2.4570    3.3943   -1.5316 N   0  0  0  0  0  0  0  0  0  0  0  0
    6.0659    1.3275   -2.5847 C   0  0  0  0  0  0  0  0  0  0  0  0
    6.7201    0.3118   -3.2760 C   0  0  0  0  0  0  0  0  0  0  0  0
    7.0454    0.4560   -4.6346 C   0  0  0  0  0  0  0  0  0  0  0  0
    6.7012    1.6513   -5.2840 C   0  0  0  0  0  0  0  0  0  0  0  0
    6.0440    2.6763   -4.6067 C   0  0  0  0  0  0  0  0  0  0  0  0
    5.7245    2.5040   -3.2597 C   0  0  0  0  0  0  0  0  0  0  0  0
    5.8220    1.2038   -1.5324 H   0  0  0  0  0  0  0  0  0  0  0  0
    6.9881   -0.6043   -2.7562 H   0  0  0  0  0  0  0  0  0  0  0  0
    6.9577    1.7813   -6.3319 H   0  0  0  0  0  0  0  0  0  0  0  0
    5.7850    3.6080   -5.0997 H   0  0  0  0  0  0  0  0  0  0  0  0
    4.9724    3.8506   -2.3135 S   0  0  2  0  0  0  0  0  0  0  0  0
    3.2243    4.9249   -0.7020 O   0  0  0  0  0  0  0  0  0  0  0  0
    3.3173    2.8382   -2.3745 O   0  0  0  0  0  0  0  0  0  0  0  0
    4.8843    4.9754   -3.2656 O   0  0  0  0  0  0  0  0  0  0  0  0
    7.7363   -0.6597   -5.3797 C   0  0  0  0  0  0  0  0  0  0  0  0
    8.4863   -1.1537   -4.7546 H   0  0  0  0  0  0  0  0  0  0  0  0
    7.0153   -1.4267   -5.6881 H   0  0  0  0  0  0  0  0  0  0  0  0
    8.2312   -0.2928   -6.2825 H   0  0  0  0  0  0  0  0  0  0  0  0
  1  7  1  0  0  0  0
  1  2  1  0  0  0  0
  2  8  1  0  0  0  0
  3  2  2  0  0  0  0
  3 14  1  0  0  0  0
  4  3  1  0  0  0  0
  5  4  2  0  0  0  0
  5  6  1  0  0  0  0
  6  1  2  0  0  0  0
  9  4  1  0  0  0  0
 10  5  1  0  0  0  0
 11  6  1  0  0  0  0
 11 13  2  0  0  0  0
 12 11  2  0  0  0  0
 15 14  2  0  0  0  0
 16 22  1  0  0  0  0
 17 23  1  0  0  0  0
 17 16  2  0  0  0  0
 18 17  1  0  0  0  0
 19 18  2  0  0  0  0
 19 20  1  0  0  0  0
 20 21  2  0  0  0  0
 21 16  1  0  0  0  0
 21 26  1  0  0  0  0
 24 19  1  0  0  0  0
 25 20  1  0  0  0  0
 26 29  1  6  0  0  0
 28 26  1  0  0  0  0
 28 15  1  0  0  0  0
 30 31  1  0  0  0  0
 30 18  1  0  0  0  0
 32 30  1  0  0  0  0
 33 30  1  0  0  0  0
M  RAD  2  27   3  29   2
M  END
