Coordinates from ORCA-job p-NO2-Ph-N2-OTs-B3LYPG-6-31G_dp-scan-d09-49-n400
 OpenBabel08281821283D

 33 33  0  0  0  0  0  0  0  0999 V2000
   -1.2913    0.5002   -1.7835 C   0  0  0  0  0  0  0  0  0  0  0  0
   -0.5430    1.5745   -1.3246 C   0  0  0  0  0  0  0  0  0  0  0  0
    0.7080    1.8745   -1.8959 C   0  0  0  0  0  0  0  0  0  0  0  0
    1.2039    1.0907   -2.9567 C   0  0  0  0  0  0  0  0  0  0  0  0
    0.4495    0.0197   -3.4243 C   0  0  0  0  0  0  0  0  0  0  0  0
   -0.7789   -0.2632   -2.8311 C   0  0  0  0  0  0  0  0  0  0  0  0
   -2.2525    0.2470   -1.3559 H   0  0  0  0  0  0  0  0  0  0  0  0
   -0.9019    2.2030   -0.5171 H   0  0  0  0  0  0  0  0  0  0  0  0
    2.1572    1.3160   -3.4098 H   0  0  0  0  0  0  0  0  0  0  0  0
    0.7997   -0.6002   -4.2403 H   0  0  0  0  0  0  0  0  0  0  0  0
   -1.5631   -1.4070   -3.3294 N   0  0  0  0  0  0  0  0  0  0  0  0
   -1.0847   -2.0660   -4.2509 O   0  0  0  0  0  0  0  0  0  0  0  0
   -2.6452   -1.6306   -2.7896 O   0  0  0  0  0  0  0  0  0  0  0  0
    1.3168    3.0067   -1.3027 N   0  0  0  0  0  0  0  0  0  0  0  0
    2.4549    3.3973   -1.5390 N   0  0  0  0  0  0  0  0  0  0  0  0
    6.0679    1.3204   -2.5849 C   0  0  0  0  0  0  0  0  0  0  0  0
    6.7215    0.3075   -3.2810 C   0  0  0  0  0  0  0  0  0  0  0  0
    7.0477    0.4582   -4.6386 C   0  0  0  0  0  0  0  0  0  0  0  0
    6.7050    1.6571   -5.2822 C   0  0  0  0  0  0  0  0  0  0  0  0
    6.0485    2.6793   -4.6002 C   0  0  0  0  0  0  0  0  0  0  0  0
    5.7281    2.5007   -3.2542 C   0  0  0  0  0  0  0  0  0  0  0  0
    5.8234    1.1917   -1.5334 H   0  0  0  0  0  0  0  0  0  0  0  0
    6.9884   -0.6114   -2.7656 H   0  0  0  0  0  0  0  0  0  0  0  0
    6.9622    1.7920   -6.3294 H   0  0  0  0  0  0  0  0  0  0  0  0
    5.7905    3.6137   -5.0887 H   0  0  0  0  0  0  0  0  0  0  0  0
    4.9772    3.8433   -2.3012 S   0  0  2  0  0  0  0  0  0  0  0  0
    3.1985    4.9011   -0.7301 O   0  0  0  0  0  0  0  0  0  0  0  0
    3.3199    2.8336   -2.3716 O   0  0  0  0  0  0  0  0  0  0  0  0
    4.8942    4.9738   -3.2469 O   0  0  0  0  0  0  0  0  0  0  0  0
    7.7380   -0.6543   -5.3889 C   0  0  0  0  0  0  0  0  0  0  0  0
    8.4882   -1.1513   -4.7662 H   0  0  0  0  0  0  0  0  0  0  0  0
    7.0168   -1.4199   -5.7003 H   0  0  0  0  0  0  0  0  0  0  0  0
    8.2326   -0.2837   -6.2903 H   0  0  0  0  0  0  0  0  0  0  0  0
  1  7  1  0  0  0  0
  1  2  1  0  0  0  0
  2  8  1  0  0  0  0
  3  2  2  0  0  0  0
  3 14  1  0  0  0  0
  4  3  1  0  0  0  0
  5  4  2  0  0  0  0
  5  6  1  0  0  0  0
  6  1  2  0  0  0  0
  9  4  1  0  0  0  0
 10  5  1  0  0  0  0
 11  6  1  0  0  0  0
 11 13  2  0  0  0  0
 12 11  2  0  0  0  0
 15 14  2  0  0  0  0
 16 22  1  0  0  0  0
 17 23  1  0  0  0  0
 17 16  2  0  0  0  0
 18 17  1  0  0  0  0
 19 18  2  0  0  0  0
 19 20  1  0  0  0  0
 20 21  2  0  0  0  0
 21 16  1  0  0  0  0
 24 19  1  0  0  0  0
 25 20  1  0  0  0  0
 26 21  1  6  0  0  0
 28 26  1  0  0  0  0
 28 15  1  0  0  0  0
 29 26  1  0  0  0  0
 30 31  1  0  0  0  0
 30 18  1  0  0  0  0
 32 30  1  0  0  0  0
 33 30  1  0  0  0  0
M  RAD  2  27   3  29   2
M  END
