Coordinates from ORCA-job p-NO2-Ph-N2-OTs-B3LYPG-6-31G_dp-scan-d09-49-n400
 OpenBabel08281821283D

 33 34  0  0  0  0  0  0  0  0999 V2000
   -1.2122   -0.5107   -1.9081 C   0  0  0  0  0  0  0  0  0  0  0  0
    0.1573   -0.4448   -1.6894 C   0  0  0  0  0  0  0  0  0  0  0  0
    0.9086    0.5966   -2.2588 C   0  0  0  0  0  0  0  0  0  0  0  0
    0.3016    1.5871   -3.0540 C   0  0  0  0  0  0  0  0  0  0  0  0
   -1.0715    1.5153   -3.2699 C   0  0  0  0  0  0  0  0  0  0  0  0
   -1.8004    0.4747   -2.6982 C   0  0  0  0  0  0  0  0  0  0  0  0
   -1.8232   -1.2983   -1.4865 H   0  0  0  0  0  0  0  0  0  0  0  0
    0.6639   -1.1877   -1.0837 H   0  0  0  0  0  0  0  0  0  0  0  0
    0.8973    2.3803   -3.4813 H   0  0  0  0  0  0  0  0  0  0  0  0
   -1.5822    2.2544   -3.8745 H   0  0  0  0  0  0  0  0  0  0  0  0
   -3.2584    0.4103   -2.9404 N   0  0  0  0  0  0  0  0  0  0  0  0
   -3.7540    1.2892   -3.6398 O   0  0  0  0  0  0  0  0  0  0  0  0
   -3.8736   -0.5203   -2.4257 O   0  0  0  0  0  0  0  0  0  0  0  0
    2.2859    0.5381   -1.9584 N   0  0  0  0  0  0  0  0  0  0  0  0
    3.2746    1.1448   -2.1823 N   0  0  0  0  0  0  0  0  0  0  0  0
    6.4743    2.2348   -2.6242 C   0  0  0  0  0  0  0  0  0  0  0  0
    7.5785    1.3982   -2.7736 C   0  0  0  0  0  0  0  0  0  0  0  0
    7.8366    0.7472   -3.9886 C   0  0  0  0  0  0  0  0  0  0  0  0
    6.9619    0.9651   -5.0636 C   0  0  0  0  0  0  0  0  0  0  0  0
    5.8532    1.7980   -4.9334 C   0  0  0  0  0  0  0  0  0  0  0  0
    5.6155    2.4226   -3.7077 C   0  0  0  0  0  0  0  0  0  0  0  0
    6.2842    2.7514   -1.6900 H   0  0  0  0  0  0  0  0  0  0  0  0
    8.2550    1.2539   -1.9351 H   0  0  0  0  0  0  0  0  0  0  0  0
    7.1578    0.4836   -6.0178 H   0  0  0  0  0  0  0  0  0  0  0  0
    5.1894    1.9835   -5.7709 H   0  0  0  0  0  0  0  0  0  0  0  0
    4.1992    3.4984   -3.5385 S   0  0  0  0  0  0  0  0  0  0  0  0
    4.4396    4.4116   -2.4194 O   0  0  0  0  0  0  0  0  0  0  0  0
    2.9698    2.4820   -3.2014 O   0  0  0  0  0  0  0  0  0  0  0  0
    3.8545    4.0321   -4.8575 O   0  0  0  0  0  0  0  0  0  0  0  0
    9.0185   -0.1810   -4.1317 C   0  0  0  0  0  0  0  0  0  0  0  0
    9.8508    0.1282   -3.4929 H   0  0  0  0  0  0  0  0  0  0  0  0
    8.7494   -1.2049   -3.8423 H   0  0  0  0  0  0  0  0  0  0  0  0
    9.3763   -0.2189   -5.1645 H   0  0  0  0  0  0  0  0  0  0  0  0
  1  2  1  0  0  0  0
  1  7  1  0  0  0  0
  2  8  1  0  0  0  0
  3 14  1  0  0  0  0
  3  2  2  0  0  0  0
  4  3  1  0  0  0  0
  5  4  2  0  0  0  0
  5  6  1  0  0  0  0
  6  1  2  0  0  0  0
  9  4  1  0  0  0  0
 10  5  1  0  0  0  0
 11  6  1  0  0  0  0
 11 13  2  0  0  0  0
 12 11  2  0  0  0  0
 15 14  1  0  0  0  0
 16 22  1  0  0  0  0
 17 16  1  0  0  0  0
 17 23  1  0  0  0  0
 18 17  2  0  0  0  0
 19 20  2  0  0  0  0
 19 18  1  0  0  0  0
 20 21  1  0  0  0  0
 21 26  1  0  0  0  0
 21 16  2  0  0  0  0
 24 19  1  0  0  0  0
 25 20  1  0  0  0  0
 26 28  1  0  0  0  0
 26 27  2  0  0  0  0
 28 15  1  0  0  0  0
 29 26  2  0  0  0  0
 30 18  1  0  0  0  0
 30 32  1  0  0  0  0
 30 31  1  0  0  0  0
 33 30  1  0  0  0  0
M  RAD  2  14   2  15   2
M  END
