Coordinates from ORCA-job p-NO2-Ph-N2-OTs-B3LYPG-6-31G_dp-scan-d09-49-n400
 OpenBabel08281821283D

 33 33  0  0  0  0  0  0  0  0999 V2000
   -1.5983   -0.1423   -3.5444 C   0  0  0  0  0  0  0  0  0  0  0  0
   -0.3766   -0.7888   -3.4111 C   0  0  0  0  0  0  0  0  0  0  0  0
    0.6322   -0.1541   -2.6767 C   0  0  0  0  0  0  0  0  0  0  0  0
    0.4717    1.0909   -2.0507 C   0  0  0  0  0  0  0  0  0  0  0  0
   -0.7624    1.7180   -2.1804 C   0  0  0  0  0  0  0  0  0  0  0  0
   -1.7639    1.0951   -2.9233 C   0  0  0  0  0  0  0  0  0  0  0  0
   -2.4164   -0.5739   -4.1061 H   0  0  0  0  0  0  0  0  0  0  0  0
   -0.1969   -1.7557   -3.8660 H   0  0  0  0  0  0  0  0  0  0  0  0
    1.2979    1.5243   -1.4993 H   0  0  0  0  0  0  0  0  0  0  0  0
   -0.9504    2.6827   -1.7271 H   0  0  0  0  0  0  0  0  0  0  0  0
   -3.0744    1.7757   -3.0570 N   0  0  0  0  0  0  0  0  0  0  0  0
   -3.2078    2.8530   -2.4867 O   0  0  0  0  0  0  0  0  0  0  0  0
   -3.9334    1.2085   -3.7265 O   0  0  0  0  0  0  0  0  0  0  0  0
    1.8533   -0.8280   -2.5434 N   0  0  0  0  0  0  0  0  0  0  0  0
    2.9542   -0.8683   -2.2590 N   0  0  0  0  0  0  0  0  0  0  0  0
    6.5275    2.1524   -2.3938 C   0  0  0  0  0  0  0  0  0  0  0  0
    7.8316    1.8960   -2.8058 C   0  0  0  0  0  0  0  0  0  0  0  0
    8.0984    1.3216   -4.0592 C   0  0  0  0  0  0  0  0  0  0  0  0
    7.0167    1.0171   -4.8940 C   0  0  0  0  0  0  0  0  0  0  0  0
    5.7026    1.2658   -4.4931 C   0  0  0  0  0  0  0  0  0  0  0  0
    5.4642    1.8281   -3.2410 C   0  0  0  0  0  0  0  0  0  0  0  0
    6.3305    2.6121   -1.4312 H   0  0  0  0  0  0  0  0  0  0  0  0
    8.6591    2.1520   -2.1488 H   0  0  0  0  0  0  0  0  0  0  0  0
    7.2032    0.5862   -5.8744 H   0  0  0  0  0  0  0  0  0  0  0  0
    4.8641    1.0450   -5.1442 H   0  0  0  0  0  0  0  0  0  0  0  0
    3.7812    2.1496   -2.7074 S   0  0  0  0  0  0  0  0  0  0  0  0
    3.7591    3.5159   -2.1440 O   0  0  0  0  0  0  0  0  0  0  0  0
    3.5189    1.0988   -1.5927 O   0  0  0  0  0  0  0  0  0  0  0  0
    2.8937    1.8642   -3.8595 O   0  0  0  0  0  0  0  0  0  0  0  0
    9.5180    1.0289   -4.4839 C   0  0  0  0  0  0  0  0  0  0  0  0
   10.1955    1.8429   -4.2052 H   0  0  0  0  0  0  0  0  0  0  0  0
    9.8948    0.1179   -4.0027 H   0  0  0  0  0  0  0  0  0  0  0  0
    9.5906    0.8831   -5.5654 H   0  0  0  0  0  0  0  0  0  0  0  0
  1  2  2  0  0  0  0
  1  6  1  0  0  0  0
  2  3  1  0  0  0  0
  3 14  1  0  0  0  0
  3  4  2  0  0  0  0
  4  9  1  0  0  0  0
  5  4  1  0  0  0  0
  5 10  1  0  0  0  0
  6  5  2  0  0  0  0
  7  1  1  0  0  0  0
  8  2  1  0  0  0  0
 11  6  1  0  0  0  0
 11 12  2  0  0  0  0
 13 11  2  0  0  0  0
 14 15  2  0  0  0  0
 16 22  1  0  0  0  0
 17 16  1  0  0  0  0
 17 23  1  0  0  0  0
 18 17  2  0  0  0  0
 19 20  2  0  0  0  0
 19 18  1  0  0  0  0
 20 21  1  0  0  0  0
 21 26  1  0  0  0  0
 21 16  2  0  0  0  0
 24 19  1  0  0  0  0
 25 20  1  0  0  0  0
 26 27  2  0  0  0  0
 26 28  1  0  0  0  0
 29 26  2  0  0  0  0
 30 31  1  0  0  0  0
 30 18  1  0  0  0  0
 30 32  1  0  0  0  0
 33 30  1  0  0  0  0
M  RAD  2  15   2  28   2
M  END
