Coordinates from ORCA-job p-NO2-Ph-N2-OTs-B3LYPG-6-31G_dp-scan-d09-49-n400
 OpenBabel08281821283D

 33 33  0  0  0  0  0  0  0  0999 V2000
   -1.2667    0.4722   -1.7804 C   0  0  0  0  0  0  0  0  0  0  0  0
   -0.5209    1.5424   -1.3068 C   0  0  0  0  0  0  0  0  0  0  0  0
    0.7198    1.8642   -1.8867 C   0  0  0  0  0  0  0  0  0  0  0  0
    1.2093    1.1093   -2.9705 C   0  0  0  0  0  0  0  0  0  0  0  0
    0.4573    0.0429   -3.4533 C   0  0  0  0  0  0  0  0  0  0  0  0
   -0.7612   -0.2627   -2.8512 C   0  0  0  0  0  0  0  0  0  0  0  0
   -2.2206    0.2016   -1.3473 H   0  0  0  0  0  0  0  0  0  0  0  0
   -0.8747    2.1503   -0.4815 H   0  0  0  0  0  0  0  0  0  0  0  0
    2.1554    1.3527   -3.4292 H   0  0  0  0  0  0  0  0  0  0  0  0
    0.8021   -0.5555   -4.2874 H   0  0  0  0  0  0  0  0  0  0  0  0
   -1.5431   -1.4016   -3.3659 N   0  0  0  0  0  0  0  0  0  0  0  0
   -1.0712   -2.0356   -4.3078 O   0  0  0  0  0  0  0  0  0  0  0  0
   -2.6169   -1.6449   -2.8185 O   0  0  0  0  0  0  0  0  0  0  0  0
    1.3280    2.9918   -1.2764 N   0  0  0  0  0  0  0  0  0  0  0  0
    2.4572    3.4042   -1.5050 N   0  0  0  0  0  0  0  0  0  0  0  0
    6.0572    1.3321   -2.5817 C   0  0  0  0  0  0  0  0  0  0  0  0
    6.7112    0.3126   -3.2676 C   0  0  0  0  0  0  0  0  0  0  0  0
    7.0304    0.4464   -4.6288 C   0  0  0  0  0  0  0  0  0  0  0  0
    6.6800    1.6352   -5.2865 C   0  0  0  0  0  0  0  0  0  0  0  0
    6.0229    2.6640   -4.6148 C   0  0  0  0  0  0  0  0  0  0  0  0
    5.7090    2.5015   -3.2654 C   0  0  0  0  0  0  0  0  0  0  0  0
    5.8181    1.2164   -1.5275 H   0  0  0  0  0  0  0  0  0  0  0  0
    6.9840   -0.5984   -2.7414 H   0  0  0  0  0  0  0  0  0  0  0  0
    6.9319    1.7575   -6.3365 H   0  0  0  0  0  0  0  0  0  0  0  0
    5.7591    3.5910   -5.1142 H   0  0  0  0  0  0  0  0  0  0  0  0
    4.9569    3.8563   -2.3323 S   0  0  2  0  0  0  0  0  0  0  0  0
    3.2881    5.0413   -0.6320 O   0  0  0  0  0  0  0  0  0  0  0  0
    3.3160    2.8491   -2.3597 O   0  0  0  0  0  0  0  0  0  0  0  0
    4.8488    4.9689   -3.2965 O   0  0  0  0  0  0  0  0  0  0  0  0
    7.7216   -0.6732   -5.3676 C   0  0  0  0  0  0  0  0  0  0  0  0
    8.4732   -1.1623   -4.7404 H   0  0  0  0  0  0  0  0  0  0  0  0
    7.0012   -1.4431   -5.6702 H   0  0  0  0  0  0  0  0  0  0  0  0
    8.2148   -0.3115   -6.2734 H   0  0  0  0  0  0  0  0  0  0  0  0
  1  7  1  0  0  0  0
  1  2  1  0  0  0  0
  2  8  1  0  0  0  0
  3  2  2  0  0  0  0
  3 14  1  0  0  0  0
  4  3  1  0  0  0  0
  5  4  2  0  0  0  0
  5  6  1  0  0  0  0
  6  1  2  0  0  0  0
  9  4  1  0  0  0  0
 10  5  1  0  0  0  0
 11  6  1  0  0  0  0
 11 13  2  0  0  0  0
 12 11  2  0  0  0  0
 15 14  2  0  0  0  0
 16 22  1  0  0  0  0
 17 23  1  0  0  0  0
 17 16  2  0  0  0  0
 18 17  1  0  0  0  0
 19 18  2  0  0  0  0
 19 20  1  0  0  0  0
 20 21  2  0  0  0  0
 21 16  1  0  0  0  0
 21 26  1  0  0  0  0
 24 19  1  0  0  0  0
 25 20  1  0  0  0  0
 26 29  1  6  0  0  0
 28 26  1  0  0  0  0
 28 15  1  0  0  0  0
 30 31  1  0  0  0  0
 30 18  1  0  0  0  0
 32 30  1  0  0  0  0
 33 30  1  0  0  0  0
M  RAD  2  27   3  29   2
M  END
