Coordinates from ORCA-job p-NO2-Ph-N2-OTs-B3LYPG-6-31G_dp-scan-d09-49-n400
 OpenBabel08281821283D

 33 33  0  0  0  0  0  0  0  0999 V2000
   -1.2203    0.4146   -1.7458 C   0  0  0  0  0  0  0  0  0  0  0  0
   -0.4724    1.4738   -1.2504 C   0  0  0  0  0  0  0  0  0  0  0  0
    0.7334    1.8508   -1.8685 C   0  0  0  0  0  0  0  0  0  0  0  0
    1.1840    1.1662   -3.0139 C   0  0  0  0  0  0  0  0  0  0  0  0
    0.4284    0.1130   -3.5198 C   0  0  0  0  0  0  0  0  0  0  0  0
   -0.7536   -0.2501   -2.8781 C   0  0  0  0  0  0  0  0  0  0  0  0
   -2.1476    0.1015   -1.2844 H   0  0  0  0  0  0  0  0  0  0  0  0
   -0.7986    2.0306   -0.3792 H   0  0  0  0  0  0  0  0  0  0  0  0
    2.1024    1.4536   -3.5022 H   0  0  0  0  0  0  0  0  0  0  0  0
    0.7429   -0.4315   -4.4012 H   0  0  0  0  0  0  0  0  0  0  0  0
   -1.5391   -1.3756   -3.4176 N   0  0  0  0  0  0  0  0  0  0  0  0
   -1.1029   -1.9463   -4.4155 O   0  0  0  0  0  0  0  0  0  0  0  0
   -2.5793   -1.6718   -2.8329 O   0  0  0  0  0  0  0  0  0  0  0  0
    1.3471    2.9630   -1.2308 N   0  0  0  0  0  0  0  0  0  0  0  0
    2.4631    3.4077   -1.4566 N   0  0  0  0  0  0  0  0  0  0  0  0
    6.0371    1.3434   -2.5819 C   0  0  0  0  0  0  0  0  0  0  0  0
    6.7079    0.3193   -3.2443 C   0  0  0  0  0  0  0  0  0  0  0  0
    7.0288    0.4280   -4.6074 C   0  0  0  0  0  0  0  0  0  0  0  0
    6.6620    1.5961   -5.2919 C   0  0  0  0  0  0  0  0  0  0  0  0
    5.9881    2.6298   -4.6442 C   0  0  0  0  0  0  0  0  0  0  0  0
    5.6728    2.4910   -3.2930 C   0  0  0  0  0  0  0  0  0  0  0  0
    5.7971    1.2475   -1.5261 H   0  0  0  0  0  0  0  0  0  0  0  0
    6.9931   -0.5755   -2.6974 H   0  0  0  0  0  0  0  0  0  0  0  0
    6.9148    1.6995   -6.3437 H   0  0  0  0  0  0  0  0  0  0  0  0
    5.7125    3.5423   -5.1637 H   0  0  0  0  0  0  0  0  0  0  0  0
    4.9027    3.8624   -2.4005 S   0  0  2  0  0  0  0  0  0  0  0  0
    3.4107    5.2118   -0.5185 O   0  0  0  0  0  0  0  0  0  0  0  0
    3.3018    2.8617   -2.3624 O   0  0  0  0  0  0  0  0  0  0  0  0
    4.7572    4.9442   -3.3952 O   0  0  0  0  0  0  0  0  0  0  0  0
    7.7406   -0.6964   -5.3193 C   0  0  0  0  0  0  0  0  0  0  0  0
    8.4998   -1.1574   -4.6801 H   0  0  0  0  0  0  0  0  0  0  0  0
    7.0344   -1.4857   -5.6049 H   0  0  0  0  0  0  0  0  0  0  0  0
    8.2290   -0.3470   -6.2326 H   0  0  0  0  0  0  0  0  0  0  0  0
  1  7  1  0  0  0  0
  1  2  1  0  0  0  0
  2  8  1  0  0  0  0
  3  2  2  0  0  0  0
  3 14  1  0  0  0  0
  4  3  1  0  0  0  0
  5  4  2  0  0  0  0
  5  6  1  0  0  0  0
  6  1  2  0  0  0  0
  9  4  1  0  0  0  0
 10  5  1  0  0  0  0
 11  6  1  0  0  0  0
 11 13  2  0  0  0  0
 12 11  2  0  0  0  0
 15 14  2  0  0  0  0
 16 22  1  0  0  0  0
 17 23  1  0  0  0  0
 17 16  1  0  0  0  0
 18 17  2  0  0  0  0
 19 20  2  0  0  0  0
 19 18  1  0  0  0  0
 20 21  1  0  0  0  0
 21 16  2  0  0  0  0
 21 26  1  0  0  0  0
 24 19  1  0  0  0  0
 25 20  1  0  0  0  0
 26 29  1  6  0  0  0
 26 28  1  0  0  0  0
 28 15  1  0  0  0  0
 30 31  1  0  0  0  0
 30 18  1  0  0  0  0
 32 30  1  0  0  0  0
 33 30  1  0  0  0  0
M  RAD  2  27   3  29   2
M  END
