Coordinates from ORCA-job p-NO2-Ph-N2-OTs-B3LYPG-6-31G_dp-scan-d09-49-n400
 OpenBabel08281821283D

 33 34  0  0  0  0  0  0  0  0999 V2000
   -1.1221    0.4036   -1.7196 C   0  0  0  0  0  0  0  0  0  0  0  0
   -0.4212    1.5042   -1.2514 C   0  0  0  0  0  0  0  0  0  0  0  0
    0.7512    1.9463   -1.8991 C   0  0  0  0  0  0  0  0  0  0  0  0
    1.1986    1.2766   -3.0576 C   0  0  0  0  0  0  0  0  0  0  0  0
    0.4879    0.1820   -3.5361 C   0  0  0  0  0  0  0  0  0  0  0  0
   -0.6537   -0.2459   -2.8611 C   0  0  0  0  0  0  0  0  0  0  0  0
   -2.0179    0.0454   -1.2294 H   0  0  0  0  0  0  0  0  0  0  0  0
   -0.7561    2.0471   -0.3749 H   0  0  0  0  0  0  0  0  0  0  0  0
    2.0816    1.6105   -3.5805 H   0  0  0  0  0  0  0  0  0  0  0  0
    0.8064   -0.3466   -4.4258 H   0  0  0  0  0  0  0  0  0  0  0  0
   -1.3879   -1.4136   -3.3705 N   0  0  0  0  0  0  0  0  0  0  0  0
   -0.9492   -1.9689   -4.3772 O   0  0  0  0  0  0  0  0  0  0  0  0
   -2.3960   -1.7627   -2.7574 O   0  0  0  0  0  0  0  0  0  0  0  0
    1.3002    3.0874   -1.2875 N   0  0  0  0  0  0  0  0  0  0  0  0
    2.4398    3.5284   -1.5165 N   0  0  0  0  0  0  0  0  0  0  0  0
    5.9836    1.3071   -2.5625 C   0  0  0  0  0  0  0  0  0  0  0  0
    6.6192    0.2740   -3.2451 C   0  0  0  0  0  0  0  0  0  0  0  0
    6.9648    0.4071   -4.6000 C   0  0  0  0  0  0  0  0  0  0  0  0
    6.6599    1.6093   -5.2554 C   0  0  0  0  0  0  0  0  0  0  0  0
    6.0219    2.6530   -4.5876 C   0  0  0  0  0  0  0  0  0  0  0  0
    5.6817    2.4894   -3.2454 C   0  0  0  0  0  0  0  0  0  0  0  0
    5.7225    1.1914   -1.5138 H   0  0  0  0  0  0  0  0  0  0  0  0
    6.8560   -0.6479   -2.7206 H   0  0  0  0  0  0  0  0  0  0  0  0
    6.9321    1.7310   -6.3002 H   0  0  0  0  0  0  0  0  0  0  0  0
    5.7936    3.5909   -5.0843 H   0  0  0  0  0  0  0  0  0  0  0  0
    4.9532    3.8650   -2.3268 S   0  0  2  0  0  0  0  0  0  0  0  0
    2.9604    4.7341   -0.8530 O   0  0  0  0  0  0  0  0  0  0  0  0
    3.3178    2.9423   -2.3739 O   0  0  0  0  0  0  0  0  0  0  0  0
    4.8947    4.9925   -3.2796 O   0  0  0  0  0  0  0  0  0  0  0  0
    7.6366   -0.7275   -5.3339 C   0  0  0  0  0  0  0  0  0  0  0  0
    8.3808   -1.2254   -4.7047 H   0  0  0  0  0  0  0  0  0  0  0  0
    6.9033   -1.4871   -5.6311 H   0  0  0  0  0  0  0  0  0  0  0  0
    8.1348   -0.3785   -6.2419 H   0  0  0  0  0  0  0  0  0  0  0  0
  1  2  1  0  0  0  0
  1  7  1  0  0  0  0
  2  8  1  0  0  0  0
  3 14  1  0  0  0  0
  3  2  2  0  0  0  0
  4  3  1  0  0  0  0
  5  4  2  0  0  0  0
  5  6  1  0  0  0  0
  6  1  2  0  0  0  0
  9  4  1  0  0  0  0
 10  5  1  0  0  0  0
 11  6  1  0  0  0  0
 11 13  2  0  0  0  0
 12 11  2  0  0  0  0
 15 14  1  0  0  0  0
 15 27  1  0  0  0  0
 16 22  1  0  0  0  0
 17 23  1  0  0  0  0
 17 16  2  0  0  0  0
 18 17  1  0  0  0  0
 19 18  2  0  0  0  0
 19 20  1  0  0  0  0
 20 21  2  0  0  0  0
 21 16  1  0  0  0  0
 21 26  1  0  0  0  0
 24 19  1  0  0  0  0
 25 20  1  0  0  0  0
 26 29  1  6  0  0  0
 28 26  1  0  0  0  0
 28 15  1  0  0  0  0
 30 31  1  0  0  0  0
 30 18  1  0  0  0  0
 32 30  1  0  0  0  0
 33 30  1  0  0  0  0
M  RAD  3  14   2  27   2  29   2
M  END
