Coordinates from ORCA-job p-NO2-Ph-N2-OTs-B3LYPG-6-31G_dp-scan-d09-49-n400
 OpenBabel08281821283D

 33 33  0  0  0  0  0  0  0  0999 V2000
   -1.8369   -0.1020   -3.3840 C   0  0  0  0  0  0  0  0  0  0  0  0
   -0.5909   -0.7028   -3.5106 C   0  0  0  0  0  0  0  0  0  0  0  0
    0.5206   -0.0866   -2.9210 C   0  0  0  0  0  0  0  0  0  0  0  0
    0.4292    1.1096   -2.1919 C   0  0  0  0  0  0  0  0  0  0  0  0
   -0.8250    1.6974   -2.0641 C   0  0  0  0  0  0  0  0  0  0  0  0
   -1.9264    1.0856   -2.6601 C   0  0  0  0  0  0  0  0  0  0  0  0
   -2.7274   -0.5312   -3.8238 H   0  0  0  0  0  0  0  0  0  0  0  0
   -0.4663   -1.6305   -4.0568 H   0  0  0  0  0  0  0  0  0  0  0  0
    1.3196    1.5441   -1.7557 H   0  0  0  0  0  0  0  0  0  0  0  0
   -0.9563    2.6226   -1.5176 H   0  0  0  0  0  0  0  0  0  0  0  0
   -3.2565    1.7218   -2.5142 N   0  0  0  0  0  0  0  0  0  0  0  0
   -3.3159    2.7558   -1.8567 O   0  0  0  0  0  0  0  0  0  0  0  0
   -4.2063    1.1661   -3.0596 O   0  0  0  0  0  0  0  0  0  0  0  0
    1.7498   -0.7520   -3.0811 N   0  0  0  0  0  0  0  0  0  0  0  0
    2.8923   -0.6995   -2.9412 N   0  0  0  0  0  0  0  0  0  0  0  0
    6.4904    2.2853   -2.5510 C   0  0  0  0  0  0  0  0  0  0  0  0
    7.8423    2.0486   -2.7880 C   0  0  0  0  0  0  0  0  0  0  0  0
    8.2672    1.3309   -3.9162 C   0  0  0  0  0  0  0  0  0  0  0  0
    7.2969    0.8624   -4.8125 C   0  0  0  0  0  0  0  0  0  0  0  0
    5.9393    1.0887   -4.5888 C   0  0  0  0  0  0  0  0  0  0  0  0
    5.5440    1.7959   -3.4535 C   0  0  0  0  0  0  0  0  0  0  0  0
    6.1666    2.8576   -1.6883 H   0  0  0  0  0  0  0  0  0  0  0  0
    8.5817    2.4336   -2.0907 H   0  0  0  0  0  0  0  0  0  0  0  0
    7.6085    0.3211   -5.7023 H   0  0  0  0  0  0  0  0  0  0  0  0
    5.1896    0.7432   -5.2917 H   0  0  0  0  0  0  0  0  0  0  0  0
    3.8030    2.0769   -3.1407 S   0  0  0  0  0  0  0  0  0  0  0  0
    3.6714    3.3912   -2.4935 O   0  0  0  0  0  0  0  0  0  0  0  0
    3.4088    0.9775   -2.0856 O   0  0  0  0  0  0  0  0  0  0  0  0
    3.0717    1.8201   -4.3953 O   0  0  0  0  0  0  0  0  0  0  0  0
    9.7336    1.0551   -4.1489 C   0  0  0  0  0  0  0  0  0  0  0  0
   10.3628    1.8364   -3.7126 H   0  0  0  0  0  0  0  0  0  0  0  0
   10.0322    0.1040   -3.6903 H   0  0  0  0  0  0  0  0  0  0  0  0
    9.9648    0.9875   -5.2160 H   0  0  0  0  0  0  0  0  0  0  0  0
  1  6  1  0  0  0  0
  2  1  2  0  0  0  0
  2  3  1  0  0  0  0
  3  4  2  0  0  0  0
  4  5  1  0  0  0  0
  4  9  1  0  0  0  0
  5 10  1  0  0  0  0
  6 11  1  0  0  0  0
  6  5  2  0  0  0  0
  7  1  1  0  0  0  0
  8  2  1  0  0  0  0
 11 12  2  0  0  0  0
 13 11  2  0  0  0  0
 14 15  2  0  0  0  0
 14  3  1  0  0  0  0
 16 22  1  0  0  0  0
 17 16  1  0  0  0  0
 17 23  1  0  0  0  0
 18 17  2  0  0  0  0
 19 20  2  0  0  0  0
 19 18  1  0  0  0  0
 20 21  1  0  0  0  0
 21 26  1  0  0  0  0
 21 16  2  0  0  0  0
 24 19  1  0  0  0  0
 25 20  1  0  0  0  0
 26 27  2  0  0  0  0
 26 28  1  0  0  0  0
 29 26  2  0  0  0  0
 30 18  1  0  0  0  0
 30 31  1  0  0  0  0
 30 32  1  0  0  0  0
 33 30  1  0  0  0  0
M  RAD  2  15   2  28   2
M  END
