Coordinates from ORCA-job p-NO2-Ph-N2-OTs-B3LYPG-6-31G_dp-scan-d09-49-n400
 OpenBabel08281821283D

 33 34  0  0  0  0  0  0  0  0999 V2000
   -1.2183   -0.5186   -1.9193 C   0  0  0  0  0  0  0  0  0  0  0  0
    0.1545   -0.4667   -1.7175 C   0  0  0  0  0  0  0  0  0  0  0  0
    0.9056    0.5787   -2.2796 C   0  0  0  0  0  0  0  0  0  0  0  0
    0.2964    1.5867   -3.0505 C   0  0  0  0  0  0  0  0  0  0  0  0
   -1.0799    1.5288   -3.2493 C   0  0  0  0  0  0  0  0  0  0  0  0
   -1.8091    0.4843   -2.6852 C   0  0  0  0  0  0  0  0  0  0  0  0
   -1.8298   -1.3085   -1.5029 H   0  0  0  0  0  0  0  0  0  0  0  0
    0.6632   -1.2233   -1.1308 H   0  0  0  0  0  0  0  0  0  0  0  0
    0.8934    2.3821   -3.4722 H   0  0  0  0  0  0  0  0  0  0  0  0
   -1.5928    2.2817   -3.8348 H   0  0  0  0  0  0  0  0  0  0  0  0
   -3.2707    0.4349   -2.9088 N   0  0  0  0  0  0  0  0  0  0  0  0
   -3.7693    1.3314   -3.5833 O   0  0  0  0  0  0  0  0  0  0  0  0
   -3.8863   -0.4989   -2.4003 O   0  0  0  0  0  0  0  0  0  0  0  0
    2.2861    0.5076   -1.9993 N   0  0  0  0  0  0  0  0  0  0  0  0
    3.2764    1.1095   -2.2246 N   0  0  0  0  0  0  0  0  0  0  0  0
    6.4726    2.2419   -2.6282 C   0  0  0  0  0  0  0  0  0  0  0  0
    7.5816    1.4103   -2.7694 C   0  0  0  0  0  0  0  0  0  0  0  0
    7.8466    0.7533   -3.9797 C   0  0  0  0  0  0  0  0  0  0  0  0
    6.9738    0.9602   -5.0584 C   0  0  0  0  0  0  0  0  0  0  0  0
    5.8605    1.7882   -4.9363 C   0  0  0  0  0  0  0  0  0  0  0  0
    5.6158    2.4188   -3.7150 C   0  0  0  0  0  0  0  0  0  0  0  0
    6.2770    2.7633   -1.6977 H   0  0  0  0  0  0  0  0  0  0  0  0
    8.2565    1.2747   -1.9281 H   0  0  0  0  0  0  0  0  0  0  0  0
    7.1750    0.4741   -6.0091 H   0  0  0  0  0  0  0  0  0  0  0  0
    5.1984    1.9655   -5.7769 H   0  0  0  0  0  0  0  0  0  0  0  0
    4.1935    3.4884   -3.5561 S   0  0  0  0  0  0  0  0  0  0  0  0
    4.4244    4.4053   -2.4378 O   0  0  0  0  0  0  0  0  0  0  0  0
    2.9673    2.4692   -3.2222 O   0  0  0  0  0  0  0  0  0  0  0  0
    3.8562    4.0192   -4.8784 O   0  0  0  0  0  0  0  0  0  0  0  0
    9.0337   -0.1697   -4.1137 C   0  0  0  0  0  0  0  0  0  0  0  0
    9.8625    0.1477   -3.4745 H   0  0  0  0  0  0  0  0  0  0  0  0
    8.7690   -1.1932   -3.8189 H   0  0  0  0  0  0  0  0  0  0  0  0
    9.3946   -0.2120   -5.1453 H   0  0  0  0  0  0  0  0  0  0  0  0
  1  2  1  0  0  0  0
  1  7  1  0  0  0  0
  2  8  1  0  0  0  0
  3 14  1  0  0  0  0
  3  2  2  0  0  0  0
  4  3  1  0  0  0  0
  5  4  2  0  0  0  0
  5  6  1  0  0  0  0
  6  1  2  0  0  0  0
  9  4  1  0  0  0  0
 10  5  1  0  0  0  0
 11  6  1  0  0  0  0
 11 13  2  0  0  0  0
 12 11  2  0  0  0  0
 15 14  1  0  0  0  0
 16 22  1  0  0  0  0
 17 16  1  0  0  0  0
 17 23  1  0  0  0  0
 18 17  2  0  0  0  0
 19 20  2  0  0  0  0
 19 18  1  0  0  0  0
 20 21  1  0  0  0  0
 21 26  1  0  0  0  0
 21 16  2  0  0  0  0
 24 19  1  0  0  0  0
 25 20  1  0  0  0  0
 26 28  1  0  0  0  0
 26 27  2  0  0  0  0
 28 15  1  0  0  0  0
 29 26  2  0  0  0  0
 30 18  1  0  0  0  0
 30 32  1  0  0  0  0
 30 31  1  0  0  0  0
 33 30  1  0  0  0  0
M  RAD  2  14   2  15   2
M  END
