Coordinates from ORCA-job p-NO2-Ph-N2-OTs-B3LYPG-6-31G_dp-scan-d09-49-n400
 OpenBabel08281821283D

 33 33  0  0  0  0  0  0  0  0999 V2000
   -1.2007    0.3737   -1.7142 C   0  0  0  0  0  0  0  0  0  0  0  0
   -0.4387    1.4158   -1.2040 C   0  0  0  0  0  0  0  0  0  0  0  0
    0.7359    1.8313   -1.8563 C   0  0  0  0  0  0  0  0  0  0  0  0
    1.1386    1.2058   -3.0523 C   0  0  0  0  0  0  0  0  0  0  0  0
    0.3679    0.1707   -3.5729 C   0  0  0  0  0  0  0  0  0  0  0  0
   -0.7809   -0.2330   -2.8962 C   0  0  0  0  0  0  0  0  0  0  0  0
   -2.1042    0.0311   -1.2272 H   0  0  0  0  0  0  0  0  0  0  0  0
   -0.7298    1.9290   -0.2946 H   0  0  0  0  0  0  0  0  0  0  0  0
    2.0317    1.5245   -3.5672 H   0  0  0  0  0  0  0  0  0  0  0  0
    0.6460   -0.3289   -4.4922 H   0  0  0  0  0  0  0  0  0  0  0  0
   -1.5818   -1.3399   -3.4520 N   0  0  0  0  0  0  0  0  0  0  0  0
   -1.1865   -1.8600   -4.4935 O   0  0  0  0  0  0  0  0  0  0  0  0
   -2.5925   -1.6722   -2.8360 O   0  0  0  0  0  0  0  0  0  0  0  0
    1.3694    2.9193   -1.1953 N   0  0  0  0  0  0  0  0  0  0  0  0
    2.4750    3.3854   -1.4261 N   0  0  0  0  0  0  0  0  0  0  0  0
    6.0354    1.3596   -2.5870 C   0  0  0  0  0  0  0  0  0  0  0  0
    6.7318    0.3371   -3.2244 C   0  0  0  0  0  0  0  0  0  0  0  0
    7.0552    0.4225   -4.5889 C   0  0  0  0  0  0  0  0  0  0  0  0
    6.6642    1.5658   -5.3004 C   0  0  0  0  0  0  0  0  0  0  0  0
    5.9650    2.5989   -4.6778 C   0  0  0  0  0  0  0  0  0  0  0  0
    5.6474    2.4816   -3.3258 C   0  0  0  0  0  0  0  0  0  0  0  0
    5.7931    1.2821   -1.5303 H   0  0  0  0  0  0  0  0  0  0  0  0
    7.0353   -0.5386   -2.6566 H   0  0  0  0  0  0  0  0  0  0  0  0
    6.9179    1.6513   -6.3535 H   0  0  0  0  0  0  0  0  0  0  0  0
    5.6712    3.4936   -5.2180 H   0  0  0  0  0  0  0  0  0  0  0  0
    4.8420    3.8578   -2.4727 S   0  0  2  0  0  0  0  0  0  0  0  0
    3.5619    5.2876   -0.3893 O   0  0  0  0  0  0  0  0  0  0  0  0
    3.2852    2.8523   -2.3905 O   0  0  0  0  0  0  0  0  0  0  0  0
    4.6638    4.9130   -3.4919 O   0  0  0  0  0  0  0  0  0  0  0  0
    7.7977   -0.7005   -5.2711 C   0  0  0  0  0  0  0  0  0  0  0  0
    8.6038   -1.0876   -4.6401 H   0  0  0  0  0  0  0  0  0  0  0  0
    7.1246   -1.5391   -5.4871 H   0  0  0  0  0  0  0  0  0  0  0  0
    8.2331   -0.3753   -6.2192 H   0  0  0  0  0  0  0  0  0  0  0  0
  1  7  1  0  0  0  0
  1  2  1  0  0  0  0
  2  8  1  0  0  0  0
  3  2  2  0  0  0  0
  3 14  1  0  0  0  0
  4  3  1  0  0  0  0
  5  4  2  0  0  0  0
  5  6  1  0  0  0  0
  6  1  2  0  0  0  0
  9  4  1  0  0  0  0
 10  5  1  0  0  0  0
 11  6  1  0  0  0  0
 11 13  2  0  0  0  0
 12 11  2  0  0  0  0
 15 14  2  0  0  0  0
 16 22  1  0  0  0  0
 17 23  1  0  0  0  0
 17 16  1  0  0  0  0
 18 17  2  0  0  0  0
 19 20  2  0  0  0  0
 19 18  1  0  0  0  0
 20 21  1  0  0  0  0
 21 16  2  0  0  0  0
 21 26  1  0  0  0  0
 24 19  1  0  0  0  0
 25 20  1  0  0  0  0
 26 29  1  6  0  0  0
 26 28  1  0  0  0  0
 28 15  1  0  0  0  0
 30 31  1  0  0  0  0
 30 18  1  0  0  0  0
 32 30  1  0  0  0  0
 33 30  1  0  0  0  0
M  RAD  2  27   3  29   2
M  END
