Coordinates from ORCA-job p-NO2-Ph-N2-OTs-B3LYPG-6-31G_dp-scan-d09-49-n400
 OpenBabel08281821283D

 33 33  0  0  0  0  0  0  0  0999 V2000
   -1.2631    0.4681   -1.7788 C   0  0  0  0  0  0  0  0  0  0  0  0
   -0.5174    1.5374   -1.3031 C   0  0  0  0  0  0  0  0  0  0  0  0
    0.7213    1.8629   -1.8851 C   0  0  0  0  0  0  0  0  0  0  0  0
    1.2089    1.1128   -2.9730 C   0  0  0  0  0  0  0  0  0  0  0  0
    0.4569    0.0474   -3.4580 C   0  0  0  0  0  0  0  0  0  0  0  0
   -0.7596   -0.2620   -2.8537 C   0  0  0  0  0  0  0  0  0  0  0  0
   -2.2155    0.1946   -1.3442 H   0  0  0  0  0  0  0  0  0  0  0  0
   -0.8698    2.1418   -0.4747 H   0  0  0  0  0  0  0  0  0  0  0  0
    2.1535    1.3591   -3.4333 H   0  0  0  0  0  0  0  0  0  0  0  0
    0.8001   -0.5474   -4.2953 H   0  0  0  0  0  0  0  0  0  0  0  0
   -1.5416   -1.4000   -3.3707 N   0  0  0  0  0  0  0  0  0  0  0  0
   -1.0714   -2.0299   -4.3162 O   0  0  0  0  0  0  0  0  0  0  0  0
   -2.6136   -1.6466   -2.8214 O   0  0  0  0  0  0  0  0  0  0  0  0
    1.3296    2.9895   -1.2724 N   0  0  0  0  0  0  0  0  0  0  0  0
    2.4577    3.4050   -1.5003 N   0  0  0  0  0  0  0  0  0  0  0  0
    6.0555    1.3333   -2.5815 C   0  0  0  0  0  0  0  0  0  0  0  0
    6.7104    0.3132   -3.2658 C   0  0  0  0  0  0  0  0  0  0  0  0
    7.0292    0.4448   -4.6272 C   0  0  0  0  0  0  0  0  0  0  0  0
    6.6775    1.6320   -5.2871 C   0  0  0  0  0  0  0  0  0  0  0  0
    6.0195    2.6614   -4.6171 C   0  0  0  0  0  0  0  0  0  0  0  0
    5.7060    2.5010   -3.2674 C   0  0  0  0  0  0  0  0  0  0  0  0
    5.8168    1.2193   -1.5271 H   0  0  0  0  0  0  0  0  0  0  0  0
    6.9842   -0.5965   -2.7379 H   0  0  0  0  0  0  0  0  0  0  0  0
    6.9291    1.7527   -6.3373 H   0  0  0  0  0  0  0  0  0  0  0  0
    5.7548    3.5873   -5.1181 H   0  0  0  0  0  0  0  0  0  0  0  0
    4.9530    3.8574   -2.3375 S   0  0  2  0  0  0  0  0  0  0  0  0
    3.2987    5.0580   -0.6203 O   0  0  0  0  0  0  0  0  0  0  0  0
    3.3152    2.8508   -2.3589 O   0  0  0  0  0  0  0  0  0  0  0  0
    4.8415    4.9674   -3.3043 O   0  0  0  0  0  0  0  0  0  0  0  0
    7.7214   -0.6755   -5.3642 C   0  0  0  0  0  0  0  0  0  0  0  0
    8.4734   -1.1628   -4.7361 H   0  0  0  0  0  0  0  0  0  0  0  0
    7.0017   -1.4465   -5.6655 H   0  0  0  0  0  0  0  0  0  0  0  0
    8.2144   -0.3148   -6.2705 H   0  0  0  0  0  0  0  0  0  0  0  0
  1  7  1  0  0  0  0
  1  2  1  0  0  0  0
  2  8  1  0  0  0  0
  3  2  2  0  0  0  0
  3 14  1  0  0  0  0
  4  3  1  0  0  0  0
  5  4  2  0  0  0  0
  5  6  1  0  0  0  0
  6  1  2  0  0  0  0
  9  4  1  0  0  0  0
 10  5  1  0  0  0  0
 11  6  1  0  0  0  0
 11 13  2  0  0  0  0
 12 11  2  0  0  0  0
 15 14  2  0  0  0  0
 16 22  1  0  0  0  0
 17 23  1  0  0  0  0
 17 16  2  0  0  0  0
 18 17  1  0  0  0  0
 19 18  2  0  0  0  0
 19 20  1  0  0  0  0
 20 21  2  0  0  0  0
 21 16  1  0  0  0  0
 21 26  1  0  0  0  0
 24 19  1  0  0  0  0
 25 20  1  0  0  0  0
 26 29  1  6  0  0  0
 28 26  1  0  0  0  0
 28 15  1  0  0  0  0
 30 31  1  0  0  0  0
 30 18  1  0  0  0  0
 32 30  1  0  0  0  0
 33 30  1  0  0  0  0
M  RAD  2  27   3  29   2
M  END
