Coordinates from ORCA-job p-NO2-Ph-N2-OTs-B3LYPG-6-31G_dp-scan-d09-49-n400
 OpenBabel08281821283D

 33 34  0  0  0  0  0  0  0  0999 V2000
   -0.5211    0.0419   -1.8290 C   0  0  0  0  0  0  0  0  0  0  0  0
    0.1245    1.0160   -1.0770 C   0  0  0  0  0  0  0  0  0  0  0  0
    0.8443    2.0400   -1.7113 C   0  0  0  0  0  0  0  0  0  0  0  0
    0.8727    2.1165   -3.1159 C   0  0  0  0  0  0  0  0  0  0  0  0
    0.2182    1.1516   -3.8697 C   0  0  0  0  0  0  0  0  0  0  0  0
   -0.4620    0.1217   -3.2188 C   0  0  0  0  0  0  0  0  0  0  0  0
   -1.0687   -0.7673   -1.3628 H   0  0  0  0  0  0  0  0  0  0  0  0
    0.0856    0.9964    0.0069 H   0  0  0  0  0  0  0  0  0  0  0  0
    1.4042    2.9222   -3.6080 H   0  0  0  0  0  0  0  0  0  0  0  0
    0.2240    1.1829   -4.9523 H   0  0  0  0  0  0  0  0  0  0  0  0
   -1.1415   -0.9027   -4.0220 N   0  0  0  0  0  0  0  0  0  0  0  0
   -1.0690   -0.8092   -5.2475 O   0  0  0  0  0  0  0  0  0  0  0  0
   -1.7403   -1.7952   -3.4215 O   0  0  0  0  0  0  0  0  0  0  0  0
    1.3748    3.0346   -0.8607 N   0  0  0  0  0  0  0  0  0  0  0  0
    2.5391    3.4866   -1.0233 N   0  0  0  0  0  0  0  0  0  0  0  0
    6.3133    1.7258   -2.5482 C   0  0  0  0  0  0  0  0  0  0  0  0
    7.0673    0.6534   -3.0176 C   0  0  0  0  0  0  0  0  0  0  0  0
    6.9453    0.2067   -4.3428 C   0  0  0  0  0  0  0  0  0  0  0  0
    6.0510    0.8711   -5.1957 C   0  0  0  0  0  0  0  0  0  0  0  0
    5.2885    1.9460   -4.7442 C   0  0  0  0  0  0  0  0  0  0  0  0
    5.4212    2.3551   -3.4187 C   0  0  0  0  0  0  0  0  0  0  0  0
    6.4150    2.0609   -1.5199 H   0  0  0  0  0  0  0  0  0  0  0  0
    7.7633    0.1556   -2.3479 H   0  0  0  0  0  0  0  0  0  0  0  0
    5.9536    0.5435   -6.2273 H   0  0  0  0  0  0  0  0  0  0  0  0
    4.6025    2.4742   -5.3990 H   0  0  0  0  0  0  0  0  0  0  0  0
    4.4912    3.7935   -2.8495 S   0  0  2  0  0  0  0  0  0  0  0  0
    3.0503    4.3971   -0.4721 O   0  0  0  0  0  0  0  0  0  0  0  0
    3.4034    2.7198   -1.9689 O   0  0  0  0  0  0  0  0  0  0  0  0
    3.7400    4.3260   -4.0186 O   0  0  0  0  0  0  0  0  0  0  0  0
    7.7445   -0.9754   -4.8343 C   0  0  0  0  0  0  0  0  0  0  0  0
    8.6811   -1.0848   -4.2816 H   0  0  0  0  0  0  0  0  0  0  0  0
    7.1782   -1.9067   -4.7076 H   0  0  0  0  0  0  0  0  0  0  0  0
    7.9837   -0.8831   -5.8975 H   0  0  0  0  0  0  0  0  0  0  0  0
  1  7  1  0  0  0  0
  1  2  2  0  0  0  0
  2  8  1  0  0  0  0
  3  2  1  0  0  0  0
  3 14  1  0  0  0  0
  4  3  2  0  0  0  0
  5  6  2  0  0  0  0
  5  4  1  0  0  0  0
  6  1  1  0  0  0  0
  9  4  1  0  0  0  0
 10  5  1  0  0  0  0
 11 13  2  0  0  0  0
 11  6  1  0  0  0  0
 12 11  2  0  0  0  0
 15 14  1  0  0  0  0
 15 27  1  0  0  0  0
 16 22  1  0  0  0  0
 17 16  1  0  0  0  0
 17 23  1  0  0  0  0
 18 17  2  0  0  0  0
 19 20  2  0  0  0  0
 19 18  1  0  0  0  0
 20 21  1  0  0  0  0
 21 26  1  0  0  0  0
 21 16  2  0  0  0  0
 24 19  1  0  0  0  0
 25 20  1  0  0  0  0
 26 29  1  6  0  0  0
 26 28  1  0  0  0  0
 28 15  1  0  0  0  0
 30 32  1  0  0  0  0
 30 18  1  0  0  0  0
 30 31  1  0  0  0  0
 33 30  1  0  0  0  0
M  RAD  3  14   2  27   2  29   2
M  END
