Coordinates from ORCA-job p-NO2-Ph-N2-OTs-B3LYPG-6-31G_dp-scan-d09-49-n400
 OpenBabel08281821283D

 33 33  0  0  0  0  0  0  0  0999 V2000
   -1.7706   -0.1145   -3.4232 C   0  0  0  0  0  0  0  0  0  0  0  0
   -0.5246   -0.7267   -3.4716 C   0  0  0  0  0  0  0  0  0  0  0  0
    0.5592   -0.1004   -2.8434 C   0  0  0  0  0  0  0  0  0  0  0  0
    0.4415    1.1143   -2.1501 C   0  0  0  0  0  0  0  0  0  0  0  0
   -0.8131    1.7122   -2.0992 C   0  0  0  0  0  0  0  0  0  0  0  0
   -1.8874    1.0919   -2.7349 C   0  0  0  0  0  0  0  0  0  0  0  0
   -2.6414   -0.5492   -3.8959 H   0  0  0  0  0  0  0  0  0  0  0  0
   -0.3802   -1.6691   -3.9866 H   0  0  0  0  0  0  0  0  0  0  0  0
    1.3131    1.5534   -1.6815 H   0  0  0  0  0  0  0  0  0  0  0  0
   -0.9648    2.6518   -1.5836 H   0  0  0  0  0  0  0  0  0  0  0  0
   -3.2187    1.7395   -2.6727 N   0  0  0  0  0  0  0  0  0  0  0  0
   -3.3037    2.7905   -2.0458 O   0  0  0  0  0  0  0  0  0  0  0  0
   -4.1437    1.1753   -3.2509 O   0  0  0  0  0  0  0  0  0  0  0  0
    1.7921   -0.7721   -2.9175 N   0  0  0  0  0  0  0  0  0  0  0  0
    2.9264   -0.7311   -2.7339 N   0  0  0  0  0  0  0  0  0  0  0  0
    6.4971    2.2373   -2.5018 C   0  0  0  0  0  0  0  0  0  0  0  0
    7.8388    1.9989   -2.7876 C   0  0  0  0  0  0  0  0  0  0  0  0
    8.2242    1.3296   -3.9594 C   0  0  0  0  0  0  0  0  0  0  0  0
    7.2240    0.9120   -4.8474 C   0  0  0  0  0  0  0  0  0  0  0  0
    5.8754    1.1400   -4.5743 C   0  0  0  0  0  0  0  0  0  0  0  0
    5.5197    1.7981   -3.3976 C   0  0  0  0  0  0  0  0  0  0  0  0
    6.2055    2.7718   -1.6040 H   0  0  0  0  0  0  0  0  0  0  0  0
    8.6015    2.3444   -2.0947 H   0  0  0  0  0  0  0  0  0  0  0  0
    7.5041    0.4088   -5.7695 H   0  0  0  0  0  0  0  0  0  0  0  0
    5.1018    0.8326   -5.2691 H   0  0  0  0  0  0  0  0  0  0  0  0
    3.7912    2.0849   -3.0238 S   0  0  0  0  0  0  0  0  0  0  0  0
    3.6837    3.4157   -2.4038 O   0  0  0  0  0  0  0  0  0  0  0  0
    3.4393    1.0068   -1.9372 O   0  0  0  0  0  0  0  0  0  0  0  0
    3.0142    1.8052   -4.2471 O   0  0  0  0  0  0  0  0  0  0  0  0
    9.6806    1.0507   -4.2454 C   0  0  0  0  0  0  0  0  0  0  0  0
   10.3287    1.8165   -3.8093 H   0  0  0  0  0  0  0  0  0  0  0  0
    9.9868    0.0864   -3.8206 H   0  0  0  0  0  0  0  0  0  0  0  0
    9.8776    1.0092   -5.3206 H   0  0  0  0  0  0  0  0  0  0  0  0
  1  6  1  0  0  0  0
  2  1  2  0  0  0  0
  2  3  1  0  0  0  0
  3  4  2  0  0  0  0
  4  5  1  0  0  0  0
  4  9  1  0  0  0  0
  5 10  1  0  0  0  0
  6 11  1  0  0  0  0
  6  5  2  0  0  0  0
  7  1  1  0  0  0  0
  8  2  1  0  0  0  0
 11 12  2  0  0  0  0
 13 11  2  0  0  0  0
 14  3  1  0  0  0  0
 14 15  2  0  0  0  0
 16 22  1  0  0  0  0
 17 16  1  0  0  0  0
 17 23  1  0  0  0  0
 18 17  2  0  0  0  0
 19 20  2  0  0  0  0
 19 18  1  0  0  0  0
 20 21  1  0  0  0  0
 21 26  1  0  0  0  0
 21 16  2  0  0  0  0
 24 19  1  0  0  0  0
 25 20  1  0  0  0  0
 26 27  2  0  0  0  0
 26 28  1  0  0  0  0
 29 26  2  0  0  0  0
 30 18  1  0  0  0  0
 30 32  1  0  0  0  0
 30 31  1  0  0  0  0
 33 30  1  0  0  0  0
M  RAD  2  15   2  28   2
M  END
