Coordinates from ORCA-job p-NO2-Ph-N2-OTs-B3LYPG-6-31G_dp-scan-d09-49-n400
 OpenBabel08281821283D

 33 33  0  0  0  0  0  0  0  0999 V2000
   -1.6601   -0.1343   -3.4967 C   0  0  0  0  0  0  0  0  0  0  0  0
   -0.4236   -0.7631   -3.4266 C   0  0  0  0  0  0  0  0  0  0  0  0
    0.6115   -0.1263   -2.7318 C   0  0  0  0  0  0  0  0  0  0  0  0
    0.4584    1.1087   -2.0838 C   0  0  0  0  0  0  0  0  0  0  0  0
   -0.7884    1.7204   -2.1501 C   0  0  0  0  0  0  0  0  0  0  0  0
   -1.8150    1.0931   -2.8542 C   0  0  0  0  0  0  0  0  0  0  0  0
   -2.4963   -0.5720   -4.0258 H   0  0  0  0  0  0  0  0  0  0  0  0
   -0.2513   -1.7220   -3.9010 H   0  0  0  0  0  0  0  0  0  0  0  0
    1.2987    1.5493   -1.5614 H   0  0  0  0  0  0  0  0  0  0  0  0
   -0.9688    2.6764   -1.6756 H   0  0  0  0  0  0  0  0  0  0  0  0
   -3.1386    1.7569   -2.9196 N   0  0  0  0  0  0  0  0  0  0  0  0
   -3.2597    2.8273   -2.3332 O   0  0  0  0  0  0  0  0  0  0  0  0
   -4.0210    1.1849   -3.5539 O   0  0  0  0  0  0  0  0  0  0  0  0
    1.8425   -0.7986   -2.6743 N   0  0  0  0  0  0  0  0  0  0  0  0
    2.9589   -0.7898   -2.4261 N   0  0  0  0  0  0  0  0  0  0  0  0
    6.5153    2.1752   -2.4303 C   0  0  0  0  0  0  0  0  0  0  0  0
    7.8350    1.9263   -2.7958 C   0  0  0  0  0  0  0  0  0  0  0  0
    8.1474    1.3227   -4.0243 C   0  0  0  0  0  0  0  0  0  0  0  0
    7.0957    0.9818   -4.8839 C   0  0  0  0  0  0  0  0  0  0  0  0
    5.7673    1.2218   -4.5304 C   0  0  0  0  0  0  0  0  0  0  0  0
    5.4840    1.8135   -3.3009 C   0  0  0  0  0  0  0  0  0  0  0  0
    6.2824    2.6581   -1.4873 H   0  0  0  0  0  0  0  0  0  0  0  0
    8.6382    2.2117   -2.1213 H   0  0  0  0  0  0  0  0  0  0  0  0
    7.3179    0.5292   -5.8470 H   0  0  0  0  0  0  0  0  0  0  0  0
    4.9528    0.9727   -5.2015 H   0  0  0  0  0  0  0  0  0  0  0  0
    3.7822    2.1231   -2.8282 S   0  0  0  0  0  0  0  0  0  0  0  0
    3.7266    3.4764   -2.2442 O   0  0  0  0  0  0  0  0  0  0  0  0
    3.4869    1.0675   -1.7152 O   0  0  0  0  0  0  0  0  0  0  0  0
    2.9352    1.8329   -4.0054 O   0  0  0  0  0  0  0  0  0  0  0  0
    9.5820    1.0339   -4.3980 C   0  0  0  0  0  0  0  0  0  0  0  0
   10.2569    1.8130   -4.0302 H   0  0  0  0  0  0  0  0  0  0  0  0
    9.9185    0.0839   -3.9642 H   0  0  0  0  0  0  0  0  0  0  0  0
    9.7066    0.9601   -5.4822 H   0  0  0  0  0  0  0  0  0  0  0  0
  1  2  2  0  0  0  0
  1  6  1  0  0  0  0
  2  3  1  0  0  0  0
  3 14  1  0  0  0  0
  3  4  2  0  0  0  0
  4  9  1  0  0  0  0
  5  4  1  0  0  0  0
  5 10  1  0  0  0  0
  6  5  2  0  0  0  0
  7  1  1  0  0  0  0
  8  2  1  0  0  0  0
 11  6  1  0  0  0  0
 11 12  2  0  0  0  0
 13 11  2  0  0  0  0
 14 15  2  0  0  0  0
 16 22  1  0  0  0  0
 17 16  1  0  0  0  0
 17 23  1  0  0  0  0
 18 17  2  0  0  0  0
 19 20  2  0  0  0  0
 19 18  1  0  0  0  0
 20 21  1  0  0  0  0
 21 26  1  0  0  0  0
 21 16  2  0  0  0  0
 24 19  1  0  0  0  0
 25 20  1  0  0  0  0
 26 27  2  0  0  0  0
 26 28  1  0  0  0  0
 29 26  2  0  0  0  0
 30 31  1  0  0  0  0
 30 18  1  0  0  0  0
 30 32  1  0  0  0  0
 33 30  1  0  0  0  0
M  RAD  2  15   2  28   2
M  END
