Coordinates from ORCA-job p-NO2-Ph-N2-OTs-B3LYPG-6-31G_dp-scan-d09-49-n400
 OpenBabel08281821283D

 33 34  0  0  0  0  0  0  0  0999 V2000
   -0.5133    0.0552   -1.8259 C   0  0  0  0  0  0  0  0  0  0  0  0
    0.1328    1.0175   -1.0587 C   0  0  0  0  0  0  0  0  0  0  0  0
    0.8184    2.0725   -1.6783 C   0  0  0  0  0  0  0  0  0  0  0  0
    0.8175    2.1922   -3.0792 C   0  0  0  0  0  0  0  0  0  0  0  0
    0.1672    1.2356   -3.8475 C   0  0  0  0  0  0  0  0  0  0  0  0
   -0.4841    0.1770   -3.2133 C   0  0  0  0  0  0  0  0  0  0  0  0
   -1.0368   -0.7770   -1.3729 H   0  0  0  0  0  0  0  0  0  0  0  0
    0.1188    0.9633    0.0246 H   0  0  0  0  0  0  0  0  0  0  0  0
    1.3335    3.0158   -3.5586 H   0  0  0  0  0  0  0  0  0  0  0  0
    0.1545    1.2963   -4.9287 H   0  0  0  0  0  0  0  0  0  0  0  0
   -1.1641   -0.8352   -4.0320 N   0  0  0  0  0  0  0  0  0  0  0  0
   -1.1191   -0.7056   -5.2553 O   0  0  0  0  0  0  0  0  0  0  0  0
   -1.7363   -1.7541   -3.4452 O   0  0  0  0  0  0  0  0  0  0  0  0
    1.3443    3.0570   -0.8129 N   0  0  0  0  0  0  0  0  0  0  0  0
    2.5097    3.5196   -0.9457 N   0  0  0  0  0  0  0  0  0  0  0  0
    6.2974    1.7030   -2.5724 C   0  0  0  0  0  0  0  0  0  0  0  0
    7.0995    0.6593   -3.0274 C   0  0  0  0  0  0  0  0  0  0  0  0
    7.0069    0.1967   -4.3494 C   0  0  0  0  0  0  0  0  0  0  0  0
    6.0922    0.8159   -5.2137 C   0  0  0  0  0  0  0  0  0  0  0  0
    5.2826    1.8628   -4.7766 C   0  0  0  0  0  0  0  0  0  0  0  0
    5.3880    2.2882   -3.4546 C   0  0  0  0  0  0  0  0  0  0  0  0
    6.3748    2.0489   -1.5458 H   0  0  0  0  0  0  0  0  0  0  0  0
    7.8097    0.1957   -2.3478 H   0  0  0  0  0  0  0  0  0  0  0  0
    6.0155    0.4758   -6.2431 H   0  0  0  0  0  0  0  0  0  0  0  0
    4.5787    2.3566   -5.4392 H   0  0  0  0  0  0  0  0  0  0  0  0
    4.3823    3.6935   -2.9152 S   0  0  2  0  0  0  0  0  0  0  0  0
    3.0244    4.3341   -0.4568 O   0  0  0  0  0  0  0  0  0  0  0  0
    3.4111    2.6554   -1.9680 O   0  0  0  0  0  0  0  0  0  0  0  0
    3.5855    4.1465   -4.0937 O   0  0  0  0  0  0  0  0  0  0  0  0
    7.8584   -0.9556   -4.8247 C   0  0  0  0  0  0  0  0  0  0  0  0
    8.7899   -1.0274   -4.2572 H   0  0  0  0  0  0  0  0  0  0  0  0
    7.3270   -1.9081   -4.7047 H   0  0  0  0  0  0  0  0  0  0  0  0
    8.1110   -0.8567   -5.8843 H   0  0  0  0  0  0  0  0  0  0  0  0
  1  7  1  0  0  0  0
  1  2  2  0  0  0  0
  2  8  1  0  0  0  0
  3  2  1  0  0  0  0
  3 14  1  0  0  0  0
  4  3  2  0  0  0  0
  5  6  2  0  0  0  0
  5  4  1  0  0  0  0
  6  1  1  0  0  0  0
  9  4  1  0  0  0  0
 10  5  1  0  0  0  0
 11 13  2  0  0  0  0
 11  6  1  0  0  0  0
 12 11  2  0  0  0  0
 15 14  1  0  0  0  0
 15 27  1  0  0  0  0
 16 22  1  0  0  0  0
 17 16  1  0  0  0  0
 17 23  1  0  0  0  0
 18 17  2  0  0  0  0
 19 20  2  0  0  0  0
 19 18  1  0  0  0  0
 20 21  1  0  0  0  0
 21 26  1  0  0  0  0
 21 16  2  0  0  0  0
 24 19  1  0  0  0  0
 25 20  1  0  0  0  0
 26 29  1  6  0  0  0
 26 28  1  0  0  0  0
 28 15  1  0  0  0  0
 30 32  1  0  0  0  0
 30 18  1  0  0  0  0
 30 31  1  0  0  0  0
 33 30  1  0  0  0  0
M  RAD  3  14   2  27   2  29   2
M  END
