Coordinates from ORCA-job p-NO2-Ph-N2-OTs-B3LYPG-6-31G_dp-scan-d09-49-n400
 OpenBabel08281821283D

 33 33  0  0  0  0  0  0  0  0999 V2000
   -1.2019    0.3836   -1.7212 C   0  0  0  0  0  0  0  0  0  0  0  0
   -0.4457    1.4322   -1.2156 C   0  0  0  0  0  0  0  0  0  0  0  0
    0.7365    1.8389   -1.8597 C   0  0  0  0  0  0  0  0  0  0  0  0
    1.1531    1.1976   -3.0424 C   0  0  0  0  0  0  0  0  0  0  0  0
    0.3881    0.1561   -3.5586 C   0  0  0  0  0  0  0  0  0  0  0  0
   -0.7687   -0.2384   -2.8903 C   0  0  0  0  0  0  0  0  0  0  0  0
   -2.1112    0.0476   -1.2403 H   0  0  0  0  0  0  0  0  0  0  0  0
   -0.7472    1.9574   -0.3165 H   0  0  0  0  0  0  0  0  0  0  0  0
    2.0524    1.5091   -3.5509 H   0  0  0  0  0  0  0  0  0  0  0  0
    0.6766   -0.3554   -4.4682 H   0  0  0  0  0  0  0  0  0  0  0  0
   -1.5637   -1.3520   -3.4411 N   0  0  0  0  0  0  0  0  0  0  0  0
   -1.1571   -1.8848   -4.4718 O   0  0  0  0  0  0  0  0  0  0  0  0
   -2.5813   -1.6764   -2.8324 O   0  0  0  0  0  0  0  0  0  0  0  0
    1.3623    2.9360   -1.2069 N   0  0  0  0  0  0  0  0  0  0  0  0
    2.4712    3.3951   -1.4356 N   0  0  0  0  0  0  0  0  0  0  0  0
    6.0343    1.3534   -2.5847 C   0  0  0  0  0  0  0  0  0  0  0  0
    6.7218    0.3297   -3.2302 C   0  0  0  0  0  0  0  0  0  0  0  0
    7.0451    0.4227   -4.5940 C   0  0  0  0  0  0  0  0  0  0  0  0
    6.6632    1.5748   -5.2967 C   0  0  0  0  0  0  0  0  0  0  0  0
    5.9728    2.6085   -4.6660 C   0  0  0  0  0  0  0  0  0  0  0  0
    5.6552    2.4843   -3.3143 C   0  0  0  0  0  0  0  0  0  0  0  0
    5.7924    1.2698   -1.5283 H   0  0  0  0  0  0  0  0  0  0  0  0
    7.0182   -0.5527   -2.6692 H   0  0  0  0  0  0  0  0  0  0  0  0
    6.9174    1.6662   -6.3493 H   0  0  0  0  0  0  0  0  0  0  0  0
    5.6858    3.5094   -5.1993 H   0  0  0  0  0  0  0  0  0  0  0  0
    4.8636    3.8608   -2.4488 S   0  0  2  0  0  0  0  0  0  0  0  0
    3.4943    5.2678   -0.4426 O   0  0  0  0  0  0  0  0  0  0  0  0
    3.2927    2.8572   -2.3791 O   0  0  0  0  0  0  0  0  0  0  0  0
    4.6951    4.9233   -3.4616 O   0  0  0  0  0  0  0  0  0  0  0  0
    7.7763   -0.7015   -5.2864 C   0  0  0  0  0  0  0  0  0  0  0  0
    8.5549   -1.1265   -4.6456 H   0  0  0  0  0  0  0  0  0  0  0  0
    7.0872   -1.5157   -5.5424 H   0  0  0  0  0  0  0  0  0  0  0  0
    8.2445   -0.3635   -6.2143 H   0  0  0  0  0  0  0  0  0  0  0  0
  1  7  1  0  0  0  0
  1  2  1  0  0  0  0
  2  8  1  0  0  0  0
  3  2  2  0  0  0  0
  3 14  1  0  0  0  0
  4  3  1  0  0  0  0
  5  4  2  0  0  0  0
  5  6  1  0  0  0  0
  6  1  2  0  0  0  0
  9  4  1  0  0  0  0
 10  5  1  0  0  0  0
 11  6  1  0  0  0  0
 11 13  2  0  0  0  0
 12 11  2  0  0  0  0
 15 14  2  0  0  0  0
 16 22  1  0  0  0  0
 17 23  1  0  0  0  0
 17 16  1  0  0  0  0
 18 17  2  0  0  0  0
 19 20  2  0  0  0  0
 19 18  1  0  0  0  0
 20 21  1  0  0  0  0
 21 16  2  0  0  0  0
 21 26  1  0  0  0  0
 24 19  1  0  0  0  0
 25 20  1  0  0  0  0
 26 29  1  6  0  0  0
 26 28  1  0  0  0  0
 28 15  1  0  0  0  0
 30 31  1  0  0  0  0
 30 18  1  0  0  0  0
 32 30  1  0  0  0  0
 33 30  1  0  0  0  0
M  RAD  2  27   3  29   2
M  END
