Coordinates from ORCA-job p-NO2-Ph-N2-OTs-B3LYPG-6-31G_dp-scan-d09-49-n400
 OpenBabel08281821283D

 33 33  0  0  0  0  0  0  0  0999 V2000
   -1.6354   -0.1319   -3.5171 C   0  0  0  0  0  0  0  0  0  0  0  0
   -0.4042   -0.7677   -3.4228 C   0  0  0  0  0  0  0  0  0  0  0  0
    0.6198   -0.1342   -2.7089 C   0  0  0  0  0  0  0  0  0  0  0  0
    0.4620    1.1022   -2.0651 C   0  0  0  0  0  0  0  0  0  0  0  0
   -0.7801    1.7202   -2.1556 C   0  0  0  0  0  0  0  0  0  0  0  0
   -1.7960    1.0971   -2.8788 C   0  0  0  0  0  0  0  0  0  0  0  0
   -2.4638   -0.5654   -4.0617 H   0  0  0  0  0  0  0  0  0  0  0  0
   -0.2280   -1.7279   -3.8928 H   0  0  0  0  0  0  0  0  0  0  0  0
    1.2957    1.5383   -1.5282 H   0  0  0  0  0  0  0  0  0  0  0  0
   -0.9646    2.6778   -1.6860 H   0  0  0  0  0  0  0  0  0  0  0  0
   -3.1148    1.7676   -2.9705 N   0  0  0  0  0  0  0  0  0  0  0  0
   -3.2417    2.8389   -2.3872 O   0  0  0  0  0  0  0  0  0  0  0  0
   -3.9875    1.1994   -3.6214 O   0  0  0  0  0  0  0  0  0  0  0  0
    1.8474   -0.8078   -2.6229 N   0  0  0  0  0  0  0  0  0  0  0  0
    2.9584   -0.8152   -2.3595 N   0  0  0  0  0  0  0  0  0  0  0  0
    6.5169    2.1633   -2.4181 C   0  0  0  0  0  0  0  0  0  0  0  0
    7.8320    1.9156   -2.8001 C   0  0  0  0  0  0  0  0  0  0  0  0
    8.1301    1.3236   -4.0380 C   0  0  0  0  0  0  0  0  0  0  0  0
    7.0688    0.9929   -4.8892 C   0  0  0  0  0  0  0  0  0  0  0  0
    5.7444    1.2322   -4.5190 C   0  0  0  0  0  0  0  0  0  0  0  0
    5.4752    1.8123   -3.2811 C   0  0  0  0  0  0  0  0  0  0  0  0
    6.2953    2.6368   -1.4676 H   0  0  0  0  0  0  0  0  0  0  0  0
    8.6430    2.1925   -2.1313 H   0  0  0  0  0  0  0  0  0  0  0  0
    7.2797    0.5488   -5.8588 H   0  0  0  0  0  0  0  0  0  0  0  0
    4.9220    0.9907   -5.1832 H   0  0  0  0  0  0  0  0  0  0  0  0
    3.7791    2.1224   -2.7874 S   0  0  0  0  0  0  0  0  0  0  0  0
    3.7301    3.4824   -2.2164 O   0  0  0  0  0  0  0  0  0  0  0  0
    3.5000    1.0734   -1.6676 O   0  0  0  0  0  0  0  0  0  0  0  0
    2.9180    1.8248   -3.9538 O   0  0  0  0  0  0  0  0  0  0  0  0
    9.5605    1.0379   -4.4295 C   0  0  0  0  0  0  0  0  0  0  0  0
   10.2328    1.8384   -4.1044 H   0  0  0  0  0  0  0  0  0  0  0  0
    9.9181    0.1092   -3.9676 H   0  0  0  0  0  0  0  0  0  0  0  0
    9.6649    0.9260   -5.5126 H   0  0  0  0  0  0  0  0  0  0  0  0
  1  2  2  0  0  0  0
  1  6  1  0  0  0  0
  2  3  1  0  0  0  0
  3 14  1  0  0  0  0
  3  4  2  0  0  0  0
  4  9  1  0  0  0  0
  5  4  1  0  0  0  0
  5 10  1  0  0  0  0
  6  5  2  0  0  0  0
  7  1  1  0  0  0  0
  8  2  1  0  0  0  0
 11  6  1  0  0  0  0
 11 12  2  0  0  0  0
 13 11  2  0  0  0  0
 14 15  2  0  0  0  0
 16 22  1  0  0  0  0
 17 16  1  0  0  0  0
 17 23  1  0  0  0  0
 18 17  2  0  0  0  0
 19 20  2  0  0  0  0
 19 18  1  0  0  0  0
 20 21  1  0  0  0  0
 21 26  1  0  0  0  0
 21 16  2  0  0  0  0
 24 19  1  0  0  0  0
 25 20  1  0  0  0  0
 26 27  2  0  0  0  0
 26 28  1  0  0  0  0
 29 26  2  0  0  0  0
 30 31  1  0  0  0  0
 30 18  1  0  0  0  0
 30 32  1  0  0  0  0
 33 30  1  0  0  0  0
M  RAD  2  15   2  28   2
M  END
