Coordinates from ORCA-job p-NO2-Ph-N2-OTs-B3LYPG-6-31G_dp-scan-d09-49-n400
 OpenBabel08281821283D

 33 33  0  0  0  0  0  0  0  0999 V2000
   -1.4810   -0.1425   -3.5883 C   0  0  0  0  0  0  0  0  0  0  0  0
   -0.2884   -0.8097   -3.3452 C   0  0  0  0  0  0  0  0  0  0  0  0
    0.6677   -0.1710   -2.5459 C   0  0  0  0  0  0  0  0  0  0  0  0
    0.4889    1.0940   -1.9646 C   0  0  0  0  0  0  0  0  0  0  0  0
   -0.7196    1.7373   -2.2036 C   0  0  0  0  0  0  0  0  0  0  0  0
   -1.6706    1.1121   -3.0083 C   0  0  0  0  0  0  0  0  0  0  0  0
   -2.2606   -0.5708   -4.2047 H   0  0  0  0  0  0  0  0  0  0  0  0
   -0.0923   -1.7893   -3.7644 H   0  0  0  0  0  0  0  0  0  0  0  0
    1.2863    1.5261   -1.3697 H   0  0  0  0  0  0  0  0  0  0  0  0
   -0.9233    2.7173   -1.7920 H   0  0  0  0  0  0  0  0  0  0  0  0
   -2.9542    1.8109   -3.2598 N   0  0  0  0  0  0  0  0  0  0  0  0
   -3.1159    2.8981   -2.7168 O   0  0  0  0  0  0  0  0  0  0  0  0
   -3.7637    1.2466   -3.9906 O   0  0  0  0  0  0  0  0  0  0  0  0
    1.8621   -0.8396   -2.2834 N   0  0  0  0  0  0  0  0  0  0  0  0
    2.9234   -0.9955   -1.9348 N   0  0  0  0  0  0  0  0  0  0  0  0
    6.5022    2.0255   -2.3429 C   0  0  0  0  0  0  0  0  0  0  0  0
    7.7931    1.7848   -2.8017 C   0  0  0  0  0  0  0  0  0  0  0  0
    8.0269    1.3288   -4.1098 C   0  0  0  0  0  0  0  0  0  0  0  0
    6.9251    1.1236   -4.9472 C   0  0  0  0  0  0  0  0  0  0  0  0
    5.6231    1.3594   -4.4992 C   0  0  0  0  0  0  0  0  0  0  0  0
    5.4164    1.8062   -3.1967 C   0  0  0  0  0  0  0  0  0  0  0  0
    6.3329    2.3843   -1.3332 H   0  0  0  0  0  0  0  0  0  0  0  0
    8.6370    1.9577   -2.1380 H   0  0  0  0  0  0  0  0  0  0  0  0
    7.0853    0.7780   -5.9655 H   0  0  0  0  0  0  0  0  0  0  0  0
    4.7672    1.2079   -5.1476 H   0  0  0  0  0  0  0  0  0  0  0  0
    3.7503    2.1360   -2.6113 S   0  0  0  0  0  0  0  0  0  0  0  0
    3.7118    3.5584   -2.2007 O   0  0  0  0  0  0  0  0  0  0  0  0
    3.5663    1.1856   -1.4165 O   0  0  0  0  0  0  0  0  0  0  0  0
    2.8250    1.7309   -3.7053 O   0  0  0  0  0  0  0  0  0  0  0  0
    9.4344    1.0603   -4.5880 C   0  0  0  0  0  0  0  0  0  0  0  0
   10.0996    1.9019   -4.3649 H   0  0  0  0  0  0  0  0  0  0  0  0
    9.8596    0.1770   -4.0963 H   0  0  0  0  0  0  0  0  0  0  0  0
    9.4635    0.8845   -5.6671 H   0  0  0  0  0  0  0  0  0  0  0  0
  1  2  2  0  0  0  0
  1  6  1  0  0  0  0
  2  3  1  0  0  0  0
  3 14  1  0  0  0  0
  3  4  2  0  0  0  0
  4  9  1  0  0  0  0
  5  4  1  0  0  0  0
  5 10  1  0  0  0  0
  6  5  2  0  0  0  0
  7  1  1  0  0  0  0
  8  2  1  0  0  0  0
 11  6  1  0  0  0  0
 11 12  2  0  0  0  0
 13 11  2  0  0  0  0
 14 15  1  0  0  0  0
 16 22  1  0  0  0  0
 17 16  1  0  0  0  0
 17 23  1  0  0  0  0
 18 17  2  0  0  0  0
 19 20  2  0  0  0  0
 19 18  1  0  0  0  0
 20 21  1  0  0  0  0
 21 26  1  0  0  0  0
 21 16  2  0  0  0  0
 24 19  1  0  0  0  0
 25 20  1  0  0  0  0
 26 27  2  0  0  0  0
 26 28  1  0  0  0  0
 29 26  2  0  0  0  0
 30 31  1  0  0  0  0
 30 18  1  0  0  0  0
 30 32  1  0  0  0  0
 33 30  1  0  0  0  0
M  RAD  3  14   2  15   3  28   2
M  END
