Coordinates from ORCA-job p-NO2-Ph-N2-OTs-B3LYPG-6-31G_dp-scan-d09-49-n400
 OpenBabel08281821283D

 33 33  0  0  0  0  0  0  0  0999 V2000
   -1.1976    0.3621   -1.7030 C   0  0  0  0  0  0  0  0  0  0  0  0
   -0.4298    1.3991   -1.1913 C   0  0  0  0  0  0  0  0  0  0  0  0
    0.7337    1.8257   -1.8564 C   0  0  0  0  0  0  0  0  0  0  0  0
    1.1182    1.2176   -3.0672 C   0  0  0  0  0  0  0  0  0  0  0  0
    0.3417    0.1875   -3.5890 C   0  0  0  0  0  0  0  0  0  0  0  0
   -0.7951   -0.2280   -2.8993 C   0  0  0  0  0  0  0  0  0  0  0  0
   -2.0925    0.0110   -1.2063 H   0  0  0  0  0  0  0  0  0  0  0  0
   -0.7073    1.8996   -0.2706 H   0  0  0  0  0  0  0  0  0  0  0  0
    2.0022    1.5454   -3.5920 H   0  0  0  0  0  0  0  0  0  0  0  0
    0.6062   -0.2993   -4.5191 H   0  0  0  0  0  0  0  0  0  0  0  0
   -1.6021   -1.3299   -3.4565 N   0  0  0  0  0  0  0  0  0  0  0  0
   -1.2213   -1.8365   -4.5100 O   0  0  0  0  0  0  0  0  0  0  0  0
   -2.6030   -1.6716   -2.8298 O   0  0  0  0  0  0  0  0  0  0  0  0
    1.3761    2.9049   -1.1898 N   0  0  0  0  0  0  0  0  0  0  0  0
    2.4778    3.3775   -1.4238 N   0  0  0  0  0  0  0  0  0  0  0  0
    6.0303    1.3651   -2.5916 C   0  0  0  0  0  0  0  0  0  0  0  0
    6.7371    0.3438   -3.2194 C   0  0  0  0  0  0  0  0  0  0  0  0
    7.0677    0.4236   -4.5826 C   0  0  0  0  0  0  0  0  0  0  0  0
    6.6731    1.5600   -5.3027 C   0  0  0  0  0  0  0  0  0  0  0  0
    5.9637    2.5922   -4.6899 C   0  0  0  0  0  0  0  0  0  0  0  0
    5.6389    2.4798   -3.3395 C   0  0  0  0  0  0  0  0  0  0  0  0
    5.7821    1.2920   -1.5360 H   0  0  0  0  0  0  0  0  0  0  0  0
    7.0429   -0.5266   -2.6448 H   0  0  0  0  0  0  0  0  0  0  0  0
    6.9317    1.6409   -6.3550 H   0  0  0  0  0  0  0  0  0  0  0  0
    5.6667    3.4817   -5.2369 H   0  0  0  0  0  0  0  0  0  0  0  0
    4.8175    3.8565   -2.5017 S   0  0  2  0  0  0  0  0  0  0  0  0
    3.6377    5.2803   -0.3266 O   0  0  0  0  0  0  0  0  0  0  0  0
    3.2775    2.8491   -2.4100 O   0  0  0  0  0  0  0  0  0  0  0  0
    4.6318    4.9029   -3.5293 O   0  0  0  0  0  0  0  0  0  0  0  0
    7.8230   -0.6980   -5.2530 C   0  0  0  0  0  0  0  0  0  0  0  0
    8.6518   -1.0492   -4.6303 H   0  0  0  0  0  0  0  0  0  0  0  0
    7.1671   -1.5583   -5.4331 H   0  0  0  0  0  0  0  0  0  0  0  0
    8.2305   -0.3862   -6.2177 H   0  0  0  0  0  0  0  0  0  0  0  0
  1  7  1  0  0  0  0
  1  2  1  0  0  0  0
  2  8  1  0  0  0  0
  3  2  2  0  0  0  0
  3 14  1  0  0  0  0
  4  3  1  0  0  0  0
  5  4  2  0  0  0  0
  5  6  1  0  0  0  0
  6  1  2  0  0  0  0
  9  4  1  0  0  0  0
 10  5  1  0  0  0  0
 11  6  1  0  0  0  0
 11 13  2  0  0  0  0
 12 11  2  0  0  0  0
 15 14  2  0  0  0  0
 16 22  1  0  0  0  0
 17 23  1  0  0  0  0
 17 16  1  0  0  0  0
 18 17  2  0  0  0  0
 19 20  2  0  0  0  0
 19 18  1  0  0  0  0
 20 21  1  0  0  0  0
 21 16  2  0  0  0  0
 21 26  1  0  0  0  0
 24 19  1  0  0  0  0
 25 20  1  0  0  0  0
 26 29  1  6  0  0  0
 26 28  1  0  0  0  0
 28 15  1  0  0  0  0
 30 31  1  0  0  0  0
 30 18  1  0  0  0  0
 32 30  1  0  0  0  0
 33 30  1  0  0  0  0
M  RAD  2  27   3  29   2
M  END
