Coordinates from ORCA-job p-NO2-Ph-N2-OTs-B3LYPG-6-31G_dp-scan-d09-49-n400
 OpenBabel08281821283D

 33 34  0  0  0  0  0  0  0  0999 V2000
   -1.4303   -0.5746   -2.7404 C   0  0  0  0  0  0  0  0  0  0  0  0
   -0.2924   -0.6378   -3.5339 C   0  0  0  0  0  0  0  0  0  0  0  0
    0.5941    0.4502   -3.5753 C   0  0  0  0  0  0  0  0  0  0  0  0
    0.3469    1.6229   -2.8378 C   0  0  0  0  0  0  0  0  0  0  0  0
   -0.8009    1.6859   -2.0539 C   0  0  0  0  0  0  0  0  0  0  0  0
   -1.6623    0.5915   -2.0143 C   0  0  0  0  0  0  0  0  0  0  0  0
   -2.1328   -1.3959   -2.6778 H   0  0  0  0  0  0  0  0  0  0  0  0
   -0.0714   -1.5186   -4.1259 H   0  0  0  0  0  0  0  0  0  0  0  0
    1.0384    2.4518   -2.8872 H   0  0  0  0  0  0  0  0  0  0  0  0
   -1.0334    2.5685   -1.4716 H   0  0  0  0  0  0  0  0  0  0  0  0
   -2.8733    0.6696   -1.1684 N   0  0  0  0  0  0  0  0  0  0  0  0
   -3.0562    1.7082   -0.5396 O   0  0  0  0  0  0  0  0  0  0  0  0
   -3.6136   -0.3107   -1.1529 O   0  0  0  0  0  0  0  0  0  0  0  0
    1.7019    0.2528   -4.4295 N   0  0  0  0  0  0  0  0  0  0  0  0
    2.7070    0.8090   -4.7120 N   0  0  0  0  0  0  0  0  0  0  0  0
    6.1996    2.4669   -2.7915 C   0  0  0  0  0  0  0  0  0  0  0  0
    7.3655    1.7645   -2.4962 C   0  0  0  0  0  0  0  0  0  0  0  0
    7.9377    0.8835   -3.4258 C   0  0  0  0  0  0  0  0  0  0  0  0
    7.3144    0.7299   -4.6727 C   0  0  0  0  0  0  0  0  0  0  0  0
    6.1477    1.4239   -4.9864 C   0  0  0  0  0  0  0  0  0  0  0  0
    5.5959    2.2851   -4.0368 C   0  0  0  0  0  0  0  0  0  0  0  0
    5.7699    3.1631   -2.0792 H   0  0  0  0  0  0  0  0  0  0  0  0
    7.8447    1.9090   -1.5317 H   0  0  0  0  0  0  0  0  0  0  0  0
    7.7535    0.0654   -5.4123 H   0  0  0  0  0  0  0  0  0  0  0  0
    5.6756    1.3190   -5.9568 H   0  0  0  0  0  0  0  0  0  0  0  0
    4.0976    3.1784   -4.4242 S   0  0  0  0  0  0  0  0  0  0  0  0
    4.0573    4.3967   -3.6133 O   0  0  0  0  0  0  0  0  0  0  0  0
    2.9249    2.2346   -3.8046 O   0  0  0  0  0  0  0  0  0  0  0  0
    3.9516    3.2299   -5.8771 O   0  0  0  0  0  0  0  0  0  0  0  0
    9.1867    0.1060   -3.0872 C   0  0  0  0  0  0  0  0  0  0  0  0
    9.7993    0.6333   -2.3502 H   0  0  0  0  0  0  0  0  0  0  0  0
    8.9355   -0.8737   -2.6623 H   0  0  0  0  0  0  0  0  0  0  0  0
    9.7992   -0.0736   -3.9756 H   0  0  0  0  0  0  0  0  0  0  0  0
  1  7  1  0  0  0  0
  1  6  2  0  0  0  0
  2  1  1  0  0  0  0
  3  2  2  0  0  0  0
  3  4  1  0  0  0  0
  4  5  2  0  0  0  0
  5  6  1  0  0  0  0
  5 10  1  0  0  0  0
  6 11  1  0  0  0  0
  8  2  1  0  0  0  0
  9  4  1  0  0  0  0
 11 13  2  0  0  0  0
 11 12  2  0  0  0  0
 14  3  1  0  0  0  0
 15 14  1  0  0  0  0
 15 28  1  0  0  0  0
 16 17  1  0  0  0  0
 16 22  1  0  0  0  0
 17 23  1  0  0  0  0
 18 30  1  0  0  0  0
 18 17  2  0  0  0  0
 19 18  1  0  0  0  0
 20 19  2  0  0  0  0
 20 21  1  0  0  0  0
 21 16  2  0  0  0  0
 24 19  1  0  0  0  0
 25 20  1  0  0  0  0
 26 21  1  0  0  0  0
 26 28  1  0  0  0  0
 26 27  2  0  0  0  0
 29 26  2  0  0  0  0
 30 32  1  0  0  0  0
 30 31  1  0  0  0  0
 33 30  1  0  0  0  0
M  RAD  2  14   2  15   2
M  END
