Coordinates from ORCA-job p-NO2-Ph-N2-OTs-B3LYPG-6-31G_dp-scan-d09-49-n400
 OpenBabel08281821283D

 33 34  0  0  0  0  0  0  0  0999 V2000
   -1.2260   -0.5506   -1.9645 C   0  0  0  0  0  0  0  0  0  0  0  0
    0.1564   -0.5424   -1.8346 C   0  0  0  0  0  0  0  0  0  0  0  0
    0.9010    0.5213   -2.3696 C   0  0  0  0  0  0  0  0  0  0  0  0
    0.2793    1.5900   -3.0419 C   0  0  0  0  0  0  0  0  0  0  0  0
   -1.1066    1.5747   -3.1694 C   0  0  0  0  0  0  0  0  0  0  0  0
   -1.8307    0.5123   -2.6326 C   0  0  0  0  0  0  0  0  0  0  0  0
   -1.8347   -1.3517   -1.5660 H   0  0  0  0  0  0  0  0  0  0  0  0
    0.6757   -1.3465   -1.3255 H   0  0  0  0  0  0  0  0  0  0  0  0
    0.8756    2.3963   -3.4439 H   0  0  0  0  0  0  0  0  0  0  0  0
   -1.6305    2.3744   -3.6778 H   0  0  0  0  0  0  0  0  0  0  0  0
   -3.3033    0.5094   -2.7782 N   0  0  0  0  0  0  0  0  0  0  0  0
   -3.8138    1.4561   -3.3697 O   0  0  0  0  0  0  0  0  0  0  0  0
   -3.9140   -0.4420   -2.2973 O   0  0  0  0  0  0  0  0  0  0  0  0
    2.2924    0.4095   -2.1734 N   0  0  0  0  0  0  0  0  0  0  0  0
    3.2861    0.9990   -2.4004 N   0  0  0  0  0  0  0  0  0  0  0  0
    6.4589    2.2675   -2.6393 C   0  0  0  0  0  0  0  0  0  0  0  0
    7.5787    1.4454   -2.7479 C   0  0  0  0  0  0  0  0  0  0  0  0
    7.8685    0.7680   -3.9412 C   0  0  0  0  0  0  0  0  0  0  0  0
    7.0097    0.9447   -5.0363 C   0  0  0  0  0  0  0  0  0  0  0  0
    5.8862    1.7631   -4.9465 C   0  0  0  0  0  0  0  0  0  0  0  0
    5.6166    2.4147   -3.7417 C   0  0  0  0  0  0  0  0  0  0  0  0
    6.2440    2.8051   -1.7224 H   0  0  0  0  0  0  0  0  0  0  0  0
    8.2426    1.3334   -1.8944 H   0  0  0  0  0  0  0  0  0  0  0  0
    7.2301    0.4426   -5.9744 H   0  0  0  0  0  0  0  0  0  0  0  0
    5.2352    1.9177   -5.8003 H   0  0  0  0  0  0  0  0  0  0  0  0
    4.1811    3.4727   -3.6240 S   0  0  0  0  0  0  0  0  0  0  0  0
    4.3872    4.4105   -2.5170 O   0  0  0  0  0  0  0  0  0  0  0  0
    2.9614    2.4542   -3.2850 O   0  0  0  0  0  0  0  0  0  0  0  0
    3.8680    3.9834   -4.9607 O   0  0  0  0  0  0  0  0  0  0  0  0
    9.0672   -0.1446   -4.0398 C   0  0  0  0  0  0  0  0  0  0  0  0
    9.8837    0.1955   -3.3963 H   0  0  0  0  0  0  0  0  0  0  0  0
    8.8098   -1.1645   -3.7271 H   0  0  0  0  0  0  0  0  0  0  0  0
    9.4426   -0.2044   -5.0653 H   0  0  0  0  0  0  0  0  0  0  0  0
  1  2  1  0  0  0  0
  1  7  1  0  0  0  0
  2  8  1  0  0  0  0
  3 14  1  0  0  0  0
  3  2  2  0  0  0  0
  4  3  1  0  0  0  0
  5  4  2  0  0  0  0
  5  6  1  0  0  0  0
  6  1  2  0  0  0  0
  9  4  1  0  0  0  0
 10  5  1  0  0  0  0
 11  6  1  0  0  0  0
 11 13  2  0  0  0  0
 12 11  2  0  0  0  0
 15 14  1  0  0  0  0
 16 22  1  0  0  0  0
 17 16  1  0  0  0  0
 17 23  1  0  0  0  0
 18 17  2  0  0  0  0
 19 20  2  0  0  0  0
 19 18  1  0  0  0  0
 20 21  1  0  0  0  0
 21 26  1  0  0  0  0
 21 16  2  0  0  0  0
 24 19  1  0  0  0  0
 25 20  1  0  0  0  0
 26 28  1  0  0  0  0
 26 27  2  0  0  0  0
 28 15  1  0  0  0  0
 29 26  2  0  0  0  0
 30 18  1  0  0  0  0
 30 32  1  0  0  0  0
 30 31  1  0  0  0  0
 33 30  1  0  0  0  0
M  RAD  2  14   2  15   2
M  END
