Coordinates from ORCA-job p-NO2-Ph-N2-OTs-B3LYPG-6-31G_dp-scan-d09-49-n400
 OpenBabel08281821283D

 33 33  0  0  0  0  0  0  0  0999 V2000
   -1.4017   -0.1606   -3.2145 C   0  0  0  0  0  0  0  0  0  0  0  0
   -0.1773   -0.6979   -2.8377 C   0  0  0  0  0  0  0  0  0  0  0  0
    0.7290    0.1489   -2.1913 C   0  0  0  0  0  0  0  0  0  0  0  0
    0.4890    1.4964   -1.9135 C   0  0  0  0  0  0  0  0  0  0  0  0
   -0.7463    2.0115   -2.2906 C   0  0  0  0  0  0  0  0  0  0  0  0
   -1.6639    1.1785   -2.9278 C   0  0  0  0  0  0  0  0  0  0  0  0
   -2.1499   -0.7575   -3.7202 H   0  0  0  0  0  0  0  0  0  0  0  0
    0.0747   -1.7309   -3.0443 H   0  0  0  0  0  0  0  0  0  0  0  0
    1.2730    2.0976   -1.4642 H   0  0  0  0  0  0  0  0  0  0  0  0
   -0.9984    3.0480   -2.1087 H   0  0  0  0  0  0  0  0  0  0  0  0
   -2.9757    1.7372   -3.3227 N   0  0  0  0  0  0  0  0  0  0  0  0
   -3.1934    2.9115   -3.0412 O   0  0  0  0  0  0  0  0  0  0  0  0
   -3.7557    0.9837   -3.8993 O   0  0  0  0  0  0  0  0  0  0  0  0
    1.9370   -0.4397   -1.7437 N   0  0  0  0  0  0  0  0  0  0  0  0
    2.5840   -1.0896   -1.1032 N   0  0  0  0  0  0  0  0  0  0  0  0
    6.2578    1.1350   -2.5276 C   0  0  0  0  0  0  0  0  0  0  0  0
    7.6148    1.0525   -2.8332 C   0  0  0  0  0  0  0  0  0  0  0  0
    8.0940    1.3985   -4.1054 C   0  0  0  0  0  0  0  0  0  0  0  0
    7.1742    1.8450   -5.0646 C   0  0  0  0  0  0  0  0  0  0  0  0
    5.8141    1.9349   -4.7729 C   0  0  0  0  0  0  0  0  0  0  0  0
    5.3616    1.5750   -3.5028 C   0  0  0  0  0  0  0  0  0  0  0  0
    5.8916    0.8870   -1.5375 H   0  0  0  0  0  0  0  0  0  0  0  0
    8.3154    0.7224   -2.0702 H   0  0  0  0  0  0  0  0  0  0  0  0
    7.5289    2.1340   -6.0506 H   0  0  0  0  0  0  0  0  0  0  0  0
    5.1063    2.3000   -5.5090 H   0  0  0  0  0  0  0  0  0  0  0  0
    3.6078    1.6586   -3.1397 S   0  0  0  0  0  0  0  0  0  0  0  0
    3.0353    2.7314   -3.9727 O   0  0  0  0  0  0  0  0  0  0  0  0
    3.4826    1.8402   -1.6612 O   0  0  0  0  0  0  0  0  0  0  0  0
    3.0604    0.2761   -3.5150 O   0  0  0  0  0  0  0  0  0  0  0  0
    9.5622    1.2761   -4.4379 C   0  0  0  0  0  0  0  0  0  0  0  0
   10.1896    1.4729   -3.5632 H   0  0  0  0  0  0  0  0  0  0  0  0
    9.8043    0.2648   -4.7886 H   0  0  0  0  0  0  0  0  0  0  0  0
    9.8532    1.9732   -5.2292 H   0  0  0  0  0  0  0  0  0  0  0  0
  1  6  2  0  0  0  0
  1  2  1  0  0  0  0
  2  3  2  0  0  0  0
  3  4  1  0  0  0  0
  3 14  1  0  0  0  0
  4  9  1  0  0  0  0
  5 10  1  0  0  0  0
  5  4  2  0  0  0  0
  6  5  1  0  0  0  0
  7  1  1  0  0  0  0
  8  2  1  0  0  0  0
 11 12  2  0  0  0  0
 11  6  1  0  0  0  0
 13 11  2  0  0  0  0
 14 15  1  0  0  0  0
 16 22  1  0  0  0  0
 17 16  1  0  0  0  0
 17 23  1  0  0  0  0
 18 17  2  0  0  0  0
 19 20  2  0  0  0  0
 19 18  1  0  0  0  0
 20 21  1  0  0  0  0
 21 26  1  0  0  0  0
 21 16  2  0  0  0  0
 24 19  1  0  0  0  0
 25 20  1  0  0  0  0
 26 28  1  0  0  0  0
 27 26  2  0  0  0  0
 29 26  2  0  0  0  0
 30 18  1  0  0  0  0
 30 31  1  0  0  0  0
 32 30  1  0  0  0  0
 33 30  1  0  0  0  0
M  RAD  3  14   2  15   3  28   2
M  END
