Coordinates from ORCA-job p-NO2-Ph-N2-OTs-B3LYPG-6-31G_dp-scan-d09-49-n400
 OpenBabel08281821283D

 33 33  0  0  0  0  0  0  0  0999 V2000
   -1.4033   -0.1619   -3.2118 C   0  0  0  0  0  0  0  0  0  0  0  0
   -0.1789   -0.6999   -2.8360 C   0  0  0  0  0  0  0  0  0  0  0  0
    0.7290    0.1469   -2.1918 C   0  0  0  0  0  0  0  0  0  0  0  0
    0.4906    1.4950   -1.9153 C   0  0  0  0  0  0  0  0  0  0  0  0
   -0.7450    2.0106   -2.2912 C   0  0  0  0  0  0  0  0  0  0  0  0
   -1.6641    1.1777   -2.9262 C   0  0  0  0  0  0  0  0  0  0  0  0
   -2.1527   -0.7588   -3.7158 H   0  0  0  0  0  0  0  0  0  0  0  0
    0.0719   -1.7333   -3.0417 H   0  0  0  0  0  0  0  0  0  0  0  0
    1.2755    2.0962   -1.4678 H   0  0  0  0  0  0  0  0  0  0  0  0
   -0.9960    3.0475   -2.1100 H   0  0  0  0  0  0  0  0  0  0  0  0
   -2.9761    1.7369   -3.3199 N   0  0  0  0  0  0  0  0  0  0  0  0
   -3.1925    2.9116   -3.0394 O   0  0  0  0  0  0  0  0  0  0  0  0
   -3.7575    0.9833   -3.8945 O   0  0  0  0  0  0  0  0  0  0  0  0
    1.9372   -0.4426   -1.7454 N   0  0  0  0  0  0  0  0  0  0  0  0
    2.5822   -1.0945   -1.1046 N   0  0  0  0  0  0  0  0  0  0  0  0
    6.2561    1.1358   -2.5291 C   0  0  0  0  0  0  0  0  0  0  0  0
    7.6134    1.0521   -2.8331 C   0  0  0  0  0  0  0  0  0  0  0  0
    8.0945    1.3985   -4.1045 C   0  0  0  0  0  0  0  0  0  0  0  0
    7.1762    1.8467   -5.0644 C   0  0  0  0  0  0  0  0  0  0  0  0
    5.8159    1.9379   -4.7742 C   0  0  0  0  0  0  0  0  0  0  0  0
    5.3615    1.5775   -3.5049 C   0  0  0  0  0  0  0  0  0  0  0  0
    5.8886    0.8876   -1.5395 H   0  0  0  0  0  0  0  0  0  0  0  0
    8.3128    0.7207   -2.0695 H   0  0  0  0  0  0  0  0  0  0  0  0
    7.5324    2.1360   -6.0498 H   0  0  0  0  0  0  0  0  0  0  0  0
    5.1092    2.3041   -5.5108 H   0  0  0  0  0  0  0  0  0  0  0  0
    3.6072    1.6625   -3.1436 S   0  0  0  0  0  0  0  0  0  0  0  0
    3.0369    2.7347   -3.9793 O   0  0  0  0  0  0  0  0  0  0  0  0
    3.4808    1.8462   -1.6655 O   0  0  0  0  0  0  0  0  0  0  0  0
    3.0601    0.2792   -3.5166 O   0  0  0  0  0  0  0  0  0  0  0  0
    9.5629    1.2748   -4.4354 C   0  0  0  0  0  0  0  0  0  0  0  0
   10.1895    1.4704   -3.5599 H   0  0  0  0  0  0  0  0  0  0  0  0
    9.8043    0.2634   -4.7865 H   0  0  0  0  0  0  0  0  0  0  0  0
    9.8555    1.9721   -5.2259 H   0  0  0  0  0  0  0  0  0  0  0  0
  1  6  2  0  0  0  0
  1  2  1  0  0  0  0
  2  3  2  0  0  0  0
  3  4  1  0  0  0  0
  3 14  1  0  0  0  0
  4  9  1  0  0  0  0
  5 10  1  0  0  0  0
  5  4  2  0  0  0  0
  6  5  1  0  0  0  0
  7  1  1  0  0  0  0
  8  2  1  0  0  0  0
 11 12  2  0  0  0  0
 11  6  1  0  0  0  0
 13 11  2  0  0  0  0
 14 15  1  0  0  0  0
 16 22  1  0  0  0  0
 17 16  1  0  0  0  0
 17 23  1  0  0  0  0
 18 17  2  0  0  0  0
 19 20  2  0  0  0  0
 19 18  1  0  0  0  0
 20 21  1  0  0  0  0
 21 26  1  0  0  0  0
 21 16  2  0  0  0  0
 24 19  1  0  0  0  0
 25 20  1  0  0  0  0
 26 28  1  0  0  0  0
 27 26  2  0  0  0  0
 29 26  2  0  0  0  0
 30 18  1  0  0  0  0
 30 31  1  0  0  0  0
 32 30  1  0  0  0  0
 33 30  1  0  0  0  0
M  RAD  3  14   2  15   3  28   2
M  END
