Coordinates from ORCA-job p-NO2-Ph-N2-OTs-B3LYPG-6-31G_dp-scan-d09-49-n400
 OpenBabel08281821283D

 33 34  0  0  0  0  0  0  0  0999 V2000
   -0.5618    0.0500   -1.8134 C   0  0  0  0  0  0  0  0  0  0  0  0
    0.0889    1.0335   -1.0784 C   0  0  0  0  0  0  0  0  0  0  0  0
    0.8416    2.0235   -1.7290 C   0  0  0  0  0  0  0  0  0  0  0  0
    0.8972    2.0571   -3.1347 C   0  0  0  0  0  0  0  0  0  0  0  0
    0.2351    1.0848   -3.8720 C   0  0  0  0  0  0  0  0  0  0  0  0
   -0.4765    0.0876   -3.2038 C   0  0  0  0  0  0  0  0  0  0  0  0
   -1.1341   -0.7340   -1.3339 H   0  0  0  0  0  0  0  0  0  0  0  0
    0.0295    1.0482    0.0045 H   0  0  0  0  0  0  0  0  0  0  0  0
    1.4512    2.8390   -3.6399 H   0  0  0  0  0  0  0  0  0  0  0  0
    0.2593    1.0845   -4.9547 H   0  0  0  0  0  0  0  0  0  0  0  0
   -1.1619   -0.9466   -3.9893 N   0  0  0  0  0  0  0  0  0  0  0  0
   -1.0655   -0.8903   -5.2154 O   0  0  0  0  0  0  0  0  0  0  0  0
   -1.7886   -1.8094   -3.3742 O   0  0  0  0  0  0  0  0  0  0  0  0
    1.3794    3.0280   -0.8950 N   0  0  0  0  0  0  0  0  0  0  0  0
    2.5419    3.4701   -1.0740 N   0  0  0  0  0  0  0  0  0  0  0  0
    6.3138    1.7121   -2.5313 C   0  0  0  0  0  0  0  0  0  0  0  0
    7.0481    0.6318   -3.0135 C   0  0  0  0  0  0  0  0  0  0  0  0
    6.9368    0.2193   -4.3506 C   0  0  0  0  0  0  0  0  0  0  0  0
    6.0738    0.9260   -5.2022 C   0  0  0  0  0  0  0  0  0  0  0  0
    5.3311    2.0090   -4.7378 C   0  0  0  0  0  0  0  0  0  0  0  0
    5.4520    2.3842   -3.4008 C   0  0  0  0  0  0  0  0  0  0  0  0
    6.4075    2.0211   -1.4940 H   0  0  0  0  0  0  0  0  0  0  0  0
    7.7203    0.1012   -2.3447 H   0  0  0  0  0  0  0  0  0  0  0  0
    5.9859    0.6249   -6.2427 H   0  0  0  0  0  0  0  0  0  0  0  0
    4.6703    2.5694   -5.3917 H   0  0  0  0  0  0  0  0  0  0  0  0
    4.5542    3.8316   -2.8078 S   0  0  2  0  0  0  0  0  0  0  0  0
    3.0606    4.4362   -0.4931 O   0  0  0  0  0  0  0  0  0  0  0  0
    3.3941    2.7422   -1.9911 O   0  0  0  0  0  0  0  0  0  0  0  0
    3.8469    4.4183   -3.9757 O   0  0  0  0  0  0  0  0  0  0  0  0
    7.7139   -0.9711   -4.8571 C   0  0  0  0  0  0  0  0  0  0  0  0
    8.6408   -1.1144   -4.2956 H   0  0  0  0  0  0  0  0  0  0  0  0
    7.1241   -1.8908   -4.7564 H   0  0  0  0  0  0  0  0  0  0  0  0
    7.9685   -0.8625   -5.9150 H   0  0  0  0  0  0  0  0  0  0  0  0
  1  7  1  0  0  0  0
  1  2  2  0  0  0  0
  2  8  1  0  0  0  0
  3  2  1  0  0  0  0
  3 14  1  0  0  0  0
  4  3  2  0  0  0  0
  5  6  2  0  0  0  0
  5  4  1  0  0  0  0
  6  1  1  0  0  0  0
  9  4  1  0  0  0  0
 10  5  1  0  0  0  0
 11 13  2  0  0  0  0
 11  6  1  0  0  0  0
 12 11  2  0  0  0  0
 15 14  1  0  0  0  0
 15 27  1  0  0  0  0
 16 22  1  0  0  0  0
 17 16  1  0  0  0  0
 17 23  1  0  0  0  0
 18 17  2  0  0  0  0
 19 20  2  0  0  0  0
 19 18  1  0  0  0  0
 20 21  1  0  0  0  0
 21 26  1  0  0  0  0
 21 16  2  0  0  0  0
 24 19  1  0  0  0  0
 25 20  1  0  0  0  0
 26 29  1  6  0  0  0
 26 28  1  0  0  0  0
 28 15  1  0  0  0  0
 30 32  1  0  0  0  0
 30 18  1  0  0  0  0
 30 31  1  0  0  0  0
 33 30  1  0  0  0  0
M  RAD  3  14   2  27   2  29   2
M  END
