Coordinates from ORCA-job p-NO2-Ph-N2-OTs-B3LYPG-6-31G_dp-scan-d09-49-n400
 OpenBabel08281821283D

 33 34  0  0  0  0  0  0  0  0999 V2000
   -1.2296   -0.5319   -1.9377 C   0  0  0  0  0  0  0  0  0  0  0  0
    0.1491   -0.5073   -1.7752 C   0  0  0  0  0  0  0  0  0  0  0  0
    0.8990    0.5443   -2.3268 C   0  0  0  0  0  0  0  0  0  0  0  0
    0.2846    1.5851   -3.0479 C   0  0  0  0  0  0  0  0  0  0  0  0
   -1.0976    1.5542   -3.2075 C   0  0  0  0  0  0  0  0  0  0  0  0
   -1.8264    0.5035   -2.6542 C   0  0  0  0  0  0  0  0  0  0  0  0
   -1.8414   -1.3251   -1.5280 H   0  0  0  0  0  0  0  0  0  0  0  0
    0.6625   -1.2897   -1.2277 H   0  0  0  0  0  0  0  0  0  0  0  0
    0.8830    2.3837   -3.4621 H   0  0  0  0  0  0  0  0  0  0  0  0
   -1.6154    2.3327   -3.7537 H   0  0  0  0  0  0  0  0  0  0  0  0
   -3.2948    0.4834   -2.8350 N   0  0  0  0  0  0  0  0  0  0  0  0
   -3.7985    1.4077   -3.4665 O   0  0  0  0  0  0  0  0  0  0  0  0
   -3.9097   -0.4575   -2.3389 O   0  0  0  0  0  0  0  0  0  0  0  0
    2.2859    0.4477   -2.0916 N   0  0  0  0  0  0  0  0  0  0  0  0
    3.2791    1.0396   -2.3223 N   0  0  0  0  0  0  0  0  0  0  0  0
    6.4642    2.2505   -2.6341 C   0  0  0  0  0  0  0  0  0  0  0  0
    7.5824    1.4283   -2.7576 C   0  0  0  0  0  0  0  0  0  0  0  0
    7.8659    0.7649   -3.9602 C   0  0  0  0  0  0  0  0  0  0  0  0
    7.0026    0.9559   -5.0493 C   0  0  0  0  0  0  0  0  0  0  0  0
    5.8806    1.7747   -4.9448 C   0  0  0  0  0  0  0  0  0  0  0  0
    5.6172    2.4118   -3.7309 C   0  0  0  0  0  0  0  0  0  0  0  0
    6.2541    2.7770   -1.7097 H   0  0  0  0  0  0  0  0  0  0  0  0
    8.2498    1.3051   -1.9084 H   0  0  0  0  0  0  0  0  0  0  0  0
    7.2182    0.4649   -5.9944 H   0  0  0  0  0  0  0  0  0  0  0  0
    5.2260    1.9401   -5.7938 H   0  0  0  0  0  0  0  0  0  0  0  0
    4.1837    3.4699   -3.5943 S   0  0  0  0  0  0  0  0  0  0  0  0
    4.3936    4.3925   -2.4759 O   0  0  0  0  0  0  0  0  0  0  0  0
    2.9627    2.4449   -3.2698 O   0  0  0  0  0  0  0  0  0  0  0  0
    3.8632    3.9962   -4.9229 O   0  0  0  0  0  0  0  0  0  0  0  0
    9.0628   -0.1481   -4.0751 C   0  0  0  0  0  0  0  0  0  0  0  0
    9.8821    0.1822   -3.4301 H   0  0  0  0  0  0  0  0  0  0  0  0
    8.8048   -1.1716   -3.7750 H   0  0  0  0  0  0  0  0  0  0  0  0
    9.4345   -0.1949   -5.1026 H   0  0  0  0  0  0  0  0  0  0  0  0
  1  2  1  0  0  0  0
  1  7  1  0  0  0  0
  2  8  1  0  0  0  0
  3 14  1  0  0  0  0
  3  2  2  0  0  0  0
  4  3  1  0  0  0  0
  5  4  2  0  0  0  0
  5  6  1  0  0  0  0
  6  1  2  0  0  0  0
  9  4  1  0  0  0  0
 10  5  1  0  0  0  0
 11  6  1  0  0  0  0
 11 13  2  0  0  0  0
 12 11  2  0  0  0  0
 15 14  1  0  0  0  0
 16 22  1  0  0  0  0
 17 16  1  0  0  0  0
 17 23  1  0  0  0  0
 18 17  2  0  0  0  0
 19 20  2  0  0  0  0
 19 18  1  0  0  0  0
 20 21  1  0  0  0  0
 21 26  1  0  0  0  0
 21 16  2  0  0  0  0
 24 19  1  0  0  0  0
 25 20  1  0  0  0  0
 26 28  1  0  0  0  0
 26 27  2  0  0  0  0
 28 15  1  0  0  0  0
 29 26  2  0  0  0  0
 30 18  1  0  0  0  0
 30 32  1  0  0  0  0
 30 31  1  0  0  0  0
 33 30  1  0  0  0  0
M  RAD  2  14   2  15   2
M  END
