Coordinates from ORCA-job p-NO2-Ph-N2-OTs-B3LYPG-6-31G_dp-scan-d09-49-n400
 OpenBabel08281821283D

 33 33  0  0  0  0  0  0  0  0999 V2000
   -1.5209   -0.1370   -3.5879 C   0  0  0  0  0  0  0  0  0  0  0  0
   -0.3208   -0.8039   -3.3833 C   0  0  0  0  0  0  0  0  0  0  0  0
    0.6543   -0.1756   -2.5992 C   0  0  0  0  0  0  0  0  0  0  0  0
    0.4853    1.0791   -1.9942 C   0  0  0  0  0  0  0  0  0  0  0  0
   -0.7297    1.7238   -2.1953 C   0  0  0  0  0  0  0  0  0  0  0  0
   -1.6988    1.1088   -2.9861 C   0  0  0  0  0  0  0  0  0  0  0  0
   -2.3146   -0.5588   -4.1906 H   0  0  0  0  0  0  0  0  0  0  0  0
   -0.1330   -1.7772   -3.8207 H   0  0  0  0  0  0  0  0  0  0  0  0
    1.2932    1.5032   -1.4084 H   0  0  0  0  0  0  0  0  0  0  0  0
   -0.9254    2.6967   -1.7632 H   0  0  0  0  0  0  0  0  0  0  0  0
   -2.9892    1.8087   -3.1967 N   0  0  0  0  0  0  0  0  0  0  0  0
   -3.1386    2.8892   -2.6371 O   0  0  0  0  0  0  0  0  0  0  0  0
   -3.8163    1.2521   -3.9135 O   0  0  0  0  0  0  0  0  0  0  0  0
    1.8572   -0.8509   -2.3820 N   0  0  0  0  0  0  0  0  0  0  0  0
    2.9338   -0.9676   -2.0557 N   0  0  0  0  0  0  0  0  0  0  0  0
    6.5180    2.0986   -2.3623 C   0  0  0  0  0  0  0  0  0  0  0  0
    7.8108    1.8500   -2.8119 C   0  0  0  0  0  0  0  0  0  0  0  0
    8.0468    1.3272   -4.0942 C   0  0  0  0  0  0  0  0  0  0  0  0
    6.9456    1.0647   -4.9166 C   0  0  0  0  0  0  0  0  0  0  0  0
    5.6419    1.3068   -4.4774 C   0  0  0  0  0  0  0  0  0  0  0  0
    5.4334    1.8189   -3.1993 C   0  0  0  0  0  0  0  0  0  0  0  0
    6.3462    2.5149   -1.3754 H   0  0  0  0  0  0  0  0  0  0  0  0
    8.6541    2.0705   -2.1619 H   0  0  0  0  0  0  0  0  0  0  0  0
    7.1078    0.6708   -5.9167 H   0  0  0  0  0  0  0  0  0  0  0  0
    4.7870    1.1156   -5.1165 H   0  0  0  0  0  0  0  0  0  0  0  0
    3.7644    2.1415   -2.6196 S   0  0  0  0  0  0  0  0  0  0  0  0
    3.7424    3.5390   -2.1319 O   0  0  0  0  0  0  0  0  0  0  0  0
    3.5529    1.1361   -1.4679 O   0  0  0  0  0  0  0  0  0  0  0  0
    2.8460    1.8009   -3.7377 O   0  0  0  0  0  0  0  0  0  0  0  0
    9.4560    1.0488   -4.5616 C   0  0  0  0  0  0  0  0  0  0  0  0
   10.1212    1.8935   -4.3510 H   0  0  0  0  0  0  0  0  0  0  0  0
    9.8776    0.1739   -4.0518 H   0  0  0  0  0  0  0  0  0  0  0  0
    9.4895    0.8525   -5.6368 H   0  0  0  0  0  0  0  0  0  0  0  0
  1  2  2  0  0  0  0
  1  6  1  0  0  0  0
  2  3  1  0  0  0  0
  3 14  1  0  0  0  0
  3  4  2  0  0  0  0
  4  9  1  0  0  0  0
  5  4  1  0  0  0  0
  5 10  1  0  0  0  0
  6  5  2  0  0  0  0
  7  1  1  0  0  0  0
  8  2  1  0  0  0  0
 11  6  1  0  0  0  0
 11 12  2  0  0  0  0
 13 11  2  0  0  0  0
 14 15  1  0  0  0  0
 16 22  1  0  0  0  0
 17 16  1  0  0  0  0
 17 23  1  0  0  0  0
 18 17  2  0  0  0  0
 19 20  2  0  0  0  0
 19 18  1  0  0  0  0
 20 21  1  0  0  0  0
 21 26  1  0  0  0  0
 21 16  2  0  0  0  0
 24 19  1  0  0  0  0
 25 20  1  0  0  0  0
 26 27  2  0  0  0  0
 26 28  1  0  0  0  0
 29 26  2  0  0  0  0
 30 31  1  0  0  0  0
 30 18  1  0  0  0  0
 30 32  1  0  0  0  0
 33 30  1  0  0  0  0
M  RAD  3  14   2  15   3  28   2
M  END
