Coordinates from ORCA-job p-NO2-Ph-N2-OTs-B3LYPG-6-31G_dp-scan-d09-49-n400
 OpenBabel08281821283D

 33 33  0  0  0  0  0  0  0  0999 V2000
   -1.8479   -0.0981   -3.3763 C   0  0  0  0  0  0  0  0  0  0  0  0
   -0.6030   -0.6985   -3.5151 C   0  0  0  0  0  0  0  0  0  0  0  0
    0.5135   -0.0852   -2.9319 C   0  0  0  0  0  0  0  0  0  0  0  0
    0.4277    1.1082   -2.1975 C   0  0  0  0  0  0  0  0  0  0  0  0
   -0.8252    1.6960   -2.0576 C   0  0  0  0  0  0  0  0  0  0  0  0
   -1.9315    1.0868   -2.6471 C   0  0  0  0  0  0  0  0  0  0  0  0
   -2.7420   -0.5255   -3.8107 H   0  0  0  0  0  0  0  0  0  0  0  0
   -0.4830   -1.6239   -4.0661 H   0  0  0  0  0  0  0  0  0  0  0  0
    1.3214    1.5410   -1.7663 H   0  0  0  0  0  0  0  0  0  0  0  0
   -0.9520    2.6190   -1.5066 H   0  0  0  0  0  0  0  0  0  0  0  0
   -3.2602    1.7227   -2.4883 N   0  0  0  0  0  0  0  0  0  0  0  0
   -3.3140    2.7545   -1.8268 O   0  0  0  0  0  0  0  0  0  0  0  0
   -4.2145    1.1693   -3.0280 O   0  0  0  0  0  0  0  0  0  0  0  0
    1.7407   -0.7509   -3.1062 N   0  0  0  0  0  0  0  0  0  0  0  0
    2.8846   -0.6972   -2.9737 N   0  0  0  0  0  0  0  0  0  0  0  0
    6.4868    2.2894   -2.5592 C   0  0  0  0  0  0  0  0  0  0  0  0
    7.8408    2.0555   -2.7871 C   0  0  0  0  0  0  0  0  0  0  0  0
    8.2744    1.3330   -3.9089 C   0  0  0  0  0  0  0  0  0  0  0  0
    7.3106    0.8565   -4.8082 C   0  0  0  0  0  0  0  0  0  0  0  0
    5.9511    1.0797   -4.5936 C   0  0  0  0  0  0  0  0  0  0  0  0
    5.5472    1.7921   -3.4645 C   0  0  0  0  0  0  0  0  0  0  0  0
    6.1562    2.8655   -1.7016 H   0  0  0  0  0  0  0  0  0  0  0  0
    8.5749    2.4468   -2.0878 H   0  0  0  0  0  0  0  0  0  0  0  0
    7.6290    0.3111   -5.6931 H   0  0  0  0  0  0  0  0  0  0  0  0
    5.2066    0.7280   -5.2989 H   0  0  0  0  0  0  0  0  0  0  0  0
    3.8037    2.0693   -3.1633 S   0  0  0  0  0  0  0  0  0  0  0  0
    3.6646    3.3817   -2.5142 O   0  0  0  0  0  0  0  0  0  0  0  0
    3.4044    0.9678   -2.1112 O   0  0  0  0  0  0  0  0  0  0  0  0
    3.0812    1.8124   -4.4228 O   0  0  0  0  0  0  0  0  0  0  0  0
    9.7429    1.0605   -4.1318 C   0  0  0  0  0  0  0  0  0  0  0  0
   10.3671    1.8463   -3.6964 H   0  0  0  0  0  0  0  0  0  0  0  0
   10.0418    0.1130   -3.6662 H   0  0  0  0  0  0  0  0  0  0  0  0
    9.9802    0.9877   -5.1971 H   0  0  0  0  0  0  0  0  0  0  0  0
  1  6  1  0  0  0  0
  2  1  2  0  0  0  0
  2  3  1  0  0  0  0
  3  4  2  0  0  0  0
  4  5  1  0  0  0  0
  4  9  1  0  0  0  0
  5 10  1  0  0  0  0
  6 11  1  0  0  0  0
  6  5  2  0  0  0  0
  7  1  1  0  0  0  0
  8  2  1  0  0  0  0
 11 12  2  0  0  0  0
 13 11  2  0  0  0  0
 14 15  2  0  0  0  0
 14  3  1  0  0  0  0
 16 22  1  0  0  0  0
 17 16  1  0  0  0  0
 17 23  1  0  0  0  0
 18 17  2  0  0  0  0
 19 20  2  0  0  0  0
 19 18  1  0  0  0  0
 20 21  1  0  0  0  0
 21 26  1  0  0  0  0
 21 16  2  0  0  0  0
 24 19  1  0  0  0  0
 25 20  1  0  0  0  0
 26 27  2  0  0  0  0
 26 28  1  0  0  0  0
 29 26  2  0  0  0  0
 30 18  1  0  0  0  0
 30 31  1  0  0  0  0
 30 32  1  0  0  0  0
 33 30  1  0  0  0  0
M  RAD  2  15   2  28   2
M  END
