Coordinates from ORCA-job p-NO2-Ph-N2-OTs-B3LYPG-6-31G_dp-scan-d09-49-n400
 OpenBabel08281821283D

 33 34  0  0  0  0  0  0  0  0999 V2000
   -1.4122    0.0939   -1.5096 C   0  0  0  0  0  0  0  0  0  0  0  0
   -0.0967    0.2653   -1.0985 C   0  0  0  0  0  0  0  0  0  0  0  0
    0.8691    0.7603   -1.9914 C   0  0  0  0  0  0  0  0  0  0  0  0
    0.5259    1.0499   -3.3257 C   0  0  0  0  0  0  0  0  0  0  0  0
   -0.7870    0.8554   -3.7441 C   0  0  0  0  0  0  0  0  0  0  0  0
   -1.7331    0.3914   -2.8324 C   0  0  0  0  0  0  0  0  0  0  0  0
   -2.1794   -0.2718   -0.8395 H   0  0  0  0  0  0  0  0  0  0  0  0
    0.2070    0.0274   -0.0856 H   0  0  0  0  0  0  0  0  0  0  0  0
    1.2688    1.4168   -4.0171 H   0  0  0  0  0  0  0  0  0  0  0  0
   -1.0884    1.0664   -4.7621 H   0  0  0  0  0  0  0  0  0  0  0  0
   -3.1246    0.1991   -3.2868 N   0  0  0  0  0  0  0  0  0  0  0  0
   -3.3789    0.4636   -4.4595 O   0  0  0  0  0  0  0  0  0  0  0  0
   -3.9363   -0.2149   -2.4619 O   0  0  0  0  0  0  0  0  0  0  0  0
    2.1607    0.8567   -1.4143 N   0  0  0  0  0  0  0  0  0  0  0  0
    3.1459    1.4831   -1.7231 N   0  0  0  0  0  0  0  0  0  0  0  0
    6.4263    1.8759   -2.5302 C   0  0  0  0  0  0  0  0  0  0  0  0
    7.5146    1.0762   -2.8713 C   0  0  0  0  0  0  0  0  0  0  0  0
    7.8068    0.7787   -4.2109 C   0  0  0  0  0  0  0  0  0  0  0  0
    6.9816    1.3134   -5.2113 C   0  0  0  0  0  0  0  0  0  0  0  0
    5.8874    2.1143   -4.8922 C   0  0  0  0  0  0  0  0  0  0  0  0
    5.6182    2.3841   -3.5491 C   0  0  0  0  0  0  0  0  0  0  0  0
    6.2092    2.1174   -1.4961 H   0  0  0  0  0  0  0  0  0  0  0  0
    8.1524    0.6828   -2.0847 H   0  0  0  0  0  0  0  0  0  0  0  0
    7.2032    1.1061   -6.2546 H   0  0  0  0  0  0  0  0  0  0  0  0
    5.2612    2.5429   -5.6666 H   0  0  0  0  0  0  0  0  0  0  0  0
    4.2245    3.4128   -3.1309 S   0  0  0  0  0  0  0  0  0  0  0  0
    4.4372    3.9939   -1.8126 O   0  0  0  0  0  0  0  0  0  0  0  0
    2.9671    2.3260   -3.0086 O   0  0  0  0  0  0  0  0  0  0  0  0
    3.8471    4.2103   -4.2911 O   0  0  0  0  0  0  0  0  0  0  0  0
    8.9733   -0.1103   -4.5662 C   0  0  0  0  0  0  0  0  0  0  0  0
    9.7965    0.0043   -3.8546 H   0  0  0  0  0  0  0  0  0  0  0  0
    8.6769   -1.1668   -4.5542 H   0  0  0  0  0  0  0  0  0  0  0  0
    9.3539    0.1100   -5.5675 H   0  0  0  0  0  0  0  0  0  0  0  0
  1  2  1  0  0  0  0
  1  7  1  0  0  0  0
  2  8  1  0  0  0  0
  3 14  1  0  0  0  0
  3  2  2  0  0  0  0
  4  3  1  0  0  0  0
  5  4  2  0  0  0  0
  5  6  1  0  0  0  0
  6  1  2  0  0  0  0
  9  4  1  0  0  0  0
 10  5  1  0  0  0  0
 11  6  1  0  0  0  0
 11 13  2  0  0  0  0
 12 11  2  0  0  0  0
 15 14  1  0  0  0  0
 16 22  1  0  0  0  0
 17 16  1  0  0  0  0
 17 23  1  0  0  0  0
 18 17  2  0  0  0  0
 19 20  2  0  0  0  0
 19 18  1  0  0  0  0
 20 21  1  0  0  0  0
 21 26  1  0  0  0  0
 21 16  2  0  0  0  0
 24 19  1  0  0  0  0
 25 20  1  0  0  0  0
 26 28  1  0  0  0  0
 26 27  2  0  0  0  0
 28 15  1  0  0  0  0
 29 26  2  0  0  0  0
 30 32  1  0  0  0  0
 30 18  1  0  0  0  0
 30 31  1  0  0  0  0
 33 30  1  0  0  0  0
M  RAD  2  14   2  15   2
M  END
