Coordinates from ORCA-job p-NO2-Ph-N2-OTs-B3LYPG-6-31G_dp-scan-d09-49-n400
 OpenBabel08281821283D

 33 34  0  0  0  0  0  0  0  0999 V2000
   -1.1927   -0.4791   -1.8678 C   0  0  0  0  0  0  0  0  0  0  0  0
    0.1615   -0.3584   -1.5863 C   0  0  0  0  0  0  0  0  0  0  0  0
    0.9151    0.6685   -2.1794 C   0  0  0  0  0  0  0  0  0  0  0  0
    0.3207    1.5918   -3.0608 C   0  0  0  0  0  0  0  0  0  0  0  0
   -1.0372    1.4670   -3.3391 C   0  0  0  0  0  0  0  0  0  0  0  0
   -1.7664    0.4401   -2.7435 C   0  0  0  0  0  0  0  0  0  0  0  0
   -1.8026   -1.2588   -1.4303 H   0  0  0  0  0  0  0  0  0  0  0  0
    0.6565   -1.0480   -0.9118 H   0  0  0  0  0  0  0  0  0  0  0  0
    0.9127    2.3773   -3.5064 H   0  0  0  0  0  0  0  0  0  0  0  0
   -1.5362    2.1539   -4.0112 H   0  0  0  0  0  0  0  0  0  0  0  0
   -3.2074    0.3179   -3.0539 N   0  0  0  0  0  0  0  0  0  0  0  0
   -3.6895    1.1379   -3.8302 O   0  0  0  0  0  0  0  0  0  0  0  0
   -3.8233   -0.5990   -2.5157 O   0  0  0  0  0  0  0  0  0  0  0  0
    2.2757    0.6607   -1.8019 N   0  0  0  0  0  0  0  0  0  0  0  0
    3.2585    1.2832   -2.0321 N   0  0  0  0  0  0  0  0  0  0  0  0
    6.4725    2.1988   -2.6113 C   0  0  0  0  0  0  0  0  0  0  0  0
    7.5615    1.3480   -2.7886 C   0  0  0  0  0  0  0  0  0  0  0  0
    7.8039    0.7266   -4.0223 C   0  0  0  0  0  0  0  0  0  0  0  0
    6.9289    0.9883   -5.0871 C   0  0  0  0  0  0  0  0  0  0  0  0
    5.8345    1.8354   -4.9293 C   0  0  0  0  0  0  0  0  0  0  0  0
    5.6127    2.4299   -3.6858 C   0  0  0  0  0  0  0  0  0  0  0  0
    6.2950    2.6921   -1.6623 H   0  0  0  0  0  0  0  0  0  0  0  0
    8.2387    1.1692   -1.9574 H   0  0  0  0  0  0  0  0  0  0  0  0
    7.1129    0.5300   -6.0549 H   0  0  0  0  0  0  0  0  0  0  0  0
    5.1699    2.0539   -5.7579 H   0  0  0  0  0  0  0  0  0  0  0  0
    4.2149    3.5225   -3.4813 S   0  0  0  0  0  0  0  0  0  0  0  0
    4.4793    4.4145   -2.3522 O   0  0  0  0  0  0  0  0  0  0  0  0
    2.9736    2.5101   -3.1450 O   0  0  0  0  0  0  0  0  0  0  0  0
    3.8495    4.0730   -4.7867 O   0  0  0  0  0  0  0  0  0  0  0  0
    8.9694   -0.2169   -4.1957 C   0  0  0  0  0  0  0  0  0  0  0  0
    9.8105    0.0622   -3.5546 H   0  0  0  0  0  0  0  0  0  0  0  0
    8.6847   -1.2430   -3.9302 H   0  0  0  0  0  0  0  0  0  0  0  0
    9.3205   -0.2349   -5.2313 H   0  0  0  0  0  0  0  0  0  0  0  0
  1  2  1  0  0  0  0
  1  7  1  0  0  0  0
  2  8  1  0  0  0  0
  3 14  1  0  0  0  0
  3  2  2  0  0  0  0
  4  3  1  0  0  0  0
  5  4  2  0  0  0  0
  5  6  1  0  0  0  0
  6  1  2  0  0  0  0
  9  4  1  0  0  0  0
 10  5  1  0  0  0  0
 11  6  1  0  0  0  0
 11 13  2  0  0  0  0
 12 11  2  0  0  0  0
 15 14  1  0  0  0  0
 16 22  1  0  0  0  0
 17 16  1  0  0  0  0
 17 23  1  0  0  0  0
 18 17  2  0  0  0  0
 19 20  2  0  0  0  0
 19 18  1  0  0  0  0
 20 21  1  0  0  0  0
 21 26  1  0  0  0  0
 21 16  2  0  0  0  0
 24 19  1  0  0  0  0
 25 20  1  0  0  0  0
 26 28  1  0  0  0  0
 26 27  2  0  0  0  0
 28 15  1  0  0  0  0
 29 26  2  0  0  0  0
 30 18  1  0  0  0  0
 30 32  1  0  0  0  0
 30 31  1  0  0  0  0
 33 30  1  0  0  0  0
M  RAD  2  14   2  15   2
M  END
