Coordinates from ORCA-job p-NO2-Ph-N2-OTs-B3LYPG-6-31G_dp-scan-d09-49-n400
 OpenBabel08281821283D

 33 33  0  0  0  0  0  0  0  0999 V2000
   -1.6641   -0.1327   -3.4941 C   0  0  0  0  0  0  0  0  0  0  0  0
   -0.4267   -0.7601   -3.4293 C   0  0  0  0  0  0  0  0  0  0  0  0
    0.6102   -0.1236   -2.7366 C   0  0  0  0  0  0  0  0  0  0  0  0
    0.4574    1.1098   -2.0857 C   0  0  0  0  0  0  0  0  0  0  0  0
   -0.7904    1.7202   -2.1467 C   0  0  0  0  0  0  0  0  0  0  0  0
   -1.8186    1.0931   -2.8486 C   0  0  0  0  0  0  0  0  0  0  0  0
   -2.5015   -0.5704   -4.0214 H   0  0  0  0  0  0  0  0  0  0  0  0
   -0.2547   -1.7178   -3.9061 H   0  0  0  0  0  0  0  0  0  0  0  0
    1.2986    1.5506   -1.5651 H   0  0  0  0  0  0  0  0  0  0  0  0
   -0.9703    2.6750   -1.6696 H   0  0  0  0  0  0  0  0  0  0  0  0
   -3.1431    1.7555   -2.9085 N   0  0  0  0  0  0  0  0  0  0  0  0
   -3.2635    2.8247   -2.3197 O   0  0  0  0  0  0  0  0  0  0  0  0
   -4.0269    1.1838   -3.5410 O   0  0  0  0  0  0  0  0  0  0  0  0
    1.8417   -0.7958   -2.6851 N   0  0  0  0  0  0  0  0  0  0  0  0
    2.9591   -0.7838   -2.4392 N   0  0  0  0  0  0  0  0  0  0  0  0
    6.5141    2.1778   -2.4337 C   0  0  0  0  0  0  0  0  0  0  0  0
    7.8350    1.9296   -2.7956 C   0  0  0  0  0  0  0  0  0  0  0  0
    8.1509    1.3228   -4.0215 C   0  0  0  0  0  0  0  0  0  0  0  0
    7.1015    0.9777   -4.8825 C   0  0  0  0  0  0  0  0  0  0  0  0
    5.7720    1.2169   -4.5326 C   0  0  0  0  0  0  0  0  0  0  0  0
    5.4853    1.8119   -3.3054 C   0  0  0  0  0  0  0  0  0  0  0  0
    6.2785    2.6632   -1.4927 H   0  0  0  0  0  0  0  0  0  0  0  0
    8.6363    2.2183   -2.1202 H   0  0  0  0  0  0  0  0  0  0  0  0
    7.3265    0.5227   -5.8438 H   0  0  0  0  0  0  0  0  0  0  0  0
    4.9594    0.9646   -5.2048 H   0  0  0  0  0  0  0  0  0  0  0  0
    3.7822    2.1203   -2.8374 S   0  0  0  0  0  0  0  0  0  0  0  0
    3.7235    3.4726   -2.2521 O   0  0  0  0  0  0  0  0  0  0  0  0
    3.4846    1.0646   -1.7242 O   0  0  0  0  0  0  0  0  0  0  0  0
    2.9382    1.8291   -4.0162 O   0  0  0  0  0  0  0  0  0  0  0  0
    9.5866    1.0346   -4.3914 C   0  0  0  0  0  0  0  0  0  0  0  0
   10.2605    1.8122   -4.0187 H   0  0  0  0  0  0  0  0  0  0  0  0
    9.9212    0.0830   -3.9596 H   0  0  0  0  0  0  0  0  0  0  0  0
    9.7149    0.9642   -5.4754 H   0  0  0  0  0  0  0  0  0  0  0  0
  1  2  2  0  0  0  0
  1  6  1  0  0  0  0
  2  3  1  0  0  0  0
  3 14  1  0  0  0  0
  3  4  2  0  0  0  0
  4  9  1  0  0  0  0
  5  4  1  0  0  0  0
  5 10  1  0  0  0  0
  6  5  2  0  0  0  0
  7  1  1  0  0  0  0
  8  2  1  0  0  0  0
 11  6  1  0  0  0  0
 11 12  2  0  0  0  0
 13 11  2  0  0  0  0
 14 15  2  0  0  0  0
 16 22  1  0  0  0  0
 17 16  1  0  0  0  0
 17 23  1  0  0  0  0
 18 17  2  0  0  0  0
 19 20  2  0  0  0  0
 19 18  1  0  0  0  0
 20 21  1  0  0  0  0
 21 26  1  0  0  0  0
 21 16  2  0  0  0  0
 24 19  1  0  0  0  0
 25 20  1  0  0  0  0
 26 27  2  0  0  0  0
 26 28  1  0  0  0  0
 29 26  2  0  0  0  0
 30 18  1  0  0  0  0
 30 31  1  0  0  0  0
 30 32  1  0  0  0  0
 33 30  1  0  0  0  0
M  RAD  2  15   2  28   2
M  END
