Coordinates from ORCA-job p-NO2-Ph-N2-OTs-B3LYPG-6-31G_dp-scan-d09-49-n400
 OpenBabel08281821283D

 33 33  0  0  0  0  0  0  0  0999 V2000
   -1.7584   -0.1177   -3.4314 C   0  0  0  0  0  0  0  0  0  0  0  0
   -0.5124   -0.7306   -3.4670 C   0  0  0  0  0  0  0  0  0  0  0  0
    0.5660   -0.1020   -2.8318 C   0  0  0  0  0  0  0  0  0  0  0  0
    0.4431    1.1149   -2.1436 C   0  0  0  0  0  0  0  0  0  0  0  0
   -0.8118    1.7132   -2.1053 C   0  0  0  0  0  0  0  0  0  0  0  0
   -1.8806    1.0910   -2.7482 C   0  0  0  0  0  0  0  0  0  0  0  0
   -2.6254   -0.5537   -3.9100 H   0  0  0  0  0  0  0  0  0  0  0  0
   -0.3640   -1.6749   -3.9775 H   0  0  0  0  0  0  0  0  0  0  0  0
    1.3112    1.5552   -1.6695 H   0  0  0  0  0  0  0  0  0  0  0  0
   -0.9674    2.6546   -1.5942 H   0  0  0  0  0  0  0  0  0  0  0  0
   -3.2123    1.7392   -2.6996 N   0  0  0  0  0  0  0  0  0  0  0  0
   -3.3023    2.7924   -2.0771 O   0  0  0  0  0  0  0  0  0  0  0  0
   -4.1325    1.1732   -3.2837 O   0  0  0  0  0  0  0  0  0  0  0  0
    1.7997   -0.7734   -2.8918 N   0  0  0  0  0  0  0  0  0  0  0  0
    2.9323   -0.7341   -2.7009 N   0  0  0  0  0  0  0  0  0  0  0  0
    6.5001    2.2318   -2.4936 C   0  0  0  0  0  0  0  0  0  0  0  0
    7.8394    1.9911   -2.7886 C   0  0  0  0  0  0  0  0  0  0  0  0
    8.2161    1.3279   -3.9666 C   0  0  0  0  0  0  0  0  0  0  0  0
    7.2095    0.9188   -4.8513 C   0  0  0  0  0  0  0  0  0  0  0  0
    5.8632    1.1493   -4.5691 C   0  0  0  0  0  0  0  0  0  0  0  0
    5.5161    1.8012   -3.3864 C   0  0  0  0  0  0  0  0  0  0  0  0
    6.2155    2.7616   -1.5908 H   0  0  0  0  0  0  0  0  0  0  0  0
    8.6071    2.3301   -2.0979 H   0  0  0  0  0  0  0  0  0  0  0  0
    7.4827    0.4204   -5.7781 H   0  0  0  0  0  0  0  0  0  0  0  0
    5.0846    0.8484   -5.2611 H   0  0  0  0  0  0  0  0  0  0  0  0
    3.7905    2.0915   -3.0011 S   0  0  0  0  0  0  0  0  0  0  0  0
    3.6899    3.4239   -2.3833 O   0  0  0  0  0  0  0  0  0  0  0  0
    3.4438    1.0154   -1.9124 O   0  0  0  0  0  0  0  0  0  0  0  0
    3.0054    1.8123   -4.2196 O   0  0  0  0  0  0  0  0  0  0  0  0
    9.6700    1.0464   -4.2627 C   0  0  0  0  0  0  0  0  0  0  0  0
   10.3225    1.8106   -3.8302 H   0  0  0  0  0  0  0  0  0  0  0  0
    9.9772    0.0812   -3.8408 H   0  0  0  0  0  0  0  0  0  0  0  0
    9.8596    1.0056   -5.3392 H   0  0  0  0  0  0  0  0  0  0  0  0
  1  6  1  0  0  0  0
  2  1  2  0  0  0  0
  2  3  1  0  0  0  0
  3  4  2  0  0  0  0
  4  5  1  0  0  0  0
  4  9  1  0  0  0  0
  5 10  1  0  0  0  0
  6 11  1  0  0  0  0
  6  5  2  0  0  0  0
  7  1  1  0  0  0  0
  8  2  1  0  0  0  0
 11 12  2  0  0  0  0
 13 11  2  0  0  0  0
 14  3  1  0  0  0  0
 14 15  2  0  0  0  0
 16 22  1  0  0  0  0
 17 16  1  0  0  0  0
 17 23  1  0  0  0  0
 18 17  2  0  0  0  0
 19 20  2  0  0  0  0
 19 18  1  0  0  0  0
 20 21  1  0  0  0  0
 21 26  1  0  0  0  0
 21 16  2  0  0  0  0
 24 19  1  0  0  0  0
 25 20  1  0  0  0  0
 26 27  2  0  0  0  0
 26 28  1  0  0  0  0
 29 26  2  0  0  0  0
 30 18  1  0  0  0  0
 30 32  1  0  0  0  0
 30 31  1  0  0  0  0
 33 30  1  0  0  0  0
M  RAD  2  15   2  28   2
M  END
