Coordinates from ORCA-job p-NO2-Ph-N2-OTs-B3LYPG-6-31G_dp-scan-d09-49-n400
 OpenBabel08281821283D

 33 34  0  0  0  0  0  0  0  0999 V2000
   -1.2251   -0.5470   -1.9597 C   0  0  0  0  0  0  0  0  0  0  0  0
    0.1561   -0.5336   -1.8191 C   0  0  0  0  0  0  0  0  0  0  0  0
    0.9020    0.5280   -2.3565 C   0  0  0  0  0  0  0  0  0  0  0  0
    0.2823    1.5895   -3.0420 C   0  0  0  0  0  0  0  0  0  0  0  0
   -1.1025    1.5692   -3.1800 C   0  0  0  0  0  0  0  0  0  0  0  0
   -1.8277    0.5089   -2.6407 C   0  0  0  0  0  0  0  0  0  0  0  0
   -1.8346   -1.3468   -1.5596 H   0  0  0  0  0  0  0  0  0  0  0  0
    0.6739   -1.3321   -1.2996 H   0  0  0  0  0  0  0  0  0  0  0  0
    0.8791    2.3946   -3.4457 H   0  0  0  0  0  0  0  0  0  0  0  0
   -1.6248    2.3634   -3.6987 H   0  0  0  0  0  0  0  0  0  0  0  0
   -3.2991    0.5004   -2.7978 N   0  0  0  0  0  0  0  0  0  0  0  0
   -3.8077    1.4413   -3.4002 O   0  0  0  0  0  0  0  0  0  0  0  0
   -3.9108   -0.4492   -2.3147 O   0  0  0  0  0  0  0  0  0  0  0  0
    2.2921    0.4212   -2.1481 N   0  0  0  0  0  0  0  0  0  0  0  0
    3.2856    1.0123   -2.3736 N   0  0  0  0  0  0  0  0  0  0  0  0
    6.4623    2.2663   -2.6383 C   0  0  0  0  0  0  0  0  0  0  0  0
    7.5806    1.4428   -2.7517 C   0  0  0  0  0  0  0  0  0  0  0  0
    7.8653    0.7663   -3.9466 C   0  0  0  0  0  0  0  0  0  0  0  0
    7.0030    0.9452   -5.0385 C   0  0  0  0  0  0  0  0  0  0  0  0
    5.8809    1.7650   -4.9441 C   0  0  0  0  0  0  0  0  0  0  0  0
    5.6164    2.4156   -3.7376 C   0  0  0  0  0  0  0  0  0  0  0  0
    6.2513    2.8032   -1.7201 H   0  0  0  0  0  0  0  0  0  0  0  0
    8.2474    1.3290   -1.9006 H   0  0  0  0  0  0  0  0  0  0  0  0
    7.2194    0.4437   -5.9779 H   0  0  0  0  0  0  0  0  0  0  0  0
    5.2271    1.9211   -5.7954 H   0  0  0  0  0  0  0  0  0  0  0  0
    4.1824    3.4749   -3.6137 S   0  0  0  0  0  0  0  0  0  0  0  0
    4.3926    4.4107   -2.5059 O   0  0  0  0  0  0  0  0  0  0  0  0
    2.9627    2.4555   -3.2745 O   0  0  0  0  0  0  0  0  0  0  0  0
    3.8645    3.9877   -4.9484 O   0  0  0  0  0  0  0  0  0  0  0  0
    9.0625   -0.1479   -4.0504 C   0  0  0  0  0  0  0  0  0  0  0  0
    9.8815    0.1902   -3.4091 H   0  0  0  0  0  0  0  0  0  0  0  0
    8.8047   -1.1678   -3.7382 H   0  0  0  0  0  0  0  0  0  0  0  0
    9.4345   -0.2067   -5.0772 H   0  0  0  0  0  0  0  0  0  0  0  0
  1  2  1  0  0  0  0
  1  7  1  0  0  0  0
  2  8  1  0  0  0  0
  3 14  1  0  0  0  0
  3  2  2  0  0  0  0
  4  3  1  0  0  0  0
  5  4  2  0  0  0  0
  5  6  1  0  0  0  0
  6  1  2  0  0  0  0
  9  4  1  0  0  0  0
 10  5  1  0  0  0  0
 11  6  1  0  0  0  0
 11 13  2  0  0  0  0
 12 11  2  0  0  0  0
 15 14  1  0  0  0  0
 16 22  1  0  0  0  0
 17 16  1  0  0  0  0
 17 23  1  0  0  0  0
 18 17  2  0  0  0  0
 19 20  2  0  0  0  0
 19 18  1  0  0  0  0
 20 21  1  0  0  0  0
 21 26  1  0  0  0  0
 21 16  2  0  0  0  0
 24 19  1  0  0  0  0
 25 20  1  0  0  0  0
 26 28  1  0  0  0  0
 26 27  2  0  0  0  0
 28 15  1  0  0  0  0
 29 26  2  0  0  0  0
 30 18  1  0  0  0  0
 30 32  1  0  0  0  0
 30 31  1  0  0  0  0
 33 30  1  0  0  0  0
M  RAD  2  14   2  15   2
M  END
