Coordinates from ORCA-job p-NO2-Ph-N2-OTs-B3LYPG-6-31G_dp-scan-d09-49-n400
 OpenBabel08281821283D

 33 33  0  0  0  0  0  0  0  0999 V2000
   -1.2155    0.4080   -1.7410 C   0  0  0  0  0  0  0  0  0  0  0  0
   -0.4669    1.4658   -1.2437 C   0  0  0  0  0  0  0  0  0  0  0  0
    0.7342    1.8492   -1.8669 C   0  0  0  0  0  0  0  0  0  0  0  0
    1.1789    1.1732   -3.0197 C   0  0  0  0  0  0  0  0  0  0  0  0
    0.4222    0.1217   -3.5276 C   0  0  0  0  0  0  0  0  0  0  0  0
   -0.7548   -0.2482   -2.8806 C   0  0  0  0  0  0  0  0  0  0  0  0
   -2.1392    0.0899   -1.2758 H   0  0  0  0  0  0  0  0  0  0  0  0
   -0.7889    2.0164   -0.3670 H   0  0  0  0  0  0  0  0  0  0  0  0
    2.0934    1.4659   -3.5120 H   0  0  0  0  0  0  0  0  0  0  0  0
    0.7322   -0.4162   -4.4146 H   0  0  0  0  0  0  0  0  0  0  0  0
   -1.5413   -1.3721   -3.4224 N   0  0  0  0  0  0  0  0  0  0  0  0
   -1.1105   -1.9350   -4.4269 O   0  0  0  0  0  0  0  0  0  0  0  0
   -2.5767   -1.6746   -2.8327 O   0  0  0  0  0  0  0  0  0  0  0  0
    1.3492    2.9594   -1.2266 N   0  0  0  0  0  0  0  0  0  0  0  0
    2.4640    3.4068   -1.4527 N   0  0  0  0  0  0  0  0  0  0  0  0
    6.0360    1.3449   -2.5820 C   0  0  0  0  0  0  0  0  0  0  0  0
    6.7093    0.3206   -3.2416 C   0  0  0  0  0  0  0  0  0  0  0  0
    7.0305    0.4264   -4.6048 C   0  0  0  0  0  0  0  0  0  0  0  0
    6.6614    1.5919   -5.2925 C   0  0  0  0  0  0  0  0  0  0  0  0
    5.9850    2.6259   -4.6476 C   0  0  0  0  0  0  0  0  0  0  0  0
    5.6695    2.4898   -3.2963 C   0  0  0  0  0  0  0  0  0  0  0  0
    5.7959    1.2512   -1.5260 H   0  0  0  0  0  0  0  0  0  0  0  0
    6.9962   -0.5723   -2.6922 H   0  0  0  0  0  0  0  0  0  0  0  0
    6.9144    1.6932   -6.3444 H   0  0  0  0  0  0  0  0  0  0  0  0
    5.7078    3.5365   -5.1694 H   0  0  0  0  0  0  0  0  0  0  0  0
    4.8964    3.8624   -2.4084 S   0  0  2  0  0  0  0  0  0  0  0  0
    3.4242    5.2255   -0.5075 O   0  0  0  0  0  0  0  0  0  0  0  0
    3.3000    2.8617   -2.3643 O   0  0  0  0  0  0  0  0  0  0  0  0
    4.7471    4.9410   -3.4062 O   0  0  0  0  0  0  0  0  0  0  0  0
    7.7451   -0.6982   -5.3135 C   0  0  0  0  0  0  0  0  0  0  0  0
    8.5062   -1.1547   -4.6733 H   0  0  0  0  0  0  0  0  0  0  0  0
    7.0412   -1.4906   -5.5958 H   0  0  0  0  0  0  0  0  0  0  0  0
    8.2318   -0.3504   -6.2282 H   0  0  0  0  0  0  0  0  0  0  0  0
  1  7  1  0  0  0  0
  1  2  1  0  0  0  0
  2  8  1  0  0  0  0
  3  2  2  0  0  0  0
  3 14  1  0  0  0  0
  4  3  1  0  0  0  0
  5  4  2  0  0  0  0
  5  6  1  0  0  0  0
  6  1  2  0  0  0  0
  9  4  1  0  0  0  0
 10  5  1  0  0  0  0
 11  6  1  0  0  0  0
 11 13  2  0  0  0  0
 12 11  2  0  0  0  0
 15 14  2  0  0  0  0
 16 22  1  0  0  0  0
 17 23  1  0  0  0  0
 17 16  1  0  0  0  0
 18 17  2  0  0  0  0
 19 20  2  0  0  0  0
 19 18  1  0  0  0  0
 20 21  1  0  0  0  0
 21 16  2  0  0  0  0
 21 26  1  0  0  0  0
 24 19  1  0  0  0  0
 25 20  1  0  0  0  0
 26 29  1  6  0  0  0
 26 28  1  0  0  0  0
 28 15  1  0  0  0  0
 30 31  1  0  0  0  0
 30 18  1  0  0  0  0
 32 30  1  0  0  0  0
 33 30  1  0  0  0  0
M  RAD  2  27   3  29   2
M  END
