Coordinates from ORCA-job p-NO2-Ph-N2-OTs-B3LYPG-6-31G_dp-scan-d09-49-n400
 OpenBabel08281821283D

 33 34  0  0  0  0  0  0  0  0999 V2000
   -1.1945   -0.4738   -1.8614 C   0  0  0  0  0  0  0  0  0  0  0  0
    0.1584   -0.3501   -1.5751 C   0  0  0  0  0  0  0  0  0  0  0  0
    0.9139    0.6725   -2.1732 C   0  0  0  0  0  0  0  0  0  0  0  0
    0.3228    1.5882   -3.0645 C   0  0  0  0  0  0  0  0  0  0  0  0
   -1.0338    1.4604   -3.3476 C   0  0  0  0  0  0  0  0  0  0  0  0
   -1.7650    0.4379   -2.7469 C   0  0  0  0  0  0  0  0  0  0  0  0
   -1.8059   -1.2503   -1.4202 H   0  0  0  0  0  0  0  0  0  0  0  0
    0.6509   -1.0341   -0.8931 H   0  0  0  0  0  0  0  0  0  0  0  0
    0.9161    2.3707   -3.5138 H   0  0  0  0  0  0  0  0  0  0  0  0
   -1.5303    2.1416   -4.0274 H   0  0  0  0  0  0  0  0  0  0  0  0
   -3.2046    0.3124   -3.0624 N   0  0  0  0  0  0  0  0  0  0  0  0
   -3.6840    1.1263   -3.8468 O   0  0  0  0  0  0  0  0  0  0  0  0
   -3.8226   -0.5998   -2.5187 O   0  0  0  0  0  0  0  0  0  0  0  0
    2.2730    0.6684   -1.7900 N   0  0  0  0  0  0  0  0  0  0  0  0
    3.2556    1.2911   -2.0206 N   0  0  0  0  0  0  0  0  0  0  0  0
    6.4728    2.1944   -2.6098 C   0  0  0  0  0  0  0  0  0  0  0  0
    7.5614    1.3438   -2.7901 C   0  0  0  0  0  0  0  0  0  0  0  0
    7.8032    0.7263   -4.0258 C   0  0  0  0  0  0  0  0  0  0  0  0
    6.9281    0.9918   -5.0896 C   0  0  0  0  0  0  0  0  0  0  0  0
    5.8341    1.8388   -4.9288 C   0  0  0  0  0  0  0  0  0  0  0  0
    5.6128    2.4294   -3.6833 C   0  0  0  0  0  0  0  0  0  0  0  0
    6.2956    2.6847   -1.6591 H   0  0  0  0  0  0  0  0  0  0  0  0
    8.2387    1.1621   -1.9596 H   0  0  0  0  0  0  0  0  0  0  0  0
    7.1115    0.5365   -6.0589 H   0  0  0  0  0  0  0  0  0  0  0  0
    5.1693    2.0603   -5.7565 H   0  0  0  0  0  0  0  0  0  0  0  0
    4.2157    3.5222   -3.4751 S   0  0  0  0  0  0  0  0  0  0  0  0
    4.4804    4.4099   -2.3426 O   0  0  0  0  0  0  0  0  0  0  0  0
    2.9734    2.5098   -3.1423 O   0  0  0  0  0  0  0  0  0  0  0  0
    3.8511    4.0771   -4.7788 O   0  0  0  0  0  0  0  0  0  0  0  0
    8.9683   -0.2172   -4.2026 C   0  0  0  0  0  0  0  0  0  0  0  0
    9.8097    0.0597   -3.5610 H   0  0  0  0  0  0  0  0  0  0  0  0
    8.6832   -1.2440   -3.9401 H   0  0  0  0  0  0  0  0  0  0  0  0
    9.3189   -0.2322   -5.2384 H   0  0  0  0  0  0  0  0  0  0  0  0
  1  2  1  0  0  0  0
  1  7  1  0  0  0  0
  2  8  1  0  0  0  0
  3 14  1  0  0  0  0
  3  2  2  0  0  0  0
  4  3  1  0  0  0  0
  5  4  2  0  0  0  0
  5  6  1  0  0  0  0
  6  1  2  0  0  0  0
  9  4  1  0  0  0  0
 10  5  1  0  0  0  0
 11  6  1  0  0  0  0
 11 13  2  0  0  0  0
 12 11  2  0  0  0  0
 15 14  1  0  0  0  0
 16 22  1  0  0  0  0
 17 16  1  0  0  0  0
 17 23  1  0  0  0  0
 18 17  2  0  0  0  0
 19 20  2  0  0  0  0
 19 18  1  0  0  0  0
 20 21  1  0  0  0  0
 21 26  1  0  0  0  0
 21 16  2  0  0  0  0
 24 19  1  0  0  0  0
 25 20  1  0  0  0  0
 26 28  1  0  0  0  0
 26 27  2  0  0  0  0
 28 15  1  0  0  0  0
 29 26  2  0  0  0  0
 30 18  1  0  0  0  0
 30 32  1  0  0  0  0
 30 31  1  0  0  0  0
 33 30  1  0  0  0  0
M  RAD  2  14   2  15   2
M  END
