Coordinates from ORCA-job p-NO2-Ph-N2-OTs-B3LYPG-6-31G_dp-scan-d09-49-n400
 OpenBabel08281821283D

 33 34  0  0  0  0  0  0  0  0999 V2000
   -1.2255   -0.5573   -1.9750 C   0  0  0  0  0  0  0  0  0  0  0  0
    0.1581   -0.5559   -1.8578 C   0  0  0  0  0  0  0  0  0  0  0  0
    0.9014    0.5121   -2.3860 C   0  0  0  0  0  0  0  0  0  0  0  0
    0.2777    1.5915   -3.0390 C   0  0  0  0  0  0  0  0  0  0  0  0
   -1.1093    1.5827   -3.1540 C   0  0  0  0  0  0  0  0  0  0  0  0
   -1.8323    0.5162   -2.6239 C   0  0  0  0  0  0  0  0  0  0  0  0
   -1.8335   -1.3612   -1.5812 H   0  0  0  0  0  0  0  0  0  0  0  0
    0.6790   -1.3684   -1.3640 H   0  0  0  0  0  0  0  0  0  0  0  0
    0.8738    2.4006   -3.4360 H   0  0  0  0  0  0  0  0  0  0  0  0
   -1.6349    2.3908   -3.6474 H   0  0  0  0  0  0  0  0  0  0  0  0
   -3.3062    0.5205   -2.7558 N   0  0  0  0  0  0  0  0  0  0  0  0
   -3.8186    1.4763   -3.3309 O   0  0  0  0  0  0  0  0  0  0  0  0
   -3.9160   -0.4344   -2.2809 O   0  0  0  0  0  0  0  0  0  0  0  0
    2.2941    0.3938   -2.2050 N   0  0  0  0  0  0  0  0  0  0  0  0
    3.2881    0.9821   -2.4313 N   0  0  0  0  0  0  0  0  0  0  0  0
    6.4564    2.2738   -2.6416 C   0  0  0  0  0  0  0  0  0  0  0  0
    7.5773    1.4523   -2.7443 C   0  0  0  0  0  0  0  0  0  0  0  0
    7.8700    0.7697   -3.9338 C   0  0  0  0  0  0  0  0  0  0  0  0
    7.0132    0.9405   -5.0313 C   0  0  0  0  0  0  0  0  0  0  0  0
    5.8887    1.7582   -4.9475 C   0  0  0  0  0  0  0  0  0  0  0  0
    5.6161    2.4151   -3.7462 C   0  0  0  0  0  0  0  0  0  0  0  0
    6.2393    2.8156   -1.7277 H   0  0  0  0  0  0  0  0  0  0  0  0
    8.2397    1.3450   -1.8890 H   0  0  0  0  0  0  0  0  0  0  0  0
    7.2359    0.4343   -5.9667 H   0  0  0  0  0  0  0  0  0  0  0  0
    5.2392    1.9083   -5.8032 H   0  0  0  0  0  0  0  0  0  0  0  0
    4.1792    3.4721   -3.6361 S   0  0  0  0  0  0  0  0  0  0  0  0
    4.3838    4.4168   -2.5344 O   0  0  0  0  0  0  0  0  0  0  0  0
    2.9608    2.4552   -3.2903 O   0  0  0  0  0  0  0  0  0  0  0  0
    3.8678    3.9755   -4.9761 O   0  0  0  0  0  0  0  0  0  0  0  0
    9.0699   -0.1421   -4.0259 C   0  0  0  0  0  0  0  0  0  0  0  0
    9.8850    0.2023   -3.3830 H   0  0  0  0  0  0  0  0  0  0  0  0
    8.8132   -1.1607   -3.7082 H   0  0  0  0  0  0  0  0  0  0  0  0
    9.4468   -0.2068   -5.0505 H   0  0  0  0  0  0  0  0  0  0  0  0
  1  2  1  0  0  0  0
  1  7  1  0  0  0  0
  2  8  1  0  0  0  0
  3 14  1  0  0  0  0
  3  2  2  0  0  0  0
  4  3  1  0  0  0  0
  5  4  2  0  0  0  0
  5  6  1  0  0  0  0
  6  1  2  0  0  0  0
  9  4  1  0  0  0  0
 10  5  1  0  0  0  0
 11  6  1  0  0  0  0
 11 13  2  0  0  0  0
 12 11  2  0  0  0  0
 15 14  1  0  0  0  0
 16 22  1  0  0  0  0
 17 16  1  0  0  0  0
 17 23  1  0  0  0  0
 18 17  2  0  0  0  0
 19 20  2  0  0  0  0
 19 18  1  0  0  0  0
 20 21  1  0  0  0  0
 21 26  1  0  0  0  0
 21 16  2  0  0  0  0
 24 19  1  0  0  0  0
 25 20  1  0  0  0  0
 26 28  1  0  0  0  0
 26 27  2  0  0  0  0
 28 15  1  0  0  0  0
 29 26  2  0  0  0  0
 30 18  1  0  0  0  0
 30 32  1  0  0  0  0
 30 31  1  0  0  0  0
 33 30  1  0  0  0  0
M  RAD  2  14   2  15   2
M  END
