Coordinates from ORCA-job p-NO2-Ph-N2-OTs-B3LYPG-6-31G_dp-scan-d09-49-n400
 OpenBabel08281821283D

 33 34  0  0  0  0  0  0  0  0999 V2000
   -0.5067    0.0434   -1.8330 C   0  0  0  0  0  0  0  0  0  0  0  0
    0.1385    1.0101   -1.0709 C   0  0  0  0  0  0  0  0  0  0  0  0
    0.8369    2.0544   -1.6953 C   0  0  0  0  0  0  0  0  0  0  0  0
    0.8463    2.1586   -3.0978 C   0  0  0  0  0  0  0  0  0  0  0  0
    0.1944    1.1995   -3.8614 C   0  0  0  0  0  0  0  0  0  0  0  0
   -0.4667    0.1504   -3.2215 C   0  0  0  0  0  0  0  0  0  0  0  0
   -1.0388   -0.7808   -1.3753 H   0  0  0  0  0  0  0  0  0  0  0  0
    0.1149    0.9684    0.0128 H   0  0  0  0  0  0  0  0  0  0  0  0
    1.3658    2.9772   -3.5815 H   0  0  0  0  0  0  0  0  0  0  0  0
    0.1875    1.2504   -4.9432 H   0  0  0  0  0  0  0  0  0  0  0  0
   -1.1458   -0.8662   -4.0350 N   0  0  0  0  0  0  0  0  0  0  0  0
   -1.0904   -0.7492   -5.2593 O   0  0  0  0  0  0  0  0  0  0  0  0
   -1.7276   -1.7760   -3.4437 O   0  0  0  0  0  0  0  0  0  0  0  0
    1.3644    3.0422   -0.8348 N   0  0  0  0  0  0  0  0  0  0  0  0
    2.5289    3.5014   -0.9837 N   0  0  0  0  0  0  0  0  0  0  0  0
    6.3087    1.7236   -2.5615 C   0  0  0  0  0  0  0  0  0  0  0  0
    7.0847    0.6630   -3.0221 C   0  0  0  0  0  0  0  0  0  0  0  0
    6.9691    0.1999   -4.3422 C   0  0  0  0  0  0  0  0  0  0  0  0
    6.0583    0.8357   -5.1990 C   0  0  0  0  0  0  0  0  0  0  0  0
    5.2741    1.8990   -4.7562 C   0  0  0  0  0  0  0  0  0  0  0  0
    5.4015    2.3246   -3.4358 C   0  0  0  0  0  0  0  0  0  0  0  0
    6.4050    2.0708   -1.5368 H   0  0  0  0  0  0  0  0  0  0  0  0
    7.7929    0.1871   -2.3491 H   0  0  0  0  0  0  0  0  0  0  0  0
    5.9649    0.4954   -6.2268 H   0  0  0  0  0  0  0  0  0  0  0  0
    4.5745    2.4056   -5.4137 H   0  0  0  0  0  0  0  0  0  0  0  0
    4.4364    3.7494   -2.8840 S   0  0  2  0  0  0  0  0  0  0  0  0
    3.0402    4.3633   -0.4603 O   0  0  0  0  0  0  0  0  0  0  0  0
    3.4085    2.6918   -1.9651 O   0  0  0  0  0  0  0  0  0  0  0  0
    3.6587    4.2400   -4.0568 O   0  0  0  0  0  0  0  0  0  0  0  0
    7.7925   -0.9698   -4.8237 C   0  0  0  0  0  0  0  0  0  0  0  0
    8.7304   -1.0562   -4.2690 H   0  0  0  0  0  0  0  0  0  0  0  0
    7.2450   -1.9115   -4.6911 H   0  0  0  0  0  0  0  0  0  0  0  0
    8.0316   -0.8807   -5.8873 H   0  0  0  0  0  0  0  0  0  0  0  0
  1  7  1  0  0  0  0
  1  2  2  0  0  0  0
  2  8  1  0  0  0  0
  3  2  1  0  0  0  0
  3 14  1  0  0  0  0
  4  3  2  0  0  0  0
  5  6  2  0  0  0  0
  5  4  1  0  0  0  0
  6  1  1  0  0  0  0
  9  4  1  0  0  0  0
 10  5  1  0  0  0  0
 11 13  2  0  0  0  0
 11  6  1  0  0  0  0
 12 11  2  0  0  0  0
 15 14  1  0  0  0  0
 15 27  1  0  0  0  0
 16 22  1  0  0  0  0
 17 16  1  0  0  0  0
 17 23  1  0  0  0  0
 18 17  2  0  0  0  0
 19 20  2  0  0  0  0
 19 18  1  0  0  0  0
 20 21  1  0  0  0  0
 21 26  1  0  0  0  0
 21 16  2  0  0  0  0
 24 19  1  0  0  0  0
 25 20  1  0  0  0  0
 26 29  1  6  0  0  0
 26 28  1  0  0  0  0
 28 15  1  0  0  0  0
 30 32  1  0  0  0  0
 30 18  1  0  0  0  0
 30 31  1  0  0  0  0
 33 30  1  0  0  0  0
M  RAD  3  14   2  27   2  29   2
M  END
