Coordinates from ORCA-job p-NO2-Ph-N2-OTs-B3LYPG-6-31G_dp-scan-d09-49-n400
 OpenBabel08281821283D

 33 33  0  0  0  0  0  0  0  0999 V2000
   -1.8085   -0.1065   -3.4003 C   0  0  0  0  0  0  0  0  0  0  0  0
   -0.5617   -0.7118   -3.4934 C   0  0  0  0  0  0  0  0  0  0  0  0
    0.5378   -0.0910   -2.8870 C   0  0  0  0  0  0  0  0  0  0  0  0
    0.4341    1.1134   -2.1733 C   0  0  0  0  0  0  0  0  0  0  0  0
   -0.8208    1.7054   -2.0785 C   0  0  0  0  0  0  0  0  0  0  0  0
   -1.9105    1.0894   -2.6916 C   0  0  0  0  0  0  0  0  0  0  0  0
   -2.6906   -0.5383   -3.8542 H   0  0  0  0  0  0  0  0  0  0  0  0
   -0.4280   -1.6459   -4.0264 H   0  0  0  0  0  0  0  0  0  0  0  0
    1.3168    1.5496   -1.7231 H   0  0  0  0  0  0  0  0  0  0  0  0
   -0.9615    2.6368   -1.5453 H   0  0  0  0  0  0  0  0  0  0  0  0
   -3.2420    1.7300   -2.5816 N   0  0  0  0  0  0  0  0  0  0  0  0
   -3.3131    2.7714   -1.9370 O   0  0  0  0  0  0  0  0  0  0  0  0
   -4.1810    1.1704   -3.1414 O   0  0  0  0  0  0  0  0  0  0  0  0
    1.7695   -0.7585   -3.0102 N   0  0  0  0  0  0  0  0  0  0  0  0
    2.9088   -0.7104   -2.8506 N   0  0  0  0  0  0  0  0  0  0  0  0
    6.4920    2.2626   -2.5298 C   0  0  0  0  0  0  0  0  0  0  0  0
    7.8401    2.0266   -2.7873 C   0  0  0  0  0  0  0  0  0  0  0  0
    8.2495    1.3308   -3.9349 C   0  0  0  0  0  0  0  0  0  0  0  0
    7.2672    0.8838   -4.8291 C   0  0  0  0  0  0  0  0  0  0  0  0
    5.9130    1.1094   -4.5846 C   0  0  0  0  0  0  0  0  0  0  0  0
    5.5332    1.7944   -3.4307 C   0  0  0  0  0  0  0  0  0  0  0  0
    6.1810    2.8179   -1.6514 H   0  0  0  0  0  0  0  0  0  0  0  0
    8.5888    2.3948   -2.0909 H   0  0  0  0  0  0  0  0  0  0  0  0
    7.5665    0.3597   -5.7332 H   0  0  0  0  0  0  0  0  0  0  0  0
    5.1536    0.7798   -5.2848 H   0  0  0  0  0  0  0  0  0  0  0  0
    3.7970    2.0761   -3.0921 S   0  0  0  0  0  0  0  0  0  0  0  0
    3.6733    3.3991   -2.4601 O   0  0  0  0  0  0  0  0  0  0  0  0
    3.4226    0.9893   -2.0191 O   0  0  0  0  0  0  0  0  0  0  0  0
    3.0462    1.8042   -4.3326 O   0  0  0  0  0  0  0  0  0  0  0  0
    9.7122    1.0549   -4.1899 C   0  0  0  0  0  0  0  0  0  0  0  0
   10.3488    1.8271   -3.7482 H   0  0  0  0  0  0  0  0  0  0  0  0
   10.0134    0.0956   -3.7507 H   0  0  0  0  0  0  0  0  0  0  0  0
    9.9304    1.0045   -5.2607 H   0  0  0  0  0  0  0  0  0  0  0  0
  1  6  1  0  0  0  0
  2  1  2  0  0  0  0
  2  3  1  0  0  0  0
  3  4  2  0  0  0  0
  4  5  1  0  0  0  0
  4  9  1  0  0  0  0
  5 10  1  0  0  0  0
  6 11  1  0  0  0  0
  6  5  2  0  0  0  0
  7  1  1  0  0  0  0
  8  2  1  0  0  0  0
 11 12  2  0  0  0  0
 13 11  2  0  0  0  0
 14  3  1  0  0  0  0
 14 15  2  0  0  0  0
 16 22  1  0  0  0  0
 17 16  1  0  0  0  0
 17 23  1  0  0  0  0
 18 17  2  0  0  0  0
 19 20  2  0  0  0  0
 19 18  1  0  0  0  0
 20 21  1  0  0  0  0
 21 26  1  0  0  0  0
 21 16  2  0  0  0  0
 24 19  1  0  0  0  0
 25 20  1  0  0  0  0
 26 27  2  0  0  0  0
 26 28  1  0  0  0  0
 29 26  2  0  0  0  0
 30 18  1  0  0  0  0
 30 32  1  0  0  0  0
 30 31  1  0  0  0  0
 33 30  1  0  0  0  0
M  RAD  2  15   2  28   2
M  END
