Coordinates from ORCA-job p-NO2-Ph-N2-OTs-B3LYPG-6-31G_dp-scan-d09-49-n400
 OpenBabel08281821283D

 33 34  0  0  0  0  0  0  0  0999 V2000
   -1.5701   -0.5292   -2.8094 C   0  0  0  0  0  0  0  0  0  0  0  0
   -0.4053   -0.6441   -3.5566 C   0  0  0  0  0  0  0  0  0  0  0  0
    0.5485    0.3848   -3.5202 C   0  0  0  0  0  0  0  0  0  0  0  0
    0.3539    1.5444   -2.7481 C   0  0  0  0  0  0  0  0  0  0  0  0
   -0.8187    1.6561   -2.0074 C   0  0  0  0  0  0  0  0  0  0  0  0
   -1.7528    0.6230   -2.0478 C   0  0  0  0  0  0  0  0  0  0  0  0
   -2.3292   -1.3011   -2.8073 H   0  0  0  0  0  0  0  0  0  0  0  0
   -0.2173   -1.5176   -4.1706 H   0  0  0  0  0  0  0  0  0  0  0  0
    1.1048    2.3225   -2.7422 H   0  0  0  0  0  0  0  0  0  0  0  0
   -1.0158    2.5299   -1.3993 H   0  0  0  0  0  0  0  0  0  0  0  0
   -2.9920    0.7535   -1.2493 N   0  0  0  0  0  0  0  0  0  0  0  0
   -3.1276    1.7751   -0.5823 O   0  0  0  0  0  0  0  0  0  0  0  0
   -3.7996   -0.1702   -1.3090 O   0  0  0  0  0  0  0  0  0  0  0  0
    1.6829    0.1551   -4.3276 N   0  0  0  0  0  0  0  0  0  0  0  0
    2.7108    0.6556   -4.5995 N   0  0  0  0  0  0  0  0  0  0  0  0
    6.2662    2.4761   -2.7910 C   0  0  0  0  0  0  0  0  0  0  0  0
    7.4622    1.8129   -2.5268 C   0  0  0  0  0  0  0  0  0  0  0  0
    8.0266    0.9324   -3.4617 C   0  0  0  0  0  0  0  0  0  0  0  0
    7.3639    0.7398   -4.6823 C   0  0  0  0  0  0  0  0  0  0  0  0
    6.1666    1.3946   -4.9641 C   0  0  0  0  0  0  0  0  0  0  0  0
    5.6228    2.2556   -4.0099 C   0  0  0  0  0  0  0  0  0  0  0  0
    5.8427    3.1725   -2.0753 H   0  0  0  0  0  0  0  0  0  0  0  0
    7.9713    1.9881   -1.5827 H   0  0  0  0  0  0  0  0  0  0  0  0
    7.7958    0.0760   -5.4269 H   0  0  0  0  0  0  0  0  0  0  0  0
    5.6637    1.2606   -5.9154 H   0  0  0  0  0  0  0  0  0  0  0  0
    4.0820    3.0950   -4.3562 S   0  0  0  0  0  0  0  0  0  0  0  0
    4.0490    4.3366   -3.5773 O   0  0  0  0  0  0  0  0  0  0  0  0
    2.9707    2.1359   -3.6816 O   0  0  0  0  0  0  0  0  0  0  0  0
    3.8859    3.1127   -5.8058 O   0  0  0  0  0  0  0  0  0  0  0  0
    9.3088    0.1967   -3.1551 C   0  0  0  0  0  0  0  0  0  0  0  0
    9.9352    0.7578   -2.4555 H   0  0  0  0  0  0  0  0  0  0  0  0
    9.1017   -0.7787   -2.6974 H   0  0  0  0  0  0  0  0  0  0  0  0
    9.8909    0.0118   -4.0626 H   0  0  0  0  0  0  0  0  0  0  0  0
  1  7  1  0  0  0  0
  1  6  2  0  0  0  0
  2  3  2  0  0  0  0
  2  1  1  0  0  0  0
  3  4  1  0  0  0  0
  4  9  1  0  0  0  0
  4  5  2  0  0  0  0
  5 10  1  0  0  0  0
  6  5  1  0  0  0  0
  6 11  1  0  0  0  0
  8  2  1  0  0  0  0
 11 12  2  0  0  0  0
 13 11  2  0  0  0  0
 14  3  1  0  0  0  0
 15 14  1  0  0  0  0
 15 28  1  0  0  0  0
 16 17  1  0  0  0  0
 16 22  1  0  0  0  0
 17 23  1  0  0  0  0
 18 30  1  0  0  0  0
 18 17  2  0  0  0  0
 19 18  1  0  0  0  0
 20 19  2  0  0  0  0
 20 21  1  0  0  0  0
 21 16  2  0  0  0  0
 24 19  1  0  0  0  0
 25 20  1  0  0  0  0
 26 21  1  0  0  0  0
 26 28  1  0  0  0  0
 26 27  2  0  0  0  0
 29 26  2  0  0  0  0
 30 32  1  0  0  0  0
 30 31  1  0  0  0  0
 33 30  1  0  0  0  0
M  RAD  2  14   2  15   2
M  END
