Coordinates from ORCA-job p-NO2-Ph-N2-OTs-B3LYPG-6-31G_dp-scan-d09-49-n400
 OpenBabel08281821283D

 33 33  0  0  0  0  0  0  0  0999 V2000
   -1.4091   -0.1699   -3.2030 C   0  0  0  0  0  0  0  0  0  0  0  0
   -0.1774   -0.7025   -2.8430 C   0  0  0  0  0  0  0  0  0  0  0  0
    0.7331    0.1469   -2.2062 C   0  0  0  0  0  0  0  0  0  0  0  0
    0.4906    1.4925   -1.9220 C   0  0  0  0  0  0  0  0  0  0  0  0
   -0.7520    2.0026   -2.2818 C   0  0  0  0  0  0  0  0  0  0  0  0
   -1.6739    1.1670   -2.9095 C   0  0  0  0  0  0  0  0  0  0  0  0
   -2.1608   -0.7692   -3.7007 H   0  0  0  0  0  0  0  0  0  0  0  0
    0.0762   -1.7340   -3.0548 H   0  0  0  0  0  0  0  0  0  0  0  0
    1.2779    2.0964   -1.4819 H   0  0  0  0  0  0  0  0  0  0  0  0
   -1.0066    3.0375   -2.0937 H   0  0  0  0  0  0  0  0  0  0  0  0
   -2.9933    1.7204   -3.2862 N   0  0  0  0  0  0  0  0  0  0  0  0
   -3.2128    2.8930   -2.9991 O   0  0  0  0  0  0  0  0  0  0  0  0
   -3.7772    0.9646   -3.8544 O   0  0  0  0  0  0  0  0  0  0  0  0
    1.9496   -0.4394   -1.7759 N   0  0  0  0  0  0  0  0  0  0  0  0
    2.5975   -1.0979   -1.1442 N   0  0  0  0  0  0  0  0  0  0  0  0
    6.2467    1.1497   -2.5342 C   0  0  0  0  0  0  0  0  0  0  0  0
    7.6054    1.0527   -2.8276 C   0  0  0  0  0  0  0  0  0  0  0  0
    8.0992    1.3905   -4.0964 C   0  0  0  0  0  0  0  0  0  0  0  0
    7.1924    1.8439   -5.0646 C   0  0  0  0  0  0  0  0  0  0  0  0
    5.8307    1.9485   -4.7850 C   0  0  0  0  0  0  0  0  0  0  0  0
    5.3634    1.5963   -3.5182 C   0  0  0  0  0  0  0  0  0  0  0  0
    5.8695    0.9082   -1.5466 H   0  0  0  0  0  0  0  0  0  0  0  0
    8.2960    0.7175   -2.0576 H   0  0  0  0  0  0  0  0  0  0  0  0
    7.5585    2.1269   -6.0482 H   0  0  0  0  0  0  0  0  0  0  0  0
    5.1330    2.3188   -5.5280 H   0  0  0  0  0  0  0  0  0  0  0  0
    3.6071    1.6981   -3.1702 S   0  0  0  0  0  0  0  0  0  0  0  0
    3.0538    2.7710   -4.0161 O   0  0  0  0  0  0  0  0  0  0  0  0
    3.4721    1.8876   -1.6939 O   0  0  0  0  0  0  0  0  0  0  0  0
    3.0513    0.3169   -3.5413 O   0  0  0  0  0  0  0  0  0  0  0  0
    9.5689    1.2525   -4.4158 C   0  0  0  0  0  0  0  0  0  0  0  0
   10.1907    1.4453   -3.5362 H   0  0  0  0  0  0  0  0  0  0  0  0
    9.8039    0.2378   -4.7617 H   0  0  0  0  0  0  0  0  0  0  0  0
    9.8738    1.9444   -5.2063 H   0  0  0  0  0  0  0  0  0  0  0  0
  1  6  2  0  0  0  0
  1  2  1  0  0  0  0
  2  3  2  0  0  0  0
  3  4  1  0  0  0  0
  3 14  1  0  0  0  0
  4  9  1  0  0  0  0
  5 10  1  0  0  0  0
  5  4  2  0  0  0  0
  6  5  1  0  0  0  0
  7  1  1  0  0  0  0
  8  2  1  0  0  0  0
 11 12  2  0  0  0  0
 11  6  1  0  0  0  0
 13 11  2  0  0  0  0
 14 15  1  0  0  0  0
 16 22  1  0  0  0  0
 17 16  1  0  0  0  0
 17 23  1  0  0  0  0
 18 17  2  0  0  0  0
 19 20  2  0  0  0  0
 19 18  1  0  0  0  0
 20 21  1  0  0  0  0
 21 26  1  0  0  0  0
 21 16  2  0  0  0  0
 24 19  1  0  0  0  0
 25 20  1  0  0  0  0
 26 28  1  0  0  0  0
 27 26  2  0  0  0  0
 29 26  2  0  0  0  0
 30 18  1  0  0  0  0
 30 31  1  0  0  0  0
 32 30  1  0  0  0  0
 33 30  1  0  0  0  0
M  RAD  3  14   2  15   3  28   2
M  END
