Coordinates from ORCA-job p-NO2-Ph-N2-OTs-B3LYPG-6-31G_dp-scan-d09-49-n400
 OpenBabel08281821283D

 33 34  0  0  0  0  0  0  0  0999 V2000
   -1.2814    0.5030   -1.7759 C   0  0  0  0  0  0  0  0  0  0  0  0
   -0.5366    1.5807   -1.3205 C   0  0  0  0  0  0  0  0  0  0  0  0
    0.7114    1.8885   -1.8967 C   0  0  0  0  0  0  0  0  0  0  0  0
    1.2047    1.1062   -2.9608 C   0  0  0  0  0  0  0  0  0  0  0  0
    0.4534    0.0318   -3.4248 C   0  0  0  0  0  0  0  0  0  0  0  0
   -0.7708   -0.2584   -2.8261 C   0  0  0  0  0  0  0  0  0  0  0  0
   -2.2392    0.2453   -1.3436 H   0  0  0  0  0  0  0  0  0  0  0  0
   -0.8954    2.2071   -0.5114 H   0  0  0  0  0  0  0  0  0  0  0  0
    2.1539    1.3358   -3.4200 H   0  0  0  0  0  0  0  0  0  0  0  0
    0.8029   -0.5855   -4.2430 H   0  0  0  0  0  0  0  0  0  0  0  0
   -1.5510   -1.4053   -3.3207 N   0  0  0  0  0  0  0  0  0  0  0  0
   -1.0741   -2.0616   -4.2452 O   0  0  0  0  0  0  0  0  0  0  0  0
   -2.6297   -1.6345   -2.7763 O   0  0  0  0  0  0  0  0  0  0  0  0
    1.3120    3.0221   -1.3066 N   0  0  0  0  0  0  0  0  0  0  0  0
    2.4539    3.4126   -1.5447 N   0  0  0  0  0  0  0  0  0  0  0  0
    6.0605    1.3115   -2.5850 C   0  0  0  0  0  0  0  0  0  0  0  0
    6.7146    0.3003   -3.2829 C   0  0  0  0  0  0  0  0  0  0  0  0
    7.0469    0.4563   -4.6385 C   0  0  0  0  0  0  0  0  0  0  0  0
    6.7096    1.6587   -5.2782 C   0  0  0  0  0  0  0  0  0  0  0  0
    6.0527    2.6796   -4.5943 C   0  0  0  0  0  0  0  0  0  0  0  0
    5.7265    2.4953   -3.2507 C   0  0  0  0  0  0  0  0  0  0  0  0
    5.8112    1.1787   -1.5351 H   0  0  0  0  0  0  0  0  0  0  0  0
    6.9771   -0.6215   -2.7705 H   0  0  0  0  0  0  0  0  0  0  0  0
    6.9714    1.7977   -6.3236 H   0  0  0  0  0  0  0  0  0  0  0  0
    5.7990    3.6169   -5.0795 H   0  0  0  0  0  0  0  0  0  0  0  0
    4.9751    3.8370   -2.2966 S   0  0  2  0  0  0  0  0  0  0  0  0
    3.1187    4.8090   -0.7872 O   0  0  0  0  0  0  0  0  0  0  0  0
    3.3223    2.8422   -2.3763 O   0  0  0  0  0  0  0  0  0  0  0  0
    4.9014    4.9734   -3.2362 O   0  0  0  0  0  0  0  0  0  0  0  0
    7.7382   -0.6545   -5.3905 C   0  0  0  0  0  0  0  0  0  0  0  0
    8.4895   -1.1510   -4.7689 H   0  0  0  0  0  0  0  0  0  0  0  0
    7.0178   -1.4208   -5.7021 H   0  0  0  0  0  0  0  0  0  0  0  0
    8.2316   -0.2822   -6.2918 H   0  0  0  0  0  0  0  0  0  0  0  0
  1  7  1  0  0  0  0
  1  2  1  0  0  0  0
  2  8  1  0  0  0  0
  3  2  2  0  0  0  0
  3 14  1  0  0  0  0
  4  3  1  0  0  0  0
  5  4  2  0  0  0  0
  5  6  1  0  0  0  0
  6  1  2  0  0  0  0
  9  4  1  0  0  0  0
 10  5  1  0  0  0  0
 11  6  1  0  0  0  0
 11 13  2  0  0  0  0
 12 11  2  0  0  0  0
 15 14  1  0  0  0  0
 15 27  1  0  0  0  0
 16 22  1  0  0  0  0
 17 23  1  0  0  0  0
 17 16  2  0  0  0  0
 18 17  1  0  0  0  0
 19 18  2  0  0  0  0
 19 20  1  0  0  0  0
 20 21  2  0  0  0  0
 21 16  1  0  0  0  0
 24 19  1  0  0  0  0
 25 20  1  0  0  0  0
 26 21  1  6  0  0  0
 28 26  1  0  0  0  0
 28 15  1  0  0  0  0
 29 26  1  0  0  0  0
 30 31  1  0  0  0  0
 30 18  1  0  0  0  0
 32 30  1  0  0  0  0
 33 30  1  0  0  0  0
M  RAD  3  14   2  27   2  29   2
M  END
