Coordinates from ORCA-job p-NO2-Ph-N2-OTs-B3LYPG-6-31G_dp-scan-d09-49-n400
 OpenBabel08281821283D

 33 34  0  0  0  0  0  0  0  0999 V2000
   -1.1074   -0.6421   -2.5401 C   0  0  0  0  0  0  0  0  0  0  0  0
   -0.0220   -0.6422   -3.4067 C   0  0  0  0  0  0  0  0  0  0  0  0
    0.6650    0.5520   -3.6785 C   0  0  0  0  0  0  0  0  0  0  0  0
    0.2412    1.7705   -3.1172 C   0  0  0  0  0  0  0  0  0  0  0  0
   -0.8632    1.7736   -2.2715 C   0  0  0  0  0  0  0  0  0  0  0  0
   -1.5100    0.5721   -1.9886 C   0  0  0  0  0  0  0  0  0  0  0  0
   -1.6481   -1.5477   -2.2978 H   0  0  0  0  0  0  0  0  0  0  0  0
    0.3143   -1.5572   -3.8806 H   0  0  0  0  0  0  0  0  0  0  0  0
    0.7650    2.6878   -3.3408 H   0  0  0  0  0  0  0  0  0  0  0  0
   -1.2229    2.6903   -1.8222 H   0  0  0  0  0  0  0  0  0  0  0  0
   -2.6705    0.5863   -1.0753 N   0  0  0  0  0  0  0  0  0  0  0  0
   -3.0111    1.6709   -0.6096 O   0  0  0  0  0  0  0  0  0  0  0  0
   -3.2188   -0.4887   -0.8419 O   0  0  0  0  0  0  0  0  0  0  0  0
    1.7309    0.3948   -4.6000 N   0  0  0  0  0  0  0  0  0  0  0  0
    2.7050    1.0470   -4.8571 N   0  0  0  0  0  0  0  0  0  0  0  0
    6.0833    2.3871   -2.7338 C   0  0  0  0  0  0  0  0  0  0  0  0
    7.2090    1.6245   -2.4329 C   0  0  0  0  0  0  0  0  0  0  0  0
    7.8013    0.7927   -3.3951 C   0  0  0  0  0  0  0  0  0  0  0  0
    7.2399    0.7494   -4.6797 C   0  0  0  0  0  0  0  0  0  0  0  0
    6.1143    1.5045   -5.0015 C   0  0  0  0  0  0  0  0  0  0  0  0
    5.5431    2.3152   -4.0193 C   0  0  0  0  0  0  0  0  0  0  0  0
    5.6376    3.0440   -1.9949 H   0  0  0  0  0  0  0  0  0  0  0  0
    7.6410    1.6830   -1.4376 H   0  0  0  0  0  0  0  0  0  0  0  0
    7.6956    0.1233   -5.4420 H   0  0  0  0  0  0  0  0  0  0  0  0
    5.6895    1.4829   -5.9986 H   0  0  0  0  0  0  0  0  0  0  0  0
    4.1060    3.2933   -4.4168 S   0  0  0  0  0  0  0  0  0  0  0  0
    4.0302    4.4300   -3.5029 O   0  0  0  0  0  0  0  0  0  0  0  0
    2.8468    2.3339   -3.9298 O   0  0  0  0  0  0  0  0  0  0  0  0
    4.0317    3.4619   -5.8634 O   0  0  0  0  0  0  0  0  0  0  0  0
    9.0062   -0.0490   -3.0513 C   0  0  0  0  0  0  0  0  0  0  0  0
    9.6124    0.4197   -2.2707 H   0  0  0  0  0  0  0  0  0  0  0  0
    8.7010   -1.0350   -2.6798 H   0  0  0  0  0  0  0  0  0  0  0  0
    9.6416   -0.2140   -3.9261 H   0  0  0  0  0  0  0  0  0  0  0  0
  1  7  1  0  0  0  0
  1  6  2  0  0  0  0
  2  1  1  0  0  0  0
  3  2  2  0  0  0  0
  3  4  1  0  0  0  0
  4  5  2  0  0  0  0
  5  6  1  0  0  0  0
  5 10  1  0  0  0  0
  6 11  1  0  0  0  0
  8  2  1  0  0  0  0
  9  4  1  0  0  0  0
 11 13  2  0  0  0  0
 11 12  2  0  0  0  0
 14  3  1  0  0  0  0
 15 14  1  0  0  0  0
 15 28  1  0  0  0  0
 16 17  1  0  0  0  0
 16 22  1  0  0  0  0
 17 23  1  0  0  0  0
 18 30  1  0  0  0  0
 18 17  2  0  0  0  0
 19 18  1  0  0  0  0
 20 19  2  0  0  0  0
 20 21  1  0  0  0  0
 21 16  2  0  0  0  0
 24 19  1  0  0  0  0
 25 20  1  0  0  0  0
 26 21  1  0  0  0  0
 26 28  1  0  0  0  0
 26 27  2  0  0  0  0
 29 26  2  0  0  0  0
 30 32  1  0  0  0  0
 30 31  1  0  0  0  0
 33 30  1  0  0  0  0
M  RAD  2  14   2  15   2
M  END
