Coordinates from ORCA-job p-NO2-Ph-N2-OTs-B3LYPG-6-31G_dp-scan-d09-49-n400
 OpenBabel08281821283D

 33 33  0  0  0  0  0  0  0  0999 V2000
   -1.2692    0.4747   -1.7813 C   0  0  0  0  0  0  0  0  0  0  0  0
   -0.5233    1.5452   -1.3089 C   0  0  0  0  0  0  0  0  0  0  0  0
    0.7186    1.8649   -1.8878 C   0  0  0  0  0  0  0  0  0  0  0  0
    1.2091    1.1071   -2.9692 C   0  0  0  0  0  0  0  0  0  0  0  0
    0.4569    0.0403   -3.4507 C   0  0  0  0  0  0  0  0  0  0  0  0
   -0.7627   -0.2630   -2.8497 C   0  0  0  0  0  0  0  0  0  0  0  0
   -2.2239    0.2058   -1.3489 H   0  0  0  0  0  0  0  0  0  0  0  0
   -0.8777    2.1552   -0.4854 H   0  0  0  0  0  0  0  0  0  0  0  0
    2.1560    1.3487   -3.4271 H   0  0  0  0  0  0  0  0  0  0  0  0
    0.8024   -0.5603   -4.2829 H   0  0  0  0  0  0  0  0  0  0  0  0
   -1.5448   -1.4025   -3.3629 N   0  0  0  0  0  0  0  0  0  0  0  0
   -1.0719   -2.0391   -4.3026 O   0  0  0  0  0  0  0  0  0  0  0  0
   -2.6195   -1.6439   -2.8164 O   0  0  0  0  0  0  0  0  0  0  0  0
    1.3270    2.9929   -1.2788 N   0  0  0  0  0  0  0  0  0  0  0  0
    2.4569    3.4035   -1.5079 N   0  0  0  0  0  0  0  0  0  0  0  0
    6.0585    1.3314   -2.5818 C   0  0  0  0  0  0  0  0  0  0  0  0
    6.7122    0.3123   -3.2687 C   0  0  0  0  0  0  0  0  0  0  0  0
    7.0316    0.4474   -4.6297 C   0  0  0  0  0  0  0  0  0  0  0  0
    6.6818    1.6370   -5.2862 C   0  0  0  0  0  0  0  0  0  0  0  0
    6.0250    2.6654   -4.6136 C   0  0  0  0  0  0  0  0  0  0  0  0
    5.7109    2.5017   -3.2643 C   0  0  0  0  0  0  0  0  0  0  0  0
    5.8193    1.2147   -1.5277 H   0  0  0  0  0  0  0  0  0  0  0  0
    6.9846   -0.5992   -2.7433 H   0  0  0  0  0  0  0  0  0  0  0  0
    6.9338    1.7603   -6.3361 H   0  0  0  0  0  0  0  0  0  0  0  0
    5.7616    3.5930   -5.1120 H   0  0  0  0  0  0  0  0  0  0  0  0
    4.9592    3.8555   -2.3293 S   0  0  2  0  0  0  0  0  0  0  0  0
    3.2827    5.0322   -0.6379 O   0  0  0  0  0  0  0  0  0  0  0  0
    3.3163    2.8479   -2.3605 O   0  0  0  0  0  0  0  0  0  0  0  0
    4.8534    4.9697   -3.2919 O   0  0  0  0  0  0  0  0  0  0  0  0
    7.7224   -0.6717   -5.3696 C   0  0  0  0  0  0  0  0  0  0  0  0
    8.4738   -1.1616   -4.7429 H   0  0  0  0  0  0  0  0  0  0  0  0
    7.0017   -1.4411   -5.6728 H   0  0  0  0  0  0  0  0  0  0  0  0
    8.2156   -0.3094   -6.2752 H   0  0  0  0  0  0  0  0  0  0  0  0
  1  7  1  0  0  0  0
  1  2  1  0  0  0  0
  2  8  1  0  0  0  0
  3  2  2  0  0  0  0
  3 14  1  0  0  0  0
  4  3  1  0  0  0  0
  5  4  2  0  0  0  0
  5  6  1  0  0  0  0
  6  1  2  0  0  0  0
  9  4  1  0  0  0  0
 10  5  1  0  0  0  0
 11  6  1  0  0  0  0
 11 13  2  0  0  0  0
 12 11  2  0  0  0  0
 15 14  2  0  0  0  0
 16 22  1  0  0  0  0
 17 23  1  0  0  0  0
 17 16  2  0  0  0  0
 18 17  1  0  0  0  0
 19 18  2  0  0  0  0
 19 20  1  0  0  0  0
 20 21  2  0  0  0  0
 21 16  1  0  0  0  0
 21 26  1  0  0  0  0
 24 19  1  0  0  0  0
 25 20  1  0  0  0  0
 26 29  1  6  0  0  0
 28 26  1  0  0  0  0
 28 15  1  0  0  0  0
 30 31  1  0  0  0  0
 30 18  1  0  0  0  0
 32 30  1  0  0  0  0
 33 30  1  0  0  0  0
M  RAD  2  27   3  29   2
M  END
