Coordinates from ORCA-job p-NO2-Ph-N2-OTs-B3LYPG-6-31G_dp-scan-d09-49-n400
 OpenBabel08281821283D

 33 33  0  0  0  0  0  0  0  0999 V2000
   -1.4655   -0.1475   -3.5889 C   0  0  0  0  0  0  0  0  0  0  0  0
   -0.2788   -0.8188   -3.3306 C   0  0  0  0  0  0  0  0  0  0  0  0
    0.6729   -0.1778   -2.5274 C   0  0  0  0  0  0  0  0  0  0  0  0
    0.4966    1.0930   -1.9580 C   0  0  0  0  0  0  0  0  0  0  0  0
   -0.7065    1.7403   -2.2130 C   0  0  0  0  0  0  0  0  0  0  0  0
   -1.6535    1.1129   -3.0205 C   0  0  0  0  0  0  0  0  0  0  0  0
   -2.2421   -0.5765   -4.2088 H   0  0  0  0  0  0  0  0  0  0  0  0
   -0.0838   -1.8024   -3.7408 H   0  0  0  0  0  0  0  0  0  0  0  0
    1.2924    1.5256   -1.3609 H   0  0  0  0  0  0  0  0  0  0  0  0
   -0.9084    2.7251   -1.8119 H   0  0  0  0  0  0  0  0  0  0  0  0
   -2.9316    1.8159   -3.2888 N   0  0  0  0  0  0  0  0  0  0  0  0
   -3.0931    2.9075   -2.7549 O   0  0  0  0  0  0  0  0  0  0  0  0
   -3.7371    1.2498   -4.0226 O   0  0  0  0  0  0  0  0  0  0  0  0
    1.8624   -0.8462   -2.2487 N   0  0  0  0  0  0  0  0  0  0  0  0
    2.9169   -1.0226   -1.8942 N   0  0  0  0  0  0  0  0  0  0  0  0
    6.4966    2.0084   -2.3357 C   0  0  0  0  0  0  0  0  0  0  0  0
    7.7855    1.7679   -2.8004 C   0  0  0  0  0  0  0  0  0  0  0  0
    8.0146    1.3303   -4.1155 C   0  0  0  0  0  0  0  0  0  0  0  0
    6.9102    1.1432   -4.9537 C   0  0  0  0  0  0  0  0  0  0  0  0
    5.6102    1.3794   -4.4998 C   0  0  0  0  0  0  0  0  0  0  0  0
    5.4080    1.8081   -3.1905 C   0  0  0  0  0  0  0  0  0  0  0  0
    6.3310    2.3513   -1.3199 H   0  0  0  0  0  0  0  0  0  0  0  0
    8.6314    1.9260   -2.1356 H   0  0  0  0  0  0  0  0  0  0  0  0
    7.0666    0.8111   -5.9771 H   0  0  0  0  0  0  0  0  0  0  0  0
    4.7523    1.2410   -5.1484 H   0  0  0  0  0  0  0  0  0  0  0  0
    3.7447    2.1416   -2.5981 S   0  0  0  0  0  0  0  0  0  0  0  0
    3.7056    3.5691   -2.2056 O   0  0  0  0  0  0  0  0  0  0  0  0
    3.5685    1.2028   -1.3967 O   0  0  0  0  0  0  0  0  0  0  0  0
    2.8147    1.7257   -3.6856 O   0  0  0  0  0  0  0  0  0  0  0  0
    9.4198    1.0619   -4.6005 C   0  0  0  0  0  0  0  0  0  0  0  0
   10.0884    1.8994   -4.3716 H   0  0  0  0  0  0  0  0  0  0  0  0
    9.8441    0.1728   -4.1184 H   0  0  0  0  0  0  0  0  0  0  0  0
    9.4452    0.8962   -5.6812 H   0  0  0  0  0  0  0  0  0  0  0  0
  1  2  2  0  0  0  0
  1  6  1  0  0  0  0
  2  3  1  0  0  0  0
  3 14  1  0  0  0  0
  3  4  2  0  0  0  0
  4  9  1  0  0  0  0
  5  4  1  0  0  0  0
  5 10  1  0  0  0  0
  6  5  2  0  0  0  0
  7  1  1  0  0  0  0
  8  2  1  0  0  0  0
 11  6  1  0  0  0  0
 11 12  2  0  0  0  0
 13 11  2  0  0  0  0
 14 15  1  0  0  0  0
 16 22  1  0  0  0  0
 17 16  1  0  0  0  0
 17 23  1  0  0  0  0
 18 17  2  0  0  0  0
 19 20  2  0  0  0  0
 19 18  1  0  0  0  0
 20 21  1  0  0  0  0
 21 26  1  0  0  0  0
 21 16  2  0  0  0  0
 24 19  1  0  0  0  0
 25 20  1  0  0  0  0
 26 27  2  0  0  0  0
 26 28  1  0  0  0  0
 29 26  2  0  0  0  0
 30 31  1  0  0  0  0
 30 32  1  0  0  0  0
 30 18  1  0  0  0  0
 33 30  1  0  0  0  0
M  RAD  3  14   2  15   3  28   2
M  END
