Coordinates from ORCA-job p-NO2-Ph-N2-OTs-B3LYPG-6-31G_dp-scan-d09-49-n400
 OpenBabel08281821283D

 33 34  0  0  0  0  0  0  0  0999 V2000
   -0.9582    0.2992   -1.6751 C   0  0  0  0  0  0  0  0  0  0  0  0
   -0.2989    1.4194   -1.1924 C   0  0  0  0  0  0  0  0  0  0  0  0
    0.7767    1.9905   -1.9036 C   0  0  0  0  0  0  0  0  0  0  0  0
    1.1592    1.4357   -3.1428 C   0  0  0  0  0  0  0  0  0  0  0  0
    0.4876    0.3233   -3.6363 C   0  0  0  0  0  0  0  0  0  0  0  0
   -0.5522   -0.2374   -2.8966 C   0  0  0  0  0  0  0  0  0  0  0  0
   -1.7776   -0.1576   -1.1352 H   0  0  0  0  0  0  0  0  0  0  0  0
   -0.5938    1.8779   -0.2556 H   0  0  0  0  0  0  0  0  0  0  0  0
    1.9628    1.8722   -3.7165 H   0  0  0  0  0  0  0  0  0  0  0  0
    0.7587   -0.1176   -4.5871 H   0  0  0  0  0  0  0  0  0  0  0  0
   -1.2441   -1.4222   -3.4223 N   0  0  0  0  0  0  0  0  0  0  0  0
   -0.8580   -1.8787   -4.4982 O   0  0  0  0  0  0  0  0  0  0  0  0
   -2.1651   -1.8876   -2.7515 O   0  0  0  0  0  0  0  0  0  0  0  0
    1.2874    3.1406   -1.2772 N   0  0  0  0  0  0  0  0  0  0  0  0
    2.4212    3.6169   -1.5025 N   0  0  0  0  0  0  0  0  0  0  0  0
    5.9135    1.3083   -2.5418 C   0  0  0  0  0  0  0  0  0  0  0  0
    6.5328    0.2541   -3.2068 C   0  0  0  0  0  0  0  0  0  0  0  0
    6.8924    0.3632   -4.5603 C   0  0  0  0  0  0  0  0  0  0  0  0
    6.6187    1.5633   -5.2325 C   0  0  0  0  0  0  0  0  0  0  0  0
    5.9975    2.6285   -4.5827 C   0  0  0  0  0  0  0  0  0  0  0  0
    5.6425    2.4875   -3.2421 C   0  0  0  0  0  0  0  0  0  0  0  0
    5.6401    1.2103   -1.4946 H   0  0  0  0  0  0  0  0  0  0  0  0
    6.7450   -0.6664   -2.6693 H   0  0  0  0  0  0  0  0  0  0  0  0
    6.9019    1.6668   -6.2763 H   0  0  0  0  0  0  0  0  0  0  0  0
    5.7931    3.5650   -5.0924 H   0  0  0  0  0  0  0  0  0  0  0  0
    4.9347    3.8938   -2.3560 S   0  0  2  0  0  0  0  0  0  0  0  0
    2.8900    4.7520   -0.8926 O   0  0  0  0  0  0  0  0  0  0  0  0
    3.3054    3.0103   -2.3741 O   0  0  0  0  0  0  0  0  0  0  0  0
    4.8878    5.0061   -3.3289 O   0  0  0  0  0  0  0  0  0  0  0  0
    7.5458   -0.7943   -5.2749 C   0  0  0  0  0  0  0  0  0  0  0  0
    8.2694   -1.3042   -4.6315 H   0  0  0  0  0  0  0  0  0  0  0  0
    6.7979   -1.5384   -5.5749 H   0  0  0  0  0  0  0  0  0  0  0  0
    8.0641   -0.4659   -6.1794 H   0  0  0  0  0  0  0  0  0  0  0  0
  1  2  1  0  0  0  0
  1  7  1  0  0  0  0
  2  8  1  0  0  0  0
  3 14  1  0  0  0  0
  3  2  2  0  0  0  0
  4  3  1  0  0  0  0
  5  4  2  0  0  0  0
  5  6  1  0  0  0  0
  6  1  2  0  0  0  0
  9  4  1  0  0  0  0
 10  5  1  0  0  0  0
 11  6  1  0  0  0  0
 11 13  2  0  0  0  0
 12 11  2  0  0  0  0
 15 14  1  0  0  0  0
 15 27  1  0  0  0  0
 16 22  1  0  0  0  0
 17 23  1  0  0  0  0
 17 16  1  0  0  0  0
 18 17  2  0  0  0  0
 19 20  2  0  0  0  0
 19 18  1  0  0  0  0
 20 21  1  0  0  0  0
 21 16  2  0  0  0  0
 21 26  1  0  0  0  0
 24 19  1  0  0  0  0
 25 20  1  0  0  0  0
 26 29  1  6  0  0  0
 28 26  1  0  0  0  0
 28 15  1  0  0  0  0
 30 31  1  0  0  0  0
 30 18  1  0  0  0  0
 32 30  1  0  0  0  0
 33 30  1  0  0  0  0
M  RAD  3  14   2  27   2  29   2
M  END
