Coordinates from ORCA-job p-NO2-Ph-N2-OTs-B3LYPG-6-31G_dp-scan-d09-49-n400
 OpenBabel08281821283D

 33 34  0  0  0  0  0  0  0  0999 V2000
   -1.2853    0.5044   -1.7777 C   0  0  0  0  0  0  0  0  0  0  0  0
   -0.5395    1.5816   -1.3224 C   0  0  0  0  0  0  0  0  0  0  0  0
    0.7099    1.8861   -1.8968 C   0  0  0  0  0  0  0  0  0  0  0  0
    1.2042    1.1016   -2.9586 C   0  0  0  0  0  0  0  0  0  0  0  0
    0.4521    0.0277   -3.4225 C   0  0  0  0  0  0  0  0  0  0  0  0
   -0.7738   -0.2593   -2.8258 C   0  0  0  0  0  0  0  0  0  0  0  0
   -2.2444    0.2489   -1.3470 H   0  0  0  0  0  0  0  0  0  0  0  0
   -0.8987    2.2097   -0.5149 H   0  0  0  0  0  0  0  0  0  0  0  0
    2.1549    1.3290   -3.4159 H   0  0  0  0  0  0  0  0  0  0  0  0
    0.8021   -0.5916   -4.2391 H   0  0  0  0  0  0  0  0  0  0  0  0
   -1.5551   -1.4057   -3.3203 N   0  0  0  0  0  0  0  0  0  0  0  0
   -1.0774   -2.0642   -4.2428 O   0  0  0  0  0  0  0  0  0  0  0  0
   -2.6353   -1.6322   -2.7777 O   0  0  0  0  0  0  0  0  0  0  0  0
    1.3124    3.0196   -1.3071 N   0  0  0  0  0  0  0  0  0  0  0  0
    2.4540    3.4088   -1.5455 N   0  0  0  0  0  0  0  0  0  0  0  0
    6.0627    1.3124   -2.5853 C   0  0  0  0  0  0  0  0  0  0  0  0
    6.7169    0.3014   -3.2835 C   0  0  0  0  0  0  0  0  0  0  0  0
    7.0485    0.4575   -4.6392 C   0  0  0  0  0  0  0  0  0  0  0  0
    6.7103    1.6597   -5.2789 C   0  0  0  0  0  0  0  0  0  0  0  0
    6.0532    2.6802   -4.5948 C   0  0  0  0  0  0  0  0  0  0  0  0
    5.7277    2.4961   -3.2509 C   0  0  0  0  0  0  0  0  0  0  0  0
    5.8140    1.1796   -1.5354 H   0  0  0  0  0  0  0  0  0  0  0  0
    6.9802   -0.6203   -2.7712 H   0  0  0  0  0  0  0  0  0  0  0  0
    6.9716    1.7987   -6.3244 H   0  0  0  0  0  0  0  0  0  0  0  0
    5.7988    3.6174   -5.0799 H   0  0  0  0  0  0  0  0  0  0  0  0
    4.9762    3.8371   -2.2959 S   0  0  2  0  0  0  0  0  0  0  0  0
    3.1305    4.8206   -0.7812 O   0  0  0  0  0  0  0  0  0  0  0  0
    3.3218    2.8390   -2.3761 O   0  0  0  0  0  0  0  0  0  0  0  0
    4.9019    4.9733   -3.2356 O   0  0  0  0  0  0  0  0  0  0  0  0
    7.7398   -0.6530   -5.3916 C   0  0  0  0  0  0  0  0  0  0  0  0
    8.4909   -1.1500   -4.7699 H   0  0  0  0  0  0  0  0  0  0  0  0
    7.0194   -1.4190   -5.7038 H   0  0  0  0  0  0  0  0  0  0  0  0
    8.2337   -0.2803   -6.2925 H   0  0  0  0  0  0  0  0  0  0  0  0
  1  7  1  0  0  0  0
  1  2  1  0  0  0  0
  2  8  1  0  0  0  0
  3  2  2  0  0  0  0
  3 14  1  0  0  0  0
  4  3  1  0  0  0  0
  5  4  2  0  0  0  0
  5  6  1  0  0  0  0
  6  1  2  0  0  0  0
  9  4  1  0  0  0  0
 10  5  1  0  0  0  0
 11  6  1  0  0  0  0
 11 13  2  0  0  0  0
 12 11  2  0  0  0  0
 15 14  1  0  0  0  0
 15 27  1  0  0  0  0
 16 22  1  0  0  0  0
 17 23  1  0  0  0  0
 17 16  2  0  0  0  0
 18 17  1  0  0  0  0
 19 18  2  0  0  0  0
 19 20  1  0  0  0  0
 20 21  2  0  0  0  0
 21 16  1  0  0  0  0
 24 19  1  0  0  0  0
 25 20  1  0  0  0  0
 26 21  1  6  0  0  0
 28 26  1  0  0  0  0
 28 15  1  0  0  0  0
 29 26  1  0  0  0  0
 30 31  1  0  0  0  0
 30 18  1  0  0  0  0
 32 30  1  0  0  0  0
 33 30  1  0  0  0  0
M  RAD  3  14   2  27   2  29   2
M  END
