Coordinates from ORCA-job p-NO2-Ph-N2-OTs-B3LYPG-6-31G_dp-scan-d09-49-n400
 OpenBabel08281821283D

 33 34  0  0  0  0  0  0  0  0999 V2000
   -1.2654    0.4962   -1.7703 C   0  0  0  0  0  0  0  0  0  0  0  0
   -0.5253    1.5767   -1.3143 C   0  0  0  0  0  0  0  0  0  0  0  0
    0.7173    1.8972   -1.8965 C   0  0  0  0  0  0  0  0  0  0  0  0
    1.2077    1.1239   -2.9689 C   0  0  0  0  0  0  0  0  0  0  0  0
    0.4609    0.0469   -3.4336 C   0  0  0  0  0  0  0  0  0  0  0  0
   -0.7570   -0.2560   -2.8283 C   0  0  0  0  0  0  0  0  0  0  0  0
   -2.2184    0.2295   -1.3327 H   0  0  0  0  0  0  0  0  0  0  0  0
   -0.8834    2.1960   -0.4995 H   0  0  0  0  0  0  0  0  0  0  0  0
    2.1515    1.3626   -3.4345 H   0  0  0  0  0  0  0  0  0  0  0  0
    0.8091   -0.5628   -4.2581 H   0  0  0  0  0  0  0  0  0  0  0  0
   -1.5320   -1.4054   -3.3236 N   0  0  0  0  0  0  0  0  0  0  0  0
   -1.0571   -2.0534   -4.2552 O   0  0  0  0  0  0  0  0  0  0  0  0
   -2.6054   -1.6457   -2.7731 O   0  0  0  0  0  0  0  0  0  0  0  0
    1.3103    3.0316   -1.3044 N   0  0  0  0  0  0  0  0  0  0  0  0
    2.4529    3.4286   -1.5410 N   0  0  0  0  0  0  0  0  0  0  0  0
    6.0511    1.3086   -2.5832 C   0  0  0  0  0  0  0  0  0  0  0  0
    6.7036    0.2959   -3.2804 C   0  0  0  0  0  0  0  0  0  0  0  0
    7.0383    0.4512   -4.6355 C   0  0  0  0  0  0  0  0  0  0  0  0
    6.7050    1.6545   -5.2756 C   0  0  0  0  0  0  0  0  0  0  0  0
    6.0498    2.6771   -4.5925 C   0  0  0  0  0  0  0  0  0  0  0  0
    5.7212    2.4931   -3.2495 C   0  0  0  0  0  0  0  0  0  0  0  0
    5.7999    1.1763   -1.5338 H   0  0  0  0  0  0  0  0  0  0  0  0
    6.9629   -0.6267   -2.7678 H   0  0  0  0  0  0  0  0  0  0  0  0
    6.9687    1.7930   -6.3206 H   0  0  0  0  0  0  0  0  0  0  0  0
    5.7993    3.6152   -5.0777 H   0  0  0  0  0  0  0  0  0  0  0  0
    4.9716    3.8379   -2.2989 S   0  0  2  0  0  0  0  0  0  0  0  0
    3.0822    4.7787   -0.8041 O   0  0  0  0  0  0  0  0  0  0  0  0
    3.3235    2.8558   -2.3761 O   0  0  0  0  0  0  0  0  0  0  0  0
    4.9005    4.9750   -3.2380 O   0  0  0  0  0  0  0  0  0  0  0  0
    7.7280   -0.6612   -5.3866 C   0  0  0  0  0  0  0  0  0  0  0  0
    8.4798   -1.1571   -4.7650 H   0  0  0  0  0  0  0  0  0  0  0  0
    7.0067   -1.4276   -5.6959 H   0  0  0  0  0  0  0  0  0  0  0  0
    8.2206   -0.2907   -6.2890 H   0  0  0  0  0  0  0  0  0  0  0  0
  1  7  1  0  0  0  0
  1  2  1  0  0  0  0
  2  8  1  0  0  0  0
  3  2  2  0  0  0  0
  3 14  1  0  0  0  0
  4  3  1  0  0  0  0
  5  4  2  0  0  0  0
  5  6  1  0  0  0  0
  6  1  2  0  0  0  0
  9  4  1  0  0  0  0
 10  5  1  0  0  0  0
 11  6  1  0  0  0  0
 11 13  2  0  0  0  0
 12 11  2  0  0  0  0
 15 14  1  0  0  0  0
 15 27  1  0  0  0  0
 16 22  1  0  0  0  0
 17 23  1  0  0  0  0
 17 16  2  0  0  0  0
 18 17  1  0  0  0  0
 19 18  2  0  0  0  0
 19 20  1  0  0  0  0
 20 21  2  0  0  0  0
 21 16  1  0  0  0  0
 24 19  1  0  0  0  0
 25 20  1  0  0  0  0
 26 21  1  6  0  0  0
 28 26  1  0  0  0  0
 28 15  1  0  0  0  0
 29 26  1  0  0  0  0
 30 31  1  0  0  0  0
 30 18  1  0  0  0  0
 32 30  1  0  0  0  0
 33 30  1  0  0  0  0
M  RAD  3  14   2  27   2  29   2
M  END
