Coordinates from ORCA-job p-NO2-Ph-N2-OTs-B3LYPG-6-31G_dp-scan-d09-49-n400
 OpenBabel08281821283D

 33 34  0  0  0  0  0  0  0  0999 V2000
   -1.1986   -0.4991   -1.8917 C   0  0  0  0  0  0  0  0  0  0  0  0
    0.1652   -0.4079   -1.6477 C   0  0  0  0  0  0  0  0  0  0  0  0
    0.9146    0.6292   -2.2275 C   0  0  0  0  0  0  0  0  0  0  0  0
    0.3093    1.5910   -3.0587 C   0  0  0  0  0  0  0  0  0  0  0  0
   -1.0580    1.4944   -3.3002 C   0  0  0  0  0  0  0  0  0  0  0  0
   -1.7842    0.4579   -2.7177 C   0  0  0  0  0  0  0  0  0  0  0  0
   -1.8070   -1.2848   -1.4629 H   0  0  0  0  0  0  0  0  0  0  0  0
    0.6696   -1.1283   -1.0135 H   0  0  0  0  0  0  0  0  0  0  0  0
    0.9012    2.3824   -3.4941 H   0  0  0  0  0  0  0  0  0  0  0  0
   -1.5664    2.2110   -3.9331 H   0  0  0  0  0  0  0  0  0  0  0  0
   -3.2358    0.3667   -2.9878 N   0  0  0  0  0  0  0  0  0  0  0  0
   -3.7278    1.2173   -3.7238 O   0  0  0  0  0  0  0  0  0  0  0  0
   -3.8482   -0.5611   -2.4646 O   0  0  0  0  0  0  0  0  0  0  0  0
    2.2861    0.5930   -1.8961 N   0  0  0  0  0  0  0  0  0  0  0  0
    3.2715    1.2086   -2.1204 N   0  0  0  0  0  0  0  0  0  0  0  0
    6.4737    2.2213   -2.6176 C   0  0  0  0  0  0  0  0  0  0  0  0
    7.5692    1.3756   -2.7788 C   0  0  0  0  0  0  0  0  0  0  0  0
    7.8184    0.7359   -4.0016 C   0  0  0  0  0  0  0  0  0  0  0  0
    6.9436    0.9741   -5.0722 C   0  0  0  0  0  0  0  0  0  0  0  0
    5.8432    1.8160   -4.9303 C   0  0  0  0  0  0  0  0  0  0  0  0
    5.6144    2.4291   -3.6971 C   0  0  0  0  0  0  0  0  0  0  0  0
    6.2909    2.7293   -1.6773 H   0  0  0  0  0  0  0  0  0  0  0  0
    8.2460    1.2154   -1.9435 H   0  0  0  0  0  0  0  0  0  0  0  0
    7.1328    0.5015   -6.0321 H   0  0  0  0  0  0  0  0  0  0  0  0
    5.1791    2.0169   -5.7639 H   0  0  0  0  0  0  0  0  0  0  0  0
    4.2087    3.5158   -3.5130 S   0  0  0  0  0  0  0  0  0  0  0  0
    4.4623    4.4206   -2.3915 O   0  0  0  0  0  0  0  0  0  0  0  0
    2.9724    2.5056   -3.1730 O   0  0  0  0  0  0  0  0  0  0  0  0
    3.8547    4.0556   -4.8267 O   0  0  0  0  0  0  0  0  0  0  0  0
    8.9910   -0.2021   -4.1577 C   0  0  0  0  0  0  0  0  0  0  0  0
    9.8279    0.0923   -3.5179 H   0  0  0  0  0  0  0  0  0  0  0  0
    8.7126   -1.2262   -3.8784 H   0  0  0  0  0  0  0  0  0  0  0  0
    9.3456   -0.2324   -5.1918 H   0  0  0  0  0  0  0  0  0  0  0  0
  1  2  1  0  0  0  0
  1  7  1  0  0  0  0
  2  8  1  0  0  0  0
  3 14  1  0  0  0  0
  3  2  2  0  0  0  0
  4  3  1  0  0  0  0
  5  4  2  0  0  0  0
  5  6  1  0  0  0  0
  6  1  2  0  0  0  0
  9  4  1  0  0  0  0
 10  5  1  0  0  0  0
 11  6  1  0  0  0  0
 11 13  2  0  0  0  0
 12 11  2  0  0  0  0
 15 14  1  0  0  0  0
 16 22  1  0  0  0  0
 17 16  1  0  0  0  0
 17 23  1  0  0  0  0
 18 17  2  0  0  0  0
 19 20  2  0  0  0  0
 19 18  1  0  0  0  0
 20 21  1  0  0  0  0
 21 26  1  0  0  0  0
 21 16  2  0  0  0  0
 24 19  1  0  0  0  0
 25 20  1  0  0  0  0
 26 28  1  0  0  0  0
 26 27  2  0  0  0  0
 28 15  1  0  0  0  0
 29 26  2  0  0  0  0
 30 18  1  0  0  0  0
 30 32  1  0  0  0  0
 30 31  1  0  0  0  0
 33 30  1  0  0  0  0
M  RAD  2  14   2  15   2
M  END
