Coordinates from ORCA-job p-NO2-Ph-N2-OTs-B3LYPG-6-31G_dp-scan-d09-49-n400
 OpenBabel08281821283D

 33 34  0  0  0  0  0  0  0  0999 V2000
   -1.3830   -0.5883   -2.7154 C   0  0  0  0  0  0  0  0  0  0  0  0
   -0.2535   -0.6370   -3.5217 C   0  0  0  0  0  0  0  0  0  0  0  0
    0.6079    0.4699   -3.5919 C   0  0  0  0  0  0  0  0  0  0  0  0
    0.3390    1.6486   -2.8716 C   0  0  0  0  0  0  0  0  0  0  0  0
   -0.8014    1.6981   -2.0759 C   0  0  0  0  0  0  0  0  0  0  0  0
   -1.6353    0.5841   -2.0066 C   0  0  0  0  0  0  0  0  0  0  0  0
   -2.0645   -1.4252   -2.6308 H   0  0  0  0  0  0  0  0  0  0  0  0
   -0.0187   -1.5217   -4.1025 H   0  0  0  0  0  0  0  0  0  0  0  0
    1.0080    2.4940   -2.9414 H   0  0  0  0  0  0  0  0  0  0  0  0
   -1.0487    2.5851   -1.5067 H   0  0  0  0  0  0  0  0  0  0  0  0
   -2.8378    0.6478   -1.1480 N   0  0  0  0  0  0  0  0  0  0  0  0
   -3.0388    1.6925   -0.5347 O   0  0  0  0  0  0  0  0  0  0  0  0
   -3.5542   -0.3494   -1.1068 O   0  0  0  0  0  0  0  0  0  0  0  0
    1.7077    0.2798   -4.4592 N   0  0  0  0  0  0  0  0  0  0  0  0
    2.7067    0.8534   -4.7416 N   0  0  0  0  0  0  0  0  0  0  0  0
    6.1802    2.4610   -2.7881 C   0  0  0  0  0  0  0  0  0  0  0  0
    7.3377    1.7474   -2.4868 C   0  0  0  0  0  0  0  0  0  0  0  0
    7.9119    0.8685   -3.4172 C   0  0  0  0  0  0  0  0  0  0  0  0
    7.2993    0.7282   -4.6710 C   0  0  0  0  0  0  0  0  0  0  0  0
    6.1412    1.4335   -4.9912 C   0  0  0  0  0  0  0  0  0  0  0  0
    5.5875    2.2923   -4.0405 C   0  0  0  0  0  0  0  0  0  0  0  0
    5.7489    3.1553   -2.0751 H   0  0  0  0  0  0  0  0  0  0  0  0
    7.8088    1.8815   -1.5168 H   0  0  0  0  0  0  0  0  0  0  0  0
    7.7402    0.0653   -5.4109 H   0  0  0  0  0  0  0  0  0  0  0  0
    5.6774    1.3385   -5.9665 H   0  0  0  0  0  0  0  0  0  0  0  0
    4.1017    3.2014   -4.4363 S   0  0  0  0  0  0  0  0  0  0  0  0
    4.0566    4.4090   -3.6113 O   0  0  0  0  0  0  0  0  0  0  0  0
    2.9111    2.2578   -3.8369 O   0  0  0  0  0  0  0  0  0  0  0  0
    3.9697    3.2680   -5.8893 O   0  0  0  0  0  0  0  0  0  0  0  0
    9.1517    0.0792   -3.0723 C   0  0  0  0  0  0  0  0  0  0  0  0
    9.7618    0.5973   -2.3268 H   0  0  0  0  0  0  0  0  0  0  0  0
    8.8888   -0.9009   -2.6556 H   0  0  0  0  0  0  0  0  0  0  0  0
    9.7705   -0.1001   -3.9564 H   0  0  0  0  0  0  0  0  0  0  0  0
  1  7  1  0  0  0  0
  1  6  2  0  0  0  0
  2  1  1  0  0  0  0
  3  2  2  0  0  0  0
  3  4  1  0  0  0  0
  4  5  2  0  0  0  0
  5  6  1  0  0  0  0
  5 10  1  0  0  0  0
  6 11  1  0  0  0  0
  8  2  1  0  0  0  0
  9  4  1  0  0  0  0
 11 13  2  0  0  0  0
 11 12  2  0  0  0  0
 14  3  1  0  0  0  0
 15 14  1  0  0  0  0
 15 28  1  0  0  0  0
 16 17  1  0  0  0  0
 16 22  1  0  0  0  0
 17 23  1  0  0  0  0
 18 30  1  0  0  0  0
 18 17  2  0  0  0  0
 19 18  1  0  0  0  0
 20 19  2  0  0  0  0
 20 21  1  0  0  0  0
 21 16  2  0  0  0  0
 24 19  1  0  0  0  0
 25 20  1  0  0  0  0
 26 21  1  0  0  0  0
 26 28  1  0  0  0  0
 26 27  2  0  0  0  0
 29 26  2  0  0  0  0
 30 32  1  0  0  0  0
 30 31  1  0  0  0  0
 33 30  1  0  0  0  0
M  RAD  2  14   2  15   2
M  END
