Coordinates from ORCA-job p-NO2-Ph-N2-OTs-B3LYPG-6-31G_dp-scan-d09-49-n400
 OpenBabel08281821283D

 33 33  0  0  0  0  0  0  0  0999 V2000
   -1.2090    0.3987   -1.7344 C   0  0  0  0  0  0  0  0  0  0  0  0
   -0.4591    1.4544   -1.2343 C   0  0  0  0  0  0  0  0  0  0  0  0
    0.7354    1.8468   -1.8646 C   0  0  0  0  0  0  0  0  0  0  0  0
    1.1715    1.1827   -3.0275 C   0  0  0  0  0  0  0  0  0  0  0  0
    0.4133    0.1337   -3.5383 C   0  0  0  0  0  0  0  0  0  0  0  0
   -0.7566   -0.2457   -2.8840 C   0  0  0  0  0  0  0  0  0  0  0  0
   -2.1276    0.0737   -1.2638 H   0  0  0  0  0  0  0  0  0  0  0  0
   -0.7750    1.9963   -0.3501 H   0  0  0  0  0  0  0  0  0  0  0  0
    2.0808    1.4826   -3.5253 H   0  0  0  0  0  0  0  0  0  0  0  0
    0.7167   -0.3951   -4.4330 H   0  0  0  0  0  0  0  0  0  0  0  0
   -1.5447   -1.3670   -3.4288 N   0  0  0  0  0  0  0  0  0  0  0  0
   -1.1216   -1.9191   -4.4426 O   0  0  0  0  0  0  0  0  0  0  0  0
   -2.5739   -1.6780   -2.8326 O   0  0  0  0  0  0  0  0  0  0  0  0
    1.3526    2.9536   -1.2204 N   0  0  0  0  0  0  0  0  0  0  0  0
    2.4656    3.4050   -1.4471 N   0  0  0  0  0  0  0  0  0  0  0  0
    6.0338    1.3469   -2.5825 C   0  0  0  0  0  0  0  0  0  0  0  0
    6.7108    0.3224   -3.2378 C   0  0  0  0  0  0  0  0  0  0  0  0
    7.0330    0.4244   -4.6012 C   0  0  0  0  0  0  0  0  0  0  0  0
    6.6611    1.5863   -5.2933 C   0  0  0  0  0  0  0  0  0  0  0  0
    5.9811    2.6206   -4.6527 C   0  0  0  0  0  0  0  0  0  0  0  0
    5.6645    2.4881   -3.3013 C   0  0  0  0  0  0  0  0  0  0  0  0
    5.7928    1.2563   -1.5264 H   0  0  0  0  0  0  0  0  0  0  0  0
    6.9998   -0.5676   -2.6851 H   0  0  0  0  0  0  0  0  0  0  0  0
    6.9148    1.6846   -6.3453 H   0  0  0  0  0  0  0  0  0  0  0  0
    5.7017    3.5287   -5.1779 H   0  0  0  0  0  0  0  0  0  0  0  0
    4.8868    3.8623   -2.4201 S   0  0  2  0  0  0  0  0  0  0  0  0
    3.4452    5.2448   -0.4904 O   0  0  0  0  0  0  0  0  0  0  0  0
    3.2973    2.8615   -2.3679 O   0  0  0  0  0  0  0  0  0  0  0  0
    4.7322    4.9362   -3.4224 O   0  0  0  0  0  0  0  0  0  0  0  0
    7.7520   -0.7005   -5.3050 C   0  0  0  0  0  0  0  0  0  0  0  0
    8.5160   -1.1501   -4.6635 H   0  0  0  0  0  0  0  0  0  0  0  0
    7.0514   -1.4977   -5.5823 H   0  0  0  0  0  0  0  0  0  0  0  0
    8.2358   -0.3551   -6.2221 H   0  0  0  0  0  0  0  0  0  0  0  0
  1  7  1  0  0  0  0
  1  2  1  0  0  0  0
  2  8  1  0  0  0  0
  3  2  2  0  0  0  0
  3 14  1  0  0  0  0
  4  3  1  0  0  0  0
  5  4  2  0  0  0  0
  5  6  1  0  0  0  0
  6  1  2  0  0  0  0
  9  4  1  0  0  0  0
 10  5  1  0  0  0  0
 11  6  1  0  0  0  0
 11 13  2  0  0  0  0
 12 11  2  0  0  0  0
 15 14  2  0  0  0  0
 16 22  1  0  0  0  0
 17 23  1  0  0  0  0
 17 16  1  0  0  0  0
 18 17  2  0  0  0  0
 19 20  2  0  0  0  0
 19 18  1  0  0  0  0
 20 21  1  0  0  0  0
 21 16  2  0  0  0  0
 21 26  1  0  0  0  0
 24 19  1  0  0  0  0
 25 20  1  0  0  0  0
 26 29  1  6  0  0  0
 26 28  1  0  0  0  0
 28 15  1  0  0  0  0
 30 31  1  0  0  0  0
 30 18  1  0  0  0  0
 32 30  1  0  0  0  0
 33 30  1  0  0  0  0
M  RAD  2  27   3  29   2
M  END
