Coordinates from ORCA-job p-NO2-Ph-N2-OTs-B3LYPG-6-31G_dp-scan-d09-49-n400
 OpenBabel08281821283D

 33 33  0  0  0  0  0  0  0  0999 V2000
   -1.2131    0.4047   -1.7387 C   0  0  0  0  0  0  0  0  0  0  0  0
   -0.4641    1.4618   -1.2404 C   0  0  0  0  0  0  0  0  0  0  0  0
    0.7346    1.8485   -1.8661 C   0  0  0  0  0  0  0  0  0  0  0  0
    1.1765    1.1766   -3.0224 C   0  0  0  0  0  0  0  0  0  0  0  0
    0.4193    0.1259   -3.5313 C   0  0  0  0  0  0  0  0  0  0  0  0
   -0.7552   -0.2474   -2.8818 C   0  0  0  0  0  0  0  0  0  0  0  0
   -2.1349    0.0841   -1.2715 H   0  0  0  0  0  0  0  0  0  0  0  0
   -0.7841    2.0094   -0.3611 H   0  0  0  0  0  0  0  0  0  0  0  0
    2.0892    1.4719   -3.5166 H   0  0  0  0  0  0  0  0  0  0  0  0
    0.7271   -0.4088   -4.4210 H   0  0  0  0  0  0  0  0  0  0  0  0
   -1.5421   -1.3705   -3.4245 N   0  0  0  0  0  0  0  0  0  0  0  0
   -1.1140   -1.9295   -4.4324 O   0  0  0  0  0  0  0  0  0  0  0  0
   -2.5754   -1.6759   -2.8326 O   0  0  0  0  0  0  0  0  0  0  0  0
    1.3504    2.9575   -1.2245 N   0  0  0  0  0  0  0  0  0  0  0  0
    2.4645    3.4063   -1.4508 N   0  0  0  0  0  0  0  0  0  0  0  0
    6.0350    1.3455   -2.5822 C   0  0  0  0  0  0  0  0  0  0  0  0
    6.7095    0.3211   -3.2403 C   0  0  0  0  0  0  0  0  0  0  0  0
    7.0312    0.4257   -4.6036 C   0  0  0  0  0  0  0  0  0  0  0  0
    6.6613    1.5900   -5.2927 C   0  0  0  0  0  0  0  0  0  0  0  0
    5.9837    2.6241   -4.6493 C   0  0  0  0  0  0  0  0  0  0  0  0
    5.6676    2.4892   -3.2980 C   0  0  0  0  0  0  0  0  0  0  0  0
    5.7944    1.2528   -1.5262 H   0  0  0  0  0  0  0  0  0  0  0  0
    6.9969   -0.5709   -2.6898 H   0  0  0  0  0  0  0  0  0  0  0  0
    6.9147    1.6903   -6.3446 H   0  0  0  0  0  0  0  0  0  0  0  0
    5.7059    3.5339   -5.1723 H   0  0  0  0  0  0  0  0  0  0  0  0
    4.8932    3.8624   -2.4124 S   0  0  2  0  0  0  0  0  0  0  0  0
    3.4311    5.2322   -0.5020 O   0  0  0  0  0  0  0  0  0  0  0  0
    3.2990    2.8617   -2.3655 O   0  0  0  0  0  0  0  0  0  0  0  0
    4.7421    4.9393   -3.4118 O   0  0  0  0  0  0  0  0  0  0  0  0
    7.7473   -0.6991   -5.3106 C   0  0  0  0  0  0  0  0  0  0  0  0
    8.5092   -1.1534   -4.6698 H   0  0  0  0  0  0  0  0  0  0  0  0
    7.0444   -1.4930   -5.5914 H   0  0  0  0  0  0  0  0  0  0  0  0
    8.2332   -0.3520   -6.2260 H   0  0  0  0  0  0  0  0  0  0  0  0
  1  7  1  0  0  0  0
  1  2  1  0  0  0  0
  2  8  1  0  0  0  0
  3  2  2  0  0  0  0
  3 14  1  0  0  0  0
  4  3  1  0  0  0  0
  5  4  2  0  0  0  0
  5  6  1  0  0  0  0
  6  1  2  0  0  0  0
  9  4  1  0  0  0  0
 10  5  1  0  0  0  0
 11  6  1  0  0  0  0
 11 13  2  0  0  0  0
 12 11  2  0  0  0  0
 15 14  2  0  0  0  0
 16 22  1  0  0  0  0
 17 23  1  0  0  0  0
 17 16  1  0  0  0  0
 18 17  2  0  0  0  0
 19 20  2  0  0  0  0
 19 18  1  0  0  0  0
 20 21  1  0  0  0  0
 21 16  2  0  0  0  0
 21 26  1  0  0  0  0
 24 19  1  0  0  0  0
 25 20  1  0  0  0  0
 26 29  1  6  0  0  0
 26 28  1  0  0  0  0
 28 15  1  0  0  0  0
 30 31  1  0  0  0  0
 30 18  1  0  0  0  0
 32 30  1  0  0  0  0
 33 30  1  0  0  0  0
M  RAD  2  27   3  29   2
M  END
