Coordinates from ORCA-job p-NO2-Ph-N2-OTs-B3LYPG-6-31G_dp-scan-d09-49-n400
 OpenBabel08281821283D

 33 34  0  0  0  0  0  0  0  0999 V2000
   -1.1501    0.4231   -1.7299 C   0  0  0  0  0  0  0  0  0  0  0  0
   -0.4419    1.5200   -1.2638 C   0  0  0  0  0  0  0  0  0  0  0  0
    0.7463    1.9385   -1.8981 C   0  0  0  0  0  0  0  0  0  0  0  0
    1.2042    1.2477   -3.0400 C   0  0  0  0  0  0  0  0  0  0  0  0
    0.4869    0.1563   -3.5162 C   0  0  0  0  0  0  0  0  0  0  0  0
   -0.6716   -0.2470   -2.8551 C   0  0  0  0  0  0  0  0  0  0  0  0
   -2.0585    0.0830   -1.2502 H   0  0  0  0  0  0  0  0  0  0  0  0
   -0.7832    2.0782   -0.3994 H   0  0  0  0  0  0  0  0  0  0  0  0
    2.1004    1.5627   -3.5519 H   0  0  0  0  0  0  0  0  0  0  0  0
    0.8131   -0.3884   -4.3933 H   0  0  0  0  0  0  0  0  0  0  0  0
   -1.4131   -1.4115   -3.3619 N   0  0  0  0  0  0  0  0  0  0  0  0
   -0.9640   -1.9870   -4.3525 O   0  0  0  0  0  0  0  0  0  0  0  0
   -2.4338   -1.7414   -2.7590 O   0  0  0  0  0  0  0  0  0  0  0  0
    1.3022    3.0780   -1.2894 N   0  0  0  0  0  0  0  0  0  0  0  0
    2.4428    3.5123   -1.5191 N   0  0  0  0  0  0  0  0  0  0  0  0
    5.9951    1.3066   -2.5666 C   0  0  0  0  0  0  0  0  0  0  0  0
    6.6335    0.2773   -3.2524 C   0  0  0  0  0  0  0  0  0  0  0  0
    6.9773    0.4151   -4.6073 C   0  0  0  0  0  0  0  0  0  0  0  0
    6.6677    1.6180   -5.2593 C   0  0  0  0  0  0  0  0  0  0  0  0
    6.0268    2.6578   -4.5882 C   0  0  0  0  0  0  0  0  0  0  0  0
    5.6886    2.4897   -3.2460 C   0  0  0  0  0  0  0  0  0  0  0  0
    5.7355    1.1873   -1.5179 H   0  0  0  0  0  0  0  0  0  0  0  0
    6.8741   -0.6451   -2.7305 H   0  0  0  0  0  0  0  0  0  0  0  0
    6.9384    1.7432   -6.3041 H   0  0  0  0  0  0  0  0  0  0  0  0
    5.7948    3.5961   -5.0823 H   0  0  0  0  0  0  0  0  0  0  0  0
    4.9564    3.8597   -2.3214 S   0  0  2  0  0  0  0  0  0  0  0  0
    2.9747    4.7323   -0.8459 O   0  0  0  0  0  0  0  0  0  0  0  0
    3.3197    2.9290   -2.3738 O   0  0  0  0  0  0  0  0  0  0  0  0
    4.8959    4.9899   -3.2708 O   0  0  0  0  0  0  0  0  0  0  0  0
    7.6522   -0.7153   -5.3448 C   0  0  0  0  0  0  0  0  0  0  0  0
    8.3985   -1.2125   -4.7175 H   0  0  0  0  0  0  0  0  0  0  0  0
    6.9210   -1.4765   -5.6434 H   0  0  0  0  0  0  0  0  0  0  0  0
    8.1484   -0.3623   -6.2522 H   0  0  0  0  0  0  0  0  0  0  0  0
  1  2  1  0  0  0  0
  1  7  1  0  0  0  0
  2  8  1  0  0  0  0
  3 14  1  0  0  0  0
  3  2  2  0  0  0  0
  4  3  1  0  0  0  0
  5  4  2  0  0  0  0
  5  6  1  0  0  0  0
  6  1  2  0  0  0  0
  9  4  1  0  0  0  0
 10  5  1  0  0  0  0
 11  6  1  0  0  0  0
 11 13  2  0  0  0  0
 12 11  2  0  0  0  0
 15 14  1  0  0  0  0
 15 27  1  0  0  0  0
 16 22  1  0  0  0  0
 17 23  1  0  0  0  0
 17 16  2  0  0  0  0
 18 17  1  0  0  0  0
 19 18  2  0  0  0  0
 19 20  1  0  0  0  0
 20 21  2  0  0  0  0
 21 16  1  0  0  0  0
 21 26  1  0  0  0  0
 24 19  1  0  0  0  0
 25 20  1  0  0  0  0
 26 29  1  6  0  0  0
 28 26  1  0  0  0  0
 28 15  1  0  0  0  0
 30 31  1  0  0  0  0
 30 18  1  0  0  0  0
 32 30  1  0  0  0  0
 33 30  1  0  0  0  0
M  RAD  3  14   2  27   2  29   2
M  END
