Coordinates from ORCA-job p-NO2-Ph-N2-OTs-B3LYPG-6-31G_dp-scan-d09-49-n400
 OpenBabel08281821283D

 33 34  0  0  0  0  0  0  0  0999 V2000
   -1.5090    0.3116   -1.4840 C   0  0  0  0  0  0  0  0  0  0  0  0
   -0.2136    0.4852   -1.0138 C   0  0  0  0  0  0  0  0  0  0  0  0
    0.8306    0.7749   -1.9071 C   0  0  0  0  0  0  0  0  0  0  0  0
    0.5907    0.8440   -3.2912 C   0  0  0  0  0  0  0  0  0  0  0  0
   -0.7017    0.6419   -3.7649 C   0  0  0  0  0  0  0  0  0  0  0  0
   -1.7288    0.3907   -2.8575 C   0  0  0  0  0  0  0  0  0  0  0  0
   -2.3372    0.1040   -0.8187 H   0  0  0  0  0  0  0  0  0  0  0  0
    0.0123    0.4079    0.0439 H   0  0  0  0  0  0  0  0  0  0  0  0
    1.3982    1.0491   -3.9779 H   0  0  0  0  0  0  0  0  0  0  0  0
   -0.9257    0.6857   -4.8234 H   0  0  0  0  0  0  0  0  0  0  0  0
   -3.0981    0.1902   -3.3705 N   0  0  0  0  0  0  0  0  0  0  0  0
   -3.2618    0.2516   -4.5870 O   0  0  0  0  0  0  0  0  0  0  0  0
   -3.9844   -0.0260   -2.5467 O   0  0  0  0  0  0  0  0  0  0  0  0
    2.0964    0.8992   -1.2797 N   0  0  0  0  0  0  0  0  0  0  0  0
    3.1011    1.4851   -1.6008 N   0  0  0  0  0  0  0  0  0  0  0  0
    6.4257    1.7801   -2.5330 C   0  0  0  0  0  0  0  0  0  0  0  0
    7.5223    1.0141   -2.9214 C   0  0  0  0  0  0  0  0  0  0  0  0
    7.8250    0.8121   -4.2766 C   0  0  0  0  0  0  0  0  0  0  0  0
    7.0013    1.4080   -5.2428 C   0  0  0  0  0  0  0  0  0  0  0  0
    5.8987    2.1764   -4.8763 C   0  0  0  0  0  0  0  0  0  0  0  0
    5.6193    2.3512   -3.5197 C   0  0  0  0  0  0  0  0  0  0  0  0
    6.2015    1.9488   -1.4858 H   0  0  0  0  0  0  0  0  0  0  0  0
    8.1591    0.5729   -2.1597 H   0  0  0  0  0  0  0  0  0  0  0  0
    7.2309    1.2754   -6.2967 H   0  0  0  0  0  0  0  0  0  0  0  0
    5.2731    2.6527   -5.6230 H   0  0  0  0  0  0  0  0  0  0  0  0
    4.2132    3.3345   -3.0383 S   0  0  0  0  0  0  0  0  0  0  0  0
    4.4134    3.8256   -1.6827 O   0  0  0  0  0  0  0  0  0  0  0  0
    2.9773    2.2255   -2.9620 O   0  0  0  0  0  0  0  0  0  0  0  0
    3.8274    4.1967   -4.1478 O   0  0  0  0  0  0  0  0  0  0  0  0
    9.0014   -0.0405   -4.6846 C   0  0  0  0  0  0  0  0  0  0  0  0
    9.8182    0.0294   -3.9599 H   0  0  0  0  0  0  0  0  0  0  0  0
    8.7139   -1.0972   -4.7505 H   0  0  0  0  0  0  0  0  0  0  0  0
    9.3879    0.2539   -5.6643 H   0  0  0  0  0  0  0  0  0  0  0  0
  1  2  1  0  0  0  0
  1  7  1  0  0  0  0
  2  8  1  0  0  0  0
  3 14  1  0  0  0  0
  3  2  2  0  0  0  0
  4  3  1  0  0  0  0
  5  4  2  0  0  0  0
  5  6  1  0  0  0  0
  6  1  2  0  0  0  0
  9  4  1  0  0  0  0
 10  5  1  0  0  0  0
 11  6  1  0  0  0  0
 11 13  2  0  0  0  0
 12 11  2  0  0  0  0
 15 14  1  0  0  0  0
 16 22  1  0  0  0  0
 17 16  1  0  0  0  0
 17 23  1  0  0  0  0
 18 17  2  0  0  0  0
 19 20  2  0  0  0  0
 19 18  1  0  0  0  0
 20 21  1  0  0  0  0
 21 26  1  0  0  0  0
 21 16  2  0  0  0  0
 24 19  1  0  0  0  0
 25 20  1  0  0  0  0
 26 28  1  0  0  0  0
 26 27  2  0  0  0  0
 28 15  1  0  0  0  0
 29 26  2  0  0  0  0
 30 18  1  0  0  0  0
 30 31  1  0  0  0  0
 32 30  1  0  0  0  0
 33 30  1  0  0  0  0
M  RAD  2  14   2  15   2
M  END
