Coordinates from ORCA-job p-NO2-Ph-N2-OTs-B3LYPG-6-31G_dp-scan-d09-49-n400
 OpenBabel08281821283D

 33 33  0  0  0  0  0  0  0  0999 V2000
   -1.7294   -0.1231   -3.4474 C   0  0  0  0  0  0  0  0  0  0  0  0
   -0.4851   -0.7404   -3.4498 C   0  0  0  0  0  0  0  0  0  0  0  0
    0.5807   -0.1077   -2.7982 C   0  0  0  0  0  0  0  0  0  0  0  0
    0.4476    1.1163   -2.1249 C   0  0  0  0  0  0  0  0  0  0  0  0
   -0.8059    1.7185   -2.1193 C   0  0  0  0  0  0  0  0  0  0  0  0
   -1.8624    1.0929   -2.7793 C   0  0  0  0  0  0  0  0  0  0  0  0
   -2.5873   -0.5611   -3.9402 H   0  0  0  0  0  0  0  0  0  0  0  0
   -0.3288   -1.6904   -3.9473 H   0  0  0  0  0  0  0  0  0  0  0  0
    1.3071    1.5583   -1.6368 H   0  0  0  0  0  0  0  0  0  0  0  0
   -0.9696    2.6654   -1.6213 H   0  0  0  0  0  0  0  0  0  0  0  0
   -3.1927    1.7456   -2.7667 N   0  0  0  0  0  0  0  0  0  0  0  0
   -3.2927    2.8059   -2.1579 O   0  0  0  0  0  0  0  0  0  0  0  0
   -4.1019    1.1759   -3.3643 O   0  0  0  0  0  0  0  0  0  0  0  0
    1.8145   -0.7802   -2.8222 N   0  0  0  0  0  0  0  0  0  0  0  0
    2.9430   -0.7465   -2.6139 N   0  0  0  0  0  0  0  0  0  0  0  0
    6.5025    2.2083   -2.4730 C   0  0  0  0  0  0  0  0  0  0  0  0
    7.8370    1.9671   -2.7881 C   0  0  0  0  0  0  0  0  0  0  0  0
    8.1970    1.3271   -3.9842 C   0  0  0  0  0  0  0  0  0  0  0  0
    7.1783    0.9416   -4.8655 C   0  0  0  0  0  0  0  0  0  0  0  0
    5.8363    1.1729   -4.5629 C   0  0  0  0  0  0  0  0  0  0  0  0
    5.5059    1.8016   -3.3633 C   0  0  0  0  0  0  0  0  0  0  0  0
    6.2318    2.7199   -1.5556 H   0  0  0  0  0  0  0  0  0  0  0  0
    8.6140    2.2875   -2.0990 H   0  0  0  0  0  0  0  0  0  0  0  0
    7.4381    0.4612   -5.8054 H   0  0  0  0  0  0  0  0  0  0  0  0
    5.0481    0.8897   -5.2515 H   0  0  0  0  0  0  0  0  0  0  0  0
    3.7864    2.0962   -2.9541 S   0  0  0  0  0  0  0  0  0  0  0  0
    3.6959    3.4365   -2.3502 O   0  0  0  0  0  0  0  0  0  0  0  0
    3.4563    1.0302   -1.8525 O   0  0  0  0  0  0  0  0  0  0  0  0
    2.9834    1.8070   -4.1595 O   0  0  0  0  0  0  0  0  0  0  0  0
    9.6461    1.0450   -4.3026 C   0  0  0  0  0  0  0  0  0  0  0  0
   10.3055    1.8083   -3.8788 H   0  0  0  0  0  0  0  0  0  0  0  0
    9.9592    0.0792   -3.8866 H   0  0  0  0  0  0  0  0  0  0  0  0
    9.8194    1.0060   -5.3819 H   0  0  0  0  0  0  0  0  0  0  0  0
  1  6  1  0  0  0  0
  2  1  2  0  0  0  0
  2  3  1  0  0  0  0
  3  4  2  0  0  0  0
  4  5  1  0  0  0  0
  4  9  1  0  0  0  0
  5 10  1  0  0  0  0
  6 11  1  0  0  0  0
  6  5  2  0  0  0  0
  7  1  1  0  0  0  0
  8  2  1  0  0  0  0
 11 12  2  0  0  0  0
 13 11  2  0  0  0  0
 14  3  1  0  0  0  0
 14 15  2  0  0  0  0
 16 22  1  0  0  0  0
 17 16  1  0  0  0  0
 17 23  1  0  0  0  0
 18 17  2  0  0  0  0
 19 20  2  0  0  0  0
 19 18  1  0  0  0  0
 20 21  1  0  0  0  0
 21 26  1  0  0  0  0
 21 16  2  0  0  0  0
 24 19  1  0  0  0  0
 25 20  1  0  0  0  0
 26 27  2  0  0  0  0
 26 28  1  0  0  0  0
 29 26  2  0  0  0  0
 30 18  1  0  0  0  0
 30 32  1  0  0  0  0
 30 31  1  0  0  0  0
 33 30  1  0  0  0  0
M  RAD  2  15   2  28   2
M  END
