Coordinates from ORCA-job p-NO2-Ph-N2-OTs-B3LYPG-6-31G_dp-scan-d09-49-n400
 OpenBabel08281821283D

 33 34  0  0  0  0  0  0  0  0999 V2000
   -0.9777   -0.5534   -2.0142 C   0  0  0  0  0  0  0  0  0  0  0  0
    0.3155   -0.2657   -1.5979 C   0  0  0  0  0  0  0  0  0  0  0  0
    0.9502    0.9156   -2.0167 C   0  0  0  0  0  0  0  0  0  0  0  0
    0.2710    1.8441   -2.8275 C   0  0  0  0  0  0  0  0  0  0  0  0
   -1.0340    1.5681   -3.2224 C   0  0  0  0  0  0  0  0  0  0  0  0
   -1.6317    0.3752   -2.8211 C   0  0  0  0  0  0  0  0  0  0  0  0
   -1.4863   -1.4619   -1.7190 H   0  0  0  0  0  0  0  0  0  0  0  0
    0.8576   -0.9450   -0.9496 H   0  0  0  0  0  0  0  0  0  0  0  0
    0.7531    2.7588   -3.1370 H   0  0  0  0  0  0  0  0  0  0  0  0
   -1.5905    2.2597   -3.8423 H   0  0  0  0  0  0  0  0  0  0  0  0
   -3.0116    0.0872   -3.2605 N   0  0  0  0  0  0  0  0  0  0  0  0
   -3.5672    0.9243   -3.9678 O   0  0  0  0  0  0  0  0  0  0  0  0
   -3.5133   -0.9721   -2.8902 O   0  0  0  0  0  0  0  0  0  0  0  0
    2.2536    1.0707   -1.4788 N   0  0  0  0  0  0  0  0  0  0  0  0
    3.1977    1.7445   -1.8106 N   0  0  0  0  0  0  0  0  0  0  0  0
    6.4253    2.1666   -2.6366 C   0  0  0  0  0  0  0  0  0  0  0  0
    7.4840    1.2779   -2.8081 C   0  0  0  0  0  0  0  0  0  0  0  0
    7.7018    0.6354   -4.0358 C   0  0  0  0  0  0  0  0  0  0  0  0
    6.8329    0.9135   -5.1018 C   0  0  0  0  0  0  0  0  0  0  0  0
    5.7674    1.7976   -4.9516 C   0  0  0  0  0  0  0  0  0  0  0  0
    5.5720    2.4130   -3.7136 C   0  0  0  0  0  0  0  0  0  0  0  0
    6.2653    2.6729   -1.6915 H   0  0  0  0  0  0  0  0  0  0  0  0
    8.1564    1.0850   -1.9764 H   0  0  0  0  0  0  0  0  0  0  0  0
    6.9980    0.4377   -6.0644 H   0  0  0  0  0  0  0  0  0  0  0  0
    5.1060    2.0259   -5.7800 H   0  0  0  0  0  0  0  0  0  0  0  0
    4.2174    3.5537   -3.5177 S   0  0  0  0  0  0  0  0  0  0  0  0
    4.5090    4.4604   -2.4128 O   0  0  0  0  0  0  0  0  0  0  0  0
    2.9361    2.5654   -3.1050 O   0  0  0  0  0  0  0  0  0  0  0  0
    3.8050    4.0498   -4.8257 O   0  0  0  0  0  0  0  0  0  0  0  0
    8.8341   -0.3484   -4.2013 C   0  0  0  0  0  0  0  0  0  0  0  0
    9.6811   -0.0977   -3.5564 H   0  0  0  0  0  0  0  0  0  0  0  0
    8.5108   -1.3626   -3.9346 H   0  0  0  0  0  0  0  0  0  0  0  0
    9.1889   -0.3817   -5.2351 H   0  0  0  0  0  0  0  0  0  0  0  0
  1  7  1  0  0  0  0
  1  2  1  0  0  0  0
  2  8  1  0  0  0  0
  3  2  2  0  0  0  0
  3 14  1  0  0  0  0
  4  3  1  0  0  0  0
  5  4  2  0  0  0  0
  5  6  1  0  0  0  0
  6  1  2  0  0  0  0
  9  4  1  0  0  0  0
 10  5  1  0  0  0  0
 11 13  2  0  0  0  0
 11  6  1  0  0  0  0
 12 11  2  0  0  0  0
 15 14  1  0  0  0  0
 16 22  1  0  0  0  0
 17 16  1  0  0  0  0
 17 23  1  0  0  0  0
 18 17  2  0  0  0  0
 19 20  2  0  0  0  0
 19 18  1  0  0  0  0
 20 21  1  0  0  0  0
 21 26  1  0  0  0  0
 21 16  2  0  0  0  0
 24 19  1  0  0  0  0
 25 20  1  0  0  0  0
 26 28  1  0  0  0  0
 26 27  2  0  0  0  0
 28 15  1  0  0  0  0
 29 26  2  0  0  0  0
 30 18  1  0  0  0  0
 30 32  1  0  0  0  0
 30 31  1  0  0  0  0
 33 30  1  0  0  0  0
M  RAD  2  14   2  15   2
M  END
