Coordinates from ORCA-job p-NO2-Ph-N2-OTs-B3LYPG-6-31G_dp-scan-d09-49-n400
 OpenBabel08281821283D

 33 34  0  0  0  0  0  0  0  0999 V2000
   -1.2906    0.5044   -1.7807 C   0  0  0  0  0  0  0  0  0  0  0  0
   -0.5430    1.5802   -1.3244 C   0  0  0  0  0  0  0  0  0  0  0  0
    0.7079    1.8806   -1.8966 C   0  0  0  0  0  0  0  0  0  0  0  0
    1.2032    1.0946   -2.9565 C   0  0  0  0  0  0  0  0  0  0  0  0
    0.4494    0.0222   -3.4214 C   0  0  0  0  0  0  0  0  0  0  0  0
   -0.7785   -0.2610   -2.8271 C   0  0  0  0  0  0  0  0  0  0  0  0
   -2.2513    0.2515   -1.3519 H   0  0  0  0  0  0  0  0  0  0  0  0
   -0.9021    2.2099   -0.5180 H   0  0  0  0  0  0  0  0  0  0  0  0
    2.1558    1.3195   -3.4113 H   0  0  0  0  0  0  0  0  0  0  0  0
    0.7997   -0.5988   -4.2366 H   0  0  0  0  0  0  0  0  0  0  0  0
   -1.5618   -1.4060   -3.3226 N   0  0  0  0  0  0  0  0  0  0  0  0
   -1.0833   -2.0667   -4.2429 O   0  0  0  0  0  0  0  0  0  0  0  0
   -2.6432   -1.6298   -2.7815 O   0  0  0  0  0  0  0  0  0  0  0  0
    1.3140    3.0135   -1.3063 N   0  0  0  0  0  0  0  0  0  0  0  0
    2.4545    3.4016   -1.5444 N   0  0  0  0  0  0  0  0  0  0  0  0
    6.0664    1.3157   -2.5856 C   0  0  0  0  0  0  0  0  0  0  0  0
    6.7207    0.3043   -3.2832 C   0  0  0  0  0  0  0  0  0  0  0  0
    7.0501    0.4588   -4.6396 C   0  0  0  0  0  0  0  0  0  0  0  0
    6.7097    1.6598   -5.2805 C   0  0  0  0  0  0  0  0  0  0  0  0
    6.0525    2.6806   -4.5968 C   0  0  0  0  0  0  0  0  0  0  0  0
    5.7291    2.4981   -3.2521 C   0  0  0  0  0  0  0  0  0  0  0  0
    5.8194    1.1840   -1.5350 H   0  0  0  0  0  0  0  0  0  0  0  0
    6.9857   -0.6163   -2.7700 H   0  0  0  0  0  0  0  0  0  0  0  0
    6.9693    1.7977   -6.3266 H   0  0  0  0  0  0  0  0  0  0  0  0
    5.7964    3.6167   -5.0830 H   0  0  0  0  0  0  0  0  0  0  0  0
    4.9776    3.8390   -2.2969 S   0  0  2  0  0  0  0  0  0  0  0  0
    3.1594    4.8516   -0.7619 O   0  0  0  0  0  0  0  0  0  0  0  0
    3.3209    2.8343   -2.3749 O   0  0  0  0  0  0  0  0  0  0  0  0
    4.9003    4.9733   -3.2386 O   0  0  0  0  0  0  0  0  0  0  0  0
    7.7414   -0.6520   -5.3915 C   0  0  0  0  0  0  0  0  0  0  0  0
    8.4920   -1.1491   -4.7696 H   0  0  0  0  0  0  0  0  0  0  0  0
    7.0208   -1.4178   -5.7039 H   0  0  0  0  0  0  0  0  0  0  0  0
    8.2356   -0.2796   -6.2924 H   0  0  0  0  0  0  0  0  0  0  0  0
  1  7  1  0  0  0  0
  1  2  1  0  0  0  0
  2  8  1  0  0  0  0
  3  2  2  0  0  0  0
  3 14  1  0  0  0  0
  4  3  1  0  0  0  0
  5  4  2  0  0  0  0
  5  6  1  0  0  0  0
  6  1  2  0  0  0  0
  9  4  1  0  0  0  0
 10  5  1  0  0  0  0
 11  6  1  0  0  0  0
 11 13  2  0  0  0  0
 12 11  2  0  0  0  0
 15 14  1  0  0  0  0
 15 27  1  0  0  0  0
 16 22  1  0  0  0  0
 17 23  1  0  0  0  0
 17 16  2  0  0  0  0
 18 17  1  0  0  0  0
 19 18  2  0  0  0  0
 19 20  1  0  0  0  0
 20 21  2  0  0  0  0
 21 16  1  0  0  0  0
 24 19  1  0  0  0  0
 25 20  1  0  0  0  0
 26 21  1  6  0  0  0
 28 26  1  0  0  0  0
 28 15  1  0  0  0  0
 29 26  1  0  0  0  0
 30 31  1  0  0  0  0
 30 18  1  0  0  0  0
 32 30  1  0  0  0  0
 33 30  1  0  0  0  0
M  RAD  3  14   2  27   2  29   2
M  END
