Coordinates from ORCA-job p-NO2-Ph-N2-OTs-B3LYPG-6-31G_dp-scan-d09-49-n400
 OpenBabel08281821283D

 33 34  0  0  0  0  0  0  0  0999 V2000
   -1.2829    0.5033   -1.7766 C   0  0  0  0  0  0  0  0  0  0  0  0
   -0.5377    1.5808   -1.3212 C   0  0  0  0  0  0  0  0  0  0  0  0
    0.7109    1.8872   -1.8965 C   0  0  0  0  0  0  0  0  0  0  0  0
    1.2046    1.1041   -2.9597 C   0  0  0  0  0  0  0  0  0  0  0  0
    0.4530    0.0300   -3.4238 C   0  0  0  0  0  0  0  0  0  0  0  0
   -0.7719   -0.2589   -2.8260 C   0  0  0  0  0  0  0  0  0  0  0  0
   -2.2413    0.2464   -1.3449 H   0  0  0  0  0  0  0  0  0  0  0  0
   -0.8967    2.2079   -0.5127 H   0  0  0  0  0  0  0  0  0  0  0  0
    2.1544    1.3329   -3.4182 H   0  0  0  0  0  0  0  0  0  0  0  0
    0.8027   -0.5880   -4.2414 H   0  0  0  0  0  0  0  0  0  0  0  0
   -1.5526   -1.4056   -3.3206 N   0  0  0  0  0  0  0  0  0  0  0  0
   -1.0762   -2.0616   -4.2455 O   0  0  0  0  0  0  0  0  0  0  0  0
   -2.6327   -1.6327   -2.7781 O   0  0  0  0  0  0  0  0  0  0  0  0
    1.3123    3.0208   -1.3066 N   0  0  0  0  0  0  0  0  0  0  0  0
    2.4540    3.4108   -1.5448 N   0  0  0  0  0  0  0  0  0  0  0  0
    6.0618    1.3123   -2.5850 C   0  0  0  0  0  0  0  0  0  0  0  0
    6.7160    0.3011   -3.2829 C   0  0  0  0  0  0  0  0  0  0  0  0
    7.0475    0.4568   -4.6387 C   0  0  0  0  0  0  0  0  0  0  0  0
    6.7094    1.6588   -5.2787 C   0  0  0  0  0  0  0  0  0  0  0  0
    6.0523    2.6796   -4.5948 C   0  0  0  0  0  0  0  0  0  0  0  0
    5.7269    2.4957   -3.2509 C   0  0  0  0  0  0  0  0  0  0  0  0
    5.8132    1.1797   -1.5350 H   0  0  0  0  0  0  0  0  0  0  0  0
    6.9792   -0.6205   -2.7704 H   0  0  0  0  0  0  0  0  0  0  0  0
    6.9706    1.7976   -6.3242 H   0  0  0  0  0  0  0  0  0  0  0  0
    5.7980    3.6166   -5.0801 H   0  0  0  0  0  0  0  0  0  0  0  0
    4.9755    3.8372   -2.2965 S   0  0  2  0  0  0  0  0  0  0  0  0
    3.1245    4.8148   -0.7838 O   0  0  0  0  0  0  0  0  0  0  0  0
    3.3221    2.8408   -2.3760 O   0  0  0  0  0  0  0  0  0  0  0  0
    4.9013    4.9733   -3.2365 O   0  0  0  0  0  0  0  0  0  0  0  0
    7.7389   -0.6539   -5.3907 C   0  0  0  0  0  0  0  0  0  0  0  0
    8.4904   -1.1503   -4.7692 H   0  0  0  0  0  0  0  0  0  0  0  0
    7.0186   -1.4204   -5.7021 H   0  0  0  0  0  0  0  0  0  0  0  0
    8.2321   -0.2817   -6.2921 H   0  0  0  0  0  0  0  0  0  0  0  0
  1  7  1  0  0  0  0
  1  2  1  0  0  0  0
  2  8  1  0  0  0  0
  3  2  2  0  0  0  0
  3 14  1  0  0  0  0
  4  3  1  0  0  0  0
  5  4  2  0  0  0  0
  5  6  1  0  0  0  0
  6  1  2  0  0  0  0
  9  4  1  0  0  0  0
 10  5  1  0  0  0  0
 11  6  1  0  0  0  0
 11 13  2  0  0  0  0
 12 11  2  0  0  0  0
 15 14  1  0  0  0  0
 15 27  1  0  0  0  0
 16 22  1  0  0  0  0
 17 23  1  0  0  0  0
 17 16  2  0  0  0  0
 18 17  1  0  0  0  0
 19 18  2  0  0  0  0
 19 20  1  0  0  0  0
 20 21  2  0  0  0  0
 21 16  1  0  0  0  0
 24 19  1  0  0  0  0
 25 20  1  0  0  0  0
 26 21  1  6  0  0  0
 28 26  1  0  0  0  0
 28 15  1  0  0  0  0
 29 26  1  0  0  0  0
 30 31  1  0  0  0  0
 30 18  1  0  0  0  0
 32 30  1  0  0  0  0
 33 30  1  0  0  0  0
M  RAD  3  14   2  27   2  29   2
M  END
