Coordinates from ORCA-job p-NO2-Ph-N2-OTs-B3LYPG-6-31G_dp-scan-d09-49-n400
 OpenBabel08281821283D

 33 34  0  0  0  0  0  0  0  0999 V2000
   -1.1398   -0.4867   -1.8849 C   0  0  0  0  0  0  0  0  0  0  0  0
    0.1969   -0.3060   -1.5562 C   0  0  0  0  0  0  0  0  0  0  0  0
    0.9301    0.7506   -2.1235 C   0  0  0  0  0  0  0  0  0  0  0  0
    0.3224    1.6493   -3.0220 C   0  0  0  0  0  0  0  0  0  0  0  0
   -1.0194    1.4694   -3.3442 C   0  0  0  0  0  0  0  0  0  0  0  0
   -1.7237    0.4094   -2.7775 C   0  0  0  0  0  0  0  0  0  0  0  0
   -1.7294   -1.2933   -1.4688 H   0  0  0  0  0  0  0  0  0  0  0  0
    0.6972   -0.9726   -0.8628 H   0  0  0  0  0  0  0  0  0  0  0  0
    0.8895    2.4619   -3.4497 H   0  0  0  0  0  0  0  0  0  0  0  0
   -1.5248    2.1377   -4.0300 H   0  0  0  0  0  0  0  0  0  0  0  0
   -3.1462    0.2272   -3.1363 N   0  0  0  0  0  0  0  0  0  0  0  0
   -3.6375    1.0297   -3.9255 O   0  0  0  0  0  0  0  0  0  0  0  0
   -3.7412   -0.7165   -2.6210 O   0  0  0  0  0  0  0  0  0  0  0  0
    2.2735    0.7921   -1.6842 N   0  0  0  0  0  0  0  0  0  0  0  0
    3.2432    1.4412   -1.9379 N   0  0  0  0  0  0  0  0  0  0  0  0
    6.4632    2.1806   -2.6092 C   0  0  0  0  0  0  0  0  0  0  0  0
    7.5377    1.3143   -2.7971 C   0  0  0  0  0  0  0  0  0  0  0  0
    7.7656    0.6980   -4.0363 C   0  0  0  0  0  0  0  0  0  0  0  0
    6.8908    0.9804   -5.0959 C   0  0  0  0  0  0  0  0  0  0  0  0
    5.8101    1.8429   -4.9282 C   0  0  0  0  0  0  0  0  0  0  0  0
    5.6034    2.4319   -3.6795 C   0  0  0  0  0  0  0  0  0  0  0  0
    6.2966    2.6686   -1.6555 H   0  0  0  0  0  0  0  0  0  0  0  0
    8.2149    1.1187   -1.9698 H   0  0  0  0  0  0  0  0  0  0  0  0
    7.0637    0.5257   -6.0675 H   0  0  0  0  0  0  0  0  0  0  0  0
    5.1449    2.0763   -5.7522 H   0  0  0  0  0  0  0  0  0  0  0  0
    4.2264    3.5458   -3.4632 S   0  0  0  0  0  0  0  0  0  0  0  0
    4.5095    4.4357   -2.3390 O   0  0  0  0  0  0  0  0  0  0  0  0
    2.9654    2.5432   -3.1044 O   0  0  0  0  0  0  0  0  0  0  0  0
    3.8392    4.0866   -4.7644 O   0  0  0  0  0  0  0  0  0  0  0  0
    8.9155   -0.2623   -4.2203 C   0  0  0  0  0  0  0  0  0  0  0  0
    9.7662    0.0041   -3.5865 H   0  0  0  0  0  0  0  0  0  0  0  0
    8.6176   -1.2839   -3.9521 H   0  0  0  0  0  0  0  0  0  0  0  0
    9.2569   -0.2853   -5.2590 H   0  0  0  0  0  0  0  0  0  0  0  0
  1  2  1  0  0  0  0
  1  7  1  0  0  0  0
  2  8  1  0  0  0  0
  3 14  1  0  0  0  0
  3  2  2  0  0  0  0
  4  3  1  0  0  0  0
  5  4  2  0  0  0  0
  5  6  1  0  0  0  0
  6  1  2  0  0  0  0
  9  4  1  0  0  0  0
 10  5  1  0  0  0  0
 11  6  1  0  0  0  0
 11 13  2  0  0  0  0
 12 11  2  0  0  0  0
 15 14  1  0  0  0  0
 16 22  1  0  0  0  0
 17 16  1  0  0  0  0
 17 23  1  0  0  0  0
 18 17  2  0  0  0  0
 19 20  2  0  0  0  0
 19 18  1  0  0  0  0
 20 21  1  0  0  0  0
 21 26  1  0  0  0  0
 21 16  2  0  0  0  0
 24 19  1  0  0  0  0
 25 20  1  0  0  0  0
 26 28  1  0  0  0  0
 26 27  2  0  0  0  0
 28 15  1  0  0  0  0
 29 26  2  0  0  0  0
 30 18  1  0  0  0  0
 30 32  1  0  0  0  0
 30 31  1  0  0  0  0
 33 30  1  0  0  0  0
M  RAD  2  14   2  15   2
M  END
