Coordinates from ORCA-job p-NO2-Ph-N2-OTs-B3LYPG-6-31G_dp-scan-d09-49-n400
 OpenBabel08281821283D

 33 33  0  0  0  0  0  0  0  0999 V2000
   -1.2036    0.3887   -1.7267 C   0  0  0  0  0  0  0  0  0  0  0  0
   -0.4508    1.4406   -1.2233 C   0  0  0  0  0  0  0  0  0  0  0  0
    0.7361    1.8425   -1.8618 C   0  0  0  0  0  0  0  0  0  0  0  0
    1.1612    1.1923   -3.0366 C   0  0  0  0  0  0  0  0  0  0  0  0
    0.3998    0.1472   -3.5507 C   0  0  0  0  0  0  0  0  0  0  0  0
   -0.7621   -0.2421   -2.8881 C   0  0  0  0  0  0  0  0  0  0  0  0
   -2.1164    0.0564   -1.2500 H   0  0  0  0  0  0  0  0  0  0  0  0
   -0.7587    1.9724   -0.3301 H   0  0  0  0  0  0  0  0  0  0  0  0
    2.0643    1.4999   -3.5408 H   0  0  0  0  0  0  0  0  0  0  0  0
    0.6948   -0.3710   -4.4544 H   0  0  0  0  0  0  0  0  0  0  0  0
   -1.5534   -1.3594   -3.4366 N   0  0  0  0  0  0  0  0  0  0  0  0
   -1.1399   -1.8995   -4.4607 O   0  0  0  0  0  0  0  0  0  0  0  0
   -2.5754   -1.6792   -2.8328 O   0  0  0  0  0  0  0  0  0  0  0  0
    1.3575    2.9443   -1.2124 N   0  0  0  0  0  0  0  0  0  0  0  0
    2.4681    3.4006   -1.4401 N   0  0  0  0  0  0  0  0  0  0  0  0
    6.0335    1.3504   -2.5833 C   0  0  0  0  0  0  0  0  0  0  0  0
    6.7159    0.3260   -3.2332 C   0  0  0  0  0  0  0  0  0  0  0  0
    7.0386    0.4228   -4.5969 C   0  0  0  0  0  0  0  0  0  0  0  0
    6.6615    1.5793   -5.2949 C   0  0  0  0  0  0  0  0  0  0  0  0
    5.9761    2.6136   -4.6599 C   0  0  0  0  0  0  0  0  0  0  0  0
    5.6590    2.4859   -3.3083 C   0  0  0  0  0  0  0  0  0  0  0  0
    5.7921    1.2639   -1.5271 H   0  0  0  0  0  0  0  0  0  0  0  0
    7.0089   -0.5598   -2.6758 H   0  0  0  0  0  0  0  0  0  0  0  0
    6.9153    1.6737   -6.3473 H   0  0  0  0  0  0  0  0  0  0  0  0
    5.6928    3.5178   -5.1896 H   0  0  0  0  0  0  0  0  0  0  0  0
    4.8739    3.8616   -2.4359 S   0  0  2  0  0  0  0  0  0  0  0  0
    3.4755    5.2659   -0.4647 O   0  0  0  0  0  0  0  0  0  0  0  0
    3.2938    2.8598   -2.3735 O   0  0  0  0  0  0  0  0  0  0  0  0
    4.7121    4.9295   -3.4437 O   0  0  0  0  0  0  0  0  0  0  0  0
    7.7638   -0.7020   -5.2944 C   0  0  0  0  0  0  0  0  0  0  0  0
    8.5343   -1.1400   -4.6523 H   0  0  0  0  0  0  0  0  0  0  0  0
    7.0688   -1.5073   -5.5621 H   0  0  0  0  0  0  0  0  0  0  0  0
    8.2412   -0.3603   -6.2163 H   0  0  0  0  0  0  0  0  0  0  0  0
  1  7  1  0  0  0  0
  1  2  1  0  0  0  0
  2  8  1  0  0  0  0
  3  2  2  0  0  0  0
  3 14  1  0  0  0  0
  4  3  1  0  0  0  0
  5  4  2  0  0  0  0
  5  6  1  0  0  0  0
  6  1  2  0  0  0  0
  9  4  1  0  0  0  0
 10  5  1  0  0  0  0
 11  6  1  0  0  0  0
 11 13  2  0  0  0  0
 12 11  2  0  0  0  0
 15 14  2  0  0  0  0
 16 22  1  0  0  0  0
 17 23  1  0  0  0  0
 17 16  1  0  0  0  0
 18 17  2  0  0  0  0
 19 20  2  0  0  0  0
 19 18  1  0  0  0  0
 20 21  1  0  0  0  0
 21 16  2  0  0  0  0
 21 26  1  0  0  0  0
 24 19  1  0  0  0  0
 25 20  1  0  0  0  0
 26 29  1  6  0  0  0
 26 28  1  0  0  0  0
 28 15  1  0  0  0  0
 30 31  1  0  0  0  0
 30 18  1  0  0  0  0
 32 30  1  0  0  0  0
 33 30  1  0  0  0  0
M  RAD  2  27   3  29   2
M  END
