Coordinates from ORCA-job p-NO2-Ph-N2-OTs-B3LYPG-6-31G_dp-scan-d09-49-n400
 OpenBabel08281821283D

 33 34  0  0  0  0  0  0  0  0999 V2000
   -1.6157   -0.5117   -2.8330 C   0  0  0  0  0  0  0  0  0  0  0  0
   -0.4423   -0.6460   -3.5636 C   0  0  0  0  0  0  0  0  0  0  0  0
    0.5327    0.3612   -3.5010 C   0  0  0  0  0  0  0  0  0  0  0  0
    0.3547    1.5162   -2.7185 C   0  0  0  0  0  0  0  0  0  0  0  0
   -0.8258    1.6463   -1.9934 C   0  0  0  0  0  0  0  0  0  0  0  0
   -1.7828    0.6358   -2.0606 C   0  0  0  0  0  0  0  0  0  0  0  0
   -2.3927   -1.2652   -2.8513 H   0  0  0  0  0  0  0  0  0  0  0  0
   -0.2650   -1.5171   -4.1840 H   0  0  0  0  0  0  0  0  0  0  0  0
    1.1244    2.2757   -2.6943 H   0  0  0  0  0  0  0  0  0  0  0  0
   -1.0118    2.5172   -1.3777 H   0  0  0  0  0  0  0  0  0  0  0  0
   -3.0310    0.7861   -1.2794 N   0  0  0  0  0  0  0  0  0  0  0  0
   -3.1515    1.8013   -0.6000 O   0  0  0  0  0  0  0  0  0  0  0  0
   -3.8605   -0.1156   -1.3660 O   0  0  0  0  0  0  0  0  0  0  0  0
    1.6757    0.1189   -4.2916 N   0  0  0  0  0  0  0  0  0  0  0  0
    2.7115    0.5997   -4.5584 N   0  0  0  0  0  0  0  0  0  0  0  0
    6.2879    2.4770   -2.7892 C   0  0  0  0  0  0  0  0  0  0  0  0
    7.4947    1.8287   -2.5372 C   0  0  0  0  0  0  0  0  0  0  0  0
    8.0571    0.9501   -3.4752 C   0  0  0  0  0  0  0  0  0  0  0  0
    7.3811    0.7443   -4.6862 C   0  0  0  0  0  0  0  0  0  0  0  0
    6.1728    1.3843   -4.9554 C   0  0  0  0  0  0  0  0  0  0  0  0
    5.6312    2.2435   -3.9984 C   0  0  0  0  0  0  0  0  0  0  0  0
    5.8659    3.1722   -2.0713 H   0  0  0  0  0  0  0  0  0  0  0  0
    8.0140    2.0142   -1.6006 H   0  0  0  0  0  0  0  0  0  0  0  0
    7.8109    0.0820   -5.4334 H   0  0  0  0  0  0  0  0  0  0  0  0
    5.6595    1.2404   -5.8997 H   0  0  0  0  0  0  0  0  0  0  0  0
    4.0754    3.0628   -4.3285 S   0  0  0  0  0  0  0  0  0  0  0  0
    4.0431    4.3114   -3.5594 O   0  0  0  0  0  0  0  0  0  0  0  0
    2.9868    2.0968   -3.6360 O   0  0  0  0  0  0  0  0  0  0  0  0
    3.8615    3.0698   -5.7762 O   0  0  0  0  0  0  0  0  0  0  0  0
    9.3513    0.2303   -3.1813 C   0  0  0  0  0  0  0  0  0  0  0  0
    9.9827    0.8046   -2.4970 H   0  0  0  0  0  0  0  0  0  0  0  0
    9.1613   -0.7425   -2.7106 H   0  0  0  0  0  0  0  0  0  0  0  0
    9.9213    0.0421   -4.0957 H   0  0  0  0  0  0  0  0  0  0  0  0
  1  6  2  0  0  0  0
  2  3  2  0  0  0  0
  2  1  1  0  0  0  0
  3  4  1  0  0  0  0
  4  9  1  0  0  0  0
  4  5  2  0  0  0  0
  5 10  1  0  0  0  0
  6  5  1  0  0  0  0
  6 11  1  0  0  0  0
  7  1  1  0  0  0  0
  8  2  1  0  0  0  0
 11 12  2  0  0  0  0
 13 11  2  0  0  0  0
 14  3  1  0  0  0  0
 15 14  1  0  0  0  0
 15 28  1  0  0  0  0
 16 17  1  0  0  0  0
 16 22  1  0  0  0  0
 17 23  1  0  0  0  0
 18 30  1  0  0  0  0
 18 17  2  0  0  0  0
 19 18  1  0  0  0  0
 20 19  2  0  0  0  0
 20 21  1  0  0  0  0
 21 16  2  0  0  0  0
 24 19  1  0  0  0  0
 25 20  1  0  0  0  0
 26 21  1  0  0  0  0
 26 28  1  0  0  0  0
 26 27  2  0  0  0  0
 29 26  2  0  0  0  0
 30 32  1  0  0  0  0
 30 31  1  0  0  0  0
 33 30  1  0  0  0  0
M  RAD  2  14   2  15   2
M  END
