Coordinates from ORCA-job p-NO2-Ph-N2-OTs-B3LYPG-6-31G_dp-scan-d09-49-n400
 OpenBabel08281821283D

 33 34  0  0  0  0  0  0  0  0999 V2000
   -0.9688   -0.5495   -2.0085 C   0  0  0  0  0  0  0  0  0  0  0  0
    0.3186   -0.2490   -1.5835 C   0  0  0  0  0  0  0  0  0  0  0  0
    0.9474    0.9346   -2.0043 C   0  0  0  0  0  0  0  0  0  0  0  0
    0.2669    1.8535   -2.8247 C   0  0  0  0  0  0  0  0  0  0  0  0
   -1.0329    1.5653   -3.2279 C   0  0  0  0  0  0  0  0  0  0  0  0
   -1.6241    0.3695   -2.8253 C   0  0  0  0  0  0  0  0  0  0  0  0
   -1.4723   -1.4605   -1.7124 H   0  0  0  0  0  0  0  0  0  0  0  0
    0.8608   -0.9202   -0.9268 H   0  0  0  0  0  0  0  0  0  0  0  0
    0.7437    2.7707   -3.1352 H   0  0  0  0  0  0  0  0  0  0  0  0
   -1.5902    2.2493   -3.8555 H   0  0  0  0  0  0  0  0  0  0  0  0
   -2.9979    0.0680   -3.2740 N   0  0  0  0  0  0  0  0  0  0  0  0
   -3.5545    0.8966   -3.9907 O   0  0  0  0  0  0  0  0  0  0  0  0
   -3.4942   -0.9932   -2.9018 O   0  0  0  0  0  0  0  0  0  0  0  0
    2.2450    1.1046   -1.4559 N   0  0  0  0  0  0  0  0  0  0  0  0
    3.1888    1.7763   -1.7950 N   0  0  0  0  0  0  0  0  0  0  0  0
    6.4205    2.1556   -2.6352 C   0  0  0  0  0  0  0  0  0  0  0  0
    7.4772    1.2651   -2.8092 C   0  0  0  0  0  0  0  0  0  0  0  0
    7.6972    0.6301   -4.0404 C   0  0  0  0  0  0  0  0  0  0  0  0
    6.8325    0.9176   -5.1073 C   0  0  0  0  0  0  0  0  0  0  0  0
    5.7690    1.8036   -4.9548 C   0  0  0  0  0  0  0  0  0  0  0  0
    5.5714    2.4115   -3.7134 C   0  0  0  0  0  0  0  0  0  0  0  0
    6.2587    2.6561   -1.6873 H   0  0  0  0  0  0  0  0  0  0  0  0
    8.1463    1.0648   -1.9766 H   0  0  0  0  0  0  0  0  0  0  0  0
    6.9993    0.4475   -6.0725 H   0  0  0  0  0  0  0  0  0  0  0  0
    5.1108    2.0391   -5.7837 H   0  0  0  0  0  0  0  0  0  0  0  0
    4.2192    3.5542   -3.5137 S   0  0  0  0  0  0  0  0  0  0  0  0
    4.5093    4.4524   -2.4023 O   0  0  0  0  0  0  0  0  0  0  0  0
    2.9358    2.5659   -3.1056 O   0  0  0  0  0  0  0  0  0  0  0  0
    3.8086    4.0566   -4.8196 O   0  0  0  0  0  0  0  0  0  0  0  0
    8.8274   -0.3557   -4.2089 C   0  0  0  0  0  0  0  0  0  0  0  0
    9.6699   -0.1163   -3.5541 H   0  0  0  0  0  0  0  0  0  0  0  0
    8.4982   -1.3719   -3.9579 H   0  0  0  0  0  0  0  0  0  0  0  0
    9.1905   -0.3773   -5.2402 H   0  0  0  0  0  0  0  0  0  0  0  0
  1  7  1  0  0  0  0
  1  2  2  0  0  0  0
  2  8  1  0  0  0  0
  3  2  1  0  0  0  0
  3 14  1  0  0  0  0
  4  3  2  0  0  0  0
  5  6  2  0  0  0  0
  5  4  1  0  0  0  0
  6  1  1  0  0  0  0
  9  4  1  0  0  0  0
 10  5  1  0  0  0  0
 11 13  2  0  0  0  0
 11  6  1  0  0  0  0
 12 11  2  0  0  0  0
 15 14  1  0  0  0  0
 16 22  1  0  0  0  0
 17 16  1  0  0  0  0
 17 23  1  0  0  0  0
 18 17  2  0  0  0  0
 19 20  2  0  0  0  0
 19 18  1  0  0  0  0
 20 21  1  0  0  0  0
 21 26  1  0  0  0  0
 21 16  2  0  0  0  0
 24 19  1  0  0  0  0
 25 20  1  0  0  0  0
 26 28  1  0  0  0  0
 26 27  2  0  0  0  0
 28 15  1  0  0  0  0
 29 26  2  0  0  0  0
 30 18  1  0  0  0  0
 30 32  1  0  0  0  0
 30 31  1  0  0  0  0
 33 30  1  0  0  0  0
M  RAD  2  14   2  15   2
M  END
