Coordinates from ORCA-job p-NO2-Ph-N2-OTs-B3LYPG-6-31G_dp-scan-d09-49-n400
 OpenBabel08281821283D

 33 33  0  0  0  0  0  0  0  0999 V2000
   -1.8017   -0.1083   -3.4051 C   0  0  0  0  0  0  0  0  0  0  0  0
   -0.5552   -0.7155   -3.4898 C   0  0  0  0  0  0  0  0  0  0  0  0
    0.5417   -0.0940   -2.8795 C   0  0  0  0  0  0  0  0  0  0  0  0
    0.4360    1.1124   -2.1697 C   0  0  0  0  0  0  0  0  0  0  0  0
   -0.8189    1.7059   -2.0830 C   0  0  0  0  0  0  0  0  0  0  0  0
   -1.9060    1.0895   -2.7002 C   0  0  0  0  0  0  0  0  0  0  0  0
   -2.6819   -0.5405   -3.8624 H   0  0  0  0  0  0  0  0  0  0  0  0
   -0.4199   -1.6513   -4.0192 H   0  0  0  0  0  0  0  0  0  0  0  0
    1.3167    1.5493   -1.7162 H   0  0  0  0  0  0  0  0  0  0  0  0
   -0.9612    2.6390   -1.5531 H   0  0  0  0  0  0  0  0  0  0  0  0
   -3.2374    1.7321   -2.5989 N   0  0  0  0  0  0  0  0  0  0  0  0
   -3.3107    2.7752   -1.9575 O   0  0  0  0  0  0  0  0  0  0  0  0
   -4.1740    1.1720   -3.1622 O   0  0  0  0  0  0  0  0  0  0  0  0
    1.7734   -0.7634   -2.9932 N   0  0  0  0  0  0  0  0  0  0  0  0
    2.9117   -0.7171   -2.8292 N   0  0  0  0  0  0  0  0  0  0  0  0
    6.4937    2.2601   -2.5247 C   0  0  0  0  0  0  0  0  0  0  0  0
    7.8404    2.0228   -2.7878 C   0  0  0  0  0  0  0  0  0  0  0  0
    8.2446    1.3305   -3.9395 C   0  0  0  0  0  0  0  0  0  0  0  0
    7.2583    0.8885   -4.8317 C   0  0  0  0  0  0  0  0  0  0  0  0
    5.9053    1.1153   -4.5815 C   0  0  0  0  0  0  0  0  0  0  0  0
    5.5308    1.7967   -3.4237 C   0  0  0  0  0  0  0  0  0  0  0  0
    6.1869    2.8126   -1.6431 H   0  0  0  0  0  0  0  0  0  0  0  0
    8.5923    2.3872   -2.0928 H   0  0  0  0  0  0  0  0  0  0  0  0
    7.5534    0.3672   -5.7389 H   0  0  0  0  0  0  0  0  0  0  0  0
    5.1428    0.7896   -5.2801 H   0  0  0  0  0  0  0  0  0  0  0  0
    3.7962    2.0798   -3.0778 S   0  0  0  0  0  0  0  0  0  0  0  0
    3.6769    3.4032   -2.4455 O   0  0  0  0  0  0  0  0  0  0  0  0
    3.4255    0.9922   -2.0048 O   0  0  0  0  0  0  0  0  0  0  0  0
    3.0400    1.8096   -4.3155 O   0  0  0  0  0  0  0  0  0  0  0  0
    9.7059    1.0532   -4.2007 C   0  0  0  0  0  0  0  0  0  0  0  0
   10.3452    1.8242   -3.7608 H   0  0  0  0  0  0  0  0  0  0  0  0
   10.0078    0.0930   -3.7637 H   0  0  0  0  0  0  0  0  0  0  0  0
    9.9197    1.0036   -5.2724 H   0  0  0  0  0  0  0  0  0  0  0  0
  1  6  1  0  0  0  0
  2  1  2  0  0  0  0
  2  3  1  0  0  0  0
  3  4  2  0  0  0  0
  4  5  1  0  0  0  0
  4  9  1  0  0  0  0
  5 10  1  0  0  0  0
  6 11  1  0  0  0  0
  6  5  2  0  0  0  0
  7  1  1  0  0  0  0
  8  2  1  0  0  0  0
 11 12  2  0  0  0  0
 13 11  2  0  0  0  0
 14  3  1  0  0  0  0
 14 15  2  0  0  0  0
 16 22  1  0  0  0  0
 17 16  1  0  0  0  0
 17 23  1  0  0  0  0
 18 17  2  0  0  0  0
 19 20  2  0  0  0  0
 19 18  1  0  0  0  0
 20 21  1  0  0  0  0
 21 26  1  0  0  0  0
 21 16  2  0  0  0  0
 24 19  1  0  0  0  0
 25 20  1  0  0  0  0
 26 27  2  0  0  0  0
 26 28  1  0  0  0  0
 29 26  2  0  0  0  0
 30 18  1  0  0  0  0
 30 32  1  0  0  0  0
 30 31  1  0  0  0  0
 33 30  1  0  0  0  0
M  RAD  2  15   2  28   2
M  END
