Coordinates from ORCA-job p-NO2-Ph-N2-OTs-B3LYPG-6-31G_dp-scan-d09-49-n400
 OpenBabel08281821283D

 33 34  0  0  0  0  0  0  0  0999 V2000
   -1.2233   -0.5738   -2.0019 C   0  0  0  0  0  0  0  0  0  0  0  0
    0.1629   -0.5891   -1.9246 C   0  0  0  0  0  0  0  0  0  0  0  0
    0.9009    0.4905   -2.4361 C   0  0  0  0  0  0  0  0  0  0  0  0
    0.2700    1.5978   -3.0330 C   0  0  0  0  0  0  0  0  0  0  0  0
   -1.1197    1.6054   -3.1085 C   0  0  0  0  0  0  0  0  0  0  0  0
   -1.8377    0.5274   -2.5952 C   0  0  0  0  0  0  0  0  0  0  0  0
   -1.8280   -1.3856   -1.6191 H   0  0  0  0  0  0  0  0  0  0  0  0
    0.6894   -1.4232   -1.4747 H   0  0  0  0  0  0  0  0  0  0  0  0
    0.8633    2.4147   -3.4182 H   0  0  0  0  0  0  0  0  0  0  0  0
   -1.6509    2.4348   -3.5583 H   0  0  0  0  0  0  0  0  0  0  0  0
   -3.3147    0.5495   -2.6839 N   0  0  0  0  0  0  0  0  0  0  0  0
   -3.8338    1.5298   -3.2097 O   0  0  0  0  0  0  0  0  0  0  0  0
   -3.9202   -0.4162   -2.2256 O   0  0  0  0  0  0  0  0  0  0  0  0
    2.2970    0.3555   -2.3012 N   0  0  0  0  0  0  0  0  0  0  0  0
    3.2904    0.9419   -2.5317 N   0  0  0  0  0  0  0  0  0  0  0  0
    6.4431    2.2826   -2.6466 C   0  0  0  0  0  0  0  0  0  0  0  0
    7.5679    1.4645   -2.7307 C   0  0  0  0  0  0  0  0  0  0  0  0
    7.8763    0.7741   -3.9119 C   0  0  0  0  0  0  0  0  0  0  0  0
    7.0311    0.9336   -5.0200 C   0  0  0  0  0  0  0  0  0  0  0  0
    5.9028    1.7479   -4.9546 C   0  0  0  0  0  0  0  0  0  0  0  0
    5.6146    2.4127   -3.7615 C   0  0  0  0  0  0  0  0  0  0  0  0
    6.2141    2.8306   -1.7392 H   0  0  0  0  0  0  0  0  0  0  0  0
    8.2213    1.3659   -1.8675 H   0  0  0  0  0  0  0  0  0  0  0  0
    7.2660    0.4214   -5.9491 H   0  0  0  0  0  0  0  0  0  0  0  0
    5.2624    1.8895   -5.8186 H   0  0  0  0  0  0  0  0  0  0  0  0
    4.1740    3.4671   -3.6753 S   0  0  0  0  0  0  0  0  0  0  0  0
    4.3682    4.4254   -2.5834 O   0  0  0  0  0  0  0  0  0  0  0  0
    2.9548    2.4569   -3.3174 O   0  0  0  0  0  0  0  0  0  0  0  0
    3.8748    3.9541   -5.0243 O   0  0  0  0  0  0  0  0  0  0  0  0
    9.0805   -0.1338   -3.9837 C   0  0  0  0  0  0  0  0  0  0  0  0
    9.8885    0.2206   -3.3372 H   0  0  0  0  0  0  0  0  0  0  0  0
    8.8251   -1.1500   -3.6577 H   0  0  0  0  0  0  0  0  0  0  0  0
    9.4669   -0.2076   -5.0043 H   0  0  0  0  0  0  0  0  0  0  0  0
  1  2  1  0  0  0  0
  1  7  1  0  0  0  0
  2  8  1  0  0  0  0
  3 14  1  0  0  0  0
  3  2  2  0  0  0  0
  4  3  1  0  0  0  0
  5  4  2  0  0  0  0
  5  6  1  0  0  0  0
  6  1  2  0  0  0  0
  9  4  1  0  0  0  0
 10  5  1  0  0  0  0
 11  6  1  0  0  0  0
 11 13  2  0  0  0  0
 12 11  2  0  0  0  0
 15 14  1  0  0  0  0
 16 22  1  0  0  0  0
 17 16  1  0  0  0  0
 17 23  1  0  0  0  0
 18 17  2  0  0  0  0
 19 20  2  0  0  0  0
 19 18  1  0  0  0  0
 20 21  1  0  0  0  0
 21 26  1  0  0  0  0
 21 16  2  0  0  0  0
 24 19  1  0  0  0  0
 25 20  1  0  0  0  0
 26 28  1  0  0  0  0
 26 27  2  0  0  0  0
 28 15  1  0  0  0  0
 29 26  2  0  0  0  0
 30 18  1  0  0  0  0
 30 32  1  0  0  0  0
 30 31  1  0  0  0  0
 33 30  1  0  0  0  0
M  RAD  2  14   2  15   2
M  END
