Coordinates from ORCA-job p-NO2-Ph-N2-OTs-B3LYPG-6-31G_dp-scan-d09-49-n400
 OpenBabel08281821283D

 33 33  0  0  0  0  0  0  0  0999 V2000
   -1.5546   -0.1391   -3.5740 C   0  0  0  0  0  0  0  0  0  0  0  0
   -0.3452   -0.7985   -3.4006 C   0  0  0  0  0  0  0  0  0  0  0  0
    0.6446   -0.1698   -2.6359 C   0  0  0  0  0  0  0  0  0  0  0  0
    0.4796    1.0793   -2.0190 C   0  0  0  0  0  0  0  0  0  0  0  0
   -0.7434    1.7180   -2.1890 C   0  0  0  0  0  0  0  0  0  0  0  0
   -1.7267    1.1021   -2.9614 C   0  0  0  0  0  0  0  0  0  0  0  0
   -2.3591   -0.5632   -4.1604 H   0  0  0  0  0  0  0  0  0  0  0  0
   -0.1612   -1.7684   -3.8474 H   0  0  0  0  0  0  0  0  0  0  0  0
    1.2956    1.5048   -1.4459 H   0  0  0  0  0  0  0  0  0  0  0  0
   -0.9356    2.6865   -1.7457 H   0  0  0  0  0  0  0  0  0  0  0  0
   -3.0257    1.7951   -3.1385 N   0  0  0  0  0  0  0  0  0  0  0  0
   -3.1676    2.8734   -2.5725 O   0  0  0  0  0  0  0  0  0  0  0  0
   -3.8669    1.2360   -3.8368 O   0  0  0  0  0  0  0  0  0  0  0  0
    1.8562   -0.8453   -2.4556 N   0  0  0  0  0  0  0  0  0  0  0  0
    2.9447   -0.9248   -2.1477 N   0  0  0  0  0  0  0  0  0  0  0  0
    6.5256    2.1330   -2.3769 C   0  0  0  0  0  0  0  0  0  0  0  0
    7.8221    1.8786   -2.8128 C   0  0  0  0  0  0  0  0  0  0  0  0
    8.0677    1.3242   -4.0797 C   0  0  0  0  0  0  0  0  0  0  0  0
    6.9723    1.0372   -4.9022 C   0  0  0  0  0  0  0  0  0  0  0  0
    5.6653    1.2844   -4.4770 C   0  0  0  0  0  0  0  0  0  0  0  0
    5.4476    1.8272   -3.2128 C   0  0  0  0  0  0  0  0  0  0  0  0
    6.3456    2.5761   -1.4032 H   0  0  0  0  0  0  0  0  0  0  0  0
    8.6606    2.1200   -2.1641 H   0  0  0  0  0  0  0  0  0  0  0  0
    7.1421    0.6206   -5.8918 H   0  0  0  0  0  0  0  0  0  0  0  0
    4.8155    1.0763   -5.1176 H   0  0  0  0  0  0  0  0  0  0  0  0
    3.7738    2.1498   -2.6486 S   0  0  0  0  0  0  0  0  0  0  0  0
    3.7579    3.5305   -2.1173 O   0  0  0  0  0  0  0  0  0  0  0  0
    3.5384    1.1164   -1.5199 O   0  0  0  0  0  0  0  0  0  0  0  0
    2.8664    1.8445   -3.7829 O   0  0  0  0  0  0  0  0  0  0  0  0
    9.4801    1.0366   -4.5311 C   0  0  0  0  0  0  0  0  0  0  0  0
   10.1530    1.8680   -4.2947 H   0  0  0  0  0  0  0  0  0  0  0  0
    9.8820    0.1464   -4.0318 H   0  0  0  0  0  0  0  0  0  0  0  0
    9.5276    0.8591   -5.6092 H   0  0  0  0  0  0  0  0  0  0  0  0
  1  2  2  0  0  0  0
  1  6  1  0  0  0  0
  2  3  1  0  0  0  0
  3 14  1  0  0  0  0
  3  4  2  0  0  0  0
  4  9  1  0  0  0  0
  5  4  1  0  0  0  0
  5 10  1  0  0  0  0
  6  5  2  0  0  0  0
  7  1  1  0  0  0  0
  8  2  1  0  0  0  0
 11  6  1  0  0  0  0
 11 12  2  0  0  0  0
 13 11  2  0  0  0  0
 14 15  2  0  0  0  0
 16 22  1  0  0  0  0
 17 16  1  0  0  0  0
 17 23  1  0  0  0  0
 18 17  2  0  0  0  0
 19 20  2  0  0  0  0
 19 18  1  0  0  0  0
 20 21  1  0  0  0  0
 21 26  1  0  0  0  0
 21 16  2  0  0  0  0
 24 19  1  0  0  0  0
 25 20  1  0  0  0  0
 26 27  2  0  0  0  0
 26 28  1  0  0  0  0
 29 26  2  0  0  0  0
 30 31  1  0  0  0  0
 30 18  1  0  0  0  0
 30 32  1  0  0  0  0
 33 30  1  0  0  0  0
M  RAD  2  15   2  28   2
M  END
