Coordinates from ORCA-job p-NO2-Ph-N2-OTs-B3LYPG-6-31G_dp-scan-d09-49-n400
 OpenBabel08281821283D

 33 34  0  0  0  0  0  0  0  0999 V2000
   -1.1660   -0.4787   -1.8716 C   0  0  0  0  0  0  0  0  0  0  0  0
    0.1783   -0.3233   -1.5612 C   0  0  0  0  0  0  0  0  0  0  0  0
    0.9233    0.7157   -2.1448 C   0  0  0  0  0  0  0  0  0  0  0  0
    0.3243    1.6194   -3.0439 C   0  0  0  0  0  0  0  0  0  0  0  0
   -1.0242    1.4624   -3.3495 C   0  0  0  0  0  0  0  0  0  0  0  0
   -1.7424    0.4217   -2.7647 C   0  0  0  0  0  0  0  0  0  0  0  0
   -1.7666   -1.2701   -1.4422 H   0  0  0  0  0  0  0  0  0  0  0  0
    0.6741   -0.9958   -0.8702 H   0  0  0  0  0  0  0  0  0  0  0  0
    0.9044    2.4166   -3.4835 H   0  0  0  0  0  0  0  0  0  0  0  0
   -1.5244    2.1345   -4.0356 H   0  0  0  0  0  0  0  0  0  0  0  0
   -3.1727    0.2646   -3.1051 N   0  0  0  0  0  0  0  0  0  0  0  0
   -3.6573    1.0700   -3.8953 O   0  0  0  0  0  0  0  0  0  0  0  0
   -3.7794   -0.6630   -2.5748 O   0  0  0  0  0  0  0  0  0  0  0  0
    2.2738    0.7363   -1.7293 N   0  0  0  0  0  0  0  0  0  0  0  0
    3.2493    1.3744   -1.9719 N   0  0  0  0  0  0  0  0  0  0  0  0
    6.4680    2.1860   -2.6087 C   0  0  0  0  0  0  0  0  0  0  0  0
    7.5487    1.3267   -2.7944 C   0  0  0  0  0  0  0  0  0  0  0  0
    7.7823    0.7109   -4.0326 C   0  0  0  0  0  0  0  0  0  0  0  0
    6.9068    0.9867   -5.0936 C   0  0  0  0  0  0  0  0  0  0  0  0
    5.8203    1.8423   -4.9277 C   0  0  0  0  0  0  0  0  0  0  0  0
    5.6077    2.4311   -3.6799 C   0  0  0  0  0  0  0  0  0  0  0  0
    6.2972    2.6742   -1.6558 H   0  0  0  0  0  0  0  0  0  0  0  0
    8.2262    1.1366   -1.9661 H   0  0  0  0  0  0  0  0  0  0  0  0
    7.0840    0.5326   -6.0646 H   0  0  0  0  0  0  0  0  0  0  0  0
    5.1549    2.0712   -5.7529 H   0  0  0  0  0  0  0  0  0  0  0  0
    4.2220    3.5356   -3.4658 S   0  0  0  0  0  0  0  0  0  0  0  0
    4.4979    4.4245   -2.3380 O   0  0  0  0  0  0  0  0  0  0  0  0
    2.9692    2.5284   -3.1183 O   0  0  0  0  0  0  0  0  0  0  0  0
    3.8436    4.0829   -4.7678 O   0  0  0  0  0  0  0  0  0  0  0  0
    8.9388   -0.2419   -4.2147 C   0  0  0  0  0  0  0  0  0  0  0  0
    9.7855    0.0283   -3.5772 H   0  0  0  0  0  0  0  0  0  0  0  0
    8.6464   -1.2660   -3.9503 H   0  0  0  0  0  0  0  0  0  0  0  0
    9.2842   -0.2600   -5.2522 H   0  0  0  0  0  0  0  0  0  0  0  0
  1  2  1  0  0  0  0
  1  7  1  0  0  0  0
  2  8  1  0  0  0  0
  3 14  1  0  0  0  0
  3  2  2  0  0  0  0
  4  3  1  0  0  0  0
  5  4  2  0  0  0  0
  5  6  1  0  0  0  0
  6  1  2  0  0  0  0
  9  4  1  0  0  0  0
 10  5  1  0  0  0  0
 11  6  1  0  0  0  0
 11 13  2  0  0  0  0
 12 11  2  0  0  0  0
 15 14  1  0  0  0  0
 16 22  1  0  0  0  0
 17 16  1  0  0  0  0
 17 23  1  0  0  0  0
 18 17  2  0  0  0  0
 19 20  2  0  0  0  0
 19 18  1  0  0  0  0
 20 21  1  0  0  0  0
 21 26  1  0  0  0  0
 21 16  2  0  0  0  0
 24 19  1  0  0  0  0
 25 20  1  0  0  0  0
 26 28  1  0  0  0  0
 26 27  2  0  0  0  0
 28 15  1  0  0  0  0
 29 26  2  0  0  0  0
 30 18  1  0  0  0  0
 30 32  1  0  0  0  0
 30 31  1  0  0  0  0
 33 30  1  0  0  0  0
M  RAD  2  14   2  15   2
M  END
