Coordinates from ORCA-job p-NO2-Ph-N2-OTs-B3LYPG-6-31G_dp-scan-d09-49-n400
 OpenBabel08281821283D

 33 33  0  0  0  0  0  0  0  0999 V2000
   -1.3814   -0.1346   -3.2420 C   0  0  0  0  0  0  0  0  0  0  0  0
   -0.1850   -0.6968   -2.8165 C   0  0  0  0  0  0  0  0  0  0  0  0
    0.7168    0.1344   -2.1434 C   0  0  0  0  0  0  0  0  0  0  0  0
    0.4992    1.4902   -1.8861 C   0  0  0  0  0  0  0  0  0  0  0  0
   -0.7090    2.0303   -2.3130 C   0  0  0  0  0  0  0  0  0  0  0  0
   -1.6218    1.2132   -2.9762 C   0  0  0  0  0  0  0  0  0  0  0  0
   -2.1245   -0.7181   -3.7703 H   0  0  0  0  0  0  0  0  0  0  0  0
    0.0508   -1.7368   -3.0063 H   0  0  0  0  0  0  0  0  0  0  0  0
    1.2792    2.0778   -1.4136 H   0  0  0  0  0  0  0  0  0  0  0  0
   -0.9425    3.0743   -2.1500 H   0  0  0  0  0  0  0  0  0  0  0  0
   -2.9048    1.7987   -3.4236 N   0  0  0  0  0  0  0  0  0  0  0  0
   -3.1057    2.9797   -3.1584 O   0  0  0  0  0  0  0  0  0  0  0  0
   -3.6802    1.0587   -4.0234 O   0  0  0  0  0  0  0  0  0  0  0  0
    1.8922   -0.4752   -1.6469 N   0  0  0  0  0  0  0  0  0  0  0  0
    2.5220   -1.1152   -0.9811 N   0  0  0  0  0  0  0  0  0  0  0  0
    6.2781    1.1057   -2.5142 C   0  0  0  0  0  0  0  0  0  0  0  0
    7.6302    1.0627   -2.8478 C   0  0  0  0  0  0  0  0  0  0  0  0
    8.0733    1.4268   -4.1281 C   0  0  0  0  0  0  0  0  0  0  0  0
    7.1218    1.8506   -5.0664 C   0  0  0  0  0  0  0  0  0  0  0  0
    5.7659    1.9006   -4.7467 C   0  0  0  0  0  0  0  0  0  0  0  0
    5.3500    1.5237   -3.4690 C   0  0  0  0  0  0  0  0  0  0  0  0
    5.9393    0.8436   -1.5180 H   0  0  0  0  0  0  0  0  0  0  0  0
    8.3553    0.7491   -2.1007 H   0  0  0  0  0  0  0  0  0  0  0  0
    7.4480    2.1531   -6.0583 H   0  0  0  0  0  0  0  0  0  0  0  0
    5.0329    2.2478   -5.4666 H   0  0  0  0  0  0  0  0  0  0  0  0
    3.6028    1.5553   -3.0703 S   0  0  0  0  0  0  0  0  0  0  0  0
    2.9793    2.6109   -3.8907 O   0  0  0  0  0  0  0  0  0  0  0  0
    3.5006    1.7431   -1.5901 O   0  0  0  0  0  0  0  0  0  0  0  0
    3.0895    0.1589   -3.4300 O   0  0  0  0  0  0  0  0  0  0  0  0
    9.5371    1.3466   -4.4912 C   0  0  0  0  0  0  0  0  0  0  0  0
   10.1768    1.5504   -3.6271 H   0  0  0  0  0  0  0  0  0  0  0  0
    9.7981    0.3457   -4.8580 H   0  0  0  0  0  0  0  0  0  0  0  0
    9.7938    2.0594   -5.2804 H   0  0  0  0  0  0  0  0  0  0  0  0
  1  6  2  0  0  0  0
  1  2  1  0  0  0  0
  2  3  2  0  0  0  0
  3  4  1  0  0  0  0
  3 14  1  0  0  0  0
  4  9  1  0  0  0  0
  5 10  1  0  0  0  0
  5  4  2  0  0  0  0
  6  5  1  0  0  0  0
  7  1  1  0  0  0  0
  8  2  1  0  0  0  0
 11 12  2  0  0  0  0
 11  6  1  0  0  0  0
 13 11  2  0  0  0  0
 14 15  1  0  0  0  0
 16 22  1  0  0  0  0
 17 16  1  0  0  0  0
 17 23  1  0  0  0  0
 18 17  2  0  0  0  0
 19 20  2  0  0  0  0
 19 18  1  0  0  0  0
 20 21  1  0  0  0  0
 21 26  1  0  0  0  0
 21 16  2  0  0  0  0
 24 19  1  0  0  0  0
 25 20  1  0  0  0  0
 26 28  1  0  0  0  0
 27 26  2  0  0  0  0
 29 26  2  0  0  0  0
 30 18  1  0  0  0  0
 30 31  1  0  0  0  0
 32 30  1  0  0  0  0
 33 30  1  0  0  0  0
M  RAD  3  14   2  15   3  28   2
M  END
