Coordinates from ORCA-job p-NO2-Ph-N2-OTs-B3LYPG-6-31G_dp-scan-d09-49-n400
 OpenBabel08281821283D

 33 34  0  0  0  0  0  0  0  0999 V2000
   -1.1911   -0.6326   -2.5924 C   0  0  0  0  0  0  0  0  0  0  0  0
   -0.0940   -0.6444   -3.4438 C   0  0  0  0  0  0  0  0  0  0  0  0
    0.6477    0.5294   -3.6549 C   0  0  0  0  0  0  0  0  0  0  0  0
    0.2739    1.7403   -3.0434 C   0  0  0  0  0  0  0  0  0  0  0  0
   -0.8400    1.7551   -2.2102 C   0  0  0  0  0  0  0  0  0  0  0  0
   -1.5451    0.5732   -1.9912 C   0  0  0  0  0  0  0  0  0  0  0  0
   -1.7756   -1.5224   -2.3971 H   0  0  0  0  0  0  0  0  0  0  0  0
    0.2092   -1.5525   -3.9520 H   0  0  0  0  0  0  0  0  0  0  0  0
    0.8435    2.6405   -3.2201 H   0  0  0  0  0  0  0  0  0  0  0  0
   -1.1633    2.6659   -1.7229 H   0  0  0  0  0  0  0  0  0  0  0  0
   -2.7165    0.5998   -1.0911 N   0  0  0  0  0  0  0  0  0  0  0  0
   -3.0128    1.6768   -0.5802 O   0  0  0  0  0  0  0  0  0  0  0  0
   -3.3159   -0.4582   -0.9134 O   0  0  0  0  0  0  0  0  0  0  0  0
    1.7223    0.3641   -4.5624 N   0  0  0  0  0  0  0  0  0  0  0  0
    2.7035    0.9918   -4.8308 N   0  0  0  0  0  0  0  0  0  0  0  0
    6.1098    2.4098   -2.7510 C   0  0  0  0  0  0  0  0  0  0  0  0
    7.2437    1.6606   -2.4471 C   0  0  0  0  0  0  0  0  0  0  0  0
    7.8317    0.8144   -3.3991 C   0  0  0  0  0  0  0  0  0  0  0  0
    7.2575    0.7431   -4.6768 C   0  0  0  0  0  0  0  0  0  0  0  0
    6.1235    1.4846   -5.0010 C   0  0  0  0  0  0  0  0  0  0  0  0
    5.5563    2.3100   -4.0288 C   0  0  0  0  0  0  0  0  0  0  0  0
    5.6675    3.0782   -2.0203 H   0  0  0  0  0  0  0  0  0  0  0  0
    7.6854    1.7408   -1.4576 H   0  0  0  0  0  0  0  0  0  0  0  0
    7.7098    0.1059   -5.4320 H   0  0  0  0  0  0  0  0  0  0  0  0
    5.6891    1.4420   -5.9933 H   0  0  0  0  0  0  0  0  0  0  0  0
    4.1062    3.2693   -4.4297 S   0  0  0  0  0  0  0  0  0  0  0  0
    4.0421    4.4298   -3.5437 O   0  0  0  0  0  0  0  0  0  0  0  0
    2.8660    2.3169   -3.9089 O   0  0  0  0  0  0  0  0  0  0  0  0
    4.0170    3.4058   -5.8796 O   0  0  0  0  0  0  0  0  0  0  0  0
    9.0456   -0.0131   -3.0521 C   0  0  0  0  0  0  0  0  0  0  0  0
    9.6492    0.4672   -2.2766 H   0  0  0  0  0  0  0  0  0  0  0  0
    8.7514   -0.9995   -2.6731 H   0  0  0  0  0  0  0  0  0  0  0  0
    9.6806   -0.1781   -3.9274 H   0  0  0  0  0  0  0  0  0  0  0  0
  1  7  1  0  0  0  0
  1  6  2  0  0  0  0
  2  1  1  0  0  0  0
  3  2  2  0  0  0  0
  3  4  1  0  0  0  0
  4  5  2  0  0  0  0
  5  6  1  0  0  0  0
  5 10  1  0  0  0  0
  6 11  1  0  0  0  0
  8  2  1  0  0  0  0
  9  4  1  0  0  0  0
 11 13  2  0  0  0  0
 11 12  2  0  0  0  0
 14  3  1  0  0  0  0
 15 14  1  0  0  0  0
 15 28  1  0  0  0  0
 16 17  1  0  0  0  0
 16 22  1  0  0  0  0
 17 23  1  0  0  0  0
 18 30  1  0  0  0  0
 18 17  2  0  0  0  0
 19 18  1  0  0  0  0
 20 19  2  0  0  0  0
 20 21  1  0  0  0  0
 21 16  2  0  0  0  0
 24 19  1  0  0  0  0
 25 20  1  0  0  0  0
 26 21  1  0  0  0  0
 26 28  1  0  0  0  0
 26 27  2  0  0  0  0
 29 26  2  0  0  0  0
 30 32  1  0  0  0  0
 30 31  1  0  0  0  0
 33 30  1  0  0  0  0
M  RAD  2  14   2  15   2
M  END
