Coordinates from ORCA-job p-NO2-Ph-N2-OTs-B3LYPG-6-31G_dp-scan-d09-49-n400
 OpenBabel08281821283D

 33 34  0  0  0  0  0  0  0  0999 V2000
   -1.1966   -0.4884   -1.8804 C   0  0  0  0  0  0  0  0  0  0  0  0
    0.1618   -0.3821   -1.6133 C   0  0  0  0  0  0  0  0  0  0  0  0
    0.9150    0.6495   -2.1982 C   0  0  0  0  0  0  0  0  0  0  0  0
    0.3173    1.5915   -3.0572 C   0  0  0  0  0  0  0  0  0  0  0  0
   -1.0446    1.4806   -3.3215 C   0  0  0  0  0  0  0  0  0  0  0  0
   -1.7740    0.4491   -2.7341 C   0  0  0  0  0  0  0  0  0  0  0  0
   -1.8069   -1.2709   -1.4485 H   0  0  0  0  0  0  0  0  0  0  0  0
    0.6597   -1.0866   -0.9566 H   0  0  0  0  0  0  0  0  0  0  0  0
    0.9103    2.3799   -3.4966 H   0  0  0  0  0  0  0  0  0  0  0  0
   -1.5465    2.1820   -3.9763 H   0  0  0  0  0  0  0  0  0  0  0  0
   -3.2194    0.3421   -3.0290 N   0  0  0  0  0  0  0  0  0  0  0  0
   -3.7049    1.1782   -3.7858 O   0  0  0  0  0  0  0  0  0  0  0  0
   -3.8358   -0.5782   -2.4972 O   0  0  0  0  0  0  0  0  0  0  0  0
    2.2802    0.6274   -1.8392 N   0  0  0  0  0  0  0  0  0  0  0  0
    3.2640    1.2474   -2.0667 N   0  0  0  0  0  0  0  0  0  0  0  0
    6.4747    2.2107   -2.6149 C   0  0  0  0  0  0  0  0  0  0  0  0
    7.5675    1.3635   -2.7857 C   0  0  0  0  0  0  0  0  0  0  0  0
    7.8111    0.7317   -4.0138 C   0  0  0  0  0  0  0  0  0  0  0  0
    6.9332    0.9793   -5.0797 C   0  0  0  0  0  0  0  0  0  0  0  0
    5.8352    1.8227   -4.9283 C   0  0  0  0  0  0  0  0  0  0  0  0
    5.6123    2.4279   -3.6901 C   0  0  0  0  0  0  0  0  0  0  0  0
    6.2962    2.7123   -1.6703 H   0  0  0  0  0  0  0  0  0  0  0  0
    8.2467    1.1959   -1.9538 H   0  0  0  0  0  0  0  0  0  0  0  0
    7.1180    0.5128   -6.0435 H   0  0  0  0  0  0  0  0  0  0  0  0
    5.1686    2.0307   -5.7581 H   0  0  0  0  0  0  0  0  0  0  0  0
    4.2103    3.5170   -3.4942 S   0  0  0  0  0  0  0  0  0  0  0  0
    4.4715    4.4179   -2.3709 O   0  0  0  0  0  0  0  0  0  0  0  0
    2.9718    2.5047   -3.1521 O   0  0  0  0  0  0  0  0  0  0  0  0
    3.8472    4.0595   -4.8038 O   0  0  0  0  0  0  0  0  0  0  0  0
    8.9808   -0.2079   -4.1802 C   0  0  0  0  0  0  0  0  0  0  0  0
    9.8211    0.0808   -3.5423 H   0  0  0  0  0  0  0  0  0  0  0  0
    8.7011   -1.2330   -3.9057 H   0  0  0  0  0  0  0  0  0  0  0  0
    9.3310   -0.2331   -5.2160 H   0  0  0  0  0  0  0  0  0  0  0  0
  1  2  1  0  0  0  0
  1  7  1  0  0  0  0
  2  8  1  0  0  0  0
  3 14  1  0  0  0  0
  3  2  2  0  0  0  0
  4  3  1  0  0  0  0
  5  4  2  0  0  0  0
  5  6  1  0  0  0  0
  6  1  2  0  0  0  0
  9  4  1  0  0  0  0
 10  5  1  0  0  0  0
 11  6  1  0  0  0  0
 11 13  2  0  0  0  0
 12 11  2  0  0  0  0
 15 14  1  0  0  0  0
 16 22  1  0  0  0  0
 17 16  1  0  0  0  0
 17 23  1  0  0  0  0
 18 17  2  0  0  0  0
 19 20  2  0  0  0  0
 19 18  1  0  0  0  0
 20 21  1  0  0  0  0
 21 26  1  0  0  0  0
 21 16  2  0  0  0  0
 24 19  1  0  0  0  0
 25 20  1  0  0  0  0
 26 28  1  0  0  0  0
 26 27  2  0  0  0  0
 28 15  1  0  0  0  0
 29 26  2  0  0  0  0
 30 18  1  0  0  0  0
 30 32  1  0  0  0  0
 30 31  1  0  0  0  0
 33 30  1  0  0  0  0
M  RAD  2  14   2  15   2
M  END
