Coordinates from ORCA-job p-NO2-Ph-N2-OTs-B3LYPG-6-31G_dp-scan-d09-49-n400
 OpenBabel08281821283D

 33 34  0  0  0  0  0  0  0  0999 V2000
   -0.5337    0.0438   -1.8252 C   0  0  0  0  0  0  0  0  0  0  0  0
    0.1143    1.0196   -1.0775 C   0  0  0  0  0  0  0  0  0  0  0  0
    0.8447    2.0336   -1.7161 C   0  0  0  0  0  0  0  0  0  0  0  0
    0.8812    2.0984   -3.1211 C   0  0  0  0  0  0  0  0  0  0  0  0
    0.2234    1.1326   -3.8708 C   0  0  0  0  0  0  0  0  0  0  0  0
   -0.4669    0.1123   -3.2154 C   0  0  0  0  0  0  0  0  0  0  0  0
   -1.0893   -0.7579   -1.3555 H   0  0  0  0  0  0  0  0  0  0  0  0
    0.0693    1.0094    0.0062 H   0  0  0  0  0  0  0  0  0  0  0  0
    1.4197    2.8973   -3.6166 H   0  0  0  0  0  0  0  0  0  0  0  0
    0.2345    1.1554   -4.9535 H   0  0  0  0  0  0  0  0  0  0  0  0
   -1.1489   -0.9140   -4.0141 N   0  0  0  0  0  0  0  0  0  0  0  0
   -1.0694   -0.8304   -5.2399 O   0  0  0  0  0  0  0  0  0  0  0  0
   -1.7564   -1.7980   -3.4098 O   0  0  0  0  0  0  0  0  0  0  0  0
    1.3785    3.0299   -0.8697 N   0  0  0  0  0  0  0  0  0  0  0  0
    2.5422    3.4786   -1.0391 N   0  0  0  0  0  0  0  0  0  0  0  0
    6.3152    1.7250   -2.5441 C   0  0  0  0  0  0  0  0  0  0  0  0
    7.0633    0.6498   -3.0165 C   0  0  0  0  0  0  0  0  0  0  0  0
    6.9425    0.2107   -4.3443 C   0  0  0  0  0  0  0  0  0  0  0  0
    6.0554    0.8855   -5.1968 C   0  0  0  0  0  0  0  0  0  0  0  0
    5.2987    1.9631   -4.7422 C   0  0  0  0  0  0  0  0  0  0  0  0
    5.4299    2.3647   -3.4142 C   0  0  0  0  0  0  0  0  0  0  0  0
    6.4161    2.0544   -1.5138 H   0  0  0  0  0  0  0  0  0  0  0  0
    7.7539    0.1441   -2.3471 H   0  0  0  0  0  0  0  0  0  0  0  0
    5.9593    0.5638   -6.2303 H   0  0  0  0  0  0  0  0  0  0  0  0
    4.6186    2.4991   -5.3968 H   0  0  0  0  0  0  0  0  0  0  0  0
    4.5099    3.8062   -2.8388 S   0  0  2  0  0  0  0  0  0  0  0  0
    3.0567    4.4057   -0.4755 O   0  0  0  0  0  0  0  0  0  0  0  0
    3.4004    2.7264   -1.9745 O   0  0  0  0  0  0  0  0  0  0  0  0
    3.7697    4.3530   -4.0073 O   0  0  0  0  0  0  0  0  0  0  0  0
    7.7353   -0.9742   -4.8393 C   0  0  0  0  0  0  0  0  0  0  0  0
    8.6700   -1.0920   -4.2851 H   0  0  0  0  0  0  0  0  0  0  0  0
    7.1627   -1.9023   -4.7178 H   0  0  0  0  0  0  0  0  0  0  0  0
    7.9773   -0.8787   -5.9015 H   0  0  0  0  0  0  0  0  0  0  0  0
  1  7  1  0  0  0  0
  1  2  2  0  0  0  0
  2  8  1  0  0  0  0
  3  2  1  0  0  0  0
  3 14  1  0  0  0  0
  4  3  2  0  0  0  0
  5  6  2  0  0  0  0
  5  4  1  0  0  0  0
  6  1  1  0  0  0  0
  9  4  1  0  0  0  0
 10  5  1  0  0  0  0
 11 13  2  0  0  0  0
 11  6  1  0  0  0  0
 12 11  2  0  0  0  0
 15 14  1  0  0  0  0
 15 27  1  0  0  0  0
 16 22  1  0  0  0  0
 17 16  1  0  0  0  0
 17 23  1  0  0  0  0
 18 17  2  0  0  0  0
 19 20  2  0  0  0  0
 19 18  1  0  0  0  0
 20 21  1  0  0  0  0
 21 26  1  0  0  0  0
 21 16  2  0  0  0  0
 24 19  1  0  0  0  0
 25 20  1  0  0  0  0
 26 29  1  6  0  0  0
 26 28  1  0  0  0  0
 28 15  1  0  0  0  0
 30 32  1  0  0  0  0
 30 18  1  0  0  0  0
 30 31  1  0  0  0  0
 33 30  1  0  0  0  0
M  RAD  3  14   2  27   2  29   2
M  END
