Coordinates from ORCA-job p-NO2-Ph-N2-OTs-B3LYPG-6-31G_dp-scan-d09-49-n400
 OpenBabel08281821283D

 33 34  0  0  0  0  0  0  0  0999 V2000
   -1.4843    0.2635   -1.4877 C   0  0  0  0  0  0  0  0  0  0  0  0
   -0.1838    0.4338   -1.0304 C   0  0  0  0  0  0  0  0  0  0  0  0
    0.8442    0.7668   -1.9275 C   0  0  0  0  0  0  0  0  0  0  0  0
    0.5829    0.8844   -3.3046 C   0  0  0  0  0  0  0  0  0  0  0  0
   -0.7145    0.6862   -3.7664 C   0  0  0  0  0  0  0  0  0  0  0  0
   -1.7254    0.3907   -2.8541 C   0  0  0  0  0  0  0  0  0  0  0  0
   -2.3003    0.0229   -0.8185 H   0  0  0  0  0  0  0  0  0  0  0  0
    0.0585    0.3202    0.0202 H   0  0  0  0  0  0  0  0  0  0  0  0
    1.3776    1.1233   -3.9952 H   0  0  0  0  0  0  0  0  0  0  0  0
   -0.9551    0.7670   -4.8190 H   0  0  0  0  0  0  0  0  0  0  0  0
   -3.1002    0.1949   -3.3541 N   0  0  0  0  0  0  0  0  0  0  0  0
   -3.2830    0.3018   -4.5647 O   0  0  0  0  0  0  0  0  0  0  0  0
   -3.9714   -0.0635   -2.5264 O   0  0  0  0  0  0  0  0  0  0  0  0
    2.1168    0.8821   -1.3120 N   0  0  0  0  0  0  0  0  0  0  0  0
    3.1151    1.4817   -1.6292 N   0  0  0  0  0  0  0  0  0  0  0  0
    6.4243    1.8050   -2.5299 C   0  0  0  0  0  0  0  0  0  0  0  0
    7.5175    1.0294   -2.9088 C   0  0  0  0  0  0  0  0  0  0  0  0
    7.8155    0.8039   -4.2612 C   0  0  0  0  0  0  0  0  0  0  0  0
    6.9905    1.3860   -5.2349 C   0  0  0  0  0  0  0  0  0  0  0  0
    5.8913    2.1636   -4.8779 C   0  0  0  0  0  0  0  0  0  0  0  0
    5.6165    2.3618   -3.5236 C   0  0  0  0  0  0  0  0  0  0  0  0
    6.2033    1.9920   -1.4852 H   0  0  0  0  0  0  0  0  0  0  0  0
    8.1552    0.5991   -2.1416 H   0  0  0  0  0  0  0  0  0  0  0  0
    7.2166    1.2349   -6.2870 H   0  0  0  0  0  0  0  0  0  0  0  0
    5.2650    2.6290   -5.6309 H   0  0  0  0  0  0  0  0  0  0  0  0
    4.2152    3.3581   -3.0550 S   0  0  0  0  0  0  0  0  0  0  0  0
    4.4216    3.8712   -1.7084 O   0  0  0  0  0  0  0  0  0  0  0  0
    2.9729    2.2553   -2.9672 O   0  0  0  0  0  0  0  0  0  0  0  0
    3.8303    4.2053   -4.1764 O   0  0  0  0  0  0  0  0  0  0  0  0
    8.9882   -0.0588   -4.6586 C   0  0  0  0  0  0  0  0  0  0  0  0
    9.8080    0.0222   -3.9385 H   0  0  0  0  0  0  0  0  0  0  0  0
    8.6977   -1.1159   -4.7042 H   0  0  0  0  0  0  0  0  0  0  0  0
    9.3713    0.2169   -5.6450 H   0  0  0  0  0  0  0  0  0  0  0  0
  1  2  1  0  0  0  0
  1  7  1  0  0  0  0
  2  8  1  0  0  0  0
  3 14  1  0  0  0  0
  3  2  2  0  0  0  0
  4  3  1  0  0  0  0
  5  4  2  0  0  0  0
  5  6  1  0  0  0  0
  6  1  2  0  0  0  0
  9  4  1  0  0  0  0
 10  5  1  0  0  0  0
 11  6  1  0  0  0  0
 11 13  2  0  0  0  0
 12 11  2  0  0  0  0
 15 14  1  0  0  0  0
 16 22  1  0  0  0  0
 17 16  1  0  0  0  0
 17 23  1  0  0  0  0
 18 17  2  0  0  0  0
 19 20  2  0  0  0  0
 19 18  1  0  0  0  0
 20 21  1  0  0  0  0
 21 26  1  0  0  0  0
 21 16  2  0  0  0  0
 24 19  1  0  0  0  0
 25 20  1  0  0  0  0
 26 28  1  0  0  0  0
 26 27  2  0  0  0  0
 28 15  1  0  0  0  0
 29 26  2  0  0  0  0
 30 18  1  0  0  0  0
 30 31  1  0  0  0  0
 32 30  1  0  0  0  0
 33 30  1  0  0  0  0
M  RAD  2  14   2  15   2
M  END
