Coordinates from ORCA-job p-NO2-Ph-N2-OTs-B3LYPG-6-31G_dp-scan-d09-49-n400
 OpenBabel08281821283D

 33 34  0  0  0  0  0  0  0  0999 V2000
   -1.2750    0.5008   -1.7738 C   0  0  0  0  0  0  0  0  0  0  0  0
   -0.5322    1.5798   -1.3182 C   0  0  0  0  0  0  0  0  0  0  0  0
    0.7139    1.8925   -1.8964 C   0  0  0  0  0  0  0  0  0  0  0  0
    1.2064    1.1134   -2.9634 C   0  0  0  0  0  0  0  0  0  0  0  0
    0.4571    0.0378   -3.4276 C   0  0  0  0  0  0  0  0  0  0  0  0
   -0.7648   -0.2572   -2.8267 C   0  0  0  0  0  0  0  0  0  0  0  0
   -2.2310    0.2396   -1.3397 H   0  0  0  0  0  0  0  0  0  0  0  0
   -0.8911    2.2036   -0.5072 H   0  0  0  0  0  0  0  0  0  0  0  0
    2.1537    1.3465   -3.4249 H   0  0  0  0  0  0  0  0  0  0  0  0
    0.8064   -0.5767   -4.2480 H   0  0  0  0  0  0  0  0  0  0  0  0
   -1.5427   -1.4053   -3.3215 N   0  0  0  0  0  0  0  0  0  0  0  0
   -1.0663   -2.0586   -4.2484 O   0  0  0  0  0  0  0  0  0  0  0  0
   -2.6196   -1.6388   -2.7750 O   0  0  0  0  0  0  0  0  0  0  0  0
    1.3111    3.0265   -1.3057 N   0  0  0  0  0  0  0  0  0  0  0  0
    2.4535    3.4195   -1.5434 N   0  0  0  0  0  0  0  0  0  0  0  0
    6.0564    1.3100   -2.5844 C   0  0  0  0  0  0  0  0  0  0  0  0
    6.7098    0.2982   -3.2822 C   0  0  0  0  0  0  0  0  0  0  0  0
    7.0433    0.4543   -4.6375 C   0  0  0  0  0  0  0  0  0  0  0  0
    6.7080    1.6573   -5.2771 C   0  0  0  0  0  0  0  0  0  0  0  0
    6.0518    2.6787   -4.5934 C   0  0  0  0  0  0  0  0  0  0  0  0
    5.7243    2.4943   -3.2501 C   0  0  0  0  0  0  0  0  0  0  0  0
    5.8060    1.1772   -1.5348 H   0  0  0  0  0  0  0  0  0  0  0  0
    6.9707   -0.6241   -2.7700 H   0  0  0  0  0  0  0  0  0  0  0  0
    6.9708    1.7963   -6.3223 H   0  0  0  0  0  0  0  0  0  0  0  0
    5.7997    3.6166   -5.0783 H   0  0  0  0  0  0  0  0  0  0  0  0
    4.9737    3.8371   -2.2972 S   0  0  2  0  0  0  0  0  0  0  0  0
    3.1009    4.7927   -0.7965 O   0  0  0  0  0  0  0  0  0  0  0  0
    3.3227    2.8478   -2.3763 O   0  0  0  0  0  0  0  0  0  0  0  0
    4.9014    4.9741   -3.2362 O   0  0  0  0  0  0  0  0  0  0  0  0
    7.7339   -0.6571   -5.3893 C   0  0  0  0  0  0  0  0  0  0  0  0
    8.4853   -1.1536   -4.7677 H   0  0  0  0  0  0  0  0  0  0  0  0
    7.0131   -1.4232   -5.7002 H   0  0  0  0  0  0  0  0  0  0  0  0
    8.2272   -0.2853   -6.2909 H   0  0  0  0  0  0  0  0  0  0  0  0
  1  7  1  0  0  0  0
  1  2  1  0  0  0  0
  2  8  1  0  0  0  0
  3  2  2  0  0  0  0
  3 14  1  0  0  0  0
  4  3  1  0  0  0  0
  5  4  2  0  0  0  0
  5  6  1  0  0  0  0
  6  1  2  0  0  0  0
  9  4  1  0  0  0  0
 10  5  1  0  0  0  0
 11  6  1  0  0  0  0
 11 13  2  0  0  0  0
 12 11  2  0  0  0  0
 15 14  1  0  0  0  0
 15 27  1  0  0  0  0
 16 22  1  0  0  0  0
 17 23  1  0  0  0  0
 17 16  2  0  0  0  0
 18 17  1  0  0  0  0
 19 18  2  0  0  0  0
 19 20  1  0  0  0  0
 20 21  2  0  0  0  0
 21 16  1  0  0  0  0
 24 19  1  0  0  0  0
 25 20  1  0  0  0  0
 26 21  1  6  0  0  0
 28 26  1  0  0  0  0
 28 15  1  0  0  0  0
 29 26  1  0  0  0  0
 30 31  1  0  0  0  0
 30 18  1  0  0  0  0
 32 30  1  0  0  0  0
 33 30  1  0  0  0  0
M  RAD  3  14   2  27   2  29   2
M  END
