Coordinates from ORCA-job p-NO2-Ph-N2-OTs-B3LYPG-6-31G_dp-scan-d09-49-n400
 OpenBabel08281821283D

 33 34  0  0  0  0  0  0  0  0999 V2000
   -1.4958    0.2876   -1.4865 C   0  0  0  0  0  0  0  0  0  0  0  0
   -0.1984    0.4611   -1.0215 C   0  0  0  0  0  0  0  0  0  0  0  0
    0.8383    0.7723   -1.9162 C   0  0  0  0  0  0  0  0  0  0  0  0
    0.5893    0.8640   -3.2975 C   0  0  0  0  0  0  0  0  0  0  0  0
   -0.7049    0.6622   -3.7664 C   0  0  0  0  0  0  0  0  0  0  0  0
   -1.7247    0.3891   -2.8572 C   0  0  0  0  0  0  0  0  0  0  0  0
   -2.3185    0.0635   -0.8199 H   0  0  0  0  0  0  0  0  0  0  0  0
    0.0345    0.3669    0.0332 H   0  0  0  0  0  0  0  0  0  0  0  0
    1.3912    1.0858   -3.9856 H   0  0  0  0  0  0  0  0  0  0  0  0
   -0.9362    0.7232   -4.8224 H   0  0  0  0  0  0  0  0  0  0  0  0
   -3.0961    0.1892   -3.3650 N   0  0  0  0  0  0  0  0  0  0  0  0
   -3.2682    0.2729   -4.5790 O   0  0  0  0  0  0  0  0  0  0  0  0
   -3.9754   -0.0489   -2.5398 O   0  0  0  0  0  0  0  0  0  0  0  0
    2.1069    0.8937   -1.2937 N   0  0  0  0  0  0  0  0  0  0  0  0
    3.1081    1.4874   -1.6121 N   0  0  0  0  0  0  0  0  0  0  0  0
    6.4245    1.7929   -2.5310 C   0  0  0  0  0  0  0  0  0  0  0  0
    7.5182    1.0208   -2.9154 C   0  0  0  0  0  0  0  0  0  0  0  0
    7.8175    0.8069   -4.2695 C   0  0  0  0  0  0  0  0  0  0  0  0
    6.9934    1.3972   -5.2389 C   0  0  0  0  0  0  0  0  0  0  0  0
    5.8936    2.1715   -4.8764 C   0  0  0  0  0  0  0  0  0  0  0  0
    5.6176    2.3581   -3.5207 C   0  0  0  0  0  0  0  0  0  0  0  0
    6.2026    1.9711   -1.4849 H   0  0  0  0  0  0  0  0  0  0  0  0
    8.1554    0.5841   -2.1514 H   0  0  0  0  0  0  0  0  0  0  0  0
    7.2205    1.2552   -6.2920 H   0  0  0  0  0  0  0  0  0  0  0  0
    5.2679    2.6431   -5.6259 H   0  0  0  0  0  0  0  0  0  0  0  0
    4.2153    3.3494   -3.0445 S   0  0  0  0  0  0  0  0  0  0  0  0
    4.4201    3.8509   -1.6933 O   0  0  0  0  0  0  0  0  0  0  0  0
    2.9752    2.2448   -2.9620 O   0  0  0  0  0  0  0  0  0  0  0  0
    3.8301    4.2049   -4.1593 O   0  0  0  0  0  0  0  0  0  0  0  0
    8.9908   -0.0522   -4.6731 C   0  0  0  0  0  0  0  0  0  0  0  0
    9.8097    0.0223   -3.9512 H   0  0  0  0  0  0  0  0  0  0  0  0
    8.7004   -1.1088   -4.7286 H   0  0  0  0  0  0  0  0  0  0  0  0
    9.3752    0.2325   -5.6564 H   0  0  0  0  0  0  0  0  0  0  0  0
  1  2  1  0  0  0  0
  1  7  1  0  0  0  0
  2  8  1  0  0  0  0
  3 14  1  0  0  0  0
  3  2  2  0  0  0  0
  4  3  1  0  0  0  0
  5  4  2  0  0  0  0
  5  6  1  0  0  0  0
  6  1  2  0  0  0  0
  9  4  1  0  0  0  0
 10  5  1  0  0  0  0
 11  6  1  0  0  0  0
 11 13  2  0  0  0  0
 12 11  2  0  0  0  0
 15 14  1  0  0  0  0
 16 22  1  0  0  0  0
 17 16  1  0  0  0  0
 17 23  1  0  0  0  0
 18 17  2  0  0  0  0
 19 20  2  0  0  0  0
 19 18  1  0  0  0  0
 20 21  1  0  0  0  0
 21 26  1  0  0  0  0
 21 16  2  0  0  0  0
 24 19  1  0  0  0  0
 25 20  1  0  0  0  0
 26 28  1  0  0  0  0
 26 27  2  0  0  0  0
 28 15  1  0  0  0  0
 29 26  2  0  0  0  0
 30 18  1  0  0  0  0
 30 31  1  0  0  0  0
 32 30  1  0  0  0  0
 33 30  1  0  0  0  0
M  RAD  2  14   2  15   2
M  END
