Coordinates from ORCA-job p-NO2-Ph-N2-OTs-B3LYPG-6-31G_dp-scan-d09-49-n400
 OpenBabel08281821283D

 33 34  0  0  0  0  0  0  0  0999 V2000
   -1.2346    0.4798   -1.7617 C   0  0  0  0  0  0  0  0  0  0  0  0
   -0.5040    1.5651   -1.3025 C   0  0  0  0  0  0  0  0  0  0  0  0
    0.7274    1.9106   -1.8954 C   0  0  0  0  0  0  0  0  0  0  0  0
    1.2133    1.1566   -2.9841 C   0  0  0  0  0  0  0  0  0  0  0  0
    0.4753    0.0753   -3.4524 C   0  0  0  0  0  0  0  0  0  0  0  0
   -0.7300   -0.2529   -2.8352 C   0  0  0  0  0  0  0  0  0  0  0  0
   -2.1781    0.1948   -1.3151 H   0  0  0  0  0  0  0  0  0  0  0  0
   -0.8608    2.1696   -0.4762 H   0  0  0  0  0  0  0  0  0  0  0  0
    2.1468    1.4140   -3.4601 H   0  0  0  0  0  0  0  0  0  0  0  0
    0.8211   -0.5189   -4.2892 H   0  0  0  0  0  0  0  0  0  0  0  0
   -1.4949   -1.4068   -3.3341 N   0  0  0  0  0  0  0  0  0  0  0  0
   -1.0235   -2.0370   -4.2797 O   0  0  0  0  0  0  0  0  0  0  0  0
   -2.5574   -1.6694   -2.7723 O   0  0  0  0  0  0  0  0  0  0  0  0
    1.3079    3.0464   -1.2981 N   0  0  0  0  0  0  0  0  0  0  0  0
    2.4506    3.4550   -1.5322 N   0  0  0  0  0  0  0  0  0  0  0  0
    6.0343    1.3068   -2.5789 C   0  0  0  0  0  0  0  0  0  0  0  0
    6.6825    0.2897   -3.2739 C   0  0  0  0  0  0  0  0  0  0  0  0
    7.0193    0.4410   -4.6290 C   0  0  0  0  0  0  0  0  0  0  0  0
    6.6927    1.6446   -5.2715 C   0  0  0  0  0  0  0  0  0  0  0  0
    6.0419    2.6718   -4.5909 C   0  0  0  0  0  0  0  0  0  0  0  0
    5.7109    2.4914   -3.2482 C   0  0  0  0  0  0  0  0  0  0  0  0
    5.7811    1.1775   -1.5297 H   0  0  0  0  0  0  0  0  0  0  0  0
    6.9365   -0.6332   -2.7593 H   0  0  0  0  0  0  0  0  0  0  0  0
    6.9580    1.7800   -6.3165 H   0  0  0  0  0  0  0  0  0  0  0  0
    5.7965    3.6104   -5.0779 H   0  0  0  0  0  0  0  0  0  0  0  0
    4.9665    3.8431   -2.3045 S   0  0  2  0  0  0  0  0  0  0  0  0
    3.0391    4.7510   -0.8198 O   0  0  0  0  0  0  0  0  0  0  0  0
    3.3233    2.8792   -2.3741 O   0  0  0  0  0  0  0  0  0  0  0  0
    4.8986    4.9793   -3.2453 O   0  0  0  0  0  0  0  0  0  0  0  0
    7.7045   -0.6762   -5.3771 C   0  0  0  0  0  0  0  0  0  0  0  0
    8.4564   -1.1715   -4.7551 H   0  0  0  0  0  0  0  0  0  0  0  0
    6.9807   -1.4420   -5.6817 H   0  0  0  0  0  0  0  0  0  0  0  0
    8.1962   -0.3105   -6.2820 H   0  0  0  0  0  0  0  0  0  0  0  0
  1  7  1  0  0  0  0
  1  2  1  0  0  0  0
  2  8  1  0  0  0  0
  3  2  2  0  0  0  0
  3 14  1  0  0  0  0
  4  3  1  0  0  0  0
  5  4  2  0  0  0  0
  5  6  1  0  0  0  0
  6  1  2  0  0  0  0
  9  4  1  0  0  0  0
 10  5  1  0  0  0  0
 11  6  1  0  0  0  0
 11 13  2  0  0  0  0
 12 11  2  0  0  0  0
 15 14  1  0  0  0  0
 15 27  1  0  0  0  0
 16 22  1  0  0  0  0
 17 23  1  0  0  0  0
 17 16  2  0  0  0  0
 18 17  1  0  0  0  0
 19 18  2  0  0  0  0
 19 20  1  0  0  0  0
 20 21  2  0  0  0  0
 21 16  1  0  0  0  0
 24 19  1  0  0  0  0
 25 20  1  0  0  0  0
 26 21  1  6  0  0  0
 28 26  1  0  0  0  0
 28 15  1  0  0  0  0
 29 26  1  0  0  0  0
 30 31  1  0  0  0  0
 30 18  1  0  0  0  0
 32 30  1  0  0  0  0
 33 30  1  0  0  0  0
M  RAD  3  14   2  27   2  29   2
M  END
