Coordinates from ORCA-job p-NO2-Ph-N2-OTs-B3LYPG-6-31G_dp-scan-d09-49-n400
 OpenBabel08281821283D

 33 34  0  0  0  0  0  0  0  0999 V2000
   -0.8869   -0.6302   -2.3923 C   0  0  0  0  0  0  0  0  0  0  0  0
    0.1785   -0.6140   -3.2834 C   0  0  0  0  0  0  0  0  0  0  0  0
    0.7095    0.6061   -3.7299 C   0  0  0  0  0  0  0  0  0  0  0  0
    0.1334    1.8240   -3.3285 C   0  0  0  0  0  0  0  0  0  0  0  0
   -0.9549    1.8088   -2.4630 C   0  0  0  0  0  0  0  0  0  0  0  0
   -1.4383    0.5870   -1.9982 C   0  0  0  0  0  0  0  0  0  0  0  0
   -1.3049   -1.5547   -2.0160 H   0  0  0  0  0  0  0  0  0  0  0  0
    0.6186   -1.5371   -3.6432 H   0  0  0  0  0  0  0  0  0  0  0  0
    0.5275    2.7632   -3.6887 H   0  0  0  0  0  0  0  0  0  0  0  0
   -1.4255    2.7267   -2.1348 H   0  0  0  0  0  0  0  0  0  0  0  0
   -2.5795    0.5811   -1.0650 N   0  0  0  0  0  0  0  0  0  0  0  0
   -3.0518    1.6680   -0.7382 O   0  0  0  0  0  0  0  0  0  0  0  0
   -2.9855   -0.5115   -0.6729 O   0  0  0  0  0  0  0  0  0  0  0  0
    1.7617    0.4663   -4.6777 N   0  0  0  0  0  0  0  0  0  0  0  0
    2.7205    1.1935   -4.8659 N   0  0  0  0  0  0  0  0  0  0  0  0
    6.0239    2.3058   -2.6790 C   0  0  0  0  0  0  0  0  0  0  0  0
    7.1395    1.5201   -2.4028 C   0  0  0  0  0  0  0  0  0  0  0  0
    7.7444    0.7409   -3.4009 C   0  0  0  0  0  0  0  0  0  0  0  0
    7.2061    0.7733   -4.6960 C   0  0  0  0  0  0  0  0  0  0  0  0
    6.0912    1.5526   -4.9954 C   0  0  0  0  0  0  0  0  0  0  0  0
    5.5090    2.3102   -3.9775 C   0  0  0  0  0  0  0  0  0  0  0  0
    5.5671    2.9208   -1.9116 H   0  0  0  0  0  0  0  0  0  0  0  0
    7.5534    1.5188   -1.3982 H   0  0  0  0  0  0  0  0  0  0  0  0
    7.6710    0.1870   -5.4835 H   0  0  0  0  0  0  0  0  0  0  0  0
    5.6827    1.5877   -5.9987 H   0  0  0  0  0  0  0  0  0  0  0  0
    4.0944    3.3255   -4.3417 S   0  0  0  0  0  0  0  0  0  0  0  0
    3.9621    4.3725   -3.3433 O   0  0  0  0  0  0  0  0  0  0  0  0
    2.7933    2.3408   -3.9303 O   0  0  0  0  0  0  0  0  0  0  0  0
    4.0394    3.5880   -5.7722 O   0  0  0  0  0  0  0  0  0  0  0  0
    8.9381   -0.1261   -3.0833 C   0  0  0  0  0  0  0  0  0  0  0  0
    9.5527    0.3136   -2.2924 H   0  0  0  0  0  0  0  0  0  0  0  0
    8.6189   -1.1163   -2.7358 H   0  0  0  0  0  0  0  0  0  0  0  0
    9.5685   -0.2775   -3.9640 H   0  0  0  0  0  0  0  0  0  0  0  0
  1  7  1  0  0  0  0
  1  6  1  0  0  0  0
  2  1  2  0  0  0  0
  3  4  2  0  0  0  0
  3  2  1  0  0  0  0
  4  5  1  0  0  0  0
  5 10  1  0  0  0  0
  5  6  2  0  0  0  0
  6 11  1  0  0  0  0
  8  2  1  0  0  0  0
  9  4  1  0  0  0  0
 11 12  2  0  0  0  0
 11 13  2  0  0  0  0
 14  3  1  0  0  0  0
 15 14  1  0  0  0  0
 15 28  1  0  0  0  0
 16 17  1  0  0  0  0
 16 22  1  0  0  0  0
 17 23  1  0  0  0  0
 18 30  1  0  0  0  0
 18 17  2  0  0  0  0
 19 18  1  0  0  0  0
 20 19  2  0  0  0  0
 20 21  1  0  0  0  0
 21 16  2  0  0  0  0
 24 19  1  0  0  0  0
 25 20  1  0  0  0  0
 26 21  1  0  0  0  0
 26 28  1  0  0  0  0
 26 27  2  0  0  0  0
 29 26  2  0  0  0  0
 30 32  1  0  0  0  0
 30 31  1  0  0  0  0
 33 30  1  0  0  0  0
M  RAD  2  14   2  15   2
M  END
