Coordinates from ORCA-job p-NO2-Ph-N2-OTs-B3LYPG-6-31G_dp-scan-d09-49-n400
 OpenBabel08281821283D

 33 33  0  0  0  0  0  0  0  0999 V2000
   -1.2394    0.4399   -1.7635 C   0  0  0  0  0  0  0  0  0  0  0  0
   -0.4935    1.5040   -1.2760 C   0  0  0  0  0  0  0  0  0  0  0  0
    0.7294    1.8562   -1.8750 C   0  0  0  0  0  0  0  0  0  0  0  0
    1.2005    1.1400   -2.9926 C   0  0  0  0  0  0  0  0  0  0  0  0
    0.4476    0.0808   -3.4900 C   0  0  0  0  0  0  0  0  0  0  0  0
   -0.7525   -0.2563   -2.8681 C   0  0  0  0  0  0  0  0  0  0  0  0
   -2.1798    0.1459   -1.3164 H   0  0  0  0  0  0  0  0  0  0  0  0
   -0.8341    2.0837   -0.4254 H   0  0  0  0  0  0  0  0  0  0  0  0
    2.1326    1.4075   -3.4660 H   0  0  0  0  0  0  0  0  0  0  0  0
    0.7779   -0.4880   -4.3501 H   0  0  0  0  0  0  0  0  0  0  0  0
   -1.5353   -1.3879   -3.3985 N   0  0  0  0  0  0  0  0  0  0  0  0
   -1.0803   -1.9874   -4.3707 O   0  0  0  0  0  0  0  0  0  0  0  0
   -2.5924   -1.6597   -2.8326 O   0  0  0  0  0  0  0  0  0  0  0  0
    1.3391    2.9758   -1.2481 N   0  0  0  0  0  0  0  0  0  0  0  0
    2.4602    3.4087   -1.4734 N   0  0  0  0  0  0  0  0  0  0  0  0
    6.0440    1.3387   -2.5814 C   0  0  0  0  0  0  0  0  0  0  0  0
    6.7063    0.3159   -3.2544 C   0  0  0  0  0  0  0  0  0  0  0  0
    7.0253    0.4348   -4.6170 C   0  0  0  0  0  0  0  0  0  0  0  0
    6.6658    1.6121   -5.2900 C   0  0  0  0  0  0  0  0  0  0  0  0
    6.0004    2.6443   -4.6316 C   0  0  0  0  0  0  0  0  0  0  0  0
    5.6868    2.4959   -3.2808 C   0  0  0  0  0  0  0  0  0  0  0  0
    5.8054    1.2347   -1.5260 H   0  0  0  0  0  0  0  0  0  0  0  0
    6.9860   -0.5861   -2.7164 H   0  0  0  0  0  0  0  0  0  0  0  0
    6.9174    1.7233   -6.3413 H   0  0  0  0  0  0  0  0  0  0  0  0
    5.7301    3.5633   -5.1423 H   0  0  0  0  0  0  0  0  0  0  0  0
    4.9262    3.8613   -2.3711 S   0  0  2  0  0  0  0  0  0  0  0  0
    3.3605    5.1515   -0.5616 O   0  0  0  0  0  0  0  0  0  0  0  0
    3.3085    2.8589   -2.3571 O   0  0  0  0  0  0  0  0  0  0  0  0
    4.7950    4.9556   -3.3536 O   0  0  0  0  0  0  0  0  0  0  0  0
    7.7268   -0.6882   -5.3410 C   0  0  0  0  0  0  0  0  0  0  0  0
    8.4813   -1.1634   -4.7067 H   0  0  0  0  0  0  0  0  0  0  0  0
    7.0132   -1.4676   -5.6354 H   0  0  0  0  0  0  0  0  0  0  0  0
    8.2187   -0.3335   -6.2503 H   0  0  0  0  0  0  0  0  0  0  0  0
  1  7  1  0  0  0  0
  1  2  1  0  0  0  0
  2  8  1  0  0  0  0
  3  2  2  0  0  0  0
  3 14  1  0  0  0  0
  4  3  1  0  0  0  0
  5  4  2  0  0  0  0
  5  6  1  0  0  0  0
  6  1  2  0  0  0  0
  9  4  1  0  0  0  0
 10  5  1  0  0  0  0
 11  6  1  0  0  0  0
 11 13  2  0  0  0  0
 12 11  2  0  0  0  0
 15 14  2  0  0  0  0
 16 22  1  0  0  0  0
 17 23  1  0  0  0  0
 17 16  1  0  0  0  0
 18 17  2  0  0  0  0
 19 20  2  0  0  0  0
 19 18  1  0  0  0  0
 20 21  1  0  0  0  0
 21 16  2  0  0  0  0
 21 26  1  0  0  0  0
 24 19  1  0  0  0  0
 25 20  1  0  0  0  0
 26 29  1  6  0  0  0
 26 28  1  0  0  0  0
 28 15  1  0  0  0  0
 30 31  1  0  0  0  0
 30 18  1  0  0  0  0
 32 30  1  0  0  0  0
 33 30  1  0  0  0  0
M  RAD  2  27   3  29   2
M  END
