Coordinates from ORCA-job p-NO2-Ph-N2-OTs-B3LYPG-6-31G_dp-scan-d09-49-n400
 OpenBabel08281821283D

 33 34  0  0  0  0  0  0  0  0999 V2000
   -0.8160    0.2176   -1.6525 C   0  0  0  0  0  0  0  0  0  0  0  0
   -0.1912    1.3509   -1.1535 C   0  0  0  0  0  0  0  0  0  0  0  0
    0.7941    2.0236   -1.9038 C   0  0  0  0  0  0  0  0  0  0  0  0
    1.1139    1.5623   -3.1971 C   0  0  0  0  0  0  0  0  0  0  0  0
    0.4756    0.4377   -3.7063 C   0  0  0  0  0  0  0  0  0  0  0  0
   -0.4708   -0.2273   -2.9281 C   0  0  0  0  0  0  0  0  0  0  0  0
   -1.5646   -0.3182   -1.0828 H   0  0  0  0  0  0  0  0  0  0  0  0
   -0.4455    1.7397   -0.1743 H   0  0  0  0  0  0  0  0  0  0  0  0
    1.8453    2.0807   -3.7997 H   0  0  0  0  0  0  0  0  0  0  0  0
    0.7008    0.0670   -4.6982 H   0  0  0  0  0  0  0  0  0  0  0  0
   -1.1281   -1.4235   -3.4705 N   0  0  0  0  0  0  0  0  0  0  0  0
   -0.7981   -1.7959   -4.5966 O   0  0  0  0  0  0  0  0  0  0  0  0
   -1.9678   -1.9816   -2.7643 O   0  0  0  0  0  0  0  0  0  0  0  0
    1.2758    3.1803   -1.2653 N   0  0  0  0  0  0  0  0  0  0  0  0
    2.4049    3.6800   -1.4904 N   0  0  0  0  0  0  0  0  0  0  0  0
    5.8641    1.3128   -2.5239 C   0  0  0  0  0  0  0  0  0  0  0  0
    6.4717    0.2420   -3.1730 C   0  0  0  0  0  0  0  0  0  0  0  0
    6.8363    0.3280   -4.5267 C   0  0  0  0  0  0  0  0  0  0  0  0
    6.5799    1.5223   -5.2158 C   0  0  0  0  0  0  0  0  0  0  0  0
    5.9706    2.6041   -4.5824 C   0  0  0  0  0  0  0  0  0  0  0  0
    5.6100    2.4853   -3.2413 C   0  0  0  0  0  0  0  0  0  0  0  0
    5.5857    1.2322   -1.4766 H   0  0  0  0  0  0  0  0  0  0  0  0
    6.6703   -0.6738   -2.6225 H   0  0  0  0  0  0  0  0  0  0  0  0
    6.8672    1.6080   -6.2601 H   0  0  0  0  0  0  0  0  0  0  0  0
    5.7794    3.5362   -5.1053 H   0  0  0  0  0  0  0  0  0  0  0  0
    4.9168    3.9148   -2.3822 S   0  0  2  0  0  0  0  0  0  0  0  0
    2.8466    4.7737   -0.9181 O   0  0  0  0  0  0  0  0  0  0  0  0
    3.2917    3.0532   -2.3725 O   0  0  0  0  0  0  0  0  0  0  0  0
    4.8733    5.0114   -3.3741 O   0  0  0  0  0  0  0  0  0  0  0  0
    7.4759   -0.8474   -5.2244 C   0  0  0  0  0  0  0  0  0  0  0  0
    8.1777   -1.3692   -4.5667 H   0  0  0  0  0  0  0  0  0  0  0  0
    6.7168   -1.5767   -5.5328 H   0  0  0  0  0  0  0  0  0  0  0  0
    8.0156   -0.5355   -6.1222 H   0  0  0  0  0  0  0  0  0  0  0  0
  1  2  1  0  0  0  0
  1  7  1  0  0  0  0
  2  8  1  0  0  0  0
  3 14  1  0  0  0  0
  3  2  2  0  0  0  0
  4  3  1  0  0  0  0
  5  4  2  0  0  0  0
  5  6  1  0  0  0  0
  6  1  2  0  0  0  0
  9  4  1  0  0  0  0
 10  5  1  0  0  0  0
 11  6  1  0  0  0  0
 11 13  2  0  0  0  0
 12 11  2  0  0  0  0
 15 14  1  0  0  0  0
 15 27  1  0  0  0  0
 16 22  1  0  0  0  0
 17 23  1  0  0  0  0
 17 16  1  0  0  0  0
 18 17  2  0  0  0  0
 19 20  2  0  0  0  0
 19 18  1  0  0  0  0
 20 21  1  0  0  0  0
 21 16  2  0  0  0  0
 21 26  1  0  0  0  0
 24 19  1  0  0  0  0
 25 20  1  0  0  0  0
 26 29  1  6  0  0  0
 26 28  1  0  0  0  0
 28 15  1  0  0  0  0
 30 31  1  0  0  0  0
 30 18  1  0  0  0  0
 32 30  1  0  0  0  0
 33 30  1  0  0  0  0
M  RAD  3  14   2  27   2  29   2
M  END
