Coordinates from ORCA-job p-NO2-Ph-N2-OTs-B3LYPG-6-31G_dp-scan-d09-49-n400
 OpenBabel08281821283D

 33 33  0  0  0  0  0  0  0  0999 V2000
   -1.2438    0.4455   -1.7671 C   0  0  0  0  0  0  0  0  0  0  0  0
   -0.4982    1.5107   -1.2817 C   0  0  0  0  0  0  0  0  0  0  0  0
    0.7282    1.8575   -1.8768 C   0  0  0  0  0  0  0  0  0  0  0  0
    1.2032    1.1343   -2.9882 C   0  0  0  0  0  0  0  0  0  0  0  0
    0.4508    0.0738   -3.4834 C   0  0  0  0  0  0  0  0  0  0  0  0
   -0.7529   -0.2576   -2.8655 C   0  0  0  0  0  0  0  0  0  0  0  0
   -2.1869    0.1557   -1.3229 H   0  0  0  0  0  0  0  0  0  0  0  0
   -0.8417    2.0955   -0.4357 H   0  0  0  0  0  0  0  0  0  0  0  0
    2.1381    1.3975   -3.4585 H   0  0  0  0  0  0  0  0  0  0  0  0
    0.7842   -0.5003   -4.3388 H   0  0  0  0  0  0  0  0  0  0  0  0
   -1.5353   -1.3906   -3.3936 N   0  0  0  0  0  0  0  0  0  0  0  0
   -1.0766   -1.9964   -4.3601 O   0  0  0  0  0  0  0  0  0  0  0  0
   -2.5958   -1.6572   -2.8315 O   0  0  0  0  0  0  0  0  0  0  0  0
    1.3372    2.9788   -1.2526 N   0  0  0  0  0  0  0  0  0  0  0  0
    2.4596    3.4086   -1.4781 N   0  0  0  0  0  0  0  0  0  0  0  0
    6.0460    1.3376   -2.5813 C   0  0  0  0  0  0  0  0  0  0  0  0
    6.7064    0.3152   -3.2567 C   0  0  0  0  0  0  0  0  0  0  0  0
    7.0252    0.4366   -4.6191 C   0  0  0  0  0  0  0  0  0  0  0  0
    6.6673    1.6159   -5.2894 C   0  0  0  0  0  0  0  0  0  0  0  0
    6.0037    2.6477   -4.6286 C   0  0  0  0  0  0  0  0  0  0  0  0
    5.6903    2.4970   -3.2780 C   0  0  0  0  0  0  0  0  0  0  0  0
    5.8075    1.2317   -1.5260 H   0  0  0  0  0  0  0  0  0  0  0  0
    6.9849   -0.5884   -2.7207 H   0  0  0  0  0  0  0  0  0  0  0  0
    6.9188    1.7289   -6.3406 H   0  0  0  0  0  0  0  0  0  0  0  0
    5.7346    3.5681   -5.1374 H   0  0  0  0  0  0  0  0  0  0  0  0
    4.9316    3.8608   -2.3642 S   0  0  2  0  0  0  0  0  0  0  0  0
    3.3487    5.1355   -0.5724 O   0  0  0  0  0  0  0  0  0  0  0  0
    3.3100    2.8579   -2.3566 O   0  0  0  0  0  0  0  0  0  0  0  0
    4.8041    4.9581   -3.3438 O   0  0  0  0  0  0  0  0  0  0  0  0
    7.7245   -0.6861   -5.3458 C   0  0  0  0  0  0  0  0  0  0  0  0
    8.4783   -1.1640   -4.7127 H   0  0  0  0  0  0  0  0  0  0  0  0
    7.0094   -1.4635   -5.6418 H   0  0  0  0  0  0  0  0  0  0  0  0
    8.2167   -0.3302   -6.2544 H   0  0  0  0  0  0  0  0  0  0  0  0
  1  7  1  0  0  0  0
  1  2  1  0  0  0  0
  2  8  1  0  0  0  0
  3  2  2  0  0  0  0
  3 14  1  0  0  0  0
  4  3  1  0  0  0  0
  5  4  2  0  0  0  0
  5  6  1  0  0  0  0
  6  1  2  0  0  0  0
  9  4  1  0  0  0  0
 10  5  1  0  0  0  0
 11  6  1  0  0  0  0
 11 13  2  0  0  0  0
 12 11  2  0  0  0  0
 15 14  2  0  0  0  0
 16 22  1  0  0  0  0
 17 23  1  0  0  0  0
 17 16  1  0  0  0  0
 18 17  2  0  0  0  0
 19 20  2  0  0  0  0
 19 18  1  0  0  0  0
 20 21  1  0  0  0  0
 21 16  2  0  0  0  0
 21 26  1  0  0  0  0
 24 19  1  0  0  0  0
 25 20  1  0  0  0  0
 26 29  1  6  0  0  0
 26 28  1  0  0  0  0
 28 15  1  0  0  0  0
 30 31  1  0  0  0  0
 30 18  1  0  0  0  0
 32 30  1  0  0  0  0
 33 30  1  0  0  0  0
M  RAD  2  27   3  29   2
M  END
