Coordinates from ORCA-job p-NO2-Ph-N2-OTs-B3LYPG-6-31G_dp-scan-d09-49-n400
 OpenBabel08281821283D

 33 34  0  0  0  0  0  0  0  0999 V2000
   -1.3786    0.0223   -1.5296 C   0  0  0  0  0  0  0  0  0  0  0  0
   -0.0590    0.1965   -1.1335 C   0  0  0  0  0  0  0  0  0  0  0  0
    0.8811    0.7593   -2.0142 C   0  0  0  0  0  0  0  0  0  0  0  0
    0.5060    1.1195   -3.3229 C   0  0  0  0  0  0  0  0  0  0  0  0
   -0.8112    0.9239   -3.7270 C   0  0  0  0  0  0  0  0  0  0  0  0
   -1.7305    0.3890   -2.8269 C   0  0  0  0  0  0  0  0  0  0  0  0
   -2.1258   -0.3957   -0.8676 H   0  0  0  0  0  0  0  0  0  0  0  0
    0.2685   -0.0914   -0.1414 H   0  0  0  0  0  0  0  0  0  0  0  0
    1.2277    1.5406   -4.0056 H   0  0  0  0  0  0  0  0  0  0  0  0
   -1.1363    1.1875   -4.7253 H   0  0  0  0  0  0  0  0  0  0  0  0
   -3.1268    0.1954   -3.2662 N   0  0  0  0  0  0  0  0  0  0  0  0
   -3.4088    0.5226   -4.4166 O   0  0  0  0  0  0  0  0  0  0  0  0
   -3.9167   -0.2721   -2.4489 O   0  0  0  0  0  0  0  0  0  0  0  0
    2.1791    0.8494   -1.4512 N   0  0  0  0  0  0  0  0  0  0  0  0
    3.1596    1.4863   -1.7529 N   0  0  0  0  0  0  0  0  0  0  0  0
    6.4279    1.9081   -2.5311 C   0  0  0  0  0  0  0  0  0  0  0  0
    7.5120    1.0968   -2.8577 C   0  0  0  0  0  0  0  0  0  0  0  0
    7.7978    0.7669   -4.1910 C   0  0  0  0  0  0  0  0  0  0  0  0
    6.9705    1.2810   -5.2005 C   0  0  0  0  0  0  0  0  0  0  0  0
    5.8805    2.0931   -4.8959 C   0  0  0  0  0  0  0  0  0  0  0  0
    5.6174    2.3951   -3.5585 C   0  0  0  0  0  0  0  0  0  0  0  0
    6.2157    2.1743   -1.5021 H   0  0  0  0  0  0  0  0  0  0  0  0
    8.1515    0.7194   -2.0645 H   0  0  0  0  0  0  0  0  0  0  0  0
    7.1873    1.0486   -6.2395 H   0  0  0  0  0  0  0  0  0  0  0  0
    5.2526    2.5055   -5.6778 H   0  0  0  0  0  0  0  0  0  0  0  0
    4.2289    3.4386   -3.1603 S   0  0  0  0  0  0  0  0  0  0  0  0
    4.4498    4.0533   -1.8583 O   0  0  0  0  0  0  0  0  0  0  0  0
    2.9661    2.3601   -3.0163 O   0  0  0  0  0  0  0  0  0  0  0  0
    3.8509    4.2113   -4.3372 O   0  0  0  0  0  0  0  0  0  0  0  0
    8.9595   -0.1348   -4.5299 C   0  0  0  0  0  0  0  0  0  0  0  0
    9.7862   -0.0062   -3.8248 H   0  0  0  0  0  0  0  0  0  0  0  0
    8.6592   -1.1896   -4.4911 H   0  0  0  0  0  0  0  0  0  0  0  0
    9.3365    0.0597   -5.5378 H   0  0  0  0  0  0  0  0  0  0  0  0
  1  2  1  0  0  0  0
  1  7  1  0  0  0  0
  2  8  1  0  0  0  0
  3 14  1  0  0  0  0
  3  2  2  0  0  0  0
  4  3  1  0  0  0  0
  5  4  2  0  0  0  0
  5  6  1  0  0  0  0
  6  1  2  0  0  0  0
  9  4  1  0  0  0  0
 10  5  1  0  0  0  0
 11  6  1  0  0  0  0
 11 13  2  0  0  0  0
 12 11  2  0  0  0  0
 15 14  1  0  0  0  0
 16 22  1  0  0  0  0
 17 16  1  0  0  0  0
 17 23  1  0  0  0  0
 18 17  2  0  0  0  0
 19 20  2  0  0  0  0
 19 18  1  0  0  0  0
 20 21  1  0  0  0  0
 21 26  1  0  0  0  0
 21 16  2  0  0  0  0
 24 19  1  0  0  0  0
 25 20  1  0  0  0  0
 26 28  1  0  0  0  0
 26 27  2  0  0  0  0
 28 15  1  0  0  0  0
 29 26  2  0  0  0  0
 30 32  1  0  0  0  0
 30 18  1  0  0  0  0
 30 31  1  0  0  0  0
 33 30  1  0  0  0  0
M  RAD  2  14   2  15   2
M  END
