Coordinates from ORCA-job p-NO2-Ph-N2-OTs-B3LYPG-6-31G_dp-scan-d09-49-n400
 OpenBabel08281821283D

 33 34  0  0  0  0  0  0  0  0999 V2000
   -1.5023    0.3009   -1.4843 C   0  0  0  0  0  0  0  0  0  0  0  0
   -0.2053    0.4735   -1.0178 C   0  0  0  0  0  0  0  0  0  0  0  0
    0.8346    0.7725   -1.9129 C   0  0  0  0  0  0  0  0  0  0  0  0
    0.5893    0.8523   -3.2954 C   0  0  0  0  0  0  0  0  0  0  0  0
   -0.7046    0.6513   -3.7657 C   0  0  0  0  0  0  0  0  0  0  0  0
   -1.7276    0.3906   -2.8563 C   0  0  0  0  0  0  0  0  0  0  0  0
   -2.3274    0.0862   -0.8175 H   0  0  0  0  0  0  0  0  0  0  0  0
    0.0248    0.3880    0.0383 H   0  0  0  0  0  0  0  0  0  0  0  0
    1.3936    1.0646   -3.9836 H   0  0  0  0  0  0  0  0  0  0  0  0
   -0.9331    0.7032   -4.8228 H   0  0  0  0  0  0  0  0  0  0  0  0
   -3.0986    0.1915   -3.3655 N   0  0  0  0  0  0  0  0  0  0  0  0
   -3.2674    0.2634   -4.5807 O   0  0  0  0  0  0  0  0  0  0  0  0
   -3.9808   -0.0353   -2.5402 O   0  0  0  0  0  0  0  0  0  0  0  0
    2.1026    0.8941   -1.2892 N   0  0  0  0  0  0  0  0  0  0  0  0
    3.1059    1.4831   -1.6095 N   0  0  0  0  0  0  0  0  0  0  0  0
    6.4238    1.7856   -2.5323 C   0  0  0  0  0  0  0  0  0  0  0  0
    7.5194    1.0169   -2.9181 C   0  0  0  0  0  0  0  0  0  0  0  0
    7.8221    0.8102   -4.2725 C   0  0  0  0  0  0  0  0  0  0  0  0
    6.9994    1.4042   -5.2408 C   0  0  0  0  0  0  0  0  0  0  0  0
    5.8978    2.1752   -4.8769 C   0  0  0  0  0  0  0  0  0  0  0  0
    5.6184    2.3546   -3.5209 C   0  0  0  0  0  0  0  0  0  0  0  0
    6.1995    1.9582   -1.4858 H   0  0  0  0  0  0  0  0  0  0  0  0
    8.1554    0.5771   -2.1548 H   0  0  0  0  0  0  0  0  0  0  0  0
    7.2291    1.2679   -6.2941 H   0  0  0  0  0  0  0  0  0  0  0  0
    5.2730    2.6498   -5.6254 H   0  0  0  0  0  0  0  0  0  0  0  0
    4.2134    3.3411   -3.0426 S   0  0  0  0  0  0  0  0  0  0  0  0
    4.4147    3.8370   -1.6889 O   0  0  0  0  0  0  0  0  0  0  0  0
    2.9766    2.2331   -2.9643 O   0  0  0  0  0  0  0  0  0  0  0  0
    3.8278    4.2001   -4.1546 O   0  0  0  0  0  0  0  0  0  0  0  0
    8.9974   -0.0454   -4.6777 C   0  0  0  0  0  0  0  0  0  0  0  0
    9.8143    0.0260   -3.9533 H   0  0  0  0  0  0  0  0  0  0  0  0
    8.7083   -1.1020   -4.7399 H   0  0  0  0  0  0  0  0  0  0  0  0
    9.3841    0.2451   -5.6584 H   0  0  0  0  0  0  0  0  0  0  0  0
  1  2  1  0  0  0  0
  1  7  1  0  0  0  0
  2  8  1  0  0  0  0
  3 14  1  0  0  0  0
  3  2  2  0  0  0  0
  4  3  1  0  0  0  0
  5  4  2  0  0  0  0
  5  6  1  0  0  0  0
  6  1  2  0  0  0  0
  9  4  1  0  0  0  0
 10  5  1  0  0  0  0
 11  6  1  0  0  0  0
 11 13  2  0  0  0  0
 12 11  2  0  0  0  0
 15 14  1  0  0  0  0
 16 22  1  0  0  0  0
 17 16  1  0  0  0  0
 17 23  1  0  0  0  0
 18 17  2  0  0  0  0
 19 20  2  0  0  0  0
 19 18  1  0  0  0  0
 20 21  1  0  0  0  0
 21 26  1  0  0  0  0
 21 16  2  0  0  0  0
 24 19  1  0  0  0  0
 25 20  1  0  0  0  0
 26 28  1  0  0  0  0
 26 27  2  0  0  0  0
 28 15  1  0  0  0  0
 29 26  2  0  0  0  0
 30 18  1  0  0  0  0
 30 31  1  0  0  0  0
 32 30  1  0  0  0  0
 33 30  1  0  0  0  0
M  RAD  2  14   2  15   2
M  END
