Coordinates from ORCA-job p-NO2-Ph-N2-OTs-B3LYPG-6-31G_dp-scan-d09-49-n400
 OpenBabel08281821283D

 33 34  0  0  0  0  0  0  0  0999 V2000
   -0.9763   -0.6415   -2.4530 C   0  0  0  0  0  0  0  0  0  0  0  0
    0.0923   -0.6318   -3.3403 C   0  0  0  0  0  0  0  0  0  0  0  0
    0.6875    0.5825   -3.7171 C   0  0  0  0  0  0  0  0  0  0  0  0
    0.1781    1.8062   -3.2478 C   0  0  0  0  0  0  0  0  0  0  0  0
   -0.9126    1.7985   -2.3849 C   0  0  0  0  0  0  0  0  0  0  0  0
   -1.4624    0.5797   -1.9917 C   0  0  0  0  0  0  0  0  0  0  0  0
   -1.4442   -1.5620   -2.1295 H   0  0  0  0  0  0  0  0  0  0  0  0
    0.4859   -1.5551   -3.7501 H   0  0  0  0  0  0  0  0  0  0  0  0
    0.6256    2.7402   -3.5535 H   0  0  0  0  0  0  0  0  0  0  0  0
   -1.3346    2.7199   -2.0049 H   0  0  0  0  0  0  0  0  0  0  0  0
   -2.6066    0.5823   -1.0603 N   0  0  0  0  0  0  0  0  0  0  0  0
   -3.0217    1.6728   -0.6748 O   0  0  0  0  0  0  0  0  0  0  0  0
   -3.0699   -0.5077   -0.7301 O   0  0  0  0  0  0  0  0  0  0  0  0
    1.7410    0.4351   -4.6589 N   0  0  0  0  0  0  0  0  0  0  0  0
    2.7080    1.1259   -4.8822 N   0  0  0  0  0  0  0  0  0  0  0  0
    6.0467    2.3413   -2.6990 C   0  0  0  0  0  0  0  0  0  0  0  0
    7.1653    1.5637   -2.4117 C   0  0  0  0  0  0  0  0  0  0  0  0
    7.7648    0.7620   -3.3950 C   0  0  0  0  0  0  0  0  0  0  0  0
    7.2179    0.7641   -4.6867 C   0  0  0  0  0  0  0  0  0  0  0  0
    6.0997    1.5350   -4.9962 C   0  0  0  0  0  0  0  0  0  0  0  0
    5.5221    2.3151   -3.9930 C   0  0  0  0  0  0  0  0  0  0  0  0
    5.5948    2.9743   -1.9433 H   0  0  0  0  0  0  0  0  0  0  0  0
    7.5861    1.5865   -1.4102 H   0  0  0  0  0  0  0  0  0  0  0  0
    7.6789    0.1610   -5.4640 H   0  0  0  0  0  0  0  0  0  0  0  0
    5.6856    1.5476   -5.9979 H   0  0  0  0  0  0  0  0  0  0  0  0
    4.0986    3.3160   -4.3730 S   0  0  0  0  0  0  0  0  0  0  0  0
    3.9948    4.4037   -3.4085 O   0  0  0  0  0  0  0  0  0  0  0  0
    2.8158    2.3356   -3.9402 O   0  0  0  0  0  0  0  0  0  0  0  0
    4.0399    3.5433   -5.8108 O   0  0  0  0  0  0  0  0  0  0  0  0
    8.9619   -0.0961   -3.0656 C   0  0  0  0  0  0  0  0  0  0  0  0
    9.5738    0.3555   -2.2793 H   0  0  0  0  0  0  0  0  0  0  0  0
    8.6472   -1.0839   -2.7072 H   0  0  0  0  0  0  0  0  0  0  0  0
    9.5942   -0.2549   -3.9437 H   0  0  0  0  0  0  0  0  0  0  0  0
  1  7  1  0  0  0  0
  1  6  2  0  0  0  0
  2  1  1  0  0  0  0
  3  2  2  0  0  0  0
  3  4  1  0  0  0  0
  4  5  2  0  0  0  0
  5 10  1  0  0  0  0
  5  6  1  0  0  0  0
  6 11  1  0  0  0  0
  8  2  1  0  0  0  0
  9  4  1  0  0  0  0
 11 13  2  0  0  0  0
 11 12  2  0  0  0  0
 14  3  1  0  0  0  0
 15 14  1  0  0  0  0
 15 28  1  0  0  0  0
 16 17  1  0  0  0  0
 16 22  1  0  0  0  0
 17 23  1  0  0  0  0
 18 30  1  0  0  0  0
 18 17  2  0  0  0  0
 19 18  1  0  0  0  0
 20 19  2  0  0  0  0
 20 21  1  0  0  0  0
 21 16  2  0  0  0  0
 24 19  1  0  0  0  0
 25 20  1  0  0  0  0
 26 21  1  0  0  0  0
 26 28  1  0  0  0  0
 26 27  2  0  0  0  0
 29 26  2  0  0  0  0
 30 32  1  0  0  0  0
 30 31  1  0  0  0  0
 33 30  1  0  0  0  0
M  RAD  2  14   2  15   2
M  END
