Coordinates from ORCA-job p-NO2-Ph-N2-OTs-B3LYPG-6-31G_dp-scan-d09-49-n400
 OpenBabel08281821283D

 33 34  0  0  0  0  0  0  0  0999 V2000
   -0.7520    0.1813   -1.6455 C   0  0  0  0  0  0  0  0  0  0  0  0
   -0.1409    1.3181   -1.1367 C   0  0  0  0  0  0  0  0  0  0  0  0
    0.7988    2.0362   -1.9019 C   0  0  0  0  0  0  0  0  0  0  0  0
    1.0843    1.6203   -3.2178 C   0  0  0  0  0  0  0  0  0  0  0  0
    0.4591    0.4929   -3.7365 C   0  0  0  0  0  0  0  0  0  0  0  0
   -0.4403   -0.2192   -2.9442 C   0  0  0  0  0  0  0  0  0  0  0  0
   -1.4650   -0.3906   -1.0653 H   0  0  0  0  0  0  0  0  0  0  0  0
   -0.3718    1.6735   -0.1390 H   0  0  0  0  0  0  0  0  0  0  0  0
    1.7800    2.1764   -3.8298 H   0  0  0  0  0  0  0  0  0  0  0  0
    0.6586    0.1556   -4.7456 H   0  0  0  0  0  0  0  0  0  0  0  0
   -1.0838   -1.4185   -3.4963 N   0  0  0  0  0  0  0  0  0  0  0  0
   -0.7858   -1.7497   -4.6440 O   0  0  0  0  0  0  0  0  0  0  0  0
   -1.8802   -2.0204   -2.7761 O   0  0  0  0  0  0  0  0  0  0  0  0
    1.2723    3.1942   -1.2580 N   0  0  0  0  0  0  0  0  0  0  0  0
    2.3994    3.6981   -1.4851 N   0  0  0  0  0  0  0  0  0  0  0  0
    5.8501    1.3176   -2.5148 C   0  0  0  0  0  0  0  0  0  0  0  0
    6.4551    0.2399   -3.1550 C   0  0  0  0  0  0  0  0  0  0  0  0
    6.8169    0.3125   -4.5103 C   0  0  0  0  0  0  0  0  0  0  0  0
    6.5606    1.5005   -5.2102 C   0  0  0  0  0  0  0  0  0  0  0  0
    5.9538    2.5891   -4.5858 C   0  0  0  0  0  0  0  0  0  0  0  0
    5.5958    2.4833   -3.2430 C   0  0  0  0  0  0  0  0  0  0  0  0
    5.5736    1.2473   -1.4663 H   0  0  0  0  0  0  0  0  0  0  0  0
    6.6537   -0.6708   -2.5963 H   0  0  0  0  0  0  0  0  0  0  0  0
    6.8458    1.5760   -6.2558 H   0  0  0  0  0  0  0  0  0  0  0  0
    5.7625    3.5164   -5.1171 H   0  0  0  0  0  0  0  0  0  0  0  0
    4.9056    3.9227   -2.3975 S   0  0  2  0  0  0  0  0  0  0  0  0
    2.8385    4.7863   -0.9235 O   0  0  0  0  0  0  0  0  0  0  0  0
    3.2856    3.0634   -2.3700 O   0  0  0  0  0  0  0  0  0  0  0  0
    4.8562    5.0083   -3.4016 O   0  0  0  0  0  0  0  0  0  0  0  0
    7.4530   -0.8703   -5.1985 C   0  0  0  0  0  0  0  0  0  0  0  0
    8.1467   -1.3942   -4.5337 H   0  0  0  0  0  0  0  0  0  0  0  0
    6.6910   -1.5956   -5.5091 H   0  0  0  0  0  0  0  0  0  0  0  0
    8.0011   -0.5661   -6.0939 H   0  0  0  0  0  0  0  0  0  0  0  0
  1  2  1  0  0  0  0
  1  7  1  0  0  0  0
  2  8  1  0  0  0  0
  3 14  1  0  0  0  0
  3  2  2  0  0  0  0
  4  3  1  0  0  0  0
  5  4  2  0  0  0  0
  5  6  1  0  0  0  0
  6  1  2  0  0  0  0
  9  4  1  0  0  0  0
 10  5  1  0  0  0  0
 11  6  1  0  0  0  0
 11 13  2  0  0  0  0
 12 11  2  0  0  0  0
 15 14  1  0  0  0  0
 15 27  1  0  0  0  0
 16 22  1  0  0  0  0
 17 23  1  0  0  0  0
 17 16  1  0  0  0  0
 18 17  2  0  0  0  0
 19 20  2  0  0  0  0
 19 18  1  0  0  0  0
 20 21  1  0  0  0  0
 21 16  2  0  0  0  0
 21 26  1  0  0  0  0
 24 19  1  0  0  0  0
 25 20  1  0  0  0  0
 26 29  1  6  0  0  0
 26 28  1  0  0  0  0
 28 15  1  0  0  0  0
 30 31  1  0  0  0  0
 30 18  1  0  0  0  0
 32 30  1  0  0  0  0
 33 30  1  0  0  0  0
M  RAD  3  14   2  27   2  29   2
M  END
