Coordinates from ORCA-job p-NO2-Ph-N2-OTs-B3LYPG-6-31G_dp-scan-d09-49-n400
 OpenBabel08281821283D

 33 34  0  0  0  0  0  0  0  0999 V2000
   -1.2881    0.5048   -1.7789 C   0  0  0  0  0  0  0  0  0  0  0  0
   -0.5414    1.5813   -1.3234 C   0  0  0  0  0  0  0  0  0  0  0  0
    0.7088    1.8837   -1.8968 C   0  0  0  0  0  0  0  0  0  0  0  0
    1.2035    1.0981   -2.9574 C   0  0  0  0  0  0  0  0  0  0  0  0
    0.4506    0.0248   -3.4215 C   0  0  0  0  0  0  0  0  0  0  0  0
   -0.7763   -0.2601   -2.8260 C   0  0  0  0  0  0  0  0  0  0  0  0
   -2.2480    0.2507   -1.3491 H   0  0  0  0  0  0  0  0  0  0  0  0
   -0.9006    2.2105   -0.5166 H   0  0  0  0  0  0  0  0  0  0  0  0
    2.1552    1.3241   -3.4136 H   0  0  0  0  0  0  0  0  0  0  0  0
    0.8007   -0.5955   -4.2373 H   0  0  0  0  0  0  0  0  0  0  0  0
   -1.5586   -1.4059   -3.3206 N   0  0  0  0  0  0  0  0  0  0  0  0
   -1.0808   -2.0654   -4.2422 O   0  0  0  0  0  0  0  0  0  0  0  0
   -2.6397   -1.6306   -2.7790 O   0  0  0  0  0  0  0  0  0  0  0  0
    1.3130    3.0170   -1.3072 N   0  0  0  0  0  0  0  0  0  0  0  0
    2.4542    3.4054   -1.5456 N   0  0  0  0  0  0  0  0  0  0  0  0
    6.0645    1.3136   -2.5855 C   0  0  0  0  0  0  0  0  0  0  0  0
    6.7189    0.3026   -3.2836 C   0  0  0  0  0  0  0  0  0  0  0  0
    7.0497    0.4583   -4.6396 C   0  0  0  0  0  0  0  0  0  0  0  0
    6.7106    1.6601   -5.2795 C   0  0  0  0  0  0  0  0  0  0  0  0
    6.0533    2.6806   -4.5955 C   0  0  0  0  0  0  0  0  0  0  0  0
    5.7286    2.4969   -3.2513 C   0  0  0  0  0  0  0  0  0  0  0  0
    5.8164    1.1811   -1.5354 H   0  0  0  0  0  0  0  0  0  0  0  0
    6.9828   -0.6187   -2.7710 H   0  0  0  0  0  0  0  0  0  0  0  0
    6.9713    1.7988   -6.3253 H   0  0  0  0  0  0  0  0  0  0  0  0
    5.7982    3.6174   -5.0810 H   0  0  0  0  0  0  0  0  0  0  0  0
    4.9770    3.8376   -2.2960 S   0  0  2  0  0  0  0  0  0  0  0  0
    3.1422    4.8326   -0.7743 O   0  0  0  0  0  0  0  0  0  0  0  0
    3.3215    2.8366   -2.3758 O   0  0  0  0  0  0  0  0  0  0  0  0
    4.9016    4.9732   -3.2363 O   0  0  0  0  0  0  0  0  0  0  0  0
    7.7411   -0.6522   -5.3918 C   0  0  0  0  0  0  0  0  0  0  0  0
    8.4919   -1.1493   -4.7700 H   0  0  0  0  0  0  0  0  0  0  0  0
    7.0207   -1.4180   -5.7044 H   0  0  0  0  0  0  0  0  0  0  0  0
    8.2353   -0.2794   -6.2926 H   0  0  0  0  0  0  0  0  0  0  0  0
  1  7  1  0  0  0  0
  1  2  1  0  0  0  0
  2  8  1  0  0  0  0
  3  2  2  0  0  0  0
  3 14  1  0  0  0  0
  4  3  1  0  0  0  0
  5  4  2  0  0  0  0
  5  6  1  0  0  0  0
  6  1  2  0  0  0  0
  9  4  1  0  0  0  0
 10  5  1  0  0  0  0
 11  6  1  0  0  0  0
 11 13  2  0  0  0  0
 12 11  2  0  0  0  0
 15 14  1  0  0  0  0
 15 27  1  0  0  0  0
 16 22  1  0  0  0  0
 17 23  1  0  0  0  0
 17 16  2  0  0  0  0
 18 17  1  0  0  0  0
 19 18  2  0  0  0  0
 19 20  1  0  0  0  0
 20 21  2  0  0  0  0
 21 16  1  0  0  0  0
 24 19  1  0  0  0  0
 25 20  1  0  0  0  0
 26 21  1  6  0  0  0
 28 26  1  0  0  0  0
 28 15  1  0  0  0  0
 29 26  1  0  0  0  0
 30 31  1  0  0  0  0
 30 18  1  0  0  0  0
 32 30  1  0  0  0  0
 33 30  1  0  0  0  0
M  RAD  3  14   2  27   2  29   2
M  END
