Coordinates from ORCA-job p-NO2-Ph-N2-OTs-B3LYPG-6-31G_dp-scan-d09-49-n400
 OpenBabel08281821283D

 33 33  0  0  0  0  0  0  0  0999 V2000
   -1.2728    0.4787   -1.7826 C   0  0  0  0  0  0  0  0  0  0  0  0
   -0.5267    1.5500   -1.3122 C   0  0  0  0  0  0  0  0  0  0  0  0
    0.7170    1.8660   -1.8891 C   0  0  0  0  0  0  0  0  0  0  0  0
    1.2092    1.1036   -2.9665 C   0  0  0  0  0  0  0  0  0  0  0  0
    0.4569    0.0359   -3.4460 C   0  0  0  0  0  0  0  0  0  0  0  0
   -0.7646   -0.2637   -2.8470 C   0  0  0  0  0  0  0  0  0  0  0  0
   -2.2289    0.2126   -1.3515 H   0  0  0  0  0  0  0  0  0  0  0  0
   -0.8823    2.1633   -0.4918 H   0  0  0  0  0  0  0  0  0  0  0  0
    2.1576    1.3422   -3.4230 H   0  0  0  0  0  0  0  0  0  0  0  0
    0.8038   -0.5682   -4.2750 H   0  0  0  0  0  0  0  0  0  0  0  0
   -1.5468   -1.4040   -3.3579 N   0  0  0  0  0  0  0  0  0  0  0  0
   -1.0728   -2.0441   -4.2947 O   0  0  0  0  0  0  0  0  0  0  0  0
   -2.6236   -1.6415   -2.8139 O   0  0  0  0  0  0  0  0  0  0  0  0
    1.3255    2.9949   -1.2826 N   0  0  0  0  0  0  0  0  0  0  0  0
    2.4565    3.4025   -1.5126 N   0  0  0  0  0  0  0  0  0  0  0  0
    6.0601    1.3302   -2.5821 C   0  0  0  0  0  0  0  0  0  0  0  0
    6.7133    0.3118   -3.2706 C   0  0  0  0  0  0  0  0  0  0  0  0
    7.0333    0.4491   -4.6312 C   0  0  0  0  0  0  0  0  0  0  0  0
    6.6846    1.6402   -5.2857 C   0  0  0  0  0  0  0  0  0  0  0  0
    6.0284    2.6679   -4.6114 C   0  0  0  0  0  0  0  0  0  0  0  0
    5.7138    2.5021   -3.2626 C   0  0  0  0  0  0  0  0  0  0  0  0
    5.8204    1.2118   -1.5283 H   0  0  0  0  0  0  0  0  0  0  0  0
    6.9848   -0.6009   -2.7468 H   0  0  0  0  0  0  0  0  0  0  0  0
    6.9371    1.7651   -6.3352 H   0  0  0  0  0  0  0  0  0  0  0  0
    5.7659    3.5966   -5.1084 H   0  0  0  0  0  0  0  0  0  0  0  0
    4.9627    3.8542   -2.3245 S   0  0  2  0  0  0  0  0  0  0  0  0
    3.2721    5.0153   -0.6497 O   0  0  0  0  0  0  0  0  0  0  0  0
    3.3169    2.8459   -2.3617 O   0  0  0  0  0  0  0  0  0  0  0  0
    4.8603    4.9709   -3.2846 O   0  0  0  0  0  0  0  0  0  0  0  0
    7.7234   -0.6693   -5.3729 C   0  0  0  0  0  0  0  0  0  0  0  0
    8.4745   -1.1607   -4.7470 H   0  0  0  0  0  0  0  0  0  0  0  0
    7.0021   -1.4378   -5.6773 H   0  0  0  0  0  0  0  0  0  0  0  0
    8.2168   -0.3059   -6.2778 H   0  0  0  0  0  0  0  0  0  0  0  0
  1  7  1  0  0  0  0
  1  2  1  0  0  0  0
  2  8  1  0  0  0  0
  3  2  2  0  0  0  0
  3 14  1  0  0  0  0
  4  3  1  0  0  0  0
  5  4  2  0  0  0  0
  5  6  1  0  0  0  0
  6  1  2  0  0  0  0
  9  4  1  0  0  0  0
 10  5  1  0  0  0  0
 11  6  1  0  0  0  0
 11 13  2  0  0  0  0
 12 11  2  0  0  0  0
 15 14  2  0  0  0  0
 16 22  1  0  0  0  0
 17 23  1  0  0  0  0
 17 16  2  0  0  0  0
 18 17  1  0  0  0  0
 19 18  2  0  0  0  0
 19 20  1  0  0  0  0
 20 21  2  0  0  0  0
 21 16  1  0  0  0  0
 21 26  1  0  0  0  0
 24 19  1  0  0  0  0
 25 20  1  0  0  0  0
 26 29  1  6  0  0  0
 28 26  1  0  0  0  0
 28 15  1  0  0  0  0
 30 31  1  0  0  0  0
 30 18  1  0  0  0  0
 32 30  1  0  0  0  0
 33 30  1  0  0  0  0
M  RAD  2  27   3  29   2
M  END
