Coordinates from ORCA-job p-NO2-Ph-N2-OTs-B3LYPG-6-31G_dp-scan-d09-49-n400
 OpenBabel08281821283D

 33 34  0  0  0  0  0  0  0  0999 V2000
   -0.5152    0.0563   -1.8233 C   0  0  0  0  0  0  0  0  0  0  0  0
    0.1327    1.0172   -1.0557 C   0  0  0  0  0  0  0  0  0  0  0  0
    0.8139    2.0752   -1.6747 C   0  0  0  0  0  0  0  0  0  0  0  0
    0.8076    2.1993   -3.0751 C   0  0  0  0  0  0  0  0  0  0  0  0
    0.1563    1.2438   -3.8438 C   0  0  0  0  0  0  0  0  0  0  0  0
   -0.4913    0.1825   -3.2104 C   0  0  0  0  0  0  0  0  0  0  0  0
   -1.0356   -0.7781   -1.3708 H   0  0  0  0  0  0  0  0  0  0  0  0
    0.1231    0.9595    0.0275 H   0  0  0  0  0  0  0  0  0  0  0  0
    1.3216    3.0245   -3.5540 H   0  0  0  0  0  0  0  0  0  0  0  0
    0.1400    1.3074   -4.9248 H   0  0  0  0  0  0  0  0  0  0  0  0
   -1.1730   -0.8284   -4.0295 N   0  0  0  0  0  0  0  0  0  0  0  0
   -1.1330   -0.6949   -5.2525 O   0  0  0  0  0  0  0  0  0  0  0  0
   -1.7419   -1.7496   -3.4432 O   0  0  0  0  0  0  0  0  0  0  0  0
    1.3405    3.0587   -0.8085 N   0  0  0  0  0  0  0  0  0  0  0  0
    2.5058    3.5229   -0.9406 N   0  0  0  0  0  0  0  0  0  0  0  0
    6.2946    1.6975   -2.5744 C   0  0  0  0  0  0  0  0  0  0  0  0
    7.1025    0.6575   -3.0275 C   0  0  0  0  0  0  0  0  0  0  0  0
    7.0172    0.1965   -4.3506 C   0  0  0  0  0  0  0  0  0  0  0  0
    6.1038    0.8135   -5.2177 C   0  0  0  0  0  0  0  0  0  0  0  0
    5.2887    1.8569   -4.7824 C   0  0  0  0  0  0  0  0  0  0  0  0
    5.3870    2.2809   -3.4595 C   0  0  0  0  0  0  0  0  0  0  0  0
    6.3663    2.0419   -1.5469 H   0  0  0  0  0  0  0  0  0  0  0  0
    7.8114    0.1953   -2.3456 H   0  0  0  0  0  0  0  0  0  0  0  0
    6.0326    0.4746   -6.2479 H   0  0  0  0  0  0  0  0  0  0  0  0
    4.5856    2.3492   -5.4471 H   0  0  0  0  0  0  0  0  0  0  0  0
    4.3728    3.6820   -2.9232 S   0  0  2  0  0  0  0  0  0  0  0  0
    3.0222    4.3270   -0.4584 O   0  0  0  0  0  0  0  0  0  0  0  0
    3.4096    2.6476   -1.9732 O   0  0  0  0  0  0  0  0  0  0  0  0
    3.5752    4.1290   -4.1040 O   0  0  0  0  0  0  0  0  0  0  0  0
    7.8748   -0.9521   -4.8239 C   0  0  0  0  0  0  0  0  0  0  0  0
    8.8041   -1.0216   -4.2525 H   0  0  0  0  0  0  0  0  0  0  0  0
    7.3464   -1.9068   -4.7078 H   0  0  0  0  0  0  0  0  0  0  0  0
    8.1317   -0.8507   -5.8823 H   0  0  0  0  0  0  0  0  0  0  0  0
  1  7  1  0  0  0  0
  1  2  2  0  0  0  0
  2  8  1  0  0  0  0
  3  2  1  0  0  0  0
  3 14  1  0  0  0  0
  4  3  2  0  0  0  0
  5  6  2  0  0  0  0
  5  4  1  0  0  0  0
  6  1  1  0  0  0  0
  9  4  1  0  0  0  0
 10  5  1  0  0  0  0
 11 13  2  0  0  0  0
 11  6  1  0  0  0  0
 12 11  2  0  0  0  0
 15 14  1  0  0  0  0
 15 27  1  0  0  0  0
 16 22  1  0  0  0  0
 17 16  1  0  0  0  0
 17 23  1  0  0  0  0
 18 17  2  0  0  0  0
 19 20  2  0  0  0  0
 19 18  1  0  0  0  0
 20 21  1  0  0  0  0
 21 26  1  0  0  0  0
 21 16  2  0  0  0  0
 24 19  1  0  0  0  0
 25 20  1  0  0  0  0
 26 29  1  6  0  0  0
 26 28  1  0  0  0  0
 28 15  1  0  0  0  0
 30 32  1  0  0  0  0
 30 18  1  0  0  0  0
 30 31  1  0  0  0  0
 33 30  1  0  0  0  0
M  RAD  3  14   2  27   2  29   2
M  END
