Coordinates from ORCA-job p-NO2-Ph-N2-OTs-B3LYPG-6-31G_dp-scan-d09-49-n400
 OpenBabel08281821283D

 33 34  0  0  0  0  0  0  0  0999 V2000
   -1.6620   -0.4947   -2.8537 C   0  0  0  0  0  0  0  0  0  0  0  0
   -0.4783   -0.6521   -3.5628 C   0  0  0  0  0  0  0  0  0  0  0  0
    0.5153    0.3347   -3.4775 C   0  0  0  0  0  0  0  0  0  0  0  0
    0.3492    1.4903   -2.6936 C   0  0  0  0  0  0  0  0  0  0  0  0
   -0.8414    1.6427   -1.9898 C   0  0  0  0  0  0  0  0  0  0  0  0
   -1.8184    0.6532   -2.0796 C   0  0  0  0  0  0  0  0  0  0  0  0
   -2.4549   -1.2308   -2.8896 H   0  0  0  0  0  0  0  0  0  0  0  0
   -0.3080   -1.5247   -4.1831 H   0  0  0  0  0  0  0  0  0  0  0  0
    1.1359    2.2319   -2.6536 H   0  0  0  0  0  0  0  0  0  0  0  0
   -1.0202    2.5148   -1.3736 H   0  0  0  0  0  0  0  0  0  0  0  0
   -3.0778    0.8272   -1.3212 N   0  0  0  0  0  0  0  0  0  0  0  0
   -3.1884    1.8413   -0.6386 O   0  0  0  0  0  0  0  0  0  0  0  0
   -3.9248   -0.0558   -1.4279 O   0  0  0  0  0  0  0  0  0  0  0  0
    1.6696    0.0757   -4.2454 N   0  0  0  0  0  0  0  0  0  0  0  0
    2.7156    0.5334   -4.5021 N   0  0  0  0  0  0  0  0  0  0  0  0
    6.3136    2.4725   -2.7819 C   0  0  0  0  0  0  0  0  0  0  0  0
    7.5334    1.8419   -2.5485 C   0  0  0  0  0  0  0  0  0  0  0  0
    8.0930    0.9696   -3.4940 C   0  0  0  0  0  0  0  0  0  0  0  0
    7.4005    0.7523   -4.6936 C   0  0  0  0  0  0  0  0  0  0  0  0
    6.1789    1.3746   -4.9439 C   0  0  0  0  0  0  0  0  0  0  0  0
    5.6404    2.2277   -3.9798 C   0  0  0  0  0  0  0  0  0  0  0  0
    5.8936    3.1631   -2.0583 H   0  0  0  0  0  0  0  0  0  0  0  0
    8.0652    2.0365   -1.6207 H   0  0  0  0  0  0  0  0  0  0  0  0
    7.8275    0.0949   -5.4467 H   0  0  0  0  0  0  0  0  0  0  0  0
    5.6525    1.2222   -5.8796 H   0  0  0  0  0  0  0  0  0  0  0  0
    4.0669    3.0233   -4.2854 S   0  0  0  0  0  0  0  0  0  0  0  0
    4.0343    4.2771   -3.5236 O   0  0  0  0  0  0  0  0  0  0  0  0
    3.0065    2.0466   -3.5733 O   0  0  0  0  0  0  0  0  0  0  0  0
    3.8296    3.0220   -5.7302 O   0  0  0  0  0  0  0  0  0  0  0  0
    9.4019    0.2687   -3.2196 C   0  0  0  0  0  0  0  0  0  0  0  0
   10.0384    0.8561   -2.5513 H   0  0  0  0  0  0  0  0  0  0  0  0
    9.2336   -0.7030   -2.7386 H   0  0  0  0  0  0  0  0  0  0  0  0
    9.9570    0.0814   -4.1433 H   0  0  0  0  0  0  0  0  0  0  0  0
  1  6  2  0  0  0  0
  2  3  2  0  0  0  0
  2  1  1  0  0  0  0
  3  4  1  0  0  0  0
  4  9  1  0  0  0  0
  4  5  2  0  0  0  0
  5 10  1  0  0  0  0
  6  5  1  0  0  0  0
  6 11  1  0  0  0  0
  7  1  1  0  0  0  0
  8  2  1  0  0  0  0
 11 12  2  0  0  0  0
 13 11  2  0  0  0  0
 14  3  1  0  0  0  0
 15 14  1  0  0  0  0
 15 28  1  0  0  0  0
 16 17  1  0  0  0  0
 16 22  1  0  0  0  0
 17 23  1  0  0  0  0
 18 30  1  0  0  0  0
 18 17  2  0  0  0  0
 19 18  1  0  0  0  0
 20 19  2  0  0  0  0
 20 21  1  0  0  0  0
 21 16  2  0  0  0  0
 24 19  1  0  0  0  0
 25 20  1  0  0  0  0
 26 21  1  0  0  0  0
 26 28  1  0  0  0  0
 26 27  2  0  0  0  0
 29 26  2  0  0  0  0
 30 32  1  0  0  0  0
 30 31  1  0  0  0  0
 33 30  1  0  0  0  0
M  RAD  2  14   2  15   2
M  END
