Coordinates from ORCA-job p-NO2-Ph-N2-OTs-B3LYPG-6-31G_dp-scan-d09-49-n400
 OpenBabel08281821283D

 33 34  0  0  0  0  0  0  0  0999 V2000
   -1.0965    0.3870   -1.7121 C   0  0  0  0  0  0  0  0  0  0  0  0
   -0.4025    1.4910   -1.2415 C   0  0  0  0  0  0  0  0  0  0  0  0
    0.7559    1.9540   -1.8996 C   0  0  0  0  0  0  0  0  0  0  0  0
    1.1947    1.3026   -3.0717 C   0  0  0  0  0  0  0  0  0  0  0  0
    0.4905    0.2049   -3.5528 C   0  0  0  0  0  0  0  0  0  0  0  0
   -0.6363   -0.2445   -2.8670 C   0  0  0  0  0  0  0  0  0  0  0  0
   -1.9813    0.0129   -1.2136 H   0  0  0  0  0  0  0  0  0  0  0  0
   -0.7325    2.0206   -0.3550 H   0  0  0  0  0  0  0  0  0  0  0  0
    2.0661    1.6530   -3.6032 H   0  0  0  0  0  0  0  0  0  0  0  0
    0.8028   -0.3096   -4.4529 H   0  0  0  0  0  0  0  0  0  0  0  0
   -1.3633   -1.4152   -3.3791 N   0  0  0  0  0  0  0  0  0  0  0  0
   -0.9311   -1.9553   -4.3969 O   0  0  0  0  0  0  0  0  0  0  0  0
   -2.3586   -1.7833   -2.7561 O   0  0  0  0  0  0  0  0  0  0  0  0
    1.2981    3.0966   -1.2853 N   0  0  0  0  0  0  0  0  0  0  0  0
    2.4369    3.5436   -1.5137 N   0  0  0  0  0  0  0  0  0  0  0  0
    5.9721    1.3073   -2.5590 C   0  0  0  0  0  0  0  0  0  0  0  0
    6.6047    0.2706   -3.2389 C   0  0  0  0  0  0  0  0  0  0  0  0
    6.9521    0.3998   -4.5938 C   0  0  0  0  0  0  0  0  0  0  0  0
    6.6522    1.6017   -5.2518 C   0  0  0  0  0  0  0  0  0  0  0  0
    6.0173    2.6491   -4.5868 C   0  0  0  0  0  0  0  0  0  0  0  0
    5.6752    2.4891   -3.2447 C   0  0  0  0  0  0  0  0  0  0  0  0
    5.7093    1.1945   -1.5104 H   0  0  0  0  0  0  0  0  0  0  0  0
    6.8376   -0.6511   -2.7124 H   0  0  0  0  0  0  0  0  0  0  0  0
    6.9259    1.7203   -6.2966 H   0  0  0  0  0  0  0  0  0  0  0  0
    5.7928    3.5868   -5.0856 H   0  0  0  0  0  0  0  0  0  0  0  0
    4.9505    3.8698   -2.3310 S   0  0  2  0  0  0  0  0  0  0  0  0
    2.9468    4.7350   -0.8600 O   0  0  0  0  0  0  0  0  0  0  0  0
    3.3156    2.9544   -2.3737 O   0  0  0  0  0  0  0  0  0  0  0  0
    4.8942    4.9953   -3.2865 O   0  0  0  0  0  0  0  0  0  0  0  0
    7.6206   -0.7387   -5.3247 C   0  0  0  0  0  0  0  0  0  0  0  0
    8.3622   -1.2381   -4.6937 H   0  0  0  0  0  0  0  0  0  0  0  0
    6.8848   -1.4961   -5.6213 H   0  0  0  0  0  0  0  0  0  0  0  0
    8.1211   -0.3933   -6.2328 H   0  0  0  0  0  0  0  0  0  0  0  0
  1  2  1  0  0  0  0
  1  7  1  0  0  0  0
  2  8  1  0  0  0  0
  3 14  1  0  0  0  0
  3  2  2  0  0  0  0
  4  3  1  0  0  0  0
  5  4  2  0  0  0  0
  5  6  1  0  0  0  0
  6  1  2  0  0  0  0
  9  4  1  0  0  0  0
 10  5  1  0  0  0  0
 11  6  1  0  0  0  0
 11 13  2  0  0  0  0
 12 11  2  0  0  0  0
 15 14  1  0  0  0  0
 15 27  1  0  0  0  0
 16 22  1  0  0  0  0
 17 23  1  0  0  0  0
 17 16  2  0  0  0  0
 18 17  1  0  0  0  0
 19 18  2  0  0  0  0
 19 20  1  0  0  0  0
 20 21  2  0  0  0  0
 21 16  1  0  0  0  0
 21 26  1  0  0  0  0
 24 19  1  0  0  0  0
 25 20  1  0  0  0  0
 26 29  1  6  0  0  0
 28 26  1  0  0  0  0
 28 15  1  0  0  0  0
 30 31  1  0  0  0  0
 30 18  1  0  0  0  0
 32 30  1  0  0  0  0
 33 30  1  0  0  0  0
M  RAD  3  14   2  27   2  29   2
M  END
