Coordinates from ORCA-job p-NO2-Ph-N2-OTs-B3LYPG-6-31G_dp-scan-d09-49-n400
 OpenBabel08281821283D

 33 34  0  0  0  0  0  0  0  0999 V2000
   -1.2887    0.5043   -1.7791 C   0  0  0  0  0  0  0  0  0  0  0  0
   -0.5417    1.5806   -1.3234 C   0  0  0  0  0  0  0  0  0  0  0  0
    0.7087    1.8825   -1.8966 C   0  0  0  0  0  0  0  0  0  0  0  0
    1.2034    1.0969   -2.9571 C   0  0  0  0  0  0  0  0  0  0  0  0
    0.4502    0.0239   -3.4214 C   0  0  0  0  0  0  0  0  0  0  0  0
   -0.7769   -0.2606   -2.8261 C   0  0  0  0  0  0  0  0  0  0  0  0
   -2.2487    0.2505   -1.3495 H   0  0  0  0  0  0  0  0  0  0  0  0
   -0.9008    2.2098   -0.5166 H   0  0  0  0  0  0  0  0  0  0  0  0
    2.1553    1.3227   -3.4130 H   0  0  0  0  0  0  0  0  0  0  0  0
    0.8003   -0.5965   -4.2371 H   0  0  0  0  0  0  0  0  0  0  0  0
   -1.5595   -1.4062   -3.3210 N   0  0  0  0  0  0  0  0  0  0  0  0
   -1.0826   -2.0646   -4.2439 O   0  0  0  0  0  0  0  0  0  0  0  0
   -2.6417   -1.6294   -2.7810 O   0  0  0  0  0  0  0  0  0  0  0  0
    1.3134    3.0157   -1.3067 N   0  0  0  0  0  0  0  0  0  0  0  0
    2.4543    3.4040   -1.5451 N   0  0  0  0  0  0  0  0  0  0  0  0
    6.0652    1.3146   -2.5855 C   0  0  0  0  0  0  0  0  0  0  0  0
    6.7197    0.3034   -3.2833 C   0  0  0  0  0  0  0  0  0  0  0  0
    7.0499    0.4585   -4.6395 C   0  0  0  0  0  0  0  0  0  0  0  0
    6.7102    1.6598   -5.2799 C   0  0  0  0  0  0  0  0  0  0  0  0
    6.0529    2.6805   -4.5962 C   0  0  0  0  0  0  0  0  0  0  0  0
    5.7287    2.4974   -3.2518 C   0  0  0  0  0  0  0  0  0  0  0  0
    5.8176    1.1825   -1.5352 H   0  0  0  0  0  0  0  0  0  0  0  0
    6.9841   -0.6176   -2.7704 H   0  0  0  0  0  0  0  0  0  0  0  0
    6.9705    1.7981   -6.3259 H   0  0  0  0  0  0  0  0  0  0  0  0
    5.7973    3.6169   -5.0821 H   0  0  0  0  0  0  0  0  0  0  0  0
    4.9770    3.8383   -2.2967 S   0  0  2  0  0  0  0  0  0  0  0  0
    3.1479    4.8388   -0.7699 O   0  0  0  0  0  0  0  0  0  0  0  0
    3.3213    2.8358   -2.3756 O   0  0  0  0  0  0  0  0  0  0  0  0
    4.9008    4.9733   -3.2377 O   0  0  0  0  0  0  0  0  0  0  0  0
    7.7414   -0.6522   -5.3914 C   0  0  0  0  0  0  0  0  0  0  0  0
    8.4923   -1.1491   -4.7696 H   0  0  0  0  0  0  0  0  0  0  0  0
    7.0210   -1.4182   -5.7037 H   0  0  0  0  0  0  0  0  0  0  0  0
    8.2354   -0.2797   -6.2924 H   0  0  0  0  0  0  0  0  0  0  0  0
  1  7  1  0  0  0  0
  1  2  1  0  0  0  0
  2  8  1  0  0  0  0
  3  2  2  0  0  0  0
  3 14  1  0  0  0  0
  4  3  1  0  0  0  0
  5  4  2  0  0  0  0
  5  6  1  0  0  0  0
  6  1  2  0  0  0  0
  9  4  1  0  0  0  0
 10  5  1  0  0  0  0
 11  6  1  0  0  0  0
 11 13  2  0  0  0  0
 12 11  2  0  0  0  0
 15 14  1  0  0  0  0
 15 27  1  0  0  0  0
 16 22  1  0  0  0  0
 17 23  1  0  0  0  0
 17 16  2  0  0  0  0
 18 17  1  0  0  0  0
 19 18  2  0  0  0  0
 19 20  1  0  0  0  0
 20 21  2  0  0  0  0
 21 16  1  0  0  0  0
 24 19  1  0  0  0  0
 25 20  1  0  0  0  0
 26 21  1  6  0  0  0
 28 26  1  0  0  0  0
 28 15  1  0  0  0  0
 29 26  1  0  0  0  0
 30 31  1  0  0  0  0
 30 18  1  0  0  0  0
 32 30  1  0  0  0  0
 33 30  1  0  0  0  0
M  RAD  3  14   2  27   2  29   2
M  END
