Coordinates from ORCA-job p-NO2-Ph-N2-OTs-B3LYPG-6-31G_dp-scan-d09-49-n400
 OpenBabel08281821283D

 33 34  0  0  0  0  0  0  0  0999 V2000
   -1.2242   -0.5695   -1.9943 C   0  0  0  0  0  0  0  0  0  0  0  0
    0.1614   -0.5809   -1.9072 C   0  0  0  0  0  0  0  0  0  0  0  0
    0.9007    0.4956   -2.4236 C   0  0  0  0  0  0  0  0  0  0  0  0
    0.2715    1.5958   -3.0352 C   0  0  0  0  0  0  0  0  0  0  0  0
   -1.1177    1.5995   -3.1204 C   0  0  0  0  0  0  0  0  0  0  0  0
   -1.8369    0.5247   -2.6021 C   0  0  0  0  0  0  0  0  0  0  0  0
   -1.8297   -1.3791   -1.6081 H   0  0  0  0  0  0  0  0  0  0  0  0
    0.6867   -1.4095   -1.4459 H   0  0  0  0  0  0  0  0  0  0  0  0
    0.8655    2.4105   -3.4240 H   0  0  0  0  0  0  0  0  0  0  0  0
   -1.6476    2.4235   -3.5816 H   0  0  0  0  0  0  0  0  0  0  0  0
   -3.3133    0.5426   -2.7014 N   0  0  0  0  0  0  0  0  0  0  0  0
   -3.8308    1.5165   -3.2403 O   0  0  0  0  0  0  0  0  0  0  0  0
   -3.9198   -0.4200   -2.2379 O   0  0  0  0  0  0  0  0  0  0  0  0
    2.2961    0.3646   -2.2775 N   0  0  0  0  0  0  0  0  0  0  0  0
    3.2898    0.9510   -2.5071 N   0  0  0  0  0  0  0  0  0  0  0  0
    6.4464    2.2799   -2.6452 C   0  0  0  0  0  0  0  0  0  0  0  0
    7.5702    1.4610   -2.7339 C   0  0  0  0  0  0  0  0  0  0  0  0
    7.8751    0.7731   -3.9174 C   0  0  0  0  0  0  0  0  0  0  0  0
    7.0274    0.9359   -5.0231 C   0  0  0  0  0  0  0  0  0  0  0  0
    5.9000    1.7511   -4.9531 C   0  0  0  0  0  0  0  0  0  0  0  0
    5.6153    2.4134   -3.7577 C   0  0  0  0  0  0  0  0  0  0  0  0
    6.2200    2.8260   -1.7360 H   0  0  0  0  0  0  0  0  0  0  0  0
    8.2256    1.3599   -1.8725 H   0  0  0  0  0  0  0  0  0  0  0  0
    7.2596    0.4256   -5.9539 H   0  0  0  0  0  0  0  0  0  0  0  0
    5.2577    1.8952   -5.8152 H   0  0  0  0  0  0  0  0  0  0  0  0
    4.1754    3.4683   -3.6656 S   0  0  0  0  0  0  0  0  0  0  0  0
    4.3718    4.4226   -2.5706 O   0  0  0  0  0  0  0  0  0  0  0  0
    2.9565    2.4562   -3.3121 O   0  0  0  0  0  0  0  0  0  0  0  0
    3.8739    3.9603   -5.0122 O   0  0  0  0  0  0  0  0  0  0  0  0
    9.0783   -0.1357   -3.9943 C   0  0  0  0  0  0  0  0  0  0  0  0
    9.8878    0.2158   -3.3481 H   0  0  0  0  0  0  0  0  0  0  0  0
    8.8225   -1.1528   -3.6712 H   0  0  0  0  0  0  0  0  0  0  0  0
    9.4628   -0.2066   -5.0157 H   0  0  0  0  0  0  0  0  0  0  0  0
  1  2  1  0  0  0  0
  1  7  1  0  0  0  0
  2  8  1  0  0  0  0
  3 14  1  0  0  0  0
  3  2  2  0  0  0  0
  4  3  1  0  0  0  0
  5  4  2  0  0  0  0
  5  6  1  0  0  0  0
  6  1  2  0  0  0  0
  9  4  1  0  0  0  0
 10  5  1  0  0  0  0
 11  6  1  0  0  0  0
 11 13  2  0  0  0  0
 12 11  2  0  0  0  0
 15 14  1  0  0  0  0
 16 22  1  0  0  0  0
 17 16  1  0  0  0  0
 17 23  1  0  0  0  0
 18 17  2  0  0  0  0
 19 20  2  0  0  0  0
 19 18  1  0  0  0  0
 20 21  1  0  0  0  0
 21 26  1  0  0  0  0
 21 16  2  0  0  0  0
 24 19  1  0  0  0  0
 25 20  1  0  0  0  0
 26 28  1  0  0  0  0
 26 27  2  0  0  0  0
 28 15  1  0  0  0  0
 29 26  2  0  0  0  0
 30 18  1  0  0  0  0
 30 32  1  0  0  0  0
 30 31  1  0  0  0  0
 33 30  1  0  0  0  0
M  RAD  2  14   2  15   2
M  END
