Coordinates from ORCA-job p-NO2-Ph-N2-OTs-B3LYPG-6-31G_dp-scan-d09-49-n400
 OpenBabel08281821283D

 33 34  0  0  0  0  0  0  0  0999 V2000
   -0.8515   -0.6231   -2.3659 C   0  0  0  0  0  0  0  0  0  0  0  0
    0.2170   -0.6037   -3.2533 C   0  0  0  0  0  0  0  0  0  0  0  0
    0.7222    0.6168   -3.7276 C   0  0  0  0  0  0  0  0  0  0  0  0
    0.1155    1.8297   -3.3576 C   0  0  0  0  0  0  0  0  0  0  0  0
   -0.9757    1.8110   -2.4959 C   0  0  0  0  0  0  0  0  0  0  0  0
   -1.4330    0.5900   -2.0031 C   0  0  0  0  0  0  0  0  0  0  0  0
   -1.2497   -1.5478   -1.9691 H   0  0  0  0  0  0  0  0  0  0  0  0
    0.6792   -1.5251   -3.5894 H   0  0  0  0  0  0  0  0  0  0  0  0
    0.4883    2.7694   -3.7392 H   0  0  0  0  0  0  0  0  0  0  0  0
   -1.4687    2.7255   -2.1920 H   0  0  0  0  0  0  0  0  0  0  0  0
   -2.5774    0.5802   -1.0748 N   0  0  0  0  0  0  0  0  0  0  0  0
   -3.0762    1.6634   -0.7758 O   0  0  0  0  0  0  0  0  0  0  0  0
   -2.9602   -0.5117   -0.6578 O   0  0  0  0  0  0  0  0  0  0  0  0
    1.7785    0.4801   -4.6728 N   0  0  0  0  0  0  0  0  0  0  0  0
    2.7316    1.2264   -4.8428 N   0  0  0  0  0  0  0  0  0  0  0  0
    6.0163    2.2902   -2.6727 C   0  0  0  0  0  0  0  0  0  0  0  0
    7.1311    1.5018   -2.4019 C   0  0  0  0  0  0  0  0  0  0  0  0
    7.7378    0.7320   -3.4064 C   0  0  0  0  0  0  0  0  0  0  0  0
    7.2022    0.7767   -4.7023 C   0  0  0  0  0  0  0  0  0  0  0  0
    6.0882    1.5590   -4.9968 C   0  0  0  0  0  0  0  0  0  0  0  0
    5.5046    2.3070   -3.9726 C   0  0  0  0  0  0  0  0  0  0  0  0
    5.5577    2.8976   -1.9003 H   0  0  0  0  0  0  0  0  0  0  0  0
    7.5429    1.4906   -1.3966 H   0  0  0  0  0  0  0  0  0  0  0  0
    7.6682    0.1972   -5.4942 H   0  0  0  0  0  0  0  0  0  0  0  0
    5.6811    1.6029   -6.0002 H   0  0  0  0  0  0  0  0  0  0  0  0
    4.0939    3.3286   -4.3285 S   0  0  0  0  0  0  0  0  0  0  0  0
    3.9460    4.3551   -3.3162 O   0  0  0  0  0  0  0  0  0  0  0  0
    2.7839    2.3482   -3.9181 O   0  0  0  0  0  0  0  0  0  0  0  0
    4.0376    3.6038   -5.7558 O   0  0  0  0  0  0  0  0  0  0  0  0
    8.9305   -0.1382   -3.0945 C   0  0  0  0  0  0  0  0  0  0  0  0
    9.5468    0.2968   -2.3022 H   0  0  0  0  0  0  0  0  0  0  0  0
    8.6099   -1.1293   -2.7511 H   0  0  0  0  0  0  0  0  0  0  0  0
    9.5595   -0.2866   -3.9767 H   0  0  0  0  0  0  0  0  0  0  0  0
  1  6  1  0  0  0  0
  1  7  1  0  0  0  0
  2  1  2  0  0  0  0
  3  4  2  0  0  0  0
  3  2  1  0  0  0  0
  4  5  1  0  0  0  0
  5 10  1  0  0  0  0
  5  6  2  0  0  0  0
  6 11  1  0  0  0  0
  8  2  1  0  0  0  0
  9  4  1  0  0  0  0
 11 12  2  0  0  0  0
 11 13  2  0  0  0  0
 14  3  1  0  0  0  0
 15 14  1  0  0  0  0
 15 28  1  0  0  0  0
 16 17  1  0  0  0  0
 16 22  1  0  0  0  0
 17 23  1  0  0  0  0
 18 30  1  0  0  0  0
 18 17  2  0  0  0  0
 19 18  1  0  0  0  0
 20 19  2  0  0  0  0
 20 21  1  0  0  0  0
 21 16  2  0  0  0  0
 24 19  1  0  0  0  0
 25 20  1  0  0  0  0
 26 21  1  0  0  0  0
 26 28  1  0  0  0  0
 26 27  2  0  0  0  0
 29 26  2  0  0  0  0
 30 32  1  0  0  0  0
 30 31  1  0  0  0  0
 33 30  1  0  0  0  0
M  RAD  2  14   2  15   2
M  END
