Coordinates from ORCA-job p-NO2-Ph-N2-OTs-B3LYPG-6-31G_dp-scan-d09-49-n400
 OpenBabel08281821283D

 33 34  0  0  0  0  0  0  0  0999 V2000
   -1.2864    0.5045   -1.7784 C   0  0  0  0  0  0  0  0  0  0  0  0
   -0.5401    1.5812   -1.3227 C   0  0  0  0  0  0  0  0  0  0  0  0
    0.7095    1.8850   -1.8967 C   0  0  0  0  0  0  0  0  0  0  0  0
    1.2039    1.1004   -2.9583 C   0  0  0  0  0  0  0  0  0  0  0  0
    0.4513    0.0269   -3.4226 C   0  0  0  0  0  0  0  0  0  0  0  0
   -0.7749   -0.2593   -2.8264 C   0  0  0  0  0  0  0  0  0  0  0  0
   -2.2458    0.2494   -1.3480 H   0  0  0  0  0  0  0  0  0  0  0  0
   -0.8993    2.2096   -0.5153 H   0  0  0  0  0  0  0  0  0  0  0  0
    2.1550    1.3273   -3.4152 H   0  0  0  0  0  0  0  0  0  0  0  0
    0.8013   -0.5925   -4.2391 H   0  0  0  0  0  0  0  0  0  0  0  0
   -1.5567   -1.4053   -3.3212 N   0  0  0  0  0  0  0  0  0  0  0  0
   -1.0783   -2.0649   -4.2425 O   0  0  0  0  0  0  0  0  0  0  0  0
   -2.6365   -1.6322   -2.7780 O   0  0  0  0  0  0  0  0  0  0  0  0
    1.3128    3.0182   -1.3067 N   0  0  0  0  0  0  0  0  0  0  0  0
    2.4542    3.4071   -1.5451 N   0  0  0  0  0  0  0  0  0  0  0  0
    6.0634    1.3131   -2.5854 C   0  0  0  0  0  0  0  0  0  0  0  0
    6.7177    0.3020   -3.2834 C   0  0  0  0  0  0  0  0  0  0  0  0
    7.0488    0.4577   -4.6393 C   0  0  0  0  0  0  0  0  0  0  0  0
    6.7102    1.6596   -5.2792 C   0  0  0  0  0  0  0  0  0  0  0  0
    6.0530    2.6802   -4.5953 C   0  0  0  0  0  0  0  0  0  0  0  0
    5.7280    2.4965   -3.2512 C   0  0  0  0  0  0  0  0  0  0  0  0
    5.8151    1.1806   -1.5353 H   0  0  0  0  0  0  0  0  0  0  0  0
    6.9814   -0.6194   -2.7708 H   0  0  0  0  0  0  0  0  0  0  0  0
    6.9711    1.7984   -6.3249 H   0  0  0  0  0  0  0  0  0  0  0  0
    5.7982    3.6171   -5.0807 H   0  0  0  0  0  0  0  0  0  0  0  0
    4.9764    3.8375   -2.2962 S   0  0  2  0  0  0  0  0  0  0  0  0
    3.1363    4.8264   -0.7769 O   0  0  0  0  0  0  0  0  0  0  0  0
    3.3216    2.8380   -2.3759 O   0  0  0  0  0  0  0  0  0  0  0  0
    4.9014    4.9732   -3.2365 O   0  0  0  0  0  0  0  0  0  0  0  0
    7.7403   -0.6529   -5.3914 C   0  0  0  0  0  0  0  0  0  0  0  0
    8.4913   -1.1497   -4.7697 H   0  0  0  0  0  0  0  0  0  0  0  0
    7.0199   -1.4189   -5.7036 H   0  0  0  0  0  0  0  0  0  0  0  0
    8.2341   -0.2803   -6.2924 H   0  0  0  0  0  0  0  0  0  0  0  0
  1  7  1  0  0  0  0
  1  2  1  0  0  0  0
  2  8  1  0  0  0  0
  3  2  2  0  0  0  0
  3 14  1  0  0  0  0
  4  3  1  0  0  0  0
  5  4  2  0  0  0  0
  5  6  1  0  0  0  0
  6  1  2  0  0  0  0
  9  4  1  0  0  0  0
 10  5  1  0  0  0  0
 11  6  1  0  0  0  0
 11 13  2  0  0  0  0
 12 11  2  0  0  0  0
 15 14  1  0  0  0  0
 15 27  1  0  0  0  0
 16 22  1  0  0  0  0
 17 23  1  0  0  0  0
 17 16  2  0  0  0  0
 18 17  1  0  0  0  0
 19 18  2  0  0  0  0
 19 20  1  0  0  0  0
 20 21  2  0  0  0  0
 21 16  1  0  0  0  0
 24 19  1  0  0  0  0
 25 20  1  0  0  0  0
 26 21  1  6  0  0  0
 28 26  1  0  0  0  0
 28 15  1  0  0  0  0
 29 26  1  0  0  0  0
 30 31  1  0  0  0  0
 30 18  1  0  0  0  0
 32 30  1  0  0  0  0
 33 30  1  0  0  0  0
M  RAD  3  14   2  27   2  29   2
M  END
