Coordinates from ORCA-job p-NO2-Ph-N2-OTs-B3LYPG-6-31G_dp-scan-d09-49-n400
 OpenBabel08281821283D

 33 33  0  0  0  0  0  0  0  0999 V2000
   -1.4820   -0.1414   -3.5890 C   0  0  0  0  0  0  0  0  0  0  0  0
   -0.2880   -0.8069   -3.3480 C   0  0  0  0  0  0  0  0  0  0  0  0
    0.6677   -0.1681   -2.5484 C   0  0  0  0  0  0  0  0  0  0  0  0
    0.4870    1.0954   -1.9646 C   0  0  0  0  0  0  0  0  0  0  0  0
   -0.7226    1.7372   -2.2016 C   0  0  0  0  0  0  0  0  0  0  0  0
   -1.6732    1.1118   -3.0067 C   0  0  0  0  0  0  0  0  0  0  0  0
   -2.2614   -0.5699   -4.2055 H   0  0  0  0  0  0  0  0  0  0  0  0
   -0.0905   -1.7854   -3.7692 H   0  0  0  0  0  0  0  0  0  0  0  0
    1.2839    1.5278   -1.3694 H   0  0  0  0  0  0  0  0  0  0  0  0
   -0.9277    2.7161   -1.7880 H   0  0  0  0  0  0  0  0  0  0  0  0
   -2.9581    1.8090   -3.2561 N   0  0  0  0  0  0  0  0  0  0  0  0
   -3.1210    2.8951   -2.7112 O   0  0  0  0  0  0  0  0  0  0  0  0
   -3.7672    1.2448   -3.9874 O   0  0  0  0  0  0  0  0  0  0  0  0
    1.8637   -0.8351   -2.2889 N   0  0  0  0  0  0  0  0  0  0  0  0
    2.9261   -0.9887   -1.9419 N   0  0  0  0  0  0  0  0  0  0  0  0
    6.5030    2.0274   -2.3438 C   0  0  0  0  0  0  0  0  0  0  0  0
    7.7941    1.7868   -2.8021 C   0  0  0  0  0  0  0  0  0  0  0  0
    8.0283    1.3281   -4.1092 C   0  0  0  0  0  0  0  0  0  0  0  0
    6.9267    1.1201   -4.9462 C   0  0  0  0  0  0  0  0  0  0  0  0
    5.6244    1.3557   -4.4986 C   0  0  0  0  0  0  0  0  0  0  0  0
    5.4175    1.8052   -3.1971 C   0  0  0  0  0  0  0  0  0  0  0  0
    6.3335    2.3884   -1.3350 H   0  0  0  0  0  0  0  0  0  0  0  0
    8.6379    1.9619   -2.1388 H   0  0  0  0  0  0  0  0  0  0  0  0
    7.0871    0.7724   -5.9637 H   0  0  0  0  0  0  0  0  0  0  0  0
    4.7687    1.2022   -5.1468 H   0  0  0  0  0  0  0  0  0  0  0  0
    3.7511    2.1344   -2.6122 S   0  0  0  0  0  0  0  0  0  0  0  0
    3.7122    3.5559   -2.1996 O   0  0  0  0  0  0  0  0  0  0  0  0
    3.5667    1.1833   -1.4178 O   0  0  0  0  0  0  0  0  0  0  0  0
    2.8264    1.7302   -3.7067 O   0  0  0  0  0  0  0  0  0  0  0  0
    9.4360    1.0596   -4.5869 C   0  0  0  0  0  0  0  0  0  0  0  0
   10.1008    1.9019   -4.3646 H   0  0  0  0  0  0  0  0  0  0  0  0
    9.8616    0.1772   -4.0939 H   0  0  0  0  0  0  0  0  0  0  0  0
    9.4654    0.8825   -5.6656 H   0  0  0  0  0  0  0  0  0  0  0  0
  1  2  2  0  0  0  0
  1  6  1  0  0  0  0
  2  3  1  0  0  0  0
  3 14  1  0  0  0  0
  3  4  2  0  0  0  0
  4  9  1  0  0  0  0
  5  4  1  0  0  0  0
  5 10  1  0  0  0  0
  6  5  2  0  0  0  0
  7  1  1  0  0  0  0
  8  2  1  0  0  0  0
 11  6  1  0  0  0  0
 11 12  2  0  0  0  0
 13 11  2  0  0  0  0
 14 15  1  0  0  0  0
 16 22  1  0  0  0  0
 17 16  1  0  0  0  0
 17 23  1  0  0  0  0
 18 17  2  0  0  0  0
 19 20  2  0  0  0  0
 19 18  1  0  0  0  0
 20 21  1  0  0  0  0
 21 26  1  0  0  0  0
 21 16  2  0  0  0  0
 24 19  1  0  0  0  0
 25 20  1  0  0  0  0
 26 27  2  0  0  0  0
 26 28  1  0  0  0  0
 29 26  2  0  0  0  0
 30 31  1  0  0  0  0
 30 18  1  0  0  0  0
 30 32  1  0  0  0  0
 33 30  1  0  0  0  0
M  RAD  3  14   2  15   3  28   2
M  END
