Coordinates from ORCA-job p-NO2-Ph-N2-OTs-B3LYPG-6-31G_dp-scan-d09-49-n400
 OpenBabel08281821283D

 33 34  0  0  0  0  0  0  0  0999 V2000
   -1.1709   -0.4841   -1.8781 C   0  0  0  0  0  0  0  0  0  0  0  0
    0.1780   -0.3432   -1.5815 C   0  0  0  0  0  0  0  0  0  0  0  0
    0.9243    0.6958   -2.1632 C   0  0  0  0  0  0  0  0  0  0  0  0
    0.3238    1.6129   -3.0473 C   0  0  0  0  0  0  0  0  0  0  0  0
   -1.0292    1.4694   -3.3400 C   0  0  0  0  0  0  0  0  0  0  0  0
   -1.7494    0.4294   -2.7566 C   0  0  0  0  0  0  0  0  0  0  0  0
   -1.7734   -1.2745   -1.4496 H   0  0  0  0  0  0  0  0  0  0  0  0
    0.6759   -1.0269   -0.9031 H   0  0  0  0  0  0  0  0  0  0  0  0
    0.9064    2.4093   -3.4854 H   0  0  0  0  0  0  0  0  0  0  0  0
   -1.5312    2.1517   -4.0146 H   0  0  0  0  0  0  0  0  0  0  0  0
   -3.1847    0.2870   -3.0827 N   0  0  0  0  0  0  0  0  0  0  0  0
   -3.6711    1.1031   -3.8607 O   0  0  0  0  0  0  0  0  0  0  0  0
   -3.7933   -0.6401   -2.5536 O   0  0  0  0  0  0  0  0  0  0  0  0
    2.2800    0.7026   -1.7655 N   0  0  0  0  0  0  0  0  0  0  0  0
    3.2566    1.3386   -2.0023 N   0  0  0  0  0  0  0  0  0  0  0  0
    6.4705    2.1967   -2.6103 C   0  0  0  0  0  0  0  0  0  0  0  0
    7.5538    1.3398   -2.7914 C   0  0  0  0  0  0  0  0  0  0  0  0
    7.7876    0.7159   -4.0256 C   0  0  0  0  0  0  0  0  0  0  0  0
    6.9096    0.9812   -5.0871 C   0  0  0  0  0  0  0  0  0  0  0  0
    5.8205    1.8344   -4.9257 C   0  0  0  0  0  0  0  0  0  0  0  0
    5.6077    2.4314   -3.6817 C   0  0  0  0  0  0  0  0  0  0  0  0
    6.2994    2.6913   -1.6608 H   0  0  0  0  0  0  0  0  0  0  0  0
    8.2333    1.1579   -1.9628 H   0  0  0  0  0  0  0  0  0  0  0  0
    7.0868    0.5208   -6.0551 H   0  0  0  0  0  0  0  0  0  0  0  0
    5.1533    2.0554   -5.7516 H   0  0  0  0  0  0  0  0  0  0  0  0
    4.2188    3.5335   -3.4737 S   0  0  0  0  0  0  0  0  0  0  0  0
    4.4927    4.4285   -2.3500 O   0  0  0  0  0  0  0  0  0  0  0  0
    2.9687    2.5275   -3.1226 O   0  0  0  0  0  0  0  0  0  0  0  0
    3.8432    4.0761   -4.7787 O   0  0  0  0  0  0  0  0  0  0  0  0
    8.9471   -0.2342   -4.2028 C   0  0  0  0  0  0  0  0  0  0  0  0
    9.7934    0.0427   -3.5677 H   0  0  0  0  0  0  0  0  0  0  0  0
    8.6584   -1.2577   -3.9319 H   0  0  0  0  0  0  0  0  0  0  0  0
    9.2917   -0.2576   -5.2404 H   0  0  0  0  0  0  0  0  0  0  0  0
  1  2  1  0  0  0  0
  1  7  1  0  0  0  0
  2  8  1  0  0  0  0
  3 14  1  0  0  0  0
  3  2  2  0  0  0  0
  4  3  1  0  0  0  0
  5  4  2  0  0  0  0
  5  6  1  0  0  0  0
  6  1  2  0  0  0  0
  9  4  1  0  0  0  0
 10  5  1  0  0  0  0
 11  6  1  0  0  0  0
 11 13  2  0  0  0  0
 12 11  2  0  0  0  0
 15 14  1  0  0  0  0
 16 22  1  0  0  0  0
 17 16  1  0  0  0  0
 17 23  1  0  0  0  0
 18 17  2  0  0  0  0
 19 20  2  0  0  0  0
 19 18  1  0  0  0  0
 20 21  1  0  0  0  0
 21 26  1  0  0  0  0
 21 16  2  0  0  0  0
 24 19  1  0  0  0  0
 25 20  1  0  0  0  0
 26 28  1  0  0  0  0
 26 27  2  0  0  0  0
 28 15  1  0  0  0  0
 29 26  2  0  0  0  0
 30 18  1  0  0  0  0
 30 32  1  0  0  0  0
 30 31  1  0  0  0  0
 33 30  1  0  0  0  0
M  RAD  2  14   2  15   2
M  END
