Coordinates from ORCA-job p-NO2-Ph-N2-OTs-B3LYPG-6-31G_dp-scan-d09-49-n400
 OpenBabel08281821283D

 33 34  0  0  0  0  0  0  0  0999 V2000
   -0.9764   -0.5519   -2.0116 C   0  0  0  0  0  0  0  0  0  0  0  0
    0.3156   -0.2608   -1.5940 C   0  0  0  0  0  0  0  0  0  0  0  0
    0.9487    0.9208   -2.0143 C   0  0  0  0  0  0  0  0  0  0  0  0
    0.2686    1.8466   -2.8274 C   0  0  0  0  0  0  0  0  0  0  0  0
   -1.0354    1.5673   -3.2235 C   0  0  0  0  0  0  0  0  0  0  0  0
   -1.6312    0.3739   -2.8210 C   0  0  0  0  0  0  0  0  0  0  0  0
   -1.4836   -1.4609   -1.7153 H   0  0  0  0  0  0  0  0  0  0  0  0
    0.8581   -0.9377   -0.9435 H   0  0  0  0  0  0  0  0  0  0  0  0
    0.7491    2.7618   -3.1378 H   0  0  0  0  0  0  0  0  0  0  0  0
   -1.5925    2.2567   -3.8453 H   0  0  0  0  0  0  0  0  0  0  0  0
   -3.0099    0.0822   -3.2618 N   0  0  0  0  0  0  0  0  0  0  0  0
   -3.5660    0.9168   -3.9718 O   0  0  0  0  0  0  0  0  0  0  0  0
   -3.5099   -0.9774   -2.8904 O   0  0  0  0  0  0  0  0  0  0  0  0
    2.2510    1.0797   -1.4745 N   0  0  0  0  0  0  0  0  0  0  0  0
    3.1953    1.7522   -1.8089 N   0  0  0  0  0  0  0  0  0  0  0  0
    6.4233    2.1620   -2.6359 C   0  0  0  0  0  0  0  0  0  0  0  0
    7.4818    1.2732   -2.8078 C   0  0  0  0  0  0  0  0  0  0  0  0
    7.7019    0.6343   -4.0370 C   0  0  0  0  0  0  0  0  0  0  0  0
    6.8356    0.9162   -5.1041 C   0  0  0  0  0  0  0  0  0  0  0  0
    5.7703    1.8004   -4.9536 C   0  0  0  0  0  0  0  0  0  0  0  0
    5.5726    2.4122   -3.7141 C   0  0  0  0  0  0  0  0  0  0  0  0
    6.2614    2.6655   -1.6897 H   0  0  0  0  0  0  0  0  0  0  0  0
    8.1522    1.0772   -1.9752 H   0  0  0  0  0  0  0  0  0  0  0  0
    7.0025    0.4431   -6.0677 H   0  0  0  0  0  0  0  0  0  0  0  0
    5.1109    2.0317   -5.7827 H   0  0  0  0  0  0  0  0  0  0  0  0
    4.2183    3.5531   -3.5175 S   0  0  0  0  0  0  0  0  0  0  0  0
    4.5080    4.4564   -2.4097 O   0  0  0  0  0  0  0  0  0  0  0  0
    2.9363    2.5644   -3.1081 O   0  0  0  0  0  0  0  0  0  0  0  0
    3.8075    4.0519   -4.8250 O   0  0  0  0  0  0  0  0  0  0  0  0
    8.8340   -0.3498   -4.2030 C   0  0  0  0  0  0  0  0  0  0  0  0
    9.6791   -0.1025   -3.5543 H   0  0  0  0  0  0  0  0  0  0  0  0
    8.5091   -1.3648   -3.9417 H   0  0  0  0  0  0  0  0  0  0  0  0
    9.1921   -0.3790   -5.2358 H   0  0  0  0  0  0  0  0  0  0  0  0
  1  7  1  0  0  0  0
  1  2  1  0  0  0  0
  2  8  1  0  0  0  0
  3  2  2  0  0  0  0
  3 14  1  0  0  0  0
  4  3  1  0  0  0  0
  5  4  2  0  0  0  0
  5  6  1  0  0  0  0
  6  1  2  0  0  0  0
  9  4  1  0  0  0  0
 10  5  1  0  0  0  0
 11 13  2  0  0  0  0
 11  6  1  0  0  0  0
 12 11  2  0  0  0  0
 15 14  1  0  0  0  0
 16 22  1  0  0  0  0
 17 16  1  0  0  0  0
 17 23  1  0  0  0  0
 18 17  2  0  0  0  0
 19 20  2  0  0  0  0
 19 18  1  0  0  0  0
 20 21  1  0  0  0  0
 21 26  1  0  0  0  0
 21 16  2  0  0  0  0
 24 19  1  0  0  0  0
 25 20  1  0  0  0  0
 26 28  1  0  0  0  0
 26 27  2  0  0  0  0
 28 15  1  0  0  0  0
 29 26  2  0  0  0  0
 30 18  1  0  0  0  0
 30 32  1  0  0  0  0
 30 31  1  0  0  0  0
 33 30  1  0  0  0  0
M  RAD  2  14   2  15   2
M  END
