Coordinates from ORCA-job p-NO2-Ph-N2-OTs-B3LYPG-6-31G_dp-scan-d09-49-n400
 OpenBabel08281821283D

 33 33  0  0  0  0  0  0  0  0999 V2000
   -1.3841   -0.1393   -3.2369 C   0  0  0  0  0  0  0  0  0  0  0  0
   -0.1826   -0.6977   -2.8208 C   0  0  0  0  0  0  0  0  0  0  0  0
    0.7198    0.1353   -2.1507 C   0  0  0  0  0  0  0  0  0  0  0  0
    0.4979    1.4892   -1.8875 C   0  0  0  0  0  0  0  0  0  0  0  0
   -0.7153    2.0254   -2.3050 C   0  0  0  0  0  0  0  0  0  0  0  0
   -1.6288    1.2065   -2.9652 C   0  0  0  0  0  0  0  0  0  0  0  0
   -2.1280   -0.7243   -3.7625 H   0  0  0  0  0  0  0  0  0  0  0  0
    0.0564   -1.7361   -3.0153 H   0  0  0  0  0  0  0  0  0  0  0  0
    1.2788    2.0787   -1.4188 H   0  0  0  0  0  0  0  0  0  0  0  0
   -0.9524    3.0679   -2.1370 H   0  0  0  0  0  0  0  0  0  0  0  0
   -2.9171    1.7878   -3.4026 N   0  0  0  0  0  0  0  0  0  0  0  0
   -3.1214    2.9671   -3.1323 O   0  0  0  0  0  0  0  0  0  0  0  0
   -3.6931    1.0463   -3.9998 O   0  0  0  0  0  0  0  0  0  0  0  0
    1.9008   -0.4717   -1.6634 N   0  0  0  0  0  0  0  0  0  0  0  0
    2.5337   -1.1146   -1.0031 N   0  0  0  0  0  0  0  0  0  0  0  0
    6.2714    1.1129   -2.5185 C   0  0  0  0  0  0  0  0  0  0  0  0
    7.6251    1.0616   -2.8448 C   0  0  0  0  0  0  0  0  0  0  0  0
    8.0771    1.4213   -4.1232 C   0  0  0  0  0  0  0  0  0  0  0  0
    7.1330    1.8492   -5.0672 C   0  0  0  0  0  0  0  0  0  0  0  0
    5.7758    1.9077   -4.7547 C   0  0  0  0  0  0  0  0  0  0  0  0
    5.3508    1.5350   -3.4789 C   0  0  0  0  0  0  0  0  0  0  0  0
    5.9258    0.8543   -1.5237 H   0  0  0  0  0  0  0  0  0  0  0  0
    8.3444    0.7451   -2.0934 H   0  0  0  0  0  0  0  0  0  0  0  0
    7.4663    2.1484   -6.0577 H   0  0  0  0  0  0  0  0  0  0  0  0
    5.0486    2.2581   -5.4790 H   0  0  0  0  0  0  0  0  0  0  0  0
    3.6015    1.5775   -3.0893 S   0  0  0  0  0  0  0  0  0  0  0  0
    2.9898    2.6345   -3.9162 O   0  0  0  0  0  0  0  0  0  0  0  0
    3.4934    1.7679   -1.6099 O   0  0  0  0  0  0  0  0  0  0  0  0
    3.0827    0.1824   -3.4481 O   0  0  0  0  0  0  0  0  0  0  0  0
    9.5423    1.3323   -4.4783 C   0  0  0  0  0  0  0  0  0  0  0  0
   10.1785    1.5362   -3.6117 H   0  0  0  0  0  0  0  0  0  0  0  0
    9.8002    0.3287   -4.8398 H   0  0  0  0  0  0  0  0  0  0  0  0
    9.8068    2.0407   -5.2688 H   0  0  0  0  0  0  0  0  0  0  0  0
  1  6  2  0  0  0  0
  1  2  1  0  0  0  0
  2  3  2  0  0  0  0
  3  4  1  0  0  0  0
  3 14  1  0  0  0  0
  4  9  1  0  0  0  0
  5 10  1  0  0  0  0
  5  4  2  0  0  0  0
  6  5  1  0  0  0  0
  7  1  1  0  0  0  0
  8  2  1  0  0  0  0
 11 12  2  0  0  0  0
 11  6  1  0  0  0  0
 13 11  2  0  0  0  0
 14 15  1  0  0  0  0
 16 22  1  0  0  0  0
 17 16  1  0  0  0  0
 17 23  1  0  0  0  0
 18 17  2  0  0  0  0
 19 20  2  0  0  0  0
 19 18  1  0  0  0  0
 20 21  1  0  0  0  0
 21 26  1  0  0  0  0
 21 16  2  0  0  0  0
 24 19  1  0  0  0  0
 25 20  1  0  0  0  0
 26 28  1  0  0  0  0
 27 26  2  0  0  0  0
 29 26  2  0  0  0  0
 30 18  1  0  0  0  0
 30 31  1  0  0  0  0
 32 30  1  0  0  0  0
 33 30  1  0  0  0  0
M  RAD  3  14   2  15   3  28   2
M  END
