Coordinates from ORCA-job p-NO2-Ph-N2-OTs-B3LYPG-6-31G_dp-scan-d09-49-n400
 OpenBabel08281821283D

 33 34  0  0  0  0  0  0  0  0999 V2000
   -1.2392   -0.6235   -2.6270 C   0  0  0  0  0  0  0  0  0  0  0  0
   -0.1351   -0.6408   -3.4692 C   0  0  0  0  0  0  0  0  0  0  0  0
    0.6392    0.5183   -3.6406 C   0  0  0  0  0  0  0  0  0  0  0  0
    0.2953    1.7204   -2.9945 C   0  0  0  0  0  0  0  0  0  0  0  0
   -0.8239    1.7405   -2.1685 C   0  0  0  0  0  0  0  0  0  0  0  0
   -1.5638    0.5730   -1.9918 C   0  0  0  0  0  0  0  0  0  0  0  0
   -1.8498   -1.5021   -2.4629 H   0  0  0  0  0  0  0  0  0  0  0  0
    0.1482   -1.5419   -4.0008 H   0  0  0  0  0  0  0  0  0  0  0  0
    0.8914    2.6089   -3.1407 H   0  0  0  0  0  0  0  0  0  0  0  0
   -1.1253    2.6447   -1.6553 H   0  0  0  0  0  0  0  0  0  0  0  0
   -2.7416    0.6052   -1.0996 N   0  0  0  0  0  0  0  0  0  0  0  0
   -3.0104    1.6737   -0.5567 O   0  0  0  0  0  0  0  0  0  0  0  0
   -3.3729   -0.4399   -0.9605 O   0  0  0  0  0  0  0  0  0  0  0  0
    1.7186    0.3489   -4.5405 N   0  0  0  0  0  0  0  0  0  0  0  0
    2.7031    0.9652   -4.8145 N   0  0  0  0  0  0  0  0  0  0  0  0
    6.1242    2.4252   -2.7641 C   0  0  0  0  0  0  0  0  0  0  0  0
    7.2624    1.6839   -2.4566 C   0  0  0  0  0  0  0  0  0  0  0  0
    7.8479    0.8269   -3.4006 C   0  0  0  0  0  0  0  0  0  0  0  0
    7.2665    0.7366   -4.6738 C   0  0  0  0  0  0  0  0  0  0  0  0
    6.1281    1.4699   -5.0011 C   0  0  0  0  0  0  0  0  0  0  0  0
    5.5634    2.3064   -4.0370 C   0  0  0  0  0  0  0  0  0  0  0  0
    5.6841    3.1021   -2.0399 H   0  0  0  0  0  0  0  0  0  0  0  0
    7.7096    1.7789   -1.4709 H   0  0  0  0  0  0  0  0  0  0  0  0
    7.7167    0.0909   -5.4231 H   0  0  0  0  0  0  0  0  0  0  0  0
    5.6882    1.4129   -5.9903 H   0  0  0  0  0  0  0  0  0  0  0  0
    4.1067    3.2547   -4.4418 S   0  0  0  0  0  0  0  0  0  0  0  0
    4.0473    4.4292   -3.5731 O   0  0  0  0  0  0  0  0  0  0  0  0
    2.8758    2.3086   -3.8994 O   0  0  0  0  0  0  0  0  0  0  0  0
    4.0092    3.3701   -5.8933 O   0  0  0  0  0  0  0  0  0  0  0  0
    9.0665    0.0081   -3.0497 C   0  0  0  0  0  0  0  0  0  0  0  0
    9.6697    0.4976   -2.2797 H   0  0  0  0  0  0  0  0  0  0  0  0
    8.7779   -0.9766   -2.6618 H   0  0  0  0  0  0  0  0  0  0  0  0
    9.7002   -0.1612   -3.9251 H   0  0  0  0  0  0  0  0  0  0  0  0
  1  7  1  0  0  0  0
  1  6  2  0  0  0  0
  2  1  1  0  0  0  0
  3  2  2  0  0  0  0
  3  4  1  0  0  0  0
  4  5  2  0  0  0  0
  5  6  1  0  0  0  0
  5 10  1  0  0  0  0
  6 11  1  0  0  0  0
  8  2  1  0  0  0  0
  9  4  1  0  0  0  0
 11 13  2  0  0  0  0
 11 12  2  0  0  0  0
 14  3  1  0  0  0  0
 15 14  1  0  0  0  0
 15 28  1  0  0  0  0
 16 17  1  0  0  0  0
 16 22  1  0  0  0  0
 17 23  1  0  0  0  0
 18 30  1  0  0  0  0
 18 17  2  0  0  0  0
 19 18  1  0  0  0  0
 20 19  2  0  0  0  0
 20 21  1  0  0  0  0
 21 16  2  0  0  0  0
 24 19  1  0  0  0  0
 25 20  1  0  0  0  0
 26 21  1  0  0  0  0
 26 28  1  0  0  0  0
 26 27  2  0  0  0  0
 29 26  2  0  0  0  0
 30 32  1  0  0  0  0
 30 31  1  0  0  0  0
 33 30  1  0  0  0  0
M  RAD  2  14   2  15   2
M  END
