Coordinates from ORCA-job p-NO2-Ph-N2-OTs-B3LYPG-6-31G_dp-scan-d09-49-n400
 OpenBabel08281821283D

 33 33  0  0  0  0  0  0  0  0999 V2000
   -1.7323   -0.1216   -3.4457 C   0  0  0  0  0  0  0  0  0  0  0  0
   -0.4872   -0.7374   -3.4523 C   0  0  0  0  0  0  0  0  0  0  0  0
    0.5794   -0.1047   -2.8019 C   0  0  0  0  0  0  0  0  0  0  0  0
    0.4461    1.1180   -2.1260 C   0  0  0  0  0  0  0  0  0  0  0  0
   -0.8080    1.7188   -2.1164 C   0  0  0  0  0  0  0  0  0  0  0  0
   -1.8652    1.0930   -2.7751 C   0  0  0  0  0  0  0  0  0  0  0  0
   -2.5908   -0.5598   -3.9373 H   0  0  0  0  0  0  0  0  0  0  0  0
   -0.3308   -1.6861   -3.9521 H   0  0  0  0  0  0  0  0  0  0  0  0
    1.3065    1.5597   -1.6392 H   0  0  0  0  0  0  0  0  0  0  0  0
   -0.9717    2.6646   -1.6162 H   0  0  0  0  0  0  0  0  0  0  0  0
   -3.1963    1.7441   -2.7582 N   0  0  0  0  0  0  0  0  0  0  0  0
   -3.2962    2.8031   -2.1472 O   0  0  0  0  0  0  0  0  0  0  0  0
   -4.1062    1.1743   -3.3546 O   0  0  0  0  0  0  0  0  0  0  0  0
    1.8140   -0.7753   -2.8309 N   0  0  0  0  0  0  0  0  0  0  0  0
    2.9430   -0.7402   -2.6243 N   0  0  0  0  0  0  0  0  0  0  0  0
    6.5018    2.2095   -2.4757 C   0  0  0  0  0  0  0  0  0  0  0  0
    7.8370    1.9693   -2.7882 C   0  0  0  0  0  0  0  0  0  0  0  0
    8.1997    1.3270   -3.9822 C   0  0  0  0  0  0  0  0  0  0  0  0
    7.1829    0.9382   -4.8641 C   0  0  0  0  0  0  0  0  0  0  0  0
    5.8401    1.1684   -4.5642 C   0  0  0  0  0  0  0  0  0  0  0  0
    5.5070    1.7993   -3.3665 C   0  0  0  0  0  0  0  0  0  0  0  0
    6.2289    2.7228   -1.5599 H   0  0  0  0  0  0  0  0  0  0  0  0
    8.6126    2.2924   -2.0986 H   0  0  0  0  0  0  0  0  0  0  0  0
    7.4447    0.4559   -5.8025 H   0  0  0  0  0  0  0  0  0  0  0  0
    5.0534    0.8825   -5.2534 H   0  0  0  0  0  0  0  0  0  0  0  0
    3.7865    2.0927   -2.9604 S   0  0  0  0  0  0  0  0  0  0  0  0
    3.6930    3.4330   -2.3573 O   0  0  0  0  0  0  0  0  0  0  0  0
    3.4552    1.0284   -1.8577 O   0  0  0  0  0  0  0  0  0  0  0  0
    2.9862    1.8013   -4.1670 O   0  0  0  0  0  0  0  0  0  0  0  0
    9.6496    1.0461   -4.2978 C   0  0  0  0  0  0  0  0  0  0  0  0
   10.3078    1.8087   -3.8712 H   0  0  0  0  0  0  0  0  0  0  0  0
    9.9621    0.0796   -3.8830 H   0  0  0  0  0  0  0  0  0  0  0  0
    9.8253    1.0091   -5.3769 H   0  0  0  0  0  0  0  0  0  0  0  0
  1  6  1  0  0  0  0
  2  1  2  0  0  0  0
  2  3  1  0  0  0  0
  3  4  2  0  0  0  0
  4  5  1  0  0  0  0
  4  9  1  0  0  0  0
  5 10  1  0  0  0  0
  6 11  1  0  0  0  0
  6  5  2  0  0  0  0
  7  1  1  0  0  0  0
  8  2  1  0  0  0  0
 11 12  2  0  0  0  0
 13 11  2  0  0  0  0
 14  3  1  0  0  0  0
 14 15  2  0  0  0  0
 16 22  1  0  0  0  0
 17 16  1  0  0  0  0
 17 23  1  0  0  0  0
 18 17  2  0  0  0  0
 19 20  2  0  0  0  0
 19 18  1  0  0  0  0
 20 21  1  0  0  0  0
 21 26  1  0  0  0  0
 21 16  2  0  0  0  0
 24 19  1  0  0  0  0
 25 20  1  0  0  0  0
 26 27  2  0  0  0  0
 26 28  1  0  0  0  0
 29 26  2  0  0  0  0
 30 18  1  0  0  0  0
 30 32  1  0  0  0  0
 30 31  1  0  0  0  0
 33 30  1  0  0  0  0
M  RAD  2  15   2  28   2
M  END
