Coordinates from ORCA-job p-NO2-Ph-N2-OTs-B3LYPG-6-31G_dp-scan-d09-49-n400
 OpenBabel08281821283D

 33 33  0  0  0  0  0  0  0  0999 V2000
   -1.2003    0.3792   -1.7195 C   0  0  0  0  0  0  0  0  0  0  0  0
   -0.4424    1.4252   -1.2114 C   0  0  0  0  0  0  0  0  0  0  0  0
    0.7372    1.8358   -1.8580 C   0  0  0  0  0  0  0  0  0  0  0  0
    1.1492    1.2009   -3.0458 C   0  0  0  0  0  0  0  0  0  0  0  0
    0.3825    0.1619   -3.5644 C   0  0  0  0  0  0  0  0  0  0  0  0
   -0.7715   -0.2365   -2.8936 C   0  0  0  0  0  0  0  0  0  0  0  0
   -2.1076    0.0404   -1.2368 H   0  0  0  0  0  0  0  0  0  0  0  0
   -0.7405    1.9455   -0.3083 H   0  0  0  0  0  0  0  0  0  0  0  0
    2.0464    1.5155   -3.5561 H   0  0  0  0  0  0  0  0  0  0  0  0
    0.6676   -0.3447   -4.4777 H   0  0  0  0  0  0  0  0  0  0  0  0
   -1.5684   -1.3475   -3.4471 N   0  0  0  0  0  0  0  0  0  0  0  0
   -1.1656   -1.8749   -4.4821 O   0  0  0  0  0  0  0  0  0  0  0  0
   -2.5836   -1.6752   -2.8363 O   0  0  0  0  0  0  0  0  0  0  0  0
    1.3653    2.9294   -1.2014 N   0  0  0  0  0  0  0  0  0  0  0  0
    2.4728    3.3917   -1.4308 N   0  0  0  0  0  0  0  0  0  0  0  0
    6.0350    1.3569   -2.5848 C   0  0  0  0  0  0  0  0  0  0  0  0
    6.7251    0.3331   -3.2273 C   0  0  0  0  0  0  0  0  0  0  0  0
    7.0470    0.4221   -4.5918 C   0  0  0  0  0  0  0  0  0  0  0  0
    6.6609    1.5704   -5.2983 C   0  0  0  0  0  0  0  0  0  0  0  0
    5.9679    2.6044   -4.6707 C   0  0  0  0  0  0  0  0  0  0  0  0
    5.6518    2.4838   -3.3185 C   0  0  0  0  0  0  0  0  0  0  0  0
    5.7941    1.2764   -1.5280 H   0  0  0  0  0  0  0  0  0  0  0  0
    7.0249   -0.5463   -2.6633 H   0  0  0  0  0  0  0  0  0  0  0  0
    6.9138    1.6587   -6.3514 H   0  0  0  0  0  0  0  0  0  0  0  0
    5.6779    3.5026   -5.2070 H   0  0  0  0  0  0  0  0  0  0  0  0
    4.8558    3.8608   -2.4578 S   0  0  2  0  0  0  0  0  0  0  0  0
    3.5219    5.2788   -0.4207 O   0  0  0  0  0  0  0  0  0  0  0  0
    3.2899    2.8561   -2.3823 O   0  0  0  0  0  0  0  0  0  0  0  0
    4.6830    4.9202   -3.4733 O   0  0  0  0  0  0  0  0  0  0  0  0
    7.7817   -0.7022   -5.2802 C   0  0  0  0  0  0  0  0  0  0  0  0
    8.5714   -1.1125   -4.6434 H   0  0  0  0  0  0  0  0  0  0  0  0
    7.0982   -1.5259   -5.5198 H   0  0  0  0  0  0  0  0  0  0  0  0
    8.2366   -0.3695   -6.2165 H   0  0  0  0  0  0  0  0  0  0  0  0
  1  7  1  0  0  0  0
  1  2  1  0  0  0  0
  2  8  1  0  0  0  0
  3  2  2  0  0  0  0
  3 14  1  0  0  0  0
  4  3  1  0  0  0  0
  5  4  2  0  0  0  0
  5  6  1  0  0  0  0
  6  1  2  0  0  0  0
  9  4  1  0  0  0  0
 10  5  1  0  0  0  0
 11  6  1  0  0  0  0
 11 13  2  0  0  0  0
 12 11  2  0  0  0  0
 15 14  2  0  0  0  0
 16 22  1  0  0  0  0
 17 23  1  0  0  0  0
 17 16  1  0  0  0  0
 18 17  2  0  0  0  0
 19 20  2  0  0  0  0
 19 18  1  0  0  0  0
 20 21  1  0  0  0  0
 21 16  2  0  0  0  0
 21 26  1  0  0  0  0
 24 19  1  0  0  0  0
 25 20  1  0  0  0  0
 26 29  1  6  0  0  0
 26 28  1  0  0  0  0
 28 15  1  0  0  0  0
 30 31  1  0  0  0  0
 30 18  1  0  0  0  0
 32 30  1  0  0  0  0
 33 30  1  0  0  0  0
M  RAD  2  27   3  29   2
M  END
