Coordinates from ORCA-job p-NO2-Ph-N2-OTs-B3LYPG-6-31G_dp-scan-d09-49-n400
 OpenBabel08281821283D

 33 34  0  0  0  0  0  0  0  0999 V2000
   -0.5798    0.1030   -1.7632 C   0  0  0  0  0  0  0  0  0  0  0  0
    0.0790    1.0634   -1.0038 C   0  0  0  0  0  0  0  0  0  0  0  0
    0.7351    2.1314   -1.6311 C   0  0  0  0  0  0  0  0  0  0  0  0
    0.7051    2.2620   -3.0296 C   0  0  0  0  0  0  0  0  0  0  0  0
    0.0528    1.3011   -3.7907 C   0  0  0  0  0  0  0  0  0  0  0  0
   -0.5802    0.2353   -3.1495 C   0  0  0  0  0  0  0  0  0  0  0  0
   -1.0857   -0.7374   -1.3054 H   0  0  0  0  0  0  0  0  0  0  0  0
    0.0939    0.9975    0.0789 H   0  0  0  0  0  0  0  0  0  0  0  0
    1.2173    3.0839   -3.5159 H   0  0  0  0  0  0  0  0  0  0  0  0
    0.0247    1.3650   -4.8713 H   0  0  0  0  0  0  0  0  0  0  0  0
   -1.2714   -0.7768   -3.9601 N   0  0  0  0  0  0  0  0  0  0  0  0
   -1.2571   -0.6372   -5.1827 O   0  0  0  0  0  0  0  0  0  0  0  0
   -1.8237   -1.7037   -3.3666 O   0  0  0  0  0  0  0  0  0  0  0  0
    1.2574    3.1206   -0.7677 N   0  0  0  0  0  0  0  0  0  0  0  0
    2.4377    3.5915   -0.8856 N   0  0  0  0  0  0  0  0  0  0  0  0
    6.2338    1.5684   -2.5944 C   0  0  0  0  0  0  0  0  0  0  0  0
    7.1134    0.5827   -3.0365 C   0  0  0  0  0  0  0  0  0  0  0  0
    7.1543    0.1994   -4.3862 C   0  0  0  0  0  0  0  0  0  0  0  0
    6.2936    0.8391   -5.2887 C   0  0  0  0  0  0  0  0  0  0  0  0
    5.4098    1.8308   -4.8633 C   0  0  0  0  0  0  0  0  0  0  0  0
    5.3836    2.1796   -3.5160 C   0  0  0  0  0  0  0  0  0  0  0  0
    6.2041    1.8484   -1.5456 H   0  0  0  0  0  0  0  0  0  0  0  0
    7.7778    0.1001   -2.3242 H   0  0  0  0  0  0  0  0  0  0  0  0
    6.3170    0.5593   -6.3389 H   0  0  0  0  0  0  0  0  0  0  0  0
    4.7423    2.3377   -5.5531 H   0  0  0  0  0  0  0  0  0  0  0  0
    4.2673    3.5161   -2.9972 S   0  0  2  0  0  0  0  0  0  0  0  0
    2.9564    4.2600   -0.5242 O   0  0  0  0  0  0  0  0  0  0  0  0
    3.3810    2.5402   -2.0183 O   0  0  0  0  0  0  0  0  0  0  0  0
    3.4704    3.9086   -4.2066 O   0  0  0  0  0  0  0  0  0  0  0  0
    8.0870   -0.8938   -4.8502 C   0  0  0  0  0  0  0  0  0  0  0  0
    8.9772   -0.9578   -4.2183 H   0  0  0  0  0  0  0  0  0  0  0  0
    7.5913   -1.8722   -4.8167 H   0  0  0  0  0  0  0  0  0  0  0  0
    8.4128   -0.7313   -5.8818 H   0  0  0  0  0  0  0  0  0  0  0  0
  1  7  1  0  0  0  0
  1  2  2  0  0  0  0
  2  8  1  0  0  0  0
  3  2  1  0  0  0  0
  3 14  1  0  0  0  0
  4  3  2  0  0  0  0
  5  6  2  0  0  0  0
  5  4  1  0  0  0  0
  6  1  1  0  0  0  0
  9  4  1  0  0  0  0
 10  5  1  0  0  0  0
 11 13  2  0  0  0  0
 11  6  1  0  0  0  0
 12 11  2  0  0  0  0
 15 14  1  0  0  0  0
 15 27  1  0  0  0  0
 16 22  1  0  0  0  0
 17 16  1  0  0  0  0
 17 23  1  0  0  0  0
 18 17  2  0  0  0  0
 19 20  2  0  0  0  0
 19 18  1  0  0  0  0
 20 21  1  0  0  0  0
 21 26  1  0  0  0  0
 21 16  2  0  0  0  0
 24 19  1  0  0  0  0
 25 20  1  0  0  0  0
 26 29  1  6  0  0  0
 26 28  1  0  0  0  0
 28 15  1  0  0  0  0
 30 32  1  0  0  0  0
 30 18  1  0  0  0  0
 30 31  1  0  0  0  0
 33 30  1  0  0  0  0
M  RAD  3  14   2  27   2  29   2
M  END
