Coordinates from ORCA-job p-NO2-Ph-N2-OTs-B3LYPG-6-31G_dp-scan-d09-49-n400
 OpenBabel08281821283D

 33 33  0  0  0  0  0  0  0  0999 V2000
   -1.3801   -0.1301   -3.2470 C   0  0  0  0  0  0  0  0  0  0  0  0
   -0.1876   -0.6957   -2.8153 C   0  0  0  0  0  0  0  0  0  0  0  0
    0.7139    0.1337   -2.1394 C   0  0  0  0  0  0  0  0  0  0  0  0
    0.5002    1.4906   -1.8860 C   0  0  0  0  0  0  0  0  0  0  0  0
   -0.7044    2.0343   -2.3191 C   0  0  0  0  0  0  0  0  0  0  0  0
   -1.6170    1.2190   -2.9846 C   0  0  0  0  0  0  0  0  0  0  0  0
   -2.1229   -0.7120   -3.7775 H   0  0  0  0  0  0  0  0  0  0  0  0
    0.0457   -1.7367   -3.0023 H   0  0  0  0  0  0  0  0  0  0  0  0
    1.2793    2.0764   -1.4101 H   0  0  0  0  0  0  0  0  0  0  0  0
   -0.9349    3.0794   -2.1590 H   0  0  0  0  0  0  0  0  0  0  0  0
   -2.8960    1.8082   -3.4388 N   0  0  0  0  0  0  0  0  0  0  0  0
   -3.0941    2.9903   -3.1764 O   0  0  0  0  0  0  0  0  0  0  0  0
   -3.6712    1.0698   -4.0408 O   0  0  0  0  0  0  0  0  0  0  0  0
    1.8856   -0.4777   -1.6365 N   0  0  0  0  0  0  0  0  0  0  0  0
    2.5122   -1.1156   -0.9658 N   0  0  0  0  0  0  0  0  0  0  0  0
    6.2846    1.1021   -2.5094 C   0  0  0  0  0  0  0  0  0  0  0  0
    7.6355    1.0663   -2.8492 C   0  0  0  0  0  0  0  0  0  0  0  0
    8.0707    1.4314   -4.1318 C   0  0  0  0  0  0  0  0  0  0  0  0
    7.1126    1.8490   -5.0663 C   0  0  0  0  0  0  0  0  0  0  0  0
    5.7579    1.8917   -4.7405 C   0  0  0  0  0  0  0  0  0  0  0  0
    5.3500    1.5138   -3.4606 C   0  0  0  0  0  0  0  0  0  0  0  0
    5.9517    0.8390   -1.5114 H   0  0  0  0  0  0  0  0  0  0  0  0
    8.3657    0.7575   -2.1051 H   0  0  0  0  0  0  0  0  0  0  0  0
    7.4326    2.1522   -6.0599 H   0  0  0  0  0  0  0  0  0  0  0  0
    5.0197    2.2340   -5.4575 H   0  0  0  0  0  0  0  0  0  0  0  0
    3.6047    1.5361   -3.0538 S   0  0  0  0  0  0  0  0  0  0  0  0
    2.9713    2.5912   -3.8672 O   0  0  0  0  0  0  0  0  0  0  0  0
    3.5075    1.7198   -1.5729 O   0  0  0  0  0  0  0  0  0  0  0  0
    3.0959    0.1390   -3.4165 O   0  0  0  0  0  0  0  0  0  0  0  0
    9.5332    1.3590   -4.5015 C   0  0  0  0  0  0  0  0  0  0  0  0
   10.1757    1.5632   -3.6397 H   0  0  0  0  0  0  0  0  0  0  0  0
    9.7971    0.3603   -4.8724 H   0  0  0  0  0  0  0  0  0  0  0  0
    9.7832    2.0752   -5.2899 H   0  0  0  0  0  0  0  0  0  0  0  0
  1  6  2  0  0  0  0
  1  2  1  0  0  0  0
  2  3  2  0  0  0  0
  3  4  1  0  0  0  0
  3 14  1  0  0  0  0
  4  9  1  0  0  0  0
  5 10  1  0  0  0  0
  5  4  2  0  0  0  0
  6  5  1  0  0  0  0
  7  1  1  0  0  0  0
  8  2  1  0  0  0  0
 11 12  2  0  0  0  0
 11  6  1  0  0  0  0
 13 11  2  0  0  0  0
 14 15  1  0  0  0  0
 16 22  1  0  0  0  0
 17 16  1  0  0  0  0
 17 23  1  0  0  0  0
 18 17  2  0  0  0  0
 19 20  2  0  0  0  0
 19 18  1  0  0  0  0
 20 21  1  0  0  0  0
 21 26  1  0  0  0  0
 21 16  2  0  0  0  0
 24 19  1  0  0  0  0
 25 20  1  0  0  0  0
 26 28  1  0  0  0  0
 27 26  2  0  0  0  0
 29 26  2  0  0  0  0
 30 18  1  0  0  0  0
 30 31  1  0  0  0  0
 32 30  1  0  0  0  0
 33 30  1  0  0  0  0
M  RAD  3  14   2  15   3  28   2
M  END
