Coordinates from ORCA-job p-NO2-Ph-N2-OTs-B3LYPG-6-31G_dp-scan-d09-49-n400
 OpenBabel08281821283D

 33 34  0  0  0  0  0  0  0  0999 V2000
   -0.5750    0.0993   -1.7671 C   0  0  0  0  0  0  0  0  0  0  0  0
    0.0835    1.0593   -1.0070 C   0  0  0  0  0  0  0  0  0  0  0  0
    0.7399    2.1276   -1.6336 C   0  0  0  0  0  0  0  0  0  0  0  0
    0.7094    2.2594   -3.0321 C   0  0  0  0  0  0  0  0  0  0  0  0
    0.0567    1.2993   -3.7938 C   0  0  0  0  0  0  0  0  0  0  0  0
   -0.5758    0.2328   -3.1533 C   0  0  0  0  0  0  0  0  0  0  0  0
   -1.0807   -0.7415   -1.3099 H   0  0  0  0  0  0  0  0  0  0  0  0
    0.0983    0.9928    0.0756 H   0  0  0  0  0  0  0  0  0  0  0  0
    1.2208    3.0823   -3.5176 H   0  0  0  0  0  0  0  0  0  0  0  0
    0.0279    1.3643   -4.8743 H   0  0  0  0  0  0  0  0  0  0  0  0
   -1.2670   -0.7788   -3.9647 N   0  0  0  0  0  0  0  0  0  0  0  0
   -1.2526   -0.6383   -5.1872 O   0  0  0  0  0  0  0  0  0  0  0  0
   -1.8187   -1.7064   -3.3719 O   0  0  0  0  0  0  0  0  0  0  0  0
    1.2635    3.1159   -0.7701 N   0  0  0  0  0  0  0  0  0  0  0  0
    2.4418    3.5864   -0.8881 N   0  0  0  0  0  0  0  0  0  0  0  0
    6.2376    1.5769   -2.5929 C   0  0  0  0  0  0  0  0  0  0  0  0
    7.1134    0.5881   -3.0354 C   0  0  0  0  0  0  0  0  0  0  0  0
    7.1468    0.1991   -4.3837 C   0  0  0  0  0  0  0  0  0  0  0  0
    6.2827    0.8365   -5.2846 C   0  0  0  0  0  0  0  0  0  0  0  0
    5.4025    1.8312   -4.8589 C   0  0  0  0  0  0  0  0  0  0  0  0
    5.3836    2.1855   -3.5129 C   0  0  0  0  0  0  0  0  0  0  0  0
    6.2138    1.8616   -1.5452 H   0  0  0  0  0  0  0  0  0  0  0  0
    7.7807    0.1074   -2.3246 H   0  0  0  0  0  0  0  0  0  0  0  0
    6.3005    0.5524   -6.3337 H   0  0  0  0  0  0  0  0  0  0  0  0
    4.7326    2.3366   -5.5476 H   0  0  0  0  0  0  0  0  0  0  0  0
    4.2725    3.5258   -2.9937 S   0  0  2  0  0  0  0  0  0  0  0  0
    2.9615    4.2639   -0.5194 O   0  0  0  0  0  0  0  0  0  0  0  0
    3.3828    2.5462   -2.0170 O   0  0  0  0  0  0  0  0  0  0  0  0
    3.4758    3.9211   -4.2019 O   0  0  0  0  0  0  0  0  0  0  0  0
    8.0755   -0.8974   -4.8479 C   0  0  0  0  0  0  0  0  0  0  0  0
    8.9686   -0.9604   -4.2199 H   0  0  0  0  0  0  0  0  0  0  0  0
    7.5783   -1.8748   -4.8082 H   0  0  0  0  0  0  0  0  0  0  0  0
    8.3967   -0.7394   -5.8816 H   0  0  0  0  0  0  0  0  0  0  0  0
  1  7  1  0  0  0  0
  1  2  2  0  0  0  0
  2  8  1  0  0  0  0
  3  2  1  0  0  0  0
  3 14  1  0  0  0  0
  4  3  2  0  0  0  0
  5  6  2  0  0  0  0
  5  4  1  0  0  0  0
  6  1  1  0  0  0  0
  9  4  1  0  0  0  0
 10  5  1  0  0  0  0
 11 13  2  0  0  0  0
 11  6  1  0  0  0  0
 12 11  2  0  0  0  0
 15 14  1  0  0  0  0
 15 27  1  0  0  0  0
 16 22  1  0  0  0  0
 17 16  1  0  0  0  0
 17 23  1  0  0  0  0
 18 17  2  0  0  0  0
 19 20  2  0  0  0  0
 19 18  1  0  0  0  0
 20 21  1  0  0  0  0
 21 26  1  0  0  0  0
 21 16  2  0  0  0  0
 24 19  1  0  0  0  0
 25 20  1  0  0  0  0
 26 29  1  6  0  0  0
 26 28  1  0  0  0  0
 28 15  1  0  0  0  0
 30 32  1  0  0  0  0
 30 18  1  0  0  0  0
 30 31  1  0  0  0  0
 33 30  1  0  0  0  0
M  RAD  3  14   2  27   2  29   2
M  END
