Coordinates from ORCA-job p-NO2-Ph-N2-OTs-B3LYPG-6-31G_dp-scan-d09-49-n400
 OpenBabel08281821283D

 33 34  0  0  0  0  0  0  0  0999 V2000
   -0.9464   -0.5386   -1.9914 C   0  0  0  0  0  0  0  0  0  0  0  0
    0.3255   -0.2075   -1.5428 C   0  0  0  0  0  0  0  0  0  0  0  0
    0.9441    0.9778   -1.9735 C   0  0  0  0  0  0  0  0  0  0  0  0
    0.2669    1.8688   -2.8266 C   0  0  0  0  0  0  0  0  0  0  0  0
   -1.0184    1.5508   -3.2531 C   0  0  0  0  0  0  0  0  0  0  0  0
   -1.5982    0.3526   -2.8410 C   0  0  0  0  0  0  0  0  0  0  0  0
   -1.4410   -1.4523   -1.6887 H   0  0  0  0  0  0  0  0  0  0  0  0
    0.8632   -0.8557   -0.8599 H   0  0  0  0  0  0  0  0  0  0  0  0
    0.7350    2.7880   -3.1443 H   0  0  0  0  0  0  0  0  0  0  0  0
   -1.5728    2.2129   -3.9062 H   0  0  0  0  0  0  0  0  0  0  0  0
   -2.9556    0.0184   -3.3152 N   0  0  0  0  0  0  0  0  0  0  0  0
   -3.5096    0.8234   -4.0603 O   0  0  0  0  0  0  0  0  0  0  0  0
   -3.4422   -1.0443   -2.9343 O   0  0  0  0  0  0  0  0  0  0  0  0
    2.2253    1.1838   -1.3986 N   0  0  0  0  0  0  0  0  0  0  0  0
    3.1683    1.8533   -1.7472 N   0  0  0  0  0  0  0  0  0  0  0  0
    6.4126    2.1357   -2.6305 C   0  0  0  0  0  0  0  0  0  0  0  0
    7.4616    1.2378   -2.8142 C   0  0  0  0  0  0  0  0  0  0  0  0
    7.6782    0.6167   -4.0529 C   0  0  0  0  0  0  0  0  0  0  0  0
    6.8179    0.9254   -5.1177 C   0  0  0  0  0  0  0  0  0  0  0  0
    5.7621    1.8188   -4.9557 C   0  0  0  0  0  0  0  0  0  0  0  0
    5.5679    2.4128   -3.7069 C   0  0  0  0  0  0  0  0  0  0  0  0
    6.2535    2.6254   -1.6767 H   0  0  0  0  0  0  0  0  0  0  0  0
    8.1274    1.0210   -1.9832 H   0  0  0  0  0  0  0  0  0  0  0  0
    6.9821    0.4660   -6.0884 H   0  0  0  0  0  0  0  0  0  0  0  0
    5.1074    2.0705   -5.7826 H   0  0  0  0  0  0  0  0  0  0  0  0
    4.2248    3.5633   -3.4933 S   0  0  0  0  0  0  0  0  0  0  0  0
    4.5188    4.4421   -2.3683 O   0  0  0  0  0  0  0  0  0  0  0  0
    2.9362    2.5785   -3.0914 O   0  0  0  0  0  0  0  0  0  0  0  0
    3.8154    4.0823   -4.7927 O   0  0  0  0  0  0  0  0  0  0  0  0
    8.7997   -0.3770   -4.2326 C   0  0  0  0  0  0  0  0  0  0  0  0
    9.6348   -0.1664   -3.5586 H   0  0  0  0  0  0  0  0  0  0  0  0
    8.4551   -1.3962   -4.0169 H   0  0  0  0  0  0  0  0  0  0  0  0
    9.1785   -0.3731   -5.2586 H   0  0  0  0  0  0  0  0  0  0  0  0
  1  7  1  0  0  0  0
  1  2  2  0  0  0  0
  2  8  1  0  0  0  0
  3  2  1  0  0  0  0
  3 14  1  0  0  0  0
  4  3  2  0  0  0  0
  5  6  2  0  0  0  0
  5  4  1  0  0  0  0
  6  1  1  0  0  0  0
  9  4  1  0  0  0  0
 10  5  1  0  0  0  0
 11 13  2  0  0  0  0
 11  6  1  0  0  0  0
 12 11  2  0  0  0  0
 15 14  1  0  0  0  0
 16 22  1  0  0  0  0
 17 16  1  0  0  0  0
 17 23  1  0  0  0  0
 18 17  2  0  0  0  0
 19 20  2  0  0  0  0
 19 18  1  0  0  0  0
 20 21  1  0  0  0  0
 21 26  1  0  0  0  0
 21 16  2  0  0  0  0
 24 19  1  0  0  0  0
 25 20  1  0  0  0  0
 26 28  1  0  0  0  0
 26 27  2  0  0  0  0
 28 15  1  0  0  0  0
 29 26  2  0  0  0  0
 30 18  1  0  0  0  0
 30 32  1  0  0  0  0
 30 31  1  0  0  0  0
 33 30  1  0  0  0  0
M  RAD  2  14   2  15   2
M  END
