Coordinates from ORCA-job p-NO2-Ph-N2-OTs-B3LYPG-6-31G_dp-scan-d09-49-n400
 OpenBabel08281821283D

 33 33  0  0  0  0  0  0  0  0999 V2000
   -1.1977    0.3602   -1.7005 C   0  0  0  0  0  0  0  0  0  0  0  0
   -0.4288    1.3967   -1.1892 C   0  0  0  0  0  0  0  0  0  0  0  0
    0.7325    1.8249   -1.8568 C   0  0  0  0  0  0  0  0  0  0  0  0
    1.1137    1.2193   -3.0699 C   0  0  0  0  0  0  0  0  0  0  0  0
    0.3361    0.1898   -3.5913 C   0  0  0  0  0  0  0  0  0  0  0  0
   -0.7985   -0.2276   -2.8990 C   0  0  0  0  0  0  0  0  0  0  0  0
   -2.0910    0.0078   -1.2017 H   0  0  0  0  0  0  0  0  0  0  0  0
   -0.7039    1.8954   -0.2668 H   0  0  0  0  0  0  0  0  0  0  0  0
    1.9959    1.5485   -3.5969 H   0  0  0  0  0  0  0  0  0  0  0  0
    0.5981   -0.2952   -4.5230 H   0  0  0  0  0  0  0  0  0  0  0  0
   -1.6066   -1.3289   -3.4558 N   0  0  0  0  0  0  0  0  0  0  0  0
   -1.2284   -1.8336   -4.5111 O   0  0  0  0  0  0  0  0  0  0  0  0
   -2.6055   -1.6720   -2.8268 O   0  0  0  0  0  0  0  0  0  0  0  0
    1.3764    2.9031   -1.1900 N   0  0  0  0  0  0  0  0  0  0  0  0
    2.4777    3.3763   -1.4247 N   0  0  0  0  0  0  0  0  0  0  0  0
    6.0291    1.3650   -2.5927 C   0  0  0  0  0  0  0  0  0  0  0  0
    6.7378    0.3442   -3.2191 C   0  0  0  0  0  0  0  0  0  0  0  0
    7.0708    0.4241   -4.5818 C   0  0  0  0  0  0  0  0  0  0  0  0
    6.6766    1.5601   -5.3027 C   0  0  0  0  0  0  0  0  0  0  0  0
    5.9653    2.5919   -4.6912 C   0  0  0  0  0  0  0  0  0  0  0  0
    5.6382    2.4793   -3.3414 C   0  0  0  0  0  0  0  0  0  0  0  0
    5.7790    1.2918   -1.5376 H   0  0  0  0  0  0  0  0  0  0  0  0
    7.0432   -0.5260   -2.6439 H   0  0  0  0  0  0  0  0  0  0  0  0
    6.9369    1.6411   -6.3546 H   0  0  0  0  0  0  0  0  0  0  0  0
    5.6686    3.4811   -5.2389 H   0  0  0  0  0  0  0  0  0  0  0  0
    4.8137    3.8553   -2.5056 S   0  0  2  0  0  0  0  0  0  0  0  0
    3.6503    5.2803   -0.3203 O   0  0  0  0  0  0  0  0  0  0  0  0
    3.2756    2.8477   -2.4140 O   0  0  0  0  0  0  0  0  0  0  0  0
    4.6280    4.9012   -3.5337 O   0  0  0  0  0  0  0  0  0  0  0  0
    7.8283   -0.6969   -5.2507 C   0  0  0  0  0  0  0  0  0  0  0  0
    8.6585   -1.0448   -4.6280 H   0  0  0  0  0  0  0  0  0  0  0  0
    7.1743   -1.5593   -5.4283 H   0  0  0  0  0  0  0  0  0  0  0  0
    8.2340   -0.3861   -6.2163 H   0  0  0  0  0  0  0  0  0  0  0  0
  1  7  1  0  0  0  0
  1  2  1  0  0  0  0
  2  8  1  0  0  0  0
  3 14  1  0  0  0  0
  3  2  2  0  0  0  0
  4  3  1  0  0  0  0
  5  4  2  0  0  0  0
  5  6  1  0  0  0  0
  6  1  2  0  0  0  0
  9  4  1  0  0  0  0
 10  5  1  0  0  0  0
 11  6  1  0  0  0  0
 11 13  2  0  0  0  0
 12 11  2  0  0  0  0
 15 14  2  0  0  0  0
 16 22  1  0  0  0  0
 17 23  1  0  0  0  0
 17 16  1  0  0  0  0
 18 17  2  0  0  0  0
 19 20  2  0  0  0  0
 19 18  1  0  0  0  0
 20 21  1  0  0  0  0
 21 16  2  0  0  0  0
 21 26  1  0  0  0  0
 24 19  1  0  0  0  0
 25 20  1  0  0  0  0
 26 29  1  6  0  0  0
 26 28  1  0  0  0  0
 28 15  1  0  0  0  0
 30 31  1  0  0  0  0
 30 18  1  0  0  0  0
 32 30  1  0  0  0  0
 33 30  1  0  0  0  0
M  RAD  2  27   3  29   2
M  END
