Coordinates from ORCA-job p-NO2-Ph-N2-OTs-B3LYPG-6-31G_dp-scan-d09-49-n400
 OpenBabel08281821283D

 33 33  0  0  0  0  0  0  0  0999 V2000
   -1.2744    0.4805   -1.7831 C   0  0  0  0  0  0  0  0  0  0  0  0
   -0.5281    1.5521   -1.3136 C   0  0  0  0  0  0  0  0  0  0  0  0
    0.7163    1.8666   -1.8898 C   0  0  0  0  0  0  0  0  0  0  0  0
    1.2091    1.1023   -2.9656 C   0  0  0  0  0  0  0  0  0  0  0  0
    0.4567    0.0343   -3.4441 C   0  0  0  0  0  0  0  0  0  0  0  0
   -0.7656   -0.2637   -2.8459 C   0  0  0  0  0  0  0  0  0  0  0  0
   -2.2311    0.2156   -1.3525 H   0  0  0  0  0  0  0  0  0  0  0  0
   -0.8842    2.1668   -0.4943 H   0  0  0  0  0  0  0  0  0  0  0  0
    2.1580    1.3397   -3.4215 H   0  0  0  0  0  0  0  0  0  0  0  0
    0.8040   -0.5713   -4.2720 H   0  0  0  0  0  0  0  0  0  0  0  0
   -1.5479   -1.4043   -3.3558 N   0  0  0  0  0  0  0  0  0  0  0  0
   -1.0730   -2.0465   -4.2907 O   0  0  0  0  0  0  0  0  0  0  0  0
   -2.6250   -1.6409   -2.8120 O   0  0  0  0  0  0  0  0  0  0  0  0
    1.3248    2.9958   -1.2843 N   0  0  0  0  0  0  0  0  0  0  0  0
    2.4564    3.4020   -1.5146 N   0  0  0  0  0  0  0  0  0  0  0  0
    6.0607    1.3295   -2.5823 C   0  0  0  0  0  0  0  0  0  0  0  0
    6.7137    0.3115   -3.2714 C   0  0  0  0  0  0  0  0  0  0  0  0
    7.0341    0.4498   -4.6318 C   0  0  0  0  0  0  0  0  0  0  0  0
    6.6861    1.6416   -5.2854 C   0  0  0  0  0  0  0  0  0  0  0  0
    6.0300    2.6689   -4.6105 C   0  0  0  0  0  0  0  0  0  0  0  0
    5.7150    2.5022   -3.2618 C   0  0  0  0  0  0  0  0  0  0  0  0
    5.8207    1.2103   -1.5287 H   0  0  0  0  0  0  0  0  0  0  0  0
    6.9847   -0.6018   -2.7483 H   0  0  0  0  0  0  0  0  0  0  0  0
    6.9389    1.7673   -6.3348 H   0  0  0  0  0  0  0  0  0  0  0  0
    5.7680    3.5981   -5.1067 H   0  0  0  0  0  0  0  0  0  0  0  0
    4.9641    3.8536   -2.3224 S   0  0  2  0  0  0  0  0  0  0  0  0
    3.2670    5.0069   -0.6555 O   0  0  0  0  0  0  0  0  0  0  0  0
    3.3173    2.8450   -2.3622 O   0  0  0  0  0  0  0  0  0  0  0  0
    4.8631    4.9713   -3.2814 O   0  0  0  0  0  0  0  0  0  0  0  0
    7.7239   -0.6682   -5.3743 C   0  0  0  0  0  0  0  0  0  0  0  0
    8.4748   -1.1603   -4.7486 H   0  0  0  0  0  0  0  0  0  0  0  0
    7.0025   -1.4362   -5.6793 H   0  0  0  0  0  0  0  0  0  0  0  0
    8.2176   -0.3042   -6.2789 H   0  0  0  0  0  0  0  0  0  0  0  0
  1  7  1  0  0  0  0
  1  2  1  0  0  0  0
  2  8  1  0  0  0  0
  3  2  2  0  0  0  0
  3 14  1  0  0  0  0
  4  3  1  0  0  0  0
  5  4  2  0  0  0  0
  5  6  1  0  0  0  0
  6  1  2  0  0  0  0
  9  4  1  0  0  0  0
 10  5  1  0  0  0  0
 11  6  1  0  0  0  0
 11 13  2  0  0  0  0
 12 11  2  0  0  0  0
 15 14  2  0  0  0  0
 16 22  1  0  0  0  0
 17 23  1  0  0  0  0
 17 16  2  0  0  0  0
 18 17  1  0  0  0  0
 19 18  2  0  0  0  0
 19 20  1  0  0  0  0
 20 21  2  0  0  0  0
 21 16  1  0  0  0  0
 21 26  1  0  0  0  0
 24 19  1  0  0  0  0
 25 20  1  0  0  0  0
 26 29  1  6  0  0  0
 28 26  1  0  0  0  0
 28 15  1  0  0  0  0
 30 31  1  0  0  0  0
 30 18  1  0  0  0  0
 32 30  1  0  0  0  0
 33 30  1  0  0  0  0
M  RAD  2  27   3  29   2
M  END
