Coordinates from ORCA-job p-NO2-Ph-N2-OTs-B3LYPG-6-31G_dp-scan-d09-49-n400
 OpenBabel08281821283D

 33 33  0  0  0  0  0  0  0  0999 V2000
   -1.4274   -0.1552   -3.5753 C   0  0  0  0  0  0  0  0  0  0  0  0
   -0.2398   -0.8107   -3.2828 C   0  0  0  0  0  0  0  0  0  0  0  0
    0.6884   -0.1464   -2.4708 C   0  0  0  0  0  0  0  0  0  0  0  0
    0.4892    1.1332   -1.9278 C   0  0  0  0  0  0  0  0  0  0  0  0
   -0.7150    1.7629   -2.2160 C   0  0  0  0  0  0  0  0  0  0  0  0
   -1.6399    1.1119   -3.0310 C   0  0  0  0  0  0  0  0  0  0  0  0
   -2.1869   -0.6023   -4.2036 H   0  0  0  0  0  0  0  0  0  0  0  0
   -0.0267   -1.7984   -3.6737 H   0  0  0  0  0  0  0  0  0  0  0  0
    1.2708    1.5860   -1.3267 H   0  0  0  0  0  0  0  0  0  0  0  0
   -0.9347    2.7523   -1.8365 H   0  0  0  0  0  0  0  0  0  0  0  0
   -2.9195    1.7964   -3.3352 N   0  0  0  0  0  0  0  0  0  0  0  0
   -3.1024    2.8948   -2.8223 O   0  0  0  0  0  0  0  0  0  0  0  0
   -3.7047    1.2101   -4.0751 O   0  0  0  0  0  0  0  0  0  0  0  0
    1.8745   -0.7954   -2.1506 N   0  0  0  0  0  0  0  0  0  0  0  0
    2.9103   -1.0146   -1.7743 N   0  0  0  0  0  0  0  0  0  0  0  0
    6.4747    1.8991   -2.3222 C   0  0  0  0  0  0  0  0  0  0  0  0
    7.7659    1.6708   -2.7871 C   0  0  0  0  0  0  0  0  0  0  0  0
    8.0059    1.3290   -4.1282 C   0  0  0  0  0  0  0  0  0  0  0  0
    6.9097    1.2231   -4.9915 C   0  0  0  0  0  0  0  0  0  0  0  0
    5.6081    1.4496   -4.5380 C   0  0  0  0  0  0  0  0  0  0  0  0
    5.3948    1.7850   -3.2032 C   0  0  0  0  0  0  0  0  0  0  0  0
    6.2986    2.1591   -1.2836 H   0  0  0  0  0  0  0  0  0  0  0  0
    8.6048    1.7608   -2.1009 H   0  0  0  0  0  0  0  0  0  0  0  0
    7.0743    0.9605   -6.0338 H   0  0  0  0  0  0  0  0  0  0  0  0
    4.7569    1.3671   -5.2050 H   0  0  0  0  0  0  0  0  0  0  0  0
    3.7312    2.1282   -2.6171 S   0  0  0  0  0  0  0  0  0  0  0  0
    3.6583    3.5805   -2.3366 O   0  0  0  0  0  0  0  0  0  0  0  0
    3.5845    1.2753   -1.3567 O   0  0  0  0  0  0  0  0  0  0  0  0
    2.8021    1.6174   -3.6684 O   0  0  0  0  0  0  0  0  0  0  0  0
    9.4129    1.0730   -4.6147 C   0  0  0  0  0  0  0  0  0  0  0  0
   10.0874    1.8902   -4.3350 H   0  0  0  0  0  0  0  0  0  0  0  0
    9.8247    0.1550   -4.1781 H   0  0  0  0  0  0  0  0  0  0  0  0
    9.4469    0.9666   -5.7027 H   0  0  0  0  0  0  0  0  0  0  0  0
  1  2  2  0  0  0  0
  1  6  1  0  0  0  0
  2  3  1  0  0  0  0
  3 14  1  0  0  0  0
  3  4  2  0  0  0  0
  4  9  1  0  0  0  0
  5  4  1  0  0  0  0
  5 10  1  0  0  0  0
  6  5  2  0  0  0  0
  7  1  1  0  0  0  0
  8  2  1  0  0  0  0
 11  6  1  0  0  0  0
 11 12  2  0  0  0  0
 13 11  2  0  0  0  0
 14 15  1  0  0  0  0
 16 22  1  0  0  0  0
 17 16  1  0  0  0  0
 17 23  1  0  0  0  0
 18 17  2  0  0  0  0
 19 20  2  0  0  0  0
 19 18  1  0  0  0  0
 20 21  1  0  0  0  0
 21 26  1  0  0  0  0
 21 16  2  0  0  0  0
 24 19  1  0  0  0  0
 25 20  1  0  0  0  0
 26 27  2  0  0  0  0
 26 28  1  0  0  0  0
 29 26  2  0  0  0  0
 30 31  1  0  0  0  0
 30 32  1  0  0  0  0
 30 18  1  0  0  0  0
 33 30  1  0  0  0  0
M  RAD  3  14   2  15   3  28   2
M  END
