Coordinates from ORCA-job p-NO2-Ph-N2-OTs-B3LYPG-6-31G_dp-scan-d09-49-n400
 OpenBabel08281821283D

 33 34  0  0  0  0  0  0  0  0999 V2000
   -0.8685   -0.6269   -2.3792 C   0  0  0  0  0  0  0  0  0  0  0  0
    0.1972   -0.6094   -3.2699 C   0  0  0  0  0  0  0  0  0  0  0  0
    0.7149    0.6110   -3.7309 C   0  0  0  0  0  0  0  0  0  0  0  0
    0.1244    1.8267   -3.3445 C   0  0  0  0  0  0  0  0  0  0  0  0
   -0.9643    1.8100   -2.4795 C   0  0  0  0  0  0  0  0  0  0  0  0
   -1.4342    0.5885   -2.0000 C   0  0  0  0  0  0  0  0  0  0  0  0
   -1.2763   -1.5515   -1.9921 H   0  0  0  0  0  0  0  0  0  0  0  0
    0.6477   -1.5319   -3.6185 H   0  0  0  0  0  0  0  0  0  0  0  0
    0.5078    2.7661   -3.7158 H   0  0  0  0  0  0  0  0  0  0  0  0
   -1.4454    2.7265   -2.1628 H   0  0  0  0  0  0  0  0  0  0  0  0
   -2.5758    0.5810   -1.0678 N   0  0  0  0  0  0  0  0  0  0  0  0
   -3.0607    1.6663   -0.7543 O   0  0  0  0  0  0  0  0  0  0  0  0
   -2.9699   -0.5113   -0.6627 O   0  0  0  0  0  0  0  0  0  0  0  0
    1.7678    0.4729   -4.6789 N   0  0  0  0  0  0  0  0  0  0  0  0
    2.7242    1.2085   -4.8591 N   0  0  0  0  0  0  0  0  0  0  0  0
    6.0194    2.2981   -2.6752 C   0  0  0  0  0  0  0  0  0  0  0  0
    7.1345    1.5109   -2.4016 C   0  0  0  0  0  0  0  0  0  0  0  0
    7.7405    0.7365   -3.4028 C   0  0  0  0  0  0  0  0  0  0  0  0
    7.2039    0.7754   -4.6985 C   0  0  0  0  0  0  0  0  0  0  0  0
    6.0896    1.5563   -4.9956 C   0  0  0  0  0  0  0  0  0  0  0  0
    5.5065    2.3090   -3.9746 C   0  0  0  0  0  0  0  0  0  0  0  0
    5.5616    2.9093   -1.9054 H   0  0  0  0  0  0  0  0  0  0  0  0
    7.5471    1.5044   -1.3965 H   0  0  0  0  0  0  0  0  0  0  0  0
    7.6695    0.1925   -5.4882 H   0  0  0  0  0  0  0  0  0  0  0  0
    5.6821    1.5961   -5.9991 H   0  0  0  0  0  0  0  0  0  0  0  0
    4.0937    3.3274   -4.3350 S   0  0  0  0  0  0  0  0  0  0  0  0
    3.9547    4.3649   -3.3297 O   0  0  0  0  0  0  0  0  0  0  0  0
    2.7886    2.3433   -3.9263 O   0  0  0  0  0  0  0  0  0  0  0  0
    4.0389    3.5968   -5.7639 O   0  0  0  0  0  0  0  0  0  0  0  0
    8.9335   -0.1323   -3.0879 C   0  0  0  0  0  0  0  0  0  0  0  0
    9.5487    0.3047   -2.2959 H   0  0  0  0  0  0  0  0  0  0  0  0
    8.6134   -1.1231   -2.7429 H   0  0  0  0  0  0  0  0  0  0  0  0
    9.5635   -0.2820   -3.9691 H   0  0  0  0  0  0  0  0  0  0  0  0
  1  6  1  0  0  0  0
  1  7  1  0  0  0  0
  2  1  2  0  0  0  0
  3  4  2  0  0  0  0
  3  2  1  0  0  0  0
  4  5  1  0  0  0  0
  5 10  1  0  0  0  0
  5  6  2  0  0  0  0
  6 11  1  0  0  0  0
  8  2  1  0  0  0  0
  9  4  1  0  0  0  0
 11 12  2  0  0  0  0
 11 13  2  0  0  0  0
 14  3  1  0  0  0  0
 15 14  1  0  0  0  0
 15 28  1  0  0  0  0
 16 17  1  0  0  0  0
 16 22  1  0  0  0  0
 17 23  1  0  0  0  0
 18 30  1  0  0  0  0
 18 17  2  0  0  0  0
 19 18  1  0  0  0  0
 20 19  2  0  0  0  0
 20 21  1  0  0  0  0
 21 16  2  0  0  0  0
 24 19  1  0  0  0  0
 25 20  1  0  0  0  0
 26 21  1  0  0  0  0
 26 28  1  0  0  0  0
 26 27  2  0  0  0  0
 29 26  2  0  0  0  0
 30 32  1  0  0  0  0
 30 31  1  0  0  0  0
 33 30  1  0  0  0  0
M  RAD  2  14   2  15   2
M  END
