Coordinates from ORCA-job p-NO2-Ph-N2-OTs-B3LYPG-6-31G_dp-scan-d09-49-n400
 OpenBabel08281821283D

 33 34  0  0  0  0  0  0  0  0999 V2000
   -1.3638   -0.5927   -2.7069 C   0  0  0  0  0  0  0  0  0  0  0  0
   -0.2384   -0.6354   -3.5193 C   0  0  0  0  0  0  0  0  0  0  0  0
    0.6136    0.4782   -3.5995 C   0  0  0  0  0  0  0  0  0  0  0  0
    0.3376    1.6581   -2.8836 C   0  0  0  0  0  0  0  0  0  0  0  0
   -0.7990    1.7019   -2.0823 C   0  0  0  0  0  0  0  0  0  0  0  0
   -1.6227    0.5809   -2.0026 C   0  0  0  0  0  0  0  0  0  0  0  0
   -2.0374   -1.4351   -2.6145 H   0  0  0  0  0  0  0  0  0  0  0  0
    0.0008   -1.5207   -4.0973 H   0  0  0  0  0  0  0  0  0  0  0  0
    0.9984    2.5092   -2.9608 H   0  0  0  0  0  0  0  0  0  0  0  0
   -1.0511    2.5897   -1.5164 H   0  0  0  0  0  0  0  0  0  0  0  0
   -2.8210    0.6386   -1.1380 N   0  0  0  0  0  0  0  0  0  0  0  0
   -3.0278    1.6845   -0.5287 O   0  0  0  0  0  0  0  0  0  0  0  0
   -3.5285   -0.3646   -1.0878 O   0  0  0  0  0  0  0  0  0  0  0  0
    1.7095    0.2923   -4.4728 N   0  0  0  0  0  0  0  0  0  0  0  0
    2.7057    0.8732   -4.7552 N   0  0  0  0  0  0  0  0  0  0  0  0
    6.1703    2.4582   -2.7876 C   0  0  0  0  0  0  0  0  0  0  0  0
    7.3243    1.7405   -2.4828 C   0  0  0  0  0  0  0  0  0  0  0  0
    7.9004    0.8625   -3.4129 C   0  0  0  0  0  0  0  0  0  0  0  0
    7.2934    0.7274   -4.6700 C   0  0  0  0  0  0  0  0  0  0  0  0
    6.1389    1.4368   -4.9938 C   0  0  0  0  0  0  0  0  0  0  0  0
    5.5833    2.2947   -4.0434 C   0  0  0  0  0  0  0  0  0  0  0  0
    5.7375    3.1518   -2.0747 H   0  0  0  0  0  0  0  0  0  0  0  0
    7.7910    1.8705   -1.5101 H   0  0  0  0  0  0  0  0  0  0  0  0
    7.7359    0.0652   -5.4096 H   0  0  0  0  0  0  0  0  0  0  0  0
    5.6794    1.3457   -5.9715 H   0  0  0  0  0  0  0  0  0  0  0  0
    4.1026    3.2098   -4.4437 S   0  0  0  0  0  0  0  0  0  0  0  0
    4.0555    4.4144   -3.6147 O   0  0  0  0  0  0  0  0  0  0  0  0
    2.9050    2.2684   -3.8508 O   0  0  0  0  0  0  0  0  0  0  0  0
    3.9769    3.2802   -5.8970 O   0  0  0  0  0  0  0  0  0  0  0  0
    9.1363    0.0688   -3.0642 C   0  0  0  0  0  0  0  0  0  0  0  0
    9.7447    0.5835   -2.3151 H   0  0  0  0  0  0  0  0  0  0  0  0
    8.8686   -0.9113   -2.6506 H   0  0  0  0  0  0  0  0  0  0  0  0
    9.7583   -0.1106   -3.9460 H   0  0  0  0  0  0  0  0  0  0  0  0
  1  7  1  0  0  0  0
  1  6  2  0  0  0  0
  2  1  1  0  0  0  0
  3  2  2  0  0  0  0
  3  4  1  0  0  0  0
  4  5  2  0  0  0  0
  5  6  1  0  0  0  0
  5 10  1  0  0  0  0
  6 11  1  0  0  0  0
  8  2  1  0  0  0  0
  9  4  1  0  0  0  0
 11 13  2  0  0  0  0
 11 12  2  0  0  0  0
 14  3  1  0  0  0  0
 15 14  1  0  0  0  0
 15 28  1  0  0  0  0
 16 17  1  0  0  0  0
 16 22  1  0  0  0  0
 17 23  1  0  0  0  0
 18 30  1  0  0  0  0
 18 17  2  0  0  0  0
 19 18  1  0  0  0  0
 20 19  2  0  0  0  0
 20 21  1  0  0  0  0
 21 16  2  0  0  0  0
 24 19  1  0  0  0  0
 25 20  1  0  0  0  0
 26 21  1  0  0  0  0
 26 28  1  0  0  0  0
 26 27  2  0  0  0  0
 29 26  2  0  0  0  0
 30 32  1  0  0  0  0
 30 31  1  0  0  0  0
 33 30  1  0  0  0  0
M  RAD  2  14   2  15   2
M  END
