Coordinates from ORCA-job p-NO2-Ph-N2-OTs-B3LYPG-6-31G_dp-scan-d09-49-n400
 OpenBabel08281821283D

 33 34  0  0  0  0  0  0  0  0999 V2000
   -1.6975    0.1442   -1.4050 C   0  0  0  0  0  0  0  0  0  0  0  0
   -0.3592    0.1625   -1.0334 C   0  0  0  0  0  0  0  0  0  0  0  0
    0.6018    0.6587   -1.9272 C   0  0  0  0  0  0  0  0  0  0  0  0
    0.2495    1.1458   -3.1983 C   0  0  0  0  0  0  0  0  0  0  0  0
   -1.0936    1.1301   -3.5615 C   0  0  0  0  0  0  0  0  0  0  0  0
   -2.0372    0.6303   -2.6657 C   0  0  0  0  0  0  0  0  0  0  0  0
   -2.4704   -0.2305   -0.7469 H   0  0  0  0  0  0  0  0  0  0  0  0
   -0.0420   -0.1977   -0.0617 H   0  0  0  0  0  0  0  0  0  0  0  0
    1.0143    1.5239   -3.8622 H   0  0  0  0  0  0  0  0  0  0  0  0
   -1.4173    1.4966   -4.5272 H   0  0  0  0  0  0  0  0  0  0  0  0
   -3.4608    0.6132   -3.0693 N   0  0  0  0  0  0  0  0  0  0  0  0
   -3.7347    1.0409   -4.1869 O   0  0  0  0  0  0  0  0  0  0  0  0
   -4.2702    0.1706   -2.2581 O   0  0  0  0  0  0  0  0  0  0  0  0
    1.9246    0.6408   -1.4344 N   0  0  0  0  0  0  0  0  0  0  0  0
    3.0154    0.9218   -1.7595 N   0  0  0  0  0  0  0  0  0  0  0  0
    6.5053    1.7526   -2.6600 C   0  0  0  0  0  0  0  0  0  0  0  0
    7.7614    1.1987   -2.9042 C   0  0  0  0  0  0  0  0  0  0  0  0
    8.2078    0.9602   -4.2109 C   0  0  0  0  0  0  0  0  0  0  0  0
    7.3633    1.3022   -5.2785 C   0  0  0  0  0  0  0  0  0  0  0  0
    6.1061    1.8563   -5.0541 C   0  0  0  0  0  0  0  0  0  0  0  0
    5.6838    2.0731   -3.7405 C   0  0  0  0  0  0  0  0  0  0  0  0
    6.1678    1.9541   -1.6495 H   0  0  0  0  0  0  0  0  0  0  0  0
    8.4085    0.9551   -2.0657 H   0  0  0  0  0  0  0  0  0  0  0  0
    7.6994    1.1387   -6.2994 H   0  0  0  0  0  0  0  0  0  0  0  0
    5.4630    2.1390   -5.8802 H   0  0  0  0  0  0  0  0  0  0  0  0
    4.0652    2.7696   -3.4403 S   0  0  0  0  0  0  0  0  0  0  0  0
    4.0531    3.3423   -2.0914 O   0  0  0  0  0  0  0  0  0  0  0  0
    3.0882    1.4975   -3.4375 O   0  0  0  0  0  0  0  0  0  0  0  0
    3.6857    3.5716   -4.6043 O   0  0  0  0  0  0  0  0  0  0  0  0
    9.5596    0.3398   -4.4694 C   0  0  0  0  0  0  0  0  0  0  0  0
   10.2145    0.4280   -3.5978 H   0  0  0  0  0  0  0  0  0  0  0  0
    9.4637   -0.7278   -4.7030 H   0  0  0  0  0  0  0  0  0  0  0  0
   10.0593    0.8128   -5.3204 H   0  0  0  0  0  0  0  0  0  0  0  0
  1  2  1  0  0  0  0
  1  7  1  0  0  0  0
  2  8  1  0  0  0  0
  3 14  1  0  0  0  0
  3  2  2  0  0  0  0
  4  3  1  0  0  0  0
  5  4  2  0  0  0  0
  5  6  1  0  0  0  0
  6  1  2  0  0  0  0
  9  4  1  0  0  0  0
 10  5  1  0  0  0  0
 11  6  1  0  0  0  0
 11 13  2  0  0  0  0
 12 11  2  0  0  0  0
 15 14  1  0  0  0  0
 16 22  1  0  0  0  0
 17 16  1  0  0  0  0
 17 23  1  0  0  0  0
 18 17  2  0  0  0  0
 19 20  2  0  0  0  0
 19 18  1  0  0  0  0
 20 21  1  0  0  0  0
 21 26  1  0  0  0  0
 21 16  2  0  0  0  0
 24 19  1  0  0  0  0
 25 20  1  0  0  0  0
 26 28  1  0  0  0  0
 26 27  2  0  0  0  0
 28 15  1  0  0  0  0
 29 26  2  0  0  0  0
 30 18  1  0  0  0  0
 30 31  1  0  0  0  0
 32 30  1  0  0  0  0
 33 30  1  0  0  0  0
M  RAD  2  14   2  15   2
M  END
