Coordinates from ORCA-job p-NO2-Ph-N2-OTs-B3LYPG-6-31G_dp-scan-d09-49-n400
 OpenBabel08281821283D

 33 34  0  0  0  0  0  0  0  0999 V2000
   -0.5677    0.0946   -1.7729 C   0  0  0  0  0  0  0  0  0  0  0  0
    0.0897    1.0542   -1.0114 C   0  0  0  0  0  0  0  0  0  0  0  0
    0.7460    2.1234   -1.6366 C   0  0  0  0  0  0  0  0  0  0  0  0
    0.7157    2.2569   -3.0350 C   0  0  0  0  0  0  0  0  0  0  0  0
    0.0633    1.2975   -3.7979 C   0  0  0  0  0  0  0  0  0  0  0  0
   -0.5683    0.2296   -3.1589 C   0  0  0  0  0  0  0  0  0  0  0  0
   -1.0731   -0.7470   -1.3167 H   0  0  0  0  0  0  0  0  0  0  0  0
    0.1038    0.9867    0.0712 H   0  0  0  0  0  0  0  0  0  0  0  0
    1.2259    3.0812   -3.5192 H   0  0  0  0  0  0  0  0  0  0  0  0
    0.0342    1.3640   -4.8783 H   0  0  0  0  0  0  0  0  0  0  0  0
   -1.2585   -0.7815   -3.9716 N   0  0  0  0  0  0  0  0  0  0  0  0
   -1.2453   -0.6387   -5.1939 O   0  0  0  0  0  0  0  0  0  0  0  0
   -1.8113   -1.7092   -3.3801 O   0  0  0  0  0  0  0  0  0  0  0  0
    1.2699    3.1106   -0.7722 N   0  0  0  0  0  0  0  0  0  0  0  0
    2.4462    3.5819   -0.8903 N   0  0  0  0  0  0  0  0  0  0  0  0
    6.2432    1.5885   -2.5914 C   0  0  0  0  0  0  0  0  0  0  0  0
    7.1139    0.5955   -3.0344 C   0  0  0  0  0  0  0  0  0  0  0  0
    7.1365    0.1983   -4.3806 C   0  0  0  0  0  0  0  0  0  0  0  0
    6.2668    0.8318   -5.2789 C   0  0  0  0  0  0  0  0  0  0  0  0
    5.3915    1.8305   -4.8529 C   0  0  0  0  0  0  0  0  0  0  0  0
    5.3834    2.1927   -3.5088 C   0  0  0  0  0  0  0  0  0  0  0  0
    6.2281    1.8799   -1.5454 H   0  0  0  0  0  0  0  0  0  0  0  0
    7.7858    0.1182   -2.3257 H   0  0  0  0  0  0  0  0  0  0  0  0
    6.2765    0.5414   -6.3265 H   0  0  0  0  0  0  0  0  0  0  0  0
    4.7178    2.3332   -5.5398 H   0  0  0  0  0  0  0  0  0  0  0  0
    4.2789    3.5379   -2.9891 S   0  0  2  0  0  0  0  0  0  0  0  0
    2.9658    4.2682   -0.5124 O   0  0  0  0  0  0  0  0  0  0  0  0
    3.3856    2.5545   -2.0137 O   0  0  0  0  0  0  0  0  0  0  0  0
    3.4813    3.9359   -4.1952 O   0  0  0  0  0  0  0  0  0  0  0  0
    8.0599   -0.9025   -4.8449 C   0  0  0  0  0  0  0  0  0  0  0  0
    8.9570   -0.9639   -4.2227 H   0  0  0  0  0  0  0  0  0  0  0  0
    7.5609   -1.8787   -4.7964 H   0  0  0  0  0  0  0  0  0  0  0  0
    8.3743   -0.7510   -5.8816 H   0  0  0  0  0  0  0  0  0  0  0  0
  1  7  1  0  0  0  0
  1  2  2  0  0  0  0
  2  8  1  0  0  0  0
  3  2  1  0  0  0  0
  3 14  1  0  0  0  0
  4  3  2  0  0  0  0
  5  6  2  0  0  0  0
  5  4  1  0  0  0  0
  6  1  1  0  0  0  0
  9  4  1  0  0  0  0
 10  5  1  0  0  0  0
 11 13  2  0  0  0  0
 11  6  1  0  0  0  0
 12 11  2  0  0  0  0
 15 14  1  0  0  0  0
 15 27  1  0  0  0  0
 16 22  1  0  0  0  0
 17 16  1  0  0  0  0
 17 23  1  0  0  0  0
 18 17  2  0  0  0  0
 19 20  2  0  0  0  0
 19 18  1  0  0  0  0
 20 21  1  0  0  0  0
 21 26  1  0  0  0  0
 21 16  2  0  0  0  0
 24 19  1  0  0  0  0
 25 20  1  0  0  0  0
 26 29  1  6  0  0  0
 26 28  1  0  0  0  0
 28 15  1  0  0  0  0
 30 32  1  0  0  0  0
 30 18  1  0  0  0  0
 30 31  1  0  0  0  0
 33 30  1  0  0  0  0
M  RAD  3  14   2  27   2  29   2
M  END
