Coordinates from ORCA-job p-NO2-Ph-N2-OTs-B3LYPG-6-31G_dp-scan-d09-49-n400
 OpenBabel08281821283D

 33 33  0  0  0  0  0  0  0  0999 V2000
   -1.2226    0.4179   -1.7481 C   0  0  0  0  0  0  0  0  0  0  0  0
   -0.4751    1.4778   -1.2537 C   0  0  0  0  0  0  0  0  0  0  0  0
    0.7330    1.8515   -1.8693 C   0  0  0  0  0  0  0  0  0  0  0  0
    1.1865    1.1628   -3.0111 C   0  0  0  0  0  0  0  0  0  0  0  0
    0.4313    0.1087   -3.5159 C   0  0  0  0  0  0  0  0  0  0  0  0
   -0.7532   -0.2509   -2.8768 C   0  0  0  0  0  0  0  0  0  0  0  0
   -2.1517    0.1072   -1.2886 H   0  0  0  0  0  0  0  0  0  0  0  0
   -0.8033    2.0375   -0.3851 H   0  0  0  0  0  0  0  0  0  0  0  0
    2.1067    1.4476   -3.4974 H   0  0  0  0  0  0  0  0  0  0  0  0
    0.7480   -0.4389   -4.3946 H   0  0  0  0  0  0  0  0  0  0  0  0
   -1.5382   -1.3774   -3.4152 N   0  0  0  0  0  0  0  0  0  0  0  0
   -1.0995   -1.9517   -4.4099 O   0  0  0  0  0  0  0  0  0  0  0  0
   -2.5807   -1.6702   -2.8331 O   0  0  0  0  0  0  0  0  0  0  0  0
    1.3460    2.9648   -1.2330 N   0  0  0  0  0  0  0  0  0  0  0  0
    2.4627    3.4081   -1.4586 N   0  0  0  0  0  0  0  0  0  0  0  0
    6.0377    1.3427   -2.5819 C   0  0  0  0  0  0  0  0  0  0  0  0
    6.7074    0.3188   -3.2457 C   0  0  0  0  0  0  0  0  0  0  0  0
    7.0282    0.4288   -4.6087 C   0  0  0  0  0  0  0  0  0  0  0  0
    6.6624    1.5981   -5.2917 C   0  0  0  0  0  0  0  0  0  0  0  0
    5.9896    2.6317   -4.6426 C   0  0  0  0  0  0  0  0  0  0  0  0
    5.6744    2.4916   -3.2914 C   0  0  0  0  0  0  0  0  0  0  0  0
    5.7979    1.2458   -1.5261 H   0  0  0  0  0  0  0  0  0  0  0  0
    6.9917   -0.5771   -2.6999 H   0  0  0  0  0  0  0  0  0  0  0  0
    6.9151    1.7026   -6.3434 H   0  0  0  0  0  0  0  0  0  0  0  0
    5.7148    3.5451   -5.1609 H   0  0  0  0  0  0  0  0  0  0  0  0
    4.9058    3.8623   -2.3967 S   0  0  2  0  0  0  0  0  0  0  0  0
    3.4042    5.2047   -0.5240 O   0  0  0  0  0  0  0  0  0  0  0  0
    3.3027    2.8615   -2.3616 O   0  0  0  0  0  0  0  0  0  0  0  0
    4.7621    4.9457   -3.3899 O   0  0  0  0  0  0  0  0  0  0  0  0
    7.7386   -0.6954   -5.3222 C   0  0  0  0  0  0  0  0  0  0  0  0
    8.4969   -1.1585   -4.6835 H   0  0  0  0  0  0  0  0  0  0  0  0
    7.0313   -1.4833   -5.6092 H   0  0  0  0  0  0  0  0  0  0  0  0
    8.2276   -0.3453   -6.2347 H   0  0  0  0  0  0  0  0  0  0  0  0
  1  7  1  0  0  0  0
  1  2  1  0  0  0  0
  2  8  1  0  0  0  0
  3  2  2  0  0  0  0
  3 14  1  0  0  0  0
  4  3  1  0  0  0  0
  5  4  2  0  0  0  0
  5  6  1  0  0  0  0
  6  1  2  0  0  0  0
  9  4  1  0  0  0  0
 10  5  1  0  0  0  0
 11  6  1  0  0  0  0
 11 13  2  0  0  0  0
 12 11  2  0  0  0  0
 15 14  2  0  0  0  0
 16 22  1  0  0  0  0
 17 23  1  0  0  0  0
 17 16  1  0  0  0  0
 18 17  2  0  0  0  0
 19 20  2  0  0  0  0
 19 18  1  0  0  0  0
 20 21  1  0  0  0  0
 21 16  2  0  0  0  0
 21 26  1  0  0  0  0
 24 19  1  0  0  0  0
 25 20  1  0  0  0  0
 26 29  1  6  0  0  0
 26 28  1  0  0  0  0
 28 15  1  0  0  0  0
 30 31  1  0  0  0  0
 30 18  1  0  0  0  0
 32 30  1  0  0  0  0
 33 30  1  0  0  0  0
M  RAD  2  27   3  29   2
M  END
