Coordinates from ORCA-job p-NO2-Ph-N2-OTs-B3LYPG-6-31G_dp-scan-d09-49-n400
 OpenBabel08281821283D

 33 34  0  0  0  0  0  0  0  0999 V2000
   -1.3616   -0.0190   -1.5432 C   0  0  0  0  0  0  0  0  0  0  0  0
   -0.0379    0.1503   -1.1589 C   0  0  0  0  0  0  0  0  0  0  0  0
    0.8865    0.7517   -2.0309 C   0  0  0  0  0  0  0  0  0  0  0  0
    0.4904    1.1581   -3.3200 C   0  0  0  0  0  0  0  0  0  0  0  0
   -0.8311    0.9684   -3.7127 C   0  0  0  0  0  0  0  0  0  0  0  0
   -1.7339    0.3932   -2.8209 C   0  0  0  0  0  0  0  0  0  0  0  0
   -2.0967   -0.4665   -0.8869 H   0  0  0  0  0  0  0  0  0  0  0  0
    0.3053   -0.1710   -0.1824 H   0  0  0  0  0  0  0  0  0  0  0  0
    1.1995    1.6099   -3.9963 H   0  0  0  0  0  0  0  0  0  0  0  0
   -1.1719    1.2668   -4.6958 H   0  0  0  0  0  0  0  0  0  0  0  0
   -3.1350    0.2059   -3.2480 N   0  0  0  0  0  0  0  0  0  0  0  0
   -3.4344    0.5709   -4.3825 O   0  0  0  0  0  0  0  0  0  0  0  0
   -3.9106   -0.2961   -2.4374 O   0  0  0  0  0  0  0  0  0  0  0  0
    2.1904    0.8311   -1.4805 N   0  0  0  0  0  0  0  0  0  0  0  0
    3.1692    1.4722   -1.7778 N   0  0  0  0  0  0  0  0  0  0  0  0
    6.4312    1.9294   -2.5326 C   0  0  0  0  0  0  0  0  0  0  0  0
    7.5154    1.1142   -2.8491 C   0  0  0  0  0  0  0  0  0  0  0  0
    7.7977    0.7630   -4.1777 C   0  0  0  0  0  0  0  0  0  0  0  0
    6.9670    1.2597   -5.1930 C   0  0  0  0  0  0  0  0  0  0  0  0
    5.8769    2.0754   -4.8985 C   0  0  0  0  0  0  0  0  0  0  0  0
    5.6173    2.3987   -3.5654 C   0  0  0  0  0  0  0  0  0  0  0  0
    6.2217    2.2119   -1.5075 H   0  0  0  0  0  0  0  0  0  0  0  0
    8.1576    0.7503   -2.0518 H   0  0  0  0  0  0  0  0  0  0  0  0
    7.1810    1.0106   -6.2287 H   0  0  0  0  0  0  0  0  0  0  0  0
    5.2462    2.4744   -5.6851 H   0  0  0  0  0  0  0  0  0  0  0  0
    4.2290    3.4478   -3.1812 S   0  0  0  0  0  0  0  0  0  0  0  0
    4.4540    4.0864   -1.8910 O   0  0  0  0  0  0  0  0  0  0  0  0
    2.9654    2.3719   -3.0233 O   0  0  0  0  0  0  0  0  0  0  0  0
    3.8491    4.2025   -4.3693 O   0  0  0  0  0  0  0  0  0  0  0  0
    8.9593   -0.1431   -4.5052 C   0  0  0  0  0  0  0  0  0  0  0  0
    9.7879   -0.0022   -3.8049 H   0  0  0  0  0  0  0  0  0  0  0  0
    8.6600   -1.1973   -4.4481 H   0  0  0  0  0  0  0  0  0  0  0  0
    9.3331    0.0350   -5.5174 H   0  0  0  0  0  0  0  0  0  0  0  0
  1  2  1  0  0  0  0
  1  7  1  0  0  0  0
  2  8  1  0  0  0  0
  3 14  1  0  0  0  0
  3  2  2  0  0  0  0
  4  3  1  0  0  0  0
  5  4  2  0  0  0  0
  5  6  1  0  0  0  0
  6  1  2  0  0  0  0
  9  4  1  0  0  0  0
 10  5  1  0  0  0  0
 11  6  1  0  0  0  0
 11 13  2  0  0  0  0
 12 11  2  0  0  0  0
 15 14  1  0  0  0  0
 16 22  1  0  0  0  0
 17 16  1  0  0  0  0
 17 23  1  0  0  0  0
 18 17  2  0  0  0  0
 19 20  2  0  0  0  0
 19 18  1  0  0  0  0
 20 21  1  0  0  0  0
 21 26  1  0  0  0  0
 21 16  2  0  0  0  0
 24 19  1  0  0  0  0
 25 20  1  0  0  0  0
 26 28  1  0  0  0  0
 26 27  2  0  0  0  0
 28 15  1  0  0  0  0
 29 26  2  0  0  0  0
 30 32  1  0  0  0  0
 30 18  1  0  0  0  0
 30 31  1  0  0  0  0
 33 30  1  0  0  0  0
M  RAD  2  14   2  15   2
M  END
