Coordinates from ORCA-job p-NO2-Ph-N2-OTs-B3LYPG-6-31G_dp-scan-d09-49-n400
 OpenBabel08281821283D

 33 34  0  0  0  0  0  0  0  0999 V2000
   -1.2056    0.4610   -1.7508 C   0  0  0  0  0  0  0  0  0  0  0  0
   -0.4829    1.5505   -1.2893 C   0  0  0  0  0  0  0  0  0  0  0  0
    0.7347    1.9209   -1.8963 C   0  0  0  0  0  0  0  0  0  0  0  0
    1.2122    1.1880   -3.0032 C   0  0  0  0  0  0  0  0  0  0  0  0
    0.4815    0.1030   -3.4741 C   0  0  0  0  0  0  0  0  0  0  0  0
   -0.7088   -0.2508   -2.8419 C   0  0  0  0  0  0  0  0  0  0  0  0
   -2.1378    0.1573   -1.2929 H   0  0  0  0  0  0  0  0  0  0  0  0
   -0.8354    2.1396   -0.4502 H   0  0  0  0  0  0  0  0  0  0  0  0
    2.1337    1.4648   -3.4915 H   0  0  0  0  0  0  0  0  0  0  0  0
    0.8216   -0.4745   -4.3247 H   0  0  0  0  0  0  0  0  0  0  0  0
   -1.4653   -1.4087   -3.3433 N   0  0  0  0  0  0  0  0  0  0  0  0
   -1.0011   -2.0199   -4.3049 O   0  0  0  0  0  0  0  0  0  0  0  0
   -2.5145   -1.6940   -2.7676 O   0  0  0  0  0  0  0  0  0  0  0  0
    1.3059    3.0581   -1.2949 N   0  0  0  0  0  0  0  0  0  0  0  0
    2.4480    3.4763   -1.5269 N   0  0  0  0  0  0  0  0  0  0  0  0
    6.0201    1.3060   -2.5747 C   0  0  0  0  0  0  0  0  0  0  0  0
    6.6649    0.2849   -3.2668 C   0  0  0  0  0  0  0  0  0  0  0  0
    7.0042    0.4319   -4.6218 C   0  0  0  0  0  0  0  0  0  0  0  0
    6.6835    1.6354   -5.2673 C   0  0  0  0  0  0  0  0  0  0  0  0
    6.0361    2.6668   -4.5897 C   0  0  0  0  0  0  0  0  0  0  0  0
    5.7026    2.4903   -3.2473 C   0  0  0  0  0  0  0  0  0  0  0  0
    5.7646    1.1799   -1.5257 H   0  0  0  0  0  0  0  0  0  0  0  0
    6.9142   -0.6380   -2.7499 H   0  0  0  0  0  0  0  0  0  0  0  0
    6.9508    1.7676   -6.3122 H   0  0  0  0  0  0  0  0  0  0  0  0
    5.7955    3.6055   -5.0789 H   0  0  0  0  0  0  0  0  0  0  0  0
    4.9624    3.8484   -2.3103 S   0  0  2  0  0  0  0  0  0  0  0  0
    3.0132    4.7418   -0.8295 O   0  0  0  0  0  0  0  0  0  0  0  0
    3.3226    2.8978   -2.3735 O   0  0  0  0  0  0  0  0  0  0  0  0
    4.8969    4.9827   -3.2538 O   0  0  0  0  0  0  0  0  0  0  0  0
    7.6859   -0.6897   -5.3664 C   0  0  0  0  0  0  0  0  0  0  0  0
    8.4364   -1.1853   -4.7430 H   0  0  0  0  0  0  0  0  0  0  0  0
    6.9597   -1.4543   -5.6685 H   0  0  0  0  0  0  0  0  0  0  0  0
    8.1786   -0.3283   -6.2725 H   0  0  0  0  0  0  0  0  0  0  0  0
  1  7  1  0  0  0  0
  1  2  1  0  0  0  0
  2  8  1  0  0  0  0
  3 14  1  0  0  0  0
  3  2  2  0  0  0  0
  4  3  1  0  0  0  0
  5  4  2  0  0  0  0
  5  6  1  0  0  0  0
  6  1  2  0  0  0  0
  9  4  1  0  0  0  0
 10  5  1  0  0  0  0
 11  6  1  0  0  0  0
 11 13  2  0  0  0  0
 12 11  2  0  0  0  0
 15 14  1  0  0  0  0
 15 27  1  0  0  0  0
 16 22  1  0  0  0  0
 17 23  1  0  0  0  0
 17 16  2  0  0  0  0
 18 17  1  0  0  0  0
 19 18  2  0  0  0  0
 19 20  1  0  0  0  0
 20 21  2  0  0  0  0
 21 16  1  0  0  0  0
 21 26  1  0  0  0  0
 24 19  1  0  0  0  0
 25 20  1  0  0  0  0
 26 29  1  6  0  0  0
 28 26  1  0  0  0  0
 28 15  1  0  0  0  0
 30 31  1  0  0  0  0
 30 18  1  0  0  0  0
 32 30  1  0  0  0  0
 33 30  1  0  0  0  0
M  RAD  3  14   2  27   2  29   2
M  END
