Coordinates from ORCA-job p-NO2-Ph-N2-OTs-B3LYPG-6-31G_dp-scan-d09-49-n400
 OpenBabel08281821283D

 33 33  0  0  0  0  0  0  0  0999 V2000
   -1.2112    0.4017   -1.7365 C   0  0  0  0  0  0  0  0  0  0  0  0
   -0.4617    1.4580   -1.2374 C   0  0  0  0  0  0  0  0  0  0  0  0
    0.7349    1.8476   -1.8655 C   0  0  0  0  0  0  0  0  0  0  0  0
    1.1737    1.1797   -3.0252 C   0  0  0  0  0  0  0  0  0  0  0  0
    0.4160    0.1299   -3.5350 C   0  0  0  0  0  0  0  0  0  0  0  0
   -0.7562   -0.2465   -2.8830 C   0  0  0  0  0  0  0  0  0  0  0  0
   -2.1313    0.0788   -1.2676 H   0  0  0  0  0  0  0  0  0  0  0  0
   -0.7795    2.0027   -0.3555 H   0  0  0  0  0  0  0  0  0  0  0  0
    2.0847    1.4773   -3.5212 H   0  0  0  0  0  0  0  0  0  0  0  0
    0.7215   -0.4019   -4.4272 H   0  0  0  0  0  0  0  0  0  0  0  0
   -1.5437   -1.3687   -3.4267 N   0  0  0  0  0  0  0  0  0  0  0  0
   -1.1181   -1.9243   -4.4375 O   0  0  0  0  0  0  0  0  0  0  0  0
   -2.5748   -1.6771   -2.8324 O   0  0  0  0  0  0  0  0  0  0  0  0
    1.3514    2.9555   -1.2225 N   0  0  0  0  0  0  0  0  0  0  0  0
    2.4650    3.4056   -1.4490 N   0  0  0  0  0  0  0  0  0  0  0  0
    6.0348    1.3463   -2.5822 C   0  0  0  0  0  0  0  0  0  0  0  0
    6.7105    0.3218   -3.2390 C   0  0  0  0  0  0  0  0  0  0  0  0
    7.0323    0.4250   -4.6024 C   0  0  0  0  0  0  0  0  0  0  0  0
    6.6612    1.5881   -5.2930 C   0  0  0  0  0  0  0  0  0  0  0  0
    5.9824    2.6223   -4.6510 C   0  0  0  0  0  0  0  0  0  0  0  0
    5.6663    2.4886   -3.2996 C   0  0  0  0  0  0  0  0  0  0  0  0
    5.7941    1.2547   -1.5262 H   0  0  0  0  0  0  0  0  0  0  0  0
    6.9989   -0.5691   -2.6873 H   0  0  0  0  0  0  0  0  0  0  0  0
    6.9145    1.6874   -6.3450 H   0  0  0  0  0  0  0  0  0  0  0  0
    5.7037    3.5312   -5.1751 H   0  0  0  0  0  0  0  0  0  0  0  0
    4.8901    3.8623   -2.4162 S   0  0  2  0  0  0  0  0  0  0  0  0
    3.4381    5.2385   -0.4963 O   0  0  0  0  0  0  0  0  0  0  0  0
    3.2982    2.8616   -2.3667 O   0  0  0  0  0  0  0  0  0  0  0  0
    4.7373    4.9378   -3.4169 O   0  0  0  0  0  0  0  0  0  0  0  0
    7.7498   -0.6998   -5.3078 C   0  0  0  0  0  0  0  0  0  0  0  0
    8.5128   -1.1517   -4.6667 H   0  0  0  0  0  0  0  0  0  0  0  0
    7.0481   -1.4954   -5.5868 H   0  0  0  0  0  0  0  0  0  0  0  0
    8.2346   -0.3536   -6.2241 H   0  0  0  0  0  0  0  0  0  0  0  0
  1  7  1  0  0  0  0
  1  2  1  0  0  0  0
  2  8  1  0  0  0  0
  3  2  2  0  0  0  0
  3 14  1  0  0  0  0
  4  3  1  0  0  0  0
  5  4  2  0  0  0  0
  5  6  1  0  0  0  0
  6  1  2  0  0  0  0
  9  4  1  0  0  0  0
 10  5  1  0  0  0  0
 11  6  1  0  0  0  0
 11 13  2  0  0  0  0
 12 11  2  0  0  0  0
 15 14  2  0  0  0  0
 16 22  1  0  0  0  0
 17 23  1  0  0  0  0
 17 16  1  0  0  0  0
 18 17  2  0  0  0  0
 19 20  2  0  0  0  0
 19 18  1  0  0  0  0
 20 21  1  0  0  0  0
 21 16  2  0  0  0  0
 21 26  1  0  0  0  0
 24 19  1  0  0  0  0
 25 20  1  0  0  0  0
 26 29  1  6  0  0  0
 26 28  1  0  0  0  0
 28 15  1  0  0  0  0
 30 31  1  0  0  0  0
 30 18  1  0  0  0  0
 32 30  1  0  0  0  0
 33 30  1  0  0  0  0
M  RAD  2  27   3  29   2
M  END
