Coordinates from ORCA-job p-NO2-Ph-N2-OTs-B3LYPG-6-31G_dp-scan-d09-49-n400
 OpenBabel08281821283D

 33 33  0  0  0  0  0  0  0  0999 V2000
   -1.2371    0.4369   -1.7615 C   0  0  0  0  0  0  0  0  0  0  0  0
   -0.4910    1.5004   -1.2730 C   0  0  0  0  0  0  0  0  0  0  0  0
    0.7300    1.8555   -1.8742 C   0  0  0  0  0  0  0  0  0  0  0  0
    1.1989    1.1429   -2.9949 C   0  0  0  0  0  0  0  0  0  0  0  0
    0.4457    0.0844   -3.4934 C   0  0  0  0  0  0  0  0  0  0  0  0
   -0.7524   -0.2556   -2.8693 C   0  0  0  0  0  0  0  0  0  0  0  0
   -2.1761    0.1408   -1.3128 H   0  0  0  0  0  0  0  0  0  0  0  0
   -0.8301    2.0775   -0.4200 H   0  0  0  0  0  0  0  0  0  0  0  0
    2.1295    1.4128   -3.4700 H   0  0  0  0  0  0  0  0  0  0  0  0
    0.7743   -0.4815   -4.3561 H   0  0  0  0  0  0  0  0  0  0  0  0
   -1.5354   -1.3865   -3.4009 N   0  0  0  0  0  0  0  0  0  0  0  0
   -1.0825   -1.9826   -4.3762 O   0  0  0  0  0  0  0  0  0  0  0  0
   -2.5908   -1.6610   -2.8331 O   0  0  0  0  0  0  0  0  0  0  0  0
    1.3401    2.9743   -1.2459 N   0  0  0  0  0  0  0  0  0  0  0  0
    2.4605    3.4088   -1.4712 N   0  0  0  0  0  0  0  0  0  0  0  0
    6.0431    1.3392   -2.5815 C   0  0  0  0  0  0  0  0  0  0  0  0
    6.7064    0.3163   -3.2532 C   0  0  0  0  0  0  0  0  0  0  0  0
    7.0256    0.4340   -4.6159 C   0  0  0  0  0  0  0  0  0  0  0  0
    6.6651    1.6101   -5.2903 C   0  0  0  0  0  0  0  0  0  0  0  0
    5.9987    2.6426   -4.6331 C   0  0  0  0  0  0  0  0  0  0  0  0
    5.6850    2.4953   -3.2822 C   0  0  0  0  0  0  0  0  0  0  0  0
    5.8044    1.2362   -1.5260 H   0  0  0  0  0  0  0  0  0  0  0  0
    6.9867   -0.5848   -2.7141 H   0  0  0  0  0  0  0  0  0  0  0  0
    6.9168    1.7204   -6.3416 H   0  0  0  0  0  0  0  0  0  0  0  0
    5.7278    3.5607   -5.1449 H   0  0  0  0  0  0  0  0  0  0  0  0
    4.9234    3.8615   -2.3746 S   0  0  2  0  0  0  0  0  0  0  0  0
    3.3666    5.1594   -0.5562 O   0  0  0  0  0  0  0  0  0  0  0  0
    3.3078    2.8594   -2.3575 O   0  0  0  0  0  0  0  0  0  0  0  0
    4.7904    4.9543   -3.3586 O   0  0  0  0  0  0  0  0  0  0  0  0
    7.7282   -0.6893   -5.3385 C   0  0  0  0  0  0  0  0  0  0  0  0
    8.4832   -1.1628   -4.7035 H   0  0  0  0  0  0  0  0  0  0  0  0
    7.0155   -1.4698   -5.6319 H   0  0  0  0  0  0  0  0  0  0  0  0
    8.2198   -0.3352   -6.2482 H   0  0  0  0  0  0  0  0  0  0  0  0
  1  7  1  0  0  0  0
  1  2  1  0  0  0  0
  2  8  1  0  0  0  0
  3  2  2  0  0  0  0
  3 14  1  0  0  0  0
  4  3  1  0  0  0  0
  5  4  2  0  0  0  0
  5  6  1  0  0  0  0
  6  1  2  0  0  0  0
  9  4  1  0  0  0  0
 10  5  1  0  0  0  0
 11  6  1  0  0  0  0
 11 13  2  0  0  0  0
 12 11  2  0  0  0  0
 15 14  2  0  0  0  0
 16 22  1  0  0  0  0
 17 23  1  0  0  0  0
 17 16  1  0  0  0  0
 18 17  2  0  0  0  0
 19 20  2  0  0  0  0
 19 18  1  0  0  0  0
 20 21  1  0  0  0  0
 21 16  2  0  0  0  0
 21 26  1  0  0  0  0
 24 19  1  0  0  0  0
 25 20  1  0  0  0  0
 26 29  1  6  0  0  0
 26 28  1  0  0  0  0
 28 15  1  0  0  0  0
 30 31  1  0  0  0  0
 30 18  1  0  0  0  0
 32 30  1  0  0  0  0
 33 30  1  0  0  0  0
M  RAD  2  27   3  29   2
M  END
