Coordinates from ORCA-job p-NO2-Ph-N2-OTs-B3LYPG-6-31G_dp-scan-d09-49-n400
 OpenBabel08281821283D

 33 33  0  0  0  0  0  0  0  0999 V2000
   -1.2780    0.4843   -1.7837 C   0  0  0  0  0  0  0  0  0  0  0  0
   -0.5314    1.5564   -1.3162 C   0  0  0  0  0  0  0  0  0  0  0  0
    0.7145    1.8678   -1.8912 C   0  0  0  0  0  0  0  0  0  0  0  0
    1.2082    1.0993   -2.9637 C   0  0  0  0  0  0  0  0  0  0  0  0
    0.4555    0.0307   -3.4401 C   0  0  0  0  0  0  0  0  0  0  0  0
   -0.7682   -0.2641   -2.8431 C   0  0  0  0  0  0  0  0  0  0  0  0
   -2.2357    0.2219   -1.3539 H   0  0  0  0  0  0  0  0  0  0  0  0
   -0.8882    2.1741   -0.4996 H   0  0  0  0  0  0  0  0  0  0  0  0
    2.1582    1.3342   -3.4188 H   0  0  0  0  0  0  0  0  0  0  0  0
    0.8036   -0.5780   -4.2654 H   0  0  0  0  0  0  0  0  0  0  0  0
   -1.5508   -1.4055   -3.3507 N   0  0  0  0  0  0  0  0  0  0  0  0
   -1.0751   -2.0512   -4.2827 O   0  0  0  0  0  0  0  0  0  0  0  0
   -2.6291   -1.6392   -2.8080 O   0  0  0  0  0  0  0  0  0  0  0  0
    1.3233    2.9976   -1.2881 N   0  0  0  0  0  0  0  0  0  0  0  0
    2.4560    3.4008   -1.5196 N   0  0  0  0  0  0  0  0  0  0  0  0
    6.0622    1.3281   -2.5828 C   0  0  0  0  0  0  0  0  0  0  0  0
    6.7150    0.3109   -3.2733 C   0  0  0  0  0  0  0  0  0  0  0  0
    7.0364    0.4516   -4.6332 C   0  0  0  0  0  0  0  0  0  0  0  0
    6.6897    1.6448   -5.2848 C   0  0  0  0  0  0  0  0  0  0  0  0
    6.0339    2.6713   -4.6084 C   0  0  0  0  0  0  0  0  0  0  0  0
    5.7179    2.5023   -3.2602 C   0  0  0  0  0  0  0  0  0  0  0  0
    5.8213    1.2071   -1.5295 H   0  0  0  0  0  0  0  0  0  0  0  0
    6.9849   -0.6036   -2.7517 H   0  0  0  0  0  0  0  0  0  0  0  0
    6.9433    1.7723   -6.3338 H   0  0  0  0  0  0  0  0  0  0  0  0
    5.7729    3.6016   -5.1032 H   0  0  0  0  0  0  0  0  0  0  0  0
    4.9673    3.8521   -2.3180 S   0  0  2  0  0  0  0  0  0  0  0  0
    3.2565    4.9898   -0.6678 O   0  0  0  0  0  0  0  0  0  0  0  0
    3.3177    2.8429   -2.3641 O   0  0  0  0  0  0  0  0  0  0  0  0
    4.8700    4.9724   -3.2744 O   0  0  0  0  0  0  0  0  0  0  0  0
    7.7259   -0.6656   -5.3773 C   0  0  0  0  0  0  0  0  0  0  0  0
    8.4764   -1.1591   -4.7522 H   0  0  0  0  0  0  0  0  0  0  0  0
    7.0042   -1.4328   -5.6837 H   0  0  0  0  0  0  0  0  0  0  0  0
    8.2200   -0.3005   -6.2812 H   0  0  0  0  0  0  0  0  0  0  0  0
  1  7  1  0  0  0  0
  1  2  1  0  0  0  0
  2  8  1  0  0  0  0
  3  2  2  0  0  0  0
  3 14  1  0  0  0  0
  4  3  1  0  0  0  0
  5  4  2  0  0  0  0
  5  6  1  0  0  0  0
  6  1  2  0  0  0  0
  9  4  1  0  0  0  0
 10  5  1  0  0  0  0
 11  6  1  0  0  0  0
 11 13  2  0  0  0  0
 12 11  2  0  0  0  0
 15 14  2  0  0  0  0
 16 22  1  0  0  0  0
 17 23  1  0  0  0  0
 17 16  2  0  0  0  0
 18 17  1  0  0  0  0
 19 18  2  0  0  0  0
 19 20  1  0  0  0  0
 20 21  2  0  0  0  0
 21 16  1  0  0  0  0
 21 26  1  0  0  0  0
 24 19  1  0  0  0  0
 25 20  1  0  0  0  0
 26 29  1  6  0  0  0
 28 26  1  0  0  0  0
 28 15  1  0  0  0  0
 30 31  1  0  0  0  0
 30 18  1  0  0  0  0
 32 30  1  0  0  0  0
 33 30  1  0  0  0  0
M  RAD  2  27   3  29   2
M  END
