Coordinates from ORCA-job p-NO2-Ph-N2-OTs-B3LYPG-6-31G_dp-scan-d09-49-n400
 OpenBabel08281821283D

 33 34  0  0  0  0  0  0  0  0999 V2000
   -1.2604   -0.6197   -2.6393 C   0  0  0  0  0  0  0  0  0  0  0  0
   -0.1530   -0.6410   -3.4770 C   0  0  0  0  0  0  0  0  0  0  0  0
    0.6341    0.5115   -3.6348 C   0  0  0  0  0  0  0  0  0  0  0  0
    0.3009    1.7110   -2.9785 C   0  0  0  0  0  0  0  0  0  0  0  0
   -0.8210    1.7351   -2.1562 C   0  0  0  0  0  0  0  0  0  0  0  0
   -1.5744    0.5741   -1.9939 C   0  0  0  0  0  0  0  0  0  0  0  0
   -1.8811   -1.4932   -2.4860 H   0  0  0  0  0  0  0  0  0  0  0  0
    0.1232   -1.5403   -4.0155 H   0  0  0  0  0  0  0  0  0  0  0  0
    0.9073    2.5943   -3.1141 H   0  0  0  0  0  0  0  0  0  0  0  0
   -1.1144    2.6374   -1.6352 H   0  0  0  0  0  0  0  0  0  0  0  0
   -2.7554    0.6107   -1.1059 N   0  0  0  0  0  0  0  0  0  0  0  0
   -3.0137    1.6763   -0.5525 O   0  0  0  0  0  0  0  0  0  0  0  0
   -3.3993   -0.4284   -0.9806 O   0  0  0  0  0  0  0  0  0  0  0  0
    1.7159    0.3385   -4.5307 N   0  0  0  0  0  0  0  0  0  0  0  0
    2.7030    0.9479   -4.8062 N   0  0  0  0  0  0  0  0  0  0  0  0
    6.1340    2.4318   -2.7671 C   0  0  0  0  0  0  0  0  0  0  0  0
    7.2748    1.6940   -2.4608 C   0  0  0  0  0  0  0  0  0  0  0  0
    7.8573    0.8328   -3.4027 C   0  0  0  0  0  0  0  0  0  0  0  0
    7.2703    0.7347   -4.6727 C   0  0  0  0  0  0  0  0  0  0  0  0
    6.1292    1.4644   -4.9988 C   0  0  0  0  0  0  0  0  0  0  0  0
    5.5675    2.3052   -4.0367 C   0  0  0  0  0  0  0  0  0  0  0  0
    5.6961    3.1120   -2.0447 H   0  0  0  0  0  0  0  0  0  0  0  0
    7.7263    1.7952   -1.4777 H   0  0  0  0  0  0  0  0  0  0  0  0
    7.7181    0.0856   -5.4206 H   0  0  0  0  0  0  0  0  0  0  0  0
    5.6851    1.4014   -5.9857 H   0  0  0  0  0  0  0  0  0  0  0  0
    4.1067    3.2483   -4.4400 S   0  0  0  0  0  0  0  0  0  0  0  0
    4.0494    4.4265   -3.5764 O   0  0  0  0  0  0  0  0  0  0  0  0
    2.8811    2.3000   -3.8921 O   0  0  0  0  0  0  0  0  0  0  0  0
    4.0046    3.3586   -5.8917 O   0  0  0  0  0  0  0  0  0  0  0  0
    9.0789    0.0178   -3.0530 C   0  0  0  0  0  0  0  0  0  0  0  0
    9.6838    0.5116   -2.2870 H   0  0  0  0  0  0  0  0  0  0  0  0
    8.7937   -0.9660   -2.6603 H   0  0  0  0  0  0  0  0  0  0  0  0
    9.7098   -0.1536   -3.9300 H   0  0  0  0  0  0  0  0  0  0  0  0
  1  7  1  0  0  0  0
  1  6  2  0  0  0  0
  2  1  1  0  0  0  0
  3  2  2  0  0  0  0
  3  4  1  0  0  0  0
  4  5  2  0  0  0  0
  5  6  1  0  0  0  0
  5 10  1  0  0  0  0
  6 11  1  0  0  0  0
  8  2  1  0  0  0  0
  9  4  1  0  0  0  0
 11 13  2  0  0  0  0
 11 12  2  0  0  0  0
 14  3  1  0  0  0  0
 15 14  1  0  0  0  0
 15 28  1  0  0  0  0
 16 17  1  0  0  0  0
 16 22  1  0  0  0  0
 17 23  1  0  0  0  0
 18 30  1  0  0  0  0
 18 17  2  0  0  0  0
 19 18  1  0  0  0  0
 20 19  2  0  0  0  0
 20 21  1  0  0  0  0
 21 16  2  0  0  0  0
 24 19  1  0  0  0  0
 25 20  1  0  0  0  0
 26 21  1  0  0  0  0
 26 28  1  0  0  0  0
 26 27  2  0  0  0  0
 29 26  2  0  0  0  0
 30 32  1  0  0  0  0
 30 31  1  0  0  0  0
 33 30  1  0  0  0  0
M  RAD  2  14   2  15   2
M  END
