Coordinates from ORCA-job p-NO2-Ph-N2-OTs-B3LYPG-6-31G_dp-scan-d09-49-n400
 OpenBabel08281821283D

 33 34  0  0  0  0  0  0  0  0999 V2000
   -1.0460    0.3529   -1.6956 C   0  0  0  0  0  0  0  0  0  0  0  0
   -0.3642    1.4628   -1.2209 C   0  0  0  0  0  0  0  0  0  0  0  0
    0.7635    1.9673   -1.9016 C   0  0  0  0  0  0  0  0  0  0  0  0
    1.1805    1.3532   -3.1014 C   0  0  0  0  0  0  0  0  0  0  0  0
    0.4876    0.2503   -3.5868 C   0  0  0  0  0  0  0  0  0  0  0  0
   -0.6068   -0.2418   -2.8779 C   0  0  0  0  0  0  0  0  0  0  0  0
   -1.9064   -0.0528   -1.1796 H   0  0  0  0  0  0  0  0  0  0  0  0
   -0.6805    1.9650   -0.3139 H   0  0  0  0  0  0  0  0  0  0  0  0
    2.0264    1.7367   -3.6511 H   0  0  0  0  0  0  0  0  0  0  0  0
    0.7838   -0.2356   -4.5078 H   0  0  0  0  0  0  0  0  0  0  0  0
   -1.3215   -1.4175   -3.3949 N   0  0  0  0  0  0  0  0  0  0  0  0
   -0.9069   -1.9256   -4.4363 O   0  0  0  0  0  0  0  0  0  0  0  0
   -2.2895   -1.8226   -2.7518 O   0  0  0  0  0  0  0  0  0  0  0  0
    1.2946    3.1123   -1.2826 N   0  0  0  0  0  0  0  0  0  0  0  0
    2.4315    3.5704   -1.5102 N   0  0  0  0  0  0  0  0  0  0  0  0
    5.9512    1.3081   -2.5525 C   0  0  0  0  0  0  0  0  0  0  0  0
    6.5791    0.2648   -3.2265 C   0  0  0  0  0  0  0  0  0  0  0  0
    6.9312    0.3862   -4.5809 C   0  0  0  0  0  0  0  0  0  0  0  0
    6.6408    1.5872   -5.2446 C   0  0  0  0  0  0  0  0  0  0  0  0
    6.0107    2.6414   -4.5855 C   0  0  0  0  0  0  0  0  0  0  0  0
    5.6637    2.4887   -3.2439 C   0  0  0  0  0  0  0  0  0  0  0  0
    5.6844    1.2009   -1.5043 H   0  0  0  0  0  0  0  0  0  0  0  0
    6.8045   -0.6564   -2.6956 H   0  0  0  0  0  0  0  0  0  0  0  0
    6.9181    1.7001   -6.2891 H   0  0  0  0  0  0  0  0  0  0  0  0
    5.7936    3.5785   -5.0887 H   0  0  0  0  0  0  0  0  0  0  0  0
    4.9450    3.8790   -2.3408 S   0  0  2  0  0  0  0  0  0  0  0  0
    2.9255    4.7404   -0.8720 O   0  0  0  0  0  0  0  0  0  0  0  0
    3.3121    2.9758   -2.3747 O   0  0  0  0  0  0  0  0  0  0  0  0
    4.8922    4.9996   -3.3028 O   0  0  0  0  0  0  0  0  0  0  0  0
    7.5945   -0.7595   -5.3054 C   0  0  0  0  0  0  0  0  0  0  0  0
    8.3302   -1.2618   -4.6698 H   0  0  0  0  0  0  0  0  0  0  0  0
    6.8545   -1.5128   -5.6021 H   0  0  0  0  0  0  0  0  0  0  0  0
    8.1008   -0.4207   -6.2127 H   0  0  0  0  0  0  0  0  0  0  0  0
  1  2  1  0  0  0  0
  1  7  1  0  0  0  0
  2  8  1  0  0  0  0
  3 14  1  0  0  0  0
  3  2  2  0  0  0  0
  4  3  1  0  0  0  0
  5  4  2  0  0  0  0
  5  6  1  0  0  0  0
  6  1  2  0  0  0  0
  9  4  1  0  0  0  0
 10  5  1  0  0  0  0
 11  6  1  0  0  0  0
 11 13  2  0  0  0  0
 12 11  2  0  0  0  0
 15 14  1  0  0  0  0
 15 27  1  0  0  0  0
 16 22  1  0  0  0  0
 17 23  1  0  0  0  0
 17 16  1  0  0  0  0
 18 17  2  0  0  0  0
 19 20  2  0  0  0  0
 19 18  1  0  0  0  0
 20 21  1  0  0  0  0
 21 16  2  0  0  0  0
 21 26  1  0  0  0  0
 24 19  1  0  0  0  0
 25 20  1  0  0  0  0
 26 29  1  6  0  0  0
 28 26  1  0  0  0  0
 28 15  1  0  0  0  0
 30 31  1  0  0  0  0
 30 18  1  0  0  0  0
 32 30  1  0  0  0  0
 33 30  1  0  0  0  0
M  RAD  3  14   2  27   2  29   2
M  END
