Coordinates from ORCA-job p-NO2-Ph-N2-OTs-B3LYPG-6-31G_dp-scan-d09-49-n400
 OpenBabel08281821283D

 33 33  0  0  0  0  0  0  0  0999 V2000
   -1.7741   -0.1125   -3.4216 C   0  0  0  0  0  0  0  0  0  0  0  0
   -0.5275   -0.7230   -3.4753 C   0  0  0  0  0  0  0  0  0  0  0  0
    0.5574   -0.0973   -2.8484 C   0  0  0  0  0  0  0  0  0  0  0  0
    0.4400    1.1154   -2.1515 C   0  0  0  0  0  0  0  0  0  0  0  0
   -0.8151    1.7119   -2.0955 C   0  0  0  0  0  0  0  0  0  0  0  0
   -1.8904    1.0919   -2.7297 C   0  0  0  0  0  0  0  0  0  0  0  0
   -2.6457   -0.5469   -3.8929 H   0  0  0  0  0  0  0  0  0  0  0  0
   -0.3834   -1.6638   -3.9935 H   0  0  0  0  0  0  0  0  0  0  0  0
    1.3126    1.5538   -1.6842 H   0  0  0  0  0  0  0  0  0  0  0  0
   -0.9664    2.6499   -1.5769 H   0  0  0  0  0  0  0  0  0  0  0  0
   -3.2223    1.7377   -2.6620 N   0  0  0  0  0  0  0  0  0  0  0  0
   -3.3067    2.7871   -2.0322 O   0  0  0  0  0  0  0  0  0  0  0  0
   -4.1482    1.1740   -3.2391 O   0  0  0  0  0  0  0  0  0  0  0  0
    1.7909   -0.7671   -2.9287 N   0  0  0  0  0  0  0  0  0  0  0  0
    2.9258   -0.7247   -2.7472 N   0  0  0  0  0  0  0  0  0  0  0  0
    6.4962    2.2397   -2.5054 C   0  0  0  0  0  0  0  0  0  0  0  0
    7.8388    2.0023   -2.7881 C   0  0  0  0  0  0  0  0  0  0  0  0
    8.2272    1.3296   -3.9568 C   0  0  0  0  0  0  0  0  0  0  0  0
    7.2292    0.9074   -4.8452 C   0  0  0  0  0  0  0  0  0  0  0  0
    5.8798    1.1344   -4.5753 C   0  0  0  0  0  0  0  0  0  0  0  0
    5.5210    1.7960   -3.4014 C   0  0  0  0  0  0  0  0  0  0  0  0
    6.2022    2.7769   -1.6101 H   0  0  0  0  0  0  0  0  0  0  0  0
    8.5998    2.3514   -2.0951 H   0  0  0  0  0  0  0  0  0  0  0  0
    7.5117    0.4014   -5.7650 H   0  0  0  0  0  0  0  0  0  0  0  0
    5.1080    0.8234   -5.2704 H   0  0  0  0  0  0  0  0  0  0  0  0
    3.7915    2.0814   -3.0313 S   0  0  0  0  0  0  0  0  0  0  0  0
    3.6807    3.4119   -2.4116 O   0  0  0  0  0  0  0  0  0  0  0  0
    3.4378    1.0044   -1.9443 O   0  0  0  0  0  0  0  0  0  0  0  0
    3.0176    1.8000   -4.2562 O   0  0  0  0  0  0  0  0  0  0  0  0
    9.6845    1.0518   -4.2394 C   0  0  0  0  0  0  0  0  0  0  0  0
   10.3309    1.8183   -3.8020 H   0  0  0  0  0  0  0  0  0  0  0  0
    9.9904    0.0879   -3.8137 H   0  0  0  0  0  0  0  0  0  0  0  0
    9.8840    1.0102   -5.3142 H   0  0  0  0  0  0  0  0  0  0  0  0
  1  6  1  0  0  0  0
  2  1  2  0  0  0  0
  2  3  1  0  0  0  0
  3  4  2  0  0  0  0
  4  5  1  0  0  0  0
  4  9  1  0  0  0  0
  5 10  1  0  0  0  0
  6 11  1  0  0  0  0
  6  5  2  0  0  0  0
  7  1  1  0  0  0  0
  8  2  1  0  0  0  0
 11 12  2  0  0  0  0
 13 11  2  0  0  0  0
 14  3  1  0  0  0  0
 14 15  2  0  0  0  0
 16 22  1  0  0  0  0
 17 16  1  0  0  0  0
 17 23  1  0  0  0  0
 18 17  2  0  0  0  0
 19 20  2  0  0  0  0
 19 18  1  0  0  0  0
 20 21  1  0  0  0  0
 21 26  1  0  0  0  0
 21 16  2  0  0  0  0
 24 19  1  0  0  0  0
 25 20  1  0  0  0  0
 26 27  2  0  0  0  0
 26 28  1  0  0  0  0
 29 26  2  0  0  0  0
 30 18  1  0  0  0  0
 30 32  1  0  0  0  0
 30 31  1  0  0  0  0
 33 30  1  0  0  0  0
M  RAD  2  15   2  28   2
M  END
