Coordinates from ORCA-job p-NO2-Ph-N2-OTs-B3LYPG-6-31G_dp-scan-d09-49-n400
 OpenBabel08281821283D

 33 34  0  0  0  0  0  0  0  0999 V2000
   -0.9123   -0.6349   -2.4117 C   0  0  0  0  0  0  0  0  0  0  0  0
    0.1520   -0.6201   -3.3042 C   0  0  0  0  0  0  0  0  0  0  0  0
    0.7022    0.5992   -3.7293 C   0  0  0  0  0  0  0  0  0  0  0  0
    0.1479    1.8194   -3.3048 C   0  0  0  0  0  0  0  0  0  0  0  0
   -0.9392    1.8061   -2.4377 C   0  0  0  0  0  0  0  0  0  0  0  0
   -1.4423    0.5841   -1.9947 C   0  0  0  0  0  0  0  0  0  0  0  0
   -1.3451   -1.5590   -2.0515 H   0  0  0  0  0  0  0  0  0  0  0  0
    0.5766   -1.5437   -3.6812 H   0  0  0  0  0  0  0  0  0  0  0  0
    0.5581    2.7578   -3.6483 H   0  0  0  0  0  0  0  0  0  0  0  0
   -1.3938    2.7255   -2.0918 H   0  0  0  0  0  0  0  0  0  0  0  0
   -2.5823    0.5803   -1.0594 N   0  0  0  0  0  0  0  0  0  0  0  0
   -3.0357    1.6688   -0.7125 O   0  0  0  0  0  0  0  0  0  0  0  0
   -3.0053   -0.5123   -0.6863 O   0  0  0  0  0  0  0  0  0  0  0  0
    1.7527    0.4574   -4.6776 N   0  0  0  0  0  0  0  0  0  0  0  0
    2.7142    1.1727   -4.8786 N   0  0  0  0  0  0  0  0  0  0  0  0
    6.0288    2.3174   -2.6851 C   0  0  0  0  0  0  0  0  0  0  0  0
    7.1446    1.5336   -2.4043 C   0  0  0  0  0  0  0  0  0  0  0  0
    7.7483    0.7469   -3.3972 C   0  0  0  0  0  0  0  0  0  0  0  0
    7.2086    0.7703   -4.6918 C   0  0  0  0  0  0  0  0  0  0  0  0
    6.0934    1.5476   -4.9955 C   0  0  0  0  0  0  0  0  0  0  0  0
    5.5122    2.3126   -3.9828 C   0  0  0  0  0  0  0  0  0  0  0  0
    5.5732    2.9384   -1.9217 H   0  0  0  0  0  0  0  0  0  0  0  0
    7.5597    1.5396   -1.4002 H   0  0  0  0  0  0  0  0  0  0  0  0
    7.6728    0.1784   -5.4758 H   0  0  0  0  0  0  0  0  0  0  0  0
    5.6843    1.5759   -5.9988 H   0  0  0  0  0  0  0  0  0  0  0  0
    4.0955    3.3241   -4.3535 S   0  0  0  0  0  0  0  0  0  0  0  0
    3.9730    4.3848   -3.3656 O   0  0  0  0  0  0  0  0  0  0  0  0
    2.7996    2.3395   -3.9387 O   0  0  0  0  0  0  0  0  0  0  0  0
    4.0414    3.5763   -5.7864 O   0  0  0  0  0  0  0  0  0  0  0  0
    8.9423   -0.1180   -3.0747 C   0  0  0  0  0  0  0  0  0  0  0  0
    9.5555    0.3251   -2.2847 H   0  0  0  0  0  0  0  0  0  0  0  0
    8.6236   -1.1072   -2.7241 H   0  0  0  0  0  0  0  0  0  0  0  0
    9.5740   -0.2721   -3.9540 H   0  0  0  0  0  0  0  0  0  0  0  0
  1  7  1  0  0  0  0
  1  6  1  0  0  0  0
  2  1  2  0  0  0  0
  3  4  2  0  0  0  0
  3  2  1  0  0  0  0
  4  5  1  0  0  0  0
  5 10  1  0  0  0  0
  5  6  2  0  0  0  0
  6 11  1  0  0  0  0
  8  2  1  0  0  0  0
  9  4  1  0  0  0  0
 11 12  2  0  0  0  0
 11 13  2  0  0  0  0
 14  3  1  0  0  0  0
 15 14  1  0  0  0  0
 15 28  1  0  0  0  0
 16 17  1  0  0  0  0
 16 22  1  0  0  0  0
 17 23  1  0  0  0  0
 18 30  1  0  0  0  0
 18 17  2  0  0  0  0
 19 18  1  0  0  0  0
 20 19  2  0  0  0  0
 20 21  1  0  0  0  0
 21 16  2  0  0  0  0
 24 19  1  0  0  0  0
 25 20  1  0  0  0  0
 26 21  1  0  0  0  0
 26 28  1  0  0  0  0
 26 27  2  0  0  0  0
 29 26  2  0  0  0  0
 30 32  1  0  0  0  0
 30 31  1  0  0  0  0
 33 30  1  0  0  0  0
M  RAD  2  14   2  15   2
M  END
