Coordinates from ORCA-job p-NO2-Ph-N2-OTs-B3LYPG-6-31G_dp-scan-d09-49-n400
 OpenBabel08281821283D

 33 34  0  0  0  0  0  0  0  0999 V2000
   -1.2201   -0.5223   -1.9237 C   0  0  0  0  0  0  0  0  0  0  0  0
    0.1542   -0.4761   -1.7315 C   0  0  0  0  0  0  0  0  0  0  0  0
    0.9041    0.5713   -2.2912 C   0  0  0  0  0  0  0  0  0  0  0  0
    0.2927    1.5869   -3.0501 C   0  0  0  0  0  0  0  0  0  0  0  0
   -1.0852    1.5346   -3.2394 C   0  0  0  0  0  0  0  0  0  0  0  0
   -1.8134    0.4881   -2.6776 C   0  0  0  0  0  0  0  0  0  0  0  0
   -1.8311   -1.3134   -1.5087 H   0  0  0  0  0  0  0  0  0  0  0  0
    0.6647   -1.2386   -1.1541 H   0  0  0  0  0  0  0  0  0  0  0  0
    0.8894    2.3834   -3.4702 H   0  0  0  0  0  0  0  0  0  0  0  0
   -1.6001    2.2934   -3.8154 H   0  0  0  0  0  0  0  0  0  0  0  0
   -3.2769    0.4449   -2.8907 N   0  0  0  0  0  0  0  0  0  0  0  0
   -3.7773    1.3467   -3.5565 O   0  0  0  0  0  0  0  0  0  0  0  0
   -3.8912   -0.4923   -2.3869 O   0  0  0  0  0  0  0  0  0  0  0  0
    2.2865    0.4951   -2.0216 N   0  0  0  0  0  0  0  0  0  0  0  0
    3.2774    1.0949   -2.2471 N   0  0  0  0  0  0  0  0  0  0  0  0
    6.4712    2.2444   -2.6295 C   0  0  0  0  0  0  0  0  0  0  0  0
    7.5818    1.4141   -2.7665 C   0  0  0  0  0  0  0  0  0  0  0  0
    7.8505    0.7553   -3.9749 C   0  0  0  0  0  0  0  0  0  0  0  0
    6.9800    0.9589   -5.0560 C   0  0  0  0  0  0  0  0  0  0  0  0
    5.8653    1.7856   -4.9382 C   0  0  0  0  0  0  0  0  0  0  0  0
    5.6168    2.4183   -3.7187 C   0  0  0  0  0  0  0  0  0  0  0  0
    6.2727    2.7674   -1.7005 H   0  0  0  0  0  0  0  0  0  0  0  0
    8.2549    1.2811   -1.9234 H   0  0  0  0  0  0  0  0  0  0  0  0
    7.1841    0.4712   -6.0054 H   0  0  0  0  0  0  0  0  0  0  0  0
    5.2049    1.9604   -5.7807 H   0  0  0  0  0  0  0  0  0  0  0  0
    4.1926    3.4862   -3.5650 S   0  0  0  0  0  0  0  0  0  0  0  0
    4.4192    4.4043   -2.4465 O   0  0  0  0  0  0  0  0  0  0  0  0
    2.9672    2.4664   -3.2333 O   0  0  0  0  0  0  0  0  0  0  0  0
    3.8595    4.0163   -4.8887 O   0  0  0  0  0  0  0  0  0  0  0  0
    9.0393   -0.1663   -4.1044 C   0  0  0  0  0  0  0  0  0  0  0  0
    9.8662    0.1537   -3.4639 H   0  0  0  0  0  0  0  0  0  0  0  0
    8.7755   -1.1895   -3.8082 H   0  0  0  0  0  0  0  0  0  0  0  0
    9.4026   -0.2101   -5.1351 H   0  0  0  0  0  0  0  0  0  0  0  0
  1  2  1  0  0  0  0
  1  7  1  0  0  0  0
  2  8  1  0  0  0  0
  3 14  1  0  0  0  0
  3  2  2  0  0  0  0
  4  3  1  0  0  0  0
  5  4  2  0  0  0  0
  5  6  1  0  0  0  0
  6  1  2  0  0  0  0
  9  4  1  0  0  0  0
 10  5  1  0  0  0  0
 11  6  1  0  0  0  0
 11 13  2  0  0  0  0
 12 11  2  0  0  0  0
 15 14  1  0  0  0  0
 16 22  1  0  0  0  0
 17 16  1  0  0  0  0
 17 23  1  0  0  0  0
 18 17  2  0  0  0  0
 19 20  2  0  0  0  0
 19 18  1  0  0  0  0
 20 21  1  0  0  0  0
 21 26  1  0  0  0  0
 21 16  2  0  0  0  0
 24 19  1  0  0  0  0
 25 20  1  0  0  0  0
 26 28  1  0  0  0  0
 26 27  2  0  0  0  0
 28 15  1  0  0  0  0
 29 26  2  0  0  0  0
 30 18  1  0  0  0  0
 30 32  1  0  0  0  0
 30 31  1  0  0  0  0
 33 30  1  0  0  0  0
M  RAD  2  14   2  15   2
M  END
