Coordinates from ORCA-job p-NO2-Ph-N2-OTs-B3LYPG-6-31G_dp-scan-d09-49-n400
 OpenBabel08281821283D

 33 34  0  0  0  0  0  0  0  0999 V2000
   -1.2260    0.4743   -1.7589 C   0  0  0  0  0  0  0  0  0  0  0  0
   -0.4980    1.5610   -1.2990 C   0  0  0  0  0  0  0  0  0  0  0  0
    0.7296    1.9138   -1.8957 C   0  0  0  0  0  0  0  0  0  0  0  0
    1.2135    1.1660   -2.9895 C   0  0  0  0  0  0  0  0  0  0  0  0
    0.4780    0.0835   -3.4587 C   0  0  0  0  0  0  0  0  0  0  0  0
   -0.7232   -0.2522   -2.8374 C   0  0  0  0  0  0  0  0  0  0  0  0
   -2.1664    0.1838   -1.3093 H   0  0  0  0  0  0  0  0  0  0  0  0
   -0.8539    2.1611   -0.4691 H   0  0  0  0  0  0  0  0  0  0  0  0
    2.1438    1.4291   -3.4688 H   0  0  0  0  0  0  0  0  0  0  0  0
    0.8225   -0.5058   -4.2994 H   0  0  0  0  0  0  0  0  0  0  0  0
   -1.4854   -1.4075   -3.3372 N   0  0  0  0  0  0  0  0  0  0  0  0
   -1.0158   -2.0320   -4.2875 O   0  0  0  0  0  0  0  0  0  0  0  0
   -2.5442   -1.6767   -2.7717 O   0  0  0  0  0  0  0  0  0  0  0  0
    1.3072    3.0502   -1.2973 N   0  0  0  0  0  0  0  0  0  0  0  0
    2.4496    3.4615   -1.5304 N   0  0  0  0  0  0  0  0  0  0  0  0
    6.0305    1.3065   -2.5774 C   0  0  0  0  0  0  0  0  0  0  0  0
    6.6776    0.2883   -3.2717 C   0  0  0  0  0  0  0  0  0  0  0  0
    7.0144    0.4381   -4.6269 C   0  0  0  0  0  0  0  0  0  0  0  0
    6.6890    1.6415   -5.2704 C   0  0  0  0  0  0  0  0  0  0  0  0
    6.0392    2.6699   -4.5905 C   0  0  0  0  0  0  0  0  0  0  0  0
    5.7082    2.4907   -3.2476 C   0  0  0  0  0  0  0  0  0  0  0  0
    5.7772    1.1782   -1.5281 H   0  0  0  0  0  0  0  0  0  0  0  0
    6.9307   -0.6346   -2.7564 H   0  0  0  0  0  0  0  0  0  0  0  0
    6.9543    1.7759   -6.3155 H   0  0  0  0  0  0  0  0  0  0  0  0
    5.7948    3.6084   -5.0781 H   0  0  0  0  0  0  0  0  0  0  0  0
    4.9653    3.8445   -2.3058 S   0  0  2  0  0  0  0  0  0  0  0  0
    3.0317    4.7502   -0.8218 O   0  0  0  0  0  0  0  0  0  0  0  0
    3.3233    2.8848   -2.3732 O   0  0  0  0  0  0  0  0  0  0  0  0
    4.8979    4.9799   -3.2476 O   0  0  0  0  0  0  0  0  0  0  0  0
    7.6985   -0.6803   -5.3742 C   0  0  0  0  0  0  0  0  0  0  0  0
    8.4506   -1.1753   -4.7521 H   0  0  0  0  0  0  0  0  0  0  0  0
    6.9741   -1.4461   -5.6773 H   0  0  0  0  0  0  0  0  0  0  0  0
    8.1897   -0.3159   -6.2799 H   0  0  0  0  0  0  0  0  0  0  0  0
  1  7  1  0  0  0  0
  1  2  1  0  0  0  0
  2  8  1  0  0  0  0
  3  2  2  0  0  0  0
  3 14  1  0  0  0  0
  4  3  1  0  0  0  0
  5  4  2  0  0  0  0
  5  6  1  0  0  0  0
  6  1  2  0  0  0  0
  9  4  1  0  0  0  0
 10  5  1  0  0  0  0
 11  6  1  0  0  0  0
 11 13  2  0  0  0  0
 12 11  2  0  0  0  0
 15 14  1  0  0  0  0
 15 27  1  0  0  0  0
 16 22  1  0  0  0  0
 17 23  1  0  0  0  0
 17 16  2  0  0  0  0
 18 17  1  0  0  0  0
 19 18  2  0  0  0  0
 19 20  1  0  0  0  0
 20 21  2  0  0  0  0
 21 16  1  0  0  0  0
 24 19  1  0  0  0  0
 25 20  1  0  0  0  0
 26 21  1  6  0  0  0
 28 26  1  0  0  0  0
 28 15  1  0  0  0  0
 29 26  1  0  0  0  0
 30 31  1  0  0  0  0
 30 18  1  0  0  0  0
 32 30  1  0  0  0  0
 33 30  1  0  0  0  0
M  RAD  3  14   2  27   2  29   2
M  END
