Coordinates from ORCA-job p-NO2-Ph-N2-OTs-B3LYPG-6-31G_dp-scan-d09-49-n400
 OpenBabel08281821283D

 33 33  0  0  0  0  0  0  0  0999 V2000
   -1.4197   -0.1561   -3.5755 C   0  0  0  0  0  0  0  0  0  0  0  0
   -0.2357   -0.8150   -3.2772 C   0  0  0  0  0  0  0  0  0  0  0  0
    0.6917   -0.1511   -2.4634 C   0  0  0  0  0  0  0  0  0  0  0  0
    0.4957    1.1312   -1.9251 C   0  0  0  0  0  0  0  0  0  0  0  0
   -0.7053    1.7641   -2.2198 C   0  0  0  0  0  0  0  0  0  0  0  0
   -1.6295    1.1135   -3.0358 C   0  0  0  0  0  0  0  0  0  0  0  0
   -2.1787   -0.6023   -4.2051 H   0  0  0  0  0  0  0  0  0  0  0  0
   -0.0246   -1.8045   -3.6647 H   0  0  0  0  0  0  0  0  0  0  0  0
    1.2776    1.5827   -1.3232 H   0  0  0  0  0  0  0  0  0  0  0  0
   -0.9225    2.7557   -1.8447 H   0  0  0  0  0  0  0  0  0  0  0  0
   -2.9058    1.8014   -3.3466 N   0  0  0  0  0  0  0  0  0  0  0  0
   -3.0869    2.9018   -2.8373 O   0  0  0  0  0  0  0  0  0  0  0  0
   -3.6901    1.2156   -4.0878 O   0  0  0  0  0  0  0  0  0  0  0  0
    1.8746   -0.8010   -2.1375 N   0  0  0  0  0  0  0  0  0  0  0  0
    2.9048   -1.0393   -1.7604 N   0  0  0  0  0  0  0  0  0  0  0  0
    6.4701    1.8950   -2.3203 C   0  0  0  0  0  0  0  0  0  0  0  0
    7.7607    1.6670   -2.7873 C   0  0  0  0  0  0  0  0  0  0  0  0
    7.9991    1.3304   -4.1299 C   0  0  0  0  0  0  0  0  0  0  0  0
    6.9021    1.2294   -4.9926 C   0  0  0  0  0  0  0  0  0  0  0  0
    5.6012    1.4558   -4.5371 C   0  0  0  0  0  0  0  0  0  0  0  0
    5.3893    1.7861   -3.2008 C   0  0  0  0  0  0  0  0  0  0  0  0
    6.2950    2.1504   -1.2804 H   0  0  0  0  0  0  0  0  0  0  0  0
    8.6003    1.7530   -2.1013 H   0  0  0  0  0  0  0  0  0  0  0  0
    7.0654    0.9707   -6.0361 H   0  0  0  0  0  0  0  0  0  0  0  0
    4.7493    1.3769   -5.2036 H   0  0  0  0  0  0  0  0  0  0  0  0
    3.7266    2.1301   -2.6117 S   0  0  0  0  0  0  0  0  0  0  0  0
    3.6514    3.5844   -2.3423 O   0  0  0  0  0  0  0  0  0  0  0  0
    3.5839    1.2840   -1.3486 O   0  0  0  0  0  0  0  0  0  0  0  0
    2.7962    1.6127   -3.6597 O   0  0  0  0  0  0  0  0  0  0  0  0
    9.4054    1.0747   -4.6187 C   0  0  0  0  0  0  0  0  0  0  0  0
   10.0808    1.8908   -4.3378 H   0  0  0  0  0  0  0  0  0  0  0  0
    9.8173    0.1554   -4.1850 H   0  0  0  0  0  0  0  0  0  0  0  0
    9.4381    0.9711   -5.7071 H   0  0  0  0  0  0  0  0  0  0  0  0
  1  2  2  0  0  0  0
  1  6  1  0  0  0  0
  2  3  1  0  0  0  0
  3 14  1  0  0  0  0
  3  4  2  0  0  0  0
  4  9  1  0  0  0  0
  5  4  1  0  0  0  0
  5 10  1  0  0  0  0
  6  5  2  0  0  0  0
  7  1  1  0  0  0  0
  8  2  1  0  0  0  0
 11  6  1  0  0  0  0
 11 12  2  0  0  0  0
 13 11  2  0  0  0  0
 14 15  1  0  0  0  0
 16 22  1  0  0  0  0
 17 16  1  0  0  0  0
 17 23  1  0  0  0  0
 18 17  2  0  0  0  0
 19 20  2  0  0  0  0
 19 18  1  0  0  0  0
 20 21  1  0  0  0  0
 21 26  1  0  0  0  0
 21 16  2  0  0  0  0
 24 19  1  0  0  0  0
 25 20  1  0  0  0  0
 26 27  2  0  0  0  0
 26 28  1  0  0  0  0
 29 26  2  0  0  0  0
 30 31  1  0  0  0  0
 30 32  1  0  0  0  0
 30 18  1  0  0  0  0
 33 30  1  0  0  0  0
M  RAD  3  14   2  15   3  28   2
M  END
