Coordinates from ORCA-job p-NO2-Ph-N2-OTs-B3LYPG-6-31G_dp-scan-d09-49-n400
 OpenBabel08281821283D

 33 33  0  0  0  0  0  0  0  0999 V2000
   -1.2006    0.3648   -1.7021 C   0  0  0  0  0  0  0  0  0  0  0  0
   -0.4321    1.4017   -1.1912 C   0  0  0  0  0  0  0  0  0  0  0  0
    0.7325    1.8258   -1.8559 C   0  0  0  0  0  0  0  0  0  0  0  0
    1.1175    1.2155   -3.0654 C   0  0  0  0  0  0  0  0  0  0  0  0
    0.3402    0.1856   -3.5865 C   0  0  0  0  0  0  0  0  0  0  0  0
   -0.7977   -0.2275   -2.8972 C   0  0  0  0  0  0  0  0  0  0  0  0
   -2.0964    0.0154   -1.2057 H   0  0  0  0  0  0  0  0  0  0  0  0
   -0.7099    1.9040   -0.2715 H   0  0  0  0  0  0  0  0  0  0  0  0
    2.0024    1.5415   -3.5899 H   0  0  0  0  0  0  0  0  0  0  0  0
    0.6050   -0.3029   -4.5156 H   0  0  0  0  0  0  0  0  0  0  0  0
   -1.6056   -1.3293   -3.4535 N   0  0  0  0  0  0  0  0  0  0  0  0
   -1.2242   -1.8379   -4.5058 O   0  0  0  0  0  0  0  0  0  0  0  0
   -2.6074   -1.6688   -2.8272 O   0  0  0  0  0  0  0  0  0  0  0  0
    1.3759    2.9052   -1.1910 N   0  0  0  0  0  0  0  0  0  0  0  0
    2.4780    3.3760   -1.4250 N   0  0  0  0  0  0  0  0  0  0  0  0
    6.0305    1.3627   -2.5930 C   0  0  0  0  0  0  0  0  0  0  0  0
    6.7384    0.3425   -3.2213 C   0  0  0  0  0  0  0  0  0  0  0  0
    7.0710    0.4245   -4.5839 C   0  0  0  0  0  0  0  0  0  0  0  0
    6.6772    1.5619   -5.3028 C   0  0  0  0  0  0  0  0  0  0  0  0
    5.9667    2.5930   -4.6894 C   0  0  0  0  0  0  0  0  0  0  0  0
    5.6400    2.4786   -3.3396 C   0  0  0  0  0  0  0  0  0  0  0  0
    5.7809    1.2880   -1.5379 H   0  0  0  0  0  0  0  0  0  0  0  0
    7.0435   -0.5288   -2.6476 H   0  0  0  0  0  0  0  0  0  0  0  0
    6.9374    1.6445   -6.3546 H   0  0  0  0  0  0  0  0  0  0  0  0
    5.6702    3.4832   -5.2354 H   0  0  0  0  0  0  0  0  0  0  0  0
    4.8180    3.8544   -2.5008 S   0  0  2  0  0  0  0  0  0  0  0  0
    3.6257    5.2763   -0.3331 O   0  0  0  0  0  0  0  0  0  0  0  0
    3.2789    2.8466   -2.4101 O   0  0  0  0  0  0  0  0  0  0  0  0
    4.6321    4.9013   -3.5280 O   0  0  0  0  0  0  0  0  0  0  0  0
    7.8273   -0.6960   -5.2551 C   0  0  0  0  0  0  0  0  0  0  0  0
    8.6532   -1.0505   -4.6304 H   0  0  0  0  0  0  0  0  0  0  0  0
    7.1708   -1.5548   -5.4404 H   0  0  0  0  0  0  0  0  0  0  0  0
    8.2387   -0.3817   -6.2173 H   0  0  0  0  0  0  0  0  0  0  0  0
  1  7  1  0  0  0  0
  1  2  1  0  0  0  0
  2  8  1  0  0  0  0
  3  2  2  0  0  0  0
  3 14  1  0  0  0  0
  4  3  1  0  0  0  0
  5  4  2  0  0  0  0
  5  6  1  0  0  0  0
  6  1  2  0  0  0  0
  9  4  1  0  0  0  0
 10  5  1  0  0  0  0
 11  6  1  0  0  0  0
 11 13  2  0  0  0  0
 12 11  2  0  0  0  0
 15 14  2  0  0  0  0
 16 22  1  0  0  0  0
 17 23  1  0  0  0  0
 17 16  1  0  0  0  0
 18 17  2  0  0  0  0
 19 20  2  0  0  0  0
 19 18  1  0  0  0  0
 20 21  1  0  0  0  0
 21 16  2  0  0  0  0
 21 26  1  0  0  0  0
 24 19  1  0  0  0  0
 25 20  1  0  0  0  0
 26 29  1  6  0  0  0
 26 28  1  0  0  0  0
 28 15  1  0  0  0  0
 30 31  1  0  0  0  0
 30 18  1  0  0  0  0
 32 30  1  0  0  0  0
 33 30  1  0  0  0  0
M  RAD  2  27   3  29   2
M  END
