Coordinates from ORCA-job p-NO2-Ph-N2-OTs-B3LYPG-6-31G_dp-scan-d09-49-n400
 OpenBabel08281821283D

 33 33  0  0  0  0  0  0  0  0999 V2000
   -1.2921    0.5022   -1.7833 C   0  0  0  0  0  0  0  0  0  0  0  0
   -0.5437    1.5768   -1.3251 C   0  0  0  0  0  0  0  0  0  0  0  0
    0.7076    1.8762   -1.8963 C   0  0  0  0  0  0  0  0  0  0  0  0
    1.2035    1.0912   -2.9562 C   0  0  0  0  0  0  0  0  0  0  0  0
    0.4491    0.0199   -3.4230 C   0  0  0  0  0  0  0  0  0  0  0  0
   -0.7796   -0.2624   -2.8300 C   0  0  0  0  0  0  0  0  0  0  0  0
   -2.2534    0.2496   -1.3557 H   0  0  0  0  0  0  0  0  0  0  0  0
   -0.9028    2.2061   -0.5184 H   0  0  0  0  0  0  0  0  0  0  0  0
    2.1569    1.3159   -3.4094 H   0  0  0  0  0  0  0  0  0  0  0  0
    0.7995   -0.6007   -4.2384 H   0  0  0  0  0  0  0  0  0  0  0  0
   -1.5637   -1.4064   -3.3275 N   0  0  0  0  0  0  0  0  0  0  0  0
   -1.0842   -2.0676   -4.2468 O   0  0  0  0  0  0  0  0  0  0  0  0
   -2.6450   -1.6307   -2.7863 O   0  0  0  0  0  0  0  0  0  0  0  0
    1.3159    3.0085   -1.3040 N   0  0  0  0  0  0  0  0  0  0  0  0
    2.4548    3.3978   -1.5409 N   0  0  0  0  0  0  0  0  0  0  0  0
    6.0678    1.3189   -2.5852 C   0  0  0  0  0  0  0  0  0  0  0  0
    6.7216    0.3066   -3.2819 C   0  0  0  0  0  0  0  0  0  0  0  0
    7.0488    0.4587   -4.6391 C   0  0  0  0  0  0  0  0  0  0  0  0
    6.7069    1.6583   -5.2817 C   0  0  0  0  0  0  0  0  0  0  0  0
    6.0501    2.6800   -4.5990 C   0  0  0  0  0  0  0  0  0  0  0  0
    5.7288    2.5000   -3.2535 C   0  0  0  0  0  0  0  0  0  0  0  0
    5.8225    1.1892   -1.5340 H   0  0  0  0  0  0  0  0  0  0  0  0
    6.9878   -0.6129   -2.7673 H   0  0  0  0  0  0  0  0  0  0  0  0
    6.9648    1.7943   -6.3285 H   0  0  0  0  0  0  0  0  0  0  0  0
    5.7927    3.6150   -5.0867 H   0  0  0  0  0  0  0  0  0  0  0  0
    4.9778    3.8419   -2.2994 S   0  0  2  0  0  0  0  0  0  0  0  0
    3.1876    4.8861   -0.7395 O   0  0  0  0  0  0  0  0  0  0  0  0
    3.3202    2.8331   -2.3726 O   0  0  0  0  0  0  0  0  0  0  0  0
    4.8967    4.9737   -3.2437 O   0  0  0  0  0  0  0  0  0  0  0  0
    7.7394   -0.6533   -5.3900 C   0  0  0  0  0  0  0  0  0  0  0  0
    8.4897   -1.1504   -4.7676 H   0  0  0  0  0  0  0  0  0  0  0  0
    7.0183   -1.4189   -5.7018 H   0  0  0  0  0  0  0  0  0  0  0  0
    8.2339   -0.2820   -6.2912 H   0  0  0  0  0  0  0  0  0  0  0  0
  1  7  1  0  0  0  0
  1  2  1  0  0  0  0
  2  8  1  0  0  0  0
  3  2  2  0  0  0  0
  3 14  1  0  0  0  0
  4  3  1  0  0  0  0
  5  4  2  0  0  0  0
  5  6  1  0  0  0  0
  6  1  2  0  0  0  0
  9  4  1  0  0  0  0
 10  5  1  0  0  0  0
 11  6  1  0  0  0  0
 11 13  2  0  0  0  0
 12 11  2  0  0  0  0
 15 14  2  0  0  0  0
 16 22  1  0  0  0  0
 17 23  1  0  0  0  0
 17 16  2  0  0  0  0
 18 17  1  0  0  0  0
 19 18  2  0  0  0  0
 19 20  1  0  0  0  0
 20 21  2  0  0  0  0
 21 16  1  0  0  0  0
 24 19  1  0  0  0  0
 25 20  1  0  0  0  0
 26 21  1  6  0  0  0
 28 26  1  0  0  0  0
 28 15  1  0  0  0  0
 29 26  1  0  0  0  0
 30 31  1  0  0  0  0
 30 18  1  0  0  0  0
 32 30  1  0  0  0  0
 33 30  1  0  0  0  0
M  RAD  2  27   3  29   2
M  END
