Coordinates from ORCA-job p-NO2-Ph-N2-OTs-B3LYPG-6-31G_dp-scan-d09-49-n400
 OpenBabel08281821283D

 33 34  0  0  0  0  0  0  0  0999 V2000
   -1.0402   -0.6441   -2.4972 C   0  0  0  0  0  0  0  0  0  0  0  0
    0.0357   -0.6379   -3.3755 C   0  0  0  0  0  0  0  0  0  0  0  0
    0.6772    0.5685   -3.6990 C   0  0  0  0  0  0  0  0  0  0  0  0
    0.2116    1.7907   -3.1816 C   0  0  0  0  0  0  0  0  0  0  0  0
   -0.8851    1.7872   -2.3261 C   0  0  0  0  0  0  0  0  0  0  0  0
   -1.4835    0.5747   -1.9888 C   0  0  0  0  0  0  0  0  0  0  0  0
   -1.5447   -1.5590   -2.2148 H   0  0  0  0  0  0  0  0  0  0  0  0
    0.3996   -1.5575   -3.8192 H   0  0  0  0  0  0  0  0  0  0  0  0
    0.6972    2.7183   -3.4455 H   0  0  0  0  0  0  0  0  0  0  0  0
   -1.2751    2.7071   -1.9098 H   0  0  0  0  0  0  0  0  0  0  0  0
   -2.6349    0.5817   -1.0651 N   0  0  0  0  0  0  0  0  0  0  0  0
   -3.0116    1.6702   -0.6374 O   0  0  0  0  0  0  0  0  0  0  0  0
   -3.1411   -0.5028   -0.7843 O   0  0  0  0  0  0  0  0  0  0  0  0
    1.7358    0.4169   -4.6319 N   0  0  0  0  0  0  0  0  0  0  0  0
    2.7057    1.0892   -4.8738 N   0  0  0  0  0  0  0  0  0  0  0  0
    6.0628    2.3649   -2.7173 C   0  0  0  0  0  0  0  0  0  0  0  0
    7.1841    1.5941   -2.4216 C   0  0  0  0  0  0  0  0  0  0  0  0
    7.7806    0.7767   -3.3936 C   0  0  0  0  0  0  0  0  0  0  0  0
    7.2278    0.7560   -4.6826 C   0  0  0  0  0  0  0  0  0  0  0  0
    6.1067    1.5197   -4.9998 C   0  0  0  0  0  0  0  0  0  0  0  0
    5.5318    2.3158   -4.0078 C   0  0  0  0  0  0  0  0  0  0  0  0
    5.6136    3.0104   -1.9706 H   0  0  0  0  0  0  0  0  0  0  0  0
    7.6095    1.6348   -1.4225 H   0  0  0  0  0  0  0  0  0  0  0  0
    7.6866    0.1409   -5.4518 H   0  0  0  0  0  0  0  0  0  0  0  0
    5.6884    1.5152   -5.9998 H   0  0  0  0  0  0  0  0  0  0  0  0
    4.1027    3.3065   -4.3987 S   0  0  0  0  0  0  0  0  0  0  0  0
    4.0132    4.4197   -3.4595 O   0  0  0  0  0  0  0  0  0  0  0  0
    2.8304    2.3377   -3.9395 O   0  0  0  0  0  0  0  0  0  0  0  0
    4.0382    3.5040   -5.8414 O   0  0  0  0  0  0  0  0  0  0  0  0
    8.9807   -0.0740   -3.0553 C   0  0  0  0  0  0  0  0  0  0  0  0
    9.5894    0.3864   -2.2717 H   0  0  0  0  0  0  0  0  0  0  0  0
    8.6697   -1.0603   -2.6898 H   0  0  0  0  0  0  0  0  0  0  0  0
    9.6151   -0.2370   -3.9312 H   0  0  0  0  0  0  0  0  0  0  0  0
  1  7  1  0  0  0  0
  1  6  2  0  0  0  0
  2  1  1  0  0  0  0
  3  2  2  0  0  0  0
  3  4  1  0  0  0  0
  4  5  2  0  0  0  0
  5  6  1  0  0  0  0
  5 10  1  0  0  0  0
  6 11  1  0  0  0  0
  8  2  1  0  0  0  0
  9  4  1  0  0  0  0
 11 13  2  0  0  0  0
 11 12  2  0  0  0  0
 14  3  1  0  0  0  0
 15 14  1  0  0  0  0
 15 28  1  0  0  0  0
 16 17  1  0  0  0  0
 16 22  1  0  0  0  0
 17 23  1  0  0  0  0
 18 30  1  0  0  0  0
 18 17  2  0  0  0  0
 19 18  1  0  0  0  0
 20 19  2  0  0  0  0
 20 21  1  0  0  0  0
 21 16  2  0  0  0  0
 24 19  1  0  0  0  0
 25 20  1  0  0  0  0
 26 21  1  0  0  0  0
 26 28  1  0  0  0  0
 26 27  2  0  0  0  0
 29 26  2  0  0  0  0
 30 32  1  0  0  0  0
 30 31  1  0  0  0  0
 33 30  1  0  0  0  0
M  RAD  2  14   2  15   2
M  END
