Coordinates from ORCA-job p-NO2-Ph-N2-OTs-B3LYPG-6-31G_dp-scan-d09-49-n400
 OpenBabel08281821283D

 33 34  0  0  0  0  0  0  0  0999 V2000
   -0.9986    0.3243   -1.6852 C   0  0  0  0  0  0  0  0  0  0  0  0
   -0.3297    1.4402   -1.2059 C   0  0  0  0  0  0  0  0  0  0  0  0
    0.7714    1.9805   -1.9022 C   0  0  0  0  0  0  0  0  0  0  0  0
    1.1722    1.3978   -3.1228 C   0  0  0  0  0  0  0  0  0  0  0  0
    0.4916    0.2893   -3.6129 C   0  0  0  0  0  0  0  0  0  0  0  0
   -0.5750   -0.2396   -2.8881 C   0  0  0  0  0  0  0  0  0  0  0  0
   -1.8380   -0.1088   -1.1569 H   0  0  0  0  0  0  0  0  0  0  0  0
   -0.6362    1.9192   -0.2831 H   0  0  0  0  0  0  0  0  0  0  0  0
    1.9966    1.8096   -3.6849 H   0  0  0  0  0  0  0  0  0  0  0  0
    0.7760   -0.1727   -4.5497 H   0  0  0  0  0  0  0  0  0  0  0  0
   -1.2764   -1.4207   -3.4102 N   0  0  0  0  0  0  0  0  0  0  0  0
   -0.8755   -1.9011   -4.4700 O   0  0  0  0  0  0  0  0  0  0  0  0
   -2.2211   -1.8577   -2.7532 O   0  0  0  0  0  0  0  0  0  0  0  0
    1.2905    3.1285   -1.2789 N   0  0  0  0  0  0  0  0  0  0  0  0
    2.4259    3.5968   -1.5051 N   0  0  0  0  0  0  0  0  0  0  0  0
    5.9299    1.3081   -2.5466 C   0  0  0  0  0  0  0  0  0  0  0  0
    6.5525    0.2587   -3.2160 C   0  0  0  0  0  0  0  0  0  0  0  0
    6.9084    0.3734   -4.5700 C   0  0  0  0  0  0  0  0  0  0  0  0
    6.6273    1.5741   -5.2381 C   0  0  0  0  0  0  0  0  0  0  0  0
    6.0026    2.6345   -4.5839 C   0  0  0  0  0  0  0  0  0  0  0  0
    5.6516    2.4882   -3.2427 C   0  0  0  0  0  0  0  0  0  0  0  0
    5.6598    1.2060   -1.4989 H   0  0  0  0  0  0  0  0  0  0  0  0
    6.7706   -0.6622   -2.6816 H   0  0  0  0  0  0  0  0  0  0  0  0
    6.9075    1.6818   -6.2824 H   0  0  0  0  0  0  0  0  0  0  0  0
    5.7925    3.5714   -5.0905 H   0  0  0  0  0  0  0  0  0  0  0  0
    4.9395    3.8873   -2.3485 S   0  0  2  0  0  0  0  0  0  0  0  0
    2.9044    4.7459   -0.8838 O   0  0  0  0  0  0  0  0  0  0  0  0
    3.3081    2.9956   -2.3737 O   0  0  0  0  0  0  0  0  0  0  0  0
    4.8903    5.0037   -3.3160 O   0  0  0  0  0  0  0  0  0  0  0  0
    7.5656   -0.7789   -5.2894 C   0  0  0  0  0  0  0  0  0  0  0  0
    8.2952   -1.2853   -4.6500 H   0  0  0  0  0  0  0  0  0  0  0  0
    6.8210   -1.5272   -5.5872 H   0  0  0  0  0  0  0  0  0  0  0  0
    8.0778   -0.4460   -6.1957 H   0  0  0  0  0  0  0  0  0  0  0  0
  1  2  1  0  0  0  0
  1  7  1  0  0  0  0
  2  8  1  0  0  0  0
  3 14  1  0  0  0  0
  3  2  2  0  0  0  0
  4  3  1  0  0  0  0
  5  4  2  0  0  0  0
  5  6  1  0  0  0  0
  6  1  2  0  0  0  0
  9  4  1  0  0  0  0
 10  5  1  0  0  0  0
 11  6  1  0  0  0  0
 11 13  2  0  0  0  0
 12 11  2  0  0  0  0
 15 14  1  0  0  0  0
 15 27  1  0  0  0  0
 16 22  1  0  0  0  0
 17 23  1  0  0  0  0
 17 16  1  0  0  0  0
 18 17  2  0  0  0  0
 19 20  2  0  0  0  0
 19 18  1  0  0  0  0
 20 21  1  0  0  0  0
 21 16  2  0  0  0  0
 21 26  1  0  0  0  0
 24 19  1  0  0  0  0
 25 20  1  0  0  0  0
 26 29  1  6  0  0  0
 28 26  1  0  0  0  0
 28 15  1  0  0  0  0
 30 31  1  0  0  0  0
 30 18  1  0  0  0  0
 32 30  1  0  0  0  0
 33 30  1  0  0  0  0
M  RAD  3  14   2  27   2  29   2
M  END
