Coordinates from ORCA-job p-NO2-Ph-N2-OTs-B3LYPG-6-31G_dp-scan-d09-49-n400
 OpenBabel08281821283D

 33 33  0  0  0  0  0  0  0  0999 V2000
   -1.2177    0.4113   -1.7434 C   0  0  0  0  0  0  0  0  0  0  0  0
   -0.4696    1.4698   -1.2471 C   0  0  0  0  0  0  0  0  0  0  0  0
    0.7339    1.8501   -1.8677 C   0  0  0  0  0  0  0  0  0  0  0  0
    1.1817    1.1698   -3.0167 C   0  0  0  0  0  0  0  0  0  0  0  0
    0.4256    0.1173   -3.5236 C   0  0  0  0  0  0  0  0  0  0  0  0
   -0.7539   -0.2492   -2.8793 C   0  0  0  0  0  0  0  0  0  0  0  0
   -2.1432    0.0956   -1.2801 H   0  0  0  0  0  0  0  0  0  0  0  0
   -0.7938    2.0235   -0.3731 H   0  0  0  0  0  0  0  0  0  0  0  0
    2.0982    1.4599   -3.5069 H   0  0  0  0  0  0  0  0  0  0  0  0
    0.7380   -0.4239   -4.4078 H   0  0  0  0  0  0  0  0  0  0  0  0
   -1.5397   -1.3740   -3.4199 N   0  0  0  0  0  0  0  0  0  0  0  0
   -1.1062   -1.9407   -4.4212 O   0  0  0  0  0  0  0  0  0  0  0  0
   -2.5777   -1.6733   -2.8329 O   0  0  0  0  0  0  0  0  0  0  0  0
    1.3481    2.9613   -1.2287 N   0  0  0  0  0  0  0  0  0  0  0  0
    2.4635    3.4074   -1.4546 N   0  0  0  0  0  0  0  0  0  0  0  0
    6.0361    1.3440   -2.5821 C   0  0  0  0  0  0  0  0  0  0  0  0
    6.7081    0.3198   -3.2431 C   0  0  0  0  0  0  0  0  0  0  0  0
    7.0294    0.4271   -4.6062 C   0  0  0  0  0  0  0  0  0  0  0  0
    6.6618    1.5941   -5.2922 C   0  0  0  0  0  0  0  0  0  0  0  0
    5.9867    2.6280   -4.6459 C   0  0  0  0  0  0  0  0  0  0  0  0
    5.6709    2.4904   -3.2947 C   0  0  0  0  0  0  0  0  0  0  0  0
    5.7958    1.2492   -1.5262 H   0  0  0  0  0  0  0  0  0  0  0  0
    6.9938   -0.5742   -2.6950 H   0  0  0  0  0  0  0  0  0  0  0  0
    6.9149    1.6965   -6.3439 H   0  0  0  0  0  0  0  0  0  0  0  0
    5.7105    3.5396   -5.1665 H   0  0  0  0  0  0  0  0  0  0  0  0
    4.8995    3.8624   -2.4045 S   0  0  2  0  0  0  0  0  0  0  0  0
    3.4174    5.2188   -0.5131 O   0  0  0  0  0  0  0  0  0  0  0  0
    3.3008    2.8618   -2.3634 O   0  0  0  0  0  0  0  0  0  0  0  0
    4.7522    4.9426   -3.4007 O   0  0  0  0  0  0  0  0  0  0  0  0
    7.7426   -0.6974   -5.3164 C   0  0  0  0  0  0  0  0  0  0  0  0
    8.5025   -1.1563   -4.6766 H   0  0  0  0  0  0  0  0  0  0  0  0
    7.0375   -1.4881   -5.6006 H   0  0  0  0  0  0  0  0  0  0  0  0
    8.2304   -0.3487   -6.2302 H   0  0  0  0  0  0  0  0  0  0  0  0
  1  7  1  0  0  0  0
  1  2  1  0  0  0  0
  2  8  1  0  0  0  0
  3  2  2  0  0  0  0
  3 14  1  0  0  0  0
  4  3  1  0  0  0  0
  5  4  2  0  0  0  0
  5  6  1  0  0  0  0
  6  1  2  0  0  0  0
  9  4  1  0  0  0  0
 10  5  1  0  0  0  0
 11  6  1  0  0  0  0
 11 13  2  0  0  0  0
 12 11  2  0  0  0  0
 15 14  2  0  0  0  0
 16 22  1  0  0  0  0
 17 23  1  0  0  0  0
 17 16  1  0  0  0  0
 18 17  2  0  0  0  0
 19 20  2  0  0  0  0
 19 18  1  0  0  0  0
 20 21  1  0  0  0  0
 21 16  2  0  0  0  0
 21 26  1  0  0  0  0
 24 19  1  0  0  0  0
 25 20  1  0  0  0  0
 26 29  1  6  0  0  0
 26 28  1  0  0  0  0
 28 15  1  0  0  0  0
 30 31  1  0  0  0  0
 30 18  1  0  0  0  0
 32 30  1  0  0  0  0
 33 30  1  0  0  0  0
M  RAD  2  27   3  29   2
M  END
