Coordinates from ORCA-job p-NO2-Ph-N2-OTs-B3LYPG-6-31G_dp-scan-d09-49-n400
 OpenBabel08281821283D

 33 34  0  0  0  0  0  0  0  0999 V2000
   -1.2899    0.5046   -1.7800 C   0  0  0  0  0  0  0  0  0  0  0  0
   -0.5426    1.5806   -1.3241 C   0  0  0  0  0  0  0  0  0  0  0  0
    0.7081    1.8816   -1.8968 C   0  0  0  0  0  0  0  0  0  0  0  0
    1.2032    1.0955   -2.9567 C   0  0  0  0  0  0  0  0  0  0  0  0
    0.4496    0.0227   -3.4212 C   0  0  0  0  0  0  0  0  0  0  0  0
   -0.7779   -0.2608   -2.8265 C   0  0  0  0  0  0  0  0  0  0  0  0
   -2.2504    0.2514   -1.3508 H   0  0  0  0  0  0  0  0  0  0  0  0
   -0.9017    2.2103   -0.5176 H   0  0  0  0  0  0  0  0  0  0  0  0
    2.1555    1.3207   -3.4120 H   0  0  0  0  0  0  0  0  0  0  0  0
    0.7998   -0.5981   -4.2365 H   0  0  0  0  0  0  0  0  0  0  0  0
   -1.5609   -1.4061   -3.3215 N   0  0  0  0  0  0  0  0  0  0  0  0
   -1.0830   -2.0663   -4.2426 O   0  0  0  0  0  0  0  0  0  0  0  0
   -2.6425   -1.6298   -2.7806 O   0  0  0  0  0  0  0  0  0  0  0  0
    1.3136    3.0146   -1.3068 N   0  0  0  0  0  0  0  0  0  0  0  0
    2.4543    3.4028   -1.5452 N   0  0  0  0  0  0  0  0  0  0  0  0
    6.0658    1.3149   -2.5856 C   0  0  0  0  0  0  0  0  0  0  0  0
    6.7202    0.3037   -3.2834 C   0  0  0  0  0  0  0  0  0  0  0  0
    7.0501    0.4588   -4.6397 C   0  0  0  0  0  0  0  0  0  0  0  0
    6.7102    1.6601   -5.2801 C   0  0  0  0  0  0  0  0  0  0  0  0
    6.0529    2.6807   -4.5963 C   0  0  0  0  0  0  0  0  0  0  0  0
    5.7291    2.4977   -3.2518 C   0  0  0  0  0  0  0  0  0  0  0  0
    5.8185    1.1829   -1.5352 H   0  0  0  0  0  0  0  0  0  0  0  0
    6.9848   -0.6172   -2.7705 H   0  0  0  0  0  0  0  0  0  0  0  0
    6.9702    1.7983   -6.3261 H   0  0  0  0  0  0  0  0  0  0  0  0
    5.7972    3.6171   -5.0822 H   0  0  0  0  0  0  0  0  0  0  0  0
    4.9775    3.8384   -2.2964 S   0  0  2  0  0  0  0  0  0  0  0  0
    3.1537    4.8453   -0.7666 O   0  0  0  0  0  0  0  0  0  0  0  0
    3.3210    2.8351   -2.3755 O   0  0  0  0  0  0  0  0  0  0  0  0
    4.9011    4.9733   -3.2374 O   0  0  0  0  0  0  0  0  0  0  0  0
    7.7415   -0.6519   -5.3918 C   0  0  0  0  0  0  0  0  0  0  0  0
    8.4921   -1.1491   -4.7698 H   0  0  0  0  0  0  0  0  0  0  0  0
    7.0210   -1.4177   -5.7044 H   0  0  0  0  0  0  0  0  0  0  0  0
    8.2359   -0.2793   -6.2925 H   0  0  0  0  0  0  0  0  0  0  0  0
  1  7  1  0  0  0  0
  1  2  1  0  0  0  0
  2  8  1  0  0  0  0
  3  2  2  0  0  0  0
  3 14  1  0  0  0  0
  4  3  1  0  0  0  0
  5  4  2  0  0  0  0
  5  6  1  0  0  0  0
  6  1  2  0  0  0  0
  9  4  1  0  0  0  0
 10  5  1  0  0  0  0
 11  6  1  0  0  0  0
 11 13  2  0  0  0  0
 12 11  2  0  0  0  0
 15 14  1  0  0  0  0
 15 27  1  0  0  0  0
 16 22  1  0  0  0  0
 17 23  1  0  0  0  0
 17 16  2  0  0  0  0
 18 17  1  0  0  0  0
 19 18  2  0  0  0  0
 19 20  1  0  0  0  0
 20 21  2  0  0  0  0
 21 16  1  0  0  0  0
 24 19  1  0  0  0  0
 25 20  1  0  0  0  0
 26 21  1  6  0  0  0
 28 26  1  0  0  0  0
 28 15  1  0  0  0  0
 29 26  1  0  0  0  0
 30 31  1  0  0  0  0
 30 18  1  0  0  0  0
 32 30  1  0  0  0  0
 33 30  1  0  0  0  0
M  RAD  3  14   2  27   2  29   2
M  END
