29
Coordinates from ORCA-job 1g-Schema6-R11-K+-B3LYPG-6-31G_dp-scan-d49-09-n400
  C   0.89288545317862      2.49292782212606      0.65001672669096
  C   1.89627084758905      1.54508221775071      0.68378976864187
  C   1.60409153786781      0.00445539633434      0.76434546008948
  C   0.13271587611298     -0.31453231608771      0.92124258675641
  C   -0.80528415560933      0.67603522127641      0.79297450513726
  C   -0.43292315064700      2.04864767007875      0.67971810728917
  H   1.10754788592495      3.55769800132899      0.64227138180572
  H   -1.23348104017896      2.78092454219493      0.64967865789770
  H   -0.16670363845025     -1.35516855065049      1.00983188936962
  N   1.90597698250402     -0.92108577939680     -0.54182322473152
  N   2.40406509872658     -0.55223826409445      0.86887985862514
  C   3.66081847859699      0.14558686671119      0.93065578857604
  C   4.95262750364239     -0.32695261778296      1.04627249898847
  C   3.31748488559002      1.52616354161503      0.82598035488751
  C   5.94918258401021      0.65120367074111      1.06707960646417
  H   5.17880117687503     -1.38388285187230      1.12671800171000
  C   4.34180374075010      2.49003922660495      0.85340417372160
  H   2.35705089639494     -0.18120748344943     -1.11263471830204
  C   5.65157528186162      2.03281608494647      0.97326158194842
  H   6.99324543153091      0.37235737837003      1.16732133463396
  H   4.13490148961157      3.55224637195498      0.78955184485359
  C   -2.25195910513566      0.25752765749739      0.83561074558364
  O   -2.60255559775001     -0.89482833283326      0.92715849731545
  O   -3.08137052162408      1.31211454918712      0.76368651995009
  H   -3.99403876603835      0.97604580275590      0.80208485210916
  C   6.81921282579459      2.97805828851033      1.01933667505335
  O   7.96602905692042      2.60929669205364      1.12563128129015
  O   6.43585176813884      4.26380172784805      0.92864757935802
  H   7.23867717381212      4.81216746628089      0.96640766428658
