29
Coordinates from ORCA-job 1g-Schema6-R11-K+-B3LYPG-6-31G_dp-scan-d49-09-n400
  C   1.20720357734666      2.13840069676436      0.58185460294479
  C   1.94394432397161      1.01052830601473      0.26302467808715
  C   1.30310696953750     -0.25390728259126      0.21545322552392
  C   -0.07412998163737     -0.34764699033861      0.48729323677337
  C   -0.79714823117996      0.78302945932119      0.86565503251664
  C   -0.15351462383369      2.02326312979172      0.91479097993592
  H   1.67705151472707      3.11617747879080      0.59826653900096
  H   -0.71058491323541      2.90424522096278      1.21352730714813
  H   -0.57195059432916     -1.30933736495635      0.41077149240291
  N   1.91930955976962     -1.39346419285739     -0.21074994107561
  N   3.14116469044306     -1.33551133127462      0.00429581856006
  C   3.91311818764285     -0.27933845533540      0.29023302030376
  C   5.07368552628699     -0.42044173117985      1.06688116339892
  C   3.41987843588880      1.04346431043638     -0.17903353394411
  C   5.77981074714419      0.71516969546636      1.40667180476283
  H   5.37255601353494     -1.40573065306746      1.40667085954634
  C   4.27296107703028      2.20075354862037      0.20862212184392
  H   3.37799205843333      1.06714654369530     -1.28708474771532
  C   5.38876435323473      2.02764940452057      0.96623437472100
  H   6.67189719052438      0.64962721802305      2.02326837575789
  H   4.03017417888636      3.17979266996627     -0.19097546523930
  C   -2.25271602979114      0.60690381848416      1.18463653973439
  O   -2.81721528517104     -0.46128709069306      1.12879853234737
  O   -2.83866229903899      1.76488900952727      1.53616111308618
  H   -3.77266791551264      1.57404964668919      1.73057336966923
  C   6.28133713616944      3.16789136536614      1.37485618222541
  O   7.25872767424257      3.01169807878769      2.06826724197357
  O   5.85547282769420      4.34362962547864      0.88902576772769
  H   6.47293383122098      5.03365586558696      1.18911030798194
