Coordinates from ORCA-job p-CH3O-Ph-N2-X-OTs-B3LYPG-6-31G_dp-scan-d09-49-n400
 OpenBabel08281821253D

 35 36  0  0  1  0  0  0  0  0999 V2000
   -0.1662    0.9106   -2.7039 C   0  0  0  0  0  0  0  0  0  0  0  0
    0.9281    1.8995   -2.9465 C   0  0  1  0  0  0  0  0  0  0  0  0
    1.1161    2.8133   -1.7614 C   0  0  0  0  0  0  0  0  0  0  0  0
    0.5645    2.5247   -0.4617 C   0  0  0  0  0  0  0  0  0  0  0  0
   -0.3003    1.4961   -0.3165 C   0  0  0  0  0  0  0  0  0  0  0  0
   -0.6856    0.6984   -1.4705 C   0  0  0  0  0  0  0  0  0  0  0  0
   -0.4551    0.3145   -3.5600 H   0  0  0  0  0  0  0  0  0  0  0  0
    0.7397    2.4836   -3.8582 H   0  0  0  0  0  0  0  0  0  0  0  0
    0.8540    3.1484    0.3779 H   0  0  0  0  0  0  0  0  0  0  0  0
   -0.7375    1.2455    0.6425 H   0  0  0  0  0  0  0  0  0  0  0  0
    1.8932    3.8553   -1.9186 N   0  0  0  0  0  0  0  0  0  0  0  0
    2.5742    4.7603   -2.0753 N   0  0  0  0  0  0  0  0  0  0  0  0
    4.9822   -0.4212   -4.6339 C   0  0  0  0  0  0  0  0  0  0  0  0
    6.3489   -0.5615   -4.3985 C   0  0  0  0  0  0  0  0  0  0  0  0
    7.1184    0.5403   -4.0009 C   0  0  0  0  0  0  0  0  0  0  0  0
    6.4913    1.7834   -3.8420 C   0  0  0  0  0  0  0  0  0  0  0  0
    5.1223    1.9298   -4.0728 C   0  0  0  0  0  0  0  0  0  0  0  0
    4.3677    0.8144   -4.4620 C   0  0  0  0  0  0  0  0  0  0  0  0
    4.3651   -1.2582   -4.9469 H   0  0  0  0  0  0  0  0  0  0  0  0
    6.8229   -1.5306   -4.5249 H   0  0  0  0  0  0  0  0  0  0  0  0
    7.0754    2.6486   -3.5327 H   0  0  0  0  0  0  0  0  0  0  0  0
    5.0737    3.7945   -3.6103 H   0  0  0  0  0  0  0  0  0  0  0  0
    2.6015    0.9827   -4.8050 S   0  0  2  0  0  0  0  0  0  0  0  0
    2.2187    1.2024   -3.1694 O   0  0  0  0  0  0  0  0  0  0  0  0
    2.1480   -0.3641   -5.2699 O   0  0  0  0  0  0  0  0  0  0  0  0
    4.4685    3.1190   -3.9426 O   0  0  0  0  0  0  0  0  0  0  0  0
    8.6061    0.4070   -3.7790 C   0  0  0  0  0  0  0  0  0  0  0  0
    8.8778   -0.6170   -3.5087 H   0  0  0  0  0  0  0  0  0  0  0  0
    9.1638    0.6634   -4.6886 H   0  0  0  0  0  0  0  0  0  0  0  0
    8.9566    1.0735   -2.9850 H   0  0  0  0  0  0  0  0  0  0  0  0
   -1.6256   -0.2363   -1.1586 O   0  0  0  0  0  0  0  0  0  0  0  0
   -2.0678   -1.0992   -2.1966 C   0  0  0  0  0  0  0  0  0  0  0  0
   -2.7845   -1.7825   -1.7383 H   0  0  0  0  0  0  0  0  0  0  0  0
   -1.2340   -1.6705   -2.6224 H   0  0  0  0  0  0  0  0  0  0  0  0
   -2.5617   -0.5366   -2.9991 H   0  0  0  0  0  0  0  0  0  0  0  0
  1  6  1  0  0  0  0
  2  8  1  6  0  0  0
  2  1  1  0  0  0  0
  2  3  1  0  0  0  0
  3  4  2  0  0  0  0
  4  5  1  0  0  0  0
  4  9  1  0  0  0  0
  5 10  1  0  0  0  0
  6 31  1  0  0  0  0
  6  5  2  0  0  0  0
  7  1  1  0  0  0  0
 11  3  1  0  0  0  0
 12 11  1  0  0  0  0
 13 18  2  0  0  0  0
 13 14  1  0  0  0  0
 14 15  2  0  0  0  0
 15 16  1  0  0  0  0
 15 27  1  0  0  0  0
 16 21  1  0  0  0  0
 17 26  1  0  0  0  0
 17 16  2  0  0  0  0
 18 17  1  0  0  0  0
 19 13  1  0  0  0  0
 20 14  1  0  0  0  0
 23 25  1  1  0  0  0
 23 18  1  0  0  0  0
 23 24  1  0  0  0  0
 24  2  1  0  0  0  0
 26 22  1  0  0  0  0
 27 28  1  0  0  0  0
 27 30  1  0  0  0  0
 29 27  1  0  0  0  0
 32 33  1  0  0  0  0
 32 31  1  0  0  0  0
 34 32  1  0  0  0  0
 35 32  1  0  0  0  0
M  RAD  4   1   2  11   2  12   3  25   2
M  END
