Coordinates from ORCA-job p-CH3O-Ph-N2-X-OTs-B3LYPG-6-31G_dp-scan-d09-49-n400
 OpenBabel08281821253D

 35 36  0  0  1  0  0  0  0  0999 V2000
   -0.1915    0.8446   -2.6618 C   0  0  0  0  0  0  0  0  0  0  0  0
    0.9976    1.7201   -2.8963 C   0  0  1  0  0  0  0  0  0  0  0  0
    1.2938    2.5869   -1.6929 C   0  0  0  0  0  0  0  0  0  0  0  0
    0.5927    2.4664   -0.4421 C   0  0  0  0  0  0  0  0  0  0  0  0
   -0.4305    1.5907   -0.3259 C   0  0  0  0  0  0  0  0  0  0  0  0
   -0.8214    0.7726   -1.4644 C   0  0  0  0  0  0  0  0  0  0  0  0
   -0.4932    0.2379   -3.5063 H   0  0  0  0  0  0  0  0  0  0  0  0
    0.8575    2.3400   -3.7943 H   0  0  0  0  0  0  0  0  0  0  0  0
    0.9142    3.0792    0.3938 H   0  0  0  0  0  0  0  0  0  0  0  0
   -0.9771    1.4651    0.6009 H   0  0  0  0  0  0  0  0  0  0  0  0
    2.3183    3.3947   -1.8015 N   0  0  0  0  0  0  0  0  0  0  0  0
    3.2405    4.0433   -1.9933 N   0  0  0  0  0  0  0  0  0  0  0  0
    5.0921   -0.4469   -4.6394 C   0  0  0  0  0  0  0  0  0  0  0  0
    6.4669   -0.4838   -4.4133 C   0  0  0  0  0  0  0  0  0  0  0  0
    7.1561    0.6758   -4.0322 C   0  0  0  0  0  0  0  0  0  0  0  0
    6.4399    1.8705   -3.8797 C   0  0  0  0  0  0  0  0  0  0  0  0
    5.0621    1.9134   -4.1012 C   0  0  0  0  0  0  0  0  0  0  0  0
    4.3884    0.7412   -4.4727 C   0  0  0  0  0  0  0  0  0  0  0  0
    4.5370   -1.3298   -4.9427 H   0  0  0  0  0  0  0  0  0  0  0  0
    7.0105   -1.4163   -4.5348 H   0  0  0  0  0  0  0  0  0  0  0  0
    6.9603    2.7797   -3.5836 H   0  0  0  0  0  0  0  0  0  0  0  0
    4.8902    3.7787   -3.6655 H   0  0  0  0  0  0  0  0  0  0  0  0
    2.6106    0.7787   -4.7990 S   0  0  2  0  0  0  0  0  0  0  0  0
    2.2123    0.9153   -3.1561 O   0  0  0  0  0  0  0  0  0  0  0  0
    2.2593   -0.5861   -5.2948 O   0  0  0  0  0  0  0  0  0  0  0  0
    4.3262    3.0576   -3.9734 O   0  0  0  0  0  0  0  0  0  0  0  0
    8.6513    0.6543   -3.8222 C   0  0  0  0  0  0  0  0  0  0  0  0
    8.9947   -0.3361   -3.5110 H   0  0  0  0  0  0  0  0  0  0  0  0
    9.1817    0.9067   -4.7490 H   0  0  0  0  0  0  0  0  0  0  0  0
    8.9618    1.3778   -3.0624 H   0  0  0  0  0  0  0  0  0  0  0  0
   -1.8826   -0.0317   -1.1781 O   0  0  0  0  0  0  0  0  0  0  0  0
   -2.3412   -0.9080   -2.1972 C   0  0  0  0  0  0  0  0  0  0  0  0
   -3.1677   -1.4723   -1.7628 H   0  0  0  0  0  0  0  0  0  0  0  0
   -1.5499   -1.5985   -2.5142 H   0  0  0  0  0  0  0  0  0  0  0  0
   -2.7005   -0.3501   -3.0712 H   0  0  0  0  0  0  0  0  0  0  0  0
  1  6  1  0  0  0  0
  2  8  1  6  0  0  0
  2  1  1  0  0  0  0
  2  3  1  0  0  0  0
  3  4  2  0  0  0  0
  4  5  1  0  0  0  0
  4  9  1  0  0  0  0
  5 10  1  0  0  0  0
  6 31  1  0  0  0  0
  6  5  2  0  0  0  0
  7  1  1  0  0  0  0
 11  3  1  0  0  0  0
 12 11  1  0  0  0  0
 13 18  2  0  0  0  0
 13 14  1  0  0  0  0
 14 15  2  0  0  0  0
 15 16  1  0  0  0  0
 15 27  1  0  0  0  0
 16 21  1  0  0  0  0
 17 26  1  0  0  0  0
 17 16  2  0  0  0  0
 18 17  1  0  0  0  0
 19 13  1  0  0  0  0
 20 14  1  0  0  0  0
 23 25  1  1  0  0  0
 23 18  1  0  0  0  0
 23 24  1  0  0  0  0
 24  2  1  0  0  0  0
 26 22  1  0  0  0  0
 27 28  1  0  0  0  0
 27 30  1  0  0  0  0
 29 27  1  0  0  0  0
 32 33  1  0  0  0  0
 32 31  1  0  0  0  0
 34 32  1  0  0  0  0
 35 32  1  0  0  0  0
M  RAD  4   1   2  11   2  12   3  25   2
M  END
