Coordinates from ORCA-job p-CH3O-Ph-N2-X-OTs-B3LYPG-6-31G_dp-scan-d09-49-n400
 OpenBabel08281821253D

 35 36  0  0  1  0  0  0  0  0999 V2000
    0.1903    0.5061   -3.0787 C   0  0  0  0  0  0  0  0  0  0  0  0
    1.0786    1.6755   -3.3525 C   0  0  1  0  0  0  0  0  0  0  0  0
    0.9535    2.8198   -2.3526 C   0  0  0  0  0  0  0  0  0  0  0  0
   -0.0070    2.7352   -1.2954 C   0  0  0  0  0  0  0  0  0  0  0  0
   -0.8079    1.6416   -1.1704 C   0  0  0  0  0  0  0  0  0  0  0  0
   -0.7123    0.5034   -2.0696 C   0  0  0  0  0  0  0  0  0  0  0  0
    0.3104   -0.3602   -3.7198 H   0  0  0  0  0  0  0  0  0  0  0  0
    0.8027    2.1397   -4.3238 H   0  0  0  0  0  0  0  0  0  0  0  0
   -0.0694    3.5648   -0.5995 H   0  0  0  0  0  0  0  0  0  0  0  0
   -1.5279    1.6166   -0.3601 H   0  0  0  0  0  0  0  0  0  0  0  0
    1.7129    3.8745   -2.4586 N   0  0  0  0  0  0  0  0  0  0  0  0
    2.3413    4.1922   -3.5337 N   0  0  0  0  0  0  0  0  0  0  0  0
    5.3209   -0.4780   -4.6817 C   0  0  0  0  0  0  0  0  0  0  0  0
    6.6613   -0.6230   -4.3329 C   0  0  0  0  0  0  0  0  0  0  0  0
    7.3933    0.4542   -3.8099 C   0  0  0  0  0  0  0  0  0  0  0  0
    6.7482    1.6892   -3.6490 C   0  0  0  0  0  0  0  0  0  0  0  0
    5.4078    1.8576   -3.9925 C   0  0  0  0  0  0  0  0  0  0  0  0
    4.7065    0.7601   -4.4972 C   0  0  0  0  0  0  0  0  0  0  0  0
    4.7447   -1.3019   -5.0908 H   0  0  0  0  0  0  0  0  0  0  0  0
    7.1495   -1.5846   -4.4720 H   0  0  0  0  0  0  0  0  0  0  0  0
    7.3024    2.5341   -3.2493 H   0  0  0  0  0  0  0  0  0  0  0  0
    4.9194    2.8195   -3.8549 H   0  0  0  0  0  0  0  0  0  0  0  0
    2.9965    0.9575   -5.0304 S   0  0  2  0  0  0  0  0  0  0  0  0
    2.4527    1.2618   -3.4171 O   0  0  0  0  0  0  0  0  0  0  0  0
    2.5189   -0.3874   -5.4701 O   0  0  0  0  0  0  0  0  0  0  0  0
    3.7046    4.6504   -3.2749 O   0  0  0  0  0  0  0  0  0  0  0  0
    8.8399    0.2784   -3.4145 C   0  0  0  0  0  0  0  0  0  0  0  0
    9.3819   -0.3351   -4.1412 H   0  0  0  0  0  0  0  0  0  0  0  0
    9.3522    1.2404   -3.3310 H   0  0  0  0  0  0  0  0  0  0  0  0
    8.9218   -0.2244   -2.4428 H   0  0  0  0  0  0  0  0  0  0  0  0
   -1.4942   -0.6040   -1.9184 O   0  0  0  0  0  0  0  0  0  0  0  0
   -2.4200   -0.6766   -0.8434 C   0  0  0  0  0  0  0  0  0  0  0  0
   -2.9001   -1.6515   -0.9356 H   0  0  0  0  0  0  0  0  0  0  0  0
   -3.1897    0.1034   -0.9088 H   0  0  0  0  0  0  0  0  0  0  0  0
   -1.9233   -0.6178    0.1331 H   0  0  0  0  0  0  0  0  0  0  0  0
  1  6  2  0  0  0  0
  2  8  1  6  0  0  0
  2  1  1  0  0  0  0
  2  3  1  0  0  0  0
  3  4  2  0  0  0  0
  4  5  1  0  0  0  0
  4  9  1  0  0  0  0
  5 10  1  0  0  0  0
  6 31  1  0  0  0  0
  6  5  1  0  0  0  0
  7  1  1  0  0  0  0
 11  3  1  0  0  0  0
 12 26  1  0  0  0  0
 12 11  1  0  0  0  0
 13 18  2  0  0  0  0
 13 14  1  0  0  0  0
 14 15  2  0  0  0  0
 15 16  1  0  0  0  0
 15 27  1  0  0  0  0
 16 21  1  0  0  0  0
 17 22  1  0  0  0  0
 17 16  2  0  0  0  0
 18 17  1  0  0  0  0
 19 13  1  0  0  0  0
 20 14  1  0  0  0  0
 23 25  1  1  0  0  0
 23 18  1  0  0  0  0
 23 24  1  0  0  0  0
 24  2  1  0  0  0  0
 27 29  1  0  0  0  0
 27 30  1  0  0  0  0
 28 27  1  0  0  0  0
 31 32  1  0  0  0  0
 32 35  1  0  0  0  0
 33 32  1  0  0  0  0
 34 32  1  0  0  0  0
M  RAD  5   5   2  11   2  12   2  25   2  26   2
M  END
