Coordinates from ORCA-job p-CH3O-Ph-N2-X-OTs-B3LYPG-6-31G_dp-scan-d09-49-n400
 OpenBabel08281821253D

 35 36  0  0  1  0  0  0  0  0999 V2000
   -0.1777    0.9020   -2.7019 C   0  0  0  0  0  0  0  0  0  0  0  0
    0.9413    1.8604   -2.9539 C   0  0  1  0  0  0  0  0  0  0  0  0
    1.1598    2.7739   -1.7725 C   0  0  0  0  0  0  0  0  0  0  0  0
    0.5970    2.5128   -0.4720 C   0  0  0  0  0  0  0  0  0  0  0  0
   -0.2979    1.5114   -0.3198 C   0  0  0  0  0  0  0  0  0  0  0  0
   -0.7037    0.7145   -1.4673 C   0  0  0  0  0  0  0  0  0  0  0  0
   -0.4836    0.3076   -3.5533 H   0  0  0  0  0  0  0  0  0  0  0  0
    0.7633    2.4460   -3.8666 H   0  0  0  0  0  0  0  0  0  0  0  0
    0.9042    3.1339    0.3632 H   0  0  0  0  0  0  0  0  0  0  0  0
   -0.7435    1.2817    0.6406 H   0  0  0  0  0  0  0  0  0  0  0  0
    1.9767    3.7837   -1.9356 N   0  0  0  0  0  0  0  0  0  0  0  0
    2.6977    4.6545   -2.1062 N   0  0  0  0  0  0  0  0  0  0  0  0
    5.0141   -0.4299   -4.6641 C   0  0  0  0  0  0  0  0  0  0  0  0
    6.3825   -0.5433   -4.4230 C   0  0  0  0  0  0  0  0  0  0  0  0
    7.1243    0.5682   -4.0004 C   0  0  0  0  0  0  0  0  0  0  0  0
    6.4684    1.7937   -3.8223 C   0  0  0  0  0  0  0  0  0  0  0  0
    5.0979    1.9129   -4.0588 C   0  0  0  0  0  0  0  0  0  0  0  0
    4.3711    0.7881   -4.4729 C   0  0  0  0  0  0  0  0  0  0  0  0
    4.4180   -1.2751   -4.9952 H   0  0  0  0  0  0  0  0  0  0  0  0
    6.8792   -1.4988   -4.5643 H   0  0  0  0  0  0  0  0  0  0  0  0
    7.0309    2.6664   -3.4943 H   0  0  0  0  0  0  0  0  0  0  0  0
    4.9932    3.7631   -3.5402 H   0  0  0  0  0  0  0  0  0  0  0  0
    2.6026    0.9260   -4.8175 S   0  0  2  0  0  0  0  0  0  0  0  0
    2.2109    1.1288   -3.1812 O   0  0  0  0  0  0  0  0  0  0  0  0
    2.1746   -0.4259   -5.2906 O   0  0  0  0  0  0  0  0  0  0  0  0
    4.4150    3.0840   -3.9111 O   0  0  0  0  0  0  0  0  0  0  0  0
    8.6135    0.4644   -3.7724 C   0  0  0  0  0  0  0  0  0  0  0  0
    8.9063   -0.5567   -3.5136 H   0  0  0  0  0  0  0  0  0  0  0  0
    9.1698    0.7444   -4.6759 H   0  0  0  0  0  0  0  0  0  0  0  0
    8.9453    1.1284   -2.9684 H   0  0  0  0  0  0  0  0  0  0  0  0
   -1.6686   -0.1920   -1.1483 O   0  0  0  0  0  0  0  0  0  0  0  0
   -2.1322   -1.0522   -2.1791 C   0  0  0  0  0  0  0  0  0  0  0  0
   -2.8680   -1.7115   -1.7160 H   0  0  0  0  0  0  0  0  0  0  0  0
   -1.3131   -1.6499   -2.5975 H   0  0  0  0  0  0  0  0  0  0  0  0
   -2.6090   -0.4841   -2.9878 H   0  0  0  0  0  0  0  0  0  0  0  0
  1  6  1  0  0  0  0
  2  8  1  6  0  0  0
  2  1  1  0  0  0  0
  2  3  1  0  0  0  0
  3  4  2  0  0  0  0
  4  5  1  0  0  0  0
  4  9  1  0  0  0  0
  5 10  1  0  0  0  0
  6 31  1  0  0  0  0
  6  5  2  0  0  0  0
  7  1  1  0  0  0  0
 11  3  1  0  0  0  0
 12 11  1  0  0  0  0
 13 18  2  0  0  0  0
 13 14  1  0  0  0  0
 14 15  2  0  0  0  0
 15 16  1  0  0  0  0
 15 27  1  0  0  0  0
 16 21  1  0  0  0  0
 17 26  1  0  0  0  0
 17 16  2  0  0  0  0
 18 17  1  0  0  0  0
 19 13  1  0  0  0  0
 20 14  1  0  0  0  0
 23 25  1  1  0  0  0
 23 18  1  0  0  0  0
 23 24  1  0  0  0  0
 24  2  1  0  0  0  0
 26 22  1  0  0  0  0
 27 28  1  0  0  0  0
 27 30  1  0  0  0  0
 29 27  1  0  0  0  0
 32 33  1  0  0  0  0
 32 31  1  0  0  0  0
 34 32  1  0  0  0  0
 35 32  1  0  0  0  0
M  RAD  4   1   2  11   2  12   3  25   2
M  END
