Coordinates from ORCA-job p-CH3O-Ph-N2-X-OTs-B3LYPG-6-31G_dp-scan-d09-49-n400
 OpenBabel08281821253D

 35 36  0  0  1  0  0  0  0  0999 V2000
   -0.1819    0.8989   -2.7005 C   0  0  0  0  0  0  0  0  0  0  0  0
    0.9474    1.8449   -2.9532 C   0  0  1  0  0  0  0  0  0  0  0  0
    1.1777    2.7551   -1.7711 C   0  0  0  0  0  0  0  0  0  0  0  0
    0.6089    2.5032   -0.4715 C   0  0  0  0  0  0  0  0  0  0  0  0
   -0.2989    1.5134   -0.3195 C   0  0  0  0  0  0  0  0  0  0  0  0
   -0.7119    0.7194   -1.4665 C   0  0  0  0  0  0  0  0  0  0  0  0
   -0.4939    0.3070   -3.5515 H   0  0  0  0  0  0  0  0  0  0  0  0
    0.7744    2.4333   -3.8651 H   0  0  0  0  0  0  0  0  0  0  0  0
    0.9227    3.1212    0.3635 H   0  0  0  0  0  0  0  0  0  0  0  0
   -0.7491    1.2907    0.6404 H   0  0  0  0  0  0  0  0  0  0  0  0
    2.0119    3.7507   -1.9337 N   0  0  0  0  0  0  0  0  0  0  0  0
    2.7498    4.6064   -2.1080 N   0  0  0  0  0  0  0  0  0  0  0  0
    5.0245   -0.4336   -4.6661 C   0  0  0  0  0  0  0  0  0  0  0  0
    6.3935   -0.5367   -4.4237 C   0  0  0  0  0  0  0  0  0  0  0  0
    7.1265    0.5803   -4.0004 C   0  0  0  0  0  0  0  0  0  0  0  0
    6.4614    1.8011   -3.8232 C   0  0  0  0  0  0  0  0  0  0  0  0
    5.0902    1.9099   -4.0610 C   0  0  0  0  0  0  0  0  0  0  0  0
    4.3722    0.7795   -4.4754 C   0  0  0  0  0  0  0  0  0  0  0  0
    4.4349   -1.2835   -4.9972 H   0  0  0  0  0  0  0  0  0  0  0  0
    6.8975   -1.4885   -4.5643 H   0  0  0  0  0  0  0  0  0  0  0  0
    7.0170    2.6780   -3.4951 H   0  0  0  0  0  0  0  0  0  0  0  0
    4.9681    3.7581   -3.5366 H   0  0  0  0  0  0  0  0  0  0  0  0
    2.6028    0.9048   -4.8200 S   0  0  2  0  0  0  0  0  0  0  0  0
    2.2083    1.0999   -3.1832 O   0  0  0  0  0  0  0  0  0  0  0  0
    2.1851   -0.4488   -5.2970 O   0  0  0  0  0  0  0  0  0  0  0  0
    4.3982    3.0758   -3.9145 O   0  0  0  0  0  0  0  0  0  0  0  0
    8.6162    0.4877   -3.7712 C   0  0  0  0  0  0  0  0  0  0  0  0
    8.9161   -0.5307   -3.5099 H   0  0  0  0  0  0  0  0  0  0  0  0
    9.1712    0.7697   -4.6749 H   0  0  0  0  0  0  0  0  0  0  0  0
    8.9427    1.1559   -2.9684 H   0  0  0  0  0  0  0  0  0  0  0  0
   -1.6875   -0.1756   -1.1476 O   0  0  0  0  0  0  0  0  0  0  0  0
   -2.1590   -1.0325   -2.1776 C   0  0  0  0  0  0  0  0  0  0  0  0
   -2.9031   -1.6824   -1.7147 H   0  0  0  0  0  0  0  0  0  0  0  0
   -1.3459   -1.6403   -2.5932 H   0  0  0  0  0  0  0  0  0  0  0  0
   -2.6276   -0.4605   -2.9883 H   0  0  0  0  0  0  0  0  0  0  0  0
  1  6  1  0  0  0  0
  2  8  1  6  0  0  0
  2  1  1  0  0  0  0
  2  3  1  0  0  0  0
  3  4  2  0  0  0  0
  4  5  1  0  0  0  0
  4  9  1  0  0  0  0
  5 10  1  0  0  0  0
  6 31  1  0  0  0  0
  6  5  2  0  0  0  0
  7  1  1  0  0  0  0
 11  3  1  0  0  0  0
 12 11  1  0  0  0  0
 13 18  2  0  0  0  0
 13 14  1  0  0  0  0
 14 15  2  0  0  0  0
 15 16  1  0  0  0  0
 15 27  1  0  0  0  0
 16 21  1  0  0  0  0
 17 26  1  0  0  0  0
 17 16  2  0  0  0  0
 18 17  1  0  0  0  0
 19 13  1  0  0  0  0
 20 14  1  0  0  0  0
 23 25  1  1  0  0  0
 23 18  1  0  0  0  0
 23 24  1  0  0  0  0
 24  2  1  0  0  0  0
 26 22  1  0  0  0  0
 27 28  1  0  0  0  0
 27 30  1  0  0  0  0
 29 27  1  0  0  0  0
 32 33  1  0  0  0  0
 32 31  1  0  0  0  0
 34 32  1  0  0  0  0
 35 32  1  0  0  0  0
M  RAD  4   1   2  11   2  12   3  25   2
M  END
