Coordinates from ORCA-job p-CH3O-Ph-N2-X-OTs-B3LYPG-6-31G_dp-scan-d09-49-n400
 OpenBabel08281821253D

 35 36  0  0  1  0  0  0  0  0999 V2000
   -0.0594    0.9602   -2.7171 C   0  0  0  0  0  0  0  0  0  0  0  0
    0.8398    2.1382   -2.9171 C   0  0  1  0  0  0  0  0  0  0  0  0
    0.8381    3.0361   -1.7085 C   0  0  0  0  0  0  0  0  0  0  0  0
    0.3753    2.5949   -0.4158 C   0  0  0  0  0  0  0  0  0  0  0  0
   -0.2685    1.4116   -0.3066 C   0  0  0  0  0  0  0  0  0  0  0  0
   -0.5136    0.6044   -1.4914 C   0  0  0  0  0  0  0  0  0  0  0  0
   -0.2314    0.3530   -3.5963 H   0  0  0  0  0  0  0  0  0  0  0  0
    0.5591    2.7044   -3.8170 H   0  0  0  0  0  0  0  0  0  0  0  0
    0.5451    3.2337    0.4449 H   0  0  0  0  0  0  0  0  0  0  0  0
   -0.6341    1.0436    0.6446 H   0  0  0  0  0  0  0  0  0  0  0  0
    1.3287    4.2441   -1.8369 N   0  0  0  0  0  0  0  0  0  0  0  0
    1.7447    5.3029   -1.9513 N   0  0  0  0  0  0  0  0  0  0  0  0
    4.7382   -0.3023   -4.4672 C   0  0  0  0  0  0  0  0  0  0  0  0
    6.0703   -0.6384   -4.2369 C   0  0  0  0  0  0  0  0  0  0  0  0
    7.0196    0.3596   -3.9752 C   0  0  0  0  0  0  0  0  0  0  0  0
    6.6047    1.6966   -3.9475 C   0  0  0  0  0  0  0  0  0  0  0  0
    5.2691    2.0406   -4.1731 C   0  0  0  0  0  0  0  0  0  0  0  0
    4.3331    1.0288   -4.4244 C   0  0  0  0  0  0  0  0  0  0  0  0
    3.9867   -1.0548   -4.6865 H   0  0  0  0  0  0  0  0  0  0  0  0
    6.3780   -1.6798   -4.2630 H   0  0  0  0  0  0  0  0  0  0  0  0
    7.3298    2.4835   -3.7446 H   0  0  0  0  0  0  0  0  0  0  0  0
    5.5654    3.9222   -3.9744 H   0  0  0  0  0  0  0  0  0  0  0  0
    2.6016    1.4216   -4.7720 S   0  0  2  0  0  0  0  0  0  0  0  0
    2.2407    1.6845   -3.1358 O   0  0  0  0  0  0  0  0  0  0  0  0
    1.9846    0.1364   -5.2305 O   0  0  0  0  0  0  0  0  0  0  0  0
    4.8275    3.3292   -4.1663 O   0  0  0  0  0  0  0  0  0  0  0  0
    8.4728    0.0086   -3.7616 C   0  0  0  0  0  0  0  0  0  0  0  0
    8.5807   -0.9946   -3.3397 H   0  0  0  0  0  0  0  0  0  0  0  0
    9.0242    0.0252   -4.7098 H   0  0  0  0  0  0  0  0  0  0  0  0
    8.9640    0.7163   -3.0868 H   0  0  0  0  0  0  0  0  0  0  0  0
   -1.2584   -0.5025   -1.2164 O   0  0  0  0  0  0  0  0  0  0  0  0
   -1.5378   -1.3899   -2.2901 C   0  0  0  0  0  0  0  0  0  0  0  0
   -2.1074   -2.2155   -1.8607 H   0  0  0  0  0  0  0  0  0  0  0  0
   -0.6146   -1.7728   -2.7410 H   0  0  0  0  0  0  0  0  0  0  0  0
   -2.1362   -0.8985   -3.0682 H   0  0  0  0  0  0  0  0  0  0  0  0
  1  6  1  0  0  0  0
  2  8  1  6  0  0  0
  2  1  1  0  0  0  0
  2  3  1  0  0  0  0
  3  4  2  0  0  0  0
  4  5  1  0  0  0  0
  4  9  1  0  0  0  0
  5 10  1  0  0  0  0
  6 31  1  0  0  0  0
  6  5  2  0  0  0  0
  7  1  1  0  0  0  0
 11  3  1  0  0  0  0
 12 11  1  0  0  0  0
 13 18  2  0  0  0  0
 13 14  1  0  0  0  0
 14 15  2  0  0  0  0
 15 16  1  0  0  0  0
 15 27  1  0  0  0  0
 16 21  1  0  0  0  0
 17 26  1  0  0  0  0
 17 16  2  0  0  0  0
 18 17  1  0  0  0  0
 19 13  1  0  0  0  0
 20 14  1  0  0  0  0
 23 25  1  1  0  0  0
 23 18  1  0  0  0  0
 23 24  1  0  0  0  0
 24  2  1  0  0  0  0
 26 22  1  0  0  0  0
 27 28  1  0  0  0  0
 27 30  1  0  0  0  0
 29 27  1  0  0  0  0
 32 33  1  0  0  0  0
 32 31  1  0  0  0  0
 34 32  1  0  0  0  0
 35 32  1  0  0  0  0
M  RAD  4   1   2  11   2  12   3  25   2
M  END
