Coordinates from ORCA-job p-CH3O-Ph-N2-X-OTs-B3LYPG-6-31G_dp-scan-d09-49-n400
 OpenBabel08281821253D

 35 36  0  0  1  0  0  0  0  0999 V2000
   -0.1388    0.9248   -2.7064 C   0  0  0  0  0  0  0  0  0  0  0  0
    0.8988    1.9760   -2.9366 C   0  0  1  0  0  0  0  0  0  0  0  0
    1.0260    2.8917   -1.7463 C   0  0  0  0  0  0  0  0  0  0  0  0
    0.4935    2.5587   -0.4491 C   0  0  0  0  0  0  0  0  0  0  0  0
   -0.3077    1.4786   -0.3137 C   0  0  0  0  0  0  0  0  0  0  0  0
   -0.6450    0.6708   -1.4755 C   0  0  0  0  0  0  0  0  0  0  0  0
   -0.3891    0.3195   -3.5682 H   0  0  0  0  0  0  0  0  0  0  0  0
    0.6833    2.5539   -3.8467 H   0  0  0  0  0  0  0  0  0  0  0  0
    0.7437    3.1923    0.3957 H   0  0  0  0  0  0  0  0  0  0  0  0
   -0.7293    1.1937    0.6428 H   0  0  0  0  0  0  0  0  0  0  0  0
    1.7252    3.9891   -1.8959 N   0  0  0  0  0  0  0  0  0  0  0  0
    2.3326    4.9470   -2.0394 N   0  0  0  0  0  0  0  0  0  0  0  0
    4.9126   -0.3903   -4.5906 C   0  0  0  0  0  0  0  0  0  0  0  0
    6.2725   -0.5913   -4.3613 C   0  0  0  0  0  0  0  0  0  0  0  0
    7.0980    0.4818   -3.9990 C   0  0  0  0  0  0  0  0  0  0  0  0
    6.5331    1.7572   -3.8695 C   0  0  0  0  0  0  0  0  0  0  0  0
    5.1705    1.9649   -4.0942 C   0  0  0  0  0  0  0  0  0  0  0  0
    4.3594    0.8778   -4.4477 C   0  0  0  0  0  0  0  0  0  0  0  0
    4.2532   -1.2035   -4.8788 H   0  0  0  0  0  0  0  0  0  0  0  0
    6.6976   -1.5853   -4.4656 H   0  0  0  0  0  0  0  0  0  0  0  0
    7.1613    2.6006   -3.5870 H   0  0  0  0  0  0  0  0  0  0  0  0
    5.2313    3.8433   -3.7088 H   0  0  0  0  0  0  0  0  0  0  0  0
    2.6005    1.1148   -4.7903 S   0  0  2  0  0  0  0  0  0  0  0  0
    2.2290    1.3533   -3.1550 O   0  0  0  0  0  0  0  0  0  0  0  0
    2.0947   -0.2159   -5.2500 O   0  0  0  0  0  0  0  0  0  0  0  0
    4.5794    3.1886   -3.9903 O   0  0  0  0  0  0  0  0  0  0  0  0
    8.5793    0.2818   -3.7835 C   0  0  0  0  0  0  0  0  0  0  0  0
    8.8027   -0.7472   -3.4889 H   0  0  0  0  0  0  0  0  0  0  0  0
    9.1421    0.4875   -4.7028 H   0  0  0  0  0  0  0  0  0  0  0  0
    8.9679    0.9498   -3.0086 H   0  0  0  0  0  0  0  0  0  0  0  0
   -1.5283   -0.3210   -1.1735 O   0  0  0  0  0  0  0  0  0  0  0  0
   -1.9145   -1.2009   -2.2197 C   0  0  0  0  0  0  0  0  0  0  0  0
   -2.5868   -1.9322   -1.7681 H   0  0  0  0  0  0  0  0  0  0  0  0
   -1.0462   -1.7145   -2.6497 H   0  0  0  0  0  0  0  0  0  0  0  0
   -2.4423   -0.6639   -3.0181 H   0  0  0  0  0  0  0  0  0  0  0  0
  1  6  1  0  0  0  0
  2  8  1  6  0  0  0
  2  1  1  0  0  0  0
  2  3  1  0  0  0  0
  3  4  2  0  0  0  0
  4  5  1  0  0  0  0
  4  9  1  0  0  0  0
  5 10  1  0  0  0  0
  6 31  1  0  0  0  0
  6  5  2  0  0  0  0
  7  1  1  0  0  0  0
 11  3  1  0  0  0  0
 12 11  1  0  0  0  0
 13 18  2  0  0  0  0
 13 14  1  0  0  0  0
 14 15  2  0  0  0  0
 15 16  1  0  0  0  0
 15 27  1  0  0  0  0
 16 21  1  0  0  0  0
 17 26  1  0  0  0  0
 17 16  2  0  0  0  0
 18 17  1  0  0  0  0
 19 13  1  0  0  0  0
 20 14  1  0  0  0  0
 23 25  1  1  0  0  0
 23 18  1  0  0  0  0
 23 24  1  0  0  0  0
 24  2  1  0  0  0  0
 26 22  1  0  0  0  0
 27 28  1  0  0  0  0
 27 30  1  0  0  0  0
 29 27  1  0  0  0  0
 32 33  1  0  0  0  0
 32 31  1  0  0  0  0
 34 32  1  0  0  0  0
 35 32  1  0  0  0  0
M  RAD  4   1   2  11   2  12   3  25   2
M  END
