Coordinates from ORCA-job p-CH3O-Ph-N2-X-OTs-B3LYPG-6-31G_dp-scan-d09-49-n400
 OpenBabel08281821253D

 35 36  0  0  1  0  0  0  0  0999 V2000
   -0.1344    0.9267   -2.7070 C   0  0  0  0  0  0  0  0  0  0  0  0
    0.8945    1.9865   -2.9370 C   0  0  1  0  0  0  0  0  0  0  0  0
    1.0135    2.9033   -1.7468 C   0  0  0  0  0  0  0  0  0  0  0  0
    0.4846    2.5652   -0.4494 C   0  0  0  0  0  0  0  0  0  0  0  0
   -0.3069    1.4780   -0.3139 C   0  0  0  0  0  0  0  0  0  0  0  0
   -0.6378    0.6678   -1.4760 C   0  0  0  0  0  0  0  0  0  0  0  0
   -0.3796    0.3196   -3.5689 H   0  0  0  0  0  0  0  0  0  0  0  0
    0.6746    2.5625   -3.8472 H   0  0  0  0  0  0  0  0  0  0  0  0
    0.7294    3.2009    0.3954 H   0  0  0  0  0  0  0  0  0  0  0  0
   -0.7255    1.1891    0.6426 H   0  0  0  0  0  0  0  0  0  0  0  0
    1.7009    4.0081   -1.8969 N   0  0  0  0  0  0  0  0  0  0  0  0
    2.2974    4.9728   -2.0405 N   0  0  0  0  0  0  0  0  0  0  0  0
    4.9031   -0.3853   -4.5894 C   0  0  0  0  0  0  0  0  0  0  0  0
    6.2617   -0.5948   -4.3602 C   0  0  0  0  0  0  0  0  0  0  0  0
    7.0940    0.4732   -3.9983 C   0  0  0  0  0  0  0  0  0  0  0  0
    6.5370    1.7522   -3.8691 C   0  0  0  0  0  0  0  0  0  0  0  0
    5.1758    1.9685   -4.0937 C   0  0  0  0  0  0  0  0  0  0  0  0
    4.3578    0.8864   -4.4469 C   0  0  0  0  0  0  0  0  0  0  0  0
    4.2386   -1.1943   -4.8778 H   0  0  0  0  0  0  0  0  0  0  0  0
    6.6805   -1.5915   -4.4643 H   0  0  0  0  0  0  0  0  0  0  0  0
    7.1707    2.5915   -3.5868 H   0  0  0  0  0  0  0  0  0  0  0  0
    5.2497    3.8465   -3.7112 H   0  0  0  0  0  0  0  0  0  0  0  0
    2.6004    1.1335   -4.7900 S   0  0  2  0  0  0  0  0  0  0  0  0
    2.2299    1.3743   -3.1549 O   0  0  0  0  0  0  0  0  0  0  0  0
    2.0871   -0.1945   -5.2495 O   0  0  0  0  0  0  0  0  0  0  0  0
    4.5926    3.1958   -3.9898 O   0  0  0  0  0  0  0  0  0  0  0  0
    8.5740    0.2639   -3.7827 C   0  0  0  0  0  0  0  0  0  0  0  0
    8.7907   -0.7662   -3.4868 H   0  0  0  0  0  0  0  0  0  0  0  0
    9.1379    0.4646   -4.7024 H   0  0  0  0  0  0  0  0  0  0  0  0
    8.9671    0.9304   -3.0088 H   0  0  0  0  0  0  0  0  0  0  0  0
   -1.5123   -0.3318   -1.1740 O   0  0  0  0  0  0  0  0  0  0  0  0
   -1.8903   -1.2152   -2.2203 C   0  0  0  0  0  0  0  0  0  0  0  0
   -2.5557   -1.9528   -1.7687 H   0  0  0  0  0  0  0  0  0  0  0  0
   -1.0172   -1.7203   -2.6505 H   0  0  0  0  0  0  0  0  0  0  0  0
   -2.4234   -0.6831   -3.0186 H   0  0  0  0  0  0  0  0  0  0  0  0
  1  6  1  0  0  0  0
  2  8  1  6  0  0  0
  2  1  1  0  0  0  0
  2  3  1  0  0  0  0
  3  4  2  0  0  0  0
  4  5  1  0  0  0  0
  4  9  1  0  0  0  0
  5 10  1  0  0  0  0
  6 31  1  0  0  0  0
  6  5  2  0  0  0  0
  7  1  1  0  0  0  0
 11  3  1  0  0  0  0
 12 11  1  0  0  0  0
 13 18  2  0  0  0  0
 13 14  1  0  0  0  0
 14 15  2  0  0  0  0
 15 16  1  0  0  0  0
 15 27  1  0  0  0  0
 16 21  1  0  0  0  0
 17 26  1  0  0  0  0
 17 16  2  0  0  0  0
 18 17  1  0  0  0  0
 19 13  1  0  0  0  0
 20 14  1  0  0  0  0
 23 25  1  1  0  0  0
 23 18  1  0  0  0  0
 23 24  1  0  0  0  0
 24  2  1  0  0  0  0
 26 22  1  0  0  0  0
 27 28  1  0  0  0  0
 27 30  1  0  0  0  0
 29 27  1  0  0  0  0
 32 33  1  0  0  0  0
 32 31  1  0  0  0  0
 34 32  1  0  0  0  0
 35 32  1  0  0  0  0
M  RAD  4   1   2  11   2  12   3  25   2
M  END
