Coordinates from ORCA-job p-CH3O-Ph-N2-X-OTs-B3LYPG-6-31G_dp-scan-d09-49-n400
 OpenBabel08281821253D

 35 36  0  0  1  0  0  0  0  0999 V2000
   -0.0166    0.9686   -2.7235 C   0  0  0  0  0  0  0  0  0  0  0  0
    0.8150    2.1972   -2.9127 C   0  0  1  0  0  0  0  0  0  0  0  0
    0.7621    3.0806   -1.6950 C   0  0  0  0  0  0  0  0  0  0  0  0
    0.3474    2.5918   -0.4025 C   0  0  0  0  0  0  0  0  0  0  0  0
   -0.2197    1.3691   -0.3037 C   0  0  0  0  0  0  0  0  0  0  0  0
   -0.4349    0.5687   -1.4987 C   0  0  0  0  0  0  0  0  0  0  0  0
   -0.1617    0.3666   -3.6110 H   0  0  0  0  0  0  0  0  0  0  0  0
    0.5008    2.7562   -3.8059 H   0  0  0  0  0  0  0  0  0  0  0  0
    0.4881    3.2276    0.4657 H   0  0  0  0  0  0  0  0  0  0  0  0
   -0.5474    0.9643    0.6464 H   0  0  0  0  0  0  0  0  0  0  0  0
    1.1442    4.3281   -1.8146 N   0  0  0  0  0  0  0  0  0  0  0  0
    1.4609    5.4221   -1.9158 N   0  0  0  0  0  0  0  0  0  0  0  0
    4.6502   -0.2408   -4.4024 C   0  0  0  0  0  0  0  0  0  0  0  0
    5.9619   -0.6419   -4.1623 C   0  0  0  0  0  0  0  0  0  0  0  0
    6.9687    0.3114   -3.9528 C   0  0  0  0  0  0  0  0  0  0  0  0
    6.6311    1.6694   -3.9882 C   0  0  0  0  0  0  0  0  0  0  0  0
    5.3154    2.0789   -4.2237 C   0  0  0  0  0  0  0  0  0  0  0  0
    4.3213    1.1122   -4.4213 C   0  0  0  0  0  0  0  0  0  0  0  0
    3.8564   -0.9588   -4.5860 H   0  0  0  0  0  0  0  0  0  0  0  0
    6.2093   -1.6995   -4.1396 H   0  0  0  0  0  0  0  0  0  0  0  0
    7.4016    2.4223   -3.8280 H   0  0  0  0  0  0  0  0  0  0  0  0
    5.7254    3.9466   -4.1227 H   0  0  0  0  0  0  0  0  0  0  0  0
    2.6089    1.5804   -4.7764 S   0  0  2  0  0  0  0  0  0  0  0  0
    2.2391    1.8201   -3.1367 O   0  0  0  0  0  0  0  0  0  0  0  0
    1.9468    0.3274   -5.2622 O   0  0  0  0  0  0  0  0  0  0  0  0
    4.9514    3.3904   -4.2791 O   0  0  0  0  0  0  0  0  0  0  0  0
    8.4009   -0.1123   -3.7296 C   0  0  0  0  0  0  0  0  0  0  0  0
    8.4536   -1.0892   -3.2405 H   0  0  0  0  0  0  0  0  0  0  0  0
    8.9387   -0.1944   -4.6821 H   0  0  0  0  0  0  0  0  0  0  0  0
    8.9433    0.6085   -3.1102 H   0  0  0  0  0  0  0  0  0  0  0  0
   -1.1142   -0.5821   -1.2333 O   0  0  0  0  0  0  0  0  0  0  0  0
   -1.3665   -1.4613   -2.3203 C   0  0  0  0  0  0  0  0  0  0  0  0
   -1.8887   -2.3219   -1.8995 H   0  0  0  0  0  0  0  0  0  0  0  0
   -0.4330   -1.7902   -2.7922 H   0  0  0  0  0  0  0  0  0  0  0  0
   -1.9996   -0.9845   -3.0799 H   0  0  0  0  0  0  0  0  0  0  0  0
  1  6  1  0  0  0  0
  2  8  1  6  0  0  0
  2  1  1  0  0  0  0
  2  3  1  0  0  0  0
  3  4  2  0  0  0  0
  4  5  1  0  0  0  0
  4  9  1  0  0  0  0
  5 10  1  0  0  0  0
  6 31  1  0  0  0  0
  6  5  2  0  0  0  0
  7  1  1  0  0  0  0
 11  3  1  0  0  0  0
 12 11  1  0  0  0  0
 13 14  1  0  0  0  0
 14 20  1  0  0  0  0
 14 15  2  0  0  0  0
 15 27  1  0  0  0  0
 16 15  1  0  0  0  0
 16 21  1  0  0  0  0
 17 16  2  0  0  0  0
 18 13  2  0  0  0  0
 18 17  1  0  0  0  0
 19 13  1  0  0  0  0
 23 25  1  1  0  0  0
 23 18  1  0  0  0  0
 23 24  1  0  0  0  0
 24  2  1  0  0  0  0
 26 17  1  0  0  0  0
 26 22  1  0  0  0  0
 27 28  1  0  0  0  0
 27 30  1  0  0  0  0
 29 27  1  0  0  0  0
 32 33  1  0  0  0  0
 32 31  1  0  0  0  0
 34 32  1  0  0  0  0
 35 32  1  0  0  0  0
M  RAD  4   1   2  11   2  12   3  25   2
M  END
