Coordinates from ORCA-job p-CH3O-Ph-N2-X-OTs-B3LYPG-6-31G_dp-scan-d09-49-n400
 OpenBabel08281821253D

 35 36  0  0  1  0  0  0  0  0999 V2000
   -0.1170    0.9372   -2.7094 C   0  0  0  0  0  0  0  0  0  0  0  0
    0.8795    2.0296   -2.9303 C   0  0  1  0  0  0  0  0  0  0  0  0
    0.9658    2.9425   -1.7350 C   0  0  0  0  0  0  0  0  0  0  0  0
    0.4500    2.5769   -0.4395 C   0  0  0  0  0  0  0  0  0  0  0  0
   -0.3048    1.4630   -0.3119 C   0  0  0  0  0  0  0  0  0  0  0  0
   -0.6105    0.6521   -1.4803 C   0  0  0  0  0  0  0  0  0  0  0  0
   -0.3412    0.3289   -3.5761 H   0  0  0  0  0  0  0  0  0  0  0  0
    0.6448    2.6041   -3.8379 H   0  0  0  0  0  0  0  0  0  0  0  0
    0.6737    3.2145    0.4098 H   0  0  0  0  0  0  0  0  0  0  0  0
   -0.7126    1.1531    0.6427 H   0  0  0  0  0  0  0  0  0  0  0  0
    1.6063    4.0762   -1.8783 N   0  0  0  0  0  0  0  0  0  0  0  0
    2.1596    5.0676   -2.0133 N   0  0  0  0  0  0  0  0  0  0  0  0
    4.8599   -0.3665   -4.5572 C   0  0  0  0  0  0  0  0  0  0  0  0
    6.2130   -0.6097   -4.3294 C   0  0  0  0  0  0  0  0  0  0  0  0
    7.0771    0.4418   -3.9943 C   0  0  0  0  0  0  0  0  0  0  0  0
    6.5570    1.7383   -3.8907 C   0  0  0  0  0  0  0  0  0  0  0  0
    5.2011    1.9887   -4.1137 C   0  0  0  0  0  0  0  0  0  0  0  0
    4.3511    0.9230   -4.4397 C   0  0  0  0  0  0  0  0  0  0  0  0
    4.1716   -1.1619   -4.8265 H   0  0  0  0  0  0  0  0  0  0  0  0
    6.6030   -1.6198   -4.4141 H   0  0  0  0  0  0  0  0  0  0  0  0
    7.2156    2.5653   -3.6292 H   0  0  0  0  0  0  0  0  0  0  0  0
    5.3355    3.8718   -3.7824 H   0  0  0  0  0  0  0  0  0  0  0  0
    2.5991    1.2081   -4.7826 S   0  0  2  0  0  0  0  0  0  0  0  0
    2.2339    1.4583   -3.1474 O   0  0  0  0  0  0  0  0  0  0  0  0
    2.0575   -0.1103   -5.2388 O   0  0  0  0  0  0  0  0  0  0  0  0
    4.6547    3.2344   -4.0335 O   0  0  0  0  0  0  0  0  0  0  0  0
    8.5516    0.1949   -3.7808 C   0  0  0  0  0  0  0  0  0  0  0  0
    8.7392   -0.8316   -3.4541 H   0  0  0  0  0  0  0  0  0  0  0  0
    9.1152    0.3496   -4.7095 H   0  0  0  0  0  0  0  0  0  0  0  0
    8.9696    0.8729   -3.0302 H   0  0  0  0  0  0  0  0  0  0  0  0
   -1.4515   -0.3781   -1.1863 O   0  0  0  0  0  0  0  0  0  0  0  0
   -1.7971   -1.2669   -2.2395 C   0  0  0  0  0  0  0  0  0  0  0  0
   -2.4363   -2.0308   -1.7939 H   0  0  0  0  0  0  0  0  0  0  0  0
   -0.9062   -1.7373   -2.6722 H   0  0  0  0  0  0  0  0  0  0  0  0
   -2.3478   -0.7483   -3.0348 H   0  0  0  0  0  0  0  0  0  0  0  0
  1  6  1  0  0  0  0
  2  8  1  6  0  0  0
  2  1  1  0  0  0  0
  2  3  1  0  0  0  0
  3  4  2  0  0  0  0
  4  5  1  0  0  0  0
  4  9  1  0  0  0  0
  5 10  1  0  0  0  0
  6 31  1  0  0  0  0
  6  5  2  0  0  0  0
  7  1  1  0  0  0  0
 11  3  1  0  0  0  0
 12 11  1  0  0  0  0
 13 18  2  0  0  0  0
 13 14  1  0  0  0  0
 14 15  2  0  0  0  0
 15 16  1  0  0  0  0
 15 27  1  0  0  0  0
 16 21  1  0  0  0  0
 17 26  1  0  0  0  0
 17 16  2  0  0  0  0
 18 17  1  0  0  0  0
 19 13  1  0  0  0  0
 20 14  1  0  0  0  0
 23 25  1  1  0  0  0
 23 18  1  0  0  0  0
 23 24  1  0  0  0  0
 24  2  1  0  0  0  0
 26 22  1  0  0  0  0
 27 28  1  0  0  0  0
 27 30  1  0  0  0  0
 29 27  1  0  0  0  0
 32 33  1  0  0  0  0
 32 31  1  0  0  0  0
 34 32  1  0  0  0  0
 35 32  1  0  0  0  0
M  RAD  4   1   2  11   2  12   3  25   2
M  END
