Coordinates from ORCA-job p-CH3O-Ph-N2-X-OTs-B3LYPG-6-31G_dp-scan-d09-49-n400
 OpenBabel08281821253D

 35 36  0  0  1  0  0  0  0  0999 V2000
   -0.0073    0.9705   -2.7254 C   0  0  0  0  0  0  0  0  0  0  0  0
    0.8101    2.2093   -2.9111 C   0  0  1  0  0  0  0  0  0  0  0  0
    0.7471    3.0879   -1.6904 C   0  0  0  0  0  0  0  0  0  0  0  0
    0.3433    2.5882   -0.3985 C   0  0  0  0  0  0  0  0  0  0  0  0
   -0.2076    1.3579   -0.3032 C   0  0  0  0  0  0  0  0  0  0  0  0
   -0.4173    0.5604   -1.5012 C   0  0  0  0  0  0  0  0  0  0  0  0
   -0.1474    0.3709   -3.6152 H   0  0  0  0  0  0  0  0  0  0  0  0
    0.4888    2.7675   -3.8021 H   0  0  0  0  0  0  0  0  0  0  0  0
    0.4784    3.2222    0.4720 H   0  0  0  0  0  0  0  0  0  0  0  0
   -0.5268    0.9447    0.6462 H   0  0  0  0  0  0  0  0  0  0  0  0
    1.1068    4.3423   -1.8067 N   0  0  0  0  0  0  0  0  0  0  0  0
    1.4029    5.4424   -1.9039 N   0  0  0  0  0  0  0  0  0  0  0  0
    4.6298   -0.2254   -4.3840 C   0  0  0  0  0  0  0  0  0  0  0  0
    5.9364   -0.6405   -4.1411 C   0  0  0  0  0  0  0  0  0  0  0  0
    6.9563    0.3024   -3.9467 C   0  0  0  0  0  0  0  0  0  0  0  0
    6.6364    1.6639   -4.0003 C   0  0  0  0  0  0  0  0  0  0  0  0
    5.3257    2.0877   -4.2387 C   0  0  0  0  0  0  0  0  0  0  0  0
    4.3184    1.1316   -4.4207 C   0  0  0  0  0  0  0  0  0  0  0  0
    3.8265   -0.9353   -4.5570 H   0  0  0  0  0  0  0  0  0  0  0  0
    6.1700   -1.7009   -4.1043 H   0  0  0  0  0  0  0  0  0  0  0  0
    7.4172    2.4087   -3.8524 H   0  0  0  0  0  0  0  0  0  0  0  0
    5.7618    3.9507   -4.1654 H   0  0  0  0  0  0  0  0  0  0  0  0
    2.6107    1.6159   -4.7773 S   0  0  2  0  0  0  0  0  0  0  0  0
    2.2383    1.8482   -3.1366 O   0  0  0  0  0  0  0  0  0  0  0  0
    1.9394    0.3706   -5.2707 O   0  0  0  0  0  0  0  0  0  0  0  0
    4.9797    3.4032   -4.3118 O   0  0  0  0  0  0  0  0  0  0  0  0
    8.3831   -0.1373   -3.7206 C   0  0  0  0  0  0  0  0  0  0  0  0
    8.4240   -1.1043   -3.2114 H   0  0  0  0  0  0  0  0  0  0  0  0
    8.9153   -0.2473   -4.6735 H   0  0  0  0  0  0  0  0  0  0  0  0
    8.9387    0.5885   -3.1189 H   0  0  0  0  0  0  0  0  0  0  0  0
   -1.0826   -0.5994   -1.2389 O   0  0  0  0  0  0  0  0  0  0  0  0
   -1.3297   -1.4757   -2.3292 C   0  0  0  0  0  0  0  0  0  0  0  0
   -1.8411   -2.3438   -1.9109 H   0  0  0  0  0  0  0  0  0  0  0  0
   -0.3946   -1.7922   -2.8064 H   0  0  0  0  0  0  0  0  0  0  0  0
   -1.9706   -1.0017   -3.0840 H   0  0  0  0  0  0  0  0  0  0  0  0
  1  6  1  0  0  0  0
  2  8  1  6  0  0  0
  2  1  1  0  0  0  0
  2  3  1  0  0  0  0
  3  4  2  0  0  0  0
  4  5  1  0  0  0  0
  4  9  1  0  0  0  0
  5 10  1  0  0  0  0
  6 31  1  0  0  0  0
  6  5  2  0  0  0  0
  7  1  1  0  0  0  0
 11  3  1  0  0  0  0
 12 11  1  0  0  0  0
 13 14  1  0  0  0  0
 14 20  1  0  0  0  0
 14 15  2  0  0  0  0
 15 27  1  0  0  0  0
 16 15  1  0  0  0  0
 16 21  1  0  0  0  0
 17 16  2  0  0  0  0
 18 13  2  0  0  0  0
 18 17  1  0  0  0  0
 19 13  1  0  0  0  0
 23 25  1  1  0  0  0
 23 18  1  0  0  0  0
 23 24  1  0  0  0  0
 24  2  1  0  0  0  0
 26 17  1  0  0  0  0
 26 22  1  0  0  0  0
 27 28  1  0  0  0  0
 27 30  1  0  0  0  0
 29 27  1  0  0  0  0
 32 33  1  0  0  0  0
 32 31  1  0  0  0  0
 34 32  1  0  0  0  0
 35 32  1  0  0  0  0
M  RAD  4   1   2  11   2  12   3  25   2
M  END
