Coordinates from ORCA-job p-CH3O-Ph-N2-X-OTs-B3LYPG-6-31G_dp-scan-d09-49-n400
 OpenBabel08281821253D

 35 36  0  0  1  0  0  0  0  0999 V2000
    0.1933    0.5663   -3.1142 C   0  0  0  0  0  0  0  0  0  0  0  0
    1.0802    1.7477   -3.3431 C   0  0  1  0  0  0  0  0  0  0  0  0
    0.9609    2.8594   -2.3038 C   0  0  0  0  0  0  0  0  0  0  0  0
    0.0132    2.7109   -1.2318 C   0  0  0  0  0  0  0  0  0  0  0  0
   -0.7658    1.6032   -1.1303 C   0  0  0  0  0  0  0  0  0  0  0  0
   -0.6818    0.5083   -2.0854 C   0  0  0  0  0  0  0  0  0  0  0  0
    0.2913   -0.2638   -3.8050 H   0  0  0  0  0  0  0  0  0  0  0  0
    0.8226    2.2370   -4.3041 H   0  0  0  0  0  0  0  0  0  0  0  0
   -0.0427    3.5125   -0.5030 H   0  0  0  0  0  0  0  0  0  0  0  0
   -1.4634    1.5310   -0.3032 H   0  0  0  0  0  0  0  0  0  0  0  0
    1.6867    3.9374   -2.3556 N   0  0  0  0  0  0  0  0  0  0  0  0
    2.3561    4.1575   -3.5308 N   0  0  0  0  0  0  0  0  0  0  0  0
    5.2784   -0.4967   -4.5690 C   0  0  0  0  0  0  0  0  0  0  0  0
    6.6185   -0.6526   -4.2241 C   0  0  0  0  0  0  0  0  0  0  0  0
    7.3905    0.4418   -3.8042 C   0  0  0  0  0  0  0  0  0  0  0  0
    6.7851    1.7051   -3.7432 C   0  0  0  0  0  0  0  0  0  0  0  0
    5.4450    1.8815   -4.0845 C   0  0  0  0  0  0  0  0  0  0  0  0
    4.7017    0.7698   -4.4843 C   0  0  0  0  0  0  0  0  0  0  0  0
    4.6722   -1.3333   -4.9020 H   0  0  0  0  0  0  0  0  0  0  0  0
    7.0756   -1.6373   -4.2852 H   0  0  0  0  0  0  0  0  0  0  0  0
    7.3699    2.5635   -3.4242 H   0  0  0  0  0  0  0  0  0  0  0  0
    4.9892    2.8656   -4.0283 H   0  0  0  0  0  0  0  0  0  0  0  0
    2.9862    0.9732   -5.0068 S   0  0  2  0  0  0  0  0  0  0  0  0
    2.4642    1.3347   -3.4055 O   0  0  0  0  0  0  0  0  0  0  0  0
    2.4942   -0.3803   -5.4035 O   0  0  0  0  0  0  0  0  0  0  0  0
    3.4632    4.6568   -3.4068 O   0  0  0  0  0  0  0  0  0  0  0  0
    8.8380    0.2548   -3.4170 C   0  0  0  0  0  0  0  0  0  0  0  0
    9.3713   -0.3594   -4.1500 H   0  0  0  0  0  0  0  0  0  0  0  0
    9.3577    1.2127   -3.3340 H   0  0  0  0  0  0  0  0  0  0  0  0
    8.9223   -0.2537   -2.4488 H   0  0  0  0  0  0  0  0  0  0  0  0
   -1.4550   -0.6116   -1.9680 O   0  0  0  0  0  0  0  0  0  0  0  0
   -2.3975   -0.7131   -0.9113 C   0  0  0  0  0  0  0  0  0  0  0  0
   -2.8857   -1.6793   -1.0451 H   0  0  0  0  0  0  0  0  0  0  0  0
   -3.1586    0.0767   -0.9589 H   0  0  0  0  0  0  0  0  0  0  0  0
   -1.9166   -0.6947    0.0749 H   0  0  0  0  0  0  0  0  0  0  0  0
  1  6  2  0  0  0  0
  2  8  1  6  0  0  0
  2  1  1  0  0  0  0
  2  3  1  0  0  0  0
  3  4  2  0  0  0  0
  4  5  1  0  0  0  0
  4  9  1  0  0  0  0
  5 10  1  0  0  0  0
  6 31  1  0  0  0  0
  6  5  1  0  0  0  0
  7  1  1  0  0  0  0
 11  3  1  0  0  0  0
 12 26  1  0  0  0  0
 12 11  1  0  0  0  0
 13 18  2  0  0  0  0
 13 14  1  0  0  0  0
 14 15  2  0  0  0  0
 15 16  1  0  0  0  0
 15 27  1  0  0  0  0
 16 21  1  0  0  0  0
 17 22  1  0  0  0  0
 17 16  2  0  0  0  0
 18 17  1  0  0  0  0
 19 13  1  0  0  0  0
 20 14  1  0  0  0  0
 23 25  1  1  0  0  0
 23 18  1  0  0  0  0
 23 24  1  0  0  0  0
 24  2  1  0  0  0  0
 27 29  1  0  0  0  0
 27 30  1  0  0  0  0
 28 27  1  0  0  0  0
 31 32  1  0  0  0  0
 32 35  1  0  0  0  0
 33 32  1  0  0  0  0
 34 32  1  0  0  0  0
M  RAD  5   5   2  11   2  12   2  25   2  26   2
M  END
