Coordinates from ORCA-job p-CH3O-Ph-N2-X-OTs-B3LYPG-6-31G_dp-scan-d09-49-n400
 OpenBabel08281821253D

 35 36  0  0  1  0  0  0  0  0999 V2000
   -0.0625    0.9594   -2.7167 C   0  0  0  0  0  0  0  0  0  0  0  0
    0.8418    2.1334   -2.9176 C   0  0  1  0  0  0  0  0  0  0  0  0
    0.8442    3.0322   -1.7096 C   0  0  0  0  0  0  0  0  0  0  0  0
    0.3781    2.5946   -0.4169 C   0  0  0  0  0  0  0  0  0  0  0  0
   -0.2715    1.4146   -0.3068 C   0  0  0  0  0  0  0  0  0  0  0  0
   -0.5191    0.6070   -1.4909 C   0  0  0  0  0  0  0  0  0  0  0  0
   -0.2367    0.3520   -3.5953 H   0  0  0  0  0  0  0  0  0  0  0  0
    0.5635    2.7001   -3.8179 H   0  0  0  0  0  0  0  0  0  0  0  0
    0.5503    3.2335    0.4433 H   0  0  0  0  0  0  0  0  0  0  0  0
   -0.6396    1.0494    0.6444 H   0  0  0  0  0  0  0  0  0  0  0  0
    1.3430    4.2368   -1.8386 N   0  0  0  0  0  0  0  0  0  0  0  0
    1.7664    5.2925   -1.9540 N   0  0  0  0  0  0  0  0  0  0  0  0
    4.7445   -0.3062   -4.4718 C   0  0  0  0  0  0  0  0  0  0  0  0
    6.0779   -0.6376   -4.2420 C   0  0  0  0  0  0  0  0  0  0  0  0
    7.0229    0.3635   -3.9765 C   0  0  0  0  0  0  0  0  0  0  0  0
    6.6024    1.6987   -3.9446 C   0  0  0  0  0  0  0  0  0  0  0  0
    5.2655    2.0379   -4.1697 C   0  0  0  0  0  0  0  0  0  0  0  0
    4.3340    1.0230   -4.4249 C   0  0  0  0  0  0  0  0  0  0  0  0
    3.9962   -1.0611   -4.6937 H   0  0  0  0  0  0  0  0  0  0  0  0
    6.3900   -1.6776   -4.2714 H   0  0  0  0  0  0  0  0  0  0  0  0
    7.3242    2.4879   -3.7387 H   0  0  0  0  0  0  0  0  0  0  0  0
    5.5536    3.9200   -3.9641 H   0  0  0  0  0  0  0  0  0  0  0  0
    2.6011    1.4103   -4.7720 S   0  0  2  0  0  0  0  0  0  0  0  0
    2.2406    1.6739   -3.1360 O   0  0  0  0  0  0  0  0  0  0  0  0
    1.9877    0.1229   -5.2293 O   0  0  0  0  0  0  0  0  0  0  0  0
    4.8184    3.3246   -4.1588 O   0  0  0  0  0  0  0  0  0  0  0  0
    8.4775    0.0178   -3.7634 C   0  0  0  0  0  0  0  0  0  0  0  0
    8.5894   -0.9867   -3.3458 H   0  0  0  0  0  0  0  0  0  0  0  0
    9.0296    0.0410   -4.7110 H   0  0  0  0  0  0  0  0  0  0  0  0
    8.9651    0.7247   -3.0850 H   0  0  0  0  0  0  0  0  0  0  0  0
   -1.2688   -0.4964   -1.2151 O   0  0  0  0  0  0  0  0  0  0  0  0
   -1.5506   -1.3843   -2.2878 C   0  0  0  0  0  0  0  0  0  0  0  0
   -2.1236   -2.2071   -1.8577 H   0  0  0  0  0  0  0  0  0  0  0  0
   -0.6285   -1.7713   -2.7373 H   0  0  0  0  0  0  0  0  0  0  0  0
   -2.1465   -0.8918   -3.0671 H   0  0  0  0  0  0  0  0  0  0  0  0
  1  6  1  0  0  0  0
  2  8  1  6  0  0  0
  2  1  1  0  0  0  0
  2  3  1  0  0  0  0
  3  4  2  0  0  0  0
  4  5  1  0  0  0  0
  4  9  1  0  0  0  0
  5 10  1  0  0  0  0
  6 31  1  0  0  0  0
  6  5  2  0  0  0  0
  7  1  1  0  0  0  0
 11  3  1  0  0  0  0
 12 11  1  0  0  0  0
 13 18  2  0  0  0  0
 13 14  1  0  0  0  0
 14 15  2  0  0  0  0
 15 16  1  0  0  0  0
 15 27  1  0  0  0  0
 16 21  1  0  0  0  0
 17 26  1  0  0  0  0
 17 16  2  0  0  0  0
 18 17  1  0  0  0  0
 19 13  1  0  0  0  0
 20 14  1  0  0  0  0
 23 25  1  1  0  0  0
 23 18  1  0  0  0  0
 23 24  1  0  0  0  0
 24  2  1  0  0  0  0
 26 22  1  0  0  0  0
 27 28  1  0  0  0  0
 27 30  1  0  0  0  0
 29 27  1  0  0  0  0
 32 33  1  0  0  0  0
 32 31  1  0  0  0  0
 34 32  1  0  0  0  0
 35 32  1  0  0  0  0
M  RAD  4   1   2  11   2  12   3  25   2
M  END
