Coordinates from ORCA-job p-CH3O-Ph-N2-X-OTs-B3LYPG-6-31G_dp-scan-d09-49-n400
 OpenBabel08281821253D

 35 36  0  0  1  0  0  0  0  0999 V2000
    0.1916    0.5345   -3.0925 C   0  0  0  0  0  0  0  0  0  0  0  0
    1.0842    1.7075   -3.3373 C   0  0  1  0  0  0  0  0  0  0  0  0
    0.9625    2.8336   -2.3168 C   0  0  0  0  0  0  0  0  0  0  0  0
    0.0027    2.7209   -1.2583 C   0  0  0  0  0  0  0  0  0  0  0  0
   -0.7941    1.6236   -1.1513 C   0  0  0  0  0  0  0  0  0  0  0  0
   -0.7044    0.5074   -2.0786 C   0  0  0  0  0  0  0  0  0  0  0  0
    0.3018   -0.3141   -3.7586 H   0  0  0  0  0  0  0  0  0  0  0  0
    0.8201    2.1895   -4.3023 H   0  0  0  0  0  0  0  0  0  0  0  0
   -0.0567    3.5359   -0.5449 H   0  0  0  0  0  0  0  0  0  0  0  0
   -1.5085    1.5782   -0.3369 H   0  0  0  0  0  0  0  0  0  0  0  0
    1.7104    3.8991   -2.3903 N   0  0  0  0  0  0  0  0  0  0  0  0
    2.3600    4.1529   -3.5120 N   0  0  0  0  0  0  0  0  0  0  0  0
    5.3026   -0.4940   -4.6152 C   0  0  0  0  0  0  0  0  0  0  0  0
    6.6447   -0.6391   -4.2733 C   0  0  0  0  0  0  0  0  0  0  0  0
    7.3970    0.4534   -3.8144 C   0  0  0  0  0  0  0  0  0  0  0  0
    6.7702    1.7035   -3.7109 C   0  0  0  0  0  0  0  0  0  0  0  0
    5.4281    1.8708   -4.0486 C   0  0  0  0  0  0  0  0  0  0  0  0
    4.7056    0.7597   -4.4880 C   0  0  0  0  0  0  0  0  0  0  0  0
    4.7111   -1.3292   -4.9768 H   0  0  0  0  0  0  0  0  0  0  0  0
    7.1186   -1.6132   -4.3676 H   0  0  0  0  0  0  0  0  0  0  0  0
    7.3399    2.5602   -3.3611 H   0  0  0  0  0  0  0  0  0  0  0  0
    4.9546    2.8445   -3.9573 H   0  0  0  0  0  0  0  0  0  0  0  0
    2.9905    0.9535   -5.0099 S   0  0  2  0  0  0  0  0  0  0  0  0
    2.4613    1.2899   -3.4012 O   0  0  0  0  0  0  0  0  0  0  0  0
    2.5073   -0.3986   -5.4213 O   0  0  0  0  0  0  0  0  0  0  0  0
    3.5930    4.6465   -3.3260 O   0  0  0  0  0  0  0  0  0  0  0  0
    8.8463    0.2778   -3.4285 C   0  0  0  0  0  0  0  0  0  0  0  0
    9.3833   -0.3353   -4.1595 H   0  0  0  0  0  0  0  0  0  0  0  0
    9.3591    1.2397   -3.3487 H   0  0  0  0  0  0  0  0  0  0  0  0
    8.9349   -0.2262   -2.4581 H   0  0  0  0  0  0  0  0  0  0  0  0
   -1.4876   -0.6029   -1.9503 O   0  0  0  0  0  0  0  0  0  0  0  0
   -2.4264   -0.6882   -0.8881 C   0  0  0  0  0  0  0  0  0  0  0  0
   -2.9136   -1.6571   -1.0045 H   0  0  0  0  0  0  0  0  0  0  0  0
   -3.1886    0.0997   -0.9466 H   0  0  0  0  0  0  0  0  0  0  0  0
   -1.9411   -0.6528    0.0955 H   0  0  0  0  0  0  0  0  0  0  0  0
  1  6  2  0  0  0  0
  2  8  1  6  0  0  0
  2  1  1  0  0  0  0
  2  3  1  0  0  0  0
  3  4  2  0  0  0  0
  4  5  1  0  0  0  0
  4  9  1  0  0  0  0
  5 10  1  0  0  0  0
  6 31  1  0  0  0  0
  6  5  1  0  0  0  0
  7  1  1  0  0  0  0
 11  3  1  0  0  0  0
 12 26  1  0  0  0  0
 12 11  1  0  0  0  0
 13 18  2  0  0  0  0
 13 14  1  0  0  0  0
 14 15  2  0  0  0  0
 15 16  1  0  0  0  0
 15 27  1  0  0  0  0
 16 21  1  0  0  0  0
 17 22  1  0  0  0  0
 17 16  2  0  0  0  0
 18 17  1  0  0  0  0
 19 13  1  0  0  0  0
 20 14  1  0  0  0  0
 23 25  1  1  0  0  0
 23 18  1  0  0  0  0
 23 24  1  0  0  0  0
 24  2  1  0  0  0  0
 27 29  1  0  0  0  0
 27 30  1  0  0  0  0
 28 27  1  0  0  0  0
 31 32  1  0  0  0  0
 32 35  1  0  0  0  0
 33 32  1  0  0  0  0
 34 32  1  0  0  0  0
M  RAD  5   5   2  11   2  12   2  25   2  26   2
M  END
