Coordinates from ORCA-job p-CH3O-Ph-N2-X-OTs-B3LYPG-6-31G_dp-scan-d09-49-n400
 OpenBabel08281821253D

 35 36  0  0  1  0  0  0  0  0999 V2000
    0.0847    0.5018   -3.1926 C   0  0  0  0  0  0  0  0  0  0  0  0
    0.9805    1.6408   -3.5615 C   0  0  1  0  0  0  0  0  0  0  0  0
    0.9162    2.8148   -2.5801 C   0  0  0  0  0  0  0  0  0  0  0  0
    0.1804    2.6968   -1.3480 C   0  0  0  0  0  0  0  0  0  0  0  0
   -0.5569    1.5865   -1.1011 C   0  0  0  0  0  0  0  0  0  0  0  0
   -0.6239    0.4730   -2.0432 C   0  0  0  0  0  0  0  0  0  0  0  0
    0.0706   -0.3445   -3.8704 H   0  0  0  0  0  0  0  0  0  0  0  0
    0.7012    2.0417   -4.5514 H   0  0  0  0  0  0  0  0  0  0  0  0
    0.2305    3.5160   -0.6392 H   0  0  0  0  0  0  0  0  0  0  0  0
   -1.1046    1.5242   -0.1680 H   0  0  0  0  0  0  0  0  0  0  0  0
    1.5584    3.8947   -2.8625 N   0  0  0  0  0  0  0  0  0  0  0  0
    2.0716    4.5043   -3.8111 N   0  0  0  0  0  0  0  0  0  0  0  0
    5.3409   -0.3189   -4.9127 C   0  0  0  0  0  0  0  0  0  0  0  0
    6.6442   -0.5330   -4.4667 C   0  0  0  0  0  0  0  0  0  0  0  0
    7.2960    0.4105   -3.6602 C   0  0  0  0  0  0  0  0  0  0  0  0
    6.6097    1.5844   -3.3105 C   0  0  0  0  0  0  0  0  0  0  0  0
    5.3066    1.8190   -3.7423 C   0  0  0  0  0  0  0  0  0  0  0  0
    4.6848    0.8512   -4.5372 C   0  0  0  0  0  0  0  0  0  0  0  0
    4.8266   -1.0402   -5.5402 H   0  0  0  0  0  0  0  0  0  0  0  0
    7.1647   -1.4436   -4.7524 H   0  0  0  0  0  0  0  0  0  0  0  0
    7.1056    2.3283   -2.6917 H   0  0  0  0  0  0  0  0  0  0  0  0
    4.7768    2.7291   -3.4669 H   0  0  0  0  0  0  0  0  0  0  0  0
    3.0325    1.1527   -5.1916 S   0  0  2  0  0  0  0  0  0  0  0  0
    2.3459    1.1813   -3.6029 O   0  0  0  0  0  0  0  0  0  0  0  0
    2.6085   -0.0949   -5.8926 O   0  0  0  0  0  0  0  0  0  0  0  0
    3.6215    4.5556   -3.7610 O   0  0  0  0  0  0  0  0  0  0  0  0
    8.6996    0.1640   -3.1606 C   0  0  0  0  0  0  0  0  0  0  0  0
    9.2296   -0.5546   -3.7922 H   0  0  0  0  0  0  0  0  0  0  0  0
    9.2823    1.0897   -3.1327 H   0  0  0  0  0  0  0  0  0  0  0  0
    8.6877   -0.2419   -2.1412 H   0  0  0  0  0  0  0  0  0  0  0  0
   -1.3793   -0.6347   -1.7876 O   0  0  0  0  0  0  0  0  0  0  0  0
   -2.2120   -0.6773   -0.6373 C   0  0  0  0  0  0  0  0  0  0  0  0
   -2.7402   -1.6300   -0.6934 H   0  0  0  0  0  0  0  0  0  0  0  0
   -2.9485    0.1364   -0.6309 H   0  0  0  0  0  0  0  0  0  0  0  0
   -1.6319   -0.6515    0.2936 H   0  0  0  0  0  0  0  0  0  0  0  0
  1  6  2  0  0  0  0
  2  8  1  6  0  0  0
  2  1  1  0  0  0  0
  2  3  1  0  0  0  0
  3  4  2  0  0  0  0
  4  5  1  0  0  0  0
  4  9  1  0  0  0  0
  5 10  1  0  0  0  0
  6 31  1  0  0  0  0
  6  5  1  0  0  0  0
  7  1  1  0  0  0  0
 11  3  1  0  0  0  0
 12 26  1  0  0  0  0
 12 11  1  0  0  0  0
 13 18  2  0  0  0  0
 13 14  1  0  0  0  0
 14 15  2  0  0  0  0
 15 16  1  0  0  0  0
 15 27  1  0  0  0  0
 16 21  1  0  0  0  0
 17 22  1  0  0  0  0
 17 16  2  0  0  0  0
 18 17  1  0  0  0  0
 19 13  1  0  0  0  0
 20 14  1  0  0  0  0
 23 25  1  6  0  0  0
 23 18  1  0  0  0  0
 23 24  1  0  0  0  0
 24  2  1  0  0  0  0
 27 29  1  0  0  0  0
 27 30  1  0  0  0  0
 28 27  1  0  0  0  0
 31 32  1  0  0  0  0
 32 34  1  0  0  0  0
 32 35  1  0  0  0  0
 33 32  1  0  0  0  0
M  RAD  5   5   2  11   2  12   2  25   2  26   2
M  END
