Coordinates from ORCA-job p-CH3O-Ph-N2-X-OTs-B3LYPG-6-31G_dp-scan-d09-49-n400
 OpenBabel08281821253D

 35 36  0  0  1  0  0  0  0  0999 V2000
   -0.0022    0.9715   -2.7264 C   0  0  0  0  0  0  0  0  0  0  0  0
    0.8074    2.2157   -2.9100 C   0  0  1  0  0  0  0  0  0  0  0  0
    0.7392    3.0914   -1.6875 C   0  0  0  0  0  0  0  0  0  0  0  0
    0.3412    2.5857   -0.3960 C   0  0  0  0  0  0  0  0  0  0  0  0
   -0.2010    1.3513   -0.3029 C   0  0  0  0  0  0  0  0  0  0  0  0
   -0.4078    0.5557   -1.5026 C   0  0  0  0  0  0  0  0  0  0  0  0
   -0.1397    0.3734   -3.6176 H   0  0  0  0  0  0  0  0  0  0  0  0
    0.4824    2.7737   -3.7997 H   0  0  0  0  0  0  0  0  0  0  0  0
    0.4733    3.2184    0.4757 H   0  0  0  0  0  0  0  0  0  0  0  0
   -0.5157    0.9335    0.6460 H   0  0  0  0  0  0  0  0  0  0  0  0
    1.0869    4.3494   -1.8017 N   0  0  0  0  0  0  0  0  0  0  0  0
    1.3722    5.4526   -1.8965 N   0  0  0  0  0  0  0  0  0  0  0  0
    4.6184   -0.2164   -4.3727 C   0  0  0  0  0  0  0  0  0  0  0  0
    5.9222   -0.6392   -4.1284 C   0  0  0  0  0  0  0  0  0  0  0  0
    6.9492    0.2977   -3.9432 C   0  0  0  0  0  0  0  0  0  0  0  0
    6.6394    1.6610   -4.0077 C   0  0  0  0  0  0  0  0  0  0  0  0
    5.3314    2.0926   -4.2477 C   0  0  0  0  0  0  0  0  0  0  0  0
    4.3168    1.1425   -4.4203 C   0  0  0  0  0  0  0  0  0  0  0  0
    3.8098   -0.9219   -4.5393 H   0  0  0  0  0  0  0  0  0  0  0  0
    6.1480   -1.7010   -4.0830 H   0  0  0  0  0  0  0  0  0  0  0  0
    7.4260    2.4012   -3.8674 H   0  0  0  0  0  0  0  0  0  0  0  0
    5.7822    3.9526   -4.1912 H   0  0  0  0  0  0  0  0  0  0  0  0
    2.6117    1.6356   -4.7776 S   0  0  2  0  0  0  0  0  0  0  0  0
    2.2378    1.8634   -3.1364 O   0  0  0  0  0  0  0  0  0  0  0  0
    1.9355    0.3946   -5.2755 O   0  0  0  0  0  0  0  0  0  0  0  0
    4.9956    3.4100   -4.3316 O   0  0  0  0  0  0  0  0  0  0  0  0
    8.3731   -0.1507   -3.7154 C   0  0  0  0  0  0  0  0  0  0  0  0
    8.4077   -1.1117   -3.1944 H   0  0  0  0  0  0  0  0  0  0  0  0
    8.9017   -0.2768   -4.6683 H   0  0  0  0  0  0  0  0  0  0  0  0
    8.9362    0.5780   -3.1243 H   0  0  0  0  0  0  0  0  0  0  0  0
   -1.0654   -0.6088   -1.2423 O   0  0  0  0  0  0  0  0  0  0  0  0
   -1.3096   -1.4834   -2.3347 C   0  0  0  0  0  0  0  0  0  0  0  0
   -1.8150   -2.3557   -1.9179 H   0  0  0  0  0  0  0  0  0  0  0  0
   -0.3737   -1.7931   -2.8148 H   0  0  0  0  0  0  0  0  0  0  0  0
   -1.9549   -1.0110   -3.0868 H   0  0  0  0  0  0  0  0  0  0  0  0
  1  6  1  0  0  0  0
  2  8  1  6  0  0  0
  2  1  1  0  0  0  0
  2  3  1  0  0  0  0
  3  4  2  0  0  0  0
  4  5  1  0  0  0  0
  4  9  1  0  0  0  0
  5 10  1  0  0  0  0
  6 31  1  0  0  0  0
  6  5  2  0  0  0  0
  7  1  1  0  0  0  0
 11  3  1  0  0  0  0
 12 11  1  0  0  0  0
 13 14  1  0  0  0  0
 14 20  1  0  0  0  0
 14 15  2  0  0  0  0
 15 27  1  0  0  0  0
 16 15  1  0  0  0  0
 16 21  1  0  0  0  0
 17 16  2  0  0  0  0
 18 13  2  0  0  0  0
 18 17  1  0  0  0  0
 19 13  1  0  0  0  0
 23 25  1  1  0  0  0
 23 18  1  0  0  0  0
 23 24  1  0  0  0  0
 24  2  1  0  0  0  0
 26 17  1  0  0  0  0
 26 22  1  0  0  0  0
 27 28  1  0  0  0  0
 27 30  1  0  0  0  0
 29 27  1  0  0  0  0
 32 33  1  0  0  0  0
 32 31  1  0  0  0  0
 34 32  1  0  0  0  0
 35 32  1  0  0  0  0
M  RAD  4   1   2  11   2  12   3  25   2
M  END
