Coordinates from ORCA-job p-CH3O-Ph-N2-X-OTs-B3LYPG-6-31G_dp-scan-d09-49-n400
 OpenBabel08281821253D

 35 36  0  0  1  0  0  0  0  0999 V2000
   -0.1542    0.9173   -2.7050 C   0  0  0  0  0  0  0  0  0  0  0  0
    0.9154    1.9345   -2.9409 C   0  0  1  0  0  0  0  0  0  0  0  0
    1.0757    2.8489   -1.7529 C   0  0  0  0  0  0  0  0  0  0  0  0
    0.5323    2.5392   -0.4545 C   0  0  0  0  0  0  0  0  0  0  0  0
   -0.3045    1.4870   -0.3148 C   0  0  0  0  0  0  0  0  0  0  0  0
   -0.6684    0.6856   -1.4730 C   0  0  0  0  0  0  0  0  0  0  0  0
   -0.4260    0.3176   -3.5642 H   0  0  0  0  0  0  0  0  0  0  0  0
    0.7155    2.5164   -3.8517 H   0  0  0  0  0  0  0  0  0  0  0  0
    0.8041    3.1670    0.3879 H   0  0  0  0  0  0  0  0  0  0  0  0
   -0.7352    1.2202    0.6428 H   0  0  0  0  0  0  0  0  0  0  0  0
    1.8186    3.9165   -1.9060 N   0  0  0  0  0  0  0  0  0  0  0  0
    2.4668    4.8463   -2.0556 N   0  0  0  0  0  0  0  0  0  0  0  0
    4.9520   -0.4095   -4.6122 C   0  0  0  0  0  0  0  0  0  0  0  0
    6.3163   -0.5760   -4.3805 C   0  0  0  0  0  0  0  0  0  0  0  0
    7.1107    0.5145   -4.0008 C   0  0  0  0  0  0  0  0  0  0  0  0
    6.5107    1.7723   -3.8563 C   0  0  0  0  0  0  0  0  0  0  0  0
    5.1440    1.9452   -4.0834 C   0  0  0  0  0  0  0  0  0  0  0  0
    4.3642    0.8411   -4.4546 C   0  0  0  0  0  0  0  0  0  0  0  0
    4.3160   -1.2369   -4.9126 H   0  0  0  0  0  0  0  0  0  0  0  0
    6.7689   -1.5565   -4.4961 H   0  0  0  0  0  0  0  0  0  0  0  0
    7.1145    2.6288   -3.5605 H   0  0  0  0  0  0  0  0  0  0  0  0
    5.1452    3.8180   -3.6609 H   0  0  0  0  0  0  0  0  0  0  0  0
    2.6007    1.0390   -4.7965 S   0  0  2  0  0  0  0  0  0  0  0  0
    2.2247    1.2711   -3.1612 O   0  0  0  0  0  0  0  0  0  0  0  0
    2.1235   -0.3020   -5.2557 O   0  0  0  0  0  0  0  0  0  0  0  0
    4.5177    3.1502   -3.9658 O   0  0  0  0  0  0  0  0  0  0  0  0
    8.5962    0.3524   -3.7827 C   0  0  0  0  0  0  0  0  0  0  0  0
    8.8473   -0.6741   -3.5022 H   0  0  0  0  0  0  0  0  0  0  0  0
    9.1559    0.5871   -4.6969 H   0  0  0  0  0  0  0  0  0  0  0  0
    8.9635    1.0198   -2.9971 H   0  0  0  0  0  0  0  0  0  0  0  0
   -1.5841   -0.2748   -1.1664 O   0  0  0  0  0  0  0  0  0  0  0  0
   -2.0025   -1.1441   -2.2090 C   0  0  0  0  0  0  0  0  0  0  0  0
   -2.7005   -1.8490   -1.7543 H   0  0  0  0  0  0  0  0  0  0  0  0
   -1.1536   -1.6904   -2.6376 H   0  0  0  0  0  0  0  0  0  0  0  0
   -2.5113   -0.5912   -3.0089 H   0  0  0  0  0  0  0  0  0  0  0  0
  1  6  1  0  0  0  0
  2  8  1  6  0  0  0
  2  1  1  0  0  0  0
  2  3  1  0  0  0  0
  3  4  2  0  0  0  0
  4  5  1  0  0  0  0
  4  9  1  0  0  0  0
  5 10  1  0  0  0  0
  6 31  1  0  0  0  0
  6  5  2  0  0  0  0
  7  1  1  0  0  0  0
 11  3  1  0  0  0  0
 12 11  1  0  0  0  0
 13 18  2  0  0  0  0
 13 14  1  0  0  0  0
 14 15  2  0  0  0  0
 15 16  1  0  0  0  0
 15 27  1  0  0  0  0
 16 21  1  0  0  0  0
 17 26  1  0  0  0  0
 17 16  2  0  0  0  0
 18 17  1  0  0  0  0
 19 13  1  0  0  0  0
 20 14  1  0  0  0  0
 23 25  1  1  0  0  0
 23 18  1  0  0  0  0
 23 24  1  0  0  0  0
 24  2  1  0  0  0  0
 26 22  1  0  0  0  0
 27 28  1  0  0  0  0
 27 30  1  0  0  0  0
 29 27  1  0  0  0  0
 32 33  1  0  0  0  0
 32 31  1  0  0  0  0
 34 32  1  0  0  0  0
 35 32  1  0  0  0  0
M  RAD  4   1   2  11   2  12   3  25   2
M  END
