Coordinates from ORCA-job p-CH3O-Ph-N2-X-OTs-B3LYPG-6-31G_dp-scan-d09-49-n400
 OpenBabel08281821253D

 35 36  0  0  1  0  0  0  0  0999 V2000
   -0.0347    0.9651   -2.7205 C   0  0  0  0  0  0  0  0  0  0  0  0
    0.8250    2.1733   -2.9150 C   0  0  1  0  0  0  0  0  0  0  0  0
    0.7926    3.0641   -1.7018 C   0  0  0  0  0  0  0  0  0  0  0  0
    0.3573    2.5955   -0.4089 C   0  0  0  0  0  0  0  0  0  0  0  0
   -0.2417    1.3885   -0.3048 C   0  0  0  0  0  0  0  0  0  0  0  0
   -0.4686    0.5840   -1.4950 C   0  0  0  0  0  0  0  0  0  0  0  0
   -0.1904    0.3598   -3.6040 H   0  0  0  0  0  0  0  0  0  0  0  0
    0.5247    2.7346   -3.8115 H   0  0  0  0  0  0  0  0  0  0  0  0
    0.5094    3.2336    0.4557 H   0  0  0  0  0  0  0  0  0  0  0  0
   -0.5857    0.9993    0.6461 H   0  0  0  0  0  0  0  0  0  0  0  0
    1.2195    4.2965   -1.8262 N   0  0  0  0  0  0  0  0  0  0  0  0
    1.5772    5.3771   -1.9337 N   0  0  0  0  0  0  0  0  0  0  0  0
    4.6882   -0.2683   -4.4327 C   0  0  0  0  0  0  0  0  0  0  0  0
    6.0089   -0.6422   -4.1974 C   0  0  0  0  0  0  0  0  0  0  0  0
    6.9914    0.3305   -3.9632 C   0  0  0  0  0  0  0  0  0  0  0  0
    6.6205    1.6804   -3.9687 C   0  0  0  0  0  0  0  0  0  0  0  0
    5.2960    2.0625   -4.1994 C   0  0  0  0  0  0  0  0  0  0  0  0
    4.3265    1.0762   -4.4224 C   0  0  0  0  0  0  0  0  0  0  0  0
    3.9123   -1.0011   -4.6333 H   0  0  0  0  0  0  0  0  0  0  0  0
    6.2823   -1.6936   -4.1978 H   0  0  0  0  0  0  0  0  0  0  0  0
    7.3717    2.4482   -3.7884 H   0  0  0  0  0  0  0  0  0  0  0  0
    5.6573    3.9373   -4.0528 H   0  0  0  0  0  0  0  0  0  0  0  0
    2.6057    1.5131   -4.7744 S   0  0  2  0  0  0  0  0  0  0  0  0
    2.2401    1.7644   -3.1363 O   0  0  0  0  0  0  0  0  0  0  0  0
    1.9620    0.2460   -5.2475 O   0  0  0  0  0  0  0  0  0  0  0  0
    4.8985    3.3651   -4.2254 O   0  0  0  0  0  0  0  0  0  0  0  0
    8.4330   -0.0628   -3.7448 C   0  0  0  0  0  0  0  0  0  0  0  0
    8.5088   -1.0539   -3.2887 H   0  0  0  0  0  0  0  0  0  0  0  0
    8.9785   -0.0980   -4.6959 H   0  0  0  0  0  0  0  0  0  0  0  0
    8.9524    0.6506   -3.0976 H   0  0  0  0  0  0  0  0  0  0  0  0
   -1.1752   -0.5490   -1.2249 O   0  0  0  0  0  0  0  0  0  0  0  0
   -1.4380   -1.4325   -2.3058 C   0  0  0  0  0  0  0  0  0  0  0  0
   -1.9804   -2.2785   -1.8810 H   0  0  0  0  0  0  0  0  0  0  0  0
   -0.5082   -1.7843   -2.7683 H   0  0  0  0  0  0  0  0  0  0  0  0
   -2.0563   -0.9499   -3.0739 H   0  0  0  0  0  0  0  0  0  0  0  0
  1  6  1  0  0  0  0
  2  8  1  6  0  0  0
  2  1  1  0  0  0  0
  2  3  1  0  0  0  0
  3  4  2  0  0  0  0
  4  5  1  0  0  0  0
  4  9  1  0  0  0  0
  5 10  1  0  0  0  0
  6 31  1  0  0  0  0
  6  5  2  0  0  0  0
  7  1  1  0  0  0  0
 11  3  1  0  0  0  0
 12 11  1  0  0  0  0
 13 18  2  0  0  0  0
 13 14  1  0  0  0  0
 14 15  2  0  0  0  0
 15 27  1  0  0  0  0
 16 15  1  0  0  0  0
 16 21  1  0  0  0  0
 17 16  2  0  0  0  0
 18 17  1  0  0  0  0
 19 13  1  0  0  0  0
 20 14  1  0  0  0  0
 23 25  1  1  0  0  0
 23 18  1  0  0  0  0
 23 24  1  0  0  0  0
 24  2  1  0  0  0  0
 26 17  1  0  0  0  0
 26 22  1  0  0  0  0
 27 28  1  0  0  0  0
 27 30  1  0  0  0  0
 29 27  1  0  0  0  0
 32 33  1  0  0  0  0
 32 31  1  0  0  0  0
 34 32  1  0  0  0  0
 35 32  1  0  0  0  0
M  RAD  4   1   2  11   2  12   3  25   2
M  END
