Coordinates from ORCA-job p-CH3O-Ph-N2-X-OTs-B3LYPG-6-31G_dp-scan-d09-49-n400
 OpenBabel08281821253D

 35 36  0  0  1  0  0  0  0  0999 V2000
   -0.1495    0.9190   -2.7053 C   0  0  0  0  0  0  0  0  0  0  0  0
    0.9100    1.9469   -2.9408 C   0  0  1  0  0  0  0  0  0  0  0  0
    1.0600    2.8631   -1.7530 C   0  0  0  0  0  0  0  0  0  0  0  0
    0.5199    2.5474   -0.4546 C   0  0  0  0  0  0  0  0  0  0  0  0
   -0.3058    1.4865   -0.3150 C   0  0  0  0  0  0  0  0  0  0  0  0
   -0.6613    0.6816   -1.4734 C   0  0  0  0  0  0  0  0  0  0  0  0
   -0.4147    0.3165   -3.5646 H   0  0  0  0  0  0  0  0  0  0  0  0
    0.7049    2.5266   -3.8519 H   0  0  0  0  0  0  0  0  0  0  0  0
    0.7850    3.1781    0.3878 H   0  0  0  0  0  0  0  0  0  0  0  0
   -0.7337    1.2151    0.6426 H   0  0  0  0  0  0  0  0  0  0  0  0
    1.7896    3.9399   -1.9058 N   0  0  0  0  0  0  0  0  0  0  0  0
    2.4253    4.8785   -2.0541 N   0  0  0  0  0  0  0  0  0  0  0  0
    4.9411   -0.4035   -4.6097 C   0  0  0  0  0  0  0  0  0  0  0  0
    6.3041   -0.5805   -4.3786 C   0  0  0  0  0  0  0  0  0  0  0  0
    7.1073    0.5041   -4.0006 C   0  0  0  0  0  0  0  0  0  0  0  0
    6.5172    1.7667   -3.8571 C   0  0  0  0  0  0  0  0  0  0  0  0
    5.1517    1.9501   -4.0836 C   0  0  0  0  0  0  0  0  0  0  0  0
    4.3631    0.8518   -4.4531 C   0  0  0  0  0  0  0  0  0  0  0  0
    4.2985   -1.2261   -4.9092 H   0  0  0  0  0  0  0  0  0  0  0  0
    6.7489   -1.5646   -4.4935 H   0  0  0  0  0  0  0  0  0  0  0  0
    7.1279    2.6187   -3.5625 H   0  0  0  0  0  0  0  0  0  0  0  0
    5.1697    3.8236   -3.6662 H   0  0  0  0  0  0  0  0  0  0  0  0
    2.6009    1.0617   -4.7953 S   0  0  2  0  0  0  0  0  0  0  0  0
    2.2260    1.2961   -3.1601 O   0  0  0  0  0  0  0  0  0  0  0  0
    2.1150   -0.2762   -5.2545 O   0  0  0  0  0  0  0  0  0  0  0  0
    4.5353    3.1602   -3.9666 O   0  0  0  0  0  0  0  0  0  0  0  0
    8.5916    0.3306   -3.7831 C   0  0  0  0  0  0  0  0  0  0  0  0
    8.8348   -0.6976   -3.5018 H   0  0  0  0  0  0  0  0  0  0  0  0
    9.1528    0.5601   -4.6977 H   0  0  0  0  0  0  0  0  0  0  0  0
    8.9646    0.9957   -2.9981 H   0  0  0  0  0  0  0  0  0  0  0  0
   -1.5669   -0.2884   -1.1671 O   0  0  0  0  0  0  0  0  0  0  0  0
   -1.9757   -1.1621   -2.2099 C   0  0  0  0  0  0  0  0  0  0  0  0
   -2.6659   -1.8747   -1.7553 H   0  0  0  0  0  0  0  0  0  0  0  0
   -1.1208   -1.6989   -2.6385 H   0  0  0  0  0  0  0  0  0  0  0  0
   -2.4905   -0.6147   -3.0098 H   0  0  0  0  0  0  0  0  0  0  0  0
  1  6  1  0  0  0  0
  2  8  1  6  0  0  0
  2  1  1  0  0  0  0
  2  3  1  0  0  0  0
  3  4  2  0  0  0  0
  4  5  1  0  0  0  0
  4  9  1  0  0  0  0
  5 10  1  0  0  0  0
  6 31  1  0  0  0  0
  6  5  2  0  0  0  0
  7  1  1  0  0  0  0
 11  3  1  0  0  0  0
 12 11  1  0  0  0  0
 13 18  2  0  0  0  0
 13 14  1  0  0  0  0
 14 15  2  0  0  0  0
 15 16  1  0  0  0  0
 15 27  1  0  0  0  0
 16 21  1  0  0  0  0
 17 26  1  0  0  0  0
 17 16  2  0  0  0  0
 18 17  1  0  0  0  0
 19 13  1  0  0  0  0
 20 14  1  0  0  0  0
 23 25  1  1  0  0  0
 23 18  1  0  0  0  0
 23 24  1  0  0  0  0
 24  2  1  0  0  0  0
 26 22  1  0  0  0  0
 27 28  1  0  0  0  0
 27 30  1  0  0  0  0
 29 27  1  0  0  0  0
 32 33  1  0  0  0  0
 32 31  1  0  0  0  0
 34 32  1  0  0  0  0
 35 32  1  0  0  0  0
M  RAD  4   1   2  11   2  12   3  25   2
M  END
