Coordinates from ORCA-job p-CH3O-Ph-N2-X-OTs-B3LYPG-6-31G_dp-scan-d09-49-n400
 OpenBabel08281821253D

 35 36  0  0  1  0  0  0  0  0999 V2000
   -0.1032    0.9444   -2.7115 C   0  0  0  0  0  0  0  0  0  0  0  0
    0.8696    2.0590   -2.9278 C   0  0  1  0  0  0  0  0  0  0  0  0
    0.9336    2.9698   -1.7298 C   0  0  0  0  0  0  0  0  0  0  0  0
    0.4285    2.5864   -0.4350 C   0  0  0  0  0  0  0  0  0  0  0  0
   -0.2995    1.4545   -0.3114 C   0  0  0  0  0  0  0  0  0  0  0  0
   -0.5884    0.6424   -1.4831 C   0  0  0  0  0  0  0  0  0  0  0  0
   -0.3134    0.3348   -3.5808 H   0  0  0  0  0  0  0  0  0  0  0  0
    0.6236    2.6310   -3.8341 H   0  0  0  0  0  0  0  0  0  0  0  0
    0.6379    3.2257    0.4166 H   0  0  0  0  0  0  0  0  0  0  0  0
   -0.6986    1.1309    0.6424 H   0  0  0  0  0  0  0  0  0  0  0  0
    1.5405    4.1222   -1.8699 N   0  0  0  0  0  0  0  0  0  0  0  0
    2.0631    5.1307   -2.0008 N   0  0  0  0  0  0  0  0  0  0  0  0
    4.8315   -0.3538   -4.5414 C   0  0  0  0  0  0  0  0  0  0  0  0
    6.1803   -0.6190   -4.3136 C   0  0  0  0  0  0  0  0  0  0  0  0
    7.0639    0.4204   -3.9913 C   0  0  0  0  0  0  0  0  0  0  0  0
    6.5673    1.7268   -3.9004 C   0  0  0  0  0  0  0  0  0  0  0  0
    5.2154    1.9993   -4.1234 C   0  0  0  0  0  0  0  0  0  0  0  0
    4.3458    0.9458   -4.4365 C   0  0  0  0  0  0  0  0  0  0  0  0
    4.1287   -1.1394   -4.8025 H   0  0  0  0  0  0  0  0  0  0  0  0
    6.5519   -1.6368   -4.3885 H   0  0  0  0  0  0  0  0  0  0  0  0
    7.2411    2.5446   -3.6488 H   0  0  0  0  0  0  0  0  0  0  0  0
    5.3865    3.8827   -3.8150 H   0  0  0  0  0  0  0  0  0  0  0  0
    2.5979    1.2564   -4.7795 S   0  0  2  0  0  0  0  0  0  0  0  0
    2.2368    1.5173   -3.1446 O   0  0  0  0  0  0  0  0  0  0  0  0
    2.0366   -0.0561   -5.2297 O   0  0  0  0  0  0  0  0  0  0  0  0
    4.6923    3.2555   -4.0548 O   0  0  0  0  0  0  0  0  0  0  0  0
    8.5342    0.1490   -3.7782 C   0  0  0  0  0  0  0  0  0  0  0  0
    8.7029   -0.8742   -3.4313 H   0  0  0  0  0  0  0  0  0  0  0  0
    9.0967    0.2735   -4.7119 H   0  0  0  0  0  0  0  0  0  0  0  0
    8.9684    0.8337   -3.0430 H   0  0  0  0  0  0  0  0  0  0  0  0
   -1.4056   -0.4081   -1.1933 O   0  0  0  0  0  0  0  0  0  0  0  0
   -1.7309   -1.2998   -2.2504 C   0  0  0  0  0  0  0  0  0  0  0  0
   -2.3520   -2.0803   -1.8082 H   0  0  0  0  0  0  0  0  0  0  0  0
   -0.8294   -1.7473   -2.6856 H   0  0  0  0  0  0  0  0  0  0  0  0
   -2.2937   -0.7905   -3.0432 H   0  0  0  0  0  0  0  0  0  0  0  0
  1  6  1  0  0  0  0
  2  8  1  6  0  0  0
  2  1  1  0  0  0  0
  2  3  1  0  0  0  0
  3  4  2  0  0  0  0
  4  5  1  0  0  0  0
  4  9  1  0  0  0  0
  5 10  1  0  0  0  0
  6 31  1  0  0  0  0
  6  5  2  0  0  0  0
  7  1  1  0  0  0  0
 11  3  1  0  0  0  0
 12 11  1  0  0  0  0
 13 18  2  0  0  0  0
 13 14  1  0  0  0  0
 14 15  2  0  0  0  0
 15 16  1  0  0  0  0
 15 27  1  0  0  0  0
 16 21  1  0  0  0  0
 17 26  1  0  0  0  0
 17 16  2  0  0  0  0
 18 17  1  0  0  0  0
 19 13  1  0  0  0  0
 20 14  1  0  0  0  0
 23 25  1  1  0  0  0
 23 18  1  0  0  0  0
 23 24  1  0  0  0  0
 24  2  1  0  0  0  0
 26 22  1  0  0  0  0
 27 28  1  0  0  0  0
 27 30  1  0  0  0  0
 29 27  1  0  0  0  0
 32 33  1  0  0  0  0
 32 31  1  0  0  0  0
 34 32  1  0  0  0  0
 35 32  1  0  0  0  0
M  RAD  4   1   2  11   2  12   3  25   2
M  END
