Coordinates from ORCA-job p-CH3O-Ph-N2-X-OTs-B3LYPG-6-31G_dp-scan-d09-49-n400
 OpenBabel08281821253D

 35 36  0  0  1  0  0  0  0  0999 V2000
   -0.2007    0.8255   -2.6520 C   0  0  0  0  0  0  0  0  0  0  0  0
    1.0112    1.6696   -2.8840 C   0  0  1  0  0  0  0  0  0  0  0  0
    1.3356    2.5207   -1.6763 C   0  0  0  0  0  0  0  0  0  0  0  0
    0.6033    2.4484   -0.4405 C   0  0  0  0  0  0  0  0  0  0  0  0
   -0.4575    1.6172   -0.3325 C   0  0  0  0  0  0  0  0  0  0  0  0
   -0.8538    0.7937   -1.4652 C   0  0  0  0  0  0  0  0  0  0  0  0
   -0.5083    0.2165   -3.4928 H   0  0  0  0  0  0  0  0  0  0  0  0
    0.8856    2.2979   -3.7788 H   0  0  0  0  0  0  0  0  0  0  0  0
    0.9346    3.0576    0.3943 H   0  0  0  0  0  0  0  0  0  0  0  0
   -1.0273    1.5273    0.5845 H   0  0  0  0  0  0  0  0  0  0  0  0
    2.4112    3.2621   -1.7675 N   0  0  0  0  0  0  0  0  0  0  0  0
    3.3812    3.8355   -1.9694 N   0  0  0  0  0  0  0  0  0  0  0  0
    5.1197   -0.4504   -4.6303 C   0  0  0  0  0  0  0  0  0  0  0  0
    6.4959   -0.4616   -4.4108 C   0  0  0  0  0  0  0  0  0  0  0  0
    7.1663    0.7117   -4.0378 C   0  0  0  0  0  0  0  0  0  0  0  0
    6.4289    1.8931   -3.8849 C   0  0  0  0  0  0  0  0  0  0  0  0
    5.0494    1.9097   -4.0996 C   0  0  0  0  0  0  0  0  0  0  0  0
    4.3944    0.7252   -4.4644 C   0  0  0  0  0  0  0  0  0  0  0  0
    4.5800   -1.3437   -4.9309 H   0  0  0  0  0  0  0  0  0  0  0  0
    7.0556   -1.3846   -4.5324 H   0  0  0  0  0  0  0  0  0  0  0  0
    6.9334    2.8124   -3.5924 H   0  0  0  0  0  0  0  0  0  0  0  0
    4.8621    3.7860   -3.7224 H   0  0  0  0  0  0  0  0  0  0  0  0
    2.6163    0.7297   -4.7952 S   0  0  2  0  0  0  0  0  0  0  0  0
    2.2038    0.8353   -3.1542 O   0  0  0  0  0  0  0  0  0  0  0  0
    2.2962   -0.6363   -5.3075 O   0  0  0  0  0  0  0  0  0  0  0  0
    4.2948    3.0429   -3.9651 O   0  0  0  0  0  0  0  0  0  0  0  0
    8.6627    0.7176   -3.8360 C   0  0  0  0  0  0  0  0  0  0  0  0
    9.0239   -0.2625   -3.5127 H   0  0  0  0  0  0  0  0  0  0  0  0
    9.1838    0.9650   -4.7694 H   0  0  0  0  0  0  0  0  0  0  0  0
    8.9655    1.4568   -3.0883 H   0  0  0  0  0  0  0  0  0  0  0  0
   -1.9442    0.0267   -1.1853 O   0  0  0  0  0  0  0  0  0  0  0  0
   -2.4105   -0.8537   -2.1972 C   0  0  0  0  0  0  0  0  0  0  0  0
   -3.2613   -1.3852   -1.7685 H   0  0  0  0  0  0  0  0  0  0  0  0
   -1.6348   -1.5731   -2.4873 H   0  0  0  0  0  0  0  0  0  0  0  0
   -2.7371   -0.3015   -3.0875 H   0  0  0  0  0  0  0  0  0  0  0  0
  1  6  1  0  0  0  0
  2  8  1  6  0  0  0
  2  1  1  0  0  0  0
  2  3  1  0  0  0  0
  3  4  2  0  0  0  0
  4  5  1  0  0  0  0
  4  9  1  0  0  0  0
  5 10  1  0  0  0  0
  6 31  1  0  0  0  0
  6  5  2  0  0  0  0
  7  1  1  0  0  0  0
 11  3  1  0  0  0  0
 12 11  1  0  0  0  0
 13 18  2  0  0  0  0
 13 14  1  0  0  0  0
 14 15  2  0  0  0  0
 15 16  1  0  0  0  0
 15 27  1  0  0  0  0
 16 21  1  0  0  0  0
 17 26  1  0  0  0  0
 17 16  2  0  0  0  0
 18 17  1  0  0  0  0
 19 13  1  0  0  0  0
 20 14  1  0  0  0  0
 23 25  1  1  0  0  0
 23 18  1  0  0  0  0
 23 24  1  0  0  0  0
 24  2  1  0  0  0  0
 26 22  1  0  0  0  0
 27 28  1  0  0  0  0
 27 30  1  0  0  0  0
 29 27  1  0  0  0  0
 32 33  1  0  0  0  0
 32 31  1  0  0  0  0
 34 32  1  0  0  0  0
 35 32  1  0  0  0  0
M  RAD  4   1   2  11   2  12   3  25   2
M  END
