Coordinates from ORCA-job p-CH3O-Ph-N2-X-OTs-B3LYPG-6-31G_dp-scan-d09-49-n400
 OpenBabel08281821253D

 35 35  0  0  1  0  0  0  0  0999 V2000
    0.2597    0.3026   -3.0848 C   0  0  0  0  0  0  0  0  0  0  0  0
    0.9077    1.4405   -3.7972 C   0  0  1  0  0  0  0  0  0  0  0  0
    0.5130    2.8352   -3.2703 C   0  0  0  0  0  0  0  0  0  0  0  0
    0.0972    2.8815   -1.8522 C   0  0  0  0  0  0  0  0  0  0  0  0
   -0.2862    1.7699   -1.1918 C   0  0  0  0  0  0  0  0  0  0  0  0
   -0.2580    0.4588   -1.8473 C   0  0  0  0  0  0  0  0  0  0  0  0
    0.2717   -0.6807   -3.5429 H   0  0  0  0  0  0  0  0  0  0  0  0
    0.7157    1.3929   -4.8708 H   0  0  0  0  0  0  0  0  0  0  0  0
    0.0387    3.8644   -1.3950 H   0  0  0  0  0  0  0  0  0  0  0  0
   -0.6374    1.8425   -0.1684 H   0  0  0  0  0  0  0  0  0  0  0  0
    0.5603    3.9036   -3.9616 N   0  0  0  0  0  0  0  0  0  0  0  0
    0.8872    3.6933   -5.9015 N   0  0  0  0  0  0  0  0  0  0  0  0
    5.6792    1.1384   -4.9805 C   0  0  0  0  0  0  0  0  0  0  0  0
    6.8523    0.4119   -4.7746 C   0  0  0  0  0  0  0  0  0  0  0  0
    7.2219   -0.0198   -3.4938 C   0  0  0  0  0  0  0  0  0  0  0  0
    6.3854    0.3006   -2.4131 C   0  0  0  0  0  0  0  0  0  0  0  0
    5.2119    1.0265   -2.6015 C   0  0  0  0  0  0  0  0  0  0  0  0
    4.8639    1.4330   -3.8913 C   0  0  0  0  0  0  0  0  0  0  0  0
    5.3836    1.4770   -5.9683 H   0  0  0  0  0  0  0  0  0  0  0  0
    7.4918    0.1777   -5.6221 H   0  0  0  0  0  0  0  0  0  0  0  0
    6.6579   -0.0242   -1.4122 H   0  0  0  0  0  0  0  0  0  0  0  0
    4.5683    1.2607   -1.7589 H   0  0  0  0  0  0  0  0  0  0  0  0
    3.3899    2.4493   -4.1584 S   0  0  2  0  0  0  0  0  0  0  0  0
    2.3662    1.2133   -3.6256 O   0  0  0  0  0  0  0  0  0  0  0  0
    3.2688    2.6167   -5.6508 O   0  0  0  0  0  0  0  0  0  0  0  0
    1.1588    4.5220   -6.2247 O   0  0  0  0  0  0  0  0  0  0  0  0
    8.4776   -0.8308   -3.2807 C   0  0  0  0  0  0  0  0  0  0  0  0
    8.2600   -1.9063   -3.3023 H   0  0  0  0  0  0  0  0  0  0  0  0
    9.2202   -0.6322   -4.0592 H   0  0  0  0  0  0  0  0  0  0  0  0
    8.9357   -0.6132   -2.3106 H   0  0  0  0  0  0  0  0  0  0  0  0
   -0.7524   -0.6539   -1.2225 O   0  0  0  0  0  0  0  0  0  0  0  0
   -1.5508   -0.5120   -0.0572 C   0  0  0  0  0  0  0  0  0  0  0  0
   -1.9333   -1.5101    0.1628 H   0  0  0  0  0  0  0  0  0  0  0  0
   -2.3982    0.1664   -0.2165 H   0  0  0  0  0  0  0  0  0  0  0  0
   -0.9679   -0.1644    0.8053 H   0  0  0  0  0  0  0  0  0  0  0  0
  1  6  2  0  0  0  0
  2  8  1  6  0  0  0
  2 24  1  0  0  0  0
  2  3  1  0  0  0  0
  2  1  1  0  0  0  0
  3  4  1  0  0  0  0
  4  9  1  0  0  0  0
  4  5  2  0  0  0  0
  5 10  1  0  0  0  0
  6 31  1  0  0  0  0
  6  5  1  0  0  0  0
  7  1  1  0  0  0  0
 11  3  2  0  0  0  0
 13 14  2  0  0  0  0
 13 18  1  0  0  0  0
 14 15  1  0  0  0  0
 15 27  1  0  0  0  0
 15 16  2  0  0  0  0
 16 21  1  0  0  0  0
 17 16  1  0  0  0  0
 17 22  1  0  0  0  0
 18 17  2  0  0  0  0
 19 13  1  0  0  0  0
 20 14  1  0  0  0  0
 23 25  1  6  0  0  0
 23 18  1  0  0  0  0
 23 24  1  0  0  0  0
 26 12  2  0  0  0  0
 27 30  1  0  0  0  0
 28 27  1  0  0  0  0
 29 27  1  0  0  0  0
 31 32  1  0  0  0  0
 32 33  1  0  0  0  0
 32 35  1  0  0  0  0
 34 32  1  0  0  0  0
M  RAD  3  11   2  12   2  25   2
M  END
