Coordinates from ORCA-job p-CH3O-Ph-N2-X-OTs-B3LYPG-6-31G_dp-scan-d09-49-n400
 OpenBabel08281821253D

 35 36  0  0  1  0  0  0  0  0999 V2000
   -0.0094    0.9701   -2.7250 C   0  0  0  0  0  0  0  0  0  0  0  0
    0.8111    2.2066   -2.9115 C   0  0  1  0  0  0  0  0  0  0  0  0
    0.7504    3.0863   -1.6915 C   0  0  0  0  0  0  0  0  0  0  0  0
    0.3442    2.5891   -0.3994 C   0  0  0  0  0  0  0  0  0  0  0  0
   -0.2103    1.3604   -0.3033 C   0  0  0  0  0  0  0  0  0  0  0  0
   -0.4212    0.5622   -1.5006 C   0  0  0  0  0  0  0  0  0  0  0  0
   -0.1506    0.3699   -3.6142 H   0  0  0  0  0  0  0  0  0  0  0  0
    0.4914    2.7650   -3.8030 H   0  0  0  0  0  0  0  0  0  0  0  0
    0.4805    3.2235    0.4705 H   0  0  0  0  0  0  0  0  0  0  0  0
   -0.5314    0.9491    0.6463 H   0  0  0  0  0  0  0  0  0  0  0  0
    1.1150    4.3393   -1.8086 N   0  0  0  0  0  0  0  0  0  0  0  0
    1.4157    5.4381   -1.9066 N   0  0  0  0  0  0  0  0  0  0  0  0
    4.6344   -0.2289   -4.3882 C   0  0  0  0  0  0  0  0  0  0  0  0
    5.9421   -0.6409   -4.1459 C   0  0  0  0  0  0  0  0  0  0  0  0
    6.9591    0.3044   -3.9481 C   0  0  0  0  0  0  0  0  0  0  0  0
    6.6353    1.6651   -3.9976 C   0  0  0  0  0  0  0  0  0  0  0  0
    5.3234    2.0858   -4.2353 C   0  0  0  0  0  0  0  0  0  0  0  0
    4.3191    1.1273   -4.4208 C   0  0  0  0  0  0  0  0  0  0  0  0
    3.8332   -0.9406   -4.5636 H   0  0  0  0  0  0  0  0  0  0  0  0
    6.1788   -1.7007   -4.1124 H   0  0  0  0  0  0  0  0  0  0  0  0
    7.4138    2.4118   -3.8468 H   0  0  0  0  0  0  0  0  0  0  0  0
    5.7537    3.9498   -4.1557 H   0  0  0  0  0  0  0  0  0  0  0  0
    2.6103    1.6079   -4.7771 S   0  0  2  0  0  0  0  0  0  0  0  0
    2.2385    1.8420   -3.1366 O   0  0  0  0  0  0  0  0  0  0  0  0
    1.9410    0.3609   -5.2688 O   0  0  0  0  0  0  0  0  0  0  0  0
    4.9734    3.4004   -4.3044 O   0  0  0  0  0  0  0  0  0  0  0  0
    8.3871   -0.1318   -3.7226 C   0  0  0  0  0  0  0  0  0  0  0  0
    8.4306   -1.1011   -3.2179 H   0  0  0  0  0  0  0  0  0  0  0  0
    8.9206   -0.2355   -4.6755 H   0  0  0  0  0  0  0  0  0  0  0  0
    8.9398    0.5929   -3.1169 H   0  0  0  0  0  0  0  0  0  0  0  0
   -1.0896   -0.5956   -1.2376 O   0  0  0  0  0  0  0  0  0  0  0  0
   -1.3379   -1.4725   -2.3272 C   0  0  0  0  0  0  0  0  0  0  0  0
   -1.8517   -2.3390   -1.9083 H   0  0  0  0  0  0  0  0  0  0  0  0
   -0.4031   -1.7918   -2.8032 H   0  0  0  0  0  0  0  0  0  0  0  0
   -1.9770   -0.9979   -3.0831 H   0  0  0  0  0  0  0  0  0  0  0  0
  1  6  1  0  0  0  0
  2  8  1  6  0  0  0
  2  1  1  0  0  0  0
  2  3  1  0  0  0  0
  3  4  2  0  0  0  0
  4  5  1  0  0  0  0
  4  9  1  0  0  0  0
  5 10  1  0  0  0  0
  6 31  1  0  0  0  0
  6  5  2  0  0  0  0
  7  1  1  0  0  0  0
 11  3  1  0  0  0  0
 12 11  1  0  0  0  0
 13 14  1  0  0  0  0
 14 20  1  0  0  0  0
 14 15  2  0  0  0  0
 15 27  1  0  0  0  0
 16 15  1  0  0  0  0
 16 21  1  0  0  0  0
 17 16  2  0  0  0  0
 18 13  2  0  0  0  0
 18 17  1  0  0  0  0
 19 13  1  0  0  0  0
 23 25  1  1  0  0  0
 23 18  1  0  0  0  0
 23 24  1  0  0  0  0
 24  2  1  0  0  0  0
 26 17  1  0  0  0  0
 26 22  1  0  0  0  0
 27 28  1  0  0  0  0
 27 30  1  0  0  0  0
 29 27  1  0  0  0  0
 32 33  1  0  0  0  0
 32 31  1  0  0  0  0
 34 32  1  0  0  0  0
 35 32  1  0  0  0  0
M  RAD  4   1   2  11   2  12   3  25   2
M  END
