Coordinates from ORCA-job p-CH3O-Ph-N2-X-OTs-B3LYPG-6-31G_dp-scan-d09-49-n400
 OpenBabel08281821253D

 35 36  0  0  1  0  0  0  0  0999 V2000
   -0.0444    0.9632   -2.7190 C   0  0  0  0  0  0  0  0  0  0  0  0
    0.8305    2.1600   -2.9160 C   0  0  1  0  0  0  0  0  0  0  0  0
    0.8094    3.0542   -1.7050 C   0  0  0  0  0  0  0  0  0  0  0  0
    0.3631    2.5965   -0.4120 C   0  0  0  0  0  0  0  0  0  0  0  0
   -0.2531    1.3983   -0.3055 C   0  0  0  0  0  0  0  0  0  0  0  0
   -0.4865    0.5922   -1.4934 C   0  0  0  0  0  0  0  0  0  0  0  0
   -0.2059    0.3567   -3.6007 H   0  0  0  0  0  0  0  0  0  0  0  0
    0.5378    2.7229   -3.8141 H   0  0  0  0  0  0  0  0  0  0  0  0
    0.5216    3.2353    0.4509 H   0  0  0  0  0  0  0  0  0  0  0  0
   -0.6057    1.0176    0.6456 H   0  0  0  0  0  0  0  0  0  0  0  0
    1.2607    4.2776   -1.8314 N   0  0  0  0  0  0  0  0  0  0  0  0
    1.6407    5.3503   -1.9419 N   0  0  0  0  0  0  0  0  0  0  0  0
    4.7081   -0.2820   -4.4473 C   0  0  0  0  0  0  0  0  0  0  0  0
    6.0334   -0.6414   -4.2144 C   0  0  0  0  0  0  0  0  0  0  0  0
    7.0029    0.3412   -3.9684 C   0  0  0  0  0  0  0  0  0  0  0  0
    6.6147    1.6864   -3.9594 C   0  0  0  0  0  0  0  0  0  0  0  0
    5.2856    2.0537   -4.1876 C   0  0  0  0  0  0  0  0  0  0  0  0
    4.3293    1.0574   -4.4227 C   0  0  0  0  0  0  0  0  0  0  0  0
    3.9417   -1.0225   -4.6560 H   0  0  0  0  0  0  0  0  0  0  0  0
    6.3203   -1.6890   -4.2261 H   0  0  0  0  0  0  0  0  0  0  0  0
    7.3556    2.4616   -3.7694 H   0  0  0  0  0  0  0  0  0  0  0  0
    5.6214    3.9314   -4.0187 H   0  0  0  0  0  0  0  0  0  0  0  0
    2.6042    1.4774   -4.7731 S   0  0  2  0  0  0  0  0  0  0  0  0
    2.2404    1.7340   -3.1359 O   0  0  0  0  0  0  0  0  0  0  0  0
    1.9706    0.2032   -5.2402 O   0  0  0  0  0  0  0  0  0  0  0  0
    4.8708    3.3511   -4.1993 O   0  0  0  0  0  0  0  0  0  0  0  0
    8.4493   -0.0357   -3.7525 C   0  0  0  0  0  0  0  0  0  0  0  0
    8.5377   -1.0325   -3.3113 H   0  0  0  0  0  0  0  0  0  0  0  0
    8.9975   -0.0489   -4.7026 H   0  0  0  0  0  0  0  0  0  0  0  0
    8.9574    0.6747   -3.0931 H   0  0  0  0  0  0  0  0  0  0  0  0
   -1.2077   -0.5309   -1.2211 O   0  0  0  0  0  0  0  0  0  0  0  0
   -1.4763   -1.4165   -2.2989 C   0  0  0  0  0  0  0  0  0  0  0  0
   -2.0293   -2.2547   -1.8722 H   0  0  0  0  0  0  0  0  0  0  0  0
   -0.5488   -1.7804   -2.7565 H   0  0  0  0  0  0  0  0  0  0  0  0
   -2.0868   -0.9309   -3.0713 H   0  0  0  0  0  0  0  0  0  0  0  0
  1  6  1  0  0  0  0
  2  8  1  6  0  0  0
  2  1  1  0  0  0  0
  2  3  1  0  0  0  0
  3  4  2  0  0  0  0
  4  5  1  0  0  0  0
  4  9  1  0  0  0  0
  5 10  1  0  0  0  0
  6 31  1  0  0  0  0
  6  5  2  0  0  0  0
  7  1  1  0  0  0  0
 11  3  1  0  0  0  0
 12 11  1  0  0  0  0
 13 18  2  0  0  0  0
 13 14  1  0  0  0  0
 14 15  2  0  0  0  0
 15 16  1  0  0  0  0
 15 27  1  0  0  0  0
 16 21  1  0  0  0  0
 17 16  2  0  0  0  0
 18 17  1  0  0  0  0
 19 13  1  0  0  0  0
 20 14  1  0  0  0  0
 23 25  1  1  0  0  0
 23 18  1  0  0  0  0
 23 24  1  0  0  0  0
 24  2  1  0  0  0  0
 26 17  1  0  0  0  0
 26 22  1  0  0  0  0
 27 28  1  0  0  0  0
 27 30  1  0  0  0  0
 29 27  1  0  0  0  0
 32 33  1  0  0  0  0
 32 31  1  0  0  0  0
 34 32  1  0  0  0  0
 35 32  1  0  0  0  0
M  RAD  4   1   2  11   2  12   3  25   2
M  END
