Coordinates from ORCA-job p-CH3O-Ph-N2-X-OTs-B3LYPG-6-31G_dp-scan-d09-49-n400
 OpenBabel08281821253D

 35 36  0  0  1  0  0  0  0  0999 V2000
   -0.2225    0.8103   -2.6500 C   0  0  0  0  0  0  0  0  0  0  0  0
    1.0250    1.5982   -2.8845 C   0  0  1  0  0  0  0  0  0  0  0  0
    1.4004    2.4281   -1.6782 C   0  0  0  0  0  0  0  0  0  0  0  0
    0.6548    2.4073   -0.4495 C   0  0  0  0  0  0  0  0  0  0  0  0
   -0.4512    1.6368   -0.3394 C   0  0  0  0  0  0  0  0  0  0  0  0
   -0.8818    0.8227   -1.4656 C   0  0  0  0  0  0  0  0  0  0  0  0
   -0.5591    0.2121   -3.4875 H   0  0  0  0  0  0  0  0  0  0  0  0
    0.9267    2.2314   -3.7795 H   0  0  0  0  0  0  0  0  0  0  0  0
    1.0152    3.0035    0.3827 H   0  0  0  0  0  0  0  0  0  0  0  0
   -1.0309    1.5867    0.5745 H   0  0  0  0  0  0  0  0  0  0  0  0
    2.5270    3.0934   -1.7596 N   0  0  0  0  0  0  0  0  0  0  0  0
    3.5428    3.5680   -2.0135 N   0  0  0  0  0  0  0  0  0  0  0  0
    5.1647   -0.4603   -4.6260 C   0  0  0  0  0  0  0  0  0  0  0  0
    6.5413   -0.4264   -4.4130 C   0  0  0  0  0  0  0  0  0  0  0  0
    7.1754    0.7649   -4.0327 C   0  0  0  0  0  0  0  0  0  0  0  0
    6.3984    1.9176   -3.8606 C   0  0  0  0  0  0  0  0  0  0  0  0
    5.0185    1.8866   -4.0683 C   0  0  0  0  0  0  0  0  0  0  0  0
    4.3991    0.6877   -4.4442 C   0  0  0  0  0  0  0  0  0  0  0  0
    4.6554   -1.3670   -4.9387 H   0  0  0  0  0  0  0  0  0  0  0  0
    7.1312   -1.3286   -4.5483 H   0  0  0  0  0  0  0  0  0  0  0  0
    6.8710    2.8497   -3.5562 H   0  0  0  0  0  0  0  0  0  0  0  0
    4.7871    3.7778   -3.7953 H   0  0  0  0  0  0  0  0  0  0  0  0
    2.6235    0.6404   -4.7957 S   0  0  2  0  0  0  0  0  0  0  0  0
    2.1789    0.7071   -3.1657 O   0  0  0  0  0  0  0  0  0  0  0  0
    2.3568   -0.7273   -5.3319 O   0  0  0  0  0  0  0  0  0  0  0  0
    4.2276    2.9969   -3.8960 O   0  0  0  0  0  0  0  0  0  0  0  0
    8.6721    0.8186   -3.8403 C   0  0  0  0  0  0  0  0  0  0  0  0
    9.0646   -0.1471   -3.5100 H   0  0  0  0  0  0  0  0  0  0  0  0
    9.1799    1.0723   -4.7792 H   0  0  0  0  0  0  0  0  0  0  0  0
    8.9565    1.5735   -3.1013 H   0  0  0  0  0  0  0  0  0  0  0  0
   -2.0100    0.1124   -1.1848 O   0  0  0  0  0  0  0  0  0  0  0  0
   -2.5119   -0.7568   -2.1890 C   0  0  0  0  0  0  0  0  0  0  0  0
   -3.3876   -1.2443   -1.7583 H   0  0  0  0  0  0  0  0  0  0  0  0
   -1.7688   -1.5140   -2.4679 H   0  0  0  0  0  0  0  0  0  0  0  0
   -2.8099   -0.2007   -3.0869 H   0  0  0  0  0  0  0  0  0  0  0  0
  1  6  1  0  0  0  0
  2  8  1  6  0  0  0
  2  1  1  0  0  0  0
  2  3  1  0  0  0  0
  3  4  2  0  0  0  0
  4  5  1  0  0  0  0
  4  9  1  0  0  0  0
  5 10  1  0  0  0  0
  6 31  1  0  0  0  0
  6  5  2  0  0  0  0
  7  1  1  0  0  0  0
 11  3  1  0  0  0  0
 12 11  1  0  0  0  0
 13 18  2  0  0  0  0
 13 14  1  0  0  0  0
 14 15  2  0  0  0  0
 15 16  1  0  0  0  0
 15 27  1  0  0  0  0
 16 21  1  0  0  0  0
 17 26  1  0  0  0  0
 17 16  2  0  0  0  0
 18 17  1  0  0  0  0
 19 13  1  0  0  0  0
 20 14  1  0  0  0  0
 23 25  1  1  0  0  0
 23 18  1  0  0  0  0
 23 24  1  0  0  0  0
 24  2  1  0  0  0  0
 26 22  1  0  0  0  0
 27 28  1  0  0  0  0
 27 30  1  0  0  0  0
 29 27  1  0  0  0  0
 32 33  1  0  0  0  0
 32 31  1  0  0  0  0
 34 32  1  0  0  0  0
 35 32  1  0  0  0  0
M  RAD  4   1   2  11   2  12   3  25   2
M  END
