Coordinates from ORCA-job p-CH3O-Ph-N2-X-OTs-B3LYPG-6-31G_dp-scan-d09-49-n400
 OpenBabel08281821253D

 35 36  0  0  1  0  0  0  0  0999 V2000
    0.0004    0.4079   -3.2619 C   0  0  0  0  0  0  0  0  0  0  0  0
    0.8789    1.5060   -3.7693 C   0  0  1  0  0  0  0  0  0  0  0  0
    0.8614    2.7363   -2.8524 C   0  0  0  0  0  0  0  0  0  0  0  0
    0.3186    2.6664   -1.5209 C   0  0  0  0  0  0  0  0  0  0  0  0
   -0.3537    1.5549   -1.1322 C   0  0  0  0  0  0  0  0  0  0  0  0
   -0.5469    0.4175   -2.0263 C   0  0  0  0  0  0  0  0  0  0  0  0
   -0.1293   -0.4518   -3.9092 H   0  0  0  0  0  0  0  0  0  0  0  0
    0.5558    1.8118   -4.7746 H   0  0  0  0  0  0  0  0  0  0  0  0
    0.4612    3.5093   -0.8542 H   0  0  0  0  0  0  0  0  0  0  0  0
   -0.7529    1.5143   -0.1261 H   0  0  0  0  0  0  0  0  0  0  0  0
    1.4190    3.8075   -3.2874 N   0  0  0  0  0  0  0  0  0  0  0  0
    1.9351    4.7144   -3.8457 N   0  0  0  0  0  0  0  0  0  0  0  0
    5.3329   -0.1503   -5.0300 C   0  0  0  0  0  0  0  0  0  0  0  0
    6.5888   -0.4483   -4.5043 C   0  0  0  0  0  0  0  0  0  0  0  0
    7.1840    0.3796   -3.5414 C   0  0  0  0  0  0  0  0  0  0  0  0
    6.4918    1.5253   -3.1181 C   0  0  0  0  0  0  0  0  0  0  0  0
    5.2343    1.8423   -3.6263 C   0  0  0  0  0  0  0  0  0  0  0  0
    4.6677    0.9858   -4.5748 C   0  0  0  0  0  0  0  0  0  0  0  0
    4.8647   -0.7755   -5.7839 H   0  0  0  0  0  0  0  0  0  0  0  0
    7.1177   -1.3330   -4.8493 H   0  0  0  0  0  0  0  0  0  0  0  0
    6.9483    2.1822   -2.3816 H   0  0  0  0  0  0  0  0  0  0  0  0
    4.6960    2.7360   -3.3097 H   0  0  0  0  0  0  0  0  0  0  0  0
    3.0743    1.4055   -5.3015 S   0  0  2  0  0  0  0  0  0  0  0  0
    2.2318    1.0130   -3.8239 O   0  0  0  0  0  0  0  0  0  0  0  0
    2.7617    0.3529   -6.3116 O   0  0  0  0  0  0  0  0  0  0  0  0
    3.6932    4.5740   -3.6722 O   0  0  0  0  0  0  0  0  0  0  0  0
    8.5351    0.0402   -2.9584 C   0  0  0  0  0  0  0  0  0  0  0  0
    9.0904   -0.6448   -3.6056 H   0  0  0  0  0  0  0  0  0  0  0  0
    9.1430    0.9380   -2.8093 H   0  0  0  0  0  0  0  0  0  0  0  0
    8.4303   -0.4451   -1.9799 H   0  0  0  0  0  0  0  0  0  0  0  0
   -1.2702   -0.6741   -1.6438 O   0  0  0  0  0  0  0  0  0  0  0  0
   -1.9997   -0.6512   -0.4238 C   0  0  0  0  0  0  0  0  0  0  0  0
   -2.5480   -1.5936   -0.3928 H   0  0  0  0  0  0  0  0  0  0  0  0
   -2.7165    0.1788   -0.3885 H   0  0  0  0  0  0  0  0  0  0  0  0
   -1.3390   -0.6008    0.4506 H   0  0  0  0  0  0  0  0  0  0  0  0
  1  6  2  0  0  0  0
  2  8  1  6  0  0  0
  2  1  1  0  0  0  0
  2  3  1  0  0  0  0
  3  4  2  0  0  0  0
  4  5  1  0  0  0  0
  4  9  1  0  0  0  0
  5 10  1  0  0  0  0
  6 31  1  0  0  0  0
  6  5  1  0  0  0  0
  7  1  1  0  0  0  0
 11  3  1  0  0  0  0
 12 26  1  0  0  0  0
 12 11  1  0  0  0  0
 13 18  2  0  0  0  0
 13 14  1  0  0  0  0
 14 15  2  0  0  0  0
 15 16  1  0  0  0  0
 15 27  1  0  0  0  0
 16 21  1  0  0  0  0
 17 22  1  0  0  0  0
 17 16  2  0  0  0  0
 18 17  1  0  0  0  0
 19 13  1  0  0  0  0
 20 14  1  0  0  0  0
 23 25  1  6  0  0  0
 23 18  1  0  0  0  0
 23 24  1  0  0  0  0
 24  2  1  0  0  0  0
 27 29  1  0  0  0  0
 27 30  1  0  0  0  0
 28 27  1  0  0  0  0
 31 32  1  0  0  0  0
 32 33  1  0  0  0  0
 32 34  1  0  0  0  0
 32 35  1  0  0  0  0
M  RAD  5   5   2  11   2  12   2  25   2  26   2
M  END
