Coordinates from ORCA-job p-CH3O-Ph-N2-X-OTs-B3LYPG-6-31G_dp-scan-d09-49-n400
 OpenBabel08281821253D

 35 36  0  0  1  0  0  0  0  0999 V2000
   -0.1293    0.9293   -2.7076 C   0  0  0  0  0  0  0  0  0  0  0  0
    0.8892    1.9996   -2.9356 C   0  0  1  0  0  0  0  0  0  0  0  0
    0.9978    2.9162   -1.7446 C   0  0  0  0  0  0  0  0  0  0  0  0
    0.4730    2.5704   -0.4474 C   0  0  0  0  0  0  0  0  0  0  0  0
   -0.3068    1.4746   -0.3136 C   0  0  0  0  0  0  0  0  0  0  0  0
   -0.6296    0.6630   -1.4769 C   0  0  0  0  0  0  0  0  0  0  0  0
   -0.3677    0.3210   -3.5705 H   0  0  0  0  0  0  0  0  0  0  0  0
    0.6644    2.5744   -3.8454 H   0  0  0  0  0  0  0  0  0  0  0  0
    0.7111    3.2075    0.3982 H   0  0  0  0  0  0  0  0  0  0  0  0
   -0.7221    1.1797    0.6426 H   0  0  0  0  0  0  0  0  0  0  0  0
    1.6704    4.0303   -1.8934 N   0  0  0  0  0  0  0  0  0  0  0  0
    2.2532    5.0037   -2.0349 N   0  0  0  0  0  0  0  0  0  0  0  0
    4.8897   -0.3786   -4.5815 C   0  0  0  0  0  0  0  0  0  0  0  0
    6.2466   -0.5994   -4.3528 C   0  0  0  0  0  0  0  0  0  0  0  0
    7.0890    0.4629   -3.9972 C   0  0  0  0  0  0  0  0  0  0  0  0
    6.5438    1.7474   -3.8738 C   0  0  0  0  0  0  0  0  0  0  0  0
    5.1842    1.9750   -4.0978 C   0  0  0  0  0  0  0  0  0  0  0  0
    4.3560    0.8987   -4.4447 C   0  0  0  0  0  0  0  0  0  0  0  0
    4.2177   -1.1828   -4.8655 H   0  0  0  0  0  0  0  0  0  0  0  0
    6.6563   -1.6003   -4.4526 H   0  0  0  0  0  0  0  0  0  0  0  0
    7.1853    2.5824   -3.5963 H   0  0  0  0  0  0  0  0  0  0  0  0
    5.2776    3.8544   -3.7285 H   0  0  0  0  0  0  0  0  0  0  0  0
    2.6004    1.1585   -4.7883 S   0  0  2  0  0  0  0  0  0  0  0  0
    2.2307    1.4002   -3.1531 O   0  0  0  0  0  0  0  0  0  0  0  0
    2.0783   -0.1659   -5.2487 O   0  0  0  0  0  0  0  0  0  0  0  0
    4.6128    3.2082   -3.9992 O   0  0  0  0  0  0  0  0  0  0  0  0
    8.5673    0.2411   -3.7823 C   0  0  0  0  0  0  0  0  0  0  0  0
    8.7748   -0.7889   -3.4796 H   0  0  0  0  0  0  0  0  0  0  0  0
    9.1318    0.4302   -4.7041 H   0  0  0  0  0  0  0  0  0  0  0  0
    8.9678    0.9092   -3.0135 H   0  0  0  0  0  0  0  0  0  0  0  0
   -1.4933   -0.3464   -1.1766 O   0  0  0  0  0  0  0  0  0  0  0  0
   -1.8608   -1.2327   -2.2242 C   0  0  0  0  0  0  0  0  0  0  0  0
   -2.5176   -1.9786   -1.7738 H   0  0  0  0  0  0  0  0  0  0  0  0
   -0.9818   -1.7269   -2.6549 H   0  0  0  0  0  0  0  0  0  0  0  0
   -2.3998   -0.7057   -3.0220 H   0  0  0  0  0  0  0  0  0  0  0  0
  1  6  1  0  0  0  0
  2  8  1  6  0  0  0
  2  1  1  0  0  0  0
  2  3  1  0  0  0  0
  3  4  2  0  0  0  0
  4  5  1  0  0  0  0
  4  9  1  0  0  0  0
  5 10  1  0  0  0  0
  6 31  1  0  0  0  0
  6  5  2  0  0  0  0
  7  1  1  0  0  0  0
 11  3  1  0  0  0  0
 12 11  1  0  0  0  0
 13 18  2  0  0  0  0
 13 14  1  0  0  0  0
 14 15  2  0  0  0  0
 15 16  1  0  0  0  0
 15 27  1  0  0  0  0
 16 21  1  0  0  0  0
 17 26  1  0  0  0  0
 17 16  2  0  0  0  0
 18 17  1  0  0  0  0
 19 13  1  0  0  0  0
 20 14  1  0  0  0  0
 23 25  1  1  0  0  0
 23 18  1  0  0  0  0
 23 24  1  0  0  0  0
 24  2  1  0  0  0  0
 26 22  1  0  0  0  0
 27 28  1  0  0  0  0
 27 30  1  0  0  0  0
 29 27  1  0  0  0  0
 32 33  1  0  0  0  0
 32 31  1  0  0  0  0
 34 32  1  0  0  0  0
 35 32  1  0  0  0  0
M  RAD  4   1   2  11   2  12   3  25   2
M  END
