Coordinates from ORCA-job p-CH3O-Ph-N2-X-OTs-B3LYPG-6-31G_dp-scan-d09-49-n400
 OpenBabel08281821253D

 35 35  0  0  1  0  0  0  0  0999 V2000
    0.2695    0.3141   -3.1005 C   0  0  0  0  0  0  0  0  0  0  0  0
    0.9242    1.4591   -3.7963 C   0  0  1  0  0  0  0  0  0  0  0  0
    0.5156    2.8454   -3.2608 C   0  0  0  0  0  0  0  0  0  0  0  0
    0.1025    2.8807   -1.8427 C   0  0  0  0  0  0  0  0  0  0  0  0
   -0.2803    1.7618   -1.1948 C   0  0  0  0  0  0  0  0  0  0  0  0
   -0.2525    0.4570   -1.8634 C   0  0  0  0  0  0  0  0  0  0  0  0
    0.2867   -0.6642   -3.5686 H   0  0  0  0  0  0  0  0  0  0  0  0
    0.7492    1.4177   -4.8726 H   0  0  0  0  0  0  0  0  0  0  0  0
    0.0427    3.8589   -1.3760 H   0  0  0  0  0  0  0  0  0  0  0  0
   -0.6313    1.8239   -0.1708 H   0  0  0  0  0  0  0  0  0  0  0  0
    0.5501    3.9251   -3.9381 N   0  0  0  0  0  0  0  0  0  0  0  0
    0.8222    3.6976   -5.8255 N   0  0  0  0  0  0  0  0  0  0  0  0
    5.6644    1.0992   -4.9860 C   0  0  0  0  0  0  0  0  0  0  0  0
    6.8332    0.3656   -4.7784 C   0  0  0  0  0  0  0  0  0  0  0  0
    7.2240   -0.0255   -3.4912 C   0  0  0  0  0  0  0  0  0  0  0  0
    6.4139    0.3428   -2.4052 C   0  0  0  0  0  0  0  0  0  0  0  0
    5.2455    1.0761   -2.5951 C   0  0  0  0  0  0  0  0  0  0  0  0
    4.8758    1.4412   -3.8915 C   0  0  0  0  0  0  0  0  0  0  0  0
    5.3525    1.4073   -5.9788 H   0  0  0  0  0  0  0  0  0  0  0  0
    7.4523    0.0939   -5.6296 H   0  0  0  0  0  0  0  0  0  0  0  0
    6.7036    0.0502   -1.3991 H   0  0  0  0  0  0  0  0  0  0  0  0
    4.6229    1.3483   -1.7482 H   0  0  0  0  0  0  0  0  0  0  0  0
    3.4061    2.4617   -4.1650 S   0  0  2  0  0  0  0  0  0  0  0  0
    2.3770    1.2405   -3.5957 O   0  0  0  0  0  0  0  0  0  0  0  0
    3.2643    2.5984   -5.6565 O   0  0  0  0  0  0  0  0  0  0  0  0
    1.0912    4.5432   -6.1924 O   0  0  0  0  0  0  0  0  0  0  0  0
    8.4750   -0.8423   -3.2730 C   0  0  0  0  0  0  0  0  0  0  0  0
    8.2354   -1.9073   -3.1626 H   0  0  0  0  0  0  0  0  0  0  0  0
    9.1678   -0.7478   -4.1144 H   0  0  0  0  0  0  0  0  0  0  0  0
    9.0009   -0.5342   -2.3634 H   0  0  0  0  0  0  0  0  0  0  0  0
   -0.7483   -0.6609   -1.2502 O   0  0  0  0  0  0  0  0  0  0  0  0
   -1.5598   -0.5289   -0.0924 C   0  0  0  0  0  0  0  0  0  0  0  0
   -1.9445   -1.5288    0.1147 H   0  0  0  0  0  0  0  0  0  0  0  0
   -2.4052    0.1508   -0.2556 H   0  0  0  0  0  0  0  0  0  0  0  0
   -0.9862   -0.1889    0.7793 H   0  0  0  0  0  0  0  0  0  0  0  0
  1  6  2  0  0  0  0
  2  8  1  6  0  0  0
  2 24  1  0  0  0  0
  2  3  1  0  0  0  0
  2  1  1  0  0  0  0
  3  4  1  0  0  0  0
  4  9  1  0  0  0  0
  4  5  2  0  0  0  0
  5 10  1  0  0  0  0
  6 31  1  0  0  0  0
  6  5  1  0  0  0  0
  7  1  1  0  0  0  0
 11  3  2  0  0  0  0
 13 14  2  0  0  0  0
 13 18  1  0  0  0  0
 14 15  1  0  0  0  0
 15 27  1  0  0  0  0
 15 16  2  0  0  0  0
 16 21  1  0  0  0  0
 17 16  1  0  0  0  0
 17 22  1  0  0  0  0
 18 17  2  0  0  0  0
 19 13  1  0  0  0  0
 20 14  1  0  0  0  0
 23 25  1  6  0  0  0
 23 18  1  0  0  0  0
 23 24  1  0  0  0  0
 26 12  2  0  0  0  0
 27 28  1  0  0  0  0
 27 30  1  0  0  0  0
 29 27  1  0  0  0  0
 31 32  1  0  0  0  0
 32 33  1  0  0  0  0
 32 35  1  0  0  0  0
 34 32  1  0  0  0  0
M  RAD  3  11   2  12   2  25   2
M  END
