Coordinates from ORCA-job p-CH3O-Ph-N2-X-OTs-B3LYPG-6-31G_dp-scan-d09-49-n400
 OpenBabel08281821253D

 35 36  0  0  1  0  0  0  0  0999 V2000
   -0.1711    0.9074   -2.7033 C   0  0  0  0  0  0  0  0  0  0  0  0
    0.9335    1.8839   -2.9493 C   0  0  1  0  0  0  0  0  0  0  0  0
    1.1339    2.7972   -1.7654 C   0  0  0  0  0  0  0  0  0  0  0  0
    0.5787    2.5185   -0.4652 C   0  0  0  0  0  0  0  0  0  0  0  0
   -0.2983    1.5006   -0.3175 C   0  0  0  0  0  0  0  0  0  0  0  0
   -0.6926    0.7042   -1.4693 C   0  0  0  0  0  0  0  0  0  0  0  0
   -0.4674    0.3126   -3.5579 H   0  0  0  0  0  0  0  0  0  0  0  0
    0.7495    2.4690   -3.8612 H   0  0  0  0  0  0  0  0  0  0  0  0
    0.8757    3.1406    0.3729 H   0  0  0  0  0  0  0  0  0  0  0  0
   -0.7384    1.2577    0.6422 H   0  0  0  0  0  0  0  0  0  0  0  0
    1.9266    3.8270   -1.9250 N   0  0  0  0  0  0  0  0  0  0  0  0
    2.6229    4.7192   -2.0868 N   0  0  0  0  0  0  0  0  0  0  0  0
    4.9947   -0.4252   -4.6441 C   0  0  0  0  0  0  0  0  0  0  0  0
    6.3622   -0.5546   -4.4066 C   0  0  0  0  0  0  0  0  0  0  0  0
    7.1208    0.5517   -4.0004 C   0  0  0  0  0  0  0  0  0  0  0  0
    6.4823    1.7881   -3.8350 C   0  0  0  0  0  0  0  0  0  0  0  0
    5.1126    1.9234   -4.0679 C   0  0  0  0  0  0  0  0  0  0  0  0
    4.3689    0.8037   -4.4657 C   0  0  0  0  0  0  0  0  0  0  0  0
    4.3858   -1.2659   -4.9633 H   0  0  0  0  0  0  0  0  0  0  0  0
    6.8451   -1.5185   -4.5380 H   0  0  0  0  0  0  0  0  0  0  0  0
    7.0579    2.6567   -3.5193 H   0  0  0  0  0  0  0  0  0  0  0  0
    5.0426    3.7837   -3.5870 H   0  0  0  0  0  0  0  0  0  0  0  0
    2.6018    0.9599   -4.8097 S   0  0  2  0  0  0  0  0  0  0  0  0
    2.2157    1.1728   -3.1739 O   0  0  0  0  0  0  0  0  0  0  0  0
    2.1583   -0.3889   -5.2783 O   0  0  0  0  0  0  0  0  0  0  0  0
    4.4473    3.1057   -3.9318 O   0  0  0  0  0  0  0  0  0  0  0  0
    8.6092    0.4303   -3.7763 C   0  0  0  0  0  0  0  0  0  0  0  0
    8.8894   -0.5924   -3.5101 H   0  0  0  0  0  0  0  0  0  0  0  0
    9.1663    0.6957   -4.6838 H   0  0  0  0  0  0  0  0  0  0  0  0
    8.9524    1.0964   -2.9788 H   0  0  0  0  0  0  0  0  0  0  0  0
   -1.6429   -0.2192   -1.1548 O   0  0  0  0  0  0  0  0  0  0  0  0
   -2.0947   -1.0800   -2.1904 C   0  0  0  0  0  0  0  0  0  0  0  0
   -2.8190   -1.7539   -1.7303 H   0  0  0  0  0  0  0  0  0  0  0  0
   -1.2672   -1.6618   -2.6144 H   0  0  0  0  0  0  0  0  0  0  0  0
   -2.5820   -0.5142   -2.9946 H   0  0  0  0  0  0  0  0  0  0  0  0
  1  6  1  0  0  0  0
  2  8  1  6  0  0  0
  2  1  1  0  0  0  0
  2  3  1  0  0  0  0
  3  4  2  0  0  0  0
  4  5  1  0  0  0  0
  4  9  1  0  0  0  0
  5 10  1  0  0  0  0
  6 31  1  0  0  0  0
  6  5  2  0  0  0  0
  7  1  1  0  0  0  0
 11  3  1  0  0  0  0
 12 11  1  0  0  0  0
 13 18  2  0  0  0  0
 13 14  1  0  0  0  0
 14 15  2  0  0  0  0
 15 16  1  0  0  0  0
 15 27  1  0  0  0  0
 16 21  1  0  0  0  0
 17 26  1  0  0  0  0
 17 16  2  0  0  0  0
 18 17  1  0  0  0  0
 19 13  1  0  0  0  0
 20 14  1  0  0  0  0
 23 25  1  1  0  0  0
 23 18  1  0  0  0  0
 23 24  1  0  0  0  0
 24  2  1  0  0  0  0
 26 22  1  0  0  0  0
 27 28  1  0  0  0  0
 27 30  1  0  0  0  0
 29 27  1  0  0  0  0
 32 33  1  0  0  0  0
 32 31  1  0  0  0  0
 34 32  1  0  0  0  0
 35 32  1  0  0  0  0
M  RAD  4   1   2  11   2  12   3  25   2
M  END
