Coordinates from ORCA-job p-CH3O-Ph-N2-X-OTs-B3LYPG-6-31G_dp-scan-d09-49-n400
 OpenBabel08281821253D

 35 36  0  0  1  0  0  0  0  0999 V2000
   -0.0946    0.9479   -2.7126 C   0  0  0  0  0  0  0  0  0  0  0  0
    0.8634    2.0758   -2.9265 C   0  0  1  0  0  0  0  0  0  0  0  0
    0.9138    2.9854   -1.7272 C   0  0  0  0  0  0  0  0  0  0  0  0
    0.4159    2.5917   -0.4327 C   0  0  0  0  0  0  0  0  0  0  0  0
   -0.2955    1.4490   -0.3110 C   0  0  0  0  0  0  0  0  0  0  0  0
   -0.5744    0.6362   -1.4846 C   0  0  0  0  0  0  0  0  0  0  0  0
   -0.2964    0.3374   -3.5832 H   0  0  0  0  0  0  0  0  0  0  0  0
    0.6103    2.6459   -3.8321 H   0  0  0  0  0  0  0  0  0  0  0  0
    0.6167    3.2322    0.4201 H   0  0  0  0  0  0  0  0  0  0  0  0
   -0.6889    1.1175    0.6425 H   0  0  0  0  0  0  0  0  0  0  0  0
    1.4992    4.1492   -1.8660 N   0  0  0  0  0  0  0  0  0  0  0  0
    2.0022    5.1678   -1.9948 N   0  0  0  0  0  0  0  0  0  0  0  0
    4.8140   -0.3450   -4.5318 C   0  0  0  0  0  0  0  0  0  0  0  0
    6.1600   -0.6240   -4.3040 C   0  0  0  0  0  0  0  0  0  0  0  0
    7.0556    0.4074   -3.9891 C   0  0  0  0  0  0  0  0  0  0  0  0
    6.5739    1.7198   -3.9058 C   0  0  0  0  0  0  0  0  0  0  0  0
    5.2247    2.0061   -4.1288 C   0  0  0  0  0  0  0  0  0  0  0  0
    4.3430    0.9607   -4.4344 C   0  0  0  0  0  0  0  0  0  0  0  0
    4.1023   -1.1240   -4.7882 H   0  0  0  0  0  0  0  0  0  0  0  0
    6.5200   -1.6463   -4.3732 H   0  0  0  0  0  0  0  0  0  0  0  0
    7.2570    2.5315   -3.6601 H   0  0  0  0  0  0  0  0  0  0  0  0
    5.4188    3.8893   -3.8343 H   0  0  0  0  0  0  0  0  0  0  0  0
    2.5979    1.2874   -4.7781 S   0  0  2  0  0  0  0  0  0  0  0  0
    2.2380    1.5521   -3.1433 O   0  0  0  0  0  0  0  0  0  0  0  0
    2.0250   -0.0205   -5.2273 O   0  0  0  0  0  0  0  0  0  0  0  0
    4.7164    3.2687   -4.0673 O   0  0  0  0  0  0  0  0  0  0  0  0
    8.5230    0.1207   -3.7764 C   0  0  0  0  0  0  0  0  0  0  0  0
    8.6801   -0.9003   -3.4176 H   0  0  0  0  0  0  0  0  0  0  0  0
    9.0845    0.2270   -4.7130 H   0  0  0  0  0  0  0  0  0  0  0  0
    8.9675    0.8087   -3.0506 H   0  0  0  0  0  0  0  0  0  0  0  0
   -1.3769   -0.4262   -1.1968 O   0  0  0  0  0  0  0  0  0  0  0  0
   -1.6907   -1.3194   -2.2561 C   0  0  0  0  0  0  0  0  0  0  0  0
   -2.3011   -2.1093   -1.8157 H   0  0  0  0  0  0  0  0  0  0  0  0
   -0.7836   -1.7534   -2.6930 H   0  0  0  0  0  0  0  0  0  0  0  0
   -2.2608   -0.8155   -3.0473 H   0  0  0  0  0  0  0  0  0  0  0  0
  1  6  1  0  0  0  0
  2  8  1  6  0  0  0
  2  1  1  0  0  0  0
  2  3  1  0  0  0  0
  3  4  2  0  0  0  0
  4  5  1  0  0  0  0
  4  9  1  0  0  0  0
  5 10  1  0  0  0  0
  6 31  1  0  0  0  0
  6  5  2  0  0  0  0
  7  1  1  0  0  0  0
 11  3  1  0  0  0  0
 12 11  1  0  0  0  0
 13 18  2  0  0  0  0
 13 14  1  0  0  0  0
 14 15  2  0  0  0  0
 15 16  1  0  0  0  0
 15 27  1  0  0  0  0
 16 21  1  0  0  0  0
 17 26  1  0  0  0  0
 17 16  2  0  0  0  0
 18 17  1  0  0  0  0
 19 13  1  0  0  0  0
 20 14  1  0  0  0  0
 23 25  1  1  0  0  0
 23 18  1  0  0  0  0
 23 24  1  0  0  0  0
 24  2  1  0  0  0  0
 26 22  1  0  0  0  0
 27 28  1  0  0  0  0
 27 30  1  0  0  0  0
 29 27  1  0  0  0  0
 32 33  1  0  0  0  0
 32 31  1  0  0  0  0
 34 32  1  0  0  0  0
 35 32  1  0  0  0  0
M  RAD  4   1   2  11   2  12   3  25   2
M  END
