Coordinates from ORCA-job p-CH3O-Ph-N2-X-OTs-B3LYPG-6-31G_dp-scan-d09-49-n400
 OpenBabel08281821253D

 35 36  0  0  1  0  0  0  0  0999 V2000
   -0.2242    0.8106   -2.6506 C   0  0  0  0  0  0  0  0  0  0  0  0
    1.0269    1.5927   -2.8846 C   0  0  1  0  0  0  0  0  0  0  0  0
    1.4067    2.4204   -1.6783 C   0  0  0  0  0  0  0  0  0  0  0  0
    0.6614    2.4018   -0.4495 C   0  0  0  0  0  0  0  0  0  0  0  0
   -0.4480    1.6361   -0.3392 C   0  0  0  0  0  0  0  0  0  0  0  0
   -0.8829    0.8250   -1.4658 C   0  0  0  0  0  0  0  0  0  0  0  0
   -0.5643    0.2150   -3.4885 H   0  0  0  0  0  0  0  0  0  0  0  0
    0.9319    2.2263   -3.7798 H   0  0  0  0  0  0  0  0  0  0  0  0
    1.0250    2.9958    0.3829 H   0  0  0  0  0  0  0  0  0  0  0  0
   -1.0274    1.5880    0.5750 H   0  0  0  0  0  0  0  0  0  0  0  0
    2.5360    3.0813   -1.7591 N   0  0  0  0  0  0  0  0  0  0  0  0
    3.5543    3.5492   -2.0187 N   0  0  0  0  0  0  0  0  0  0  0  0
    5.1689   -0.4626   -4.6248 C   0  0  0  0  0  0  0  0  0  0  0  0
    6.5455   -0.4237   -4.4125 C   0  0  0  0  0  0  0  0  0  0  0  0
    7.1757    0.7697   -4.0320 C   0  0  0  0  0  0  0  0  0  0  0  0
    6.3944    1.9193   -3.8584 C   0  0  0  0  0  0  0  0  0  0  0  0
    5.0146    1.8830   -4.0655 C   0  0  0  0  0  0  0  0  0  0  0  0
    4.3991    0.6824   -4.4419 C   0  0  0  0  0  0  0  0  0  0  0  0
    4.6628   -1.3709   -4.9381 H   0  0  0  0  0  0  0  0  0  0  0  0
    7.1386   -1.3236   -4.5487 H   0  0  0  0  0  0  0  0  0  0  0  0
    6.8635    2.8529   -3.5533 H   0  0  0  0  0  0  0  0  0  0  0  0
    4.7766    3.7753   -3.8037 H   0  0  0  0  0  0  0  0  0  0  0  0
    2.6237    0.6297   -4.7948 S   0  0  2  0  0  0  0  0  0  0  0  0
    2.1768    0.6957   -3.1661 O   0  0  0  0  0  0  0  0  0  0  0  0
    2.3621   -0.7392   -5.3308 O   0  0  0  0  0  0  0  0  0  0  0  0
    4.2196    2.9909   -3.8899 O   0  0  0  0  0  0  0  0  0  0  0  0
    8.6723    0.8286   -3.8405 C   0  0  0  0  0  0  0  0  0  0  0  0
    9.0683   -0.1356   -3.5101 H   0  0  0  0  0  0  0  0  0  0  0  0
    9.1787    1.0837   -4.7798 H   0  0  0  0  0  0  0  0  0  0  0  0
    8.9545    1.5848   -3.1019 H   0  0  0  0  0  0  0  0  0  0  0  0
   -2.0143    0.1198   -1.1853 O   0  0  0  0  0  0  0  0  0  0  0  0
   -2.5206   -0.7462   -2.1899 C   0  0  0  0  0  0  0  0  0  0  0  0
   -3.3983   -1.2302   -1.7592 H   0  0  0  0  0  0  0  0  0  0  0  0
   -1.7811   -1.5065   -2.4700 H   0  0  0  0  0  0  0  0  0  0  0  0
   -2.8167   -0.1880   -3.0871 H   0  0  0  0  0  0  0  0  0  0  0  0
  1  6  1  0  0  0  0
  2  8  1  6  0  0  0
  2  1  1  0  0  0  0
  2  3  1  0  0  0  0
  3  4  2  0  0  0  0
  4  5  1  0  0  0  0
  4  9  1  0  0  0  0
  5 10  1  0  0  0  0
  6 31  1  0  0  0  0
  6  5  2  0  0  0  0
  7  1  1  0  0  0  0
 11  3  1  0  0  0  0
 12 11  1  0  0  0  0
 13 18  2  0  0  0  0
 13 14  1  0  0  0  0
 14 15  2  0  0  0  0
 15 16  1  0  0  0  0
 15 27  1  0  0  0  0
 16 21  1  0  0  0  0
 17 26  1  0  0  0  0
 17 16  2  0  0  0  0
 18 17  1  0  0  0  0
 19 13  1  0  0  0  0
 20 14  1  0  0  0  0
 23 25  1  1  0  0  0
 23 18  1  0  0  0  0
 23 24  1  0  0  0  0
 24  2  1  0  0  0  0
 26 22  1  0  0  0  0
 27 28  1  0  0  0  0
 27 30  1  0  0  0  0
 29 27  1  0  0  0  0
 32 33  1  0  0  0  0
 32 31  1  0  0  0  0
 34 32  1  0  0  0  0
 35 32  1  0  0  0  0
M  RAD  4   1   2  11   2  12   3  25   2
M  END
