Coordinates from ORCA-job p-CH3O-Ph-N2-X-OTs-B3LYPG-6-31G_dp-scan-d09-49-n400
 OpenBabel08281821253D

 35 36  0  0  1  0  0  0  0  0999 V2000
    0.2731    0.3319   -3.1335 C   0  0  0  0  0  0  0  0  0  0  0  0
    0.9346    1.4845   -3.8120 C   0  0  1  0  0  0  0  0  0  0  0  0
    0.5177    2.8600   -3.2575 C   0  0  1  0  0  0  0  0  0  0  0  0
    0.1293    2.8795   -1.8347 C   0  0  0  0  0  0  0  0  0  0  0  0
   -0.2489    1.7509   -1.2010 C   0  0  0  0  0  0  0  0  0  0  0  0
   -0.2378    0.4563   -1.8901 C   0  0  0  0  0  0  0  0  0  0  0  0
    0.2870   -0.6385   -3.6173 H   0  0  0  0  0  0  0  0  0  0  0  0
    0.7738    1.4532   -4.8906 H   0  0  0  0  0  0  0  0  0  0  0  0
    0.0774    3.8504   -1.3525 H   0  0  0  0  0  0  0  0  0  0  0  0
   -0.5859    1.7985   -0.1716 H   0  0  0  0  0  0  0  0  0  0  0  0
    0.5249    3.9560   -3.9147 N   0  0  0  0  0  0  0  0  0  0  0  0
    0.7180    3.7096   -5.7153 N   0  0  0  0  0  0  0  0  0  0  0  0
    5.6507    1.0499   -4.9931 C   0  0  0  0  0  0  0  0  0  0  0  0
    6.8135    0.3110   -4.7718 C   0  0  0  0  0  0  0  0  0  0  0  0
    7.2176   -0.0328   -3.4752 C   0  0  0  0  0  0  0  0  0  0  0  0
    6.4274    0.3889   -2.3938 C   0  0  0  0  0  0  0  0  0  0  0  0
    5.2653    1.1282   -2.5973 C   0  0  0  0  0  0  0  0  0  0  0  0
    4.8819    1.4450   -3.9024 C   0  0  0  0  0  0  0  0  0  0  0  0
    5.3286    1.3226   -5.9931 H   0  0  0  0  0  0  0  0  0  0  0  0
    7.4176   -0.0021   -5.6195 H   0  0  0  0  0  0  0  0  0  0  0  0
    6.7285    0.1339   -1.3808 H   0  0  0  0  0  0  0  0  0  0  0  0
    4.6585    1.4429   -1.7535 H   0  0  0  0  0  0  0  0  0  0  0  0
    3.4202    2.4704   -4.1987 S   0  0  2  0  0  0  0  0  0  0  0  0
    2.3805    1.2709   -3.5852 O   0  0  0  0  0  0  0  0  0  0  0  0
    3.2636    2.5647   -5.6888 O   0  0  0  0  0  0  0  0  0  0  0  0
    0.9702    4.5755   -6.1478 O   0  0  0  0  0  0  0  0  0  0  0  0
    8.4626   -0.8542   -3.2407 C   0  0  0  0  0  0  0  0  0  0  0  0
    8.2113   -1.9072   -3.0627 H   0  0  0  0  0  0  0  0  0  0  0  0
    9.1349   -0.8191   -4.1029 H   0  0  0  0  0  0  0  0  0  0  0  0
    9.0152   -0.5019   -2.3636 H   0  0  0  0  0  0  0  0  0  0  0  0
   -0.7334   -0.6673   -1.2890 O   0  0  0  0  0  0  0  0  0  0  0  0
   -1.5411   -0.5475   -0.1266 C   0  0  0  0  0  0  0  0  0  0  0  0
   -1.9303   -1.5482    0.0674 H   0  0  0  0  0  0  0  0  0  0  0  0
   -2.3834    0.1388   -0.2781 H   0  0  0  0  0  0  0  0  0  0  0  0
   -0.9629   -0.2230    0.7479 H   0  0  0  0  0  0  0  0  0  0  0  0
  1  6  2  0  0  0  0
  2  8  1  6  0  0  0
  2 24  1  0  0  0  0
  2  3  1  0  0  0  0
  2  1  1  0  0  0  0
  3 11  1  1  0  0  0
  3  4  1  0  0  0  0
  4  9  1  0  0  0  0
  4  5  2  0  0  0  0
  5 10  1  0  0  0  0
  6 31  1  0  0  0  0
  6  5  1  0  0  0  0
  7  1  1  0  0  0  0
 12 11  1  0  0  0  0
 13 14  2  0  0  0  0
 13 18  1  0  0  0  0
 14 15  1  0  0  0  0
 15 27  1  0  0  0  0
 15 16  2  0  0  0  0
 16 21  1  0  0  0  0
 17 16  1  0  0  0  0
 17 22  1  0  0  0  0
 18 17  2  0  0  0  0
 19 13  1  0  0  0  0
 20 14  1  0  0  0  0
 23 25  1  6  0  0  0
 23 18  1  0  0  0  0
 23 24  1  0  0  0  0
 26 12  1  0  0  0  0
 27 28  1  0  0  0  0
 27 30  1  0  0  0  0
 29 27  1  0  0  0  0
 31 32  1  0  0  0  0
 32 33  1  0  0  0  0
 32 35  1  0  0  0  0
 34 32  1  0  0  0  0
M  RAD  5   3   2  11   2  12   2  25   2  26   2
M  END
