Coordinates from ORCA-job p-CH3O-Ph-N2-X-OTs-B3LYPG-6-31G_dp-scan-d09-49-n400
 OpenBabel08281821253D

 35 36  0  0  1  0  0  0  0  0999 V2000
   -0.2145    0.8112   -2.6485 C   0  0  0  0  0  0  0  0  0  0  0  0
    1.0183    1.6227   -2.8840 C   0  0  1  0  0  0  0  0  0  0  0  0
    1.3744    2.4619   -1.6772 C   0  0  0  0  0  0  0  0  0  0  0  0
    0.6294    2.4281   -0.4482 C   0  0  0  0  0  0  0  0  0  0  0  0
   -0.4610    1.6359   -0.3390 C   0  0  0  0  0  0  0  0  0  0  0  0
   -0.8750    0.8122   -1.4650 C   0  0  0  0  0  0  0  0  0  0  0  0
   -0.5373    0.2045   -3.4852 H   0  0  0  0  0  0  0  0  0  0  0  0
    0.9067    2.2544   -3.7785 H   0  0  0  0  0  0  0  0  0  0  0  0
    0.9771    3.0322    0.3837 H   0  0  0  0  0  0  0  0  0  0  0  0
   -1.0403    1.5751    0.5745 H   0  0  0  0  0  0  0  0  0  0  0  0
    2.4862    3.1499   -1.7617 N   0  0  0  0  0  0  0  0  0  0  0  0
    3.4895    3.6565   -1.9924 N   0  0  0  0  0  0  0  0  0  0  0  0
    5.1472   -0.4528   -4.6300 C   0  0  0  0  0  0  0  0  0  0  0  0
    6.5237   -0.4388   -4.4141 C   0  0  0  0  0  0  0  0  0  0  0  0
    7.1735    0.7445   -4.0355 C   0  0  0  0  0  0  0  0  0  0  0  0
    6.4134    1.9094   -3.8700 C   0  0  0  0  0  0  0  0  0  0  0  0
    5.0333    1.8995   -4.0806 C   0  0  0  0  0  0  0  0  0  0  0  0
    4.3986    0.7069   -4.4534 C   0  0  0  0  0  0  0  0  0  0  0  0
    4.6248   -1.3533   -4.9393 H   0  0  0  0  0  0  0  0  0  0  0  0
    7.1007   -1.3498   -4.5448 H   0  0  0  0  0  0  0  0  0  0  0  0
    6.8997    2.8357   -3.5694 H   0  0  0  0  0  0  0  0  0  0  0  0
    4.8252    3.7853   -3.7633 H   0  0  0  0  0  0  0  0  0  0  0  0
    2.6221    0.6818   -4.7978 S   0  0  2  0  0  0  0  0  0  0  0  0
    2.1881    0.7559   -3.1630 O   0  0  0  0  0  0  0  0  0  0  0  0
    2.3342   -0.6829   -5.3312 O   0  0  0  0  0  0  0  0  0  0  0  0
    4.2584    3.0197   -3.9227 O   0  0  0  0  0  0  0  0  0  0  0  0
    8.6703    0.7773   -3.8392 C   0  0  0  0  0  0  0  0  0  0  0  0
    9.0492   -0.1947   -3.5116 H   0  0  0  0  0  0  0  0  0  0  0  0
    9.1838    1.0279   -4.7759 H   0  0  0  0  0  0  0  0  0  0  0  0
    8.9630    1.5258   -3.0967 H   0  0  0  0  0  0  0  0  0  0  0  0
   -1.9891    0.0805   -1.1837 O   0  0  0  0  0  0  0  0  0  0  0  0
   -2.4740   -0.7986   -2.1877 C   0  0  0  0  0  0  0  0  0  0  0  0
   -3.3415   -1.3013   -1.7577 H   0  0  0  0  0  0  0  0  0  0  0  0
   -1.7171   -1.5425   -2.4650 H   0  0  0  0  0  0  0  0  0  0  0  0
   -2.7807   -0.2485   -3.0864 H   0  0  0  0  0  0  0  0  0  0  0  0
  1  6  1  0  0  0  0
  2  8  1  6  0  0  0
  2  1  1  0  0  0  0
  2  3  1  0  0  0  0
  3  4  2  0  0  0  0
  4  5  1  0  0  0  0
  4  9  1  0  0  0  0
  5 10  1  0  0  0  0
  6 31  1  0  0  0  0
  6  5  2  0  0  0  0
  7  1  1  0  0  0  0
 11  3  1  0  0  0  0
 12 11  1  0  0  0  0
 13 18  2  0  0  0  0
 13 14  1  0  0  0  0
 14 15  2  0  0  0  0
 15 16  1  0  0  0  0
 15 27  1  0  0  0  0
 16 21  1  0  0  0  0
 17 26  1  0  0  0  0
 17 16  2  0  0  0  0
 18 17  1  0  0  0  0
 19 13  1  0  0  0  0
 20 14  1  0  0  0  0
 23 25  1  1  0  0  0
 23 18  1  0  0  0  0
 23 24  1  0  0  0  0
 24  2  1  0  0  0  0
 26 22  1  0  0  0  0
 27 28  1  0  0  0  0
 27 30  1  0  0  0  0
 29 27  1  0  0  0  0
 32 33  1  0  0  0  0
 32 31  1  0  0  0  0
 34 32  1  0  0  0  0
 35 32  1  0  0  0  0
M  RAD  4   1   2  11   2  12   3  25   2
M  END
