Coordinates from ORCA-job p-CH3O-Ph-N2-X-OTs-B3LYPG-6-31G_dp-scan-d09-49-n400
 OpenBabel08281821253D

 35 36  0  0  1  0  0  0  0  0999 V2000
   -0.0230    0.9673   -2.7224 C   0  0  0  0  0  0  0  0  0  0  0  0
    0.8185    2.1889   -2.9136 C   0  0  1  0  0  0  0  0  0  0  0  0
    0.7726    3.0751   -1.6976 C   0  0  0  0  0  0  0  0  0  0  0  0
    0.3506    2.5935   -0.4048 C   0  0  0  0  0  0  0  0  0  0  0  0
   -0.2277    1.3762   -0.3040 C   0  0  0  0  0  0  0  0  0  0  0  0
   -0.4469    0.5741   -1.4973 C   0  0  0  0  0  0  0  0  0  0  0  0
   -0.1717    0.3640   -3.6084 H   0  0  0  0  0  0  0  0  0  0  0  0
    0.5091    2.7486   -3.8080 H   0  0  0  0  0  0  0  0  0  0  0  0
    0.4951    3.2303    0.4620 H   0  0  0  0  0  0  0  0  0  0  0  0
   -0.5612    0.9769    0.6464 H   0  0  0  0  0  0  0  0  0  0  0  0
    1.1703    4.3175   -1.8191 N   0  0  0  0  0  0  0  0  0  0  0  0
    1.5012    5.4071   -1.9226 N   0  0  0  0  0  0  0  0  0  0  0  0
    4.6637   -0.2508   -4.4136 C   0  0  0  0  0  0  0  0  0  0  0  0
    5.9787   -0.6423   -4.1753 C   0  0  0  0  0  0  0  0  0  0  0  0
    6.9769    0.3179   -3.9567 C   0  0  0  0  0  0  0  0  0  0  0  0
    6.6275    1.6732   -3.9810 C   0  0  0  0  0  0  0  0  0  0  0  0
    5.3086    2.0731   -4.2147 C   0  0  0  0  0  0  0  0  0  0  0  0
    4.3232    1.0994   -4.4217 C   0  0  0  0  0  0  0  0  0  0  0  0
    3.8763   -0.9740   -4.6035 H   0  0  0  0  0  0  0  0  0  0  0  0
    6.2353   -1.6979   -4.1611 H   0  0  0  0  0  0  0  0  0  0  0  0
    7.3912    2.4315   -3.8134 H   0  0  0  0  0  0  0  0  0  0  0  0
    5.7013    3.9436   -4.0970 H   0  0  0  0  0  0  0  0  0  0  0  0
    2.6078    1.5566   -4.7756 S   0  0  2  0  0  0  0  0  0  0  0  0
    2.2395    1.8007   -3.1365 O   0  0  0  0  0  0  0  0  0  0  0  0
    1.9521    0.2986   -5.2569 O   0  0  0  0  0  0  0  0  0  0  0  0
    4.9327    3.3816   -4.2593 O   0  0  0  0  0  0  0  0  0  0  0  0
    8.4125   -0.0951   -3.7352 C   0  0  0  0  0  0  0  0  0  0  0  0
    8.4733   -1.0776   -3.2586 H   0  0  0  0  0  0  0  0  0  0  0  0
    8.9534   -0.1598   -4.6874 H   0  0  0  0  0  0  0  0  0  0  0  0
    8.9466    0.6228   -3.1052 H   0  0  0  0  0  0  0  0  0  0  0  0
   -1.1357   -0.5705   -1.2301 O   0  0  0  0  0  0  0  0  0  0  0  0
   -1.3917   -1.4514   -2.3149 C   0  0  0  0  0  0  0  0  0  0  0  0
   -1.9210   -2.3068   -1.8926 H   0  0  0  0  0  0  0  0  0  0  0  0
   -0.4594   -1.7884   -2.7834 H   0  0  0  0  0  0  0  0  0  0  0  0
   -2.0194   -0.9725   -3.0776 H   0  0  0  0  0  0  0  0  0  0  0  0
  1  6  1  0  0  0  0
  2  8  1  6  0  0  0
  2  1  1  0  0  0  0
  2  3  1  0  0  0  0
  3  4  2  0  0  0  0
  4  5  1  0  0  0  0
  4  9  1  0  0  0  0
  5 10  1  0  0  0  0
  6 31  1  0  0  0  0
  6  5  2  0  0  0  0
  7  1  1  0  0  0  0
 11  3  1  0  0  0  0
 12 11  1  0  0  0  0
 13 14  1  0  0  0  0
 14 20  1  0  0  0  0
 14 15  2  0  0  0  0
 15 27  1  0  0  0  0
 16 15  1  0  0  0  0
 16 21  1  0  0  0  0
 17 16  2  0  0  0  0
 18 13  2  0  0  0  0
 18 17  1  0  0  0  0
 19 13  1  0  0  0  0
 23 25  1  1  0  0  0
 23 18  1  0  0  0  0
 23 24  1  0  0  0  0
 24  2  1  0  0  0  0
 26 17  1  0  0  0  0
 26 22  1  0  0  0  0
 27 28  1  0  0  0  0
 27 30  1  0  0  0  0
 29 27  1  0  0  0  0
 32 33  1  0  0  0  0
 32 31  1  0  0  0  0
 34 32  1  0  0  0  0
 35 32  1  0  0  0  0
M  RAD  4   1   2  11   2  12   3  25   2
M  END
