Coordinates from ORCA-job p-CH3O-Ph-N2-X-OTs-B3LYPG-6-31G_dp-scan-d09-49-n400
 OpenBabel08281821253D

 35 36  0  0  1  0  0  0  0  0999 V2000
    0.1997    0.6064   -3.1424 C   0  0  0  0  0  0  0  0  0  0  0  0
    1.0671    1.8054   -3.3633 C   0  0  1  0  0  0  0  0  0  0  0  0
    0.9490    2.9030   -2.2992 C   0  0  0  0  0  0  0  0  0  0  0  0
    0.0266    2.6973   -1.2015 C   0  0  0  0  0  0  0  0  0  0  0  0
   -0.7171    1.5702   -1.0993 C   0  0  0  0  0  0  0  0  0  0  0  0
   -0.6376    0.5022   -2.0888 C   0  0  0  0  0  0  0  0  0  0  0  0
    0.2822   -0.2004   -3.8622 H   0  0  0  0  0  0  0  0  0  0  0  0
    0.8071    2.2887   -4.3224 H   0  0  0  0  0  0  0  0  0  0  0  0
   -0.0251    3.4814   -0.4534 H   0  0  0  0  0  0  0  0  0  0  0  0
   -1.3831    1.4572   -0.2509 H   0  0  0  0  0  0  0  0  0  0  0  0
    1.6396    3.9965   -2.3254 N   0  0  0  0  0  0  0  0  0  0  0  0
    2.3496    4.1914   -3.6134 N   0  0  0  0  0  0  0  0  0  0  0  0
    5.2363   -0.4895   -4.5187 C   0  0  0  0  0  0  0  0  0  0  0  0
    6.5704   -0.6691   -4.1621 C   0  0  0  0  0  0  0  0  0  0  0  0
    7.3716    0.4182   -3.7803 C   0  0  0  0  0  0  0  0  0  0  0  0
    6.8014    1.6989   -3.7699 C   0  0  0  0  0  0  0  0  0  0  0  0
    5.4674    1.8970   -4.1233 C   0  0  0  0  0  0  0  0  0  0  0  0
    4.6932    0.7939   -4.4842 C   0  0  0  0  0  0  0  0  0  0  0  0
    4.6081   -1.3205   -4.8238 H   0  0  0  0  0  0  0  0  0  0  0  0
    7.0000   -1.6678   -4.1837 H   0  0  0  0  0  0  0  0  0  0  0  0
    7.4089    2.5523   -3.4815 H   0  0  0  0  0  0  0  0  0  0  0  0
    5.0411    2.8955   -4.1090 H   0  0  0  0  0  0  0  0  0  0  0  0
    2.9810    1.0217   -5.0159 S   0  0  2  0  0  0  0  0  0  0  0  0
    2.4637    1.4094   -3.4255 O   0  0  0  0  0  0  0  0  0  0  0  0
    2.4731   -0.3287   -5.4040 O   0  0  0  0  0  0  0  0  0  0  0  0
    3.3021    4.7361   -3.5289 O   0  0  0  0  0  0  0  0  0  0  0  0
    8.8129    0.2055   -3.3831 C   0  0  0  0  0  0  0  0  0  0  0  0
    9.3410   -0.4145   -4.1154 H   0  0  0  0  0  0  0  0  0  0  0  0
    9.3484    1.1539   -3.2931 H   0  0  0  0  0  0  0  0  0  0  0  0
    8.8820   -0.3088   -2.4170 H   0  0  0  0  0  0  0  0  0  0  0  0
   -1.3845   -0.6378   -1.9765 O   0  0  0  0  0  0  0  0  0  0  0  0
   -2.3350   -0.7597   -0.9300 C   0  0  0  0  0  0  0  0  0  0  0  0
   -2.8191   -1.7253   -1.0835 H   0  0  0  0  0  0  0  0  0  0  0  0
   -3.0983    0.0285   -0.9696 H   0  0  0  0  0  0  0  0  0  0  0  0
   -1.8633   -0.7569    0.0609 H   0  0  0  0  0  0  0  0  0  0  0  0
  1  6  2  0  0  0  0
  2  8  1  6  0  0  0
  2  1  1  0  0  0  0
  2  3  1  0  0  0  0
  3  4  2  0  0  0  0
  4  5  1  0  0  0  0
  4  9  1  0  0  0  0
  5 10  1  0  0  0  0
  6 31  1  0  0  0  0
  6  5  1  0  0  0  0
  7  1  1  0  0  0  0
 11  3  1  0  0  0  0
 12 26  1  0  0  0  0
 12 11  1  0  0  0  0
 13 18  2  0  0  0  0
 13 14  1  0  0  0  0
 14 15  2  0  0  0  0
 15 16  1  0  0  0  0
 15 27  1  0  0  0  0
 16 21  1  0  0  0  0
 17 22  1  0  0  0  0
 17 16  2  0  0  0  0
 18 17  1  0  0  0  0
 19 13  1  0  0  0  0
 20 14  1  0  0  0  0
 23 25  1  1  0  0  0
 23 18  1  0  0  0  0
 23 24  1  0  0  0  0
 24  2  1  0  0  0  0
 27 29  1  0  0  0  0
 27 30  1  0  0  0  0
 28 27  1  0  0  0  0
 31 32  1  0  0  0  0
 32 35  1  0  0  0  0
 33 32  1  0  0  0  0
 34 32  1  0  0  0  0
M  RAD  5   5   2  11   2  12   2  25   2  26   2
M  END
