Coordinates from ORCA-job p-CH3O-Ph-N2-X-OTs-B3LYPG-6-31G_dp-scan-d09-49-n400
 OpenBabel08281821253D

 35 35  0  0  1  0  0  0  0  0999 V2000
    0.2587    0.3033   -3.0822 C   0  0  0  0  0  0  0  0  0  0  0  0
    0.9062    1.4409   -3.7948 C   0  0  1  0  0  0  0  0  0  0  0  0
    0.5135    2.8370   -3.2679 C   0  0  0  0  0  0  0  0  0  0  0  0
    0.0948    2.8822   -1.8503 C   0  0  0  0  0  0  0  0  0  0  0  0
   -0.2898    1.7711   -1.1898 C   0  0  0  0  0  0  0  0  0  0  0  0
   -0.2601    0.4600   -1.8451 C   0  0  0  0  0  0  0  0  0  0  0  0
    0.2703   -0.6802   -3.5398 H   0  0  0  0  0  0  0  0  0  0  0  0
    0.7142    1.3923   -4.8686 H   0  0  0  0  0  0  0  0  0  0  0  0
    0.0355    3.8654   -1.3933 H   0  0  0  0  0  0  0  0  0  0  0  0
   -0.6428    1.8438   -0.1672 H   0  0  0  0  0  0  0  0  0  0  0  0
    0.5652    3.9045   -3.9596 N   0  0  0  0  0  0  0  0  0  0  0  0
    0.8965    3.6889   -5.9107 N   0  0  0  0  0  0  0  0  0  0  0  0
    5.6805    1.1429   -4.9803 C   0  0  0  0  0  0  0  0  0  0  0  0
    6.8543    0.4170   -4.7752 C   0  0  0  0  0  0  0  0  0  0  0  0
    7.2224   -0.0188   -3.4955 C   0  0  0  0  0  0  0  0  0  0  0  0
    6.3838    0.2967   -2.4149 C   0  0  0  0  0  0  0  0  0  0  0  0
    5.2097    1.0219   -2.6025 C   0  0  0  0  0  0  0  0  0  0  0  0
    4.8632    1.4326   -3.8914 C   0  0  0  0  0  0  0  0  0  0  0  0
    5.3861    1.4846   -5.9674 H   0  0  0  0  0  0  0  0  0  0  0  0
    7.4953    0.1866   -5.6226 H   0  0  0  0  0  0  0  0  0  0  0  0
    6.6551   -0.0314   -1.4148 H   0  0  0  0  0  0  0  0  0  0  0  0
    4.5645    1.2521   -1.7601 H   0  0  0  0  0  0  0  0  0  0  0  0
    3.3886    2.4486   -4.1568 S   0  0  2  0  0  0  0  0  0  0  0  0
    2.3660    1.2125   -3.6261 O   0  0  0  0  0  0  0  0  0  0  0  0
    3.2683    2.6178   -5.6496 O   0  0  0  0  0  0  0  0  0  0  0  0
    1.1740    4.5050   -6.2323 O   0  0  0  0  0  0  0  0  0  0  0  0
    8.4788   -0.8290   -3.2833 C   0  0  0  0  0  0  0  0  0  0  0  0
    8.2626   -1.9047   -3.3099 H   0  0  0  0  0  0  0  0  0  0  0  0
    9.2227   -0.6262   -4.0596 H   0  0  0  0  0  0  0  0  0  0  0  0
    8.9347   -0.6150   -2.3114 H   0  0  0  0  0  0  0  0  0  0  0  0
   -0.7551   -0.6529   -1.2208 O   0  0  0  0  0  0  0  0  0  0  0  0
   -1.5528   -0.5114   -0.0550 C   0  0  0  0  0  0  0  0  0  0  0  0
   -1.9349   -1.5096    0.1652 H   0  0  0  0  0  0  0  0  0  0  0  0
   -2.4004    0.1668   -0.2137 H   0  0  0  0  0  0  0  0  0  0  0  0
   -0.9694   -0.1636    0.8072 H   0  0  0  0  0  0  0  0  0  0  0  0
  1  6  2  0  0  0  0
  2  8  1  6  0  0  0
  2 24  1  0  0  0  0
  2  3  1  0  0  0  0
  2  1  1  0  0  0  0
  3  4  1  0  0  0  0
  4  9  1  0  0  0  0
  4  5  2  0  0  0  0
  5 10  1  0  0  0  0
  6 31  1  0  0  0  0
  6  5  1  0  0  0  0
  7  1  1  0  0  0  0
 11  3  2  0  0  0  0
 13 14  2  0  0  0  0
 13 18  1  0  0  0  0
 14 15  1  0  0  0  0
 15 27  1  0  0  0  0
 15 16  2  0  0  0  0
 16 21  1  0  0  0  0
 17 16  1  0  0  0  0
 17 22  1  0  0  0  0
 18 17  2  0  0  0  0
 19 13  1  0  0  0  0
 20 14  1  0  0  0  0
 23 25  1  6  0  0  0
 23 18  1  0  0  0  0
 23 24  1  0  0  0  0
 26 12  2  0  0  0  0
 27 30  1  0  0  0  0
 28 27  1  0  0  0  0
 29 27  1  0  0  0  0
 31 32  1  0  0  0  0
 32 33  1  0  0  0  0
 32 35  1  0  0  0  0
 34 32  1  0  0  0  0
M  RAD  3  11   2  12   2  25   2
M  END
