Coordinates from ORCA-job p-CH3O-Ph-N2-X-OTs-B3LYPG-6-31G_dp-scan-d09-49-n400
 OpenBabel08281821253D

 35 36  0  0  1  0  0  0  0  0999 V2000
    0.0058    0.4136   -3.2543 C   0  0  0  0  0  0  0  0  0  0  0  0
    0.8889    1.5139   -3.7493 C   0  0  1  0  0  0  0  0  0  0  0  0
    0.8721    2.7397   -2.8253 C   0  0  0  0  0  0  0  0  0  0  0  0
    0.3096    2.6653   -1.5013 C   0  0  0  0  0  0  0  0  0  0  0  0
   -0.3718    1.5552   -1.1259 C   0  0  0  0  0  0  0  0  0  0  0  0
   -0.5564    0.4203   -2.0256 C   0  0  0  0  0  0  0  0  0  0  0  0
   -0.1165   -0.4441   -3.9056 H   0  0  0  0  0  0  0  0  0  0  0  0
    0.5688    1.8296   -4.7528 H   0  0  0  0  0  0  0  0  0  0  0  0
    0.4462    3.5052   -0.8295 H   0  0  0  0  0  0  0  0  0  0  0  0
   -0.7847    1.5126   -0.1253 H   0  0  0  0  0  0  0  0  0  0  0  0
    1.4394    3.8096   -3.2470 N   0  0  0  0  0  0  0  0  0  0  0  0
    1.9659    4.6982   -3.8352 N   0  0  0  0  0  0  0  0  0  0  0  0
    5.3349   -0.1672   -5.0219 C   0  0  0  0  0  0  0  0  0  0  0  0
    6.5954   -0.4557   -4.5020 C   0  0  0  0  0  0  0  0  0  0  0  0
    7.1955    0.3851   -3.5535 C   0  0  0  0  0  0  0  0  0  0  0  0
    6.5033    1.5339   -3.1387 C   0  0  0  0  0  0  0  0  0  0  0  0
    5.2413    1.8416   -3.6413 C   0  0  0  0  0  0  0  0  0  0  0  0
    4.6701    0.9725   -4.5755 C   0  0  0  0  0  0  0  0  0  0  0  0
    4.8626   -0.8029   -5.7644 H   0  0  0  0  0  0  0  0  0  0  0  0
    7.1241   -1.3431   -4.8403 H   0  0  0  0  0  0  0  0  0  0  0  0
    6.9633    2.2006   -2.4132 H   0  0  0  0  0  0  0  0  0  0  0  0
    4.7036    2.7375   -3.3300 H   0  0  0  0  0  0  0  0  0  0  0  0
    3.0710    1.3800   -5.2965 S   0  0  2  0  0  0  0  0  0  0  0  0
    2.2412    1.0202   -3.8047 O   0  0  0  0  0  0  0  0  0  0  0  0
    2.7487    0.3084   -6.2833 O   0  0  0  0  0  0  0  0  0  0  0  0
    3.6862    4.5778   -3.6742 O   0  0  0  0  0  0  0  0  0  0  0  0
    8.5519    0.0564   -2.9766 C   0  0  0  0  0  0  0  0  0  0  0  0
    9.1030   -0.6372   -3.6181 H   0  0  0  0  0  0  0  0  0  0  0  0
    9.1594    0.9573   -2.8458 H   0  0  0  0  0  0  0  0  0  0  0  0
    8.4559   -0.4143   -1.9901 H   0  0  0  0  0  0  0  0  0  0  0  0
   -1.2852   -0.6715   -1.6543 O   0  0  0  0  0  0  0  0  0  0  0  0
   -2.0293   -0.6508   -0.4431 C   0  0  0  0  0  0  0  0  0  0  0  0
   -2.5788   -1.5928   -0.4209 H   0  0  0  0  0  0  0  0  0  0  0  0
   -2.7457    0.1798   -0.4143 H   0  0  0  0  0  0  0  0  0  0  0  0
   -1.3792   -0.6032    0.4394 H   0  0  0  0  0  0  0  0  0  0  0  0
  1  6  2  0  0  0  0
  2  8  1  6  0  0  0
  2  1  1  0  0  0  0
  2  3  1  0  0  0  0
  3  4  2  0  0  0  0
  4  5  1  0  0  0  0
  4  9  1  0  0  0  0
  5 10  1  0  0  0  0
  6 31  1  0  0  0  0
  6  5  1  0  0  0  0
  7  1  1  0  0  0  0
 11  3  1  0  0  0  0
 12 26  1  0  0  0  0
 12 11  1  0  0  0  0
 13 18  2  0  0  0  0
 13 14  1  0  0  0  0
 14 15  2  0  0  0  0
 15 16  1  0  0  0  0
 15 27  1  0  0  0  0
 16 21  1  0  0  0  0
 17 22  1  0  0  0  0
 17 16  2  0  0  0  0
 18 17  1  0  0  0  0
 19 13  1  0  0  0  0
 20 14  1  0  0  0  0
 23 25  1  6  0  0  0
 23 18  1  0  0  0  0
 23 24  1  0  0  0  0
 24  2  1  0  0  0  0
 27 29  1  0  0  0  0
 27 30  1  0  0  0  0
 28 27  1  0  0  0  0
 31 32  1  0  0  0  0
 32 33  1  0  0  0  0
 32 34  1  0  0  0  0
 32 35  1  0  0  0  0
M  RAD  5   5   2  11   2  12   2  25   2  26   2
M  END
