Coordinates from ORCA-job p-CH3O-Ph-N2-X-OTs-B3LYPG-6-31G_dp-scan-d09-49-n400
 OpenBabel08281821253D

 35 36  0  0  1  0  0  0  0  0999 V2000
    0.1954    0.5743   -3.1193 C   0  0  0  0  0  0  0  0  0  0  0  0
    1.0783    1.7593   -3.3461 C   0  0  1  0  0  0  0  0  0  0  0  0
    0.9585    2.8681   -2.3026 C   0  0  0  0  0  0  0  0  0  0  0  0
    0.0142    2.7095   -1.2267 C   0  0  0  0  0  0  0  0  0  0  0  0
   -0.7578    1.5978   -1.1250 C   0  0  0  0  0  0  0  0  0  0  0  0
   -0.6734    0.5075   -2.0861 C   0  0  0  0  0  0  0  0  0  0  0  0
    0.2912   -0.2515   -3.8155 H   0  0  0  0  0  0  0  0  0  0  0  0
    0.8204    2.2485   -4.3065 H   0  0  0  0  0  0  0  0  0  0  0  0
   -0.0420    3.5082   -0.4947 H   0  0  0  0  0  0  0  0  0  0  0  0
   -1.4502    1.5180   -0.2942 H   0  0  0  0  0  0  0  0  0  0  0  0
    1.6773    3.9494   -2.3495 N   0  0  0  0  0  0  0  0  0  0  0  0
    2.3526    4.1638   -3.5430 N   0  0  0  0  0  0  0  0  0  0  0  0
    5.2707   -0.4954   -4.5594 C   0  0  0  0  0  0  0  0  0  0  0  0
    6.6096   -0.6561   -4.2124 C   0  0  0  0  0  0  0  0  0  0  0  0
    7.3875    0.4370   -3.7999 C   0  0  0  0  0  0  0  0  0  0  0  0
    6.7890    1.7039   -3.7484 C   0  0  0  0  0  0  0  0  0  0  0  0
    5.4501    1.8848   -4.0919 C   0  0  0  0  0  0  0  0  0  0  0  0
    4.7006    0.7747   -4.4841 C   0  0  0  0  0  0  0  0  0  0  0  0
    4.6600   -1.3308   -4.8871 H   0  0  0  0  0  0  0  0  0  0  0  0
    7.0613   -1.6438   -4.2660 H   0  0  0  0  0  0  0  0  0  0  0  0
    7.3784    2.5614   -3.4354 H   0  0  0  0  0  0  0  0  0  0  0  0
    5.0001    2.8718   -4.0436 H   0  0  0  0  0  0  0  0  0  0  0  0
    2.9856    0.9833   -5.0081 S   0  0  2  0  0  0  0  0  0  0  0  0
    2.4649    1.3501   -3.4088 O   0  0  0  0  0  0  0  0  0  0  0  0
    2.4900   -0.3695   -5.4028 O   0  0  0  0  0  0  0  0  0  0  0  0
    3.4273    4.6645   -3.4322 O   0  0  0  0  0  0  0  0  0  0  0  0
    8.8339    0.2447   -3.4111 C   0  0  0  0  0  0  0  0  0  0  0  0
    9.3663   -0.3696   -4.1448 H   0  0  0  0  0  0  0  0  0  0  0  0
    9.3566    1.2007   -3.3255 H   0  0  0  0  0  0  0  0  0  0  0  0
    8.9154   -0.2662   -2.4440 H   0  0  0  0  0  0  0  0  0  0  0  0
   -1.4415   -0.6164   -1.9699 O   0  0  0  0  0  0  0  0  0  0  0  0
   -2.3851   -0.7222   -0.9148 C   0  0  0  0  0  0  0  0  0  0  0  0
   -2.8718   -1.6888   -1.0520 H   0  0  0  0  0  0  0  0  0  0  0  0
   -3.1473    0.0666   -0.9608 H   0  0  0  0  0  0  0  0  0  0  0  0
   -1.9057   -0.7062    0.0721 H   0  0  0  0  0  0  0  0  0  0  0  0
  1  6  2  0  0  0  0
  2  8  1  6  0  0  0
  2  1  1  0  0  0  0
  2  3  1  0  0  0  0
  3  4  2  0  0  0  0
  4  5  1  0  0  0  0
  4  9  1  0  0  0  0
  5 10  1  0  0  0  0
  6 31  1  0  0  0  0
  6  5  1  0  0  0  0
  7  1  1  0  0  0  0
 11  3  1  0  0  0  0
 12 26  2  0  0  0  0
 12 11  1  0  0  0  0
 13 18  2  0  0  0  0
 13 14  1  0  0  0  0
 14 15  2  0  0  0  0
 15 16  1  0  0  0  0
 15 27  1  0  0  0  0
 16 21  1  0  0  0  0
 17 22  1  0  0  0  0
 17 16  2  0  0  0  0
 18 17  1  0  0  0  0
 19 13  1  0  0  0  0
 20 14  1  0  0  0  0
 23 25  1  1  0  0  0
 23 18  1  0  0  0  0
 23 24  1  0  0  0  0
 24  2  1  0  0  0  0
 27 29  1  0  0  0  0
 27 30  1  0  0  0  0
 28 27  1  0  0  0  0
 31 32  1  0  0  0  0
 32 35  1  0  0  0  0
 33 32  1  0  0  0  0
 34 32  1  0  0  0  0
M  RAD  3   5   2  11   2  25   2
M  END
