Coordinates from ORCA-job p-CH3O-Ph-N2-X-OTs-B3LYPG-6-31G_dp-scan-d09-49-n400
 OpenBabel08281821253D

 35 36  0  0  1  0  0  0  0  0999 V2000
   -0.0715    0.9568   -2.7155 C   0  0  0  0  0  0  0  0  0  0  0  0
    0.8476    2.1186   -2.9193 C   0  0  1  0  0  0  0  0  0  0  0  0
    0.8625    3.0202   -1.7134 C   0  0  0  0  0  0  0  0  0  0  0  0
    0.3870    2.5939   -0.4204 C   0  0  0  0  0  0  0  0  0  0  0  0
   -0.2795    1.4236   -0.3078 C   0  0  0  0  0  0  0  0  0  0  0  0
   -0.5351    0.6148   -1.4894 C   0  0  0  0  0  0  0  0  0  0  0  0
   -0.2528    0.3486   -3.5922 H   0  0  0  0  0  0  0  0  0  0  0  0
    0.5764    2.6867   -3.8210 H   0  0  0  0  0  0  0  0  0  0  0  0
    0.5665    3.2332    0.4380 H   0  0  0  0  0  0  0  0  0  0  0  0
   -0.6551    1.0671    0.6439 H   0  0  0  0  0  0  0  0  0  0  0  0
    1.3850    4.2144   -1.8446 N   0  0  0  0  0  0  0  0  0  0  0  0
    1.8303    5.2608   -1.9631 N   0  0  0  0  0  0  0  0  0  0  0  0
    4.7633   -0.3175   -4.4866 C   0  0  0  0  0  0  0  0  0  0  0  0
    6.1004   -0.6347   -4.2579 C   0  0  0  0  0  0  0  0  0  0  0  0
    7.0324    0.3751   -3.9804 C   0  0  0  0  0  0  0  0  0  0  0  0
    6.5955    1.7047   -3.9352 C   0  0  0  0  0  0  0  0  0  0  0  0
    5.2550    2.0296   -4.1591 C   0  0  0  0  0  0  0  0  0  0  0  0
    4.3365    1.0059   -4.4267 C   0  0  0  0  0  0  0  0  0  0  0  0
    4.0245   -1.0793   -4.7167 H   0  0  0  0  0  0  0  0  0  0  0  0
    6.4254   -1.6704   -4.2975 H   0  0  0  0  0  0  0  0  0  0  0  0
    7.3071    2.5004   -3.7195 H   0  0  0  0  0  0  0  0  0  0  0  0
    5.5182    3.9130   -3.9316 H   0  0  0  0  0  0  0  0  0  0  0  0
    2.6000    1.3767   -4.7726 S   0  0  2  0  0  0  0  0  0  0  0  0
    2.2402    1.6416   -3.1370 O   0  0  0  0  0  0  0  0  0  0  0  0
    1.9974    0.0834   -5.2268 O   0  0  0  0  0  0  0  0  0  0  0  0
    4.7914    3.3103   -4.1352 O   0  0  0  0  0  0  0  0  0  0  0  0
    8.4909    0.0453   -3.7681 C   0  0  0  0  0  0  0  0  0  0  0  0
    8.6148   -0.9634   -3.3643 H   0  0  0  0  0  0  0  0  0  0  0  0
    9.0452    0.0887   -4.7138 H   0  0  0  0  0  0  0  0  0  0  0  0
    8.9675    0.7489   -3.0786 H   0  0  0  0  0  0  0  0  0  0  0  0
   -1.2992   -0.4780   -1.2109 O   0  0  0  0  0  0  0  0  0  0  0  0
   -1.5885   -1.3674   -2.2803 C   0  0  0  0  0  0  0  0  0  0  0  0
   -2.1718   -2.1818   -1.8479 H   0  0  0  0  0  0  0  0  0  0  0  0
   -0.6698   -1.7667   -2.7260 H   0  0  0  0  0  0  0  0  0  0  0  0
   -2.1772   -0.8718   -3.0631 H   0  0  0  0  0  0  0  0  0  0  0  0
  1  6  1  0  0  0  0
  2  8  1  6  0  0  0
  2  1  1  0  0  0  0
  2  3  1  0  0  0  0
  3  4  2  0  0  0  0
  4  5  1  0  0  0  0
  4  9  1  0  0  0  0
  5 10  1  0  0  0  0
  6 31  1  0  0  0  0
  6  5  2  0  0  0  0
  7  1  1  0  0  0  0
 11  3  1  0  0  0  0
 12 11  1  0  0  0  0
 13 18  2  0  0  0  0
 13 14  1  0  0  0  0
 14 15  2  0  0  0  0
 15 16  1  0  0  0  0
 15 27  1  0  0  0  0
 16 21  1  0  0  0  0
 17 26  1  0  0  0  0
 17 16  2  0  0  0  0
 18 17  1  0  0  0  0
 19 13  1  0  0  0  0
 20 14  1  0  0  0  0
 23 25  1  1  0  0  0
 23 18  1  0  0  0  0
 23 24  1  0  0  0  0
 24  2  1  0  0  0  0
 26 22  1  0  0  0  0
 27 28  1  0  0  0  0
 27 30  1  0  0  0  0
 29 27  1  0  0  0  0
 32 33  1  0  0  0  0
 32 31  1  0  0  0  0
 34 32  1  0  0  0  0
 35 32  1  0  0  0  0
M  RAD  4   1   2  11   2  12   3  25   2
M  END
