Coordinates from ORCA-job p-CH3O-Ph-N2-X-OTs-B3LYPG-6-31G_dp-scan-d09-49-n400
 OpenBabel08281821253D

 35 35  0  0  1  0  0  0  0  0999 V2000
    0.2685    0.3141   -3.0968 C   0  0  0  0  0  0  0  0  0  0  0  0
    0.9231    1.4584   -3.7935 C   0  0  1  0  0  0  0  0  0  0  0  0
    0.5165    2.8464   -3.2588 C   0  0  0  0  0  0  0  0  0  0  0  0
    0.1004    2.8815   -1.8412 C   0  0  0  0  0  0  0  0  0  0  0  0
   -0.2838    1.7634   -1.1927 C   0  0  0  0  0  0  0  0  0  0  0  0
   -0.2548    0.4582   -1.8603 C   0  0  0  0  0  0  0  0  0  0  0  0
    0.2850   -0.6646   -3.5641 H   0  0  0  0  0  0  0  0  0  0  0  0
    0.7480    1.4152   -4.8700 H   0  0  0  0  0  0  0  0  0  0  0  0
    0.0400    3.8601   -1.3753 H   0  0  0  0  0  0  0  0  0  0  0  0
   -0.6366    1.8262   -0.1693 H   0  0  0  0  0  0  0  0  0  0  0  0
    0.5556    3.9248   -3.9372 N   0  0  0  0  0  0  0  0  0  0  0  0
    0.8340    3.6887   -5.8375 N   0  0  0  0  0  0  0  0  0  0  0  0
    5.6665    1.1062   -4.9848 C   0  0  0  0  0  0  0  0  0  0  0  0
    6.8359    0.3731   -4.7791 C   0  0  0  0  0  0  0  0  0  0  0  0
    7.2251   -0.0244   -3.4935 C   0  0  0  0  0  0  0  0  0  0  0  0
    6.4126    0.3370   -2.4069 C   0  0  0  0  0  0  0  0  0  0  0  0
    5.2436    1.0697   -2.5948 C   0  0  0  0  0  0  0  0  0  0  0  0
    4.8755    1.4413   -3.8899 C   0  0  0  0  0  0  0  0  0  0  0  0
    5.3557    1.4191   -5.9765 H   0  0  0  0  0  0  0  0  0  0  0  0
    7.4568    0.1068   -5.6308 H   0  0  0  0  0  0  0  0  0  0  0  0
    6.7010    0.0393   -1.4019 H   0  0  0  0  0  0  0  0  0  0  0  0
    4.6190    1.3363   -1.7476 H   0  0  0  0  0  0  0  0  0  0  0  0
    3.4049    2.4615   -4.1600 S   0  0  2  0  0  0  0  0  0  0  0  0
    2.3772    1.2384   -3.5957 O   0  0  0  0  0  0  0  0  0  0  0  0
    3.2644    2.6031   -5.6517 O   0  0  0  0  0  0  0  0  0  0  0  0
    1.1022    4.5229   -6.2048 O   0  0  0  0  0  0  0  0  0  0  0  0
    8.4768   -0.8407   -3.2776 C   0  0  0  0  0  0  0  0  0  0  0  0
    8.2386   -1.9069   -3.1756 H   0  0  0  0  0  0  0  0  0  0  0  0
    9.1718   -0.7390   -4.1163 H   0  0  0  0  0  0  0  0  0  0  0  0
    8.9997   -0.5384   -2.3643 H   0  0  0  0  0  0  0  0  0  0  0  0
   -0.7513   -0.6595   -1.2471 O   0  0  0  0  0  0  0  0  0  0  0  0
   -1.5636   -0.5268   -0.0900 C   0  0  0  0  0  0  0  0  0  0  0  0
   -1.9486   -1.5266    0.1175 H   0  0  0  0  0  0  0  0  0  0  0  0
   -2.4089    0.1530   -0.2541 H   0  0  0  0  0  0  0  0  0  0  0  0
   -0.9907   -0.1862    0.7820 H   0  0  0  0  0  0  0  0  0  0  0  0
  1  6  2  0  0  0  0
  2  8  1  6  0  0  0
  2 24  1  0  0  0  0
  2  3  1  0  0  0  0
  2  1  1  0  0  0  0
  3  4  1  0  0  0  0
  4  9  1  0  0  0  0
  4  5  2  0  0  0  0
  5 10  1  0  0  0  0
  6 31  1  0  0  0  0
  6  5  1  0  0  0  0
  7  1  1  0  0  0  0
 11  3  2  0  0  0  0
 13 14  2  0  0  0  0
 13 18  1  0  0  0  0
 14 15  1  0  0  0  0
 15 27  1  0  0  0  0
 15 16  2  0  0  0  0
 16 21  1  0  0  0  0
 17 16  1  0  0  0  0
 17 22  1  0  0  0  0
 18 17  2  0  0  0  0
 19 13  1  0  0  0  0
 20 14  1  0  0  0  0
 23 25  1  6  0  0  0
 23 18  1  0  0  0  0
 23 24  1  0  0  0  0
 26 12  2  0  0  0  0
 27 28  1  0  0  0  0
 27 30  1  0  0  0  0
 29 27  1  0  0  0  0
 31 32  1  0  0  0  0
 32 33  1  0  0  0  0
 32 35  1  0  0  0  0
 34 32  1  0  0  0  0
M  RAD  3  11   2  12   2  25   2
M  END
