Coordinates from ORCA-job p-CH3O-Ph-N2-X-OTs-B3LYPG-6-31G_dp-scan-d09-49-n400
 OpenBabel08281821253D

 35 36  0  0  1  0  0  0  0  0999 V2000
   -0.1648    0.9114   -2.7040 C   0  0  0  0  0  0  0  0  0  0  0  0
    0.9266    1.9038   -2.9457 C   0  0  1  0  0  0  0  0  0  0  0  0
    1.1111    2.8176   -1.7601 C   0  0  0  0  0  0  0  0  0  0  0  0
    0.5604    2.5262   -0.4606 C   0  0  0  0  0  0  0  0  0  0  0  0
   -0.3010    1.4947   -0.3162 C   0  0  0  0  0  0  0  0  0  0  0  0
   -0.6837    0.6967   -1.4709 C   0  0  0  0  0  0  0  0  0  0  0  0
   -0.4516    0.3149   -3.5605 H   0  0  0  0  0  0  0  0  0  0  0  0
    0.7368    2.4877   -3.8572 H   0  0  0  0  0  0  0  0  0  0  0  0
    0.8477    3.1504    0.3794 H   0  0  0  0  0  0  0  0  0  0  0  0
   -0.7374    1.2421    0.6426 H   0  0  0  0  0  0  0  0  0  0  0  0
    1.8839    3.8630   -1.9165 N   0  0  0  0  0  0  0  0  0  0  0  0
    2.5607    4.7713   -2.0717 N   0  0  0  0  0  0  0  0  0  0  0  0
    4.9785   -0.4198   -4.6307 C   0  0  0  0  0  0  0  0  0  0  0  0
    6.3450   -0.5634   -4.3958 C   0  0  0  0  0  0  0  0  0  0  0  0
    7.1177    0.5372   -4.0010 C   0  0  0  0  0  0  0  0  0  0  0  0
    6.4940    1.7822   -3.8443 C   0  0  0  0  0  0  0  0  0  0  0  0
    5.1252    1.9318   -4.0745 C   0  0  0  0  0  0  0  0  0  0  0  0
    4.3674    0.8177   -4.4609 C   0  0  0  0  0  0  0  0  0  0  0  0
    4.3589   -1.2558   -4.9416 H   0  0  0  0  0  0  0  0  0  0  0  0
    6.8162   -1.5340   -4.5206 H   0  0  0  0  0  0  0  0  0  0  0  0
    7.0807    2.6465   -3.5371 H   0  0  0  0  0  0  0  0  0  0  0  0
    5.0829    3.7979   -3.6176 H   0  0  0  0  0  0  0  0  0  0  0  0
    2.6014    0.9896   -4.8037 S   0  0  2  0  0  0  0  0  0  0  0  0
    2.2194    1.2107   -3.1682 O   0  0  0  0  0  0  0  0  0  0  0  0
    2.1452   -0.3565   -5.2679 O   0  0  0  0  0  0  0  0  0  0  0  0
    4.4750    3.1232   -3.9463 O   0  0  0  0  0  0  0  0  0  0  0  0
    8.6052    0.4003   -3.7797 C   0  0  0  0  0  0  0  0  0  0  0  0
    8.8743   -0.6240   -3.5079 H   0  0  0  0  0  0  0  0  0  0  0  0
    9.1630    0.6538   -4.6901 H   0  0  0  0  0  0  0  0  0  0  0  0
    8.9579    1.0672   -2.9870 H   0  0  0  0  0  0  0  0  0  0  0  0
   -1.6208   -0.2412   -1.1597 O   0  0  0  0  0  0  0  0  0  0  0  0
   -2.0602   -1.1047   -2.1984 C   0  0  0  0  0  0  0  0  0  0  0  0
   -2.7747   -1.7907   -1.7406 H   0  0  0  0  0  0  0  0  0  0  0  0
   -1.2246   -1.6730   -2.6247 H   0  0  0  0  0  0  0  0  0  0  0  0
   -2.5558   -0.5431   -3.0005 H   0  0  0  0  0  0  0  0  0  0  0  0
  1  6  1  0  0  0  0
  2  8  1  6  0  0  0
  2  1  1  0  0  0  0
  2  3  1  0  0  0  0
  3  4  2  0  0  0  0
  4  5  1  0  0  0  0
  4  9  1  0  0  0  0
  5 10  1  0  0  0  0
  6 31  1  0  0  0  0
  6  5  2  0  0  0  0
  7  1  1  0  0  0  0
 11  3  1  0  0  0  0
 12 11  1  0  0  0  0
 13 18  2  0  0  0  0
 13 14  1  0  0  0  0
 14 15  2  0  0  0  0
 15 16  1  0  0  0  0
 15 27  1  0  0  0  0
 16 21  1  0  0  0  0
 17 26  1  0  0  0  0
 17 16  2  0  0  0  0
 18 17  1  0  0  0  0
 19 13  1  0  0  0  0
 20 14  1  0  0  0  0
 23 25  1  1  0  0  0
 23 18  1  0  0  0  0
 23 24  1  0  0  0  0
 24  2  1  0  0  0  0
 26 22  1  0  0  0  0
 27 28  1  0  0  0  0
 27 30  1  0  0  0  0
 29 27  1  0  0  0  0
 32 33  1  0  0  0  0
 32 31  1  0  0  0  0
 34 32  1  0  0  0  0
 35 32  1  0  0  0  0
M  RAD  4   1   2  11   2  12   3  25   2
M  END
