Coordinates from ORCA-job p-CH3O-Ph-N2-X-OTs-B3LYPG-6-31G_dp-scan-d09-49-n400
 OpenBabel08281821253D

 35 36  0  0  1  0  0  0  0  0999 V2000
   -0.1893    0.8524   -2.6664 C   0  0  0  0  0  0  0  0  0  0  0  0
    0.9915    1.7386   -2.9031 C   0  0  1  0  0  0  0  0  0  0  0  0
    1.2767    2.6132   -1.7027 C   0  0  0  0  0  0  0  0  0  0  0  0
    0.5909    2.4739   -0.4452 C   0  0  0  0  0  0  0  0  0  0  0  0
   -0.4165    1.5808   -0.3241 C   0  0  0  0  0  0  0  0  0  0  0  0
   -0.8077    0.7652   -1.4641 C   0  0  0  0  0  0  0  0  0  0  0  0
   -0.4906    0.2471   -3.5120 H   0  0  0  0  0  0  0  0  0  0  0  0
    0.8467    2.3535   -3.8035 H   0  0  0  0  0  0  0  0  0  0  0  0
    0.9095    3.0883    0.3906 H   0  0  0  0  0  0  0  0  0  0  0  0
   -0.9519    1.4413    0.6073 H   0  0  0  0  0  0  0  0  0  0  0  0
    2.2775    3.4491   -1.8188 N   0  0  0  0  0  0  0  0  0  0  0  0
    3.1774    4.1285   -2.0080 N   0  0  0  0  0  0  0  0  0  0  0  0
    5.0835   -0.4461   -4.6454 C   0  0  0  0  0  0  0  0  0  0  0  0
    6.4579   -0.4919   -4.4174 C   0  0  0  0  0  0  0  0  0  0  0  0
    7.1529    0.6619   -4.0297 C   0  0  0  0  0  0  0  0  0  0  0  0
    6.4435    1.8601   -3.8731 C   0  0  0  0  0  0  0  0  0  0  0  0
    5.0664    1.9120   -4.0965 C   0  0  0  0  0  0  0  0  0  0  0  0
    4.3868    0.7454   -4.4743 C   0  0  0  0  0  0  0  0  0  0  0  0
    4.5237   -1.3245   -4.9526 H   0  0  0  0  0  0  0  0  0  0  0  0
    6.9962   -1.4270   -4.5423 H   0  0  0  0  0  0  0  0  0  0  0  0
    6.9689    2.7651   -3.5725 H   0  0  0  0  0  0  0  0  0  0  0  0
    4.8981    3.7721   -3.6363 H   0  0  0  0  0  0  0  0  0  0  0  0
    2.6093    0.7944   -4.8004 S   0  0  2  0  0  0  0  0  0  0  0  0
    2.2132    0.9424   -3.1578 O   0  0  0  0  0  0  0  0  0  0  0  0
    2.2483   -0.5701   -5.2904 O   0  0  0  0  0  0  0  0  0  0  0  0
    4.3362    3.0589   -3.9659 O   0  0  0  0  0  0  0  0  0  0  0  0
    8.6476    0.6309   -3.8172 C   0  0  0  0  0  0  0  0  0  0  0  0
    8.9855   -0.3637   -3.5137 H   0  0  0  0  0  0  0  0  0  0  0  0
    9.1810    0.8885   -4.7408 H   0  0  0  0  0  0  0  0  0  0  0  0
    8.9605    1.3464   -3.0508 H   0  0  0  0  0  0  0  0  0  0  0  0
   -1.8573   -0.0528   -1.1739 O   0  0  0  0  0  0  0  0  0  0  0  0
   -2.3156   -0.9267   -2.1953 C   0  0  0  0  0  0  0  0  0  0  0  0
   -3.1318   -1.5033   -1.7576 H   0  0  0  0  0  0  0  0  0  0  0  0
   -1.5197   -1.6059   -2.5248 H   0  0  0  0  0  0  0  0  0  0  0  0
   -2.6890   -0.3662   -3.0618 H   0  0  0  0  0  0  0  0  0  0  0  0
  1  6  1  0  0  0  0
  2  8  1  6  0  0  0
  2  1  1  0  0  0  0
  2  3  1  0  0  0  0
  3  4  2  0  0  0  0
  4  5  1  0  0  0  0
  4  9  1  0  0  0  0
  5 10  1  0  0  0  0
  6 31  1  0  0  0  0
  6  5  2  0  0  0  0
  7  1  1  0  0  0  0
 11  3  1  0  0  0  0
 12 11  1  0  0  0  0
 13 18  2  0  0  0  0
 13 14  1  0  0  0  0
 14 15  2  0  0  0  0
 15 16  1  0  0  0  0
 15 27  1  0  0  0  0
 16 21  1  0  0  0  0
 17 26  1  0  0  0  0
 17 16  2  0  0  0  0
 18 17  1  0  0  0  0
 19 13  1  0  0  0  0
 20 14  1  0  0  0  0
 23 25  1  1  0  0  0
 23 18  1  0  0  0  0
 23 24  1  0  0  0  0
 24  2  1  0  0  0  0
 26 22  1  0  0  0  0
 27 28  1  0  0  0  0
 27 30  1  0  0  0  0
 29 27  1  0  0  0  0
 32 33  1  0  0  0  0
 32 31  1  0  0  0  0
 34 32  1  0  0  0  0
 35 32  1  0  0  0  0
M  RAD  4   1   2  11   2  12   3  25   2
M  END
