Coordinates from ORCA-job p-CH3O-Ph-N2-X-OTs-B3LYPG-6-31G_dp-scan-d09-49-n400
 OpenBabel08281821253D

 35 35  0  0  1  0  0  0  0  0999 V2000
   -0.0050    0.4055   -3.2708 C   0  0  0  0  0  0  0  0  0  0  0  0
    0.8686    1.5024   -3.7889 C   0  0  1  0  0  0  0  0  0  0  0  0
    0.8476    2.7363   -2.8786 C   0  0  0  0  0  0  0  0  0  0  0  0
    0.3259    2.6690   -1.5398 C   0  0  0  0  0  0  0  0  0  0  0  0
   -0.3357    1.5550   -1.1384 C   0  0  0  0  0  0  0  0  0  0  0  0
   -0.5367    0.4161   -2.0280 C   0  0  0  0  0  0  0  0  0  0  0  0
   -0.1418   -0.4555   -3.9148 H   0  0  0  0  0  0  0  0  0  0  0  0
    0.5441    1.7983   -4.7965 H   0  0  0  0  0  0  0  0  0  0  0  0
    0.4734    3.5147   -0.8776 H   0  0  0  0  0  0  0  0  0  0  0  0
   -0.7205    1.5151   -0.1268 H   0  0  0  0  0  0  0  0  0  0  0  0
    1.3934    3.8104   -3.3263 N   0  0  0  0  0  0  0  0  0  0  0  0
    1.8962    4.7312   -3.8617 N   0  0  0  0  0  0  0  0  0  0  0  0
    5.3305   -0.1331   -5.0366 C   0  0  0  0  0  0  0  0  0  0  0  0
    6.5818   -0.4411   -4.5059 C   0  0  0  0  0  0  0  0  0  0  0  0
    7.1725    0.3731   -3.5286 C   0  0  0  0  0  0  0  0  0  0  0  0
    6.4805    1.5153   -3.0960 C   0  0  0  0  0  0  0  0  0  0  0  0
    5.2274    1.8420   -3.6089 C   0  0  0  0  0  0  0  0  0  0  0  0
    4.6651    0.9991   -4.5721 C   0  0  0  0  0  0  0  0  0  0  0  0
    4.8661   -0.7472   -5.8019 H   0  0  0  0  0  0  0  0  0  0  0  0
    7.1109   -1.3229   -4.8581 H   0  0  0  0  0  0  0  0  0  0  0  0
    6.9337    2.1615   -2.3480 H   0  0  0  0  0  0  0  0  0  0  0  0
    4.6884    2.7329   -3.2859 H   0  0  0  0  0  0  0  0  0  0  0  0
    3.0775    1.4312   -5.3047 S   0  0  2  0  0  0  0  0  0  0  0  0
    2.2229    1.0114   -3.8404 O   0  0  0  0  0  0  0  0  0  0  0  0
    2.7735    0.3949   -6.3344 O   0  0  0  0  0  0  0  0  0  0  0  0
    3.7019    4.5619   -3.6834 O   0  0  0  0  0  0  0  0  0  0  0  0
    8.5185    0.0225   -2.9403 C   0  0  0  0  0  0  0  0  0  0  0  0
    9.0770   -0.6550   -3.5928 H   0  0  0  0  0  0  0  0  0  0  0  0
    9.1274    0.9166   -2.7745 H   0  0  0  0  0  0  0  0  0  0  0  0
    8.4053   -0.4760   -1.9694 H   0  0  0  0  0  0  0  0  0  0  0  0
   -1.2535   -0.6763   -1.6357 O   0  0  0  0  0  0  0  0  0  0  0  0
   -1.9664   -0.6539   -0.4059 C   0  0  0  0  0  0  0  0  0  0  0  0
   -2.5127   -1.5971   -0.3668 H   0  0  0  0  0  0  0  0  0  0  0  0
   -2.6838    0.1751   -0.3611 H   0  0  0  0  0  0  0  0  0  0  0  0
   -1.2937   -0.6019    0.4593 H   0  0  0  0  0  0  0  0  0  0  0  0
  1  6  2  0  0  0  0
  2  8  1  6  0  0  0
  2  1  1  0  0  0  0
  2  3  1  0  0  0  0
  3  4  2  0  0  0  0
  4  5  1  0  0  0  0
  4  9  1  0  0  0  0
  5 10  1  0  0  0  0
  6 31  1  0  0  0  0
  6  5  1  0  0  0  0
  7  1  1  0  0  0  0
 11  3  1  0  0  0  0
 12 11  1  0  0  0  0
 13 18  2  0  0  0  0
 13 14  1  0  0  0  0
 14 15  2  0  0  0  0
 15 16  1  0  0  0  0
 15 27  1  0  0  0  0
 16 21  1  0  0  0  0
 17 22  1  0  0  0  0
 17 16  2  0  0  0  0
 18 17  1  0  0  0  0
 19 13  1  0  0  0  0
 20 14  1  0  0  0  0
 23 25  1  6  0  0  0
 23 18  1  0  0  0  0
 23 24  1  0  0  0  0
 24  2  1  0  0  0  0
 27 29  1  0  0  0  0
 27 30  1  0  0  0  0
 28 27  1  0  0  0  0
 31 32  1  0  0  0  0
 32 33  1  0  0  0  0
 32 34  1  0  0  0  0
 32 35  1  0  0  0  0
M  RAD  5   5   2  11   2  12   3  25   2  26   3
M  END
