Coordinates from ORCA-job p-CH3O-Ph-N2-X-OTs-B3LYPG-6-31G_dp-scan-d09-49-n400
 OpenBabel08281821253D

 35 35  0  0  1  0  0  0  0  0999 V2000
    0.2703    0.3216   -3.1110 C   0  0  0  0  0  0  0  0  0  0  0  0
    0.9293    1.4684   -3.8004 C   0  0  1  0  0  0  0  0  0  0  0  0
    0.5166    2.8520   -3.2595 C   0  0  0  0  0  0  0  0  0  0  0  0
    0.1113    2.8819   -1.8398 C   0  0  0  0  0  0  0  0  0  0  0  0
   -0.2707    1.7599   -1.1967 C   0  0  0  0  0  0  0  0  0  0  0  0
   -0.2489    0.4586   -1.8722 C   0  0  0  0  0  0  0  0  0  0  0  0
    0.2860   -0.6542   -3.5843 H   0  0  0  0  0  0  0  0  0  0  0  0
    0.7628    1.4280   -4.8781 H   0  0  0  0  0  0  0  0  0  0  0  0
    0.0541    3.8577   -1.3678 H   0  0  0  0  0  0  0  0  0  0  0  0
   -0.6175    1.8173   -0.1709 H   0  0  0  0  0  0  0  0  0  0  0  0
    0.5409    3.9370   -3.9305 N   0  0  0  0  0  0  0  0  0  0  0  0
    0.7854    3.6861   -5.7896 N   0  0  0  0  0  0  0  0  0  0  0  0
    5.6612    1.0884   -4.9856 C   0  0  0  0  0  0  0  0  0  0  0  0
    6.8280    0.3521   -4.7764 C   0  0  0  0  0  0  0  0  0  0  0  0
    7.2233   -0.0282   -3.4874 C   0  0  0  0  0  0  0  0  0  0  0  0
    6.4200    0.3542   -2.4010 C   0  0  0  0  0  0  0  0  0  0  0  0
    5.2538    1.0904   -2.5925 C   0  0  0  0  0  0  0  0  0  0  0  0
    4.8794    1.4442   -3.8907 C   0  0  0  0  0  0  0  0  0  0  0  0
    5.3458    1.3884   -5.9798 H   0  0  0  0  0  0  0  0  0  0  0  0
    7.4419    0.0696   -5.6279 H   0  0  0  0  0  0  0  0  0  0  0  0
    6.7136    0.0703   -1.3935 H   0  0  0  0  0  0  0  0  0  0  0  0
    4.6366    1.3738   -1.7453 H   0  0  0  0  0  0  0  0  0  0  0  0
    3.4122    2.4674   -4.1677 S   0  0  2  0  0  0  0  0  0  0  0  0
    2.3796    1.2516   -3.5875 O   0  0  0  0  0  0  0  0  0  0  0  0
    3.2649    2.5948   -5.6585 O   0  0  0  0  0  0  0  0  0  0  0  0
    1.0440    4.5306   -6.1913 O   0  0  0  0  0  0  0  0  0  0  0  0
    8.4720   -0.8478   -3.2671 C   0  0  0  0  0  0  0  0  0  0  0  0
    8.2282   -1.9101   -3.1411 H   0  0  0  0  0  0  0  0  0  0  0  0
    9.1594   -0.7676   -4.1144 H   0  0  0  0  0  0  0  0  0  0  0  0
    9.0056   -0.5303   -2.3652 H   0  0  0  0  0  0  0  0  0  0  0  0
   -0.7462   -0.6609   -1.2638 O   0  0  0  0  0  0  0  0  0  0  0  0
   -1.5567   -0.5326   -0.1047 C   0  0  0  0  0  0  0  0  0  0  0  0
   -1.9439   -1.5325    0.0976 H   0  0  0  0  0  0  0  0  0  0  0  0
   -2.4004    0.1502   -0.2641 H   0  0  0  0  0  0  0  0  0  0  0  0
   -0.9817   -0.1985    0.7683 H   0  0  0  0  0  0  0  0  0  0  0  0
  1  6  2  0  0  0  0
  2  8  1  6  0  0  0
  2 24  1  0  0  0  0
  2  3  1  0  0  0  0
  2  1  1  0  0  0  0
  3  4  1  0  0  0  0
  4  9  1  0  0  0  0
  4  5  2  0  0  0  0
  5 10  1  0  0  0  0
  6 31  1  0  0  0  0
  6  5  1  0  0  0  0
  7  1  1  0  0  0  0
 11  3  2  0  0  0  0
 13 14  2  0  0  0  0
 13 18  1  0  0  0  0
 14 15  1  0  0  0  0
 15 27  1  0  0  0  0
 15 16  2  0  0  0  0
 16 21  1  0  0  0  0
 17 16  1  0  0  0  0
 17 22  1  0  0  0  0
 18 17  2  0  0  0  0
 19 13  1  0  0  0  0
 20 14  1  0  0  0  0
 23 25  1  6  0  0  0
 23 18  1  0  0  0  0
 23 24  1  0  0  0  0
 26 12  2  0  0  0  0
 27 28  1  0  0  0  0
 27 30  1  0  0  0  0
 29 27  1  0  0  0  0
 31 32  1  0  0  0  0
 32 33  1  0  0  0  0
 32 35  1  0  0  0  0
 34 32  1  0  0  0  0
M  RAD  3  11   2  12   2  25   2
M  END
