Coordinates from ORCA-job p-CH3O-Ph-N2-X-OTs-B3LYPG-6-31G_dp-scan-d09-49-n400
 OpenBabel08281821253D

 35 36  0  0  1  0  0  0  0  0999 V2000
    0.0678    0.4960   -3.2059 C   0  0  0  0  0  0  0  0  0  0  0  0
    0.9672    1.6279   -3.5885 C   0  0  1  0  0  0  0  0  0  0  0  0
    0.9127    2.8063   -2.6100 C   0  0  0  0  0  0  0  0  0  0  0  0
    0.2095    2.6869   -1.3587 C   0  0  0  0  0  0  0  0  0  0  0  0
   -0.5201    1.5755   -1.0953 C   0  0  0  0  0  0  0  0  0  0  0  0
   -0.6132    0.4657   -2.0399 C   0  0  0  0  0  0  0  0  0  0  0  0
    0.0310   -0.3470   -3.8868 H   0  0  0  0  0  0  0  0  0  0  0  0
    0.6861    2.0204   -4.5801 H   0  0  0  0  0  0  0  0  0  0  0  0
    0.2775    3.5045   -0.6497 H   0  0  0  0  0  0  0  0  0  0  0  0
   -1.0422    1.5098   -0.1480 H   0  0  0  0  0  0  0  0  0  0  0  0
    1.5367    3.8892   -2.9143 N   0  0  0  0  0  0  0  0  0  0  0  0
    2.0522    4.5399   -3.8233 N   0  0  0  0  0  0  0  0  0  0  0  0
    5.3409   -0.2992   -4.9292 C   0  0  0  0  0  0  0  0  0  0  0  0
    6.6385   -0.5220   -4.4710 C   0  0  0  0  0  0  0  0  0  0  0  0
    7.2819    0.4082   -3.6426 C   0  0  0  0  0  0  0  0  0  0  0  0
    6.5933    1.5779   -3.2836 C   0  0  0  0  0  0  0  0  0  0  0  0
    5.2957    1.8210   -3.7269 C   0  0  0  0  0  0  0  0  0  0  0  0
    4.6822    0.8661   -4.5435 C   0  0  0  0  0  0  0  0  0  0  0  0
    4.8333   -1.0095   -5.5744 H   0  0  0  0  0  0  0  0  0  0  0  0
    7.1612   -1.4289   -4.7642 H   0  0  0  0  0  0  0  0  0  0  0  0
    7.0833    2.3119   -2.6484 H   0  0  0  0  0  0  0  0  0  0  0  0
    4.7628    2.7282   -3.4468 H   0  0  0  0  0  0  0  0  0  0  0  0
    3.0376    1.1809   -5.2106 S   0  0  2  0  0  0  0  0  0  0  0  0
    2.3293    1.1583   -3.6295 O   0  0  0  0  0  0  0  0  0  0  0  0
    2.6271   -0.0478   -5.9518 O   0  0  0  0  0  0  0  0  0  0  0  0
    3.6233    4.5436   -3.7833 O   0  0  0  0  0  0  0  0  0  0  0  0
    8.6794    0.1527   -3.1306 C   0  0  0  0  0  0  0  0  0  0  0  0
    9.2092   -0.5719   -3.7554 H   0  0  0  0  0  0  0  0  0  0  0  0
    9.2688    1.0742   -3.1010 H   0  0  0  0  0  0  0  0  0  0  0  0
    8.6563   -0.2492   -2.1099 H   0  0  0  0  0  0  0  0  0  0  0  0
   -1.3666   -0.6400   -1.7702 O   0  0  0  0  0  0  0  0  0  0  0  0
   -2.1909   -0.6731   -0.6134 C   0  0  0  0  0  0  0  0  0  0  0  0
   -2.7292   -1.6205   -0.6644 H   0  0  0  0  0  0  0  0  0  0  0  0
   -2.9188    0.1482   -0.6021 H   0  0  0  0  0  0  0  0  0  0  0  0
   -1.6035   -0.6526    0.3130 H   0  0  0  0  0  0  0  0  0  0  0  0
  1  6  2  0  0  0  0
  2  8  1  6  0  0  0
  2  1  1  0  0  0  0
  2  3  1  0  0  0  0
  3  4  2  0  0  0  0
  4  5  1  0  0  0  0
  4  9  1  0  0  0  0
  5 10  1  0  0  0  0
  6 31  1  0  0  0  0
  6  5  1  0  0  0  0
  7  1  1  0  0  0  0
 11  3  1  0  0  0  0
 12 26  1  0  0  0  0
 12 11  1  0  0  0  0
 13 18  2  0  0  0  0
 13 14  1  0  0  0  0
 14 15  2  0  0  0  0
 15 16  1  0  0  0  0
 15 27  1  0  0  0  0
 16 21  1  0  0  0  0
 17 22  1  0  0  0  0
 17 16  2  0  0  0  0
 18 17  1  0  0  0  0
 19 13  1  0  0  0  0
 20 14  1  0  0  0  0
 23 25  1  6  0  0  0
 23 18  1  0  0  0  0
 23 24  1  0  0  0  0
 24  2  1  0  0  0  0
 27 29  1  0  0  0  0
 27 30  1  0  0  0  0
 28 27  1  0  0  0  0
 31 32  1  0  0  0  0
 32 34  1  0  0  0  0
 32 35  1  0  0  0  0
 33 32  1  0  0  0  0
M  RAD  5   5   2  11   2  12   2  25   2  26   2
M  END
