Coordinates from ORCA-job p-CH3O-Ph-N2-X-OTs-B3LYPG-6-31G_dp-scan-d09-49-n400
 OpenBabel08281821253D

 35 36  0  0  1  0  0  0  0  0999 V2000
   -0.0969    0.9480   -2.7122 C   0  0  0  0  0  0  0  0  0  0  0  0
    0.8649    2.0734   -2.9222 C   0  0  1  0  0  0  0  0  0  0  0  0
    0.9171    2.9796   -1.7203 C   0  0  0  0  0  0  0  0  0  0  0  0
    0.4171    2.5838   -0.4273 C   0  0  0  0  0  0  0  0  0  0  0  0
   -0.2980    1.4430   -0.3093 C   0  0  0  0  0  0  0  0  0  0  0  0
   -0.5787    0.6344   -1.4854 C   0  0  0  0  0  0  0  0  0  0  0  0
   -0.2999    0.3406   -3.5847 H   0  0  0  0  0  0  0  0  0  0  0  0
    0.6144    2.6469   -3.8264 H   0  0  0  0  0  0  0  0  0  0  0  0
    0.6193    3.2212    0.4274 H   0  0  0  0  0  0  0  0  0  0  0  0
   -0.6931    1.1100    0.6429 H   0  0  0  0  0  0  0  0  0  0  0  0
    1.5058    4.1421   -1.8556 N   0  0  0  0  0  0  0  0  0  0  0  0
    2.0115    5.1598   -1.9811 N   0  0  0  0  0  0  0  0  0  0  0  0
    4.8142   -0.3457   -4.5174 C   0  0  0  0  0  0  0  0  0  0  0  0
    6.1607   -0.6232   -4.2907 C   0  0  0  0  0  0  0  0  0  0  0  0
    7.0578    0.4108   -3.9888 C   0  0  0  0  0  0  0  0  0  0  0  0
    6.5771    1.7243   -3.9174 C   0  0  0  0  0  0  0  0  0  0  0  0
    5.2275    2.0092   -4.1394 C   0  0  0  0  0  0  0  0  0  0  0  0
    4.3442    0.9612   -4.4316 C   0  0  0  0  0  0  0  0  0  0  0  0
    4.1011   -1.1268   -4.7632 H   0  0  0  0  0  0  0  0  0  0  0  0
    6.5199   -1.6464   -4.3505 H   0  0  0  0  0  0  0  0  0  0  0  0
    7.2616    2.5380   -3.6822 H   0  0  0  0  0  0  0  0  0  0  0  0
    5.4241    3.8952   -3.8664 H   0  0  0  0  0  0  0  0  0  0  0  0
    2.5984    1.2852   -4.7744 S   0  0  2  0  0  0  0  0  0  0  0  0
    2.2380    1.5459   -3.1391 O   0  0  0  0  0  0  0  0  0  0  0  0
    2.0279   -0.0229   -5.2263 O   0  0  0  0  0  0  0  0  0  0  0  0
    4.7204    3.2727   -4.0902 O   0  0  0  0  0  0  0  0  0  0  0  0
    8.5257    0.1253   -3.7775 C   0  0  0  0  0  0  0  0  0  0  0  0
    8.6832   -0.8919   -3.4082 H   0  0  0  0  0  0  0  0  0  0  0  0
    9.0843    0.2211   -4.7170 H   0  0  0  0  0  0  0  0  0  0  0  0
    8.9729    0.8208   -3.0607 H   0  0  0  0  0  0  0  0  0  0  0  0
   -1.3848   -0.4262   -1.2013 O   0  0  0  0  0  0  0  0  0  0  0  0
   -1.7007   -1.3153   -2.2634 C   0  0  0  0  0  0  0  0  0  0  0  0
   -2.3141   -2.1045   -1.8258 H   0  0  0  0  0  0  0  0  0  0  0  0
   -0.7946   -1.7511   -2.7008 H   0  0  0  0  0  0  0  0  0  0  0  0
   -2.2683   -0.8072   -3.0537 H   0  0  0  0  0  0  0  0  0  0  0  0
  1  6  1  0  0  0  0
  2  8  1  6  0  0  0
  2  1  1  0  0  0  0
  2  3  1  0  0  0  0
  3  4  2  0  0  0  0
  4  5  1  0  0  0  0
  4  9  1  0  0  0  0
  5 10  1  0  0  0  0
  6 31  1  0  0  0  0
  6  5  2  0  0  0  0
  7  1  1  0  0  0  0
 11  3  1  0  0  0  0
 12 11  1  0  0  0  0
 13 18  2  0  0  0  0
 13 14  1  0  0  0  0
 14 15  2  0  0  0  0
 15 16  1  0  0  0  0
 15 27  1  0  0  0  0
 16 21  1  0  0  0  0
 17 26  1  0  0  0  0
 17 16  2  0  0  0  0
 18 17  1  0  0  0  0
 19 13  1  0  0  0  0
 20 14  1  0  0  0  0
 23 25  1  1  0  0  0
 23 18  1  0  0  0  0
 23 24  1  0  0  0  0
 24  2  1  0  0  0  0
 26 22  1  0  0  0  0
 27 28  1  0  0  0  0
 27 30  1  0  0  0  0
 29 27  1  0  0  0  0
 32 33  1  0  0  0  0
 32 31  1  0  0  0  0
 34 32  1  0  0  0  0
 35 32  1  0  0  0  0
M  RAD  4   1   2  11   2  12   3  25   2
M  END
