Coordinates from ORCA-job p-CH3O-Ph-N2-X-OTs-B3LYPG-6-31G_dp-scan-d09-49-n400
 OpenBabel08281821253D

 35 36  0  0  1  0  0  0  0  0999 V2000
   -0.0156    0.9688   -2.7237 C   0  0  0  0  0  0  0  0  0  0  0  0
    0.8145    2.1986   -2.9126 C   0  0  1  0  0  0  0  0  0  0  0  0
    0.7604    3.0815   -1.6945 C   0  0  0  0  0  0  0  0  0  0  0  0
    0.3470    2.5915   -0.4020 C   0  0  0  0  0  0  0  0  0  0  0  0
   -0.2183    1.3679   -0.3036 C   0  0  0  0  0  0  0  0  0  0  0  0
   -0.4329    0.5678   -1.4990 C   0  0  0  0  0  0  0  0  0  0  0  0
   -0.1601    0.3670   -3.6114 H   0  0  0  0  0  0  0  0  0  0  0  0
    0.4994    2.7574   -3.8055 H   0  0  0  0  0  0  0  0  0  0  0  0
    0.4870    3.2271    0.4664 H   0  0  0  0  0  0  0  0  0  0  0  0
   -0.5451    0.9621    0.6464 H   0  0  0  0  0  0  0  0  0  0  0  0
    1.1399    4.3298   -1.8138 N   0  0  0  0  0  0  0  0  0  0  0  0
    1.4542    5.4245   -1.9146 N   0  0  0  0  0  0  0  0  0  0  0  0
    4.6480   -0.2391   -4.4005 C   0  0  0  0  0  0  0  0  0  0  0  0
    5.9591   -0.6418   -4.1601 C   0  0  0  0  0  0  0  0  0  0  0  0
    6.9674    0.3104   -3.9522 C   0  0  0  0  0  0  0  0  0  0  0  0
    6.6317    1.6688   -3.9895 C   0  0  0  0  0  0  0  0  0  0  0  0
    5.3166    2.0799   -4.2253 C   0  0  0  0  0  0  0  0  0  0  0  0
    4.3209    1.1144   -4.4212 C   0  0  0  0  0  0  0  0  0  0  0  0
    3.8531   -0.9562   -4.5830 H   0  0  0  0  0  0  0  0  0  0  0  0
    6.2050   -1.6998   -4.1359 H   0  0  0  0  0  0  0  0  0  0  0  0
    7.4033    2.4208   -3.8305 H   0  0  0  0  0  0  0  0  0  0  0  0
    5.7294    3.9471   -4.1272 H   0  0  0  0  0  0  0  0  0  0  0  0
    2.6091    1.5843   -4.7765 S   0  0  2  0  0  0  0  0  0  0  0  0
    2.2390    1.8233   -3.1367 O   0  0  0  0  0  0  0  0  0  0  0  0
    1.9460    0.3322   -5.2632 O   0  0  0  0  0  0  0  0  0  0  0  0
    4.9546    3.3918   -4.2825 O   0  0  0  0  0  0  0  0  0  0  0  0
    8.3989   -0.1152   -3.7286 C   0  0  0  0  0  0  0  0  0  0  0  0
    8.4503   -1.0910   -3.2374 H   0  0  0  0  0  0  0  0  0  0  0  0
    8.9361   -0.2002   -4.6812 H   0  0  0  0  0  0  0  0  0  0  0  0
    8.9428    0.6062   -3.1111 H   0  0  0  0  0  0  0  0  0  0  0  0
   -1.1106   -0.5841   -1.2339 O   0  0  0  0  0  0  0  0  0  0  0  0
   -1.3624   -1.4630   -2.3212 C   0  0  0  0  0  0  0  0  0  0  0  0
   -1.8833   -2.3243   -1.9007 H   0  0  0  0  0  0  0  0  0  0  0  0
   -0.4287   -1.7904   -2.7937 H   0  0  0  0  0  0  0  0  0  0  0  0
   -1.9963   -0.9864   -3.0803 H   0  0  0  0  0  0  0  0  0  0  0  0
  1  6  1  0  0  0  0
  2  8  1  6  0  0  0
  2  1  1  0  0  0  0
  2  3  1  0  0  0  0
  3  4  2  0  0  0  0
  4  5  1  0  0  0  0
  4  9  1  0  0  0  0
  5 10  1  0  0  0  0
  6 31  1  0  0  0  0
  6  5  2  0  0  0  0
  7  1  1  0  0  0  0
 11  3  1  0  0  0  0
 12 11  1  0  0  0  0
 13 14  1  0  0  0  0
 14 20  1  0  0  0  0
 14 15  2  0  0  0  0
 15 27  1  0  0  0  0
 16 15  1  0  0  0  0
 16 21  1  0  0  0  0
 17 16  2  0  0  0  0
 18 13  2  0  0  0  0
 18 17  1  0  0  0  0
 19 13  1  0  0  0  0
 23 25  1  1  0  0  0
 23 18  1  0  0  0  0
 23 24  1  0  0  0  0
 24  2  1  0  0  0  0
 26 17  1  0  0  0  0
 26 22  1  0  0  0  0
 27 28  1  0  0  0  0
 27 30  1  0  0  0  0
 29 27  1  0  0  0  0
 32 33  1  0  0  0  0
 32 31  1  0  0  0  0
 34 32  1  0  0  0  0
 35 32  1  0  0  0  0
M  RAD  4   1   2  11   2  12   3  25   2
M  END
