Coordinates from ORCA-job p-CH3O-Ph-N2-X-OTs-B3LYPG-6-31G_dp-scan-d09-49-n400
 OpenBabel08281821253D

 35 36  0  0  1  0  0  0  0  0999 V2000
   -0.1184    0.9354   -2.7092 C   0  0  0  0  0  0  0  0  0  0  0  0
    0.8804    2.0250   -2.9333 C   0  0  1  0  0  0  0  0  0  0  0  0
    0.9699    2.9404   -1.7400 C   0  0  0  0  0  0  0  0  0  0  0  0
    0.4533    2.5795   -0.4436 C   0  0  0  0  0  0  0  0  0  0  0  0
   -0.3044    1.4679   -0.3130 C   0  0  0  0  0  0  0  0  0  0  0  0
   -0.6124    0.6548   -1.4792 C   0  0  0  0  0  0  0  0  0  0  0  0
   -0.3447    0.3256   -3.5743 H   0  0  0  0  0  0  0  0  0  0  0  0
    0.6463    2.5979   -3.8420 H   0  0  0  0  0  0  0  0  0  0  0  0
    0.6790    3.2186    0.4041 H   0  0  0  0  0  0  0  0  0  0  0  0
   -0.7129    1.1615    0.6425 H   0  0  0  0  0  0  0  0  0  0  0  0
    1.6147    4.0713   -1.8862 N   0  0  0  0  0  0  0  0  0  0  0  0
    2.1720    5.0600   -2.0241 N   0  0  0  0  0  0  0  0  0  0  0  0
    4.8655   -0.3679   -4.5682 C   0  0  0  0  0  0  0  0  0  0  0  0
    6.2190   -0.6080   -4.3398 C   0  0  0  0  0  0  0  0  0  0  0  0
    7.0786    0.4441   -3.9949 C   0  0  0  0  0  0  0  0  0  0  0  0
    6.5536    1.7379   -3.8821 C   0  0  0  0  0  0  0  0  0  0  0  0
    5.1972    1.9849   -4.1058 C   0  0  0  0  0  0  0  0  0  0  0  0
    4.3517    0.9187   -4.4417 C   0  0  0  0  0  0  0  0  0  0  0  0
    4.1805   -1.1638   -4.8449 H   0  0  0  0  0  0  0  0  0  0  0  0
    6.6128   -1.6160   -4.4315 H   0  0  0  0  0  0  0  0  0  0  0  0
    7.2086    2.5651   -3.6129 H   0  0  0  0  0  0  0  0  0  0  0  0
    5.3233    3.8658   -3.7580 H   0  0  0  0  0  0  0  0  0  0  0  0
    2.5994    1.2006   -4.7853 S   0  0  2  0  0  0  0  0  0  0  0  0
    2.2332    1.4502   -3.1502 O   0  0  0  0  0  0  0  0  0  0  0  0
    2.0603   -0.1185   -5.2419 O   0  0  0  0  0  0  0  0  0  0  0  0
    4.6458    3.2278   -4.0166 O   0  0  0  0  0  0  0  0  0  0  0  0
    8.5536    0.2010   -3.7806 C   0  0  0  0  0  0  0  0  0  0  0  0
    8.7447   -0.8278   -3.4633 H   0  0  0  0  0  0  0  0  0  0  0  0
    9.1186    0.3669   -4.7065 H   0  0  0  0  0  0  0  0  0  0  0  0
    8.9673    0.8734   -3.0226 H   0  0  0  0  0  0  0  0  0  0  0  0
   -1.4560   -0.3725   -1.1823 O   0  0  0  0  0  0  0  0  0  0  0  0
   -1.8047   -1.2628   -2.2330 C   0  0  0  0  0  0  0  0  0  0  0  0
   -2.4459   -2.0238   -1.7852 H   0  0  0  0  0  0  0  0  0  0  0  0
   -0.9154   -1.7370   -2.6651 H   0  0  0  0  0  0  0  0  0  0  0  0
   -2.3544   -0.7447   -3.0293 H   0  0  0  0  0  0  0  0  0  0  0  0
  1  6  1  0  0  0  0
  2  8  1  6  0  0  0
  2  1  1  0  0  0  0
  2  3  1  0  0  0  0
  3  4  2  0  0  0  0
  4  5  1  0  0  0  0
  4  9  1  0  0  0  0
  5 10  1  0  0  0  0
  6 31  1  0  0  0  0
  6  5  2  0  0  0  0
  7  1  1  0  0  0  0
 11  3  1  0  0  0  0
 12 11  1  0  0  0  0
 13 18  2  0  0  0  0
 13 14  1  0  0  0  0
 14 15  2  0  0  0  0
 15 16  1  0  0  0  0
 15 27  1  0  0  0  0
 16 21  1  0  0  0  0
 17 26  1  0  0  0  0
 17 16  2  0  0  0  0
 18 17  1  0  0  0  0
 19 13  1  0  0  0  0
 20 14  1  0  0  0  0
 23 25  1  1  0  0  0
 23 18  1  0  0  0  0
 23 24  1  0  0  0  0
 24  2  1  0  0  0  0
 26 22  1  0  0  0  0
 27 28  1  0  0  0  0
 27 30  1  0  0  0  0
 29 27  1  0  0  0  0
 32 33  1  0  0  0  0
 32 31  1  0  0  0  0
 34 32  1  0  0  0  0
 35 32  1  0  0  0  0
M  RAD  4   1   2  11   2  12   3  25   2
M  END
