Coordinates from ORCA-job p-CH3O-Ph-N2-X-OTs-B3LYPG-6-31G_dp-scan-d09-49-n400
 OpenBabel08281821253D

 35 36  0  0  1  0  0  0  0  0999 V2000
   -0.0934    0.9491   -2.7129 C   0  0  0  0  0  0  0  0  0  0  0  0
    0.8627    2.0793   -2.9235 C   0  0  1  0  0  0  0  0  0  0  0  0
    0.9108    2.9859   -1.7219 C   0  0  0  0  0  0  0  0  0  0  0  0
    0.4145    2.5873   -0.4283 C   0  0  0  0  0  0  0  0  0  0  0  0
   -0.2943    1.4426   -0.3097 C   0  0  0  0  0  0  0  0  0  0  0  0
   -0.5722    0.6328   -1.4856 C   0  0  0  0  0  0  0  0  0  0  0  0
   -0.2940    0.3408   -3.5853 H   0  0  0  0  0  0  0  0  0  0  0  0
    0.6090    2.6513   -3.8277 H   0  0  0  0  0  0  0  0  0  0  0  0
    0.6141    3.2258    0.4263 H   0  0  0  0  0  0  0  0  0  0  0  0
   -0.6864    1.1073    0.6430 H   0  0  0  0  0  0  0  0  0  0  0  0
    1.4913    4.1524   -1.8584 N   0  0  0  0  0  0  0  0  0  0  0  0
    1.9898    5.1735   -1.9851 N   0  0  0  0  0  0  0  0  0  0  0  0
    4.8086   -0.3429   -4.5193 C   0  0  0  0  0  0  0  0  0  0  0  0
    6.1540   -0.6249   -4.2917 C   0  0  0  0  0  0  0  0  0  0  0  0
    7.0541    0.4059   -3.9877 C   0  0  0  0  0  0  0  0  0  0  0  0
    6.5774    1.7208   -3.9149 C   0  0  0  0  0  0  0  0  0  0  0  0
    5.2288    2.0102   -4.1377 C   0  0  0  0  0  0  0  0  0  0  0  0
    4.3426    0.9654   -4.4322 C   0  0  0  0  0  0  0  0  0  0  0  0
    4.0934   -1.1214   -4.7674 H   0  0  0  0  0  0  0  0  0  0  0  0
    6.5101   -1.6491   -4.3527 H   0  0  0  0  0  0  0  0  0  0  0  0
    7.2641    2.5321   -3.6779 H   0  0  0  0  0  0  0  0  0  0  0  0
    5.4312    3.8952   -3.8622 H   0  0  0  0  0  0  0  0  0  0  0  0
    2.5981    1.2953   -4.7758 S   0  0  2  0  0  0  0  0  0  0  0  0
    2.2385    1.5587   -3.1408 O   0  0  0  0  0  0  0  0  0  0  0  0
    2.0228   -0.0111   -5.2266 O   0  0  0  0  0  0  0  0  0  0  0  0
    4.7255    3.2752   -4.0868 O   0  0  0  0  0  0  0  0  0  0  0  0
    8.5209    0.1156   -3.7756 C   0  0  0  0  0  0  0  0  0  0  0  0
    8.6747   -0.9020   -3.4056 H   0  0  0  0  0  0  0  0  0  0  0  0
    9.0801    0.2088   -4.7149 H   0  0  0  0  0  0  0  0  0  0  0  0
    8.9702    0.8100   -3.0590 H   0  0  0  0  0  0  0  0  0  0  0  0
   -1.3727   -0.4318   -1.2009 O   0  0  0  0  0  0  0  0  0  0  0  0
   -1.6854   -1.3221   -2.2629 C   0  0  0  0  0  0  0  0  0  0  0  0
   -2.2946   -2.1144   -1.8249 H   0  0  0  0  0  0  0  0  0  0  0  0
   -0.7777   -1.7534   -2.7014 H   0  0  0  0  0  0  0  0  0  0  0  0
   -2.2563   -0.8165   -3.0524 H   0  0  0  0  0  0  0  0  0  0  0  0
  1  6  1  0  0  0  0
  2  8  1  6  0  0  0
  2  1  1  0  0  0  0
  2  3  1  0  0  0  0
  3  4  2  0  0  0  0
  4  5  1  0  0  0  0
  4  9  1  0  0  0  0
  5 10  1  0  0  0  0
  6 31  1  0  0  0  0
  6  5  2  0  0  0  0
  7  1  1  0  0  0  0
 11  3  1  0  0  0  0
 12 11  1  0  0  0  0
 13 18  2  0  0  0  0
 13 14  1  0  0  0  0
 14 15  2  0  0  0  0
 15 16  1  0  0  0  0
 15 27  1  0  0  0  0
 16 21  1  0  0  0  0
 17 26  1  0  0  0  0
 17 16  2  0  0  0  0
 18 17  1  0  0  0  0
 19 13  1  0  0  0  0
 20 14  1  0  0  0  0
 23 25  1  1  0  0  0
 23 18  1  0  0  0  0
 23 24  1  0  0  0  0
 24  2  1  0  0  0  0
 26 22  1  0  0  0  0
 27 28  1  0  0  0  0
 27 30  1  0  0  0  0
 29 27  1  0  0  0  0
 32 33  1  0  0  0  0
 32 31  1  0  0  0  0
 34 32  1  0  0  0  0
 35 32  1  0  0  0  0
M  RAD  4   1   2  11   2  12   3  25   2
M  END
