Coordinates from ORCA-job p-CH3O-Ph-N2-X-OTs-B3LYPG-6-31G_dp-scan-d09-49-n400
 OpenBabel08281821253D

 35 36  0  0  1  0  0  0  0  0999 V2000
   -0.1752    0.9052   -2.7028 C   0  0  0  0  0  0  0  0  0  0  0  0
    0.9391    1.8701   -2.9504 C   0  0  1  0  0  0  0  0  0  0  0  0
    1.1506    2.7817   -1.7668 C   0  0  0  0  0  0  0  0  0  0  0  0
    0.5912    2.5116   -0.4666 C   0  0  0  0  0  0  0  0  0  0  0  0
   -0.2971    1.5037   -0.3179 C   0  0  0  0  0  0  0  0  0  0  0  0
   -0.6993    0.7095   -1.4686 C   0  0  0  0  0  0  0  0  0  0  0  0
   -0.4779    0.3124   -3.5565 H   0  0  0  0  0  0  0  0  0  0  0  0
    0.7598    2.4568   -3.8621 H   0  0  0  0  0  0  0  0  0  0  0  0
    0.8949    3.1313    0.3708 H   0  0  0  0  0  0  0  0  0  0  0  0
   -0.7404    1.2671    0.6419 H   0  0  0  0  0  0  0  0  0  0  0  0
    1.9580    3.7998   -1.9275 N   0  0  0  0  0  0  0  0  0  0  0  0
    2.6688    4.6798   -2.0933 N   0  0  0  0  0  0  0  0  0  0  0  0
    5.0058   -0.4297   -4.6506 C   0  0  0  0  0  0  0  0  0  0  0  0
    6.3740   -0.5485   -4.4115 C   0  0  0  0  0  0  0  0  0  0  0  0
    7.1229    0.5625   -4.0003 C   0  0  0  0  0  0  0  0  0  0  0  0
    6.4740    1.7931   -3.8315 C   0  0  0  0  0  0  0  0  0  0  0  0
    5.1036    1.9178   -4.0660 C   0  0  0  0  0  0  0  0  0  0  0  0
    4.3698    0.7934   -4.4686 C   0  0  0  0  0  0  0  0  0  0  0  0
    4.4043   -1.2744   -4.9733 H   0  0  0  0  0  0  0  0  0  0  0  0
    6.8651   -1.5080   -4.5455 H   0  0  0  0  0  0  0  0  0  0  0  0
    7.0420    2.6653   -3.5122 H   0  0  0  0  0  0  0  0  0  0  0  0
    5.0144    3.7747   -3.5722 H   0  0  0  0  0  0  0  0  0  0  0  0
    2.6017    0.9375   -4.8127 S   0  0  2  0  0  0  0  0  0  0  0  0
    2.2135    1.1462   -3.1766 O   0  0  0  0  0  0  0  0  0  0  0  0
    2.1675   -0.4135   -5.2828 O   0  0  0  0  0  0  0  0  0  0  0  0
    4.4280    3.0941   -3.9269 O   0  0  0  0  0  0  0  0  0  0  0  0
    8.6119    0.4526   -3.7746 C   0  0  0  0  0  0  0  0  0  0  0  0
    8.9000   -0.5683   -3.5097 H   0  0  0  0  0  0  0  0  0  0  0  0
    9.1679    0.7239   -4.6810 H   0  0  0  0  0  0  0  0  0  0  0  0
    8.9488    1.1201   -2.9756 H   0  0  0  0  0  0  0  0  0  0  0  0
   -1.6593   -0.2034   -1.1529 O   0  0  0  0  0  0  0  0  0  0  0  0
   -2.1193   -1.0613   -2.1872 C   0  0  0  0  0  0  0  0  0  0  0  0
   -2.8511   -1.7267   -1.7263 H   0  0  0  0  0  0  0  0  0  0  0  0
   -1.2977   -1.6527   -2.6093 H   0  0  0  0  0  0  0  0  0  0  0  0
   -2.6000   -0.4920   -2.9928 H   0  0  0  0  0  0  0  0  0  0  0  0
  1  6  1  0  0  0  0
  2  8  1  6  0  0  0
  2  1  1  0  0  0  0
  2  3  1  0  0  0  0
  3  4  2  0  0  0  0
  4  5  1  0  0  0  0
  4  9  1  0  0  0  0
  5 10  1  0  0  0  0
  6 31  1  0  0  0  0
  6  5  2  0  0  0  0
  7  1  1  0  0  0  0
 11  3  1  0  0  0  0
 12 11  1  0  0  0  0
 13 18  2  0  0  0  0
 13 14  1  0  0  0  0
 14 15  2  0  0  0  0
 15 16  1  0  0  0  0
 15 27  1  0  0  0  0
 16 21  1  0  0  0  0
 17 26  1  0  0  0  0
 17 16  2  0  0  0  0
 18 17  1  0  0  0  0
 19 13  1  0  0  0  0
 20 14  1  0  0  0  0
 23 25  1  1  0  0  0
 23 18  1  0  0  0  0
 23 24  1  0  0  0  0
 24  2  1  0  0  0  0
 26 22  1  0  0  0  0
 27 28  1  0  0  0  0
 27 30  1  0  0  0  0
 29 27  1  0  0  0  0
 32 33  1  0  0  0  0
 32 31  1  0  0  0  0
 34 32  1  0  0  0  0
 35 32  1  0  0  0  0
M  RAD  4   1   2  11   2  12   3  25   2
M  END
