Coordinates from ORCA-job p-CH3O-Ph-N2-X-OTs-B3LYPG-6-31G_dp-scan-d09-49-n400
 OpenBabel08281821253D

 35 36  0  0  1  0  0  0  0  0999 V2000
    0.1128    0.5067   -3.1648 C   0  0  0  0  0  0  0  0  0  0  0  0
    1.0055    1.6547   -3.5097 C   0  0  1  0  0  0  0  0  0  0  0  0
    0.9312    2.8196   -2.5220 C   0  0  0  0  0  0  0  0  0  0  0  0
    0.1393    2.7086   -1.3272 C   0  0  0  0  0  0  0  0  0  0  0  0
   -0.6178    1.6038   -1.1108 C   0  0  0  0  0  0  0  0  0  0  0  0
   -0.6452    0.4847   -2.0463 C   0  0  0  0  0  0  0  0  0  0  0  0
    0.1354   -0.3461   -3.8341 H   0  0  0  0  0  0  0  0  0  0  0  0
    0.7269    2.0762   -4.4938 H   0  0  0  0  0  0  0  0  0  0  0  0
    0.1620    3.5297   -0.6190 H   0  0  0  0  0  0  0  0  0  0  0  0
   -1.2109    1.5506   -0.2050 H   0  0  0  0  0  0  0  0  0  0  0  0
    1.6113    3.8911   -2.7640 N   0  0  0  0  0  0  0  0  0  0  0  0
    2.1134    4.4084   -3.7918 N   0  0  0  0  0  0  0  0  0  0  0  0
    5.3438   -0.3495   -4.8855 C   0  0  0  0  0  0  0  0  0  0  0  0
    6.6567   -0.5472   -4.4609 C   0  0  0  0  0  0  0  0  0  0  0  0
    7.3204    0.4191   -3.6919 C   0  0  0  0  0  0  0  0  0  0  0  0
    6.6359    1.5985   -3.3582 C   0  0  0  0  0  0  0  0  0  0  0  0
    5.3235    1.8173   -3.7701 C   0  0  0  0  0  0  0  0  0  0  0  0
    4.6898    0.8274   -4.5274 C   0  0  0  0  0  0  0  0  0  0  0  0
    4.8199   -1.0894   -5.4828 H   0  0  0  0  0  0  0  0  0  0  0  0
    7.1751   -1.4629   -4.7338 H   0  0  0  0  0  0  0  0  0  0  0  0
    7.1403    2.3595   -2.7679 H   0  0  0  0  0  0  0  0  0  0  0  0
    4.7978    2.7319   -3.5035 H   0  0  0  0  0  0  0  0  0  0  0  0
    3.0237    1.1036   -5.1587 S   0  0  2  0  0  0  0  0  0  0  0  0
    2.3736    1.2064   -3.5596 O   0  0  0  0  0  0  0  0  0  0  0  0
    2.5840   -0.1722   -5.7965 O   0  0  0  0  0  0  0  0  0  0  0  0
    3.6142    4.5769   -3.7288 O   0  0  0  0  0  0  0  0  0  0  0  0
    8.7344    0.1894   -3.2140 C   0  0  0  0  0  0  0  0  0  0  0  0
    9.2685   -0.5101   -3.8635 H   0  0  0  0  0  0  0  0  0  0  0  0
    9.3014    1.1243   -3.1786 H   0  0  0  0  0  0  0  0  0  0  0  0
    8.7422   -0.2335   -2.2015 H   0  0  0  0  0  0  0  0  0  0  0  0
   -1.4080   -0.6233   -1.8155 O   0  0  0  0  0  0  0  0  0  0  0  0
   -2.2604   -0.6754   -0.6804 C   0  0  0  0  0  0  0  0  0  0  0  0
   -2.7767   -1.6340   -0.7457 H   0  0  0  0  0  0  0  0  0  0  0  0
   -3.0065    0.1295   -0.6876 H   0  0  0  0  0  0  0  0  0  0  0  0
   -1.6974   -0.6424    0.2608 H   0  0  0  0  0  0  0  0  0  0  0  0
  1  6  2  0  0  0  0
  2  8  1  6  0  0  0
  2  1  1  0  0  0  0
  2  3  1  0  0  0  0
  3  4  2  0  0  0  0
  4  5  1  0  0  0  0
  4  9  1  0  0  0  0
  5 10  1  0  0  0  0
  6 31  1  0  0  0  0
  6  5  1  0  0  0  0
  7  1  1  0  0  0  0
 11  3  1  0  0  0  0
 12 26  1  0  0  0  0
 12 11  1  0  0  0  0
 13 18  2  0  0  0  0
 13 14  1  0  0  0  0
 14 15  2  0  0  0  0
 15 16  1  0  0  0  0
 15 27  1  0  0  0  0
 16 21  1  0  0  0  0
 17 22  1  0  0  0  0
 17 16  2  0  0  0  0
 18 17  1  0  0  0  0
 19 13  1  0  0  0  0
 20 14  1  0  0  0  0
 23 25  1  6  0  0  0
 23 18  1  0  0  0  0
 23 24  1  0  0  0  0
 24  2  1  0  0  0  0
 27 29  1  0  0  0  0
 27 30  1  0  0  0  0
 28 27  1  0  0  0  0
 31 32  1  0  0  0  0
 32 35  1  0  0  0  0
 33 32  1  0  0  0  0
 34 32  1  0  0  0  0
M  RAD  5   5   2  11   2  12   2  25   2  26   2
M  END
