Coordinates from ORCA-job p-CH3O-Ph-N2-X-OTs-B3LYPG-6-31G_dp-scan-d09-49-n400
 OpenBabel08281821253D

 35 36  0  0  1  0  0  0  0  0999 V2000
   -0.0315    0.9657   -2.7210 C   0  0  0  0  0  0  0  0  0  0  0  0
    0.8232    2.1776   -2.9146 C   0  0  1  0  0  0  0  0  0  0  0  0
    0.7870    3.0672   -1.7008 C   0  0  0  0  0  0  0  0  0  0  0  0
    0.3553    2.5951   -0.4078 C   0  0  0  0  0  0  0  0  0  0  0  0
   -0.2380    1.3852   -0.3046 C   0  0  0  0  0  0  0  0  0  0  0  0
   -0.4627    0.5814   -1.4956 C   0  0  0  0  0  0  0  0  0  0  0  0
   -0.1852    0.3609   -3.6051 H   0  0  0  0  0  0  0  0  0  0  0  0
    0.5204    2.7384   -3.8106 H   0  0  0  0  0  0  0  0  0  0  0  0
    0.5053    3.2329    0.4574 H   0  0  0  0  0  0  0  0  0  0  0  0
   -0.5791    0.9933    0.6462 H   0  0  0  0  0  0  0  0  0  0  0  0
    1.2058    4.3025   -1.8244 N   0  0  0  0  0  0  0  0  0  0  0  0
    1.5562    5.3856   -1.9309 N   0  0  0  0  0  0  0  0  0  0  0  0
    4.6815   -0.2636   -4.4277 C   0  0  0  0  0  0  0  0  0  0  0  0
    6.0007   -0.6424   -4.1916 C   0  0  0  0  0  0  0  0  0  0  0  0
    6.9875    0.3270   -3.9615 C   0  0  0  0  0  0  0  0  0  0  0  0
    6.6225    1.6784   -3.9719 C   0  0  0  0  0  0  0  0  0  0  0  0
    5.2994    2.0654   -4.2034 C   0  0  0  0  0  0  0  0  0  0  0  0
    4.3256    1.0825   -4.4221 C   0  0  0  0  0  0  0  0  0  0  0  0
    3.9025   -0.9938   -4.6255 H   0  0  0  0  0  0  0  0  0  0  0  0
    6.2696   -1.6949   -4.1882 H   0  0  0  0  0  0  0  0  0  0  0  0
    7.3770    2.4436   -3.7949 H   0  0  0  0  0  0  0  0  0  0  0  0
    5.6693    3.9391   -4.0644 H   0  0  0  0  0  0  0  0  0  0  0  0
    2.6063    1.5250   -4.7747 S   0  0  2  0  0  0  0  0  0  0  0  0
    2.2400    1.7744   -3.1364 O   0  0  0  0  0  0  0  0  0  0  0  0
    1.9592    0.2603   -5.2500 O   0  0  0  0  0  0  0  0  0  0  0  0
    4.9078    3.3697   -4.2342 O   0  0  0  0  0  0  0  0  0  0  0  0
    8.4275   -0.0717   -3.7423 C   0  0  0  0  0  0  0  0  0  0  0  0
    8.4992   -1.0607   -3.2809 H   0  0  0  0  0  0  0  0  0  0  0  0
    8.9719   -0.1146   -4.6937 H   0  0  0  0  0  0  0  0  0  0  0  0
    8.9508    0.6428   -3.0995 H   0  0  0  0  0  0  0  0  0  0  0  0
   -1.1644   -0.5549   -1.2262 O   0  0  0  0  0  0  0  0  0  0  0  0
   -1.4253   -1.4378   -2.3082 C   0  0  0  0  0  0  0  0  0  0  0  0
   -1.9641   -2.2863   -1.8840 H   0  0  0  0  0  0  0  0  0  0  0  0
   -0.4948   -1.7855   -2.7723 H   0  0  0  0  0  0  0  0  0  0  0  0
   -2.0461   -0.9562   -3.0748 H   0  0  0  0  0  0  0  0  0  0  0  0
  1  6  1  0  0  0  0
  2  8  1  6  0  0  0
  2  1  1  0  0  0  0
  2  3  1  0  0  0  0
  3  4  2  0  0  0  0
  4  5  1  0  0  0  0
  4  9  1  0  0  0  0
  5 10  1  0  0  0  0
  6 31  1  0  0  0  0
  6  5  2  0  0  0  0
  7  1  1  0  0  0  0
 11  3  1  0  0  0  0
 12 11  1  0  0  0  0
 13 18  2  0  0  0  0
 13 14  1  0  0  0  0
 14 20  1  0  0  0  0
 14 15  2  0  0  0  0
 15 27  1  0  0  0  0
 16 15  1  0  0  0  0
 16 21  1  0  0  0  0
 17 16  2  0  0  0  0
 18 17  1  0  0  0  0
 19 13  1  0  0  0  0
 23 25  1  1  0  0  0
 23 18  1  0  0  0  0
 23 24  1  0  0  0  0
 24  2  1  0  0  0  0
 26 17  1  0  0  0  0
 26 22  1  0  0  0  0
 27 28  1  0  0  0  0
 27 30  1  0  0  0  0
 29 27  1  0  0  0  0
 32 33  1  0  0  0  0
 32 31  1  0  0  0  0
 34 32  1  0  0  0  0
 35 32  1  0  0  0  0
M  RAD  4   1   2  11   2  12   3  25   2
M  END
