Coordinates from ORCA-job p-CH3O-Ph-N2-X-OTs-B3LYPG-6-31G_dp-scan-d09-49-n400
 OpenBabel08281821253D

 35 36  0  0  1  0  0  0  0  0999 V2000
   -0.0187    0.9682   -2.7231 C   0  0  0  0  0  0  0  0  0  0  0  0
    0.8162    2.1945   -2.9130 C   0  0  1  0  0  0  0  0  0  0  0  0
    0.7656    3.0788   -1.6959 C   0  0  0  0  0  0  0  0  0  0  0  0
    0.3484    2.5924   -0.4033 C   0  0  0  0  0  0  0  0  0  0  0  0
   -0.2224    1.3715   -0.3038 C   0  0  0  0  0  0  0  0  0  0  0  0
   -0.4389    0.5705   -1.4982 C   0  0  0  0  0  0  0  0  0  0  0  0
   -0.1650    0.3657   -3.6101 H   0  0  0  0  0  0  0  0  0  0  0  0
    0.5035    2.7536   -3.8066 H   0  0  0  0  0  0  0  0  0  0  0  0
    0.4904    3.2286    0.4645 H   0  0  0  0  0  0  0  0  0  0  0  0
   -0.5521    0.9685    0.6464 H   0  0  0  0  0  0  0  0  0  0  0  0
    1.1528    4.3247   -1.8162 N   0  0  0  0  0  0  0  0  0  0  0  0
    1.4742    5.4172   -1.9181 N   0  0  0  0  0  0  0  0  0  0  0  0
    4.6547   -0.2442   -4.4062 C   0  0  0  0  0  0  0  0  0  0  0  0
    5.9675   -0.6421   -4.1668 C   0  0  0  0  0  0  0  0  0  0  0  0
    6.9715    0.3136   -3.9541 C   0  0  0  0  0  0  0  0  0  0  0  0
    6.6299    1.6707   -3.9857 C   0  0  0  0  0  0  0  0  0  0  0  0
    5.3132    2.0770   -4.2207 C   0  0  0  0  0  0  0  0  0  0  0  0
    4.3219    1.1079   -4.4214 C   0  0  0  0  0  0  0  0  0  0  0  0
    3.8630   -0.9639   -4.5920 H   0  0  0  0  0  0  0  0  0  0  0  0
    6.2180   -1.6990   -4.1470 H   0  0  0  0  0  0  0  0  0  0  0  0
    7.3981    2.4254   -3.8230 H   0  0  0  0  0  0  0  0  0  0  0  0
    5.7174    3.9456   -4.1139 H   0  0  0  0  0  0  0  0  0  0  0  0
    2.6086    1.5725   -4.7761 S   0  0  2  0  0  0  0  0  0  0  0  0
    2.2392    1.8137   -3.1366 O   0  0  0  0  0  0  0  0  0  0  0  0
    1.9486    0.3178   -5.2605 O   0  0  0  0  0  0  0  0  0  0  0  0
    4.9452    3.3875   -4.2723 O   0  0  0  0  0  0  0  0  0  0  0  0
    8.4048   -0.1067   -3.7315 C   0  0  0  0  0  0  0  0  0  0  0  0
    8.4602   -1.0855   -3.2467 H   0  0  0  0  0  0  0  0  0  0  0  0
    8.9436   -0.1828   -4.6839 H   0  0  0  0  0  0  0  0  0  0  0  0
    8.9444    0.6131   -3.1084 H   0  0  0  0  0  0  0  0  0  0  0  0
   -1.1214   -0.5783   -1.2322 O   0  0  0  0  0  0  0  0  0  0  0  0
   -1.3748   -1.4581   -2.3184 C   0  0  0  0  0  0  0  0  0  0  0  0
   -1.8994   -2.3169   -1.8971 H   0  0  0  0  0  0  0  0  0  0  0  0
   -0.4417   -1.7896   -2.7892 H   0  0  0  0  0  0  0  0  0  0  0  0
   -2.0061   -0.9806   -3.0790 H   0  0  0  0  0  0  0  0  0  0  0  0
  1  6  1  0  0  0  0
  2  8  1  6  0  0  0
  2  1  1  0  0  0  0
  2  3  1  0  0  0  0
  3  4  2  0  0  0  0
  4  5  1  0  0  0  0
  4  9  1  0  0  0  0
  5 10  1  0  0  0  0
  6 31  1  0  0  0  0
  6  5  2  0  0  0  0
  7  1  1  0  0  0  0
 11  3  1  0  0  0  0
 12 11  1  0  0  0  0
 13 14  1  0  0  0  0
 14 20  1  0  0  0  0
 14 15  2  0  0  0  0
 15 27  1  0  0  0  0
 16 15  1  0  0  0  0
 16 21  1  0  0  0  0
 17 16  2  0  0  0  0
 18 13  2  0  0  0  0
 18 17  1  0  0  0  0
 19 13  1  0  0  0  0
 23 25  1  1  0  0  0
 23 18  1  0  0  0  0
 23 24  1  0  0  0  0
 24  2  1  0  0  0  0
 26 17  1  0  0  0  0
 26 22  1  0  0  0  0
 27 28  1  0  0  0  0
 27 30  1  0  0  0  0
 29 27  1  0  0  0  0
 32 33  1  0  0  0  0
 32 31  1  0  0  0  0
 34 32  1  0  0  0  0
 35 32  1  0  0  0  0
M  RAD  4   1   2  11   2  12   3  25   2
M  END
