Coordinates from ORCA-job p-CH3O-Ph-N2-X-OTs-B3LYPG-6-31G_dp-scan-d09-49-n400
 OpenBabel08281821253D

 35 36  0  0  1  0  0  0  0  0999 V2000
    0.0315    0.4653   -3.2323 C   0  0  0  0  0  0  0  0  0  0  0  0
    0.9312    1.5806   -3.6606 C   0  0  1  0  0  0  0  0  0  0  0  0
    0.8991    2.7774   -2.7000 C   0  0  0  0  0  0  0  0  0  0  0  0
    0.2663    2.6695   -1.4098 C   0  0  0  0  0  0  0  0  0  0  0  0
   -0.4431    1.5577   -1.0988 C   0  0  0  0  0  0  0  0  0  0  0  0
   -0.5889    0.4444   -2.0328 C   0  0  0  0  0  0  0  0  0  0  0  0
   -0.0542   -0.3780   -3.9082 H   0  0  0  0  0  0  0  0  0  0  0  0
    0.6366    1.9435   -4.6573 H   0  0  0  0  0  0  0  0  0  0  0  0
    0.3723    3.4918   -0.7111 H   0  0  0  0  0  0  0  0  0  0  0  0
   -0.9092    1.4953   -0.1226 H   0  0  0  0  0  0  0  0  0  0  0  0
    1.4902    3.8581   -3.0589 N   0  0  0  0  0  0  0  0  0  0  0  0
    2.0205    4.6245   -3.8309 N   0  0  0  0  0  0  0  0  0  0  0  0
    5.3385   -0.2437   -4.9712 C   0  0  0  0  0  0  0  0  0  0  0  0
    6.6198   -0.4937   -4.4823 C   0  0  0  0  0  0  0  0  0  0  0  0
    7.2437    0.4001   -3.6004 C   0  0  0  0  0  0  0  0  0  0  0  0
    6.5529    1.5616   -3.2195 C   0  0  0  0  0  0  0  0  0  0  0  0
    5.2710    1.8312   -3.6921 C   0  0  0  0  0  0  0  0  0  0  0  0
    4.6766    0.9113   -4.5613 C   0  0  0  0  0  0  0  0  0  0  0  0
    4.8467   -0.9235   -5.6601 H   0  0  0  0  0  0  0  0  0  0  0  0
    7.1455   -1.3928   -4.7934 H   0  0  0  0  0  0  0  0  0  0  0  0
    7.0293    2.2683   -2.5442 H   0  0  0  0  0  0  0  0  0  0  0  0
    4.7354    2.7342   -3.4011 H   0  0  0  0  0  0  0  0  0  0  0  0
    3.0527    1.2655   -5.2569 S   0  0  2  0  0  0  0  0  0  0  0  0
    2.2866    1.0933   -3.7063 O   0  0  0  0  0  0  0  0  0  0  0  0
    2.6805    0.0993   -6.1102 O   0  0  0  0  0  0  0  0  0  0  0  0
    3.6494    4.5513   -3.7649 O   0  0  0  0  0  0  0  0  0  0  0  0
    8.6235    0.1156   -3.0568 C   0  0  0  0  0  0  0  0  0  0  0  0
    9.1557   -0.6131   -3.6748 H   0  0  0  0  0  0  0  0  0  0  0  0
    9.2282    1.0265   -3.0054 H   0  0  0  0  0  0  0  0  0  0  0  0
    8.5690   -0.2931   -2.0400 H   0  0  0  0  0  0  0  0  0  0  0  0
   -1.3357   -0.6544   -1.7209 O   0  0  0  0  0  0  0  0  0  0  0  0
   -2.1270   -0.6638   -0.5404 C   0  0  0  0  0  0  0  0  0  0  0  0
   -2.6785   -1.6046   -0.5651 H   0  0  0  0  0  0  0  0  0  0  0  0
   -2.8431    0.1673   -0.5177 H   0  0  0  0  0  0  0  0  0  0  0  0
   -1.5127   -0.6413    0.3683 H   0  0  0  0  0  0  0  0  0  0  0  0
  1  6  2  0  0  0  0
  2  8  1  6  0  0  0
  2  1  1  0  0  0  0
  2  3  1  0  0  0  0
  3  4  2  0  0  0  0
  4  5  1  0  0  0  0
  4  9  1  0  0  0  0
  5 10  1  0  0  0  0
  6 31  1  0  0  0  0
  6  5  1  0  0  0  0
  7  1  1  0  0  0  0
 11  3  1  0  0  0  0
 12 26  1  0  0  0  0
 12 11  1  0  0  0  0
 13 18  2  0  0  0  0
 13 14  1  0  0  0  0
 14 15  2  0  0  0  0
 15 16  1  0  0  0  0
 15 27  1  0  0  0  0
 16 21  1  0  0  0  0
 17 22  1  0  0  0  0
 17 16  2  0  0  0  0
 18 17  1  0  0  0  0
 19 13  1  0  0  0  0
 20 14  1  0  0  0  0
 23 25  1  6  0  0  0
 23 18  1  0  0  0  0
 23 24  1  0  0  0  0
 24  2  1  0  0  0  0
 27 29  1  0  0  0  0
 27 30  1  0  0  0  0
 28 27  1  0  0  0  0
 31 32  1  0  0  0  0
 32 34  1  0  0  0  0
 32 35  1  0  0  0  0
 33 32  1  0  0  0  0
M  RAD  5   5   2  11   2  12   2  25   2  26   2
M  END
