Coordinates from ORCA-job p-CH3O-Ph-N2-X-OTs-B3LYPG-6-31G_dp-scan-d09-49-n400
 OpenBabel08281821253D

 35 36  0  0  1  0  0  0  0  0999 V2000
   -0.1458    0.9214   -2.7057 C   0  0  0  0  0  0  0  0  0  0  0  0
    0.9063    1.9576   -2.9381 C   0  0  1  0  0  0  0  0  0  0  0  0
    1.0481    2.8726   -1.7487 C   0  0  0  0  0  0  0  0  0  0  0  0
    0.5103    2.5499   -0.4511 C   0  0  0  0  0  0  0  0  0  0  0  0
   -0.3070    1.4822   -0.3140 C   0  0  0  0  0  0  0  0  0  0  0  0
   -0.6561    0.6773   -1.4744 C   0  0  0  0  0  0  0  0  0  0  0  0
   -0.4056    0.3186   -3.5664 H   0  0  0  0  0  0  0  0  0  0  0  0
    0.6979    2.5374   -3.8485 H   0  0  0  0  0  0  0  0  0  0  0  0
    0.7700    3.1809    0.3927 H   0  0  0  0  0  0  0  0  0  0  0  0
   -0.7331    1.2054    0.6428 H   0  0  0  0  0  0  0  0  0  0  0  0
    1.7675    3.9567   -1.8994 N   0  0  0  0  0  0  0  0  0  0  0  0
    2.3935    4.9022   -2.0452 N   0  0  0  0  0  0  0  0  0  0  0  0
    4.9304   -0.3992   -4.5995 C   0  0  0  0  0  0  0  0  0  0  0  0
    6.2925   -0.5847   -4.3694 C   0  0  0  0  0  0  0  0  0  0  0  0
    7.1042    0.4965   -4.0001 C   0  0  0  0  0  0  0  0  0  0  0  0
    6.5236    1.7643   -3.8644 C   0  0  0  0  0  0  0  0  0  0  0  0
    5.1590    1.9563   -4.0899 C   0  0  0  0  0  0  0  0  0  0  0  0
    4.3617    0.8612   -4.4505 C   0  0  0  0  0  0  0  0  0  0  0  0
    4.2813   -1.2191   -4.8925 H   0  0  0  0  0  0  0  0  0  0  0  0
    6.7299   -1.5728   -4.4784 H   0  0  0  0  0  0  0  0  0  0  0  0
    7.1410    2.6138   -3.5766 H   0  0  0  0  0  0  0  0  0  0  0  0
    5.1934    3.8327   -3.6893 H   0  0  0  0  0  0  0  0  0  0  0  0
    2.6006    1.0805   -4.7925 S   0  0  2  0  0  0  0  0  0  0  0  0
    2.2274    1.3167   -3.1572 O   0  0  0  0  0  0  0  0  0  0  0  0
    2.1076   -0.2550   -5.2514 O   0  0  0  0  0  0  0  0  0  0  0  0
    4.5521    3.1718   -3.9803 O   0  0  0  0  0  0  0  0  0  0  0  0
    8.5875    0.3136   -3.7837 C   0  0  0  0  0  0  0  0  0  0  0  0
    8.8235   -0.7144   -3.4956 H   0  0  0  0  0  0  0  0  0  0  0  0
    9.1489    0.5325   -4.7008 H   0  0  0  0  0  0  0  0  0  0  0  0
    8.9667    0.9814   -3.0040 H   0  0  0  0  0  0  0  0  0  0  0  0
   -1.5541   -0.3006   -1.1706 O   0  0  0  0  0  0  0  0  0  0  0  0
   -1.9548   -1.1756   -2.2154 C   0  0  0  0  0  0  0  0  0  0  0  0
   -2.6390   -1.8951   -1.7626 H   0  0  0  0  0  0  0  0  0  0  0  0
   -1.0951   -1.7041   -2.6448 H   0  0  0  0  0  0  0  0  0  0  0  0
   -2.4740   -0.6311   -3.0145 H   0  0  0  0  0  0  0  0  0  0  0  0
  1  6  1  0  0  0  0
  2  8  1  6  0  0  0
  2  1  1  0  0  0  0
  2  3  1  0  0  0  0
  3  4  2  0  0  0  0
  4  5  1  0  0  0  0
  4  9  1  0  0  0  0
  5 10  1  0  0  0  0
  6 31  1  0  0  0  0
  6  5  2  0  0  0  0
  7  1  1  0  0  0  0
 11  3  1  0  0  0  0
 12 11  1  0  0  0  0
 13 18  2  0  0  0  0
 13 14  1  0  0  0  0
 14 15  2  0  0  0  0
 15 16  1  0  0  0  0
 15 27  1  0  0  0  0
 16 21  1  0  0  0  0
 17 26  1  0  0  0  0
 17 16  2  0  0  0  0
 18 17  1  0  0  0  0
 19 13  1  0  0  0  0
 20 14  1  0  0  0  0
 23 25  1  1  0  0  0
 23 18  1  0  0  0  0
 23 24  1  0  0  0  0
 24  2  1  0  0  0  0
 26 22  1  0  0  0  0
 27 28  1  0  0  0  0
 27 30  1  0  0  0  0
 29 27  1  0  0  0  0
 32 33  1  0  0  0  0
 32 31  1  0  0  0  0
 34 32  1  0  0  0  0
 35 32  1  0  0  0  0
M  RAD  4   1   2  11   2  12   3  25   2
M  END
