Coordinates from ORCA-job p-CH3O-Ph-N2-X-OTs-B3LYPG-6-31G_dp-scan-d09-49-n400
 OpenBabel08281821253D

 35 36  0  0  1  0  0  0  0  0999 V2000
   -0.0736    0.9562   -2.7153 C   0  0  0  0  0  0  0  0  0  0  0  0
    0.8489    2.1152   -2.9196 C   0  0  1  0  0  0  0  0  0  0  0  0
    0.8667    3.0173   -1.7141 C   0  0  0  0  0  0  0  0  0  0  0  0
    0.3892    2.5935   -0.4211 C   0  0  0  0  0  0  0  0  0  0  0  0
   -0.2812    1.4255   -0.3080 C   0  0  0  0  0  0  0  0  0  0  0  0
   -0.5386    0.6165   -1.4890 C   0  0  0  0  0  0  0  0  0  0  0  0
   -0.2565    0.3480   -3.5916 H   0  0  0  0  0  0  0  0  0  0  0  0
    0.5794    2.6836   -3.8215 H   0  0  0  0  0  0  0  0  0  0  0  0
    0.5705    3.2327    0.4370 H   0  0  0  0  0  0  0  0  0  0  0  0
   -0.6584    1.0709    0.6438 H   0  0  0  0  0  0  0  0  0  0  0  0
    1.3947    4.2091   -1.8457 N   0  0  0  0  0  0  0  0  0  0  0  0
    1.8448    5.2533   -1.9649 N   0  0  0  0  0  0  0  0  0  0  0  0
    4.7675   -0.3200   -4.4896 C   0  0  0  0  0  0  0  0  0  0  0  0
    6.1054   -0.6340   -4.2612 C   0  0  0  0  0  0  0  0  0  0  0  0
    7.0345    0.3778   -3.9811 C   0  0  0  0  0  0  0  0  0  0  0  0
    6.5939    1.7062   -3.9333 C   0  0  0  0  0  0  0  0  0  0  0  0
    5.2526    2.0278   -4.1571 C   0  0  0  0  0  0  0  0  0  0  0  0
    4.3370    1.0021   -4.4271 C   0  0  0  0  0  0  0  0  0  0  0  0
    4.0308   -1.0834   -4.7214 H   0  0  0  0  0  0  0  0  0  0  0  0
    6.4333   -1.6687   -4.3028 H   0  0  0  0  0  0  0  0  0  0  0  0
    7.3032    2.5033   -3.7156 H   0  0  0  0  0  0  0  0  0  0  0  0
    5.5102    3.9114   -3.9250 H   0  0  0  0  0  0  0  0  0  0  0  0
    2.5998    1.3691   -4.7727 S   0  0  2  0  0  0  0  0  0  0  0  0
    2.2401    1.6343   -3.1372 O   0  0  0  0  0  0  0  0  0  0  0  0
    1.9996    0.0744   -5.2263 O   0  0  0  0  0  0  0  0  0  0  0  0
    4.7853    3.3071   -4.1304 O   0  0  0  0  0  0  0  0  0  0  0  0
    8.4938    0.0517   -3.7690 C   0  0  0  0  0  0  0  0  0  0  0  0
    8.6205   -0.9579   -3.3681 H   0  0  0  0  0  0  0  0  0  0  0  0
    9.0485    0.0995   -4.7143 H   0  0  0  0  0  0  0  0  0  0  0  0
    8.9680    0.7546   -3.0772 H   0  0  0  0  0  0  0  0  0  0  0  0
   -1.3060   -0.4738   -1.2101 O   0  0  0  0  0  0  0  0  0  0  0  0
   -1.5972   -1.3634   -2.2788 C   0  0  0  0  0  0  0  0  0  0  0  0
   -2.1828   -2.1760   -1.8459 H   0  0  0  0  0  0  0  0  0  0  0  0
   -0.6794   -1.7655   -2.7237 H   0  0  0  0  0  0  0  0  0  0  0  0
   -2.1843   -0.8670   -3.0623 H   0  0  0  0  0  0  0  0  0  0  0  0
  1  6  1  0  0  0  0
  2  8  1  6  0  0  0
  2  1  1  0  0  0  0
  2  3  1  0  0  0  0
  3  4  2  0  0  0  0
  4  5  1  0  0  0  0
  4  9  1  0  0  0  0
  5 10  1  0  0  0  0
  6 31  1  0  0  0  0
  6  5  2  0  0  0  0
  7  1  1  0  0  0  0
 11  3  1  0  0  0  0
 12 11  1  0  0  0  0
 13 18  2  0  0  0  0
 13 14  1  0  0  0  0
 14 15  2  0  0  0  0
 15 16  1  0  0  0  0
 15 27  1  0  0  0  0
 16 21  1  0  0  0  0
 17 26  1  0  0  0  0
 17 16  2  0  0  0  0
 18 17  1  0  0  0  0
 19 13  1  0  0  0  0
 20 14  1  0  0  0  0
 23 25  1  1  0  0  0
 23 18  1  0  0  0  0
 23 24  1  0  0  0  0
 24  2  1  0  0  0  0
 26 22  1  0  0  0  0
 27 28  1  0  0  0  0
 27 30  1  0  0  0  0
 29 27  1  0  0  0  0
 32 33  1  0  0  0  0
 32 31  1  0  0  0  0
 34 32  1  0  0  0  0
 35 32  1  0  0  0  0
M  RAD  4   1   2  11   2  12   3  25   2
M  END
