Coordinates from ORCA-job p-CH3O-Ph-N2-X-OTs-B3LYPG-6-31G_dp-scan-d09-49-n400
 OpenBabel08281821253D

 35 36  0  0  1  0  0  0  0  0999 V2000
   -0.0455    0.9630   -2.7189 C   0  0  0  0  0  0  0  0  0  0  0  0
    0.8312    2.1585   -2.9160 C   0  0  1  0  0  0  0  0  0  0  0  0
    0.8114    3.0530   -1.7052 C   0  0  0  0  0  0  0  0  0  0  0  0
    0.3639    2.5964   -0.4122 C   0  0  0  0  0  0  0  0  0  0  0  0
   -0.2542    1.3993   -0.3056 C   0  0  0  0  0  0  0  0  0  0  0  0
   -0.4884    0.5931   -1.4933 C   0  0  0  0  0  0  0  0  0  0  0  0
   -0.2078    0.3565   -3.6003 H   0  0  0  0  0  0  0  0  0  0  0  0
    0.5393    2.7216   -3.8143 H   0  0  0  0  0  0  0  0  0  0  0  0
    0.5232    3.2352    0.4505 H   0  0  0  0  0  0  0  0  0  0  0  0
   -0.6078    1.0194    0.6455 H   0  0  0  0  0  0  0  0  0  0  0  0
    1.2655    4.2754   -1.8317 N   0  0  0  0  0  0  0  0  0  0  0  0
    1.6482    5.3471   -1.9425 N   0  0  0  0  0  0  0  0  0  0  0  0
    4.7103   -0.2835   -4.4487 C   0  0  0  0  0  0  0  0  0  0  0  0
    6.0361   -0.6412   -4.2161 C   0  0  0  0  0  0  0  0  0  0  0  0
    7.0041    0.3425   -3.9689 C   0  0  0  0  0  0  0  0  0  0  0  0
    6.6140    1.6871   -3.9585 C   0  0  0  0  0  0  0  0  0  0  0  0
    5.2844    2.0528   -4.1865 C   0  0  0  0  0  0  0  0  0  0  0  0
    4.3295    1.0553   -4.4228 C   0  0  0  0  0  0  0  0  0  0  0  0
    3.9449   -1.0249   -4.6582 H   0  0  0  0  0  0  0  0  0  0  0  0
    6.3245   -1.6884   -4.2288 H   0  0  0  0  0  0  0  0  0  0  0  0
    7.3538    2.4632   -3.7676 H   0  0  0  0  0  0  0  0  0  0  0  0
    5.6174    3.9308   -4.0155 H   0  0  0  0  0  0  0  0  0  0  0  0
    2.6040    1.4734   -4.7730 S   0  0  2  0  0  0  0  0  0  0  0  0
    2.2404    1.7305   -3.1358 O   0  0  0  0  0  0  0  0  0  0  0  0
    1.9716    0.1983   -5.2393 O   0  0  0  0  0  0  0  0  0  0  0  0
    4.8676    3.3495   -4.1969 O   0  0  0  0  0  0  0  0  0  0  0  0
    8.4510   -0.0325   -3.7532 C   0  0  0  0  0  0  0  0  0  0  0  0
    8.5408   -1.0298   -3.3135 H   0  0  0  0  0  0  0  0  0  0  0  0
    8.9995   -0.0436   -4.7032 H   0  0  0  0  0  0  0  0  0  0  0  0
    8.9580    0.6777   -3.0927 H   0  0  0  0  0  0  0  0  0  0  0  0
   -1.2114   -0.5289   -1.2207 O   0  0  0  0  0  0  0  0  0  0  0  0
   -1.4807   -1.4147   -2.2983 C   0  0  0  0  0  0  0  0  0  0  0  0
   -2.0349   -2.2519   -1.8714 H   0  0  0  0  0  0  0  0  0  0  0  0
   -0.5534   -1.7798   -2.7554 H   0  0  0  0  0  0  0  0  0  0  0  0
   -2.0903   -0.9286   -3.0711 H   0  0  0  0  0  0  0  0  0  0  0  0
  1  6  1  0  0  0  0
  2  8  1  6  0  0  0
  2  1  1  0  0  0  0
  2  3  1  0  0  0  0
  3  4  2  0  0  0  0
  4  5  1  0  0  0  0
  4  9  1  0  0  0  0
  5 10  1  0  0  0  0
  6 31  1  0  0  0  0
  6  5  2  0  0  0  0
  7  1  1  0  0  0  0
 11  3  1  0  0  0  0
 12 11  1  0  0  0  0
 13 18  2  0  0  0  0
 13 14  1  0  0  0  0
 14 15  2  0  0  0  0
 15 16  1  0  0  0  0
 15 27  1  0  0  0  0
 16 21  1  0  0  0  0
 17 16  2  0  0  0  0
 18 17  1  0  0  0  0
 19 13  1  0  0  0  0
 20 14  1  0  0  0  0
 23 25  1  1  0  0  0
 23 18  1  0  0  0  0
 23 24  1  0  0  0  0
 24  2  1  0  0  0  0
 26 17  1  0  0  0  0
 26 22  1  0  0  0  0
 27 28  1  0  0  0  0
 27 30  1  0  0  0  0
 29 27  1  0  0  0  0
 32 33  1  0  0  0  0
 32 31  1  0  0  0  0
 34 32  1  0  0  0  0
 35 32  1  0  0  0  0
M  RAD  4   1   2  11   2  12   3  25   2
M  END
