Coordinates from ORCA-job p-CH3O-Ph-N2-X-OTs-B3LYPG-6-31G_dp-scan-d09-49-n400
 OpenBabel08281821253D

 35 36  0  0  1  0  0  0  0  0999 V2000
   -0.1887    0.8739   -2.6853 C   0  0  0  0  0  0  0  0  0  0  0  0
    0.9676    1.7867   -2.9385 C   0  0  1  0  0  0  0  0  0  0  0  0
    1.2304    2.6865   -1.7530 C   0  0  0  0  0  0  0  0  0  0  0  0
    0.6087    2.4931   -0.4687 C   0  0  0  0  0  0  0  0  0  0  0  0
   -0.3488    1.5503   -0.3228 C   0  0  0  0  0  0  0  0  0  0  0  0
   -0.7575    0.7432   -1.4624 C   0  0  0  0  0  0  0  0  0  0  0  0
   -0.5008    0.2741   -3.5307 H   0  0  0  0  0  0  0  0  0  0  0  0
    0.8067    2.3840   -3.8473 H   0  0  0  0  0  0  0  0  0  0  0  0
    0.9292    3.1120    0.3631 H   0  0  0  0  0  0  0  0  0  0  0  0
   -0.8372    1.3706    0.6274 H   0  0  0  0  0  0  0  0  0  0  0  0
    2.1493    3.6062   -1.9047 N   0  0  0  0  0  0  0  0  0  0  0  0
    2.9722    4.3753   -2.0995 N   0  0  0  0  0  0  0  0  0  0  0  0
    5.0593   -0.4370   -4.6764 C   0  0  0  0  0  0  0  0  0  0  0  0
    6.4306   -0.5104   -4.4367 C   0  0  0  0  0  0  0  0  0  0  0  0
    7.1393    0.6216   -4.0115 C   0  0  0  0  0  0  0  0  0  0  0  0
    6.4473    1.8267   -3.8298 C   0  0  0  0  0  0  0  0  0  0  0  0
    5.0735    1.9059   -4.0647 C   0  0  0  0  0  0  0  0  0  0  0  0
    4.3802    0.7605   -4.4805 C   0  0  0  0  0  0  0  0  0  0  0  0
    4.4885   -1.2987   -5.0099 H   0  0  0  0  0  0  0  0  0  0  0  0
    6.9556   -1.4503   -4.5809 H   0  0  0  0  0  0  0  0  0  0  0  0
    6.9839    2.7151   -3.5010 H   0  0  0  0  0  0  0  0  0  0  0  0
    4.9125    3.7474   -3.5260 H   0  0  0  0  0  0  0  0  0  0  0  0
    2.6071    0.8476   -4.8199 S   0  0  2  0  0  0  0  0  0  0  0  0
    2.2064    1.0115   -3.1803 O   0  0  0  0  0  0  0  0  0  0  0  0
    2.2203   -0.5096   -5.3115 O   0  0  0  0  0  0  0  0  0  0  0  0
    4.3573    3.0574   -3.9117 O   0  0  0  0  0  0  0  0  0  0  0  0
    8.6311    0.5616   -3.7855 C   0  0  0  0  0  0  0  0  0  0  0  0
    8.9525   -0.4482   -3.5162 H   0  0  0  0  0  0  0  0  0  0  0  0
    9.1778    0.8467   -4.6932 H   0  0  0  0  0  0  0  0  0  0  0  0
    8.9457    1.2435   -2.9895 H   0  0  0  0  0  0  0  0  0  0  0  0
   -1.7702   -0.1118   -1.1496 O   0  0  0  0  0  0  0  0  0  0  0  0
   -2.2419   -0.9781   -2.1714 C   0  0  0  0  0  0  0  0  0  0  0  0
   -3.0216   -1.5896   -1.7147 H   0  0  0  0  0  0  0  0  0  0  0  0
   -1.4392   -1.6245   -2.5472 H   0  0  0  0  0  0  0  0  0  0  0  0
   -2.6666   -0.4114   -3.0096 H   0  0  0  0  0  0  0  0  0  0  0  0
  1  6  1  0  0  0  0
  2  8  1  6  0  0  0
  2  1  1  0  0  0  0
  2  3  1  0  0  0  0
  3  4  2  0  0  0  0
  4  5  1  0  0  0  0
  4  9  1  0  0  0  0
  5 10  1  0  0  0  0
  6 31  1  0  0  0  0
  6  5  2  0  0  0  0
  7  1  1  0  0  0  0
 11  3  1  0  0  0  0
 12 11  1  0  0  0  0
 13 18  2  0  0  0  0
 13 14  1  0  0  0  0
 14 15  2  0  0  0  0
 15 16  1  0  0  0  0
 15 27  1  0  0  0  0
 16 21  1  0  0  0  0
 17 26  1  0  0  0  0
 17 16  2  0  0  0  0
 18 17  1  0  0  0  0
 19 13  1  0  0  0  0
 20 14  1  0  0  0  0
 23 25  1  1  0  0  0
 23 18  1  0  0  0  0
 23 24  1  0  0  0  0
 24  2  1  0  0  0  0
 26 22  1  0  0  0  0
 27 28  1  0  0  0  0
 27 30  1  0  0  0  0
 29 27  1  0  0  0  0
 32 33  1  0  0  0  0
 32 31  1  0  0  0  0
 34 32  1  0  0  0  0
 35 32  1  0  0  0  0
M  RAD  4   1   2  11   2  12   3  25   2
M  END
