Coordinates from ORCA-job p-CH3O-Ph-N2-X-OTs-B3LYPG-6-31G_dp-scan-d09-49-n400
 OpenBabel08281821253D

 35 36  0  0  1  0  0  0  0  0999 V2000
    0.1993    0.6017   -3.1387 C   0  0  0  0  0  0  0  0  0  0  0  0
    1.0692    1.7986   -3.3599 C   0  0  1  0  0  0  0  0  0  0  0  0
    0.9509    2.8975   -2.2985 C   0  0  0  0  0  0  0  0  0  0  0  0
    0.0238    2.6993   -1.2051 C   0  0  0  0  0  0  0  0  0  0  0  0
   -0.7244    1.5746   -1.1035 C   0  0  0  0  0  0  0  0  0  0  0  0
   -0.6435    0.5031   -2.0886 C   0  0  0  0  0  0  0  0  0  0  0  0
    0.2842   -0.2078   -3.8552 H   0  0  0  0  0  0  0  0  0  0  0  0
    0.8097    2.2835   -4.3188 H   0  0  0  0  0  0  0  0  0  0  0  0
   -0.0291    3.4856   -0.4594 H   0  0  0  0  0  0  0  0  0  0  0  0
   -1.3951    1.4666   -0.2581 H   0  0  0  0  0  0  0  0  0  0  0  0
    1.6465    3.9889   -2.3265 N   0  0  0  0  0  0  0  0  0  0  0  0
    2.3515    4.1854   -3.5988 N   0  0  0  0  0  0  0  0  0  0  0  0
    5.2413   -0.4907   -4.5228 C   0  0  0  0  0  0  0  0  0  0  0  0
    6.5763   -0.6673   -4.1681 C   0  0  0  0  0  0  0  0  0  0  0  0
    7.3745    0.4214   -3.7839 C   0  0  0  0  0  0  0  0  0  0  0  0
    6.8004    1.7004   -3.7694 C   0  0  0  0  0  0  0  0  0  0  0  0
    5.4655    1.8957   -4.1210 C   0  0  0  0  0  0  0  0  0  0  0  0
    4.6945    0.7911   -4.4842 C   0  0  0  0  0  0  0  0  0  0  0  0
    4.6154   -1.3227   -4.8296 H   0  0  0  0  0  0  0  0  0  0  0  0
    7.0089   -1.6646   -4.1929 H   0  0  0  0  0  0  0  0  0  0  0  0
    7.4056    2.5549   -3.4791 H   0  0  0  0  0  0  0  0  0  0  0  0
    5.0360    2.8928   -4.1032 H   0  0  0  0  0  0  0  0  0  0  0  0
    2.9816    1.0156   -5.0141 S   0  0  2  0  0  0  0  0  0  0  0  0
    2.4643    1.4004   -3.4223 O   0  0  0  0  0  0  0  0  0  0  0  0
    2.4756   -0.3353   -5.4027 O   0  0  0  0  0  0  0  0  0  0  0  0
    3.3206    4.7207   -3.5115 O   0  0  0  0  0  0  0  0  0  0  0  0
    8.8167    0.2120   -3.3885 C   0  0  0  0  0  0  0  0  0  0  0  0
    9.3451   -0.4079   -4.1206 H   0  0  0  0  0  0  0  0  0  0  0  0
    9.3505    1.1616   -3.3003 H   0  0  0  0  0  0  0  0  0  0  0  0
    8.8880   -0.3009   -2.4217 H   0  0  0  0  0  0  0  0  0  0  0  0
   -1.3939   -0.6344   -1.9763 O   0  0  0  0  0  0  0  0  0  0  0  0
   -2.3437   -0.7540   -0.9288 C   0  0  0  0  0  0  0  0  0  0  0  0
   -2.8281   -1.7198   -1.0801 H   0  0  0  0  0  0  0  0  0  0  0  0
   -3.1069    0.0343   -0.9696 H   0  0  0  0  0  0  0  0  0  0  0  0
   -1.8712   -0.7492    0.0617 H   0  0  0  0  0  0  0  0  0  0  0  0
  1  6  2  0  0  0  0
  2  8  1  6  0  0  0
  2  1  1  0  0  0  0
  2  3  1  0  0  0  0
  3  4  2  0  0  0  0
  4  5  1  0  0  0  0
  4  9  1  0  0  0  0
  5 10  1  0  0  0  0
  6 31  1  0  0  0  0
  6  5  1  0  0  0  0
  7  1  1  0  0  0  0
 11  3  1  0  0  0  0
 12 26  1  0  0  0  0
 12 11  1  0  0  0  0
 13 18  2  0  0  0  0
 13 14  1  0  0  0  0
 14 15  2  0  0  0  0
 15 16  1  0  0  0  0
 15 27  1  0  0  0  0
 16 21  1  0  0  0  0
 17 22  1  0  0  0  0
 17 16  2  0  0  0  0
 18 17  1  0  0  0  0
 19 13  1  0  0  0  0
 20 14  1  0  0  0  0
 23 25  1  1  0  0  0
 23 18  1  0  0  0  0
 23 24  1  0  0  0  0
 24  2  1  0  0  0  0
 27 29  1  0  0  0  0
 27 30  1  0  0  0  0
 28 27  1  0  0  0  0
 31 32  1  0  0  0  0
 32 35  1  0  0  0  0
 33 32  1  0  0  0  0
 34 32  1  0  0  0  0
M  RAD  5   5   2  11   2  12   2  25   2  26   2
M  END
