Coordinates from ORCA-job p-CH3O-Ph-N2-X-OTs-B3LYPG-6-31G_dp-scan-d09-49-n400
 OpenBabel08281821253D

 35 36  0  0  1  0  0  0  0  0999 V2000
    0.0356    0.4717   -3.2298 C   0  0  0  0  0  0  0  0  0  0  0  0
    0.9364    1.5891   -3.6501 C   0  0  1  0  0  0  0  0  0  0  0  0
    0.9017    2.7823   -2.6855 C   0  0  0  0  0  0  0  0  0  0  0  0
    0.2604    2.6708   -1.4000 C   0  0  0  0  0  0  0  0  0  0  0  0
   -0.4521    1.5588   -1.0966 C   0  0  0  0  0  0  0  0  0  0  0  0
   -0.5923    0.4477   -2.0342 C   0  0  0  0  0  0  0  0  0  0  0  0
   -0.0445   -0.3704   -3.9079 H   0  0  0  0  0  0  0  0  0  0  0  0
    0.6446    1.9575   -4.6459 H   0  0  0  0  0  0  0  0  0  0  0  0
    0.3621    3.4912   -0.6985 H   0  0  0  0  0  0  0  0  0  0  0  0
   -0.9250    1.4944   -0.1239 H   0  0  0  0  0  0  0  0  0  0  0  0
    1.4959    3.8645   -3.0363 N   0  0  0  0  0  0  0  0  0  0  0  0
    2.0231    4.6128   -3.8329 N   0  0  0  0  0  0  0  0  0  0  0  0
    5.3384   -0.2522   -4.9643 C   0  0  0  0  0  0  0  0  0  0  0  0
    6.6220   -0.4982   -4.4795 C   0  0  0  0  0  0  0  0  0  0  0  0
    7.2490    0.4013   -3.6057 C   0  0  0  0  0  0  0  0  0  0  0  0
    6.5589    1.5645   -3.2287 C   0  0  0  0  0  0  0  0  0  0  0  0
    5.2747    1.8302   -3.6974 C   0  0  0  0  0  0  0  0  0  0  0  0
    4.6773    0.9048   -4.5587 C   0  0  0  0  0  0  0  0  0  0  0  0
    4.8441   -0.9367   -5.6468 H   0  0  0  0  0  0  0  0  0  0  0  0
    7.1471   -1.3988   -4.7875 H   0  0  0  0  0  0  0  0  0  0  0  0
    7.0375    2.2755   -2.5595 H   0  0  0  0  0  0  0  0  0  0  0  0
    4.7396    2.7340   -3.4087 H   0  0  0  0  0  0  0  0  0  0  0  0
    3.0505    1.2533   -5.2508 S   0  0  2  0  0  0  0  0  0  0  0  0
    2.2924    1.1032   -3.6949 O   0  0  0  0  0  0  0  0  0  0  0  0
    2.6726    0.0772   -6.0880 O   0  0  0  0  0  0  0  0  0  0  0  0
    3.6426    4.5476   -3.7771 O   0  0  0  0  0  0  0  0  0  0  0  0
    8.6314    0.1211   -3.0663 C   0  0  0  0  0  0  0  0  0  0  0  0
    9.1622   -0.6094   -3.6834 H   0  0  0  0  0  0  0  0  0  0  0  0
    9.2349    1.0331   -3.0210 H   0  0  0  0  0  0  0  0  0  0  0  0
    8.5814   -0.2836   -2.0477 H   0  0  0  0  0  0  0  0  0  0  0  0
   -1.3406   -0.6520   -1.7294 O   0  0  0  0  0  0  0  0  0  0  0  0
   -2.1362   -0.6658   -0.5519 C   0  0  0  0  0  0  0  0  0  0  0  0
   -2.6871   -1.6068   -0.5817 H   0  0  0  0  0  0  0  0  0  0  0  0
   -2.8529    0.1648   -0.5291 H   0  0  0  0  0  0  0  0  0  0  0  0
   -1.5253   -0.6459    0.3592 H   0  0  0  0  0  0  0  0  0  0  0  0
  1  6  2  0  0  0  0
  2  8  1  6  0  0  0
  2  1  1  0  0  0  0
  2  3  1  0  0  0  0
  3  4  2  0  0  0  0
  4  5  1  0  0  0  0
  4  9  1  0  0  0  0
  5 10  1  0  0  0  0
  6 31  1  0  0  0  0
  6  5  1  0  0  0  0
  7  1  1  0  0  0  0
 11  3  1  0  0  0  0
 12 26  1  0  0  0  0
 12 11  1  0  0  0  0
 13 18  2  0  0  0  0
 13 14  1  0  0  0  0
 14 15  2  0  0  0  0
 15 16  1  0  0  0  0
 15 27  1  0  0  0  0
 16 21  1  0  0  0  0
 17 22  1  0  0  0  0
 17 16  2  0  0  0  0
 18 17  1  0  0  0  0
 19 13  1  0  0  0  0
 20 14  1  0  0  0  0
 23 25  1  6  0  0  0
 23 18  1  0  0  0  0
 23 24  1  0  0  0  0
 24  2  1  0  0  0  0
 27 29  1  0  0  0  0
 27 30  1  0  0  0  0
 28 27  1  0  0  0  0
 31 32  1  0  0  0  0
 32 34  1  0  0  0  0
 32 35  1  0  0  0  0
 33 32  1  0  0  0  0
M  RAD  5   5   2  11   2  12   2  25   2  26   2
M  END
