Coordinates from ORCA-job p-CH3O-Ph-N2-X-OTs-B3LYPG-6-31G_dp-scan-d09-49-n400
 OpenBabel08281821253D

 35 36  0  0  1  0  0  0  0  0999 V2000
   -0.2060    0.8182   -2.6496 C   0  0  0  0  0  0  0  0  0  0  0  0
    1.0158    1.6474   -2.8827 C   0  0  1  0  0  0  0  0  0  0  0  0
    1.3544    2.4927   -1.6748 C   0  0  0  0  0  0  0  0  0  0  0  0
    0.6139    2.4399   -0.4433 C   0  0  0  0  0  0  0  0  0  0  0  0
   -0.4615    1.6275   -0.3359 C   0  0  0  0  0  0  0  0  0  0  0  0
   -0.8645    0.8029   -1.4654 C   0  0  0  0  0  0  0  0  0  0  0  0
   -0.5193    0.2094   -3.4884 H   0  0  0  0  0  0  0  0  0  0  0  0
    0.8967    2.2779   -3.7770 H   0  0  0  0  0  0  0  0  0  0  0  0
    0.9519    3.0472    0.3902 H   0  0  0  0  0  0  0  0  0  0  0  0
   -1.0375    1.5522    0.5786 H   0  0  0  0  0  0  0  0  0  0  0  0
    2.4482    3.2080   -1.7619 N   0  0  0  0  0  0  0  0  0  0  0  0
    3.4350    3.7500   -1.9742 N   0  0  0  0  0  0  0  0  0  0  0  0
    5.1325   -0.4519   -4.6302 C   0  0  0  0  0  0  0  0  0  0  0  0
    6.5089   -0.4511   -4.4126 C   0  0  0  0  0  0  0  0  0  0  0  0
    7.1696    0.7272   -4.0377 C   0  0  0  0  0  0  0  0  0  0  0  0
    6.4215    1.9010   -3.8797 C   0  0  0  0  0  0  0  0  0  0  0  0
    5.0417    1.9053   -4.0925 C   0  0  0  0  0  0  0  0  0  0  0  0
    4.3963    0.7165   -4.4602 C   0  0  0  0  0  0  0  0  0  0  0  0
    4.6008   -1.3489   -4.9340 H   0  0  0  0  0  0  0  0  0  0  0  0
    7.0768   -1.3687   -4.5378 H   0  0  0  0  0  0  0  0  0  0  0  0
    6.9176    2.8239   -3.5841 H   0  0  0  0  0  0  0  0  0  0  0  0
    4.8447    3.7856   -3.7404 H   0  0  0  0  0  0  0  0  0  0  0  0
    2.6188    0.7067   -4.7959 S   0  0  2  0  0  0  0  0  0  0  0  0
    2.1978    0.7983   -3.1571 O   0  0  0  0  0  0  0  0  0  0  0  0
    2.3132   -0.6592   -5.3168 O   0  0  0  0  0  0  0  0  0  0  0  0
    4.2774    3.0322   -3.9485 O   0  0  0  0  0  0  0  0  0  0  0  0
    8.6663    0.7459   -3.8386 C   0  0  0  0  0  0  0  0  0  0  0  0
    9.0359   -0.2303   -3.5130 H   0  0  0  0  0  0  0  0  0  0  0  0
    9.1837    0.9947   -4.7736 H   0  0  0  0  0  0  0  0  0  0  0  0
    8.9643    1.4897   -3.0935 H   0  0  0  0  0  0  0  0  0  0  0  0
   -1.9665    0.0525   -1.1857 O   0  0  0  0  0  0  0  0  0  0  0  0
   -2.4400   -0.8282   -2.1938 C   0  0  0  0  0  0  0  0  0  0  0  0
   -3.2995   -1.3458   -1.7653 H   0  0  0  0  0  0  0  0  0  0  0  0
   -1.6727   -1.5595   -2.4761 H   0  0  0  0  0  0  0  0  0  0  0  0
   -2.7559   -0.2777   -3.0891 H   0  0  0  0  0  0  0  0  0  0  0  0
  1  6  1  0  0  0  0
  2  8  1  6  0  0  0
  2  1  1  0  0  0  0
  2  3  1  0  0  0  0
  3  4  2  0  0  0  0
  4  5  1  0  0  0  0
  4  9  1  0  0  0  0
  5 10  1  0  0  0  0
  6 31  1  0  0  0  0
  6  5  2  0  0  0  0
  7  1  1  0  0  0  0
 11  3  1  0  0  0  0
 12 11  1  0  0  0  0
 13 18  2  0  0  0  0
 13 14  1  0  0  0  0
 14 15  2  0  0  0  0
 15 16  1  0  0  0  0
 15 27  1  0  0  0  0
 16 21  1  0  0  0  0
 17 26  1  0  0  0  0
 17 16  2  0  0  0  0
 18 17  1  0  0  0  0
 19 13  1  0  0  0  0
 20 14  1  0  0  0  0
 23 25  1  1  0  0  0
 23 18  1  0  0  0  0
 23 24  1  0  0  0  0
 24  2  1  0  0  0  0
 26 22  1  0  0  0  0
 27 28  1  0  0  0  0
 27 30  1  0  0  0  0
 29 27  1  0  0  0  0
 32 33  1  0  0  0  0
 32 31  1  0  0  0  0
 34 32  1  0  0  0  0
 35 32  1  0  0  0  0
M  RAD  4   1   2  11   2  12   3  25   2
M  END
