Coordinates from ORCA-job p-CH3O-Ph-N2-X-OTs-B3LYPG-6-31G_dp-scan-d09-49-n400
 OpenBabel08281821253D

 35 36  0  0  1  0  0  0  0  0999 V2000
   -0.1204    0.9343   -2.7089 C   0  0  0  0  0  0  0  0  0  0  0  0
    0.8819    2.0205   -2.9338 C   0  0  1  0  0  0  0  0  0  0  0  0
    0.9747    2.9363   -1.7410 C   0  0  0  0  0  0  0  0  0  0  0  0
    0.4567    2.5781   -0.4444 C   0  0  0  0  0  0  0  0  0  0  0  0
   -0.3049    1.4692   -0.3131 C   0  0  0  0  0  0  0  0  0  0  0  0
   -0.6155    0.6563   -1.4787 C   0  0  0  0  0  0  0  0  0  0  0  0
   -0.3489    0.3246   -3.5735 H   0  0  0  0  0  0  0  0  0  0  0  0
    0.6494    2.5937   -3.8428 H   0  0  0  0  0  0  0  0  0  0  0  0
    0.6846    3.2169    0.4029 H   0  0  0  0  0  0  0  0  0  0  0  0
   -0.7146    1.1649    0.6425 H   0  0  0  0  0  0  0  0  0  0  0  0
    1.6245    4.0642   -1.8878 N   0  0  0  0  0  0  0  0  0  0  0  0
    2.1864    5.0502   -2.0266 N   0  0  0  0  0  0  0  0  0  0  0  0
    4.8698   -0.3697   -4.5708 C   0  0  0  0  0  0  0  0  0  0  0  0
    6.2240   -0.6065   -4.3424 C   0  0  0  0  0  0  0  0  0  0  0  0
    7.0805    0.4474   -3.9953 C   0  0  0  0  0  0  0  0  0  0  0  0
    6.5519    1.7395   -3.8804 C   0  0  0  0  0  0  0  0  0  0  0  0
    5.1949    1.9832   -4.1041 C   0  0  0  0  0  0  0  0  0  0  0  0
    4.3525    0.9152   -4.4422 C   0  0  0  0  0  0  0  0  0  0  0  0
    4.1871   -1.1671   -4.8490 H   0  0  0  0  0  0  0  0  0  0  0  0
    6.6206   -1.6132   -4.4358 H   0  0  0  0  0  0  0  0  0  0  0  0
    7.2046    2.5681   -3.6095 H   0  0  0  0  0  0  0  0  0  0  0  0
    5.3154    3.8638   -3.7523 H   0  0  0  0  0  0  0  0  0  0  0  0
    2.5996    1.1933   -4.7859 S   0  0  2  0  0  0  0  0  0  0  0  0
    2.2327    1.4413   -3.1508 O   0  0  0  0  0  0  0  0  0  0  0  0
    2.0635   -0.1266   -5.2434 O   0  0  0  0  0  0  0  0  0  0  0  0
    4.6400    3.2244   -4.0129 O   0  0  0  0  0  0  0  0  0  0  0  0
    8.5561    0.2080   -3.7809 C   0  0  0  0  0  0  0  0  0  0  0  0
    8.7501   -0.8212   -3.4666 H   0  0  0  0  0  0  0  0  0  0  0  0
    9.1211    0.3783   -4.7060 H   0  0  0  0  0  0  0  0  0  0  0  0
    8.9674    0.8793   -3.0207 H   0  0  0  0  0  0  0  0  0  0  0  0
   -1.4627   -0.3679   -1.1812 O   0  0  0  0  0  0  0  0  0  0  0  0
   -1.8146   -1.2577   -2.2312 C   0  0  0  0  0  0  0  0  0  0  0  0
   -2.4586   -2.0160   -1.7829 H   0  0  0  0  0  0  0  0  0  0  0  0
   -0.9271   -1.7354   -2.6630 H   0  0  0  0  0  0  0  0  0  0  0  0
   -2.3625   -0.7381   -3.0278 H   0  0  0  0  0  0  0  0  0  0  0  0
  1  6  1  0  0  0  0
  2  8  1  6  0  0  0
  2  1  1  0  0  0  0
  2  3  1  0  0  0  0
  3  4  2  0  0  0  0
  4  5  1  0  0  0  0
  4  9  1  0  0  0  0
  5 10  1  0  0  0  0
  6 31  1  0  0  0  0
  6  5  2  0  0  0  0
  7  1  1  0  0  0  0
 11  3  1  0  0  0  0
 12 11  1  0  0  0  0
 13 18  2  0  0  0  0
 13 14  1  0  0  0  0
 14 15  2  0  0  0  0
 15 16  1  0  0  0  0
 15 27  1  0  0  0  0
 16 21  1  0  0  0  0
 17 26  1  0  0  0  0
 17 16  2  0  0  0  0
 18 17  1  0  0  0  0
 19 13  1  0  0  0  0
 20 14  1  0  0  0  0
 23 25  1  1  0  0  0
 23 18  1  0  0  0  0
 23 24  1  0  0  0  0
 24  2  1  0  0  0  0
 26 22  1  0  0  0  0
 27 28  1  0  0  0  0
 27 30  1  0  0  0  0
 29 27  1  0  0  0  0
 32 33  1  0  0  0  0
 32 31  1  0  0  0  0
 34 32  1  0  0  0  0
 35 32  1  0  0  0  0
M  RAD  4   1   2  11   2  12   3  25   2
M  END
