Coordinates from ORCA-job p-CH3O-Ph-N2-X-OTs-B3LYPG-6-31G_dp-scan-d09-49-n400
 OpenBabel08281821253D

 35 36  0  0  1  0  0  0  0  0999 V2000
   -0.1707    0.9079   -2.7033 C   0  0  0  0  0  0  0  0  0  0  0  0
    0.9329    1.8857   -2.9486 C   0  0  1  0  0  0  0  0  0  0  0  0
    1.1317    2.7989   -1.7643 C   0  0  0  0  0  0  0  0  0  0  0  0
    0.5766    2.5189   -0.4643 C   0  0  0  0  0  0  0  0  0  0  0  0
   -0.2990    1.4998   -0.3172 C   0  0  0  0  0  0  0  0  0  0  0  0
   -0.6921    0.7035   -1.4695 C   0  0  0  0  0  0  0  0  0  0  0  0
   -0.4660    0.3131   -3.5582 H   0  0  0  0  0  0  0  0  0  0  0  0
    0.7486    2.4708   -3.8604 H   0  0  0  0  0  0  0  0  0  0  0  0
    0.8727    3.1410    0.3741 H   0  0  0  0  0  0  0  0  0  0  0  0
   -0.7389    1.2558    0.6422 H   0  0  0  0  0  0  0  0  0  0  0  0
    1.9226    3.8302   -1.9232 N   0  0  0  0  0  0  0  0  0  0  0  0
    2.6172    4.7240   -2.0839 N   0  0  0  0  0  0  0  0  0  0  0  0
    4.9933   -0.4249   -4.6420 C   0  0  0  0  0  0  0  0  0  0  0  0
    6.3607   -0.5555   -4.4050 C   0  0  0  0  0  0  0  0  0  0  0  0
    7.1208    0.5504   -4.0006 C   0  0  0  0  0  0  0  0  0  0  0  0
    6.4837    1.7878   -3.8367 C   0  0  0  0  0  0  0  0  0  0  0  0
    5.1140    1.9243   -4.0691 C   0  0  0  0  0  0  0  0  0  0  0  0
    4.3689    0.8050   -4.4650 C   0  0  0  0  0  0  0  0  0  0  0  0
    4.3833   -1.2653   -4.9597 H   0  0  0  0  0  0  0  0  0  0  0  0
    6.8425   -1.5201   -4.5353 H   0  0  0  0  0  0  0  0  0  0  0  0
    7.0605    2.6561   -3.5224 H   0  0  0  0  0  0  0  0  0  0  0  0
    5.0469    3.7855   -3.5917 H   0  0  0  0  0  0  0  0  0  0  0  0
    2.6018    0.9623   -4.8087 S   0  0  2  0  0  0  0  0  0  0  0  0
    2.2160    1.1760   -3.1729 O   0  0  0  0  0  0  0  0  0  0  0  0
    2.1575   -0.3864   -5.2767 O   0  0  0  0  0  0  0  0  0  0  0  0
    4.4502    3.1076   -3.9344 O   0  0  0  0  0  0  0  0  0  0  0  0
    8.6092    0.4277   -3.7771 C   0  0  0  0  0  0  0  0  0  0  0  0
    8.8884   -0.5950   -3.5098 H   0  0  0  0  0  0  0  0  0  0  0  0
    9.1661    0.6915   -4.6851 H   0  0  0  0  0  0  0  0  0  0  0  0
    8.9534    1.0943   -2.9804 H   0  0  0  0  0  0  0  0  0  0  0  0
   -1.6414   -0.2212   -1.1556 O   0  0  0  0  0  0  0  0  0  0  0  0
   -2.0920   -1.0820   -2.1917 C   0  0  0  0  0  0  0  0  0  0  0  0
   -2.8156   -1.7571   -1.7320 H   0  0  0  0  0  0  0  0  0  0  0  0
   -1.2637   -1.6627   -2.6159 H   0  0  0  0  0  0  0  0  0  0  0  0
   -2.5799   -0.5164   -2.9956 H   0  0  0  0  0  0  0  0  0  0  0  0
  1  6  1  0  0  0  0
  2  8  1  6  0  0  0
  2  1  1  0  0  0  0
  2  3  1  0  0  0  0
  3  4  2  0  0  0  0
  4  5  1  0  0  0  0
  4  9  1  0  0  0  0
  5 10  1  0  0  0  0
  6 31  1  0  0  0  0
  6  5  2  0  0  0  0
  7  1  1  0  0  0  0
 11  3  1  0  0  0  0
 12 11  1  0  0  0  0
 13 18  2  0  0  0  0
 13 14  1  0  0  0  0
 14 15  2  0  0  0  0
 15 16  1  0  0  0  0
 15 27  1  0  0  0  0
 16 21  1  0  0  0  0
 17 26  1  0  0  0  0
 17 16  2  0  0  0  0
 18 17  1  0  0  0  0
 19 13  1  0  0  0  0
 20 14  1  0  0  0  0
 23 25  1  1  0  0  0
 23 18  1  0  0  0  0
 23 24  1  0  0  0  0
 24  2  1  0  0  0  0
 26 22  1  0  0  0  0
 27 28  1  0  0  0  0
 27 30  1  0  0  0  0
 29 27  1  0  0  0  0
 32 33  1  0  0  0  0
 32 31  1  0  0  0  0
 34 32  1  0  0  0  0
 35 32  1  0  0  0  0
M  RAD  4   1   2  11   2  12   3  25   2
M  END
