Coordinates from ORCA-job p-CH3O-Ph-N2-X-OTs-B3LYPG-6-31G_dp-scan-d09-49-n400
 OpenBabel08281821253D

 35 36  0  0  1  0  0  0  0  0999 V2000
   -0.1844    0.8957   -2.6989 C   0  0  0  0  0  0  0  0  0  0  0  0
    0.9512    1.8341   -2.9521 C   0  0  1  0  0  0  0  0  0  0  0  0
    1.1890    2.7421   -1.7695 C   0  0  0  0  0  0  0  0  0  0  0  0
    0.6146    2.4976   -0.4710 C   0  0  0  0  0  0  0  0  0  0  0  0
   -0.3020    1.5158   -0.3193 C   0  0  0  0  0  0  0  0  0  0  0  0
   -0.7183    0.7226   -1.4657 C   0  0  0  0  0  0  0  0  0  0  0  0
   -0.4991    0.3047   -3.5494 H   0  0  0  0  0  0  0  0  0  0  0  0
    0.7812    2.4244   -3.8634 H   0  0  0  0  0  0  0  0  0  0  0  0
    0.9319    3.1141    0.3637 H   0  0  0  0  0  0  0  0  0  0  0  0
   -0.7563    1.2987    0.6399 H   0  0  0  0  0  0  0  0  0  0  0  0
    2.0354    3.7274   -1.9311 N   0  0  0  0  0  0  0  0  0  0  0  0
    2.7856    4.5718   -2.1081 N   0  0  0  0  0  0  0  0  0  0  0  0
    5.0309   -0.4352   -4.6668 C   0  0  0  0  0  0  0  0  0  0  0  0
    6.4003   -0.5322   -4.4239 C   0  0  0  0  0  0  0  0  0  0  0  0
    7.1283    0.5882   -4.0009 C   0  0  0  0  0  0  0  0  0  0  0  0
    6.4578    1.8062   -3.8245 C   0  0  0  0  0  0  0  0  0  0  0  0
    5.0863    1.9089   -4.0628 C   0  0  0  0  0  0  0  0  0  0  0  0
    4.3733    0.7751   -4.4768 C   0  0  0  0  0  0  0  0  0  0  0  0
    4.4452   -1.2879   -4.9975 H   0  0  0  0  0  0  0  0  0  0  0  0
    6.9085   -1.4819   -4.5638 H   0  0  0  0  0  0  0  0  0  0  0  0
    7.0095    2.6858   -3.4969 H   0  0  0  0  0  0  0  0  0  0  0  0
    4.9542    3.7562   -3.5357 H   0  0  0  0  0  0  0  0  0  0  0  0
    2.6034    0.8929   -4.8215 S   0  0  2  0  0  0  0  0  0  0  0  0
    2.2065    1.0808   -3.1843 O   0  0  0  0  0  0  0  0  0  0  0  0
    2.1924   -0.4612   -5.3026 O   0  0  0  0  0  0  0  0  0  0  0  0
    4.3890    3.0719   -3.9171 O   0  0  0  0  0  0  0  0  0  0  0  0
    8.6183    0.5022   -3.7712 C   0  0  0  0  0  0  0  0  0  0  0  0
    8.9223   -0.5144   -3.5077 H   0  0  0  0  0  0  0  0  0  0  0  0
    9.1722    0.7845   -4.6755 H   0  0  0  0  0  0  0  0  0  0  0  0
    8.9419    1.1735   -2.9699 H   0  0  0  0  0  0  0  0  0  0  0  0
   -1.7009   -0.1648   -1.1471 O   0  0  0  0  0  0  0  0  0  0  0  0
   -2.1762   -1.0204   -2.1764 C   0  0  0  0  0  0  0  0  0  0  0  0
   -2.9262   -1.6639   -1.7139 H   0  0  0  0  0  0  0  0  0  0  0  0
   -1.3667   -1.6351   -2.5888 H   0  0  0  0  0  0  0  0  0  0  0  0
   -2.6388   -0.4467   -2.9895 H   0  0  0  0  0  0  0  0  0  0  0  0
  1  6  1  0  0  0  0
  2  8  1  6  0  0  0
  2  1  1  0  0  0  0
  2  3  1  0  0  0  0
  3  4  2  0  0  0  0
  4  5  1  0  0  0  0
  4  9  1  0  0  0  0
  5 10  1  0  0  0  0
  6 31  1  0  0  0  0
  6  5  2  0  0  0  0
  7  1  1  0  0  0  0
 11  3  1  0  0  0  0
 12 11  1  0  0  0  0
 13 18  2  0  0  0  0
 13 14  1  0  0  0  0
 14 15  2  0  0  0  0
 15 16  1  0  0  0  0
 15 27  1  0  0  0  0
 16 21  1  0  0  0  0
 17 26  1  0  0  0  0
 17 16  2  0  0  0  0
 18 17  1  0  0  0  0
 19 13  1  0  0  0  0
 20 14  1  0  0  0  0
 23 25  1  1  0  0  0
 23 18  1  0  0  0  0
 23 24  1  0  0  0  0
 24  2  1  0  0  0  0
 26 22  1  0  0  0  0
 27 28  1  0  0  0  0
 27 30  1  0  0  0  0
 29 27  1  0  0  0  0
 32 33  1  0  0  0  0
 32 31  1  0  0  0  0
 34 32  1  0  0  0  0
 35 32  1  0  0  0  0
M  RAD  4   1   2  11   2  12   3  25   2
M  END
