Coordinates from ORCA-job p-CH3O-Ph-N2-X-OTs-B3LYPG-6-31G_dp-scan-d09-49-n400
 OpenBabel08281821253D

 35 36  0  0  1  0  0  0  0  0999 V2000
    0.1937    0.5691   -3.1161 C   0  0  0  0  0  0  0  0  0  0  0  0
    1.0796    1.7515   -3.3439 C   0  0  1  0  0  0  0  0  0  0  0  0
    0.9604    2.8620   -2.3030 C   0  0  0  0  0  0  0  0  0  0  0  0
    0.0138    2.7101   -1.2297 C   0  0  0  0  0  0  0  0  0  0  0  0
   -0.7632    1.6013   -1.1284 C   0  0  0  0  0  0  0  0  0  0  0  0
   -0.6793    0.5081   -2.0858 C   0  0  0  0  0  0  0  0  0  0  0  0
    0.2907   -0.2594   -3.8089 H   0  0  0  0  0  0  0  0  0  0  0  0
    0.8222    2.2409   -4.3047 H   0  0  0  0  0  0  0  0  0  0  0  0
   -0.0419    3.5106   -0.4997 H   0  0  0  0  0  0  0  0  0  0  0  0
   -1.4590    1.5265   -0.3001 H   0  0  0  0  0  0  0  0  0  0  0  0
    1.6841    3.9410   -2.3528 N   0  0  0  0  0  0  0  0  0  0  0  0
    2.3558    4.1588   -3.5338 N   0  0  0  0  0  0  0  0  0  0  0  0
    5.2758   -0.4965   -4.5650 C   0  0  0  0  0  0  0  0  0  0  0  0
    6.6156   -0.6537   -4.2196 C   0  0  0  0  0  0  0  0  0  0  0  0
    7.3896    0.4405   -3.8030 C   0  0  0  0  0  0  0  0  0  0  0  0
    6.7865    1.7051   -3.7459 C   0  0  0  0  0  0  0  0  0  0  0  0
    5.4467    1.8827   -4.0878 C   0  0  0  0  0  0  0  0  0  0  0  0
    4.7013    0.7712   -4.4842 C   0  0  0  0  0  0  0  0  0  0  0  0
    4.6681   -1.3330   -4.8956 H   0  0  0  0  0  0  0  0  0  0  0  0
    7.0710   -1.6395   -4.2776 H   0  0  0  0  0  0  0  0  0  0  0  0
    7.3728    2.5634   -3.4296 H   0  0  0  0  0  0  0  0  0  0  0  0
    4.9928    2.8678   -4.0348 H   0  0  0  0  0  0  0  0  0  0  0  0
    2.9859    0.9759   -5.0070 S   0  0  2  0  0  0  0  0  0  0  0  0
    2.4644    1.3393   -3.4063 O   0  0  0  0  0  0  0  0  0  0  0  0
    2.4929   -0.3775   -5.4027 O   0  0  0  0  0  0  0  0  0  0  0  0
    3.4520    4.6587   -3.4138 O   0  0  0  0  0  0  0  0  0  0  0  0
    8.8368    0.2521   -3.4155 C   0  0  0  0  0  0  0  0  0  0  0  0
    9.3698   -0.3625   -4.1485 H   0  0  0  0  0  0  0  0  0  0  0  0
    9.3575    1.2094   -3.3322 H   0  0  0  0  0  0  0  0  0  0  0  0
    8.9204   -0.2567   -2.4474 H   0  0  0  0  0  0  0  0  0  0  0  0
   -1.4512   -0.6129   -1.9691 O   0  0  0  0  0  0  0  0  0  0  0  0
   -2.3941   -0.7158   -0.9130 C   0  0  0  0  0  0  0  0  0  0  0  0
   -2.8821   -1.6820   -1.0482 H   0  0  0  0  0  0  0  0  0  0  0  0
   -3.1553    0.0739   -0.9599 H   0  0  0  0  0  0  0  0  0  0  0  0
   -1.9138   -0.6986    0.0735 H   0  0  0  0  0  0  0  0  0  0  0  0
  1  6  2  0  0  0  0
  2  8  1  6  0  0  0
  2  1  1  0  0  0  0
  2  3  1  0  0  0  0
  3  4  2  0  0  0  0
  4  5  1  0  0  0  0
  4  9  1  0  0  0  0
  5 10  1  0  0  0  0
  6 31  1  0  0  0  0
  6  5  1  0  0  0  0
  7  1  1  0  0  0  0
 11  3  1  0  0  0  0
 12 26  1  0  0  0  0
 12 11  1  0  0  0  0
 13 18  2  0  0  0  0
 13 14  1  0  0  0  0
 14 15  2  0  0  0  0
 15 16  1  0  0  0  0
 15 27  1  0  0  0  0
 16 21  1  0  0  0  0
 17 22  1  0  0  0  0
 17 16  2  0  0  0  0
 18 17  1  0  0  0  0
 19 13  1  0  0  0  0
 20 14  1  0  0  0  0
 23 25  1  1  0  0  0
 23 18  1  0  0  0  0
 23 24  1  0  0  0  0
 24  2  1  0  0  0  0
 27 29  1  0  0  0  0
 27 30  1  0  0  0  0
 28 27  1  0  0  0  0
 31 32  1  0  0  0  0
 32 35  1  0  0  0  0
 33 32  1  0  0  0  0
 34 32  1  0  0  0  0
M  RAD  5   5   2  11   2  12   2  25   2  26   2
M  END
