Coordinates from ORCA-job p-CH3O-Ph-N2-X-OTs-B3LYPG-6-31G_dp-scan-d09-49-n400
 OpenBabel08281821253D

 35 36  0  0  1  0  0  0  0  0999 V2000
   -0.1844    0.8931   -2.6981 C   0  0  0  0  0  0  0  0  0  0  0  0
    0.9509    1.8309   -2.9549 C   0  0  1  0  0  0  0  0  0  0  0  0
    1.1901    2.7418   -1.7746 C   0  0  0  0  0  0  0  0  0  0  0  0
    0.6130    2.5040   -0.4761 C   0  0  0  0  0  0  0  0  0  0  0  0
   -0.3050    1.5240   -0.3214 C   0  0  0  0  0  0  0  0  0  0  0  0
   -0.7200    0.7257   -1.4648 C   0  0  0  0  0  0  0  0  0  0  0  0
   -0.4986    0.2985   -3.5464 H   0  0  0  0  0  0  0  0  0  0  0  0
    0.7796    2.4190   -3.8673 H   0  0  0  0  0  0  0  0  0  0  0  0
    0.9300    3.1236    0.3564 H   0  0  0  0  0  0  0  0  0  0  0  0
   -0.7611    1.3117    0.6380 H   0  0  0  0  0  0  0  0  0  0  0  0
    2.0406    3.7231   -1.9389 N   0  0  0  0  0  0  0  0  0  0  0  0
    2.7956    4.5621   -2.1210 N   0  0  0  0  0  0  0  0  0  0  0  0
    5.0345   -0.4332   -4.6786 C   0  0  0  0  0  0  0  0  0  0  0  0
    6.4038   -0.5294   -4.4349 C   0  0  0  0  0  0  0  0  0  0  0  0
    7.1289    0.5888   -4.0014 C   0  0  0  0  0  0  0  0  0  0  0  0
    6.4556    1.8038   -3.8153 C   0  0  0  0  0  0  0  0  0  0  0  0
    5.0842    1.9057   -4.0544 C   0  0  0  0  0  0  0  0  0  0  0  0
    4.3742    0.7741   -4.4791 C   0  0  0  0  0  0  0  0  0  0  0  0
    4.4510   -1.2842   -5.0176 H   0  0  0  0  0  0  0  0  0  0  0  0
    6.9142   -1.4768   -4.5823 H   0  0  0  0  0  0  0  0  0  0  0  0
    7.0051    2.6817   -3.4794 H   0  0  0  0  0  0  0  0  0  0  0  0
    4.9466    3.7474   -3.5086 H   0  0  0  0  0  0  0  0  0  0  0  0
    2.6043    0.8914   -4.8243 S   0  0  2  0  0  0  0  0  0  0  0  0
    2.2058    1.0771   -3.1872 O   0  0  0  0  0  0  0  0  0  0  0  0
    2.1942   -0.4625   -5.3070 O   0  0  0  0  0  0  0  0  0  0  0  0
    4.3842    3.0658   -3.8989 O   0  0  0  0  0  0  0  0  0  0  0  0
    8.6188    0.5039   -3.7706 C   0  0  0  0  0  0  0  0  0  0  0  0
    8.9245   -0.5140   -3.5143 H   0  0  0  0  0  0  0  0  0  0  0  0
    9.1732    0.7940   -4.6721 H   0  0  0  0  0  0  0  0  0  0  0  0
    8.9402    1.1699   -2.9639 H   0  0  0  0  0  0  0  0  0  0  0  0
   -1.7031   -0.1601   -1.1435 O   0  0  0  0  0  0  0  0  0  0  0  0
   -2.1771   -1.0204   -2.1694 C   0  0  0  0  0  0  0  0  0  0  0  0
   -2.9280   -1.6614   -1.7051 H   0  0  0  0  0  0  0  0  0  0  0  0
   -1.3671   -1.6373   -2.5776 H   0  0  0  0  0  0  0  0  0  0  0  0
   -2.6382   -0.4504   -2.9859 H   0  0  0  0  0  0  0  0  0  0  0  0
  1  6  1  0  0  0  0
  2  8  1  6  0  0  0
  2  1  1  0  0  0  0
  2  3  1  0  0  0  0
  3  4  2  0  0  0  0
  4  5  1  0  0  0  0
  4  9  1  0  0  0  0
  5 10  1  0  0  0  0
  6 31  1  0  0  0  0
  6  5  2  0  0  0  0
  7  1  1  0  0  0  0
 11  3  1  0  0  0  0
 12 11  1  0  0  0  0
 13 18  2  0  0  0  0
 13 14  1  0  0  0  0
 14 15  2  0  0  0  0
 15 16  1  0  0  0  0
 15 27  1  0  0  0  0
 16 21  1  0  0  0  0
 17 26  1  0  0  0  0
 17 16  2  0  0  0  0
 18 17  1  0  0  0  0
 19 13  1  0  0  0  0
 20 14  1  0  0  0  0
 23 25  1  1  0  0  0
 23 18  1  0  0  0  0
 23 24  1  0  0  0  0
 24  2  1  0  0  0  0
 26 22  1  0  0  0  0
 27 28  1  0  0  0  0
 27 30  1  0  0  0  0
 29 27  1  0  0  0  0
 32 33  1  0  0  0  0
 32 31  1  0  0  0  0
 34 32  1  0  0  0  0
 35 32  1  0  0  0  0
M  RAD  4   1   2  11   2  12   3  25   2
M  END
