Coordinates from ORCA-job p-CH3O-Ph-N2-X-OTs-B3LYPG-6-31G_dp-scan-d09-49-n400
 OpenBabel08281821253D

 35 36  0  0  1  0  0  0  0  0999 V2000
   -0.1880    0.8699   -2.6815 C   0  0  0  0  0  0  0  0  0  0  0  0
    0.9713    1.7799   -2.9319 C   0  0  1  0  0  0  0  0  0  0  0  0
    1.2366    2.6760   -1.7440 C   0  0  0  0  0  0  0  0  0  0  0  0
    0.6024    2.4919   -0.4646 C   0  0  0  0  0  0  0  0  0  0  0  0
   -0.3630    1.5565   -0.3229 C   0  0  0  0  0  0  0  0  0  0  0  0
   -0.7664    0.7466   -1.4625 C   0  0  0  0  0  0  0  0  0  0  0  0
   -0.4966    0.2681   -3.5269 H   0  0  0  0  0  0  0  0  0  0  0  0
    0.8124    2.3798   -3.8395 H   0  0  0  0  0  0  0  0  0  0  0  0
    0.9211    3.1110    0.3677 H   0  0  0  0  0  0  0  0  0  0  0  0
   -0.8604    1.3837    0.6239 H   0  0  0  0  0  0  0  0  0  0  0  0
    2.1694    3.5827   -1.8895 N   0  0  0  0  0  0  0  0  0  0  0  0
    3.0058    4.3373   -2.0832 N   0  0  0  0  0  0  0  0  0  0  0  0
    5.0626   -0.4380   -4.6718 C   0  0  0  0  0  0  0  0  0  0  0  0
    6.4345   -0.5079   -4.4342 C   0  0  0  0  0  0  0  0  0  0  0  0
    7.1419    0.6272   -4.0153 C   0  0  0  0  0  0  0  0  0  0  0  0
    6.4479    1.8318   -3.8376 C   0  0  0  0  0  0  0  0  0  0  0  0
    5.0736    1.9075   -4.0703 C   0  0  0  0  0  0  0  0  0  0  0  0
    4.3815    0.7591   -4.4798 C   0  0  0  0  0  0  0  0  0  0  0  0
    4.4928   -1.3021   -5.0008 H   0  0  0  0  0  0  0  0  0  0  0  0
    6.9609   -1.4474   -4.5754 H   0  0  0  0  0  0  0  0  0  0  0  0
    6.9835    2.7225   -3.5135 H   0  0  0  0  0  0  0  0  0  0  0  0
    4.9125    3.7518   -3.5424 H   0  0  0  0  0  0  0  0  0  0  0  0
    2.6075    0.8409   -4.8161 S   0  0  2  0  0  0  0  0  0  0  0  0
    2.2083    1.0027   -3.1758 O   0  0  0  0  0  0  0  0  0  0  0  0
    2.2240   -0.5175   -5.3067 O   0  0  0  0  0  0  0  0  0  0  0  0
    4.3560    3.0589   -3.9208 O   0  0  0  0  0  0  0  0  0  0  0  0
    8.6342    0.5709   -3.7917 C   0  0  0  0  0  0  0  0  0  0  0  0
    8.9576   -0.4366   -3.5167 H   0  0  0  0  0  0  0  0  0  0  0  0
    9.1786    0.8511   -4.7024 H   0  0  0  0  0  0  0  0  0  0  0  0
    8.9492    1.2583   -3.0008 H   0  0  0  0  0  0  0  0  0  0  0  0
   -1.7847   -0.1033   -1.1538 O   0  0  0  0  0  0  0  0  0  0  0  0
   -2.2520   -0.9721   -2.1755 C   0  0  0  0  0  0  0  0  0  0  0  0
   -3.0377   -1.5785   -1.7223 H   0  0  0  0  0  0  0  0  0  0  0  0
   -1.4491   -1.6234   -2.5424 H   0  0  0  0  0  0  0  0  0  0  0  0
   -2.6680   -0.4073   -3.0194 H   0  0  0  0  0  0  0  0  0  0  0  0
  1  6  1  0  0  0  0
  2  8  1  6  0  0  0
  2  1  1  0  0  0  0
  2  3  1  0  0  0  0
  3  4  2  0  0  0  0
  4  5  1  0  0  0  0
  4  9  1  0  0  0  0
  5 10  1  0  0  0  0
  6 31  1  0  0  0  0
  6  5  2  0  0  0  0
  7  1  1  0  0  0  0
 11  3  1  0  0  0  0
 12 11  1  0  0  0  0
 13 18  2  0  0  0  0
 13 14  1  0  0  0  0
 14 15  2  0  0  0  0
 15 16  1  0  0  0  0
 15 27  1  0  0  0  0
 16 21  1  0  0  0  0
 17 26  1  0  0  0  0
 17 16  2  0  0  0  0
 18 17  1  0  0  0  0
 19 13  1  0  0  0  0
 20 14  1  0  0  0  0
 23 25  1  1  0  0  0
 23 18  1  0  0  0  0
 23 24  1  0  0  0  0
 24  2  1  0  0  0  0
 26 22  1  0  0  0  0
 27 28  1  0  0  0  0
 27 30  1  0  0  0  0
 29 27  1  0  0  0  0
 32 33  1  0  0  0  0
 32 31  1  0  0  0  0
 34 32  1  0  0  0  0
 35 32  1  0  0  0  0
M  RAD  4   1   2  11   2  12   3  25   2
M  END
