Coordinates from ORCA-job p-CH3O-Ph-N2-X-OTs-B3LYPG-6-31G_dp-scan-d09-49-n400
 OpenBabel08281821253D

 35 36  0  0  1  0  0  0  0  0999 V2000
    0.1905    0.5159   -3.0821 C   0  0  0  0  0  0  0  0  0  0  0  0
    1.0823    1.6857   -3.3425 C   0  0  1  0  0  0  0  0  0  0  0  0
    0.9590    2.8225   -2.3345 C   0  0  0  0  0  0  0  0  0  0  0  0
   -0.0036    2.7287   -1.2795 C   0  0  0  0  0  0  0  0  0  0  0  0
   -0.8058    1.6351   -1.1637 C   0  0  0  0  0  0  0  0  0  0  0  0
   -0.7123    0.5053   -2.0733 C   0  0  0  0  0  0  0  0  0  0  0  0
    0.3074   -0.3440   -3.7324 H   0  0  0  0  0  0  0  0  0  0  0  0
    0.8119    2.1584   -4.3111 H   0  0  0  0  0  0  0  0  0  0  0  0
   -0.0649    3.5526   -0.5766 H   0  0  0  0  0  0  0  0  0  0  0  0
   -1.5259    1.6037   -0.3536 H   0  0  0  0  0  0  0  0  0  0  0  0
    1.7170    3.8807   -2.4250 N   0  0  0  0  0  0  0  0  0  0  0  0
    2.3547    4.1657   -3.5185 N   0  0  0  0  0  0  0  0  0  0  0  0
    5.3148   -0.4870   -4.6514 C   0  0  0  0  0  0  0  0  0  0  0  0
    6.6566   -0.6297   -4.3073 C   0  0  0  0  0  0  0  0  0  0  0  0
    7.3967    0.4565   -3.8148 C   0  0  0  0  0  0  0  0  0  0  0  0
    6.7581    1.6978   -3.6797 C   0  0  0  0  0  0  0  0  0  0  0  0
    5.4162    1.8635   -4.0190 C   0  0  0  0  0  0  0  0  0  0  0  0
    4.7066    0.7577   -4.4927 C   0  0  0  0  0  0  0  0  0  0  0  0
    4.7325   -1.3176   -5.0379 H   0  0  0  0  0  0  0  0  0  0  0  0
    7.1397   -1.5965   -4.4263 H   0  0  0  0  0  0  0  0  0  0  0  0
    7.3184    2.5494   -3.3037 H   0  0  0  0  0  0  0  0  0  0  0  0
    4.9332    2.8304   -3.9022 H   0  0  0  0  0  0  0  0  0  0  0  0
    2.9935    0.9505   -5.0190 S   0  0  2  0  0  0  0  0  0  0  0  0
    2.4569    1.2691   -3.4070 O   0  0  0  0  0  0  0  0  0  0  0  0
    2.5146   -0.3986   -5.4447 O   0  0  0  0  0  0  0  0  0  0  0  0
    3.6703    4.6490   -3.2827 O   0  0  0  0  0  0  0  0  0  0  0  0
    8.8453    0.2833   -3.4254 C   0  0  0  0  0  0  0  0  0  0  0  0
    9.3855   -0.3280   -4.1554 H   0  0  0  0  0  0  0  0  0  0  0  0
    9.3558    1.2463   -3.3429 H   0  0  0  0  0  0  0  0  0  0  0  0
    8.9323   -0.2211   -2.4550 H   0  0  0  0  0  0  0  0  0  0  0  0
   -1.4968   -0.6020   -1.9329 O   0  0  0  0  0  0  0  0  0  0  0  0
   -2.4303   -0.6782   -0.8650 C   0  0  0  0  0  0  0  0  0  0  0  0
   -2.9143   -1.6502   -0.9678 H   0  0  0  0  0  0  0  0  0  0  0  0
   -3.1957    0.1060   -0.9296 H   0  0  0  0  0  0  0  0  0  0  0  0
   -1.9401   -0.6293    0.1154 H   0  0  0  0  0  0  0  0  0  0  0  0
  1  6  2  0  0  0  0
  2  8  1  6  0  0  0
  2  1  1  0  0  0  0
  2  3  1  0  0  0  0
  3  4  2  0  0  0  0
  4  5  1  0  0  0  0
  4  9  1  0  0  0  0
  5 10  1  0  0  0  0
  6 31  1  0  0  0  0
  6  5  1  0  0  0  0
  7  1  1  0  0  0  0
 11  3  1  0  0  0  0
 12 26  1  0  0  0  0
 12 11  1  0  0  0  0
 13 18  2  0  0  0  0
 13 14  1  0  0  0  0
 14 15  2  0  0  0  0
 15 16  1  0  0  0  0
 15 27  1  0  0  0  0
 16 21  1  0  0  0  0
 17 22  1  0  0  0  0
 17 16  2  0  0  0  0
 18 17  1  0  0  0  0
 19 13  1  0  0  0  0
 20 14  1  0  0  0  0
 23 25  1  1  0  0  0
 23 18  1  0  0  0  0
 23 24  1  0  0  0  0
 24  2  1  0  0  0  0
 27 29  1  0  0  0  0
 27 30  1  0  0  0  0
 28 27  1  0  0  0  0
 31 32  1  0  0  0  0
 32 35  1  0  0  0  0
 33 32  1  0  0  0  0
 34 32  1  0  0  0  0
M  RAD  5   5   2  11   2  12   2  25   2  26   2
M  END
