Coordinates from ORCA-job p-CH3O-Ph-N2-X-OTs-B3LYPG-6-31G_dp-scan-d09-49-n400
 OpenBabel08281821253D

 35 36  0  0  1  0  0  0  0  0999 V2000
   -0.1723    0.9064   -2.7031 C   0  0  0  0  0  0  0  0  0  0  0  0
    0.9344    1.8801   -2.9507 C   0  0  1  0  0  0  0  0  0  0  0  0
    1.1375    2.7943   -1.7678 C   0  0  0  0  0  0  0  0  0  0  0  0
    0.5810    2.5192   -0.4673 C   0  0  0  0  0  0  0  0  0  0  0  0
   -0.2986    1.5037   -0.3182 C   0  0  0  0  0  0  0  0  0  0  0  0
   -0.6945    0.7064   -1.4689 C   0  0  0  0  0  0  0  0  0  0  0  0
   -0.4700    0.3110   -3.5567 H   0  0  0  0  0  0  0  0  0  0  0  0
    0.7512    2.4646   -3.8631 H   0  0  0  0  0  0  0  0  0  0  0  0
    0.8795    3.1417    0.3699 H   0  0  0  0  0  0  0  0  0  0  0  0
   -0.7395    1.2634    0.6417 H   0  0  0  0  0  0  0  0  0  0  0  0
    1.9339    3.8210   -1.9284 N   0  0  0  0  0  0  0  0  0  0  0  0
    2.6341    4.7098   -2.0919 N   0  0  0  0  0  0  0  0  0  0  0  0
    4.9984   -0.4257   -4.6497 C   0  0  0  0  0  0  0  0  0  0  0  0
    6.3661   -0.5526   -4.4116 C   0  0  0  0  0  0  0  0  0  0  0  0
    7.1216    0.5540   -4.0006 C   0  0  0  0  0  0  0  0  0  0  0  0
    6.4799    1.7882   -3.8310 C   0  0  0  0  0  0  0  0  0  0  0  0
    5.1101    1.9210   -4.0645 C   0  0  0  0  0  0  0  0  0  0  0  0
    4.3695    0.8010   -4.4672 C   0  0  0  0  0  0  0  0  0  0  0  0
    4.3919   -1.2667   -4.9725 H   0  0  0  0  0  0  0  0  0  0  0  0
    6.8516   -1.5148   -4.5463 H   0  0  0  0  0  0  0  0  0  0  0  0
    7.0531    2.6570   -3.5116 H   0  0  0  0  0  0  0  0  0  0  0  0
    5.0338    3.7787   -3.5737 H   0  0  0  0  0  0  0  0  0  0  0  0
    2.6022    0.9543   -4.8112 S   0  0  2  0  0  0  0  0  0  0  0  0
    2.2146    1.1657   -3.1754 O   0  0  0  0  0  0  0  0  0  0  0  0
    2.1614   -0.3951   -5.2804 O   0  0  0  0  0  0  0  0  0  0  0  0
    4.4416    3.1010   -3.9244 O   0  0  0  0  0  0  0  0  0  0  0  0
    8.6102    0.4354   -3.7759 C   0  0  0  0  0  0  0  0  0  0  0  0
    8.8927   -0.5874   -3.5126 H   0  0  0  0  0  0  0  0  0  0  0  0
    9.1672    0.7049   -4.6821 H   0  0  0  0  0  0  0  0  0  0  0  0
    8.9512    1.0999   -2.9760 H   0  0  0  0  0  0  0  0  0  0  0  0
   -1.6469   -0.2144   -1.1530 O   0  0  0  0  0  0  0  0  0  0  0  0
   -2.1003   -1.0760   -2.1873 C   0  0  0  0  0  0  0  0  0  0  0  0
   -2.8263   -1.7475   -1.7262 H   0  0  0  0  0  0  0  0  0  0  0  0
   -1.2739   -1.6604   -2.6099 H   0  0  0  0  0  0  0  0  0  0  0  0
   -2.5860   -0.5105   -2.9925 H   0  0  0  0  0  0  0  0  0  0  0  0
  1  6  1  0  0  0  0
  2  8  1  6  0  0  0
  2  1  1  0  0  0  0
  2  3  1  0  0  0  0
  3  4  2  0  0  0  0
  4  5  1  0  0  0  0
  4  9  1  0  0  0  0
  5 10  1  0  0  0  0
  6 31  1  0  0  0  0
  6  5  2  0  0  0  0
  7  1  1  0  0  0  0
 11  3  1  0  0  0  0
 12 11  1  0  0  0  0
 13 18  2  0  0  0  0
 13 14  1  0  0  0  0
 14 15  2  0  0  0  0
 15 16  1  0  0  0  0
 15 27  1  0  0  0  0
 16 21  1  0  0  0  0
 17 26  1  0  0  0  0
 17 16  2  0  0  0  0
 18 17  1  0  0  0  0
 19 13  1  0  0  0  0
 20 14  1  0  0  0  0
 23 25  1  1  0  0  0
 23 18  1  0  0  0  0
 23 24  1  0  0  0  0
 24  2  1  0  0  0  0
 26 22  1  0  0  0  0
 27 28  1  0  0  0  0
 27 30  1  0  0  0  0
 29 27  1  0  0  0  0
 32 33  1  0  0  0  0
 32 31  1  0  0  0  0
 34 32  1  0  0  0  0
 35 32  1  0  0  0  0
M  RAD  4   1   2  11   2  12   3  25   2
M  END
