Coordinates from ORCA-job p-CH3O-Ph-N2-X-OTs-B3LYPG-6-31G_dp-scan-d09-49-n400
 OpenBabel08281821253D

 35 36  0  0  1  0  0  0  0  0999 V2000
   -0.0294    0.9661   -2.7213 C   0  0  0  0  0  0  0  0  0  0  0  0
    0.8220    2.1805   -2.9144 C   0  0  1  0  0  0  0  0  0  0  0  0
    0.7833    3.0693   -1.7000 C   0  0  0  0  0  0  0  0  0  0  0  0
    0.3540    2.5948   -0.4071 C   0  0  0  0  0  0  0  0  0  0  0  0
   -0.2354    1.3830   -0.3044 C   0  0  0  0  0  0  0  0  0  0  0  0
   -0.4587    0.5796   -1.4960 C   0  0  0  0  0  0  0  0  0  0  0  0
   -0.1818    0.3617   -3.6059 H   0  0  0  0  0  0  0  0  0  0  0  0
    0.5175    2.7410   -3.8100 H   0  0  0  0  0  0  0  0  0  0  0  0
    0.5027    3.2323    0.4585 H   0  0  0  0  0  0  0  0  0  0  0  0
   -0.5747    0.9893    0.6462 H   0  0  0  0  0  0  0  0  0  0  0  0
    1.1968    4.3063   -1.8231 N   0  0  0  0  0  0  0  0  0  0  0  0
    1.5423    5.3912   -1.9289 N   0  0  0  0  0  0  0  0  0  0  0  0
    4.6771   -0.2604   -4.4242 C   0  0  0  0  0  0  0  0  0  0  0  0
    5.9953   -0.6424   -4.1876 C   0  0  0  0  0  0  0  0  0  0  0  0
    6.9849    0.3247   -3.9603 C   0  0  0  0  0  0  0  0  0  0  0  0
    6.6237    1.6771   -3.9741 C   0  0  0  0  0  0  0  0  0  0  0  0
    5.3017    2.0673   -4.2061 C   0  0  0  0  0  0  0  0  0  0  0  0
    4.3250    1.0867   -4.4220 C   0  0  0  0  0  0  0  0  0  0  0  0
    3.8960   -0.9889   -4.6201 H   0  0  0  0  0  0  0  0  0  0  0  0
    6.2610   -1.6957   -4.1816 H   0  0  0  0  0  0  0  0  0  0  0  0
    7.3806    2.4406   -3.7994 H   0  0  0  0  0  0  0  0  0  0  0  0
    5.6773    3.9402   -4.0723 H   0  0  0  0  0  0  0  0  0  0  0  0
    2.6067    1.5329   -4.7749 S   0  0  2  0  0  0  0  0  0  0  0  0
    2.2399    1.7811   -3.1364 O   0  0  0  0  0  0  0  0  0  0  0  0
    1.9574    0.2699   -5.2517 O   0  0  0  0  0  0  0  0  0  0  0  0
    4.9141    3.3727   -4.2403 O   0  0  0  0  0  0  0  0  0  0  0  0
    8.4238   -0.0776   -3.7406 C   0  0  0  0  0  0  0  0  0  0  0  0
    8.4928   -1.0651   -3.2756 H   0  0  0  0  0  0  0  0  0  0  0  0
    8.9674   -0.1258   -4.6922 H   0  0  0  0  0  0  0  0  0  0  0  0
    8.9498    0.6377   -3.1008 H   0  0  0  0  0  0  0  0  0  0  0  0
   -1.1572   -0.5588   -1.2272 O   0  0  0  0  0  0  0  0  0  0  0  0
   -1.4168   -1.4412   -2.3098 C   0  0  0  0  0  0  0  0  0  0  0  0
   -1.9533   -2.2915   -1.8861 H   0  0  0  0  0  0  0  0  0  0  0  0
   -0.4859   -1.7863   -2.7750 H   0  0  0  0  0  0  0  0  0  0  0  0
   -2.0394   -0.9603   -3.0755 H   0  0  0  0  0  0  0  0  0  0  0  0
  1  6  1  0  0  0  0
  2  8  1  6  0  0  0
  2  1  1  0  0  0  0
  2  3  1  0  0  0  0
  3  4  2  0  0  0  0
  4  5  1  0  0  0  0
  4  9  1  0  0  0  0
  5 10  1  0  0  0  0
  6 31  1  0  0  0  0
  6  5  2  0  0  0  0
  7  1  1  0  0  0  0
 11  3  1  0  0  0  0
 12 11  1  0  0  0  0
 13 18  2  0  0  0  0
 13 14  1  0  0  0  0
 14 20  1  0  0  0  0
 14 15  2  0  0  0  0
 15 27  1  0  0  0  0
 16 15  1  0  0  0  0
 16 21  1  0  0  0  0
 17 16  2  0  0  0  0
 18 17  1  0  0  0  0
 19 13  1  0  0  0  0
 23 25  1  1  0  0  0
 23 18  1  0  0  0  0
 23 24  1  0  0  0  0
 24  2  1  0  0  0  0
 26 17  1  0  0  0  0
 26 22  1  0  0  0  0
 27 28  1  0  0  0  0
 27 30  1  0  0  0  0
 29 27  1  0  0  0  0
 32 33  1  0  0  0  0
 32 31  1  0  0  0  0
 34 32  1  0  0  0  0
 35 32  1  0  0  0  0
M  RAD  4   1   2  11   2  12   3  25   2
M  END
