Coordinates from ORCA-job p-CH3O-Ph-N2-X-OTs-B3LYPG-6-31G_dp-scan-d09-49-n400
 OpenBabel08281821253D

 35 36  0  0  1  0  0  0  0  0999 V2000
   -0.1268    0.9313   -2.7079 C   0  0  0  0  0  0  0  0  0  0  0  0
    0.8869    2.0068   -2.9329 C   0  0  1  0  0  0  0  0  0  0  0  0
    0.9901    2.9215   -1.7400 C   0  0  0  0  0  0  0  0  0  0  0  0
    0.4670    2.5699   -0.4437 C   0  0  0  0  0  0  0  0  0  0  0  0
   -0.3072    1.4698   -0.3125 C   0  0  0  0  0  0  0  0  0  0  0  0
   -0.6258    0.6595   -1.4779 C   0  0  0  0  0  0  0  0  0  0  0  0
   -0.3617    0.3238   -3.5723 H   0  0  0  0  0  0  0  0  0  0  0  0
    0.6602    2.5825   -3.8418 H   0  0  0  0  0  0  0  0  0  0  0  0
    0.7016    3.2063    0.4035 H   0  0  0  0  0  0  0  0  0  0  0  0
   -0.7210    1.1705    0.6429 H   0  0  0  0  0  0  0  0  0  0  0  0
    1.6552    4.0405   -1.8865 N   0  0  0  0  0  0  0  0  0  0  0  0
    2.2310    5.0184   -2.0254 N   0  0  0  0  0  0  0  0  0  0  0  0
    4.8816   -0.3754   -4.5708 C   0  0  0  0  0  0  0  0  0  0  0  0
    6.2376   -0.6021   -4.3427 C   0  0  0  0  0  0  0  0  0  0  0  0
    7.0864    0.4581   -3.9964 C   0  0  0  0  0  0  0  0  0  0  0  0
    6.5485    1.7464   -3.8816 C   0  0  0  0  0  0  0  0  0  0  0  0
    5.1897    1.9800   -4.1050 C   0  0  0  0  0  0  0  0  0  0  0  0
    4.3550    0.9057   -4.4425 C   0  0  0  0  0  0  0  0  0  0  0  0
    4.2046   -1.1780   -4.8478 H   0  0  0  0  0  0  0  0  0  0  0  0
    6.6415   -1.6059   -4.4359 H   0  0  0  0  0  0  0  0  0  0  0  0
    7.1951    2.5799   -3.6115 H   0  0  0  0  0  0  0  0  0  0  0  0
    5.2954    3.8617   -3.7525 H   0  0  0  0  0  0  0  0  0  0  0  0
    2.6003    1.1717   -4.7858 S   0  0  2  0  0  0  0  0  0  0  0  0
    2.2314    1.4138   -3.1504 O   0  0  0  0  0  0  0  0  0  0  0  0
    2.0736   -0.1508   -5.2467 O   0  0  0  0  0  0  0  0  0  0  0  0
    4.6256    3.2172   -4.0149 O   0  0  0  0  0  0  0  0  0  0  0  0
    8.5638    0.2298   -3.7823 C   0  0  0  0  0  0  0  0  0  0  0  0
    8.7659   -0.7987   -3.4707 H   0  0  0  0  0  0  0  0  0  0  0  0
    9.1276    0.4070   -4.7069 H   0  0  0  0  0  0  0  0  0  0  0  0
    8.9697    0.9024   -3.0204 H   0  0  0  0  0  0  0  0  0  0  0  0
   -1.4844   -0.3550   -1.1803 O   0  0  0  0  0  0  0  0  0  0  0  0
   -1.8464   -1.2410   -2.2302 C   0  0  0  0  0  0  0  0  0  0  0  0
   -2.4992   -1.9916   -1.7817 H   0  0  0  0  0  0  0  0  0  0  0  0
   -0.9643   -1.7293   -2.6614 H   0  0  0  0  0  0  0  0  0  0  0  0
   -2.3879   -0.7153   -3.0271 H   0  0  0  0  0  0  0  0  0  0  0  0
  1  6  1  0  0  0  0
  2  8  1  6  0  0  0
  2  1  1  0  0  0  0
  2  3  1  0  0  0  0
  3  4  2  0  0  0  0
  4  5  1  0  0  0  0
  4  9  1  0  0  0  0
  5 10  1  0  0  0  0
  6 31  1  0  0  0  0
  6  5  2  0  0  0  0
  7  1  1  0  0  0  0
 11  3  1  0  0  0  0
 12 11  1  0  0  0  0
 13 18  2  0  0  0  0
 13 14  1  0  0  0  0
 14 15  2  0  0  0  0
 15 16  1  0  0  0  0
 15 27  1  0  0  0  0
 16 21  1  0  0  0  0
 17 26  1  0  0  0  0
 17 16  2  0  0  0  0
 18 17  1  0  0  0  0
 19 13  1  0  0  0  0
 20 14  1  0  0  0  0
 23 25  1  1  0  0  0
 23 18  1  0  0  0  0
 23 24  1  0  0  0  0
 24  2  1  0  0  0  0
 26 22  1  0  0  0  0
 27 28  1  0  0  0  0
 27 30  1  0  0  0  0
 29 27  1  0  0  0  0
 32 33  1  0  0  0  0
 32 31  1  0  0  0  0
 34 32  1  0  0  0  0
 35 32  1  0  0  0  0
M  RAD  4   1   2  11   2  12   3  25   2
M  END
