Coordinates from ORCA-job p-CH3O-Ph-N2-X-OTs-B3LYPG-6-31G_dp-scan-d09-49-n400
 OpenBabel08281821253D

 35 36  0  0  1  0  0  0  0  0999 V2000
    0.2639    0.3638   -3.1932 C   0  0  0  0  0  0  0  0  0  0  0  0
    0.9243    1.5331   -3.8458 C   0  0  1  0  0  0  0  0  0  0  0  0
    0.5316    2.8865   -3.2293 C   0  0  1  0  0  0  0  0  0  0  0  0
    0.1940    2.8640   -1.7988 C   0  0  0  0  0  0  0  0  0  0  0  0
   -0.1790    1.7157   -1.1972 C   0  0  0  0  0  0  0  0  0  0  0  0
   -0.2096    0.4468   -1.9319 C   0  0  0  0  0  0  0  0  0  0  0  0
    0.2600   -0.5882   -3.7121 H   0  0  0  0  0  0  0  0  0  0  0  0
    0.7424    1.5439   -4.9215 H   0  0  0  0  0  0  0  0  0  0  0  0
    0.1687    3.8166   -1.2800 H   0  0  0  0  0  0  0  0  0  0  0  0
   -0.4827    1.7297   -0.1564 H   0  0  0  0  0  0  0  0  0  0  0  0
    0.5175    4.0153   -3.8392 N   0  0  0  0  0  0  0  0  0  0  0  0
    0.6144    3.8326   -5.5232 N   0  0  0  0  0  0  0  0  0  0  0  0
    5.6200    0.9251   -5.0327 C   0  0  0  0  0  0  0  0  0  0  0  0
    6.7758    0.1941   -4.7553 C   0  0  0  0  0  0  0  0  0  0  0  0
    7.1894   -0.0342   -3.4364 C   0  0  0  0  0  0  0  0  0  0  0  0
    6.4159    0.4951   -2.3906 C   0  0  0  0  0  0  0  0  0  0  0  0
    5.2607    1.2275   -2.6502 C   0  0  0  0  0  0  0  0  0  0  0  0
    4.8679    1.4283   -3.9755 C   0  0  0  0  0  0  0  0  0  0  0  0
    5.2911    1.1105   -6.0506 H   0  0  0  0  0  0  0  0  0  0  0  0
    7.3673   -0.2031   -5.5761 H   0  0  0  0  0  0  0  0  0  0  0  0
    6.7256    0.3315   -1.3613 H   0  0  0  0  0  0  0  0  0  0  0  0
    4.6672    1.6270   -1.8333 H   0  0  0  0  0  0  0  0  0  0  0  0
    3.4188    2.4440   -4.3541 S   0  0  2  0  0  0  0  0  0  0  0  0
    2.3658    1.3033   -3.6390 O   0  0  0  0  0  0  0  0  0  0  0  0
    3.2531    2.4206   -5.8420 O   0  0  0  0  0  0  0  0  0  0  0  0
    0.8861    4.7388   -5.9795 O   0  0  0  0  0  0  0  0  0  0  0  0
    8.4287   -0.8439   -3.1392 C   0  0  0  0  0  0  0  0  0  0  0  0
    8.1679   -1.8651   -2.8353 H   0  0  0  0  0  0  0  0  0  0  0  0
    9.0784   -0.9186   -4.0158 H   0  0  0  0  0  0  0  0  0  0  0  0
    9.0083   -0.4024   -2.3219 H   0  0  0  0  0  0  0  0  0  0  0  0
   -0.6995   -0.6908   -1.3551 O   0  0  0  0  0  0  0  0  0  0  0  0
   -1.4845   -0.6006   -0.1738 C   0  0  0  0  0  0  0  0  0  0  0  0
   -1.8815   -1.6028   -0.0057 H   0  0  0  0  0  0  0  0  0  0  0  0
   -2.3214    0.0994   -0.2876 H   0  0  0  0  0  0  0  0  0  0  0  0
   -0.8861   -0.3119    0.6995 H   0  0  0  0  0  0  0  0  0  0  0  0
  1  6  2  0  0  0  0
  2  8  1  6  0  0  0
  2 24  1  0  0  0  0
  2  3  1  0  0  0  0
  2  1  1  0  0  0  0
  3 11  1  1  0  0  0
  3  4  1  0  0  0  0
  4  9  1  0  0  0  0
  4  5  2  0  0  0  0
  5 10  1  0  0  0  0
  6 31  1  0  0  0  0
  6  5  1  0  0  0  0
  7  1  1  0  0  0  0
 12 11  1  0  0  0  0
 13 14  2  0  0  0  0
 13 18  1  0  0  0  0
 14 15  1  0  0  0  0
 15 27  1  0  0  0  0
 15 16  2  0  0  0  0
 16 21  1  0  0  0  0
 17 16  1  0  0  0  0
 17 22  1  0  0  0  0
 18 17  2  0  0  0  0
 19 13  1  0  0  0  0
 20 14  1  0  0  0  0
 23 25  1  6  0  0  0
 23 18  1  0  0  0  0
 23 24  1  0  0  0  0
 26 12  1  0  0  0  0
 27 28  1  0  0  0  0
 27 30  1  0  0  0  0
 29 27  1  0  0  0  0
 31 32  1  0  0  0  0
 32 33  1  0  0  0  0
 32 35  1  0  0  0  0
 34 32  1  0  0  0  0
M  RAD  5   3   2  11   2  12   2  25   2  26   2
M  END
