Coordinates from ORCA-job p-CH3O-Ph-N2-X-OTs-B3LYPG-6-31G_dp-scan-d09-49-n400
 OpenBabel08281821253D

 35 36  0  0  1  0  0  0  0  0999 V2000
    0.1958    0.5841   -3.1265 C   0  0  0  0  0  0  0  0  0  0  0  0
    1.0756    1.7724   -3.3502 C   0  0  1  0  0  0  0  0  0  0  0  0
    0.9571    2.8772   -2.3001 C   0  0  0  0  0  0  0  0  0  0  0  0
    0.0182    2.7054   -1.2185 C   0  0  0  0  0  0  0  0  0  0  0  0
   -0.7468    1.5899   -1.1176 C   0  0  0  0  0  0  0  0  0  0  0  0
   -0.6646    0.5065   -2.0877 C   0  0  0  0  0  0  0  0  0  0  0  0
    0.2871   -0.2357   -3.8304 H   0  0  0  0  0  0  0  0  0  0  0  0
    0.8182    2.2612   -4.3098 H   0  0  0  0  0  0  0  0  0  0  0  0
   -0.0362    3.4995   -0.4814 H   0  0  0  0  0  0  0  0  0  0  0  0
   -1.4321    1.5006   -0.2820 H   0  0  0  0  0  0  0  0  0  0  0  0
    1.6689    3.9618   -2.3392 N   0  0  0  0  0  0  0  0  0  0  0  0
    2.3542    4.1674   -3.5563 N   0  0  0  0  0  0  0  0  0  0  0  0
    5.2612   -0.4948   -4.5446 C   0  0  0  0  0  0  0  0  0  0  0  0
    6.5991   -0.6599   -4.1956 C   0  0  0  0  0  0  0  0  0  0  0  0
    7.3838    0.4329   -3.7954 C   0  0  0  0  0  0  0  0  0  0  0  0
    6.7932    1.7040   -3.7586 C   0  0  0  0  0  0  0  0  0  0  0  0
    5.4553    1.8887   -4.1043 C   0  0  0  0  0  0  0  0  0  0  0  0
    4.6986    0.7793   -4.4839 C   0  0  0  0  0  0  0  0  0  0  0  0
    4.6454   -1.3300   -4.8632 H   0  0  0  0  0  0  0  0  0  0  0  0
    7.0446   -1.6509   -4.2378 H   0  0  0  0  0  0  0  0  0  0  0  0
    7.3879    2.5613   -3.4553 H   0  0  0  0  0  0  0  0  0  0  0  0
    5.0121    2.8792   -4.0680 H   0  0  0  0  0  0  0  0  0  0  0  0
    2.9839    0.9918   -5.0092 S   0  0  2  0  0  0  0  0  0  0  0  0
    2.4646    1.3654   -3.4125 O   0  0  0  0  0  0  0  0  0  0  0  0
    2.4856   -0.3610   -5.4007 O   0  0  0  0  0  0  0  0  0  0  0  0
    3.3916    4.6779   -3.4545 O   0  0  0  0  0  0  0  0  0  0  0  0
    8.8291    0.2359   -3.4051 C   0  0  0  0  0  0  0  0  0  0  0  0
    9.3601   -0.3803   -4.1382 H   0  0  0  0  0  0  0  0  0  0  0  0
    9.3550    1.1902   -3.3194 H   0  0  0  0  0  0  0  0  0  0  0  0
    8.9081   -0.2752   -2.4378 H   0  0  0  0  0  0  0  0  0  0  0  0
   -1.4280   -0.6213   -1.9737 O   0  0  0  0  0  0  0  0  0  0  0  0
   -2.3737   -0.7316   -0.9212 C   0  0  0  0  0  0  0  0  0  0  0  0
   -2.8606   -1.6974   -1.0639 H   0  0  0  0  0  0  0  0  0  0  0  0
   -3.1355    0.0578   -0.9648 H   0  0  0  0  0  0  0  0  0  0  0  0
   -1.8966   -0.7206    0.0670 H   0  0  0  0  0  0  0  0  0  0  0  0
  1  6  2  0  0  0  0
  2  8  1  6  0  0  0
  2  1  1  0  0  0  0
  2  3  1  0  0  0  0
  3  4  2  0  0  0  0
  4  5  1  0  0  0  0
  4  9  1  0  0  0  0
  5 10  1  0  0  0  0
  6 31  1  0  0  0  0
  6  5  1  0  0  0  0
  7  1  1  0  0  0  0
 11  3  1  0  0  0  0
 12 26  1  0  0  0  0
 12 11  1  0  0  0  0
 13 18  2  0  0  0  0
 13 14  1  0  0  0  0
 14 15  2  0  0  0  0
 15 16  1  0  0  0  0
 15 27  1  0  0  0  0
 16 21  1  0  0  0  0
 17 22  1  0  0  0  0
 17 16  2  0  0  0  0
 18 17  1  0  0  0  0
 19 13  1  0  0  0  0
 20 14  1  0  0  0  0
 23 25  1  1  0  0  0
 23 18  1  0  0  0  0
 23 24  1  0  0  0  0
 24  2  1  0  0  0  0
 27 29  1  0  0  0  0
 27 30  1  0  0  0  0
 28 27  1  0  0  0  0
 31 32  1  0  0  0  0
 32 35  1  0  0  0  0
 33 32  1  0  0  0  0
 34 32  1  0  0  0  0
M  RAD  5   5   2  11   2  12   2  25   2  26   2
M  END
