Coordinates from ORCA-job p-CH3O-Ph-N2-X-OTs-B3LYPG-6-31G_dp-scan-d09-49-n400
 OpenBabel08281821253D

 35 36  0  0  1  0  0  0  0  0999 V2000
   -0.1073    0.9425   -2.7110 C   0  0  0  0  0  0  0  0  0  0  0  0
    0.8726    2.0505   -2.9288 C   0  0  1  0  0  0  0  0  0  0  0  0
    0.9432    2.9621   -1.7316 C   0  0  0  0  0  0  0  0  0  0  0  0
    0.4351    2.5840   -0.4366 C   0  0  0  0  0  0  0  0  0  0  0  0
   -0.3009    1.4573   -0.3116 C   0  0  0  0  0  0  0  0  0  0  0  0
   -0.5949    0.6455   -1.4823 C   0  0  0  0  0  0  0  0  0  0  0  0
   -0.3218    0.3332   -3.5794 H   0  0  0  0  0  0  0  0  0  0  0  0
    0.6299    2.6232   -3.8355 H   0  0  0  0  0  0  0  0  0  0  0  0
    0.6488    3.2228    0.4143 H   0  0  0  0  0  0  0  0  0  0  0  0
   -0.7026    1.1378    0.6425 H   0  0  0  0  0  0  0  0  0  0  0  0
    1.5603    4.1090   -1.8729 N   0  0  0  0  0  0  0  0  0  0  0  0
    2.0920    5.1124   -2.0051 N   0  0  0  0  0  0  0  0  0  0  0  0
    4.8402   -0.3580   -4.5470 C   0  0  0  0  0  0  0  0  0  0  0  0
    6.1904   -0.6164   -4.3191 C   0  0  0  0  0  0  0  0  0  0  0  0
    7.0678    0.4267   -3.9922 C   0  0  0  0  0  0  0  0  0  0  0  0
    6.5639    1.7301   -3.8969 C   0  0  0  0  0  0  0  0  0  0  0  0
    5.2107    1.9957   -4.1200 C   0  0  0  0  0  0  0  0  0  0  0  0
    4.3473    0.9385   -4.4377 C   0  0  0  0  0  0  0  0  0  0  0  0
    4.1419   -1.1465   -4.8111 H   0  0  0  0  0  0  0  0  0  0  0  0
    6.5677   -1.6318   -4.3975 H   0  0  0  0  0  0  0  0  0  0  0  0
    7.2329    2.5506   -3.6417 H   0  0  0  0  0  0  0  0  0  0  0  0
    5.3703    3.8790   -3.8035 H   0  0  0  0  0  0  0  0  0  0  0  0
    2.5980    1.2413   -4.7805 S   0  0  2  0  0  0  0  0  0  0  0  0
    2.2361    1.5000   -3.1456 O   0  0  0  0  0  0  0  0  0  0  0  0
    2.0425   -0.0731   -5.2318 O   0  0  0  0  0  0  0  0  0  0  0  0
    4.6803    3.2486   -4.0472 O   0  0  0  0  0  0  0  0  0  0  0  0
    8.5394    0.1629   -3.7789 C   0  0  0  0  0  0  0  0  0  0  0  0
    8.7140   -0.8616   -3.4386 H   0  0  0  0  0  0  0  0  0  0  0  0
    9.1025    0.2970   -4.7110 H   0  0  0  0  0  0  0  0  0  0  0  0
    8.9684    0.8452   -3.0386 H   0  0  0  0  0  0  0  0  0  0  0  0
   -1.4191   -0.3990   -1.1911 O   0  0  0  0  0  0  0  0  0  0  0  0
   -1.7504   -1.2900   -2.2469 C   0  0  0  0  0  0  0  0  0  0  0  0
   -2.3769   -2.0657   -1.8036 H   0  0  0  0  0  0  0  0  0  0  0  0
   -0.8520   -1.7443   -2.6814 H   0  0  0  0  0  0  0  0  0  0  0  0
   -2.3099   -0.7781   -3.0405 H   0  0  0  0  0  0  0  0  0  0  0  0
  1  6  1  0  0  0  0
  2  8  1  6  0  0  0
  2  1  1  0  0  0  0
  2  3  1  0  0  0  0
  3  4  2  0  0  0  0
  4  5  1  0  0  0  0
  4  9  1  0  0  0  0
  5 10  1  0  0  0  0
  6 31  1  0  0  0  0
  6  5  2  0  0  0  0
  7  1  1  0  0  0  0
 11  3  1  0  0  0  0
 12 11  1  0  0  0  0
 13 18  2  0  0  0  0
 13 14  1  0  0  0  0
 14 15  2  0  0  0  0
 15 16  1  0  0  0  0
 15 27  1  0  0  0  0
 16 21  1  0  0  0  0
 17 26  1  0  0  0  0
 17 16  2  0  0  0  0
 18 17  1  0  0  0  0
 19 13  1  0  0  0  0
 20 14  1  0  0  0  0
 23 25  1  1  0  0  0
 23 18  1  0  0  0  0
 23 24  1  0  0  0  0
 24  2  1  0  0  0  0
 26 22  1  0  0  0  0
 27 28  1  0  0  0  0
 27 30  1  0  0  0  0
 29 27  1  0  0  0  0
 32 33  1  0  0  0  0
 32 31  1  0  0  0  0
 34 32  1  0  0  0  0
 35 32  1  0  0  0  0
M  RAD  4   1   2  11   2  12   3  25   2
M  END
