Coordinates from ORCA-job p-CH3O-Ph-N2-X-OTs-B3LYPG-6-31G_dp-scan-d09-49-n400
 OpenBabel08281821253D

 35 36  0  0  1  0  0  0  0  0999 V2000
   -0.0379    0.9644   -2.7200 C   0  0  0  0  0  0  0  0  0  0  0  0
    0.8268    2.1689   -2.9154 C   0  0  1  0  0  0  0  0  0  0  0  0
    0.7982    3.0608   -1.7030 C   0  0  0  0  0  0  0  0  0  0  0  0
    0.3593    2.5958   -0.4099 C   0  0  0  0  0  0  0  0  0  0  0  0
   -0.2453    1.3917   -0.3050 C   0  0  0  0  0  0  0  0  0  0  0  0
   -0.4744    0.5867   -1.4945 C   0  0  0  0  0  0  0  0  0  0  0  0
   -0.1955    0.3588   -3.6029 H   0  0  0  0  0  0  0  0  0  0  0  0
    0.5289    2.7308   -3.8124 H   0  0  0  0  0  0  0  0  0  0  0  0
    0.5137    3.2342    0.4541 H   0  0  0  0  0  0  0  0  0  0  0  0
   -0.5921    1.0053    0.6459 H   0  0  0  0  0  0  0  0  0  0  0  0
    1.2332    4.2903   -1.8281 N   0  0  0  0  0  0  0  0  0  0  0  0
    1.5982    5.3684   -1.9366 N   0  0  0  0  0  0  0  0  0  0  0  0
    4.6947   -0.2728   -4.4377 C   0  0  0  0  0  0  0  0  0  0  0  0
    6.0170   -0.6420   -4.2031 C   0  0  0  0  0  0  0  0  0  0  0  0
    6.9951    0.3340   -3.9649 C   0  0  0  0  0  0  0  0  0  0  0  0
    6.6185    1.6824   -3.9655 C   0  0  0  0  0  0  0  0  0  0  0  0
    5.2925    2.0597   -4.1955 C   0  0  0  0  0  0  0  0  0  0  0  0
    4.3273    1.0700   -4.4226 C   0  0  0  0  0  0  0  0  0  0  0  0
    3.9219   -1.0082   -4.6411 H   0  0  0  0  0  0  0  0  0  0  0  0
    6.2948   -1.6922   -4.2073 H   0  0  0  0  0  0  0  0  0  0  0  0
    7.3663    2.4527   -3.7819 H   0  0  0  0  0  0  0  0  0  0  0  0
    5.6453    3.9354   -4.0413 H   0  0  0  0  0  0  0  0  0  0  0  0
    2.6052    1.5013   -4.7741 S   0  0  2  0  0  0  0  0  0  0  0  0
    2.2402    1.7544   -3.1363 O   0  0  0  0  0  0  0  0  0  0  0  0
    1.9647    0.2319   -5.2453 O   0  0  0  0  0  0  0  0  0  0  0  0
    4.8892    3.3606   -4.2167 O   0  0  0  0  0  0  0  0  0  0  0  0
    8.4383   -0.0539   -3.7472 C   0  0  0  0  0  0  0  0  0  0  0  0
    8.5182   -1.0470   -3.2962 H   0  0  0  0  0  0  0  0  0  0  0  0
    8.9848   -0.0817   -4.6979 H   0  0  0  0  0  0  0  0  0  0  0  0
    8.9539    0.6585   -3.0958 H   0  0  0  0  0  0  0  0  0  0  0  0
   -1.1858   -0.5431   -1.2235 O   0  0  0  0  0  0  0  0  0  0  0  0
   -1.4506   -1.4273   -2.3034 C   0  0  0  0  0  0  0  0  0  0  0  0
   -1.9965   -2.2707   -1.8779 H   0  0  0  0  0  0  0  0  0  0  0  0
   -0.5216   -1.7831   -2.7644 H   0  0  0  0  0  0  0  0  0  0  0  0
   -2.0663   -0.9437   -3.0729 H   0  0  0  0  0  0  0  0  0  0  0  0
  1  6  1  0  0  0  0
  2  8  1  6  0  0  0
  2  1  1  0  0  0  0
  2  3  1  0  0  0  0
  3  4  2  0  0  0  0
  4  5  1  0  0  0  0
  4  9  1  0  0  0  0
  5 10  1  0  0  0  0
  6 31  1  0  0  0  0
  6  5  2  0  0  0  0
  7  1  1  0  0  0  0
 11  3  1  0  0  0  0
 12 11  1  0  0  0  0
 13 18  2  0  0  0  0
 13 14  1  0  0  0  0
 14 15  2  0  0  0  0
 15 27  1  0  0  0  0
 16 15  1  0  0  0  0
 16 21  1  0  0  0  0
 17 16  2  0  0  0  0
 18 17  1  0  0  0  0
 19 13  1  0  0  0  0
 20 14  1  0  0  0  0
 23 25  1  1  0  0  0
 23 18  1  0  0  0  0
 23 24  1  0  0  0  0
 24  2  1  0  0  0  0
 26 17  1  0  0  0  0
 26 22  1  0  0  0  0
 27 28  1  0  0  0  0
 27 30  1  0  0  0  0
 29 27  1  0  0  0  0
 32 33  1  0  0  0  0
 32 31  1  0  0  0  0
 34 32  1  0  0  0  0
 35 32  1  0  0  0  0
M  RAD  4   1   2  11   2  12   3  25   2
M  END
