Coordinates from ORCA-job p-CH3O-Ph-N2-X-OTs-B3LYPG-6-31G_dp-scan-d09-49-n400
 OpenBabel08281821253D

 35 36  0  0  1  0  0  0  0  0999 V2000
   -0.0745    0.9559   -2.7152 C   0  0  0  0  0  0  0  0  0  0  0  0
    0.8496    2.1136   -2.9198 C   0  0  1  0  0  0  0  0  0  0  0  0
    0.8688    3.0160   -1.7145 C   0  0  0  0  0  0  0  0  0  0  0  0
    0.3903    2.5934   -0.4215 C   0  0  0  0  0  0  0  0  0  0  0  0
   -0.2820    1.4265   -0.3081 C   0  0  0  0  0  0  0  0  0  0  0  0
   -0.5403    0.6174   -1.4889 C   0  0  0  0  0  0  0  0  0  0  0  0
   -0.2583    0.3476   -3.5913 H   0  0  0  0  0  0  0  0  0  0  0  0
    0.5809    2.6821   -3.8219 H   0  0  0  0  0  0  0  0  0  0  0  0
    0.5724    3.2326    0.4364 H   0  0  0  0  0  0  0  0  0  0  0  0
   -0.6599    1.0728    0.6437 H   0  0  0  0  0  0  0  0  0  0  0  0
    1.3994    4.2066   -1.8464 N   0  0  0  0  0  0  0  0  0  0  0  0
    1.8519    5.2497   -1.9659 N   0  0  0  0  0  0  0  0  0  0  0  0
    4.7696   -0.3212   -4.4913 C   0  0  0  0  0  0  0  0  0  0  0  0
    6.1079   -0.6336   -4.2629 C   0  0  0  0  0  0  0  0  0  0  0  0
    7.0355    0.3791   -3.9815 C   0  0  0  0  0  0  0  0  0  0  0  0
    6.5931    1.7068   -3.9323 C   0  0  0  0  0  0  0  0  0  0  0  0
    5.2513    2.0268   -4.1559 C   0  0  0  0  0  0  0  0  0  0  0  0
    4.3373    1.0002   -4.4274 C   0  0  0  0  0  0  0  0  0  0  0  0
    4.0340   -1.0854   -4.7240 H   0  0  0  0  0  0  0  0  0  0  0  0
    6.4371   -1.6678   -4.3057 H   0  0  0  0  0  0  0  0  0  0  0  0
    7.3013    2.5047   -3.7134 H   0  0  0  0  0  0  0  0  0  0  0  0
    5.5062    3.9106   -3.9214 H   0  0  0  0  0  0  0  0  0  0  0  0
    2.5996    1.3653   -4.7728 S   0  0  2  0  0  0  0  0  0  0  0  0
    2.2401    1.6307   -3.1374 O   0  0  0  0  0  0  0  0  0  0  0  0
    2.0006    0.0700   -5.2260 O   0  0  0  0  0  0  0  0  0  0  0  0
    4.7822    3.3055   -4.1279 O   0  0  0  0  0  0  0  0  0  0  0  0
    8.4952    0.0548   -3.7694 C   0  0  0  0  0  0  0  0  0  0  0  0
    8.6232   -0.9553   -3.3701 H   0  0  0  0  0  0  0  0  0  0  0  0
    9.0502    0.1048   -4.7144 H   0  0  0  0  0  0  0  0  0  0  0  0
    8.9682    0.7573   -3.0763 H   0  0  0  0  0  0  0  0  0  0  0  0
   -1.3093   -0.4717   -1.2096 O   0  0  0  0  0  0  0  0  0  0  0  0
   -1.6014   -1.3615   -2.2780 C   0  0  0  0  0  0  0  0  0  0  0  0
   -2.1881   -2.1731   -1.8448 H   0  0  0  0  0  0  0  0  0  0  0  0
   -0.6840   -1.7649   -2.7225 H   0  0  0  0  0  0  0  0  0  0  0  0
   -2.1877   -0.8647   -3.0619 H   0  0  0  0  0  0  0  0  0  0  0  0
  1  6  1  0  0  0  0
  2  8  1  6  0  0  0
  2  1  1  0  0  0  0
  2  3  1  0  0  0  0
  3  4  2  0  0  0  0
  4  5  1  0  0  0  0
  4  9  1  0  0  0  0
  5 10  1  0  0  0  0
  6 31  1  0  0  0  0
  6  5  2  0  0  0  0
  7  1  1  0  0  0  0
 11  3  1  0  0  0  0
 12 11  1  0  0  0  0
 13 18  2  0  0  0  0
 13 14  1  0  0  0  0
 14 15  2  0  0  0  0
 15 16  1  0  0  0  0
 15 27  1  0  0  0  0
 16 21  1  0  0  0  0
 17 26  1  0  0  0  0
 17 16  2  0  0  0  0
 18 17  1  0  0  0  0
 19 13  1  0  0  0  0
 20 14  1  0  0  0  0
 23 25  1  1  0  0  0
 23 18  1  0  0  0  0
 23 24  1  0  0  0  0
 24  2  1  0  0  0  0
 26 22  1  0  0  0  0
 27 28  1  0  0  0  0
 27 30  1  0  0  0  0
 29 27  1  0  0  0  0
 32 33  1  0  0  0  0
 32 31  1  0  0  0  0
 34 32  1  0  0  0  0
 35 32  1  0  0  0  0
M  RAD  4   1   2  11   2  12   3  25   2
M  END
