Coordinates from ORCA-job p-CH3O-Ph-N2-X-OTs-B3LYPG-6-31G_dp-scan-d09-49-n400
 OpenBabel08281821253D

 35 36  0  0  1  0  0  0  0  0999 V2000
   -0.1882    0.8793   -2.6896 C   0  0  0  0  0  0  0  0  0  0  0  0
    0.9624    1.7984   -2.9457 C   0  0  1  0  0  0  0  0  0  0  0  0
    1.2197    2.7030   -1.7631 C   0  0  0  0  0  0  0  0  0  0  0  0
    0.6126    2.4974   -0.4735 C   0  0  0  0  0  0  0  0  0  0  0  0
   -0.3335    1.5438   -0.3229 C   0  0  0  0  0  0  0  0  0  0  0  0
   -0.7458    0.7387   -1.4627 C   0  0  0  0  0  0  0  0  0  0  0  0
   -0.5022    0.2807   -3.5351 H   0  0  0  0  0  0  0  0  0  0  0  0
    0.7983    2.3920   -3.8563 H   0  0  0  0  0  0  0  0  0  0  0  0
    0.9332    3.1170    0.3576 H   0  0  0  0  0  0  0  0  0  0  0  0
   -0.8113    1.3551    0.6309 H   0  0  0  0  0  0  0  0  0  0  0  0
    2.1183    3.6415   -1.9211 N   0  0  0  0  0  0  0  0  0  0  0  0
    2.9213    4.4315   -2.1148 N   0  0  0  0  0  0  0  0  0  0  0  0
    5.0536   -0.4355   -4.6822 C   0  0  0  0  0  0  0  0  0  0  0  0
    6.4242   -0.5149   -4.4402 C   0  0  0  0  0  0  0  0  0  0  0  0
    7.1361    0.6122   -4.0077 C   0  0  0  0  0  0  0  0  0  0  0  0
    6.4481    1.8188   -3.8207 C   0  0  0  0  0  0  0  0  0  0  0  0
    5.0751    1.9040   -4.0578 C   0  0  0  0  0  0  0  0  0  0  0  0
    4.3785    0.7634   -4.4812 C   0  0  0  0  0  0  0  0  0  0  0  0
    4.4803   -1.2935   -5.0209 H   0  0  0  0  0  0  0  0  0  0  0  0
    6.9461   -1.4559   -4.5885 H   0  0  0  0  0  0  0  0  0  0  0  0
    6.9872    2.7035   -3.4859 H   0  0  0  0  0  0  0  0  0  0  0  0
    4.9169    3.7427   -3.5075 H   0  0  0  0  0  0  0  0  0  0  0  0
    2.6065    0.8591   -4.8234 S   0  0  2  0  0  0  0  0  0  0  0  0
    2.2052    1.0281   -3.1846 O   0  0  0  0  0  0  0  0  0  0  0  0
    2.2135   -0.4968   -5.3138 O   0  0  0  0  0  0  0  0  0  0  0  0
    4.3619    3.0564   -3.8999 O   0  0  0  0  0  0  0  0  0  0  0  0
    8.6273    0.5457   -3.7792 C   0  0  0  0  0  0  0  0  0  0  0  0
    8.9450   -0.4671   -3.5173 H   0  0  0  0  0  0  0  0  0  0  0  0
    9.1766    0.8364   -4.6835 H   0  0  0  0  0  0  0  0  0  0  0  0
    8.9424    1.2202   -2.9772 H   0  0  0  0  0  0  0  0  0  0  0  0
   -1.7500   -0.1246   -1.1454 O   0  0  0  0  0  0  0  0  0  0  0  0
   -2.2240   -0.9896   -2.1674 C   0  0  0  0  0  0  0  0  0  0  0  0
   -2.9950   -1.6092   -1.7070 H   0  0  0  0  0  0  0  0  0  0  0  0
   -1.4197   -1.6280   -2.5534 H   0  0  0  0  0  0  0  0  0  0  0  0
   -2.6602   -0.4221   -2.9991 H   0  0  0  0  0  0  0  0  0  0  0  0
  1  6  1  0  0  0  0
  2  8  1  6  0  0  0
  2  1  1  0  0  0  0
  2  3  1  0  0  0  0
  3  4  2  0  0  0  0
  4  5  1  0  0  0  0
  4  9  1  0  0  0  0
  5 10  1  0  0  0  0
  6 31  1  0  0  0  0
  6  5  2  0  0  0  0
  7  1  1  0  0  0  0
 11  3  1  0  0  0  0
 12 11  1  0  0  0  0
 13 18  2  0  0  0  0
 13 14  1  0  0  0  0
 14 15  2  0  0  0  0
 15 16  1  0  0  0  0
 15 27  1  0  0  0  0
 16 21  1  0  0  0  0
 17 26  1  0  0  0  0
 17 16  2  0  0  0  0
 18 17  1  0  0  0  0
 19 13  1  0  0  0  0
 20 14  1  0  0  0  0
 23 25  1  1  0  0  0
 23 18  1  0  0  0  0
 23 24  1  0  0  0  0
 24  2  1  0  0  0  0
 26 22  1  0  0  0  0
 27 28  1  0  0  0  0
 27 30  1  0  0  0  0
 29 27  1  0  0  0  0
 32 33  1  0  0  0  0
 32 31  1  0  0  0  0
 34 32  1  0  0  0  0
 35 32  1  0  0  0  0
M  RAD  4   1   2  11   2  12   3  25   2
M  END
