Coordinates from ORCA-job p-CH3O-Ph-N2-X-OTs-B3LYPG-6-31G_dp-scan-d09-49-n400
 OpenBabel08281821253D

 35 36  0  0  1  0  0  0  0  0999 V2000
   -0.0135    0.9692   -2.7241 C   0  0  0  0  0  0  0  0  0  0  0  0
    0.8133    2.2013   -2.9123 C   0  0  1  0  0  0  0  0  0  0  0  0
    0.7570    3.0832   -1.6936 C   0  0  0  0  0  0  0  0  0  0  0  0
    0.3460    2.5908   -0.4012 C   0  0  0  0  0  0  0  0  0  0  0  0
   -0.2156    1.3655   -0.3035 C   0  0  0  0  0  0  0  0  0  0  0  0
   -0.4290    0.5659   -1.4995 C   0  0  0  0  0  0  0  0  0  0  0  0
   -0.1569    0.3679   -3.6123 H   0  0  0  0  0  0  0  0  0  0  0  0
    0.4967    2.7599   -3.8047 H   0  0  0  0  0  0  0  0  0  0  0  0
    0.4847    3.2261    0.4677 H   0  0  0  0  0  0  0  0  0  0  0  0
   -0.5405    0.9579    0.6464 H   0  0  0  0  0  0  0  0  0  0  0  0
    1.1314    4.3331   -1.8122 N   0  0  0  0  0  0  0  0  0  0  0  0
    1.4411    5.4292   -1.9121 N   0  0  0  0  0  0  0  0  0  0  0  0
    4.6434   -0.2357   -4.3965 C   0  0  0  0  0  0  0  0  0  0  0  0
    5.9534   -0.6416   -4.1556 C   0  0  0  0  0  0  0  0  0  0  0  0
    6.9646    0.3083   -3.9508 C   0  0  0  0  0  0  0  0  0  0  0  0
    6.6329    1.6675   -3.9920 C   0  0  0  0  0  0  0  0  0  0  0  0
    5.3188    2.0819   -4.2285 C   0  0  0  0  0  0  0  0  0  0  0  0
    4.3203    1.1187   -4.4211 C   0  0  0  0  0  0  0  0  0  0  0  0
    3.8465   -0.9510   -4.5768 H   0  0  0  0  0  0  0  0  0  0  0  0
    6.1963   -1.7001   -4.1284 H   0  0  0  0  0  0  0  0  0  0  0  0
    7.4068    2.4178   -3.8357 H   0  0  0  0  0  0  0  0  0  0  0  0
    5.7375    3.9480   -4.1363 H   0  0  0  0  0  0  0  0  0  0  0  0
    2.6095    1.5922   -4.7767 S   0  0  2  0  0  0  0  0  0  0  0  0
    2.2388    1.8296   -3.1367 O   0  0  0  0  0  0  0  0  0  0  0  0
    1.9443    0.3418   -5.2650 O   0  0  0  0  0  0  0  0  0  0  0  0
    4.9608    3.3947   -4.2895 O   0  0  0  0  0  0  0  0  0  0  0  0
    8.3950   -0.1208   -3.7267 C   0  0  0  0  0  0  0  0  0  0  0  0
    8.4437   -1.0946   -3.2311 H   0  0  0  0  0  0  0  0  0  0  0  0
    8.9310   -0.2119   -4.6794 H   0  0  0  0  0  0  0  0  0  0  0  0
    8.9418    0.6016   -3.1129 H   0  0  0  0  0  0  0  0  0  0  0  0
   -1.1035   -0.5879   -1.2351 O   0  0  0  0  0  0  0  0  0  0  0  0
   -1.3541   -1.4662   -2.3231 C   0  0  0  0  0  0  0  0  0  0  0  0
   -1.8726   -2.3293   -1.9031 H   0  0  0  0  0  0  0  0  0  0  0  0
   -0.4200   -1.7910   -2.7968 H   0  0  0  0  0  0  0  0  0  0  0  0
   -1.9898   -0.9904   -3.0811 H   0  0  0  0  0  0  0  0  0  0  0  0
  1  6  1  0  0  0  0
  2  8  1  6  0  0  0
  2  1  1  0  0  0  0
  2  3  1  0  0  0  0
  3  4  2  0  0  0  0
  4  5  1  0  0  0  0
  4  9  1  0  0  0  0
  5 10  1  0  0  0  0
  6 31  1  0  0  0  0
  6  5  2  0  0  0  0
  7  1  1  0  0  0  0
 11  3  1  0  0  0  0
 12 11  1  0  0  0  0
 13 14  1  0  0  0  0
 14 20  1  0  0  0  0
 14 15  2  0  0  0  0
 15 27  1  0  0  0  0
 16 15  1  0  0  0  0
 16 21  1  0  0  0  0
 17 16  2  0  0  0  0
 18 13  2  0  0  0  0
 18 17  1  0  0  0  0
 19 13  1  0  0  0  0
 23 25  1  1  0  0  0
 23 18  1  0  0  0  0
 23 24  1  0  0  0  0
 24  2  1  0  0  0  0
 26 17  1  0  0  0  0
 26 22  1  0  0  0  0
 27 28  1  0  0  0  0
 27 30  1  0  0  0  0
 29 27  1  0  0  0  0
 32 33  1  0  0  0  0
 32 31  1  0  0  0  0
 34 32  1  0  0  0  0
 35 32  1  0  0  0  0
M  RAD  4   1   2  11   2  12   3  25   2
M  END
