Coordinates from ORCA-job p-CH3O-Ph-N2-X-OTs-B3LYPG-6-31G_dp-scan-d09-49-n400
 OpenBabel08281821253D

 35 35  0  0  1  0  0  0  0  0999 V2000
   -0.0131    0.4083   -3.2887 C   0  0  0  0  0  0  0  0  0  0  0  0
    0.8461    1.5062   -3.8273 C   0  0  1  0  0  0  0  0  0  0  0  0
    0.8036    2.7489   -2.9344 C   0  0  0  0  0  0  0  0  0  0  0  0
    0.3203    2.6886   -1.5845 C   0  0  0  0  0  0  0  0  0  0  0  0
   -0.3103    1.5654   -1.1552 C   0  0  0  0  0  0  0  0  0  0  0  0
   -0.5159    0.4198   -2.0330 C   0  0  0  0  0  0  0  0  0  0  0  0
   -0.1572   -0.4575   -3.9245 H   0  0  0  0  0  0  0  0  0  0  0  0
    0.5242    1.7760   -4.8426 H   0  0  0  0  0  0  0  0  0  0  0  0
    0.4677    3.5433   -0.9340 H   0  0  0  0  0  0  0  0  0  0  0  0
   -0.6679    1.5271   -0.1337 H   0  0  0  0  0  0  0  0  0  0  0  0
    1.3148    3.8349   -3.4091 N   0  0  0  0  0  0  0  0  0  0  0  0
    1.8013    4.7675   -3.9120 N   0  0  0  0  0  0  0  0  0  0  0  0
    5.3303   -0.0916   -5.0532 C   0  0  0  0  0  0  0  0  0  0  0  0
    6.5734   -0.4216   -4.5163 C   0  0  0  0  0  0  0  0  0  0  0  0
    7.1523    0.3556   -3.5026 C   0  0  0  0  0  0  0  0  0  0  0  0
    6.4563    1.4830   -3.0386 C   0  0  0  0  0  0  0  0  0  0  0  0
    5.2107    1.8297   -3.5565 C   0  0  0  0  0  0  0  0  0  0  0  0
    4.6601    1.0249   -4.5584 C   0  0  0  0  0  0  0  0  0  0  0  0
    4.8758   -0.6765   -5.8466 H   0  0  0  0  0  0  0  0  0  0  0  0
    7.1058   -1.2915   -4.8925 H   0  0  0  0  0  0  0  0  0  0  0  0
    6.8998    2.1002   -2.2610 H   0  0  0  0  0  0  0  0  0  0  0  0
    4.6645    2.7073   -3.2097 H   0  0  0  0  0  0  0  0  0  0  0  0
    3.0844    1.4836   -5.3045 S   0  0  2  0  0  0  0  0  0  0  0  0
    2.2075    1.0285   -3.8625 O   0  0  0  0  0  0  0  0  0  0  0  0
    2.7937    0.4710   -6.3619 O   0  0  0  0  0  0  0  0  0  0  0  0
    3.7339    4.4812   -3.7242 O   0  0  0  0  0  0  0  0  0  0  0  0
    8.4894   -0.0191   -2.9087 C   0  0  0  0  0  0  0  0  0  0  0  0
    9.0538   -0.6772   -3.5758 H   0  0  0  0  0  0  0  0  0  0  0  0
    9.0994    0.8668   -2.7064 H   0  0  0  0  0  0  0  0  0  0  0  0
    8.3620   -0.5485   -1.9560 H   0  0  0  0  0  0  0  0  0  0  0  0
   -1.2135   -0.6778   -1.6216 O   0  0  0  0  0  0  0  0  0  0  0  0
   -1.8840   -0.6640   -0.3680 C   0  0  0  0  0  0  0  0  0  0  0  0
   -2.4184   -1.6131   -0.3113 H   0  0  0  0  0  0  0  0  0  0  0  0
   -2.6082    0.1572   -0.2978 H   0  0  0  0  0  0  0  0  0  0  0  0
   -1.1823   -0.6052    0.4733 H   0  0  0  0  0  0  0  0  0  0  0  0
  1  6  2  0  0  0  0
  2  8  1  6  0  0  0
  2  1  1  0  0  0  0
  2  3  1  0  0  0  0
  3  4  2  0  0  0  0
  4  5  1  0  0  0  0
  4  9  1  0  0  0  0
  5 10  1  0  0  0  0
  6 31  1  0  0  0  0
  6  5  1  0  0  0  0
  7  1  1  0  0  0  0
 11  3  1  0  0  0  0
 12 11  1  0  0  0  0
 13 18  2  0  0  0  0
 13 14  1  0  0  0  0
 14 15  2  0  0  0  0
 15 16  1  0  0  0  0
 15 27  1  0  0  0  0
 16 21  1  0  0  0  0
 17 22  1  0  0  0  0
 17 16  2  0  0  0  0
 18 17  1  0  0  0  0
 19 13  1  0  0  0  0
 20 14  1  0  0  0  0
 23 25  1  6  0  0  0
 23 18  1  0  0  0  0
 23 24  1  0  0  0  0
 24  2  1  0  0  0  0
 27 29  1  0  0  0  0
 27 30  1  0  0  0  0
 28 27  1  0  0  0  0
 31 32  1  0  0  0  0
 32 33  1  0  0  0  0
 32 34  1  0  0  0  0
 32 35  1  0  0  0  0
M  RAD  5   5   2  11   2  12   3  25   2  26   3
M  END
