Coordinates from ORCA-job p-CH3O-Ph-N2-X-OTs-B3LYPG-6-31G_dp-scan-d09-49-n400
 OpenBabel08281821253D

 35 36  0  0  1  0  0  0  0  0999 V2000
   -0.0604    0.9600   -2.7170 C   0  0  0  0  0  0  0  0  0  0  0  0
    0.8405    2.1366   -2.9173 C   0  0  1  0  0  0  0  0  0  0  0  0
    0.8401    3.0348   -1.7089 C   0  0  0  0  0  0  0  0  0  0  0  0
    0.3762    2.5948   -0.4162 C   0  0  0  0  0  0  0  0  0  0  0  0
   -0.2695    1.4126   -0.3067 C   0  0  0  0  0  0  0  0  0  0  0  0
   -0.5155    0.6053   -1.4912 C   0  0  0  0  0  0  0  0  0  0  0  0
   -0.2332    0.3527   -3.5960 H   0  0  0  0  0  0  0  0  0  0  0  0
    0.5606    2.7030   -3.8173 H   0  0  0  0  0  0  0  0  0  0  0  0
    0.5468    3.2336    0.4444 H   0  0  0  0  0  0  0  0  0  0  0  0
   -0.6359    1.0455    0.6446 H   0  0  0  0  0  0  0  0  0  0  0  0
    1.3335    4.2417   -1.8375 N   0  0  0  0  0  0  0  0  0  0  0  0
    1.7520    5.2995   -1.9522 N   0  0  0  0  0  0  0  0  0  0  0  0
    4.7403   -0.3036   -4.4687 C   0  0  0  0  0  0  0  0  0  0  0  0
    6.0728   -0.6381   -4.2386 C   0  0  0  0  0  0  0  0  0  0  0  0
    7.0207    0.3609   -3.9756 C   0  0  0  0  0  0  0  0  0  0  0  0
    6.6039    1.6973   -3.9466 C   0  0  0  0  0  0  0  0  0  0  0  0
    5.2679    2.0397   -4.1720 C   0  0  0  0  0  0  0  0  0  0  0  0
    4.3334    1.0269   -4.4246 C   0  0  0  0  0  0  0  0  0  0  0  0
    3.9899   -1.0569   -4.6889 H   0  0  0  0  0  0  0  0  0  0  0  0
    6.3820   -1.6791   -4.2657 H   0  0  0  0  0  0  0  0  0  0  0  0
    7.3279    2.4850   -3.7427 H   0  0  0  0  0  0  0  0  0  0  0  0
    5.5614    3.9215   -3.9710 H   0  0  0  0  0  0  0  0  0  0  0  0
    2.6014    1.4178   -4.7720 S   0  0  2  0  0  0  0  0  0  0  0  0
    2.2406    1.6810   -3.1359 O   0  0  0  0  0  0  0  0  0  0  0  0
    1.9856    0.1319   -5.2301 O   0  0  0  0  0  0  0  0  0  0  0  0
    4.8245    3.3277   -4.1638 O   0  0  0  0  0  0  0  0  0  0  0  0
    8.4744    0.0117   -3.7622 C   0  0  0  0  0  0  0  0  0  0  0  0
    8.5836   -0.9920   -3.3417 H   0  0  0  0  0  0  0  0  0  0  0  0
    9.0260    0.0305   -4.7102 H   0  0  0  0  0  0  0  0  0  0  0  0
    8.9644    0.7191   -3.0862 H   0  0  0  0  0  0  0  0  0  0  0  0
   -1.2619   -0.5005   -1.2160 O   0  0  0  0  0  0  0  0  0  0  0  0
   -1.5420   -1.3880   -2.2893 C   0  0  0  0  0  0  0  0  0  0  0  0
   -2.1128   -2.2127   -1.8597 H   0  0  0  0  0  0  0  0  0  0  0  0
   -0.6193   -1.7723   -2.7398 H   0  0  0  0  0  0  0  0  0  0  0  0
   -2.1396   -0.8962   -3.0679 H   0  0  0  0  0  0  0  0  0  0  0  0
  1  6  1  0  0  0  0
  2  8  1  6  0  0  0
  2  1  1  0  0  0  0
  2  3  1  0  0  0  0
  3  4  2  0  0  0  0
  4  5  1  0  0  0  0
  4  9  1  0  0  0  0
  5 10  1  0  0  0  0
  6 31  1  0  0  0  0
  6  5  2  0  0  0  0
  7  1  1  0  0  0  0
 11  3  1  0  0  0  0
 12 11  1  0  0  0  0
 13 18  2  0  0  0  0
 13 14  1  0  0  0  0
 14 15  2  0  0  0  0
 15 16  1  0  0  0  0
 15 27  1  0  0  0  0
 16 21  1  0  0  0  0
 17 26  1  0  0  0  0
 17 16  2  0  0  0  0
 18 17  1  0  0  0  0
 19 13  1  0  0  0  0
 20 14  1  0  0  0  0
 23 25  1  1  0  0  0
 23 18  1  0  0  0  0
 23 24  1  0  0  0  0
 24  2  1  0  0  0  0
 26 22  1  0  0  0  0
 27 28  1  0  0  0  0
 27 30  1  0  0  0  0
 29 27  1  0  0  0  0
 32 33  1  0  0  0  0
 32 31  1  0  0  0  0
 34 32  1  0  0  0  0
 35 32  1  0  0  0  0
M  RAD  4   1   2  11   2  12   3  25   2
M  END
