Coordinates from ORCA-job p-CH3O-Ph-N2-X-OTs-B3LYPG-6-31G_dp-scan-d09-49-n400
 OpenBabel08281821253D

 35 36  0  0  1  0  0  0  0  0999 V2000
   -0.1010    0.9454   -2.7118 C   0  0  0  0  0  0  0  0  0  0  0  0
    0.8681    2.0633   -2.9274 C   0  0  1  0  0  0  0  0  0  0  0  0
    0.9286    2.9738   -1.7290 C   0  0  0  0  0  0  0  0  0  0  0  0
    0.4253    2.5878   -0.4344 C   0  0  0  0  0  0  0  0  0  0  0  0
   -0.2987    1.4531   -0.3113 C   0  0  0  0  0  0  0  0  0  0  0  0
   -0.5850    0.6409   -1.4835 C   0  0  0  0  0  0  0  0  0  0  0  0
   -0.3092    0.3355   -3.5814 H   0  0  0  0  0  0  0  0  0  0  0  0
    0.6203    2.6349   -3.8335 H   0  0  0  0  0  0  0  0  0  0  0  0
    0.6325    3.2273    0.4176 H   0  0  0  0  0  0  0  0  0  0  0  0
   -0.6964    1.1275    0.6424 H   0  0  0  0  0  0  0  0  0  0  0  0
    1.5304    4.1290   -1.8687 N   0  0  0  0  0  0  0  0  0  0  0  0
    2.0482    5.1400   -1.9990 N   0  0  0  0  0  0  0  0  0  0  0  0
    4.8272   -0.3517   -4.5389 C   0  0  0  0  0  0  0  0  0  0  0  0
    6.1753   -0.6203   -4.3111 C   0  0  0  0  0  0  0  0  0  0  0  0
    7.0618    0.4171   -3.9908 C   0  0  0  0  0  0  0  0  0  0  0  0
    6.5690    1.7251   -3.9019 C   0  0  0  0  0  0  0  0  0  0  0  0
    5.2177    2.0010   -4.1249 C   0  0  0  0  0  0  0  0  0  0  0  0
    4.3451    0.9495   -4.4360 C   0  0  0  0  0  0  0  0  0  0  0  0
    4.1221   -1.1357   -4.7987 H   0  0  0  0  0  0  0  0  0  0  0  0
    6.5440   -1.6393   -4.3845 H   0  0  0  0  0  0  0  0  0  0  0  0
    7.2451    2.5414   -3.6519 H   0  0  0  0  0  0  0  0  0  0  0  0
    5.3945    3.8844   -3.8201 H   0  0  0  0  0  0  0  0  0  0  0  0
    2.5978    1.2640   -4.7790 S   0  0  2  0  0  0  0  0  0  0  0  0
    2.2372    1.5261   -3.1442 O   0  0  0  0  0  0  0  0  0  0  0  0
    2.0336   -0.0474   -5.2288 O   0  0  0  0  0  0  0  0  0  0  0  0
    4.6983    3.2588   -4.0581 O   0  0  0  0  0  0  0  0  0  0  0  0
    8.5314    0.1420   -3.7778 C   0  0  0  0  0  0  0  0  0  0  0  0
    8.6973   -0.8807   -3.4278 H   0  0  0  0  0  0  0  0  0  0  0  0
    9.0937    0.2618   -4.7123 H   0  0  0  0  0  0  0  0  0  0  0  0
    8.9682    0.8276   -3.0451 H   0  0  0  0  0  0  0  0  0  0  0  0
   -1.3985   -0.4126   -1.1943 O   0  0  0  0  0  0  0  0  0  0  0  0
   -1.7208   -1.3047   -2.2520 C   0  0  0  0  0  0  0  0  0  0  0  0
   -2.3393   -2.0876   -1.8102 H   0  0  0  0  0  0  0  0  0  0  0  0
   -0.8179   -1.7488   -2.6875 H   0  0  0  0  0  0  0  0  0  0  0  0
   -2.2855   -0.7968   -3.0444 H   0  0  0  0  0  0  0  0  0  0  0  0
  1  6  1  0  0  0  0
  2  8  1  6  0  0  0
  2  1  1  0  0  0  0
  2  3  1  0  0  0  0
  3  4  2  0  0  0  0
  4  5  1  0  0  0  0
  4  9  1  0  0  0  0
  5 10  1  0  0  0  0
  6 31  1  0  0  0  0
  6  5  2  0  0  0  0
  7  1  1  0  0  0  0
 11  3  1  0  0  0  0
 12 11  1  0  0  0  0
 13 18  2  0  0  0  0
 13 14  1  0  0  0  0
 14 15  2  0  0  0  0
 15 16  1  0  0  0  0
 15 27  1  0  0  0  0
 16 21  1  0  0  0  0
 17 26  1  0  0  0  0
 17 16  2  0  0  0  0
 18 17  1  0  0  0  0
 19 13  1  0  0  0  0
 20 14  1  0  0  0  0
 23 25  1  1  0  0  0
 23 18  1  0  0  0  0
 23 24  1  0  0  0  0
 24  2  1  0  0  0  0
 26 22  1  0  0  0  0
 27 28  1  0  0  0  0
 27 30  1  0  0  0  0
 29 27  1  0  0  0  0
 32 33  1  0  0  0  0
 32 31  1  0  0  0  0
 34 32  1  0  0  0  0
 35 32  1  0  0  0  0
M  RAD  4   1   2  11   2  12   3  25   2
M  END
