Coordinates from ORCA-job p-CH3O-Ph-N2-X-OTs-B3LYPG-6-31G_dp-scan-d09-49-n400
 OpenBabel08281821253D

 35 36  0  0  1  0  0  0  0  0999 V2000
   -0.0635    0.9591   -2.7166 C   0  0  0  0  0  0  0  0  0  0  0  0
    0.8424    2.1318   -2.9177 C   0  0  1  0  0  0  0  0  0  0  0  0
    0.8462    3.0309   -1.7100 C   0  0  0  0  0  0  0  0  0  0  0  0
    0.3790    2.5945   -0.4172 C   0  0  0  0  0  0  0  0  0  0  0  0
   -0.2725    1.4156   -0.3069 C   0  0  0  0  0  0  0  0  0  0  0  0
   -0.5209    0.6079   -1.4907 C   0  0  0  0  0  0  0  0  0  0  0  0
   -0.2385    0.3516   -3.5950 H   0  0  0  0  0  0  0  0  0  0  0  0
    0.5649    2.6987   -3.8182 H   0  0  0  0  0  0  0  0  0  0  0  0
    0.5520    3.2335    0.4428 H   0  0  0  0  0  0  0  0  0  0  0  0
   -0.6414    1.0513    0.6444 H   0  0  0  0  0  0  0  0  0  0  0  0
    1.3477    4.2343   -1.8392 N   0  0  0  0  0  0  0  0  0  0  0  0
    1.7736    5.2890   -1.9549 N   0  0  0  0  0  0  0  0  0  0  0  0
    4.7466   -0.3075   -4.4734 C   0  0  0  0  0  0  0  0  0  0  0  0
    6.0804   -0.6373   -4.2438 C   0  0  0  0  0  0  0  0  0  0  0  0
    7.0240    0.3648   -3.9770 C   0  0  0  0  0  0  0  0  0  0  0  0
    6.6017    1.6994   -3.9436 C   0  0  0  0  0  0  0  0  0  0  0  0
    5.2644    2.0370   -4.1686 C   0  0  0  0  0  0  0  0  0  0  0  0
    4.3343    1.0211   -4.4251 C   0  0  0  0  0  0  0  0  0  0  0  0
    3.9993   -1.0632   -4.6962 H   0  0  0  0  0  0  0  0  0  0  0  0
    6.3939   -1.6768   -4.2742 H   0  0  0  0  0  0  0  0  0  0  0  0
    7.3223    2.4893   -3.7366 H   0  0  0  0  0  0  0  0  0  0  0  0
    5.5497    3.9193   -3.9606 H   0  0  0  0  0  0  0  0  0  0  0  0
    2.6010    1.4065   -4.7721 S   0  0  2  0  0  0  0  0  0  0  0  0
    2.2406    1.6703   -3.1361 O   0  0  0  0  0  0  0  0  0  0  0  0
    1.9887    0.1185   -5.2289 O   0  0  0  0  0  0  0  0  0  0  0  0
    4.8154    3.3230   -4.1562 O   0  0  0  0  0  0  0  0  0  0  0  0
    8.4790    0.0209   -3.7639 C   0  0  0  0  0  0  0  0  0  0  0  0
    8.5922   -0.9841   -3.3478 H   0  0  0  0  0  0  0  0  0  0  0  0
    9.0314    0.0462   -4.7114 H   0  0  0  0  0  0  0  0  0  0  0  0
    8.9654    0.7275   -3.0843 H   0  0  0  0  0  0  0  0  0  0  0  0
   -1.2722   -0.4944   -1.2147 O   0  0  0  0  0  0  0  0  0  0  0  0
   -1.5548   -1.3824   -2.2870 C   0  0  0  0  0  0  0  0  0  0  0  0
   -2.1290   -2.2044   -1.8567 H   0  0  0  0  0  0  0  0  0  0  0  0
   -0.6331   -1.7708   -2.7361 H   0  0  0  0  0  0  0  0  0  0  0  0
   -2.1499   -0.8896   -3.0667 H   0  0  0  0  0  0  0  0  0  0  0  0
  1  6  1  0  0  0  0
  2  8  1  6  0  0  0
  2  1  1  0  0  0  0
  2  3  1  0  0  0  0
  3  4  2  0  0  0  0
  4  5  1  0  0  0  0
  4  9  1  0  0  0  0
  5 10  1  0  0  0  0
  6 31  1  0  0  0  0
  6  5  2  0  0  0  0
  7  1  1  0  0  0  0
 11  3  1  0  0  0  0
 12 11  1  0  0  0  0
 13 18  2  0  0  0  0
 13 14  1  0  0  0  0
 14 15  2  0  0  0  0
 15 16  1  0  0  0  0
 15 27  1  0  0  0  0
 16 21  1  0  0  0  0
 17 26  1  0  0  0  0
 17 16  2  0  0  0  0
 18 17  1  0  0  0  0
 19 13  1  0  0  0  0
 20 14  1  0  0  0  0
 23 25  1  1  0  0  0
 23 18  1  0  0  0  0
 23 24  1  0  0  0  0
 24  2  1  0  0  0  0
 26 22  1  0  0  0  0
 27 28  1  0  0  0  0
 27 30  1  0  0  0  0
 29 27  1  0  0  0  0
 32 33  1  0  0  0  0
 32 31  1  0  0  0  0
 34 32  1  0  0  0  0
 35 32  1  0  0  0  0
M  RAD  4   1   2  11   2  12   3  25   2
M  END
