Coordinates from ORCA-job p-CH3O-Ph-N2-X-OTs-B3LYPG-6-31G_dp-scan-d09-49-n400
 OpenBabel08281821253D

 35 36  0  0  1  0  0  0  0  0999 V2000
   -0.0685    0.9577   -2.7159 C   0  0  0  0  0  0  0  0  0  0  0  0
    0.8456    2.1236   -2.9187 C   0  0  1  0  0  0  0  0  0  0  0  0
    0.8563    3.0243   -1.7121 C   0  0  0  0  0  0  0  0  0  0  0  0
    0.3839    2.5942   -0.4192 C   0  0  0  0  0  0  0  0  0  0  0  0
   -0.2770    1.4206   -0.3075 C   0  0  0  0  0  0  0  0  0  0  0  0
   -0.5298    0.6122   -1.4899 C   0  0  0  0  0  0  0  0  0  0  0  0
   -0.2474    0.3497   -3.5932 H   0  0  0  0  0  0  0  0  0  0  0  0
    0.5721    2.6912   -3.8199 H   0  0  0  0  0  0  0  0  0  0  0  0
    0.5609    3.2333    0.4398 H   0  0  0  0  0  0  0  0  0  0  0  0
   -0.6501    1.0612    0.6441 H   0  0  0  0  0  0  0  0  0  0  0  0
    1.3710    4.2220   -1.8425 N   0  0  0  0  0  0  0  0  0  0  0  0
    1.8091    5.2715   -1.9600 N   0  0  0  0  0  0  0  0  0  0  0  0
    4.7571   -0.3138   -4.4816 C   0  0  0  0  0  0  0  0  0  0  0  0
    6.0929   -0.6357   -4.2526 C   0  0  0  0  0  0  0  0  0  0  0  0
    7.0293    0.3712   -3.9791 C   0  0  0  0  0  0  0  0  0  0  0  0
    6.5979    1.7028   -3.9384 C   0  0  0  0  0  0  0  0  0  0  0  0
    5.2585    2.0324   -4.1627 C   0  0  0  0  0  0  0  0  0  0  0  0
    4.3356    1.0116   -4.4261 C   0  0  0  0  0  0  0  0  0  0  0  0
    4.0150   -1.0733   -4.7089 H   0  0  0  0  0  0  0  0  0  0  0  0
    6.4136   -1.6729   -4.2888 H   0  0  0  0  0  0  0  0  0  0  0  0
    7.3129    2.4963   -3.7259 H   0  0  0  0  0  0  0  0  0  0  0  0
    5.5301    3.9154   -3.9425 H   0  0  0  0  0  0  0  0  0  0  0  0
    2.6004    1.3879   -4.7723 S   0  0  2  0  0  0  0  0  0  0  0  0
    2.2403    1.6525   -3.1366 O   0  0  0  0  0  0  0  0  0  0  0  0
    1.9941    0.0966   -5.2275 O   0  0  0  0  0  0  0  0  0  0  0  0
    4.8005    3.3152   -4.1430 O   0  0  0  0  0  0  0  0  0  0  0  0
    8.4865    0.0361   -3.7666 C   0  0  0  0  0  0  0  0  0  0  0  0
    8.6064   -0.9713   -3.3581 H   0  0  0  0  0  0  0  0  0  0  0  0
    9.0400    0.0727   -4.7130 H   0  0  0  0  0  0  0  0  0  0  0  0
    8.9668    0.7409   -3.0809 H   0  0  0  0  0  0  0  0  0  0  0  0
   -1.2891   -0.4842   -1.2123 O   0  0  0  0  0  0  0  0  0  0  0  0
   -1.5759   -1.3731   -2.2828 C   0  0  0  0  0  0  0  0  0  0  0  0
   -2.1557   -2.1904   -1.8512 H   0  0  0  0  0  0  0  0  0  0  0  0
   -0.6560   -1.7683   -2.7298 H   0  0  0  0  0  0  0  0  0  0  0  0
   -2.1669   -0.8785   -3.0645 H   0  0  0  0  0  0  0  0  0  0  0  0
  1  6  1  0  0  0  0
  2  8  1  6  0  0  0
  2  1  1  0  0  0  0
  2  3  1  0  0  0  0
  3  4  2  0  0  0  0
  4  5  1  0  0  0  0
  4  9  1  0  0  0  0
  5 10  1  0  0  0  0
  6 31  1  0  0  0  0
  6  5  2  0  0  0  0
  7  1  1  0  0  0  0
 11  3  1  0  0  0  0
 12 11  1  0  0  0  0
 13 18  2  0  0  0  0
 13 14  1  0  0  0  0
 14 15  2  0  0  0  0
 15 16  1  0  0  0  0
 15 27  1  0  0  0  0
 16 21  1  0  0  0  0
 17 26  1  0  0  0  0
 17 16  2  0  0  0  0
 18 17  1  0  0  0  0
 19 13  1  0  0  0  0
 20 14  1  0  0  0  0
 23 25  1  1  0  0  0
 23 18  1  0  0  0  0
 23 24  1  0  0  0  0
 24  2  1  0  0  0  0
 26 22  1  0  0  0  0
 27 28  1  0  0  0  0
 27 30  1  0  0  0  0
 29 27  1  0  0  0  0
 32 33  1  0  0  0  0
 32 31  1  0  0  0  0
 34 32  1  0  0  0  0
 35 32  1  0  0  0  0
M  RAD  4   1   2  11   2  12   3  25   2
M  END
