Coordinates from ORCA-job p-CH3O-Ph-N2-X-OTs-B3LYPG-6-31G_dp-scan-d09-49-n400
 OpenBabel08281821253D

 35 36  0  0  1  0  0  0  0  0999 V2000
   -0.0925    0.9487   -2.7128 C   0  0  0  0  0  0  0  0  0  0  0  0
    0.8619    2.0797   -2.9262 C   0  0  1  0  0  0  0  0  0  0  0  0
    0.9091    2.9890   -1.7265 C   0  0  0  0  0  0  0  0  0  0  0  0
    0.4130    2.5927   -0.4321 C   0  0  0  0  0  0  0  0  0  0  0  0
   -0.2944    1.4475   -0.3108 C   0  0  0  0  0  0  0  0  0  0  0  0
   -0.5710    0.6345   -1.4849 C   0  0  0  0  0  0  0  0  0  0  0  0
   -0.2924    0.3380   -3.5838 H   0  0  0  0  0  0  0  0  0  0  0  0
    0.6072    2.6493   -3.8316 H   0  0  0  0  0  0  0  0  0  0  0  0
    0.6119    3.2334    0.4210 H   0  0  0  0  0  0  0  0  0  0  0  0
   -0.6862    1.1140    0.6425 H   0  0  0  0  0  0  0  0  0  0  0  0
    1.4891    4.1555   -1.8650 N   0  0  0  0  0  0  0  0  0  0  0  0
    1.9872    5.1766   -1.9932 N   0  0  0  0  0  0  0  0  0  0  0  0
    4.8098   -0.3427   -4.5291 C   0  0  0  0  0  0  0  0  0  0  0  0
    6.1550   -0.6251   -4.3013 C   0  0  0  0  0  0  0  0  0  0  0  0
    7.0536    0.4043   -3.9885 C   0  0  0  0  0  0  0  0  0  0  0  0
    6.5755    1.7182   -3.9073 C   0  0  0  0  0  0  0  0  0  0  0  0
    5.2271    2.0079   -4.1304 C   0  0  0  0  0  0  0  0  0  0  0  0
    4.3423    0.9645   -4.4338 C   0  0  0  0  0  0  0  0  0  0  0  0
    4.0958   -1.1201   -4.7841 H   0  0  0  0  0  0  0  0  0  0  0  0
    6.5121   -1.6486   -4.3688 H   0  0  0  0  0  0  0  0  0  0  0  0
    7.2611    2.5285   -3.6633 H   0  0  0  0  0  0  0  0  0  0  0  0
    5.4270    3.8910   -3.8398 H   0  0  0  0  0  0  0  0  0  0  0  0
    2.5980    1.2951   -4.7777 S   0  0  2  0  0  0  0  0  0  0  0  0
    2.2382    1.5602   -3.1430 O   0  0  0  0  0  0  0  0  0  0  0  0
    2.0223   -0.0115   -5.2272 O   0  0  0  0  0  0  0  0  0  0  0  0
    4.7225    3.2720   -4.0709 O   0  0  0  0  0  0  0  0  0  0  0  0
    8.5203    0.1139   -3.7758 C   0  0  0  0  0  0  0  0  0  0  0  0
    8.6745   -0.9065   -3.4140 H   0  0  0  0  0  0  0  0  0  0  0  0
    9.0814    0.2156   -4.7132 H   0  0  0  0  0  0  0  0  0  0  0  0
    8.9674    0.8028   -3.0525 H   0  0  0  0  0  0  0  0  0  0  0  0
   -1.3700   -0.4306   -1.1977 O   0  0  0  0  0  0  0  0  0  0  0  0
   -1.6813   -1.3240   -2.2576 C   0  0  0  0  0  0  0  0  0  0  0  0
   -2.2892   -2.1161   -1.8176 H   0  0  0  0  0  0  0  0  0  0  0  0
   -0.7729   -1.7549   -2.6950 H   0  0  0  0  0  0  0  0  0  0  0  0
   -2.2531   -0.8212   -3.0483 H   0  0  0  0  0  0  0  0  0  0  0  0
  1  6  1  0  0  0  0
  2  8  1  6  0  0  0
  2  1  1  0  0  0  0
  2  3  1  0  0  0  0
  3  4  2  0  0  0  0
  4  5  1  0  0  0  0
  4  9  1  0  0  0  0
  5 10  1  0  0  0  0
  6 31  1  0  0  0  0
  6  5  2  0  0  0  0
  7  1  1  0  0  0  0
 11  3  1  0  0  0  0
 12 11  1  0  0  0  0
 13 18  2  0  0  0  0
 13 14  1  0  0  0  0
 14 15  2  0  0  0  0
 15 16  1  0  0  0  0
 15 27  1  0  0  0  0
 16 21  1  0  0  0  0
 17 26  1  0  0  0  0
 17 16  2  0  0  0  0
 18 17  1  0  0  0  0
 19 13  1  0  0  0  0
 20 14  1  0  0  0  0
 23 25  1  1  0  0  0
 23 18  1  0  0  0  0
 23 24  1  0  0  0  0
 24  2  1  0  0  0  0
 26 22  1  0  0  0  0
 27 28  1  0  0  0  0
 27 30  1  0  0  0  0
 29 27  1  0  0  0  0
 32 33  1  0  0  0  0
 32 31  1  0  0  0  0
 34 32  1  0  0  0  0
 35 32  1  0  0  0  0
M  RAD  4   1   2  11   2  12   3  25   2
M  END
