Coordinates from ORCA-job p-CH3O-Ph-N2-X-OTs-B3LYPG-6-31G_dp-scan-d09-49-n400
 OpenBabel08281821253D

 35 36  0  0  1  0  0  0  0  0999 V2000
   -0.0756    0.9556   -2.7150 C   0  0  0  0  0  0  0  0  0  0  0  0
    0.8503    2.1118   -2.9199 C   0  0  1  0  0  0  0  0  0  0  0  0
    0.8711    3.0144   -1.7148 C   0  0  0  0  0  0  0  0  0  0  0  0
    0.3915    2.5930   -0.4218 C   0  0  0  0  0  0  0  0  0  0  0  0
   -0.2829    1.4273   -0.3081 C   0  0  0  0  0  0  0  0  0  0  0  0
   -0.5422    0.6182   -1.4887 C   0  0  0  0  0  0  0  0  0  0  0  0
   -0.2602    0.3473   -3.5910 H   0  0  0  0  0  0  0  0  0  0  0  0
    0.5825    2.6806   -3.8221 H   0  0  0  0  0  0  0  0  0  0  0  0
    0.5745    3.2322    0.4360 H   0  0  0  0  0  0  0  0  0  0  0  0
   -0.6617    1.0746    0.6437 H   0  0  0  0  0  0  0  0  0  0  0  0
    1.4044    4.2037   -1.8467 N   0  0  0  0  0  0  0  0  0  0  0  0
    1.8596    5.2457   -1.9665 N   0  0  0  0  0  0  0  0  0  0  0  0
    4.7717   -0.3225   -4.4925 C   0  0  0  0  0  0  0  0  0  0  0  0
    6.1104   -0.6332   -4.2643 C   0  0  0  0  0  0  0  0  0  0  0  0
    7.0366    0.3806   -3.9819 C   0  0  0  0  0  0  0  0  0  0  0  0
    6.5923    1.7076   -3.9316 C   0  0  0  0  0  0  0  0  0  0  0  0
    5.2502    2.0260   -4.1551 C   0  0  0  0  0  0  0  0  0  0  0  0
    4.3376    0.9983   -4.4275 C   0  0  0  0  0  0  0  0  0  0  0  0
    4.0372   -1.0875   -4.7259 H   0  0  0  0  0  0  0  0  0  0  0  0
    6.4412   -1.6669   -4.3079 H   0  0  0  0  0  0  0  0  0  0  0  0
    7.2994    2.5063   -3.7119 H   0  0  0  0  0  0  0  0  0  0  0  0
    5.5022    3.9098   -3.9188 H   0  0  0  0  0  0  0  0  0  0  0  0
    2.5995    1.3614   -4.7728 S   0  0  2  0  0  0  0  0  0  0  0  0
    2.2400    1.6268   -3.1374 O   0  0  0  0  0  0  0  0  0  0  0  0
    2.0018    0.0654   -5.2257 O   0  0  0  0  0  0  0  0  0  0  0  0
    4.7792    3.3039   -4.1260 O   0  0  0  0  0  0  0  0  0  0  0  0
    8.4967    0.0581   -3.7699 C   0  0  0  0  0  0  0  0  0  0  0  0
    8.6262   -0.9523   -3.3719 H   0  0  0  0  0  0  0  0  0  0  0  0
    9.0519    0.1102   -4.7147 H   0  0  0  0  0  0  0  0  0  0  0  0
    8.9685    0.7604   -3.0758 H   0  0  0  0  0  0  0  0  0  0  0  0
   -1.3129   -0.4696   -1.2093 O   0  0  0  0  0  0  0  0  0  0  0  0
   -1.6061   -1.3594   -2.2774 C   0  0  0  0  0  0  0  0  0  0  0  0
   -2.1940   -2.1699   -1.8440 H   0  0  0  0  0  0  0  0  0  0  0  0
   -0.6891   -1.7643   -2.7215 H   0  0  0  0  0  0  0  0  0  0  0  0
   -2.1915   -0.8621   -3.0616 H   0  0  0  0  0  0  0  0  0  0  0  0
  1  6  1  0  0  0  0
  2  8  1  6  0  0  0
  2  1  1  0  0  0  0
  2  3  1  0  0  0  0
  3  4  2  0  0  0  0
  4  5  1  0  0  0  0
  4  9  1  0  0  0  0
  5 10  1  0  0  0  0
  6 31  1  0  0  0  0
  6  5  2  0  0  0  0
  7  1  1  0  0  0  0
 11  3  1  0  0  0  0
 12 11  1  0  0  0  0
 13 18  2  0  0  0  0
 13 14  1  0  0  0  0
 14 15  2  0  0  0  0
 15 16  1  0  0  0  0
 15 27  1  0  0  0  0
 16 21  1  0  0  0  0
 17 26  1  0  0  0  0
 17 16  2  0  0  0  0
 18 17  1  0  0  0  0
 19 13  1  0  0  0  0
 20 14  1  0  0  0  0
 23 25  1  1  0  0  0
 23 18  1  0  0  0  0
 23 24  1  0  0  0  0
 24  2  1  0  0  0  0
 26 22  1  0  0  0  0
 27 28  1  0  0  0  0
 27 30  1  0  0  0  0
 29 27  1  0  0  0  0
 32 33  1  0  0  0  0
 32 31  1  0  0  0  0
 34 32  1  0  0  0  0
 35 32  1  0  0  0  0
M  RAD  4   1   2  11   2  12   3  25   2
M  END
