Coordinates from ORCA-job p-CH3O-Ph-N2-X-OTs-B3LYPG-6-31G_dp-scan-d09-49-n400
 OpenBabel08281821253D

 35 36  0  0  1  0  0  0  0  0999 V2000
   -0.0509    0.9621   -2.7182 C   0  0  0  0  0  0  0  0  0  0  0  0
    0.8345    2.1508   -2.9164 C   0  0  1  0  0  0  0  0  0  0  0  0
    0.8217    3.0466   -1.7063 C   0  0  0  0  0  0  0  0  0  0  0  0
    0.3682    2.5958   -0.4135 C   0  0  0  0  0  0  0  0  0  0  0  0
   -0.2599    1.4040   -0.3059 C   0  0  0  0  0  0  0  0  0  0  0  0
   -0.4983    0.5975   -1.4926 C   0  0  0  0  0  0  0  0  0  0  0  0
   -0.2169    0.3553   -3.5988 H   0  0  0  0  0  0  0  0  0  0  0  0
    0.5470    2.7152   -3.8152 H   0  0  0  0  0  0  0  0  0  0  0  0
    0.5315    3.2346    0.4485 H   0  0  0  0  0  0  0  0  0  0  0  0
   -0.6182    1.0286    0.6452 H   0  0  0  0  0  0  0  0  0  0  0  0
    1.2900    4.2636   -1.8335 N   0  0  0  0  0  0  0  0  0  0  0  0
    1.6856    5.3304   -1.9456 N   0  0  0  0  0  0  0  0  0  0  0  0
    4.7211   -0.2910   -4.4556 C   0  0  0  0  0  0  0  0  0  0  0  0
    6.0495   -0.6403   -4.2240 C   0  0  0  0  0  0  0  0  0  0  0  0
    7.0103    0.3491   -3.9714 C   0  0  0  0  0  0  0  0  0  0  0  0
    6.6104    1.6908   -3.9545 C   0  0  0  0  0  0  0  0  0  0  0  0
    5.2785    2.0480   -4.1814 C   0  0  0  0  0  0  0  0  0  0  0  0
    4.3309    1.0449   -4.4234 C   0  0  0  0  0  0  0  0  0  0  0  0
    3.9612   -1.0368   -4.6688 H   0  0  0  0  0  0  0  0  0  0  0  0
    6.3454   -1.6853   -4.2417 H   0  0  0  0  0  0  0  0  0  0  0  0
    7.3446    2.4712   -3.7591 H   0  0  0  0  0  0  0  0  0  0  0  0
    5.5972    3.9276   -4.0001 H   0  0  0  0  0  0  0  0  0  0  0  0
    2.6030    1.4531   -4.7725 S   0  0  2  0  0  0  0  0  0  0  0  0
    2.2406    1.7129   -3.1357 O   0  0  0  0  0  0  0  0  0  0  0  0
    1.9765    0.1739   -5.2354 O   0  0  0  0  0  0  0  0  0  0  0  0
    4.8520    3.3417   -4.1853 O   0  0  0  0  0  0  0  0  0  0  0  0
    8.4597   -0.0166   -3.7566 C   0  0  0  0  0  0  0  0  0  0  0  0
    8.5565   -1.0162   -3.3237 H   0  0  0  0  0  0  0  0  0  0  0  0
    9.0093   -0.0169   -4.7060 H   0  0  0  0  0  0  0  0  0  0  0  0
    8.9605    0.6928   -3.0906 H   0  0  0  0  0  0  0  0  0  0  0  0
   -1.2298   -0.5188   -1.2192 O   0  0  0  0  0  0  0  0  0  0  0  0
   -1.5029   -1.4051   -2.2953 C   0  0  0  0  0  0  0  0  0  0  0  0
   -2.0630   -2.2379   -1.8675 H   0  0  0  0  0  0  0  0  0  0  0  0
   -0.5771   -1.7771   -2.7500 H   0  0  0  0  0  0  0  0  0  0  0  0
   -2.1081   -0.9169   -3.0702 H   0  0  0  0  0  0  0  0  0  0  0  0
  1  6  1  0  0  0  0
  2  8  1  6  0  0  0
  2  1  1  0  0  0  0
  2  3  1  0  0  0  0
  3  4  2  0  0  0  0
  4  5  1  0  0  0  0
  4  9  1  0  0  0  0
  5 10  1  0  0  0  0
  6 31  1  0  0  0  0
  6  5  2  0  0  0  0
  7  1  1  0  0  0  0
 11  3  1  0  0  0  0
 12 11  1  0  0  0  0
 13 18  2  0  0  0  0
 13 14  1  0  0  0  0
 14 15  2  0  0  0  0
 15 16  1  0  0  0  0
 15 27  1  0  0  0  0
 16 21  1  0  0  0  0
 17 16  2  0  0  0  0
 18 17  1  0  0  0  0
 19 13  1  0  0  0  0
 20 14  1  0  0  0  0
 23 25  1  1  0  0  0
 23 18  1  0  0  0  0
 23 24  1  0  0  0  0
 24  2  1  0  0  0  0
 26 17  1  0  0  0  0
 26 22  1  0  0  0  0
 27 28  1  0  0  0  0
 27 30  1  0  0  0  0
 29 27  1  0  0  0  0
 32 33  1  0  0  0  0
 32 31  1  0  0  0  0
 34 32  1  0  0  0  0
 35 32  1  0  0  0  0
M  RAD  4   1   2  11   2  12   3  25   2
M  END
