Coordinates from ORCA-job p-CH3O-Ph-N2-X-OTs-B3LYPG-6-31G_dp-scan-d09-49-n400
 OpenBabel08281821253D

 35 36  0  0  1  0  0  0  0  0999 V2000
   -0.1411    0.9225   -2.7063 C   0  0  0  0  0  0  0  0  0  0  0  0
    0.9016    1.9677   -2.9408 C   0  0  1  0  0  0  0  0  0  0  0  0
    1.0352    2.8862   -1.7531 C   0  0  0  0  0  0  0  0  0  0  0  0
    0.5012    2.5604   -0.4546 C   0  0  0  0  0  0  0  0  0  0  0  0
   -0.3061    1.4854   -0.3154 C   0  0  0  0  0  0  0  0  0  0  0  0
   -0.6484    0.6755   -1.4744 C   0  0  0  0  0  0  0  0  0  0  0  0
   -0.3957    0.3160   -3.5659 H   0  0  0  0  0  0  0  0  0  0  0  0
    0.6879    2.5441   -3.8521 H   0  0  0  0  0  0  0  0  0  0  0  0
    0.7554    3.1953    0.3881 H   0  0  0  0  0  0  0  0  0  0  0  0
   -0.7290    1.2061    0.6421 H   0  0  0  0  0  0  0  0  0  0  0  0
    1.7426    3.9777   -1.9061 N   0  0  0  0  0  0  0  0  0  0  0  0
    2.3579    4.9301   -2.0532 N   0  0  0  0  0  0  0  0  0  0  0  0
    4.9227   -0.3941   -4.6062 C   0  0  0  0  0  0  0  0  0  0  0  0
    6.2835   -0.5878   -4.3756 C   0  0  0  0  0  0  0  0  0  0  0  0
    7.1005    0.4872   -3.9997 C   0  0  0  0  0  0  0  0  0  0  0  0
    6.5261    1.7572   -3.8579 C   0  0  0  0  0  0  0  0  0  0  0  0
    5.1628    1.9575   -4.0839 C   0  0  0  0  0  0  0  0  0  0  0  0
    4.3603    0.8686   -4.4513 C   0  0  0  0  0  0  0  0  0  0  0  0
    4.2698   -1.2088   -4.9049 H   0  0  0  0  0  0  0  0  0  0  0  0
    6.7159   -1.5776   -4.4895 H   0  0  0  0  0  0  0  0  0  0  0  0
    7.1476    2.6019   -3.5646 H   0  0  0  0  0  0  0  0  0  0  0  0
    5.2070    3.8314   -3.6737 H   0  0  0  0  0  0  0  0  0  0  0  0
    2.6006    1.0981   -4.7940 S   0  0  2  0  0  0  0  0  0  0  0  0
    2.2283    1.3380   -3.1590 O   0  0  0  0  0  0  0  0  0  0  0  0
    2.0999   -0.2352   -5.2515 O   0  0  0  0  0  0  0  0  0  0  0  0
    4.5621    3.1754   -3.9677 O   0  0  0  0  0  0  0  0  0  0  0  0
    8.5826    0.2955   -3.7826 C   0  0  0  0  0  0  0  0  0  0  0  0
    8.8128   -0.7352   -3.4994 H   0  0  0  0  0  0  0  0  0  0  0  0
    9.1461    0.5160   -4.6980 H   0  0  0  0  0  0  0  0  0  0  0  0
    8.9643    0.9573   -2.9991 H   0  0  0  0  0  0  0  0  0  0  0  0
   -1.5371   -0.3101   -1.1686 O   0  0  0  0  0  0  0  0  0  0  0  0
   -1.9299   -1.1907   -2.2118 C   0  0  0  0  0  0  0  0  0  0  0  0
   -2.6069   -1.9160   -1.7575 H   0  0  0  0  0  0  0  0  0  0  0  0
   -1.0654   -1.7114   -2.6408 H   0  0  0  0  0  0  0  0  0  0  0  0
   -2.4547   -0.6525   -3.0115 H   0  0  0  0  0  0  0  0  0  0  0  0
  1  6  1  0  0  0  0
  2  8  1  6  0  0  0
  2  1  1  0  0  0  0
  2  3  1  0  0  0  0
  3  4  2  0  0  0  0
  4  5  1  0  0  0  0
  4  9  1  0  0  0  0
  5 10  1  0  0  0  0
  6 31  1  0  0  0  0
  6  5  2  0  0  0  0
  7  1  1  0  0  0  0
 11  3  1  0  0  0  0
 12 11  1  0  0  0  0
 13 18  2  0  0  0  0
 13 14  1  0  0  0  0
 14 15  2  0  0  0  0
 15 16  1  0  0  0  0
 15 27  1  0  0  0  0
 16 21  1  0  0  0  0
 17 26  1  0  0  0  0
 17 16  2  0  0  0  0
 18 17  1  0  0  0  0
 19 13  1  0  0  0  0
 20 14  1  0  0  0  0
 23 25  1  1  0  0  0
 23 18  1  0  0  0  0
 23 24  1  0  0  0  0
 24  2  1  0  0  0  0
 26 22  1  0  0  0  0
 27 28  1  0  0  0  0
 27 30  1  0  0  0  0
 29 27  1  0  0  0  0
 32 33  1  0  0  0  0
 32 31  1  0  0  0  0
 34 32  1  0  0  0  0
 35 32  1  0  0  0  0
M  RAD  4   1   2  11   2  12   3  25   2
M  END
