Coordinates from ORCA-job p-CH3O-Ph-N2-X-OTs-B3LYPG-6-31G_dp-scan-d09-49-n400
 OpenBabel08281821253D

 35 36  0  0  1  0  0  0  0  0999 V2000
   -0.1877    0.8834   -2.6929 C   0  0  0  0  0  0  0  0  0  0  0  0
    0.9602    1.8055   -2.9499 C   0  0  1  0  0  0  0  0  0  0  0  0
    1.2154    2.7109   -1.7681 C   0  0  0  0  0  0  0  0  0  0  0  0
    0.6193    2.4956   -0.4748 C   0  0  0  0  0  0  0  0  0  0  0  0
   -0.3202    1.5357   -0.3222 C   0  0  0  0  0  0  0  0  0  0  0  0
   -0.7371    0.7348   -1.4632 C   0  0  0  0  0  0  0  0  0  0  0  0
   -0.5044    0.2875   -3.5393 H   0  0  0  0  0  0  0  0  0  0  0  0
    0.7946    2.3982   -3.8606 H   0  0  0  0  0  0  0  0  0  0  0  0
    0.9415    3.1139    0.3567 H   0  0  0  0  0  0  0  0  0  0  0  0
   -0.7902    1.3400    0.6340 H   0  0  0  0  0  0  0  0  0  0  0  0
    2.1005    3.6615   -1.9300 N   0  0  0  0  0  0  0  0  0  0  0  0
    2.8900    4.4656   -2.1224 N   0  0  0  0  0  0  0  0  0  0  0  0
    5.0487   -0.4355   -4.6813 C   0  0  0  0  0  0  0  0  0  0  0  0
    6.4189   -0.5181   -4.4377 C   0  0  0  0  0  0  0  0  0  0  0  0
    7.1329    0.6073   -4.0041 C   0  0  0  0  0  0  0  0  0  0  0  0
    6.4475    1.8156   -3.8179 C   0  0  0  0  0  0  0  0  0  0  0  0
    5.0751    1.9040   -4.0568 C   0  0  0  0  0  0  0  0  0  0  0  0
    4.3764    0.7651   -4.4813 C   0  0  0  0  0  0  0  0  0  0  0  0
    4.4737   -1.2922   -5.0205 H   0  0  0  0  0  0  0  0  0  0  0  0
    6.9387   -1.4603   -4.5852 H   0  0  0  0  0  0  0  0  0  0  0  0
    6.9883    2.6989   -3.4823 H   0  0  0  0  0  0  0  0  0  0  0  0
    4.9191    3.7433   -3.5067 H   0  0  0  0  0  0  0  0  0  0  0  0
    2.6053    0.8657   -4.8259 S   0  0  2  0  0  0  0  0  0  0  0  0
    2.2048    1.0377   -3.1876 O   0  0  0  0  0  0  0  0  0  0  0  0
    2.2084   -0.4891   -5.3161 O   0  0  0  0  0  0  0  0  0  0  0  0
    4.3638    3.0577   -3.9001 O   0  0  0  0  0  0  0  0  0  0  0  0
    8.6236    0.5373   -3.7736 C   0  0  0  0  0  0  0  0  0  0  0  0
    8.9388   -0.4767   -3.5133 H   0  0  0  0  0  0  0  0  0  0  0  0
    9.1748    0.8286   -4.6766 H   0  0  0  0  0  0  0  0  0  0  0  0
    8.9390    1.2096   -2.9699 H   0  0  0  0  0  0  0  0  0  0  0  0
   -1.7365   -0.1333   -1.1439 O   0  0  0  0  0  0  0  0  0  0  0  0
   -2.2143   -0.9947   -2.1671 C   0  0  0  0  0  0  0  0  0  0  0  0
   -2.9800   -1.6195   -1.7048 H   0  0  0  0  0  0  0  0  0  0  0  0
   -1.4104   -1.6281   -2.5619 H   0  0  0  0  0  0  0  0  0  0  0  0
   -2.6581   -0.4244   -2.9929 H   0  0  0  0  0  0  0  0  0  0  0  0
  1  6  1  0  0  0  0
  2  8  1  6  0  0  0
  2  1  1  0  0  0  0
  2  3  1  0  0  0  0
  3  4  2  0  0  0  0
  4  5  1  0  0  0  0
  4  9  1  0  0  0  0
  5 10  1  0  0  0  0
  6 31  1  0  0  0  0
  6  5  2  0  0  0  0
  7  1  1  0  0  0  0
 11  3  1  0  0  0  0
 12 11  1  0  0  0  0
 13 18  2  0  0  0  0
 13 14  1  0  0  0  0
 14 15  2  0  0  0  0
 15 16  1  0  0  0  0
 15 27  1  0  0  0  0
 16 21  1  0  0  0  0
 17 26  1  0  0  0  0
 17 16  2  0  0  0  0
 18 17  1  0  0  0  0
 19 13  1  0  0  0  0
 20 14  1  0  0  0  0
 23 25  1  1  0  0  0
 23 18  1  0  0  0  0
 23 24  1  0  0  0  0
 24  2  1  0  0  0  0
 26 22  1  0  0  0  0
 27 28  1  0  0  0  0
 27 30  1  0  0  0  0
 29 27  1  0  0  0  0
 32 33  1  0  0  0  0
 32 31  1  0  0  0  0
 34 32  1  0  0  0  0
 35 32  1  0  0  0  0
M  RAD  4   1   2  11   2  12   3  25   2
M  END
