Coordinates from ORCA-job p-CH3O-Ph-N2-X-OTs-B3LYPG-6-31G_dp-scan-d09-49-n400
 OpenBabel08281821253D

 35 36  0  0  1  0  0  0  0  0999 V2000
   -0.2153    0.8108   -2.6485 C   0  0  0  0  0  0  0  0  0  0  0  0
    1.0190    1.6199   -2.8840 C   0  0  1  0  0  0  0  0  0  0  0  0
    1.3771    2.4582   -1.6774 C   0  0  0  0  0  0  0  0  0  0  0  0
    0.6318    2.4263   -0.4485 C   0  0  0  0  0  0  0  0  0  0  0  0
   -0.4604    1.6364   -0.3392 C   0  0  0  0  0  0  0  0  0  0  0  0
   -0.8759    0.8133   -1.4650 C   0  0  0  0  0  0  0  0  0  0  0  0
   -0.5394    0.2047   -3.4852 H   0  0  0  0  0  0  0  0  0  0  0  0
    0.9085    2.2519   -3.7786 H   0  0  0  0  0  0  0  0  0  0  0  0
    0.9807    3.0297    0.3833 H   0  0  0  0  0  0  0  0  0  0  0  0
   -1.0398    1.5771    0.5742 H   0  0  0  0  0  0  0  0  0  0  0  0
    2.4908    3.1434   -1.7615 N   0  0  0  0  0  0  0  0  0  0  0  0
    3.4956    3.6463   -1.9945 N   0  0  0  0  0  0  0  0  0  0  0  0
    5.1490   -0.4533   -4.6298 C   0  0  0  0  0  0  0  0  0  0  0  0
    6.5255   -0.4374   -4.4141 C   0  0  0  0  0  0  0  0  0  0  0  0
    7.1737    0.7466   -4.0352 C   0  0  0  0  0  0  0  0  0  0  0  0
    6.4119    1.9103   -3.8689 C   0  0  0  0  0  0  0  0  0  0  0  0
    5.0319    1.8984   -4.0792 C   0  0  0  0  0  0  0  0  0  0  0  0
    4.3987    0.7052   -4.4525 C   0  0  0  0  0  0  0  0  0  0  0  0
    4.6279   -1.3544   -4.9396 H   0  0  0  0  0  0  0  0  0  0  0  0
    7.1038   -1.3476   -4.5454 H   0  0  0  0  0  0  0  0  0  0  0  0
    6.8970    2.8372   -3.5678 H   0  0  0  0  0  0  0  0  0  0  0  0
    4.8217    3.7848   -3.7663 H   0  0  0  0  0  0  0  0  0  0  0  0
    2.6223    0.6780   -4.7978 S   0  0  2  0  0  0  0  0  0  0  0  0
    2.1871    0.7508   -3.1635 O   0  0  0  0  0  0  0  0  0  0  0  0
    2.3366   -0.6869   -5.3319 O   0  0  0  0  0  0  0  0  0  0  0  0
    4.2554    3.0176   -3.9198 O   0  0  0  0  0  0  0  0  0  0  0  0
    8.6705    0.7815   -3.8392 C   0  0  0  0  0  0  0  0  0  0  0  0
    9.0507   -0.1899   -3.5112 H   0  0  0  0  0  0  0  0  0  0  0  0
    9.1835    1.0323   -4.7762 H   0  0  0  0  0  0  0  0  0  0  0  0
    8.9624    1.5307   -3.0972 H   0  0  0  0  0  0  0  0  0  0  0  0
   -1.9915    0.0839   -1.1837 O   0  0  0  0  0  0  0  0  0  0  0  0
   -2.4780   -0.7945   -2.1875 C   0  0  0  0  0  0  0  0  0  0  0  0
   -3.3464   -1.2955   -1.7574 H   0  0  0  0  0  0  0  0  0  0  0  0
   -1.7224   -1.5399   -2.4647 H   0  0  0  0  0  0  0  0  0  0  0  0
   -2.7837   -0.2441   -3.0864 H   0  0  0  0  0  0  0  0  0  0  0  0
  1  6  1  0  0  0  0
  2  8  1  6  0  0  0
  2  1  1  0  0  0  0
  2  3  1  0  0  0  0
  3  4  2  0  0  0  0
  4  5  1  0  0  0  0
  4  9  1  0  0  0  0
  5 10  1  0  0  0  0
  6 31  1  0  0  0  0
  6  5  2  0  0  0  0
  7  1  1  0  0  0  0
 11  3  1  0  0  0  0
 12 11  1  0  0  0  0
 13 18  2  0  0  0  0
 13 14  1  0  0  0  0
 14 15  2  0  0  0  0
 15 16  1  0  0  0  0
 15 27  1  0  0  0  0
 16 21  1  0  0  0  0
 17 26  1  0  0  0  0
 17 16  2  0  0  0  0
 18 17  1  0  0  0  0
 19 13  1  0  0  0  0
 20 14  1  0  0  0  0
 23 25  1  1  0  0  0
 23 18  1  0  0  0  0
 23 24  1  0  0  0  0
 24  2  1  0  0  0  0
 26 22  1  0  0  0  0
 27 28  1  0  0  0  0
 27 30  1  0  0  0  0
 29 27  1  0  0  0  0
 32 33  1  0  0  0  0
 32 31  1  0  0  0  0
 34 32  1  0  0  0  0
 35 32  1  0  0  0  0
M  RAD  4   1   2  11   2  12   3  25   2
M  END
