Coordinates from ORCA-job p-CH3O-Ph-N2-X-OTs-B3LYPG-6-31G_dp-scan-d09-49-n400
 OpenBabel08281821253D

 35 36  0  0  1  0  0  0  0  0999 V2000
   -0.0921    0.9496   -2.7130 C   0  0  0  0  0  0  0  0  0  0  0  0
    0.8616    2.0817   -2.9238 C   0  0  1  0  0  0  0  0  0  0  0  0
    0.9075    2.9888   -1.7224 C   0  0  0  0  0  0  0  0  0  0  0  0
    0.4122    2.5891   -0.4287 C   0  0  0  0  0  0  0  0  0  0  0  0
   -0.2939    1.4429   -0.3098 C   0  0  0  0  0  0  0  0  0  0  0  0
   -0.5701    0.6324   -1.4857 C   0  0  0  0  0  0  0  0  0  0  0  0
   -0.2914    0.3407   -3.5853 H   0  0  0  0  0  0  0  0  0  0  0  0
    0.6069    2.6529   -3.8282 H   0  0  0  0  0  0  0  0  0  0  0  0
    0.6105    3.2282    0.4258 H   0  0  0  0  0  0  0  0  0  0  0  0
   -0.6852    1.1068    0.6429 H   0  0  0  0  0  0  0  0  0  0  0  0
    1.4848    4.1568   -1.8589 N   0  0  0  0  0  0  0  0  0  0  0  0
    1.9803    5.1794   -1.9855 N   0  0  0  0  0  0  0  0  0  0  0  0
    4.8066   -0.3417   -4.5198 C   0  0  0  0  0  0  0  0  0  0  0  0
    6.1515   -0.6256   -4.2923 C   0  0  0  0  0  0  0  0  0  0  0  0
    7.0530    0.4038   -3.9877 C   0  0  0  0  0  0  0  0  0  0  0  0
    6.5781    1.7193   -3.9143 C   0  0  0  0  0  0  0  0  0  0  0  0
    5.2299    2.0106   -4.1371 C   0  0  0  0  0  0  0  0  0  0  0  0
    4.3423    0.9672   -4.4321 C   0  0  0  0  0  0  0  0  0  0  0  0
    4.0904   -1.1191   -4.7685 H   0  0  0  0  0  0  0  0  0  0  0  0
    6.5062   -1.6503   -4.3537 H   0  0  0  0  0  0  0  0  0  0  0  0
    7.2658    2.5295   -3.6768 H   0  0  0  0  0  0  0  0  0  0  0  0
    5.4350    3.8951   -3.8606 H   0  0  0  0  0  0  0  0  0  0  0  0
    2.5981    1.2994   -4.7758 S   0  0  2  0  0  0  0  0  0  0  0  0
    2.2386    1.5636   -3.1408 O   0  0  0  0  0  0  0  0  0  0  0  0
    2.0214   -0.0067   -5.2260 O   0  0  0  0  0  0  0  0  0  0  0  0
    4.7284    3.2763   -4.0855 O   0  0  0  0  0  0  0  0  0  0  0  0
    8.5194    0.1113   -3.7756 C   0  0  0  0  0  0  0  0  0  0  0  0
    8.6717   -0.9063   -3.4054 H   0  0  0  0  0  0  0  0  0  0  0  0
    9.0787    0.2036   -4.7150 H   0  0  0  0  0  0  0  0  0  0  0  0
    8.9698    0.8052   -3.0591 H   0  0  0  0  0  0  0  0  0  0  0  0
   -1.3683   -0.4340   -1.2008 O   0  0  0  0  0  0  0  0  0  0  0  0
   -1.6792   -1.3250   -2.2628 C   0  0  0  0  0  0  0  0  0  0  0  0
   -2.2866   -2.1186   -1.8246 H   0  0  0  0  0  0  0  0  0  0  0  0
   -0.7706   -1.7544   -2.7013 H   0  0  0  0  0  0  0  0  0  0  0  0
   -2.2512   -0.8207   -3.0522 H   0  0  0  0  0  0  0  0  0  0  0  0
  1  6  1  0  0  0  0
  2  8  1  6  0  0  0
  2  1  1  0  0  0  0
  2  3  1  0  0  0  0
  3  4  2  0  0  0  0
  4  5  1  0  0  0  0
  4  9  1  0  0  0  0
  5 10  1  0  0  0  0
  6 31  1  0  0  0  0
  6  5  2  0  0  0  0
  7  1  1  0  0  0  0
 11  3  1  0  0  0  0
 12 11  1  0  0  0  0
 13 18  2  0  0  0  0
 13 14  1  0  0  0  0
 14 15  2  0  0  0  0
 15 16  1  0  0  0  0
 15 27  1  0  0  0  0
 16 21  1  0  0  0  0
 17 26  1  0  0  0  0
 17 16  2  0  0  0  0
 18 17  1  0  0  0  0
 19 13  1  0  0  0  0
 20 14  1  0  0  0  0
 23 25  1  1  0  0  0
 23 18  1  0  0  0  0
 23 24  1  0  0  0  0
 24  2  1  0  0  0  0
 26 22  1  0  0  0  0
 27 28  1  0  0  0  0
 27 30  1  0  0  0  0
 29 27  1  0  0  0  0
 32 33  1  0  0  0  0
 32 31  1  0  0  0  0
 34 32  1  0  0  0  0
 35 32  1  0  0  0  0
M  RAD  4   1   2  11   2  12   3  25   2
M  END
