Coordinates from ORCA-job p-CH3O-Ph-N2-X-OTs-B3LYPG-6-31G_dp-scan-d09-49-n400
 OpenBabel08281821253D

 35 36  0  0  1  0  0  0  0  0999 V2000
    0.0045    0.9732   -2.7280 C   0  0  0  0  0  0  0  0  0  0  0  0
    0.8040    2.2244   -2.9080 C   0  0  1  0  0  0  0  0  0  0  0  0
    0.7290    3.0954   -1.6825 C   0  0  0  0  0  0  0  0  0  0  0  0
    0.3389    2.5810   -0.3920 C   0  0  0  0  0  0  0  0  0  0  0  0
   -0.1920    1.3414   -0.3026 C   0  0  0  0  0  0  0  0  0  0  0  0
   -0.3950    0.5491   -1.5051 C   0  0  0  0  0  0  0  0  0  0  0  0
   -0.1297    0.3777   -3.6215 H   0  0  0  0  0  0  0  0  0  0  0  0
    0.4740    2.7827   -3.7957 H   0  0  0  0  0  0  0  0  0  0  0  0
    0.4672    3.2115    0.4819 H   0  0  0  0  0  0  0  0  0  0  0  0
   -0.5004    0.9170    0.6454 H   0  0  0  0  0  0  0  0  0  0  0  0
    1.0612    4.3579   -1.7931 N   0  0  0  0  0  0  0  0  0  0  0  0
    1.3323    5.4650   -1.8839 N   0  0  0  0  0  0  0  0  0  0  0  0
    4.6026   -0.2039   -4.3549 C   0  0  0  0  0  0  0  0  0  0  0  0
    5.9025   -0.6369   -4.1084 C   0  0  0  0  0  0  0  0  0  0  0  0
    6.9396    0.2919   -3.9380 C   0  0  0  0  0  0  0  0  0  0  0  0
    6.6436    1.6572   -4.0197 C   0  0  0  0  0  0  0  0  0  0  0  0
    5.3393    2.0992   -4.2620 C   0  0  0  0  0  0  0  0  0  0  0  0
    4.3147    1.1574   -4.4194 C   0  0  0  0  0  0  0  0  0  0  0  0
    3.7867   -0.9033   -4.5109 H   0  0  0  0  0  0  0  0  0  0  0  0
    6.1175   -1.7002   -4.0496 H   0  0  0  0  0  0  0  0  0  0  0  0
    7.4381    2.3910   -3.8913 H   0  0  0  0  0  0  0  0  0  0  0  0
    5.8105    3.9547   -4.2319 H   0  0  0  0  0  0  0  0  0  0  0  0
    2.6130    1.6621   -4.7778 S   0  0  2  0  0  0  0  0  0  0  0  0
    2.2372    1.8837   -3.1358 O   0  0  0  0  0  0  0  0  0  0  0  0
    1.9303    0.4271   -5.2816 O   0  0  0  0  0  0  0  0  0  0  0  0
    5.0175    3.4190   -4.3626 O   0  0  0  0  0  0  0  0  0  0  0  0
    8.3594   -0.1681   -3.7079 C   0  0  0  0  0  0  0  0  0  0  0  0
    8.3856   -1.1199   -3.1697 H   0  0  0  0  0  0  0  0  0  0  0  0
    8.8823   -0.3176   -4.6605 H   0  0  0  0  0  0  0  0  0  0  0  0
    8.9331    0.5649   -3.1326 H   0  0  0  0  0  0  0  0  0  0  0  0
   -1.0427   -0.6218   -1.2480 O   0  0  0  0  0  0  0  0  0  0  0  0
   -1.2832   -1.4933   -2.3436 C   0  0  0  0  0  0  0  0  0  0  0  0
   -1.7805   -2.3715   -1.9294 H   0  0  0  0  0  0  0  0  0  0  0  0
   -0.3463   -1.7936   -2.8279 H   0  0  0  0  0  0  0  0  0  0  0  0
   -1.9342   -1.0226   -3.0918 H   0  0  0  0  0  0  0  0  0  0  0  0
  1  6  1  0  0  0  0
  2  8  1  6  0  0  0
  2  1  1  0  0  0  0
  2  3  1  0  0  0  0
  3  4  2  0  0  0  0
  4  5  1  0  0  0  0
  4  9  1  0  0  0  0
  5 10  1  0  0  0  0
  6 31  1  0  0  0  0
  6  5  2  0  0  0  0
  7  1  1  0  0  0  0
 11  3  1  0  0  0  0
 12 11  1  0  0  0  0
 13 14  1  0  0  0  0
 14 20  1  0  0  0  0
 14 15  2  0  0  0  0
 15 27  1  0  0  0  0
 16 15  1  0  0  0  0
 16 21  1  0  0  0  0
 17 16  2  0  0  0  0
 18 13  2  0  0  0  0
 18 17  1  0  0  0  0
 19 13  1  0  0  0  0
 23 25  1  1  0  0  0
 23 18  1  0  0  0  0
 23 24  1  0  0  0  0
 24  2  1  0  0  0  0
 26 17  1  0  0  0  0
 26 22  1  0  0  0  0
 27 28  1  0  0  0  0
 27 30  1  0  0  0  0
 29 27  1  0  0  0  0
 32 33  1  0  0  0  0
 32 31  1  0  0  0  0
 34 32  1  0  0  0  0
 35 32  1  0  0  0  0
M  RAD  4   1   2  11   2  12   3  25   2
M  END
