Coordinates from ORCA-job p-CH3O-Ph-N2-X-OTs-B3LYPG-6-31G_dp-scan-d09-49-n400
 OpenBabel08281821253D

 35 36  0  0  1  0  0  0  0  0999 V2000
   -0.1117    0.9390   -2.7103 C   0  0  0  0  0  0  0  0  0  0  0  0
    0.8757    2.0394   -2.9326 C   0  0  1  0  0  0  0  0  0  0  0  0
    0.9544    2.9543   -1.7382 C   0  0  0  0  0  0  0  0  0  0  0  0
    0.4430    2.5852   -0.4420 C   0  0  0  0  0  0  0  0  0  0  0  0
   -0.3019    1.4648   -0.3129 C   0  0  0  0  0  0  0  0  0  0  0  0
   -0.6017    0.6506   -1.4805 C   0  0  0  0  0  0  0  0  0  0  0  0
   -0.3312    0.3282   -3.5764 H   0  0  0  0  0  0  0  0  0  0  0  0
    0.6360    2.6109   -3.8408 H   0  0  0  0  0  0  0  0  0  0  0  0
    0.6618    3.2254    0.4065 H   0  0  0  0  0  0  0  0  0  0  0  0
   -0.7062    1.1520    0.6422 H   0  0  0  0  0  0  0  0  0  0  0  0
    1.5833    4.0942   -1.8833 N   0  0  0  0  0  0  0  0  0  0  0  0
    2.1260    5.0913   -2.0193 N   0  0  0  0  0  0  0  0  0  0  0  0
    4.8521   -0.3623   -4.5625 C   0  0  0  0  0  0  0  0  0  0  0  0
    6.2037   -0.6127   -4.3340 C   0  0  0  0  0  0  0  0  0  0  0  0
    7.0722    0.4335   -3.9936 C   0  0  0  0  0  0  0  0  0  0  0  0
    6.5580    1.7319   -3.8855 C   0  0  0  0  0  0  0  0  0  0  0  0
    5.2034    1.9894   -4.1093 C   0  0  0  0  0  0  0  0  0  0  0  0
    4.3490    0.9291   -4.4407 C   0  0  0  0  0  0  0  0  0  0  0  0
    4.1605   -1.1534   -4.8366 H   0  0  0  0  0  0  0  0  0  0  0  0
    6.5891   -1.6243   -4.4223 H   0  0  0  0  0  0  0  0  0  0  0  0
    7.2199    2.5548   -3.6196 H   0  0  0  0  0  0  0  0  0  0  0  0
    5.3464    3.8704   -3.7699 H   0  0  0  0  0  0  0  0  0  0  0  0
    2.5985    1.2233   -4.7842 S   0  0  2  0  0  0  0  0  0  0  0  0
    2.2348    1.4789   -3.1494 O   0  0  0  0  0  0  0  0  0  0  0  0
    2.0497   -0.0933   -5.2371 O   0  0  0  0  0  0  0  0  0  0  0  0
    4.6627    3.2372   -4.0240 O   0  0  0  0  0  0  0  0  0  0  0  0
    8.5452    0.1789   -3.7791 C   0  0  0  0  0  0  0  0  0  0  0  0
    8.7274   -0.8492   -3.4542 H   0  0  0  0  0  0  0  0  0  0  0  0
    9.1104    0.3325   -4.7070 H   0  0  0  0  0  0  0  0  0  0  0  0
    8.9659    0.8533   -3.0268 H   0  0  0  0  0  0  0  0  0  0  0  0
   -1.4337   -0.3866   -1.1852 O   0  0  0  0  0  0  0  0  0  0  0  0
   -1.7723   -1.2791   -2.2375 C   0  0  0  0  0  0  0  0  0  0  0  0
   -2.4046   -2.0482   -1.7909 H   0  0  0  0  0  0  0  0  0  0  0  0
   -0.8776   -1.7421   -2.6705 H   0  0  0  0  0  0  0  0  0  0  0  0
   -2.3280   -0.7659   -3.0328 H   0  0  0  0  0  0  0  0  0  0  0  0
  1  6  1  0  0  0  0
  2  8  1  6  0  0  0
  2  1  1  0  0  0  0
  2  3  1  0  0  0  0
  3  4  2  0  0  0  0
  4  5  1  0  0  0  0
  4  9  1  0  0  0  0
  5 10  1  0  0  0  0
  6 31  1  0  0  0  0
  6  5  2  0  0  0  0
  7  1  1  0  0  0  0
 11  3  1  0  0  0  0
 12 11  1  0  0  0  0
 13 18  2  0  0  0  0
 13 14  1  0  0  0  0
 14 15  2  0  0  0  0
 15 16  1  0  0  0  0
 15 27  1  0  0  0  0
 16 21  1  0  0  0  0
 17 26  1  0  0  0  0
 17 16  2  0  0  0  0
 18 17  1  0  0  0  0
 19 13  1  0  0  0  0
 20 14  1  0  0  0  0
 23 25  1  1  0  0  0
 23 18  1  0  0  0  0
 23 24  1  0  0  0  0
 24  2  1  0  0  0  0
 26 22  1  0  0  0  0
 27 28  1  0  0  0  0
 27 30  1  0  0  0  0
 29 27  1  0  0  0  0
 32 33  1  0  0  0  0
 32 31  1  0  0  0  0
 34 32  1  0  0  0  0
 35 32  1  0  0  0  0
M  RAD  4   1   2  11   2  12   3  25   2
M  END
