Coordinates from ORCA-job p-CH3O-Ph-N2-X-OTs-B3LYPG-6-31G_dp-scan-d09-49-n400
 OpenBabel08281821253D

 35 36  0  0  1  0  0  0  0  0999 V2000
   -0.0675    0.9580   -2.7160 C   0  0  0  0  0  0  0  0  0  0  0  0
    0.8450    2.1253   -2.9185 C   0  0  1  0  0  0  0  0  0  0  0  0
    0.8543    3.0256   -1.7116 C   0  0  0  0  0  0  0  0  0  0  0  0
    0.3829    2.5943   -0.4188 C   0  0  0  0  0  0  0  0  0  0  0  0
   -0.2761    1.4196   -0.3073 C   0  0  0  0  0  0  0  0  0  0  0  0
   -0.5281    0.6113   -1.4900 C   0  0  0  0  0  0  0  0  0  0  0  0
   -0.2456    0.3501   -3.5936 H   0  0  0  0  0  0  0  0  0  0  0  0
    0.5707    2.6927   -3.8196 H   0  0  0  0  0  0  0  0  0  0  0  0
    0.5591    3.2334    0.4404 H   0  0  0  0  0  0  0  0  0  0  0  0
   -0.6484    1.0592    0.6441 H   0  0  0  0  0  0  0  0  0  0  0  0
    1.3663    4.2245   -1.8419 N   0  0  0  0  0  0  0  0  0  0  0  0
    1.8020    5.2750   -1.9590 N   0  0  0  0  0  0  0  0  0  0  0  0
    4.7550   -0.3125   -4.4800 C   0  0  0  0  0  0  0  0  0  0  0  0
    6.0904   -0.6360   -4.2509 C   0  0  0  0  0  0  0  0  0  0  0  0
    7.0282    0.3699   -3.9787 C   0  0  0  0  0  0  0  0  0  0  0  0
    6.5986    1.7021   -3.9395 C   0  0  0  0  0  0  0  0  0  0  0  0
    5.2597    2.0333   -4.1639 C   0  0  0  0  0  0  0  0  0  0  0  0
    4.3354    1.0135   -4.4259 C   0  0  0  0  0  0  0  0  0  0  0  0
    4.0119   -1.0713   -4.7064 H   0  0  0  0  0  0  0  0  0  0  0  0
    6.4096   -1.6737   -4.2859 H   0  0  0  0  0  0  0  0  0  0  0  0
    7.3148    2.4949   -3.7281 H   0  0  0  0  0  0  0  0  0  0  0  0
    5.5340    3.9162   -3.9461 H   0  0  0  0  0  0  0  0  0  0  0  0
    2.6005    1.3916   -4.7723 S   0  0  2  0  0  0  0  0  0  0  0  0
    2.2404    1.6560   -3.1365 O   0  0  0  0  0  0  0  0  0  0  0  0
    1.9930    0.1009   -5.2277 O   0  0  0  0  0  0  0  0  0  0  0  0
    4.8035    3.3167   -4.1457 O   0  0  0  0  0  0  0  0  0  0  0  0
    8.4850    0.0331   -3.7661 C   0  0  0  0  0  0  0  0  0  0  0  0
    8.6036   -0.9738   -3.3561 H   0  0  0  0  0  0  0  0  0  0  0  0
    9.0383    0.0674   -4.7127 H   0  0  0  0  0  0  0  0  0  0  0  0
    8.9666    0.7382   -3.0816 H   0  0  0  0  0  0  0  0  0  0  0  0
   -1.2857   -0.4862   -1.2128 O   0  0  0  0  0  0  0  0  0  0  0  0
   -1.5717   -1.3750   -2.2837 C   0  0  0  0  0  0  0  0  0  0  0  0
   -2.1504   -2.1932   -1.8523 H   0  0  0  0  0  0  0  0  0  0  0  0
   -0.6514   -1.7688   -2.7310 H   0  0  0  0  0  0  0  0  0  0  0  0
   -2.1635   -0.8807   -3.0650 H   0  0  0  0  0  0  0  0  0  0  0  0
  1  6  1  0  0  0  0
  2  8  1  6  0  0  0
  2  1  1  0  0  0  0
  2  3  1  0  0  0  0
  3  4  2  0  0  0  0
  4  5  1  0  0  0  0
  4  9  1  0  0  0  0
  5 10  1  0  0  0  0
  6 31  1  0  0  0  0
  6  5  2  0  0  0  0
  7  1  1  0  0  0  0
 11  3  1  0  0  0  0
 12 11  1  0  0  0  0
 13 18  2  0  0  0  0
 13 14  1  0  0  0  0
 14 15  2  0  0  0  0
 15 16  1  0  0  0  0
 15 27  1  0  0  0  0
 16 21  1  0  0  0  0
 17 26  1  0  0  0  0
 17 16  2  0  0  0  0
 18 17  1  0  0  0  0
 19 13  1  0  0  0  0
 20 14  1  0  0  0  0
 23 25  1  1  0  0  0
 23 18  1  0  0  0  0
 23 24  1  0  0  0  0
 24  2  1  0  0  0  0
 26 22  1  0  0  0  0
 27 28  1  0  0  0  0
 27 30  1  0  0  0  0
 29 27  1  0  0  0  0
 32 33  1  0  0  0  0
 32 31  1  0  0  0  0
 34 32  1  0  0  0  0
 35 32  1  0  0  0  0
M  RAD  4   1   2  11   2  12   3  25   2
M  END
