Coordinates from ORCA-job p-CH3O-Ph-N2-X-OTs-B3LYPG-6-31G_dp-scan-d09-49-n400
 OpenBabel08281821253D

 35 36  0  0  1  0  0  0  0  0999 V2000
   -0.1533    0.9176   -2.7051 C   0  0  0  0  0  0  0  0  0  0  0  0
    0.9142    1.9370   -2.9410 C   0  0  1  0  0  0  0  0  0  0  0  0
    1.0724    2.8519   -1.7531 C   0  0  0  0  0  0  0  0  0  0  0  0
    0.5297    2.5411   -0.4547 C   0  0  0  0  0  0  0  0  0  0  0  0
   -0.3049    1.4871   -0.3149 C   0  0  0  0  0  0  0  0  0  0  0  0
   -0.6670    0.6848   -1.4731 C   0  0  0  0  0  0  0  0  0  0  0  0
   -0.4238    0.3172   -3.5642 H   0  0  0  0  0  0  0  0  0  0  0  0
    0.7132    2.5184   -3.8519 H   0  0  0  0  0  0  0  0  0  0  0  0
    0.8001    3.1695    0.3877 H   0  0  0  0  0  0  0  0  0  0  0  0
   -0.7350    1.2195    0.6428 H   0  0  0  0  0  0  0  0  0  0  0  0
    1.8126    3.9214   -1.9061 N   0  0  0  0  0  0  0  0  0  0  0  0
    2.4582    4.8530   -2.0555 N   0  0  0  0  0  0  0  0  0  0  0  0
    4.9498   -0.4082   -4.6120 C   0  0  0  0  0  0  0  0  0  0  0  0
    6.3139   -0.5768   -4.3804 C   0  0  0  0  0  0  0  0  0  0  0  0
    7.1101    0.5123   -4.0008 C   0  0  0  0  0  0  0  0  0  0  0  0
    6.5121    1.7711   -3.8563 C   0  0  0  0  0  0  0  0  0  0  0  0
    5.1457    1.9461   -4.0833 C   0  0  0  0  0  0  0  0  0  0  0  0
    4.3640    0.8433   -4.4543 C   0  0  0  0  0  0  0  0  0  0  0  0
    4.3125   -1.2346   -4.9123 H   0  0  0  0  0  0  0  0  0  0  0  0
    6.7649   -1.5581   -4.4960 H   0  0  0  0  0  0  0  0  0  0  0  0
    7.1173    2.6266   -3.5605 H   0  0  0  0  0  0  0  0  0  0  0  0
    5.1503    3.8191   -3.6613 H   0  0  0  0  0  0  0  0  0  0  0  0
    2.6008    1.0437   -4.7962 S   0  0  2  0  0  0  0  0  0  0  0  0
    2.2249    1.2761   -3.1610 O   0  0  0  0  0  0  0  0  0  0  0  0
    2.1219   -0.2967   -5.2555 O   0  0  0  0  0  0  0  0  0  0  0  0
    4.5214    3.1522   -3.9655 O   0  0  0  0  0  0  0  0  0  0  0  0
    8.5953    0.3478   -3.7829 C   0  0  0  0  0  0  0  0  0  0  0  0
    8.8448   -0.6791   -3.5024 H   0  0  0  0  0  0  0  0  0  0  0  0
    9.1554    0.5818   -4.6971 H   0  0  0  0  0  0  0  0  0  0  0  0
    8.9638    1.0146   -2.9972 H   0  0  0  0  0  0  0  0  0  0  0  0
   -1.5806   -0.2776   -1.1664 O   0  0  0  0  0  0  0  0  0  0  0  0
   -1.9971   -1.1479   -2.2090 C   0  0  0  0  0  0  0  0  0  0  0  0
   -2.6934   -1.8543   -1.7543 H   0  0  0  0  0  0  0  0  0  0  0  0
   -1.1469   -1.6923   -2.6375 H   0  0  0  0  0  0  0  0  0  0  0  0
   -2.5071   -0.5962   -3.0089 H   0  0  0  0  0  0  0  0  0  0  0  0
  1  6  1  0  0  0  0
  2  8  1  6  0  0  0
  2  1  1  0  0  0  0
  2  3  1  0  0  0  0
  3  4  2  0  0  0  0
  4  5  1  0  0  0  0
  4  9  1  0  0  0  0
  5 10  1  0  0  0  0
  6 31  1  0  0  0  0
  6  5  2  0  0  0  0
  7  1  1  0  0  0  0
 11  3  1  0  0  0  0
 12 11  1  0  0  0  0
 13 18  2  0  0  0  0
 13 14  1  0  0  0  0
 14 15  2  0  0  0  0
 15 16  1  0  0  0  0
 15 27  1  0  0  0  0
 16 21  1  0  0  0  0
 17 26  1  0  0  0  0
 17 16  2  0  0  0  0
 18 17  1  0  0  0  0
 19 13  1  0  0  0  0
 20 14  1  0  0  0  0
 23 25  1  1  0  0  0
 23 18  1  0  0  0  0
 23 24  1  0  0  0  0
 24  2  1  0  0  0  0
 26 22  1  0  0  0  0
 27 28  1  0  0  0  0
 27 30  1  0  0  0  0
 29 27  1  0  0  0  0
 32 33  1  0  0  0  0
 32 31  1  0  0  0  0
 34 32  1  0  0  0  0
 35 32  1  0  0  0  0
M  RAD  4   1   2  11   2  12   3  25   2
M  END
