Coordinates from ORCA-job p-CH3O-Ph-N2-X-OTs-B3LYPG-6-31G_dp-scan-d09-49-n400
 OpenBabel08281821253D

 35 36  0  0  1  0  0  0  0  0999 V2000
    0.0026    0.9727   -2.7276 C   0  0  0  0  0  0  0  0  0  0  0  0
    0.8049    2.2220   -2.9086 C   0  0  1  0  0  0  0  0  0  0  0  0
    0.7318    3.0944   -1.6841 C   0  0  0  0  0  0  0  0  0  0  0  0
    0.3395    2.5825   -0.3932 C   0  0  0  0  0  0  0  0  0  0  0  0
   -0.1945    1.3444   -0.3027 C   0  0  0  0  0  0  0  0  0  0  0  0
   -0.3986    0.5510   -1.5043 C   0  0  0  0  0  0  0  0  0  0  0  0
   -0.1324    0.3764   -3.6203 H   0  0  0  0  0  0  0  0  0  0  0  0
    0.4763    2.7801   -3.7969 H   0  0  0  0  0  0  0  0  0  0  0  0
    0.4688    3.2137    0.4801 H   0  0  0  0  0  0  0  0  0  0  0  0
   -0.5047    0.9218    0.6456 H   0  0  0  0  0  0  0  0  0  0  0  0
    1.0683    4.3556   -1.7957 N   0  0  0  0  0  0  0  0  0  0  0  0
    1.3433    5.4617   -1.8878 N   0  0  0  0  0  0  0  0  0  0  0  0
    4.6071   -0.2075   -4.3603 C   0  0  0  0  0  0  0  0  0  0  0  0
    5.9081   -0.6376   -4.1143 C   0  0  0  0  0  0  0  0  0  0  0  0
    6.9423    0.2935   -3.9395 C   0  0  0  0  0  0  0  0  0  0  0  0
    6.6424    1.6582   -4.0161 C   0  0  0  0  0  0  0  0  0  0  0  0
    5.3371    2.0973   -4.2577 C   0  0  0  0  0  0  0  0  0  0  0  0
    4.3153    1.1532   -4.4197 C   0  0  0  0  0  0  0  0  0  0  0  0
    3.7932   -0.9086   -4.5194 H   0  0  0  0  0  0  0  0  0  0  0  0
    6.1262   -1.7006   -4.0597 H   0  0  0  0  0  0  0  0  0  0  0  0
    7.4347    2.3938   -3.8841 H   0  0  0  0  0  0  0  0  0  0  0  0
    5.8024    3.9542   -4.2197 H   0  0  0  0  0  0  0  0  0  0  0  0
    2.6126    1.6546   -4.7778 S   0  0  2  0  0  0  0  0  0  0  0  0
    2.2374    1.8780   -3.1360 O   0  0  0  0  0  0  0  0  0  0  0  0
    1.9317    0.4180   -5.2799 O   0  0  0  0  0  0  0  0  0  0  0  0
    5.0113    3.4165   -4.3533 O   0  0  0  0  0  0  0  0  0  0  0  0
    8.3633   -0.1633   -3.7101 C   0  0  0  0  0  0  0  0  0  0  0  0
    8.3918   -1.1178   -3.1769 H   0  0  0  0  0  0  0  0  0  0  0  0
    8.8879   -0.3061   -4.6628 H   0  0  0  0  0  0  0  0  0  0  0  0
    8.9339    0.5685   -3.1302 H   0  0  0  0  0  0  0  0  0  0  0  0
   -1.0490   -0.6182   -1.2463 O   0  0  0  0  0  0  0  0  0  0  0  0
   -1.2906   -1.4906   -2.3409 C   0  0  0  0  0  0  0  0  0  0  0  0
   -1.7902   -2.3671   -1.9259 H   0  0  0  0  0  0  0  0  0  0  0  0
   -0.3539   -1.7936   -2.8239 H   0  0  0  0  0  0  0  0  0  0  0  0
   -1.9399   -1.0195   -3.0902 H   0  0  0  0  0  0  0  0  0  0  0  0
  1  6  1  0  0  0  0
  2  8  1  6  0  0  0
  2  1  1  0  0  0  0
  2  3  1  0  0  0  0
  3  4  2  0  0  0  0
  4  5  1  0  0  0  0
  4  9  1  0  0  0  0
  5 10  1  0  0  0  0
  6 31  1  0  0  0  0
  6  5  2  0  0  0  0
  7  1  1  0  0  0  0
 11  3  1  0  0  0  0
 12 11  1  0  0  0  0
 13 14  1  0  0  0  0
 14 20  1  0  0  0  0
 14 15  2  0  0  0  0
 15 27  1  0  0  0  0
 16 15  1  0  0  0  0
 16 21  1  0  0  0  0
 17 16  2  0  0  0  0
 18 13  2  0  0  0  0
 18 17  1  0  0  0  0
 19 13  1  0  0  0  0
 23 25  1  1  0  0  0
 23 18  1  0  0  0  0
 23 24  1  0  0  0  0
 24  2  1  0  0  0  0
 26 17  1  0  0  0  0
 26 22  1  0  0  0  0
 27 28  1  0  0  0  0
 27 30  1  0  0  0  0
 29 27  1  0  0  0  0
 32 33  1  0  0  0  0
 32 31  1  0  0  0  0
 34 32  1  0  0  0  0
 35 32  1  0  0  0  0
M  RAD  4   1   2  11   2  12   3  25   2
M  END
