Coordinates from ORCA-job p-CH3O-Ph-N2-X-OTs-B3LYPG-6-31G_dp-scan-d09-49-n400
 OpenBabel08281821253D

 35 35  0  0  1  0  0  0  0  0999 V2000
   -0.0100    0.4051   -3.2788 C   0  0  0  0  0  0  0  0  0  0  0  0
    0.8591    1.5012   -3.8057 C   0  0  1  0  0  0  0  0  0  0  0  0
    0.8328    2.7383   -2.9015 C   0  0  0  0  0  0  0  0  0  0  0  0
    0.3296    2.6732   -1.5568 C   0  0  0  0  0  0  0  0  0  0  0  0
   -0.3214    1.5565   -1.1443 C   0  0  0  0  0  0  0  0  0  0  0  0
   -0.5282    0.4161   -2.0300 C   0  0  0  0  0  0  0  0  0  0  0  0
   -0.1525   -0.4571   -3.9200 H   0  0  0  0  0  0  0  0  0  0  0  0
    0.5347    1.7878   -4.8158 H   0  0  0  0  0  0  0  0  0  0  0  0
    0.4803    3.5215   -0.8987 H   0  0  0  0  0  0  0  0  0  0  0  0
   -0.6938    1.5169   -0.1281 H   0  0  0  0  0  0  0  0  0  0  0  0
    1.3677    3.8157   -3.3599 N   0  0  0  0  0  0  0  0  0  0  0  0
    1.8582    4.7457   -3.8800 N   0  0  0  0  0  0  0  0  0  0  0  0
    5.3292   -0.1165   -5.0426 C   0  0  0  0  0  0  0  0  0  0  0  0
    6.5768   -0.4337   -4.5083 C   0  0  0  0  0  0  0  0  0  0  0  0
    7.1631    0.3667   -3.5172 C   0  0  0  0  0  0  0  0  0  0  0  0
    6.4705    1.5044   -3.0739 C   0  0  0  0  0  0  0  0  0  0  0  0
    5.2210    1.8397   -3.5899 C   0  0  0  0  0  0  0  0  0  0  0  0
    4.6629    1.0108   -4.5676 C   0  0  0  0  0  0  0  0  0  0  0  0
    4.8685   -0.7196   -5.8187 H   0  0  0  0  0  0  0  0  0  0  0  0
    7.1064   -1.3118   -4.8688 H   0  0  0  0  0  0  0  0  0  0  0  0
    6.9203    2.1399   -2.3148 H   0  0  0  0  0  0  0  0  0  0  0  0
    4.6805    2.7269   -3.2592 H   0  0  0  0  0  0  0  0  0  0  0  0
    3.0803    1.4539   -5.3057 S   0  0  2  0  0  0  0  0  0  0  0  0
    2.2152    1.0132   -3.8527 O   0  0  0  0  0  0  0  0  0  0  0  0
    2.7836    0.4306   -6.3506 O   0  0  0  0  0  0  0  0  0  0  0  0
    3.7110    4.5420   -3.7023 O   0  0  0  0  0  0  0  0  0  0  0  0
    8.5049    0.0059   -2.9254 C   0  0  0  0  0  0  0  0  0  0  0  0
    9.0658   -0.6644   -3.5832 H   0  0  0  0  0  0  0  0  0  0  0  0
    9.1147    0.8967   -2.7450 H   0  0  0  0  0  0  0  0  0  0  0  0
    8.3851   -0.5044   -1.9615 H   0  0  0  0  0  0  0  0  0  0  0  0
   -1.2389   -0.6773   -1.6297 O   0  0  0  0  0  0  0  0  0  0  0  0
   -1.9348   -0.6571   -0.3901 C   0  0  0  0  0  0  0  0  0  0  0  0
   -2.4786   -1.6014   -0.3441 H   0  0  0  0  0  0  0  0  0  0  0  0
   -2.6531    0.1705   -0.3349 H   0  0  0  0  0  0  0  0  0  0  0  0
   -1.2503   -0.6042    0.4656 H   0  0  0  0  0  0  0  0  0  0  0  0
  1  6  2  0  0  0  0
  2  8  1  6  0  0  0
  2  1  1  0  0  0  0
  2  3  1  0  0  0  0
  3  4  2  0  0  0  0
  4  5  1  0  0  0  0
  4  9  1  0  0  0  0
  5 10  1  0  0  0  0
  6 31  1  0  0  0  0
  6  5  1  0  0  0  0
  7  1  1  0  0  0  0
 11  3  1  0  0  0  0
 12 11  1  0  0  0  0
 13 18  2  0  0  0  0
 13 14  1  0  0  0  0
 14 15  2  0  0  0  0
 15 16  1  0  0  0  0
 15 27  1  0  0  0  0
 16 21  1  0  0  0  0
 17 22  1  0  0  0  0
 17 16  2  0  0  0  0
 18 17  1  0  0  0  0
 19 13  1  0  0  0  0
 20 14  1  0  0  0  0
 23 25  1  6  0  0  0
 23 18  1  0  0  0  0
 23 24  1  0  0  0  0
 24  2  1  0  0  0  0
 27 29  1  0  0  0  0
 27 30  1  0  0  0  0
 28 27  1  0  0  0  0
 31 32  1  0  0  0  0
 32 33  1  0  0  0  0
 32 34  1  0  0  0  0
 32 35  1  0  0  0  0
M  RAD  5   5   2  11   2  12   3  25   2  26   3
M  END
