Coordinates from ORCA-job p-CH3O-Ph-N2-X-OTs-B3LYPG-6-31G_dp-scan-d09-49-n400
 OpenBabel08281821253D

 35 36  0  0  1  0  0  0  0  0999 V2000
   -0.0476    0.9626   -2.7186 C   0  0  0  0  0  0  0  0  0  0  0  0
    0.8325    2.1555   -2.9162 C   0  0  1  0  0  0  0  0  0  0  0  0
    0.8155    3.0505   -1.7057 C   0  0  0  0  0  0  0  0  0  0  0  0
    0.3655    2.5962   -0.4128 C   0  0  0  0  0  0  0  0  0  0  0  0
   -0.2565    1.4012   -0.3057 C   0  0  0  0  0  0  0  0  0  0  0  0
   -0.4924    0.5949   -1.4930 C   0  0  0  0  0  0  0  0  0  0  0  0
   -0.2114    0.3560   -3.5997 H   0  0  0  0  0  0  0  0  0  0  0  0
    0.5424    2.7191   -3.8147 H   0  0  0  0  0  0  0  0  0  0  0  0
    0.5265    3.2351    0.4496 H   0  0  0  0  0  0  0  0  0  0  0  0
   -0.6120    1.0231    0.6454 H   0  0  0  0  0  0  0  0  0  0  0  0
    1.2752    4.2707   -1.8325 N   0  0  0  0  0  0  0  0  0  0  0  0
    1.6630    5.3405   -1.9438 N   0  0  0  0  0  0  0  0  0  0  0  0
    4.7146   -0.2866   -4.4515 C   0  0  0  0  0  0  0  0  0  0  0  0
    6.0415   -0.6409   -4.2193 C   0  0  0  0  0  0  0  0  0  0  0  0
    7.0066    0.3451   -3.9699 C   0  0  0  0  0  0  0  0  0  0  0  0
    6.6126    1.6886   -3.9568 C   0  0  0  0  0  0  0  0  0  0  0  0
    5.2821    2.0509   -4.1844 C   0  0  0  0  0  0  0  0  0  0  0  0
    4.3301    1.0511   -4.4230 C   0  0  0  0  0  0  0  0  0  0  0  0
    3.9514   -1.0297   -4.6626 H   0  0  0  0  0  0  0  0  0  0  0  0
    6.3329   -1.6872   -4.2341 H   0  0  0  0  0  0  0  0  0  0  0  0
    7.3501    2.4664   -3.7640 H   0  0  0  0  0  0  0  0  0  0  0  0
    5.6093    3.9295   -4.0091 H   0  0  0  0  0  0  0  0  0  0  0  0
    2.6036    1.4653   -4.7728 S   0  0  2  0  0  0  0  0  0  0  0  0
    2.2405    1.7235   -3.1358 O   0  0  0  0  0  0  0  0  0  0  0  0
    1.9735    0.1885   -5.2377 O   0  0  0  0  0  0  0  0  0  0  0  0
    4.8614    3.3464   -4.1921 O   0  0  0  0  0  0  0  0  0  0  0  0
    8.4545   -0.0262   -3.7546 C   0  0  0  0  0  0  0  0  0  0  0  0
    8.5471   -1.0245   -3.3177 H   0  0  0  0  0  0  0  0  0  0  0  0
    9.0034   -0.0329   -4.7043 H   0  0  0  0  0  0  0  0  0  0  0  0
    8.9590    0.6836   -3.0918 H   0  0  0  0  0  0  0  0  0  0  0  0
   -1.2187   -0.5249   -1.2201 O   0  0  0  0  0  0  0  0  0  0  0  0
   -1.4895   -1.4109   -2.2971 C   0  0  0  0  0  0  0  0  0  0  0  0
   -2.0460   -2.2464   -1.8698 H   0  0  0  0  0  0  0  0  0  0  0  0
   -0.5628   -1.7787   -2.7532 H   0  0  0  0  0  0  0  0  0  0  0  0
   -2.0974   -0.9240   -3.0707 H   0  0  0  0  0  0  0  0  0  0  0  0
  1  6  1  0  0  0  0
  2  8  1  6  0  0  0
  2  1  1  0  0  0  0
  2  3  1  0  0  0  0
  3  4  2  0  0  0  0
  4  5  1  0  0  0  0
  4  9  1  0  0  0  0
  5 10  1  0  0  0  0
  6 31  1  0  0  0  0
  6  5  2  0  0  0  0
  7  1  1  0  0  0  0
 11  3  1  0  0  0  0
 12 11  1  0  0  0  0
 13 18  2  0  0  0  0
 13 14  1  0  0  0  0
 14 15  2  0  0  0  0
 15 16  1  0  0  0  0
 15 27  1  0  0  0  0
 16 21  1  0  0  0  0
 17 16  2  0  0  0  0
 18 17  1  0  0  0  0
 19 13  1  0  0  0  0
 20 14  1  0  0  0  0
 23 25  1  1  0  0  0
 23 18  1  0  0  0  0
 23 24  1  0  0  0  0
 24  2  1  0  0  0  0
 26 17  1  0  0  0  0
 26 22  1  0  0  0  0
 27 28  1  0  0  0  0
 27 30  1  0  0  0  0
 29 27  1  0  0  0  0
 32 33  1  0  0  0  0
 32 31  1  0  0  0  0
 34 32  1  0  0  0  0
 35 32  1  0  0  0  0
M  RAD  4   1   2  11   2  12   3  25   2
M  END
