Coordinates from ORCA-job p-CH3O-Ph-N2-X-OTs-B3LYPG-6-31G_dp-scan-d09-49-n400
 OpenBabel08281821253D

 35 36  0  0  1  0  0  0  0  0999 V2000
   -0.1235    0.9327   -2.7085 C   0  0  0  0  0  0  0  0  0  0  0  0
    0.8844    2.0135   -2.9342 C   0  0  1  0  0  0  0  0  0  0  0  0
    0.9826    2.9294   -1.7419 C   0  0  0  0  0  0  0  0  0  0  0  0
    0.4624    2.5752   -0.4451 C   0  0  0  0  0  0  0  0  0  0  0  0
   -0.3054    1.4706   -0.3132 C   0  0  0  0  0  0  0  0  0  0  0  0
   -0.6203    0.6584   -1.4782 C   0  0  0  0  0  0  0  0  0  0  0  0
   -0.3554    0.3237   -3.5727 H   0  0  0  0  0  0  0  0  0  0  0  0
    0.6545    2.5875   -3.8434 H   0  0  0  0  0  0  0  0  0  0  0  0
    0.6938    3.2132    0.4017 H   0  0  0  0  0  0  0  0  0  0  0  0
   -0.7169    1.1693    0.6426 H   0  0  0  0  0  0  0  0  0  0  0  0
    1.6401    4.0528   -1.8894 N   0  0  0  0  0  0  0  0  0  0  0  0
    2.2090    5.0345   -2.0293 N   0  0  0  0  0  0  0  0  0  0  0  0
    4.8764   -0.3728   -4.5738 C   0  0  0  0  0  0  0  0  0  0  0  0
    6.2315   -0.6042   -4.3453 C   0  0  0  0  0  0  0  0  0  0  0  0
    7.0833    0.4526   -3.9959 C   0  0  0  0  0  0  0  0  0  0  0  0
    6.5492    1.7423   -3.8786 C   0  0  0  0  0  0  0  0  0  0  0  0
    5.1913    1.9806   -4.1024 C   0  0  0  0  0  0  0  0  0  0  0  0
    4.3536    0.9097   -4.4429 C   0  0  0  0  0  0  0  0  0  0  0  0
    4.1972   -1.1726   -4.8536 H   0  0  0  0  0  0  0  0  0  0  0  0
    6.6324   -1.6090   -4.4404 H   0  0  0  0  0  0  0  0  0  0  0  0
    7.1982    2.5731   -3.6058 H   0  0  0  0  0  0  0  0  0  0  0  0
    5.3029    3.8610   -3.7459 H   0  0  0  0  0  0  0  0  0  0  0  0
    2.5998    1.1817   -4.7866 S   0  0  2  0  0  0  0  0  0  0  0  0
    2.2321    1.4275   -3.1515 O   0  0  0  0  0  0  0  0  0  0  0  0
    2.0683   -0.1397   -5.2452 O   0  0  0  0  0  0  0  0  0  0  0  0
    4.6309    3.2192   -4.0092 O   0  0  0  0  0  0  0  0  0  0  0  0
    8.5599    0.2192   -3.7813 C   0  0  0  0  0  0  0  0  0  0  0  0
    8.7583   -0.8102   -3.4705 H   0  0  0  0  0  0  0  0  0  0  0  0
    9.1247    0.3955   -4.7054 H   0  0  0  0  0  0  0  0  0  0  0  0
    8.9676    0.8897   -3.0184 H   0  0  0  0  0  0  0  0  0  0  0  0
   -1.4731   -0.3608   -1.1798 O   0  0  0  0  0  0  0  0  0  0  0  0
   -1.8303   -1.2492   -2.2292 C   0  0  0  0  0  0  0  0  0  0  0  0
   -2.4786   -2.0035   -1.7803 H   0  0  0  0  0  0  0  0  0  0  0  0
   -0.9456   -1.7324   -2.6608 H   0  0  0  0  0  0  0  0  0  0  0  0
   -2.3752   -0.7270   -3.0261 H   0  0  0  0  0  0  0  0  0  0  0  0
  1  6  1  0  0  0  0
  2  8  1  6  0  0  0
  2  1  1  0  0  0  0
  2  3  1  0  0  0  0
  3  4  2  0  0  0  0
  4  5  1  0  0  0  0
  4  9  1  0  0  0  0
  5 10  1  0  0  0  0
  6 31  1  0  0  0  0
  6  5  2  0  0  0  0
  7  1  1  0  0  0  0
 11  3  1  0  0  0  0
 12 11  1  0  0  0  0
 13 18  2  0  0  0  0
 13 14  1  0  0  0  0
 14 15  2  0  0  0  0
 15 16  1  0  0  0  0
 15 27  1  0  0  0  0
 16 21  1  0  0  0  0
 17 26  1  0  0  0  0
 17 16  2  0  0  0  0
 18 17  1  0  0  0  0
 19 13  1  0  0  0  0
 20 14  1  0  0  0  0
 23 25  1  1  0  0  0
 23 18  1  0  0  0  0
 23 24  1  0  0  0  0
 24  2  1  0  0  0  0
 26 22  1  0  0  0  0
 27 28  1  0  0  0  0
 27 30  1  0  0  0  0
 29 27  1  0  0  0  0
 32 33  1  0  0  0  0
 32 31  1  0  0  0  0
 34 32  1  0  0  0  0
 35 32  1  0  0  0  0
M  RAD  4   1   2  11   2  12   3  25   2
M  END
