Coordinates from ORCA-job p-CH3O-Ph-N2-X-OTs-B3LYPG-6-31G_dp-scan-d09-49-n400
 OpenBabel08281821253D

 35 36  0  0  1  0  0  0  0  0999 V2000
   -0.0048    0.4060   -3.2693 C   0  0  0  0  0  0  0  0  0  0  0  0
    0.8713    1.5025   -3.7841 C   0  0  1  0  0  0  0  0  0  0  0  0
    0.8537    2.7351   -2.8712 C   0  0  0  0  0  0  0  0  0  0  0  0
    0.3270    2.6664   -1.5338 C   0  0  0  0  0  0  0  0  0  0  0  0
   -0.3387    1.5537   -1.1364 C   0  0  0  0  0  0  0  0  0  0  0  0
   -0.5399    0.4161   -2.0281 C   0  0  0  0  0  0  0  0  0  0  0  0
   -0.1415   -0.4539   -3.9147 H   0  0  0  0  0  0  0  0  0  0  0  0
    0.5469    1.8023   -4.7906 H   0  0  0  0  0  0  0  0  0  0  0  0
    0.4748    3.5106   -0.8698 H   0  0  0  0  0  0  0  0  0  0  0  0
   -0.7267    1.5131   -0.1260 H   0  0  0  0  0  0  0  0  0  0  0  0
    1.4032    3.8080   -3.3148 N   0  0  0  0  0  0  0  0  0  0  0  0
    1.9106    4.7267   -3.8542 N   0  0  0  0  0  0  0  0  0  0  0  0
    5.3305   -0.1390   -5.0340 C   0  0  0  0  0  0  0  0  0  0  0  0
    6.5831   -0.4437   -4.5041 C   0  0  0  0  0  0  0  0  0  0  0  0
    7.1751    0.3756   -3.5320 C   0  0  0  0  0  0  0  0  0  0  0  0
    6.4832    1.5196   -3.1036 C   0  0  0  0  0  0  0  0  0  0  0  0
    5.2290    1.8430   -3.6157 C   0  0  0  0  0  0  0  0  0  0  0  0
    4.6654    0.9950   -4.5736 C   0  0  0  0  0  0  0  0  0  0  0  0
    4.8651   -0.7571   -5.7953 H   0  0  0  0  0  0  0  0  0  0  0  0
    7.1120   -1.3269   -4.8531 H   0  0  0  0  0  0  0  0  0  0  0  0
    6.9374    2.1698   -2.3598 H   0  0  0  0  0  0  0  0  0  0  0  0
    4.6904    2.7354   -3.2959 H   0  0  0  0  0  0  0  0  0  0  0  0
    3.0761    1.4231   -5.3048 S   0  0  2  0  0  0  0  0  0  0  0  0
    2.2244    1.0091   -3.8375 O   0  0  0  0  0  0  0  0  0  0  0  0
    2.7707    0.3829   -6.3300 O   0  0  0  0  0  0  0  0  0  0  0  0
    3.6972    4.5692   -3.6772 O   0  0  0  0  0  0  0  0  0  0  0  0
    8.5224    0.0288   -2.9445 C   0  0  0  0  0  0  0  0  0  0  0  0
    9.0800   -0.6516   -3.5947 H   0  0  0  0  0  0  0  0  0  0  0  0
    9.1311    0.9241   -2.7845 H   0  0  0  0  0  0  0  0  0  0  0  0
    8.4114   -0.4648   -1.9709 H   0  0  0  0  0  0  0  0  0  0  0  0
   -1.2598   -0.6752   -1.6388 O   0  0  0  0  0  0  0  0  0  0  0  0
   -1.9765   -0.6525   -0.4111 C   0  0  0  0  0  0  0  0  0  0  0  0
   -2.5248   -1.5947   -0.3747 H   0  0  0  0  0  0  0  0  0  0  0  0
   -2.6924    0.1778   -0.3678 H   0  0  0  0  0  0  0  0  0  0  0  0
   -1.3065   -0.6028    0.4562 H   0  0  0  0  0  0  0  0  0  0  0  0
  1  6  2  0  0  0  0
  2  8  1  6  0  0  0
  2  1  1  0  0  0  0
  2  3  1  0  0  0  0
  3  4  2  0  0  0  0
  4  5  1  0  0  0  0
  4  9  1  0  0  0  0
  5 10  1  0  0  0  0
  6 31  1  0  0  0  0
  6  5  1  0  0  0  0
  7  1  1  0  0  0  0
 11  3  1  0  0  0  0
 12 26  1  0  0  0  0
 12 11  1  0  0  0  0
 13 18  2  0  0  0  0
 13 14  1  0  0  0  0
 14 15  2  0  0  0  0
 15 16  1  0  0  0  0
 15 27  1  0  0  0  0
 16 21  1  0  0  0  0
 17 22  1  0  0  0  0
 17 16  2  0  0  0  0
 18 17  1  0  0  0  0
 19 13  1  0  0  0  0
 20 14  1  0  0  0  0
 23 25  1  6  0  0  0
 23 18  1  0  0  0  0
 23 24  1  0  0  0  0
 24  2  1  0  0  0  0
 27 29  1  0  0  0  0
 27 30  1  0  0  0  0
 28 27  1  0  0  0  0
 31 32  1  0  0  0  0
 32 33  1  0  0  0  0
 32 34  1  0  0  0  0
 32 35  1  0  0  0  0
M  RAD  5   5   2  11   2  12   2  25   2  26   2
M  END
