Coordinates from ORCA-job p-CH3O-Ph-N2-X-OTs-B3LYPG-6-31G_dp-scan-d09-49-n400
 OpenBabel08281821253D

 35 36  0  0  1  0  0  0  0  0999 V2000
   -0.0488    0.9625   -2.7185 C   0  0  0  0  0  0  0  0  0  0  0  0
    0.8332    2.1539   -2.9162 C   0  0  1  0  0  0  0  0  0  0  0  0
    0.8175    3.0492   -1.7059 C   0  0  0  0  0  0  0  0  0  0  0  0
    0.3664    2.5961   -0.4130 C   0  0  0  0  0  0  0  0  0  0  0  0
   -0.2577    1.4021   -0.3058 C   0  0  0  0  0  0  0  0  0  0  0  0
   -0.4944    0.5957   -1.4928 C   0  0  0  0  0  0  0  0  0  0  0  0
   -0.2133    0.3558   -3.5994 H   0  0  0  0  0  0  0  0  0  0  0  0
    0.5439    2.7178   -3.8149 H   0  0  0  0  0  0  0  0  0  0  0  0
    0.5282    3.2349    0.4493 H   0  0  0  0  0  0  0  0  0  0  0  0
   -0.6141    1.0249    0.6453 H   0  0  0  0  0  0  0  0  0  0  0  0
    1.2801    4.2683   -1.8328 N   0  0  0  0  0  0  0  0  0  0  0  0
    1.6705    5.3372   -1.9444 N   0  0  0  0  0  0  0  0  0  0  0  0
    4.7168   -0.2881   -4.4529 C   0  0  0  0  0  0  0  0  0  0  0  0
    6.0441   -0.6407   -4.2209 C   0  0  0  0  0  0  0  0  0  0  0  0
    7.0078    0.3464   -3.9704 C   0  0  0  0  0  0  0  0  0  0  0  0
    6.6119    1.6893   -3.9561 C   0  0  0  0  0  0  0  0  0  0  0  0
    5.2809    2.0499   -4.1834 C   0  0  0  0  0  0  0  0  0  0  0  0
    4.3304    1.0491   -4.4231 C   0  0  0  0  0  0  0  0  0  0  0  0
    3.9547   -1.0321   -4.6646 H   0  0  0  0  0  0  0  0  0  0  0  0
    6.3371   -1.6866   -4.2366 H   0  0  0  0  0  0  0  0  0  0  0  0
    7.3483    2.4680   -3.7624 H   0  0  0  0  0  0  0  0  0  0  0  0
    5.6053    3.9289   -4.0061 H   0  0  0  0  0  0  0  0  0  0  0  0
    2.6034    1.4612   -4.7727 S   0  0  2  0  0  0  0  0  0  0  0  0
    2.2405    1.7200   -3.1357 O   0  0  0  0  0  0  0  0  0  0  0  0
    1.9745    0.1837   -5.2369 O   0  0  0  0  0  0  0  0  0  0  0  0
    4.8582    3.3448   -4.1898 O   0  0  0  0  0  0  0  0  0  0  0  0
    8.4563   -0.0230   -3.7553 C   0  0  0  0  0  0  0  0  0  0  0  0
    8.5503   -1.0217   -3.3197 H   0  0  0  0  0  0  0  0  0  0  0  0
    9.0054   -0.0276   -4.7049 H   0  0  0  0  0  0  0  0  0  0  0  0
    8.9595    0.6867   -3.0914 H   0  0  0  0  0  0  0  0  0  0  0  0
   -1.2224   -0.5228   -1.2198 O   0  0  0  0  0  0  0  0  0  0  0  0
   -1.4940   -1.4090   -2.2965 C   0  0  0  0  0  0  0  0  0  0  0  0
   -2.0517   -2.2436   -1.8690 H   0  0  0  0  0  0  0  0  0  0  0  0
   -0.5676   -1.7782   -2.7521 H   0  0  0  0  0  0  0  0  0  0  0  0
   -2.1010   -0.9216   -3.0706 H   0  0  0  0  0  0  0  0  0  0  0  0
  1  6  1  0  0  0  0
  2  8  1  6  0  0  0
  2  1  1  0  0  0  0
  2  3  1  0  0  0  0
  3  4  2  0  0  0  0
  4  5  1  0  0  0  0
  4  9  1  0  0  0  0
  5 10  1  0  0  0  0
  6 31  1  0  0  0  0
  6  5  2  0  0  0  0
  7  1  1  0  0  0  0
 11  3  1  0  0  0  0
 12 11  1  0  0  0  0
 13 18  2  0  0  0  0
 13 14  1  0  0  0  0
 14 15  2  0  0  0  0
 15 16  1  0  0  0  0
 15 27  1  0  0  0  0
 16 21  1  0  0  0  0
 17 16  2  0  0  0  0
 18 17  1  0  0  0  0
 19 13  1  0  0  0  0
 20 14  1  0  0  0  0
 23 25  1  1  0  0  0
 23 18  1  0  0  0  0
 23 24  1  0  0  0  0
 24  2  1  0  0  0  0
 26 17  1  0  0  0  0
 26 22  1  0  0  0  0
 27 28  1  0  0  0  0
 27 30  1  0  0  0  0
 29 27  1  0  0  0  0
 32 33  1  0  0  0  0
 32 31  1  0  0  0  0
 34 32  1  0  0  0  0
 35 32  1  0  0  0  0
M  RAD  4   1   2  11   2  12   3  25   2
M  END
