Coordinates from ORCA-job p-CH3O-Ph-N2-X-OTs-B3LYPG-6-31G_dp-scan-d09-49-n400
 OpenBabel08281821253D

 35 36  0  0  1  0  0  0  0  0999 V2000
   -0.1185    0.9360   -2.7092 C   0  0  0  0  0  0  0  0  0  0  0  0
    0.8805    2.0258   -2.9315 C   0  0  1  0  0  0  0  0  0  0  0  0
    0.9695    2.9398   -1.7372 C   0  0  0  0  0  0  0  0  0  0  0  0
    0.4527    2.5771   -0.4413 C   0  0  0  0  0  0  0  0  0  0  0  0
   -0.3049    1.4653   -0.3123 C   0  0  0  0  0  0  0  0  0  0  0  0
   -0.6127    0.6538   -1.4797 C   0  0  0  0  0  0  0  0  0  0  0  0
   -0.3444    0.3272   -3.5751 H   0  0  0  0  0  0  0  0  0  0  0  0
    0.6468    2.5999   -3.8397 H   0  0  0  0  0  0  0  0  0  0  0  0
    0.6782    3.2151    0.4072 H   0  0  0  0  0  0  0  0  0  0  0  0
   -0.7136    1.1577    0.6427 H   0  0  0  0  0  0  0  0  0  0  0  0
    1.6140    4.0710   -1.8818 N   0  0  0  0  0  0  0  0  0  0  0  0
    2.1708    5.0602   -2.0182 N   0  0  0  0  0  0  0  0  0  0  0  0
    4.8639   -0.3678   -4.5622 C   0  0  0  0  0  0  0  0  0  0  0  0
    6.2175   -0.6084   -4.3342 C   0  0  0  0  0  0  0  0  0  0  0  0
    7.0786    0.4442   -3.9947 C   0  0  0  0  0  0  0  0  0  0  0  0
    6.5551    1.7390   -3.8869 C   0  0  0  0  0  0  0  0  0  0  0  0
    5.1987    1.9866   -4.1102 C   0  0  0  0  0  0  0  0  0  0  0  0
    4.3517    0.9199   -4.4406 C   0  0  0  0  0  0  0  0  0  0  0  0
    4.1778   -1.1642   -4.8348 H   0  0  0  0  0  0  0  0  0  0  0  0
    6.6101   -1.6172   -4.4221 H   0  0  0  0  0  0  0  0  0  0  0  0
    7.2113    2.5667   -3.6220 H   0  0  0  0  0  0  0  0  0  0  0  0
    5.3276    3.8688   -3.7714 H   0  0  0  0  0  0  0  0  0  0  0  0
    2.5993    1.2020   -4.7838 S   0  0  2  0  0  0  0  0  0  0  0  0
    2.2334    1.4511   -3.1486 O   0  0  0  0  0  0  0  0  0  0  0  0
    2.0600   -0.1169   -5.2407 O   0  0  0  0  0  0  0  0  0  0  0  0
    4.6490    3.2305   -4.0259 O   0  0  0  0  0  0  0  0  0  0  0  0
    8.5535    0.2004   -3.7809 C   0  0  0  0  0  0  0  0  0  0  0  0
    8.7437   -0.8272   -3.4589 H   0  0  0  0  0  0  0  0  0  0  0  0
    9.1176    0.3611   -4.7082 H   0  0  0  0  0  0  0  0  0  0  0  0
    8.9688    0.8759   -3.0266 H   0  0  0  0  0  0  0  0  0  0  0  0
   -1.4564   -0.3740   -1.1844 O   0  0  0  0  0  0  0  0  0  0  0  0
   -1.8046   -1.2630   -2.2364 C   0  0  0  0  0  0  0  0  0  0  0  0
   -2.4458   -2.0246   -1.7898 H   0  0  0  0  0  0  0  0  0  0  0  0
   -0.9150   -1.7365   -2.6687 H   0  0  0  0  0  0  0  0  0  0  0  0
   -2.3540   -0.7439   -3.0322 H   0  0  0  0  0  0  0  0  0  0  0  0
  1  6  1  0  0  0  0
  2  8  1  6  0  0  0
  2  1  1  0  0  0  0
  2  3  1  0  0  0  0
  3  4  2  0  0  0  0
  4  5  1  0  0  0  0
  4  9  1  0  0  0  0
  5 10  1  0  0  0  0
  6 31  1  0  0  0  0
  6  5  2  0  0  0  0
  7  1  1  0  0  0  0
 11  3  1  0  0  0  0
 12 11  1  0  0  0  0
 13 18  2  0  0  0  0
 13 14  1  0  0  0  0
 14 15  2  0  0  0  0
 15 16  1  0  0  0  0
 15 27  1  0  0  0  0
 16 21  1  0  0  0  0
 17 26  1  0  0  0  0
 17 16  2  0  0  0  0
 18 17  1  0  0  0  0
 19 13  1  0  0  0  0
 20 14  1  0  0  0  0
 23 25  1  1  0  0  0
 23 18  1  0  0  0  0
 23 24  1  0  0  0  0
 24  2  1  0  0  0  0
 26 22  1  0  0  0  0
 27 28  1  0  0  0  0
 27 30  1  0  0  0  0
 29 27  1  0  0  0  0
 32 33  1  0  0  0  0
 32 31  1  0  0  0  0
 34 32  1  0  0  0  0
 35 32  1  0  0  0  0
M  RAD  4   1   2  11   2  12   3  25   2
M  END
