Coordinates from ORCA-job p-CH3O-Ph-N2-X-OTs-B3LYPG-6-31G_dp-scan-d09-49-n400
 OpenBabel08281821253D

 35 36  0  0  1  0  0  0  0  0999 V2000
   -0.0014    0.4092   -3.2624 C   0  0  0  0  0  0  0  0  0  0  0  0
    0.8802    1.5063   -3.7668 C   0  0  1  0  0  0  0  0  0  0  0  0
    0.8671    2.7351   -2.8472 C   0  0  0  0  0  0  0  0  0  0  0  0
    0.3226    2.6631   -1.5159 C   0  0  0  0  0  0  0  0  0  0  0  0
   -0.3533    1.5528   -1.1304 C   0  0  0  0  0  0  0  0  0  0  0  0
   -0.5493    0.4177   -2.0272 C   0  0  0  0  0  0  0  0  0  0  0  0
   -0.1332   -0.4488   -3.9116 H   0  0  0  0  0  0  0  0  0  0  0  0
    0.5576    1.8160   -4.7711 H   0  0  0  0  0  0  0  0  0  0  0  0
    0.4671    3.5039   -0.8470 H   0  0  0  0  0  0  0  0  0  0  0  0
   -0.7533    1.5110   -0.1247 H   0  0  0  0  0  0  0  0  0  0  0  0
    1.4273    3.8052   -3.2787 N   0  0  0  0  0  0  0  0  0  0  0  0
    1.9467    4.7113   -3.8402 N   0  0  0  0  0  0  0  0  0  0  0  0
    5.3324   -0.1546   -5.0273 C   0  0  0  0  0  0  0  0  0  0  0  0
    6.5891   -0.4501   -4.5018 C   0  0  0  0  0  0  0  0  0  0  0  0
    7.1851    0.3818   -3.5429 C   0  0  0  0  0  0  0  0  0  0  0  0
    6.4930    1.5289   -3.1234 C   0  0  0  0  0  0  0  0  0  0  0  0
    5.2348    1.8434   -3.6313 C   0  0  0  0  0  0  0  0  0  0  0  0
    4.6674    0.9830   -4.5757 C   0  0  0  0  0  0  0  0  0  0  0  0
    4.8636   -0.7829   -5.7783 H   0  0  0  0  0  0  0  0  0  0  0  0
    7.1180   -1.3359   -4.8440 H   0  0  0  0  0  0  0  0  0  0  0  0
    6.9502    2.1889   -2.3900 H   0  0  0  0  0  0  0  0  0  0  0  0
    4.6967    2.7382   -3.3176 H   0  0  0  0  0  0  0  0  0  0  0  0
    3.0729    1.3993   -5.3021 S   0  0  2  0  0  0  0  0  0  0  0  0
    2.2316    1.0097   -3.8231 O   0  0  0  0  0  0  0  0  0  0  0  0
    2.7606    0.3441   -6.3096 O   0  0  0  0  0  0  0  0  0  0  0  0
    3.6858    4.5793   -3.6717 O   0  0  0  0  0  0  0  0  0  0  0  0
    8.5370    0.0453   -2.9602 C   0  0  0  0  0  0  0  0  0  0  0  0
    9.0916   -0.6425   -3.6051 H   0  0  0  0  0  0  0  0  0  0  0  0
    9.1449    0.9438   -2.8159 H   0  0  0  0  0  0  0  0  0  0  0  0
    8.4336   -0.4357   -1.9794 H   0  0  0  0  0  0  0  0  0  0  0  0
   -1.2760   -0.6726   -1.6473 O   0  0  0  0  0  0  0  0  0  0  0  0
   -2.0062   -0.6501   -0.4277 C   0  0  0  0  0  0  0  0  0  0  0  0
   -2.5572   -1.5909   -0.3989 H   0  0  0  0  0  0  0  0  0  0  0  0
   -2.7206    0.1819   -0.3910 H   0  0  0  0  0  0  0  0  0  0  0  0
   -1.3459   -0.6034    0.4472 H   0  0  0  0  0  0  0  0  0  0  0  0
  1  6  2  0  0  0  0
  2  8  1  6  0  0  0
  2  1  1  0  0  0  0
  2  3  1  0  0  0  0
  3  4  2  0  0  0  0
  4  5  1  0  0  0  0
  4  9  1  0  0  0  0
  5 10  1  0  0  0  0
  6 31  1  0  0  0  0
  6  5  1  0  0  0  0
  7  1  1  0  0  0  0
 11  3  1  0  0  0  0
 12 26  1  0  0  0  0
 12 11  1  0  0  0  0
 13 18  2  0  0  0  0
 13 14  1  0  0  0  0
 14 15  2  0  0  0  0
 15 16  1  0  0  0  0
 15 27  1  0  0  0  0
 16 21  1  0  0  0  0
 17 22  1  0  0  0  0
 17 16  2  0  0  0  0
 18 17  1  0  0  0  0
 19 13  1  0  0  0  0
 20 14  1  0  0  0  0
 23 25  1  6  0  0  0
 23 18  1  0  0  0  0
 23 24  1  0  0  0  0
 24  2  1  0  0  0  0
 27 29  1  0  0  0  0
 27 30  1  0  0  0  0
 28 27  1  0  0  0  0
 31 32  1  0  0  0  0
 32 33  1  0  0  0  0
 32 34  1  0  0  0  0
 32 35  1  0  0  0  0
M  RAD  5   5   2  11   2  12   2  25   2  26   2
M  END
