Coordinates from ORCA-job p-CH3O-Ph-N2-X-OTs-B3LYPG-6-31G_dp-scan-d09-49-n400
 OpenBabel08281821253D

 35 36  0  0  1  0  0  0  0  0999 V2000
   -0.0705    0.9571   -2.7157 C   0  0  0  0  0  0  0  0  0  0  0  0
    0.8469    2.1203   -2.9191 C   0  0  1  0  0  0  0  0  0  0  0  0
    0.8604    3.0216   -1.7129 C   0  0  0  0  0  0  0  0  0  0  0  0
    0.3859    2.5940   -0.4200 C   0  0  0  0  0  0  0  0  0  0  0  0
   -0.2787    1.4226   -0.3077 C   0  0  0  0  0  0  0  0  0  0  0  0
   -0.5333    0.6139   -1.4895 C   0  0  0  0  0  0  0  0  0  0  0  0
   -0.2510    0.3490   -3.5926 H   0  0  0  0  0  0  0  0  0  0  0  0
    0.5750    2.6882   -3.8206 H   0  0  0  0  0  0  0  0  0  0  0  0
    0.5647    3.2332    0.4386 H   0  0  0  0  0  0  0  0  0  0  0  0
   -0.6534    1.0651    0.6440 H   0  0  0  0  0  0  0  0  0  0  0  0
    1.3804    4.2169   -1.8439 N   0  0  0  0  0  0  0  0  0  0  0  0
    1.8232    5.2644   -1.9621 N   0  0  0  0  0  0  0  0  0  0  0  0
    4.7612   -0.3162   -4.4849 C   0  0  0  0  0  0  0  0  0  0  0  0
    6.0979   -0.6350   -4.2562 C   0  0  0  0  0  0  0  0  0  0  0  0
    7.0314    0.3738   -3.9799 C   0  0  0  0  0  0  0  0  0  0  0  0
    6.5963    1.7041   -3.9363 C   0  0  0  0  0  0  0  0  0  0  0  0
    5.2562    2.0306   -4.1603 C   0  0  0  0  0  0  0  0  0  0  0  0
    4.3362    1.0079   -4.4265 C   0  0  0  0  0  0  0  0  0  0  0  0
    4.0213   -1.0773   -4.7141 H   0  0  0  0  0  0  0  0  0  0  0  0
    6.4214   -1.6712   -4.2946 H   0  0  0  0  0  0  0  0  0  0  0  0
    7.3091    2.4990   -3.7216 H   0  0  0  0  0  0  0  0  0  0  0  0
    5.5222    3.9138   -3.9353 H   0  0  0  0  0  0  0  0  0  0  0  0
    2.6001    1.3804   -4.7725 S   0  0  2  0  0  0  0  0  0  0  0  0
    2.2402    1.6452   -3.1368 O   0  0  0  0  0  0  0  0  0  0  0  0
    1.9963    0.0878   -5.2270 O   0  0  0  0  0  0  0  0  0  0  0  0
    4.7944    3.3120   -4.1378 O   0  0  0  0  0  0  0  0  0  0  0  0
    8.4894    0.0423   -3.7676 C   0  0  0  0  0  0  0  0  0  0  0  0
    8.6120   -0.9660   -3.3622 H   0  0  0  0  0  0  0  0  0  0  0  0
    9.0435    0.0833   -4.7135 H   0  0  0  0  0  0  0  0  0  0  0  0
    8.9673    0.7463   -3.0794 H   0  0  0  0  0  0  0  0  0  0  0  0
   -1.2958   -0.4801   -1.2114 O   0  0  0  0  0  0  0  0  0  0  0  0
   -1.5843   -1.3693   -2.2812 C   0  0  0  0  0  0  0  0  0  0  0  0
   -2.1664   -2.1847   -1.8490 H   0  0  0  0  0  0  0  0  0  0  0  0
   -0.6652   -1.7672   -2.7273 H   0  0  0  0  0  0  0  0  0  0  0  0
   -2.1738   -0.8740   -3.0636 H   0  0  0  0  0  0  0  0  0  0  0  0
  1  6  1  0  0  0  0
  2  8  1  6  0  0  0
  2  1  1  0  0  0  0
  2  3  1  0  0  0  0
  3  4  2  0  0  0  0
  4  5  1  0  0  0  0
  4  9  1  0  0  0  0
  5 10  1  0  0  0  0
  6 31  1  0  0  0  0
  6  5  2  0  0  0  0
  7  1  1  0  0  0  0
 11  3  1  0  0  0  0
 12 11  1  0  0  0  0
 13 18  2  0  0  0  0
 13 14  1  0  0  0  0
 14 15  2  0  0  0  0
 15 16  1  0  0  0  0
 15 27  1  0  0  0  0
 16 21  1  0  0  0  0
 17 26  1  0  0  0  0
 17 16  2  0  0  0  0
 18 17  1  0  0  0  0
 19 13  1  0  0  0  0
 20 14  1  0  0  0  0
 23 25  1  1  0  0  0
 23 18  1  0  0  0  0
 23 24  1  0  0  0  0
 24  2  1  0  0  0  0
 26 22  1  0  0  0  0
 27 28  1  0  0  0  0
 27 30  1  0  0  0  0
 29 27  1  0  0  0  0
 32 33  1  0  0  0  0
 32 31  1  0  0  0  0
 34 32  1  0  0  0  0
 35 32  1  0  0  0  0
M  RAD  4   1   2  11   2  12   3  25   2
M  END
