Coordinates from ORCA-job p-CH3O-Ph-N2-X-OTs-B3LYPG-6-31G_dp-scan-d09-49-n400
 OpenBabel08281821253D

 35 35  0  0  1  0  0  0  0  0999 V2000
   -0.0122    0.4063   -3.2842 C   0  0  0  0  0  0  0  0  0  0  0  0
    0.8510    1.5033   -3.8183 C   0  0  1  0  0  0  0  0  0  0  0  0
    0.8141    2.7438   -2.9210 C   0  0  0  0  0  0  0  0  0  0  0  0
    0.3238    2.6817   -1.5729 C   0  0  0  0  0  0  0  0  0  0  0  0
   -0.3157    1.5614   -1.1503 C   0  0  0  0  0  0  0  0  0  0  0  0
   -0.5215    0.4179   -2.0313 C   0  0  0  0  0  0  0  0  0  0  0  0
   -0.1557   -0.4582   -3.9220 H   0  0  0  0  0  0  0  0  0  0  0  0
    0.5283    1.7795   -4.8317 H   0  0  0  0  0  0  0  0  0  0  0  0
    0.4728    3.5338   -0.9193 H   0  0  0  0  0  0  0  0  0  0  0  0
   -0.6799    1.5229   -0.1312 H   0  0  0  0  0  0  0  0  0  0  0  0
    1.3395    3.8247   -3.3885 N   0  0  0  0  0  0  0  0  0  0  0  0
    1.8187    4.7586   -3.9011 N   0  0  0  0  0  0  0  0  0  0  0  0
    5.3296   -0.1003   -5.0480 C   0  0  0  0  0  0  0  0  0  0  0  0
    6.5746   -0.4261   -4.5129 C   0  0  0  0  0  0  0  0  0  0  0  0
    7.1576    0.3600   -3.5084 C   0  0  0  0  0  0  0  0  0  0  0  0
    6.4639    1.4919   -3.0523 C   0  0  0  0  0  0  0  0  0  0  0  0
    5.2166    1.8350   -3.5686 C   0  0  0  0  0  0  0  0  0  0  0  0
    4.6618    1.0209   -4.5607 C   0  0  0  0  0  0  0  0  0  0  0  0
    4.8717   -0.6921   -5.8344 H   0  0  0  0  0  0  0  0  0  0  0  0
    7.1050   -1.2996   -4.8833 H   0  0  0  0  0  0  0  0  0  0  0  0
    6.9107    2.1162   -2.2822 H   0  0  0  0  0  0  0  0  0  0  0  0
    4.6739    2.7169   -3.2275 H   0  0  0  0  0  0  0  0  0  0  0  0
    3.0833    1.4738   -5.3033 S   0  0  2  0  0  0  0  0  0  0  0  0
    2.2104    1.0218   -3.8579 O   0  0  0  0  0  0  0  0  0  0  0  0
    2.7910    0.4581   -6.3572 O   0  0  0  0  0  0  0  0  0  0  0  0
    3.7268    4.5073   -3.7249 O   0  0  0  0  0  0  0  0  0  0  0  0
    8.4967   -0.0100   -2.9162 C   0  0  0  0  0  0  0  0  0  0  0  0
    9.0590   -0.6730   -3.5802 H   0  0  0  0  0  0  0  0  0  0  0  0
    9.1071    0.8775   -2.7226 H   0  0  0  0  0  0  0  0  0  0  0  0
    8.3725   -0.5322   -1.9592 H   0  0  0  0  0  0  0  0  0  0  0  0
   -1.2245   -0.6781   -1.6244 O   0  0  0  0  0  0  0  0  0  0  0  0
   -1.9061   -0.6614   -0.3769 C   0  0  0  0  0  0  0  0  0  0  0  0
   -2.4444   -1.6085   -0.3245 H   0  0  0  0  0  0  0  0  0  0  0  0
   -2.6281    0.1624   -0.3135 H   0  0  0  0  0  0  0  0  0  0  0  0
   -1.2119   -0.6046    0.4707 H   0  0  0  0  0  0  0  0  0  0  0  0
  1  6  2  0  0  0  0
  2  8  1  6  0  0  0
  2  1  1  0  0  0  0
  2  3  1  0  0  0  0
  3  4  2  0  0  0  0
  4  5  1  0  0  0  0
  4  9  1  0  0  0  0
  5 10  1  0  0  0  0
  6 31  1  0  0  0  0
  6  5  1  0  0  0  0
  7  1  1  0  0  0  0
 11  3  1  0  0  0  0
 12 11  1  0  0  0  0
 13 18  2  0  0  0  0
 13 14  1  0  0  0  0
 14 15  2  0  0  0  0
 15 16  1  0  0  0  0
 15 27  1  0  0  0  0
 16 21  1  0  0  0  0
 17 22  1  0  0  0  0
 17 16  2  0  0  0  0
 18 17  1  0  0  0  0
 19 13  1  0  0  0  0
 20 14  1  0  0  0  0
 23 25  1  6  0  0  0
 23 18  1  0  0  0  0
 23 24  1  0  0  0  0
 24  2  1  0  0  0  0
 27 29  1  0  0  0  0
 27 30  1  0  0  0  0
 28 27  1  0  0  0  0
 31 32  1  0  0  0  0
 32 33  1  0  0  0  0
 32 34  1  0  0  0  0
 32 35  1  0  0  0  0
M  RAD  5   5   2  11   2  12   3  25   2  26   3
M  END
