Coordinates from ORCA-job p-CH3O-Ph-N2-X-OTs-B3LYPG-6-31G_dp-scan-d09-49-n400
 OpenBabel08281821253D

 35 36  0  0  1  0  0  0  0  0999 V2000
   -0.0805    0.9540   -2.7144 C   0  0  0  0  0  0  0  0  0  0  0  0
    0.8536    2.1033   -2.9210 C   0  0  1  0  0  0  0  0  0  0  0  0
    0.8816    3.0072   -1.7170 C   0  0  0  0  0  0  0  0  0  0  0  0
    0.3971    2.5923   -0.4238 C   0  0  0  0  0  0  0  0  0  0  0  0
   -0.2866    1.4321   -0.3087 C   0  0  0  0  0  0  0  0  0  0  0  0
   -0.5506    0.6225   -1.4879 C   0  0  0  0  0  0  0  0  0  0  0  0
   -0.2692    0.3455   -3.5893 H   0  0  0  0  0  0  0  0  0  0  0  0
    0.5897    2.6728   -3.8239 H   0  0  0  0  0  0  0  0  0  0  0  0
    0.5844    3.2315    0.4330 H   0  0  0  0  0  0  0  0  0  0  0  0
   -0.6693    1.0843    0.6434 H   0  0  0  0  0  0  0  0  0  0  0  0
    1.4280    4.1905   -1.8501 N   0  0  0  0  0  0  0  0  0  0  0  0
    1.8951    5.2269   -1.9717 N   0  0  0  0  0  0  0  0  0  0  0  0
    4.7820   -0.3284   -4.5007 C   0  0  0  0  0  0  0  0  0  0  0  0
    6.1227   -0.6312   -4.2728 C   0  0  0  0  0  0  0  0  0  0  0  0
    7.0416    0.3872   -3.9838 C   0  0  0  0  0  0  0  0  0  0  0  0
    6.5881    1.7110   -3.9264 C   0  0  0  0  0  0  0  0  0  0  0  0
    5.2442    2.0213   -4.1496 C   0  0  0  0  0  0  0  0  0  0  0  0
    4.3389    0.9889   -4.4288 C   0  0  0  0  0  0  0  0  0  0  0  0
    4.0529   -1.0972   -4.7386 H   0  0  0  0  0  0  0  0  0  0  0  0
    6.4606   -1.6623   -4.3219 H   0  0  0  0  0  0  0  0  0  0  0  0
    7.2895    2.5131   -3.7014 H   0  0  0  0  0  0  0  0  0  0  0  0
    5.4824    3.9056   -3.9012 H   0  0  0  0  0  0  0  0  0  0  0  0
    2.5990    1.3428   -4.7734 S   0  0  2  0  0  0  0  0  0  0  0  0
    2.2397    1.6085   -3.1382 O   0  0  0  0  0  0  0  0  0  0  0  0
    2.0074    0.0436   -5.2250 O   0  0  0  0  0  0  0  0  0  0  0  0
    4.7641    3.2957   -4.1135 O   0  0  0  0  0  0  0  0  0  0  0  0
    8.5036    0.0737   -3.7720 C   0  0  0  0  0  0  0  0  0  0  0  0
    8.6399   -0.9389   -3.3819 H   0  0  0  0  0  0  0  0  0  0  0  0
    9.0600    0.1374   -4.7153 H   0  0  0  0  0  0  0  0  0  0  0  0
    8.9692    0.7738   -3.0714 H   0  0  0  0  0  0  0  0  0  0  0  0
   -1.3294   -0.4592   -1.2069 O   0  0  0  0  0  0  0  0  0  0  0  0
   -1.6273   -1.3495   -2.2732 C   0  0  0  0  0  0  0  0  0  0  0  0
   -2.2209   -2.1553   -1.8384 H   0  0  0  0  0  0  0  0  0  0  0  0
   -0.7125   -1.7615   -2.7154 H   0  0  0  0  0  0  0  0  0  0  0  0
   -2.2087   -0.8503   -3.0591 H   0  0  0  0  0  0  0  0  0  0  0  0
  1  6  1  0  0  0  0
  2  8  1  6  0  0  0
  2  1  1  0  0  0  0
  2  3  1  0  0  0  0
  3  4  2  0  0  0  0
  4  5  1  0  0  0  0
  4  9  1  0  0  0  0
  5 10  1  0  0  0  0
  6 31  1  0  0  0  0
  6  5  2  0  0  0  0
  7  1  1  0  0  0  0
 11  3  1  0  0  0  0
 12 11  1  0  0  0  0
 13 18  2  0  0  0  0
 13 14  1  0  0  0  0
 14 15  2  0  0  0  0
 15 16  1  0  0  0  0
 15 27  1  0  0  0  0
 16 21  1  0  0  0  0
 17 26  1  0  0  0  0
 17 16  2  0  0  0  0
 18 17  1  0  0  0  0
 19 13  1  0  0  0  0
 20 14  1  0  0  0  0
 23 25  1  1  0  0  0
 23 18  1  0  0  0  0
 23 24  1  0  0  0  0
 24  2  1  0  0  0  0
 26 22  1  0  0  0  0
 27 28  1  0  0  0  0
 27 30  1  0  0  0  0
 29 27  1  0  0  0  0
 32 33  1  0  0  0  0
 32 31  1  0  0  0  0
 34 32  1  0  0  0  0
 35 32  1  0  0  0  0
M  RAD  4   1   2  11   2  12   3  25   2
M  END
