Coordinates from ORCA-job p-CH3O-Ph-N2-X-OTs-B3LYPG-6-31G_dp-scan-d09-49-n400
 OpenBabel08281821253D

 35 36  0  0  1  0  0  0  0  0999 V2000
   -0.1749    0.9054   -2.7028 C   0  0  0  0  0  0  0  0  0  0  0  0
    0.9380    1.8721   -2.9501 C   0  0  1  0  0  0  0  0  0  0  0  0
    1.1477    2.7841   -1.7665 C   0  0  0  0  0  0  0  0  0  0  0  0
    0.5888    2.5127   -0.4664 C   0  0  0  0  0  0  0  0  0  0  0  0
   -0.2979    1.5033   -0.3179 C   0  0  0  0  0  0  0  0  0  0  0  0
   -0.6987    0.7087   -1.4687 C   0  0  0  0  0  0  0  0  0  0  0  0
   -0.4765    0.3123   -3.5566 H   0  0  0  0  0  0  0  0  0  0  0  0
    0.7581    2.4585   -3.8620 H   0  0  0  0  0  0  0  0  0  0  0  0
    0.8914    3.1328    0.3711 H   0  0  0  0  0  0  0  0  0  0  0  0
   -0.7408    1.2658    0.6419 H   0  0  0  0  0  0  0  0  0  0  0  0
    1.9530    3.8039   -1.9267 N   0  0  0  0  0  0  0  0  0  0  0  0
    2.6617    4.6858   -2.0916 N   0  0  0  0  0  0  0  0  0  0  0  0
    5.0042   -0.4288   -4.6494 C   0  0  0  0  0  0  0  0  0  0  0  0
    6.3723   -0.5495   -4.4107 C   0  0  0  0  0  0  0  0  0  0  0  0
    7.1229    0.5608   -4.0005 C   0  0  0  0  0  0  0  0  0  0  0  0
    6.4758    1.7924   -3.8324 C   0  0  0  0  0  0  0  0  0  0  0  0
    5.1054    1.9189   -4.0664 C   0  0  0  0  0  0  0  0  0  0  0  0
    4.3699    0.7952   -4.4681 C   0  0  0  0  0  0  0  0  0  0  0  0
    4.4014   -1.2729   -4.9712 H   0  0  0  0  0  0  0  0  0  0  0  0
    6.8621   -1.5097   -4.5442 H   0  0  0  0  0  0  0  0  0  0  0  0
    7.0451    2.6641   -3.5137 H   0  0  0  0  0  0  0  0  0  0  0  0
    5.0195    3.7764   -3.5749 H   0  0  0  0  0  0  0  0  0  0  0  0
    2.6019    0.9411   -4.8120 S   0  0  2  0  0  0  0  0  0  0  0  0
    2.2136    1.1499   -3.1760 O   0  0  0  0  0  0  0  0  0  0  0  0
    2.1667   -0.4096   -5.2822 O   0  0  0  0  0  0  0  0  0  0  0  0
    4.4316    3.0962   -3.9280 O   0  0  0  0  0  0  0  0  0  0  0  0
    8.6118    0.4490   -3.7753 C   0  0  0  0  0  0  0  0  0  0  0  0
    8.8986   -0.5722   -3.5100 H   0  0  0  0  0  0  0  0  0  0  0  0
    9.1679    0.7192   -4.6819 H   0  0  0  0  0  0  0  0  0  0  0  0
    8.9499    1.1164   -2.9766 H   0  0  0  0  0  0  0  0  0  0  0  0
   -1.6572   -0.2058   -1.1532 O   0  0  0  0  0  0  0  0  0  0  0  0
   -2.1158   -1.0643   -2.1876 C   0  0  0  0  0  0  0  0  0  0  0  0
   -2.8465   -1.7310   -1.7269 H   0  0  0  0  0  0  0  0  0  0  0  0
   -1.2932   -1.6543   -2.6099 H   0  0  0  0  0  0  0  0  0  0  0  0
   -2.5975   -0.4956   -2.9932 H   0  0  0  0  0  0  0  0  0  0  0  0
  1  6  1  0  0  0  0
  2  8  1  6  0  0  0
  2  1  1  0  0  0  0
  2  3  1  0  0  0  0
  3  4  2  0  0  0  0
  4  5  1  0  0  0  0
  4  9  1  0  0  0  0
  5 10  1  0  0  0  0
  6 31  1  0  0  0  0
  6  5  2  0  0  0  0
  7  1  1  0  0  0  0
 11  3  1  0  0  0  0
 12 11  1  0  0  0  0
 13 18  2  0  0  0  0
 13 14  1  0  0  0  0
 14 15  2  0  0  0  0
 15 16  1  0  0  0  0
 15 27  1  0  0  0  0
 16 21  1  0  0  0  0
 17 26  1  0  0  0  0
 17 16  2  0  0  0  0
 18 17  1  0  0  0  0
 19 13  1  0  0  0  0
 20 14  1  0  0  0  0
 23 25  1  1  0  0  0
 23 18  1  0  0  0  0
 23 24  1  0  0  0  0
 24  2  1  0  0  0  0
 26 22  1  0  0  0  0
 27 28  1  0  0  0  0
 27 30  1  0  0  0  0
 29 27  1  0  0  0  0
 32 33  1  0  0  0  0
 32 31  1  0  0  0  0
 34 32  1  0  0  0  0
 35 32  1  0  0  0  0
M  RAD  4   1   2  11   2  12   3  25   2
M  END
