Coordinates from ORCA-job p-CH3O-Ph-N2-X-OTs-B3LYPG-6-31G_dp-scan-d09-49-n400
 OpenBabel08281821253D

 35 36  0  0  1  0  0  0  0  0999 V2000
   -0.1471    0.9205   -2.7057 C   0  0  0  0  0  0  0  0  0  0  0  0
    0.9080    1.9535   -2.9391 C   0  0  1  0  0  0  0  0  0  0  0  0
    1.0533    2.8685   -1.7501 C   0  0  0  0  0  0  0  0  0  0  0  0
    0.5150    2.5482   -0.4521 C   0  0  0  0  0  0  0  0  0  0  0  0
   -0.3058    1.4832   -0.3143 C   0  0  0  0  0  0  0  0  0  0  0  0
   -0.6577    0.6787   -1.4741 C   0  0  0  0  0  0  0  0  0  0  0  0
   -0.4092    0.3182   -3.5660 H   0  0  0  0  0  0  0  0  0  0  0  0
    0.7007    2.5336   -3.8495 H   0  0  0  0  0  0  0  0  0  0  0  0
    0.7770    3.1788    0.3913 H   0  0  0  0  0  0  0  0  0  0  0  0
   -0.7324    1.2082    0.6428 H   0  0  0  0  0  0  0  0  0  0  0  0
    1.7767    3.9497   -1.9018 N   0  0  0  0  0  0  0  0  0  0  0  0
    2.4067    4.8924   -2.0489 N   0  0  0  0  0  0  0  0  0  0  0  0
    4.9341   -0.4010   -4.6027 C   0  0  0  0  0  0  0  0  0  0  0  0
    6.2965   -0.5831   -4.3720 C   0  0  0  0  0  0  0  0  0  0  0  0
    7.1050    0.4996   -3.9999 C   0  0  0  0  0  0  0  0  0  0  0  0
    6.5207    1.7655   -3.8621 C   0  0  0  0  0  0  0  0  0  0  0  0
    5.1558    1.9542   -4.0881 C   0  0  0  0  0  0  0  0  0  0  0  0
    4.3619    0.8576   -4.4516 C   0  0  0  0  0  0  0  0  0  0  0  0
    4.2875   -1.2220   -4.8979 H   0  0  0  0  0  0  0  0  0  0  0  0
    6.7367   -1.5698   -4.4826 H   0  0  0  0  0  0  0  0  0  0  0  0
    7.1356    2.6161   -3.5720 H   0  0  0  0  0  0  0  0  0  0  0  0
    5.1840    3.8298   -3.6824 H   0  0  0  0  0  0  0  0  0  0  0  0
    2.6005    1.0735   -4.7939 S   0  0  2  0  0  0  0  0  0  0  0  0
    2.2271    1.3090   -3.1586 O   0  0  0  0  0  0  0  0  0  0  0  0
    2.1097   -0.2628   -5.2530 O   0  0  0  0  0  0  0  0  0  0  0  0
    4.5453    3.1677   -3.9764 O   0  0  0  0  0  0  0  0  0  0  0  0
    8.5887    0.3204   -3.7829 C   0  0  0  0  0  0  0  0  0  0  0  0
    8.8273   -0.7076   -3.4968 H   0  0  0  0  0  0  0  0  0  0  0  0
    9.1501    0.5428   -4.6991 H   0  0  0  0  0  0  0  0  0  0  0  0
    8.9653    0.9876   -3.0014 H   0  0  0  0  0  0  0  0  0  0  0  0
   -1.5587   -0.2961   -1.1695 O   0  0  0  0  0  0  0  0  0  0  0  0
   -1.9629   -1.1702   -2.2137 C   0  0  0  0  0  0  0  0  0  0  0  0
   -2.6494   -1.8871   -1.7603 H   0  0  0  0  0  0  0  0  0  0  0  0
   -1.1052   -1.7019   -2.6432 H   0  0  0  0  0  0  0  0  0  0  0  0
   -2.4805   -0.6243   -3.0128 H   0  0  0  0  0  0  0  0  0  0  0  0
  1  6  1  0  0  0  0
  2  8  1  6  0  0  0
  2  1  1  0  0  0  0
  2  3  1  0  0  0  0
  3  4  2  0  0  0  0
  4  5  1  0  0  0  0
  4  9  1  0  0  0  0
  5 10  1  0  0  0  0
  6 31  1  0  0  0  0
  6  5  2  0  0  0  0
  7  1  1  0  0  0  0
 11  3  1  0  0  0  0
 12 11  1  0  0  0  0
 13 18  2  0  0  0  0
 13 14  1  0  0  0  0
 14 15  2  0  0  0  0
 15 16  1  0  0  0  0
 15 27  1  0  0  0  0
 16 21  1  0  0  0  0
 17 26  1  0  0  0  0
 17 16  2  0  0  0  0
 18 17  1  0  0  0  0
 19 13  1  0  0  0  0
 20 14  1  0  0  0  0
 23 25  1  1  0  0  0
 23 18  1  0  0  0  0
 23 24  1  0  0  0  0
 24  2  1  0  0  0  0
 26 22  1  0  0  0  0
 27 28  1  0  0  0  0
 27 30  1  0  0  0  0
 29 27  1  0  0  0  0
 32 33  1  0  0  0  0
 32 31  1  0  0  0  0
 34 32  1  0  0  0  0
 35 32  1  0  0  0  0
M  RAD  4   1   2  11   2  12   3  25   2
M  END
