Coordinates from ORCA-job p-CH3O-Ph-N2-X-OTs-B3LYPG-6-31G_dp-scan-d09-49-n400
 OpenBabel08281821253D

 35 36  0  0  1  0  0  0  0  0999 V2000
   -0.0563    0.9610   -2.7175 C   0  0  0  0  0  0  0  0  0  0  0  0
    0.8379    2.1430   -2.9168 C   0  0  1  0  0  0  0  0  0  0  0  0
    0.8320    3.0401   -1.7076 C   0  0  0  0  0  0  0  0  0  0  0  0
    0.3726    2.5952   -0.4149 C   0  0  0  0  0  0  0  0  0  0  0  0
   -0.2654    1.4087   -0.3063 C   0  0  0  0  0  0  0  0  0  0  0  0
   -0.5080    0.6018   -1.4919 C   0  0  0  0  0  0  0  0  0  0  0  0
   -0.2260    0.3540   -3.5973 H   0  0  0  0  0  0  0  0  0  0  0  0
    0.5546    2.7086   -3.8163 H   0  0  0  0  0  0  0  0  0  0  0  0
    0.5400    3.2340    0.4464 H   0  0  0  0  0  0  0  0  0  0  0  0
   -0.6283    1.0379    0.6448 H   0  0  0  0  0  0  0  0  0  0  0  0
    1.3143    4.2514   -1.8355 N   0  0  0  0  0  0  0  0  0  0  0  0
    1.7228    5.3133   -1.9489 N   0  0  0  0  0  0  0  0  0  0  0  0
    4.7319   -0.2982   -4.4627 C   0  0  0  0  0  0  0  0  0  0  0  0
    6.0626   -0.6392   -4.2319 C   0  0  0  0  0  0  0  0  0  0  0  0
    7.0162    0.3557   -3.9738 C   0  0  0  0  0  0  0  0  0  0  0  0
    6.6069    1.6945   -3.9503 C   0  0  0  0  0  0  0  0  0  0  0  0
    5.2726    2.0434   -4.1763 C   0  0  0  0  0  0  0  0  0  0  0  0
    4.3323    1.0347   -4.4240 C   0  0  0  0  0  0  0  0  0  0  0  0
    3.9772   -1.0483   -4.6796 H   0  0  0  0  0  0  0  0  0  0  0  0
    6.3659   -1.6820   -4.2548 H   0  0  0  0  0  0  0  0  0  0  0  0
    7.3353    2.4790   -3.7503 H   0  0  0  0  0  0  0  0  0  0  0  0
    5.5772    3.9242   -3.9844 H   0  0  0  0  0  0  0  0  0  0  0  0
    2.6021    1.4332   -4.7721 S   0  0  2  0  0  0  0  0  0  0  0  0
    2.2407    1.6952   -3.1357 O   0  0  0  0  0  0  0  0  0  0  0  0
    1.9815    0.1502   -5.2321 O   0  0  0  0  0  0  0  0  0  0  0  0
    4.8366    3.3339   -4.1736 O   0  0  0  0  0  0  0  0  0  0  0  0
    8.4680   -0.0007   -3.7598 C   0  0  0  0  0  0  0  0  0  0  0  0
    8.5718   -1.0026   -3.3337 H   0  0  0  0  0  0  0  0  0  0  0  0
    9.0187    0.0095   -4.7085 H   0  0  0  0  0  0  0  0  0  0  0  0
    8.9628    0.7077   -3.0883 H   0  0  0  0  0  0  0  0  0  0  0  0
   -1.2478   -0.5086   -1.2175 O   0  0  0  0  0  0  0  0  0  0  0  0
   -1.5249   -1.3956   -2.2922 C   0  0  0  0  0  0  0  0  0  0  0  0
   -2.0910   -2.2239   -1.8634 H   0  0  0  0  0  0  0  0  0  0  0  0
   -0.6007   -1.7744   -2.7445 H   0  0  0  0  0  0  0  0  0  0  0  0
   -2.1257   -0.9053   -3.0691 H   0  0  0  0  0  0  0  0  0  0  0  0
  1  6  1  0  0  0  0
  2  8  1  6  0  0  0
  2  1  1  0  0  0  0
  2  3  1  0  0  0  0
  3  4  2  0  0  0  0
  4  5  1  0  0  0  0
  4  9  1  0  0  0  0
  5 10  1  0  0  0  0
  6 31  1  0  0  0  0
  6  5  2  0  0  0  0
  7  1  1  0  0  0  0
 11  3  1  0  0  0  0
 12 11  1  0  0  0  0
 13 18  2  0  0  0  0
 13 14  1  0  0  0  0
 14 15  2  0  0  0  0
 15 16  1  0  0  0  0
 15 27  1  0  0  0  0
 16 21  1  0  0  0  0
 17 26  1  0  0  0  0
 17 16  2  0  0  0  0
 18 17  1  0  0  0  0
 19 13  1  0  0  0  0
 20 14  1  0  0  0  0
 23 25  1  1  0  0  0
 23 18  1  0  0  0  0
 23 24  1  0  0  0  0
 24  2  1  0  0  0  0
 26 22  1  0  0  0  0
 27 28  1  0  0  0  0
 27 30  1  0  0  0  0
 29 27  1  0  0  0  0
 32 33  1  0  0  0  0
 32 31  1  0  0  0  0
 34 32  1  0  0  0  0
 35 32  1  0  0  0  0
M  RAD  4   1   2  11   2  12   3  25   2
M  END
