Coordinates from ORCA-job p-CH3O-Ph-N2-X-OTs-B3LYPG-6-31G_dp-scan-d09-49-n400
 OpenBabel08281821253D

 35 35  0  0  1  0  0  0  0  0999 V2000
    0.2720    0.3250   -3.1176 C   0  0  0  0  0  0  0  0  0  0  0  0
    0.9324    1.4737   -3.8028 C   0  0  1  0  0  0  0  0  0  0  0  0
    0.5170    2.8547   -3.2585 C   0  0  0  0  0  0  0  0  0  0  0  0
    0.1155    2.8814   -1.8381 C   0  0  0  0  0  0  0  0  0  0  0  0
   -0.2655    1.7572   -1.1982 C   0  0  0  0  0  0  0  0  0  0  0  0
   -0.2460    0.4580   -1.8779 C   0  0  0  0  0  0  0  0  0  0  0  0
    0.2878   -0.6491   -3.5942 H   0  0  0  0  0  0  0  0  0  0  0  0
    0.7696    1.4357   -4.8811 H   0  0  0  0  0  0  0  0  0  0  0  0
    0.0592    3.8557   -1.3632 H   0  0  0  0  0  0  0  0  0  0  0  0
   -0.6103    1.8116   -0.1716 H   0  0  0  0  0  0  0  0  0  0  0  0
    0.5360    3.9432   -3.9252 N   0  0  0  0  0  0  0  0  0  0  0  0
    0.7632    3.6916   -5.7652 N   0  0  0  0  0  0  0  0  0  0  0  0
    5.6572    1.0752   -4.9876 C   0  0  0  0  0  0  0  0  0  0  0  0
    6.8226    0.3377   -4.7756 C   0  0  0  0  0  0  0  0  0  0  0  0
    7.2225   -0.0297   -3.4843 C   0  0  0  0  0  0  0  0  0  0  0  0
    6.4252    0.3667   -2.3985 C   0  0  0  0  0  0  0  0  0  0  0  0
    5.2604    1.1043   -2.5928 C   0  0  0  0  0  0  0  0  0  0  0  0
    4.8813    1.4451   -3.8931 C   0  0  0  0  0  0  0  0  0  0  0  0
    5.3382    1.3657   -5.9837 H   0  0  0  0  0  0  0  0  0  0  0  0
    7.4320    0.0443   -5.6266 H   0  0  0  0  0  0  0  0  0  0  0  0
    6.7226    0.0929   -1.3894 H   0  0  0  0  0  0  0  0  0  0  0  0
    4.6480    1.3989   -1.7459 H   0  0  0  0  0  0  0  0  0  0  0  0
    3.4158    2.4692   -4.1751 S   0  0  2  0  0  0  0  0  0  0  0  0
    2.3810    1.2590   -3.5826 O   0  0  0  0  0  0  0  0  0  0  0  0
    3.2637    2.5853   -5.6656 O   0  0  0  0  0  0  0  0  0  0  0  0
    1.0190    4.5429   -6.1783 O   0  0  0  0  0  0  0  0  0  0  0  0
    8.4700   -0.8504   -3.2605 C   0  0  0  0  0  0  0  0  0  0  0  0
    8.2233   -1.9097   -3.1166 H   0  0  0  0  0  0  0  0  0  0  0  0
    9.1513   -0.7857   -4.1139 H   0  0  0  0  0  0  0  0  0  0  0  0
    9.0110   -0.5212   -2.3674 H   0  0  0  0  0  0  0  0  0  0  0  0
   -0.7431   -0.6629   -1.2722 O   0  0  0  0  0  0  0  0  0  0  0  0
   -1.5541   -0.5374   -0.1131 C   0  0  0  0  0  0  0  0  0  0  0  0
   -1.9419   -1.5377    0.0863 H   0  0  0  0  0  0  0  0  0  0  0  0
   -2.3974    0.1463   -0.2710 H   0  0  0  0  0  0  0  0  0  0  0  0
   -0.9792   -0.2061    0.7610 H   0  0  0  0  0  0  0  0  0  0  0  0
  1  6  2  0  0  0  0
  2  8  1  6  0  0  0
  2 24  1  0  0  0  0
  2  3  1  0  0  0  0
  2  1  1  0  0  0  0
  3  4  1  0  0  0  0
  4  9  1  0  0  0  0
  4  5  2  0  0  0  0
  5 10  1  0  0  0  0
  6 31  1  0  0  0  0
  6  5  1  0  0  0  0
  7  1  1  0  0  0  0
 11  3  2  0  0  0  0
 13 14  2  0  0  0  0
 13 18  1  0  0  0  0
 14 15  1  0  0  0  0
 15 27  1  0  0  0  0
 15 16  2  0  0  0  0
 16 21  1  0  0  0  0
 17 16  1  0  0  0  0
 17 22  1  0  0  0  0
 18 17  2  0  0  0  0
 19 13  1  0  0  0  0
 20 14  1  0  0  0  0
 23 25  1  6  0  0  0
 23 18  1  0  0  0  0
 23 24  1  0  0  0  0
 26 12  2  0  0  0  0
 27 28  1  0  0  0  0
 27 30  1  0  0  0  0
 29 27  1  0  0  0  0
 31 32  1  0  0  0  0
 32 33  1  0  0  0  0
 32 35  1  0  0  0  0
 34 32  1  0  0  0  0
M  RAD  3  11   2  12   2  25   2
M  END
