Coordinates from ORCA-job p-CH3O-Ph-N2-X-OTs-B3LYPG-6-31G_dp-scan-d09-49-n400
 OpenBabel08281821253D

 35 36  0  0  1  0  0  0  0  0999 V2000
   -0.1250    0.9308   -2.7082 C   0  0  0  0  0  0  0  0  0  0  0  0
    0.8854    2.0086   -2.9372 C   0  0  1  0  0  0  0  0  0  0  0  0
    0.9869    2.9271   -1.7470 C   0  0  0  0  0  0  0  0  0  0  0  0
    0.4657    2.5777   -0.4493 C   0  0  0  0  0  0  0  0  0  0  0  0
   -0.3052    1.4758   -0.3144 C   0  0  0  0  0  0  0  0  0  0  0  0
   -0.6224    0.6612   -1.4771 C   0  0  0  0  0  0  0  0  0  0  0  0
   -0.3589    0.3201   -3.5707 H   0  0  0  0  0  0  0  0  0  0  0  0
    0.6563    2.5809   -3.8475 H   0  0  0  0  0  0  0  0  0  0  0  0
    0.6990    3.2173    0.3958 H   0  0  0  0  0  0  0  0  0  0  0  0
   -0.7176    1.1783    0.6423 H   0  0  0  0  0  0  0  0  0  0  0  0
    1.6488    4.0474   -1.8972 N   0  0  0  0  0  0  0  0  0  0  0  0
    2.2221    5.0263   -2.0394 N   0  0  0  0  0  0  0  0  0  0  0  0
    4.8822   -0.3742   -4.5848 C   0  0  0  0  0  0  0  0  0  0  0  0
    6.2378   -0.6022   -4.3557 C   0  0  0  0  0  0  0  0  0  0  0  0
    7.0851    0.4551   -3.9966 C   0  0  0  0  0  0  0  0  0  0  0  0
    6.5458    1.7418   -3.8702 C   0  0  0  0  0  0  0  0  0  0  0  0
    5.1874    1.9766   -4.0946 C   0  0  0  0  0  0  0  0  0  0  0  0
    4.3544    0.9052   -4.4450 C   0  0  0  0  0  0  0  0  0  0  0  0
    4.2066   -1.1744   -4.8719 H   0  0  0  0  0  0  0  0  0  0  0  0
    6.6428   -1.6047   -4.4579 H   0  0  0  0  0  0  0  0  0  0  0  0
    7.1911    2.5729   -3.5898 H   0  0  0  0  0  0  0  0  0  0  0  0
    5.2902    3.8544   -3.7209 H   0  0  0  0  0  0  0  0  0  0  0  0
    2.6002    1.1737   -4.7892 S   0  0  2  0  0  0  0  0  0  0  0  0
    2.2314    1.4188   -3.1542 O   0  0  0  0  0  0  0  0  0  0  0  0
    2.0715   -0.1486   -5.2481 O   0  0  0  0  0  0  0  0  0  0  0  0
    4.6219    3.2122   -3.9924 O   0  0  0  0  0  0  0  0  0  0  0  0
    8.5621    0.2257   -3.7812 C   0  0  0  0  0  0  0  0  0  0  0  0
    8.7642   -0.8058   -3.4798 H   0  0  0  0  0  0  0  0  0  0  0  0
    9.1280    0.4131   -4.7024 H   0  0  0  0  0  0  0  0  0  0  0  0
    8.9655    0.8906   -3.0112 H   0  0  0  0  0  0  0  0  0  0  0  0
   -1.4780   -0.3548   -1.1758 O   0  0  0  0  0  0  0  0  0  0  0  0
   -1.8385   -1.2448   -2.2228 C   0  0  0  0  0  0  0  0  0  0  0  0
   -2.4890   -1.9958   -1.7716 H   0  0  0  0  0  0  0  0  0  0  0  0
   -0.9556   -1.7320   -2.6534 H   0  0  0  0  0  0  0  0  0  0  0  0
   -2.3821   -0.7228   -3.0207 H   0  0  0  0  0  0  0  0  0  0  0  0
  1  6  1  0  0  0  0
  2  8  1  6  0  0  0
  2  1  1  0  0  0  0
  2  3  1  0  0  0  0
  3  4  2  0  0  0  0
  4  5  1  0  0  0  0
  4  9  1  0  0  0  0
  5 10  1  0  0  0  0
  6 31  1  0  0  0  0
  6  5  2  0  0  0  0
  7  1  1  0  0  0  0
 11  3  1  0  0  0  0
 12 11  1  0  0  0  0
 13 18  2  0  0  0  0
 13 14  1  0  0  0  0
 14 15  2  0  0  0  0
 15 16  1  0  0  0  0
 15 27  1  0  0  0  0
 16 21  1  0  0  0  0
 17 26  1  0  0  0  0
 17 16  2  0  0  0  0
 18 17  1  0  0  0  0
 19 13  1  0  0  0  0
 20 14  1  0  0  0  0
 23 25  1  1  0  0  0
 23 18  1  0  0  0  0
 23 24  1  0  0  0  0
 24  2  1  0  0  0  0
 26 22  1  0  0  0  0
 27 28  1  0  0  0  0
 27 30  1  0  0  0  0
 29 27  1  0  0  0  0
 32 33  1  0  0  0  0
 32 31  1  0  0  0  0
 34 32  1  0  0  0  0
 35 32  1  0  0  0  0
M  RAD  4   1   2  11   2  12   3  25   2
M  END
