Coordinates from ORCA-job p-CH3O-Ph-N2-X-OTs-B3LYPG-6-31G_dp-scan-d09-49-n400
 OpenBabel08281821253D

 35 36  0  0  1  0  0  0  0  0999 V2000
   -0.1773    0.9037   -2.7020 C   0  0  0  0  0  0  0  0  0  0  0  0
    0.9411    1.8638   -2.9501 C   0  0  1  0  0  0  0  0  0  0  0  0
    1.1572    2.7743   -1.7663 C   0  0  0  0  0  0  0  0  0  0  0  0
    0.5953    2.5077   -0.4665 C   0  0  0  0  0  0  0  0  0  0  0  0
   -0.2982    1.5044   -0.3177 C   0  0  0  0  0  0  0  0  0  0  0  0
   -0.7031    0.7112   -1.4681 C   0  0  0  0  0  0  0  0  0  0  0  0
   -0.4823    0.3118   -3.5555 H   0  0  0  0  0  0  0  0  0  0  0  0
    0.7638    2.4515   -3.8616 H   0  0  0  0  0  0  0  0  0  0  0  0
    0.9015    3.1263    0.3708 H   0  0  0  0  0  0  0  0  0  0  0  0
   -0.7433    1.2706    0.6419 H   0  0  0  0  0  0  0  0  0  0  0  0
    1.9710    3.7872   -1.9261 N   0  0  0  0  0  0  0  0  0  0  0  0
    2.6883    4.6620   -2.0920 N   0  0  0  0  0  0  0  0  0  0  0  0
    5.0098   -0.4307   -4.6508 C   0  0  0  0  0  0  0  0  0  0  0  0
    6.3782   -0.5460   -4.4113 C   0  0  0  0  0  0  0  0  0  0  0  0
    7.1242    0.5671   -4.0005 C   0  0  0  0  0  0  0  0  0  0  0  0
    6.4723    1.7962   -3.8327 C   0  0  0  0  0  0  0  0  0  0  0  0
    5.1016    1.9174   -4.0675 C   0  0  0  0  0  0  0  0  0  0  0  0
    4.3706    0.7909   -4.4697 C   0  0  0  0  0  0  0  0  0  0  0  0
    4.4104   -1.2772   -4.9728 H   0  0  0  0  0  0  0  0  0  0  0  0
    6.8718   -1.5043   -4.5446 H   0  0  0  0  0  0  0  0  0  0  0  0
    7.0380    2.6702   -3.5139 H   0  0  0  0  0  0  0  0  0  0  0  0
    5.0059    3.7737   -3.5713 H   0  0  0  0  0  0  0  0  0  0  0  0
    2.6022    0.9303   -4.8137 S   0  0  2  0  0  0  0  0  0  0  0  0
    2.2118    1.1339   -3.1774 O   0  0  0  0  0  0  0  0  0  0  0  0
    2.1726   -0.4212   -5.2866 O   0  0  0  0  0  0  0  0  0  0  0  0
    4.4230    3.0920   -3.9299 O   0  0  0  0  0  0  0  0  0  0  0  0
    8.6135    0.4610   -3.7744 C   0  0  0  0  0  0  0  0  0  0  0  0
    8.9039   -0.5588   -3.5077 H   0  0  0  0  0  0  0  0  0  0  0  0
    9.1689    0.7320   -4.6812 H   0  0  0  0  0  0  0  0  0  0  0  0
    8.9487    1.1307   -2.9765 H   0  0  0  0  0  0  0  0  0  0  0  0
   -1.6672   -0.1973   -1.1525 O   0  0  0  0  0  0  0  0  0  0  0  0
   -2.1302   -1.0541   -2.1864 C   0  0  0  0  0  0  0  0  0  0  0  0
   -2.8652   -1.7159   -1.7256 H   0  0  0  0  0  0  0  0  0  0  0  0
   -1.3107   -1.6494   -2.6074 H   0  0  0  0  0  0  0  0  0  0  0  0
   -2.6078   -0.4833   -2.9928 H   0  0  0  0  0  0  0  0  0  0  0  0
  1  6  1  0  0  0  0
  2  8  1  6  0  0  0
  2  1  1  0  0  0  0
  2  3  1  0  0  0  0
  3  4  2  0  0  0  0
  4  5  1  0  0  0  0
  4  9  1  0  0  0  0
  5 10  1  0  0  0  0
  6 31  1  0  0  0  0
  6  5  2  0  0  0  0
  7  1  1  0  0  0  0
 11  3  1  0  0  0  0
 12 11  1  0  0  0  0
 13 18  2  0  0  0  0
 13 14  1  0  0  0  0
 14 15  2  0  0  0  0
 15 16  1  0  0  0  0
 15 27  1  0  0  0  0
 16 21  1  0  0  0  0
 17 26  1  0  0  0  0
 17 16  2  0  0  0  0
 18 17  1  0  0  0  0
 19 13  1  0  0  0  0
 20 14  1  0  0  0  0
 23 25  1  1  0  0  0
 23 18  1  0  0  0  0
 23 24  1  0  0  0  0
 24  2  1  0  0  0  0
 26 22  1  0  0  0  0
 27 28  1  0  0  0  0
 27 30  1  0  0  0  0
 29 27  1  0  0  0  0
 32 33  1  0  0  0  0
 32 31  1  0  0  0  0
 34 32  1  0  0  0  0
 35 32  1  0  0  0  0
M  RAD  4   1   2  11   2  12   3  25   2
M  END
