Coordinates from ORCA-job p-CH3O-Ph-N2-X-OTs-B3LYPG-6-31G_dp-scan-d09-49-n400
 OpenBabel08281821253D

 35 36  0  0  1  0  0  0  0  0999 V2000
    0.0016    0.9724   -2.7273 C   0  0  0  0  0  0  0  0  0  0  0  0
    0.8054    2.2207   -2.9089 C   0  0  1  0  0  0  0  0  0  0  0  0
    0.7332    3.0938   -1.6848 C   0  0  0  0  0  0  0  0  0  0  0  0
    0.3398    2.5832   -0.3938 C   0  0  0  0  0  0  0  0  0  0  0  0
   -0.1959    1.3458   -0.3027 C   0  0  0  0  0  0  0  0  0  0  0  0
   -0.4004    0.5519   -1.5040 C   0  0  0  0  0  0  0  0  0  0  0  0
   -0.1339    0.3758   -3.6198 H   0  0  0  0  0  0  0  0  0  0  0  0
    0.4775    2.7787   -3.7975 H   0  0  0  0  0  0  0  0  0  0  0  0
    0.4696    3.2147    0.4792 H   0  0  0  0  0  0  0  0  0  0  0  0
   -0.5070    0.9242    0.6457 H   0  0  0  0  0  0  0  0  0  0  0  0
    1.0719    4.3544   -1.7970 N   0  0  0  0  0  0  0  0  0  0  0  0
    1.3490    5.4599   -1.8896 N   0  0  0  0  0  0  0  0  0  0  0  0
    4.6094   -0.2093   -4.3628 C   0  0  0  0  0  0  0  0  0  0  0  0
    5.9110   -0.6380   -4.1172 C   0  0  0  0  0  0  0  0  0  0  0  0
    6.9438    0.2943   -3.9403 C   0  0  0  0  0  0  0  0  0  0  0  0
    6.6418    1.6588   -4.0144 C   0  0  0  0  0  0  0  0  0  0  0  0
    5.3360    2.0964   -4.2556 C   0  0  0  0  0  0  0  0  0  0  0  0
    4.3156    1.1511   -4.4198 C   0  0  0  0  0  0  0  0  0  0  0  0
    3.7966   -0.9113   -4.5235 H   0  0  0  0  0  0  0  0  0  0  0  0
    6.1306   -1.7007   -4.0645 H   0  0  0  0  0  0  0  0  0  0  0  0
    7.4330    2.3953   -3.8807 H   0  0  0  0  0  0  0  0  0  0  0  0
    5.7984    3.9539   -4.2138 H   0  0  0  0  0  0  0  0  0  0  0  0
    2.6124    1.6508   -4.7778 S   0  0  2  0  0  0  0  0  0  0  0  0
    2.2375    1.8751   -3.1361 O   0  0  0  0  0  0  0  0  0  0  0  0
    1.9325    0.4132   -5.2790 O   0  0  0  0  0  0  0  0  0  0  0  0
    5.0082    3.4152   -4.3488 O   0  0  0  0  0  0  0  0  0  0  0  0
    8.3653   -0.1608   -3.7112 C   0  0  0  0  0  0  0  0  0  0  0  0
    8.3951   -1.1166   -3.1805 H   0  0  0  0  0  0  0  0  0  0  0  0
    8.8907   -0.3002   -4.6640 H   0  0  0  0  0  0  0  0  0  0  0  0
    8.9345    0.5704   -3.1290 H   0  0  0  0  0  0  0  0  0  0  0  0
   -1.0524   -0.6163   -1.2455 O   0  0  0  0  0  0  0  0  0  0  0  0
   -1.2944   -1.4891   -2.3396 C   0  0  0  0  0  0  0  0  0  0  0  0
   -1.7952   -2.3648   -1.9242 H   0  0  0  0  0  0  0  0  0  0  0  0
   -0.3579   -1.7935   -2.8220 H   0  0  0  0  0  0  0  0  0  0  0  0
   -1.9430   -1.0178   -3.0895 H   0  0  0  0  0  0  0  0  0  0  0  0
  1  6  1  0  0  0  0
  2  8  1  6  0  0  0
  2  1  1  0  0  0  0
  2  3  1  0  0  0  0
  3  4  2  0  0  0  0
  4  5  1  0  0  0  0
  4  9  1  0  0  0  0
  5 10  1  0  0  0  0
  6 31  1  0  0  0  0
  6  5  2  0  0  0  0
  7  1  1  0  0  0  0
 11  3  1  0  0  0  0
 12 11  1  0  0  0  0
 13 14  1  0  0  0  0
 14 20  1  0  0  0  0
 14 15  2  0  0  0  0
 15 27  1  0  0  0  0
 16 15  1  0  0  0  0
 16 21  1  0  0  0  0
 17 16  2  0  0  0  0
 18 13  2  0  0  0  0
 18 17  1  0  0  0  0
 19 13  1  0  0  0  0
 23 25  1  1  0  0  0
 23 18  1  0  0  0  0
 23 24  1  0  0  0  0
 24  2  1  0  0  0  0
 26 17  1  0  0  0  0
 26 22  1  0  0  0  0
 27 28  1  0  0  0  0
 27 30  1  0  0  0  0
 29 27  1  0  0  0  0
 32 33  1  0  0  0  0
 32 31  1  0  0  0  0
 34 32  1  0  0  0  0
 35 32  1  0  0  0  0
M  RAD  4   1   2  11   2  12   3  25   2
M  END
