Coordinates from ORCA-job p-CH3O-Ph-N2-X-OTs-B3LYPG-6-31G_dp-scan-d09-49-n400
 OpenBabel08281821253D

 35 36  0  0  1  0  0  0  0  0999 V2000
   -0.1570    0.9152   -2.7048 C   0  0  0  0  0  0  0  0  0  0  0  0
    0.9180    1.9260   -2.9437 C   0  0  1  0  0  0  0  0  0  0  0  0
    1.0847    2.8417   -1.7575 C   0  0  0  0  0  0  0  0  0  0  0  0
    0.5397    2.5382   -0.4583 C   0  0  0  0  0  0  0  0  0  0  0  0
   -0.3033    1.4913   -0.3158 C   0  0  0  0  0  0  0  0  0  0  0  0
   -0.6721    0.6892   -1.4721 C   0  0  0  0  0  0  0  0  0  0  0  0
   -0.4328    0.3152   -3.5624 H   0  0  0  0  0  0  0  0  0  0  0  0
    0.7202    2.5073   -3.8554 H   0  0  0  0  0  0  0  0  0  0  0  0
    0.8156    3.1661    0.3827 H   0  0  0  0  0  0  0  0  0  0  0  0
   -0.7352    1.2293    0.6425 H   0  0  0  0  0  0  0  0  0  0  0  0
    1.8352    3.9036   -1.9125 N   0  0  0  0  0  0  0  0  0  0  0  0
    2.4908    4.8280   -2.0642 N   0  0  0  0  0  0  0  0  0  0  0  0
    4.9601   -0.4118   -4.6220 C   0  0  0  0  0  0  0  0  0  0  0  0
    6.3249   -0.5722   -4.3890 C   0  0  0  0  0  0  0  0  0  0  0  0
    7.1127    0.5200   -4.0010 C   0  0  0  0  0  0  0  0  0  0  0  0
    6.5056    1.7737   -3.8492 C   0  0  0  0  0  0  0  0  0  0  0  0
    5.1383    1.9403   -4.0776 C   0  0  0  0  0  0  0  0  0  0  0  0
    4.3653    0.8344   -4.4572 C   0  0  0  0  0  0  0  0  0  0  0  0
    4.3291   -1.2409   -4.9285 H   0  0  0  0  0  0  0  0  0  0  0  0
    6.7832   -1.5495   -4.5101 H   0  0  0  0  0  0  0  0  0  0  0  0
    7.1041    2.6316   -3.5469 H   0  0  0  0  0  0  0  0  0  0  0  0
    5.1261    3.8098   -3.6380 H   0  0  0  0  0  0  0  0  0  0  0  0
    2.6011    1.0256   -4.7996 S   0  0  2  0  0  0  0  0  0  0  0  0
    2.2230    1.2548   -3.1644 O   0  0  0  0  0  0  0  0  0  0  0  0
    2.1295   -0.3167   -5.2602 O   0  0  0  0  0  0  0  0  0  0  0  0
    4.5047    3.1409   -3.9532 O   0  0  0  0  0  0  0  0  0  0  0  0
    8.5987    0.3647   -3.7816 C   0  0  0  0  0  0  0  0  0  0  0  0
    8.8550   -0.6620   -3.5068 H   0  0  0  0  0  0  0  0  0  0  0  0
    9.1585    0.6080   -4.6935 H   0  0  0  0  0  0  0  0  0  0  0  0
    8.9612    1.0295   -2.9914 H   0  0  0  0  0  0  0  0  0  0  0  0
   -1.5931   -0.2652   -1.1629 O   0  0  0  0  0  0  0  0  0  0  0  0
   -2.0173   -1.1342   -2.2034 C   0  0  0  0  0  0  0  0  0  0  0  0
   -2.7195   -1.8337   -1.7469 H   0  0  0  0  0  0  0  0  0  0  0  0
   -1.1719   -1.6868   -2.6310 H   0  0  0  0  0  0  0  0  0  0  0  0
   -2.5229   -0.5799   -3.0043 H   0  0  0  0  0  0  0  0  0  0  0  0
  1  6  1  0  0  0  0
  2  8  1  6  0  0  0
  2  1  1  0  0  0  0
  2  3  1  0  0  0  0
  3  4  2  0  0  0  0
  4  5  1  0  0  0  0
  4  9  1  0  0  0  0
  5 10  1  0  0  0  0
  6 31  1  0  0  0  0
  6  5  2  0  0  0  0
  7  1  1  0  0  0  0
 11  3  1  0  0  0  0
 12 11  1  0  0  0  0
 13 18  2  0  0  0  0
 13 14  1  0  0  0  0
 14 15  2  0  0  0  0
 15 16  1  0  0  0  0
 15 27  1  0  0  0  0
 16 21  1  0  0  0  0
 17 26  1  0  0  0  0
 17 16  2  0  0  0  0
 18 17  1  0  0  0  0
 19 13  1  0  0  0  0
 20 14  1  0  0  0  0
 23 25  1  1  0  0  0
 23 18  1  0  0  0  0
 23 24  1  0  0  0  0
 24  2  1  0  0  0  0
 26 22  1  0  0  0  0
 27 28  1  0  0  0  0
 27 30  1  0  0  0  0
 29 27  1  0  0  0  0
 32 33  1  0  0  0  0
 32 31  1  0  0  0  0
 34 32  1  0  0  0  0
 35 32  1  0  0  0  0
M  RAD  4   1   2  11   2  12   3  25   2
M  END
