Coordinates from ORCA-job p-CH3O-Ph-N2-X-OTs-B3LYPG-6-31G_dp-scan-d09-49-n400
 OpenBabel08281821253D

 35 36  0  0  1  0  0  0  0  0999 V2000
   -0.0843    0.9525   -2.7139 C   0  0  0  0  0  0  0  0  0  0  0  0
    0.8562    2.0962   -2.9219 C   0  0  1  0  0  0  0  0  0  0  0  0
    0.8899    3.0014   -1.7189 C   0  0  0  0  0  0  0  0  0  0  0  0
    0.4017    2.5916   -0.4256 C   0  0  0  0  0  0  0  0  0  0  0  0
   -0.2894    1.4360   -0.3091 C   0  0  0  0  0  0  0  0  0  0  0  0
   -0.5572    0.6259   -1.4871 C   0  0  0  0  0  0  0  0  0  0  0  0
   -0.2764    0.3437   -3.5879 H   0  0  0  0  0  0  0  0  0  0  0  0
    0.5953    2.6662   -3.8254 H   0  0  0  0  0  0  0  0  0  0  0  0
    0.5924    3.2310    0.4304 H   0  0  0  0  0  0  0  0  0  0  0  0
   -0.6751    1.0922    0.6432 H   0  0  0  0  0  0  0  0  0  0  0  0
    1.4466    4.1797   -1.8533 N   0  0  0  0  0  0  0  0  0  0  0  0
    1.9231    5.2116   -1.9764 N   0  0  0  0  0  0  0  0  0  0  0  0
    4.7902   -0.3328   -4.5074 C   0  0  0  0  0  0  0  0  0  0  0  0
    6.1323   -0.6295   -4.2798 C   0  0  0  0  0  0  0  0  0  0  0  0
    7.0455    0.3926   -3.9852 C   0  0  0  0  0  0  0  0  0  0  0  0
    6.5849    1.7136   -3.9221 C   0  0  0  0  0  0  0  0  0  0  0  0
    5.2395    2.0177   -4.1450 C   0  0  0  0  0  0  0  0  0  0  0  0
    4.3401    0.9817   -4.4299 C   0  0  0  0  0  0  0  0  0  0  0  0
    4.0654   -1.1044   -4.7492 H   0  0  0  0  0  0  0  0  0  0  0  0
    6.4758   -1.6585   -4.3333 H   0  0  0  0  0  0  0  0  0  0  0  0
    7.2818    2.5184   -3.6926 H   0  0  0  0  0  0  0  0  0  0  0  0
    5.4668    3.9021   -3.8867 H   0  0  0  0  0  0  0  0  0  0  0  0
    2.5987    1.3285   -4.7741 S   0  0  2  0  0  0  0  0  0  0  0  0
    2.2393    1.5937   -3.1390 O   0  0  0  0  0  0  0  0  0  0  0  0
    2.0120    0.0270   -5.2252 O   0  0  0  0  0  0  0  0  0  0  0  0
    4.7523    3.2893   -4.1033 O   0  0  0  0  0  0  0  0  0  0  0  0
    8.5090    0.0859   -3.7734 C   0  0  0  0  0  0  0  0  0  0  0  0
    8.6505   -0.9285   -3.3902 H   0  0  0  0  0  0  0  0  0  0  0  0
    9.0664    0.1592   -4.7155 H   0  0  0  0  0  0  0  0  0  0  0  0
    8.9695    0.7839   -3.0675 H   0  0  0  0  0  0  0  0  0  0  0  0
   -1.3423   -0.4508   -1.2047 O   0  0  0  0  0  0  0  0  0  0  0  0
   -1.6442   -1.3417   -2.2695 C   0  0  0  0  0  0  0  0  0  0  0  0
   -2.2423   -2.1435   -1.8335 H   0  0  0  0  0  0  0  0  0  0  0  0
   -0.7313   -1.7593   -2.7103 H   0  0  0  0  0  0  0  0  0  0  0  0
   -2.2225   -0.8411   -3.0568 H   0  0  0  0  0  0  0  0  0  0  0  0
  1  6  1  0  0  0  0
  2  8  1  6  0  0  0
  2  1  1  0  0  0  0
  2  3  1  0  0  0  0
  3  4  2  0  0  0  0
  4  5  1  0  0  0  0
  4  9  1  0  0  0  0
  5 10  1  0  0  0  0
  6 31  1  0  0  0  0
  6  5  2  0  0  0  0
  7  1  1  0  0  0  0
 11  3  1  0  0  0  0
 12 11  1  0  0  0  0
 13 18  2  0  0  0  0
 13 14  1  0  0  0  0
 14 15  2  0  0  0  0
 15 16  1  0  0  0  0
 15 27  1  0  0  0  0
 16 21  1  0  0  0  0
 17 26  1  0  0  0  0
 17 16  2  0  0  0  0
 18 17  1  0  0  0  0
 19 13  1  0  0  0  0
 20 14  1  0  0  0  0
 23 25  1  1  0  0  0
 23 18  1  0  0  0  0
 23 24  1  0  0  0  0
 24  2  1  0  0  0  0
 26 22  1  0  0  0  0
 27 28  1  0  0  0  0
 27 30  1  0  0  0  0
 29 27  1  0  0  0  0
 32 33  1  0  0  0  0
 32 31  1  0  0  0  0
 34 32  1  0  0  0  0
 35 32  1  0  0  0  0
M  RAD  4   1   2  11   2  12   3  25   2
M  END
