Coordinates from ORCA-job p-CH3O-Ph-N2-X-OTs-B3LYPG-6-31G_dp-scan-d09-49-n400
 OpenBabel08281821253D

 35 36  0  0  1  0  0  0  0  0999 V2000
   -0.0058    0.4066   -3.2698 C   0  0  0  0  0  0  0  0  0  0  0  0
    0.8715    1.5027   -3.7836 C   0  0  1  0  0  0  0  0  0  0  0  0
    0.8557    2.7345   -2.8696 C   0  0  0  0  0  0  0  0  0  0  0  0
    0.3289    2.6651   -1.5321 C   0  0  0  0  0  0  0  0  0  0  0  0
   -0.3380    1.5527   -1.1358 C   0  0  0  0  0  0  0  0  0  0  0  0
   -0.5406    0.4161   -2.0286 C   0  0  0  0  0  0  0  0  0  0  0  0
   -0.1436   -0.4525   -3.9161 H   0  0  0  0  0  0  0  0  0  0  0  0
    0.5474    1.8039   -4.7898 H   0  0  0  0  0  0  0  0  0  0  0  0
    0.4777    3.5083   -0.8672 H   0  0  0  0  0  0  0  0  0  0  0  0
   -0.7259    1.5116   -0.1254 H   0  0  0  0  0  0  0  0  0  0  0  0
    1.4060    3.8071   -3.3122 N   0  0  0  0  0  0  0  0  0  0  0  0
    1.9145    4.7258   -3.8526 N   0  0  0  0  0  0  0  0  0  0  0  0
    5.3300   -0.1404   -5.0325 C   0  0  0  0  0  0  0  0  0  0  0  0
    6.5826   -0.4446   -4.5026 C   0  0  0  0  0  0  0  0  0  0  0  0
    7.1753    0.3762   -3.5321 C   0  0  0  0  0  0  0  0  0  0  0  0
    6.4840    1.5211   -3.1054 C   0  0  0  0  0  0  0  0  0  0  0  0
    5.2296    1.8440   -3.6175 C   0  0  0  0  0  0  0  0  0  0  0  0
    4.6653    0.9946   -4.5737 C   0  0  0  0  0  0  0  0  0  0  0  0
    4.8640   -0.7597   -5.7926 H   0  0  0  0  0  0  0  0  0  0  0  0
    7.1111   -1.3285   -4.8504 H   0  0  0  0  0  0  0  0  0  0  0  0
    6.9388    2.1725   -2.3630 H   0  0  0  0  0  0  0  0  0  0  0  0
    4.6914    2.7371   -3.2992 H   0  0  0  0  0  0  0  0  0  0  0  0
    3.0758    1.4216   -5.3051 S   0  0  2  0  0  0  0  0  0  0  0  0
    2.2240    1.0078   -3.8377 O   0  0  0  0  0  0  0  0  0  0  0  0
    2.7710    0.3810   -6.3301 O   0  0  0  0  0  0  0  0  0  0  0  0
    3.6915    4.5714   -3.6775 O   0  0  0  0  0  0  0  0  0  0  0  0
    8.5228    0.0300   -2.9448 C   0  0  0  0  0  0  0  0  0  0  0  0
    9.0799   -0.6517   -3.5940 H   0  0  0  0  0  0  0  0  0  0  0  0
    9.1319    0.9255   -2.7866 H   0  0  0  0  0  0  0  0  0  0  0  0
    8.4122   -0.4618   -1.9702 H   0  0  0  0  0  0  0  0  0  0  0  0
   -1.2617   -0.6748   -1.6401 O   0  0  0  0  0  0  0  0  0  0  0  0
   -1.9782   -0.6524   -0.4123 C   0  0  0  0  0  0  0  0  0  0  0  0
   -2.5275   -1.5940   -0.3766 H   0  0  0  0  0  0  0  0  0  0  0  0
   -2.6932    0.1787   -0.3683 H   0  0  0  0  0  0  0  0  0  0  0  0
   -1.3081   -0.6040    0.4549 H   0  0  0  0  0  0  0  0  0  0  0  0
  1  6  2  0  0  0  0
  2  8  1  6  0  0  0
  2  1  1  0  0  0  0
  2  3  1  0  0  0  0
  3  4  2  0  0  0  0
  4  5  1  0  0  0  0
  4  9  1  0  0  0  0
  5 10  1  0  0  0  0
  6 31  1  0  0  0  0
  6  5  1  0  0  0  0
  7  1  1  0  0  0  0
 11  3  1  0  0  0  0
 12 26  1  0  0  0  0
 12 11  1  0  0  0  0
 13 18  2  0  0  0  0
 13 14  1  0  0  0  0
 14 15  2  0  0  0  0
 15 16  1  0  0  0  0
 15 27  1  0  0  0  0
 16 21  1  0  0  0  0
 17 22  1  0  0  0  0
 17 16  2  0  0  0  0
 18 17  1  0  0  0  0
 19 13  1  0  0  0  0
 20 14  1  0  0  0  0
 23 25  1  6  0  0  0
 23 18  1  0  0  0  0
 23 24  1  0  0  0  0
 24  2  1  0  0  0  0
 27 29  1  0  0  0  0
 27 30  1  0  0  0  0
 28 27  1  0  0  0  0
 31 32  1  0  0  0  0
 32 33  1  0  0  0  0
 32 34  1  0  0  0  0
 32 35  1  0  0  0  0
M  RAD  5   5   2  11   2  12   2  25   2  26   2
M  END
