Coordinates from ORCA-job p-CH3O-Ph-N2-X-OTs-B3LYPG-6-31G_dp-scan-d09-49-n400
 OpenBabel08281821253D

 35 35  0  0  1  0  0  0  0  0999 V2000
   -0.0102    0.4054   -3.2788 C   0  0  0  0  0  0  0  0  0  0  0  0
    0.8599    1.5013   -3.8045 C   0  0  1  0  0  0  0  0  0  0  0  0
    0.8350    2.7378   -2.8991 C   0  0  0  0  0  0  0  0  0  0  0  0
    0.3307    2.6720   -1.5547 C   0  0  0  0  0  0  0  0  0  0  0  0
   -0.3217    1.5556   -1.1436 C   0  0  0  0  0  0  0  0  0  0  0  0
   -0.5290    0.4159   -2.0303 C   0  0  0  0  0  0  0  0  0  0  0  0
   -0.1531   -0.4561   -3.9206 H   0  0  0  0  0  0  0  0  0  0  0  0
    0.5355    1.7894   -4.8142 H   0  0  0  0  0  0  0  0  0  0  0  0
    0.4818    3.5195   -0.8957 H   0  0  0  0  0  0  0  0  0  0  0  0
   -0.6949    1.5155   -0.1276 H   0  0  0  0  0  0  0  0  0  0  0  0
    1.3710    3.8147   -3.3561 N   0  0  0  0  0  0  0  0  0  0  0  0
    1.8628    4.7446   -3.8773 N   0  0  0  0  0  0  0  0  0  0  0  0
    5.3284   -0.1188   -5.0405 C   0  0  0  0  0  0  0  0  0  0  0  0
    6.5763   -0.4353   -4.5066 C   0  0  0  0  0  0  0  0  0  0  0  0
    7.1639    0.3674   -3.5180 C   0  0  0  0  0  0  0  0  0  0  0  0
    6.4722    1.5067   -3.0771 C   0  0  0  0  0  0  0  0  0  0  0  0
    5.2224    1.8413   -3.5930 C   0  0  0  0  0  0  0  0  0  0  0  0
    4.6630    1.0100   -4.5679 C   0  0  0  0  0  0  0  0  0  0  0  0
    4.8667   -0.7237   -5.8146 H   0  0  0  0  0  0  0  0  0  0  0  0
    7.1051   -1.3146   -4.8652 H   0  0  0  0  0  0  0  0  0  0  0  0
    6.9230    2.1440   -2.3202 H   0  0  0  0  0  0  0  0  0  0  0  0
    4.6827    2.7296   -3.2643 H   0  0  0  0  0  0  0  0  0  0  0  0
    3.0800    1.4519   -5.3058 S   0  0  2  0  0  0  0  0  0  0  0  0
    2.2155    1.0122   -3.8522 O   0  0  0  0  0  0  0  0  0  0  0  0
    2.7833    0.4277   -6.3498 O   0  0  0  0  0  0  0  0  0  0  0  0
    3.7060    4.5455   -3.6996 O   0  0  0  0  0  0  0  0  0  0  0  0
    8.5061    0.0076   -2.9265 C   0  0  0  0  0  0  0  0  0  0  0  0
    9.0661   -0.6646   -3.5831 H   0  0  0  0  0  0  0  0  0  0  0  0
    9.1164    0.8985   -2.7489 H   0  0  0  0  0  0  0  0  0  0  0  0
    8.3868   -0.5003   -1.9613 H   0  0  0  0  0  0  0  0  0  0  0  0
   -1.2408   -0.6772   -1.6310 O   0  0  0  0  0  0  0  0  0  0  0  0
   -1.9380   -0.6570   -0.3921 C   0  0  0  0  0  0  0  0  0  0  0  0
   -2.4826   -1.6009   -0.3472 H   0  0  0  0  0  0  0  0  0  0  0  0
   -2.6557    0.1711   -0.3374 H   0  0  0  0  0  0  0  0  0  0  0  0
   -1.2543   -0.6051    0.4643 H   0  0  0  0  0  0  0  0  0  0  0  0
  1  6  2  0  0  0  0
  2  8  1  6  0  0  0
  2  1  1  0  0  0  0
  2  3  1  0  0  0  0
  3  4  2  0  0  0  0
  4  5  1  0  0  0  0
  4  9  1  0  0  0  0
  5 10  1  0  0  0  0
  6 31  1  0  0  0  0
  6  5  1  0  0  0  0
  7  1  1  0  0  0  0
 11  3  1  0  0  0  0
 12 11  1  0  0  0  0
 13 18  2  0  0  0  0
 13 14  1  0  0  0  0
 14 15  2  0  0  0  0
 15 16  1  0  0  0  0
 15 27  1  0  0  0  0
 16 21  1  0  0  0  0
 17 22  1  0  0  0  0
 17 16  2  0  0  0  0
 18 17  1  0  0  0  0
 19 13  1  0  0  0  0
 20 14  1  0  0  0  0
 23 25  1  6  0  0  0
 23 18  1  0  0  0  0
 23 24  1  0  0  0  0
 24  2  1  0  0  0  0
 27 29  1  0  0  0  0
 27 30  1  0  0  0  0
 28 27  1  0  0  0  0
 31 32  1  0  0  0  0
 32 33  1  0  0  0  0
 32 34  1  0  0  0  0
 32 35  1  0  0  0  0
M  RAD  5   5   2  11   2  12   3  25   2  26   3
M  END
