Coordinates from ORCA-job p-CH3O-Ph-N2-X-OTs-B3LYPG-6-31G_dp-scan-d09-49-n400
 OpenBabel08281821253D

 35 36  0  0  1  0  0  0  0  0999 V2000
   -0.0003    0.9720   -2.7269 C   0  0  0  0  0  0  0  0  0  0  0  0
    0.8064    2.2182   -2.9095 C   0  0  1  0  0  0  0  0  0  0  0  0
    0.7362    3.0926   -1.6862 C   0  0  0  0  0  0  0  0  0  0  0  0
    0.3405    2.5845   -0.3950 C   0  0  0  0  0  0  0  0  0  0  0  0
   -0.1984    1.3486   -0.3028 C   0  0  0  0  0  0  0  0  0  0  0  0
   -0.4040    0.5538   -1.5033 C   0  0  0  0  0  0  0  0  0  0  0  0
   -0.1367    0.3746   -3.6187 H   0  0  0  0  0  0  0  0  0  0  0  0
    0.4799    2.7762   -3.7987 H   0  0  0  0  0  0  0  0  0  0  0  0
    0.4714    3.2167    0.4774 H   0  0  0  0  0  0  0  0  0  0  0  0
   -0.5113    0.9289    0.6459 H   0  0  0  0  0  0  0  0  0  0  0  0
    1.0793    4.3520   -1.7994 N   0  0  0  0  0  0  0  0  0  0  0  0
    1.3604    5.4564   -1.8931 N   0  0  0  0  0  0  0  0  0  0  0  0
    4.6139   -0.2129   -4.3679 C   0  0  0  0  0  0  0  0  0  0  0  0
    5.9165   -0.6386   -4.1229 C   0  0  0  0  0  0  0  0  0  0  0  0
    6.9465    0.2960   -3.9417 C   0  0  0  0  0  0  0  0  0  0  0  0
    6.6406    1.6598   -4.0110 C   0  0  0  0  0  0  0  0  0  0  0  0
    5.3337    2.0945   -4.2516 C   0  0  0  0  0  0  0  0  0  0  0  0
    4.3162    1.1468   -4.4200 C   0  0  0  0  0  0  0  0  0  0  0  0
    3.8032   -0.9166   -4.5316 H   0  0  0  0  0  0  0  0  0  0  0  0
    6.1392   -1.7009   -4.0740 H   0  0  0  0  0  0  0  0  0  0  0  0
    7.4295    2.3982   -3.8738 H   0  0  0  0  0  0  0  0  0  0  0  0
    5.7903    3.9532   -4.2023 H   0  0  0  0  0  0  0  0  0  0  0  0
    2.6120    1.6432   -4.7777 S   0  0  2  0  0  0  0  0  0  0  0  0
    2.2377    1.8693   -3.1363 O   0  0  0  0  0  0  0  0  0  0  0  0
    1.9340    0.4040   -5.2773 O   0  0  0  0  0  0  0  0  0  0  0  0
    5.0019    3.4127   -4.3400 O   0  0  0  0  0  0  0  0  0  0  0  0
    8.3692   -0.1558   -3.7133 C   0  0  0  0  0  0  0  0  0  0  0  0
    8.4013   -1.1143   -3.1875 H   0  0  0  0  0  0  0  0  0  0  0  0
    8.8962   -0.2886   -4.6662 H   0  0  0  0  0  0  0  0  0  0  0  0
    8.9353    0.5741   -3.1266 H   0  0  0  0  0  0  0  0  0  0  0  0
   -1.0588   -0.6126   -1.2438 O   0  0  0  0  0  0  0  0  0  0  0  0
   -1.3019   -1.4863   -2.3371 C   0  0  0  0  0  0  0  0  0  0  0  0
   -1.8050   -2.3604   -1.9210 H   0  0  0  0  0  0  0  0  0  0  0  0
   -0.3657   -1.7933   -2.8184 H   0  0  0  0  0  0  0  0  0  0  0  0
   -1.9488   -1.0145   -3.0881 H   0  0  0  0  0  0  0  0  0  0  0  0
  1  6  1  0  0  0  0
  2  8  1  6  0  0  0
  2  1  1  0  0  0  0
  2  3  1  0  0  0  0
  3  4  2  0  0  0  0
  4  5  1  0  0  0  0
  4  9  1  0  0  0  0
  5 10  1  0  0  0  0
  6 31  1  0  0  0  0
  6  5  2  0  0  0  0
  7  1  1  0  0  0  0
 11  3  1  0  0  0  0
 12 11  1  0  0  0  0
 13 14  1  0  0  0  0
 14 20  1  0  0  0  0
 14 15  2  0  0  0  0
 15 27  1  0  0  0  0
 16 15  1  0  0  0  0
 16 21  1  0  0  0  0
 17 16  2  0  0  0  0
 18 13  2  0  0  0  0
 18 17  1  0  0  0  0
 19 13  1  0  0  0  0
 23 25  1  1  0  0  0
 23 18  1  0  0  0  0
 23 24  1  0  0  0  0
 24  2  1  0  0  0  0
 26 17  1  0  0  0  0
 26 22  1  0  0  0  0
 27 28  1  0  0  0  0
 27 30  1  0  0  0  0
 29 27  1  0  0  0  0
 32 33  1  0  0  0  0
 32 31  1  0  0  0  0
 34 32  1  0  0  0  0
 35 32  1  0  0  0  0
M  RAD  4   1   2  11   2  12   3  25   2
M  END
