Coordinates from ORCA-job p-CH3O-Ph-N2-X-OTs-B3LYPG-6-31G_dp-scan-d09-49-n400
 OpenBabel08281821253D

 35 36  0  0  1  0  0  0  0  0999 V2000
   -0.1471    0.9198   -2.7056 C   0  0  0  0  0  0  0  0  0  0  0  0
    0.9075    1.9527   -2.9413 C   0  0  1  0  0  0  0  0  0  0  0  0
    1.0529    2.8701   -1.7539 C   0  0  0  0  0  0  0  0  0  0  0  0
    0.5146    2.5521   -0.4554 C   0  0  0  0  0  0  0  0  0  0  0  0
   -0.3058    1.4871   -0.3153 C   0  0  0  0  0  0  0  0  0  0  0  0
   -0.6576    0.6802   -1.4736 C   0  0  0  0  0  0  0  0  0  0  0  0
   -0.4092    0.3158   -3.5647 H   0  0  0  0  0  0  0  0  0  0  0  0
    0.6998    2.5311   -3.8527 H   0  0  0  0  0  0  0  0  0  0  0  0
    0.7765    3.1843    0.3868 H   0  0  0  0  0  0  0  0  0  0  0  0
   -0.7323    1.2139    0.6423 H   0  0  0  0  0  0  0  0  0  0  0  0
    1.7762    3.9510   -1.9073 N   0  0  0  0  0  0  0  0  0  0  0  0
    2.4062    4.8935   -2.0555 N   0  0  0  0  0  0  0  0  0  0  0  0
    4.9363   -0.4008   -4.6106 C   0  0  0  0  0  0  0  0  0  0  0  0
    6.2988   -0.5824   -4.3795 C   0  0  0  0  0  0  0  0  0  0  0  0
    7.1055    0.4992   -4.0004 C   0  0  0  0  0  0  0  0  0  0  0  0
    6.5194    1.7635   -3.8559 C   0  0  0  0  0  0  0  0  0  0  0  0
    5.1545    1.9516   -4.0823 C   0  0  0  0  0  0  0  0  0  0  0  0
    4.3623    0.8562   -4.4529 C   0  0  0  0  0  0  0  0  0  0  0  0
    4.2912   -1.2210   -4.9111 H   0  0  0  0  0  0  0  0  0  0  0  0
    6.7404   -1.5679   -4.4953 H   0  0  0  0  0  0  0  0  0  0  0  0
    7.1328    2.6132   -3.5602 H   0  0  0  0  0  0  0  0  0  0  0  0
    5.1791    3.8247   -3.6641 H   0  0  0  0  0  0  0  0  0  0  0  0
    2.6008    1.0717   -4.7953 S   0  0  2  0  0  0  0  0  0  0  0  0
    2.2266    1.3079   -3.1602 O   0  0  0  0  0  0  0  0  0  0  0  0
    2.1107   -0.2650   -5.2537 O   0  0  0  0  0  0  0  0  0  0  0  0
    4.5421    3.1635   -3.9639 O   0  0  0  0  0  0  0  0  0  0  0  0
    8.5891    0.3207   -3.7829 C   0  0  0  0  0  0  0  0  0  0  0  0
    8.8289   -0.7086   -3.5025 H   0  0  0  0  0  0  0  0  0  0  0  0
    9.1512    0.5492   -4.6973 H   0  0  0  0  0  0  0  0  0  0  0  0
    8.9641    0.9839   -2.9973 H   0  0  0  0  0  0  0  0  0  0  0  0
   -1.5583   -0.2942   -1.1670 O   0  0  0  0  0  0  0  0  0  0  0  0
   -1.9626   -1.1703   -2.2095 C   0  0  0  0  0  0  0  0  0  0  0  0
   -2.6490   -1.8863   -1.7547 H   0  0  0  0  0  0  0  0  0  0  0  0
   -1.1050   -1.7028   -2.6380 H   0  0  0  0  0  0  0  0  0  0  0  0
   -2.4803   -0.6259   -3.0095 H   0  0  0  0  0  0  0  0  0  0  0  0
  1  6  1  0  0  0  0
  2  8  1  6  0  0  0
  2  1  1  0  0  0  0
  2  3  1  0  0  0  0
  3  4  2  0  0  0  0
  4  5  1  0  0  0  0
  4  9  1  0  0  0  0
  5 10  1  0  0  0  0
  6 31  1  0  0  0  0
  6  5  2  0  0  0  0
  7  1  1  0  0  0  0
 11  3  1  0  0  0  0
 12 11  1  0  0  0  0
 13 18  2  0  0  0  0
 13 14  1  0  0  0  0
 14 15  2  0  0  0  0
 15 16  1  0  0  0  0
 15 27  1  0  0  0  0
 16 21  1  0  0  0  0
 17 26  1  0  0  0  0
 17 16  2  0  0  0  0
 18 17  1  0  0  0  0
 19 13  1  0  0  0  0
 20 14  1  0  0  0  0
 23 25  1  1  0  0  0
 23 18  1  0  0  0  0
 23 24  1  0  0  0  0
 24  2  1  0  0  0  0
 26 22  1  0  0  0  0
 27 28  1  0  0  0  0
 27 30  1  0  0  0  0
 29 27  1  0  0  0  0
 32 33  1  0  0  0  0
 32 31  1  0  0  0  0
 34 32  1  0  0  0  0
 35 32  1  0  0  0  0
M  RAD  4   1   2  11   2  12   3  25   2
M  END
