Coordinates from ORCA-job p-CH3O-Ph-N2-X-OTs-B3LYPG-6-31G_dp-scan-d09-49-n400
 OpenBabel08281821253D

 35 36  0  0  1  0  0  0  0  0999 V2000
    0.0269    0.4592   -3.2356 C   0  0  0  0  0  0  0  0  0  0  0  0
    0.9258    1.5720   -3.6718 C   0  0  1  0  0  0  0  0  0  0  0  0
    0.8969    2.7723   -2.7149 C   0  0  0  0  0  0  0  0  0  0  0  0
    0.2735    2.6679   -1.4199 C   0  0  0  0  0  0  0  0  0  0  0  0
   -0.4331    1.5563   -1.1011 C   0  0  0  0  0  0  0  0  0  0  0  0
   -0.5855    0.4412   -2.0318 C   0  0  0  0  0  0  0  0  0  0  0  0
   -0.0651   -0.3852   -3.9093 H   0  0  0  0  0  0  0  0  0  0  0  0
    0.6283    1.9298   -4.6693 H   0  0  0  0  0  0  0  0  0  0  0  0
    0.3845    3.4916   -0.7237 H   0  0  0  0  0  0  0  0  0  0  0  0
   -0.8917    1.4957   -0.1214 H   0  0  0  0  0  0  0  0  0  0  0  0
    1.4851    3.8512   -3.0820 N   0  0  0  0  0  0  0  0  0  0  0  0
    2.0174    4.6359   -3.8292 N   0  0  0  0  0  0  0  0  0  0  0  0
    5.3383   -0.2352   -4.9778 C   0  0  0  0  0  0  0  0  0  0  0  0
    6.6171   -0.4891   -4.4845 C   0  0  0  0  0  0  0  0  0  0  0  0
    7.2377    0.3989   -3.5946 C   0  0  0  0  0  0  0  0  0  0  0  0
    6.5463    1.5590   -3.2102 C   0  0  0  0  0  0  0  0  0  0  0  0
    5.2668    1.8325   -3.6870 C   0  0  0  0  0  0  0  0  0  0  0  0
    4.6756    0.9180   -4.5640 C   0  0  0  0  0  0  0  0  0  0  0  0
    4.8491   -0.9102   -5.6733 H   0  0  0  0  0  0  0  0  0  0  0  0
    7.1435   -1.3868   -4.7986 H   0  0  0  0  0  0  0  0  0  0  0  0
    7.0205    2.2614   -2.5288 H   0  0  0  0  0  0  0  0  0  0  0  0
    4.7306    2.7347   -3.3941 H   0  0  0  0  0  0  0  0  0  0  0  0
    3.0548    1.2780   -5.2634 S   0  0  2  0  0  0  0  0  0  0  0  0
    2.2803    1.0829   -3.7187 O   0  0  0  0  0  0  0  0  0  0  0  0
    2.6888    0.1223   -6.1334 O   0  0  0  0  0  0  0  0  0  0  0  0
    3.6555    4.5556   -3.7530 O   0  0  0  0  0  0  0  0  0  0  0  0
    8.6148    0.1100   -3.0464 C   0  0  0  0  0  0  0  0  0  0  0  0
    9.1487   -0.6163   -3.6657 H   0  0  0  0  0  0  0  0  0  0  0  0
    9.2204    1.0199   -2.9878 H   0  0  0  0  0  0  0  0  0  0  0  0
    8.5553   -0.3038   -2.0319 H   0  0  0  0  0  0  0  0  0  0  0  0
   -1.3309   -0.6564   -1.7129 O   0  0  0  0  0  0  0  0  0  0  0  0
   -2.1167   -0.6618   -0.5286 C   0  0  0  0  0  0  0  0  0  0  0  0
   -2.6692   -1.6021   -0.5481 H   0  0  0  0  0  0  0  0  0  0  0  0
   -2.8318    0.1701   -0.5048 H   0  0  0  0  0  0  0  0  0  0  0  0
   -1.4980   -0.6375    0.3772 H   0  0  0  0  0  0  0  0  0  0  0  0
  1  6  2  0  0  0  0
  2  8  1  6  0  0  0
  2  1  1  0  0  0  0
  2  3  1  0  0  0  0
  3  4  2  0  0  0  0
  4  5  1  0  0  0  0
  4  9  1  0  0  0  0
  5 10  1  0  0  0  0
  6 31  1  0  0  0  0
  6  5  1  0  0  0  0
  7  1  1  0  0  0  0
 11  3  1  0  0  0  0
 12 26  1  0  0  0  0
 12 11  1  0  0  0  0
 13 18  2  0  0  0  0
 13 14  1  0  0  0  0
 14 15  2  0  0  0  0
 15 16  1  0  0  0  0
 15 27  1  0  0  0  0
 16 21  1  0  0  0  0
 17 22  1  0  0  0  0
 17 16  2  0  0  0  0
 18 17  1  0  0  0  0
 19 13  1  0  0  0  0
 20 14  1  0  0  0  0
 23 25  1  6  0  0  0
 23 18  1  0  0  0  0
 23 24  1  0  0  0  0
 24  2  1  0  0  0  0
 27 29  1  0  0  0  0
 27 30  1  0  0  0  0
 28 27  1  0  0  0  0
 31 32  1  0  0  0  0
 32 34  1  0  0  0  0
 32 35  1  0  0  0  0
 33 32  1  0  0  0  0
M  RAD  5   5   2  11   2  12   2  25   2  26   2
M  END
