Coordinates from ORCA-job p-CH3O-Ph-N2-X-OTs-B3LYPG-6-31G_dp-scan-d09-49-n400
 OpenBabel08281821253D

 35 36  0  0  1  0  0  0  0  0999 V2000
   -0.0272    0.9665   -2.7217 C   0  0  0  0  0  0  0  0  0  0  0  0
    0.8208    2.1833   -2.9141 C   0  0  1  0  0  0  0  0  0  0  0  0
    0.7797    3.0713   -1.6992 C   0  0  0  0  0  0  0  0  0  0  0  0
    0.3528    2.5944   -0.4063 C   0  0  0  0  0  0  0  0  0  0  0  0
   -0.2329    1.3807   -0.3043 C   0  0  0  0  0  0  0  0  0  0  0  0
   -0.4548    0.5778   -1.4964 C   0  0  0  0  0  0  0  0  0  0  0  0
   -0.1784    0.3624   -3.6067 H   0  0  0  0  0  0  0  0  0  0  0  0
    0.5147    2.7435   -3.8094 H   0  0  0  0  0  0  0  0  0  0  0  0
    0.5001    3.2317    0.4596 H   0  0  0  0  0  0  0  0  0  0  0  0
   -0.5703    0.9852    0.6463 H   0  0  0  0  0  0  0  0  0  0  0  0
    1.1879    4.3102   -1.8218 N   0  0  0  0  0  0  0  0  0  0  0  0
    1.5285    5.3966   -1.9268 N   0  0  0  0  0  0  0  0  0  0  0  0
    4.6727   -0.2572   -4.4207 C   0  0  0  0  0  0  0  0  0  0  0  0
    5.9898   -0.6424   -4.1836 C   0  0  0  0  0  0  0  0  0  0  0  0
    6.9823    0.3224   -3.9591 C   0  0  0  0  0  0  0  0  0  0  0  0
    6.6250    1.6758   -3.9764 C   0  0  0  0  0  0  0  0  0  0  0  0
    5.3040    2.0693   -4.2089 C   0  0  0  0  0  0  0  0  0  0  0  0
    4.3244    1.0909   -4.4219 C   0  0  0  0  0  0  0  0  0  0  0  0
    3.8894   -0.9840   -4.6147 H   0  0  0  0  0  0  0  0  0  0  0  0
    6.2525   -1.6965   -4.1749 H   0  0  0  0  0  0  0  0  0  0  0  0
    7.3841    2.4376   -3.8040 H   0  0  0  0  0  0  0  0  0  0  0  0
    5.6853    3.9414   -4.0804 H   0  0  0  0  0  0  0  0  0  0  0  0
    2.6071    1.5408   -4.7752 S   0  0  2  0  0  0  0  0  0  0  0  0
    2.2398    1.7876   -3.1364 O   0  0  0  0  0  0  0  0  0  0  0  0
    1.9556    0.2794   -5.2534 O   0  0  0  0  0  0  0  0  0  0  0  0
    4.9203    3.3757   -4.2465 O   0  0  0  0  0  0  0  0  0  0  0  0
    8.4201   -0.0835   -3.7389 C   0  0  0  0  0  0  0  0  0  0  0  0
    8.4863   -1.0694   -3.2700 H   0  0  0  0  0  0  0  0  0  0  0  0
    8.9628   -0.1370   -4.6906 H   0  0  0  0  0  0  0  0  0  0  0  0
    8.9487    0.6326   -3.1022 H   0  0  0  0  0  0  0  0  0  0  0  0
   -1.1501   -0.5627   -1.2281 O   0  0  0  0  0  0  0  0  0  0  0  0
   -1.4084   -1.4446   -2.3114 C   0  0  0  0  0  0  0  0  0  0  0  0
   -1.9425   -2.2966   -1.8882 H   0  0  0  0  0  0  0  0  0  0  0  0
   -0.4770   -1.7870   -2.7777 H   0  0  0  0  0  0  0  0  0  0  0  0
   -2.0327   -0.9644   -3.0761 H   0  0  0  0  0  0  0  0  0  0  0  0
  1  6  1  0  0  0  0
  2  8  1  6  0  0  0
  2  1  1  0  0  0  0
  2  3  1  0  0  0  0
  3  4  2  0  0  0  0
  4  5  1  0  0  0  0
  4  9  1  0  0  0  0
  5 10  1  0  0  0  0
  6 31  1  0  0  0  0
  6  5  2  0  0  0  0
  7  1  1  0  0  0  0
 11  3  1  0  0  0  0
 12 11  1  0  0  0  0
 13 14  1  0  0  0  0
 14 20  1  0  0  0  0
 14 15  2  0  0  0  0
 15 27  1  0  0  0  0
 16 15  1  0  0  0  0
 16 21  1  0  0  0  0
 17 16  2  0  0  0  0
 18 13  2  0  0  0  0
 18 17  1  0  0  0  0
 19 13  1  0  0  0  0
 23 25  1  1  0  0  0
 23 18  1  0  0  0  0
 23 24  1  0  0  0  0
 24  2  1  0  0  0  0
 26 17  1  0  0  0  0
 26 22  1  0  0  0  0
 27 28  1  0  0  0  0
 27 30  1  0  0  0  0
 29 27  1  0  0  0  0
 32 33  1  0  0  0  0
 32 31  1  0  0  0  0
 34 32  1  0  0  0  0
 35 32  1  0  0  0  0
M  RAD  4   1   2  11   2  12   3  25   2
M  END
