Coordinates from ORCA-job p-CH3O-Ph-N2-X-OTs-B3LYPG-6-31G_dp-scan-d09-49-n400
 OpenBabel08281821253D

 35 36  0  0  1  0  0  0  0  0999 V2000
   -0.1949    0.8382   -2.6577 C   0  0  0  0  0  0  0  0  0  0  0  0
    1.0044    1.7005   -2.8889 C   0  0  1  0  0  0  0  0  0  0  0  0
    1.3107    2.5601   -1.6825 C   0  0  0  0  0  0  0  0  0  0  0  0
    0.5957    2.4574   -0.4383 C   0  0  0  0  0  0  0  0  0  0  0  0
   -0.4430    1.5995   -0.3274 C   0  0  0  0  0  0  0  0  0  0  0  0
   -0.8354    0.7809   -1.4651 C   0  0  0  0  0  0  0  0  0  0  0  0
   -0.4987    0.2320   -3.5018 H   0  0  0  0  0  0  0  0  0  0  0  0
    0.8715    2.3247   -3.7853 H   0  0  0  0  0  0  0  0  0  0  0  0
    0.9206    3.0675    0.3982 H   0  0  0  0  0  0  0  0  0  0  0  0
   -0.9999    1.4869    0.5950 H   0  0  0  0  0  0  0  0  0  0  0  0
    2.3569    3.3410   -1.7822 N   0  0  0  0  0  0  0  0  0  0  0  0
    3.2992    3.9605   -1.9741 N   0  0  0  0  0  0  0  0  0  0  0  0
    5.1035   -0.4502   -4.6320 C   0  0  0  0  0  0  0  0  0  0  0  0
    6.4791   -0.4757   -4.4093 C   0  0  0  0  0  0  0  0  0  0  0  0
    7.1607    0.6908   -4.0358 C   0  0  0  0  0  0  0  0  0  0  0  0
    6.4359    1.8806   -3.8870 C   0  0  0  0  0  0  0  0  0  0  0  0
    5.0572    1.9121   -4.1050 C   0  0  0  0  0  0  0  0  0  0  0  0
    4.3910    0.7333   -4.4692 C   0  0  0  0  0  0  0  0  0  0  0  0
    4.5546   -1.3384   -4.9309 H   0  0  0  0  0  0  0  0  0  0  0  0
    7.0293   -1.4048   -4.5280 H   0  0  0  0  0  0  0  0  0  0  0  0
    6.9501    2.7951   -3.5963 H   0  0  0  0  0  0  0  0  0  0  0  0
    4.8784    3.7821   -3.6942 H   0  0  0  0  0  0  0  0  0  0  0  0
    2.6126    0.7558   -4.7949 S   0  0  2  0  0  0  0  0  0  0  0  0
    2.2102    0.8834   -3.1523 O   0  0  0  0  0  0  0  0  0  0  0  0
    2.2739   -0.6108   -5.2940 O   0  0  0  0  0  0  0  0  0  0  0  0
    4.3137    3.0522   -3.9792 O   0  0  0  0  0  0  0  0  0  0  0  0
    8.6566    0.6813   -3.8299 C   0  0  0  0  0  0  0  0  0  0  0  0
    9.0076   -0.3040   -3.5114 H   0  0  0  0  0  0  0  0  0  0  0  0
    9.1826    0.9294   -4.7603 H   0  0  0  0  0  0  0  0  0  0  0  0
    8.9643    1.4133   -3.0771 H   0  0  0  0  0  0  0  0  0  0  0  0
   -1.9092   -0.0082   -1.1832 O   0  0  0  0  0  0  0  0  0  0  0  0
   -2.3704   -0.8846   -2.2011 C   0  0  0  0  0  0  0  0  0  0  0  0
   -3.2076   -1.4357   -1.7705 H   0  0  0  0  0  0  0  0  0  0  0  0
   -1.5854   -1.5870   -2.5074 H   0  0  0  0  0  0  0  0  0  0  0  0
   -2.7152   -0.3274   -3.0814 H   0  0  0  0  0  0  0  0  0  0  0  0
  1  6  1  0  0  0  0
  2  8  1  6  0  0  0
  2  1  1  0  0  0  0
  2  3  1  0  0  0  0
  3  4  2  0  0  0  0
  4  5  1  0  0  0  0
  4  9  1  0  0  0  0
  5 10  1  0  0  0  0
  6 31  1  0  0  0  0
  6  5  2  0  0  0  0
  7  1  1  0  0  0  0
 11  3  1  0  0  0  0
 12 11  1  0  0  0  0
 13 18  2  0  0  0  0
 13 14  1  0  0  0  0
 14 15  2  0  0  0  0
 15 16  1  0  0  0  0
 15 27  1  0  0  0  0
 16 21  1  0  0  0  0
 17 26  1  0  0  0  0
 17 16  2  0  0  0  0
 18 17  1  0  0  0  0
 19 13  1  0  0  0  0
 20 14  1  0  0  0  0
 23 25  1  1  0  0  0
 23 18  1  0  0  0  0
 23 24  1  0  0  0  0
 24  2  1  0  0  0  0
 26 22  1  0  0  0  0
 27 28  1  0  0  0  0
 27 30  1  0  0  0  0
 29 27  1  0  0  0  0
 32 33  1  0  0  0  0
 32 31  1  0  0  0  0
 34 32  1  0  0  0  0
 35 32  1  0  0  0  0
M  RAD  4   1   2  11   2  12   3  25   2
M  END
