Coordinates from ORCA-job p-CH3O-Ph-N2-X-OTs-B3LYPG-6-31G_dp-scan-d09-49-n400
 OpenBabel08281821253D

 35 36  0  0  1  0  0  0  0  0999 V2000
    0.1998    0.6116   -3.1467 C   0  0  0  0  0  0  0  0  0  0  0  0
    1.0645    1.8127   -3.3675 C   0  0  1  0  0  0  0  0  0  0  0  0
    0.9469    2.9091   -2.3005 C   0  0  0  0  0  0  0  0  0  0  0  0
    0.0300    2.6953   -1.1978 C   0  0  0  0  0  0  0  0  0  0  0  0
   -0.7089    1.5657   -1.0949 C   0  0  0  0  0  0  0  0  0  0  0  0
   -0.6313    0.5013   -2.0891 C   0  0  0  0  0  0  0  0  0  0  0  0
    0.2796   -0.1923   -3.8701 H   0  0  0  0  0  0  0  0  0  0  0  0
    0.8040    2.2942   -4.3268 H   0  0  0  0  0  0  0  0  0  0  0  0
   -0.0201    3.4768   -0.4470 H   0  0  0  0  0  0  0  0  0  0  0  0
   -1.3695    1.4471   -0.2431 H   0  0  0  0  0  0  0  0  0  0  0  0
    1.6318    4.0050   -2.3252 N   0  0  0  0  0  0  0  0  0  0  0  0
    2.3470    4.1984   -3.6311 N   0  0  0  0  0  0  0  0  0  0  0  0
    5.2311   -0.4881   -4.5153 C   0  0  0  0  0  0  0  0  0  0  0  0
    6.5641   -0.6711   -4.1565 C   0  0  0  0  0  0  0  0  0  0  0  0
    7.3682    0.4145   -3.7759 C   0  0  0  0  0  0  0  0  0  0  0  0
    6.8019    1.6970   -3.7689 C   0  0  0  0  0  0  0  0  0  0  0  0
    5.4689    1.8981   -4.1245 C   0  0  0  0  0  0  0  0  0  0  0  0
    4.6917    0.7969   -4.4842 C   0  0  0  0  0  0  0  0  0  0  0  0
    4.6007   -1.3178   -4.8195 H   0  0  0  0  0  0  0  0  0  0  0  0
    6.9907   -1.6712   -4.1754 H   0  0  0  0  0  0  0  0  0  0  0  0
    7.4116    2.5491   -3.4815 H   0  0  0  0  0  0  0  0  0  0  0  0
    5.0458    2.8981   -4.1129 H   0  0  0  0  0  0  0  0  0  0  0  0
    2.9803    1.0282   -5.0180 S   0  0  2  0  0  0  0  0  0  0  0  0
    2.4628    1.4191   -3.4293 O   0  0  0  0  0  0  0  0  0  0  0  0
    2.4704   -0.3215   -5.4058 O   0  0  0  0  0  0  0  0  0  0  0  0
    3.2820    4.7537   -3.5496 O   0  0  0  0  0  0  0  0  0  0  0  0
    8.8084    0.1981   -3.3768 C   0  0  0  0  0  0  0  0  0  0  0  0
    9.3365   -0.4213   -4.1095 H   0  0  0  0  0  0  0  0  0  0  0  0
    9.3457    1.1453   -3.2840 H   0  0  0  0  0  0  0  0  0  0  0  0
    8.8749   -0.3183   -2.4116 H   0  0  0  0  0  0  0  0  0  0  0  0
   -1.3746   -0.6412   -1.9768 O   0  0  0  0  0  0  0  0  0  0  0  0
   -2.3249   -0.7660   -0.9305 C   0  0  0  0  0  0  0  0  0  0  0  0
   -2.8085   -1.7315   -1.0863 H   0  0  0  0  0  0  0  0  0  0  0  0
   -3.0885    0.0219   -0.9681 H   0  0  0  0  0  0  0  0  0  0  0  0
   -1.8531   -0.7654    0.0603 H   0  0  0  0  0  0  0  0  0  0  0  0
  1  6  2  0  0  0  0
  2  8  1  6  0  0  0
  2  1  1  0  0  0  0
  2  3  1  0  0  0  0
  3  4  2  0  0  0  0
  4  5  1  0  0  0  0
  4  9  1  0  0  0  0
  5 10  1  0  0  0  0
  6 31  1  0  0  0  0
  6  5  1  0  0  0  0
  7  1  1  0  0  0  0
 11  3  1  0  0  0  0
 12 26  1  0  0  0  0
 12 11  1  0  0  0  0
 13 18  2  0  0  0  0
 13 14  1  0  0  0  0
 14 15  2  0  0  0  0
 15 16  1  0  0  0  0
 15 27  1  0  0  0  0
 16 21  1  0  0  0  0
 17 22  1  0  0  0  0
 17 16  2  0  0  0  0
 18 17  1  0  0  0  0
 19 13  1  0  0  0  0
 20 14  1  0  0  0  0
 23 25  1  1  0  0  0
 23 18  1  0  0  0  0
 23 24  1  0  0  0  0
 24  2  1  0  0  0  0
 27 29  1  0  0  0  0
 27 30  1  0  0  0  0
 28 27  1  0  0  0  0
 31 32  1  0  0  0  0
 32 35  1  0  0  0  0
 33 32  1  0  0  0  0
 34 32  1  0  0  0  0
M  RAD  5   5   2  11   2  12   2  25   2  26   2
M  END
