Coordinates from ORCA-job p-CH3O-Ph-N2-X-OTs-B3LYPG-6-31G_dp-scan-d09-49-n400
 OpenBabel08281821253D

 35 36  0  0  1  0  0  0  0  0999 V2000
    0.1907    0.5028   -3.0792 C   0  0  0  0  0  0  0  0  0  0  0  0
    1.0754    1.6730   -3.3612 C   0  0  1  0  0  0  0  0  0  0  0  0
    0.9491    2.8214   -2.3654 C   0  0  0  0  0  0  0  0  0  0  0  0
   -0.0079    2.7393   -1.3043 C   0  0  0  0  0  0  0  0  0  0  0  0
   -0.8052    1.6443   -1.1727 C   0  0  0  0  0  0  0  0  0  0  0  0
   -0.7088    0.5023   -2.0674 C   0  0  0  0  0  0  0  0  0  0  0  0
    0.3114   -0.3661   -3.7166 H   0  0  0  0  0  0  0  0  0  0  0  0
    0.7961    2.1315   -4.3340 H   0  0  0  0  0  0  0  0  0  0  0  0
   -0.0708    3.5716   -0.6117 H   0  0  0  0  0  0  0  0  0  0  0  0
   -1.5228    1.6209   -0.3603 H   0  0  0  0  0  0  0  0  0  0  0  0
    1.7053    3.8758   -2.4817 N   0  0  0  0  0  0  0  0  0  0  0  0
    2.3271    4.2146   -3.5488 N   0  0  0  0  0  0  0  0  0  0  0  0
    5.3234   -0.4706   -4.7014 C   0  0  0  0  0  0  0  0  0  0  0  0
    6.6623   -0.6193   -4.3483 C   0  0  0  0  0  0  0  0  0  0  0  0
    7.3899    0.4503   -3.8041 C   0  0  0  0  0  0  0  0  0  0  0  0
    6.7419    1.6815   -3.6261 C   0  0  0  0  0  0  0  0  0  0  0  0
    5.4030    1.8537   -3.9733 C   0  0  0  0  0  0  0  0  0  0  0  0
    4.7062    0.7634   -4.4998 C   0  0  0  0  0  0  0  0  0  0  0  0
    4.7504   -1.2888   -5.1261 H   0  0  0  0  0  0  0  0  0  0  0  0
    7.1527   -1.5777   -4.5007 H   0  0  0  0  0  0  0  0  0  0  0  0
    7.2929    2.5207   -3.2099 H   0  0  0  0  0  0  0  0  0  0  0  0
    4.9121    2.8123   -3.8223 H   0  0  0  0  0  0  0  0  0  0  0  0
    2.9988    0.9665   -5.0389 S   0  0  2  0  0  0  0  0  0  0  0  0
    2.4500    1.2621   -3.4255 O   0  0  0  0  0  0  0  0  0  0  0  0
    2.5209   -0.3749   -5.4887 O   0  0  0  0  0  0  0  0  0  0  0  0
    3.7077    4.6526   -3.2898 O   0  0  0  0  0  0  0  0  0  0  0  0
    8.8347    0.2704   -3.4036 C   0  0  0  0  0  0  0  0  0  0  0  0
    9.3774   -0.3449   -4.1281 H   0  0  0  0  0  0  0  0  0  0  0  0
    9.3493    1.2310   -3.3186 H   0  0  0  0  0  0  0  0  0  0  0  0
    8.9116   -0.2319   -2.4312 H   0  0  0  0  0  0  0  0  0  0  0  0
   -1.4876   -0.6064   -1.9091 O   0  0  0  0  0  0  0  0  0  0  0  0
   -2.4073   -0.6784   -0.8288 C   0  0  0  0  0  0  0  0  0  0  0  0
   -2.8843   -1.6554   -0.9148 H   0  0  0  0  0  0  0  0  0  0  0  0
   -3.1801    0.0985   -0.8927 H   0  0  0  0  0  0  0  0  0  0  0  0
   -1.9053   -0.6144    0.1448 H   0  0  0  0  0  0  0  0  0  0  0  0
  1  6  2  0  0  0  0
  2  8  1  6  0  0  0
  2  1  1  0  0  0  0
  2  3  1  0  0  0  0
  3  4  2  0  0  0  0
  4  5  1  0  0  0  0
  4  9  1  0  0  0  0
  5 10  1  0  0  0  0
  6 31  1  0  0  0  0
  6  5  1  0  0  0  0
  7  1  1  0  0  0  0
 11  3  1  0  0  0  0
 12 26  1  0  0  0  0
 12 11  1  0  0  0  0
 13 18  2  0  0  0  0
 13 14  1  0  0  0  0
 14 15  2  0  0  0  0
 15 16  1  0  0  0  0
 15 27  1  0  0  0  0
 16 21  1  0  0  0  0
 17 22  1  0  0  0  0
 17 16  2  0  0  0  0
 18 17  1  0  0  0  0
 19 13  1  0  0  0  0
 20 14  1  0  0  0  0
 23 25  1  1  0  0  0
 23 18  1  0  0  0  0
 23 24  1  0  0  0  0
 24  2  1  0  0  0  0
 27 29  1  0  0  0  0
 27 30  1  0  0  0  0
 28 27  1  0  0  0  0
 31 32  1  0  0  0  0
 32 35  1  0  0  0  0
 33 32  1  0  0  0  0
 34 32  1  0  0  0  0
M  RAD  5   5   2  11   2  12   2  25   2  26   2
M  END
