Coordinates from ORCA-job p-CH3O-Ph-N2-X-OTs-B3LYPG-6-31G_dp-scan-d09-49-n400
 OpenBabel08281821253D

 35 36  0  0  1  0  0  0  0  0999 V2000
    0.1918    0.5396   -3.0957 C   0  0  0  0  0  0  0  0  0  0  0  0
    1.0841    1.7136   -3.3371 C   0  0  1  0  0  0  0  0  0  0  0  0
    0.9628    2.8371   -2.3135 C   0  0  0  0  0  0  0  0  0  0  0  0
    0.0043    2.7190   -1.2534 C   0  0  0  0  0  0  0  0  0  0  0  0
   -0.7903    1.6204   -1.1480 C   0  0  0  0  0  0  0  0  0  0  0  0
   -0.7015    0.5077   -2.0799 C   0  0  0  0  0  0  0  0  0  0  0  0
    0.3002   -0.3060   -3.7659 H   0  0  0  0  0  0  0  0  0  0  0  0
    0.8214    2.1975   -4.3013 H   0  0  0  0  0  0  0  0  0  0  0  0
   -0.0546    3.5317   -0.5373 H   0  0  0  0  0  0  0  0  0  0  0  0
   -1.5027    1.5710   -0.3319 H   0  0  0  0  0  0  0  0  0  0  0  0
    1.7076    3.9046   -2.3829 N   0  0  0  0  0  0  0  0  0  0  0  0
    2.3605    4.1518   -3.5120 N   0  0  0  0  0  0  0  0  0  0  0  0
    5.2990   -0.4952   -4.6064 C   0  0  0  0  0  0  0  0  0  0  0  0
    6.6410   -0.6414   -4.2646 C   0  0  0  0  0  0  0  0  0  0  0  0
    7.3966    0.4521   -3.8136 C   0  0  0  0  0  0  0  0  0  0  0  0
    6.7730    1.7045   -3.7181 C   0  0  0  0  0  0  0  0  0  0  0  0
    5.4310    1.8727   -4.0558 C   0  0  0  0  0  0  0  0  0  0  0  0
    4.7052    0.7607   -4.4872 C   0  0  0  0  0  0  0  0  0  0  0  0
    4.7051   -1.3312   -4.9622 H   0  0  0  0  0  0  0  0  0  0  0  0
    7.1123   -1.6174   -4.3527 H   0  0  0  0  0  0  0  0  0  0  0  0
    7.3452    2.5620   -3.3745 H   0  0  0  0  0  0  0  0  0  0  0  0
    4.9602    2.8481   -3.9710 H   0  0  0  0  0  0  0  0  0  0  0  0
    2.9897    0.9554   -5.0084 S   0  0  2  0  0  0  0  0  0  0  0  0
    2.4621    1.2963   -3.4008 O   0  0  0  0  0  0  0  0  0  0  0  0
    2.5052   -0.3972   -5.4167 O   0  0  0  0  0  0  0  0  0  0  0  0
    3.5730    4.6462   -3.3371 O   0  0  0  0  0  0  0  0  0  0  0  0
    8.8458    0.2754   -3.4281 C   0  0  0  0  0  0  0  0  0  0  0  0
    9.3820   -0.3383   -4.1592 H   0  0  0  0  0  0  0  0  0  0  0  0
    9.3595    1.2368   -3.3486 H   0  0  0  0  0  0  0  0  0  0  0  0
    8.9343   -0.2287   -2.4577 H   0  0  0  0  0  0  0  0  0  0  0  0
   -1.4837   -0.6038   -1.9540 O   0  0  0  0  0  0  0  0  0  0  0  0
   -2.4236   -0.6915   -0.8931 C   0  0  0  0  0  0  0  0  0  0  0  0
   -2.9114   -1.6598   -1.0128 H   0  0  0  0  0  0  0  0  0  0  0  0
   -3.1853    0.0970   -0.9501 H   0  0  0  0  0  0  0  0  0  0  0  0
   -1.9396   -0.6593    0.0911 H   0  0  0  0  0  0  0  0  0  0  0  0
  1  6  2  0  0  0  0
  2  8  1  6  0  0  0
  2  1  1  0  0  0  0
  2  3  1  0  0  0  0
  3  4  2  0  0  0  0
  4  5  1  0  0  0  0
  4  9  1  0  0  0  0
  5 10  1  0  0  0  0
  6 31  1  0  0  0  0
  6  5  1  0  0  0  0
  7  1  1  0  0  0  0
 11  3  1  0  0  0  0
 12 26  1  0  0  0  0
 12 11  1  0  0  0  0
 13 18  2  0  0  0  0
 13 14  1  0  0  0  0
 14 15  2  0  0  0  0
 15 16  1  0  0  0  0
 15 27  1  0  0  0  0
 16 21  1  0  0  0  0
 17 22  1  0  0  0  0
 17 16  2  0  0  0  0
 18 17  1  0  0  0  0
 19 13  1  0  0  0  0
 20 14  1  0  0  0  0
 23 25  1  1  0  0  0
 23 18  1  0  0  0  0
 23 24  1  0  0  0  0
 24  2  1  0  0  0  0
 27 29  1  0  0  0  0
 27 30  1  0  0  0  0
 28 27  1  0  0  0  0
 31 32  1  0  0  0  0
 32 35  1  0  0  0  0
 33 32  1  0  0  0  0
 34 32  1  0  0  0  0
M  RAD  5   5   2  11   2  12   2  25   2  26   2
M  END
