Coordinates from ORCA-job p-CH3O-Ph-N2-X-OTs-B3LYPG-6-31G_dp-scan-d09-49-n400
 OpenBabel08281821253D

 35 36  0  0  1  0  0  0  0  0999 V2000
    0.0407    0.4767   -3.2261 C   0  0  0  0  0  0  0  0  0  0  0  0
    0.9417    1.5966   -3.6394 C   0  0  1  0  0  0  0  0  0  0  0  0
    0.9038    2.7870   -2.6719 C   0  0  0  0  0  0  0  0  0  0  0  0
    0.2526    2.6730   -1.3915 C   0  0  0  0  0  0  0  0  0  0  0  0
   -0.4627    1.5608   -1.0953 C   0  0  0  0  0  0  0  0  0  0  0  0
   -0.5956    0.4507   -2.0351 C   0  0  0  0  0  0  0  0  0  0  0  0
   -0.0326   -0.3650   -3.9055 H   0  0  0  0  0  0  0  0  0  0  0  0
    0.6520    1.9696   -4.6344 H   0  0  0  0  0  0  0  0  0  0  0  0
    0.3488    3.4925   -0.6881 H   0  0  0  0  0  0  0  0  0  0  0  0
   -0.9434    1.4954   -0.1264 H   0  0  0  0  0  0  0  0  0  0  0  0
    1.5017    3.8703   -3.0145 N   0  0  0  0  0  0  0  0  0  0  0  0
    2.0267    4.6005   -3.8338 N   0  0  0  0  0  0  0  0  0  0  0  0
    5.3387   -0.2600   -4.9582 C   0  0  0  0  0  0  0  0  0  0  0  0
    6.6247   -0.5024   -4.4777 C   0  0  0  0  0  0  0  0  0  0  0  0
    7.2547    0.4023   -3.6115 C   0  0  0  0  0  0  0  0  0  0  0  0
    6.5652    1.5669   -3.2378 C   0  0  0  0  0  0  0  0  0  0  0  0
    5.2788    1.8290   -3.7024 C   0  0  0  0  0  0  0  0  0  0  0  0
    4.6783    0.8986   -4.5561 C   0  0  0  0  0  0  0  0  0  0  0  0
    4.8419   -0.9490   -5.6343 H   0  0  0  0  0  0  0  0  0  0  0  0
    7.1490   -1.4043   -4.7830 H   0  0  0  0  0  0  0  0  0  0  0  0
    7.0459    2.2818   -2.5743 H   0  0  0  0  0  0  0  0  0  0  0  0
    4.7442    2.7335   -3.4153 H   0  0  0  0  0  0  0  0  0  0  0  0
    3.0485    1.2417   -5.2442 S   0  0  2  0  0  0  0  0  0  0  0  0
    2.2986    1.1130   -3.6834 O   0  0  0  0  0  0  0  0  0  0  0  0
    2.6649    0.0563   -6.0656 O   0  0  0  0  0  0  0  0  0  0  0  0
    3.6368    4.5451   -3.7846 O   0  0  0  0  0  0  0  0  0  0  0  0
    8.6397    0.1261   -3.0767 C   0  0  0  0  0  0  0  0  0  0  0  0
    9.1695   -0.6050   -3.6937 H   0  0  0  0  0  0  0  0  0  0  0  0
    9.2416    1.0394   -3.0361 H   0  0  0  0  0  0  0  0  0  0  0  0
    8.5942   -0.2760   -2.0568 H   0  0  0  0  0  0  0  0  0  0  0  0
   -1.3449   -0.6502   -1.7366 O   0  0  0  0  0  0  0  0  0  0  0  0
   -2.1457   -0.6675   -0.5628 C   0  0  0  0  0  0  0  0  0  0  0  0
   -2.6949   -1.6093   -0.5969 H   0  0  0  0  0  0  0  0  0  0  0  0
   -2.8639    0.1619   -0.5416 H   0  0  0  0  0  0  0  0  0  0  0  0
   -1.5390   -0.6483    0.3511 H   0  0  0  0  0  0  0  0  0  0  0  0
  1  6  2  0  0  0  0
  2  8  1  6  0  0  0
  2  1  1  0  0  0  0
  2  3  1  0  0  0  0
  3  4  2  0  0  0  0
  4  5  1  0  0  0  0
  4  9  1  0  0  0  0
  5 10  1  0  0  0  0
  6 31  1  0  0  0  0
  6  5  1  0  0  0  0
  7  1  1  0  0  0  0
 11  3  1  0  0  0  0
 12 26  1  0  0  0  0
 12 11  1  0  0  0  0
 13 18  2  0  0  0  0
 13 14  1  0  0  0  0
 14 15  2  0  0  0  0
 15 16  1  0  0  0  0
 15 27  1  0  0  0  0
 16 21  1  0  0  0  0
 17 22  1  0  0  0  0
 17 16  2  0  0  0  0
 18 17  1  0  0  0  0
 19 13  1  0  0  0  0
 20 14  1  0  0  0  0
 23 25  1  6  0  0  0
 23 18  1  0  0  0  0
 23 24  1  0  0  0  0
 24  2  1  0  0  0  0
 27 29  1  0  0  0  0
 27 30  1  0  0  0  0
 28 27  1  0  0  0  0
 31 32  1  0  0  0  0
 32 34  1  0  0  0  0
 32 35  1  0  0  0  0
 33 32  1  0  0  0  0
M  RAD  5   5   2  11   2  12   2  25   2  26   2
M  END
