Coordinates from ORCA-job p-CH3O-Ph-N2-X-OTs-B3LYPG-6-31G_dp-scan-d09-49-n400
 OpenBabel08281821253D

 35 36  0  0  1  0  0  0  0  0999 V2000
   -0.2047    0.8199   -2.6501 C   0  0  0  0  0  0  0  0  0  0  0  0
    1.0136    1.6543   -2.8832 C   0  0  1  0  0  0  0  0  0  0  0  0
    1.3474    2.5021   -1.6756 C   0  0  0  0  0  0  0  0  0  0  0  0
    0.6090    2.4439   -0.4429 C   0  0  0  0  0  0  0  0  0  0  0  0
   -0.4616    1.6253   -0.3351 C   0  0  0  0  0  0  0  0  0  0  0  0
   -0.8618    0.8000   -1.4651 C   0  0  0  0  0  0  0  0  0  0  0  0
   -0.5159    0.2104   -3.4892 H   0  0  0  0  0  0  0  0  0  0  0  0
    0.8920    2.2839   -3.7778 H   0  0  0  0  0  0  0  0  0  0  0  0
    0.9446    3.0523    0.3907 H   0  0  0  0  0  0  0  0  0  0  0  0
   -1.0358    1.5458    0.5801 H   0  0  0  0  0  0  0  0  0  0  0  0
    2.4361    3.2248   -1.7641 N   0  0  0  0  0  0  0  0  0  0  0  0
    3.4183    3.7756   -1.9733 N   0  0  0  0  0  0  0  0  0  0  0  0
    5.1286   -0.4507   -4.6311 C   0  0  0  0  0  0  0  0  0  0  0  0
    6.5050   -0.4543   -4.4128 C   0  0  0  0  0  0  0  0  0  0  0  0
    7.1691    0.7220   -4.0379 C   0  0  0  0  0  0  0  0  0  0  0  0
    6.4247    1.8984   -3.8809 C   0  0  0  0  0  0  0  0  0  0  0  0
    5.0450    1.9071   -4.0941 C   0  0  0  0  0  0  0  0  0  0  0  0
    4.3962    0.7200   -4.4615 C   0  0  0  0  0  0  0  0  0  0  0  0
    4.5942   -1.3461   -4.9347 H   0  0  0  0  0  0  0  0  0  0  0  0
    7.0700   -1.3736   -4.5375 H   0  0  0  0  0  0  0  0  0  0  0  0
    6.9238    2.8198   -3.5859 H   0  0  0  0  0  0  0  0  0  0  0  0
    4.8521    3.7860   -3.7330 H   0  0  0  0  0  0  0  0  0  0  0  0
    2.6184    0.7153   -4.7958 S   0  0  2  0  0  0  0  0  0  0  0  0
    2.1996    0.8106   -3.1563 O   0  0  0  0  0  0  0  0  0  0  0  0
    2.3078   -0.6502   -5.3150 O   0  0  0  0  0  0  0  0  0  0  0  0
    4.2843    3.0363   -3.9525 O   0  0  0  0  0  0  0  0  0  0  0  0
    8.6657    0.7361   -3.8380 C   0  0  0  0  0  0  0  0  0  0  0  0
    9.0324   -0.2416   -3.5136 H   0  0  0  0  0  0  0  0  0  0  0  0
    9.1843    0.9847   -4.7724 H   0  0  0  0  0  0  0  0  0  0  0  0
    8.9656    1.4781   -3.0918 H   0  0  0  0  0  0  0  0  0  0  0  0
   -1.9599    0.0442   -1.1851 O   0  0  0  0  0  0  0  0  0  0  0  0
   -2.4306   -0.8374   -2.1939 C   0  0  0  0  0  0  0  0  0  0  0  0
   -3.2873   -1.3592   -1.7652 H   0  0  0  0  0  0  0  0  0  0  0  0
   -1.6602   -1.5650   -2.4777 H   0  0  0  0  0  0  0  0  0  0  0  0
   -2.7496   -0.2871   -3.0882 H   0  0  0  0  0  0  0  0  0  0  0  0
  1  6  1  0  0  0  0
  2  8  1  6  0  0  0
  2  1  1  0  0  0  0
  2  3  1  0  0  0  0
  3  4  2  0  0  0  0
  4  5  1  0  0  0  0
  4  9  1  0  0  0  0
  5 10  1  0  0  0  0
  6 31  1  0  0  0  0
  6  5  2  0  0  0  0
  7  1  1  0  0  0  0
 11  3  1  0  0  0  0
 12 11  1  0  0  0  0
 13 18  2  0  0  0  0
 13 14  1  0  0  0  0
 14 15  2  0  0  0  0
 15 16  1  0  0  0  0
 15 27  1  0  0  0  0
 16 21  1  0  0  0  0
 17 26  1  0  0  0  0
 17 16  2  0  0  0  0
 18 17  1  0  0  0  0
 19 13  1  0  0  0  0
 20 14  1  0  0  0  0
 23 25  1  1  0  0  0
 23 18  1  0  0  0  0
 23 24  1  0  0  0  0
 24  2  1  0  0  0  0
 26 22  1  0  0  0  0
 27 28  1  0  0  0  0
 27 30  1  0  0  0  0
 29 27  1  0  0  0  0
 32 33  1  0  0  0  0
 32 31  1  0  0  0  0
 34 32  1  0  0  0  0
 35 32  1  0  0  0  0
M  RAD  4   1   2  11   2  12   3  25   2
M  END
