Coordinates from ORCA-job p-CH3O-Ph-N2-X-OTs-B3LYPG-6-31G_dp-scan-d09-49-n400
 OpenBabel08281821253D

 35 36  0  0  1  0  0  0  0  0999 V2000
   -0.1926    0.8422   -2.6597 C   0  0  0  0  0  0  0  0  0  0  0  0
    0.9995    1.7141   -2.8926 C   0  0  1  0  0  0  0  0  0  0  0  0
    1.2976    2.5792   -1.6881 C   0  0  0  0  0  0  0  0  0  0  0  0
    0.5897    2.4656   -0.4406 C   0  0  0  0  0  0  0  0  0  0  0  0
   -0.4386    1.5957   -0.3268 C   0  0  0  0  0  0  0  0  0  0  0  0
   -0.8278    0.7760   -1.4648 C   0  0  0  0  0  0  0  0  0  0  0  0
   -0.4935    0.2348   -3.5038 H   0  0  0  0  0  0  0  0  0  0  0  0
    0.8618    2.3350   -3.7904 H   0  0  0  0  0  0  0  0  0  0  0  0
    0.9108    3.0784    0.3955 H   0  0  0  0  0  0  0  0  0  0  0  0
   -0.9902    1.4751    0.5978 H   0  0  0  0  0  0  0  0  0  0  0  0
    2.3299    3.3778   -1.7918 N   0  0  0  0  0  0  0  0  0  0  0  0
    3.2595    4.0162   -1.9821 N   0  0  0  0  0  0  0  0  0  0  0  0
    5.0966   -0.4481   -4.6373 C   0  0  0  0  0  0  0  0  0  0  0  0
    6.4719   -0.4814   -4.4134 C   0  0  0  0  0  0  0  0  0  0  0  0
    7.1589    0.6803   -4.0350 C   0  0  0  0  0  0  0  0  0  0  0  0
    6.4401    1.8733   -3.8827 C   0  0  0  0  0  0  0  0  0  0  0  0
    5.0618    1.9126   -4.1019 C   0  0  0  0  0  0  0  0  0  0  0  0
    4.3902    0.7385   -4.4709 C   0  0  0  0  0  0  0  0  0  0  0  0
    4.5433   -1.3325   -4.9392 H   0  0  0  0  0  0  0  0  0  0  0  0
    7.0175   -1.4128   -4.5349 H   0  0  0  0  0  0  0  0  0  0  0  0
    6.9588    2.7841   -3.5883 H   0  0  0  0  0  0  0  0  0  0  0  0
    4.8887    3.7796   -3.6748 H   0  0  0  0  0  0  0  0  0  0  0  0
    2.6119    0.7710   -4.7958 S   0  0  2  0  0  0  0  0  0  0  0  0
    2.2117    0.9055   -3.1530 O   0  0  0  0  0  0  0  0  0  0  0  0
    2.2649   -0.5949   -5.2913 O   0  0  0  0  0  0  0  0  0  0  0  0
    4.3237    3.0554   -3.9735 O   0  0  0  0  0  0  0  0  0  0  0  0
    8.6545    0.6625   -3.8276 C   0  0  0  0  0  0  0  0  0  0  0  0
    9.0006   -0.3263   -3.5144 H   0  0  0  0  0  0  0  0  0  0  0  0
    9.1828    0.9136   -4.7559 H   0  0  0  0  0  0  0  0  0  0  0  0
    8.9649    1.3886   -3.0701 H   0  0  0  0  0  0  0  0  0  0  0  0
   -1.8931   -0.0236   -1.1806 O   0  0  0  0  0  0  0  0  0  0  0  0
   -2.3504   -0.9015   -2.1990 C   0  0  0  0  0  0  0  0  0  0  0  0
   -3.1807   -1.4615   -1.7665 H   0  0  0  0  0  0  0  0  0  0  0  0
   -1.5602   -1.5958   -2.5104 H   0  0  0  0  0  0  0  0  0  0  0  0
   -2.7039   -0.3450   -3.0763 H   0  0  0  0  0  0  0  0  0  0  0  0
  1  6  1  0  0  0  0
  2  8  1  6  0  0  0
  2  1  1  0  0  0  0
  2  3  1  0  0  0  0
  3  4  2  0  0  0  0
  4  5  1  0  0  0  0
  4  9  1  0  0  0  0
  5 10  1  0  0  0  0
  6 31  1  0  0  0  0
  6  5  2  0  0  0  0
  7  1  1  0  0  0  0
 11  3  1  0  0  0  0
 12 11  1  0  0  0  0
 13 18  2  0  0  0  0
 13 14  1  0  0  0  0
 14 15  2  0  0  0  0
 15 16  1  0  0  0  0
 15 27  1  0  0  0  0
 16 21  1  0  0  0  0
 17 26  1  0  0  0  0
 17 16  2  0  0  0  0
 18 17  1  0  0  0  0
 19 13  1  0  0  0  0
 20 14  1  0  0  0  0
 23 25  1  1  0  0  0
 23 18  1  0  0  0  0
 23 24  1  0  0  0  0
 24  2  1  0  0  0  0
 26 22  1  0  0  0  0
 27 28  1  0  0  0  0
 27 30  1  0  0  0  0
 29 27  1  0  0  0  0
 32 33  1  0  0  0  0
 32 31  1  0  0  0  0
 34 32  1  0  0  0  0
 35 32  1  0  0  0  0
M  RAD  4   1   2  11   2  12   3  25   2
M  END
