Coordinates from ORCA-job p-CH3O-Ph-N2-X-OTs-B3LYPG-6-31G_dp-scan-d09-49-n400
 OpenBabel08281821253D

 35 36  0  0  1  0  0  0  0  0999 V2000
   -0.0145    0.9690   -2.7239 C   0  0  0  0  0  0  0  0  0  0  0  0
    0.8139    2.2000   -2.9124 C   0  0  1  0  0  0  0  0  0  0  0  0
    0.7587    3.0823   -1.6941 C   0  0  0  0  0  0  0  0  0  0  0  0
    0.3465    2.5911   -0.4016 C   0  0  0  0  0  0  0  0  0  0  0  0
   -0.2170    1.3667   -0.3036 C   0  0  0  0  0  0  0  0  0  0  0  0
   -0.4310    0.5668   -1.4992 C   0  0  0  0  0  0  0  0  0  0  0  0
   -0.1585    0.3675   -3.6119 H   0  0  0  0  0  0  0  0  0  0  0  0
    0.4981    2.7587   -3.8051 H   0  0  0  0  0  0  0  0  0  0  0  0
    0.4858    3.2266    0.4670 H   0  0  0  0  0  0  0  0  0  0  0  0
   -0.5428    0.9600    0.6464 H   0  0  0  0  0  0  0  0  0  0  0  0
    1.1357    4.3314   -1.8130 N   0  0  0  0  0  0  0  0  0  0  0  0
    1.4477    5.4269   -1.9134 N   0  0  0  0  0  0  0  0  0  0  0  0
    4.6457   -0.2374   -4.3985 C   0  0  0  0  0  0  0  0  0  0  0  0
    5.9562   -0.6417   -4.1578 C   0  0  0  0  0  0  0  0  0  0  0  0
    6.9660    0.3094   -3.9515 C   0  0  0  0  0  0  0  0  0  0  0  0
    6.6323    1.6681   -3.9907 C   0  0  0  0  0  0  0  0  0  0  0  0
    5.3177    2.0809   -4.2269 C   0  0  0  0  0  0  0  0  0  0  0  0
    4.3206    1.1165   -4.4212 C   0  0  0  0  0  0  0  0  0  0  0  0
    3.8498   -0.9536   -4.5799 H   0  0  0  0  0  0  0  0  0  0  0  0
    6.2006   -1.7000   -4.1322 H   0  0  0  0  0  0  0  0  0  0  0  0
    7.4051    2.4193   -3.8331 H   0  0  0  0  0  0  0  0  0  0  0  0
    5.7335    3.9476   -4.1317 H   0  0  0  0  0  0  0  0  0  0  0  0
    2.6093    1.5883   -4.7766 S   0  0  2  0  0  0  0  0  0  0  0  0
    2.2389    1.8265   -3.1367 O   0  0  0  0  0  0  0  0  0  0  0  0
    1.9452    0.3370   -5.2641 O   0  0  0  0  0  0  0  0  0  0  0  0
    4.9577    3.3933   -4.2860 O   0  0  0  0  0  0  0  0  0  0  0  0
    8.3970   -0.1180   -3.7277 C   0  0  0  0  0  0  0  0  0  0  0  0
    8.4470   -1.0928   -3.2343 H   0  0  0  0  0  0  0  0  0  0  0  0
    8.9336   -0.2061   -4.6803 H   0  0  0  0  0  0  0  0  0  0  0  0
    8.9423    0.6039   -3.1120 H   0  0  0  0  0  0  0  0  0  0  0  0
   -1.1071   -0.5860   -1.2345 O   0  0  0  0  0  0  0  0  0  0  0  0
   -1.3582   -1.4646   -2.3221 C   0  0  0  0  0  0  0  0  0  0  0  0
   -1.8780   -2.3268   -1.9019 H   0  0  0  0  0  0  0  0  0  0  0  0
   -0.4244   -1.7907   -2.7953 H   0  0  0  0  0  0  0  0  0  0  0  0
   -1.9930   -0.9884   -3.0807 H   0  0  0  0  0  0  0  0  0  0  0  0
  1  6  1  0  0  0  0
  2  8  1  6  0  0  0
  2  1  1  0  0  0  0
  2  3  1  0  0  0  0
  3  4  2  0  0  0  0
  4  5  1  0  0  0  0
  4  9  1  0  0  0  0
  5 10  1  0  0  0  0
  6 31  1  0  0  0  0
  6  5  2  0  0  0  0
  7  1  1  0  0  0  0
 11  3  1  0  0  0  0
 12 11  1  0  0  0  0
 13 14  1  0  0  0  0
 14 20  1  0  0  0  0
 14 15  2  0  0  0  0
 15 27  1  0  0  0  0
 16 15  1  0  0  0  0
 16 21  1  0  0  0  0
 17 16  2  0  0  0  0
 18 13  2  0  0  0  0
 18 17  1  0  0  0  0
 19 13  1  0  0  0  0
 23 25  1  1  0  0  0
 23 18  1  0  0  0  0
 23 24  1  0  0  0  0
 24  2  1  0  0  0  0
 26 17  1  0  0  0  0
 26 22  1  0  0  0  0
 27 28  1  0  0  0  0
 27 30  1  0  0  0  0
 29 27  1  0  0  0  0
 32 33  1  0  0  0  0
 32 31  1  0  0  0  0
 34 32  1  0  0  0  0
 35 32  1  0  0  0  0
M  RAD  4   1   2  11   2  12   3  25   2
M  END
