Coordinates from ORCA-job p-CH3O-Ph-N2-X-OTs-B3LYPG-6-31G_dp-scan-d09-49-n400
 OpenBabel08281821253D

 35 36  0  0  1  0  0  0  0  0999 V2000
   -0.1295    0.9288   -2.7076 C   0  0  0  0  0  0  0  0  0  0  0  0
    0.8894    1.9984   -2.9369 C   0  0  1  0  0  0  0  0  0  0  0  0
    0.9989    2.9161   -1.7467 C   0  0  0  0  0  0  0  0  0  0  0  0
    0.4741    2.5718   -0.4492 C   0  0  0  0  0  0  0  0  0  0  0  0
   -0.3063    1.4766   -0.3141 C   0  0  0  0  0  0  0  0  0  0  0  0
   -0.6298    0.6641   -1.4766 C   0  0  0  0  0  0  0  0  0  0  0  0
   -0.3685    0.3198   -3.5699 H   0  0  0  0  0  0  0  0  0  0  0  0
    0.6646    2.5725   -3.8472 H   0  0  0  0  0  0  0  0  0  0  0  0
    0.7126    3.2096    0.3959 H   0  0  0  0  0  0  0  0  0  0  0  0
   -0.7217    1.1829    0.6425 H   0  0  0  0  0  0  0  0  0  0  0  0
    1.6725    4.0294   -1.8967 N   0  0  0  0  0  0  0  0  0  0  0  0
    2.2564    5.0020   -2.0393 N   0  0  0  0  0  0  0  0  0  0  0  0
    4.8916   -0.3791   -4.5861 C   0  0  0  0  0  0  0  0  0  0  0  0
    6.2486   -0.5988   -4.3571 C   0  0  0  0  0  0  0  0  0  0  0  0
    7.0893    0.4634   -3.9974 C   0  0  0  0  0  0  0  0  0  0  0  0
    6.5423    1.7467   -3.8702 C   0  0  0  0  0  0  0  0  0  0  0  0
    5.1826    1.9733   -4.0946 C   0  0  0  0  0  0  0  0  0  0  0  0
    4.3561    0.8971   -4.4456 C   0  0  0  0  0  0  0  0  0  0  0  0
    4.2208   -1.1833   -4.8733 H   0  0  0  0  0  0  0  0  0  0  0  0
    6.6596   -1.5989   -4.4598 H   0  0  0  0  0  0  0  0  0  0  0  0
    7.1825    2.5817   -3.5895 H   0  0  0  0  0  0  0  0  0  0  0  0
    5.2728    3.8515   -3.7181 H   0  0  0  0  0  0  0  0  0  0  0  0
    2.6004    1.1559   -4.7894 S   0  0  2  0  0  0  0  0  0  0  0  0
    2.2306    1.3983   -3.1543 O   0  0  0  0  0  0  0  0  0  0  0  0
    2.0789   -0.1688   -5.2492 O   0  0  0  0  0  0  0  0  0  0  0  0
    4.6094    3.2054   -3.9922 O   0  0  0  0  0  0  0  0  0  0  0  0
    8.5677    0.2429   -3.7820 C   0  0  0  0  0  0  0  0  0  0  0  0
    8.7764   -0.7879   -3.4829 H   0  0  0  0  0  0  0  0  0  0  0  0
    9.1327    0.4360   -4.7027 H   0  0  0  0  0  0  0  0  0  0  0  0
    8.9667    0.9087   -3.0105 H   0  0  0  0  0  0  0  0  0  0  0  0
   -1.4940   -0.3445   -1.1751 O   0  0  0  0  0  0  0  0  0  0  0  0
   -1.8624   -1.2315   -2.2218 C   0  0  0  0  0  0  0  0  0  0  0  0
   -2.5197   -1.9765   -1.7705 H   0  0  0  0  0  0  0  0  0  0  0  0
   -0.9839   -1.7269   -2.6522 H   0  0  0  0  0  0  0  0  0  0  0  0
   -2.4012   -0.7049   -3.0199 H   0  0  0  0  0  0  0  0  0  0  0  0
  1  6  1  0  0  0  0
  2  8  1  6  0  0  0
  2  1  1  0  0  0  0
  2  3  1  0  0  0  0
  3  4  2  0  0  0  0
  4  5  1  0  0  0  0
  4  9  1  0  0  0  0
  5 10  1  0  0  0  0
  6 31  1  0  0  0  0
  6  5  2  0  0  0  0
  7  1  1  0  0  0  0
 11  3  1  0  0  0  0
 12 11  1  0  0  0  0
 13 18  2  0  0  0  0
 13 14  1  0  0  0  0
 14 15  2  0  0  0  0
 15 16  1  0  0  0  0
 15 27  1  0  0  0  0
 16 21  1  0  0  0  0
 17 26  1  0  0  0  0
 17 16  2  0  0  0  0
 18 17  1  0  0  0  0
 19 13  1  0  0  0  0
 20 14  1  0  0  0  0
 23 25  1  1  0  0  0
 23 18  1  0  0  0  0
 23 24  1  0  0  0  0
 24  2  1  0  0  0  0
 26 22  1  0  0  0  0
 27 28  1  0  0  0  0
 27 30  1  0  0  0  0
 29 27  1  0  0  0  0
 32 33  1  0  0  0  0
 32 31  1  0  0  0  0
 34 32  1  0  0  0  0
 35 32  1  0  0  0  0
M  RAD  4   1   2  11   2  12   3  25   2
M  END
