Coordinates from ORCA-job p-CH3O-Ph-N2-X-OTs-B3LYPG-6-31G_dp-scan-d09-49-n400
 OpenBabel08281821253D

 35 36  0  0  1  0  0  0  0  0999 V2000
   -0.1594    0.9134   -2.7047 C   0  0  0  0  0  0  0  0  0  0  0  0
    0.9204    1.9184   -2.9468 C   0  0  1  0  0  0  0  0  0  0  0  0
    1.0931    2.8355   -1.7623 C   0  0  0  0  0  0  0  0  0  0  0  0
    0.5469    2.5380   -0.4623 C   0  0  0  0  0  0  0  0  0  0  0  0
   -0.3017    1.4960   -0.3171 C   0  0  0  0  0  0  0  0  0  0  0  0
   -0.6751    0.6930   -1.4713 C   0  0  0  0  0  0  0  0  0  0  0  0
   -0.4390    0.3129   -3.5608 H   0  0  0  0  0  0  0  0  0  0  0  0
    0.7244    2.4989   -3.8593 H   0  0  0  0  0  0  0  0  0  0  0  0
    0.8266    3.1663    0.3771 H   0  0  0  0  0  0  0  0  0  0  0  0
   -0.7346    1.2385    0.6420 H   0  0  0  0  0  0  0  0  0  0  0  0
    1.8506    3.8920   -1.9199 N   0  0  0  0  0  0  0  0  0  0  0  0
    2.5131    4.8109   -2.0745 N   0  0  0  0  0  0  0  0  0  0  0  0
    4.9678   -0.4140   -4.6326 C   0  0  0  0  0  0  0  0  0  0  0  0
    6.3331   -0.5687   -4.3982 C   0  0  0  0  0  0  0  0  0  0  0  0
    7.1142    0.5251   -4.0009 C   0  0  0  0  0  0  0  0  0  0  0  0
    6.5001    1.7743   -3.8413 C   0  0  0  0  0  0  0  0  0  0  0  0
    5.1324    1.9351   -4.0709 C   0  0  0  0  0  0  0  0  0  0  0  0
    4.3660    0.8278   -4.4600 C   0  0  0  0  0  0  0  0  0  0  0  0
    4.3419   -1.2444   -4.9460 H   0  0  0  0  0  0  0  0  0  0  0  0
    6.7969   -1.5425   -4.5255 H   0  0  0  0  0  0  0  0  0  0  0  0
    7.0933    2.6333   -3.5318 H   0  0  0  0  0  0  0  0  0  0  0  0
    5.1067    3.8006   -3.6133 H   0  0  0  0  0  0  0  0  0  0  0  0
    2.6014    1.0129   -4.8029 S   0  0  2  0  0  0  0  0  0  0  0  0
    2.2216    1.2401   -3.1677 O   0  0  0  0  0  0  0  0  0  0  0  0
    2.1347   -0.3308   -5.2642 O   0  0  0  0  0  0  0  0  0  0  0  0
    4.4916    3.1310   -3.9390 O   0  0  0  0  0  0  0  0  0  0  0  0
    8.6006    0.3763   -3.7801 C   0  0  0  0  0  0  0  0  0  0  0  0
    8.8620   -0.6509   -3.5115 H   0  0  0  0  0  0  0  0  0  0  0  0
    9.1605    0.6285   -4.6895 H   0  0  0  0  0  0  0  0  0  0  0  0
    8.9583    1.0378   -2.9850 H   0  0  0  0  0  0  0  0  0  0  0  0
   -1.6009   -0.2559   -1.1594 O   0  0  0  0  0  0  0  0  0  0  0  0
   -2.0302   -1.1251   -2.1976 C   0  0  0  0  0  0  0  0  0  0  0  0
   -2.7360   -1.8196   -1.7392 H   0  0  0  0  0  0  0  0  0  0  0  0
   -1.1879   -1.6833   -2.6241 H   0  0  0  0  0  0  0  0  0  0  0  0
   -2.5330   -0.5699   -2.9997 H   0  0  0  0  0  0  0  0  0  0  0  0
  1  6  1  0  0  0  0
  2  8  1  6  0  0  0
  2  1  1  0  0  0  0
  2  3  1  0  0  0  0
  3  4  2  0  0  0  0
  4  5  1  0  0  0  0
  4  9  1  0  0  0  0
  5 10  1  0  0  0  0
  6 31  1  0  0  0  0
  6  5  2  0  0  0  0
  7  1  1  0  0  0  0
 11  3  1  0  0  0  0
 12 11  1  0  0  0  0
 13 18  2  0  0  0  0
 13 14  1  0  0  0  0
 14 15  2  0  0  0  0
 15 16  1  0  0  0  0
 15 27  1  0  0  0  0
 16 21  1  0  0  0  0
 17 26  1  0  0  0  0
 17 16  2  0  0  0  0
 18 17  1  0  0  0  0
 19 13  1  0  0  0  0
 20 14  1  0  0  0  0
 23 25  1  1  0  0  0
 23 18  1  0  0  0  0
 23 24  1  0  0  0  0
 24  2  1  0  0  0  0
 26 22  1  0  0  0  0
 27 28  1  0  0  0  0
 27 30  1  0  0  0  0
 29 27  1  0  0  0  0
 32 33  1  0  0  0  0
 32 31  1  0  0  0  0
 34 32  1  0  0  0  0
 35 32  1  0  0  0  0
M  RAD  4   1   2  11   2  12   3  25   2
M  END
