Coordinates from ORCA-job p-CH3O-Ph-N2-X-OTs-B3LYPG-6-31G_dp-scan-d09-49-n400
 OpenBabel08281821253D

 35 36  0  0  1  0  0  0  0  0999 V2000
   -0.1802    0.8998   -2.7010 C   0  0  0  0  0  0  0  0  0  0  0  0
    0.9448    1.8508   -2.9542 C   0  0  1  0  0  0  0  0  0  0  0  0
    1.1706    2.7629   -1.7729 C   0  0  0  0  0  0  0  0  0  0  0  0
    0.6042    2.5082   -0.4728 C   0  0  0  0  0  0  0  0  0  0  0  0
   -0.2985    1.5139   -0.3200 C   0  0  0  0  0  0  0  0  0  0  0  0
   -0.7086    0.7179   -1.4666 C   0  0  0  0  0  0  0  0  0  0  0  0
   -0.4898    0.3064   -3.5518 H   0  0  0  0  0  0  0  0  0  0  0  0
    0.7695    2.4376   -3.8667 H   0  0  0  0  0  0  0  0  0  0  0  0
    0.9154    3.1279    0.3619 H   0  0  0  0  0  0  0  0  0  0  0  0
   -0.7469    1.2890    0.6403 H   0  0  0  0  0  0  0  0  0  0  0  0
    1.9981    3.7640   -1.9362 N   0  0  0  0  0  0  0  0  0  0  0  0
    2.7297    4.6253   -2.1096 N   0  0  0  0  0  0  0  0  0  0  0  0
    5.0209   -0.4318   -4.6676 C   0  0  0  0  0  0  0  0  0  0  0  0
    6.3896   -0.5390   -4.4255 C   0  0  0  0  0  0  0  0  0  0  0  0
    7.1257    0.5754   -4.0004 C   0  0  0  0  0  0  0  0  0  0  0  0
    6.4638    1.7976   -3.8211 C   0  0  0  0  0  0  0  0  0  0  0  0
    5.0929    1.9105   -4.0586 C   0  0  0  0  0  0  0  0  0  0  0  0
    4.3719    0.7828   -4.4751 C   0  0  0  0  0  0  0  0  0  0  0  0
    4.4291   -1.2795   -5.0004 H   0  0  0  0  0  0  0  0  0  0  0  0
    6.8911   -1.4919   -4.5677 H   0  0  0  0  0  0  0  0  0  0  0  0
    7.0217    2.6724   -3.4913 H   0  0  0  0  0  0  0  0  0  0  0  0
    4.9764    3.7583   -3.5325 H   0  0  0  0  0  0  0  0  0  0  0  0
    2.6028    0.9131   -4.8197 S   0  0  2  0  0  0  0  0  0  0  0  0
    2.2091    1.1110   -3.1832 O   0  0  0  0  0  0  0  0  0  0  0  0
    2.1811   -0.4397   -5.2953 O   0  0  0  0  0  0  0  0  0  0  0  0
    4.4040    3.0779   -3.9099 O   0  0  0  0  0  0  0  0  0  0  0  0
    8.6151    0.4784   -3.7713 C   0  0  0  0  0  0  0  0  0  0  0  0
    8.9124   -0.5414   -3.5123 H   0  0  0  0  0  0  0  0  0  0  0  0
    9.1708    0.7611   -4.6743 H   0  0  0  0  0  0  0  0  0  0  0  0
    8.9432    1.1439   -2.9669 H   0  0  0  0  0  0  0  0  0  0  0  0
   -1.6799   -0.1816   -1.1471 O   0  0  0  0  0  0  0  0  0  0  0  0
   -2.1481   -1.0406   -2.1768 C   0  0  0  0  0  0  0  0  0  0  0  0
   -2.8889   -1.6940   -1.7134 H   0  0  0  0  0  0  0  0  0  0  0  0
   -1.3326   -1.6446   -2.5932 H   0  0  0  0  0  0  0  0  0  0  0  0
   -2.6201   -0.4707   -2.9872 H   0  0  0  0  0  0  0  0  0  0  0  0
  1  6  1  0  0  0  0
  2  8  1  6  0  0  0
  2  1  1  0  0  0  0
  2  3  1  0  0  0  0
  3  4  2  0  0  0  0
  4  5  1  0  0  0  0
  4  9  1  0  0  0  0
  5 10  1  0  0  0  0
  6 31  1  0  0  0  0
  6  5  2  0  0  0  0
  7  1  1  0  0  0  0
 11  3  1  0  0  0  0
 12 11  1  0  0  0  0
 13 18  2  0  0  0  0
 13 14  1  0  0  0  0
 14 15  2  0  0  0  0
 15 16  1  0  0  0  0
 15 27  1  0  0  0  0
 16 21  1  0  0  0  0
 17 26  1  0  0  0  0
 17 16  2  0  0  0  0
 18 17  1  0  0  0  0
 19 13  1  0  0  0  0
 20 14  1  0  0  0  0
 23 25  1  1  0  0  0
 23 18  1  0  0  0  0
 23 24  1  0  0  0  0
 24  2  1  0  0  0  0
 26 22  1  0  0  0  0
 27 28  1  0  0  0  0
 27 30  1  0  0  0  0
 29 27  1  0  0  0  0
 32 33  1  0  0  0  0
 32 31  1  0  0  0  0
 34 32  1  0  0  0  0
 35 32  1  0  0  0  0
M  RAD  4   1   2  11   2  12   3  25   2
M  END
