Coordinates from ORCA-job p-CH3O-Ph-N2-X-OTs-B3LYPG-6-31G_dp-scan-d09-49-n400
 OpenBabel08281821253D

 35 36  0  0  1  0  0  0  0  0999 V2000
   -0.1241    0.9322   -2.7085 C   0  0  0  0  0  0  0  0  0  0  0  0
    0.8850    2.0117   -2.9349 C   0  0  1  0  0  0  0  0  0  0  0  0
    0.9847    2.9280   -1.7430 C   0  0  0  0  0  0  0  0  0  0  0  0
    0.4643    2.5750   -0.4460 C   0  0  0  0  0  0  0  0  0  0  0  0
   -0.3049    1.4716   -0.3134 C   0  0  0  0  0  0  0  0  0  0  0  0
   -0.6210    0.6591   -1.4779 C   0  0  0  0  0  0  0  0  0  0  0  0
   -0.3569    0.3230   -3.5723 H   0  0  0  0  0  0  0  0  0  0  0  0
    0.6554    2.5856   -3.8442 H   0  0  0  0  0  0  0  0  0  0  0  0
    0.6966    3.2132    0.4005 H   0  0  0  0  0  0  0  0  0  0  0  0
   -0.7167    1.1712    0.6426 H   0  0  0  0  0  0  0  0  0  0  0  0
    1.6439    4.0501   -1.8913 N   0  0  0  0  0  0  0  0  0  0  0  0
    2.2146    5.0308   -2.0320 N   0  0  0  0  0  0  0  0  0  0  0  0
    4.8781   -0.3734   -4.5762 C   0  0  0  0  0  0  0  0  0  0  0  0
    6.2334   -0.6035   -4.3474 C   0  0  0  0  0  0  0  0  0  0  0  0
    7.0838    0.4538   -3.9958 C   0  0  0  0  0  0  0  0  0  0  0  0
    6.5480    1.7426   -3.8767 C   0  0  0  0  0  0  0  0  0  0  0  0
    5.1899    1.9796   -4.1008 C   0  0  0  0  0  0  0  0  0  0  0  0
    4.3537    0.9082   -4.4435 C   0  0  0  0  0  0  0  0  0  0  0  0
    4.2000   -1.1736   -4.8576 H   0  0  0  0  0  0  0  0  0  0  0  0
    6.6356   -1.6077   -4.4439 H   0  0  0  0  0  0  0  0  0  0  0  0
    7.1958    2.5738   -3.6023 H   0  0  0  0  0  0  0  0  0  0  0  0
    5.2987    3.8596   -3.7407 H   0  0  0  0  0  0  0  0  0  0  0  0
    2.5998    1.1789   -4.7875 S   0  0  2  0  0  0  0  0  0  0  0  0
    2.2320    1.4243   -3.1523 O   0  0  0  0  0  0  0  0  0  0  0  0
    2.0692   -0.1427   -5.2464 O   0  0  0  0  0  0  0  0  0  0  0  0
    4.6279    3.2174   -4.0058 O   0  0  0  0  0  0  0  0  0  0  0  0
    8.5605    0.2219   -3.7809 C   0  0  0  0  0  0  0  0  0  0  0  0
    8.7601   -0.8079   -3.4722 H   0  0  0  0  0  0  0  0  0  0  0  0
    9.1256    0.4008   -4.7043 H   0  0  0  0  0  0  0  0  0  0  0  0
    8.9668    0.8913   -3.0164 H   0  0  0  0  0  0  0  0  0  0  0  0
   -1.4750   -0.3589   -1.1789 O   0  0  0  0  0  0  0  0  0  0  0  0
   -1.8337   -1.2473   -2.2278 C   0  0  0  0  0  0  0  0  0  0  0  0
   -2.4829   -2.0005   -1.7783 H   0  0  0  0  0  0  0  0  0  0  0  0
   -0.9498   -1.7320   -2.6593 H   0  0  0  0  0  0  0  0  0  0  0  0
   -2.3781   -0.7247   -3.0248 H   0  0  0  0  0  0  0  0  0  0  0  0
  1  6  1  0  0  0  0
  2  8  1  6  0  0  0
  2  1  1  0  0  0  0
  2  3  1  0  0  0  0
  3  4  2  0  0  0  0
  4  5  1  0  0  0  0
  4  9  1  0  0  0  0
  5 10  1  0  0  0  0
  6 31  1  0  0  0  0
  6  5  2  0  0  0  0
  7  1  1  0  0  0  0
 11  3  1  0  0  0  0
 12 11  1  0  0  0  0
 13 18  2  0  0  0  0
 13 14  1  0  0  0  0
 14 15  2  0  0  0  0
 15 16  1  0  0  0  0
 15 27  1  0  0  0  0
 16 21  1  0  0  0  0
 17 26  1  0  0  0  0
 17 16  2  0  0  0  0
 18 17  1  0  0  0  0
 19 13  1  0  0  0  0
 20 14  1  0  0  0  0
 23 25  1  1  0  0  0
 23 18  1  0  0  0  0
 23 24  1  0  0  0  0
 24  2  1  0  0  0  0
 26 22  1  0  0  0  0
 27 28  1  0  0  0  0
 27 30  1  0  0  0  0
 29 27  1  0  0  0  0
 32 33  1  0  0  0  0
 32 31  1  0  0  0  0
 34 32  1  0  0  0  0
 35 32  1  0  0  0  0
M  RAD  4   1   2  11   2  12   3  25   2
M  END
