Coordinates from ORCA-job p-CH3O-Ph-N2-X-OTs-B3LYPG-6-31G_dp-scan-d09-49-n400
 OpenBabel08281821253D

 35 36  0  0  1  0  0  0  0  0999 V2000
   -0.1093    0.9420   -2.7107 C   0  0  0  0  0  0  0  0  0  0  0  0
    0.8741    2.0471   -2.9277 C   0  0  1  0  0  0  0  0  0  0  0  0
    0.9475    2.9577   -1.7300 C   0  0  0  0  0  0  0  0  0  0  0  0
    0.4376    2.5807   -0.4353 C   0  0  0  0  0  0  0  0  0  0  0  0
   -0.3021    1.4564   -0.3112 C   0  0  0  0  0  0  0  0  0  0  0  0
   -0.5982    0.6460   -1.4823 C   0  0  0  0  0  0  0  0  0  0  0  0
   -0.3255    0.3338   -3.5795 H   0  0  0  0  0  0  0  0  0  0  0  0
    0.6333    2.6211   -3.8341 H   0  0  0  0  0  0  0  0  0  0  0  0
    0.6532    3.2184    0.4159 H   0  0  0  0  0  0  0  0  0  0  0  0
   -0.7051    1.1377    0.6426 H   0  0  0  0  0  0  0  0  0  0  0  0
    1.5688    4.1024   -1.8704 N   0  0  0  0  0  0  0  0  0  0  0  0
    2.1045    5.1038   -2.0021 N   0  0  0  0  0  0  0  0  0  0  0  0
    4.8430   -0.3596   -4.5443 C   0  0  0  0  0  0  0  0  0  0  0  0
    6.1937   -0.6154   -4.3168 C   0  0  0  0  0  0  0  0  0  0  0  0
    7.0697    0.4298   -3.9925 C   0  0  0  0  0  0  0  0  0  0  0  0
    6.5637    1.7325   -3.8994 C   0  0  0  0  0  0  0  0  0  0  0  0
    5.2099    1.9955   -4.1222 C   0  0  0  0  0  0  0  0  0  0  0  0
    4.3480    0.9362   -4.4372 C   0  0  0  0  0  0  0  0  0  0  0  0
    4.1458   -1.1499   -4.8061 H   0  0  0  0  0  0  0  0  0  0  0  0
    6.5727   -1.6303   -4.3933 H   0  0  0  0  0  0  0  0  0  0  0  0
    7.2315    2.5547   -3.6463 H   0  0  0  0  0  0  0  0  0  0  0  0
    5.3666    3.8798   -3.8098 H   0  0  0  0  0  0  0  0  0  0  0  0
    2.5981    1.2356   -4.7797 S   0  0  2  0  0  0  0  0  0  0  0  0
    2.2358    1.4926   -3.1447 O   0  0  0  0  0  0  0  0  0  0  0  0
    2.0453   -0.0796   -5.2319 O   0  0  0  0  0  0  0  0  0  0  0  0
    4.6775    3.2477   -4.0519 O   0  0  0  0  0  0  0  0  0  0  0  0
    8.5418    0.1688   -3.7795 C   0  0  0  0  0  0  0  0  0  0  0  0
    8.7184   -0.8549   -3.4380 H   0  0  0  0  0  0  0  0  0  0  0  0
    9.1043    0.3028   -4.7120 H   0  0  0  0  0  0  0  0  0  0  0  0
    8.9700    0.8529   -3.0403 H   0  0  0  0  0  0  0  0  0  0  0  0
   -1.4259   -0.3960   -1.1919 O   0  0  0  0  0  0  0  0  0  0  0  0
   -1.7597   -1.2855   -2.2482 C   0  0  0  0  0  0  0  0  0  0  0  0
   -2.3887   -2.0594   -1.8053 H   0  0  0  0  0  0  0  0  0  0  0  0
   -0.8626   -1.7424   -2.6826 H   0  0  0  0  0  0  0  0  0  0  0  0
   -2.3172   -0.7714   -3.0417 H   0  0  0  0  0  0  0  0  0  0  0  0
  1  6  1  0  0  0  0
  2  8  1  6  0  0  0
  2  1  1  0  0  0  0
  2  3  1  0  0  0  0
  3  4  2  0  0  0  0
  4  5  1  0  0  0  0
  4  9  1  0  0  0  0
  5 10  1  0  0  0  0
  6 31  1  0  0  0  0
  6  5  2  0  0  0  0
  7  1  1  0  0  0  0
 11  3  1  0  0  0  0
 12 11  1  0  0  0  0
 13 18  2  0  0  0  0
 13 14  1  0  0  0  0
 14 15  2  0  0  0  0
 15 16  1  0  0  0  0
 15 27  1  0  0  0  0
 16 21  1  0  0  0  0
 17 26  1  0  0  0  0
 17 16  2  0  0  0  0
 18 17  1  0  0  0  0
 19 13  1  0  0  0  0
 20 14  1  0  0  0  0
 23 25  1  1  0  0  0
 23 18  1  0  0  0  0
 23 24  1  0  0  0  0
 24  2  1  0  0  0  0
 26 22  1  0  0  0  0
 27 28  1  0  0  0  0
 27 30  1  0  0  0  0
 29 27  1  0  0  0  0
 32 33  1  0  0  0  0
 32 31  1  0  0  0  0
 34 32  1  0  0  0  0
 35 32  1  0  0  0  0
M  RAD  4   1   2  11   2  12   3  25   2
M  END
