Coordinates from ORCA-job p-CH3O-Ph-N2-X-OTs-B3LYPG-6-31G_dp-scan-d09-49-n400
 OpenBabel08281821253D

 35 36  0  0  1  0  0  0  0  0999 V2000
   -0.0520    0.9619   -2.7181 C   0  0  0  0  0  0  0  0  0  0  0  0
    0.8352    2.1493   -2.9164 C   0  0  1  0  0  0  0  0  0  0  0  0
    0.8237    3.0453   -1.7066 C   0  0  0  0  0  0  0  0  0  0  0  0
    0.3690    2.5957   -0.4138 C   0  0  0  0  0  0  0  0  0  0  0  0
   -0.2611    1.4049   -0.3060 C   0  0  0  0  0  0  0  0  0  0  0  0
   -0.5003    0.5984   -1.4924 C   0  0  0  0  0  0  0  0  0  0  0  0
   -0.2188    0.3551   -3.5985 H   0  0  0  0  0  0  0  0  0  0  0  0
    0.5485    2.7139   -3.8154 H   0  0  0  0  0  0  0  0  0  0  0  0
    0.5332    3.2345    0.4481 H   0  0  0  0  0  0  0  0  0  0  0  0
   -0.6202    1.0304    0.6451 H   0  0  0  0  0  0  0  0  0  0  0  0
    1.2949    4.2612   -1.8339 N   0  0  0  0  0  0  0  0  0  0  0  0
    1.6931    5.3270   -1.9462 N   0  0  0  0  0  0  0  0  0  0  0  0
    4.7233   -0.2925   -4.4570 C   0  0  0  0  0  0  0  0  0  0  0  0
    6.0521   -0.6401   -4.2255 C   0  0  0  0  0  0  0  0  0  0  0  0
    7.0115    0.3504   -3.9719 C   0  0  0  0  0  0  0  0  0  0  0  0
    6.6097    1.6916   -3.9537 C   0  0  0  0  0  0  0  0  0  0  0  0
    5.2773    2.0471   -4.1804 C   0  0  0  0  0  0  0  0  0  0  0  0
    4.3312    1.0428   -4.4235 C   0  0  0  0  0  0  0  0  0  0  0  0
    3.9644   -1.0392   -4.6709 H   0  0  0  0  0  0  0  0  0  0  0  0
    6.3496   -1.6847   -4.2443 H   0  0  0  0  0  0  0  0  0  0  0  0
    7.3427    2.4728   -3.7574 H   0  0  0  0  0  0  0  0  0  0  0  0
    5.5932    3.9269   -3.9970 H   0  0  0  0  0  0  0  0  0  0  0  0
    2.6028    1.4491   -4.7724 S   0  0  2  0  0  0  0  0  0  0  0  0
    2.2406    1.7094   -3.1357 O   0  0  0  0  0  0  0  0  0  0  0  0
    1.9774    0.1691   -5.2347 O   0  0  0  0  0  0  0  0  0  0  0  0
    4.8489    3.3401   -4.1830 O   0  0  0  0  0  0  0  0  0  0  0  0
    8.4614   -0.0134   -3.7573 C   0  0  0  0  0  0  0  0  0  0  0  0
    8.5596   -1.0135   -3.3257 H   0  0  0  0  0  0  0  0  0  0  0  0
    9.0112   -0.0116   -4.7065 H   0  0  0  0  0  0  0  0  0  0  0  0
    8.9610    0.6958   -3.0902 H   0  0  0  0  0  0  0  0  0  0  0  0
   -1.2334   -0.5167   -1.2189 O   0  0  0  0  0  0  0  0  0  0  0  0
   -1.5073   -1.4032   -2.2948 C   0  0  0  0  0  0  0  0  0  0  0  0
   -2.0687   -2.2351   -1.8668 H   0  0  0  0  0  0  0  0  0  0  0  0
   -0.5819   -1.7765   -2.7490 H   0  0  0  0  0  0  0  0  0  0  0  0
   -2.1117   -0.9145   -3.0700 H   0  0  0  0  0  0  0  0  0  0  0  0
  1  6  1  0  0  0  0
  2  8  1  6  0  0  0
  2  1  1  0  0  0  0
  2  3  1  0  0  0  0
  3  4  2  0  0  0  0
  4  5  1  0  0  0  0
  4  9  1  0  0  0  0
  5 10  1  0  0  0  0
  6 31  1  0  0  0  0
  6  5  2  0  0  0  0
  7  1  1  0  0  0  0
 11  3  1  0  0  0  0
 12 11  1  0  0  0  0
 13 18  2  0  0  0  0
 13 14  1  0  0  0  0
 14 15  2  0  0  0  0
 15 16  1  0  0  0  0
 15 27  1  0  0  0  0
 16 21  1  0  0  0  0
 17 16  2  0  0  0  0
 18 17  1  0  0  0  0
 19 13  1  0  0  0  0
 20 14  1  0  0  0  0
 23 25  1  1  0  0  0
 23 18  1  0  0  0  0
 23 24  1  0  0  0  0
 24  2  1  0  0  0  0
 26 17  1  0  0  0  0
 26 22  1  0  0  0  0
 27 28  1  0  0  0  0
 27 30  1  0  0  0  0
 29 27  1  0  0  0  0
 32 33  1  0  0  0  0
 32 31  1  0  0  0  0
 34 32  1  0  0  0  0
 35 32  1  0  0  0  0
M  RAD  4   1   2  11   2  12   3  25   2
M  END
