Coordinates from ORCA-job p-CH3O-Ph-N2-X-OTs-B3LYPG-6-31G_dp-scan-d09-49-n400
 OpenBabel08281821253D

 35 36  0  0  1  0  0  0  0  0999 V2000
   -0.0902    0.9503   -2.7132 C   0  0  0  0  0  0  0  0  0  0  0  0
    0.8602    2.0854   -2.9234 C   0  0  1  0  0  0  0  0  0  0  0  0
    0.9028    2.9921   -1.7217 C   0  0  0  0  0  0  0  0  0  0  0  0
    0.4092    2.5901   -0.4281 C   0  0  0  0  0  0  0  0  0  0  0  0
   -0.2931    1.4414   -0.3097 C   0  0  0  0  0  0  0  0  0  0  0  0
   -0.5670    0.6308   -1.4860 C   0  0  0  0  0  0  0  0  0  0  0  0
   -0.2875    0.3412   -3.5858 H   0  0  0  0  0  0  0  0  0  0  0  0
    0.6039    2.6561   -3.8276 H   0  0  0  0  0  0  0  0  0  0  0  0
    0.6054    3.2294    0.4267 H   0  0  0  0  0  0  0  0  0  0  0  0
   -0.6831    1.1035    0.6429 H   0  0  0  0  0  0  0  0  0  0  0  0
    1.4749    4.1628   -1.8577 N   0  0  0  0  0  0  0  0  0  0  0  0
    1.9657    5.1877   -1.9834 N   0  0  0  0  0  0  0  0  0  0  0  0
    4.8025   -0.3393   -4.5170 C   0  0  0  0  0  0  0  0  0  0  0  0
    6.1468   -0.6266   -4.2896 C   0  0  0  0  0  0  0  0  0  0  0  0
    7.0512    0.4008   -3.9872 C   0  0  0  0  0  0  0  0  0  0  0  0
    6.5799    1.7177   -3.9160 C   0  0  0  0  0  0  0  0  0  0  0  0
    5.2325    2.0124   -4.1387 C   0  0  0  0  0  0  0  0  0  0  0  0
    4.3418    0.9710   -4.4315 C   0  0  0  0  0  0  0  0  0  0  0  0
    4.0841   -1.1152   -4.7641 H   0  0  0  0  0  0  0  0  0  0  0  0
    6.4986   -1.6524   -4.3493 H   0  0  0  0  0  0  0  0  0  0  0  0
    7.2700    2.5265   -3.6803 H   0  0  0  0  0  0  0  0  0  0  0  0
    5.4433    3.8968   -3.8662 H   0  0  0  0  0  0  0  0  0  0  0  0
    2.5983    1.3068   -4.7753 S   0  0  2  0  0  0  0  0  0  0  0  0
    2.2387    1.5712   -3.1403 O   0  0  0  0  0  0  0  0  0  0  0  0
    2.0192    0.0020   -5.2258 O   0  0  0  0  0  0  0  0  0  0  0  0
    4.7347    3.2796   -4.0892 O   0  0  0  0  0  0  0  0  0  0  0  0
    8.5169    0.1047   -3.7753 C   0  0  0  0  0  0  0  0  0  0  0  0
    8.6665   -0.9123   -3.4021 H   0  0  0  0  0  0  0  0  0  0  0  0
    9.0757    0.1924   -4.7154 H   0  0  0  0  0  0  0  0  0  0  0  0
    8.9699    0.7994   -3.0613 H   0  0  0  0  0  0  0  0  0  0  0  0
   -1.3618   -0.4382   -1.2016 O   0  0  0  0  0  0  0  0  0  0  0  0
   -1.6702   -1.3295   -2.2642 C   0  0  0  0  0  0  0  0  0  0  0  0
   -2.2752   -2.1251   -1.8265 H   0  0  0  0  0  0  0  0  0  0  0  0
   -0.7604   -1.7559   -2.7031 H   0  0  0  0  0  0  0  0  0  0  0  0
   -2.2438   -0.8263   -3.0533 H   0  0  0  0  0  0  0  0  0  0  0  0
  1  6  1  0  0  0  0
  2  8  1  6  0  0  0
  2  1  1  0  0  0  0
  2  3  1  0  0  0  0
  3  4  2  0  0  0  0
  4  5  1  0  0  0  0
  4  9  1  0  0  0  0
  5 10  1  0  0  0  0
  6 31  1  0  0  0  0
  6  5  2  0  0  0  0
  7  1  1  0  0  0  0
 11  3  1  0  0  0  0
 12 11  1  0  0  0  0
 13 18  2  0  0  0  0
 13 14  1  0  0  0  0
 14 15  2  0  0  0  0
 15 16  1  0  0  0  0
 15 27  1  0  0  0  0
 16 21  1  0  0  0  0
 17 26  1  0  0  0  0
 17 16  2  0  0  0  0
 18 17  1  0  0  0  0
 19 13  1  0  0  0  0
 20 14  1  0  0  0  0
 23 25  1  1  0  0  0
 23 18  1  0  0  0  0
 23 24  1  0  0  0  0
 24  2  1  0  0  0  0
 26 22  1  0  0  0  0
 27 28  1  0  0  0  0
 27 30  1  0  0  0  0
 29 27  1  0  0  0  0
 32 33  1  0  0  0  0
 32 31  1  0  0  0  0
 34 32  1  0  0  0  0
 35 32  1  0  0  0  0
M  RAD  4   1   2  11   2  12   3  25   2
M  END
