Coordinates from ORCA-job p-CH3O-Ph-N2-X-OTs-B3LYPG-6-31G_dp-scan-d09-49-n400
 OpenBabel08281821253D

 35 35  0  0  1  0  0  0  0  0999 V2000
   -0.0125    0.4077   -3.2878 C   0  0  0  0  0  0  0  0  0  0  0  0
    0.8474    1.5055   -3.8255 C   0  0  1  0  0  0  0  0  0  0  0  0
    0.8067    2.7476   -2.9315 C   0  0  0  0  0  0  0  0  0  0  0  0
    0.3218    2.6869   -1.5820 C   0  0  0  0  0  0  0  0  0  0  0  0
   -0.3105    1.5642   -1.1541 C   0  0  0  0  0  0  0  0  0  0  0  0
   -0.5164    0.4191   -2.0326 C   0  0  0  0  0  0  0  0  0  0  0  0
   -0.1566   -0.4578   -3.9241 H   0  0  0  0  0  0  0  0  0  0  0  0
    0.5249    1.7769   -4.8402 H   0  0  0  0  0  0  0  0  0  0  0  0
    0.4697    3.5409   -0.9307 H   0  0  0  0  0  0  0  0  0  0  0  0
   -0.6692    1.5257   -0.1330 H   0  0  0  0  0  0  0  0  0  0  0  0
    1.3196    3.8330   -3.4050 N   0  0  0  0  0  0  0  0  0  0  0  0
    1.8067    4.7655   -3.9091 N   0  0  0  0  0  0  0  0  0  0  0  0
    5.3299   -0.0939   -5.0524 C   0  0  0  0  0  0  0  0  0  0  0  0
    6.5732   -0.4229   -4.5153 C   0  0  0  0  0  0  0  0  0  0  0  0
    7.1528    0.3565   -3.5036 C   0  0  0  0  0  0  0  0  0  0  0  0
    6.4573    1.4851   -3.0420 C   0  0  0  0  0  0  0  0  0  0  0  0
    5.2116    1.8311   -3.5601 C   0  0  0  0  0  0  0  0  0  0  0  0
    4.6603    1.0240   -4.5598 C   0  0  0  0  0  0  0  0  0  0  0  0
    4.8748   -0.6805   -5.8442 H   0  0  0  0  0  0  0  0  0  0  0  0
    7.1052   -1.2938   -4.8898 H   0  0  0  0  0  0  0  0  0  0  0  0
    6.9014    2.1041   -2.2661 H   0  0  0  0  0  0  0  0  0  0  0  0
    4.6663    2.7100   -3.2153 H   0  0  0  0  0  0  0  0  0  0  0  0
    3.0841    1.4815   -5.3050 S   0  0  2  0  0  0  0  0  0  0  0  0
    2.2082    1.0268   -3.8623 O   0  0  0  0  0  0  0  0  0  0  0  0
    2.7929    0.4684   -6.3619 O   0  0  0  0  0  0  0  0  0  0  0  0
    3.7308    4.4901   -3.7223 O   0  0  0  0  0  0  0  0  0  0  0  0
    8.4900   -0.0173   -2.9095 C   0  0  0  0  0  0  0  0  0  0  0  0
    9.0542   -0.6765   -3.5756 H   0  0  0  0  0  0  0  0  0  0  0  0
    9.1000    0.8690   -2.7090 H   0  0  0  0  0  0  0  0  0  0  0  0
    8.3629   -0.5449   -1.9559 H   0  0  0  0  0  0  0  0  0  0  0  0
   -1.2151   -0.6782   -1.6220 O   0  0  0  0  0  0  0  0  0  0  0  0
   -1.8883   -0.6635   -0.3699 C   0  0  0  0  0  0  0  0  0  0  0  0
   -2.4237   -1.6121   -0.3141 H   0  0  0  0  0  0  0  0  0  0  0  0
   -2.6120    0.1583   -0.3014 H   0  0  0  0  0  0  0  0  0  0  0  0
   -1.1884   -0.6051    0.4729 H   0  0  0  0  0  0  0  0  0  0  0  0
  1  6  2  0  0  0  0
  2  8  1  6  0  0  0
  2  1  1  0  0  0  0
  2  3  1  0  0  0  0
  3  4  2  0  0  0  0
  4  5  1  0  0  0  0
  4  9  1  0  0  0  0
  5 10  1  0  0  0  0
  6 31  1  0  0  0  0
  6  5  1  0  0  0  0
  7  1  1  0  0  0  0
 11  3  1  0  0  0  0
 12 11  1  0  0  0  0
 13 18  2  0  0  0  0
 13 14  1  0  0  0  0
 14 15  2  0  0  0  0
 15 16  1  0  0  0  0
 15 27  1  0  0  0  0
 16 21  1  0  0  0  0
 17 22  1  0  0  0  0
 17 16  2  0  0  0  0
 18 17  1  0  0  0  0
 19 13  1  0  0  0  0
 20 14  1  0  0  0  0
 23 25  1  6  0  0  0
 23 18  1  0  0  0  0
 23 24  1  0  0  0  0
 24  2  1  0  0  0  0
 27 29  1  0  0  0  0
 27 30  1  0  0  0  0
 28 27  1  0  0  0  0
 31 32  1  0  0  0  0
 32 33  1  0  0  0  0
 32 34  1  0  0  0  0
 32 35  1  0  0  0  0
M  RAD  5   5   2  11   2  12   3  25   2  26   3
M  END
