Coordinates from ORCA-job p-CH3O-Ph-N2-X-OTs-B3LYPG-6-31G_dp-scan-d09-49-n400
 OpenBabel08281821253D

 35 36  0  0  1  0  0  0  0  0999 V2000
   -0.0695    0.9574   -2.7158 C   0  0  0  0  0  0  0  0  0  0  0  0
    0.8462    2.1220   -2.9189 C   0  0  1  0  0  0  0  0  0  0  0  0
    0.8583    3.0229   -1.7125 C   0  0  0  0  0  0  0  0  0  0  0  0
    0.3849    2.5941   -0.4196 C   0  0  0  0  0  0  0  0  0  0  0  0
   -0.2778    1.4216   -0.3076 C   0  0  0  0  0  0  0  0  0  0  0  0
   -0.5316    0.6131   -1.4897 C   0  0  0  0  0  0  0  0  0  0  0  0
   -0.2492    0.3493   -3.5929 H   0  0  0  0  0  0  0  0  0  0  0  0
    0.5735    2.6897   -3.8203 H   0  0  0  0  0  0  0  0  0  0  0  0
    0.5628    3.2333    0.4392 H   0  0  0  0  0  0  0  0  0  0  0  0
   -0.6518    1.0632    0.6440 H   0  0  0  0  0  0  0  0  0  0  0  0
    1.3756    4.2195   -1.8432 N   0  0  0  0  0  0  0  0  0  0  0  0
    1.8161    5.2680   -1.9611 N   0  0  0  0  0  0  0  0  0  0  0  0
    4.7591   -0.3150   -4.4833 C   0  0  0  0  0  0  0  0  0  0  0  0
    6.0954   -0.6354   -4.2544 C   0  0  0  0  0  0  0  0  0  0  0  0
    7.0303    0.3725   -3.9795 C   0  0  0  0  0  0  0  0  0  0  0  0
    6.5971    1.7034   -3.9373 C   0  0  0  0  0  0  0  0  0  0  0  0
    5.2573    2.0315   -4.1615 C   0  0  0  0  0  0  0  0  0  0  0  0
    4.3359    1.0098   -4.4263 C   0  0  0  0  0  0  0  0  0  0  0  0
    4.0182   -1.0753   -4.7116 H   0  0  0  0  0  0  0  0  0  0  0  0
    6.4175   -1.6721   -4.2917 H   0  0  0  0  0  0  0  0  0  0  0  0
    7.3110    2.4976   -3.7237 H   0  0  0  0  0  0  0  0  0  0  0  0
    5.5261    3.9146   -3.9388 H   0  0  0  0  0  0  0  0  0  0  0  0
    2.6003    1.3842   -4.7724 S   0  0  2  0  0  0  0  0  0  0  0  0
    2.2403    1.6489   -3.1367 O   0  0  0  0  0  0  0  0  0  0  0  0
    1.9952    0.0922   -5.2273 O   0  0  0  0  0  0  0  0  0  0  0  0
    4.7974    3.3136   -4.1403 O   0  0  0  0  0  0  0  0  0  0  0  0
    8.4879    0.0392   -3.7671 C   0  0  0  0  0  0  0  0  0  0  0  0
    8.6092   -0.9687   -3.3602 H   0  0  0  0  0  0  0  0  0  0  0  0
    9.0417    0.0780   -4.7133 H   0  0  0  0  0  0  0  0  0  0  0  0
    8.9671    0.7435   -3.0801 H   0  0  0  0  0  0  0  0  0  0  0  0
   -1.2924   -0.4821   -1.2118 O   0  0  0  0  0  0  0  0  0  0  0  0
   -1.5800   -1.3712   -2.2820 C   0  0  0  0  0  0  0  0  0  0  0  0
   -2.1610   -2.1876   -1.8501 H   0  0  0  0  0  0  0  0  0  0  0  0
   -0.6605   -1.7677   -2.7285 H   0  0  0  0  0  0  0  0  0  0  0  0
   -2.1703   -0.8763   -3.0641 H   0  0  0  0  0  0  0  0  0  0  0  0
  1  6  1  0  0  0  0
  2  8  1  6  0  0  0
  2  1  1  0  0  0  0
  2  3  1  0  0  0  0
  3  4  2  0  0  0  0
  4  5  1  0  0  0  0
  4  9  1  0  0  0  0
  5 10  1  0  0  0  0
  6 31  1  0  0  0  0
  6  5  2  0  0  0  0
  7  1  1  0  0  0  0
 11  3  1  0  0  0  0
 12 11  1  0  0  0  0
 13 18  2  0  0  0  0
 13 14  1  0  0  0  0
 14 15  2  0  0  0  0
 15 16  1  0  0  0  0
 15 27  1  0  0  0  0
 16 21  1  0  0  0  0
 17 26  1  0  0  0  0
 17 16  2  0  0  0  0
 18 17  1  0  0  0  0
 19 13  1  0  0  0  0
 20 14  1  0  0  0  0
 23 25  1  1  0  0  0
 23 18  1  0  0  0  0
 23 24  1  0  0  0  0
 24  2  1  0  0  0  0
 26 22  1  0  0  0  0
 27 28  1  0  0  0  0
 27 30  1  0  0  0  0
 29 27  1  0  0  0  0
 32 33  1  0  0  0  0
 32 31  1  0  0  0  0
 34 32  1  0  0  0  0
 35 32  1  0  0  0  0
M  RAD  4   1   2  11   2  12   3  25   2
M  END
