Coordinates from ORCA-job p-CH3O-Ph-N2-X-OTs-B3LYPG-6-31G_dp-scan-d09-49-n400
 OpenBabel08281821253D

 35 36  0  0  1  0  0  0  0  0999 V2000
    0.1911    0.5180   -3.0832 C   0  0  0  0  0  0  0  0  0  0  0  0
    1.0825    1.6884   -3.3421 C   0  0  1  0  0  0  0  0  0  0  0  0
    0.9590    2.8242   -2.3328 C   0  0  0  0  0  0  0  0  0  0  0  0
   -0.0034    2.7282   -1.2774 C   0  0  0  0  0  0  0  0  0  0  0  0
   -0.8046    1.6340   -1.1625 C   0  0  0  0  0  0  0  0  0  0  0  0
   -0.7111    0.5055   -2.0739 C   0  0  0  0  0  0  0  0  0  0  0  0
    0.3075   -0.3407   -3.7351 H   0  0  0  0  0  0  0  0  0  0  0  0
    0.8125    2.1621   -4.3102 H   0  0  0  0  0  0  0  0  0  0  0  0
   -0.0647    3.5512   -0.5735 H   0  0  0  0  0  0  0  0  0  0  0  0
   -1.5241    1.6010   -0.3520 H   0  0  0  0  0  0  0  0  0  0  0  0
    1.7155    3.8833   -2.4218 N   0  0  0  0  0  0  0  0  0  0  0  0
    2.3540    4.1658   -3.5185 N   0  0  0  0  0  0  0  0  0  0  0  0
    5.3133   -0.4875   -4.6480 C   0  0  0  0  0  0  0  0  0  0  0  0
    6.6551   -0.6308   -4.3041 C   0  0  0  0  0  0  0  0  0  0  0  0
    7.3966    0.4557   -3.8144 C   0  0  0  0  0  0  0  0  0  0  0  0
    6.7595    1.6980   -3.6822 C   0  0  0  0  0  0  0  0  0  0  0  0
    5.4177    1.8643   -4.0215 C   0  0  0  0  0  0  0  0  0  0  0  0
    4.7065    0.7583   -4.4922 C   0  0  0  0  0  0  0  0  0  0  0  0
    4.7299   -1.3183   -5.0323 H   0  0  0  0  0  0  0  0  0  0  0  0
    7.1370   -1.5985   -4.4208 H   0  0  0  0  0  0  0  0  0  0  0  0
    7.3210    2.5500   -3.3085 H   0  0  0  0  0  0  0  0  0  0  0  0
    4.9359    2.8319   -3.9070 H   0  0  0  0  0  0  0  0  0  0  0  0
    2.9934    0.9517   -5.0183 S   0  0  2  0  0  0  0  0  0  0  0  0
    2.4575    1.2722   -3.4066 O   0  0  0  0  0  0  0  0  0  0  0  0
    2.5137   -0.3975   -5.4427 O   0  0  0  0  0  0  0  0  0  0  0  0
    3.6602    4.6487   -3.2900 O   0  0  0  0  0  0  0  0  0  0  0  0
    8.8452    0.2818   -3.4253 C   0  0  0  0  0  0  0  0  0  0  0  0
    9.3849   -0.3299   -4.1553 H   0  0  0  0  0  0  0  0  0  0  0  0
    9.3563    1.2445   -3.3432 H   0  0  0  0  0  0  0  0  0  0  0  0
    8.9321   -0.2225   -2.4548 H   0  0  0  0  0  0  0  0  0  0  0  0
   -1.4951   -0.6023   -1.9347 O   0  0  0  0  0  0  0  0  0  0  0  0
   -2.4288   -0.6799   -0.8671 C   0  0  0  0  0  0  0  0  0  0  0  0
   -2.9128   -1.6517   -0.9711 H   0  0  0  0  0  0  0  0  0  0  0  0
   -3.1943    0.1044   -0.9308 H   0  0  0  0  0  0  0  0  0  0  0  0
   -1.9388   -0.6321    0.1135 H   0  0  0  0  0  0  0  0  0  0  0  0
  1  6  2  0  0  0  0
  2  8  1  6  0  0  0
  2  1  1  0  0  0  0
  2  3  1  0  0  0  0
  3  4  2  0  0  0  0
  4  5  1  0  0  0  0
  4  9  1  0  0  0  0
  5 10  1  0  0  0  0
  6 31  1  0  0  0  0
  6  5  1  0  0  0  0
  7  1  1  0  0  0  0
 11  3  1  0  0  0  0
 12 26  1  0  0  0  0
 12 11  1  0  0  0  0
 13 18  2  0  0  0  0
 13 14  1  0  0  0  0
 14 15  2  0  0  0  0
 15 16  1  0  0  0  0
 15 27  1  0  0  0  0
 16 21  1  0  0  0  0
 17 22  1  0  0  0  0
 17 16  2  0  0  0  0
 18 17  1  0  0  0  0
 19 13  1  0  0  0  0
 20 14  1  0  0  0  0
 23 25  1  1  0  0  0
 23 18  1  0  0  0  0
 23 24  1  0  0  0  0
 24  2  1  0  0  0  0
 27 29  1  0  0  0  0
 27 30  1  0  0  0  0
 28 27  1  0  0  0  0
 31 32  1  0  0  0  0
 32 35  1  0  0  0  0
 33 32  1  0  0  0  0
 34 32  1  0  0  0  0
M  RAD  5   5   2  11   2  12   2  25   2  26   2
M  END
