Coordinates from ORCA-job p-CH3O-Ph-N2-X-OTs-B3LYPG-6-31G_dp-scan-d09-49-n400
 OpenBabel08281821253D

 35 36  0  0  1  0  0  0  0  0999 V2000
   -0.1969    0.8323   -2.6549 C   0  0  0  0  0  0  0  0  0  0  0  0
    1.0084    1.6862   -2.8860 C   0  0  1  0  0  0  0  0  0  0  0  0
    1.3231    2.5412   -1.6786 C   0  0  0  0  0  0  0  0  0  0  0  0
    0.5993    2.4528   -0.4386 C   0  0  0  0  0  0  0  0  0  0  0  0
   -0.4502    1.6076   -0.3297 C   0  0  0  0  0  0  0  0  0  0  0  0
   -0.8440    0.7869   -1.4653 C   0  0  0  0  0  0  0  0  0  0  0  0
   -0.5020    0.2248   -3.4976 H   0  0  0  0  0  0  0  0  0  0  0  0
    0.8789    2.3128   -3.7813 H   0  0  0  0  0  0  0  0  0  0  0  0
    0.9269    3.0623    0.3973 H   0  0  0  0  0  0  0  0  0  0  0  0
   -1.0138    1.5058    0.5900 H   0  0  0  0  0  0  0  0  0  0  0  0
    2.3835    3.3035   -1.7739 N   0  0  0  0  0  0  0  0  0  0  0  0
    3.3392    3.9016   -1.9696 N   0  0  0  0  0  0  0  0  0  0  0  0
    5.1107   -0.4506   -4.6305 C   0  0  0  0  0  0  0  0  0  0  0  0
    6.4866   -0.4693   -4.4093 C   0  0  0  0  0  0  0  0  0  0  0  0
    7.1629    0.7008   -4.0369 C   0  0  0  0  0  0  0  0  0  0  0  0
    6.4323    1.8868   -3.8872 C   0  0  0  0  0  0  0  0  0  0  0  0
    5.0532    1.9112   -4.1038 C   0  0  0  0  0  0  0  0  0  0  0  0
    4.3923    0.7294   -4.4673 C   0  0  0  0  0  0  0  0  0  0  0  0
    4.5660   -1.3414   -4.9293 H   0  0  0  0  0  0  0  0  0  0  0  0
    7.0412   -1.3956   -4.5286 H   0  0  0  0  0  0  0  0  0  0  0  0
    6.9420    2.8038   -3.5963 H   0  0  0  0  0  0  0  0  0  0  0  0
    4.8702    3.7842   -3.7090 H   0  0  0  0  0  0  0  0  0  0  0  0
    2.6140    0.7433   -4.7949 S   0  0  2  0  0  0  0  0  0  0  0  0
    2.2079    0.8612   -3.1527 O   0  0  0  0  0  0  0  0  0  0  0  0
    2.2837   -0.6233   -5.2993 O   0  0  0  0  0  0  0  0  0  0  0  0
    4.3044    3.0481   -3.9751 O   0  0  0  0  0  0  0  0  0  0  0  0
    8.6591    0.6986   -3.8329 C   0  0  0  0  0  0  0  0  0  0  0  0
    9.0148   -0.2841   -3.5112 H   0  0  0  0  0  0  0  0  0  0  0  0
    9.1829    0.9455   -4.7648 H   0  0  0  0  0  0  0  0  0  0  0  0
    8.9645    1.4346   -3.0831 H   0  0  0  0  0  0  0  0  0  0  0  0
   -1.9258    0.0082   -1.1849 O   0  0  0  0  0  0  0  0  0  0  0  0
   -2.3890   -0.8700   -2.2002 C   0  0  0  0  0  0  0  0  0  0  0  0
   -3.2329   -1.4119   -1.7709 H   0  0  0  0  0  0  0  0  0  0  0  0
   -1.6082   -1.5805   -2.4986 H   0  0  0  0  0  0  0  0  0  0  0  0
   -2.7248   -0.3150   -3.0854 H   0  0  0  0  0  0  0  0  0  0  0  0
  1  6  1  0  0  0  0
  2  8  1  6  0  0  0
  2  1  1  0  0  0  0
  2  3  1  0  0  0  0
  3  4  2  0  0  0  0
  4  5  1  0  0  0  0
  4  9  1  0  0  0  0
  5 10  1  0  0  0  0
  6 31  1  0  0  0  0
  6  5  2  0  0  0  0
  7  1  1  0  0  0  0
 11  3  1  0  0  0  0
 12 11  1  0  0  0  0
 13 18  2  0  0  0  0
 13 14  1  0  0  0  0
 14 15  2  0  0  0  0
 15 16  1  0  0  0  0
 15 27  1  0  0  0  0
 16 21  1  0  0  0  0
 17 26  1  0  0  0  0
 17 16  2  0  0  0  0
 18 17  1  0  0  0  0
 19 13  1  0  0  0  0
 20 14  1  0  0  0  0
 23 25  1  1  0  0  0
 23 18  1  0  0  0  0
 23 24  1  0  0  0  0
 24  2  1  0  0  0  0
 26 22  1  0  0  0  0
 27 28  1  0  0  0  0
 27 30  1  0  0  0  0
 29 27  1  0  0  0  0
 32 33  1  0  0  0  0
 32 31  1  0  0  0  0
 34 32  1  0  0  0  0
 35 32  1  0  0  0  0
M  RAD  4   1   2  11   2  12   3  25   2
M  END
