Coordinates from ORCA-job p-CH3O-Ph-N2-X-OTs-B3LYPG-6-31G_dp-scan-d09-49-n400
 OpenBabel08281821253D

 35 36  0  0  1  0  0  0  0  0999 V2000
   -0.0083    0.9703   -2.7252 C   0  0  0  0  0  0  0  0  0  0  0  0
    0.8106    2.2079   -2.9113 C   0  0  1  0  0  0  0  0  0  0  0  0
    0.7488    3.0871   -1.6909 C   0  0  0  0  0  0  0  0  0  0  0  0
    0.3438    2.5886   -0.3989 C   0  0  0  0  0  0  0  0  0  0  0  0
   -0.2089    1.3591   -0.3032 C   0  0  0  0  0  0  0  0  0  0  0  0
   -0.4193    0.5613   -1.5009 C   0  0  0  0  0  0  0  0  0  0  0  0
   -0.1490    0.3704   -3.6147 H   0  0  0  0  0  0  0  0  0  0  0  0
    0.4901    2.7662   -3.8026 H   0  0  0  0  0  0  0  0  0  0  0  0
    0.4795    3.2228    0.4713 H   0  0  0  0  0  0  0  0  0  0  0  0
   -0.5291    0.9469    0.6463 H   0  0  0  0  0  0  0  0  0  0  0  0
    1.1109    4.3408   -1.8076 N   0  0  0  0  0  0  0  0  0  0  0  0
    1.4093    5.4403   -1.9053 N   0  0  0  0  0  0  0  0  0  0  0  0
    4.6321   -0.2271   -4.3861 C   0  0  0  0  0  0  0  0  0  0  0  0
    5.9393   -0.6407   -4.1435 C   0  0  0  0  0  0  0  0  0  0  0  0
    6.9577    0.3034   -3.9474 C   0  0  0  0  0  0  0  0  0  0  0  0
    6.6359    1.6645   -3.9989 C   0  0  0  0  0  0  0  0  0  0  0  0
    5.3245    2.0867   -4.2370 C   0  0  0  0  0  0  0  0  0  0  0  0
    4.3187    1.1294   -4.4208 C   0  0  0  0  0  0  0  0  0  0  0  0
    3.8299   -0.9380   -4.5603 H   0  0  0  0  0  0  0  0  0  0  0  0
    6.1744   -1.7008   -4.1083 H   0  0  0  0  0  0  0  0  0  0  0  0
    7.4155    2.4103   -3.8496 H   0  0  0  0  0  0  0  0  0  0  0  0
    5.7577    3.9503   -4.1605 H   0  0  0  0  0  0  0  0  0  0  0  0
    2.6105    1.6119   -4.7772 S   0  0  2  0  0  0  0  0  0  0  0  0
    2.2384    1.8451   -3.1366 O   0  0  0  0  0  0  0  0  0  0  0  0
    1.9402    0.3657   -5.2697 O   0  0  0  0  0  0  0  0  0  0  0  0
    4.9766    3.4018   -4.3081 O   0  0  0  0  0  0  0  0  0  0  0  0
    8.3851   -0.1345   -3.7216 C   0  0  0  0  0  0  0  0  0  0  0  0
    8.4273   -1.1027   -3.2147 H   0  0  0  0  0  0  0  0  0  0  0  0
    8.9179   -0.2414   -4.6745 H   0  0  0  0  0  0  0  0  0  0  0  0
    8.9392    0.5908   -3.1179 H   0  0  0  0  0  0  0  0  0  0  0  0
   -1.0861   -0.5975   -1.2382 O   0  0  0  0  0  0  0  0  0  0  0  0
   -1.3338   -1.4741   -2.3282 C   0  0  0  0  0  0  0  0  0  0  0  0
   -1.8464   -2.3414   -1.9096 H   0  0  0  0  0  0  0  0  0  0  0  0
   -0.3989   -1.7920   -2.8048 H   0  0  0  0  0  0  0  0  0  0  0  0
   -1.9738   -0.9998   -3.0836 H   0  0  0  0  0  0  0  0  0  0  0  0
  1  6  1  0  0  0  0
  2  8  1  6  0  0  0
  2  1  1  0  0  0  0
  2  3  1  0  0  0  0
  3  4  2  0  0  0  0
  4  5  1  0  0  0  0
  4  9  1  0  0  0  0
  5 10  1  0  0  0  0
  6 31  1  0  0  0  0
  6  5  2  0  0  0  0
  7  1  1  0  0  0  0
 11  3  1  0  0  0  0
 12 11  1  0  0  0  0
 13 14  1  0  0  0  0
 14 20  1  0  0  0  0
 14 15  2  0  0  0  0
 15 27  1  0  0  0  0
 16 15  1  0  0  0  0
 16 21  1  0  0  0  0
 17 16  2  0  0  0  0
 18 13  2  0  0  0  0
 18 17  1  0  0  0  0
 19 13  1  0  0  0  0
 23 25  1  1  0  0  0
 23 18  1  0  0  0  0
 23 24  1  0  0  0  0
 24  2  1  0  0  0  0
 26 17  1  0  0  0  0
 26 22  1  0  0  0  0
 27 28  1  0  0  0  0
 27 30  1  0  0  0  0
 29 27  1  0  0  0  0
 32 33  1  0  0  0  0
 32 31  1  0  0  0  0
 34 32  1  0  0  0  0
 35 32  1  0  0  0  0
M  RAD  4   1   2  11   2  12   3  25   2
M  END
