Coordinates from ORCA-job p-CH3O-Ph-N2-X-OTs-B3LYPG-6-31G_dp-scan-d09-49-n400
 OpenBabel08281821253D

 35 36  0  0  1  0  0  0  0  0999 V2000
   -0.1880    0.8813   -2.6908 C   0  0  0  0  0  0  0  0  0  0  0  0
    0.9610    1.8024   -2.9471 C   0  0  1  0  0  0  0  0  0  0  0  0
    1.2163    2.7076   -1.7647 C   0  0  0  0  0  0  0  0  0  0  0  0
    0.6138    2.4970   -0.4736 C   0  0  0  0  0  0  0  0  0  0  0  0
   -0.3287    1.5400   -0.3224 C   0  0  0  0  0  0  0  0  0  0  0  0
   -0.7423    0.7367   -1.4629 C   0  0  0  0  0  0  0  0  0  0  0  0
   -0.5028    0.2839   -3.5369 H   0  0  0  0  0  0  0  0  0  0  0  0
    0.7963    2.3954   -3.8578 H   0  0  0  0  0  0  0  0  0  0  0  0
    0.9345    3.1162    0.3579 H   0  0  0  0  0  0  0  0  0  0  0  0
   -0.8032    1.3478    0.6323 H   0  0  0  0  0  0  0  0  0  0  0  0
    2.1080    3.6525   -1.9235 N   0  0  0  0  0  0  0  0  0  0  0  0
    2.9042    4.4500   -2.1153 N   0  0  0  0  0  0  0  0  0  0  0  0
    5.0511   -0.4355   -4.6809 C   0  0  0  0  0  0  0  0  0  0  0  0
    6.4216   -0.5169   -4.4387 C   0  0  0  0  0  0  0  0  0  0  0  0
    7.1352    0.6094   -4.0067 C   0  0  0  0  0  0  0  0  0  0  0  0
    6.4491    1.8172   -3.8205 C   0  0  0  0  0  0  0  0  0  0  0  0
    5.0763    1.9043   -4.0579 C   0  0  0  0  0  0  0  0  0  0  0  0
    4.3780    0.7647   -4.4809 C   0  0  0  0  0  0  0  0  0  0  0  0
    4.4765   -1.2928   -5.0190 H   0  0  0  0  0  0  0  0  0  0  0  0
    6.9421   -1.4588   -4.5862 H   0  0  0  0  0  0  0  0  0  0  0  0
    6.9895    2.7012   -3.4861 H   0  0  0  0  0  0  0  0  0  0  0  0
    4.9203    3.7437   -3.5089 H   0  0  0  0  0  0  0  0  0  0  0  0
    2.6063    0.8628   -4.8237 S   0  0  2  0  0  0  0  0  0  0  0  0
    2.2048    1.0332   -3.1851 O   0  0  0  0  0  0  0  0  0  0  0  0
    2.2116   -0.4928   -5.3136 O   0  0  0  0  0  0  0  0  0  0  0  0
    4.3647    3.0578   -3.9012 O   0  0  0  0  0  0  0  0  0  0  0  0
    8.6262    0.5407   -3.7778 C   0  0  0  0  0  0  0  0  0  0  0  0
    8.9425   -0.4727   -3.5161 H   0  0  0  0  0  0  0  0  0  0  0  0
    9.1763    0.8309   -4.6819 H   0  0  0  0  0  0  0  0  0  0  0  0
    8.9421    1.2145   -2.9755 H   0  0  0  0  0  0  0  0  0  0  0  0
   -1.7439   -0.1294   -1.1451 O   0  0  0  0  0  0  0  0  0  0  0  0
   -2.2189   -0.9929   -2.1679 C   0  0  0  0  0  0  0  0  0  0  0  0
   -2.9872   -1.6153   -1.7069 H   0  0  0  0  0  0  0  0  0  0  0  0
   -1.4142   -1.6285   -2.5577 H   0  0  0  0  0  0  0  0  0  0  0  0
   -2.6586   -0.4243   -2.9970 H   0  0  0  0  0  0  0  0  0  0  0  0
  1  6  1  0  0  0  0
  2  8  1  6  0  0  0
  2  1  1  0  0  0  0
  2  3  1  0  0  0  0
  3  4  2  0  0  0  0
  4  5  1  0  0  0  0
  4  9  1  0  0  0  0
  5 10  1  0  0  0  0
  6 31  1  0  0  0  0
  6  5  2  0  0  0  0
  7  1  1  0  0  0  0
 11  3  1  0  0  0  0
 12 11  1  0  0  0  0
 13 18  2  0  0  0  0
 13 14  1  0  0  0  0
 14 15  2  0  0  0  0
 15 16  1  0  0  0  0
 15 27  1  0  0  0  0
 16 21  1  0  0  0  0
 17 26  1  0  0  0  0
 17 16  2  0  0  0  0
 18 17  1  0  0  0  0
 19 13  1  0  0  0  0
 20 14  1  0  0  0  0
 23 25  1  1  0  0  0
 23 18  1  0  0  0  0
 23 24  1  0  0  0  0
 24  2  1  0  0  0  0
 26 22  1  0  0  0  0
 27 28  1  0  0  0  0
 27 30  1  0  0  0  0
 29 27  1  0  0  0  0
 32 33  1  0  0  0  0
 32 31  1  0  0  0  0
 34 32  1  0  0  0  0
 35 32  1  0  0  0  0
M  RAD  4   1   2  11   2  12   3  25   2
M  END
