Coordinates from ORCA-job p-CH3O-Ph-N2-X-OTs-B3LYPG-6-31G_dp-scan-d09-49-n400
 OpenBabel08281821253D

 35 36  0  0  1  0  0  0  0  0999 V2000
    0.1977    0.5901   -3.1303 C   0  0  0  0  0  0  0  0  0  0  0  0
    1.0736    1.7816   -3.3533 C   0  0  1  0  0  0  0  0  0  0  0  0
    0.9547    2.8845   -2.2996 C   0  0  0  0  0  0  0  0  0  0  0  0
    0.0192    2.7041   -1.2145 C   0  0  0  0  0  0  0  0  0  0  0  0
   -0.7396    1.5851   -1.1130 C   0  0  0  0  0  0  0  0  0  0  0  0
   -0.6570    0.5054   -2.0878 C   0  0  0  0  0  0  0  0  0  0  0  0
    0.2873   -0.2264   -3.8383 H   0  0  0  0  0  0  0  0  0  0  0  0
    0.8153    2.2692   -4.3126 H   0  0  0  0  0  0  0  0  0  0  0  0
   -0.0353    3.4958   -0.4748 H   0  0  0  0  0  0  0  0  0  0  0  0
   -1.4202    1.4895   -0.2742 H   0  0  0  0  0  0  0  0  0  0  0  0
    1.6607    3.9716   -2.3352 N   0  0  0  0  0  0  0  0  0  0  0  0
    2.3519    4.1740   -3.5707 N   0  0  0  0  0  0  0  0  0  0  0  0
    5.2545   -0.4931   -4.5378 C   0  0  0  0  0  0  0  0  0  0  0  0
    6.5913   -0.6626   -4.1868 C   0  0  0  0  0  0  0  0  0  0  0  0
    7.3808    0.4285   -3.7914 C   0  0  0  0  0  0  0  0  0  0  0  0
    6.7960    1.7024   -3.7615 C   0  0  0  0  0  0  0  0  0  0  0  0
    5.4592    1.8911   -4.1093 C   0  0  0  0  0  0  0  0  0  0  0  0
    4.6975    0.7837   -4.4840 C   0  0  0  0  0  0  0  0  0  0  0  0
    4.6351   -1.3270   -4.8529 H   0  0  0  0  0  0  0  0  0  0  0  0
    7.0323   -1.6559   -4.2236 H   0  0  0  0  0  0  0  0  0  0  0  0
    7.3944    2.5586   -3.4622 H   0  0  0  0  0  0  0  0  0  0  0  0
    5.0208    2.8840   -4.0789 H   0  0  0  0  0  0  0  0  0  0  0  0
    2.9834    1.0009   -5.0109 S   0  0  2  0  0  0  0  0  0  0  0  0
    2.4649    1.3781   -3.4157 O   0  0  0  0  0  0  0  0  0  0  0  0
    2.4821   -0.3511   -5.4016 O   0  0  0  0  0  0  0  0  0  0  0  0
    3.3641    4.6912   -3.4762 O   0  0  0  0  0  0  0  0  0  0  0  0
    8.8250    0.2269   -3.3993 C   0  0  0  0  0  0  0  0  0  0  0  0
    9.3552   -0.3898   -4.1327 H   0  0  0  0  0  0  0  0  0  0  0  0
    9.3536    1.1794   -3.3117 H   0  0  0  0  0  0  0  0  0  0  0  0
    8.9012   -0.2859   -2.4327 H   0  0  0  0  0  0  0  0  0  0  0  0
   -1.4156   -0.6260   -1.9742 O   0  0  0  0  0  0  0  0  0  0  0  0
   -2.3628   -0.7396   -0.9234 C   0  0  0  0  0  0  0  0  0  0  0  0
   -2.8483   -1.7057   -1.0687 H   0  0  0  0  0  0  0  0  0  0  0  0
   -3.1254    0.0491   -0.9664 H   0  0  0  0  0  0  0  0  0  0  0  0
   -1.8872   -0.7302    0.0656 H   0  0  0  0  0  0  0  0  0  0  0  0
  1  6  2  0  0  0  0
  2  8  1  6  0  0  0
  2  1  1  0  0  0  0
  2  3  1  0  0  0  0
  3  4  2  0  0  0  0
  4  5  1  0  0  0  0
  4  9  1  0  0  0  0
  5 10  1  0  0  0  0
  6 31  1  0  0  0  0
  6  5  1  0  0  0  0
  7  1  1  0  0  0  0
 11  3  1  0  0  0  0
 12 26  1  0  0  0  0
 12 11  1  0  0  0  0
 13 18  2  0  0  0  0
 13 14  1  0  0  0  0
 14 15  2  0  0  0  0
 15 16  1  0  0  0  0
 15 27  1  0  0  0  0
 16 21  1  0  0  0  0
 17 22  1  0  0  0  0
 17 16  2  0  0  0  0
 18 17  1  0  0  0  0
 19 13  1  0  0  0  0
 20 14  1  0  0  0  0
 23 25  1  1  0  0  0
 23 18  1  0  0  0  0
 23 24  1  0  0  0  0
 24  2  1  0  0  0  0
 27 29  1  0  0  0  0
 27 30  1  0  0  0  0
 28 27  1  0  0  0  0
 31 32  1  0  0  0  0
 32 35  1  0  0  0  0
 33 32  1  0  0  0  0
 34 32  1  0  0  0  0
M  RAD  5   5   2  11   2  12   2  25   2  26   2
M  END
