14
Coordinates from ORCA-job Ph-N2-Cl-B3LYPG-6-31G_dp-scan-d09-49-n400
  C   -1.49679936823944     -1.09536528231343     -1.44858267559220
  C   -0.14958538335673     -1.27727076963202     -1.43821713873170
  C   0.66295578705952     -0.34356358146575     -0.69011872987725
  C   0.12609622326610      0.93634383515642     -0.22991320732093
  C   -1.32126135369815      0.91661655064874     -0.07537330557904
  C   -2.08630783623927     -0.02653609760734     -0.68669143858305
  H   -2.13282709255040     -1.77986556056569     -1.99987083865700
  H   0.32713766204405     -2.11430611452990     -1.93687192734472
  H   0.70347304039770      1.44323354562424      0.53404646036183
  H   -1.77354245672543      1.73832214205142      0.46880522273884
  N   1.86374836407115     -0.77851728988938     -0.31094620547632
  N   2.83492582387529     -1.28012467344508      0.01511988720350
  Cl  0.31878037727038      2.57787388450630     -1.65666342438510
  H   -3.16809378717485      0.02315941146098     -0.60352267875694
