14
Coordinates from ORCA-job Ph-N2-Cl-B3LYPG-6-31G_dp-scan-d09-49-n400
  C   -1.59695362701203     -1.41770383235851     -1.16153322486820
  C   -0.21865522437296     -1.50688062050031     -1.08607882537267
  C   0.49027787937045     -0.33693087062880     -0.72533357091092
  C   -0.11519178883391      0.89064557269489     -0.44301111979868
  C   -1.50710237604704      0.93475180590939     -0.53121311468289
  C   -2.23968249729584     -0.19807767363834     -0.88473457111512
  H   -2.17550342894106     -2.29355925194586     -1.43568656229114
  H   0.30929269329347     -2.43154121552197     -1.29408397686789
  H   0.50751214552516      1.77262960635206     -0.16405169072231
  H   -2.00973221391422      1.87247905606292     -0.31806982767418
  N   1.87999573378335     -0.48020194022709     -0.66528882270733
  N   2.88714729255446     -0.98199543122716     -0.72833798625977
  Cl  1.81988861240495      3.25903960562168      0.32786235914726
  H   -3.32259320051485     -0.14265481059339     -0.94923906587622
