14
Coordinates from ORCA-job Ph-N2-Cl-B3LYPG-6-31G_dp-scan-d09-49-n400
  C   -1.64295698869898     -1.44542892365663     -1.17109200533178
  C   -0.26551209202594     -1.55658080996118     -1.10261757384984
  C   0.45403068006654     -0.39758330959363     -0.74450241406202
  C   -0.12624936542385      0.85157716868496     -0.45458423061172
  C   -1.51710551341633      0.91031214593801     -0.53769903127770
  C   -2.26445757966398     -0.21509373246184     -0.88947898397119
  H   -2.23951530406081     -2.30945468779406     -1.44284303685944
  H   0.24880493464807     -2.48768423818637     -1.31365493800446
  H   0.52530788668616      1.71103031509158     -0.18054074091646
  H   -2.01216976241325      1.85189030262082     -0.32274289722767
  N   1.82860442353756     -0.47003663557880     -0.66694223449637
  N   2.93839348050429     -0.34993511338313     -0.55748821204138
  Cl  2.12824440184645      2.99065182005824      0.27414673861072
  H   -3.34671920158601     -0.14366430177846     -0.94876043996077
