14
Coordinates from ORCA-job Ph-N2-Cl-B3LYPG-6-31G_dp-scan-d09-49-n400
  C   -1.35927692488776     -1.45292699098609     -1.14258442431709
  C   -0.02559105527230     -1.12105515789393     -0.93309062889620
  C   0.30016023175917      0.19863937209446     -0.58307600770454
  C   -0.69512612520379      1.17083444085391     -0.44324230663030
  C   -2.02930199623971      0.82634158081956     -0.65664954809947
  C   -2.36073606628401     -0.48337905793166     -1.00623038142176
  H   -1.62353935801047     -2.47020787052934     -1.41485196322043
  H   0.76025956912169     -1.86091050227891     -1.03597383954138
  H   -0.40255741724737      2.17885032904459     -0.16951180181240
  H   -2.80545840296521      1.57757231949349     -0.54979329682278
  N   1.63272668539676      0.66312445767248     -0.34462973290929
  N   2.52280395008030     -0.15243657148831     -0.47540955454734
  Cl  4.19344110888708      0.61913406866193     -0.12950730152741
  H   -3.39910419913445     -0.75358041753268     -1.17424921254972
