14
Coordinates from ORCA-job Ph-N2-Cl-B3LYPG-6-31G_dp-scan-d09-49-n400
  C   -1.50058689193122     -1.09443469403975     -1.44996850420803
  C   -0.15405076829996     -1.27795824715052     -1.43693974679359
  C   0.65918540585575     -0.34457723506610     -0.68949497211294
  C   0.12456927824233      0.94216275976244     -0.23488495773568
  C   -1.32672914099859      0.91879200780749     -0.07682403777744
  C   -2.09017687860722     -0.02361657632752     -0.68842924697975
  H   -2.13710449257625     -1.77868868166140     -2.00092302532723
  H   0.32240946437047     -2.11591568034992     -1.93441002020957
  H   0.69541439784631      1.43211637556593      0.54573866697714
  H   -1.77934066469393      1.73796794624249      0.47110717246405
  N   1.86404523471223     -0.76694806508698     -0.31802412860337
  N   2.84785899232449     -1.24719658739823      0.00329188414086
  Cl  0.35521280074392      2.53409204690036     -1.64565883676298
  H   -3.17200673698842      0.02420463080122     -0.60338024707154
