14
Coordinates from ORCA-job Ph-N2-Cl-B3LYPG-6-31G_dp-scan-d09-49-n400
  C   -1.53457774036208     -1.40917651713307     -1.15632451960235
  C   -0.15097077001500     -1.37807162675571     -1.04875031490290
  C   0.45116574885089     -0.16219590815972     -0.68157213470976
  C   -0.26601961054924      0.99746449084039     -0.42413791109307
  C   -1.65550878354279      0.93674369007514     -0.53996133455803
  C   -2.28623611827248     -0.25411269255809     -0.90257546213194
  H   -2.02700427920827     -2.33407500636200     -1.43881669071595
  H   0.45553309194412     -2.25651872584591     -1.23997854198357
  H   0.28694702233958      1.89528888613317     -0.14556361931217
  H   -2.24159641489806      1.82848513254007     -0.34408115022186
  N   1.89160390899992     -0.18887725888006     -0.58467269182460
  N   2.74115051653521     -0.93356274026024     -0.71917859577889
  Cl  2.41235142360631      2.48729561627014      0.15723920877735
  H   -3.36813799542819     -0.28868733990464     -0.99042624194233
