23
Coordinates from ORCA-job p-NO2-Ph-N2-OTf-B3LYPG-6-31G_dp-scan-d09-49-n400
  C   -2.04966697954747     -0.62146592875728     -5.69829091463606
  C   -0.85235343712401      0.09314960665603     -5.66464360251921
  C   -0.88050261385474      1.34166207687576     -5.04028810315387
  C   -2.03190303792037      1.90727573246453     -4.45663328545710
  C   -3.21107713987860      1.18208316491749     -4.51366572338504
  C   -3.19366584204069     -0.06963068741737     -5.13222756379923
  H   -2.09544759886238     -1.59408541371521     -6.17129285297238
  H   0.04534027034827     -0.31220119687528     -6.13008327059119
  H   -1.99424789119718      2.88320588120923     -3.98703367914828
  H   -4.13292130654361      1.56299715403285     -4.09341143523541
  N   -4.46154606727777     -0.84026032212245     -5.18660224475422
  O   -5.45124921386101     -0.31714332207413     -4.68311001730713
  O   -4.42442337530586     -1.93862645019430     -5.72776076133458
  N   0.27879004724397      2.13237589107632     -4.91488782325008
  N   0.93040645906017      2.95218707195363     -4.52409826215084
  S   2.24915841969502      0.35710294568776     -7.32536267953936
  C   3.33595714192616      0.02105995496315     -5.85561972647250
  O   3.15433912366230      0.68228326604236     -8.42616280169599
  O   1.45011438333648      1.53788518919743     -6.81614059576321
  O   1.43739607491974     -0.87918863682926     -7.43745818520329
  F   4.02981813185789     -1.10849382747134     -6.00285565410204
  F   4.18912065405208      1.02989693667711     -5.64248393180858
  F   2.55786379731156     -0.10096908629698     -4.74808688572034
