23
Coordinates from ORCA-job p-NO2-Ph-N2-OTf-B3LYPG-6-31G_dp-scan-d09-49-n400
  C   -2.34911969151027     -0.73453893864887     -5.73656393010019
  C   -1.07726528752474     -0.42519074674858     -5.26986677744127
  C   -0.94338052818640      0.71436620721704     -4.46167365665850
  C   -2.01394186708490      1.54273493582619     -4.10593013742205
  C   -3.27685569836301      1.22716576382930     -4.59085948316516
  C   -3.41569869924561      0.09481715236902     -5.39189268013785
  H   -2.52243423889721     -1.59833423736395     -6.36606945568190
  H   -0.20444833377269     -1.02137726669117     -5.50834720340393
  H   -1.85028515428196      2.40984706989074     -3.47644540717064
  H   -4.14517571598686      1.83023834161109     -4.35989446803493
  N   -4.76835015132112     -0.24569685205374     -5.89736266792374
  O   -5.68718079110473      0.50441064444140     -5.58181012370922
  O   -4.86944938456849     -1.25307523715885     -6.58871744132199
  N   0.32114865397688      1.03811491271313     -3.95890979997984
  N   1.45059976852569      0.93659251077753     -3.90687711991034
  S   2.15705468559595      0.20969165850310     -6.70396527496192
  C   3.83849405003011      0.99264022942299     -6.60578373019907
  O   2.21852629774290     -0.75489145540482     -7.80228207047934
  O   1.21219610154890      1.33782315810612     -6.79750647805870
  O   2.05128486801033     -0.48275428925076     -5.33770644221754
  F   4.78242740025027      0.06109627770884     -6.45000010202233
  F   4.08673444148066      1.68434375293622     -7.72173235753799
  F   3.88441927468633      1.83307640796803     -5.55800319246155
