23
Coordinates from ORCA-job p-NO2-Ph-N2-OTf-B3LYPG-6-31G_dp-scan-d09-49-n400
  C   -1.23718716025208     -0.46896033328789     -5.51750958163149
  C   -0.26754662811787      0.57777086778584     -5.05989712719204
  C   -0.90974760441329      1.90694399328844     -4.63082596680741
  C   -2.34882170931645      2.04356668122283     -4.69143875649215
  C   -3.14243685097004      1.02555809821050     -5.09939929263108
  C   -2.55840582025453     -0.23688914353938     -5.50618319967045
  H   -0.83746326322517     -1.40607054412189     -5.88322646784495
  H   0.27133745014579      0.20389308154068     -4.17244137103680
  H   -2.76010146201097      3.00325781784891     -4.39987422125324
  H   -4.22012048286230      1.12336478876441     -5.14526054521297
  N   -3.47456895230454     -1.30468327490183     -5.96383118286976
  O   -4.67477143435513     -1.03941659706043     -5.97198390979307
  O   -2.98094248845303     -2.37695080095004     -6.29877753870826
  N   -0.22084523154471      2.91829361253044     -4.19685912230313
  N   1.13772547524772      2.60397361857250     -3.98365668443013
  S   2.29531144609789      0.37812968427032     -5.79149242550990
  C   2.27442807472097     -0.95649737070589     -7.12854046123859
  O   0.67005530404245      0.79398016878545     -6.13338742921271
  O   3.16791950896906      1.43901796048020     -6.32678579950724
  O   1.86117791643868      3.56176034543558     -4.01630987809119
  F   1.41804893914884     -1.92281947960627     -6.74309238048508
  F   1.91427680071792     -0.48754014003702     -8.31528909421431
  F   3.50197817255076     -1.47858303452547     -7.20213756386397
