23
Coordinates from ORCA-job p-NO2-Ph-N2-OTf-B3LYPG-6-31G_dp-scan-d09-49-n400
  C   -2.34458382968887     -0.82126721091365     -5.66278054293803
  C   -1.05832989497004     -0.55133809137072     -5.21675693224856
  C   -0.86386415378000      0.65106361354016     -4.51869314757122
  C   -1.87041733009544      1.58963509437993     -4.26113150975899
  C   -3.14645566848071      1.30495372799443     -4.73014321307543
  C   -3.35550812707777      0.10744571826654     -5.41279684103603
  H   -2.57015136912171     -1.72658990507559     -6.21191439836135
  H   -0.21069923783775     -1.20361453218317     -5.40171986161015
  H   -1.65465167397664      2.50601464844948     -3.72467231815483
  H   -3.97426205262425      1.98477187136215     -4.57510158673404
  N   -4.72567865533573     -0.19177099959241     -5.89681552077069
  O   -5.59058891329506      0.65059740187426     -5.67690019903778
  O   -4.89185212168916     -1.25943288609626     -6.47543765671342
  N   0.41026323424129      0.89465877834177     -4.02407796067325
  N   1.44970591595693      0.93052442796729     -3.62465969269271
  S   2.09234612767275      0.11403089241965     -6.69279836325509
  C   3.66708585564693      1.08721882621823     -6.55015481817132
  O   2.17049726623272     -0.58603190186191     -7.97724693875025
  O   1.03291076471226      1.15888907005292     -6.56819223055230
  O   2.13328554516707     -0.75738807120620     -5.47228757015381
  F   4.73153203826816      0.27860248712237     -6.55197606468632
  F   3.78300033454461      1.95685455251396     -7.55964587552985
  F   3.66571594553037      1.78327248779677     -5.39229675752457
