Coordinates from ORCA-job Ph-N2-X-OTf-B3LYPG-6-31G_dp-scan-d09-49-n400
 OpenBabel08281821163D

 21 20  0  0  0  0  0  0  0  0999 V2000
   -2.2276   -1.0095   -5.4931 C   0  0  0  0  0  0  0  0  0  0  0  0
   -0.9437   -0.5224   -5.2623 C   0  0  0  0  0  0  0  0  0  0  0  0
   -0.7982    0.8267   -4.9031 C   0  0  0  0  0  0  0  0  0  0  0  0
   -1.9080    1.6658   -4.7316 C   0  0  0  0  0  0  0  0  0  0  0  0
   -3.1791    1.1673   -4.9961 C   0  0  0  0  0  0  0  0  0  0  0  0
   -3.3383   -0.1691   -5.3750 C   0  0  0  0  0  0  0  0  0  0  0  0
   -2.3587   -2.0517   -5.7653 H   0  0  0  0  0  0  0  0  0  0  0  0
   -0.0866   -1.1827   -5.3270 H   0  0  0  0  0  0  0  0  0  0  0  0
   -1.7518    2.6909   -4.4147 H   0  0  0  0  0  0  0  0  0  0  0  0
   -4.0446    1.8133   -4.8920 H   0  0  0  0  0  0  0  0  0  0  0  0
    0.4580    1.4082   -4.6050 N   0  0  0  0  0  0  0  0  0  0  0  0
    1.5665    1.2302   -5.0028 N   0  0  0  0  0  0  0  0  0  0  0  0
    1.9661   -0.0335   -6.5959 S   0  0  0  0  0  0  0  0  0  0  0  0
    3.7272    0.6371   -6.7962 C   0  0  0  0  0  0  0  0  0  0  0  0
    1.2084    0.3601   -7.7940 O   0  0  0  0  0  0  0  0  0  0  0  0
    3.9371    2.9452   -4.2337 O   0  0  0  0  0  0  0  0  0  0  0  0
    2.1016   -1.4448   -6.1915 O   0  0  0  0  0  0  0  0  0  0  0  0
    4.2949    0.0004   -7.8214 F   0  0  0  0  0  0  0  0  0  0  0  0
    3.6662    1.9369   -7.0480 F   0  0  0  0  0  0  0  0  0  0  0  0
    4.4049    0.3998   -5.6833 F   0  0  0  0  0  0  0  0  0  0  0  0
   -4.3325   -0.5615   -5.5652 H   0  0  0  0  0  0  0  0  0  0  0  0
  1  6  2  0  0  0  0
  1  2  1  0  0  0  0
  2  3  2  0  0  0  0
  3  4  1  0  0  0  0
  3 11  1  0  0  0  0
  4  9  1  0  0  0  0
  5 10  1  0  0  0  0
  5  4  2  0  0  0  0
  6  5  1  0  0  0  0
  7  1  1  0  0  0  0
  8  2  1  0  0  0  0
 12 11  2  0  0  0  0
 13 17  2  0  0  0  0
 13 12  1  0  0  0  0
 14 13  1  0  0  0  0
 14 20  1  0  0  0  0
 15 13  2  0  0  0  0
 18 14  1  0  0  0  0
 19 14  1  0  0  0  0
 21  6  1  0  0  0  0
M  RAD  1  16   3
M  END
