Coordinates from ORCA-job Ph-N2-X-OTf-B3LYPG-6-31G_dp-scan-d09-49-n400
 OpenBabel08281821163D

 21 19  0  0  0  0  0  0  0  0999 V2000
   -1.5227   -0.9747   -4.7181 C   0  0  0  0  0  0  0  0  0  0  0  0
   -0.5422   -0.0160   -4.9595 C   0  0  0  0  0  0  0  0  0  0  0  0
   -0.9723    1.2988   -5.1925 C   0  0  0  0  0  0  0  0  0  0  0  0
   -2.3218    1.6757   -5.1541 C   0  0  0  0  0  0  0  0  0  0  0  0
   -3.2784    0.6914   -4.9362 C   0  0  0  0  0  0  0  0  0  0  0  0
   -2.8779   -0.6312   -4.7178 C   0  0  0  0  0  0  0  0  0  0  0  0
   -1.2210   -2.0003   -4.5319 H   0  0  0  0  0  0  0  0  0  0  0  0
    0.5173   -0.2581   -4.9363 H   0  0  0  0  0  0  0  0  0  0  0  0
   -2.5964    2.7126   -5.3134 H   0  0  0  0  0  0  0  0  0  0  0  0
   -4.3307    0.9554   -4.9252 H   0  0  0  0  0  0  0  0  0  0  0  0
   -0.0403    2.3342   -5.4155 N   0  0  0  0  0  0  0  0  0  0  0  0
    0.9914    2.6024   -5.8743 N   0  0  0  0  0  0  0  0  0  0  0  0
    2.0250    1.0276   -7.2807 S   0  0  0  0  0  0  0  0  0  0  0  0
    3.6592    0.2992   -6.5857 C   0  0  0  0  0  0  0  0  0  0  0  0
    2.5727    1.8824   -8.3585 O   0  0  0  0  0  0  0  0  0  0  0  0
    2.5593    0.0329   -4.3900 O   0  0  0  0  0  0  0  0  0  0  0  0
    1.2542   -0.1944   -7.6211 O   0  0  0  0  0  0  0  0  0  0  0  0
    4.3181   -0.4043   -7.4838 F   0  0  0  0  0  0  0  0  0  0  0  0
    4.4436    1.1774   -6.0110 F   0  0  0  0  0  0  0  0  0  0  0  0
    3.3509   -0.7080   -5.5561 F   0  0  0  0  0  0  0  0  0  0  0  0
   -3.6266   -1.3962   -4.5359 H   0  0  0  0  0  0  0  0  0  0  0  0
  1  6  1  0  0  0  0
  1  7  1  0  0  0  0
  2  8  1  0  0  0  0
  2  1  2  0  0  0  0
  3  4  2  0  0  0  0
  3  2  1  0  0  0  0
  4  5  1  0  0  0  0
  5 10  1  0  0  0  0
  5  6  2  0  0  0  0
  6 21  1  0  0  0  0
  9  4  1  0  0  0  0
 11  3  1  0  0  0  0
 12 11  2  0  0  0  0
 13 14  1  0  0  0  0
 14 19  1  0  0  0  0
 14 20  1  0  0  0  0
 15 13  1  0  0  0  0
 17 13  1  0  0  0  0
 18 14  1  0  0  0  0
M  RAD  4  12   2  15   2  16   3  17   2
M  END
