Coordinates from ORCA-job Ph-N2-X-OTf-B3LYPG-6-31G_dp-scan-d09-49-n400
 OpenBabel08281821163D

 21 20  0  0  0  0  0  0  0  0999 V2000
   -2.2052   -0.9941   -5.4851 C   0  0  0  0  0  0  0  0  0  0  0  0
   -0.9228   -0.5050   -5.2560 C   0  0  0  0  0  0  0  0  0  0  0  0
   -0.7704    0.8504   -4.9176 C   0  0  0  0  0  0  0  0  0  0  0  0
   -1.8859    1.6899   -4.7658 C   0  0  0  0  0  0  0  0  0  0  0  0
   -3.1560    1.1922   -5.0343 C   0  0  0  0  0  0  0  0  0  0  0  0
   -3.3157   -0.1495   -5.3928 C   0  0  0  0  0  0  0  0  0  0  0  0
   -2.3373   -2.0416   -5.7360 H   0  0  0  0  0  0  0  0  0  0  0  0
   -0.0707   -1.1729   -5.2937 H   0  0  0  0  0  0  0  0  0  0  0  0
   -1.7293    2.7180   -4.4589 H   0  0  0  0  0  0  0  0  0  0  0  0
   -4.0205    1.8417   -4.9452 H   0  0  0  0  0  0  0  0  0  0  0  0
    0.4647    1.4598   -4.6014 N   0  0  0  0  0  0  0  0  0  0  0  0
    1.5781    1.2420   -5.0112 N   0  0  0  0  0  0  0  0  0  0  0  0
    2.0531    0.0360   -6.4281 S   0  0  0  0  0  0  0  0  0  0  0  0
    3.7799    0.7138   -6.8586 C   0  0  0  0  0  0  0  0  0  0  0  0
    1.1895    0.3118   -7.5763 O   0  0  0  0  0  0  0  0  0  0  0  0
    3.3239    2.2808   -4.2682 O   0  0  0  0  0  0  0  0  0  0  0  0
    2.2332   -1.3098   -5.8790 O   0  0  0  0  0  0  0  0  0  0  0  0
    4.0934    0.0647   -7.9882 F   0  0  0  0  0  0  0  0  0  0  0  0
    3.7179    2.0089   -7.0965 F   0  0  0  0  0  0  0  0  0  0  0  0
    4.6509    0.4132   -5.9210 F   0  0  0  0  0  0  0  0  0  0  0  0
   -4.3092   -0.5435   -5.5835 H   0  0  0  0  0  0  0  0  0  0  0  0
  1  6  2  0  0  0  0
  1  2  1  0  0  0  0
  2  3  2  0  0  0  0
  3  4  1  0  0  0  0
  3 11  1  0  0  0  0
  4  9  1  0  0  0  0
  5 10  1  0  0  0  0
  5  4  2  0  0  0  0
  6  5  1  0  0  0  0
  7  1  1  0  0  0  0
  8  2  1  0  0  0  0
 12 11  2  0  0  0  0
 13 17  2  0  0  0  0
 13 12  1  0  0  0  0
 14 13  1  0  0  0  0
 14 20  1  0  0  0  0
 15 13  2  0  0  0  0
 18 14  1  0  0  0  0
 19 14  1  0  0  0  0
 21  6  1  0  0  0  0
M  RAD  1  16   3
M  END
