Coordinates from ORCA-job Ph-N2-X-OTf-B3LYPG-6-31G_dp-scan-d09-49-n400
 OpenBabel08281821163D

 21 19  0  0  0  0  0  0  0  0999 V2000
   -1.4131   -0.8894   -4.6359 C   0  0  0  0  0  0  0  0  0  0  0  0
   -0.5123    0.1103   -4.9935 C   0  0  0  0  0  0  0  0  0  0  0  0
   -1.0447    1.3727   -5.2978 C   0  0  0  0  0  0  0  0  0  0  0  0
   -2.4162    1.6592   -5.2282 C   0  0  0  0  0  0  0  0  0  0  0  0
   -3.2906    0.6351   -4.8871 C   0  0  0  0  0  0  0  0  0  0  0  0
   -2.7875   -0.6369   -4.5908 C   0  0  0  0  0  0  0  0  0  0  0  0
   -1.0291   -1.8746   -4.3927 H   0  0  0  0  0  0  0  0  0  0  0  0
    0.5582   -0.0901   -5.0076 H   0  0  0  0  0  0  0  0  0  0  0  0
   -2.7687    2.6593   -5.4546 H   0  0  0  0  0  0  0  0  0  0  0  0
   -4.3574    0.8281   -4.8426 H   0  0  0  0  0  0  0  0  0  0  0  0
   -0.2054    2.4449   -5.6489 N   0  0  0  0  0  0  0  0  0  0  0  0
    0.8129    2.7907   -6.0736 N   0  0  0  0  0  0  0  0  0  0  0  0
    2.1222    1.1702   -7.2456 S   0  0  0  0  0  0  0  0  0  0  0  0
    3.6363    0.2094   -6.5341 C   0  0  0  0  0  0  0  0  0  0  0  0
    2.8373    2.0327   -8.2145 O   0  0  0  0  0  0  0  0  0  0  0  0
    2.5070   -0.5542   -4.4198 O   0  0  0  0  0  0  0  0  0  0  0  0
    1.2466    0.0717   -7.7290 O   0  0  0  0  0  0  0  0  0  0  0  0
    4.3740   -0.3188   -7.4895 F   0  0  0  0  0  0  0  0  0  0  0  0
    4.3747    0.9049   -5.7039 F   0  0  0  0  0  0  0  0  0  0  0  0
    3.1892   -0.9847   -5.7922 F   0  0  0  0  0  0  0  0  0  0  0  0
   -3.4716   -1.4339   -4.3154 H   0  0  0  0  0  0  0  0  0  0  0  0
  1  6  1  0  0  0  0
  1  7  1  0  0  0  0
  2  1  2  0  0  0  0
  3  4  2  0  0  0  0
  3  2  1  0  0  0  0
  4  5  1  0  0  0  0
  5 10  1  0  0  0  0
  5  6  2  0  0  0  0
  6 21  1  0  0  0  0
  8  2  1  0  0  0  0
  9  4  1  0  0  0  0
 11  3  1  0  0  0  0
 12 11  2  0  0  0  0
 13 14  1  0  0  0  0
 14 20  1  0  0  0  0
 14 19  1  0  0  0  0
 15 13  1  0  0  0  0
 17 13  1  0  0  0  0
 18 14  1  0  0  0  0
M  RAD  4  12   2  15   2  16   3  17   2
M  END
