Coordinates from ORCA-job Ph-N2-X-OTf-B3LYPG-6-31G_dp-scan-d09-49-n400
 OpenBabel08281821163D

 21 19  0  0  0  0  0  0  0  0999 V2000
   -1.4326   -0.9126   -4.6097 C   0  0  0  0  0  0  0  0  0  0  0  0
   -0.5079    0.0851   -4.9071 C   0  0  0  0  0  0  0  0  0  0  0  0
   -1.0168    1.3498   -5.2402 C   0  0  0  0  0  0  0  0  0  0  0  0
   -2.3885    1.6419   -5.2521 C   0  0  0  0  0  0  0  0  0  0  0  0
   -3.2855    0.6181   -4.9742 C   0  0  0  0  0  0  0  0  0  0  0  0
   -2.8064   -0.6567   -4.6522 C   0  0  0  0  0  0  0  0  0  0  0  0
   -1.0699   -1.9007   -4.3463 H   0  0  0  0  0  0  0  0  0  0  0  0
    0.5633   -0.1077   -4.8558 H   0  0  0  0  0  0  0  0  0  0  0  0
   -2.7239    2.6444   -5.4935 H   0  0  0  0  0  0  0  0  0  0  0  0
   -4.3524    0.8144   -4.9979 H   0  0  0  0  0  0  0  0  0  0  0  0
   -0.1512    2.4208   -5.5251 N   0  0  0  0  0  0  0  0  0  0  0  0
    0.8693    2.7812   -5.9299 N   0  0  0  0  0  0  0  0  0  0  0  0
    2.1051    1.1954   -7.2164 S   0  0  0  0  0  0  0  0  0  0  0  0
    3.6247    0.1864   -6.6015 C   0  0  0  0  0  0  0  0  0  0  0  0
    2.7882    2.0481   -8.2177 O   0  0  0  0  0  0  0  0  0  0  0  0
    2.5843   -0.2711   -4.3837 O   0  0  0  0  0  0  0  0  0  0  0  0
    1.1788    0.1218   -7.6612 O   0  0  0  0  0  0  0  0  0  0  0  0
    4.2114   -0.4725   -7.5800 F   0  0  0  0  0  0  0  0  0  0  0  0
    4.4986    0.8813   -5.9163 F   0  0  0  0  0  0  0  0  0  0  0  0
    3.1816   -0.9078   -5.7121 F   0  0  0  0  0  0  0  0  0  0  0  0
   -3.5088   -1.4526   -4.4244 H   0  0  0  0  0  0  0  0  0  0  0  0
  1  7  1  0  0  0  0
  2  8  1  0  0  0  0
  2  1  2  0  0  0  0
  3  2  1  0  0  0  0
  4  3  2  0  0  0  0
  4  5  1  0  0  0  0
  5  6  2  0  0  0  0
  6  1  1  0  0  0  0
  6 21  1  0  0  0  0
  9  4  1  0  0  0  0
 10  5  1  0  0  0  0
 11  3  1  0  0  0  0
 12 11  2  0  0  0  0
 13 14  1  0  0  0  0
 14 19  1  0  0  0  0
 14 20  1  0  0  0  0
 15 13  1  0  0  0  0
 17 13  1  0  0  0  0
 18 14  1  0  0  0  0
M  RAD  4  12   2  15   2  16   3  17   2
M  END
