Coordinates from ORCA-job Ph-N2-X-OTf-B3LYPG-6-31G_dp-scan-d09-49-n400
 OpenBabel08281821163D

 21 19  0  0  0  0  0  0  0  0999 V2000
   -1.1327   -0.7619   -4.5008 C   0  0  0  0  0  0  0  0  0  0  0  0
   -0.3329    0.3276   -4.8336 C   0  0  0  0  0  0  0  0  0  0  0  0
   -0.9718    1.4892   -5.2820 C   0  0  0  0  0  0  0  0  0  0  0  0
   -2.3646    1.6096   -5.3644 C   0  0  0  0  0  0  0  0  0  0  0  0
   -3.1384    0.4997   -5.0446 C   0  0  0  0  0  0  0  0  0  0  0  0
   -2.5233   -0.6828   -4.6145 C   0  0  0  0  0  0  0  0  0  0  0  0
   -0.6469   -1.6685   -4.1558 H   0  0  0  0  0  0  0  0  0  0  0  0
    0.7440    0.2579   -4.7016 H   0  0  0  0  0  0  0  0  0  0  0  0
   -2.8102    2.5413   -5.6949 H   0  0  0  0  0  0  0  0  0  0  0  0
   -4.2192    0.5568   -5.1234 H   0  0  0  0  0  0  0  0  0  0  0  0
   -0.1975    2.6203   -5.6195 N   0  0  0  0  0  0  0  0  0  0  0  0
    0.8294    2.9209   -6.0689 N   0  0  0  0  0  0  0  0  0  0  0  0
    2.0086    1.2939   -7.2974 S   0  0  0  0  0  0  0  0  0  0  0  0
    3.2841    0.0760   -6.5195 C   0  0  0  0  0  0  0  0  0  0  0  0
    2.9268    2.1550   -8.0723 O   0  0  0  0  0  0  0  0  0  0  0  0
    2.3836   -1.0341   -4.3357 O   0  0  0  0  0  0  0  0  0  0  0  0
    1.0573    0.3899   -7.9865 O   0  0  0  0  0  0  0  0  0  0  0  0
    4.0502   -0.4918   -7.4259 F   0  0  0  0  0  0  0  0  0  0  0  0
    3.9961    0.6147   -5.5648 F   0  0  0  0  0  0  0  0  0  0  0  0
    2.5538   -1.0650   -5.9356 F   0  0  0  0  0  0  0  0  0  0  0  0
   -3.1347   -1.5419   -4.3559 H   0  0  0  0  0  0  0  0  0  0  0  0
  1  7  1  0  0  0  0
  2  8  1  0  0  0  0
  2  1  2  0  0  0  0
  3  2  1  0  0  0  0
  4  3  2  0  0  0  0
  4  5  1  0  0  0  0
  5  6  2  0  0  0  0
  6  1  1  0  0  0  0
  6 21  1  0  0  0  0
  9  4  1  0  0  0  0
 10  5  1  0  0  0  0
 11  3  1  0  0  0  0
 12 11  2  0  0  0  0
 13 14  1  0  0  0  0
 14 20  1  0  0  0  0
 14 19  1  0  0  0  0
 15 13  1  0  0  0  0
 17 13  1  0  0  0  0
 18 14  1  0  0  0  0
M  RAD  4  12   2  15   2  16   3  17   2
M  END
