Coordinates from ORCA-job Ph-N2-X-OTf-B3LYPG-6-31G_dp-scan-d09-49-n400
 OpenBabel08281821163D

 21 20  0  0  0  0  0  0  0  0999 V2000
   -2.2016   -0.9853   -5.4880 C   0  0  0  0  0  0  0  0  0  0  0  0
   -0.9215   -0.4922   -5.2561 C   0  0  0  0  0  0  0  0  0  0  0  0
   -0.7714    0.8638   -4.9169 C   0  0  0  0  0  0  0  0  0  0  0  0
   -1.8911    1.6991   -4.7679 C   0  0  0  0  0  0  0  0  0  0  0  0
   -3.1594    1.1975   -5.0372 C   0  0  0  0  0  0  0  0  0  0  0  0
   -3.3151   -0.1443   -5.3970 C   0  0  0  0  0  0  0  0  0  0  0  0
   -2.3299   -2.0331   -5.7393 H   0  0  0  0  0  0  0  0  0  0  0  0
   -0.0682   -1.1589   -5.2893 H   0  0  0  0  0  0  0  0  0  0  0  0
   -1.7383    2.7280   -4.4616 H   0  0  0  0  0  0  0  0  0  0  0  0
   -4.0259    1.8445   -4.9488 H   0  0  0  0  0  0  0  0  0  0  0  0
    0.4581    1.4773   -4.5967 N   0  0  0  0  0  0  0  0  0  0  0  0
    1.5686    1.2307   -5.0138 N   0  0  0  0  0  0  0  0  0  0  0  0
    2.0852    0.0429   -6.3823 S   0  0  0  0  0  0  0  0  0  0  0  0
    3.7952    0.7411   -6.8638 C   0  0  0  0  0  0  0  0  0  0  0  0
    1.2031    0.2766   -7.5232 O   0  0  0  0  0  0  0  0  0  0  0  0
    3.2051    2.0802   -4.3413 O   0  0  0  0  0  0  0  0  0  0  0  0
    2.2876   -1.2808   -5.7965 O   0  0  0  0  0  0  0  0  0  0  0  0
    4.0508    0.0922   -8.0102 F   0  0  0  0  0  0  0  0  0  0  0  0
    3.7244    2.0347   -7.1010 F   0  0  0  0  0  0  0  0  0  0  0  0
    4.7133    0.4338   -5.9771 F   0  0  0  0  0  0  0  0  0  0  0  0
   -4.3071   -0.5412   -5.5894 H   0  0  0  0  0  0  0  0  0  0  0  0
  1  6  2  0  0  0  0
  1  2  1  0  0  0  0
  2  3  2  0  0  0  0
  3  4  1  0  0  0  0
  3 11  1  0  0  0  0
  4  9  1  0  0  0  0
  5 10  1  0  0  0  0
  5  4  2  0  0  0  0
  6  5  1  0  0  0  0
  7  1  1  0  0  0  0
  8  2  1  0  0  0  0
 12 11  2  0  0  0  0
 13 17  2  0  0  0  0
 13 12  1  0  0  0  0
 14 13  1  0  0  0  0
 14 20  1  0  0  0  0
 15 13  2  0  0  0  0
 18 14  1  0  0  0  0
 19 14  1  0  0  0  0
 21  6  1  0  0  0  0
M  RAD  1  16   3
M  END
