Coordinates from ORCA-job Ph-N2-X-OTf-B3LYPG-6-31G_dp-scan-d09-49-n400
 OpenBabel08281821163D

 21 19  0  0  0  0  0  0  0  0999 V2000
   -1.4757   -0.9473   -4.6558 C   0  0  0  0  0  0  0  0  0  0  0  0
   -0.5238    0.0332   -4.9232 C   0  0  0  0  0  0  0  0  0  0  0  0
   -0.9949    1.3222   -5.2134 C   0  0  0  0  0  0  0  0  0  0  0  0
   -2.3570    1.6546   -5.2098 C   0  0  0  0  0  0  0  0  0  0  0  0
   -3.2831    0.6481   -4.9647 C   0  0  0  0  0  0  0  0  0  0  0  0
   -2.8414   -0.6502   -4.6867 C   0  0  0  0  0  0  0  0  0  0  0  0
   -1.1424   -1.9537   -4.4246 H   0  0  0  0  0  0  0  0  0  0  0  0
    0.5429   -0.1779   -4.8785 H   0  0  0  0  0  0  0  0  0  0  0  0
   -2.6637    2.6743   -5.4150 H   0  0  0  0  0  0  0  0  0  0  0  0
   -4.3438    0.8762   -4.9787 H   0  0  0  0  0  0  0  0  0  0  0  0
   -0.0955    2.3778   -5.4603 N   0  0  0  0  0  0  0  0  0  0  0  0
    0.9333    2.6962   -5.8861 N   0  0  0  0  0  0  0  0  0  0  0  0
    2.0700    1.1281   -7.2461 S   0  0  0  0  0  0  0  0  0  0  0  0
    3.6415    0.2288   -6.6016 C   0  0  0  0  0  0  0  0  0  0  0  0
    2.6949    1.9895   -8.2765 O   0  0  0  0  0  0  0  0  0  0  0  0
    2.5732   -0.0698   -4.3901 O   0  0  0  0  0  0  0  0  0  0  0  0
    1.2045   -0.0085   -7.6519 O   0  0  0  0  0  0  0  0  0  0  0  0
    4.2349   -0.4790   -7.5409 F   0  0  0  0  0  0  0  0  0  0  0  0
    4.5005    1.0036   -5.9870 F   0  0  0  0  0  0  0  0  0  0  0  0
    3.2540   -0.8071   -5.6235 F   0  0  0  0  0  0  0  0  0  0  0  0
   -3.5666   -1.4323   -4.4831 H   0  0  0  0  0  0  0  0  0  0  0  0
  1  7  1  0  0  0  0
  2  8  1  0  0  0  0
  2  1  2  0  0  0  0
  3  4  2  0  0  0  0
  3  2  1  0  0  0  0
  4  5  1  0  0  0  0
  5  6  2  0  0  0  0
  6  1  1  0  0  0  0
  6 21  1  0  0  0  0
  9  4  1  0  0  0  0
 10  5  1  0  0  0  0
 11  3  1  0  0  0  0
 12 11  2  0  0  0  0
 13 14  1  0  0  0  0
 14 19  1  0  0  0  0
 14 20  1  0  0  0  0
 15 13  1  0  0  0  0
 17 13  1  0  0  0  0
 18 14  1  0  0  0  0
M  RAD  4  12   2  15   2  16   3  17   2
M  END
