Coordinates from ORCA-job Ph-N2-X-OTf-B3LYPG-6-31G_dp-scan-d09-49-n400
 OpenBabel08281821163D

 21 20  0  0  0  0  0  0  0  0999 V2000
   -2.2319   -1.0160   -5.4884 C   0  0  0  0  0  0  0  0  0  0  0  0
   -0.9494   -0.5257   -5.2563 C   0  0  0  0  0  0  0  0  0  0  0  0
   -0.8074    0.8253   -4.9029 C   0  0  0  0  0  0  0  0  0  0  0  0
   -1.9189    1.6634   -4.7381 C   0  0  0  0  0  0  0  0  0  0  0  0
   -3.1884    1.1614   -5.0034 C   0  0  0  0  0  0  0  0  0  0  0  0
   -3.3443   -0.1770   -5.3767 C   0  0  0  0  0  0  0  0  0  0  0  0
   -2.3604   -2.0595   -5.7564 H   0  0  0  0  0  0  0  0  0  0  0  0
   -0.0908   -1.1845   -5.3163 H   0  0  0  0  0  0  0  0  0  0  0  0
   -1.7654    2.6904   -4.4257 H   0  0  0  0  0  0  0  0  0  0  0  0
   -4.0552    1.8063   -4.9045 H   0  0  0  0  0  0  0  0  0  0  0  0
    0.4481    1.4077   -4.6041 N   0  0  0  0  0  0  0  0  0  0  0  0
    1.5575    1.2342   -4.9992 N   0  0  0  0  0  0  0  0  0  0  0  0
    1.9551   -0.0326   -6.6039 S   0  0  0  0  0  0  0  0  0  0  0  0
    3.7162    0.6413   -6.7860 C   0  0  0  0  0  0  0  0  0  0  0  0
    1.2075    0.3669   -7.8071 O   0  0  0  0  0  0  0  0  0  0  0  0
    4.0994    2.9649   -4.2478 O   0  0  0  0  0  0  0  0  0  0  0  0
    2.0918   -1.4478   -6.2108 O   0  0  0  0  0  0  0  0  0  0  0  0
    4.2978    0.0193   -7.8119 F   0  0  0  0  0  0  0  0  0  0  0  0
    3.6538    1.9448   -7.0223 F   0  0  0  0  0  0  0  0  0  0  0  0
    4.3839    0.3956   -5.6679 F   0  0  0  0  0  0  0  0  0  0  0  0
   -4.3374   -0.5719   -5.5675 H   0  0  0  0  0  0  0  0  0  0  0  0
  1  6  2  0  0  0  0
  1  2  1  0  0  0  0
  2  3  2  0  0  0  0
  3  4  1  0  0  0  0
  3 11  1  0  0  0  0
  4  9  1  0  0  0  0
  5 10  1  0  0  0  0
  5  4  2  0  0  0  0
  6  5  1  0  0  0  0
  7  1  1  0  0  0  0
  8  2  1  0  0  0  0
 12 11  2  0  0  0  0
 13 17  2  0  0  0  0
 13 12  1  0  0  0  0
 14 13  1  0  0  0  0
 14 20  1  0  0  0  0
 15 13  2  0  0  0  0
 18 14  1  0  0  0  0
 19 14  1  0  0  0  0
 21  6  1  0  0  0  0
M  RAD  1  16   3
M  END
