Coordinates from ORCA-job Ph-N2-X-OTf-B3LYPG-6-31G_dp-scan-d09-49-n400
 OpenBabel08281821163D

 21 19  0  0  0  0  0  0  0  0999 V2000
   -1.4643   -0.9399   -4.6410 C   0  0  0  0  0  0  0  0  0  0  0  0
   -0.5190    0.0455   -4.9132 C   0  0  0  0  0  0  0  0  0  0  0  0
   -0.9994    1.3280   -5.2174 C   0  0  0  0  0  0  0  0  0  0  0  0
   -2.3642    1.6496   -5.2236 C   0  0  0  0  0  0  0  0  0  0  0  0
   -3.2831    0.6379   -4.9733 C   0  0  0  0  0  0  0  0  0  0  0  0
   -2.8322   -0.6541   -4.6809 C   0  0  0  0  0  0  0  0  0  0  0  0
   -1.1239   -1.9414   -4.3991 H   0  0  0  0  0  0  0  0  0  0  0  0
    0.5493   -0.1582   -4.8627 H   0  0  0  0  0  0  0  0  0  0  0  0
   -2.6782    2.6646   -5.4399 H   0  0  0  0  0  0  0  0  0  0  0  0
   -4.3456    0.8571   -4.9945 H   0  0  0  0  0  0  0  0  0  0  0  0
   -0.1074    2.3879   -5.4692 N   0  0  0  0  0  0  0  0  0  0  0  0
    0.9201    2.7187   -5.8866 N   0  0  0  0  0  0  0  0  0  0  0  0
    2.0793    1.1505   -7.2362 S   0  0  0  0  0  0  0  0  0  0  0  0
    3.6355    0.2135   -6.6062 C   0  0  0  0  0  0  0  0  0  0  0  0
    2.7203    2.0100   -8.2586 O   0  0  0  0  0  0  0  0  0  0  0  0
    2.5788   -0.0993   -4.3885 O   0  0  0  0  0  0  0  0  0  0  0  0
    1.1920    0.0345   -7.6529 O   0  0  0  0  0  0  0  0  0  0  0  0
    4.2137   -0.4928   -7.5560 F   0  0  0  0  0  0  0  0  0  0  0  0
    4.5099    0.9641   -5.9836 F   0  0  0  0  0  0  0  0  0  0  0  0
    3.2318   -0.8292   -5.6406 F   0  0  0  0  0  0  0  0  0  0  0  0
   -3.5520   -1.4401   -4.4734 H   0  0  0  0  0  0  0  0  0  0  0  0
  1  7  1  0  0  0  0
  2  8  1  0  0  0  0
  2  1  2  0  0  0  0
  3  2  1  0  0  0  0
  4  3  2  0  0  0  0
  4  5  1  0  0  0  0
  5  6  2  0  0  0  0
  6  1  1  0  0  0  0
  6 21  1  0  0  0  0
  9  4  1  0  0  0  0
 10  5  1  0  0  0  0
 11  3  1  0  0  0  0
 12 11  2  0  0  0  0
 13 14  1  0  0  0  0
 14 19  1  0  0  0  0
 14 20  1  0  0  0  0
 15 13  1  0  0  0  0
 17 13  1  0  0  0  0
 18 14  1  0  0  0  0
M  RAD  4  12   2  15   2  16   3  17   2
M  END
