Coordinates from ORCA-job Ph-N2-X-OTf-B3LYPG-6-31G_dp-scan-d09-49-n400
 OpenBabel08281821163D

 21 19  0  0  0  0  0  0  0  0999 V2000
   -1.2648   -0.8077   -4.5511 C   0  0  0  0  0  0  0  0  0  0  0  0
   -0.4242    0.2398   -4.9175 C   0  0  0  0  0  0  0  0  0  0  0  0
   -1.0263    1.4439   -5.3055 C   0  0  0  0  0  0  0  0  0  0  0  0
   -2.4145    1.6375   -5.3067 C   0  0  0  0  0  0  0  0  0  0  0  0
   -3.2289    0.5678   -4.9547 C   0  0  0  0  0  0  0  0  0  0  0  0
   -2.6536   -0.6516   -4.5772 C   0  0  0  0  0  0  0  0  0  0  0  0
   -0.8165   -1.7478   -4.2473 H   0  0  0  0  0  0  0  0  0  0  0  0
    0.6554    0.1074   -4.8662 H   0  0  0  0  0  0  0  0  0  0  0  0
   -2.8257    2.5980   -5.5968 H   0  0  0  0  0  0  0  0  0  0  0  0
   -4.3076    0.6850   -4.9659 H   0  0  0  0  0  0  0  0  0  0  0  0
   -0.2296    2.5468   -5.6711 N   0  0  0  0  0  0  0  0  0  0  0  0
    0.7947    2.8715   -6.1021 N   0  0  0  0  0  0  0  0  0  0  0  0
    2.0762    1.2356   -7.2613 S   0  0  0  0  0  0  0  0  0  0  0  0
    3.4793    0.1349   -6.5178 C   0  0  0  0  0  0  0  0  0  0  0  0
    2.9014    2.1135   -8.1205 O   0  0  0  0  0  0  0  0  0  0  0  0
    2.4311   -0.9056   -4.4146 O   0  0  0  0  0  0  0  0  0  0  0  0
    1.1621    0.2349   -7.8659 O   0  0  0  0  0  0  0  0  0  0  0  0
    4.2675   -0.3463   -7.4566 F   0  0  0  0  0  0  0  0  0  0  0  0
    4.1733    0.7218   -5.5757 F   0  0  0  0  0  0  0  0  0  0  0  0
    2.9060   -1.0913   -5.9300 F   0  0  0  0  0  0  0  0  0  0  0  0
   -3.2936   -1.4813   -4.2927 H   0  0  0  0  0  0  0  0  0  0  0  0
  1  7  1  0  0  0  0
  2  8  1  0  0  0  0
  2  1  2  0  0  0  0
  3  2  1  0  0  0  0
  4  3  2  0  0  0  0
  4  5  1  0  0  0  0
  5  6  2  0  0  0  0
  6  1  1  0  0  0  0
  6 21  1  0  0  0  0
  9  4  1  0  0  0  0
 10  5  1  0  0  0  0
 11  3  1  0  0  0  0
 12 11  2  0  0  0  0
 13 14  1  0  0  0  0
 14 20  1  0  0  0  0
 14 19  1  0  0  0  0
 15 13  1  0  0  0  0
 17 13  1  0  0  0  0
 18 14  1  0  0  0  0
M  RAD  4  12   2  15   2  16   3  17   2
M  END
