Coordinates from ORCA-job Ph-N2-X-OTf-B3LYPG-6-31G_dp-scan-d09-49-n400
 OpenBabel08281821163D

 21 21  0  0  0  0  0  0  0  0999 V2000
   -2.1314   -0.9988   -5.3734 C   0  0  0  0  0  0  0  0  0  0  0  0
   -0.8673   -0.5063   -5.0584 C   0  0  0  0  0  0  0  0  0  0  0  0
   -0.7082    0.8703   -4.8282 C   0  0  0  0  0  0  0  0  0  0  0  0
   -1.8154    1.7321   -4.8641 C   0  0  0  0  0  0  0  0  0  0  0  0
   -3.0667    1.2274   -5.2014 C   0  0  0  0  0  0  0  0  0  0  0  0
   -3.2275   -0.1375   -5.4581 C   0  0  0  0  0  0  0  0  0  0  0  0
   -2.2588   -2.0628   -5.5471 H   0  0  0  0  0  0  0  0  0  0  0  0
   -0.0277   -1.1846   -4.9532 H   0  0  0  0  0  0  0  0  0  0  0  0
   -1.6702    2.7835   -4.6411 H   0  0  0  0  0  0  0  0  0  0  0  0
   -3.9201    1.8963   -5.2514 H   0  0  0  0  0  0  0  0  0  0  0  0
    0.5098    1.4552   -4.4216 N   0  0  0  0  0  0  0  0  0  0  0  0
    1.6080    1.1348   -4.8850 N   0  0  0  0  0  0  0  0  0  0  0  0
    2.0218    0.0571   -6.4053 S   0  0  0  0  0  0  0  0  0  0  0  0
    3.7010    0.8156   -6.9059 C   0  0  0  0  0  0  0  0  0  0  0  0
    1.0785    0.3996   -7.4628 O   0  0  0  0  0  0  0  0  0  0  0  0
    2.8981    1.6014   -4.3532 O   0  0  0  0  0  0  0  0  0  0  0  0
    2.2613   -1.3088   -5.9529 O   0  0  0  0  0  0  0  0  0  0  0  0
    3.8951    0.3102   -8.1312 F   0  0  0  0  0  0  0  0  0  0  0  0
    3.6154    2.1304   -6.9825 F   0  0  0  0  0  0  0  0  0  0  0  0
    4.6738    0.4227   -6.1129 F   0  0  0  0  0  0  0  0  0  0  0  0
   -4.2079   -0.5312   -5.7076 H   0  0  0  0  0  0  0  0  0  0  0  0
  1  2  1  0  0  0  0
  2  8  1  0  0  0  0
  2  3  2  0  0  0  0
  3 11  1  0  0  0  0
  4  3  1  0  0  0  0
  4  9  1  0  0  0  0
  5  4  2  0  0  0  0
  6  1  2  0  0  0  0
  6  5  1  0  0  0  0
  7  1  1  0  0  0  0
 10  5  1  0  0  0  0
 12 11  1  0  0  0  0
 12 16  1  0  0  0  0
 13 17  2  0  0  0  0
 13 12  1  0  0  0  0
 14 13  1  0  0  0  0
 14 20  1  0  0  0  0
 15 13  2  0  0  0  0
 18 14  1  0  0  0  0
 19 14  1  0  0  0  0
 21  6  1  0  0  0  0
M  RAD  2  11   2  16   2
M  END
