Coordinates from ORCA-job Ph-N2-X-OTf-B3LYPG-6-31G_dp-scan-d09-49-n400
 OpenBabel08281821163D

 21 21  0  0  0  0  0  0  0  0999 V2000
   -2.1807   -0.9812   -5.4598 C   0  0  0  0  0  0  0  0  0  0  0  0
   -0.9051   -0.4877   -5.2041 C   0  0  0  0  0  0  0  0  0  0  0  0
   -0.7532    0.8745   -4.8906 C   0  0  0  0  0  0  0  0  0  0  0  0
   -1.8740    1.7158   -4.7897 C   0  0  0  0  0  0  0  0  0  0  0  0
   -3.1378    1.2123   -5.0766 C   0  0  0  0  0  0  0  0  0  0  0  0
   -3.2929   -0.1357   -5.4128 C   0  0  0  0  0  0  0  0  0  0  0  0
   -2.3061   -2.0337   -5.6931 H   0  0  0  0  0  0  0  0  0  0  0  0
   -0.0540   -1.1587   -5.1997 H   0  0  0  0  0  0  0  0  0  0  0  0
   -1.7260    2.7513   -4.5040 H   0  0  0  0  0  0  0  0  0  0  0  0
   -4.0029    1.8652   -5.0223 H   0  0  0  0  0  0  0  0  0  0  0  0
    0.4706    1.4808   -4.5458 N   0  0  0  0  0  0  0  0  0  0  0  0
    1.5734    1.1845   -4.9833 N   0  0  0  0  0  0  0  0  0  0  0  0
    2.0943    0.0428   -6.3690 S   0  0  0  0  0  0  0  0  0  0  0  0
    3.7823    0.7766   -6.8767 C   0  0  0  0  0  0  0  0  0  0  0  0
    1.1836    0.2845   -7.4824 O   0  0  0  0  0  0  0  0  0  0  0  0
    3.0115    1.8373   -4.4047 O   0  0  0  0  0  0  0  0  0  0  0  0
    2.3248   -1.2825   -5.8044 O   0  0  0  0  0  0  0  0  0  0  0  0
    4.0086    0.1572   -8.0455 F   0  0  0  0  0  0  0  0  0  0  0  0
    3.6928    2.0749   -7.0826 F   0  0  0  0  0  0  0  0  0  0  0  0
    4.7345    0.4607   -6.0295 F   0  0  0  0  0  0  0  0  0  0  0  0
   -4.2819   -0.5321   -5.6208 H   0  0  0  0  0  0  0  0  0  0  0  0
  1  6  2  0  0  0  0
  1  2  1  0  0  0  0
  2  8  1  0  0  0  0
  2  3  2  0  0  0  0
  3  4  1  0  0  0  0
  3 11  1  0  0  0  0
  4  9  1  0  0  0  0
  5 10  1  0  0  0  0
  5  4  2  0  0  0  0
  6  5  1  0  0  0  0
  7  1  1  0  0  0  0
 12 11  1  0  0  0  0
 12 16  1  0  0  0  0
 13 17  2  0  0  0  0
 13 12  1  0  0  0  0
 14 13  1  0  0  0  0
 14 20  1  0  0  0  0
 15 13  2  0  0  0  0
 18 14  1  0  0  0  0
 19 14  1  0  0  0  0
 21  6  1  0  0  0  0
M  RAD  2  11   2  16   2
M  END
