Coordinates from ORCA-job Ph-N2-X-OTf-B3LYPG-6-31G_dp-scan-d09-49-n400
 OpenBabel08281821163D

 21 19  0  0  0  0  0  0  0  0999 V2000
   -1.4204   -0.9025   -4.6199 C   0  0  0  0  0  0  0  0  0  0  0  0
   -0.5074    0.0997   -4.9367 C   0  0  0  0  0  0  0  0  0  0  0  0
   -1.0286    1.3618   -5.2601 C   0  0  0  0  0  0  0  0  0  0  0  0
   -2.4013    1.6478   -5.2464 C   0  0  0  0  0  0  0  0  0  0  0  0
   -3.2875    0.6201   -4.9485 C   0  0  0  0  0  0  0  0  0  0  0  0
   -2.7959   -0.6521   -4.6345 C   0  0  0  0  0  0  0  0  0  0  0  0
   -1.0473   -1.8884   -4.3629 H   0  0  0  0  0  0  0  0  0  0  0  0
    0.5660   -0.0854   -4.9093 H   0  0  0  0  0  0  0  0  0  0  0  0
   -2.7461    2.6484   -5.4825 H   0  0  0  0  0  0  0  0  0  0  0  0
   -4.3557    0.8110   -4.9505 H   0  0  0  0  0  0  0  0  0  0  0  0
   -0.1705    2.4349   -5.5622 N   0  0  0  0  0  0  0  0  0  0  0  0
    0.8552    2.7817   -5.9676 N   0  0  0  0  0  0  0  0  0  0  0  0
    2.1083    1.1847   -7.2183 S   0  0  0  0  0  0  0  0  0  0  0  0
    3.6264    0.1858   -6.5813 C   0  0  0  0  0  0  0  0  0  0  0  0
    2.8023    2.0493   -8.2012 O   0  0  0  0  0  0  0  0  0  0  0  0
    2.5546   -0.3516   -4.3913 O   0  0  0  0  0  0  0  0  0  0  0  0
    1.1990    0.1065   -7.6855 O   0  0  0  0  0  0  0  0  0  0  0  0
    4.2507   -0.4388   -7.5590 F   0  0  0  0  0  0  0  0  0  0  0  0
    4.4690    0.8809   -5.8575 F   0  0  0  0  0  0  0  0  0  0  0  0
    3.1809   -0.9363   -5.7307 F   0  0  0  0  0  0  0  0  0  0  0  0
   -3.4901   -1.4507   -4.3915 H   0  0  0  0  0  0  0  0  0  0  0  0
  1  7  1  0  0  0  0
  2  8  1  0  0  0  0
  2  1  2  0  0  0  0
  3  4  2  0  0  0  0
  3  2  1  0  0  0  0
  4  5  1  0  0  0  0
  5  6  2  0  0  0  0
  6  1  1  0  0  0  0
  6 21  1  0  0  0  0
  9  4  1  0  0  0  0
 10  5  1  0  0  0  0
 11  3  1  0  0  0  0
 12 11  2  0  0  0  0
 13 14  1  0  0  0  0
 14 19  1  0  0  0  0
 14 20  1  0  0  0  0
 15 13  1  0  0  0  0
 17 13  1  0  0  0  0
 18 14  1  0  0  0  0
M  RAD  4  12   2  15   2  16   3  17   2
M  END
