Coordinates from ORCA-job Ph-N2-X-OTf-B3LYPG-6-31G_dp-scan-d09-49-n400
 OpenBabel08281821163D

 21 19  0  0  0  0  0  0  0  0999 V2000
   -1.4441   -0.9215   -4.6268 C   0  0  0  0  0  0  0  0  0  0  0  0
   -0.5139    0.0715   -4.9233 C   0  0  0  0  0  0  0  0  0  0  0  0
   -1.0155    1.3435   -5.2405 C   0  0  0  0  0  0  0  0  0  0  0  0
   -2.3850    1.6461   -5.2373 C   0  0  0  0  0  0  0  0  0  0  0  0
   -3.2878    0.6271   -4.9605 C   0  0  0  0  0  0  0  0  0  0  0  0
   -2.8161   -0.6543   -4.6546 C   0  0  0  0  0  0  0  0  0  0  0  0
   -1.0873   -1.9149   -4.3753 H   0  0  0  0  0  0  0  0  0  0  0  0
    0.5561   -0.1289   -4.8823 H   0  0  0  0  0  0  0  0  0  0  0  0
   -2.7146    2.6534   -5.4664 H   0  0  0  0  0  0  0  0  0  0  0  0
   -4.3532    0.8320   -4.9725 H   0  0  0  0  0  0  0  0  0  0  0  0
   -0.1456    2.4118   -5.5242 N   0  0  0  0  0  0  0  0  0  0  0  0
    0.8760    2.7648   -5.9345 N   0  0  0  0  0  0  0  0  0  0  0  0
    2.1030    1.1799   -7.2237 S   0  0  0  0  0  0  0  0  0  0  0  0
    3.6341    0.1968   -6.5959 C   0  0  0  0  0  0  0  0  0  0  0  0
    2.7761    2.0350   -8.2295 O   0  0  0  0  0  0  0  0  0  0  0  0
    2.5775   -0.2299   -4.3841 O   0  0  0  0  0  0  0  0  0  0  0  0
    1.1939    0.0896   -7.6628 O   0  0  0  0  0  0  0  0  0  0  0  0
    4.2270   -0.4711   -7.5645 F   0  0  0  0  0  0  0  0  0  0  0  0
    4.5014    0.9105   -5.9216 F   0  0  0  0  0  0  0  0  0  0  0  0
    3.2023   -0.8876   -5.6893 F   0  0  0  0  0  0  0  0  0  0  0  0
   -3.5228   -1.4468   -4.4277 H   0  0  0  0  0  0  0  0  0  0  0  0
  1  7  1  0  0  0  0
  2  8  1  0  0  0  0
  2  1  2  0  0  0  0
  3  4  2  0  0  0  0
  3  2  1  0  0  0  0
  4  5  1  0  0  0  0
  5  6  2  0  0  0  0
  6  1  1  0  0  0  0
  6 21  1  0  0  0  0
  9  4  1  0  0  0  0
 10  5  1  0  0  0  0
 11  3  1  0  0  0  0
 12 11  2  0  0  0  0
 13 14  1  0  0  0  0
 14 19  1  0  0  0  0
 14 20  1  0  0  0  0
 15 13  1  0  0  0  0
 17 13  1  0  0  0  0
 18 14  1  0  0  0  0
M  RAD  4  12   2  15   2  16   3  17   2
M  END
