Coordinates from ORCA-job Ph-N2-X-OTf-B3LYPG-6-31G_dp-scan-d09-49-n400
 OpenBabel08281821163D

 21 20  0  0  0  0  0  0  0  0999 V2000
   -2.2294   -1.0132   -5.4896 C   0  0  0  0  0  0  0  0  0  0  0  0
   -0.9461   -0.5252   -5.2574 C   0  0  0  0  0  0  0  0  0  0  0  0
   -0.8016    0.8252   -4.9024 C   0  0  0  0  0  0  0  0  0  0  0  0
   -1.9119    1.6647   -4.7361 C   0  0  0  0  0  0  0  0  0  0  0  0
   -3.1823    1.1651   -5.0019 C   0  0  0  0  0  0  0  0  0  0  0  0
   -3.3404   -0.1725   -5.3769 C   0  0  0  0  0  0  0  0  0  0  0  0
   -2.3597   -2.0562   -5.7586 H   0  0  0  0  0  0  0  0  0  0  0  0
   -0.0887   -1.1855   -5.3178 H   0  0  0  0  0  0  0  0  0  0  0  0
   -1.7567    2.6909   -4.4223 H   0  0  0  0  0  0  0  0  0  0  0  0
   -4.0481    1.8113   -4.9020 H   0  0  0  0  0  0  0  0  0  0  0  0
    0.4541    1.4070   -4.6030 N   0  0  0  0  0  0  0  0  0  0  0  0
    1.5633    1.2316   -4.9991 N   0  0  0  0  0  0  0  0  0  0  0  0
    1.9608   -0.0317   -6.5983 S   0  0  0  0  0  0  0  0  0  0  0  0
    3.7214    0.6399   -6.7932 C   0  0  0  0  0  0  0  0  0  0  0  0
    1.2055    0.3651   -7.7972 O   0  0  0  0  0  0  0  0  0  0  0  0
    4.0088    2.9515   -4.2366 O   0  0  0  0  0  0  0  0  0  0  0  0
    2.0974   -1.4450   -6.1998 O   0  0  0  0  0  0  0  0  0  0  0  0
    4.2927    0.0109   -7.8211 F   0  0  0  0  0  0  0  0  0  0  0  0
    3.6598    1.9417   -7.0362 F   0  0  0  0  0  0  0  0  0  0  0  0
    4.3969    0.3967   -5.6800 F   0  0  0  0  0  0  0  0  0  0  0  0
   -4.3342   -0.5656   -5.5680 H   0  0  0  0  0  0  0  0  0  0  0  0
  1  6  2  0  0  0  0
  1  2  1  0  0  0  0
  2  3  2  0  0  0  0
  3  4  1  0  0  0  0
  3 11  1  0  0  0  0
  4  9  1  0  0  0  0
  5 10  1  0  0  0  0
  5  4  2  0  0  0  0
  6  5  1  0  0  0  0
  7  1  1  0  0  0  0
  8  2  1  0  0  0  0
 12 11  2  0  0  0  0
 13 17  2  0  0  0  0
 13 12  1  0  0  0  0
 14 13  1  0  0  0  0
 14 20  1  0  0  0  0
 15 13  2  0  0  0  0
 18 14  1  0  0  0  0
 19 14  1  0  0  0  0
 21  6  1  0  0  0  0
M  RAD  1  16   3
M  END
