Coordinates from ORCA-job Ph-N2-X-OTf-B3LYPG-6-31G_dp-scan-d09-49-n400
 OpenBabel08281821163D

 21 21  0  0  0  0  0  0  0  0999 V2000
   -2.1930   -0.9799   -5.4784 C   0  0  0  0  0  0  0  0  0  0  0  0
   -0.9151   -0.4864   -5.2360 C   0  0  0  0  0  0  0  0  0  0  0  0
   -0.7640    0.8720   -4.9059 C   0  0  0  0  0  0  0  0  0  0  0  0
   -1.8851    1.7093   -4.7768 C   0  0  0  0  0  0  0  0  0  0  0  0
   -3.1513    1.2067   -5.0537 C   0  0  0  0  0  0  0  0  0  0  0  0
   -3.3065   -0.1374   -5.4049 C   0  0  0  0  0  0  0  0  0  0  0  0
   -2.3196   -2.0296   -5.7231 H   0  0  0  0  0  0  0  0  0  0  0  0
   -0.0626   -1.1551   -5.2531 H   0  0  0  0  0  0  0  0  0  0  0  0
   -1.7348    2.7410   -4.4785 H   0  0  0  0  0  0  0  0  0  0  0  0
   -4.0175    1.8560   -4.9787 H   0  0  0  0  0  0  0  0  0  0  0  0
    0.4622    1.4819   -4.5742 N   0  0  0  0  0  0  0  0  0  0  0  0
    1.5678    1.2024   -5.0012 N   0  0  0  0  0  0  0  0  0  0  0  0
    2.1011    0.0399   -6.3628 S   0  0  0  0  0  0  0  0  0  0  0  0
    3.7930    0.7650   -6.8715 C   0  0  0  0  0  0  0  0  0  0  0  0
    1.1995    0.2609   -7.4891 O   0  0  0  0  0  0  0  0  0  0  0  0
    3.0879    1.9259   -4.3863 O   0  0  0  0  0  0  0  0  0  0  0  0
    2.3276   -1.2772   -5.7760 O   0  0  0  0  0  0  0  0  0  0  0  0
    4.0236    0.1277   -8.0303 F   0  0  0  0  0  0  0  0  0  0  0  0
    3.7060    2.0596   -7.0975 F   0  0  0  0  0  0  0  0  0  0  0  0
    4.7395    0.4583   -6.0153 F   0  0  0  0  0  0  0  0  0  0  0  0
   -4.2972   -0.5342   -5.6041 H   0  0  0  0  0  0  0  0  0  0  0  0
  1  6  2  0  0  0  0
  1  2  1  0  0  0  0
  2  3  2  0  0  0  0
  3  4  1  0  0  0  0
  3 11  1  0  0  0  0
  4  9  1  0  0  0  0
  5 10  1  0  0  0  0
  5  4  2  0  0  0  0
  6  5  1  0  0  0  0
  7  1  1  0  0  0  0
  8  2  1  0  0  0  0
 12 11  1  0  0  0  0
 12 16  1  0  0  0  0
 13 17  2  0  0  0  0
 13 12  1  0  0  0  0
 14 13  1  0  0  0  0
 14 20  1  0  0  0  0
 15 13  2  0  0  0  0
 18 14  1  0  0  0  0
 19 14  1  0  0  0  0
 21  6  1  0  0  0  0
M  RAD  2  11   2  16   2
M  END
