Coordinates from ORCA-job Ph-N2-X-OTf-B3LYPG-6-31G_dp-scan-d09-49-n400
 OpenBabel08281821163D

 21 21  0  0  0  0  0  0  0  0999 V2000
   -2.0864   -1.0176   -5.2989 C   0  0  0  0  0  0  0  0  0  0  0  0
   -0.8378   -0.5229   -4.9252 C   0  0  0  0  0  0  0  0  0  0  0  0
   -0.6699    0.8615   -4.7647 C   0  0  0  0  0  0  0  0  0  0  0  0
   -1.7561    1.7339   -4.9247 C   0  0  0  0  0  0  0  0  0  0  0  0
   -2.9922    1.2256   -5.3105 C   0  0  0  0  0  0  0  0  0  0  0  0
   -3.1602   -0.1495   -5.5011 C   0  0  0  0  0  0  0  0  0  0  0  0
   -2.2183   -2.0880   -5.4243 H   0  0  0  0  0  0  0  0  0  0  0  0
   -0.0142   -1.2015   -4.7317 H   0  0  0  0  0  0  0  0  0  0  0  0
   -1.6093    2.7954   -4.7566 H   0  0  0  0  0  0  0  0  0  0  0  0
   -3.8289    1.9021   -5.4546 H   0  0  0  0  0  0  0  0  0  0  0  0
    0.5382    1.4306   -4.3022 N   0  0  0  0  0  0  0  0  0  0  0  0
    1.6385    1.1190   -4.7874 N   0  0  0  0  0  0  0  0  0  0  0  0
    1.9296    0.0929   -6.4501 S   0  0  0  0  0  0  0  0  0  0  0  0
    3.6246    0.8312   -6.9302 C   0  0  0  0  0  0  0  0  0  0  0  0
    0.9827    0.5478   -7.4630 O   0  0  0  0  0  0  0  0  0  0  0  0
    2.8374    1.4719   -4.3010 O   0  0  0  0  0  0  0  0  0  0  0  0
    2.1437   -1.3127   -6.1151 O   0  0  0  0  0  0  0  0  0  0  0  0
    3.8018    0.4178   -8.1894 F   0  0  0  0  0  0  0  0  0  0  0  0
    3.5745    2.1527   -6.9026 F   0  0  0  0  0  0  0  0  0  0  0  0
    4.5933    0.3596   -6.1714 F   0  0  0  0  0  0  0  0  0  0  0  0
   -4.1290   -0.5430   -5.7926 H   0  0  0  0  0  0  0  0  0  0  0  0
  1  2  2  0  0  0  0
  2  3  1  0  0  0  0
  2  8  1  0  0  0  0
  3 11  1  0  0  0  0
  4  3  2  0  0  0  0
  4  9  1  0  0  0  0
  5  4  1  0  0  0  0
  6  5  2  0  0  0  0
  6  1  1  0  0  0  0
  7  1  1  0  0  0  0
 10  5  1  0  0  0  0
 12 11  1  0  0  0  0
 12 16  1  0  0  0  0
 13 17  2  0  0  0  0
 13 12  1  0  0  0  0
 14 19  1  0  0  0  0
 14 13  1  0  0  0  0
 14 20  1  0  0  0  0
 15 13  2  0  0  0  0
 18 14  1  0  0  0  0
 21  6  1  0  0  0  0
M  RAD  2  11   2  16   2
M  END
