Coordinates from ORCA-job Ph-N2-X-OTf-B3LYPG-6-31G_dp-scan-d09-49-n400
 OpenBabel08281821163D

 21 20  0  0  0  0  0  0  0  0999 V2000
   -2.2260   -1.0071   -5.4940 C   0  0  0  0  0  0  0  0  0  0  0  0
   -0.9413   -0.5209   -5.2657 C   0  0  0  0  0  0  0  0  0  0  0  0
   -0.7939    0.8278   -4.9054 C   0  0  0  0  0  0  0  0  0  0  0  0
   -1.9034    1.6669   -4.7304 C   0  0  0  0  0  0  0  0  0  0  0  0
   -3.1753    1.1696   -4.9926 C   0  0  0  0  0  0  0  0  0  0  0  0
   -3.3360   -0.1662   -5.3728 C   0  0  0  0  0  0  0  0  0  0  0  0
   -2.3583   -2.0490   -5.7667 H   0  0  0  0  0  0  0  0  0  0  0  0
   -0.0851   -1.1821   -5.3323 H   0  0  0  0  0  0  0  0  0  0  0  0
   -1.7457    2.6915   -4.4123 H   0  0  0  0  0  0  0  0  0  0  0  0
   -4.0402    1.8159   -4.8856 H   0  0  0  0  0  0  0  0  0  0  0  0
    0.4616    1.4112   -4.6088 N   0  0  0  0  0  0  0  0  0  0  0  0
    1.5703    1.2317   -5.0076 N   0  0  0  0  0  0  0  0  0  0  0  0
    1.9732   -0.0296   -6.5902 S   0  0  0  0  0  0  0  0  0  0  0  0
    3.7350    0.6362   -6.8014 C   0  0  0  0  0  0  0  0  0  0  0  0
    1.2103    0.3602   -7.7855 O   0  0  0  0  0  0  0  0  0  0  0  0
    3.8522    2.9213   -4.2254 O   0  0  0  0  0  0  0  0  0  0  0  0
    2.1067   -1.4383   -6.1780 O   0  0  0  0  0  0  0  0  0  0  0  0
    4.2910   -0.0093   -7.8279 F   0  0  0  0  0  0  0  0  0  0  0  0
    3.6778    1.9342   -7.0605 F   0  0  0  0  0  0  0  0  0  0  0  0
    4.4198    0.4006   -5.6932 F   0  0  0  0  0  0  0  0  0  0  0  0
   -4.3309   -0.5579   -5.5612 H   0  0  0  0  0  0  0  0  0  0  0  0
  1  6  2  0  0  0  0
  1  2  1  0  0  0  0
  2  3  2  0  0  0  0
  3  4  1  0  0  0  0
  3 11  1  0  0  0  0
  4  9  1  0  0  0  0
  5 10  1  0  0  0  0
  5  4  2  0  0  0  0
  6  5  1  0  0  0  0
  7  1  1  0  0  0  0
  8  2  1  0  0  0  0
 12 11  2  0  0  0  0
 13 17  2  0  0  0  0
 13 12  1  0  0  0  0
 14 13  1  0  0  0  0
 14 20  1  0  0  0  0
 15 13  2  0  0  0  0
 18 14  1  0  0  0  0
 19 14  1  0  0  0  0
 21  6  1  0  0  0  0
M  RAD  1  16   3
M  END
