Coordinates from ORCA-job Ph-N2-X-OTf-B3LYPG-6-31G_dp-scan-d09-49-n400
 OpenBabel08281821163D

 21 20  0  0  0  0  0  0  0  0999 V2000
   -2.2315   -1.0157   -5.4883 C   0  0  0  0  0  0  0  0  0  0  0  0
   -0.9489   -0.5257   -5.2563 C   0  0  0  0  0  0  0  0  0  0  0  0
   -0.8066    0.8253   -4.9029 C   0  0  0  0  0  0  0  0  0  0  0  0
   -1.9179    1.6637   -4.7381 C   0  0  0  0  0  0  0  0  0  0  0  0
   -3.1875    1.1619   -5.0034 C   0  0  0  0  0  0  0  0  0  0  0  0
   -3.3438   -0.1765   -5.3767 C   0  0  0  0  0  0  0  0  0  0  0  0
   -2.3603   -2.0592   -5.7563 H   0  0  0  0  0  0  0  0  0  0  0  0
   -0.0905   -1.1847   -5.3161 H   0  0  0  0  0  0  0  0  0  0  0  0
   -1.7643    2.6906   -4.4256 H   0  0  0  0  0  0  0  0  0  0  0  0
   -4.0543    1.8070   -4.9046 H   0  0  0  0  0  0  0  0  0  0  0  0
    0.4489    1.4077   -4.6040 N   0  0  0  0  0  0  0  0  0  0  0  0
    1.5583    1.2339   -4.9992 N   0  0  0  0  0  0  0  0  0  0  0  0
    1.9558   -0.0324   -6.6033 S   0  0  0  0  0  0  0  0  0  0  0  0
    3.7168    0.6412   -6.7871 C   0  0  0  0  0  0  0  0  0  0  0  0
    1.2071    0.3668   -7.8058 O   0  0  0  0  0  0  0  0  0  0  0  0
    4.0880    2.9631   -4.2453 O   0  0  0  0  0  0  0  0  0  0  0  0
    2.0925   -1.4474   -6.2095 O   0  0  0  0  0  0  0  0  0  0  0  0
    4.2968    0.0184   -7.8135 F   0  0  0  0  0  0  0  0  0  0  0  0
    3.6545    1.9445   -7.0240 F   0  0  0  0  0  0  0  0  0  0  0  0
    4.3856    0.3955   -5.6698 F   0  0  0  0  0  0  0  0  0  0  0  0
   -4.3369   -0.5712   -5.5675 H   0  0  0  0  0  0  0  0  0  0  0  0
  1  6  2  0  0  0  0
  1  2  1  0  0  0  0
  2  3  2  0  0  0  0
  3  4  1  0  0  0  0
  3 11  1  0  0  0  0
  4  9  1  0  0  0  0
  5 10  1  0  0  0  0
  5  4  2  0  0  0  0
  6  5  1  0  0  0  0
  7  1  1  0  0  0  0
  8  2  1  0  0  0  0
 12 11  2  0  0  0  0
 13 17  2  0  0  0  0
 13 12  1  0  0  0  0
 14 13  1  0  0  0  0
 14 20  1  0  0  0  0
 15 13  2  0  0  0  0
 18 14  1  0  0  0  0
 19 14  1  0  0  0  0
 21  6  1  0  0  0  0
M  RAD  1  16   3
M  END
