Coordinates from ORCA-job Ph-N2-X-OTf-B3LYPG-6-31G_dp-scan-d09-49-n400
 OpenBabel08281821163D

 21 21  0  0  0  0  0  0  0  0999 V2000
   -2.1619   -0.9863   -5.4305 C   0  0  0  0  0  0  0  0  0  0  0  0
   -0.8901   -0.4929   -5.1539 C   0  0  0  0  0  0  0  0  0  0  0  0
   -0.7367    0.8748   -4.8681 C   0  0  0  0  0  0  0  0  0  0  0  0
   -1.8549    1.7231   -4.8135 C   0  0  0  0  0  0  0  0  0  0  0  0
   -3.1145    1.2189   -5.1179 C   0  0  0  0  0  0  0  0  0  0  0  0
   -3.2702   -0.1352   -5.4280 C   0  0  0  0  0  0  0  0  0  0  0  0
   -2.2866   -2.0431   -5.6444 H   0  0  0  0  0  0  0  0  0  0  0  0
   -0.0419   -1.1669   -5.1150 H   0  0  0  0  0  0  0  0  0  0  0  0
   -1.7092    2.7645   -4.5483 H   0  0  0  0  0  0  0  0  0  0  0  0
   -3.9768    1.8777   -5.0984 H   0  0  0  0  0  0  0  0  0  0  0  0
    0.4846    1.4744   -4.5018 N   0  0  0  0  0  0  0  0  0  0  0  0
    1.5852    1.1655   -4.9503 N   0  0  0  0  0  0  0  0  0  0  0  0
    2.0724    0.0467   -6.3813 S   0  0  0  0  0  0  0  0  0  0  0  0
    3.7563    0.7906   -6.8867 C   0  0  0  0  0  0  0  0  0  0  0  0
    1.1490    0.3232   -7.4754 O   0  0  0  0  0  0  0  0  0  0  0  0
    2.9506    1.7412   -4.3971 O   0  0  0  0  0  0  0  0  0  0  0  0
    2.3074   -1.2927   -5.8544 O   0  0  0  0  0  0  0  0  0  0  0  0
    3.9741    0.2063   -8.0741 F   0  0  0  0  0  0  0  0  0  0  0  0
    3.6656    2.0953   -7.0525 F   0  0  0  0  0  0  0  0  0  0  0  0
    4.7156    0.4525   -6.0552 F   0  0  0  0  0  0  0  0  0  0  0  0
   -4.2564   -0.5309   -5.6505 H   0  0  0  0  0  0  0  0  0  0  0  0
  1  6  2  0  0  0  0
  1  2  1  0  0  0  0
  2  8  1  0  0  0  0
  2  3  2  0  0  0  0
  3  4  1  0  0  0  0
  3 11  1  0  0  0  0
  4  9  1  0  0  0  0
  5 10  1  0  0  0  0
  5  4  2  0  0  0  0
  6  5  1  0  0  0  0
  7  1  1  0  0  0  0
 12 11  1  0  0  0  0
 12 16  1  0  0  0  0
 13 17  2  0  0  0  0
 13 12  1  0  0  0  0
 14 13  1  0  0  0  0
 14 20  1  0  0  0  0
 15 13  2  0  0  0  0
 18 14  1  0  0  0  0
 19 14  1  0  0  0  0
 21  6  1  0  0  0  0
M  RAD  2  11   2  16   2
M  END
