Coordinates from ORCA-job Ph-N2-X-OTf-B3LYPG-6-31G_dp-scan-d09-49-n400
 OpenBabel08281821163D

 21 19  0  0  0  0  0  0  0  0999 V2000
   -1.3591   -0.8564   -4.6064 C   0  0  0  0  0  0  0  0  0  0  0  0
   -0.4835    0.1593   -4.9810 C   0  0  0  0  0  0  0  0  0  0  0  0
   -1.0456    1.4008   -5.3126 C   0  0  0  0  0  0  0  0  0  0  0  0
   -2.4237    1.6543   -5.2546 C   0  0  0  0  0  0  0  0  0  0  0  0
   -3.2731    0.6151   -4.8957 C   0  0  0  0  0  0  0  0  0  0  0  0
   -2.7394   -0.6378   -4.5715 C   0  0  0  0  0  0  0  0  0  0  0  0
   -0.9481   -1.8253   -4.3425 H   0  0  0  0  0  0  0  0  0  0  0  0
    0.5907   -0.0206   -4.9843 H   0  0  0  0  0  0  0  0  0  0  0  0
   -2.8006    2.6401   -5.5035 H   0  0  0  0  0  0  0  0  0  0  0  0
   -4.3447    0.7816   -4.8595 H   0  0  0  0  0  0  0  0  0  0  0  0
   -0.2267    2.4838   -5.6821 N   0  0  0  0  0  0  0  0  0  0  0  0
    0.7927    2.8231   -6.1104 N   0  0  0  0  0  0  0  0  0  0  0  0
    2.1131    1.1936   -7.2540 S   0  0  0  0  0  0  0  0  0  0  0  0
    3.5876    0.1866   -6.5167 C   0  0  0  0  0  0  0  0  0  0  0  0
    2.8728    2.0650   -8.1790 O   0  0  0  0  0  0  0  0  0  0  0  0
    2.4717   -0.7353   -4.4299 O   0  0  0  0  0  0  0  0  0  0  0  0
    1.2294    0.1255   -7.7871 O   0  0  0  0  0  0  0  0  0  0  0  0
    4.3681   -0.2950   -7.4625 F   0  0  0  0  0  0  0  0  0  0  0  0
    4.2863    0.8361   -5.6185 F   0  0  0  0  0  0  0  0  0  0  0  0
    3.0982   -1.0421   -5.8638 F   0  0  0  0  0  0  0  0  0  0  0  0
   -3.4045   -1.4457   -4.2818 H   0  0  0  0  0  0  0  0  0  0  0  0
  1  6  1  0  0  0  0
  1  7  1  0  0  0  0
  2  1  2  0  0  0  0
  3  4  2  0  0  0  0
  3  2  1  0  0  0  0
  4  5  1  0  0  0  0
  5 10  1  0  0  0  0
  5  6  2  0  0  0  0
  6 21  1  0  0  0  0
  8  2  1  0  0  0  0
  9  4  1  0  0  0  0
 11  3  1  0  0  0  0
 12 11  2  0  0  0  0
 13 14  1  0  0  0  0
 14 20  1  0  0  0  0
 14 19  1  0  0  0  0
 15 13  1  0  0  0  0
 17 13  1  0  0  0  0
 18 14  1  0  0  0  0
M  RAD  4  12   2  15   2  16   3  17   2
M  END
