Coordinates from ORCA-job Ph-N2-X-OTf-B3LYPG-6-31G_dp-scan-d09-49-n400
 OpenBabel08281821163D

 21 19  0  0  0  0  0  0  0  0999 V2000
   -1.1983   -0.7808   -4.5209 C   0  0  0  0  0  0  0  0  0  0  0  0
   -0.3793    0.2883   -4.8723 C   0  0  0  0  0  0  0  0  0  0  0  0
   -1.0025    1.4691   -5.2947 C   0  0  0  0  0  0  0  0  0  0  0  0
   -2.3943    1.6232   -5.3393 C   0  0  0  0  0  0  0  0  0  0  0  0
   -3.1871    0.5326   -5.0015 C   0  0  0  0  0  0  0  0  0  0  0  0
   -2.5894   -0.6661   -4.5931 C   0  0  0  0  0  0  0  0  0  0  0  0
   -0.7291   -1.7027   -4.1937 H   0  0  0  0  0  0  0  0  0  0  0  0
    0.7004    0.1881   -4.7794 H   0  0  0  0  0  0  0  0  0  0  0  0
   -2.8247    2.5677   -5.6531 H   0  0  0  0  0  0  0  0  0  0  0  0
   -4.2680    0.6173   -5.0485 H   0  0  0  0  0  0  0  0  0  0  0  0
   -0.2188    2.5868   -5.6482 N   0  0  0  0  0  0  0  0  0  0  0  0
    0.8077    2.9016   -6.0843 N   0  0  0  0  0  0  0  0  0  0  0  0
    2.0440    1.2663   -7.2727 S   0  0  0  0  0  0  0  0  0  0  0  0
    3.3877    0.1011   -6.5213 C   0  0  0  0  0  0  0  0  0  0  0  0
    2.9155    2.1388   -8.0895 O   0  0  0  0  0  0  0  0  0  0  0  0
    2.4057   -0.9785   -4.3804 O   0  0  0  0  0  0  0  0  0  0  0  0
    1.1075    0.3161   -7.9209 O   0  0  0  0  0  0  0  0  0  0  0  0
    4.1647   -0.4141   -7.4504 F   0  0  0  0  0  0  0  0  0  0  0  0
    4.0927    0.6571   -5.5699 F   0  0  0  0  0  0  0  0  0  0  0  0
    2.7416   -1.0941   -5.9435 F   0  0  0  0  0  0  0  0  0  0  0  0
   -3.2143   -1.5110   -4.3199 H   0  0  0  0  0  0  0  0  0  0  0  0
  1  7  1  0  0  0  0
  2  8  1  0  0  0  0
  2  1  2  0  0  0  0
  3  2  1  0  0  0  0
  4  3  2  0  0  0  0
  4  5  1  0  0  0  0
  5  6  2  0  0  0  0
  6  1  1  0  0  0  0
  6 21  1  0  0  0  0
  9  4  1  0  0  0  0
 10  5  1  0  0  0  0
 11  3  1  0  0  0  0
 12 11  2  0  0  0  0
 13 14  1  0  0  0  0
 14 20  1  0  0  0  0
 14 19  1  0  0  0  0
 15 13  1  0  0  0  0
 17 13  1  0  0  0  0
 18 14  1  0  0  0  0
M  RAD  4  12   2  15   2  16   3  17   2
M  END
