Coordinates from ORCA-job Ph-N2-X-OTf-B3LYPG-6-31G_dp-scan-d09-49-n400
 OpenBabel08281821163D

 21 19  0  0  0  0  0  0  0  0999 V2000
   -1.4148   -0.8917   -4.6304 C   0  0  0  0  0  0  0  0  0  0  0  0
   -0.5103    0.1094   -4.9747 C   0  0  0  0  0  0  0  0  0  0  0  0
   -1.0396    1.3714   -5.2853 C   0  0  0  0  0  0  0  0  0  0  0  0
   -2.4117    1.6570   -5.2340 C   0  0  0  0  0  0  0  0  0  0  0  0
   -3.2899    0.6314   -4.9070 C   0  0  0  0  0  0  0  0  0  0  0  0
   -2.7900   -0.6405   -4.6050 C   0  0  0  0  0  0  0  0  0  0  0  0
   -1.0338   -1.8768   -4.3825 H   0  0  0  0  0  0  0  0  0  0  0  0
    0.5614   -0.0860   -4.9740 H   0  0  0  0  0  0  0  0  0  0  0  0
   -2.7621    2.6571   -5.4638 H   0  0  0  0  0  0  0  0  0  0  0  0
   -4.3574    0.8233   -4.8778 H   0  0  0  0  0  0  0  0  0  0  0  0
   -0.1941    2.4445   -5.6210 N   0  0  0  0  0  0  0  0  0  0  0  0
    0.8292    2.7835   -6.0403 N   0  0  0  0  0  0  0  0  0  0  0  0
    2.1133    1.1684   -7.2372 S   0  0  0  0  0  0  0  0  0  0  0  0
    3.6335    0.2035   -6.5486 C   0  0  0  0  0  0  0  0  0  0  0  0
    2.8175    2.0381   -8.2075 O   0  0  0  0  0  0  0  0  0  0  0  0
    2.5221   -0.5009   -4.4122 O   0  0  0  0  0  0  0  0  0  0  0  0
    1.2337    0.0724   -7.7186 O   0  0  0  0  0  0  0  0  0  0  0  0
    4.3416   -0.3481   -7.5131 F   0  0  0  0  0  0  0  0  0  0  0  0
    4.3996    0.9025   -5.7473 F   0  0  0  0  0  0  0  0  0  0  0  0
    3.1907   -0.9733   -5.7769 F   0  0  0  0  0  0  0  0  0  0  0  0
   -3.4772   -1.4383   -4.3401 H   0  0  0  0  0  0  0  0  0  0  0  0
  1  6  1  0  0  0  0
  1  7  1  0  0  0  0
  2  8  1  0  0  0  0
  2  1  2  0  0  0  0
  3  4  2  0  0  0  0
  3  2  1  0  0  0  0
  4  5  1  0  0  0  0
  5 10  1  0  0  0  0
  5  6  2  0  0  0  0
  6 21  1  0  0  0  0
  9  4  1  0  0  0  0
 11  3  1  0  0  0  0
 12 11  2  0  0  0  0
 13 14  1  0  0  0  0
 14 20  1  0  0  0  0
 14 19  1  0  0  0  0
 15 13  1  0  0  0  0
 17 13  1  0  0  0  0
 18 14  1  0  0  0  0
M  RAD  4  12   2  15   2  16   3  17   2
M  END
