Coordinates from ORCA-job Ph-N2-X-OTf-B3LYPG-6-31G_dp-scan-d09-49-n400
 OpenBabel08281821163D

 21 21  0  0  0  0  0  0  0  0999 V2000
   -2.1955   -0.9803   -5.4801 C   0  0  0  0  0  0  0  0  0  0  0  0
   -0.9170   -0.4876   -5.2390 C   0  0  0  0  0  0  0  0  0  0  0  0
   -0.7653    0.8704   -4.9077 C   0  0  0  0  0  0  0  0  0  0  0  0
   -1.8858    1.7081   -4.7759 C   0  0  0  0  0  0  0  0  0  0  0  0
   -3.1526    1.2064   -5.0519 C   0  0  0  0  0  0  0  0  0  0  0  0
   -3.3085   -0.1373   -5.4044 C   0  0  0  0  0  0  0  0  0  0  0  0
   -2.3229   -2.0297   -5.7256 H   0  0  0  0  0  0  0  0  0  0  0  0
   -0.0649   -1.1567   -5.2578 H   0  0  0  0  0  0  0  0  0  0  0  0
   -1.7346    2.7393   -4.4765 H   0  0  0  0  0  0  0  0  0  0  0  0
   -4.0184    1.8559   -4.9752 H   0  0  0  0  0  0  0  0  0  0  0  0
    0.4616    1.4803   -4.5774 N   0  0  0  0  0  0  0  0  0  0  0  0
    1.5679    1.2044   -5.0025 N   0  0  0  0  0  0  0  0  0  0  0  0
    2.1016    0.0392   -6.3626 S   0  0  0  0  0  0  0  0  0  0  0  0
    3.7935    0.7642   -6.8715 C   0  0  0  0  0  0  0  0  0  0  0  0
    1.2008    0.2577   -7.4902 O   0  0  0  0  0  0  0  0  0  0  0  0
    3.1023    1.9405   -4.3795 O   0  0  0  0  0  0  0  0  0  0  0  0
    2.3287   -1.2771   -5.7739 O   0  0  0  0  0  0  0  0  0  0  0  0
    4.0250    0.1253   -8.0292 F   0  0  0  0  0  0  0  0  0  0  0  0
    3.7059    2.0583   -7.0995 F   0  0  0  0  0  0  0  0  0  0  0  0
    4.7394    0.4590   -6.0141 F   0  0  0  0  0  0  0  0  0  0  0  0
   -4.2996   -0.5336   -5.6028 H   0  0  0  0  0  0  0  0  0  0  0  0
  1  6  2  0  0  0  0
  1  2  1  0  0  0  0
  2  3  2  0  0  0  0
  3  4  1  0  0  0  0
  3 11  1  0  0  0  0
  4  9  1  0  0  0  0
  5 10  1  0  0  0  0
  5  4  2  0  0  0  0
  6  5  1  0  0  0  0
  7  1  1  0  0  0  0
  8  2  1  0  0  0  0
 12 11  1  0  0  0  0
 12 16  1  0  0  0  0
 13 17  2  0  0  0  0
 13 12  1  0  0  0  0
 14 13  1  0  0  0  0
 14 20  1  0  0  0  0
 15 13  2  0  0  0  0
 18 14  1  0  0  0  0
 19 14  1  0  0  0  0
 21  6  1  0  0  0  0
M  RAD  2  11   2  16   2
M  END
