Coordinates from ORCA-job Ph-N2-X-OTf-B3LYPG-6-31G_dp-scan-d09-49-n400
 OpenBabel08281821163D

 21 21  0  0  0  0  0  0  0  0999 V2000
   -1.9942   -1.0443   -5.2107 C   0  0  0  0  0  0  0  0  0  0  0  0
   -0.7895   -0.5406   -4.7197 C   0  0  0  0  0  0  0  0  0  0  0  0
   -0.6090    0.8479   -4.6307 C   0  0  0  0  0  0  0  0  0  0  0  0
   -1.6485    1.7219   -4.9804 C   0  0  0  0  0  0  0  0  0  0  0  0
   -2.8462    1.2061   -5.4634 C   0  0  0  0  0  0  0  0  0  0  0  0
   -3.0203   -0.1768   -5.5846 C   0  0  0  0  0  0  0  0  0  0  0  0
   -2.1287   -2.1185   -5.2932 H   0  0  0  0  0  0  0  0  0  0  0  0
    0.0009   -1.2122   -4.4030 H   0  0  0  0  0  0  0  0  0  0  0  0
   -1.4968    2.7911   -4.8766 H   0  0  0  0  0  0  0  0  0  0  0  0
   -3.6460    1.8826   -5.7482 H   0  0  0  0  0  0  0  0  0  0  0  0
    0.5579    1.4044   -4.0639 N   0  0  0  0  0  0  0  0  0  0  0  0
    1.6923    1.1730   -4.5719 N   0  0  0  0  0  0  0  0  0  0  0  0
    1.7380    0.1689   -6.5321 S   0  0  0  0  0  0  0  0  0  0  0  0
    3.4771    0.8077   -6.9869 C   0  0  0  0  0  0  0  0  0  0  0  0
    0.8425    0.7943   -7.5147 O   0  0  0  0  0  0  0  0  0  0  0  0
    2.7011    1.4017   -4.2268 O   0  0  0  0  0  0  0  0  0  0  0  0
    1.8795   -1.2904   -6.4038 O   0  0  0  0  0  0  0  0  0  0  0  0
    3.6950    0.4989   -8.2639 F   0  0  0  0  0  0  0  0  0  0  0  0
    3.5122    2.1323   -6.8363 F   0  0  0  0  0  0  0  0  0  0  0  0
    4.4013    0.2335   -6.2240 F   0  0  0  0  0  0  0  0  0  0  0  0
   -3.9571   -0.5746   -5.9625 H   0  0  0  0  0  0  0  0  0  0  0  0
  1  2  2  0  0  0  0
  2  3  1  0  0  0  0
  2  8  1  0  0  0  0
  3 11  1  0  0  0  0
  4  9  1  0  0  0  0
  4  3  2  0  0  0  0
  5  4  1  0  0  0  0
  6  5  2  0  0  0  0
  6  1  1  0  0  0  0
  7  1  1  0  0  0  0
 10  5  1  0  0  0  0
 12 16  1  0  0  0  0
 12 11  1  0  0  0  0
 13 17  2  0  0  0  0
 13 12  1  0  0  0  0
 14 19  1  0  0  0  0
 14 13  1  0  0  0  0
 14 20  1  0  0  0  0
 15 13  2  0  0  0  0
 18 14  1  0  0  0  0
 21  6  1  0  0  0  0
M  RAD  2  11   2  16   2
M  END
