Coordinates from ORCA-job Ph-N2-X-OTf-B3LYPG-6-31G_dp-scan-d09-49-n400
 OpenBabel08281821163D

 21 20  0  0  0  0  0  0  0  0999 V2000
   -2.2283   -1.0103   -5.4927 C   0  0  0  0  0  0  0  0  0  0  0  0
   -0.9445   -0.5230   -5.2615 C   0  0  0  0  0  0  0  0  0  0  0  0
   -0.7993    0.8263   -4.9027 C   0  0  0  0  0  0  0  0  0  0  0  0
   -1.9092    1.6654   -4.7322 C   0  0  0  0  0  0  0  0  0  0  0  0
   -3.1801    1.1667   -4.9970 C   0  0  0  0  0  0  0  0  0  0  0  0
   -3.3391   -0.1699   -5.3755 C   0  0  0  0  0  0  0  0  0  0  0  0
   -2.3592   -2.0526   -5.7645 H   0  0  0  0  0  0  0  0  0  0  0  0
   -0.0873   -1.1832   -5.3254 H   0  0  0  0  0  0  0  0  0  0  0  0
   -1.7532    2.6907   -4.4157 H   0  0  0  0  0  0  0  0  0  0  0  0
   -4.0457    1.8126   -4.8936 H   0  0  0  0  0  0  0  0  0  0  0  0
    0.4570    1.4076   -4.6044 N   0  0  0  0  0  0  0  0  0  0  0  0
    1.5655    1.2298   -5.0020 N   0  0  0  0  0  0  0  0  0  0  0  0
    1.9645   -0.0339   -6.5972 S   0  0  0  0  0  0  0  0  0  0  0  0
    3.7256    0.6375   -6.7950 C   0  0  0  0  0  0  0  0  0  0  0  0
    1.2082    0.3606   -7.7959 O   0  0  0  0  0  0  0  0  0  0  0  0
    3.9577    2.9510   -4.2346 O   0  0  0  0  0  0  0  0  0  0  0  0
    2.1005   -1.4458   -6.1947 O   0  0  0  0  0  0  0  0  0  0  0  0
    4.2951    0.0023   -7.8201 F   0  0  0  0  0  0  0  0  0  0  0  0
    3.6644    1.9377   -7.0452 F   0  0  0  0  0  0  0  0  0  0  0  0
    4.4021    0.3995   -5.6814 F   0  0  0  0  0  0  0  0  0  0  0  0
   -4.3332   -0.5624   -5.5660 H   0  0  0  0  0  0  0  0  0  0  0  0
  1  6  2  0  0  0  0
  1  2  1  0  0  0  0
  2  3  2  0  0  0  0
  3  4  1  0  0  0  0
  3 11  1  0  0  0  0
  4  9  1  0  0  0  0
  5 10  1  0  0  0  0
  5  4  2  0  0  0  0
  6  5  1  0  0  0  0
  7  1  1  0  0  0  0
  8  2  1  0  0  0  0
 12 11  2  0  0  0  0
 13 17  2  0  0  0  0
 13 12  1  0  0  0  0
 14 13  1  0  0  0  0
 14 20  1  0  0  0  0
 15 13  2  0  0  0  0
 18 14  1  0  0  0  0
 19 14  1  0  0  0  0
 21  6  1  0  0  0  0
M  RAD  1  16   3
M  END
