Coordinates from ORCA-job Ph-N2-X-OTf-B3LYPG-6-31G_dp-scan-d09-49-n400
 OpenBabel08281821163D

 21 20  0  0  0  0  0  0  0  0999 V2000
   -2.2124   -0.9975   -5.4924 C   0  0  0  0  0  0  0  0  0  0  0  0
   -0.9266   -0.5141   -5.2683 C   0  0  0  0  0  0  0  0  0  0  0  0
   -0.7705    0.8365   -4.9149 C   0  0  0  0  0  0  0  0  0  0  0  0
   -1.8812    1.6773   -4.7429 C   0  0  0  0  0  0  0  0  0  0  0  0
   -3.1548    1.1849   -5.0051 C   0  0  0  0  0  0  0  0  0  0  0  0
   -3.3201   -0.1520   -5.3785 C   0  0  0  0  0  0  0  0  0  0  0  0
   -2.3488   -2.0412   -5.7564 H   0  0  0  0  0  0  0  0  0  0  0  0
   -0.0751   -1.1817   -5.3258 H   0  0  0  0  0  0  0  0  0  0  0  0
   -1.7195    2.7017   -4.4261 H   0  0  0  0  0  0  0  0  0  0  0  0
   -4.0173    1.8349   -4.9005 H   0  0  0  0  0  0  0  0  0  0  0  0
    0.4728    1.4370   -4.6102 N   0  0  0  0  0  0  0  0  0  0  0  0
    1.5850    1.2402   -5.0178 N   0  0  0  0  0  0  0  0  0  0  0  0
    2.0231    0.0181   -6.5003 S   0  0  0  0  0  0  0  0  0  0  0  0
    3.7740    0.6720   -6.8349 C   0  0  0  0  0  0  0  0  0  0  0  0
    1.1992    0.3559   -7.6642 O   0  0  0  0  0  0  0  0  0  0  0  0
    3.4064    2.5601   -4.2597 O   0  0  0  0  0  0  0  0  0  0  0  0
    2.1657   -1.3582   -6.0098 O   0  0  0  0  0  0  0  0  0  0  0  0
    4.1973    0.0012   -7.9117 F   0  0  0  0  0  0  0  0  0  0  0  0
    3.7231    1.9633   -7.1045 F   0  0  0  0  0  0  0  0  0  0  0  0
    4.5576    0.4101   -5.8082 F   0  0  0  0  0  0  0  0  0  0  0  0
   -4.3161   -0.5417   -5.5651 H   0  0  0  0  0  0  0  0  0  0  0  0
  1  6  2  0  0  0  0
  1  2  1  0  0  0  0
  2  3  2  0  0  0  0
  3  4  1  0  0  0  0
  3 11  1  0  0  0  0
  4  9  1  0  0  0  0
  5 10  1  0  0  0  0
  5  4  2  0  0  0  0
  6  5  1  0  0  0  0
  7  1  1  0  0  0  0
  8  2  1  0  0  0  0
 12 11  2  0  0  0  0
 13 17  2  0  0  0  0
 13 12  1  0  0  0  0
 14 13  1  0  0  0  0
 14 20  1  0  0  0  0
 15 13  2  0  0  0  0
 18 14  1  0  0  0  0
 19 14  1  0  0  0  0
 21  6  1  0  0  0  0
M  RAD  1  16   3
M  END
