Coordinates from ORCA-job Ph-N2-X-OTf-B3LYPG-6-31G_dp-scan-d09-49-n400
 OpenBabel08281821163D

 21 19  0  0  0  0  0  0  0  0999 V2000
   -1.4502   -0.9305   -4.6223 C   0  0  0  0  0  0  0  0  0  0  0  0
   -0.5123    0.0608   -4.8978 C   0  0  0  0  0  0  0  0  0  0  0  0
   -1.0030    1.3356   -5.2200 C   0  0  0  0  0  0  0  0  0  0  0  0
   -2.3706    1.6441   -5.2411 C   0  0  0  0  0  0  0  0  0  0  0  0
   -3.2814    0.6260   -4.9869 C   0  0  0  0  0  0  0  0  0  0  0  0
   -2.8205   -0.6581   -4.6764 C   0  0  0  0  0  0  0  0  0  0  0  0
   -1.1022   -1.9260   -4.3671 H   0  0  0  0  0  0  0  0  0  0  0  0
    0.5580   -0.1329   -4.8387 H   0  0  0  0  0  0  0  0  0  0  0  0
   -2.6928    2.6535   -5.4712 H   0  0  0  0  0  0  0  0  0  0  0  0
   -4.3458    0.8343   -5.0195 H   0  0  0  0  0  0  0  0  0  0  0  0
   -0.1181    2.4001   -5.4744 N   0  0  0  0  0  0  0  0  0  0  0  0
    0.9079    2.7437   -5.8827 N   0  0  0  0  0  0  0  0  0  0  0  0
    2.0860    1.1738   -7.2249 S   0  0  0  0  0  0  0  0  0  0  0  0
    3.6260    0.1973   -6.6125 C   0  0  0  0  0  0  0  0  0  0  0  0
    2.7429    2.0299   -8.2404 O   0  0  0  0  0  0  0  0  0  0  0  0
    2.5857   -0.1406   -4.3865 O   0  0  0  0  0  0  0  0  0  0  0  0
    1.1745    0.0807   -7.6506 O   0  0  0  0  0  0  0  0  0  0  0  0
    4.1894   -0.5040   -7.5750 F   0  0  0  0  0  0  0  0  0  0  0  0
    4.5150    0.9226   -5.9806 F   0  0  0  0  0  0  0  0  0  0  0  0
    3.2076   -0.8550   -5.6627 F   0  0  0  0  0  0  0  0  0  0  0  0
   -3.5345   -1.4485   -4.4660 H   0  0  0  0  0  0  0  0  0  0  0  0
  1  7  1  0  0  0  0
  2  8  1  0  0  0  0
  2  1  2  0  0  0  0
  3  2  1  0  0  0  0
  4  3  2  0  0  0  0
  4  5  1  0  0  0  0
  5  6  2  0  0  0  0
  6  1  1  0  0  0  0
  6 21  1  0  0  0  0
  9  4  1  0  0  0  0
 10  5  1  0  0  0  0
 11  3  1  0  0  0  0
 12 11  2  0  0  0  0
 13 14  1  0  0  0  0
 14 19  1  0  0  0  0
 14 20  1  0  0  0  0
 15 13  1  0  0  0  0
 17 13  1  0  0  0  0
 18 14  1  0  0  0  0
M  RAD  4  12   2  15   2  16   3  17   2
M  END
