Coordinates from ORCA-job Ph-N2-X-OTf-B3LYPG-6-31G_dp-scan-d09-49-n400
 OpenBabel08281821163D

 21 20  0  0  0  0  0  0  0  0999 V2000
   -2.2214   -0.9989   -5.5015 C   0  0  0  0  0  0  0  0  0  0  0  0
   -0.9339   -0.5194   -5.2774 C   0  0  0  0  0  0  0  0  0  0  0  0
   -0.7764    0.8273   -4.9110 C   0  0  0  0  0  0  0  0  0  0  0  0
   -1.8842    1.6684   -4.7260 C   0  0  0  0  0  0  0  0  0  0  0  0
   -3.1595    1.1793   -4.9865 C   0  0  0  0  0  0  0  0  0  0  0  0
   -3.3276   -0.1536   -5.3729 C   0  0  0  0  0  0  0  0  0  0  0  0
   -2.3599   -2.0393   -5.7768 H   0  0  0  0  0  0  0  0  0  0  0  0
   -0.0827   -1.1862   -5.3473 H   0  0  0  0  0  0  0  0  0  0  0  0
   -1.7200    2.6898   -4.4011 H   0  0  0  0  0  0  0  0  0  0  0  0
   -4.0209    1.8289   -4.8716 H   0  0  0  0  0  0  0  0  0  0  0  0
    0.4729    1.4192   -4.6112 N   0  0  0  0  0  0  0  0  0  0  0  0
    1.5842    1.2331   -5.0156 N   0  0  0  0  0  0  0  0  0  0  0  0
    2.0065    0.0005   -6.5415 S   0  0  0  0  0  0  0  0  0  0  0  0
    3.7673    0.6486   -6.8180 C   0  0  0  0  0  0  0  0  0  0  0  0
    1.2103    0.3684   -7.7181 O   0  0  0  0  0  0  0  0  0  0  0  0
    3.5196    2.7556   -4.2656 O   0  0  0  0  0  0  0  0  0  0  0  0
    2.1369   -1.3922   -6.0879 O   0  0  0  0  0  0  0  0  0  0  0  0
    4.2553   -0.0348   -7.8571 F   0  0  0  0  0  0  0  0  0  0  0  0
    3.7225    1.9372   -7.1084 F   0  0  0  0  0  0  0  0  0  0  0  0
    4.4974    0.4151   -5.7428 F   0  0  0  0  0  0  0  0  0  0  0  0
   -4.3248   -0.5403   -5.5592 H   0  0  0  0  0  0  0  0  0  0  0  0
  1  6  2  0  0  0  0
  1  2  1  0  0  0  0
  2  3  2  0  0  0  0
  3  4  1  0  0  0  0
  3 11  1  0  0  0  0
  4  9  1  0  0  0  0
  5 10  1  0  0  0  0
  5  4  2  0  0  0  0
  6  5  1  0  0  0  0
  7  1  1  0  0  0  0
  8  2  1  0  0  0  0
 12 11  2  0  0  0  0
 13 17  2  0  0  0  0
 13 12  1  0  0  0  0
 14 13  1  0  0  0  0
 14 20  1  0  0  0  0
 15 13  2  0  0  0  0
 18 14  1  0  0  0  0
 19 14  1  0  0  0  0
 21  6  1  0  0  0  0
M  RAD  1  16   3
M  END
