Coordinates from ORCA-job Ph-N2-X-OTf-B3LYPG-6-31G_dp-scan-d09-49-n400
 OpenBabel08281821163D

 21 20  0  0  0  0  0  0  0  0999 V2000
   -2.2046   -0.9954   -5.4848 C   0  0  0  0  0  0  0  0  0  0  0  0
   -0.9221   -0.5056   -5.2570 C   0  0  0  0  0  0  0  0  0  0  0  0
   -0.7706    0.8496   -4.9180 C   0  0  0  0  0  0  0  0  0  0  0  0
   -1.8861    1.6885   -4.7644 C   0  0  0  0  0  0  0  0  0  0  0  0
   -3.1562    1.1901   -5.0317 C   0  0  0  0  0  0  0  0  0  0  0  0
   -3.3154   -0.1515   -5.3905 C   0  0  0  0  0  0  0  0  0  0  0  0
   -2.3362   -2.0428   -5.7363 H   0  0  0  0  0  0  0  0  0  0  0  0
   -0.0692   -1.1725   -5.2970 H   0  0  0  0  0  0  0  0  0  0  0  0
   -1.7299    2.7166   -4.4571 H   0  0  0  0  0  0  0  0  0  0  0  0
   -4.0211    1.8390   -4.9414 H   0  0  0  0  0  0  0  0  0  0  0  0
    0.4655    1.4585   -4.6033 N   0  0  0  0  0  0  0  0  0  0  0  0
    1.5787    1.2448   -5.0124 N   0  0  0  0  0  0  0  0  0  0  0  0
    2.0456    0.0347   -6.4395 S   0  0  0  0  0  0  0  0  0  0  0  0
    3.7777    0.7059   -6.8551 C   0  0  0  0  0  0  0  0  0  0  0  0
    1.1890    0.3215   -7.5907 O   0  0  0  0  0  0  0  0  0  0  0  0
    3.3460    2.3238   -4.2595 O   0  0  0  0  0  0  0  0  0  0  0  0
    2.2178   -1.3164   -5.8992 O   0  0  0  0  0  0  0  0  0  0  0  0
    4.1042    0.0575   -7.9811 F   0  0  0  0  0  0  0  0  0  0  0  0
    3.7203    2.0017   -7.0917 F   0  0  0  0  0  0  0  0  0  0  0  0
    4.6370    0.4045   -5.9064 F   0  0  0  0  0  0  0  0  0  0  0  0
   -4.3089   -0.5461   -5.5802 H   0  0  0  0  0  0  0  0  0  0  0  0
  1  6  2  0  0  0  0
  1  2  1  0  0  0  0
  2  3  2  0  0  0  0
  3  4  1  0  0  0  0
  3 11  1  0  0  0  0
  4  9  1  0  0  0  0
  5 10  1  0  0  0  0
  5  4  2  0  0  0  0
  6  5  1  0  0  0  0
  7  1  1  0  0  0  0
  8  2  1  0  0  0  0
 12 11  2  0  0  0  0
 13 17  2  0  0  0  0
 13 12  1  0  0  0  0
 14 13  1  0  0  0  0
 14 20  1  0  0  0  0
 15 13  2  0  0  0  0
 18 14  1  0  0  0  0
 19 14  1  0  0  0  0
 21  6  1  0  0  0  0
M  RAD  1  16   3
M  END
