Coordinates from ORCA-job Ph-N2-X-OTf-B3LYPG-6-31G_dp-scan-d09-49-n400
 OpenBabel08281821163D

 21 19  0  0  0  0  0  0  0  0999 V2000
   -1.4594   -0.9354   -4.6338 C   0  0  0  0  0  0  0  0  0  0  0  0
   -0.5165    0.0519   -4.9077 C   0  0  0  0  0  0  0  0  0  0  0  0
   -1.0008    1.3313   -5.2187 C   0  0  0  0  0  0  0  0  0  0  0  0
   -2.3668    1.6477   -5.2295 C   0  0  0  0  0  0  0  0  0  0  0  0
   -3.2831    0.6342   -4.9767 C   0  0  0  0  0  0  0  0  0  0  0  0
   -2.8283   -0.6550   -4.6780 C   0  0  0  0  0  0  0  0  0  0  0  0
   -1.1160   -1.9347   -4.3869 H   0  0  0  0  0  0  0  0  0  0  0  0
    0.5517   -0.1519   -4.8524 H   0  0  0  0  0  0  0  0  0  0  0  0
   -2.6836    2.6607   -5.4512 H   0  0  0  0  0  0  0  0  0  0  0  0
   -4.3462    0.8498   -5.0014 H   0  0  0  0  0  0  0  0  0  0  0  0
   -0.1138    2.3937   -5.4761 N   0  0  0  0  0  0  0  0  0  0  0  0
    0.9119    2.7296   -5.8932 N   0  0  0  0  0  0  0  0  0  0  0  0
    2.0821    1.1588   -7.2326 S   0  0  0  0  0  0  0  0  0  0  0  0
    3.6326    0.2087   -6.6073 C   0  0  0  0  0  0  0  0  0  0  0  0
    2.7291    2.0184   -8.2511 O   0  0  0  0  0  0  0  0  0  0  0  0
    2.5861   -0.1251   -4.3851 O   0  0  0  0  0  0  0  0  0  0  0  0
    1.1876    0.0503   -7.6540 O   0  0  0  0  0  0  0  0  0  0  0  0
    4.2093   -0.4907   -7.5633 F   0  0  0  0  0  0  0  0  0  0  0  0
    4.5091    0.9493   -5.9760 F   0  0  0  0  0  0  0  0  0  0  0  0
    3.2224   -0.8421   -5.6534 F   0  0  0  0  0  0  0  0  0  0  0  0
   -3.5457   -1.4427   -4.4689 H   0  0  0  0  0  0  0  0  0  0  0  0
  1  7  1  0  0  0  0
  2  8  1  0  0  0  0
  2  1  2  0  0  0  0
  3  2  1  0  0  0  0
  4  3  2  0  0  0  0
  4  5  1  0  0  0  0
  5  6  2  0  0  0  0
  6  1  1  0  0  0  0
  6 21  1  0  0  0  0
  9  4  1  0  0  0  0
 10  5  1  0  0  0  0
 11  3  1  0  0  0  0
 12 11  2  0  0  0  0
 13 14  1  0  0  0  0
 14 19  1  0  0  0  0
 14 20  1  0  0  0  0
 15 13  1  0  0  0  0
 17 13  1  0  0  0  0
 18 14  1  0  0  0  0
M  RAD  4  12   2  15   2  16   3  17   2
M  END
