Coordinates from ORCA-job Ph-N2-X-OTf-B3LYPG-6-31G_dp-scan-d09-49-n400
 OpenBabel08281821163D

 21 19  0  0  0  0  0  0  0  0999 V2000
   -1.4498   -0.9272   -4.6374 C   0  0  0  0  0  0  0  0  0  0  0  0
   -0.5184    0.0641   -4.9344 C   0  0  0  0  0  0  0  0  0  0  0  0
   -1.0165    1.3396   -5.2412 C   0  0  0  0  0  0  0  0  0  0  0  0
   -2.3845    1.6483   -5.2287 C   0  0  0  0  0  0  0  0  0  0  0  0
   -3.2893    0.6309   -4.9522 C   0  0  0  0  0  0  0  0  0  0  0  0
   -2.8209   -0.6540   -4.6557 C   0  0  0  0  0  0  0  0  0  0  0  0
   -1.0957   -1.9234   -4.3934 H   0  0  0  0  0  0  0  0  0  0  0  0
    0.5521   -0.1336   -4.9032 H   0  0  0  0  0  0  0  0  0  0  0  0
   -2.7115    2.6582   -5.4499 H   0  0  0  0  0  0  0  0  0  0  0  0
   -4.3540    0.8399   -4.9567 H   0  0  0  0  0  0  0  0  0  0  0  0
   -0.1404    2.4040   -5.5201 N   0  0  0  0  0  0  0  0  0  0  0  0
    0.8831    2.7529   -5.9294 N   0  0  0  0  0  0  0  0  0  0  0  0
    2.1046    1.1718   -7.2282 S   0  0  0  0  0  0  0  0  0  0  0  0
    3.6399    0.2009   -6.5932 C   0  0  0  0  0  0  0  0  0  0  0  0
    2.7741    2.0253   -8.2378 O   0  0  0  0  0  0  0  0  0  0  0  0
    2.5647   -0.1952   -4.3894 O   0  0  0  0  0  0  0  0  0  0  0  0
    1.2018    0.0746   -7.6632 O   0  0  0  0  0  0  0  0  0  0  0  0
    4.2340   -0.4768   -7.5542 F   0  0  0  0  0  0  0  0  0  0  0  0
    4.5058    0.9246   -5.9277 F   0  0  0  0  0  0  0  0  0  0  0  0
    3.2119   -0.8734   -5.6726 F   0  0  0  0  0  0  0  0  0  0  0  0
   -3.5295   -1.4447   -4.4288 H   0  0  0  0  0  0  0  0  0  0  0  0
  1  7  1  0  0  0  0
  2  8  1  0  0  0  0
  2  1  2  0  0  0  0
  3  4  2  0  0  0  0
  3  2  1  0  0  0  0
  4  5  1  0  0  0  0
  5  6  2  0  0  0  0
  6  1  1  0  0  0  0
  6 21  1  0  0  0  0
  9  4  1  0  0  0  0
 10  5  1  0  0  0  0
 11  3  1  0  0  0  0
 12 11  2  0  0  0  0
 13 14  1  0  0  0  0
 14 19  1  0  0  0  0
 14 20  1  0  0  0  0
 15 13  1  0  0  0  0
 17 13  1  0  0  0  0
 18 14  1  0  0  0  0
M  RAD  4  12   2  15   2  16   3  17   2
M  END
