Coordinates from ORCA-job Ph-N2-X-OTf-B3LYPG-6-31G_dp-scan-d09-49-n400
 OpenBabel08281821163D

 21 20  0  0  0  0  0  0  0  0999 V2000
   -2.2253   -1.0059   -5.4946 C   0  0  0  0  0  0  0  0  0  0  0  0
   -0.9403   -0.5201   -5.2678 C   0  0  0  0  0  0  0  0  0  0  0  0
   -0.7920    0.8284   -4.9067 C   0  0  0  0  0  0  0  0  0  0  0  0
   -1.9013    1.6674   -4.7296 C   0  0  0  0  0  0  0  0  0  0  0  0
   -3.1737    1.1706   -4.9906 C   0  0  0  0  0  0  0  0  0  0  0  0
   -3.3351   -0.1649   -5.3715 C   0  0  0  0  0  0  0  0  0  0  0  0
   -2.3582   -2.0476   -5.7677 H   0  0  0  0  0  0  0  0  0  0  0  0
   -0.0844   -1.1816   -5.3356 H   0  0  0  0  0  0  0  0  0  0  0  0
   -1.7430    2.6917   -4.4108 H   0  0  0  0  0  0  0  0  0  0  0  0
   -4.0384    1.8169   -4.8818 H   0  0  0  0  0  0  0  0  0  0  0  0
    0.4630    1.4130   -4.6108 N   0  0  0  0  0  0  0  0  0  0  0  0
    1.5719    1.2327   -5.0102 N   0  0  0  0  0  0  0  0  0  0  0  0
    1.9768   -0.0273   -6.5872 S   0  0  0  0  0  0  0  0  0  0  0  0
    3.7391    0.6360   -6.8033 C   0  0  0  0  0  0  0  0  0  0  0  0
    1.2116    0.3606   -7.7814 O   0  0  0  0  0  0  0  0  0  0  0  0
    3.8116    2.9077   -4.2245 O   0  0  0  0  0  0  0  0  0  0  0  0
    2.1091   -1.4347   -6.1709 O   0  0  0  0  0  0  0  0  0  0  0  0
    4.2898   -0.0139   -7.8301 F   0  0  0  0  0  0  0  0  0  0  0  0
    3.6838    1.9330   -7.0663 F   0  0  0  0  0  0  0  0  0  0  0  0
    4.4268    0.4012   -5.6972 F   0  0  0  0  0  0  0  0  0  0  0  0
   -4.3302   -0.5564   -5.5588 H   0  0  0  0  0  0  0  0  0  0  0  0
  1  6  2  0  0  0  0
  1  2  1  0  0  0  0
  2  3  2  0  0  0  0
  3  4  1  0  0  0  0
  3 11  1  0  0  0  0
  4  9  1  0  0  0  0
  5 10  1  0  0  0  0
  5  4  2  0  0  0  0
  6  5  1  0  0  0  0
  7  1  1  0  0  0  0
  8  2  1  0  0  0  0
 12 11  2  0  0  0  0
 13 17  2  0  0  0  0
 13 12  1  0  0  0  0
 14 13  1  0  0  0  0
 14 20  1  0  0  0  0
 15 13  2  0  0  0  0
 18 14  1  0  0  0  0
 19 14  1  0  0  0  0
 21  6  1  0  0  0  0
M  RAD  1  16   3
M  END
