Coordinates from ORCA-job Ph-N2-X-OTf-B3LYPG-6-31G_dp-scan-d09-49-n400
 OpenBabel08281821163D

 21 19  0  0  0  0  0  0  0  0999 V2000
   -1.0432   -0.7402   -4.4690 C   0  0  0  0  0  0  0  0  0  0  0  0
   -0.2618    0.3620   -4.8042 C   0  0  0  0  0  0  0  0  0  0  0  0
   -0.9121    1.5061   -5.2791 C   0  0  0  0  0  0  0  0  0  0  0  0
   -2.3058    1.6004   -5.3758 C   0  0  0  0  0  0  0  0  0  0  0  0
   -3.0626    0.4801   -5.0508 C   0  0  0  0  0  0  0  0  0  0  0  0
   -2.4329   -0.6871   -4.6002 C   0  0  0  0  0  0  0  0  0  0  0  0
   -0.5385   -1.6328   -4.1151 H   0  0  0  0  0  0  0  0  0  0  0  0
    0.8104    0.3147   -4.6499 H   0  0  0  0  0  0  0  0  0  0  0  0
   -2.7648    2.5191   -5.7238 H   0  0  0  0  0  0  0  0  0  0  0  0
   -4.1432    0.5173   -5.1433 H   0  0  0  0  0  0  0  0  0  0  0  0
   -0.1484    2.6446   -5.6222 N   0  0  0  0  0  0  0  0  0  0  0  0
    0.8614    2.9219   -6.1304 N   0  0  0  0  0  0  0  0  0  0  0  0
    1.9604    1.3117   -7.4071 S   0  0  0  0  0  0  0  0  0  0  0  0
    3.1222    0.1018   -6.4599 C   0  0  0  0  0  0  0  0  0  0  0  0
    2.9503    2.1393   -8.1241 O   0  0  0  0  0  0  0  0  0  0  0  0
    2.2814   -1.3375   -4.4338 O   0  0  0  0  0  0  0  0  0  0  0  0
    1.0333    0.4254   -8.1456 O   0  0  0  0  0  0  0  0  0  0  0  0
    4.0650   -0.4284   -7.2057 F   0  0  0  0  0  0  0  0  0  0  0  0
    3.6226    0.6656   -5.3878 F   0  0  0  0  0  0  0  0  0  0  0  0
    2.3006   -1.0233   -6.0298 F   0  0  0  0  0  0  0  0  0  0  0  0
   -3.0325   -1.5539   -4.3397 H   0  0  0  0  0  0  0  0  0  0  0  0
  1  7  1  0  0  0  0
  2  8  1  0  0  0  0
  2  1  2  0  0  0  0
  3  2  1  0  0  0  0
  4  3  2  0  0  0  0
  4  5  1  0  0  0  0
  5  6  2  0  0  0  0
  6  1  1  0  0  0  0
  6 21  1  0  0  0  0
  9  4  1  0  0  0  0
 10  5  1  0  0  0  0
 11  3  1  0  0  0  0
 12 11  2  0  0  0  0
 13 14  1  0  0  0  0
 14 20  1  0  0  0  0
 14 19  1  0  0  0  0
 15 13  1  0  0  0  0
 17 13  1  0  0  0  0
 18 14  1  0  0  0  0
M  RAD  4  12   2  15   2  16   3  17   2
M  END
