Coordinates from ORCA-job Ph-N2-X-OTf-B3LYPG-6-31G_dp-scan-d09-49-n400
 OpenBabel08281821163D

 21 21  0  0  0  0  0  0  0  0999 V2000
   -2.1606   -0.9874   -5.4254 C   0  0  0  0  0  0  0  0  0  0  0  0
   -0.8891   -0.4950   -5.1453 C   0  0  0  0  0  0  0  0  0  0  0  0
   -0.7345    0.8735   -4.8647 C   0  0  0  0  0  0  0  0  0  0  0  0
   -1.8513    1.7239   -4.8182 C   0  0  0  0  0  0  0  0  0  0  0  0
   -3.1106    1.2205   -5.1257 C   0  0  0  0  0  0  0  0  0  0  0  0
   -3.2675   -0.1346   -5.4309 C   0  0  0  0  0  0  0  0  0  0  0  0
   -2.2862   -2.0449   -5.6355 H   0  0  0  0  0  0  0  0  0  0  0  0
   -0.0422   -1.1702   -5.0999 H   0  0  0  0  0  0  0  0  0  0  0  0
   -1.7052    2.7662   -4.5568 H   0  0  0  0  0  0  0  0  0  0  0  0
   -3.9718    1.8809   -5.1125 H   0  0  0  0  0  0  0  0  0  0  0  0
    0.4868    1.4715   -4.4948 N   0  0  0  0  0  0  0  0  0  0  0  0
    1.5873    1.1614   -4.9442 N   0  0  0  0  0  0  0  0  0  0  0  0
    2.0702    0.0466   -6.3822 S   0  0  0  0  0  0  0  0  0  0  0  0
    3.7520    0.7943   -6.8893 C   0  0  0  0  0  0  0  0  0  0  0  0
    1.1435    0.3262   -7.4726 O   0  0  0  0  0  0  0  0  0  0  0  0
    2.9454    1.7281   -4.3921 O   0  0  0  0  0  0  0  0  0  0  0  0
    2.3085   -1.2945   -5.8608 O   0  0  0  0  0  0  0  0  0  0  0  0
    3.9662    0.2177   -8.0809 F   0  0  0  0  0  0  0  0  0  0  0  0
    3.6598    2.1001   -7.0464 F   0  0  0  0  0  0  0  0  0  0  0  0
    4.7144    0.4519   -6.0630 F   0  0  0  0  0  0  0  0  0  0  0  0
   -4.2534   -0.5294   -5.6559 H   0  0  0  0  0  0  0  0  0  0  0  0
  1  2  1  0  0  0  0
  2  8  1  0  0  0  0
  2  3  2  0  0  0  0
  3  4  1  0  0  0  0
  3 11  1  0  0  0  0
  4  9  1  0  0  0  0
  5 10  1  0  0  0  0
  5  4  2  0  0  0  0
  6  1  2  0  0  0  0
  6  5  1  0  0  0  0
  7  1  1  0  0  0  0
 12 11  1  0  0  0  0
 12 16  1  0  0  0  0
 13 17  2  0  0  0  0
 13 12  1  0  0  0  0
 14 13  1  0  0  0  0
 14 20  1  0  0  0  0
 15 13  2  0  0  0  0
 18 14  1  0  0  0  0
 19 14  1  0  0  0  0
 21  6  1  0  0  0  0
M  RAD  2  11   2  16   2
M  END
