Coordinates from ORCA-job Ph-N2-X-OTf-B3LYPG-6-31G_dp-scan-d09-49-n400
 OpenBabel08281821163D

 21 19  0  0  0  0  0  0  0  0999 V2000
   -1.4255   -0.9027   -4.6317 C   0  0  0  0  0  0  0  0  0  0  0  0
   -0.5139    0.0954   -4.9657 C   0  0  0  0  0  0  0  0  0  0  0  0
   -1.0359    1.3612   -5.2757 C   0  0  0  0  0  0  0  0  0  0  0  0
   -2.4072    1.6530   -5.2334 C   0  0  0  0  0  0  0  0  0  0  0  0
   -3.2919    0.6295   -4.9176 C   0  0  0  0  0  0  0  0  0  0  0  0
   -2.7997   -0.6455   -4.6162 C   0  0  0  0  0  0  0  0  0  0  0  0
   -1.0515   -1.8908   -4.3848 H   0  0  0  0  0  0  0  0  0  0  0  0
    0.5579   -0.1002   -4.9611 H   0  0  0  0  0  0  0  0  0  0  0  0
   -2.7519    2.6554   -5.4614 H   0  0  0  0  0  0  0  0  0  0  0  0
   -4.3589    0.8256   -4.8962 H   0  0  0  0  0  0  0  0  0  0  0  0
   -0.1833    2.4316   -5.5977 N   0  0  0  0  0  0  0  0  0  0  0  0
    0.8354    2.7873   -6.0114 N   0  0  0  0  0  0  0  0  0  0  0  0
    2.1197    1.1795   -7.2318 S   0  0  0  0  0  0  0  0  0  0  0  0
    3.6390    0.2005   -6.5619 C   0  0  0  0  0  0  0  0  0  0  0  0
    2.8201    2.0330   -8.2201 O   0  0  0  0  0  0  0  0  0  0  0  0
    2.5348   -0.4164   -4.4019 O   0  0  0  0  0  0  0  0  0  0  0  0
    1.2219    0.0891   -7.6937 O   0  0  0  0  0  0  0  0  0  0  0  0
    4.3100   -0.3908   -7.5295 F   0  0  0  0  0  0  0  0  0  0  0  0
    4.4410    0.9017   -5.7983 F   0  0  0  0  0  0  0  0  0  0  0  0
    3.1943   -0.9484   -5.7474 F   0  0  0  0  0  0  0  0  0  0  0  0
   -3.4925   -1.4411   -4.3598 H   0  0  0  0  0  0  0  0  0  0  0  0
  1  6  1  0  0  0  0
  1  7  1  0  0  0  0
  2  8  1  0  0  0  0
  2  1  2  0  0  0  0
  3  4  2  0  0  0  0
  3  2  1  0  0  0  0
  4  5  1  0  0  0  0
  5 10  1  0  0  0  0
  5  6  2  0  0  0  0
  6 21  1  0  0  0  0
  9  4  1  0  0  0  0
 11  3  1  0  0  0  0
 12 11  2  0  0  0  0
 13 14  1  0  0  0  0
 14 19  1  0  0  0  0
 14 20  1  0  0  0  0
 15 13  1  0  0  0  0
 17 13  1  0  0  0  0
 18 14  1  0  0  0  0
M  RAD  4  12   2  15   2  16   3  17   2
M  END
