Coordinates from ORCA-job Ph-N2-X-OTf-B3LYPG-6-31G_dp-scan-d09-49-n400
 OpenBabel08281821163D

 21 21  0  0  0  0  0  0  0  0999 V2000
   -2.0172   -1.0401   -5.2245 C   0  0  0  0  0  0  0  0  0  0  0  0
   -0.8005   -0.5378   -4.7624 C   0  0  0  0  0  0  0  0  0  0  0  0
   -0.6230    0.8504   -4.6642 C   0  0  0  0  0  0  0  0  0  0  0  0
   -1.6745    1.7246   -4.9743 C   0  0  0  0  0  0  0  0  0  0  0  0
   -2.8820    1.2094   -5.4336 C   0  0  0  0  0  0  0  0  0  0  0  0
   -3.0552   -0.1726   -5.5641 C   0  0  0  0  0  0  0  0  0  0  0  0
   -2.1518   -2.1141   -5.3104 H   0  0  0  0  0  0  0  0  0  0  0  0
   -0.0024   -1.2108   -4.4686 H   0  0  0  0  0  0  0  0  0  0  0  0
   -1.5244    2.7930   -4.8604 H   0  0  0  0  0  0  0  0  0  0  0  0
   -3.6912    1.8862   -5.6897 H   0  0  0  0  0  0  0  0  0  0  0  0
    0.5569    1.4089   -4.1235 N   0  0  0  0  0  0  0  0  0  0  0  0
    1.6777    1.1515   -4.6287 N   0  0  0  0  0  0  0  0  0  0  0  0
    1.7836    0.1576   -6.5138 S   0  0  0  0  0  0  0  0  0  0  0  0
    3.5160    0.8166   -6.9713 C   0  0  0  0  0  0  0  0  0  0  0  0
    0.8724    0.7577   -7.4925 O   0  0  0  0  0  0  0  0  0  0  0  0
    2.7419    1.4050   -4.2409 O   0  0  0  0  0  0  0  0  0  0  0  0
    1.9355   -1.2929   -6.3442 O   0  0  0  0  0  0  0  0  0  0  0  0
    3.7133    0.4874   -8.2481 F   0  0  0  0  0  0  0  0  0  0  0  0
    3.5371    2.1402   -6.8446 F   0  0  0  0  0  0  0  0  0  0  0  0
    4.4503    0.2564   -6.2169 F   0  0  0  0  0  0  0  0  0  0  0  0
   -4.0006   -0.5699   -5.9205 H   0  0  0  0  0  0  0  0  0  0  0  0
  1  2  2  0  0  0  0
  2  3  1  0  0  0  0
  2  8  1  0  0  0  0
  3 11  1  0  0  0  0
  4  9  1  0  0  0  0
  4  3  2  0  0  0  0
  5  4  1  0  0  0  0
  6  5  2  0  0  0  0
  6  1  1  0  0  0  0
  7  1  1  0  0  0  0
 10  5  1  0  0  0  0
 12 16  1  0  0  0  0
 12 11  1  0  0  0  0
 13 17  2  0  0  0  0
 13 12  1  0  0  0  0
 14 19  1  0  0  0  0
 14 13  1  0  0  0  0
 14 20  1  0  0  0  0
 15 13  2  0  0  0  0
 18 14  1  0  0  0  0
 21  6  1  0  0  0  0
M  RAD  2  11   2  16   2
M  END
