Coordinates from ORCA-job Ph-N2-X-OTf-B3LYPG-6-31G_dp-scan-d09-49-n400
 OpenBabel08281821163D

 21 20  0  0  0  0  0  0  0  0999 V2000
   -2.1998   -0.9829   -5.4862 C   0  0  0  0  0  0  0  0  0  0  0  0
   -0.9204   -0.4893   -5.2523 C   0  0  0  0  0  0  0  0  0  0  0  0
   -0.7701    0.8673   -4.9149 C   0  0  0  0  0  0  0  0  0  0  0  0
   -1.8906    1.7026   -4.7699 C   0  0  0  0  0  0  0  0  0  0  0  0
   -3.1584    1.2002   -5.0403 C   0  0  0  0  0  0  0  0  0  0  0  0
   -3.3137   -0.1421   -5.3984 C   0  0  0  0  0  0  0  0  0  0  0  0
   -2.3275   -2.0312   -5.7361 H   0  0  0  0  0  0  0  0  0  0  0  0
   -0.0671   -1.1563   -5.2821 H   0  0  0  0  0  0  0  0  0  0  0  0
   -1.7387    2.7321   -4.4654 H   0  0  0  0  0  0  0  0  0  0  0  0
   -4.0250    1.8475   -4.9543 H   0  0  0  0  0  0  0  0  0  0  0  0
    0.4581    1.4802   -4.5922 N   0  0  0  0  0  0  0  0  0  0  0  0
    1.5670    1.2221   -5.0125 N   0  0  0  0  0  0  0  0  0  0  0  0
    2.0932    0.0424   -6.3734 S   0  0  0  0  0  0  0  0  0  0  0  0
    3.7971    0.7498   -6.8654 C   0  0  0  0  0  0  0  0  0  0  0  0
    1.2052    0.2683   -7.5106 O   0  0  0  0  0  0  0  0  0  0  0  0
    3.1648    2.0233   -4.3609 O   0  0  0  0  0  0  0  0  0  0  0  0
    2.3035   -1.2773   -5.7833 O   0  0  0  0  0  0  0  0  0  0  0  0
    4.0422    0.1030   -8.0157 F   0  0  0  0  0  0  0  0  0  0  0  0
    3.7212    2.0432   -7.1009 F   0  0  0  0  0  0  0  0  0  0  0  0
    4.7262    0.4430   -5.9903 F   0  0  0  0  0  0  0  0  0  0  0  0
   -4.3054   -0.5393   -5.5919 H   0  0  0  0  0  0  0  0  0  0  0  0
  1  6  2  0  0  0  0
  1  2  1  0  0  0  0
  2  3  2  0  0  0  0
  3  4  1  0  0  0  0
  3 11  1  0  0  0  0
  4  9  1  0  0  0  0
  5 10  1  0  0  0  0
  5  4  2  0  0  0  0
  6  5  1  0  0  0  0
  7  1  1  0  0  0  0
  8  2  1  0  0  0  0
 12 11  2  0  0  0  0
 13 17  2  0  0  0  0
 13 12  1  0  0  0  0
 14 13  1  0  0  0  0
 14 20  1  0  0  0  0
 15 13  2  0  0  0  0
 18 14  1  0  0  0  0
 19 14  1  0  0  0  0
 21  6  1  0  0  0  0
M  RAD  1  16   3
M  END
