Coordinates from ORCA-job Ph-N2-X-OTf-B3LYPG-6-31G_dp-scan-d09-49-n400
 OpenBabel08281821163D

 21 20  0  0  0  0  0  0  0  0999 V2000
   -2.2242   -1.0045   -5.4941 C   0  0  0  0  0  0  0  0  0  0  0  0
   -0.9382   -0.5206   -5.2695 C   0  0  0  0  0  0  0  0  0  0  0  0
   -0.7866    0.8279   -4.9091 C   0  0  0  0  0  0  0  0  0  0  0  0
   -1.8952    1.6682   -4.7303 C   0  0  0  0  0  0  0  0  0  0  0  0
   -3.1687    1.1736   -4.9896 C   0  0  0  0  0  0  0  0  0  0  0  0
   -3.3327   -0.1617   -5.3700 C   0  0  0  0  0  0  0  0  0  0  0  0
   -2.3593   -2.0462   -5.7661 H   0  0  0  0  0  0  0  0  0  0  0  0
   -0.0840   -1.1842   -5.3374 H   0  0  0  0  0  0  0  0  0  0  0  0
   -1.7346    2.6920   -4.4114 H   0  0  0  0  0  0  0  0  0  0  0  0
   -4.0321    1.8213   -4.8795 H   0  0  0  0  0  0  0  0  0  0  0  0
    0.4669    1.4143   -4.6138 N   0  0  0  0  0  0  0  0  0  0  0  0
    1.5764    1.2338   -5.0136 N   0  0  0  0  0  0  0  0  0  0  0  0
    1.9843   -0.0211   -6.5792 S   0  0  0  0  0  0  0  0  0  0  0  0
    3.7459    0.6385   -6.8080 C   0  0  0  0  0  0  0  0  0  0  0  0
    1.2111    0.3628   -7.7687 O   0  0  0  0  0  0  0  0  0  0  0  0
    3.7266    2.8703   -4.2251 O   0  0  0  0  0  0  0  0  0  0  0  0
    2.1155   -1.4256   -6.1551 O   0  0  0  0  0  0  0  0  0  0  0  0
    4.2850   -0.0176   -7.8376 F   0  0  0  0  0  0  0  0  0  0  0  0
    3.6928    1.9339   -7.0757 F   0  0  0  0  0  0  0  0  0  0  0  0
    4.4415    0.4034   -5.7076 F   0  0  0  0  0  0  0  0  0  0  0  0
   -4.3286   -0.5517   -5.5558 H   0  0  0  0  0  0  0  0  0  0  0  0
  1  6  2  0  0  0  0
  1  2  1  0  0  0  0
  2  3  2  0  0  0  0
  3  4  1  0  0  0  0
  3 11  1  0  0  0  0
  4  9  1  0  0  0  0
  5 10  1  0  0  0  0
  5  4  2  0  0  0  0
  6  5  1  0  0  0  0
  7  1  1  0  0  0  0
  8  2  1  0  0  0  0
 12 11  2  0  0  0  0
 13 17  2  0  0  0  0
 13 12  1  0  0  0  0
 14 13  1  0  0  0  0
 14 20  1  0  0  0  0
 15 13  2  0  0  0  0
 18 14  1  0  0  0  0
 19 14  1  0  0  0  0
 21  6  1  0  0  0  0
M  RAD  1  16   3
M  END
