Coordinates from ORCA-job Ph-N2-X-OTf-B3LYPG-6-31G_dp-scan-d09-49-n400
 OpenBabel08281821163D

 21 19  0  0  0  0  0  0  0  0999 V2000
   -1.4147   -0.8911   -4.6311 C   0  0  0  0  0  0  0  0  0  0  0  0
   -0.5107    0.1095   -4.9785 C   0  0  0  0  0  0  0  0  0  0  0  0
   -1.0405    1.3714   -5.2882 C   0  0  0  0  0  0  0  0  0  0  0  0
   -2.4126    1.6572   -5.2329 C   0  0  0  0  0  0  0  0  0  0  0  0
   -3.2902    0.6322   -4.9025 C   0  0  0  0  0  0  0  0  0  0  0  0
   -2.7897   -0.6397   -4.6014 C   0  0  0  0  0  0  0  0  0  0  0  0
   -1.0330   -1.8762   -4.3840 H   0  0  0  0  0  0  0  0  0  0  0  0
    0.5604   -0.0887   -4.9804 H   0  0  0  0  0  0  0  0  0  0  0  0
   -2.7632    2.6573   -5.4623 H   0  0  0  0  0  0  0  0  0  0  0  0
   -4.3575    0.8246   -4.8700 H   0  0  0  0  0  0  0  0  0  0  0  0
   -0.1972    2.4445   -5.6286 N   0  0  0  0  0  0  0  0  0  0  0  0
    0.8240    2.7864   -6.0502 N   0  0  0  0  0  0  0  0  0  0  0  0
    2.1160    1.1702   -7.2392 S   0  0  0  0  0  0  0  0  0  0  0  0
    3.6340    0.2050   -6.5453 C   0  0  0  0  0  0  0  0  0  0  0  0
    2.8234    2.0373   -8.2096 O   0  0  0  0  0  0  0  0  0  0  0  0
    2.5215   -0.5155   -4.4124 O   0  0  0  0  0  0  0  0  0  0  0  0
    1.2360    0.0744   -7.7205 O   0  0  0  0  0  0  0  0  0  0  0  0
    4.3492   -0.3406   -7.5080 F   0  0  0  0  0  0  0  0  0  0  0  0
    4.3937    0.9022   -5.7363 F   0  0  0  0  0  0  0  0  0  0  0  0
    3.1890   -0.9762   -5.7819 F   0  0  0  0  0  0  0  0  0  0  0  0
   -3.4763   -1.4372   -4.3340 H   0  0  0  0  0  0  0  0  0  0  0  0
  1  6  1  0  0  0  0
  1  7  1  0  0  0  0
  2  1  2  0  0  0  0
  3  4  2  0  0  0  0
  3  2  1  0  0  0  0
  4  5  1  0  0  0  0
  5 10  1  0  0  0  0
  5  6  2  0  0  0  0
  6 21  1  0  0  0  0
  8  2  1  0  0  0  0
  9  4  1  0  0  0  0
 11  3  1  0  0  0  0
 12 11  2  0  0  0  0
 13 14  1  0  0  0  0
 14 20  1  0  0  0  0
 14 19  1  0  0  0  0
 15 13  1  0  0  0  0
 17 13  1  0  0  0  0
 18 14  1  0  0  0  0
M  RAD  4  12   2  15   2  16   3  17   2
M  END
