Coordinates from ORCA-job Ph-N2-X-OTf-B3LYPG-6-31G_dp-scan-d09-49-n400
 OpenBabel08281821163D

 21 20  0  0  0  0  0  0  0  0999 V2000
   -2.2216   -1.0002   -5.4991 C   0  0  0  0  0  0  0  0  0  0  0  0
   -0.9349   -0.5170   -5.2770 C   0  0  0  0  0  0  0  0  0  0  0  0
   -0.7817    0.8302   -4.9117 C   0  0  0  0  0  0  0  0  0  0  0  0
   -1.8906    1.6690   -4.7262 C   0  0  0  0  0  0  0  0  0  0  0  0
   -3.1649    1.1757   -4.9837 C   0  0  0  0  0  0  0  0  0  0  0  0
   -3.3298   -0.1581   -5.3687 C   0  0  0  0  0  0  0  0  0  0  0  0
   -2.3574   -2.0410   -5.7742 H   0  0  0  0  0  0  0  0  0  0  0  0
   -0.0814   -1.1808   -5.3491 H   0  0  0  0  0  0  0  0  0  0  0  0
   -1.7288    2.6914   -4.4032 H   0  0  0  0  0  0  0  0  0  0  0  0
   -4.0280    1.8229   -4.8681 H   0  0  0  0  0  0  0  0  0  0  0  0
    0.4700    1.4207   -4.6163 N   0  0  0  0  0  0  0  0  0  0  0  0
    1.5798    1.2354   -5.0194 N   0  0  0  0  0  0  0  0  0  0  0  0
    1.9961   -0.0113   -6.5627 S   0  0  0  0  0  0  0  0  0  0  0  0
    3.7593    0.6405   -6.8119 C   0  0  0  0  0  0  0  0  0  0  0  0
    1.2144    0.3648   -7.7477 O   0  0  0  0  0  0  0  0  0  0  0  0
    3.6072    2.8146   -4.2434 O   0  0  0  0  0  0  0  0  0  0  0  0
    2.1242   -1.4098   -6.1225 O   0  0  0  0  0  0  0  0  0  0  0  0
    4.2742   -0.0321   -7.8440 F   0  0  0  0  0  0  0  0  0  0  0  0
    3.7128    1.9320   -7.0935 F   0  0  0  0  0  0  0  0  0  0  0  0
    4.4693    0.4074   -5.7218 F   0  0  0  0  0  0  0  0  0  0  0  0
   -4.3263   -0.5477   -5.5530 H   0  0  0  0  0  0  0  0  0  0  0  0
  1  6  2  0  0  0  0
  1  2  1  0  0  0  0
  2  3  2  0  0  0  0
  3  4  1  0  0  0  0
  3 11  1  0  0  0  0
  4  9  1  0  0  0  0
  5 10  1  0  0  0  0
  5  4  2  0  0  0  0
  6  5  1  0  0  0  0
  7  1  1  0  0  0  0
  8  2  1  0  0  0  0
 12 11  2  0  0  0  0
 13 17  2  0  0  0  0
 13 12  1  0  0  0  0
 14 13  1  0  0  0  0
 14 20  1  0  0  0  0
 15 13  2  0  0  0  0
 18 14  1  0  0  0  0
 19 14  1  0  0  0  0
 21  6  1  0  0  0  0
M  RAD  1  16   3
M  END
