Coordinates from ORCA-job Ph-N2-X-OTf-B3LYPG-6-31G_dp-scan-d09-49-n400
 OpenBabel08281821163D

 21 20  0  0  0  0  0  0  0  0999 V2000
   -1.9589   -1.0623   -5.1607 C   0  0  0  0  0  0  0  0  0  0  0  0
   -0.7827   -0.5682   -4.5985 C   0  0  0  0  0  0  0  0  0  0  0  0
   -0.5715    0.8181   -4.5373 C   0  0  0  0  0  0  0  0  0  0  0  0
   -1.5589    1.7016   -5.0004 C   0  0  0  0  0  0  0  0  0  0  0  0
   -2.7357    1.1993   -5.5446 C   0  0  0  0  0  0  0  0  0  0  0  0
   -2.9349   -0.1827   -5.6307 C   0  0  0  0  0  0  0  0  0  0  0  0
   -2.1115   -2.1350   -5.2273 H   0  0  0  0  0  0  0  0  0  0  0  0
   -0.0250   -1.2443   -4.2178 H   0  0  0  0  0  0  0  0  0  0  0  0
   -1.3836    2.7701   -4.9292 H   0  0  0  0  0  0  0  0  0  0  0  0
   -3.4953    1.8830   -5.9105 H   0  0  0  0  0  0  0  0  0  0  0  0
    0.5608    1.3580   -3.8953 N   0  0  0  0  0  0  0  0  0  0  0  0
    1.7370    1.2301   -4.4527 N   0  0  0  0  0  0  0  0  0  0  0  0
    1.6187    0.2020   -6.5945 S   0  0  0  0  0  0  0  0  0  0  0  0
    3.3742    0.8018   -7.0233 C   0  0  0  0  0  0  0  0  0  0  0  0
    0.7687    0.8732   -7.6003 O   0  0  0  0  0  0  0  0  0  0  0  0
    2.5976    1.4261   -4.2312 O   0  0  0  0  0  0  0  0  0  0  0  0
    1.7411   -1.2734   -6.5580 O   0  0  0  0  0  0  0  0  0  0  0  0
    3.6742    0.5495   -8.2921 F   0  0  0  0  0  0  0  0  0  0  0  0
    3.4320    2.1295   -6.8068 F   0  0  0  0  0  0  0  0  0  0  0  0
    4.2672    0.2022   -6.2231 F   0  0  0  0  0  0  0  0  0  0  0  0
   -3.8518   -0.5719   -6.0630 H   0  0  0  0  0  0  0  0  0  0  0  0
  1  2  2  0  0  0  0
  2  3  1  0  0  0  0
  2  8  1  0  0  0  0
  3 11  1  0  0  0  0
  4  9  1  0  0  0  0
  4  3  2  0  0  0  0
  5  4  1  0  0  0  0
  6  5  2  0  0  0  0
  6  1  1  0  0  0  0
  7  1  1  0  0  0  0
 10  5  1  0  0  0  0
 12 16  2  0  0  0  0
 12 11  1  0  0  0  0
 13 17  1  0  0  0  0
 14 19  1  0  0  0  0
 14 13  1  0  0  0  0
 14 20  1  0  0  0  0
 15 13  1  0  0  0  0
 18 14  1  0  0  0  0
 21  6  1  0  0  0  0
M  RAD  3  11   2  15   2  17   2
M  END
