Coordinates from ORCA-job Ph-N2-X-OTf-B3LYPG-6-31G_dp-scan-d09-49-n400
 OpenBabel08281821163D

 21 20  0  0  0  0  0  0  0  0999 V2000
   -2.2154   -0.9980   -5.4958 C   0  0  0  0  0  0  0  0  0  0  0  0
   -0.9289   -0.5163   -5.2715 C   0  0  0  0  0  0  0  0  0  0  0  0
   -0.7720    0.8331   -4.9139 C   0  0  0  0  0  0  0  0  0  0  0  0
   -1.8818    1.6741   -4.7378 C   0  0  0  0  0  0  0  0  0  0  0  0
   -3.1560    1.1832   -4.9998 C   0  0  0  0  0  0  0  0  0  0  0  0
   -3.3224   -0.1523   -5.3776 C   0  0  0  0  0  0  0  0  0  0  0  0
   -2.3527   -2.0406   -5.7634 H   0  0  0  0  0  0  0  0  0  0  0  0
   -0.0779   -1.1841   -5.3323 H   0  0  0  0  0  0  0  0  0  0  0  0
   -1.7190    2.6974   -4.4182 H   0  0  0  0  0  0  0  0  0  0  0  0
   -4.0180    1.8333   -4.8920 H   0  0  0  0  0  0  0  0  0  0  0  0
    0.4726    1.4320   -4.6102 N   0  0  0  0  0  0  0  0  0  0  0  0
    1.5851    1.2386   -5.0169 N   0  0  0  0  0  0  0  0  0  0  0  0
    2.0192    0.0156   -6.5089 S   0  0  0  0  0  0  0  0  0  0  0  0
    3.7731    0.6660   -6.8304 C   0  0  0  0  0  0  0  0  0  0  0  0
    1.2022    0.3614   -7.6758 O   0  0  0  0  0  0  0  0  0  0  0  0
    3.4342    2.6127   -4.2639 O   0  0  0  0  0  0  0  0  0  0  0  0
    2.1583   -1.3649   -6.0274 O   0  0  0  0  0  0  0  0  0  0  0  0
    4.2104   -0.0114   -7.8971 F   0  0  0  0  0  0  0  0  0  0  0  0
    3.7255    1.9559   -7.1083 F   0  0  0  0  0  0  0  0  0  0  0  0
    4.5442    0.4119   -5.7916 F   0  0  0  0  0  0  0  0  0  0  0  0
   -4.3188   -0.5408   -5.5644 H   0  0  0  0  0  0  0  0  0  0  0  0
  1  6  2  0  0  0  0
  1  2  1  0  0  0  0
  2  3  2  0  0  0  0
  3  4  1  0  0  0  0
  3 11  1  0  0  0  0
  4  9  1  0  0  0  0
  5 10  1  0  0  0  0
  5  4  2  0  0  0  0
  6  5  1  0  0  0  0
  7  1  1  0  0  0  0
  8  2  1  0  0  0  0
 12 11  2  0  0  0  0
 13 17  2  0  0  0  0
 13 12  1  0  0  0  0
 14 13  1  0  0  0  0
 14 20  1  0  0  0  0
 15 13  2  0  0  0  0
 18 14  1  0  0  0  0
 19 14  1  0  0  0  0
 21  6  1  0  0  0  0
M  RAD  1  16   3
M  END
