Coordinates from ORCA-job Ph-N2-X-OTf-B3LYPG-6-31G_dp-scan-d09-49-n400
 OpenBabel08281821163D

 21 20  0  0  0  0  0  0  0  0999 V2000
   -2.1990   -0.9822   -5.4852 C   0  0  0  0  0  0  0  0  0  0  0  0
   -0.9198   -0.4885   -5.2504 C   0  0  0  0  0  0  0  0  0  0  0  0
   -0.7695    0.8683   -4.9139 C   0  0  0  0  0  0  0  0  0  0  0  0
   -1.8901    1.7037   -4.7708 C   0  0  0  0  0  0  0  0  0  0  0  0
   -3.1577    1.2012   -5.0417 C   0  0  0  0  0  0  0  0  0  0  0  0
   -3.3129   -0.1413   -5.3990 C   0  0  0  0  0  0  0  0  0  0  0  0
   -2.3264   -2.0307   -5.7345 H   0  0  0  0  0  0  0  0  0  0  0  0
   -0.0666   -1.1557   -5.2787 H   0  0  0  0  0  0  0  0  0  0  0  0
   -1.7385    2.7336   -4.4671 H   0  0  0  0  0  0  0  0  0  0  0  0
   -4.0244    1.8486   -4.9569 H   0  0  0  0  0  0  0  0  0  0  0  0
    0.4584    1.4809   -4.5901 N   0  0  0  0  0  0  0  0  0  0  0  0
    1.5667    1.2190   -5.0116 N   0  0  0  0  0  0  0  0  0  0  0  0
    2.0953    0.0422   -6.3712 S   0  0  0  0  0  0  0  0  0  0  0  0
    3.7974    0.7525   -6.8660 C   0  0  0  0  0  0  0  0  0  0  0  0
    1.2053    0.2665   -7.5070 O   0  0  0  0  0  0  0  0  0  0  0  0
    3.1509    2.0053   -4.3671 O   0  0  0  0  0  0  0  0  0  0  0  0
    2.3080   -1.2766   -5.7807 O   0  0  0  0  0  0  0  0  0  0  0  0
    4.0397    0.1067   -8.0176 F   0  0  0  0  0  0  0  0  0  0  0  0
    3.7197    2.0460   -7.1006 F   0  0  0  0  0  0  0  0  0  0  0  0
    4.7295    0.4459   -5.9942 F   0  0  0  0  0  0  0  0  0  0  0  0
   -4.3045   -0.5386   -5.5931 H   0  0  0  0  0  0  0  0  0  0  0  0
  1  6  2  0  0  0  0
  1  2  1  0  0  0  0
  2  3  2  0  0  0  0
  3  4  1  0  0  0  0
  3 11  1  0  0  0  0
  4  9  1  0  0  0  0
  5 10  1  0  0  0  0
  5  4  2  0  0  0  0
  6  5  1  0  0  0  0
  7  1  1  0  0  0  0
  8  2  1  0  0  0  0
 12 11  2  0  0  0  0
 13 17  2  0  0  0  0
 13 12  1  0  0  0  0
 14 13  1  0  0  0  0
 14 20  1  0  0  0  0
 15 13  2  0  0  0  0
 18 14  1  0  0  0  0
 19 14  1  0  0  0  0
 21  6  1  0  0  0  0
M  RAD  1  16   3
M  END
