Coordinates from ORCA-job Ph-N2-X-OTf-B3LYPG-6-31G_dp-scan-d09-49-n400
 OpenBabel08281821163D

 21 20  0  0  0  0  0  0  0  0999 V2000
   -2.2228   -1.0021   -5.4971 C   0  0  0  0  0  0  0  0  0  0  0  0
   -0.9368   -0.5177   -5.2741 C   0  0  0  0  0  0  0  0  0  0  0  0
   -0.7854    0.8299   -4.9105 C   0  0  0  0  0  0  0  0  0  0  0  0
   -1.8945    1.6687   -4.7274 C   0  0  0  0  0  0  0  0  0  0  0  0
   -3.1682    1.1738   -4.9852 C   0  0  0  0  0  0  0  0  0  0  0  0
   -3.3318   -0.1606   -5.3686 C   0  0  0  0  0  0  0  0  0  0  0  0
   -2.3576   -2.0433   -5.7713 H   0  0  0  0  0  0  0  0  0  0  0  0
   -0.0823   -1.1805   -5.3451 H   0  0  0  0  0  0  0  0  0  0  0  0
   -1.7340    2.6918   -4.4061 H   0  0  0  0  0  0  0  0  0  0  0  0
   -4.0319    1.8205   -4.8716 H   0  0  0  0  0  0  0  0  0  0  0  0
    0.4677    1.4184   -4.6158 N   0  0  0  0  0  0  0  0  0  0  0  0
    1.5770    1.2352   -5.0174 N   0  0  0  0  0  0  0  0  0  0  0  0
    1.9891   -0.0178   -6.5737 S   0  0  0  0  0  0  0  0  0  0  0  0
    3.7524    0.6377   -6.8089 C   0  0  0  0  0  0  0  0  0  0  0  0
    1.2145    0.3632   -7.7627 O   0  0  0  0  0  0  0  0  0  0  0  0
    3.6779    2.8516   -4.2319 O   0  0  0  0  0  0  0  0  0  0  0  0
    2.1180   -1.4198   -6.1427 O   0  0  0  0  0  0  0  0  0  0  0  0
    4.2821   -0.0268   -7.8383 F   0  0  0  0  0  0  0  0  0  0  0  0
    3.7033    1.9313   -7.0839 F   0  0  0  0  0  0  0  0  0  0  0  0
    4.4527    0.4044   -5.7117 F   0  0  0  0  0  0  0  0  0  0  0  0
   -4.3278   -0.5511   -5.5533 H   0  0  0  0  0  0  0  0  0  0  0  0
  1  6  2  0  0  0  0
  1  2  1  0  0  0  0
  2  3  2  0  0  0  0
  3  4  1  0  0  0  0
  3 11  1  0  0  0  0
  4  9  1  0  0  0  0
  5 10  1  0  0  0  0
  5  4  2  0  0  0  0
  6  5  1  0  0  0  0
  7  1  1  0  0  0  0
  8  2  1  0  0  0  0
 12 11  2  0  0  0  0
 13 17  2  0  0  0  0
 13 12  1  0  0  0  0
 14 13  1  0  0  0  0
 14 20  1  0  0  0  0
 15 13  2  0  0  0  0
 18 14  1  0  0  0  0
 19 14  1  0  0  0  0
 21  6  1  0  0  0  0
M  RAD  1  16   3
M  END
