Coordinates from ORCA-job Ph-N2-X-OTf-B3LYPG-6-31G_dp-scan-d09-49-n400
 OpenBabel08281821163D

 21 21  0  0  0  0  0  0  0  0999 V2000
   -2.1689   -0.9841   -5.4416 C   0  0  0  0  0  0  0  0  0  0  0  0
   -0.8956   -0.4909   -5.1725 C   0  0  0  0  0  0  0  0  0  0  0  0
   -0.7426    0.8747   -4.8761 C   0  0  0  0  0  0  0  0  0  0  0  0
   -1.8619    1.7206   -4.8044 C   0  0  0  0  0  0  0  0  0  0  0  0
   -3.1231    1.2170   -5.1025 C   0  0  0  0  0  0  0  0  0  0  0  0
   -3.2787   -0.1349   -5.4226 C   0  0  0  0  0  0  0  0  0  0  0  0
   -2.2939   -2.0393   -5.6630 H   0  0  0  0  0  0  0  0  0  0  0  0
   -0.0465   -1.1641   -5.1461 H   0  0  0  0  0  0  0  0  0  0  0  0
   -1.7153    2.7598   -4.5314 H   0  0  0  0  0  0  0  0  0  0  0  0
   -3.9865    1.8738   -5.0700 H   0  0  0  0  0  0  0  0  0  0  0  0
    0.4795    1.4768   -4.5176 N   0  0  0  0  0  0  0  0  0  0  0  0
    1.5809    1.1717   -4.9622 N   0  0  0  0  0  0  0  0  0  0  0  0
    2.0819    0.0447   -6.3757 S   0  0  0  0  0  0  0  0  0  0  0  0
    3.7663    0.7861   -6.8835 C   0  0  0  0  0  0  0  0  0  0  0  0
    1.1622    0.3070   -7.4766 O   0  0  0  0  0  0  0  0  0  0  0  0
    2.9673    1.7732   -4.4019 O   0  0  0  0  0  0  0  0  0  0  0  0
    2.3168   -1.2890   -5.8342 O   0  0  0  0  0  0  0  0  0  0  0  0
    3.9867    0.1884   -8.0641 F   0  0  0  0  0  0  0  0  0  0  0  0
    3.6750    2.0884   -7.0646 F   0  0  0  0  0  0  0  0  0  0  0  0
    4.7241    0.4572   -6.0469 F   0  0  0  0  0  0  0  0  0  0  0  0
   -4.2660   -0.5306   -5.6400 H   0  0  0  0  0  0  0  0  0  0  0  0
  1  6  2  0  0  0  0
  1  2  1  0  0  0  0
  2  8  1  0  0  0  0
  2  3  2  0  0  0  0
  3  4  1  0  0  0  0
  3 11  1  0  0  0  0
  4  9  1  0  0  0  0
  5 10  1  0  0  0  0
  5  4  2  0  0  0  0
  6  5  1  0  0  0  0
  7  1  1  0  0  0  0
 12 11  1  0  0  0  0
 12 16  1  0  0  0  0
 13 17  2  0  0  0  0
 13 12  1  0  0  0  0
 14 13  1  0  0  0  0
 14 20  1  0  0  0  0
 15 13  2  0  0  0  0
 18 14  1  0  0  0  0
 19 14  1  0  0  0  0
 21  6  1  0  0  0  0
M  RAD  2  11   2  16   2
M  END
