Coordinates from ORCA-job Ph-N2-X-OTf-B3LYPG-6-31G_dp-scan-d09-49-n400
 OpenBabel08281821163D

 21 20  0  0  0  0  0  0  0  0999 V2000
   -2.2196   -0.9982   -5.5006 C   0  0  0  0  0  0  0  0  0  0  0  0
   -0.9322   -0.5184   -5.2768 C   0  0  0  0  0  0  0  0  0  0  0  0
   -0.7745    0.8288   -4.9121 C   0  0  0  0  0  0  0  0  0  0  0  0
   -1.8828    1.6698   -4.7283 C   0  0  0  0  0  0  0  0  0  0  0  0
   -3.1580    1.1806   -4.9888 C   0  0  0  0  0  0  0  0  0  0  0  0
   -3.3259   -0.1528   -5.3737 C   0  0  0  0  0  0  0  0  0  0  0  0
   -2.3581   -2.0390   -5.7744 H   0  0  0  0  0  0  0  0  0  0  0  0
   -0.0813   -1.1856   -5.3451 H   0  0  0  0  0  0  0  0  0  0  0  0
   -1.7186    2.6915   -4.4043 H   0  0  0  0  0  0  0  0  0  0  0  0
   -4.0194    1.8303   -4.8749 H   0  0  0  0  0  0  0  0  0  0  0  0
    0.4734    1.4228   -4.6117 N   0  0  0  0  0  0  0  0  0  0  0  0
    1.5850    1.2346   -5.0172 N   0  0  0  0  0  0  0  0  0  0  0  0
    2.0105    0.0048   -6.5327 S   0  0  0  0  0  0  0  0  0  0  0  0
    3.7696    0.6531   -6.8209 C   0  0  0  0  0  0  0  0  0  0  0  0
    1.2086    0.3666   -7.7067 O   0  0  0  0  0  0  0  0  0  0  0  0
    3.4867    2.7156   -4.2683 O   0  0  0  0  0  0  0  0  0  0  0  0
    2.1425   -1.3844   -6.0709 O   0  0  0  0  0  0  0  0  0  0  0  0
    4.2453   -0.0300   -7.8663 F   0  0  0  0  0  0  0  0  0  0  0  0
    3.7239    1.9416   -7.1095 F   0  0  0  0  0  0  0  0  0  0  0  0
    4.5097    0.4152   -5.7543 F   0  0  0  0  0  0  0  0  0  0  0  0
   -4.3231   -0.5398   -5.5598 H   0  0  0  0  0  0  0  0  0  0  0  0
  1  6  2  0  0  0  0
  1  2  1  0  0  0  0
  2  3  2  0  0  0  0
  3  4  1  0  0  0  0
  3 11  1  0  0  0  0
  4  9  1  0  0  0  0
  5 10  1  0  0  0  0
  5  4  2  0  0  0  0
  6  5  1  0  0  0  0
  7  1  1  0  0  0  0
  8  2  1  0  0  0  0
 12 11  2  0  0  0  0
 13 17  2  0  0  0  0
 13 12  1  0  0  0  0
 14 13  1  0  0  0  0
 14 20  1  0  0  0  0
 15 13  2  0  0  0  0
 18 14  1  0  0  0  0
 19 14  1  0  0  0  0
 21  6  1  0  0  0  0
M  RAD  1  16   3
M  END
