Coordinates from ORCA-job Ph-N2-X-OTf-B3LYPG-6-31G_dp-scan-d09-49-n400
 OpenBabel08281821163D

 21 20  0  0  0  0  0  0  0  0999 V2000
   -2.2035   -0.9885   -5.4881 C   0  0  0  0  0  0  0  0  0  0  0  0
   -0.9226   -0.4972   -5.2567 C   0  0  0  0  0  0  0  0  0  0  0  0
   -0.7715    0.8585   -4.9172 C   0  0  0  0  0  0  0  0  0  0  0  0
   -1.8897    1.6953   -4.7669 C   0  0  0  0  0  0  0  0  0  0  0  0
   -3.1587    1.1955   -5.0365 C   0  0  0  0  0  0  0  0  0  0  0  0
   -3.3159   -0.1460   -5.3965 C   0  0  0  0  0  0  0  0  0  0  0  0
   -2.3333   -2.0361   -5.7397 H   0  0  0  0  0  0  0  0  0  0  0  0
   -0.0699   -1.1646   -5.2915 H   0  0  0  0  0  0  0  0  0  0  0  0
   -1.7354    2.7237   -4.4597 H   0  0  0  0  0  0  0  0  0  0  0  0
   -4.0244    1.8435   -4.9477 H   0  0  0  0  0  0  0  0  0  0  0  0
    0.4596    1.4713   -4.5984 N   0  0  0  0  0  0  0  0  0  0  0  0
    1.5719    1.2370   -5.0117 N   0  0  0  0  0  0  0  0  0  0  0  0
    2.0750    0.0417   -6.3950 S   0  0  0  0  0  0  0  0  0  0  0  0
    3.7908    0.7315   -6.8631 C   0  0  0  0  0  0  0  0  0  0  0  0
    1.1981    0.2872   -7.5383 O   0  0  0  0  0  0  0  0  0  0  0  0
    3.2483    2.1517   -4.3150 O   0  0  0  0  0  0  0  0  0  0  0  0
    2.2706   -1.2886   -5.8191 O   0  0  0  0  0  0  0  0  0  0  0  0
    4.0611    0.0831   -8.0058 F   0  0  0  0  0  0  0  0  0  0  0  0
    3.7240    2.0257   -7.0994 F   0  0  0  0  0  0  0  0  0  0  0  0
    4.6955    0.4238   -5.9623 F   0  0  0  0  0  0  0  0  0  0  0  0
   -4.3084   -0.5417   -5.5889 H   0  0  0  0  0  0  0  0  0  0  0  0
  1  6  2  0  0  0  0
  1  2  1  0  0  0  0
  2  3  2  0  0  0  0
  3  4  1  0  0  0  0
  3 11  1  0  0  0  0
  4  9  1  0  0  0  0
  5 10  1  0  0  0  0
  5  4  2  0  0  0  0
  6  5  1  0  0  0  0
  7  1  1  0  0  0  0
  8  2  1  0  0  0  0
 12 11  2  0  0  0  0
 13 17  2  0  0  0  0
 13 12  1  0  0  0  0
 14 13  1  0  0  0  0
 14 20  1  0  0  0  0
 15 13  2  0  0  0  0
 18 14  1  0  0  0  0
 19 14  1  0  0  0  0
 21  6  1  0  0  0  0
M  RAD  1  16   3
M  END
