Coordinates from ORCA-job Ph-N2-X-OTf-B3LYPG-6-31G_dp-scan-d09-49-n400
 OpenBabel08281821163D

 21 21  0  0  0  0  0  0  0  0999 V2000
   -2.0390   -1.0351   -5.2409 C   0  0  0  0  0  0  0  0  0  0  0  0
   -0.8116   -0.5352   -4.8057 C   0  0  0  0  0  0  0  0  0  0  0  0
   -0.6363    0.8525   -4.6949 C   0  0  0  0  0  0  0  0  0  0  0  0
   -1.6981    1.7273   -4.9651 C   0  0  0  0  0  0  0  0  0  0  0  0
   -2.9147    1.2139   -5.4023 C   0  0  0  0  0  0  0  0  0  0  0  0
   -3.0874   -0.1668   -5.5451 C   0  0  0  0  0  0  0  0  0  0  0  0
   -2.1737   -2.1085   -5.3335 H   0  0  0  0  0  0  0  0  0  0  0  0
   -0.0065   -1.2101   -4.5368 H   0  0  0  0  0  0  0  0  0  0  0  0
   -1.5488    2.7944   -4.8393 H   0  0  0  0  0  0  0  0  0  0  0  0
   -3.7320    1.8914   -5.6292 H   0  0  0  0  0  0  0  0  0  0  0  0
    0.5543    1.4127   -4.1776 N   0  0  0  0  0  0  0  0  0  0  0  0
    1.6653    1.1350   -4.6799 N   0  0  0  0  0  0  0  0  0  0  0  0
    1.8269    0.1423   -6.4957 S   0  0  0  0  0  0  0  0  0  0  0  0
    3.5500    0.8247   -6.9576 C   0  0  0  0  0  0  0  0  0  0  0  0
    0.9014    0.7087   -7.4773 O   0  0  0  0  0  0  0  0  0  0  0  0
    2.7761    1.4138   -4.2570 O   0  0  0  0  0  0  0  0  0  0  0  0
    1.9940   -1.2976   -6.2818 O   0  0  0  0  0  0  0  0  0  0  0  0
    3.7339    0.4742   -8.2321 F   0  0  0  0  0  0  0  0  0  0  0  0
    3.5530    2.1477   -6.8562 F   0  0  0  0  0  0  0  0  0  0  0  0
    4.4953    0.2843   -6.2075 F   0  0  0  0  0  0  0  0  0  0  0  0
   -4.0405   -0.5627   -5.8817 H   0  0  0  0  0  0  0  0  0  0  0  0
  1  2  2  0  0  0  0
  2  3  1  0  0  0  0
  2  8  1  0  0  0  0
  3 11  1  0  0  0  0
  4  9  1  0  0  0  0
  4  3  2  0  0  0  0
  5  4  1  0  0  0  0
  6  5  2  0  0  0  0
  6  1  1  0  0  0  0
  7  1  1  0  0  0  0
 10  5  1  0  0  0  0
 12 16  1  0  0  0  0
 12 11  1  0  0  0  0
 13 17  2  0  0  0  0
 13 12  1  0  0  0  0
 14 19  1  0  0  0  0
 14 13  1  0  0  0  0
 14 20  1  0  0  0  0
 15 13  2  0  0  0  0
 18 14  1  0  0  0  0
 21  6  1  0  0  0  0
M  RAD  2  11   2  16   2
M  END
