Coordinates from ORCA-job Ph-N2-X-OTf-B3LYPG-6-31G_dp-scan-d09-49-n400
 OpenBabel08281821163D

 21 19  0  0  0  0  0  0  0  0999 V2000
   -1.1999   -0.7823   -4.5212 C   0  0  0  0  0  0  0  0  0  0  0  0
   -0.3803    0.2866   -4.8721 C   0  0  0  0  0  0  0  0  0  0  0  0
   -1.0026    1.4684   -5.2940 C   0  0  0  0  0  0  0  0  0  0  0  0
   -2.3943    1.6236   -5.3389 C   0  0  0  0  0  0  0  0  0  0  0  0
   -3.1876    0.5332   -5.0019 C   0  0  0  0  0  0  0  0  0  0  0  0
   -2.5909   -0.6662   -4.5939 C   0  0  0  0  0  0  0  0  0  0  0  0
   -0.7315   -1.7046   -4.1944 H   0  0  0  0  0  0  0  0  0  0  0  0
    0.6997    0.1873   -4.7794 H   0  0  0  0  0  0  0  0  0  0  0  0
   -2.8240    2.5685   -5.6524 H   0  0  0  0  0  0  0  0  0  0  0  0
   -4.2683    0.6185   -5.0491 H   0  0  0  0  0  0  0  0  0  0  0  0
   -0.2166    2.5853   -5.6453 N   0  0  0  0  0  0  0  0  0  0  0  0
    0.8105    2.8993   -6.0806 N   0  0  0  0  0  0  0  0  0  0  0  0
    2.0439    1.2650   -7.2732 S   0  0  0  0  0  0  0  0  0  0  0  0
    3.3895    0.1022   -6.5223 C   0  0  0  0  0  0  0  0  0  0  0  0
    2.9135    2.1366   -8.0930 O   0  0  0  0  0  0  0  0  0  0  0  0
    2.4051   -0.9722   -4.3803 O   0  0  0  0  0  0  0  0  0  0  0  0
    1.1062    0.3137   -7.9182 O   0  0  0  0  0  0  0  0  0  0  0  0
    4.1665   -0.4138   -7.4510 F   0  0  0  0  0  0  0  0  0  0  0  0
    4.0946    0.6605   -5.5723 F   0  0  0  0  0  0  0  0  0  0  0  0
    2.7448   -1.0925   -5.9426 F   0  0  0  0  0  0  0  0  0  0  0  0
   -3.2166   -1.5105   -4.3212 H   0  0  0  0  0  0  0  0  0  0  0  0
  1  7  1  0  0  0  0
  2  8  1  0  0  0  0
  2  1  2  0  0  0  0
  3  2  1  0  0  0  0
  4  3  2  0  0  0  0
  4  5  1  0  0  0  0
  5  6  2  0  0  0  0
  6  1  1  0  0  0  0
  6 21  1  0  0  0  0
  9  4  1  0  0  0  0
 10  5  1  0  0  0  0
 11  3  1  0  0  0  0
 12 11  2  0  0  0  0
 13 14  1  0  0  0  0
 14 20  1  0  0  0  0
 14 19  1  0  0  0  0
 15 13  1  0  0  0  0
 17 13  1  0  0  0  0
 18 14  1  0  0  0  0
M  RAD  4  12   2  15   2  16   3  17   2
M  END
