Coordinates from ORCA-job Ph-N2-X-OTf-B3LYPG-6-31G_dp-scan-d09-49-n400
 OpenBabel08281821163D

 21 20  0  0  0  0  0  0  0  0999 V2000
   -2.2225   -1.0016   -5.4975 C   0  0  0  0  0  0  0  0  0  0  0  0
   -0.9363   -0.5175   -5.2749 C   0  0  0  0  0  0  0  0  0  0  0  0
   -0.7845    0.8301   -4.9108 C   0  0  0  0  0  0  0  0  0  0  0  0
   -1.8935    1.6688   -4.7271 C   0  0  0  0  0  0  0  0  0  0  0  0
   -3.1674    1.1743   -4.9848 C   0  0  0  0  0  0  0  0  0  0  0  0
   -3.3313   -0.1600   -5.3685 C   0  0  0  0  0  0  0  0  0  0  0  0
   -2.3575   -2.0427   -5.7719 H   0  0  0  0  0  0  0  0  0  0  0  0
   -0.0820   -1.1805   -5.3462 H   0  0  0  0  0  0  0  0  0  0  0  0
   -1.7327    2.6918   -4.4054 H   0  0  0  0  0  0  0  0  0  0  0  0
   -4.0310    1.8211   -4.8706 H   0  0  0  0  0  0  0  0  0  0  0  0
    0.4683    1.4191   -4.6161 N   0  0  0  0  0  0  0  0  0  0  0  0
    1.5777    1.2353   -5.0181 N   0  0  0  0  0  0  0  0  0  0  0  0
    1.9909   -0.0163   -6.5712 S   0  0  0  0  0  0  0  0  0  0  0  0
    3.7542    0.6383   -6.8097 C   0  0  0  0  0  0  0  0  0  0  0  0
    1.2146    0.3636   -7.7592 O   0  0  0  0  0  0  0  0  0  0  0  0
    3.6598    2.8426   -4.2343 O   0  0  0  0  0  0  0  0  0  0  0  0
    2.1195   -1.4174   -6.1380 O   0  0  0  0  0  0  0  0  0  0  0  0
    4.2804   -0.0282   -7.8396 F   0  0  0  0  0  0  0  0  0  0  0  0
    3.7058    1.9314   -7.0863 F   0  0  0  0  0  0  0  0  0  0  0  0
    4.4567    0.4050   -5.7141 F   0  0  0  0  0  0  0  0  0  0  0  0
   -4.3274   -0.5503   -5.5530 H   0  0  0  0  0  0  0  0  0  0  0  0
  1  6  2  0  0  0  0
  1  2  1  0  0  0  0
  2  3  2  0  0  0  0
  3  4  1  0  0  0  0
  3 11  1  0  0  0  0
  4  9  1  0  0  0  0
  5 10  1  0  0  0  0
  5  4  2  0  0  0  0
  6  5  1  0  0  0  0
  7  1  1  0  0  0  0
  8  2  1  0  0  0  0
 12 11  2  0  0  0  0
 13 17  2  0  0  0  0
 13 12  1  0  0  0  0
 14 13  1  0  0  0  0
 14 20  1  0  0  0  0
 15 13  2  0  0  0  0
 18 14  1  0  0  0  0
 19 14  1  0  0  0  0
 21  6  1  0  0  0  0
M  RAD  1  16   3
M  END
