Coordinates from ORCA-job Ph-N2-X-OTf-B3LYPG-6-31G_dp-scan-d09-49-n400
 OpenBabel08281821163D

 21 19  0  0  0  0  0  0  0  0999 V2000
   -1.3182   -0.8345   -4.5862 C   0  0  0  0  0  0  0  0  0  0  0  0
   -0.4596    0.1938   -4.9651 C   0  0  0  0  0  0  0  0  0  0  0  0
   -1.0408    1.4203   -5.3164 C   0  0  0  0  0  0  0  0  0  0  0  0
   -2.4233    1.6498   -5.2726 C   0  0  0  0  0  0  0  0  0  0  0  0
   -3.2560    0.5986   -4.9087 C   0  0  0  0  0  0  0  0  0  0  0  0
   -2.7025   -0.6407   -4.5655 C   0  0  0  0  0  0  0  0  0  0  0  0
   -0.8893   -1.7915   -4.3082 H   0  0  0  0  0  0  0  0  0  0  0  0
    0.6172    0.0317   -4.9543 H   0  0  0  0  0  0  0  0  0  0  0  0
   -2.8163    2.6253   -5.5366 H   0  0  0  0  0  0  0  0  0  0  0  0
   -4.3308    0.7455   -4.8836 H   0  0  0  0  0  0  0  0  0  0  0  0
   -0.2335    2.5107   -5.6920 N   0  0  0  0  0  0  0  0  0  0  0  0
    0.7870    2.8430   -6.1246 N   0  0  0  0  0  0  0  0  0  0  0  0
    2.1006    1.2088   -7.2633 S   0  0  0  0  0  0  0  0  0  0  0  0
    3.5446    0.1692   -6.5077 C   0  0  0  0  0  0  0  0  0  0  0  0
    2.8917    2.0839   -8.1574 O   0  0  0  0  0  0  0  0  0  0  0  0
    2.4445   -0.8403   -4.4340 O   0  0  0  0  0  0  0  0  0  0  0  0
    1.2108    0.1642   -7.8301 O   0  0  0  0  0  0  0  0  0  0  0  0
    4.3496   -0.2934   -7.4419 F   0  0  0  0  0  0  0  0  0  0  0  0
    4.2191    0.7908   -5.5727 F   0  0  0  0  0  0  0  0  0  0  0  0
    3.0224   -1.0713   -5.9045 F   0  0  0  0  0  0  0  0  0  0  0  0
   -3.3555   -1.4570   -4.2719 H   0  0  0  0  0  0  0  0  0  0  0  0
  1  6  1  0  0  0  0
  1  7  1  0  0  0  0
  2  8  1  0  0  0  0
  2  1  2  0  0  0  0
  3  4  2  0  0  0  0
  3  2  1  0  0  0  0
  4  5  1  0  0  0  0
  5 10  1  0  0  0  0
  5  6  2  0  0  0  0
  6 21  1  0  0  0  0
  9  4  1  0  0  0  0
 11  3  1  0  0  0  0
 12 11  2  0  0  0  0
 13 14  1  0  0  0  0
 14 20  1  0  0  0  0
 14 19  1  0  0  0  0
 15 13  1  0  0  0  0
 17 13  1  0  0  0  0
 18 14  1  0  0  0  0
M  RAD  4  12   2  15   2  16   3  17   2
M  END
