Coordinates from ORCA-job Ph-N2-X-OTf-B3LYPG-6-31G_dp-scan-d09-49-n400
 OpenBabel08281821163D

 21 19  0  0  0  0  0  0  0  0999 V2000
   -1.4605   -0.9368   -4.6361 C   0  0  0  0  0  0  0  0  0  0  0  0
   -0.5167    0.0498   -4.9096 C   0  0  0  0  0  0  0  0  0  0  0  0
   -1.0001    1.3305   -5.2187 C   0  0  0  0  0  0  0  0  0  0  0  0
   -2.3658    1.6482   -5.2279 C   0  0  0  0  0  0  0  0  0  0  0  0
   -3.2827    0.6352   -4.9758 C   0  0  0  0  0  0  0  0  0  0  0  0
   -2.8291   -0.6548   -4.6790 C   0  0  0  0  0  0  0  0  0  0  0  0
   -1.1180   -1.9368   -4.3908 H   0  0  0  0  0  0  0  0  0  0  0  0
    0.5515   -0.1546   -4.8557 H   0  0  0  0  0  0  0  0  0  0  0  0
   -2.6820    2.6618   -5.4479 H   0  0  0  0  0  0  0  0  0  0  0  0
   -4.3457    0.8518   -4.9993 H   0  0  0  0  0  0  0  0  0  0  0  0
   -0.1123    2.3929   -5.4743 N   0  0  0  0  0  0  0  0  0  0  0  0
    0.9138    2.7278   -5.8914 N   0  0  0  0  0  0  0  0  0  0  0  0
    2.0808    1.1569   -7.2334 S   0  0  0  0  0  0  0  0  0  0  0  0
    3.6329    0.2098   -6.6068 C   0  0  0  0  0  0  0  0  0  0  0  0
    2.7263    2.0164   -8.2530 O   0  0  0  0  0  0  0  0  0  0  0  0
    2.5840   -0.1175   -4.3851 O   0  0  0  0  0  0  0  0  0  0  0  0
    1.1887    0.0459   -7.6536 O   0  0  0  0  0  0  0  0  0  0  0  0
    4.2090   -0.4925   -7.5609 F   0  0  0  0  0  0  0  0  0  0  0  0
    4.5096    0.9532   -5.9789 F   0  0  0  0  0  0  0  0  0  0  0  0
    3.2250   -0.8383   -5.6486 F   0  0  0  0  0  0  0  0  0  0  0  0
   -3.5471   -1.4420   -4.4704 H   0  0  0  0  0  0  0  0  0  0  0  0
  1  7  1  0  0  0  0
  2  8  1  0  0  0  0
  2  1  2  0  0  0  0
  3  2  1  0  0  0  0
  4  3  2  0  0  0  0
  4  5  1  0  0  0  0
  5  6  2  0  0  0  0
  6  1  1  0  0  0  0
  6 21  1  0  0  0  0
  9  4  1  0  0  0  0
 10  5  1  0  0  0  0
 11  3  1  0  0  0  0
 12 11  2  0  0  0  0
 13 14  1  0  0  0  0
 14 19  1  0  0  0  0
 14 20  1  0  0  0  0
 15 13  1  0  0  0  0
 17 13  1  0  0  0  0
 18 14  1  0  0  0  0
M  RAD  4  12   2  15   2  16   3  17   2
M  END
