Coordinates from ORCA-job Ph-N2-X-OTf-B3LYPG-6-31G_dp-scan-d09-49-n400
 OpenBabel08281821163D

 21 21  0  0  0  0  0  0  0  0999 V2000
   -2.1916   -0.9803   -5.4747 C   0  0  0  0  0  0  0  0  0  0  0  0
   -0.9140   -0.4867   -5.2310 C   0  0  0  0  0  0  0  0  0  0  0  0
   -0.7627    0.8725   -4.9039 C   0  0  0  0  0  0  0  0  0  0  0  0
   -1.8838    1.7103   -4.7788 C   0  0  0  0  0  0  0  0  0  0  0  0
   -3.1498    1.2074   -5.0564 C   0  0  0  0  0  0  0  0  0  0  0  0
   -3.3050   -0.1375   -5.4049 C   0  0  0  0  0  0  0  0  0  0  0  0
   -2.3181   -2.0305   -5.7174 H   0  0  0  0  0  0  0  0  0  0  0  0
   -0.0617   -1.1557   -5.2450 H   0  0  0  0  0  0  0  0  0  0  0  0
   -1.7338    2.7427   -4.4829 H   0  0  0  0  0  0  0  0  0  0  0  0
   -4.0158    1.8572   -4.9843 H   0  0  0  0  0  0  0  0  0  0  0  0
    0.4631    1.4820   -4.5709 N   0  0  0  0  0  0  0  0  0  0  0  0
    1.5682    1.1994   -5.0002 N   0  0  0  0  0  0  0  0  0  0  0  0
    2.1007    0.0413   -6.3651 S   0  0  0  0  0  0  0  0  0  0  0  0
    3.7931    0.7668   -6.8713 C   0  0  0  0  0  0  0  0  0  0  0  0
    1.1990    0.2670   -7.4901 O   0  0  0  0  0  0  0  0  0  0  0  0
    3.0735    1.9104   -4.3928 O   0  0  0  0  0  0  0  0  0  0  0  0
    2.3258   -1.2776   -5.7822 O   0  0  0  0  0  0  0  0  0  0  0  0
    4.0240    0.1322   -8.0314 F   0  0  0  0  0  0  0  0  0  0  0  0
    3.7069    2.0621   -7.0941 F   0  0  0  0  0  0  0  0  0  0  0  0
    4.7392    0.4581   -6.0153 F   0  0  0  0  0  0  0  0  0  0  0  0
   -4.2955   -0.5343   -5.6049 H   0  0  0  0  0  0  0  0  0  0  0  0
  1  6  2  0  0  0  0
  1  2  1  0  0  0  0
  2  3  2  0  0  0  0
  3  4  1  0  0  0  0
  3 11  1  0  0  0  0
  4  9  1  0  0  0  0
  5 10  1  0  0  0  0
  5  4  2  0  0  0  0
  6  5  1  0  0  0  0
  7  1  1  0  0  0  0
  8  2  1  0  0  0  0
 12 11  1  0  0  0  0
 12 16  1  0  0  0  0
 13 17  2  0  0  0  0
 13 12  1  0  0  0  0
 14 13  1  0  0  0  0
 14 20  1  0  0  0  0
 15 13  2  0  0  0  0
 18 14  1  0  0  0  0
 19 14  1  0  0  0  0
 21  6  1  0  0  0  0
M  RAD  2  11   2  16   2
M  END
