Coordinates from ORCA-job Ph-N2-X-OTf-B3LYPG-6-31G_dp-scan-d09-49-n400
 OpenBabel08281821163D

 21 19  0  0  0  0  0  0  0  0999 V2000
   -1.4488   -0.9280   -4.6201 C   0  0  0  0  0  0  0  0  0  0  0  0
   -0.5119    0.0638   -4.8981 C   0  0  0  0  0  0  0  0  0  0  0  0
   -1.0045    1.3370   -5.2221 C   0  0  0  0  0  0  0  0  0  0  0  0
   -2.3728    1.6433   -5.2422 C   0  0  0  0  0  0  0  0  0  0  0  0
   -3.2825    0.6251   -4.9850 C   0  0  0  0  0  0  0  0  0  0  0  0
   -2.8195   -0.6580   -4.6730 C   0  0  0  0  0  0  0  0  0  0  0  0
   -1.0990   -1.9226   -4.3636 H   0  0  0  0  0  0  0  0  0  0  0  0
    0.5576   -0.1333   -4.8375 H   0  0  0  0  0  0  0  0  0  0  0  0
   -2.6962    2.6519   -5.4742 H   0  0  0  0  0  0  0  0  0  0  0  0
   -4.3471    0.8325   -5.0165 H   0  0  0  0  0  0  0  0  0  0  0  0
   -0.1239    2.4029   -5.4837 N   0  0  0  0  0  0  0  0  0  0  0  0
    0.9004    2.7498   -5.8933 N   0  0  0  0  0  0  0  0  0  0  0  0
    2.0896    1.1776   -7.2238 S   0  0  0  0  0  0  0  0  0  0  0  0
    3.6263    0.1961   -6.6113 C   0  0  0  0  0  0  0  0  0  0  0  0
    2.7501    2.0344   -8.2363 O   0  0  0  0  0  0  0  0  0  0  0  0
    2.5910   -0.1582   -4.3836 O   0  0  0  0  0  0  0  0  0  0  0  0
    1.1764    0.0873   -7.6533 O   0  0  0  0  0  0  0  0  0  0  0  0
    4.1921   -0.4991   -7.5769 F   0  0  0  0  0  0  0  0  0  0  0  0
    4.5140    0.9156   -5.9713 F   0  0  0  0  0  0  0  0  0  0  0  0
    3.2024   -0.8623   -5.6709 F   0  0  0  0  0  0  0  0  0  0  0  0
   -3.5320   -1.4492   -4.4606 H   0  0  0  0  0  0  0  0  0  0  0  0
  1  7  1  0  0  0  0
  2  8  1  0  0  0  0
  2  1  2  0  0  0  0
  3  2  1  0  0  0  0
  4  3  2  0  0  0  0
  4  5  1  0  0  0  0
  5  6  2  0  0  0  0
  6  1  1  0  0  0  0
  6 21  1  0  0  0  0
  9  4  1  0  0  0  0
 10  5  1  0  0  0  0
 11  3  1  0  0  0  0
 12 11  2  0  0  0  0
 13 14  1  0  0  0  0
 14 19  1  0  0  0  0
 14 20  1  0  0  0  0
 15 13  1  0  0  0  0
 17 13  1  0  0  0  0
 18 14  1  0  0  0  0
M  RAD  4  12   2  15   2  16   3  17   2
M  END
