Coordinates from ORCA-job Ph-N2-X-OTf-B3LYPG-6-31G_dp-scan-d09-49-n400
 OpenBabel08281821163D

 21 19  0  0  0  0  0  0  0  0999 V2000
   -1.5070   -0.9649   -4.6975 C   0  0  0  0  0  0  0  0  0  0  0  0
   -0.5360    0.0015   -4.9470 C   0  0  0  0  0  0  0  0  0  0  0  0
   -0.9800    1.3078   -5.1987 C   0  0  0  0  0  0  0  0  0  0  0  0
   -2.3338    1.6701   -5.1717 C   0  0  0  0  0  0  0  0  0  0  0  0
   -3.2804    0.6782   -4.9452 C   0  0  0  0  0  0  0  0  0  0  0  0
   -2.8660   -0.6369   -4.7076 C   0  0  0  0  0  0  0  0  0  0  0  0
   -1.1944   -1.9844   -4.4965 H   0  0  0  0  0  0  0  0  0  0  0  0
    0.5259   -0.2308   -4.9154 H   0  0  0  0  0  0  0  0  0  0  0  0
   -2.6192    2.7016   -5.3461 H   0  0  0  0  0  0  0  0  0  0  0  0
   -4.3357    0.9304   -4.9425 H   0  0  0  0  0  0  0  0  0  0  0  0
   -0.0591    2.3503   -5.4311 N   0  0  0  0  0  0  0  0  0  0  0  0
    0.9719    2.6321   -5.8817 N   0  0  0  0  0  0  0  0  0  0  0  0
    2.0377    1.0575   -7.2706 S   0  0  0  0  0  0  0  0  0  0  0  0
    3.6543    0.2769   -6.5899 C   0  0  0  0  0  0  0  0  0  0  0  0
    2.6090    1.9178   -8.3317 O   0  0  0  0  0  0  0  0  0  0  0  0
    2.5655   -0.0089   -4.3900 O   0  0  0  0  0  0  0  0  0  0  0  0
    1.2380   -0.1392   -7.6342 O   0  0  0  0  0  0  0  0  0  0  0  0
    4.2966   -0.4230   -7.5026 F   0  0  0  0  0  0  0  0  0  0  0  0
    4.4592    1.1237   -5.9970 F   0  0  0  0  0  0  0  0  0  0  0  0
    3.3219   -0.7449   -5.5815 F   0  0  0  0  0  0  0  0  0  0  0  0
   -3.6067   -1.4080   -4.5189 H   0  0  0  0  0  0  0  0  0  0  0  0
  1  7  1  0  0  0  0
  2  8  1  0  0  0  0
  2  1  2  0  0  0  0
  3  4  2  0  0  0  0
  3  2  1  0  0  0  0
  4  5  1  0  0  0  0
  5 10  1  0  0  0  0
  5  6  2  0  0  0  0
  6  1  1  0  0  0  0
  6 21  1  0  0  0  0
  9  4  1  0  0  0  0
 11  3  1  0  0  0  0
 12 11  2  0  0  0  0
 13 14  1  0  0  0  0
 14 19  1  0  0  0  0
 14 20  1  0  0  0  0
 15 13  1  0  0  0  0
 17 13  1  0  0  0  0
 18 14  1  0  0  0  0
M  RAD  4  12   2  15   2  16   3  17   2
M  END
