Coordinates from ORCA-job Ph-N2-X-OTf-B3LYPG-6-31G_dp-scan-d09-49-n400
 OpenBabel08281821163D

 21 19  0  0  0  0  0  0  0  0999 V2000
   -1.4783   -0.9495   -4.6593 C   0  0  0  0  0  0  0  0  0  0  0  0
   -0.5251    0.0299   -4.9253 C   0  0  0  0  0  0  0  0  0  0  0  0
   -0.9938    1.3206   -5.2122 C   0  0  0  0  0  0  0  0  0  0  0  0
   -2.3551    1.6558   -5.2069 C   0  0  0  0  0  0  0  0  0  0  0  0
   -3.2828    0.6502   -4.9637 C   0  0  0  0  0  0  0  0  0  0  0  0
   -2.8435   -0.6495   -4.6887 C   0  0  0  0  0  0  0  0  0  0  0  0
   -1.1469   -1.9570   -4.4306 H   0  0  0  0  0  0  0  0  0  0  0  0
    0.5418   -0.1811   -4.8826 H   0  0  0  0  0  0  0  0  0  0  0  0
   -2.6602    2.6764   -5.4094 H   0  0  0  0  0  0  0  0  0  0  0  0
   -4.3432    0.8802   -4.9766 H   0  0  0  0  0  0  0  0  0  0  0  0
   -0.0915    2.3747   -5.4555 N   0  0  0  0  0  0  0  0  0  0  0  0
    0.9382    2.6900   -5.8819 N   0  0  0  0  0  0  0  0  0  0  0  0
    2.0675    1.1229   -7.2478 S   0  0  0  0  0  0  0  0  0  0  0  0
    3.6428    0.2319   -6.6013 C   0  0  0  0  0  0  0  0  0  0  0  0
    2.6882    1.9839   -8.2811 O   0  0  0  0  0  0  0  0  0  0  0  0
    2.5700   -0.0583   -4.3918 O   0  0  0  0  0  0  0  0  0  0  0  0
    1.2062   -0.0181   -7.6499 O   0  0  0  0  0  0  0  0  0  0  0  0
    4.2377   -0.4786   -7.5376 F   0  0  0  0  0  0  0  0  0  0  0  0
    4.4996    1.0129   -5.9914 F   0  0  0  0  0  0  0  0  0  0  0  0
    3.2601   -0.8001   -5.6173 F   0  0  0  0  0  0  0  0  0  0  0  0
   -3.5702   -1.4305   -4.4864 H   0  0  0  0  0  0  0  0  0  0  0  0
  1  7  1  0  0  0  0
  2  8  1  0  0  0  0
  2  1  2  0  0  0  0
  3  4  2  0  0  0  0
  3  2  1  0  0  0  0
  4  5  1  0  0  0  0
  5  6  2  0  0  0  0
  6  1  1  0  0  0  0
  6 21  1  0  0  0  0
  9  4  1  0  0  0  0
 10  5  1  0  0  0  0
 11  3  1  0  0  0  0
 12 11  2  0  0  0  0
 13 14  1  0  0  0  0
 14 19  1  0  0  0  0
 14 20  1  0  0  0  0
 15 13  1  0  0  0  0
 17 13  1  0  0  0  0
 18 14  1  0  0  0  0
M  RAD  4  12   2  15   2  16   3  17   2
M  END
