Coordinates from ORCA-job Ph-N2-X-OTf-B3LYPG-6-31G_dp-scan-d09-49-n400
 OpenBabel08281821163D

 21 21  0  0  0  0  0  0  0  0999 V2000
   -2.1771   -0.9816   -5.4558 C   0  0  0  0  0  0  0  0  0  0  0  0
   -0.9022   -0.4878   -5.1968 C   0  0  0  0  0  0  0  0  0  0  0  0
   -0.7505    0.8751   -4.8869 C   0  0  0  0  0  0  0  0  0  0  0  0
   -1.8712    1.7172   -4.7928 C   0  0  0  0  0  0  0  0  0  0  0  0
   -3.1342    1.2133   -5.0825 C   0  0  0  0  0  0  0  0  0  0  0  0
   -3.2890   -0.1356   -5.4152 C   0  0  0  0  0  0  0  0  0  0  0  0
   -2.3021   -2.0347   -5.6866 H   0  0  0  0  0  0  0  0  0  0  0  0
   -0.0513   -1.1591   -5.1873 H   0  0  0  0  0  0  0  0  0  0  0  0
   -1.7239    2.7536   -4.5099 H   0  0  0  0  0  0  0  0  0  0  0  0
   -3.9991    1.8670   -5.0332 H   0  0  0  0  0  0  0  0  0  0  0  0
    0.4728    1.4806   -4.5387 N   0  0  0  0  0  0  0  0  0  0  0  0
    1.5751    1.1815   -4.9781 N   0  0  0  0  0  0  0  0  0  0  0  0
    2.0911    0.0432   -6.3703 S   0  0  0  0  0  0  0  0  0  0  0  0
    3.7783    0.7785   -6.8783 C   0  0  0  0  0  0  0  0  0  0  0  0
    1.1781    0.2900   -7.4807 O   0  0  0  0  0  0  0  0  0  0  0  0
    2.9984    1.8205   -4.4055 O   0  0  0  0  0  0  0  0  0  0  0  0
    2.3225   -1.2841   -5.8111 O   0  0  0  0  0  0  0  0  0  0  0  0
    4.0032    0.1639   -8.0497 F   0  0  0  0  0  0  0  0  0  0  0  0
    3.6885    2.0778   -7.0786 F   0  0  0  0  0  0  0  0  0  0  0  0
    4.7318    0.4597   -6.0334 F   0  0  0  0  0  0  0  0  0  0  0  0
   -4.2775   -0.5320   -5.6256 H   0  0  0  0  0  0  0  0  0  0  0  0
  1  6  2  0  0  0  0
  1  2  1  0  0  0  0
  2  8  1  0  0  0  0
  2  3  2  0  0  0  0
  3  4  1  0  0  0  0
  3 11  1  0  0  0  0
  4  9  1  0  0  0  0
  5 10  1  0  0  0  0
  5  4  2  0  0  0  0
  6  5  1  0  0  0  0
  7  1  1  0  0  0  0
 12 11  1  0  0  0  0
 12 16  1  0  0  0  0
 13 17  2  0  0  0  0
 13 12  1  0  0  0  0
 14 13  1  0  0  0  0
 14 20  1  0  0  0  0
 15 13  2  0  0  0  0
 18 14  1  0  0  0  0
 19 14  1  0  0  0  0
 21  6  1  0  0  0  0
M  RAD  2  11   2  16   2
M  END
