Coordinates from ORCA-job Ph-N2-X-OTf-B3LYPG-6-31G_dp-scan-d09-49-n400
 OpenBabel08281821163D

 21 19  0  0  0  0  0  0  0  0999 V2000
   -1.1617   -0.7688   -4.5115 C   0  0  0  0  0  0  0  0  0  0  0  0
   -0.3554    0.3111   -4.8593 C   0  0  0  0  0  0  0  0  0  0  0  0
   -0.9897    1.4808   -5.2934 C   0  0  0  0  0  0  0  0  0  0  0  0
   -2.3828    1.6161   -5.3505 C   0  0  0  0  0  0  0  0  0  0  0  0
   -3.1634    0.5156   -5.0158 C   0  0  0  0  0  0  0  0  0  0  0  0
   -2.5534   -0.6736   -4.5976 C   0  0  0  0  0  0  0  0  0  0  0  0
   -0.6808   -1.6818   -4.1767 H   0  0  0  0  0  0  0  0  0  0  0  0
    0.7235    0.2255   -4.7516 H   0  0  0  0  0  0  0  0  0  0  0  0
   -2.8234    2.5533   -5.6722 H   0  0  0  0  0  0  0  0  0  0  0  0
   -4.2448    0.5853   -5.0734 H   0  0  0  0  0  0  0  0  0  0  0  0
   -0.2140    2.6053   -5.6453 N   0  0  0  0  0  0  0  0  0  0  0  0
    0.8117    2.9137   -6.0897 N   0  0  0  0  0  0  0  0  0  0  0  0
    2.0313    1.2827   -7.2862 S   0  0  0  0  0  0  0  0  0  0  0  0
    3.3347    0.0874   -6.5156 C   0  0  0  0  0  0  0  0  0  0  0  0
    2.9334    2.1512   -8.0727 O   0  0  0  0  0  0  0  0  0  0  0  0
    2.3841   -1.0256   -4.3638 O   0  0  0  0  0  0  0  0  0  0  0  0
    1.0909    0.3585   -7.9646 O   0  0  0  0  0  0  0  0  0  0  0  0
    4.1156   -0.4478   -7.4296 F   0  0  0  0  0  0  0  0  0  0  0  0
    4.0339    0.6294   -5.5527 F   0  0  0  0  0  0  0  0  0  0  0  0
    2.6414   -1.0854   -5.9482 F   0  0  0  0  0  0  0  0  0  0  0  0
   -3.1693   -1.5259   -4.3272 H   0  0  0  0  0  0  0  0  0  0  0  0
  1  7  1  0  0  0  0
  2  8  1  0  0  0  0
  2  1  2  0  0  0  0
  3  2  1  0  0  0  0
  4  3  2  0  0  0  0
  4  5  1  0  0  0  0
  5  6  2  0  0  0  0
  6  1  1  0  0  0  0
  6 21  1  0  0  0  0
  9  4  1  0  0  0  0
 10  5  1  0  0  0  0
 11  3  1  0  0  0  0
 12 11  2  0  0  0  0
 13 14  1  0  0  0  0
 14 20  1  0  0  0  0
 14 19  1  0  0  0  0
 15 13  1  0  0  0  0
 17 13  1  0  0  0  0
 18 14  1  0  0  0  0
M  RAD  4  12   2  15   2  16   3  17   2
M  END
