Coordinates from ORCA-job Ph-N2-X-OTf-B3LYPG-6-31G_dp-scan-d09-49-n400
 OpenBabel08281821163D

 21 19  0  0  0  0  0  0  0  0999 V2000
   -1.2683   -0.8091   -4.5509 C   0  0  0  0  0  0  0  0  0  0  0  0
   -0.4259    0.2374   -4.9156 C   0  0  0  0  0  0  0  0  0  0  0  0
   -1.0263    1.4424   -5.3040 C   0  0  0  0  0  0  0  0  0  0  0  0
   -2.4143    1.6374   -5.3070 C   0  0  0  0  0  0  0  0  0  0  0  0
   -3.2304    0.5685   -4.9568 C   0  0  0  0  0  0  0  0  0  0  0  0
   -2.6570   -0.6516   -4.5790 C   0  0  0  0  0  0  0  0  0  0  0  0
   -0.8219   -1.7499   -4.2467 H   0  0  0  0  0  0  0  0  0  0  0  0
    0.6536    0.1039   -4.8631 H   0  0  0  0  0  0  0  0  0  0  0  0
   -2.8240    2.5985   -5.5972 H   0  0  0  0  0  0  0  0  0  0  0  0
   -4.3090    0.6868   -4.9695 H   0  0  0  0  0  0  0  0  0  0  0  0
   -0.2285    2.5453   -5.6676 N   0  0  0  0  0  0  0  0  0  0  0  0
    0.7961    2.8706   -6.0973 N   0  0  0  0  0  0  0  0  0  0  0  0
    2.0760    1.2348   -7.2587 S   0  0  0  0  0  0  0  0  0  0  0  0
    3.4830    0.1352   -6.5207 C   0  0  0  0  0  0  0  0  0  0  0  0
    2.8974    2.1134   -8.1210 O   0  0  0  0  0  0  0  0  0  0  0  0
    2.4370   -0.8941   -4.4128 O   0  0  0  0  0  0  0  0  0  0  0  0
    1.1612    0.2327   -7.8601 O   0  0  0  0  0  0  0  0  0  0  0  0
    4.2649   -0.3489   -7.4632 F   0  0  0  0  0  0  0  0  0  0  0  0
    4.1832    0.7238   -5.5843 F   0  0  0  0  0  0  0  0  0  0  0  0
    2.9133   -1.0896   -5.9261 F   0  0  0  0  0  0  0  0  0  0  0  0
   -3.2983   -1.4807   -4.2957 H   0  0  0  0  0  0  0  0  0  0  0  0
  1  7  1  0  0  0  0
  2  8  1  0  0  0  0
  2  1  2  0  0  0  0
  3  2  1  0  0  0  0
  4  3  2  0  0  0  0
  4  5  1  0  0  0  0
  5  6  2  0  0  0  0
  6  1  1  0  0  0  0
  6 21  1  0  0  0  0
  9  4  1  0  0  0  0
 10  5  1  0  0  0  0
 11  3  1  0  0  0  0
 12 11  2  0  0  0  0
 13 14  1  0  0  0  0
 14 20  1  0  0  0  0
 14 19  1  0  0  0  0
 15 13  1  0  0  0  0
 17 13  1  0  0  0  0
 18 14  1  0  0  0  0
M  RAD  4  12   2  15   2  16   3  17   2
M  END
