Coordinates from ORCA-job Ph-N2-X-OTf-B3LYPG-6-31G_dp-scan-d09-49-n400
 OpenBabel08281821163D

 21 20  0  0  0  0  0  0  0  0999 V2000
   -2.2239   -1.0037   -5.4958 C   0  0  0  0  0  0  0  0  0  0  0  0
   -0.9382   -0.5186   -5.2716 C   0  0  0  0  0  0  0  0  0  0  0  0
   -0.7882    0.8294   -4.9091 C   0  0  0  0  0  0  0  0  0  0  0  0
   -1.8974    1.6683   -4.7283 C   0  0  0  0  0  0  0  0  0  0  0  0
   -3.1705    1.1725   -4.9872 C   0  0  0  0  0  0  0  0  0  0  0  0
   -3.3332   -0.1625   -5.3694 C   0  0  0  0  0  0  0  0  0  0  0  0
   -2.3578   -2.0451   -5.7695 H   0  0  0  0  0  0  0  0  0  0  0  0
   -0.0831   -1.1808   -5.3414 H   0  0  0  0  0  0  0  0  0  0  0  0
   -1.7378    2.6919   -4.4082 H   0  0  0  0  0  0  0  0  0  0  0  0
   -4.0347    1.8190   -4.8754 H   0  0  0  0  0  0  0  0  0  0  0  0
    0.4658    1.4163   -4.6142 N   0  0  0  0  0  0  0  0  0  0  0  0
    1.5749    1.2343   -5.0148 N   0  0  0  0  0  0  0  0  0  0  0  0
    1.9839   -0.0222   -6.5803 S   0  0  0  0  0  0  0  0  0  0  0  0
    3.7469    0.6365   -6.8067 C   0  0  0  0  0  0  0  0  0  0  0  0
    1.2137    0.3620   -7.7717 O   0  0  0  0  0  0  0  0  0  0  0  0
    3.7334    2.8771   -4.2264 O   0  0  0  0  0  0  0  0  0  0  0  0
    2.1140   -1.4266   -6.1558 O   0  0  0  0  0  0  0  0  0  0  0  0
    4.2862   -0.0218   -7.8346 F   0  0  0  0  0  0  0  0  0  0  0  0
    3.6953    1.9316   -7.0766 F   0  0  0  0  0  0  0  0  0  0  0  0
    4.4412    0.4027   -5.7052 F   0  0  0  0  0  0  0  0  0  0  0  0
   -4.3288   -0.5535   -5.5550 H   0  0  0  0  0  0  0  0  0  0  0  0
  1  6  2  0  0  0  0
  1  2  1  0  0  0  0
  2  3  2  0  0  0  0
  3  4  1  0  0  0  0
  3 11  1  0  0  0  0
  4  9  1  0  0  0  0
  5 10  1  0  0  0  0
  5  4  2  0  0  0  0
  6  5  1  0  0  0  0
  7  1  1  0  0  0  0
  8  2  1  0  0  0  0
 12 11  2  0  0  0  0
 13 17  2  0  0  0  0
 13 12  1  0  0  0  0
 14 13  1  0  0  0  0
 14 20  1  0  0  0  0
 15 13  2  0  0  0  0
 18 14  1  0  0  0  0
 19 14  1  0  0  0  0
 21  6  1  0  0  0  0
M  RAD  1  16   3
M  END
