Coordinates from ORCA-job Ph-N2-X-OTf-B3LYPG-6-31G_dp-scan-d09-49-n400
 OpenBabel08281821163D

 21 21  0  0  0  0  0  0  0  0999 V2000
   -2.0322   -1.0386   -5.2310 C   0  0  0  0  0  0  0  0  0  0  0  0
   -0.8083   -0.5370   -4.7875 C   0  0  0  0  0  0  0  0  0  0  0  0
   -0.6322    0.8511   -4.6844 C   0  0  0  0  0  0  0  0  0  0  0  0
   -1.6904    1.7252   -4.9702 C   0  0  0  0  0  0  0  0  0  0  0  0
   -2.9039    1.2103   -5.4142 C   0  0  0  0  0  0  0  0  0  0  0  0
   -3.0769   -0.1711   -5.5497 C   0  0  0  0  0  0  0  0  0  0  0  0
   -2.1669   -2.1124   -5.3188 H   0  0  0  0  0  0  0  0  0  0  0  0
   -0.0059   -1.2107   -4.5079 H   0  0  0  0  0  0  0  0  0  0  0  0
   -1.5408    2.7930   -4.8509 H   0  0  0  0  0  0  0  0  0  0  0  0
   -3.7184    1.8872   -5.6527 H   0  0  0  0  0  0  0  0  0  0  0  0
    0.5547    1.4117   -4.1597 N   0  0  0  0  0  0  0  0  0  0  0  0
    1.6689    1.1421   -4.6642 N   0  0  0  0  0  0  0  0  0  0  0  0
    1.8103    0.1536   -6.5067 S   0  0  0  0  0  0  0  0  0  0  0  0
    3.5413    0.8203   -6.9609 C   0  0  0  0  0  0  0  0  0  0  0  0
    0.8950    0.7397   -7.4876 O   0  0  0  0  0  0  0  0  0  0  0  0
    2.7644    1.4130   -4.2540 O   0  0  0  0  0  0  0  0  0  0  0  0
    1.9642   -1.2915   -6.3123 O   0  0  0  0  0  0  0  0  0  0  0  0
    3.7299    0.4821   -8.2376 F   0  0  0  0  0  0  0  0  0  0  0  0
    3.5578    2.1429   -6.8444 F   0  0  0  0  0  0  0  0  0  0  0  0
    4.4784    0.2641   -6.2103 F   0  0  0  0  0  0  0  0  0  0  0  0
   -4.0273   -0.5682   -5.8924 H   0  0  0  0  0  0  0  0  0  0  0  0
  1  2  2  0  0  0  0
  2  3  1  0  0  0  0
  2  8  1  0  0  0  0
  3 11  1  0  0  0  0
  4  9  1  0  0  0  0
  4  3  2  0  0  0  0
  5  4  1  0  0  0  0
  6  5  2  0  0  0  0
  6  1  1  0  0  0  0
  7  1  1  0  0  0  0
 10  5  1  0  0  0  0
 12 16  1  0  0  0  0
 12 11  1  0  0  0  0
 13 17  2  0  0  0  0
 13 12  1  0  0  0  0
 14 19  1  0  0  0  0
 14 13  1  0  0  0  0
 14 20  1  0  0  0  0
 15 13  2  0  0  0  0
 18 14  1  0  0  0  0
 21  6  1  0  0  0  0
M  RAD  2  11   2  16   2
M  END
