Coordinates from ORCA-job Ph-N2-X-OTf-B3LYPG-6-31G_dp-scan-d09-49-n400
 OpenBabel08281821163D

 21 20  0  0  0  0  0  0  0  0999 V2000
   -2.2053   -0.9970   -5.4835 C   0  0  0  0  0  0  0  0  0  0  0  0
   -0.9224   -0.5075   -5.2567 C   0  0  0  0  0  0  0  0  0  0  0  0
   -0.7708    0.8476   -4.9179 C   0  0  0  0  0  0  0  0  0  0  0  0
   -1.8856    1.6870   -4.7635 C   0  0  0  0  0  0  0  0  0  0  0  0
   -3.1560    1.1889   -5.0297 C   0  0  0  0  0  0  0  0  0  0  0  0
   -3.3158   -0.1528   -5.3882 C   0  0  0  0  0  0  0  0  0  0  0  0
   -2.3373   -2.0443   -5.7349 H   0  0  0  0  0  0  0  0  0  0  0  0
   -0.0695   -1.1743   -5.2980 H   0  0  0  0  0  0  0  0  0  0  0  0
   -1.7288    2.7151   -4.4564 H   0  0  0  0  0  0  0  0  0  0  0  0
   -4.0207    1.8380   -4.9390 H   0  0  0  0  0  0  0  0  0  0  0  0
    0.4667    1.4552   -4.6047 N   0  0  0  0  0  0  0  0  0  0  0  0
    1.5799    1.2455   -5.0132 N   0  0  0  0  0  0  0  0  0  0  0  0
    2.0392    0.0329   -6.4520 S   0  0  0  0  0  0  0  0  0  0  0  0
    3.7755    0.6998   -6.8524 C   0  0  0  0  0  0  0  0  0  0  0  0
    1.1887    0.3311   -7.6055 O   0  0  0  0  0  0  0  0  0  0  0  0
    3.3676    2.3646   -4.2488 O   0  0  0  0  0  0  0  0  0  0  0  0
    2.2050   -1.3237   -5.9223 O   0  0  0  0  0  0  0  0  0  0  0  0
    4.1181    0.0505   -7.9725 F   0  0  0  0  0  0  0  0  0  0  0  0
    3.7208    1.9959   -7.0906 F   0  0  0  0  0  0  0  0  0  0  0  0
    4.6219    0.4013   -5.8905 F   0  0  0  0  0  0  0  0  0  0  0  0
   -4.3095   -0.5472   -5.5771 H   0  0  0  0  0  0  0  0  0  0  0  0
  1  6  2  0  0  0  0
  1  2  1  0  0  0  0
  2  3  2  0  0  0  0
  3  4  1  0  0  0  0
  3 11  1  0  0  0  0
  4  9  1  0  0  0  0
  5 10  1  0  0  0  0
  5  4  2  0  0  0  0
  6  5  1  0  0  0  0
  7  1  1  0  0  0  0
  8  2  1  0  0  0  0
 12 11  2  0  0  0  0
 13 17  2  0  0  0  0
 13 12  1  0  0  0  0
 14 13  1  0  0  0  0
 14 20  1  0  0  0  0
 15 13  2  0  0  0  0
 18 14  1  0  0  0  0
 19 14  1  0  0  0  0
 21  6  1  0  0  0  0
M  RAD  1  16   3
M  END
