Coordinates from ORCA-job Ph-N2-X-OTf-B3LYPG-6-31G_dp-scan-d09-49-n400
 OpenBabel08281821163D

 21 21  0  0  0  0  0  0  0  0999 V2000
   -2.0502   -1.0319   -5.2519 C   0  0  0  0  0  0  0  0  0  0  0  0
   -0.8173   -0.5330   -4.8318 C   0  0  0  0  0  0  0  0  0  0  0  0
   -0.6441    0.8543   -4.7117 C   0  0  0  0  0  0  0  0  0  0  0  0
   -1.7120    1.7287   -4.9573 C   0  0  0  0  0  0  0  0  0  0  0  0
   -2.9334    1.2161   -5.3820 C   0  0  0  0  0  0  0  0  0  0  0  0
   -3.1050   -0.1636   -5.5338 C   0  0  0  0  0  0  0  0  0  0  0  0
   -2.1842   -2.1049   -5.3501 H   0  0  0  0  0  0  0  0  0  0  0  0
   -0.0076   -1.2086   -4.5789 H   0  0  0  0  0  0  0  0  0  0  0  0
   -1.5636    2.7950   -4.8232 H   0  0  0  0  0  0  0  0  0  0  0  0
   -3.7557    1.8935   -5.5907 H   0  0  0  0  0  0  0  0  0  0  0  0
    0.5516    1.4162   -4.2076 N   0  0  0  0  0  0  0  0  0  0  0  0
    1.6584    1.1293   -4.7079 N   0  0  0  0  0  0  0  0  0  0  0  0
    1.8502    0.1339   -6.4874 S   0  0  0  0  0  0  0  0  0  0  0  0
    3.5691    0.8269   -6.9499 C   0  0  0  0  0  0  0  0  0  0  0  0
    0.9203    0.6801   -7.4745 O   0  0  0  0  0  0  0  0  0  0  0  0
    2.7920    1.4226   -4.2678 O   0  0  0  0  0  0  0  0  0  0  0  0
    2.0243   -1.2998   -6.2476 O   0  0  0  0  0  0  0  0  0  0  0  0
    3.7514    0.4608   -8.2209 F   0  0  0  0  0  0  0  0  0  0  0  0
    3.5618    2.1499   -6.8663 F   0  0  0  0  0  0  0  0  0  0  0  0
    4.5179    0.3005   -6.1965 F   0  0  0  0  0  0  0  0  0  0  0  0
   -4.0621   -0.5592   -5.8593 H   0  0  0  0  0  0  0  0  0  0  0  0
  1  2  2  0  0  0  0
  2  3  1  0  0  0  0
  2  8  1  0  0  0  0
  3 11  1  0  0  0  0
  4  9  1  0  0  0  0
  4  3  2  0  0  0  0
  5  4  1  0  0  0  0
  6  5  2  0  0  0  0
  6  1  1  0  0  0  0
  7  1  1  0  0  0  0
 10  5  1  0  0  0  0
 12 16  1  0  0  0  0
 12 11  1  0  0  0  0
 13 17  2  0  0  0  0
 13 12  1  0  0  0  0
 14 19  1  0  0  0  0
 14 13  1  0  0  0  0
 14 20  1  0  0  0  0
 15 13  2  0  0  0  0
 18 14  1  0  0  0  0
 21  6  1  0  0  0  0
M  RAD  2  11   2  16   2
M  END
