Coordinates from ORCA-job Ph-N2-X-OTf-B3LYPG-6-31G_dp-scan-d09-49-n400
 OpenBabel08281821163D

 21 20  0  0  0  0  0  0  0  0999 V2000
   -2.2229   -1.0024   -5.4958 C   0  0  0  0  0  0  0  0  0  0  0  0
   -0.9363   -0.5196   -5.2728 C   0  0  0  0  0  0  0  0  0  0  0  0
   -0.7830    0.8285   -4.9108 C   0  0  0  0  0  0  0  0  0  0  0  0
   -1.8913    1.6687   -4.7291 C   0  0  0  0  0  0  0  0  0  0  0  0
   -3.1655    1.1755   -4.9873 C   0  0  0  0  0  0  0  0  0  0  0  0
   -3.3308   -0.1592   -5.3692 C   0  0  0  0  0  0  0  0  0  0  0  0
   -2.3590   -2.0438   -5.7686 H   0  0  0  0  0  0  0  0  0  0  0  0
   -0.0829   -1.1839   -5.3422 H   0  0  0  0  0  0  0  0  0  0  0  0
   -1.7296    2.6919   -4.4086 H   0  0  0  0  0  0  0  0  0  0  0  0
   -4.0284    1.8235   -4.8747 H   0  0  0  0  0  0  0  0  0  0  0  0
    0.4693    1.4171   -4.6155 N   0  0  0  0  0  0  0  0  0  0  0  0
    1.5793    1.2348   -5.0167 N   0  0  0  0  0  0  0  0  0  0  0  0
    1.9913   -0.0152   -6.5700 S   0  0  0  0  0  0  0  0  0  0  0  0
    3.7532    0.6403   -6.8110 C   0  0  0  0  0  0  0  0  0  0  0  0
    1.2120    0.3643   -7.7561 O   0  0  0  0  0  0  0  0  0  0  0  0
    3.6532    2.8357   -4.2332 O   0  0  0  0  0  0  0  0  0  0  0  0
    2.1211   -1.4163   -6.1371 O   0  0  0  0  0  0  0  0  0  0  0  0
    4.2791   -0.0239   -7.8427 F   0  0  0  0  0  0  0  0  0  0  0  0
    3.7032    1.9338   -7.0853 F   0  0  0  0  0  0  0  0  0  0  0  0
    4.4570    0.4057   -5.7165 F   0  0  0  0  0  0  0  0  0  0  0  0
   -4.3272   -0.5485   -5.5540 H   0  0  0  0  0  0  0  0  0  0  0  0
  1  6  2  0  0  0  0
  1  2  1  0  0  0  0
  2  3  2  0  0  0  0
  3  4  1  0  0  0  0
  3 11  1  0  0  0  0
  4  9  1  0  0  0  0
  5 10  1  0  0  0  0
  5  4  2  0  0  0  0
  6  5  1  0  0  0  0
  7  1  1  0  0  0  0
  8  2  1  0  0  0  0
 12 11  2  0  0  0  0
 13 17  2  0  0  0  0
 13 12  1  0  0  0  0
 14 13  1  0  0  0  0
 14 20  1  0  0  0  0
 15 13  2  0  0  0  0
 18 14  1  0  0  0  0
 19 14  1  0  0  0  0
 21  6  1  0  0  0  0
M  RAD  1  16   3
M  END
