Coordinates from ORCA-job Ph-N2-X-OTf-B3LYPG-6-31G_dp-scan-d09-49-n400
 OpenBabel08281821163D

 21 21  0  0  0  0  0  0  0  0999 V2000
   -2.0826   -1.0195   -5.2926 C   0  0  0  0  0  0  0  0  0  0  0  0
   -0.8356   -0.5244   -4.9137 C   0  0  0  0  0  0  0  0  0  0  0  0
   -0.6669    0.8604   -4.7588 C   0  0  0  0  0  0  0  0  0  0  0  0
   -1.7509    1.7334   -4.9292 C   0  0  0  0  0  0  0  0  0  0  0  0
   -2.9855    1.2248   -5.3194 C   0  0  0  0  0  0  0  0  0  0  0  0
   -3.1541   -0.1510   -5.5047 C   0  0  0  0  0  0  0  0  0  0  0  0
   -2.2149   -2.0902   -5.4141 H   0  0  0  0  0  0  0  0  0  0  0  0
   -0.0136   -1.2028   -4.7128 H   0  0  0  0  0  0  0  0  0  0  0  0
   -1.6038    2.7957   -4.7656 H   0  0  0  0  0  0  0  0  0  0  0  0
   -3.8205    1.9016   -5.4714 H   0  0  0  0  0  0  0  0  0  0  0  0
    0.5402    1.4284   -4.2915 N   0  0  0  0  0  0  0  0  0  0  0  0
    1.6408    1.1189   -4.7787 N   0  0  0  0  0  0  0  0  0  0  0  0
    1.9207    0.0976   -6.4548 S   0  0  0  0  0  0  0  0  0  0  0  0
    3.6183    0.8316   -6.9323 C   0  0  0  0  0  0  0  0  0  0  0  0
    0.9751    0.5637   -7.4642 O   0  0  0  0  0  0  0  0  0  0  0  0
    2.8327    1.4639   -4.2969 O   0  0  0  0  0  0  0  0  0  0  0  0
    2.1305   -1.3117   -6.1312 O   0  0  0  0  0  0  0  0  0  0  0  0
    3.7959    0.4242   -8.1932 F   0  0  0  0  0  0  0  0  0  0  0  0
    3.5727    2.1533   -6.8978 F   0  0  0  0  0  0  0  0  0  0  0  0
    4.5850    0.3535   -6.1744 F   0  0  0  0  0  0  0  0  0  0  0  0
   -4.1217   -0.5446   -5.8000 H   0  0  0  0  0  0  0  0  0  0  0  0
  1  2  2  0  0  0  0
  2  3  1  0  0  0  0
  2  8  1  0  0  0  0
  3 11  1  0  0  0  0
  4  9  1  0  0  0  0
  4  3  2  0  0  0  0
  5  4  1  0  0  0  0
  6  5  2  0  0  0  0
  6  1  1  0  0  0  0
  7  1  1  0  0  0  0
 10  5  1  0  0  0  0
 12 16  1  0  0  0  0
 12 11  1  0  0  0  0
 13 17  2  0  0  0  0
 13 12  1  0  0  0  0
 14 19  1  0  0  0  0
 14 13  1  0  0  0  0
 14 20  1  0  0  0  0
 15 13  2  0  0  0  0
 18 14  1  0  0  0  0
 21  6  1  0  0  0  0
M  RAD  2  11   2  16   2
M  END
