Coordinates from ORCA-job Ph-N2-X-OTf-B3LYPG-6-31G_dp-scan-d09-49-n400
 OpenBabel08281821163D

 21 19  0  0  0  0  0  0  0  0999 V2000
   -1.4909   -0.9576   -4.6773 C   0  0  0  0  0  0  0  0  0  0  0  0
   -0.5305    0.0160   -4.9387 C   0  0  0  0  0  0  0  0  0  0  0  0
   -0.9890    1.3138   -5.2088 C   0  0  0  0  0  0  0  0  0  0  0  0
   -2.3472    1.6610   -5.1908 C   0  0  0  0  0  0  0  0  0  0  0  0
   -3.2826    0.6615   -4.9523 C   0  0  0  0  0  0  0  0  0  0  0  0
   -2.8535   -0.6452   -4.6946 C   0  0  0  0  0  0  0  0  0  0  0  0
   -1.1672   -1.9706   -4.4615 H   0  0  0  0  0  0  0  0  0  0  0  0
    0.5342   -0.2041   -4.9038 H   0  0  0  0  0  0  0  0  0  0  0  0
   -2.6440    2.6866   -5.3801 H   0  0  0  0  0  0  0  0  0  0  0  0
   -4.3408    0.9014   -4.9556 H   0  0  0  0  0  0  0  0  0  0  0  0
   -0.0794    2.3630   -5.4487 N   0  0  0  0  0  0  0  0  0  0  0  0
    0.9507    2.6671   -5.8838 N   0  0  0  0  0  0  0  0  0  0  0  0
    2.0591    1.0992   -7.2584 S   0  0  0  0  0  0  0  0  0  0  0  0
    3.6490    0.2490   -6.5954 C   0  0  0  0  0  0  0  0  0  0  0  0
    2.6631    1.9591   -8.3022 O   0  0  0  0  0  0  0  0  0  0  0  0
    2.5648   -0.0258   -4.3911 O   0  0  0  0  0  0  0  0  0  0  0  0
    1.2209   -0.0634   -7.6464 O   0  0  0  0  0  0  0  0  0  0  0  0
    4.2605   -0.4634   -7.5194 F   0  0  0  0  0  0  0  0  0  0  0  0
    4.4885    1.0554   -5.9945 F   0  0  0  0  0  0  0  0  0  0  0  0
    3.2819   -0.7742   -5.5978 F   0  0  0  0  0  0  0  0  0  0  0  0
   -3.5859   -1.4219   -4.4962 H   0  0  0  0  0  0  0  0  0  0  0  0
  1  7  1  0  0  0  0
  2  8  1  0  0  0  0
  2  1  2  0  0  0  0
  3  4  2  0  0  0  0
  3  2  1  0  0  0  0
  4  5  1  0  0  0  0
  5  6  2  0  0  0  0
  6  1  1  0  0  0  0
  6 21  1  0  0  0  0
  9  4  1  0  0  0  0
 10  5  1  0  0  0  0
 11  3  1  0  0  0  0
 12 11  2  0  0  0  0
 13 14  1  0  0  0  0
 14 19  1  0  0  0  0
 14 20  1  0  0  0  0
 15 13  1  0  0  0  0
 17 13  1  0  0  0  0
 18 14  1  0  0  0  0
M  RAD  4  12   2  15   2  16   3  17   2
M  END
