Coordinates from ORCA-job Ph-N2-X-OTf-B3LYPG-6-31G_dp-scan-d09-49-n400
 OpenBabel08281821163D

 21 21  0  0  0  0  0  0  0  0999 V2000
   -2.0468   -1.0332   -5.2476 C   0  0  0  0  0  0  0  0  0  0  0  0
   -0.8157   -0.5340   -4.8224 C   0  0  0  0  0  0  0  0  0  0  0  0
   -0.6414    0.8534   -4.7060 C   0  0  0  0  0  0  0  0  0  0  0  0
   -1.7071    1.7281   -4.9604 C   0  0  0  0  0  0  0  0  0  0  0  0
   -2.9269    1.2154   -5.3893 C   0  0  0  0  0  0  0  0  0  0  0  0
   -3.0992   -0.1647   -5.5376 C   0  0  0  0  0  0  0  0  0  0  0  0
   -2.1813   -2.1063   -5.3436 H   0  0  0  0  0  0  0  0  0  0  0  0
   -0.0078   -1.2096   -4.5636 H   0  0  0  0  0  0  0  0  0  0  0  0
   -1.5581    2.7947   -4.8295 H   0  0  0  0  0  0  0  0  0  0  0  0
   -3.7474    1.8930   -5.6045 H   0  0  0  0  0  0  0  0  0  0  0  0
    0.5526    1.4147   -4.1975 N   0  0  0  0  0  0  0  0  0  0  0  0
    1.6609    1.1308   -4.6985 N   0  0  0  0  0  0  0  0  0  0  0  0
    1.8424    0.1369   -6.4903 S   0  0  0  0  0  0  0  0  0  0  0  0
    3.5627    0.8266   -6.9525 C   0  0  0  0  0  0  0  0  0  0  0  0
    0.9139    0.6903   -7.4753 O   0  0  0  0  0  0  0  0  0  0  0  0
    2.7870    1.4189   -4.2641 O   0  0  0  0  0  0  0  0  0  0  0  0
    2.0143   -1.2989   -6.2596 O   0  0  0  0  0  0  0  0  0  0  0  0
    3.7453    0.4661   -8.2249 F   0  0  0  0  0  0  0  0  0  0  0  0
    3.5589    2.1496   -6.8625 F   0  0  0  0  0  0  0  0  0  0  0  0
    4.5105    0.2953   -6.2005 F   0  0  0  0  0  0  0  0  0  0  0  0
   -4.0550   -0.5603   -5.8669 H   0  0  0  0  0  0  0  0  0  0  0  0
  1  2  2  0  0  0  0
  2  3  1  0  0  0  0
  2  8  1  0  0  0  0
  3 11  1  0  0  0  0
  4  9  1  0  0  0  0
  4  3  2  0  0  0  0
  5  4  1  0  0  0  0
  6  5  2  0  0  0  0
  6  1  1  0  0  0  0
  7  1  1  0  0  0  0
 10  5  1  0  0  0  0
 12 16  1  0  0  0  0
 12 11  1  0  0  0  0
 13 17  2  0  0  0  0
 13 12  1  0  0  0  0
 14 19  1  0  0  0  0
 14 13  1  0  0  0  0
 14 20  1  0  0  0  0
 15 13  2  0  0  0  0
 18 14  1  0  0  0  0
 21  6  1  0  0  0  0
M  RAD  2  11   2  16   2
M  END
