Coordinates from ORCA-job Ph-N2-X-OTf-B3LYPG-6-31G_dp-scan-d09-49-n400
 OpenBabel08281821163D

 21 19  0  0  0  0  0  0  0  0999 V2000
   -1.3312   -0.8411   -4.5853 C   0  0  0  0  0  0  0  0  0  0  0  0
   -0.4642    0.1851   -4.9507 C   0  0  0  0  0  0  0  0  0  0  0  0
   -1.0370    1.4151   -5.3036 C   0  0  0  0  0  0  0  0  0  0  0  0
   -2.4189    1.6501   -5.2736 C   0  0  0  0  0  0  0  0  0  0  0  0
   -3.2597    0.6006   -4.9241 C   0  0  0  0  0  0  0  0  0  0  0  0
   -2.7150   -0.6421   -4.5797 C   0  0  0  0  0  0  0  0  0  0  0  0
   -0.9104   -1.8012   -4.3057 H   0  0  0  0  0  0  0  0  0  0  0  0
    0.6128    0.0226   -4.9286 H   0  0  0  0  0  0  0  0  0  0  0  0
   -2.8052    2.6284   -5.5373 H   0  0  0  0  0  0  0  0  0  0  0  0
   -4.3342    0.7515   -4.9105 H   0  0  0  0  0  0  0  0  0  0  0  0
   -0.2208    2.5048   -5.6637 N   0  0  0  0  0  0  0  0  0  0  0  0
    0.8039    2.8307   -6.0920 N   0  0  0  0  0  0  0  0  0  0  0  0
    2.0925    1.1993   -7.2554 S   0  0  0  0  0  0  0  0  0  0  0  0
    3.5542    0.1709   -6.5230 C   0  0  0  0  0  0  0  0  0  0  0  0
    2.8632    2.0808   -8.1609 O   0  0  0  0  0  0  0  0  0  0  0  0
    2.4667   -0.7774   -4.4245 O   0  0  0  0  0  0  0  0  0  0  0  0
    1.2035    0.1474   -7.8097 O   0  0  0  0  0  0  0  0  0  0  0  0
    4.3318   -0.3097   -7.4713 F   0  0  0  0  0  0  0  0  0  0  0  0
    4.2561    0.8060   -5.6176 F   0  0  0  0  0  0  0  0  0  0  0  0
    3.0480   -1.0580   -5.8837 F   0  0  0  0  0  0  0  0  0  0  0  0
   -3.3743   -1.4571   -4.2966 H   0  0  0  0  0  0  0  0  0  0  0  0
  1  6  1  0  0  0  0
  1  7  1  0  0  0  0
  2  8  1  0  0  0  0
  2  1  2  0  0  0  0
  3  4  2  0  0  0  0
  3  2  1  0  0  0  0
  4  5  1  0  0  0  0
  5 10  1  0  0  0  0
  5  6  2  0  0  0  0
  6 21  1  0  0  0  0
  9  4  1  0  0  0  0
 11  3  1  0  0  0  0
 12 11  2  0  0  0  0
 13 14  1  0  0  0  0
 14 20  1  0  0  0  0
 14 19  1  0  0  0  0
 15 13  1  0  0  0  0
 17 13  1  0  0  0  0
 18 14  1  0  0  0  0
M  RAD  4  12   2  15   2  16   3  17   2
M  END
