Coordinates from ORCA-job Ph-N2-X-OTf-B3LYPG-6-31G_dp-scan-d09-49-n400
 OpenBabel08281821163D

 21 21  0  0  0  0  0  0  0  0999 V2000
   -2.0277   -1.0378   -5.2322 C   0  0  0  0  0  0  0  0  0  0  0  0
   -0.8057   -0.5365   -4.7832 C   0  0  0  0  0  0  0  0  0  0  0  0
   -0.6295    0.8515   -4.6793 C   0  0  0  0  0  0  0  0  0  0  0  0
   -1.6861    1.7259   -4.9701 C   0  0  0  0  0  0  0  0  0  0  0  0
   -2.8980    1.2114   -5.4187 C   0  0  0  0  0  0  0  0  0  0  0  0
   -3.0709   -0.1700   -5.5549 C   0  0  0  0  0  0  0  0  0  0  0  0
   -2.1622   -2.1115   -5.3210 H   0  0  0  0  0  0  0  0  0  0  0  0
   -0.0041   -1.2103   -4.5012 H   0  0  0  0  0  0  0  0  0  0  0  0
   -1.5365    2.7937   -4.8507 H   0  0  0  0  0  0  0  0  0  0  0  0
   -3.7113    1.8885   -5.6608 H   0  0  0  0  0  0  0  0  0  0  0  0
    0.5558    1.4108   -4.1500 N   0  0  0  0  0  0  0  0  0  0  0  0
    1.6715    1.1431   -4.6541 N   0  0  0  0  0  0  0  0  0  0  0  0
    1.8045    0.1508   -6.5050 S   0  0  0  0  0  0  0  0  0  0  0  0
    3.5328    0.8206   -6.9644 C   0  0  0  0  0  0  0  0  0  0  0  0
    0.8862    0.7357   -7.4844 O   0  0  0  0  0  0  0  0  0  0  0  0
    2.7591    1.4086   -4.2486 O   0  0  0  0  0  0  0  0  0  0  0  0
    1.9629   -1.2948   -6.3143 O   0  0  0  0  0  0  0  0  0  0  0  0
    3.7229    0.4809   -8.2403 F   0  0  0  0  0  0  0  0  0  0  0  0
    3.5457    2.1438   -6.8501 F   0  0  0  0  0  0  0  0  0  0  0  0
    4.4722    0.2693   -6.2124 F   0  0  0  0  0  0  0  0  0  0  0  0
   -4.0200   -0.5667   -5.9016 H   0  0  0  0  0  0  0  0  0  0  0  0
  1  2  2  0  0  0  0
  2  3  1  0  0  0  0
  2  8  1  0  0  0  0
  3 11  1  0  0  0  0
  4  9  1  0  0  0  0
  4  3  2  0  0  0  0
  5  4  1  0  0  0  0
  6  5  2  0  0  0  0
  6  1  1  0  0  0  0
  7  1  1  0  0  0  0
 10  5  1  0  0  0  0
 12 16  1  0  0  0  0
 12 11  1  0  0  0  0
 13 17  2  0  0  0  0
 13 12  1  0  0  0  0
 14 19  1  0  0  0  0
 14 13  1  0  0  0  0
 14 20  1  0  0  0  0
 15 13  2  0  0  0  0
 18 14  1  0  0  0  0
 21  6  1  0  0  0  0
M  RAD  2  11   2  16   2
M  END
