Coordinates from ORCA-job Ph-N2-X-OTf-B3LYPG-6-31G_dp-scan-d09-49-n400
 OpenBabel08281821163D

 21 20  0  0  0  0  0  0  0  0999 V2000
   -2.2017   -0.9842   -5.4866 C   0  0  0  0  0  0  0  0  0  0  0  0
   -0.9217   -0.4917   -5.2530 C   0  0  0  0  0  0  0  0  0  0  0  0
   -0.7707    0.8647   -4.9155 C   0  0  0  0  0  0  0  0  0  0  0  0
   -1.8904    1.7009   -4.7699 C   0  0  0  0  0  0  0  0  0  0  0  0
   -3.1586    1.1997   -5.0404 C   0  0  0  0  0  0  0  0  0  0  0  0
   -3.3148   -0.1425   -5.3986 C   0  0  0  0  0  0  0  0  0  0  0  0
   -2.3302   -2.0324   -5.7366 H   0  0  0  0  0  0  0  0  0  0  0  0
   -0.0690   -1.1593   -5.2832 H   0  0  0  0  0  0  0  0  0  0  0  0
   -1.7375    2.7302   -4.4650 H   0  0  0  0  0  0  0  0  0  0  0  0
   -4.0247    1.8475   -4.9542 H   0  0  0  0  0  0  0  0  0  0  0  0
    0.4582    1.4774   -4.5935 N   0  0  0  0  0  0  0  0  0  0  0  0
    1.5682    1.2251   -5.0116 N   0  0  0  0  0  0  0  0  0  0  0  0
    2.0906    0.0419   -6.3762 S   0  0  0  0  0  0  0  0  0  0  0  0
    3.7957    0.7472   -6.8660 C   0  0  0  0  0  0  0  0  0  0  0  0
    1.2036    0.2693   -7.5142 O   0  0  0  0  0  0  0  0  0  0  0  0
    3.1852    2.0496   -4.3482 O   0  0  0  0  0  0  0  0  0  0  0  0
    2.3001   -1.2791   -5.7877 O   0  0  0  0  0  0  0  0  0  0  0  0
    4.0435    0.1013   -8.0161 F   0  0  0  0  0  0  0  0  0  0  0  0
    3.7206    2.0409   -7.1002 F   0  0  0  0  0  0  0  0  0  0  0  0
    4.7221    0.4394   -5.9883 F   0  0  0  0  0  0  0  0  0  0  0  0
   -4.3068   -0.5389   -5.5921 H   0  0  0  0  0  0  0  0  0  0  0  0
  1  6  2  0  0  0  0
  1  2  1  0  0  0  0
  2  3  2  0  0  0  0
  3  4  1  0  0  0  0
  3 11  1  0  0  0  0
  4  9  1  0  0  0  0
  5 10  1  0  0  0  0
  5  4  2  0  0  0  0
  6  5  1  0  0  0  0
  7  1  1  0  0  0  0
  8  2  1  0  0  0  0
 12 11  2  0  0  0  0
 13 17  2  0  0  0  0
 13 12  1  0  0  0  0
 14 13  1  0  0  0  0
 14 20  1  0  0  0  0
 15 13  2  0  0  0  0
 18 14  1  0  0  0  0
 19 14  1  0  0  0  0
 21  6  1  0  0  0  0
M  RAD  1  16   3
M  END
