Coordinates from ORCA-job Ph-N2-X-OTf-B3LYPG-6-31G_dp-scan-d09-49-n400
 OpenBabel08281821163D

 21 19  0  0  0  0  0  0  0  0999 V2000
   -1.4319   -0.9115   -4.6089 C   0  0  0  0  0  0  0  0  0  0  0  0
   -0.5071    0.0860   -4.9075 C   0  0  0  0  0  0  0  0  0  0  0  0
   -1.0168    1.3506   -5.2417 C   0  0  0  0  0  0  0  0  0  0  0  0
   -2.3889    1.6416   -5.2530 C   0  0  0  0  0  0  0  0  0  0  0  0
   -3.2855    0.6180   -4.9734 C   0  0  0  0  0  0  0  0  0  0  0  0
   -2.8058   -0.6562   -4.6507 C   0  0  0  0  0  0  0  0  0  0  0  0
   -1.0687   -1.8992   -4.3448 H   0  0  0  0  0  0  0  0  0  0  0  0
    0.5637   -0.1100   -4.8556 H   0  0  0  0  0  0  0  0  0  0  0  0
   -2.7248    2.6437   -5.4952 H   0  0  0  0  0  0  0  0  0  0  0  0
   -4.3525    0.8140   -4.9965 H   0  0  0  0  0  0  0  0  0  0  0  0
   -0.1543    2.4232   -5.5301 N   0  0  0  0  0  0  0  0  0  0  0  0
    0.8650    2.7858   -5.9359 N   0  0  0  0  0  0  0  0  0  0  0  0
    2.1056    1.1973   -7.2154 S   0  0  0  0  0  0  0  0  0  0  0  0
    3.6245    0.1864   -6.6005 C   0  0  0  0  0  0  0  0  0  0  0  0
    2.7898    2.0499   -8.2161 O   0  0  0  0  0  0  0  0  0  0  0  0
    2.5875   -0.2833   -4.3815 O   0  0  0  0  0  0  0  0  0  0  0  0
    1.1790    0.1242   -7.6608 O   0  0  0  0  0  0  0  0  0  0  0  0
    4.2127   -0.4690   -7.5805 F   0  0  0  0  0  0  0  0  0  0  0  0
    4.4972    0.8792   -5.9117 F   0  0  0  0  0  0  0  0  0  0  0  0
    3.1808   -0.9115   -5.7157 F   0  0  0  0  0  0  0  0  0  0  0  0
   -3.5077   -1.4523   -4.4217 H   0  0  0  0  0  0  0  0  0  0  0  0
  1  7  1  0  0  0  0
  2  8  1  0  0  0  0
  2  1  2  0  0  0  0
  3  2  1  0  0  0  0
  4  3  2  0  0  0  0
  4  5  1  0  0  0  0
  5  6  2  0  0  0  0
  6  1  1  0  0  0  0
  6 21  1  0  0  0  0
  9  4  1  0  0  0  0
 10  5  1  0  0  0  0
 11  3  1  0  0  0  0
 12 11  2  0  0  0  0
 13 14  1  0  0  0  0
 14 19  1  0  0  0  0
 14 20  1  0  0  0  0
 15 13  1  0  0  0  0
 17 13  1  0  0  0  0
 18 14  1  0  0  0  0
M  RAD  4  12   2  15   2  16   3  17   2
M  END
