Coordinates from ORCA-job Ph-N2-X-OTf-B3LYPG-6-31G_dp-scan-d09-49-n400
 OpenBabel08281821163D

 21 20  0  0  0  0  0  0  0  0999 V2000
   -1.9779   -1.0477   -5.1991 C   0  0  0  0  0  0  0  0  0  0  0  0
   -0.7831   -0.5449   -4.6841 C   0  0  0  0  0  0  0  0  0  0  0  0
   -0.5971    0.8435   -4.6022 C   0  0  0  0  0  0  0  0  0  0  0  0
   -1.6239    1.7189   -4.9856 C   0  0  0  0  0  0  0  0  0  0  0  0
   -2.8141    1.2048   -5.4885 C   0  0  0  0  0  0  0  0  0  0  0  0
   -2.9917   -0.1783   -5.6015 C   0  0  0  0  0  0  0  0  0  0  0  0
   -2.1146   -2.1218   -5.2788 H   0  0  0  0  0  0  0  0  0  0  0  0
   -0.0005   -1.2166   -4.3489 H   0  0  0  0  0  0  0  0  0  0  0  0
   -1.4683    2.7884   -4.8904 H   0  0  0  0  0  0  0  0  0  0  0  0
   -3.6041    1.8823   -5.7972 H   0  0  0  0  0  0  0  0  0  0  0  0
    0.5581    1.3971   -4.0123 N   0  0  0  0  0  0  0  0  0  0  0  0
    1.7061    1.1902   -4.5252 N   0  0  0  0  0  0  0  0  0  0  0  0
    1.7011    0.1746   -6.5470 S   0  0  0  0  0  0  0  0  0  0  0  0
    3.4429    0.8031   -7.0003 C   0  0  0  0  0  0  0  0  0  0  0  0
    0.8169    0.8128   -7.5361 O   0  0  0  0  0  0  0  0  0  0  0  0
    2.6667    1.4026   -4.2189 O   0  0  0  0  0  0  0  0  0  0  0  0
    1.8401   -1.2905   -6.4484 O   0  0  0  0  0  0  0  0  0  0  0  0
    3.6805    0.5142   -8.2772 F   0  0  0  0  0  0  0  0  0  0  0  0
    3.4848    2.1287   -6.8276 F   0  0  0  0  0  0  0  0  0  0  0  0
    4.3615    0.2206   -6.2307 F   0  0  0  0  0  0  0  0  0  0  0  0
   -3.9215   -0.5751   -5.9973 H   0  0  0  0  0  0  0  0  0  0  0  0
  1  2  2  0  0  0  0
  2  3  1  0  0  0  0
  2  8  1  0  0  0  0
  3 11  1  0  0  0  0
  4  9  1  0  0  0  0
  4  3  2  0  0  0  0
  5  4  1  0  0  0  0
  6  5  2  0  0  0  0
  6  1  1  0  0  0  0
  7  1  1  0  0  0  0
 10  5  1  0  0  0  0
 12 16  2  0  0  0  0
 12 11  1  0  0  0  0
 13 17  1  0  0  0  0
 14 19  1  0  0  0  0
 14 13  1  0  0  0  0
 14 20  1  0  0  0  0
 15 13  1  0  0  0  0
 18 14  1  0  0  0  0
 21  6  1  0  0  0  0
M  RAD  3  11   2  15   2  17   2
M  END
