Coordinates from ORCA-job Ph-N2-X-OTf-B3LYPG-6-31G_dp-scan-d09-49-n400
 OpenBabel08281821163D

 21 20  0  0  0  0  0  0  0  0999 V2000
   -2.2035   -0.9942   -5.4848 C   0  0  0  0  0  0  0  0  0  0  0  0
   -0.9215   -0.5036   -5.2566 C   0  0  0  0  0  0  0  0  0  0  0  0
   -0.7704    0.8519   -4.9180 C   0  0  0  0  0  0  0  0  0  0  0  0
   -1.8867    1.6900   -4.7651 C   0  0  0  0  0  0  0  0  0  0  0  0
   -3.1565    1.1909   -5.0326 C   0  0  0  0  0  0  0  0  0  0  0  0
   -3.3149   -0.1509   -5.3912 C   0  0  0  0  0  0  0  0  0  0  0  0
   -2.3345   -2.0417   -5.7358 H   0  0  0  0  0  0  0  0  0  0  0  0
   -0.0686   -1.1705   -5.2952 H   0  0  0  0  0  0  0  0  0  0  0  0
   -1.7311    2.7183   -4.4581 H   0  0  0  0  0  0  0  0  0  0  0  0
   -4.0218    1.8394   -4.9426 H   0  0  0  0  0  0  0  0  0  0  0  0
    0.4642    1.4626   -4.6028 N   0  0  0  0  0  0  0  0  0  0  0  0
    1.5773    1.2451   -5.0135 N   0  0  0  0  0  0  0  0  0  0  0  0
    2.0519    0.0391   -6.4298 S   0  0  0  0  0  0  0  0  0  0  0  0
    3.7820    0.7113   -6.8564 C   0  0  0  0  0  0  0  0  0  0  0  0
    1.1917    0.3185   -7.5796 O   0  0  0  0  0  0  0  0  0  0  0  0
    3.3160    2.2787   -4.2757 O   0  0  0  0  0  0  0  0  0  0  0  0
    2.2260   -1.3075   -5.8809 O   0  0  0  0  0  0  0  0  0  0  0  0
    4.0947    0.0625   -7.9865 F   0  0  0  0  0  0  0  0  0  0  0  0
    3.7253    2.0068   -7.0928 F   0  0  0  0  0  0  0  0  0  0  0  0
    4.6506    0.4060   -5.9181 F   0  0  0  0  0  0  0  0  0  0  0  0
   -4.3081   -0.5460   -5.5812 H   0  0  0  0  0  0  0  0  0  0  0  0
  1  6  2  0  0  0  0
  1  2  1  0  0  0  0
  2  3  2  0  0  0  0
  3  4  1  0  0  0  0
  3 11  1  0  0  0  0
  4  9  1  0  0  0  0
  5 10  1  0  0  0  0
  5  4  2  0  0  0  0
  6  5  1  0  0  0  0
  7  1  1  0  0  0  0
  8  2  1  0  0  0  0
 12 11  2  0  0  0  0
 13 17  2  0  0  0  0
 13 12  1  0  0  0  0
 14 13  1  0  0  0  0
 14 20  1  0  0  0  0
 15 13  2  0  0  0  0
 18 14  1  0  0  0  0
 19 14  1  0  0  0  0
 21  6  1  0  0  0  0
M  RAD  1  16   3
M  END
