Coordinates from ORCA-job Ph-N2-X-OTf-B3LYPG-6-31G_dp-scan-d09-49-n400
 OpenBabel08281821163D

 21 21  0  0  0  0  0  0  0  0999 V2000
   -2.1571   -0.9880   -5.4222 C   0  0  0  0  0  0  0  0  0  0  0  0
   -0.8863   -0.4947   -5.1400 C   0  0  0  0  0  0  0  0  0  0  0  0
   -0.7324    0.8744   -4.8622 C   0  0  0  0  0  0  0  0  0  0  0  0
   -1.8494    1.7248   -4.8206 C   0  0  0  0  0  0  0  0  0  0  0  0
   -3.1079    1.2204   -5.1297 C   0  0  0  0  0  0  0  0  0  0  0  0
   -3.2641   -0.1354   -5.4322 C   0  0  0  0  0  0  0  0  0  0  0  0
   -2.2820   -2.0459   -5.6303 H   0  0  0  0  0  0  0  0  0  0  0  0
   -0.0392   -1.1694   -5.0915 H   0  0  0  0  0  0  0  0  0  0  0  0
   -1.7042    2.7677   -4.5614 H   0  0  0  0  0  0  0  0  0  0  0  0
   -3.9692    1.8807   -5.1201 H   0  0  0  0  0  0  0  0  0  0  0  0
    0.4884    1.4720   -4.4900 N   0  0  0  0  0  0  0  0  0  0  0  0
    1.5885    1.1608   -4.9411 N   0  0  0  0  0  0  0  0  0  0  0  0
    2.0654    0.0481   -6.3851 S   0  0  0  0  0  0  0  0  0  0  0  0
    3.7487    0.7943   -6.8894 C   0  0  0  0  0  0  0  0  0  0  0  0
    1.1390    0.3344   -7.4738 O   0  0  0  0  0  0  0  0  0  0  0  0
    2.9399    1.7186   -4.3921 O   0  0  0  0  0  0  0  0  0  0  0  0
    2.3012   -1.2954   -5.8688 O   0  0  0  0  0  0  0  0  0  0  0  0
    3.9637    0.2206   -8.0822 F   0  0  0  0  0  0  0  0  0  0  0  0
    3.6582    2.1007   -7.0431 F   0  0  0  0  0  0  0  0  0  0  0  0
    4.7097    0.4489   -6.0626 F   0  0  0  0  0  0  0  0  0  0  0  0
   -4.2494   -0.5308   -5.6586 H   0  0  0  0  0  0  0  0  0  0  0  0
  1  2  1  0  0  0  0
  2  8  1  0  0  0  0
  2  3  2  0  0  0  0
  3  4  1  0  0  0  0
  3 11  1  0  0  0  0
  4  9  1  0  0  0  0
  5 10  1  0  0  0  0
  5  4  2  0  0  0  0
  6  1  2  0  0  0  0
  6  5  1  0  0  0  0
  7  1  1  0  0  0  0
 12 11  1  0  0  0  0
 12 16  1  0  0  0  0
 13 17  2  0  0  0  0
 13 12  1  0  0  0  0
 14 13  1  0  0  0  0
 14 20  1  0  0  0  0
 15 13  2  0  0  0  0
 18 14  1  0  0  0  0
 19 14  1  0  0  0  0
 21  6  1  0  0  0  0
M  RAD  2  11   2  16   2
M  END
