Coordinates from ORCA-job Ph-N2-X-OTf-B3LYPG-6-31G_dp-scan-d09-49-n400
 OpenBabel08281821163D

 21 20  0  0  0  0  0  0  0  0999 V2000
   -2.2116   -0.9986   -5.4892 C   0  0  0  0  0  0  0  0  0  0  0  0
   -0.9263   -0.5143   -5.2639 C   0  0  0  0  0  0  0  0  0  0  0  0
   -0.7709    0.8377   -4.9153 C   0  0  0  0  0  0  0  0  0  0  0  0
   -1.8821    1.6790   -4.7490 C   0  0  0  0  0  0  0  0  0  0  0  0
   -3.1551    1.1857   -5.0126 C   0  0  0  0  0  0  0  0  0  0  0  0
   -3.3195   -0.1526   -5.3814 C   0  0  0  0  0  0  0  0  0  0  0  0
   -2.3474   -2.0433   -5.7492 H   0  0  0  0  0  0  0  0  0  0  0  0
   -0.0749   -1.1822   -5.3161 H   0  0  0  0  0  0  0  0  0  0  0  0
   -1.7212    2.7045   -4.4354 H   0  0  0  0  0  0  0  0  0  0  0  0
   -4.0178    1.8361   -4.9126 H   0  0  0  0  0  0  0  0  0  0  0  0
    0.4715    1.4394   -4.6082 N   0  0  0  0  0  0  0  0  0  0  0  0
    1.5842    1.2409   -5.0154 N   0  0  0  0  0  0  0  0  0  0  0  0
    2.0246    0.0213   -6.4909 S   0  0  0  0  0  0  0  0  0  0  0  0
    3.7723    0.6782   -6.8393 C   0  0  0  0  0  0  0  0  0  0  0  0
    1.1953    0.3519   -7.6528 O   0  0  0  0  0  0  0  0  0  0  0  0
    3.4137    2.5265   -4.2490 O   0  0  0  0  0  0  0  0  0  0  0  0
    2.1731   -1.3518   -5.9942 O   0  0  0  0  0  0  0  0  0  0  0  0
    4.1780    0.0137   -7.9272 F   0  0  0  0  0  0  0  0  0  0  0  0
    3.7206    1.9711   -7.0998 F   0  0  0  0  0  0  0  0  0  0  0  0
    4.5701    0.4066   -5.8267 F   0  0  0  0  0  0  0  0  0  0  0  0
   -4.3151   -0.5430   -5.5689 H   0  0  0  0  0  0  0  0  0  0  0  0
  1  6  2  0  0  0  0
  1  2  1  0  0  0  0
  2  3  2  0  0  0  0
  3  4  1  0  0  0  0
  3 11  1  0  0  0  0
  4  9  1  0  0  0  0
  5 10  1  0  0  0  0
  5  4  2  0  0  0  0
  6  5  1  0  0  0  0
  7  1  1  0  0  0  0
  8  2  1  0  0  0  0
 12 11  2  0  0  0  0
 13 17  2  0  0  0  0
 13 12  1  0  0  0  0
 14 13  1  0  0  0  0
 14 20  1  0  0  0  0
 15 13  2  0  0  0  0
 18 14  1  0  0  0  0
 19 14  1  0  0  0  0
 21  6  1  0  0  0  0
M  RAD  1  16   3
M  END
