Coordinates from ORCA-job Ph-N2-X-OTf-B3LYPG-6-31G_dp-scan-d09-49-n400
 OpenBabel08281821163D

 21 19  0  0  0  0  0  0  0  0999 V2000
   -1.2706   -0.8102   -4.5509 C   0  0  0  0  0  0  0  0  0  0  0  0
   -0.4272    0.2359   -4.9147 C   0  0  0  0  0  0  0  0  0  0  0  0
   -1.0265    1.4415   -5.3029 C   0  0  0  0  0  0  0  0  0  0  0  0
   -2.4143    1.6375   -5.3068 C   0  0  0  0  0  0  0  0  0  0  0  0
   -3.2314    0.5690   -4.9577 C   0  0  0  0  0  0  0  0  0  0  0  0
   -2.6591   -0.6517   -4.5799 C   0  0  0  0  0  0  0  0  0  0  0  0
   -0.8251   -1.7515   -4.2466 H   0  0  0  0  0  0  0  0  0  0  0  0
    0.6524    0.1025   -4.8615 H   0  0  0  0  0  0  0  0  0  0  0  0
   -2.8232    2.5991   -5.5968 H   0  0  0  0  0  0  0  0  0  0  0  0
   -4.3099    0.6881   -4.9711 H   0  0  0  0  0  0  0  0  0  0  0  0
   -0.2272    2.5437   -5.6650 N   0  0  0  0  0  0  0  0  0  0  0  0
    0.7978    2.8685   -6.0941 N   0  0  0  0  0  0  0  0  0  0  0  0
    2.0763    1.2337   -7.2579 S   0  0  0  0  0  0  0  0  0  0  0  0
    3.4853    0.1357   -6.5223 C   0  0  0  0  0  0  0  0  0  0  0  0
    2.8954    2.1128   -8.1219 O   0  0  0  0  0  0  0  0  0  0  0  0
    2.4388   -0.8858   -4.4126 O   0  0  0  0  0  0  0  0  0  0  0  0
    1.1613    0.2308   -7.8575 O   0  0  0  0  0  0  0  0  0  0  0  0
    4.2647   -0.3500   -7.4662 F   0  0  0  0  0  0  0  0  0  0  0  0
    4.1883    0.7257   -5.5889 F   0  0  0  0  0  0  0  0  0  0  0  0
    2.9172   -1.0880   -5.9244 F   0  0  0  0  0  0  0  0  0  0  0  0
   -3.3012   -1.4805   -4.2974 H   0  0  0  0  0  0  0  0  0  0  0  0
  1  7  1  0  0  0  0
  2  8  1  0  0  0  0
  2  1  2  0  0  0  0
  3  2  1  0  0  0  0
  4  3  2  0  0  0  0
  4  5  1  0  0  0  0
  5  6  2  0  0  0  0
  6  1  1  0  0  0  0
  6 21  1  0  0  0  0
  9  4  1  0  0  0  0
 10  5  1  0  0  0  0
 11  3  1  0  0  0  0
 12 11  2  0  0  0  0
 13 14  1  0  0  0  0
 14 20  1  0  0  0  0
 14 19  1  0  0  0  0
 15 13  1  0  0  0  0
 17 13  1  0  0  0  0
 18 14  1  0  0  0  0
M  RAD  4  12   2  15   2  16   3  17   2
M  END
