Coordinates from ORCA-job Ph-N2-X-OTf-B3LYPG-6-31G_dp-scan-d09-49-n400
 OpenBabel08281821163D

 21 20  0  0  0  0  0  0  0  0999 V2000
   -2.2209   -0.9993   -5.5004 C   0  0  0  0  0  0  0  0  0  0  0  0
   -0.9341   -0.5168   -5.2783 C   0  0  0  0  0  0  0  0  0  0  0  0
   -0.7799    0.8301   -4.9120 C   0  0  0  0  0  0  0  0  0  0  0  0
   -1.8887    1.6691   -4.7255 C   0  0  0  0  0  0  0  0  0  0  0  0
   -3.1633    1.1767   -4.9833 C   0  0  0  0  0  0  0  0  0  0  0  0
   -3.3288   -0.1567   -5.3694 C   0  0  0  0  0  0  0  0  0  0  0  0
   -2.3574   -2.0398   -5.7760 H   0  0  0  0  0  0  0  0  0  0  0  0
   -0.0811   -1.1811   -5.3506 H   0  0  0  0  0  0  0  0  0  0  0  0
   -1.7263    2.6911   -4.4016 H   0  0  0  0  0  0  0  0  0  0  0  0
   -4.0260    1.8242   -4.8670 H   0  0  0  0  0  0  0  0  0  0  0  0
    0.4710    1.4215   -4.6157 N   0  0  0  0  0  0  0  0  0  0  0  0
    1.5812    1.2351   -5.0196 N   0  0  0  0  0  0  0  0  0  0  0  0
    1.9996   -0.0078   -6.5563 S   0  0  0  0  0  0  0  0  0  0  0  0
    3.7625    0.6423   -6.8135 C   0  0  0  0  0  0  0  0  0  0  0  0
    1.2138    0.3656   -7.7390 O   0  0  0  0  0  0  0  0  0  0  0  0
    3.5734    2.7949   -4.2510 O   0  0  0  0  0  0  0  0  0  0  0  0
    2.1277   -1.4043   -6.1111 O   0  0  0  0  0  0  0  0  0  0  0  0
    4.2691   -0.0344   -7.8472 F   0  0  0  0  0  0  0  0  0  0  0  0
    3.7171    1.9328   -7.0985 F   0  0  0  0  0  0  0  0  0  0  0  0
    4.4783    0.4094   -5.7276 F   0  0  0  0  0  0  0  0  0  0  0  0
   -4.3255   -0.5457   -5.5538 H   0  0  0  0  0  0  0  0  0  0  0  0
  1  6  2  0  0  0  0
  1  2  1  0  0  0  0
  2  3  2  0  0  0  0
  3  4  1  0  0  0  0
  3 11  1  0  0  0  0
  4  9  1  0  0  0  0
  5 10  1  0  0  0  0
  5  4  2  0  0  0  0
  6  5  1  0  0  0  0
  7  1  1  0  0  0  0
  8  2  1  0  0  0  0
 12 11  2  0  0  0  0
 13 17  2  0  0  0  0
 13 12  1  0  0  0  0
 14 13  1  0  0  0  0
 14 20  1  0  0  0  0
 15 13  2  0  0  0  0
 18 14  1  0  0  0  0
 19 14  1  0  0  0  0
 21  6  1  0  0  0  0
M  RAD  1  16   3
M  END
