Coordinates from ORCA-job Ph-N2-X-OTf-B3LYPG-6-31G_dp-scan-d09-49-n400
 OpenBabel08281821163D

 21 19  0  0  0  0  0  0  0  0999 V2000
   -1.2773   -0.8135   -4.5503 C   0  0  0  0  0  0  0  0  0  0  0  0
   -0.4300    0.2313   -4.9086 C   0  0  0  0  0  0  0  0  0  0  0  0
   -1.0254    1.4387   -5.2978 C   0  0  0  0  0  0  0  0  0  0  0  0
   -2.4127    1.6376   -5.3077 C   0  0  0  0  0  0  0  0  0  0  0  0
   -3.2335    0.5700   -4.9644 C   0  0  0  0  0  0  0  0  0  0  0  0
   -2.6654   -0.6523   -4.5858 C   0  0  0  0  0  0  0  0  0  0  0  0
   -0.8359   -1.7564   -4.2449 H   0  0  0  0  0  0  0  0  0  0  0  0
    0.6496    0.0977   -4.8511 H   0  0  0  0  0  0  0  0  0  0  0  0
   -2.8184    2.6005   -5.5976 H   0  0  0  0  0  0  0  0  0  0  0  0
   -4.3117    0.6911   -4.9829 H   0  0  0  0  0  0  0  0  0  0  0  0
   -0.2224    2.5408   -5.6531 N   0  0  0  0  0  0  0  0  0  0  0  0
    0.8039    2.8639   -6.0804 N   0  0  0  0  0  0  0  0  0  0  0  0
    2.0737    1.2305   -7.2533 S   0  0  0  0  0  0  0  0  0  0  0  0
    3.4909    0.1359   -6.5295 C   0  0  0  0  0  0  0  0  0  0  0  0
    2.8839    2.1118   -8.1233 O   0  0  0  0  0  0  0  0  0  0  0  0
    2.4512   -0.8557   -4.4070 O   0  0  0  0  0  0  0  0  0  0  0  0
    1.1574    0.2247   -7.8461 O   0  0  0  0  0  0  0  0  0  0  0  0
    4.2557   -0.3582   -7.4810 F   0  0  0  0  0  0  0  0  0  0  0  0
    4.2083    0.7312   -5.6106 F   0  0  0  0  0  0  0  0  0  0  0  0
    2.9305   -1.0826   -5.9143 F   0  0  0  0  0  0  0  0  0  0  0  0
   -3.3105   -1.4802   -4.3076 H   0  0  0  0  0  0  0  0  0  0  0  0
  1  7  1  0  0  0  0
  2  8  1  0  0  0  0
  2  1  2  0  0  0  0
  3  2  1  0  0  0  0
  4  3  2  0  0  0  0
  4  5  1  0  0  0  0
  5  6  2  0  0  0  0
  6  1  1  0  0  0  0
  6 21  1  0  0  0  0
  9  4  1  0  0  0  0
 10  5  1  0  0  0  0
 11  3  1  0  0  0  0
 12 11  2  0  0  0  0
 13 14  1  0  0  0  0
 14 20  1  0  0  0  0
 14 19  1  0  0  0  0
 15 13  1  0  0  0  0
 17 13  1  0  0  0  0
 18 14  1  0  0  0  0
M  RAD  4  12   2  15   2  16   3  17   2
M  END
