Coordinates from ORCA-job Ph-N2-X-OTf-B3LYPG-6-31G_dp-scan-d09-49-n400
 OpenBabel08281821163D

 21 21  0  0  0  0  0  0  0  0999 V2000
   -2.1119   -1.0072   -5.3385 C   0  0  0  0  0  0  0  0  0  0  0  0
   -0.8539   -0.5143   -4.9982 C   0  0  0  0  0  0  0  0  0  0  0  0
   -0.6906    0.8665   -4.8013 C   0  0  0  0  0  0  0  0  0  0  0  0
   -1.7890    1.7343   -4.8935 C   0  0  0  0  0  0  0  0  0  0  0  0
   -3.0343    1.2284   -5.2518 C   0  0  0  0  0  0  0  0  0  0  0  0
   -3.1986   -0.1417   -5.4769 C   0  0  0  0  0  0  0  0  0  0  0  0
   -2.2415   -2.0746   -5.4889 H   0  0  0  0  0  0  0  0  0  0  0  0
   -0.0210   -1.1935   -4.8528 H   0  0  0  0  0  0  0  0  0  0  0  0
   -1.6432    2.7909   -4.6964 H   0  0  0  0  0  0  0  0  0  0  0  0
   -3.8806    1.9018   -5.3447 H   0  0  0  0  0  0  0  0  0  0  0  0
    0.5239    1.4435   -4.3698 N   0  0  0  0  0  0  0  0  0  0  0  0
    1.6220    1.1232   -4.8429 N   0  0  0  0  0  0  0  0  0  0  0  0
    1.9833    0.0702   -6.4243 S   0  0  0  0  0  0  0  0  0  0  0  0
    3.6666    0.8258   -6.9165 C   0  0  0  0  0  0  0  0  0  0  0  0
    1.0346    0.4610   -7.4604 O   0  0  0  0  0  0  0  0  0  0  0  0
    2.8705    1.5337   -4.3286 O   0  0  0  0  0  0  0  0  0  0  0  0
    2.2156   -1.3134   -6.0228 O   0  0  0  0  0  0  0  0  0  0  0  0
    3.8503    0.3652   -8.1598 F   0  0  0  0  0  0  0  0  0  0  0  0
    3.5931    2.1445   -6.9426 F   0  0  0  0  0  0  0  0  0  0  0  0
    4.6407    0.3974   -6.1421 F   0  0  0  0  0  0  0  0  0  0  0  0
   -4.1744   -0.5348   -5.7443 H   0  0  0  0  0  0  0  0  0  0  0  0
  1  2  1  0  0  0  0
  2  8  1  0  0  0  0
  2  3  2  0  0  0  0
  3 11  1  0  0  0  0
  4  3  1  0  0  0  0
  4  9  1  0  0  0  0
  5  4  2  0  0  0  0
  6  1  2  0  0  0  0
  6  5  1  0  0  0  0
  7  1  1  0  0  0  0
 10  5  1  0  0  0  0
 12 11  1  0  0  0  0
 12 16  1  0  0  0  0
 13 17  2  0  0  0  0
 13 12  1  0  0  0  0
 14 13  1  0  0  0  0
 14 20  1  0  0  0  0
 15 13  2  0  0  0  0
 18 14  1  0  0  0  0
 19 14  1  0  0  0  0
 21  6  1  0  0  0  0
M  RAD  2  11   2  16   2
M  END
