Coordinates from ORCA-job Ph-N2-X-OTf-B3LYPG-6-31G_dp-scan-d09-49-n400
 OpenBabel08281821163D

 21 21  0  0  0  0  0  0  0  0999 V2000
   -2.0628   -1.0277   -5.2647 C   0  0  0  0  0  0  0  0  0  0  0  0
   -0.8245   -0.5304   -4.8595 C   0  0  0  0  0  0  0  0  0  0  0  0
   -0.6523    0.8562   -4.7291 C   0  0  0  0  0  0  0  0  0  0  0  0
   -1.7257    1.7307   -4.9497 C   0  0  0  0  0  0  0  0  0  0  0  0
   -2.9521    1.2197   -5.3618 C   0  0  0  0  0  0  0  0  0  0  0  0
   -3.1233   -0.1589   -5.5236 C   0  0  0  0  0  0  0  0  0  0  0  0
   -2.1967   -2.1001   -5.3696 H   0  0  0  0  0  0  0  0  0  0  0  0
   -0.0107   -1.2073   -4.6235 H   0  0  0  0  0  0  0  0  0  0  0  0
   -1.5774    2.7958   -4.8066 H   0  0  0  0  0  0  0  0  0  0  0  0
   -3.7788    1.8973   -5.5516 H   0  0  0  0  0  0  0  0  0  0  0  0
    0.5480    1.4200   -4.2381 N   0  0  0  0  0  0  0  0  0  0  0  0
    1.6525    1.1234   -4.7336 N   0  0  0  0  0  0  0  0  0  0  0  0
    1.8767    0.1198   -6.4745 S   0  0  0  0  0  0  0  0  0  0  0  0
    3.5869    0.8302   -6.9436 C   0  0  0  0  0  0  0  0  0  0  0  0
    0.9387    0.6366   -7.4681 O   0  0  0  0  0  0  0  0  0  0  0  0
    2.8083    1.4348   -4.2777 O   0  0  0  0  0  0  0  0  0  0  0  0
    2.0660   -1.3053   -6.2043 O   0  0  0  0  0  0  0  0  0  0  0  0
    3.7620    0.4561   -8.2140 F   0  0  0  0  0  0  0  0  0  0  0  0
    3.5662    2.1526   -6.8705 F   0  0  0  0  0  0  0  0  0  0  0  0
    4.5450    0.3167   -6.1952 F   0  0  0  0  0  0  0  0  0  0  0  0
   -4.0844   -0.5535   -5.8382 H   0  0  0  0  0  0  0  0  0  0  0  0
  1  2  2  0  0  0  0
  2  3  1  0  0  0  0
  2  8  1  0  0  0  0
  3 11  1  0  0  0  0
  4  9  1  0  0  0  0
  4  3  2  0  0  0  0
  5  4  1  0  0  0  0
  6  5  2  0  0  0  0
  6  1  1  0  0  0  0
  7  1  1  0  0  0  0
 10  5  1  0  0  0  0
 12 16  1  0  0  0  0
 12 11  1  0  0  0  0
 13 17  2  0  0  0  0
 13 12  1  0  0  0  0
 14 19  1  0  0  0  0
 14 13  1  0  0  0  0
 14 20  1  0  0  0  0
 15 13  2  0  0  0  0
 18 14  1  0  0  0  0
 21  6  1  0  0  0  0
M  RAD  2  11   2  16   2
M  END
