Coordinates from ORCA-job Ph-N2-X-OTf-B3LYPG-6-31G_dp-scan-d09-49-n400
 OpenBabel08281821163D

 21 20  0  0  0  0  0  0  0  0999 V2000
   -2.2233   -1.0029   -5.4953 C   0  0  0  0  0  0  0  0  0  0  0  0
   -0.9367   -0.5198   -5.2721 C   0  0  0  0  0  0  0  0  0  0  0  0
   -0.7839    0.8284   -4.9105 C   0  0  0  0  0  0  0  0  0  0  0  0
   -1.8923    1.6686   -4.7294 C   0  0  0  0  0  0  0  0  0  0  0  0
   -3.1663    1.1750   -4.9877 C   0  0  0  0  0  0  0  0  0  0  0  0
   -3.3313   -0.1598   -5.3692 C   0  0  0  0  0  0  0  0  0  0  0  0
   -2.3591   -2.0444   -5.7679 H   0  0  0  0  0  0  0  0  0  0  0  0
   -0.0832   -1.1839   -5.3411 H   0  0  0  0  0  0  0  0  0  0  0  0
   -1.7308    2.6920   -4.4093 H   0  0  0  0  0  0  0  0  0  0  0  0
   -4.0294    1.8229   -4.8758 H   0  0  0  0  0  0  0  0  0  0  0  0
    0.4687    1.4164   -4.6153 N   0  0  0  0  0  0  0  0  0  0  0  0
    1.5786    1.2346   -5.0160 N   0  0  0  0  0  0  0  0  0  0  0  0
    1.9896   -0.0168   -6.5725 S   0  0  0  0  0  0  0  0  0  0  0  0
    3.7515    0.6397   -6.8103 C   0  0  0  0  0  0  0  0  0  0  0  0
    1.2119    0.3639   -7.7595 O   0  0  0  0  0  0  0  0  0  0  0  0
    3.6712    2.8447   -4.2307 O   0  0  0  0  0  0  0  0  0  0  0  0
    2.1197   -1.4188   -6.1419 O   0  0  0  0  0  0  0  0  0  0  0  0
    4.2808   -0.0224   -7.8414 F   0  0  0  0  0  0  0  0  0  0  0  0
    3.7007    1.9337   -7.0829 F   0  0  0  0  0  0  0  0  0  0  0  0
    4.4530    0.4051   -5.7142 F   0  0  0  0  0  0  0  0  0  0  0  0
   -4.3276   -0.5494   -5.5542 H   0  0  0  0  0  0  0  0  0  0  0  0
  1  6  2  0  0  0  0
  1  2  1  0  0  0  0
  2  3  2  0  0  0  0
  3  4  1  0  0  0  0
  3 11  1  0  0  0  0
  4  9  1  0  0  0  0
  5 10  1  0  0  0  0
  5  4  2  0  0  0  0
  6  5  1  0  0  0  0
  7  1  1  0  0  0  0
  8  2  1  0  0  0  0
 12 11  2  0  0  0  0
 13 17  2  0  0  0  0
 13 12  1  0  0  0  0
 14 13  1  0  0  0  0
 14 20  1  0  0  0  0
 15 13  2  0  0  0  0
 18 14  1  0  0  0  0
 19 14  1  0  0  0  0
 21  6  1  0  0  0  0
M  RAD  1  16   3
M  END
