Coordinates from ORCA-job Ph-N2-X-OTf-B3LYPG-6-31G_dp-scan-d09-49-n400
 OpenBabel08281821163D

 21 19  0  0  0  0  0  0  0  0999 V2000
   -1.2155   -0.7885   -4.5223 C   0  0  0  0  0  0  0  0  0  0  0  0
   -0.3888    0.2766   -4.8682 C   0  0  0  0  0  0  0  0  0  0  0  0
   -1.0044    1.4625   -5.2889 C   0  0  0  0  0  0  0  0  0  0  0  0
   -2.3952    1.6247   -5.3376 C   0  0  0  0  0  0  0  0  0  0  0  0
   -3.1952    0.5375   -5.0061 C   0  0  0  0  0  0  0  0  0  0  0  0
   -2.6057   -0.6656   -4.5991 C   0  0  0  0  0  0  0  0  0  0  0  0
   -0.7541   -1.7144   -4.1952 H   0  0  0  0  0  0  0  0  0  0  0  0
    0.6909    0.1731   -4.7731 H   0  0  0  0  0  0  0  0  0  0  0  0
   -2.8190    2.5728   -5.6496 H   0  0  0  0  0  0  0  0  0  0  0  0
   -4.2754    0.6284   -5.0566 H   0  0  0  0  0  0  0  0  0  0  0  0
   -0.2135    2.5778   -5.6344 N   0  0  0  0  0  0  0  0  0  0  0  0
    0.8141    2.8922   -6.0677 N   0  0  0  0  0  0  0  0  0  0  0  0
    2.0452    1.2596   -7.2646 S   0  0  0  0  0  0  0  0  0  0  0  0
    3.4065    0.1044   -6.5318 C   0  0  0  0  0  0  0  0  0  0  0  0
    2.9000    2.1354   -8.0958 O   0  0  0  0  0  0  0  0  0  0  0  0
    2.4280   -0.9271   -4.3739 O   0  0  0  0  0  0  0  0  0  0  0  0
    1.1065    0.3013   -7.8978 O   0  0  0  0  0  0  0  0  0  0  0  0
    4.1635   -0.4187   -7.4733 F   0  0  0  0  0  0  0  0  0  0  0  0
    4.1324    0.6695   -5.6016 F   0  0  0  0  0  0  0  0  0  0  0  0
    2.7775   -1.0870   -5.9292 F   0  0  0  0  0  0  0  0  0  0  0  0
   -3.2363   -1.5076   -4.3303 H   0  0  0  0  0  0  0  0  0  0  0  0
  1  7  1  0  0  0  0
  2  8  1  0  0  0  0
  2  1  2  0  0  0  0
  3  2  1  0  0  0  0
  4  3  2  0  0  0  0
  4  5  1  0  0  0  0
  5  6  2  0  0  0  0
  6  1  1  0  0  0  0
  6 21  1  0  0  0  0
  9  4  1  0  0  0  0
 10  5  1  0  0  0  0
 11  3  1  0  0  0  0
 12 11  2  0  0  0  0
 13 14  1  0  0  0  0
 14 20  1  0  0  0  0
 14 19  1  0  0  0  0
 15 13  1  0  0  0  0
 17 13  1  0  0  0  0
 18 14  1  0  0  0  0
M  RAD  4  12   2  15   2  16   3  17   2
M  END
