Coordinates from ORCA-job Ph-N2-X-OTf-B3LYPG-6-31G_dp-scan-d09-49-n400
 OpenBabel08281821163D

 21 19  0  0  0  0  0  0  0  0999 V2000
   -1.2107   -0.7847   -4.5206 C   0  0  0  0  0  0  0  0  0  0  0  0
   -0.3868    0.2807   -4.8726 C   0  0  0  0  0  0  0  0  0  0  0  0
   -1.0058    1.4641   -5.2942 C   0  0  0  0  0  0  0  0  0  0  0  0
   -2.3971    1.6236   -5.3383 C   0  0  0  0  0  0  0  0  0  0  0  0
   -3.1945    0.5364   -5.0003 C   0  0  0  0  0  0  0  0  0  0  0  0
   -2.6015   -0.6645   -4.5921 C   0  0  0  0  0  0  0  0  0  0  0  0
   -0.7461   -1.7088   -4.1932 H   0  0  0  0  0  0  0  0  0  0  0  0
    0.6927    0.1751   -4.7807 H   0  0  0  0  0  0  0  0  0  0  0  0
   -2.8235    2.5701   -5.6515 H   0  0  0  0  0  0  0  0  0  0  0  0
   -4.2750    0.6258   -5.0469 H   0  0  0  0  0  0  0  0  0  0  0  0
   -0.2197    2.5801   -5.6471 N   0  0  0  0  0  0  0  0  0  0  0  0
    0.8068    2.8972   -6.0809 N   0  0  0  0  0  0  0  0  0  0  0  0
    2.0492    1.2640   -7.2665 S   0  0  0  0  0  0  0  0  0  0  0  0
    3.4031    0.1041   -6.5263 C   0  0  0  0  0  0  0  0  0  0  0  0
    2.9118    2.1400   -8.0893 O   0  0  0  0  0  0  0  0  0  0  0  0
    2.4182   -0.9563   -4.3823 O   0  0  0  0  0  0  0  0  0  0  0  0
    1.1135    0.3087   -7.9087 O   0  0  0  0  0  0  0  0  0  0  0  0
    4.1703   -0.4111   -7.4639 F   0  0  0  0  0  0  0  0  0  0  0  0
    4.1184    0.6618   -5.5837 F   0  0  0  0  0  0  0  0  0  0  0  0
    2.7678   -1.0926   -5.9398 F   0  0  0  0  0  0  0  0  0  0  0  0
   -3.2294   -1.5069   -4.3185 H   0  0  0  0  0  0  0  0  0  0  0  0
  1  7  1  0  0  0  0
  2  8  1  0  0  0  0
  2  1  2  0  0  0  0
  3  2  1  0  0  0  0
  4  3  2  0  0  0  0
  4  5  1  0  0  0  0
  5  6  2  0  0  0  0
  6  1  1  0  0  0  0
  6 21  1  0  0  0  0
  9  4  1  0  0  0  0
 10  5  1  0  0  0  0
 11  3  1  0  0  0  0
 12 11  2  0  0  0  0
 13 14  1  0  0  0  0
 14 20  1  0  0  0  0
 14 19  1  0  0  0  0
 15 13  1  0  0  0  0
 17 13  1  0  0  0  0
 18 14  1  0  0  0  0
M  RAD  4  12   2  15   2  16   3  17   2
M  END
