Coordinates from ORCA-job Ph-N2-X-OTf-B3LYPG-6-31G_dp-scan-d09-49-n400
 OpenBabel08281821163D

 21 19  0  0  0  0  0  0  0  0999 V2000
   -1.2758   -0.8125   -4.5503 C   0  0  0  0  0  0  0  0  0  0  0  0
   -0.4294    0.2324   -4.9105 C   0  0  0  0  0  0  0  0  0  0  0  0
   -1.0258    1.4393   -5.2995 C   0  0  0  0  0  0  0  0  0  0  0  0
   -2.4133    1.6375   -5.3075 C   0  0  0  0  0  0  0  0  0  0  0  0
   -3.2332    0.5699   -4.9622 C   0  0  0  0  0  0  0  0  0  0  0  0
   -2.6641   -0.6520   -4.5837 C   0  0  0  0  0  0  0  0  0  0  0  0
   -0.8334   -1.7550   -4.2451 H   0  0  0  0  0  0  0  0  0  0  0  0
    0.6501    0.0980   -4.8543 H   0  0  0  0  0  0  0  0  0  0  0  0
   -2.8198    2.6000   -5.5976 H   0  0  0  0  0  0  0  0  0  0  0  0
   -4.3115    0.6906   -4.9790 H   0  0  0  0  0  0  0  0  0  0  0  0
   -0.2242    2.5414   -5.6573 N   0  0  0  0  0  0  0  0  0  0  0  0
    0.8016    2.8655   -6.0850 N   0  0  0  0  0  0  0  0  0  0  0  0
    2.0749    1.2317   -7.2544 S   0  0  0  0  0  0  0  0  0  0  0  0
    3.4898    0.1361   -6.5274 C   0  0  0  0  0  0  0  0  0  0  0  0
    2.8876    2.1125   -8.1227 O   0  0  0  0  0  0  0  0  0  0  0  0
    2.4483   -0.8651   -4.4090 O   0  0  0  0  0  0  0  0  0  0  0  0
    1.1592    0.2266   -7.8493 O   0  0  0  0  0  0  0  0  0  0  0  0
    4.2588   -0.3552   -7.4770 F   0  0  0  0  0  0  0  0  0  0  0  0
    4.2031    0.7295   -5.6040 F   0  0  0  0  0  0  0  0  0  0  0  0
    2.9272   -1.0843   -5.9176 F   0  0  0  0  0  0  0  0  0  0  0  0
   -3.3083   -1.4800   -4.3039 H   0  0  0  0  0  0  0  0  0  0  0  0
  1  7  1  0  0  0  0
  2  8  1  0  0  0  0
  2  1  2  0  0  0  0
  3  2  1  0  0  0  0
  4  3  2  0  0  0  0
  4  5  1  0  0  0  0
  5  6  2  0  0  0  0
  6  1  1  0  0  0  0
  6 21  1  0  0  0  0
  9  4  1  0  0  0  0
 10  5  1  0  0  0  0
 11  3  1  0  0  0  0
 12 11  2  0  0  0  0
 13 14  1  0  0  0  0
 14 20  1  0  0  0  0
 14 19  1  0  0  0  0
 15 13  1  0  0  0  0
 17 13  1  0  0  0  0
 18 14  1  0  0  0  0
M  RAD  4  12   2  15   2  16   3  17   2
M  END
