Coordinates from ORCA-job Ph-N2-X-OTf-B3LYPG-6-31G_dp-scan-d09-49-n400
 OpenBabel08281821163D

 21 20  0  0  0  0  0  0  0  0999 V2000
   -1.9636   -1.0601   -5.1768 C   0  0  0  0  0  0  0  0  0  0  0  0
   -0.7804   -0.5617   -4.6326 C   0  0  0  0  0  0  0  0  0  0  0  0
   -0.5818    0.8256   -4.5605 C   0  0  0  0  0  0  0  0  0  0  0  0
   -1.5871    1.7054   -4.9899 C   0  0  0  0  0  0  0  0  0  0  0  0
   -2.7690    1.1976   -5.5180 C   0  0  0  0  0  0  0  0  0  0  0  0
   -2.9570   -0.1851   -5.6174 C   0  0  0  0  0  0  0  0  0  0  0  0
   -2.1076   -2.1335   -5.2513 H   0  0  0  0  0  0  0  0  0  0  0  0
   -0.0104   -1.2356   -4.2734 H   0  0  0  0  0  0  0  0  0  0  0  0
   -1.4219    2.7745   -4.9068 H   0  0  0  0  0  0  0  0  0  0  0  0
   -3.5425    1.8784   -5.8594 H   0  0  0  0  0  0  0  0  0  0  0  0
    0.5582    1.3713   -3.9362 N   0  0  0  0  0  0  0  0  0  0  0  0
    1.7228    1.2318   -4.4809 N   0  0  0  0  0  0  0  0  0  0  0  0
    1.6459    0.2074   -6.5825 S   0  0  0  0  0  0  0  0  0  0  0  0
    3.4064    0.7926   -7.0131 C   0  0  0  0  0  0  0  0  0  0  0  0
    0.7952    0.8783   -7.5850 O   0  0  0  0  0  0  0  0  0  0  0  0
    2.6165    1.4389   -4.2338 O   0  0  0  0  0  0  0  0  0  0  0  0
    1.7568   -1.2664   -6.5264 O   0  0  0  0  0  0  0  0  0  0  0  0
    3.6892    0.5113   -8.2809 F   0  0  0  0  0  0  0  0  0  0  0  0
    3.4757    2.1205   -6.8247 F   0  0  0  0  0  0  0  0  0  0  0  0
    4.2950    0.1937   -6.2120 F   0  0  0  0  0  0  0  0  0  0  0  0
   -3.8788   -0.5780   -6.0356 H   0  0  0  0  0  0  0  0  0  0  0  0
  1  2  2  0  0  0  0
  2  3  1  0  0  0  0
  2  8  1  0  0  0  0
  3 11  1  0  0  0  0
  4  9  1  0  0  0  0
  4  3  2  0  0  0  0
  5  4  1  0  0  0  0
  6  5  2  0  0  0  0
  6  1  1  0  0  0  0
  7  1  1  0  0  0  0
 10  5  1  0  0  0  0
 12 16  2  0  0  0  0
 12 11  1  0  0  0  0
 13 17  1  0  0  0  0
 14 19  1  0  0  0  0
 14 13  1  0  0  0  0
 14 20  1  0  0  0  0
 15 13  1  0  0  0  0
 18 14  1  0  0  0  0
 21  6  1  0  0  0  0
M  RAD  3  11   2  15   2  17   2
M  END
