Coordinates from ORCA-job Ph-N2-X-OTf-B3LYPG-6-31G_dp-scan-d09-49-n400
 OpenBabel08281821163D

 21 21  0  0  0  0  0  0  0  0999 V2000
   -2.0003   -1.0430   -5.2148 C   0  0  0  0  0  0  0  0  0  0  0  0
   -0.7922   -0.5396   -4.7317 C   0  0  0  0  0  0  0  0  0  0  0  0
   -0.6128    0.8489   -4.6401 C   0  0  0  0  0  0  0  0  0  0  0  0
   -1.6559    1.7228   -4.9788 C   0  0  0  0  0  0  0  0  0  0  0  0
   -2.8562    1.2071   -5.4554 C   0  0  0  0  0  0  0  0  0  0  0  0
   -3.0299   -0.1756   -5.5792 C   0  0  0  0  0  0  0  0  0  0  0  0
   -2.1346   -2.1172   -5.2982 H   0  0  0  0  0  0  0  0  0  0  0  0
    0.0004   -1.2114   -4.4213 H   0  0  0  0  0  0  0  0  0  0  0  0
   -1.5048    2.7919   -4.8722 H   0  0  0  0  0  0  0  0  0  0  0  0
   -3.6589    1.8836   -5.7322 H   0  0  0  0  0  0  0  0  0  0  0  0
    0.5577    1.4060   -4.0806 N   0  0  0  0  0  0  0  0  0  0  0  0
    1.6882    1.1665   -4.5874 N   0  0  0  0  0  0  0  0  0  0  0  0
    1.7508    0.1655   -6.5264 S   0  0  0  0  0  0  0  0  0  0  0  0
    3.4878    0.8102   -6.9826 C   0  0  0  0  0  0  0  0  0  0  0  0
    0.8502    0.7842   -7.5070 O   0  0  0  0  0  0  0  0  0  0  0  0
    2.7129    1.4019   -4.2299 O   0  0  0  0  0  0  0  0  0  0  0  0
    1.8955   -1.2915   -6.3869 O   0  0  0  0  0  0  0  0  0  0  0  0
    3.6988    0.4958   -8.2599 F   0  0  0  0  0  0  0  0  0  0  0  0
    3.5189    2.1345   -6.8386 F   0  0  0  0  0  0  0  0  0  0  0  0
    4.4152    0.2397   -6.2229 F   0  0  0  0  0  0  0  0  0  0  0  0
   -3.9690   -0.5734   -5.9512 H   0  0  0  0  0  0  0  0  0  0  0  0
  1  2  2  0  0  0  0
  2  3  1  0  0  0  0
  2  8  1  0  0  0  0
  3 11  1  0  0  0  0
  4  9  1  0  0  0  0
  4  3  2  0  0  0  0
  5  4  1  0  0  0  0
  6  5  2  0  0  0  0
  6  1  1  0  0  0  0
  7  1  1  0  0  0  0
 10  5  1  0  0  0  0
 12 16  1  0  0  0  0
 12 11  1  0  0  0  0
 13 17  2  0  0  0  0
 13 12  1  0  0  0  0
 14 19  1  0  0  0  0
 14 13  1  0  0  0  0
 14 20  1  0  0  0  0
 15 13  2  0  0  0  0
 18 14  1  0  0  0  0
 21  6  1  0  0  0  0
M  RAD  2  11   2  16   2
M  END
