Coordinates from ORCA-job Ph-N2-X-OTf-B3LYPG-6-31G_dp-scan-d09-49-n400
 OpenBabel08281821163D

 21 19  0  0  0  0  0  0  0  0999 V2000
   -1.0611   -0.7483   -4.4798 C   0  0  0  0  0  0  0  0  0  0  0  0
   -0.2747    0.3506   -4.8134 C   0  0  0  0  0  0  0  0  0  0  0  0
   -0.9207    1.5012   -5.2790 C   0  0  0  0  0  0  0  0  0  0  0  0
   -2.3142    1.6043   -5.3697 C   0  0  0  0  0  0  0  0  0  0  0  0
   -3.0760    0.4866   -5.0471 C   0  0  0  0  0  0  0  0  0  0  0  0
   -2.4511   -0.6863   -4.6048 C   0  0  0  0  0  0  0  0  0  0  0  0
   -0.5611   -1.6452   -4.1302 H   0  0  0  0  0  0  0  0  0  0  0  0
    0.7987    0.2973   -4.6649 H   0  0  0  0  0  0  0  0  0  0  0  0
   -2.7694    2.5274   -5.7108 H   0  0  0  0  0  0  0  0  0  0  0  0
   -4.1568    0.5303   -5.1345 H   0  0  0  0  0  0  0  0  0  0  0  0
   -0.1515    2.6368   -5.6178 N   0  0  0  0  0  0  0  0  0  0  0  0
    0.8621    2.9152   -6.1170 N   0  0  0  0  0  0  0  0  0  0  0  0
    1.9656    1.3043   -7.3953 S   0  0  0  0  0  0  0  0  0  0  0  0
    3.1526    0.1029   -6.4690 C   0  0  0  0  0  0  0  0  0  0  0  0
    2.9392    2.1380   -8.1280 O   0  0  0  0  0  0  0  0  0  0  0  0
    2.2971   -1.2778   -4.4086 O   0  0  0  0  0  0  0  0  0  0  0  0
    1.0354    0.4091   -8.1196 O   0  0  0  0  0  0  0  0  0  0  0  0
    4.0755   -0.4317   -7.2366 F   0  0  0  0  0  0  0  0  0  0  0  0
    3.6803    0.6703   -5.4131 F   0  0  0  0  0  0  0  0  0  0  0  0
    2.3467   -1.0277   -6.0125 F   0  0  0  0  0  0  0  0  0  0  0  0
   -3.0549   -1.5505   -4.3455 H   0  0  0  0  0  0  0  0  0  0  0  0
  1  7  1  0  0  0  0
  2  8  1  0  0  0  0
  2  1  2  0  0  0  0
  3  2  1  0  0  0  0
  4  3  2  0  0  0  0
  4  5  1  0  0  0  0
  5  6  2  0  0  0  0
  6  1  1  0  0  0  0
  6 21  1  0  0  0  0
  9  4  1  0  0  0  0
 10  5  1  0  0  0  0
 11  3  1  0  0  0  0
 12 11  2  0  0  0  0
 13 14  1  0  0  0  0
 14 20  1  0  0  0  0
 14 19  1  0  0  0  0
 15 13  1  0  0  0  0
 17 13  1  0  0  0  0
 18 14  1  0  0  0  0
M  RAD  4  12   2  15   2  16   3  17   2
M  END
