Coordinates from ORCA-job Ph-N2-X-OTf-B3LYPG-6-31G_dp-scan-d09-49-n400
 OpenBabel08281821163D

 21 19  0  0  0  0  0  0  0  0999 V2000
   -1.4657   -0.9417   -4.6427 C   0  0  0  0  0  0  0  0  0  0  0  0
   -0.5197    0.0432   -4.9136 C   0  0  0  0  0  0  0  0  0  0  0  0
   -0.9985    1.3270   -5.2163 C   0  0  0  0  0  0  0  0  0  0  0  0
   -2.3628    1.6503   -5.2226 C   0  0  0  0  0  0  0  0  0  0  0  0
   -3.2826    0.6388   -4.9741 C   0  0  0  0  0  0  0  0  0  0  0  0
   -2.8332   -0.6540   -4.6829 C   0  0  0  0  0  0  0  0  0  0  0  0
   -1.1266   -1.9439   -4.4020 H   0  0  0  0  0  0  0  0  0  0  0  0
    0.5492   -0.1584   -4.8644 H   0  0  0  0  0  0  0  0  0  0  0  0
   -2.6759    2.6659   -5.4375 H   0  0  0  0  0  0  0  0  0  0  0  0
   -4.3449    0.8589   -4.9955 H   0  0  0  0  0  0  0  0  0  0  0  0
   -0.1035    2.3856   -5.4633 N   0  0  0  0  0  0  0  0  0  0  0  0
    0.9252    2.7140   -5.8801 N   0  0  0  0  0  0  0  0  0  0  0  0
    2.0772    1.1473   -7.2367 S   0  0  0  0  0  0  0  0  0  0  0  0
    3.6360    0.2149   -6.6068 C   0  0  0  0  0  0  0  0  0  0  0  0
    2.7152    2.0064   -8.2614 O   0  0  0  0  0  0  0  0  0  0  0  0
    2.5750   -0.0885   -4.3911 O   0  0  0  0  0  0  0  0  0  0  0  0
    1.1913    0.0291   -7.6504 O   0  0  0  0  0  0  0  0  0  0  0  0
    4.2136   -0.4948   -7.5545 F   0  0  0  0  0  0  0  0  0  0  0  0
    4.5104    0.9699   -5.9893 F   0  0  0  0  0  0  0  0  0  0  0  0
    3.2361   -0.8239   -5.6357 F   0  0  0  0  0  0  0  0  0  0  0  0
   -3.5542   -1.4392   -4.4765 H   0  0  0  0  0  0  0  0  0  0  0  0
  1  7  1  0  0  0  0
  2  8  1  0  0  0  0
  2  1  2  0  0  0  0
  3  2  1  0  0  0  0
  4  3  2  0  0  0  0
  4  5  1  0  0  0  0
  5  6  2  0  0  0  0
  6  1  1  0  0  0  0
  6 21  1  0  0  0  0
  9  4  1  0  0  0  0
 10  5  1  0  0  0  0
 11  3  1  0  0  0  0
 12 11  2  0  0  0  0
 13 14  1  0  0  0  0
 14 19  1  0  0  0  0
 14 20  1  0  0  0  0
 15 13  1  0  0  0  0
 17 13  1  0  0  0  0
 18 14  1  0  0  0  0
M  RAD  4  12   2  15   2  16   3  17   2
M  END
