Coordinates from ORCA-job Ph-N2-X-OTf-B3LYPG-6-31G_dp-scan-d09-49-n400
 OpenBabel08281821163D

 21 20  0  0  0  0  0  0  0  0999 V2000
   -2.2331   -1.0168   -5.4888 C   0  0  0  0  0  0  0  0  0  0  0  0
   -0.9508   -0.5258   -5.2566 C   0  0  0  0  0  0  0  0  0  0  0  0
   -0.8097    0.8252   -4.9029 C   0  0  0  0  0  0  0  0  0  0  0  0
   -1.9216    1.6627   -4.7379 C   0  0  0  0  0  0  0  0  0  0  0  0
   -3.1908    1.1599   -5.0032 C   0  0  0  0  0  0  0  0  0  0  0  0
   -3.3460   -0.1785   -5.3768 C   0  0  0  0  0  0  0  0  0  0  0  0
   -2.3610   -2.0603   -5.7571 H   0  0  0  0  0  0  0  0  0  0  0  0
   -0.0918   -1.1840   -5.3169 H   0  0  0  0  0  0  0  0  0  0  0  0
   -1.7688    2.6897   -4.4254 H   0  0  0  0  0  0  0  0  0  0  0  0
   -4.0581    1.8043   -4.9042 H   0  0  0  0  0  0  0  0  0  0  0  0
    0.4458    1.4078   -4.6043 N   0  0  0  0  0  0  0  0  0  0  0  0
    1.5551    1.2349   -4.9990 N   0  0  0  0  0  0  0  0  0  0  0  0
    1.9532   -0.0332   -6.6059 S   0  0  0  0  0  0  0  0  0  0  0  0
    3.7144    0.6419   -6.7823 C   0  0  0  0  0  0  0  0  0  0  0  0
    1.2089    0.3673   -7.8110 O   0  0  0  0  0  0  0  0  0  0  0  0
    4.1339    2.9705   -4.2572 O   0  0  0  0  0  0  0  0  0  0  0  0
    2.0900   -1.4491   -6.2149 O   0  0  0  0  0  0  0  0  0  0  0  0
    4.3010    0.0219   -7.8065 F   0  0  0  0  0  0  0  0  0  0  0  0
    3.6515    1.9459   -7.0171 F   0  0  0  0  0  0  0  0  0  0  0  0
    4.3783    0.3963   -5.6617 F   0  0  0  0  0  0  0  0  0  0  0  0
   -4.3388   -0.5739   -5.5676 H   0  0  0  0  0  0  0  0  0  0  0  0
  1  6  2  0  0  0  0
  1  2  1  0  0  0  0
  2  3  2  0  0  0  0
  3  4  1  0  0  0  0
  3 11  1  0  0  0  0
  4  9  1  0  0  0  0
  5 10  1  0  0  0  0
  5  4  2  0  0  0  0
  6  5  1  0  0  0  0
  7  1  1  0  0  0  0
  8  2  1  0  0  0  0
 12 11  2  0  0  0  0
 13 17  2  0  0  0  0
 13 12  1  0  0  0  0
 14 13  1  0  0  0  0
 14 20  1  0  0  0  0
 15 13  2  0  0  0  0
 18 14  1  0  0  0  0
 19 14  1  0  0  0  0
 21  6  1  0  0  0  0
M  RAD  1  16   3
M  END
