Coordinates from ORCA-job Ph-N2-X-OTf-B3LYPG-6-31G_dp-scan-d09-49-n400
 OpenBabel08281821163D

 21 19  0  0  0  0  0  0  0  0999 V2000
   -1.4454   -0.9224   -4.6282 C   0  0  0  0  0  0  0  0  0  0  0  0
   -0.5152    0.0704   -4.9248 C   0  0  0  0  0  0  0  0  0  0  0  0
   -1.0159    1.3427   -5.2403 C   0  0  0  0  0  0  0  0  0  0  0  0
   -2.3852    1.6465   -5.2358 C   0  0  0  0  0  0  0  0  0  0  0  0
   -3.2884    0.6279   -4.9591 C   0  0  0  0  0  0  0  0  0  0  0  0
   -2.8173   -0.6542   -4.6546 C   0  0  0  0  0  0  0  0  0  0  0  0
   -1.0890   -1.9162   -4.3778 H   0  0  0  0  0  0  0  0  0  0  0  0
    0.5549   -0.1290   -4.8853 H   0  0  0  0  0  0  0  0  0  0  0  0
   -2.7141    2.6543   -5.4637 H   0  0  0  0  0  0  0  0  0  0  0  0
   -4.3537    0.8336   -4.9700 H   0  0  0  0  0  0  0  0  0  0  0  0
   -0.1443    2.4096   -5.5233 N   0  0  0  0  0  0  0  0  0  0  0  0
    0.8778    2.7613   -5.9336 N   0  0  0  0  0  0  0  0  0  0  0  0
    2.1038    1.1780   -7.2248 S   0  0  0  0  0  0  0  0  0  0  0  0
    3.6356    0.1978   -6.5956 C   0  0  0  0  0  0  0  0  0  0  0  0
    2.7760    2.0332   -8.2311 O   0  0  0  0  0  0  0  0  0  0  0  0
    2.5755   -0.2243   -4.3858 O   0  0  0  0  0  0  0  0  0  0  0  0
    1.1956    0.0867   -7.6633 O   0  0  0  0  0  0  0  0  0  0  0  0
    4.2299   -0.4708   -7.5629 F   0  0  0  0  0  0  0  0  0  0  0  0
    4.5016    0.9134   -5.9218 F   0  0  0  0  0  0  0  0  0  0  0  0
    3.2039   -0.8852   -5.6878 F   0  0  0  0  0  0  0  0  0  0  0  0
   -3.5243   -1.4463   -4.4277 H   0  0  0  0  0  0  0  0  0  0  0  0
  1  7  1  0  0  0  0
  2  8  1  0  0  0  0
  2  1  2  0  0  0  0
  3  4  2  0  0  0  0
  3  2  1  0  0  0  0
  4  5  1  0  0  0  0
  5  6  2  0  0  0  0
  6  1  1  0  0  0  0
  6 21  1  0  0  0  0
  9  4  1  0  0  0  0
 10  5  1  0  0  0  0
 11  3  1  0  0  0  0
 12 11  2  0  0  0  0
 13 14  1  0  0  0  0
 14 19  1  0  0  0  0
 14 20  1  0  0  0  0
 15 13  1  0  0  0  0
 17 13  1  0  0  0  0
 18 14  1  0  0  0  0
M  RAD  4  12   2  15   2  16   3  17   2
M  END
