Coordinates from ORCA-job Ph-N2-X-OTf-B3LYPG-6-31G_dp-scan-d09-49-n400
 OpenBabel08281821163D

 21 21  0  0  0  0  0  0  0  0999 V2000
   -2.1759   -0.9817   -5.4537 C   0  0  0  0  0  0  0  0  0  0  0  0
   -0.9012   -0.4890   -5.1915 C   0  0  0  0  0  0  0  0  0  0  0  0
   -0.7484    0.8743   -4.8842 C   0  0  0  0  0  0  0  0  0  0  0  0
   -1.8683    1.7180   -4.7954 C   0  0  0  0  0  0  0  0  0  0  0  0
   -3.1311    1.2153   -5.0882 C   0  0  0  0  0  0  0  0  0  0  0  0
   -3.2868   -0.1341   -5.4186 C   0  0  0  0  0  0  0  0  0  0  0  0
   -2.3015   -2.0351   -5.6827 H   0  0  0  0  0  0  0  0  0  0  0  0
   -0.0513   -1.1615   -5.1777 H   0  0  0  0  0  0  0  0  0  0  0  0
   -1.7207    2.7549   -4.5142 H   0  0  0  0  0  0  0  0  0  0  0  0
   -3.9952    1.8703   -5.0431 H   0  0  0  0  0  0  0  0  0  0  0  0
    0.4748    1.4782   -4.5327 N   0  0  0  0  0  0  0  0  0  0  0  0
    1.5769    1.1773   -4.9723 N   0  0  0  0  0  0  0  0  0  0  0  0
    2.0906    0.0413   -6.3685 S   0  0  0  0  0  0  0  0  0  0  0  0
    3.7739    0.7822   -6.8814 C   0  0  0  0  0  0  0  0  0  0  0  0
    1.1730    0.2871   -7.4752 O   0  0  0  0  0  0  0  0  0  0  0  0
    2.9925    1.8079   -4.4004 O   0  0  0  0  0  0  0  0  0  0  0  0
    2.3281   -1.2859   -5.8119 O   0  0  0  0  0  0  0  0  0  0  0  0
    3.9963    0.1706   -8.0548 F   0  0  0  0  0  0  0  0  0  0  0  0
    3.6797    2.0816   -7.0789 F   0  0  0  0  0  0  0  0  0  0  0  0
    4.7315    0.4645   -6.0407 F   0  0  0  0  0  0  0  0  0  0  0  0
   -4.2752   -0.5296   -5.6313 H   0  0  0  0  0  0  0  0  0  0  0  0
  1  6  2  0  0  0  0
  1  2  1  0  0  0  0
  2  8  1  0  0  0  0
  2  3  2  0  0  0  0
  3  4  1  0  0  0  0
  3 11  1  0  0  0  0
  4  9  1  0  0  0  0
  5 10  1  0  0  0  0
  5  4  2  0  0  0  0
  6  5  1  0  0  0  0
  7  1  1  0  0  0  0
 12 11  1  0  0  0  0
 12 16  1  0  0  0  0
 13 17  2  0  0  0  0
 13 12  1  0  0  0  0
 14 13  1  0  0  0  0
 14 20  1  0  0  0  0
 15 13  2  0  0  0  0
 18 14  1  0  0  0  0
 19 14  1  0  0  0  0
 21  6  1  0  0  0  0
M  RAD  2  11   2  16   2
M  END
