Coordinates from ORCA-job Ph-N2-X-OTf-B3LYPG-6-31G_dp-scan-d09-49-n400
 OpenBabel08281821163D

 21 19  0  0  0  0  0  0  0  0999 V2000
   -1.0497   -0.7446   -4.4763 C   0  0  0  0  0  0  0  0  0  0  0  0
   -0.2658    0.3564   -4.8091 C   0  0  0  0  0  0  0  0  0  0  0  0
   -0.9137    1.5043   -5.2779 C   0  0  0  0  0  0  0  0  0  0  0  0
   -2.3072    1.6034   -5.3713 C   0  0  0  0  0  0  0  0  0  0  0  0
   -3.0666    0.4839   -5.0492 C   0  0  0  0  0  0  0  0  0  0  0  0
   -2.4395   -0.6868   -4.6045 C   0  0  0  0  0  0  0  0  0  0  0  0
   -0.5472   -1.6398   -4.1258 H   0  0  0  0  0  0  0  0  0  0  0  0
    0.8069    0.3065   -4.6579 H   0  0  0  0  0  0  0  0  0  0  0  0
   -2.7643    2.5248   -5.7147 H   0  0  0  0  0  0  0  0  0  0  0  0
   -4.1474    0.5246   -5.1390 H   0  0  0  0  0  0  0  0  0  0  0  0
   -0.1467    2.6415   -5.6180 N   0  0  0  0  0  0  0  0  0  0  0  0
    0.8644    2.9175   -6.1244 N   0  0  0  0  0  0  0  0  0  0  0  0
    1.9589    1.3060   -7.4056 S   0  0  0  0  0  0  0  0  0  0  0  0
    3.1322    0.1044   -6.4614 C   0  0  0  0  0  0  0  0  0  0  0  0
    2.9407    2.1348   -8.1324 O   0  0  0  0  0  0  0  0  0  0  0  0
    2.2895   -1.3151   -4.4218 O   0  0  0  0  0  0  0  0  0  0  0  0
    1.0309    0.4129   -8.1347 O   0  0  0  0  0  0  0  0  0  0  0  0
    4.0720   -0.4255   -7.2110 F   0  0  0  0  0  0  0  0  0  0  0  0
    3.6372    0.6741   -5.3949 F   0  0  0  0  0  0  0  0  0  0  0  0
    2.3187   -1.0239   -6.0215 F   0  0  0  0  0  0  0  0  0  0  0  0
   -3.0414   -1.5526   -4.3459 H   0  0  0  0  0  0  0  0  0  0  0  0
  1  7  1  0  0  0  0
  2  8  1  0  0  0  0
  2  1  2  0  0  0  0
  3  2  1  0  0  0  0
  4  3  2  0  0  0  0
  4  5  1  0  0  0  0
  5  6  2  0  0  0  0
  6  1  1  0  0  0  0
  6 21  1  0  0  0  0
  9  4  1  0  0  0  0
 10  5  1  0  0  0  0
 11  3  1  0  0  0  0
 12 11  2  0  0  0  0
 13 14  1  0  0  0  0
 14 20  1  0  0  0  0
 14 19  1  0  0  0  0
 15 13  1  0  0  0  0
 17 13  1  0  0  0  0
 18 14  1  0  0  0  0
M  RAD  4  12   2  15   2  16   3  17   2
M  END
