Coordinates from ORCA-job Ph-N2-X-OTf-B3LYPG-6-31G_dp-scan-d09-49-n400
 OpenBabel08281821163D

 21 20  0  0  0  0  0  0  0  0999 V2000
   -1.9620   -1.0604   -5.1741 C   0  0  0  0  0  0  0  0  0  0  0  0
   -0.7802   -0.5627   -4.6265 C   0  0  0  0  0  0  0  0  0  0  0  0
   -0.5797    0.8245   -4.5562 C   0  0  0  0  0  0  0  0  0  0  0  0
   -1.5820    1.7048   -4.9918 C   0  0  0  0  0  0  0  0  0  0  0  0
   -2.7629    1.1978   -5.5228 C   0  0  0  0  0  0  0  0  0  0  0  0
   -2.9527   -0.1849   -5.6199 C   0  0  0  0  0  0  0  0  0  0  0  0
   -2.1072   -2.1338   -5.2475 H   0  0  0  0  0  0  0  0  0  0  0  0
   -0.0122   -1.2370   -4.2637 H   0  0  0  0  0  0  0  0  0  0  0  0
   -1.4152    2.7739   -4.9111 H   0  0  0  0  0  0  0  0  0  0  0  0
   -3.5341    1.8790   -5.8686 H   0  0  0  0  0  0  0  0  0  0  0  0
    0.5581    1.3697   -3.9280 N   0  0  0  0  0  0  0  0  0  0  0  0
    1.7259    1.2323   -4.4745 N   0  0  0  0  0  0  0  0  0  0  0  0
    1.6402    0.2069   -6.5846 S   0  0  0  0  0  0  0  0  0  0  0  0
    3.4002    0.7937   -7.0152 C   0  0  0  0  0  0  0  0  0  0  0  0
    0.7901    0.8781   -7.5881 O   0  0  0  0  0  0  0  0  0  0  0  0
    2.6114    1.4361   -4.2330 O   0  0  0  0  0  0  0  0  0  0  0  0
    1.7533   -1.2673   -6.5322 O   0  0  0  0  0  0  0  0  0  0  0  0
    3.6860    0.5176   -8.2833 F   0  0  0  0  0  0  0  0  0  0  0  0
    3.4689    2.1217   -6.8215 F   0  0  0  0  0  0  0  0  0  0  0  0
    4.2893    0.1939   -6.2142 F   0  0  0  0  0  0  0  0  0  0  0  0
   -3.8734   -0.5772   -6.0407 H   0  0  0  0  0  0  0  0  0  0  0  0
  1  2  2  0  0  0  0
  2  3  1  0  0  0  0
  2  8  1  0  0  0  0
  3 11  1  0  0  0  0
  4  9  1  0  0  0  0
  4  3  2  0  0  0  0
  5  4  1  0  0  0  0
  6  5  2  0  0  0  0
  6  1  1  0  0  0  0
  7  1  1  0  0  0  0
 10  5  1  0  0  0  0
 12 16  2  0  0  0  0
 12 11  1  0  0  0  0
 13 17  1  0  0  0  0
 14 19  1  0  0  0  0
 14 13  1  0  0  0  0
 14 20  1  0  0  0  0
 15 13  1  0  0  0  0
 18 14  1  0  0  0  0
 21  6  1  0  0  0  0
M  RAD  3  11   2  15   2  17   2
M  END
