Coordinates from ORCA-job Ph-N2-X-OTf-B3LYPG-6-31G_dp-scan-d09-49-n400
 OpenBabel08281821163D

 21 21  0  0  0  0  0  0  0  0999 V2000
   -2.0976   -1.0132   -5.3151 C   0  0  0  0  0  0  0  0  0  0  0  0
   -0.8447   -0.5194   -4.9559 C   0  0  0  0  0  0  0  0  0  0  0  0
   -0.6787    0.8636   -4.7807 C   0  0  0  0  0  0  0  0  0  0  0  0
   -1.7702    1.7345   -4.9121 C   0  0  0  0  0  0  0  0  0  0  0  0
   -3.0104    1.2274   -5.2861 C   0  0  0  0  0  0  0  0  0  0  0  0
   -3.1770   -0.1458   -5.4906 C   0  0  0  0  0  0  0  0  0  0  0  0
   -2.2286   -2.0824   -5.4505 H   0  0  0  0  0  0  0  0  0  0  0  0
   -0.0170   -1.1984   -4.7825 H   0  0  0  0  0  0  0  0  0  0  0  0
   -1.6238    2.7941   -4.7321 H   0  0  0  0  0  0  0  0  0  0  0  0
   -3.8513    1.9028   -5.4087 H   0  0  0  0  0  0  0  0  0  0  0  0
    0.5326    1.4355   -4.3314 N   0  0  0  0  0  0  0  0  0  0  0  0
    1.6315    1.1192   -4.8115 N   0  0  0  0  0  0  0  0  0  0  0  0
    1.9533    0.0823   -6.4391 S   0  0  0  0  0  0  0  0  0  0  0  0
    3.6425    0.8300   -6.9243 C   0  0  0  0  0  0  0  0  0  0  0  0
    1.0045    0.5096   -7.4614 O   0  0  0  0  0  0  0  0  0  0  0  0
    2.8518    1.4953   -4.3122 O   0  0  0  0  0  0  0  0  0  0  0  0
    2.1764   -1.3141   -6.0757 O   0  0  0  0  0  0  0  0  0  0  0  0
    3.8221    0.3975   -8.1774 F   0  0  0  0  0  0  0  0  0  0  0  0
    3.5810    2.1505   -6.9186 F   0  0  0  0  0  0  0  0  0  0  0  0
    4.6143    0.3769   -6.1595 F   0  0  0  0  0  0  0  0  0  0  0  0
   -4.1490   -0.5390   -5.7717 H   0  0  0  0  0  0  0  0  0  0  0  0
  1  2  1  0  0  0  0
  2  8  1  0  0  0  0
  2  3  2  0  0  0  0
  3 11  1  0  0  0  0
  4  3  1  0  0  0  0
  4  9  1  0  0  0  0
  5  4  2  0  0  0  0
  6  1  2  0  0  0  0
  6  5  1  0  0  0  0
  7  1  1  0  0  0  0
 10  5  1  0  0  0  0
 12 11  1  0  0  0  0
 12 16  1  0  0  0  0
 13 17  2  0  0  0  0
 13 12  1  0  0  0  0
 14 19  1  0  0  0  0
 14 13  1  0  0  0  0
 14 20  1  0  0  0  0
 15 13  2  0  0  0  0
 18 14  1  0  0  0  0
 21  6  1  0  0  0  0
M  RAD  2  11   2  16   2
M  END
