Coordinates from ORCA-job Ph-N2-X-OTf-B3LYPG-6-31G_dp-scan-d09-49-n400
 OpenBabel08281821163D

 21 20  0  0  0  0  0  0  0  0999 V2000
   -2.2235   -1.0032   -5.4962 C   0  0  0  0  0  0  0  0  0  0  0  0
   -0.9377   -0.5183   -5.2724 C   0  0  0  0  0  0  0  0  0  0  0  0
   -0.7873    0.8296   -4.9095 C   0  0  0  0  0  0  0  0  0  0  0  0
   -1.8964    1.6684   -4.7280 C   0  0  0  0  0  0  0  0  0  0  0  0
   -3.1698    1.1729   -4.9865 C   0  0  0  0  0  0  0  0  0  0  0  0
   -3.3327   -0.1619   -5.3691 C   0  0  0  0  0  0  0  0  0  0  0  0
   -2.3578   -2.0445   -5.7701 H   0  0  0  0  0  0  0  0  0  0  0  0
   -0.0828   -1.1807   -5.3427 H   0  0  0  0  0  0  0  0  0  0  0  0
   -1.7365    2.6919   -4.4076 H   0  0  0  0  0  0  0  0  0  0  0  0
   -4.0337    1.8195   -4.8741 H   0  0  0  0  0  0  0  0  0  0  0  0
    0.4664    1.4170   -4.6148 N   0  0  0  0  0  0  0  0  0  0  0  0
    1.5756    1.2347   -5.0157 N   0  0  0  0  0  0  0  0  0  0  0  0
    1.9856   -0.0207   -6.5782 S   0  0  0  0  0  0  0  0  0  0  0  0
    3.7488    0.6368   -6.8075 C   0  0  0  0  0  0  0  0  0  0  0  0
    1.2140    0.3624   -7.7688 O   0  0  0  0  0  0  0  0  0  0  0  0
    3.7147    2.8688   -4.2280 O   0  0  0  0  0  0  0  0  0  0  0  0
    2.1153   -1.4244   -6.1516 O   0  0  0  0  0  0  0  0  0  0  0  0
    4.2849   -0.0235   -7.8358 F   0  0  0  0  0  0  0  0  0  0  0  0
    3.6980    1.9314   -7.0791 F   0  0  0  0  0  0  0  0  0  0  0  0
    4.4450    0.4032   -5.7073 F   0  0  0  0  0  0  0  0  0  0  0  0
   -4.3285   -0.5527   -5.5544 H   0  0  0  0  0  0  0  0  0  0  0  0
  1  6  2  0  0  0  0
  1  2  1  0  0  0  0
  2  3  2  0  0  0  0
  3  4  1  0  0  0  0
  3 11  1  0  0  0  0
  4  9  1  0  0  0  0
  5 10  1  0  0  0  0
  5  4  2  0  0  0  0
  6  5  1  0  0  0  0
  7  1  1  0  0  0  0
  8  2  1  0  0  0  0
 12 11  2  0  0  0  0
 13 17  2  0  0  0  0
 13 12  1  0  0  0  0
 14 13  1  0  0  0  0
 14 20  1  0  0  0  0
 15 13  2  0  0  0  0
 18 14  1  0  0  0  0
 19 14  1  0  0  0  0
 21  6  1  0  0  0  0
M  RAD  1  16   3
M  END
