Coordinates from ORCA-job Ph-N2-X-OTf-B3LYPG-6-31G_dp-scan-d09-49-n400
 OpenBabel08281821163D

 21 19  0  0  0  0  0  0  0  0999 V2000
   -1.4319   -0.9091   -4.6062 C   0  0  0  0  0  0  0  0  0  0  0  0
   -0.5074    0.0877   -4.9083 C   0  0  0  0  0  0  0  0  0  0  0  0
   -1.0181    1.3515   -5.2445 C   0  0  0  0  0  0  0  0  0  0  0  0
   -2.3906    1.6415   -5.2540 C   0  0  0  0  0  0  0  0  0  0  0  0
   -3.2867    0.6187   -4.9704 C   0  0  0  0  0  0  0  0  0  0  0  0
   -2.8060   -0.6547   -4.6460 C   0  0  0  0  0  0  0  0  0  0  0  0
   -1.0678   -1.8962   -4.3408 H   0  0  0  0  0  0  0  0  0  0  0  0
    0.5625   -0.1132   -4.8563 H   0  0  0  0  0  0  0  0  0  0  0  0
   -2.7270    2.6429   -5.4984 H   0  0  0  0  0  0  0  0  0  0  0  0
   -4.3537    0.8146   -4.9921 H   0  0  0  0  0  0  0  0  0  0  0  0
   -0.1595    2.4248   -5.5404 N   0  0  0  0  0  0  0  0  0  0  0  0
    0.8568    2.7922   -5.9489 N   0  0  0  0  0  0  0  0  0  0  0  0
    2.1086    1.2001   -7.2153 S   0  0  0  0  0  0  0  0  0  0  0  0
    3.6262    0.1883   -6.5981 C   0  0  0  0  0  0  0  0  0  0  0  0
    2.7947    2.0500   -8.2170 O   0  0  0  0  0  0  0  0  0  0  0  0
    2.5920   -0.3133   -4.3813 O   0  0  0  0  0  0  0  0  0  0  0  0
    1.1803    0.1278   -7.6594 O   0  0  0  0  0  0  0  0  0  0  0  0
    4.2239   -0.4548   -7.5806 F   0  0  0  0  0  0  0  0  0  0  0  0
    4.4915    0.8784   -5.8971 F   0  0  0  0  0  0  0  0  0  0  0  0
    3.1811   -0.9198   -5.7280 F   0  0  0  0  0  0  0  0  0  0  0  0
   -3.5071   -1.4507   -4.4142 H   0  0  0  0  0  0  0  0  0  0  0  0
  1  7  1  0  0  0  0
  2  8  1  0  0  0  0
  2  1  2  0  0  0  0
  3  2  1  0  0  0  0
  4  3  2  0  0  0  0
  4  5  1  0  0  0  0
  5  6  2  0  0  0  0
  6  1  1  0  0  0  0
  6 21  1  0  0  0  0
  9  4  1  0  0  0  0
 10  5  1  0  0  0  0
 11  3  1  0  0  0  0
 12 11  2  0  0  0  0
 13 14  1  0  0  0  0
 14 19  1  0  0  0  0
 14 20  1  0  0  0  0
 15 13  1  0  0  0  0
 17 13  1  0  0  0  0
 18 14  1  0  0  0  0
M  RAD  4  12   2  15   2  16   3  17   2
M  END
