Coordinates from ORCA-job Ph-N2-X-OTf-B3LYPG-6-31G_dp-scan-d09-49-n400
 OpenBabel08281821163D

 21 20  0  0  0  0  0  0  0  0999 V2000
   -2.2208   -0.9989   -5.5008 C   0  0  0  0  0  0  0  0  0  0  0  0
   -0.9338   -0.5168   -5.2786 C   0  0  0  0  0  0  0  0  0  0  0  0
   -0.7791    0.8299   -4.9119 C   0  0  0  0  0  0  0  0  0  0  0  0
   -1.8877    1.6691   -4.7253 C   0  0  0  0  0  0  0  0  0  0  0  0
   -3.1624    1.1772   -4.9834 C   0  0  0  0  0  0  0  0  0  0  0  0
   -3.3284   -0.1560   -5.3698 C   0  0  0  0  0  0  0  0  0  0  0  0
   -2.3575   -2.0394   -5.7766 H   0  0  0  0  0  0  0  0  0  0  0  0
   -0.0811   -1.1816   -5.3508 H   0  0  0  0  0  0  0  0  0  0  0  0
   -1.7250    2.6909   -4.4009 H   0  0  0  0  0  0  0  0  0  0  0  0
   -4.0250    1.8250   -4.8669 H   0  0  0  0  0  0  0  0  0  0  0  0
    0.4715    1.4217   -4.6151 N   0  0  0  0  0  0  0  0  0  0  0  0
    1.5818    1.2348   -5.0195 N   0  0  0  0  0  0  0  0  0  0  0  0
    2.0015   -0.0059   -6.5531 S   0  0  0  0  0  0  0  0  0  0  0  0
    3.7642    0.6434   -6.8143 C   0  0  0  0  0  0  0  0  0  0  0  0
    1.2136    0.3663   -7.7346 O   0  0  0  0  0  0  0  0  0  0  0  0
    3.5567    2.7847   -4.2551 O   0  0  0  0  0  0  0  0  0  0  0  0
    2.1296   -1.4014   -6.1057 O   0  0  0  0  0  0  0  0  0  0  0  0
    4.2665   -0.0354   -7.8489 F   0  0  0  0  0  0  0  0  0  0  0  0
    3.7194    1.9333   -7.1011 F   0  0  0  0  0  0  0  0  0  0  0  0
    4.4829    0.4106   -5.7306 F   0  0  0  0  0  0  0  0  0  0  0  0
   -4.3252   -0.5447   -5.5544 H   0  0  0  0  0  0  0  0  0  0  0  0
  1  6  2  0  0  0  0
  1  2  1  0  0  0  0
  2  3  2  0  0  0  0
  3  4  1  0  0  0  0
  3 11  1  0  0  0  0
  4  9  1  0  0  0  0
  5 10  1  0  0  0  0
  5  4  2  0  0  0  0
  6  5  1  0  0  0  0
  7  1  1  0  0  0  0
  8  2  1  0  0  0  0
 12 11  2  0  0  0  0
 13 17  2  0  0  0  0
 13 12  1  0  0  0  0
 14 13  1  0  0  0  0
 14 20  1  0  0  0  0
 15 13  2  0  0  0  0
 18 14  1  0  0  0  0
 19 14  1  0  0  0  0
 21  6  1  0  0  0  0
M  RAD  1  16   3
M  END
