Coordinates from ORCA-job Ph-N2-X-OTf-B3LYPG-6-31G_dp-scan-d09-49-n400
 OpenBabel08281821163D

 21 21  0  0  0  0  0  0  0  0999 V2000
   -2.0705   -1.0245   -5.2755 C   0  0  0  0  0  0  0  0  0  0  0  0
   -0.8286   -0.5281   -4.8808 C   0  0  0  0  0  0  0  0  0  0  0  0
   -0.6579    0.8579   -4.7408 C   0  0  0  0  0  0  0  0  0  0  0  0
   -1.7356    1.7319   -4.9416 C   0  0  0  0  0  0  0  0  0  0  0  0
   -2.9653    1.2218   -5.3451 C   0  0  0  0  0  0  0  0  0  0  0  0
   -3.1355   -0.1557   -5.5161 C   0  0  0  0  0  0  0  0  0  0  0  0
   -2.2037   -2.0963   -5.3868 H   0  0  0  0  0  0  0  0  0  0  0  0
   -0.0115   -1.2056   -4.6586 H   0  0  0  0  0  0  0  0  0  0  0  0
   -1.5879    2.7959   -4.7905 H   0  0  0  0  0  0  0  0  0  0  0  0
   -3.7954    1.8992   -5.5201 H   0  0  0  0  0  0  0  0  0  0  0  0
    0.5454    1.4230   -4.2592 N   0  0  0  0  0  0  0  0  0  0  0  0
    1.6477    1.1209   -4.7519 N   0  0  0  0  0  0  0  0  0  0  0  0
    1.8939    0.1112   -6.4672 S   0  0  0  0  0  0  0  0  0  0  0  0
    3.5992    0.8312   -6.9389 C   0  0  0  0  0  0  0  0  0  0  0  0
    0.9526    0.6088   -7.4667 O   0  0  0  0  0  0  0  0  0  0  0  0
    2.8182    1.4443   -4.2849 O   0  0  0  0  0  0  0  0  0  0  0  0
    2.0910   -1.3080   -6.1763 O   0  0  0  0  0  0  0  0  0  0  0  0
    3.7763    0.4421   -8.2050 F   0  0  0  0  0  0  0  0  0  0  0  0
    3.5681    2.1535   -6.8831 F   0  0  0  0  0  0  0  0  0  0  0  0
    4.5603    0.3330   -6.1852 F   0  0  0  0  0  0  0  0  0  0  0  0
   -4.0992   -0.5499   -5.8229 H   0  0  0  0  0  0  0  0  0  0  0  0
  1  2  2  0  0  0  0
  2  3  1  0  0  0  0
  2  8  1  0  0  0  0
  3 11  1  0  0  0  0
  4  9  1  0  0  0  0
  4  3  2  0  0  0  0
  5  4  1  0  0  0  0
  6  5  2  0  0  0  0
  6  1  1  0  0  0  0
  7  1  1  0  0  0  0
 10  5  1  0  0  0  0
 12 16  1  0  0  0  0
 12 11  1  0  0  0  0
 13 17  2  0  0  0  0
 13 12  1  0  0  0  0
 14 19  1  0  0  0  0
 14 13  1  0  0  0  0
 14 20  1  0  0  0  0
 15 13  2  0  0  0  0
 18 14  1  0  0  0  0
 21  6  1  0  0  0  0
M  RAD  2  11   2  16   2
M  END
