Coordinates from ORCA-job Ph-N2-X-OTf-B3LYPG-6-31G_dp-scan-d09-49-n400
 OpenBabel08281821163D

 21 20  0  0  0  0  0  0  0  0999 V2000
   -2.2209   -0.9983   -5.5025 C   0  0  0  0  0  0  0  0  0  0  0  0
   -0.9337   -0.5177   -5.2789 C   0  0  0  0  0  0  0  0  0  0  0  0
   -0.7776    0.8287   -4.9112 C   0  0  0  0  0  0  0  0  0  0  0  0
   -1.8859    1.6685   -4.7246 C   0  0  0  0  0  0  0  0  0  0  0  0
   -3.1609    1.1783   -4.9845 C   0  0  0  0  0  0  0  0  0  0  0  0
   -3.3279   -0.1544   -5.3721 C   0  0  0  0  0  0  0  0  0  0  0  0
   -2.3585   -2.0386   -5.7789 H   0  0  0  0  0  0  0  0  0  0  0  0
   -0.0818   -1.1835   -5.3501 H   0  0  0  0  0  0  0  0  0  0  0  0
   -1.7225    2.6898   -4.3990 H   0  0  0  0  0  0  0  0  0  0  0  0
   -4.0229    1.8268   -4.8683 H   0  0  0  0  0  0  0  0  0  0  0  0
    0.4721    1.4210   -4.6119 N   0  0  0  0  0  0  0  0  0  0  0  0
    1.5830    1.2336   -5.0172 N   0  0  0  0  0  0  0  0  0  0  0  0
    2.0056   -0.0005   -6.5434 S   0  0  0  0  0  0  0  0  0  0  0  0
    3.7678    0.6468   -6.8167 C   0  0  0  0  0  0  0  0  0  0  0  0
    1.2123    0.3682   -7.7218 O   0  0  0  0  0  0  0  0  0  0  0  0
    3.5261    2.7624   -4.2655 O   0  0  0  0  0  0  0  0  0  0  0  0
    2.1346   -1.3935   -6.0902 O   0  0  0  0  0  0  0  0  0  0  0  0
    4.2570   -0.0380   -7.8542 F   0  0  0  0  0  0  0  0  0  0  0  0
    3.7246    1.9352   -7.1083 F   0  0  0  0  0  0  0  0  0  0  0  0
    4.4959    0.4141   -5.7400 F   0  0  0  0  0  0  0  0  0  0  0  0
   -4.3248   -0.5420   -5.5580 H   0  0  0  0  0  0  0  0  0  0  0  0
  1  6  2  0  0  0  0
  1  2  1  0  0  0  0
  2  3  2  0  0  0  0
  3  4  1  0  0  0  0
  3 11  1  0  0  0  0
  4  9  1  0  0  0  0
  5 10  1  0  0  0  0
  5  4  2  0  0  0  0
  6  5  1  0  0  0  0
  7  1  1  0  0  0  0
  8  2  1  0  0  0  0
 12 11  2  0  0  0  0
 13 17  2  0  0  0  0
 13 12  1  0  0  0  0
 14 13  1  0  0  0  0
 14 20  1  0  0  0  0
 15 13  2  0  0  0  0
 18 14  1  0  0  0  0
 19 14  1  0  0  0  0
 21  6  1  0  0  0  0
M  RAD  1  16   3
M  END
