Coordinates from ORCA-job Ph-N2-X-OTf-B3LYPG-6-31G_dp-scan-d09-49-n400
 OpenBabel08281821163D

 21 20  0  0  0  0  0  0  0  0999 V2000
   -2.2223   -1.0015   -5.4967 C   0  0  0  0  0  0  0  0  0  0  0  0
   -0.9353   -0.5193   -5.2741 C   0  0  0  0  0  0  0  0  0  0  0  0
   -0.7811    0.8285   -4.9114 C   0  0  0  0  0  0  0  0  0  0  0  0
   -1.8893    1.6689   -4.7285 C   0  0  0  0  0  0  0  0  0  0  0  0
   -3.1638    1.1764   -4.9866 C   0  0  0  0  0  0  0  0  0  0  0  0
   -3.3298   -0.1579   -5.3693 C   0  0  0  0  0  0  0  0  0  0  0  0
   -2.3590   -2.0427   -5.7700 H   0  0  0  0  0  0  0  0  0  0  0  0
   -0.0825   -1.1842   -5.3440 H   0  0  0  0  0  0  0  0  0  0  0  0
   -1.7269    2.6917   -4.4072 H   0  0  0  0  0  0  0  0  0  0  0  0
   -4.0264    1.8247   -4.8732 H   0  0  0  0  0  0  0  0  0  0  0  0
    0.4705    1.4181   -4.6157 N   0  0  0  0  0  0  0  0  0  0  0  0
    1.5807    1.2348   -5.0175 N   0  0  0  0  0  0  0  0  0  0  0  0
    1.9947   -0.0119   -6.5645 S   0  0  0  0  0  0  0  0  0  0  0  0
    3.7565    0.6417   -6.8125 C   0  0  0  0  0  0  0  0  0  0  0  0
    1.2118    0.3652   -7.7485 O   0  0  0  0  0  0  0  0  0  0  0  0
    3.6180    2.8170   -4.2390 O   0  0  0  0  0  0  0  0  0  0  0  0
    2.1242   -1.4113   -6.1269 O   0  0  0  0  0  0  0  0  0  0  0  0
    4.2749   -0.0264   -7.8457 F   0  0  0  0  0  0  0  0  0  0  0  0
    3.7078    1.9342   -7.0901 F   0  0  0  0  0  0  0  0  0  0  0  0
    4.4653    0.4073   -5.7217 F   0  0  0  0  0  0  0  0  0  0  0  0
   -4.3264   -0.5467   -5.5540 H   0  0  0  0  0  0  0  0  0  0  0  0
  1  6  2  0  0  0  0
  1  2  1  0  0  0  0
  2  3  2  0  0  0  0
  3  4  1  0  0  0  0
  3 11  1  0  0  0  0
  4  9  1  0  0  0  0
  5 10  1  0  0  0  0
  5  4  2  0  0  0  0
  6  5  1  0  0  0  0
  7  1  1  0  0  0  0
  8  2  1  0  0  0  0
 12 11  2  0  0  0  0
 13 17  2  0  0  0  0
 13 12  1  0  0  0  0
 14 13  1  0  0  0  0
 14 20  1  0  0  0  0
 15 13  2  0  0  0  0
 18 14  1  0  0  0  0
 19 14  1  0  0  0  0
 21  6  1  0  0  0  0
M  RAD  1  16   3
M  END
