Coordinates from ORCA-job Ph-N2-X-OTf-B3LYPG-6-31G_dp-scan-d09-49-n400
 OpenBabel08281821163D

 21 20  0  0  0  0  0  0  0  0999 V2000
   -2.2033   -0.9903   -5.4877 C   0  0  0  0  0  0  0  0  0  0  0  0
   -0.9220   -0.4994   -5.2572 C   0  0  0  0  0  0  0  0  0  0  0  0
   -0.7710    0.8561   -4.9174 C   0  0  0  0  0  0  0  0  0  0  0  0
   -1.8886    1.6933   -4.7659 C   0  0  0  0  0  0  0  0  0  0  0  0
   -3.1578    1.1938   -5.0351 C   0  0  0  0  0  0  0  0  0  0  0  0
   -3.3153   -0.1476   -5.3952 C   0  0  0  0  0  0  0  0  0  0  0  0
   -2.3335   -2.0378   -5.7396 H   0  0  0  0  0  0  0  0  0  0  0  0
   -0.0692   -1.1665   -5.2937 H   0  0  0  0  0  0  0  0  0  0  0  0
   -1.7339    2.7215   -4.4583 H   0  0  0  0  0  0  0  0  0  0  0  0
   -4.0234    1.8419   -4.9457 H   0  0  0  0  0  0  0  0  0  0  0  0
    0.4612    1.4685   -4.5997 N   0  0  0  0  0  0  0  0  0  0  0  0
    1.5741    1.2410   -5.0115 N   0  0  0  0  0  0  0  0  0  0  0  0
    2.0671    0.0409   -6.4056 S   0  0  0  0  0  0  0  0  0  0  0  0
    3.7876    0.7241   -6.8614 C   0  0  0  0  0  0  0  0  0  0  0  0
    1.1950    0.2969   -7.5509 O   0  0  0  0  0  0  0  0  0  0  0  0
    3.2708    2.1967   -4.3009 O   0  0  0  0  0  0  0  0  0  0  0  0
    2.2556   -1.2946   -5.8378 O   0  0  0  0  0  0  0  0  0  0  0  0
    4.0710    0.0757   -8.0003 F   0  0  0  0  0  0  0  0  0  0  0  0
    3.7245    2.0188   -7.0976 F   0  0  0  0  0  0  0  0  0  0  0  0
    4.6810    0.4168   -5.9486 F   0  0  0  0  0  0  0  0  0  0  0  0
   -4.3081   -0.5431   -5.5871 H   0  0  0  0  0  0  0  0  0  0  0  0
  1  6  2  0  0  0  0
  1  2  1  0  0  0  0
  2  3  2  0  0  0  0
  3  4  1  0  0  0  0
  3 11  1  0  0  0  0
  4  9  1  0  0  0  0
  5 10  1  0  0  0  0
  5  4  2  0  0  0  0
  6  5  1  0  0  0  0
  7  1  1  0  0  0  0
  8  2  1  0  0  0  0
 12 11  2  0  0  0  0
 13 17  2  0  0  0  0
 13 12  1  0  0  0  0
 14 13  1  0  0  0  0
 14 20  1  0  0  0  0
 15 13  2  0  0  0  0
 18 14  1  0  0  0  0
 19 14  1  0  0  0  0
 21  6  1  0  0  0  0
M  RAD  1  16   3
M  END
