Coordinates from ORCA-job Ph-N2-X-OTf-B3LYPG-6-31G_dp-scan-d09-49-n400
 OpenBabel08281821163D

 21 21  0  0  0  0  0  0  0  0999 V2000
   -2.1836   -0.9806   -5.4646 C   0  0  0  0  0  0  0  0  0  0  0  0
   -0.9074   -0.4868   -5.2125 C   0  0  0  0  0  0  0  0  0  0  0  0
   -0.7559    0.8743   -4.8944 C   0  0  0  0  0  0  0  0  0  0  0  0
   -1.8770    1.7143   -4.7858 C   0  0  0  0  0  0  0  0  0  0  0  0
   -3.1415    1.2108   -5.0698 C   0  0  0  0  0  0  0  0  0  0  0  0
   -3.2964   -0.1362   -5.4101 C   0  0  0  0  0  0  0  0  0  0  0  0
   -2.3091   -2.0323   -5.7011 H   0  0  0  0  0  0  0  0  0  0  0  0
   -0.0558   -1.1571   -5.2141 H   0  0  0  0  0  0  0  0  0  0  0  0
   -1.7286    2.7489   -4.4968 H   0  0  0  0  0  0  0  0  0  0  0  0
   -4.0070    1.8626   -5.0097 H   0  0  0  0  0  0  0  0  0  0  0  0
    0.4683    1.4818   -4.5533 N   0  0  0  0  0  0  0  0  0  0  0  0
    1.5716    1.1888   -4.9888 N   0  0  0  0  0  0  0  0  0  0  0  0
    2.0967    0.0425   -6.3676 S   0  0  0  0  0  0  0  0  0  0  0  0
    3.7862    0.7736   -6.8748 C   0  0  0  0  0  0  0  0  0  0  0  0
    1.1888    0.2795   -7.4846 O   0  0  0  0  0  0  0  0  0  0  0  0
    3.0244    1.8560   -4.4048 O   0  0  0  0  0  0  0  0  0  0  0  0
    2.3253   -1.2807   -5.7972 O   0  0  0  0  0  0  0  0  0  0  0  0
    4.0143    0.1485   -8.0403 F   0  0  0  0  0  0  0  0  0  0  0  0
    3.6978    2.0708   -7.0870 F   0  0  0  0  0  0  0  0  0  0  0  0
    4.7363    0.4607   -6.0243 F   0  0  0  0  0  0  0  0  0  0  0  0
   -4.2858   -0.5329   -5.6157 H   0  0  0  0  0  0  0  0  0  0  0  0
  1  6  2  0  0  0  0
  1  2  1  0  0  0  0
  2  3  2  0  0  0  0
  3  4  1  0  0  0  0
  3 11  1  0  0  0  0
  4  9  1  0  0  0  0
  5 10  1  0  0  0  0
  5  4  2  0  0  0  0
  6  5  1  0  0  0  0
  7  1  1  0  0  0  0
  8  2  1  0  0  0  0
 12 11  1  0  0  0  0
 12 16  1  0  0  0  0
 13 17  2  0  0  0  0
 13 12  1  0  0  0  0
 14 13  1  0  0  0  0
 14 20  1  0  0  0  0
 15 13  2  0  0  0  0
 18 14  1  0  0  0  0
 19 14  1  0  0  0  0
 21  6  1  0  0  0  0
M  RAD  2  11   2  16   2
M  END
