Coordinates from ORCA-job Ph-N2-X-OTf-B3LYPG-6-31G_dp-scan-d09-49-n400
 OpenBabel08281821163D

 21 19  0  0  0  0  0  0  0  0999 V2000
   -1.0266   -0.7335   -4.4619 C   0  0  0  0  0  0  0  0  0  0  0  0
   -0.2507    0.3719   -4.7997 C   0  0  0  0  0  0  0  0  0  0  0  0
   -0.9055    1.5110   -5.2807 C   0  0  0  0  0  0  0  0  0  0  0  0
   -2.2995    1.5978   -5.3793 C   0  0  0  0  0  0  0  0  0  0  0  0
   -3.0510    0.4749   -5.0508 C   0  0  0  0  0  0  0  0  0  0  0  0
   -2.4163   -0.6875   -4.5952 C   0  0  0  0  0  0  0  0  0  0  0  0
   -0.5171   -1.6226   -4.1063 H   0  0  0  0  0  0  0  0  0  0  0  0
    0.8212    0.3318   -4.6443 H   0  0  0  0  0  0  0  0  0  0  0  0
   -2.7627    2.5126   -5.7320 H   0  0  0  0  0  0  0  0  0  0  0  0
   -4.1317    0.5065   -5.1450 H   0  0  0  0  0  0  0  0  0  0  0  0
   -0.1471    2.6517   -5.6292 N   0  0  0  0  0  0  0  0  0  0  0  0
    0.8592    2.9287   -6.1454 N   0  0  0  0  0  0  0  0  0  0  0  0
    1.9576    1.3179   -7.4178 S   0  0  0  0  0  0  0  0  0  0  0  0
    3.0952    0.1007   -6.4493 C   0  0  0  0  0  0  0  0  0  0  0  0
    2.9631    2.1377   -8.1212 O   0  0  0  0  0  0  0  0  0  0  0  0
    2.2670   -1.3954   -4.4595 O   0  0  0  0  0  0  0  0  0  0  0  0
    1.0326    0.4397   -8.1680 O   0  0  0  0  0  0  0  0  0  0  0  0
    4.0593   -0.4240   -7.1709 F   0  0  0  0  0  0  0  0  0  0  0  0
    3.5657    0.6632   -5.3619 F   0  0  0  0  0  0  0  0  0  0  0  0
    2.2610   -1.0199   -6.0458 F   0  0  0  0  0  0  0  0  0  0  0  0
   -3.0120   -1.5564   -4.3328 H   0  0  0  0  0  0  0  0  0  0  0  0
  1  7  1  0  0  0  0
  2  8  1  0  0  0  0
  2  1  2  0  0  0  0
  3  2  1  0  0  0  0
  4  3  2  0  0  0  0
  4  5  1  0  0  0  0
  5  6  2  0  0  0  0
  6  1  1  0  0  0  0
  6 21  1  0  0  0  0
  9  4  1  0  0  0  0
 10  5  1  0  0  0  0
 11  3  1  0  0  0  0
 12 11  2  0  0  0  0
 13 14  1  0  0  0  0
 14 20  1  0  0  0  0
 14 19  1  0  0  0  0
 15 13  1  0  0  0  0
 17 13  1  0  0  0  0
 18 14  1  0  0  0  0
M  RAD  4  12   2  15   2  16   3  17   2
M  END
