Coordinates from ORCA-job Ph-N2-X-OTf-B3LYPG-6-31G_dp-scan-d09-49-n400
 OpenBabel08281821163D

 21 20  0  0  0  0  0  0  0  0999 V2000
   -2.2232   -1.0026   -5.4966 C   0  0  0  0  0  0  0  0  0  0  0  0
   -0.9372   -0.5180   -5.2733 C   0  0  0  0  0  0  0  0  0  0  0  0
   -0.7864    0.8298   -4.9100 C   0  0  0  0  0  0  0  0  0  0  0  0
   -1.8954    1.6686   -4.7277 C   0  0  0  0  0  0  0  0  0  0  0  0
   -3.1690    1.1734   -4.9859 C   0  0  0  0  0  0  0  0  0  0  0  0
   -3.3322   -0.1613   -5.3688 C   0  0  0  0  0  0  0  0  0  0  0  0
   -2.3577   -2.0439   -5.7707 H   0  0  0  0  0  0  0  0  0  0  0  0
   -0.0826   -1.1806   -5.3439 H   0  0  0  0  0  0  0  0  0  0  0  0
   -1.7352    2.6919   -4.4069 H   0  0  0  0  0  0  0  0  0  0  0  0
   -4.0328    1.8200   -4.8728 H   0  0  0  0  0  0  0  0  0  0  0  0
    0.4671    1.4177   -4.6153 N   0  0  0  0  0  0  0  0  0  0  0  0
    1.5764    1.2349   -5.0166 N   0  0  0  0  0  0  0  0  0  0  0  0
    1.9874   -0.0193   -6.5759 S   0  0  0  0  0  0  0  0  0  0  0  0
    3.7506    0.6372   -6.8082 C   0  0  0  0  0  0  0  0  0  0  0  0
    1.2142    0.3629   -7.7657 O   0  0  0  0  0  0  0  0  0  0  0  0
    3.6962    2.8603   -4.2298 O   0  0  0  0  0  0  0  0  0  0  0  0
    2.1166   -1.4221   -6.1472 O   0  0  0  0  0  0  0  0  0  0  0  0
    4.2835   -0.0252   -7.8371 F   0  0  0  0  0  0  0  0  0  0  0  0
    3.7007    1.9313   -7.0815 F   0  0  0  0  0  0  0  0  0  0  0  0
    4.4488    0.4038   -5.7095 F   0  0  0  0  0  0  0  0  0  0  0  0
   -4.3281   -0.5519   -5.5538 H   0  0  0  0  0  0  0  0  0  0  0  0
  1  6  2  0  0  0  0
  1  2  1  0  0  0  0
  2  3  2  0  0  0  0
  3  4  1  0  0  0  0
  3 11  1  0  0  0  0
  4  9  1  0  0  0  0
  5 10  1  0  0  0  0
  5  4  2  0  0  0  0
  6  5  1  0  0  0  0
  7  1  1  0  0  0  0
  8  2  1  0  0  0  0
 12 11  2  0  0  0  0
 13 17  2  0  0  0  0
 13 12  1  0  0  0  0
 14 13  1  0  0  0  0
 14 20  1  0  0  0  0
 15 13  2  0  0  0  0
 18 14  1  0  0  0  0
 19 14  1  0  0  0  0
 21  6  1  0  0  0  0
M  RAD  1  16   3
M  END
