Coordinates from ORCA-job Ph-N2-X-OTf-B3LYPG-6-31G_dp-scan-d09-49-n400
 OpenBabel08281821163D

 21 20  0  0  0  0  0  0  0  0999 V2000
   -2.2236   -1.0034   -5.4949 C   0  0  0  0  0  0  0  0  0  0  0  0
   -0.9372   -0.5201   -5.2712 C   0  0  0  0  0  0  0  0  0  0  0  0
   -0.7848    0.8282   -4.9100 C   0  0  0  0  0  0  0  0  0  0  0  0
   -1.8932    1.6685   -4.7297 C   0  0  0  0  0  0  0  0  0  0  0  0
   -3.1671    1.1745   -4.9883 C   0  0  0  0  0  0  0  0  0  0  0  0
   -3.3317   -0.1605   -5.3694 C   0  0  0  0  0  0  0  0  0  0  0  0
   -2.3592   -2.0450   -5.7673 H   0  0  0  0  0  0  0  0  0  0  0  0
   -0.0834   -1.1840   -5.3399 H   0  0  0  0  0  0  0  0  0  0  0  0
   -1.7321    2.6920   -4.4100 H   0  0  0  0  0  0  0  0  0  0  0  0
   -4.0303    1.8224   -4.8770 H   0  0  0  0  0  0  0  0  0  0  0  0
    0.4681    1.4158   -4.6149 N   0  0  0  0  0  0  0  0  0  0  0  0
    1.5779    1.2344   -5.0153 N   0  0  0  0  0  0  0  0  0  0  0  0
    1.9878   -0.0182   -6.5748 S   0  0  0  0  0  0  0  0  0  0  0  0
    3.7496    0.6392   -6.8095 C   0  0  0  0  0  0  0  0  0  0  0  0
    1.2116    0.3636   -7.7627 O   0  0  0  0  0  0  0  0  0  0  0  0
    3.6895    2.8534   -4.2286 O   0  0  0  0  0  0  0  0  0  0  0  0
    2.1182   -1.4210   -6.1464 O   0  0  0  0  0  0  0  0  0  0  0  0
    4.2823   -0.0209   -7.8401 F   0  0  0  0  0  0  0  0  0  0  0  0
    3.6982    1.9337   -7.0806 F   0  0  0  0  0  0  0  0  0  0  0  0
    4.4491    0.4044   -5.7119 F   0  0  0  0  0  0  0  0  0  0  0  0
   -4.3279   -0.5502   -5.5547 H   0  0  0  0  0  0  0  0  0  0  0  0
  1  6  2  0  0  0  0
  1  2  1  0  0  0  0
  2  3  2  0  0  0  0
  3  4  1  0  0  0  0
  3 11  1  0  0  0  0
  4  9  1  0  0  0  0
  5 10  1  0  0  0  0
  5  4  2  0  0  0  0
  6  5  1  0  0  0  0
  7  1  1  0  0  0  0
  8  2  1  0  0  0  0
 12 11  2  0  0  0  0
 13 17  2  0  0  0  0
 13 12  1  0  0  0  0
 14 13  1  0  0  0  0
 14 20  1  0  0  0  0
 15 13  2  0  0  0  0
 18 14  1  0  0  0  0
 19 14  1  0  0  0  0
 21  6  1  0  0  0  0
M  RAD  1  16   3
M  END
