Coordinates from ORCA-job Ph-N2-X-OTf-B3LYPG-6-31G_dp-scan-d09-49-n400
 OpenBabel08281821163D

 21 20  0  0  0  0  0  0  0  0999 V2000
   -2.2083   -0.9987   -5.4835 C   0  0  0  0  0  0  0  0  0  0  0  0
   -0.9241   -0.5120   -5.2575 C   0  0  0  0  0  0  0  0  0  0  0  0
   -0.7702    0.8422   -4.9165 C   0  0  0  0  0  0  0  0  0  0  0  0
   -1.8828    1.6835   -4.7588 C   0  0  0  0  0  0  0  0  0  0  0  0
   -3.1545    1.1880   -5.0239 C   0  0  0  0  0  0  0  0  0  0  0  0
   -3.3171   -0.1528   -5.3848 C   0  0  0  0  0  0  0  0  0  0  0  0
   -2.3426   -2.0452   -5.7371 H   0  0  0  0  0  0  0  0  0  0  0  0
   -0.0723   -1.1799   -5.3019 H   0  0  0  0  0  0  0  0  0  0  0  0
   -1.7237    2.7109   -4.4504 H   0  0  0  0  0  0  0  0  0  0  0  0
   -4.0180    1.8384   -4.9307 H   0  0  0  0  0  0  0  0  0  0  0  0
    0.4700    1.4464   -4.6061 N   0  0  0  0  0  0  0  0  0  0  0  0
    1.5830    1.2428   -5.0139 N   0  0  0  0  0  0  0  0  0  0  0  0
    2.0309    0.0270   -6.4731 S   0  0  0  0  0  0  0  0  0  0  0  0
    3.7724    0.6901   -6.8469 C   0  0  0  0  0  0  0  0  0  0  0  0
    1.1904    0.3427   -7.6302 O   0  0  0  0  0  0  0  0  0  0  0  0
    3.3918    2.4419   -4.2416 O   0  0  0  0  0  0  0  0  0  0  0  0
    2.1885   -1.3386   -5.9615 O   0  0  0  0  0  0  0  0  0  0  0  0
    4.1472    0.0371   -7.9535 F   0  0  0  0  0  0  0  0  0  0  0  0
    3.7179    1.9855   -7.0921 F   0  0  0  0  0  0  0  0  0  0  0  0
    4.5950    0.4025   -5.8601 F   0  0  0  0  0  0  0  0  0  0  0  0
   -4.3118   -0.5450   -5.5730 H   0  0  0  0  0  0  0  0  0  0  0  0
  1  6  2  0  0  0  0
  1  2  1  0  0  0  0
  2  3  2  0  0  0  0
  3  4  1  0  0  0  0
  3 11  1  0  0  0  0
  4  9  1  0  0  0  0
  5 10  1  0  0  0  0
  5  4  2  0  0  0  0
  6  5  1  0  0  0  0
  7  1  1  0  0  0  0
  8  2  1  0  0  0  0
 12 11  2  0  0  0  0
 13 17  2  0  0  0  0
 13 12  1  0  0  0  0
 14 13  1  0  0  0  0
 14 20  1  0  0  0  0
 15 13  2  0  0  0  0
 18 14  1  0  0  0  0
 19 14  1  0  0  0  0
 21  6  1  0  0  0  0
M  RAD  1  16   3
M  END
