Coordinates from ORCA-job Ph-N2-X-OTf-B3LYPG-6-31G_dp-scan-d09-49-n400
 OpenBabel08281821163D

 21 19  0  0  0  0  0  0  0  0999 V2000
   -1.4254   -0.9016   -4.6306 C   0  0  0  0  0  0  0  0  0  0  0  0
   -0.5139    0.0965   -4.9651 C   0  0  0  0  0  0  0  0  0  0  0  0
   -1.0361    1.3616   -5.2761 C   0  0  0  0  0  0  0  0  0  0  0  0
   -2.4077    1.6528   -5.2340 C   0  0  0  0  0  0  0  0  0  0  0  0
   -3.2923    0.6297   -4.9173 C   0  0  0  0  0  0  0  0  0  0  0  0
   -2.7997   -0.6450   -4.6152 C   0  0  0  0  0  0  0  0  0  0  0  0
   -1.0511   -1.8894   -4.3829 H   0  0  0  0  0  0  0  0  0  0  0  0
    0.5574   -0.1011   -4.9592 H   0  0  0  0  0  0  0  0  0  0  0  0
   -2.7524    2.6550   -5.4630 H   0  0  0  0  0  0  0  0  0  0  0  0
   -4.3593    0.8257   -4.8961 H   0  0  0  0  0  0  0  0  0  0  0  0
   -0.1848    2.4321   -5.6008 N   0  0  0  0  0  0  0  0  0  0  0  0
    0.8338    2.7875   -6.0152 N   0  0  0  0  0  0  0  0  0  0  0  0
    2.1201    1.1799   -7.2312 S   0  0  0  0  0  0  0  0  0  0  0  0
    3.6392    0.2008   -6.5616 C   0  0  0  0  0  0  0  0  0  0  0  0
    2.8205    2.0346   -8.2182 O   0  0  0  0  0  0  0  0  0  0  0  0
    2.5382   -0.4240   -4.4017 O   0  0  0  0  0  0  0  0  0  0  0  0
    1.2226    0.0897   -7.6942 O   0  0  0  0  0  0  0  0  0  0  0  0
    4.3119   -0.3868   -7.5302 F   0  0  0  0  0  0  0  0  0  0  0  0
    4.4396    0.9002   -5.7948 F   0  0  0  0  0  0  0  0  0  0  0  0
    3.1934   -0.9506   -5.7516 F   0  0  0  0  0  0  0  0  0  0  0  0
   -3.4922   -1.4409   -4.3582 H   0  0  0  0  0  0  0  0  0  0  0  0
  1  6  1  0  0  0  0
  1  7  1  0  0  0  0
  2  8  1  0  0  0  0
  2  1  2  0  0  0  0
  3  4  2  0  0  0  0
  3  2  1  0  0  0  0
  4  5  1  0  0  0  0
  5 10  1  0  0  0  0
  5  6  2  0  0  0  0
  6 21  1  0  0  0  0
  9  4  1  0  0  0  0
 11  3  1  0  0  0  0
 12 11  2  0  0  0  0
 13 14  1  0  0  0  0
 14 19  1  0  0  0  0
 14 20  1  0  0  0  0
 15 13  1  0  0  0  0
 17 13  1  0  0  0  0
 18 14  1  0  0  0  0
M  RAD  4  12   2  15   2  16   3  17   2
M  END
