Coordinates from ORCA-job Ph-N2-X-OTf-B3LYPG-6-31G_dp-scan-d09-49-n400
 OpenBabel08281821163D

 21 21  0  0  0  0  0  0  0  0999 V2000
   -2.0131   -1.0406   -5.2232 C   0  0  0  0  0  0  0  0  0  0  0  0
   -0.7982   -0.5378   -4.7568 C   0  0  0  0  0  0  0  0  0  0  0  0
   -0.6209    0.8504   -4.6593 C   0  0  0  0  0  0  0  0  0  0  0  0
   -1.6711    1.7243   -4.9746 C   0  0  0  0  0  0  0  0  0  0  0  0
   -2.8770    1.2088   -5.4375 C   0  0  0  0  0  0  0  0  0  0  0  0
   -3.0498   -0.1734   -5.5673 C   0  0  0  0  0  0  0  0  0  0  0  0
   -2.1471   -2.1146   -5.3092 H   0  0  0  0  0  0  0  0  0  0  0  0
   -0.0009   -1.2104   -4.4601 H   0  0  0  0  0  0  0  0  0  0  0  0
   -1.5212    2.7929   -4.8617 H   0  0  0  0  0  0  0  0  0  0  0  0
   -3.6852    1.8854   -5.6974 H   0  0  0  0  0  0  0  0  0  0  0  0
    0.5570    1.4088   -4.1146 N   0  0  0  0  0  0  0  0  0  0  0  0
    1.6796    1.1552   -4.6204 N   0  0  0  0  0  0  0  0  0  0  0  0
    1.7764    0.1596   -6.5163 S   0  0  0  0  0  0  0  0  0  0  0  0
    3.5102    0.8147   -6.9735 C   0  0  0  0  0  0  0  0  0  0  0  0
    0.8677    0.7642   -7.4954 O   0  0  0  0  0  0  0  0  0  0  0  0
    2.7360    1.4045   -4.2384 O   0  0  0  0  0  0  0  0  0  0  0  0
    1.9259   -1.2923   -6.3528 O   0  0  0  0  0  0  0  0  0  0  0  0
    3.7109    0.4864   -8.2498 F   0  0  0  0  0  0  0  0  0  0  0  0
    3.5336    2.1385   -6.8454 F   0  0  0  0  0  0  0  0  0  0  0  0
    4.4425    0.2532   -6.2167 F   0  0  0  0  0  0  0  0  0  0  0  0
   -3.9938   -0.5709   -5.9270 H   0  0  0  0  0  0  0  0  0  0  0  0
  1  2  2  0  0  0  0
  2  3  1  0  0  0  0
  2  8  1  0  0  0  0
  3 11  1  0  0  0  0
  4  9  1  0  0  0  0
  4  3  2  0  0  0  0
  5  4  1  0  0  0  0
  6  5  2  0  0  0  0
  6  1  1  0  0  0  0
  7  1  1  0  0  0  0
 10  5  1  0  0  0  0
 12 16  1  0  0  0  0
 12 11  1  0  0  0  0
 13 17  2  0  0  0  0
 13 12  1  0  0  0  0
 14 19  1  0  0  0  0
 14 13  1  0  0  0  0
 14 20  1  0  0  0  0
 15 13  2  0  0  0  0
 18 14  1  0  0  0  0
 21  6  1  0  0  0  0
M  RAD  2  11   2  16   2
M  END
