Coordinates from ORCA-job Ph-N2-X-OTf-B3LYPG-6-31G_dp-scan-d09-49-n400
 OpenBabel08281821163D

 21 19  0  0  0  0  0  0  0  0999 V2000
   -1.2622   -0.8064   -4.5511 C   0  0  0  0  0  0  0  0  0  0  0  0
   -0.4226    0.2415   -4.9182 C   0  0  0  0  0  0  0  0  0  0  0  0
   -1.0259    1.4450   -5.3065 C   0  0  0  0  0  0  0  0  0  0  0  0
   -2.4142    1.6373   -5.3070 C   0  0  0  0  0  0  0  0  0  0  0  0
   -3.2276    0.5671   -4.9542 C   0  0  0  0  0  0  0  0  0  0  0  0
   -2.6512   -0.6516   -4.5765 C   0  0  0  0  0  0  0  0  0  0  0  0
   -0.8128   -1.7460   -4.2472 H   0  0  0  0  0  0  0  0  0  0  0  0
    0.6569    0.1092   -4.8671 H   0  0  0  0  0  0  0  0  0  0  0  0
   -2.8264    2.5973   -5.5973 H   0  0  0  0  0  0  0  0  0  0  0  0
   -4.3065    0.6834   -4.9649 H   0  0  0  0  0  0  0  0  0  0  0  0
   -0.2307    2.5486   -5.6733 N   0  0  0  0  0  0  0  0  0  0  0  0
    0.7932    2.8737   -6.1051 N   0  0  0  0  0  0  0  0  0  0  0  0
    2.0755    1.2367   -7.2623 S   0  0  0  0  0  0  0  0  0  0  0  0
    3.4764    0.1343   -6.5162 C   0  0  0  0  0  0  0  0  0  0  0  0
    2.9031    2.1141   -8.1196 O   0  0  0  0  0  0  0  0  0  0  0  0
    2.4294   -0.9139   -4.4144 O   0  0  0  0  0  0  0  0  0  0  0  0
    1.1617    0.2369   -7.8689 O   0  0  0  0  0  0  0  0  0  0  0  0
    4.2672   -0.3456   -7.4534 F   0  0  0  0  0  0  0  0  0  0  0  0
    4.1676    0.7198   -5.5712 F   0  0  0  0  0  0  0  0  0  0  0  0
    2.9013   -1.0929   -5.9317 F   0  0  0  0  0  0  0  0  0  0  0  0
   -3.2904   -1.4817   -4.2914 H   0  0  0  0  0  0  0  0  0  0  0  0
  1  7  1  0  0  0  0
  2  8  1  0  0  0  0
  2  1  2  0  0  0  0
  3  2  1  0  0  0  0
  4  3  2  0  0  0  0
  4  5  1  0  0  0  0
  5  6  2  0  0  0  0
  6  1  1  0  0  0  0
  6 21  1  0  0  0  0
  9  4  1  0  0  0  0
 10  5  1  0  0  0  0
 11  3  1  0  0  0  0
 12 11  2  0  0  0  0
 13 14  1  0  0  0  0
 14 20  1  0  0  0  0
 14 19  1  0  0  0  0
 15 13  1  0  0  0  0
 17 13  1  0  0  0  0
 18 14  1  0  0  0  0
M  RAD  4  12   2  15   2  16   3  17   2
M  END
