Coordinates from ORCA-job Ph-N2-X-OTf-B3LYPG-6-31G_dp-scan-d09-49-n400
 OpenBabel08281821163D

 21 19  0  0  0  0  0  0  0  0999 V2000
   -1.3651   -0.8596   -4.6043 C   0  0  0  0  0  0  0  0  0  0  0  0
   -0.4852    0.1559   -4.9692 C   0  0  0  0  0  0  0  0  0  0  0  0
   -1.0431    1.3985   -5.3035 C   0  0  0  0  0  0  0  0  0  0  0  0
   -2.4211    1.6539   -5.2567 C   0  0  0  0  0  0  0  0  0  0  0  0
   -3.2748    0.6147   -4.9079 C   0  0  0  0  0  0  0  0  0  0  0  0
   -2.7455   -0.6394   -4.5815 C   0  0  0  0  0  0  0  0  0  0  0  0
   -0.9582   -1.8296   -4.3383 H   0  0  0  0  0  0  0  0  0  0  0  0
    0.5897   -0.0216   -4.9634 H   0  0  0  0  0  0  0  0  0  0  0  0
   -2.7947    2.6408   -5.5065 H   0  0  0  0  0  0  0  0  0  0  0  0
   -4.3465    0.7823   -4.8809 H   0  0  0  0  0  0  0  0  0  0  0  0
   -0.2182    2.4812   -5.6618 N   0  0  0  0  0  0  0  0  0  0  0  0
    0.8048    2.8156   -6.0861 N   0  0  0  0  0  0  0  0  0  0  0  0
    2.1074    1.1883   -7.2477 S   0  0  0  0  0  0  0  0  0  0  0  0
    3.5918    0.1852   -6.5278 C   0  0  0  0  0  0  0  0  0  0  0  0
    2.8552    2.0645   -8.1779 O   0  0  0  0  0  0  0  0  0  0  0  0
    2.4831   -0.6925   -4.4262 O   0  0  0  0  0  0  0  0  0  0  0  0
    1.2230    0.1182   -7.7749 O   0  0  0  0  0  0  0  0  0  0  0  0
    4.3523   -0.3104   -7.4825 F   0  0  0  0  0  0  0  0  0  0  0  0
    4.3098    0.8419   -5.6503 F   0  0  0  0  0  0  0  0  0  0  0  0
    3.1111   -1.0338   -5.8506 F   0  0  0  0  0  0  0  0  0  0  0  0
   -3.4141   -1.4471   -4.2994 H   0  0  0  0  0  0  0  0  0  0  0  0
  1  6  1  0  0  0  0
  1  7  1  0  0  0  0
  2  8  1  0  0  0  0
  2  1  2  0  0  0  0
  3  4  2  0  0  0  0
  3  2  1  0  0  0  0
  4  5  1  0  0  0  0
  5 10  1  0  0  0  0
  5  6  2  0  0  0  0
  6 21  1  0  0  0  0
  9  4  1  0  0  0  0
 11  3  1  0  0  0  0
 12 11  2  0  0  0  0
 13 14  1  0  0  0  0
 14 20  1  0  0  0  0
 14 19  1  0  0  0  0
 15 13  1  0  0  0  0
 17 13  1  0  0  0  0
 18 14  1  0  0  0  0
M  RAD  4  12   2  15   2  16   3  17   2
M  END
