Coordinates from ORCA-job Ph-N2-X-OTf-B3LYPG-6-31G_dp-scan-d09-49-n400
 OpenBabel08281821163D

 21 20  0  0  0  0  0  0  0  0999 V2000
   -2.2144   -0.9980   -5.4945 C   0  0  0  0  0  0  0  0  0  0  0  0
   -0.9282   -0.5156   -5.2701 C   0  0  0  0  0  0  0  0  0  0  0  0
   -0.7716    0.8343   -4.9143 C   0  0  0  0  0  0  0  0  0  0  0  0
   -1.8818    1.6753   -4.7401 C   0  0  0  0  0  0  0  0  0  0  0  0
   -3.1557    1.1838   -5.0024 C   0  0  0  0  0  0  0  0  0  0  0  0
   -3.3217   -0.1523   -5.3783 C   0  0  0  0  0  0  0  0  0  0  0  0
   -2.3513   -2.0410   -5.7605 H   0  0  0  0  0  0  0  0  0  0  0  0
   -0.0771   -1.1834   -5.3292 H   0  0  0  0  0  0  0  0  0  0  0  0
   -1.7195    2.6990   -4.4216 H   0  0  0  0  0  0  0  0  0  0  0  0
   -4.0179    1.8339   -4.8961 H   0  0  0  0  0  0  0  0  0  0  0  0
    0.4724    1.4341   -4.6099 N   0  0  0  0  0  0  0  0  0  0  0  0
    1.5849    1.2393   -5.0169 N   0  0  0  0  0  0  0  0  0  0  0  0
    2.0210    0.0174   -6.5042 S   0  0  0  0  0  0  0  0  0  0  0  0
    3.7736    0.6688   -6.8324 C   0  0  0  0  0  0  0  0  0  0  0  0
    1.2008    0.3597   -7.6698 O   0  0  0  0  0  0  0  0  0  0  0  0
    3.4245    2.5900   -4.2623 O   0  0  0  0  0  0  0  0  0  0  0  0
    2.1619   -1.3611   -6.0187 O   0  0  0  0  0  0  0  0  0  0  0  0
    4.2031   -0.0064   -7.9039 F   0  0  0  0  0  0  0  0  0  0  0  0
    3.7253    1.9593   -7.1071 F   0  0  0  0  0  0  0  0  0  0  0  0
    4.5512    0.4109   -5.7998 F   0  0  0  0  0  0  0  0  0  0  0  0
   -4.3179   -0.5413   -5.5652 H   0  0  0  0  0  0  0  0  0  0  0  0
  1  6  2  0  0  0  0
  1  2  1  0  0  0  0
  2  3  2  0  0  0  0
  3  4  1  0  0  0  0
  3 11  1  0  0  0  0
  4  9  1  0  0  0  0
  5 10  1  0  0  0  0
  5  4  2  0  0  0  0
  6  5  1  0  0  0  0
  7  1  1  0  0  0  0
  8  2  1  0  0  0  0
 12 11  2  0  0  0  0
 13 17  2  0  0  0  0
 13 12  1  0  0  0  0
 14 13  1  0  0  0  0
 14 20  1  0  0  0  0
 15 13  2  0  0  0  0
 18 14  1  0  0  0  0
 19 14  1  0  0  0  0
 21  6  1  0  0  0  0
M  RAD  1  16   3
M  END
