Coordinates from ORCA-job Ph-N2-X-OTf-B3LYPG-6-31G_dp-scan-d09-49-n400
 OpenBabel08281821163D

 21 20  0  0  0  0  0  0  0  0999 V2000
   -2.2185   -0.9980   -5.4997 C   0  0  0  0  0  0  0  0  0  0  0  0
   -0.9313   -0.5179   -5.2758 C   0  0  0  0  0  0  0  0  0  0  0  0
   -0.7736    0.8298   -4.9126 C   0  0  0  0  0  0  0  0  0  0  0  0
   -1.8823    1.6708   -4.7305 C   0  0  0  0  0  0  0  0  0  0  0  0
   -3.1573    1.1813   -4.9914 C   0  0  0  0  0  0  0  0  0  0  0  0
   -3.3249   -0.1525   -5.3747 C   0  0  0  0  0  0  0  0  0  0  0  0
   -2.3568   -2.0392   -5.7721 H   0  0  0  0  0  0  0  0  0  0  0  0
   -0.0804   -1.1853   -5.3424 H   0  0  0  0  0  0  0  0  0  0  0  0
   -1.7183    2.6928   -4.4073 H   0  0  0  0  0  0  0  0  0  0  0  0
   -4.0188    1.8311   -4.8788 H   0  0  0  0  0  0  0  0  0  0  0  0
    0.4734    1.4252   -4.6114 N   0  0  0  0  0  0  0  0  0  0  0  0
    1.5852    1.2357   -5.0173 N   0  0  0  0  0  0  0  0  0  0  0  0
    2.0131    0.0079   -6.5259 S   0  0  0  0  0  0  0  0  0  0  0  0
    3.7709    0.6565   -6.8234 C   0  0  0  0  0  0  0  0  0  0  0  0
    1.2069    0.3653   -7.6979 O   0  0  0  0  0  0  0  0  0  0  0  0
    3.4694    2.6879   -4.2683 O   0  0  0  0  0  0  0  0  0  0  0  0
    2.1469   -1.3788   -6.0584 O   0  0  0  0  0  0  0  0  0  0  0  0
    4.2361   -0.0259   -7.8743 F   0  0  0  0  0  0  0  0  0  0  0  0
    3.7248    1.9451   -7.1101 F   0  0  0  0  0  0  0  0  0  0  0  0
    4.5194    0.4147   -5.7641 F   0  0  0  0  0  0  0  0  0  0  0  0
   -4.3219   -0.5398   -5.5611 H   0  0  0  0  0  0  0  0  0  0  0  0
  1  6  2  0  0  0  0
  1  2  1  0  0  0  0
  2  3  2  0  0  0  0
  3  4  1  0  0  0  0
  3 11  1  0  0  0  0
  4  9  1  0  0  0  0
  5 10  1  0  0  0  0
  5  4  2  0  0  0  0
  6  5  1  0  0  0  0
  7  1  1  0  0  0  0
  8  2  1  0  0  0  0
 12 11  2  0  0  0  0
 13 17  2  0  0  0  0
 13 12  1  0  0  0  0
 14 13  1  0  0  0  0
 14 20  1  0  0  0  0
 15 13  2  0  0  0  0
 18 14  1  0  0  0  0
 19 14  1  0  0  0  0
 21  6  1  0  0  0  0
M  RAD  1  16   3
M  END
