Coordinates from ORCA-job Ph-N2-X-OTf-B3LYPG-6-31G_dp-scan-d09-49-n400
 OpenBabel08281821163D

 21 20  0  0  0  0  0  0  0  0999 V2000
   -2.2210   -0.9988   -5.5012 C   0  0  0  0  0  0  0  0  0  0  0  0
   -0.9335   -0.5193   -5.2771 C   0  0  0  0  0  0  0  0  0  0  0  0
   -0.7759    0.8275   -4.9112 C   0  0  0  0  0  0  0  0  0  0  0  0
   -1.8837    1.6686   -4.7265 C   0  0  0  0  0  0  0  0  0  0  0  0
   -3.1590    1.1796   -4.9871 C   0  0  0  0  0  0  0  0  0  0  0  0
   -3.3271   -0.1534   -5.3731 C   0  0  0  0  0  0  0  0  0  0  0  0
   -2.3596   -2.0393   -5.7762 H   0  0  0  0  0  0  0  0  0  0  0  0
   -0.0824   -1.1864   -5.3466 H   0  0  0  0  0  0  0  0  0  0  0  0
   -1.7194    2.6901   -4.4019 H   0  0  0  0  0  0  0  0  0  0  0  0
   -4.0204    1.8293   -4.8725 H   0  0  0  0  0  0  0  0  0  0  0  0
    0.4731    1.4197   -4.6111 N   0  0  0  0  0  0  0  0  0  0  0  0
    1.5846    1.2333   -5.0157 N   0  0  0  0  0  0  0  0  0  0  0  0
    2.0072    0.0014   -6.5398 S   0  0  0  0  0  0  0  0  0  0  0  0
    3.7676    0.6495   -6.8186 C   0  0  0  0  0  0  0  0  0  0  0  0
    1.2098    0.3682   -7.7158 O   0  0  0  0  0  0  0  0  0  0  0  0
    3.5127    2.7483   -4.2658 O   0  0  0  0  0  0  0  0  0  0  0  0
    2.1380   -1.3908   -6.0850 O   0  0  0  0  0  0  0  0  0  0  0  0
    4.2532   -0.0338   -7.8589 F   0  0  0  0  0  0  0  0  0  0  0  0
    3.7225    1.9380   -7.1087 F   0  0  0  0  0  0  0  0  0  0  0  0
    4.4995    0.4151   -5.7451 F   0  0  0  0  0  0  0  0  0  0  0  0
   -4.3244   -0.5401   -5.5594 H   0  0  0  0  0  0  0  0  0  0  0  0
  1  6  2  0  0  0  0
  1  2  1  0  0  0  0
  2  3  2  0  0  0  0
  3  4  1  0  0  0  0
  3 11  1  0  0  0  0
  4  9  1  0  0  0  0
  5 10  1  0  0  0  0
  5  4  2  0  0  0  0
  6  5  1  0  0  0  0
  7  1  1  0  0  0  0
  8  2  1  0  0  0  0
 12 11  2  0  0  0  0
 13 17  2  0  0  0  0
 13 12  1  0  0  0  0
 14 13  1  0  0  0  0
 14 20  1  0  0  0  0
 15 13  2  0  0  0  0
 18 14  1  0  0  0  0
 19 14  1  0  0  0  0
 21  6  1  0  0  0  0
M  RAD  1  16   3
M  END
