Coordinates from ORCA-job Ph-N2-X-OTf-B3LYPG-6-31G_dp-scan-d09-49-n400
 OpenBabel08281821163D

 21 19  0  0  0  0  0  0  0  0999 V2000
   -1.5208   -0.9733   -4.7158 C   0  0  0  0  0  0  0  0  0  0  0  0
   -0.5415   -0.0134   -4.9580 C   0  0  0  0  0  0  0  0  0  0  0  0
   -0.9734    1.3001   -5.1930 C   0  0  0  0  0  0  0  0  0  0  0  0
   -2.3233    1.6752   -5.1559 C   0  0  0  0  0  0  0  0  0  0  0  0
   -3.2788    0.6901   -4.9371 C   0  0  0  0  0  0  0  0  0  0  0  0
   -2.8765   -0.6318   -4.7166 C   0  0  0  0  0  0  0  0  0  0  0  0
   -1.2177   -1.9981   -4.5278 H   0  0  0  0  0  0  0  0  0  0  0  0
    0.5182   -0.2543   -4.9334 H   0  0  0  0  0  0  0  0  0  0  0  0
   -2.5992    2.7115   -5.3170 H   0  0  0  0  0  0  0  0  0  0  0  0
   -4.3315    0.9527   -4.9270 H   0  0  0  0  0  0  0  0  0  0  0  0
   -0.0426    2.3360   -5.4179 N   0  0  0  0  0  0  0  0  0  0  0  0
    0.9889    2.6053   -5.8762 N   0  0  0  0  0  0  0  0  0  0  0  0
    2.0264    1.0302   -7.2794 S   0  0  0  0  0  0  0  0  0  0  0  0
    3.6588    0.2968   -6.5860 C   0  0  0  0  0  0  0  0  0  0  0  0
    2.5765    1.8859   -8.3553 O   0  0  0  0  0  0  0  0  0  0  0  0
    2.5608    0.0263   -4.3900 O   0  0  0  0  0  0  0  0  0  0  0  0
    1.2522   -0.1888   -7.6225 O   0  0  0  0  0  0  0  0  0  0  0  0
    4.3170   -0.4046   -7.4862 F   0  0  0  0  0  0  0  0  0  0  0  0
    4.4445    1.1716   -6.0078 F   0  0  0  0  0  0  0  0  0  0  0  0
    3.3478   -0.7132   -5.5602 F   0  0  0  0  0  0  0  0  0  0  0  0
   -3.6242   -1.3976   -4.5340 H   0  0  0  0  0  0  0  0  0  0  0  0
  1  7  1  0  0  0  0
  2  8  1  0  0  0  0
  2  1  2  0  0  0  0
  3  4  2  0  0  0  0
  3  2  1  0  0  0  0
  4  5  1  0  0  0  0
  5 10  1  0  0  0  0
  5  6  2  0  0  0  0
  6  1  1  0  0  0  0
  6 21  1  0  0  0  0
  9  4  1  0  0  0  0
 11  3  1  0  0  0  0
 12 11  2  0  0  0  0
 13 14  1  0  0  0  0
 14 19  1  0  0  0  0
 14 20  1  0  0  0  0
 15 13  1  0  0  0  0
 17 13  1  0  0  0  0
 18 14  1  0  0  0  0
M  RAD  4  12   2  15   2  16   3  17   2
M  END
