Coordinates from ORCA-job Ph-N2-X-OTf-B3LYPG-6-31G_dp-scan-d09-49-n400
 OpenBabel08281821163D

 21 21  0  0  0  0  0  0  0  0999 V2000
   -2.1281   -0.9999   -5.3683 C   0  0  0  0  0  0  0  0  0  0  0  0
   -0.8650   -0.5073   -5.0494 C   0  0  0  0  0  0  0  0  0  0  0  0
   -0.7054    0.8700   -4.8242 C   0  0  0  0  0  0  0  0  0  0  0  0
   -1.8114    1.7328   -4.8687 C   0  0  0  0  0  0  0  0  0  0  0  0
   -3.0618    1.2278   -5.2094 C   0  0  0  0  0  0  0  0  0  0  0  0
   -3.2230   -0.1379   -5.4612 C   0  0  0  0  0  0  0  0  0  0  0  0
   -2.2558   -2.0644   -5.5385 H   0  0  0  0  0  0  0  0  0  0  0  0
   -0.0263   -1.1858   -4.9381 H   0  0  0  0  0  0  0  0  0  0  0  0
   -1.6662    2.7850   -4.6496 H   0  0  0  0  0  0  0  0  0  0  0  0
   -3.9142    1.8975   -5.2659 H   0  0  0  0  0  0  0  0  0  0  0  0
    0.5121    1.4536   -4.4137 N   0  0  0  0  0  0  0  0  0  0  0  0
    1.6102    1.1326   -4.8784 N   0  0  0  0  0  0  0  0  0  0  0  0
    2.0163    0.0583   -6.4074 S   0  0  0  0  0  0  0  0  0  0  0  0
    3.6954    0.8174   -6.9077 C   0  0  0  0  0  0  0  0  0  0  0  0
    1.0714    0.4071   -7.4613 O   0  0  0  0  0  0  0  0  0  0  0  0
    2.8933    1.5899   -4.3491 O   0  0  0  0  0  0  0  0  0  0  0  0
    2.2558   -1.3099   -5.9620 O   0  0  0  0  0  0  0  0  0  0  0  0
    3.8867    0.3197   -8.1364 F   0  0  0  0  0  0  0  0  0  0  0  0
    3.6110    2.1329   -6.9756 F   0  0  0  0  0  0  0  0  0  0  0  0
    4.6694    0.4188   -6.1188 F   0  0  0  0  0  0  0  0  0  0  0  0
   -4.2027   -0.5315   -5.7135 H   0  0  0  0  0  0  0  0  0  0  0  0
  1  2  1  0  0  0  0
  2  8  1  0  0  0  0
  2  3  2  0  0  0  0
  3 11  1  0  0  0  0
  4  3  1  0  0  0  0
  4  9  1  0  0  0  0
  5  4  2  0  0  0  0
  6  1  2  0  0  0  0
  6  5  1  0  0  0  0
  7  1  1  0  0  0  0
 10  5  1  0  0  0  0
 12 11  1  0  0  0  0
 12 16  1  0  0  0  0
 13 17  2  0  0  0  0
 13 12  1  0  0  0  0
 14 13  1  0  0  0  0
 14 20  1  0  0  0  0
 15 13  2  0  0  0  0
 18 14  1  0  0  0  0
 19 14  1  0  0  0  0
 21  6  1  0  0  0  0
M  RAD  2  11   2  16   2
M  END
