Coordinates from ORCA-job Ph-N2-X-OTf-B3LYPG-6-31G_dp-scan-d09-49-n400
 OpenBabel08281821163D

 21 20  0  0  0  0  0  0  0  0999 V2000
   -2.2222   -1.0011   -5.4980 C   0  0  0  0  0  0  0  0  0  0  0  0
   -0.9358   -0.5173   -5.2756 C   0  0  0  0  0  0  0  0  0  0  0  0
   -0.7836    0.8301   -4.9112 C   0  0  0  0  0  0  0  0  0  0  0  0
   -1.8925    1.6689   -4.7268 C   0  0  0  0  0  0  0  0  0  0  0  0
   -3.1666    1.1748   -4.9844 C   0  0  0  0  0  0  0  0  0  0  0  0
   -3.3308   -0.1594   -5.3685 C   0  0  0  0  0  0  0  0  0  0  0  0
   -2.3575   -2.0421   -5.7726 H   0  0  0  0  0  0  0  0  0  0  0  0
   -0.0818   -1.1806   -5.3472 H   0  0  0  0  0  0  0  0  0  0  0  0
   -1.7314    2.6917   -4.4048 H   0  0  0  0  0  0  0  0  0  0  0  0
   -4.0300    1.8217   -4.8697 H   0  0  0  0  0  0  0  0  0  0  0  0
    0.4688    1.4196   -4.6163 N   0  0  0  0  0  0  0  0  0  0  0  0
    1.5784    1.2354   -5.0186 N   0  0  0  0  0  0  0  0  0  0  0  0
    1.9926   -0.0147   -6.5685 S   0  0  0  0  0  0  0  0  0  0  0  0
    3.7559    0.6389   -6.8104 C   0  0  0  0  0  0  0  0  0  0  0  0
    1.2146    0.3640   -7.7556 O   0  0  0  0  0  0  0  0  0  0  0  0
    3.6420    2.8334   -4.2370 O   0  0  0  0  0  0  0  0  0  0  0  0
    2.1210   -1.4150   -6.1330 O   0  0  0  0  0  0  0  0  0  0  0  0
    4.2785   -0.0295   -7.8411 F   0  0  0  0  0  0  0  0  0  0  0  0
    3.7082    1.9316   -7.0886 F   0  0  0  0  0  0  0  0  0  0  0  0
    4.4608    0.4058   -5.7166 F   0  0  0  0  0  0  0  0  0  0  0  0
   -4.3270   -0.5494   -5.5529 H   0  0  0  0  0  0  0  0  0  0  0  0
  1  6  2  0  0  0  0
  1  2  1  0  0  0  0
  2  3  2  0  0  0  0
  3  4  1  0  0  0  0
  3 11  1  0  0  0  0
  4  9  1  0  0  0  0
  5 10  1  0  0  0  0
  5  4  2  0  0  0  0
  6  5  1  0  0  0  0
  7  1  1  0  0  0  0
  8  2  1  0  0  0  0
 12 11  2  0  0  0  0
 13 17  2  0  0  0  0
 13 12  1  0  0  0  0
 14 13  1  0  0  0  0
 14 20  1  0  0  0  0
 15 13  2  0  0  0  0
 18 14  1  0  0  0  0
 19 14  1  0  0  0  0
 21  6  1  0  0  0  0
M  RAD  1  16   3
M  END
