Coordinates from ORCA-job Ph-N2-X-OTf-B3LYPG-6-31G_dp-scan-d09-49-n400
 OpenBabel08281821163D

 21 20  0  0  0  0  0  0  0  0999 V2000
   -2.2164   -0.9980   -5.4972 C   0  0  0  0  0  0  0  0  0  0  0  0
   -0.9297   -0.5167   -5.2731 C   0  0  0  0  0  0  0  0  0  0  0  0
   -0.7724    0.8321   -4.9135 C   0  0  0  0  0  0  0  0  0  0  0  0
   -1.8819    1.6730   -4.7353 C   0  0  0  0  0  0  0  0  0  0  0  0
   -3.1564    1.1826   -4.9969 C   0  0  0  0  0  0  0  0  0  0  0  0
   -3.3232   -0.1523   -5.3766 C   0  0  0  0  0  0  0  0  0  0  0  0
   -2.3540   -2.0401   -5.7665 H   0  0  0  0  0  0  0  0  0  0  0  0
   -0.0787   -1.1844   -5.3360 H   0  0  0  0  0  0  0  0  0  0  0  0
   -1.7187    2.6958   -4.4144 H   0  0  0  0  0  0  0  0  0  0  0  0
   -4.0182    1.8326   -4.8874 H   0  0  0  0  0  0  0  0  0  0  0  0
    0.4729    1.4300   -4.6107 N   0  0  0  0  0  0  0  0  0  0  0  0
    1.5851    1.2378   -5.0172 N   0  0  0  0  0  0  0  0  0  0  0  0
    2.0174    0.0134   -6.5139 S   0  0  0  0  0  0  0  0  0  0  0  0
    3.7727    0.6629   -6.8282 C   0  0  0  0  0  0  0  0  0  0  0  0
    1.2038    0.3628   -7.6825 O   0  0  0  0  0  0  0  0  0  0  0  0
    3.4434    2.6359   -4.2659 O   0  0  0  0  0  0  0  0  0  0  0  0
    2.1547   -1.3689   -6.0366 O   0  0  0  0  0  0  0  0  0  0  0  0
    4.2185   -0.0166   -7.8898 F   0  0  0  0  0  0  0  0  0  0  0  0
    3.7257    1.9523   -7.1094 F   0  0  0  0  0  0  0  0  0  0  0  0
    4.5369    0.4129   -5.7829 F   0  0  0  0  0  0  0  0  0  0  0  0
   -4.3198   -0.5404   -5.5633 H   0  0  0  0  0  0  0  0  0  0  0  0
  1  6  2  0  0  0  0
  1  2  1  0  0  0  0
  2  3  2  0  0  0  0
  3  4  1  0  0  0  0
  3 11  1  0  0  0  0
  4  9  1  0  0  0  0
  5 10  1  0  0  0  0
  5  4  2  0  0  0  0
  6  5  1  0  0  0  0
  7  1  1  0  0  0  0
  8  2  1  0  0  0  0
 12 11  2  0  0  0  0
 13 17  2  0  0  0  0
 13 12  1  0  0  0  0
 14 13  1  0  0  0  0
 14 20  1  0  0  0  0
 15 13  2  0  0  0  0
 18 14  1  0  0  0  0
 19 14  1  0  0  0  0
 21  6  1  0  0  0  0
M  RAD  1  16   3
M  END
