Coordinates from ORCA-job Ph-N2-X-OTf-B3LYPG-6-31G_dp-scan-d09-49-n400
 OpenBabel08281821163D

 21 19  0  0  0  0  0  0  0  0999 V2000
   -1.4579   -0.9345   -4.6322 C   0  0  0  0  0  0  0  0  0  0  0  0
   -0.5153    0.0532   -4.9063 C   0  0  0  0  0  0  0  0  0  0  0  0
   -1.0006    1.3322   -5.2191 C   0  0  0  0  0  0  0  0  0  0  0  0
   -2.3670    1.6472   -5.2311 C   0  0  0  0  0  0  0  0  0  0  0  0
   -3.2825    0.6332   -4.9781 C   0  0  0  0  0  0  0  0  0  0  0  0
   -2.8269   -0.6552   -4.6778 C   0  0  0  0  0  0  0  0  0  0  0  0
   -1.1138   -1.9332   -4.3841 H   0  0  0  0  0  0  0  0  0  0  0  0
    0.5529   -0.1512   -4.8497 H   0  0  0  0  0  0  0  0  0  0  0  0
   -2.6846    2.6597   -5.4541 H   0  0  0  0  0  0  0  0  0  0  0  0
   -4.3458    0.8479   -5.0038 H   0  0  0  0  0  0  0  0  0  0  0  0
   -0.1153    2.3960   -5.4772 N   0  0  0  0  0  0  0  0  0  0  0  0
    0.9100    2.7334   -5.8941 N   0  0  0  0  0  0  0  0  0  0  0  0
    2.0818    1.1611   -7.2315 S   0  0  0  0  0  0  0  0  0  0  0  0
    3.6311    0.2073   -6.6076 C   0  0  0  0  0  0  0  0  0  0  0  0
    2.7302    2.0207   -8.2491 O   0  0  0  0  0  0  0  0  0  0  0  0
    2.5877   -0.1307   -4.3835 O   0  0  0  0  0  0  0  0  0  0  0  0
    1.1860    0.0541   -7.6540 O   0  0  0  0  0  0  0  0  0  0  0  0
    4.2061   -0.4916   -7.5649 F   0  0  0  0  0  0  0  0  0  0  0  0
    4.5091    0.9455   -5.9755 F   0  0  0  0  0  0  0  0  0  0  0  0
    3.2202   -0.8449   -5.6551 F   0  0  0  0  0  0  0  0  0  0  0  0
   -3.5437   -1.4434   -4.4685 H   0  0  0  0  0  0  0  0  0  0  0  0
  1  7  1  0  0  0  0
  2  8  1  0  0  0  0
  2  1  2  0  0  0  0
  3  2  1  0  0  0  0
  4  3  2  0  0  0  0
  4  5  1  0  0  0  0
  5  6  2  0  0  0  0
  6  1  1  0  0  0  0
  6 21  1  0  0  0  0
  9  4  1  0  0  0  0
 10  5  1  0  0  0  0
 11  3  1  0  0  0  0
 12 11  2  0  0  0  0
 13 14  1  0  0  0  0
 14 19  1  0  0  0  0
 14 20  1  0  0  0  0
 15 13  1  0  0  0  0
 17 13  1  0  0  0  0
 18 14  1  0  0  0  0
M  RAD  4  12   2  15   2  16   3  17   2
M  END
