Coordinates from ORCA-job Ph-N2-X-OTf-B3LYPG-6-31G_dp-scan-d09-49-n400
 OpenBabel08281821163D

 21 20  0  0  0  0  0  0  0  0999 V2000
   -2.2256   -1.0065   -5.4943 C   0  0  0  0  0  0  0  0  0  0  0  0
   -0.9408   -0.5205   -5.2667 C   0  0  0  0  0  0  0  0  0  0  0  0
   -0.7929    0.8281   -4.9060 C   0  0  0  0  0  0  0  0  0  0  0  0
   -1.9023    1.6671   -4.7300 C   0  0  0  0  0  0  0  0  0  0  0  0
   -3.1745    1.1701   -4.9916 C   0  0  0  0  0  0  0  0  0  0  0  0
   -3.3355   -0.1656   -5.3722 C   0  0  0  0  0  0  0  0  0  0  0  0
   -2.3582   -2.0483   -5.7672 H   0  0  0  0  0  0  0  0  0  0  0  0
   -0.0847   -1.1819   -5.3339 H   0  0  0  0  0  0  0  0  0  0  0  0
   -1.7443    2.6916   -4.4115 H   0  0  0  0  0  0  0  0  0  0  0  0
   -4.0393    1.8164   -4.8838 H   0  0  0  0  0  0  0  0  0  0  0  0
    0.4623    1.4121   -4.6097 N   0  0  0  0  0  0  0  0  0  0  0  0
    1.5711    1.2322   -5.0088 N   0  0  0  0  0  0  0  0  0  0  0  0
    1.9749   -0.0285   -6.5886 S   0  0  0  0  0  0  0  0  0  0  0  0
    3.7370    0.6361   -6.8024 C   0  0  0  0  0  0  0  0  0  0  0  0
    1.2108    0.3604   -7.7833 O   0  0  0  0  0  0  0  0  0  0  0  0
    3.8319    2.9146   -4.2249 O   0  0  0  0  0  0  0  0  0  0  0  0
    2.1079   -1.4364   -6.1743 O   0  0  0  0  0  0  0  0  0  0  0  0
    4.2902   -0.0116   -7.8291 F   0  0  0  0  0  0  0  0  0  0  0  0
    3.6808    1.9336   -7.0635 F   0  0  0  0  0  0  0  0  0  0  0  0
    4.4234    0.4009   -5.6953 F   0  0  0  0  0  0  0  0  0  0  0  0
   -4.3305   -0.5571   -5.5601 H   0  0  0  0  0  0  0  0  0  0  0  0
  1  6  2  0  0  0  0
  1  2  1  0  0  0  0
  2  3  2  0  0  0  0
  3  4  1  0  0  0  0
  3 11  1  0  0  0  0
  4  9  1  0  0  0  0
  5 10  1  0  0  0  0
  5  4  2  0  0  0  0
  6  5  1  0  0  0  0
  7  1  1  0  0  0  0
  8  2  1  0  0  0  0
 12 11  2  0  0  0  0
 13 17  2  0  0  0  0
 13 12  1  0  0  0  0
 14 13  1  0  0  0  0
 14 20  1  0  0  0  0
 15 13  2  0  0  0  0
 18 14  1  0  0  0  0
 19 14  1  0  0  0  0
 21  6  1  0  0  0  0
M  RAD  1  16   3
M  END
