Coordinates from ORCA-job Ph-N2-X-OTf-B3LYPG-6-31G_dp-scan-d09-49-n400
 OpenBabel08281821163D

 21 21  0  0  0  0  0  0  0  0999 V2000
   -2.1556   -0.9892   -5.4167 C   0  0  0  0  0  0  0  0  0  0  0  0
   -0.8853   -0.4970   -5.1305 C   0  0  0  0  0  0  0  0  0  0  0  0
   -0.7299    0.8731   -4.8584 C   0  0  0  0  0  0  0  0  0  0  0  0
   -1.8454    1.7256   -4.8259 C   0  0  0  0  0  0  0  0  0  0  0  0
   -3.1034    1.2222   -5.1385 C   0  0  0  0  0  0  0  0  0  0  0  0
   -3.2609   -0.1347   -5.4356 C   0  0  0  0  0  0  0  0  0  0  0  0
   -2.2814   -2.0479   -5.6206 H   0  0  0  0  0  0  0  0  0  0  0  0
   -0.0395   -1.1729   -5.0749 H   0  0  0  0  0  0  0  0  0  0  0  0
   -1.6995    2.7695   -4.5709 H   0  0  0  0  0  0  0  0  0  0  0  0
   -3.9635    1.8842   -5.1360 H   0  0  0  0  0  0  0  0  0  0  0  0
    0.4908    1.4688   -4.4822 N   0  0  0  0  0  0  0  0  0  0  0  0
    1.5909    1.1564   -4.9341 N   0  0  0  0  0  0  0  0  0  0  0  0
    2.0628    0.0478   -6.3858 S   0  0  0  0  0  0  0  0  0  0  0  0
    3.7435    0.7983   -6.8923 C   0  0  0  0  0  0  0  0  0  0  0  0
    1.1326    0.3374   -7.4704 O   0  0  0  0  0  0  0  0  0  0  0  0
    2.9350    1.7046   -4.3860 O   0  0  0  0  0  0  0  0  0  0  0  0
    2.3024   -1.2974   -5.8757 O   0  0  0  0  0  0  0  0  0  0  0  0
    3.9541    0.2336   -8.0901 F   0  0  0  0  0  0  0  0  0  0  0  0
    3.6515    2.1059   -7.0359 F   0  0  0  0  0  0  0  0  0  0  0  0
    4.7083    0.4478   -6.0719 F   0  0  0  0  0  0  0  0  0  0  0  0
   -4.2459   -0.5292   -5.6649 H   0  0  0  0  0  0  0  0  0  0  0  0
  1  2  1  0  0  0  0
  2  8  1  0  0  0  0
  2  3  2  0  0  0  0
  3  4  1  0  0  0  0
  3 11  1  0  0  0  0
  4  9  1  0  0  0  0
  5 10  1  0  0  0  0
  5  4  2  0  0  0  0
  6  1  2  0  0  0  0
  6  5  1  0  0  0  0
  7  1  1  0  0  0  0
 12 11  1  0  0  0  0
 12 16  1  0  0  0  0
 13 17  2  0  0  0  0
 13 12  1  0  0  0  0
 14 13  1  0  0  0  0
 14 20  1  0  0  0  0
 15 13  2  0  0  0  0
 18 14  1  0  0  0  0
 19 14  1  0  0  0  0
 21  6  1  0  0  0  0
M  RAD  2  11   2  16   2
M  END
