Coordinates from ORCA-job Ph-N2-X-OTf-B3LYPG-6-31G_dp-scan-d09-49-n400
 OpenBabel08281821163D

 21 19  0  0  0  0  0  0  0  0999 V2000
   -1.4466   -0.9237   -4.6308 C   0  0  0  0  0  0  0  0  0  0  0  0
   -0.5160    0.0687   -4.9276 C   0  0  0  0  0  0  0  0  0  0  0  0
   -1.0160    1.3419   -5.2406 C   0  0  0  0  0  0  0  0  0  0  0  0
   -2.3850    1.6470   -5.2338 C   0  0  0  0  0  0  0  0  0  0  0  0
   -3.2887    0.6288   -4.9570 C   0  0  0  0  0  0  0  0  0  0  0  0
   -2.8183   -0.6541   -4.6548 C   0  0  0  0  0  0  0  0  0  0  0  0
   -1.0908   -1.9182   -4.3822 H   0  0  0  0  0  0  0  0  0  0  0  0
    0.5541   -0.1307   -4.8903 H   0  0  0  0  0  0  0  0  0  0  0  0
   -2.7133    2.6554   -5.4598 H   0  0  0  0  0  0  0  0  0  0  0  0
   -4.3538    0.8354   -4.9660 H   0  0  0  0  0  0  0  0  0  0  0  0
   -0.1434    2.4082   -5.5229 N   0  0  0  0  0  0  0  0  0  0  0  0
    0.8790    2.7590   -5.9330 N   0  0  0  0  0  0  0  0  0  0  0  0
    2.1039    1.1762   -7.2257 S   0  0  0  0  0  0  0  0  0  0  0  0
    3.6368    0.1987   -6.5949 C   0  0  0  0  0  0  0  0  0  0  0  0
    2.7754    2.0313   -8.2326 O   0  0  0  0  0  0  0  0  0  0  0  0
    2.5729   -0.2168   -4.3865 O   0  0  0  0  0  0  0  0  0  0  0  0
    1.1975    0.0832   -7.6635 O   0  0  0  0  0  0  0  0  0  0  0  0
    4.2312   -0.4722   -7.5605 F   0  0  0  0  0  0  0  0  0  0  0  0
    4.5026    0.9165   -5.9231 F   0  0  0  0  0  0  0  0  0  0  0  0
    3.2060   -0.8821   -5.6837 F   0  0  0  0  0  0  0  0  0  0  0  0
   -3.5258   -1.4458   -4.4279 H   0  0  0  0  0  0  0  0  0  0  0  0
  1  7  1  0  0  0  0
  2  8  1  0  0  0  0
  2  1  2  0  0  0  0
  3  4  2  0  0  0  0
  3  2  1  0  0  0  0
  4  5  1  0  0  0  0
  5  6  2  0  0  0  0
  6  1  1  0  0  0  0
  6 21  1  0  0  0  0
  9  4  1  0  0  0  0
 10  5  1  0  0  0  0
 11  3  1  0  0  0  0
 12 11  2  0  0  0  0
 13 14  1  0  0  0  0
 14 19  1  0  0  0  0
 14 20  1  0  0  0  0
 15 13  1  0  0  0  0
 17 13  1  0  0  0  0
 18 14  1  0  0  0  0
M  RAD  4  12   2  15   2  16   3  17   2
M  END
