Coordinates from ORCA-job Ph-N2-X-OTf-B3LYPG-6-31G_dp-scan-d09-49-n400
 OpenBabel08281821163D

 21 20  0  0  0  0  0  0  0  0999 V2000
   -1.9829   -1.0464   -5.2034 C   0  0  0  0  0  0  0  0  0  0  0  0
   -0.7848   -0.5431   -4.6964 C   0  0  0  0  0  0  0  0  0  0  0  0
   -0.6011    0.8454   -4.6119 C   0  0  0  0  0  0  0  0  0  0  0  0
   -1.6326    1.7201   -4.9836 C   0  0  0  0  0  0  0  0  0  0  0  0
   -2.8251    1.2053   -5.4799 C   0  0  0  0  0  0  0  0  0  0  0  0
   -3.0012   -0.1778   -5.5960 C   0  0  0  0  0  0  0  0  0  0  0  0
   -2.1185   -2.1205   -5.2843 H   0  0  0  0  0  0  0  0  0  0  0  0
    0.0007   -1.2146   -4.3677 H   0  0  0  0  0  0  0  0  0  0  0  0
   -1.4786    2.7896   -4.8853 H   0  0  0  0  0  0  0  0  0  0  0  0
   -3.6188    1.8823   -5.7804 H   0  0  0  0  0  0  0  0  0  0  0  0
    0.5582    1.4001   -4.0300 N   0  0  0  0  0  0  0  0  0  0  0  0
    1.7013    1.1845   -4.5408 N   0  0  0  0  0  0  0  0  0  0  0  0
    1.7136    0.1725   -6.5416 S   0  0  0  0  0  0  0  0  0  0  0  0
    3.4544    0.8044   -6.9958 C   0  0  0  0  0  0  0  0  0  0  0  0
    0.8254    0.8065   -7.5282 O   0  0  0  0  0  0  0  0  0  0  0  0
    2.6780    1.4017   -4.2211 O   0  0  0  0  0  0  0  0  0  0  0  0
    1.8534   -1.2907   -6.4329 O   0  0  0  0  0  0  0  0  0  0  0  0
    3.6848    0.5085   -8.2728 F   0  0  0  0  0  0  0  0  0  0  0  0
    3.4940    2.1297   -6.8308 F   0  0  0  0  0  0  0  0  0  0  0  0
    4.3749    0.2246   -6.2287 F   0  0  0  0  0  0  0  0  0  0  0  0
   -3.9333   -0.5751   -5.9858 H   0  0  0  0  0  0  0  0  0  0  0  0
  1  2  2  0  0  0  0
  2  3  1  0  0  0  0
  2  8  1  0  0  0  0
  3 11  1  0  0  0  0
  4  9  1  0  0  0  0
  4  3  2  0  0  0  0
  5  4  1  0  0  0  0
  6  5  2  0  0  0  0
  6  1  1  0  0  0  0
  7  1  1  0  0  0  0
 10  5  1  0  0  0  0
 12 16  2  0  0  0  0
 12 11  1  0  0  0  0
 13 17  1  0  0  0  0
 14 19  1  0  0  0  0
 14 13  1  0  0  0  0
 14 20  1  0  0  0  0
 15 13  1  0  0  0  0
 18 14  1  0  0  0  0
 21  6  1  0  0  0  0
M  RAD  3  11   2  15   2  17   2
M  END
