Coordinates from ORCA-job Ph-N2-X-OTf-B3LYPG-6-31G_dp-scan-d09-49-n400
 OpenBabel08281821163D

 21 19  0  0  0  0  0  0  0  0999 V2000
   -1.5105   -0.9674   -4.7019 C   0  0  0  0  0  0  0  0  0  0  0  0
   -0.5376   -0.0026   -4.9499 C   0  0  0  0  0  0  0  0  0  0  0  0
   -0.9786    1.3056   -5.1976 C   0  0  0  0  0  0  0  0  0  0  0  0
   -2.3314    1.6712   -5.1680 C   0  0  0  0  0  0  0  0  0  0  0  0
   -3.2801    0.6809   -4.9433 C   0  0  0  0  0  0  0  0  0  0  0  0
   -2.8687   -0.6359   -4.7096 C   0  0  0  0  0  0  0  0  0  0  0  0
   -1.2004   -1.9882   -4.5040 H   0  0  0  0  0  0  0  0  0  0  0  0
    0.5239   -0.2361   -4.9207 H   0  0  0  0  0  0  0  0  0  0  0  0
   -2.6144    2.7039   -5.3391 H   0  0  0  0  0  0  0  0  0  0  0  0
   -4.3348    0.9357   -4.9387 H   0  0  0  0  0  0  0  0  0  0  0  0
   -0.0547    2.3462   -5.4270 N   0  0  0  0  0  0  0  0  0  0  0  0
    0.9769    2.6250   -5.8785 N   0  0  0  0  0  0  0  0  0  0  0  0
    2.0353    1.0513   -7.2727 S   0  0  0  0  0  0  0  0  0  0  0  0
    3.6557    0.2814   -6.5892 C   0  0  0  0  0  0  0  0  0  0  0  0
    2.6018    1.9106   -8.3373 O   0  0  0  0  0  0  0  0  0  0  0  0
    2.5629    0.0029   -4.3911 O   0  0  0  0  0  0  0  0  0  0  0  0
    1.2414   -0.1505   -7.6317 O   0  0  0  0  0  0  0  0  0  0  0  0
    4.3008   -0.4206   -7.4983 F   0  0  0  0  0  0  0  0  0  0  0  0
    4.4570    1.1351   -6.0013 F   0  0  0  0  0  0  0  0  0  0  0  0
    3.3284   -0.7361   -5.5750 F   0  0  0  0  0  0  0  0  0  0  0  0
   -3.6112   -1.4055   -4.5222 H   0  0  0  0  0  0  0  0  0  0  0  0
  1  7  1  0  0  0  0
  2  8  1  0  0  0  0
  2  1  2  0  0  0  0
  3  4  2  0  0  0  0
  3  2  1  0  0  0  0
  4  5  1  0  0  0  0
  5 10  1  0  0  0  0
  5  6  2  0  0  0  0
  6  1  1  0  0  0  0
  6 21  1  0  0  0  0
  9  4  1  0  0  0  0
 11  3  1  0  0  0  0
 12 11  2  0  0  0  0
 13 14  1  0  0  0  0
 14 19  1  0  0  0  0
 14 20  1  0  0  0  0
 15 13  1  0  0  0  0
 17 13  1  0  0  0  0
 18 14  1  0  0  0  0
M  RAD  4  12   2  15   2  16   3  17   2
M  END
