Coordinates from ORCA-job Ph-N2-X-OTf-B3LYPG-6-31G_dp-scan-d09-49-n400
 OpenBabel08281821163D

 21 20  0  0  0  0  0  0  0  0999 V2000
   -2.2103   -0.9985   -5.4876 C   0  0  0  0  0  0  0  0  0  0  0  0
   -0.9253   -0.5136   -5.2621 C   0  0  0  0  0  0  0  0  0  0  0  0
   -0.7703    0.8390   -4.9156 C   0  0  0  0  0  0  0  0  0  0  0  0
   -1.8819    1.6803   -4.7516 C   0  0  0  0  0  0  0  0  0  0  0  0
   -3.1545    1.1864   -5.0157 C   0  0  0  0  0  0  0  0  0  0  0  0
   -3.3185   -0.1526   -5.3823 C   0  0  0  0  0  0  0  0  0  0  0  0
   -2.3457   -2.0437   -5.7459 H   0  0  0  0  0  0  0  0  0  0  0  0
   -0.0738   -1.1815   -5.3123 H   0  0  0  0  0  0  0  0  0  0  0  0
   -1.7215    2.7063   -4.4394 H   0  0  0  0  0  0  0  0  0  0  0  0
   -4.0174    1.8368   -4.9176 H   0  0  0  0  0  0  0  0  0  0  0  0
    0.4714    1.4414   -4.6075 N   0  0  0  0  0  0  0  0  0  0  0  0
    1.5842    1.2415   -5.0149 N   0  0  0  0  0  0  0  0  0  0  0  0
    2.0261    0.0229   -6.4862 S   0  0  0  0  0  0  0  0  0  0  0  0
    3.7721    0.6814   -6.8413 C   0  0  0  0  0  0  0  0  0  0  0  0
    1.1936    0.3499   -7.6465 O   0  0  0  0  0  0  0  0  0  0  0  0
    3.4045    2.5024   -4.2475 O   0  0  0  0  0  0  0  0  0  0  0  0
    2.1769   -1.3483   -5.9857 O   0  0  0  0  0  0  0  0  0  0  0  0
    4.1700    0.0197   -7.9341 F   0  0  0  0  0  0  0  0  0  0  0  0
    3.7194    1.9749   -7.0981 F   0  0  0  0  0  0  0  0  0  0  0  0
    4.5763    0.4056   -5.8353 F   0  0  0  0  0  0  0  0  0  0  0  0
   -4.3138   -0.5434   -5.5700 H   0  0  0  0  0  0  0  0  0  0  0  0
  1  6  2  0  0  0  0
  1  2  1  0  0  0  0
  2  3  2  0  0  0  0
  3  4  1  0  0  0  0
  3 11  1  0  0  0  0
  4  9  1  0  0  0  0
  5 10  1  0  0  0  0
  5  4  2  0  0  0  0
  6  5  1  0  0  0  0
  7  1  1  0  0  0  0
  8  2  1  0  0  0  0
 12 11  2  0  0  0  0
 13 17  2  0  0  0  0
 13 12  1  0  0  0  0
 14 13  1  0  0  0  0
 14 20  1  0  0  0  0
 15 13  2  0  0  0  0
 18 14  1  0  0  0  0
 19 14  1  0  0  0  0
 21  6  1  0  0  0  0
M  RAD  1  16   3
M  END
