Coordinates from ORCA-job Ph-N2-X-OTf-B3LYPG-6-31G_dp-scan-d09-49-n400
 OpenBabel08281821163D

 21 20  0  0  0  0  0  0  0  0999 V2000
   -2.2201   -0.9982   -5.5019 C   0  0  0  0  0  0  0  0  0  0  0  0
   -0.9331   -0.5164   -5.2793 C   0  0  0  0  0  0  0  0  0  0  0  0
   -0.7782    0.8301   -4.9118 C   0  0  0  0  0  0  0  0  0  0  0  0
   -1.8868    1.6692   -4.7246 C   0  0  0  0  0  0  0  0  0  0  0  0
   -3.1616    1.1777   -4.9832 C   0  0  0  0  0  0  0  0  0  0  0  0
   -3.3277   -0.1553   -5.3704 C   0  0  0  0  0  0  0  0  0  0  0  0
   -2.3570   -2.0385   -5.7784 H   0  0  0  0  0  0  0  0  0  0  0  0
   -0.0805   -1.1811   -5.3520 H   0  0  0  0  0  0  0  0  0  0  0  0
   -1.7241    2.6907   -4.3994 H   0  0  0  0  0  0  0  0  0  0  0  0
   -4.0241    1.8254   -4.8663 H   0  0  0  0  0  0  0  0  0  0  0  0
    0.4721    1.4220   -4.6143 N   0  0  0  0  0  0  0  0  0  0  0  0
    1.5824    1.2348   -5.0189 N   0  0  0  0  0  0  0  0  0  0  0  0
    2.0030   -0.0046   -6.5494 S   0  0  0  0  0  0  0  0  0  0  0  0
    3.7654    0.6442   -6.8151 C   0  0  0  0  0  0  0  0  0  0  0  0
    1.2128    0.3659   -7.7297 O   0  0  0  0  0  0  0  0  0  0  0  0
    3.5408    2.7746   -4.2602 O   0  0  0  0  0  0  0  0  0  0  0  0
    2.1313   -1.3990   -6.0992 O   0  0  0  0  0  0  0  0  0  0  0  0
    4.2641   -0.0364   -7.8504 F   0  0  0  0  0  0  0  0  0  0  0  0
    3.7203    1.9335   -7.1037 F   0  0  0  0  0  0  0  0  0  0  0  0
    4.4870    0.4119   -5.7334 F   0  0  0  0  0  0  0  0  0  0  0  0
   -4.3245   -0.5437   -5.5554 H   0  0  0  0  0  0  0  0  0  0  0  0
  1  6  2  0  0  0  0
  1  2  1  0  0  0  0
  2  3  2  0  0  0  0
  3  4  1  0  0  0  0
  3 11  1  0  0  0  0
  4  9  1  0  0  0  0
  5 10  1  0  0  0  0
  5  4  2  0  0  0  0
  6  5  1  0  0  0  0
  7  1  1  0  0  0  0
  8  2  1  0  0  0  0
 12 11  2  0  0  0  0
 13 17  2  0  0  0  0
 13 12  1  0  0  0  0
 14 13  1  0  0  0  0
 14 20  1  0  0  0  0
 15 13  2  0  0  0  0
 18 14  1  0  0  0  0
 19 14  1  0  0  0  0
 21  6  1  0  0  0  0
M  RAD  1  16   3
M  END
