Coordinates from ORCA-job Ph-N2-X-OTf-B3LYPG-6-31G_dp-scan-d09-49-n400
 OpenBabel08281821163D

 21 20  0  0  0  0  0  0  0  0999 V2000
   -2.2296   -1.0136   -5.4892 C   0  0  0  0  0  0  0  0  0  0  0  0
   -0.9464   -0.5253   -5.2570 C   0  0  0  0  0  0  0  0  0  0  0  0
   -0.8023    0.8253   -4.9025 C   0  0  0  0  0  0  0  0  0  0  0  0
   -1.9128    1.6646   -4.7367 C   0  0  0  0  0  0  0  0  0  0  0  0
   -3.1830    1.1647   -5.0024 C   0  0  0  0  0  0  0  0  0  0  0  0
   -3.3409   -0.1731   -5.3769 C   0  0  0  0  0  0  0  0  0  0  0  0
   -2.3597   -2.0568   -5.7579 H   0  0  0  0  0  0  0  0  0  0  0  0
   -0.0889   -1.1855   -5.3172 H   0  0  0  0  0  0  0  0  0  0  0  0
   -1.7578    2.6910   -4.4232 H   0  0  0  0  0  0  0  0  0  0  0  0
   -4.0489    1.8107   -4.9028 H   0  0  0  0  0  0  0  0  0  0  0  0
    0.4533    1.4071   -4.6031 N   0  0  0  0  0  0  0  0  0  0  0  0
    1.5626    1.2321   -4.9990 N   0  0  0  0  0  0  0  0  0  0  0  0
    1.9600   -0.0317   -6.5989 S   0  0  0  0  0  0  0  0  0  0  0  0
    3.7207    0.6401   -6.7926 C   0  0  0  0  0  0  0  0  0  0  0  0
    1.2055    0.3655   -7.7981 O   0  0  0  0  0  0  0  0  0  0  0  0
    4.0203    2.9528   -4.2368 O   0  0  0  0  0  0  0  0  0  0  0  0
    2.0967   -1.4451   -6.2010 O   0  0  0  0  0  0  0  0  0  0  0  0
    4.2928    0.0122   -7.8206 F   0  0  0  0  0  0  0  0  0  0  0  0
    3.6591    1.9422   -7.0344 F   0  0  0  0  0  0  0  0  0  0  0  0
    4.3956    0.3962   -5.6791 F   0  0  0  0  0  0  0  0  0  0  0  0
   -4.3345   -0.5665   -5.5680 H   0  0  0  0  0  0  0  0  0  0  0  0
  1  6  2  0  0  0  0
  1  2  1  0  0  0  0
  2  3  2  0  0  0  0
  3  4  1  0  0  0  0
  3 11  1  0  0  0  0
  4  9  1  0  0  0  0
  5 10  1  0  0  0  0
  5  4  2  0  0  0  0
  6  5  1  0  0  0  0
  7  1  1  0  0  0  0
  8  2  1  0  0  0  0
 12 11  2  0  0  0  0
 13 17  2  0  0  0  0
 13 12  1  0  0  0  0
 14 13  1  0  0  0  0
 14 20  1  0  0  0  0
 15 13  2  0  0  0  0
 18 14  1  0  0  0  0
 19 14  1  0  0  0  0
 21  6  1  0  0  0  0
M  RAD  1  16   3
M  END
