Coordinates from ORCA-job Ph-N2-X-OTf-B3LYPG-6-31G_dp-scan-d09-49-n400
 OpenBabel08281821163D

 21 21  0  0  0  0  0  0  0  0999 V2000
   -2.1195   -1.0049   -5.3479 C   0  0  0  0  0  0  0  0  0  0  0  0
   -0.8591   -0.5128   -5.0160 C   0  0  0  0  0  0  0  0  0  0  0  0
   -0.6963    0.8669   -4.8102 C   0  0  0  0  0  0  0  0  0  0  0  0
   -1.7970    1.7337   -4.8857 C   0  0  0  0  0  0  0  0  0  0  0  0
   -3.0445    1.2288   -5.2371 C   0  0  0  0  0  0  0  0  0  0  0  0
   -3.2086   -0.1399   -5.4706 C   0  0  0  0  0  0  0  0  0  0  0  0
   -2.2491   -2.0714   -5.5044 H   0  0  0  0  0  0  0  0  0  0  0  0
   -0.0246   -1.1923   -4.8822 H   0  0  0  0  0  0  0  0  0  0  0  0
   -1.6507    2.7889   -4.6814 H   0  0  0  0  0  0  0  0  0  0  0  0
   -3.8927    1.9014   -5.3173 H   0  0  0  0  0  0  0  0  0  0  0  0
    0.5198    1.4457   -4.3867 N   0  0  0  0  0  0  0  0  0  0  0  0
    1.6177    1.1247   -4.8566 N   0  0  0  0  0  0  0  0  0  0  0  0
    1.9969    0.0654   -6.4185 S   0  0  0  0  0  0  0  0  0  0  0  0
    3.6778    0.8245   -6.9133 C   0  0  0  0  0  0  0  0  0  0  0  0
    1.0489    0.4406   -7.4607 O   0  0  0  0  0  0  0  0  0  0  0  0
    2.8803    1.5522   -4.3353 O   0  0  0  0  0  0  0  0  0  0  0  0
    2.2331   -1.3126   -6.0015 O   0  0  0  0  0  0  0  0  0  0  0  0
    3.8641    0.3517   -8.1520 F   0  0  0  0  0  0  0  0  0  0  0  0
    3.5990    2.1421   -6.9533 F   0  0  0  0  0  0  0  0  0  0  0  0
    4.6526    0.4069   -6.1344 F   0  0  0  0  0  0  0  0  0  0  0  0
   -4.1862   -0.5327   -5.7321 H   0  0  0  0  0  0  0  0  0  0  0  0
  1  2  1  0  0  0  0
  2  8  1  0  0  0  0
  2  3  2  0  0  0  0
  3 11  1  0  0  0  0
  4  3  1  0  0  0  0
  4  9  1  0  0  0  0
  5  4  2  0  0  0  0
  6  1  2  0  0  0  0
  6  5  1  0  0  0  0
  7  1  1  0  0  0  0
 10  5  1  0  0  0  0
 12 11  1  0  0  0  0
 12 16  1  0  0  0  0
 13 17  2  0  0  0  0
 13 12  1  0  0  0  0
 14 13  1  0  0  0  0
 14 20  1  0  0  0  0
 15 13  2  0  0  0  0
 18 14  1  0  0  0  0
 19 14  1  0  0  0  0
 21  6  1  0  0  0  0
M  RAD  2  11   2  16   2
M  END
