Coordinates from ORCA-job Ph-N2-X-OTf-B3LYPG-6-31G_dp-scan-d09-49-n400
 OpenBabel08281821163D

 21 19  0  0  0  0  0  0  0  0999 V2000
   -1.4209   -0.9017   -4.6194 C   0  0  0  0  0  0  0  0  0  0  0  0
   -0.5076    0.0999   -4.9380 C   0  0  0  0  0  0  0  0  0  0  0  0
   -1.0289    1.3619   -5.2616 C   0  0  0  0  0  0  0  0  0  0  0  0
   -2.4018    1.6479   -5.2461 C   0  0  0  0  0  0  0  0  0  0  0  0
   -3.2881    0.6210   -4.9461 C   0  0  0  0  0  0  0  0  0  0  0  0
   -2.7964   -0.6511   -4.6321 C   0  0  0  0  0  0  0  0  0  0  0  0
   -1.0477   -1.8875   -4.3624 H   0  0  0  0  0  0  0  0  0  0  0  0
    0.5650   -0.0893   -4.9104 H   0  0  0  0  0  0  0  0  0  0  0  0
   -2.7464    2.6484   -5.4828 H   0  0  0  0  0  0  0  0  0  0  0  0
   -4.3561    0.8124   -4.9467 H   0  0  0  0  0  0  0  0  0  0  0  0
   -0.1731    2.4354   -5.5681 N   0  0  0  0  0  0  0  0  0  0  0  0
    0.8510    2.7845   -5.9754 N   0  0  0  0  0  0  0  0  0  0  0  0
    2.1097    1.1857   -7.2192 S   0  0  0  0  0  0  0  0  0  0  0  0
    3.6275    0.1878   -6.5796 C   0  0  0  0  0  0  0  0  0  0  0  0
    2.8042    2.0494   -8.2025 O   0  0  0  0  0  0  0  0  0  0  0  0
    2.5578   -0.3655   -4.3906 O   0  0  0  0  0  0  0  0  0  0  0  0
    1.2009    0.1067   -7.6858 O   0  0  0  0  0  0  0  0  0  0  0  0
    4.2575   -0.4310   -7.5575 F   0  0  0  0  0  0  0  0  0  0  0  0
    4.4653    0.8812   -5.8490 F   0  0  0  0  0  0  0  0  0  0  0  0
    3.1803   -0.9395   -5.7366 F   0  0  0  0  0  0  0  0  0  0  0  0
   -3.4904   -1.4495   -4.3875 H   0  0  0  0  0  0  0  0  0  0  0  0
  1  7  1  0  0  0  0
  2  8  1  0  0  0  0
  2  1  2  0  0  0  0
  3  4  2  0  0  0  0
  3  2  1  0  0  0  0
  4  5  1  0  0  0  0
  5  6  2  0  0  0  0
  6  1  1  0  0  0  0
  6 21  1  0  0  0  0
  9  4  1  0  0  0  0
 10  5  1  0  0  0  0
 11  3  1  0  0  0  0
 12 11  2  0  0  0  0
 13 14  1  0  0  0  0
 14 19  1  0  0  0  0
 14 20  1  0  0  0  0
 15 13  1  0  0  0  0
 17 13  1  0  0  0  0
 18 14  1  0  0  0  0
M  RAD  4  12   2  15   2  16   3  17   2
M  END
