Coordinates from ORCA-job Ph-N2-X-OTf-B3LYPG-6-31G_dp-scan-d09-49-n400
 OpenBabel08281821163D

 21 19  0  0  0  0  0  0  0  0999 V2000
   -1.4954   -0.9611   -4.6841 C   0  0  0  0  0  0  0  0  0  0  0  0
   -0.5327    0.0106   -4.9439 C   0  0  0  0  0  0  0  0  0  0  0  0
   -0.9876    1.3110   -5.2078 C   0  0  0  0  0  0  0  0  0  0  0  0
   -2.3445    1.6625   -5.1855 C   0  0  0  0  0  0  0  0  0  0  0  0
   -3.2825    0.6649   -4.9490 C   0  0  0  0  0  0  0  0  0  0  0  0
   -2.8570   -0.6441   -4.6972 C   0  0  0  0  0  0  0  0  0  0  0  0
   -1.1746   -1.9760   -4.4730 H   0  0  0  0  0  0  0  0  0  0  0  0
    0.5318   -0.2108   -4.9131 H   0  0  0  0  0  0  0  0  0  0  0  0
   -2.6386    2.6898   -5.3700 H   0  0  0  0  0  0  0  0  0  0  0  0
   -4.3399    0.9081   -4.9490 H   0  0  0  0  0  0  0  0  0  0  0  0
   -0.0741    2.3578   -5.4439 N   0  0  0  0  0  0  0  0  0  0  0  0
    0.9575    2.6579   -5.8787 N   0  0  0  0  0  0  0  0  0  0  0  0
    2.0565    1.0915   -7.2612 S   0  0  0  0  0  0  0  0  0  0  0  0
    3.6512    0.2542   -6.5943 C   0  0  0  0  0  0  0  0  0  0  0  0
    2.6544    1.9504   -8.3093 O   0  0  0  0  0  0  0  0  0  0  0  0
    2.5606   -0.0065   -4.3926 O   0  0  0  0  0  0  0  0  0  0  0  0
    1.2253   -0.0780   -7.6436 O   0  0  0  0  0  0  0  0  0  0  0  0
    4.2649   -0.4633   -7.5128 F   0  0  0  0  0  0  0  0  0  0  0  0
    4.4878    1.0691   -6.0009 F   0  0  0  0  0  0  0  0  0  0  0  0
    3.2899   -0.7622   -5.5873 F   0  0  0  0  0  0  0  0  0  0  0  0
   -3.5915   -1.4191   -4.5002 H   0  0  0  0  0  0  0  0  0  0  0  0
  1  7  1  0  0  0  0
  2  8  1  0  0  0  0
  2  1  2  0  0  0  0
  3  4  2  0  0  0  0
  3  2  1  0  0  0  0
  4  5  1  0  0  0  0
  5  6  2  0  0  0  0
  6  1  1  0  0  0  0
  6 21  1  0  0  0  0
  9  4  1  0  0  0  0
 10  5  1  0  0  0  0
 11  3  1  0  0  0  0
 12 11  2  0  0  0  0
 13 14  1  0  0  0  0
 14 19  1  0  0  0  0
 14 20  1  0  0  0  0
 15 13  1  0  0  0  0
 17 13  1  0  0  0  0
 18 14  1  0  0  0  0
M  RAD  4  12   2  15   2  16   3  17   2
M  END
