Coordinates from ORCA-job Ph-N2-X-OTf-B3LYPG-6-31G_dp-scan-d09-49-n400
 OpenBabel08281821163D

 21 19  0  0  0  0  0  0  0  0999 V2000
   -1.5154   -0.9708   -4.7076 C   0  0  0  0  0  0  0  0  0  0  0  0
   -0.5399   -0.0081   -4.9533 C   0  0  0  0  0  0  0  0  0  0  0  0
   -0.9765    1.3027   -5.1956 C   0  0  0  0  0  0  0  0  0  0  0  0
   -2.3280    1.6730   -5.1636 C   0  0  0  0  0  0  0  0  0  0  0  0
   -3.2794    0.6847   -4.9418 C   0  0  0  0  0  0  0  0  0  0  0  0
   -2.8723   -0.6343   -4.7131 C   0  0  0  0  0  0  0  0  0  0  0  0
   -1.2086   -1.9934   -4.5137 H   0  0  0  0  0  0  0  0  0  0  0  0
    0.5217   -0.2420   -4.9269 H   0  0  0  0  0  0  0  0  0  0  0  0
   -2.6078    2.7073   -5.3304 H   0  0  0  0  0  0  0  0  0  0  0  0
   -4.3333    0.9428   -4.9355 H   0  0  0  0  0  0  0  0  0  0  0  0
   -0.0475    2.3402   -5.4195 N   0  0  0  0  0  0  0  0  0  0  0  0
    0.9852    2.6141   -5.8719 N   0  0  0  0  0  0  0  0  0  0  0  0
    2.0313    1.0421   -7.2746 S   0  0  0  0  0  0  0  0  0  0  0  0
    3.6575    0.2878   -6.5889 C   0  0  0  0  0  0  0  0  0  0  0  0
    2.5899    1.8995   -8.3448 O   0  0  0  0  0  0  0  0  0  0  0  0
    2.5588    0.0184   -4.3939 O   0  0  0  0  0  0  0  0  0  0  0  0
    1.2445   -0.1666   -7.6256 O   0  0  0  0  0  0  0  0  0  0  0  0
    4.3066   -0.4164   -7.4935 F   0  0  0  0  0  0  0  0  0  0  0  0
    4.4536    1.1518   -6.0087 F   0  0  0  0  0  0  0  0  0  0  0  0
    3.3388   -0.7239   -5.5667 F   0  0  0  0  0  0  0  0  0  0  0  0
   -3.6175   -1.4019   -4.5278 H   0  0  0  0  0  0  0  0  0  0  0  0
  1  7  1  0  0  0  0
  2  8  1  0  0  0  0
  2  1  2  0  0  0  0
  3  4  2  0  0  0  0
  3  2  1  0  0  0  0
  4  5  1  0  0  0  0
  5 10  1  0  0  0  0
  5  6  2  0  0  0  0
  6  1  1  0  0  0  0
  6 21  1  0  0  0  0
  9  4  1  0  0  0  0
 11  3  1  0  0  0  0
 12 11  2  0  0  0  0
 13 14  1  0  0  0  0
 14 19  1  0  0  0  0
 14 20  1  0  0  0  0
 15 13  1  0  0  0  0
 17 13  1  0  0  0  0
 18 14  1  0  0  0  0
M  RAD  4  12   2  15   2  16   3  17   2
M  END
