Coordinates from ORCA-job Ph-N2-X-OTf-B3LYPG-6-31G_dp-scan-d09-49-n400
 OpenBabel08281821163D

 21 20  0  0  0  0  0  0  0  0999 V2000
   -2.2021   -0.9850   -5.4872 C   0  0  0  0  0  0  0  0  0  0  0  0
   -0.9220   -0.4927   -5.2542 C   0  0  0  0  0  0  0  0  0  0  0  0
   -0.7711    0.8636   -4.9161 C   0  0  0  0  0  0  0  0  0  0  0  0
   -1.8905    1.6998   -4.7693 C   0  0  0  0  0  0  0  0  0  0  0  0
   -3.1588    1.1988   -5.0395 C   0  0  0  0  0  0  0  0  0  0  0  0
   -3.3152   -0.1432   -5.3982 C   0  0  0  0  0  0  0  0  0  0  0  0
   -2.3309   -2.0330   -5.7376 H   0  0  0  0  0  0  0  0  0  0  0  0
   -0.0693   -1.1602   -5.2855 H   0  0  0  0  0  0  0  0  0  0  0  0
   -1.7373    2.7289   -4.4638 H   0  0  0  0  0  0  0  0  0  0  0  0
   -4.0249    1.8466   -4.9526 H   0  0  0  0  0  0  0  0  0  0  0  0
    0.4583    1.4764   -4.5948 N   0  0  0  0  0  0  0  0  0  0  0  0
    1.5687    1.2279   -5.0119 N   0  0  0  0  0  0  0  0  0  0  0  0
    2.0878    0.0420   -6.3792 S   0  0  0  0  0  0  0  0  0  0  0  0
    3.7949    0.7442   -6.8655 C   0  0  0  0  0  0  0  0  0  0  0  0
    1.2027    0.2721   -7.5184 O   0  0  0  0  0  0  0  0  0  0  0  0
    3.1985    2.0688   -4.3416 O   0  0  0  0  0  0  0  0  0  0  0  0
    2.2947   -1.2805   -5.7924 O   0  0  0  0  0  0  0  0  0  0  0  0
    4.0463    0.0978   -8.0144 F   0  0  0  0  0  0  0  0  0  0  0  0
    3.7215    2.0380   -7.1002 F   0  0  0  0  0  0  0  0  0  0  0  0
    4.7176    0.4362   -5.9838 F   0  0  0  0  0  0  0  0  0  0  0  0
   -4.3073   -0.5395   -5.5914 H   0  0  0  0  0  0  0  0  0  0  0  0
  1  6  2  0  0  0  0
  1  2  1  0  0  0  0
  2  3  2  0  0  0  0
  3  4  1  0  0  0  0
  3 11  1  0  0  0  0
  4  9  1  0  0  0  0
  5 10  1  0  0  0  0
  5  4  2  0  0  0  0
  6  5  1  0  0  0  0
  7  1  1  0  0  0  0
  8  2  1  0  0  0  0
 12 11  2  0  0  0  0
 13 17  2  0  0  0  0
 13 12  1  0  0  0  0
 14 13  1  0  0  0  0
 14 20  1  0  0  0  0
 15 13  2  0  0  0  0
 18 14  1  0  0  0  0
 19 14  1  0  0  0  0
 21  6  1  0  0  0  0
M  RAD  1  16   3
M  END
