Coordinates from ORCA-job Ph-N2-X-OTf-B3LYPG-6-31G_dp-scan-d09-49-n400
 OpenBabel08281821163D

 21 20  0  0  0  0  0  0  0  0999 V2000
   -2.2327   -1.0166   -5.4885 C   0  0  0  0  0  0  0  0  0  0  0  0
   -0.9503   -0.5259   -5.2564 C   0  0  0  0  0  0  0  0  0  0  0  0
   -0.8089    0.8252   -4.9029 C   0  0  0  0  0  0  0  0  0  0  0  0
   -1.9206    1.6630   -4.7381 C   0  0  0  0  0  0  0  0  0  0  0  0
   -3.1899    1.1605   -5.0034 C   0  0  0  0  0  0  0  0  0  0  0  0
   -3.3454   -0.1780   -5.3767 C   0  0  0  0  0  0  0  0  0  0  0  0
   -2.3609   -2.0601   -5.7565 H   0  0  0  0  0  0  0  0  0  0  0  0
   -0.0915   -1.1843   -5.3164 H   0  0  0  0  0  0  0  0  0  0  0  0
   -1.7675    2.6900   -4.4258 H   0  0  0  0  0  0  0  0  0  0  0  0
   -4.0570    1.8051   -4.9046 H   0  0  0  0  0  0  0  0  0  0  0  0
    0.4466    1.4077   -4.6043 N   0  0  0  0  0  0  0  0  0  0  0  0
    1.5560    1.2347   -4.9991 N   0  0  0  0  0  0  0  0  0  0  0  0
    1.9538   -0.0330   -6.6054 S   0  0  0  0  0  0  0  0  0  0  0  0
    3.7149    0.6418   -6.7836 C   0  0  0  0  0  0  0  0  0  0  0  0
    1.2084    0.3672   -7.8098 O   0  0  0  0  0  0  0  0  0  0  0  0
    4.1224    2.9685   -4.2536 O   0  0  0  0  0  0  0  0  0  0  0  0
    2.0906   -1.4487   -6.2138 O   0  0  0  0  0  0  0  0  0  0  0  0
    4.3000    0.0214   -7.8084 F   0  0  0  0  0  0  0  0  0  0  0  0
    3.6520    1.9456   -7.0186 F   0  0  0  0  0  0  0  0  0  0  0  0
    4.3800    0.3960   -5.6638 F   0  0  0  0  0  0  0  0  0  0  0  0
   -4.3384   -0.5732   -5.5674 H   0  0  0  0  0  0  0  0  0  0  0  0
  1  6  2  0  0  0  0
  1  2  1  0  0  0  0
  2  3  2  0  0  0  0
  3  4  1  0  0  0  0
  3 11  1  0  0  0  0
  4  9  1  0  0  0  0
  5 10  1  0  0  0  0
  5  4  2  0  0  0  0
  6  5  1  0  0  0  0
  7  1  1  0  0  0  0
  8  2  1  0  0  0  0
 12 11  2  0  0  0  0
 13 17  2  0  0  0  0
 13 12  1  0  0  0  0
 14 13  1  0  0  0  0
 14 20  1  0  0  0  0
 15 13  2  0  0  0  0
 18 14  1  0  0  0  0
 19 14  1  0  0  0  0
 21  6  1  0  0  0  0
M  RAD  1  16   3
M  END
