Coordinates from ORCA-job Ph-N2-X-OTf-B3LYPG-6-31G_dp-scan-d09-49-n400
 OpenBabel08281821163D

 21 21  0  0  0  0  0  0  0  0999 V2000
   -2.0206   -1.0394   -5.2268 C   0  0  0  0  0  0  0  0  0  0  0  0
   -0.8022   -0.5375   -4.7690 C   0  0  0  0  0  0  0  0  0  0  0  0
   -0.6251    0.8507   -4.6690 C   0  0  0  0  0  0  0  0  0  0  0  0
   -1.6782    1.7250   -4.9730 C   0  0  0  0  0  0  0  0  0  0  0  0
   -2.8871    1.2100   -5.4289 C   0  0  0  0  0  0  0  0  0  0  0  0
   -3.0603   -0.1718   -5.5612 C   0  0  0  0  0  0  0  0  0  0  0  0
   -2.1552   -2.1133   -5.3137 H   0  0  0  0  0  0  0  0  0  0  0  0
   -0.0030   -1.2107   -4.4789 H   0  0  0  0  0  0  0  0  0  0  0  0
   -1.5283    2.7932   -4.8574 H   0  0  0  0  0  0  0  0  0  0  0  0
   -3.6976    1.8870   -5.6806 H   0  0  0  0  0  0  0  0  0  0  0  0
    0.5566    1.4093   -4.1320 N   0  0  0  0  0  0  0  0  0  0  0  0
    1.6756    1.1487   -4.6369 N   0  0  0  0  0  0  0  0  0  0  0  0
    1.7903    0.1555   -6.5110 S   0  0  0  0  0  0  0  0  0  0  0  0
    3.5214    0.8180   -6.9691 C   0  0  0  0  0  0  0  0  0  0  0  0
    0.8767    0.7510   -7.4898 O   0  0  0  0  0  0  0  0  0  0  0  0
    2.7476    1.4059   -4.2432 O   0  0  0  0  0  0  0  0  0  0  0  0
    1.9442   -1.2935   -6.3350 O   0  0  0  0  0  0  0  0  0  0  0  0
    3.7165    0.4851   -8.2455 F   0  0  0  0  0  0  0  0  0  0  0  0
    3.5397    2.1415   -6.8467 F   0  0  0  0  0  0  0  0  0  0  0  0
    4.4573    0.2608   -6.2153 F   0  0  0  0  0  0  0  0  0  0  0  0
   -4.0068   -0.5688   -5.9145 H   0  0  0  0  0  0  0  0  0  0  0  0
  1  2  2  0  0  0  0
  2  3  1  0  0  0  0
  2  8  1  0  0  0  0
  3 11  1  0  0  0  0
  4  9  1  0  0  0  0
  4  3  2  0  0  0  0
  5  4  1  0  0  0  0
  6  5  2  0  0  0  0
  6  1  1  0  0  0  0
  7  1  1  0  0  0  0
 10  5  1  0  0  0  0
 12 16  1  0  0  0  0
 12 11  1  0  0  0  0
 13 17  2  0  0  0  0
 13 12  1  0  0  0  0
 14 19  1  0  0  0  0
 14 13  1  0  0  0  0
 14 20  1  0  0  0  0
 15 13  2  0  0  0  0
 18 14  1  0  0  0  0
 21  6  1  0  0  0  0
M  RAD  2  11   2  16   2
M  END
