Coordinates from ORCA-job Ph-N2-X-OTf-B3LYPG-6-31G_dp-scan-d09-49-n400
 OpenBabel08281821163D

 21 20  0  0  0  0  0  0  0  0999 V2000
   -2.1994   -0.9822   -5.4839 C   0  0  0  0  0  0  0  0  0  0  0  0
   -0.9201   -0.4892   -5.2478 C   0  0  0  0  0  0  0  0  0  0  0  0
   -0.7689    0.8679   -4.9128 C   0  0  0  0  0  0  0  0  0  0  0  0
   -1.8892    1.7043   -4.7722 C   0  0  0  0  0  0  0  0  0  0  0  0
   -3.1568    1.2025   -5.0442 C   0  0  0  0  0  0  0  0  0  0  0  0
   -3.3128   -0.1403   -5.4001 C   0  0  0  0  0  0  0  0  0  0  0  0
   -2.3273   -2.0309   -5.7320 H   0  0  0  0  0  0  0  0  0  0  0  0
   -0.0675   -1.1573   -5.2738 H   0  0  0  0  0  0  0  0  0  0  0  0
   -1.7372    2.7344   -4.4697 H   0  0  0  0  0  0  0  0  0  0  0  0
   -4.0230    1.8507   -4.9613 H   0  0  0  0  0  0  0  0  0  0  0  0
    0.4589    1.4797   -4.5878 N   0  0  0  0  0  0  0  0  0  0  0  0
    1.5671    1.2159   -5.0096 N   0  0  0  0  0  0  0  0  0  0  0  0
    2.0972    0.0415   -6.3693 S   0  0  0  0  0  0  0  0  0  0  0  0
    3.7969    0.7553   -6.8676 C   0  0  0  0  0  0  0  0  0  0  0  0
    1.2048    0.2639   -7.5034 O   0  0  0  0  0  0  0  0  0  0  0  0
    3.1440    1.9949   -4.3673 O   0  0  0  0  0  0  0  0  0  0  0  0
    2.3136   -1.2768   -5.7791 O   0  0  0  0  0  0  0  0  0  0  0  0
    4.0364    0.1120   -8.0211 F   0  0  0  0  0  0  0  0  0  0  0  0
    3.7170    2.0491   -7.0996 F   0  0  0  0  0  0  0  0  0  0  0  0
    4.7325    0.4482   -5.9996 F   0  0  0  0  0  0  0  0  0  0  0  0
   -4.3044   -0.5370   -5.5950 H   0  0  0  0  0  0  0  0  0  0  0  0
  1  6  2  0  0  0  0
  1  2  1  0  0  0  0
  2  3  2  0  0  0  0
  3  4  1  0  0  0  0
  3 11  1  0  0  0  0
  4  9  1  0  0  0  0
  5 10  1  0  0  0  0
  5  4  2  0  0  0  0
  6  5  1  0  0  0  0
  7  1  1  0  0  0  0
  8  2  1  0  0  0  0
 12 11  2  0  0  0  0
 13 17  2  0  0  0  0
 13 12  1  0  0  0  0
 14 13  1  0  0  0  0
 14 20  1  0  0  0  0
 15 13  2  0  0  0  0
 18 14  1  0  0  0  0
 19 14  1  0  0  0  0
 21  6  1  0  0  0  0
M  RAD  1  16   3
M  END
