Coordinates from ORCA-job Ph-N2-X-OTf-B3LYPG-6-31G_dp-scan-d09-49-n400
 OpenBabel08281821163D

 21 19  0  0  0  0  0  0  0  0999 V2000
   -1.0209   -0.7314   -4.4589 C   0  0  0  0  0  0  0  0  0  0  0  0
   -0.2466    0.3749   -4.7974 C   0  0  0  0  0  0  0  0  0  0  0  0
   -0.9024    1.5125   -5.2808 C   0  0  0  0  0  0  0  0  0  0  0  0
   -2.2965    1.5970   -5.3805 C   0  0  0  0  0  0  0  0  0  0  0  0
   -3.0465    0.4734   -5.0509 C   0  0  0  0  0  0  0  0  0  0  0  0
   -2.4105   -0.6875   -4.5933 C   0  0  0  0  0  0  0  0  0  0  0  0
   -0.5100   -1.6193   -4.1024 H   0  0  0  0  0  0  0  0  0  0  0  0
    0.8252    0.3376   -4.6414 H   0  0  0  0  0  0  0  0  0  0  0  0
   -2.7608    2.5105   -5.7349 H   0  0  0  0  0  0  0  0  0  0  0  0
   -4.1272    0.5032   -5.1461 H   0  0  0  0  0  0  0  0  0  0  0  0
   -0.1455    2.6538   -5.6310 N   0  0  0  0  0  0  0  0  0  0  0  0
    0.8592    2.9303   -6.1510 N   0  0  0  0  0  0  0  0  0  0  0  0
    1.9561    1.3197   -7.4234 S   0  0  0  0  0  0  0  0  0  0  0  0
    3.0844    0.1014   -6.4451 C   0  0  0  0  0  0  0  0  0  0  0  0
    2.9672    2.1363   -8.1221 O   0  0  0  0  0  0  0  0  0  0  0  0
    2.2643   -1.4194   -4.4713 O   0  0  0  0  0  0  0  0  0  0  0  0
    1.0323    0.4437   -8.1774 O   0  0  0  0  0  0  0  0  0  0  0  0
    4.0586   -0.4203   -7.1549 F   0  0  0  0  0  0  0  0  0  0  0  0
    3.5404    0.6649   -5.3514 F   0  0  0  0  0  0  0  0  0  0  0  0
    2.2461   -1.0176   -6.0527 F   0  0  0  0  0  0  0  0  0  0  0  0
   -3.0053   -1.5569   -4.3303 H   0  0  0  0  0  0  0  0  0  0  0  0
  1  7  1  0  0  0  0
  2  8  1  0  0  0  0
  2  1  2  0  0  0  0
  3  2  1  0  0  0  0
  4  3  2  0  0  0  0
  4  5  1  0  0  0  0
  5  6  2  0  0  0  0
  6  1  1  0  0  0  0
  6 21  1  0  0  0  0
  9  4  1  0  0  0  0
 10  5  1  0  0  0  0
 11  3  1  0  0  0  0
 12 11  2  0  0  0  0
 13 14  1  0  0  0  0
 14 20  1  0  0  0  0
 14 19  1  0  0  0  0
 15 13  1  0  0  0  0
 17 13  1  0  0  0  0
 18 14  1  0  0  0  0
M  RAD  4  12   2  15   2  16   3  17   2
M  END
