Coordinates from ORCA-job Ph-N2-X-OTf-B3LYPG-6-31G_dp-scan-d09-49-n400
 OpenBabel08281821163D

 21 19  0  0  0  0  0  0  0  0999 V2000
   -1.4139   -0.8907   -4.6308 C   0  0  0  0  0  0  0  0  0  0  0  0
   -0.5098    0.1097   -4.9787 C   0  0  0  0  0  0  0  0  0  0  0  0
   -1.0401    1.3718   -5.2891 C   0  0  0  0  0  0  0  0  0  0  0  0
   -2.4124    1.6570   -5.2335 C   0  0  0  0  0  0  0  0  0  0  0  0
   -3.2897    0.6321   -4.9024 C   0  0  0  0  0  0  0  0  0  0  0  0
   -2.7889   -0.6396   -4.6009 C   0  0  0  0  0  0  0  0  0  0  0  0
   -1.0321   -1.8757   -4.3834 H   0  0  0  0  0  0  0  0  0  0  0  0
    0.5612   -0.0901   -4.9804 H   0  0  0  0  0  0  0  0  0  0  0  0
   -2.7634    2.6569   -5.4633 H   0  0  0  0  0  0  0  0  0  0  0  0
   -4.3571    0.8242   -4.8697 H   0  0  0  0  0  0  0  0  0  0  0  0
   -0.1986    2.4461   -5.6307 N   0  0  0  0  0  0  0  0  0  0  0  0
    0.8219    2.7896   -6.0527 N   0  0  0  0  0  0  0  0  0  0  0  0
    2.1157    1.1717   -7.2388 S   0  0  0  0  0  0  0  0  0  0  0  0
    3.6332    0.2048   -6.5447 C   0  0  0  0  0  0  0  0  0  0  0  0
    2.8240    2.0381   -8.2091 O   0  0  0  0  0  0  0  0  0  0  0  0
    2.5224   -0.5211   -4.4109 O   0  0  0  0  0  0  0  0  0  0  0  0
    1.2354    0.0761   -7.7202 O   0  0  0  0  0  0  0  0  0  0  0  0
    4.3484   -0.3401   -7.5077 F   0  0  0  0  0  0  0  0  0  0  0  0
    4.3928    0.9008   -5.7346 F   0  0  0  0  0  0  0  0  0  0  0  0
    3.1881   -0.9778   -5.7827 F   0  0  0  0  0  0  0  0  0  0  0  0
   -3.4752   -1.4371   -4.3330 H   0  0  0  0  0  0  0  0  0  0  0  0
  1  6  1  0  0  0  0
  1  7  1  0  0  0  0
  2  1  2  0  0  0  0
  3  4  2  0  0  0  0
  3  2  1  0  0  0  0
  4  5  1  0  0  0  0
  5 10  1  0  0  0  0
  5  6  2  0  0  0  0
  6 21  1  0  0  0  0
  8  2  1  0  0  0  0
  9  4  1  0  0  0  0
 11  3  1  0  0  0  0
 12 11  2  0  0  0  0
 13 14  1  0  0  0  0
 14 20  1  0  0  0  0
 14 19  1  0  0  0  0
 15 13  1  0  0  0  0
 17 13  1  0  0  0  0
 18 14  1  0  0  0  0
M  RAD  4  12   2  15   2  16   3  17   2
M  END
