Coordinates from ORCA-job Ph-N2-X-OTf-B3LYPG-6-31G_dp-scan-d09-49-n400
 OpenBabel08281821163D

 21 20  0  0  0  0  0  0  0  0999 V2000
   -2.2039   -0.9937   -5.4852 C   0  0  0  0  0  0  0  0  0  0  0  0
   -0.9221   -0.5028   -5.2572 C   0  0  0  0  0  0  0  0  0  0  0  0
   -0.7711    0.8527   -4.9183 C   0  0  0  0  0  0  0  0  0  0  0  0
   -1.8878    1.6903   -4.7649 C   0  0  0  0  0  0  0  0  0  0  0  0
   -3.1575    1.1908   -5.0320 C   0  0  0  0  0  0  0  0  0  0  0  0
   -3.3156   -0.1509   -5.3911 C   0  0  0  0  0  0  0  0  0  0  0  0
   -2.3346   -2.0413   -5.7365 H   0  0  0  0  0  0  0  0  0  0  0  0
   -0.0690   -1.1695   -5.2960 H   0  0  0  0  0  0  0  0  0  0  0  0
   -1.7325    2.7186   -4.4576 H   0  0  0  0  0  0  0  0  0  0  0  0
   -4.0229    1.8390   -4.9416 H   0  0  0  0  0  0  0  0  0  0  0  0
    0.4630    1.4641   -4.6032 N   0  0  0  0  0  0  0  0  0  0  0  0
    1.5760    1.2449   -5.0146 N   0  0  0  0  0  0  0  0  0  0  0  0
    2.0545    0.0402   -6.4267 S   0  0  0  0  0  0  0  0  0  0  0  0
    3.7843    0.7126   -6.8561 C   0  0  0  0  0  0  0  0  0  0  0  0
    1.1937    0.3170   -7.5765 O   0  0  0  0  0  0  0  0  0  0  0  0
    3.3109    2.2682   -4.2825 O   0  0  0  0  0  0  0  0  0  0  0  0
    2.2291   -1.3048   -5.8748 O   0  0  0  0  0  0  0  0  0  0  0  0
    4.0920    0.0639   -7.9878 F   0  0  0  0  0  0  0  0  0  0  0  0
    3.7282    2.0082   -7.0920 F   0  0  0  0  0  0  0  0  0  0  0  0
    4.6559    0.4055   -5.9215 F   0  0  0  0  0  0  0  0  0  0  0  0
   -4.3087   -0.5463   -5.5810 H   0  0  0  0  0  0  0  0  0  0  0  0
  1  6  2  0  0  0  0
  1  2  1  0  0  0  0
  2  3  2  0  0  0  0
  3  4  1  0  0  0  0
  3 11  1  0  0  0  0
  4  9  1  0  0  0  0
  5 10  1  0  0  0  0
  5  4  2  0  0  0  0
  6  5  1  0  0  0  0
  7  1  1  0  0  0  0
  8  2  1  0  0  0  0
 12 11  2  0  0  0  0
 13 17  2  0  0  0  0
 13 12  1  0  0  0  0
 14 13  1  0  0  0  0
 14 20  1  0  0  0  0
 15 13  2  0  0  0  0
 18 14  1  0  0  0  0
 19 14  1  0  0  0  0
 21  6  1  0  0  0  0
M  RAD  1  16   3
M  END
