Coordinates from ORCA-job Ph-N2-X-OTf-B3LYPG-6-31G_dp-scan-d09-49-n400
 OpenBabel08281821163D

 21 20  0  0  0  0  0  0  0  0999 V2000
   -2.2048   -0.9964   -5.4824 C   0  0  0  0  0  0  0  0  0  0  0  0
   -0.9219   -0.5069   -5.2555 C   0  0  0  0  0  0  0  0  0  0  0  0
   -0.7699    0.8485   -4.9180 C   0  0  0  0  0  0  0  0  0  0  0  0
   -1.8847    1.6882   -4.7647 C   0  0  0  0  0  0  0  0  0  0  0  0
   -3.1551    1.1901   -5.0311 C   0  0  0  0  0  0  0  0  0  0  0  0
   -3.3151   -0.1519   -5.3885 C   0  0  0  0  0  0  0  0  0  0  0  0
   -2.3370   -2.0439   -5.7328 H   0  0  0  0  0  0  0  0  0  0  0  0
   -0.0693   -1.1741   -5.2955 H   0  0  0  0  0  0  0  0  0  0  0  0
   -1.7279    2.7165   -4.4585 H   0  0  0  0  0  0  0  0  0  0  0  0
   -4.0197    1.8395   -4.9412 H   0  0  0  0  0  0  0  0  0  0  0  0
    0.4670    1.4563   -4.6044 N   0  0  0  0  0  0  0  0  0  0  0  0
    1.5801    1.2448   -5.0136 N   0  0  0  0  0  0  0  0  0  0  0  0
    2.0427    0.0335   -6.4481 S   0  0  0  0  0  0  0  0  0  0  0  0
    3.7769    0.7033   -6.8538 C   0  0  0  0  0  0  0  0  0  0  0  0
    1.1892    0.3274   -7.6002 O   0  0  0  0  0  0  0  0  0  0  0  0
    3.3472    2.3399   -4.2544 O   0  0  0  0  0  0  0  0  0  0  0  0
    2.2105   -1.3209   -5.9141 O   0  0  0  0  0  0  0  0  0  0  0  0
    4.1147    0.0567   -7.9769 F   0  0  0  0  0  0  0  0  0  0  0  0
    3.7198    1.9996   -7.0894 F   0  0  0  0  0  0  0  0  0  0  0  0
    4.6278    0.4028   -5.8967 F   0  0  0  0  0  0  0  0  0  0  0  0
   -4.3089   -0.5462   -5.5773 H   0  0  0  0  0  0  0  0  0  0  0  0
  1  6  2  0  0  0  0
  1  2  1  0  0  0  0
  2  3  2  0  0  0  0
  3  4  1  0  0  0  0
  3 11  1  0  0  0  0
  4  9  1  0  0  0  0
  5 10  1  0  0  0  0
  5  4  2  0  0  0  0
  6  5  1  0  0  0  0
  7  1  1  0  0  0  0
  8  2  1  0  0  0  0
 12 11  2  0  0  0  0
 13 17  2  0  0  0  0
 13 12  1  0  0  0  0
 14 13  1  0  0  0  0
 14 20  1  0  0  0  0
 15 13  2  0  0  0  0
 18 14  1  0  0  0  0
 19 14  1  0  0  0  0
 21  6  1  0  0  0  0
M  RAD  1  16   3
M  END
