Coordinates from ORCA-job Ph-N2-X-OTf-B3LYPG-6-31G_dp-scan-d09-49-n400
 OpenBabel08281821163D

 21 19  0  0  0  0  0  0  0  0999 V2000
   -1.4651   -0.9408   -4.6421 C   0  0  0  0  0  0  0  0  0  0  0  0
   -0.5194    0.0443   -4.9135 C   0  0  0  0  0  0  0  0  0  0  0  0
   -0.9990    1.3274   -5.2168 C   0  0  0  0  0  0  0  0  0  0  0  0
   -2.3635    1.6499   -5.2228 C   0  0  0  0  0  0  0  0  0  0  0  0
   -3.2830    0.6384   -4.9733 C   0  0  0  0  0  0  0  0  0  0  0  0
   -2.8329   -0.6540   -4.6818 C   0  0  0  0  0  0  0  0  0  0  0  0
   -1.1254   -1.9427   -4.4010 H   0  0  0  0  0  0  0  0  0  0  0  0
    0.5491   -0.1586   -4.8639 H   0  0  0  0  0  0  0  0  0  0  0  0
   -2.6770    2.6653   -5.4382 H   0  0  0  0  0  0  0  0  0  0  0  0
   -4.3453    0.8582   -4.9945 H   0  0  0  0  0  0  0  0  0  0  0  0
   -0.1056    2.3866   -5.4666 N   0  0  0  0  0  0  0  0  0  0  0  0
    0.9225    2.7162   -5.8837 N   0  0  0  0  0  0  0  0  0  0  0  0
    2.0783    1.1488   -7.2367 S   0  0  0  0  0  0  0  0  0  0  0  0
    3.6359    0.2143   -6.6064 C   0  0  0  0  0  0  0  0  0  0  0  0
    2.7179    2.0082   -8.2601 O   0  0  0  0  0  0  0  0  0  0  0  0
    2.5771   -0.0935   -4.3896 O   0  0  0  0  0  0  0  0  0  0  0  0
    1.1922    0.0315   -7.6522 O   0  0  0  0  0  0  0  0  0  0  0  0
    4.2139   -0.4938   -7.5550 F   0  0  0  0  0  0  0  0  0  0  0  0
    4.5102    0.9672   -5.9863 F   0  0  0  0  0  0  0  0  0  0  0  0
    3.2341   -0.8264   -5.6378 F   0  0  0  0  0  0  0  0  0  0  0  0
   -3.5533   -1.4396   -4.4749 H   0  0  0  0  0  0  0  0  0  0  0  0
  1  7  1  0  0  0  0
  2  8  1  0  0  0  0
  2  1  2  0  0  0  0
  3  2  1  0  0  0  0
  4  3  2  0  0  0  0
  4  5  1  0  0  0  0
  5  6  2  0  0  0  0
  6  1  1  0  0  0  0
  6 21  1  0  0  0  0
  9  4  1  0  0  0  0
 10  5  1  0  0  0  0
 11  3  1  0  0  0  0
 12 11  2  0  0  0  0
 13 14  1  0  0  0  0
 14 19  1  0  0  0  0
 14 20  1  0  0  0  0
 15 13  1  0  0  0  0
 17 13  1  0  0  0  0
 18 14  1  0  0  0  0
M  RAD  4  12   2  15   2  16   3  17   2
M  END
