25
Coordinates from ORCA-job 1a-Schema5-R6-D+-B3LYPG-6-31G_dp-scan-d49-09-n400
  C   -3.48897350511002     -0.96917380061727     -3.38820742253387
  C   -2.31683857012759     -0.85410862404205     -2.63149393863268
  C   -2.43555158086951     -0.13936134521806     -1.42401966979066
  C   -3.63410244201411      0.37567575994216     -0.92632516449190
  C   -4.78051899073913      0.23600720093474     -1.70504844686158
  C   -4.69296233224056     -0.40888346741943     -2.94007666975853
  H   -3.46039113011872     -1.49154875682742     -4.33730834245719
  N   -1.22786014781890      0.14539605010478     -0.78396669903493
  N   -0.55526025726522      0.54297547373759      0.02991768364446
  H   -5.57643501063061     -0.49668979701520     -3.56449242759149
  H   -5.71957859049666      0.65491891848215     -1.36234351069993
  H   -3.64132442151966      0.91493701051999      0.01429183626197
  N   -0.34285996509410     -0.58140242385370     -2.63594927419810
  N   -1.12635678793726     -1.40663776611612     -3.04160957309526
  C   -0.89164247417685     -2.54893117524480     -3.91583428567362
  C   0.26661259195772     -2.52413311213723     -4.69383458017157
  C   -1.76423933353013     -3.63991908122144     -3.88838902829454
  C   0.54565237907247     -3.63066955123852     -5.49018875644254
  H   0.91983529042599     -1.65882125715082     -4.66183701343487
  C   -1.45965729354601     -4.74219760130102     -4.68630531364999
  H   -2.64028097583504     -3.64755004734737     -3.24931835488369
  C   -0.31430241378855     -4.73520129288428     -5.48692987734667
  H   1.43522696489176     -3.63345935723004     -6.11111250494963
  H   -2.11443727697037     -5.60726622843371     -4.67671303716801
  H   -0.08755372651905     -5.59585572842279     -6.10800562874506
