25
Coordinates from ORCA-job 1a-Schema5-R6-D+-B3LYPG-6-31G_dp-scan-d49-09-n400
  C   -3.73634257559714     -0.22135784769411     -3.65678383936617
  C   -2.45842428890714     -0.47387496138458     -3.00694995306039
  C   -2.45998404967918     -0.40180142580938     -1.53734438288816
  C   -3.63307007880660      0.02834996575696     -0.81372904055443
  C   -4.77577381142568      0.30448848490968     -1.49070152076035
  C   -4.81433244249726      0.16476209853808     -2.92546803555614
  H   -3.78060667972025     -0.31807002129744     -4.73631811862589
  N   -1.34198814247553     -0.67192050127013     -0.87936165551435
  N   -0.38794473507154     -0.90732150235044     -0.31058359009965
  H   -5.74510525425459      0.37406243665610     -3.44379207068049
  H   -5.66283071131144      0.62615257040866     -0.95866792463249
  H   -3.56267810506545      0.11883858654684      0.26483829174913
  N   -1.10819356645326     -0.04708570574410     -3.79750543701762
  N   -1.45031293754766     -1.24872286162485     -3.69836258950021
  C   -0.94333355874306     -2.48414863643585     -4.12251929655633
  C   0.27003341137620     -2.51066372263412     -4.83249595369941
  C   -1.68002868384685     -3.64150520470011     -3.82179953420975
  C   0.75046714215209     -3.74334661128385     -5.24823361856380
  H   0.80116695798240     -1.58761526408298     -5.04148718828531
  C   -1.17717894467130     -4.86413446315553     -4.25003865923887
  H   -2.61605768587609     -3.57306870111177     -3.27759086682928
  C   0.03035229678047     -4.91314550867188     -4.95775841426097
  H   1.68374584010721     -3.80165056654217     -5.79744885847240
  H   -1.72142095351027     -5.77719130846274     -4.03618614268440
  H   0.41604155706178     -5.87192932856013     -5.28881160069215
