25
Coordinates from ORCA-job 1a-Schema5-R6-D+-B3LYPG-6-31G_dp-scan-d49-09-n400
  C   -0.47427745614936      0.67298029840005     -2.99714356106476
  C   -1.52229802226066     -0.28369218829783     -2.88620765231772
  C   -2.68228779521608      0.19903332836746     -2.14352819149723
  C   -2.75278095067400      1.48832847479855     -1.56321633804190
  C   -1.67794850702568      2.34552607009288     -1.69718974782002
  C   -0.54152884343948      1.92977482328012     -2.41841747591145
  H   0.40173209349313      0.36020927956111     -3.55401671834700
  N   -3.79432678354959     -0.57034586605623     -1.98816209853075
  N   -4.78618432825851     -1.05692966930975     -1.79148574732087
  H   0.29725533594193      2.60946263856004     -2.53096425102798
  H   -1.72254876235450      3.33678324538449     -1.26104740229513
  H   -3.65194769049855      1.78774007493373     -1.03523211998980
  N   -1.37762746792204     -1.38369265358743     -3.39554736052618
  N   -2.22063031341656     -2.31203455352696     -3.09827216995316
  C   -2.09674648039224     -3.50741867338072     -3.76689569499084
  C   -2.99213106377938     -4.52619675351292     -3.35637485035372
  C   -1.15960785214176     -3.75460935738365     -4.80502004297812
  C   -2.95382889134215     -5.76888211155356     -3.97019509878184
  H   -3.69208704632383     -4.31088984321971     -2.55591823814433
  C   -1.13618924271580     -4.99725546174004     -5.41002827686892
  H   -0.48120362804888     -2.96415344239563     -5.10270796289683
  C   -2.02864100457933     -6.00370429706453     -4.99550453361323
  H   -3.63303696116401     -6.55492265867206     -3.65843007297690
  H   -0.42791186155486     -5.20078666757606     -6.20649676674726
  H   -1.99701647662792     -6.97622403610139     -5.47709762700383
