25
Coordinates from ORCA-job 1a-Schema5-R6-D+-B3LYPG-6-31G_dp-scan-d49-09-n400
  C   -0.40879421251058      0.06831597593074     -2.08146499249499
  C   -1.56057441359590     -0.74311161622948     -2.01275799987357
  C   -2.77717158354560     -0.15374194309707     -2.49330320661515
  C   -2.84250396451880      1.15638110566910     -3.04631899953567
  C   -1.67958193238037      1.88265862846227     -3.12914017492369
  C   -0.46704708548550      1.33012518296432     -2.64759267122224
  H   0.51937615560411     -0.32816960191471     -1.68531296348562
  N   -3.92117765329849     -0.87194083387725     -2.39633702565925
  N   -4.87009446423171     -1.46103379942460     -2.28996114146916
  H   0.44336000514121      1.91780392549922     -2.71261776092592
  H   -1.69540466101412      2.88323408312153     -3.54470509306325
  H   -3.79625592286189      1.55273371212314     -3.37649549723777
  N   -1.56351979893378     -1.90721116137666     -1.26939717072186
  N   -1.80755997334972     -3.09214270241912     -1.56340214445294
  C   -1.90761705505018     -3.59010400355534     -2.88029626667009
  C   -2.53018188620713     -4.85151404996014     -2.95256315457858
  C   -1.39458183925844     -2.97949868964761     -4.04463546783920
  C   -2.70507738978503     -5.46854906406130     -4.18686873904602
  H   -2.86937744983902     -5.31196859340427     -2.03095768549579
  C   -1.54929085411513     -3.62126034358648     -5.26697662724259
  H   -0.84081052280484     -2.05000746546630     -3.99432741783867
  C   -2.21480903882124     -4.85373300747014     -5.34202833488049
  H   -3.19872927735994     -6.43223474594550     -4.24736629673523
  H   -1.13863383855935     -3.17366973471739     -6.16597400908787
  H   -2.32774134321868     -5.34326125761693     -6.30429915890417
