25
Coordinates from ORCA-job 1a-Schema5-R6-D+-B3LYPG-6-31G_dp-scan-d49-09-n400
  C   -3.52058771781386     -1.19590984057263     -3.30057422142449
  C   -2.38954966319411     -0.98799785468496     -2.52583818240944
  C   -2.42502082090022     -0.08414094044628     -1.47045967611154
  C   -3.57602749304403      0.61658752703495     -1.12022680832366
  C   -4.72194507195260      0.39059967769847     -1.88644574587658
  C   -4.68995141697334     -0.49728773801960     -2.96499446121388
  H   -3.50173223019888     -1.86998819677475     -4.14763053960452
  N   -1.19730925032177      0.11615049577060     -0.78180551526725
  N   -0.68759035724063      0.65579815500838      0.07797438733636
  H   -5.58311546715316     -0.64963947056814     -3.56195564956667
  H   -5.63707322801054      0.91957854854499     -1.64371191834082
  H   -3.56582907809767      1.31324745746858     -0.28872832594243
  N   -0.12631746715646     -1.19857901435313     -2.04379917934036
  N   -1.05994556827839     -1.59765676105185     -2.73213326865276
  C   -0.87249284993706     -2.62218400957064     -3.76788447646034
  C   0.19147257762161     -2.45211655598992     -4.65400933541532
  C   -1.68886474209554     -3.75546037945544     -3.78013682647253
  C   0.42322089835178     -3.44300895108079     -5.60589826080835
  H   0.81321797822145     -1.56556641153843     -4.59610593784581
  C   -1.43042914325691     -4.74234191315149     -4.73173002338250
  H   -2.47772849833005     -3.88936254417208     -3.04699846087849
  C   -0.38438992012373     -4.58340114002014     -5.64492853998949
  H   1.23826466207812     -3.32549458636951     -6.31232347609638
  H   -2.04066823502319     -5.63924394697588     -4.75027864821125
  H   -0.19340789717094     -5.35448160673018     -6.38447690970142
