25
Coordinates from ORCA-job 1a-Schema5-R6-D+-B3LYPG-6-31G_dp-scan-d49-09-n400
  C   -0.87900911087941     -0.57253778196090     -2.43452051052179
  C   -2.26684287897526     -0.75595770431329     -2.17270844446411
  C   -3.07626803381005      0.43231396625920     -2.29130071061570
  C   -2.56671968862532      1.69586700246089     -2.69799917655136
  C   -1.22230168670128      1.79881403428978     -2.95534381365885
  C   -0.38685154715342      0.66094510064625     -2.80862698839887
  H   -0.21743825243940     -1.42287167678931     -2.31473205830818
  N   -4.38568684146247      0.32479943037541     -1.97178990332504
  N   -5.46094896538155      0.22511220827832     -1.66433567485283
  H   0.67624367159699      0.76062845734431     -3.00572375942414
  H   -0.79931884135823      2.74936386139259     -3.25852122132427
  H   -3.23785271131897      2.54324407656204     -2.78379159650026
  N   -2.78501254914548     -1.82977683822770     -1.62754246237868
  N   -2.63609758346216     -3.06130112737811     -1.81143478536093
  C   -2.24250504023084     -3.62745322013417     -3.02783676879893
  C   -1.85437227029718     -4.98077949989601     -2.91812619161961
  C   -2.28087680892712     -2.99690900188042     -4.29366013117007
  C   -1.43114278724842     -5.67332050994698     -4.04588069984197
  H   -1.88220548108045     -5.44452281460769     -1.93770291586645
  C   -1.88727063086502     -3.70994077991567     -5.41492975280479
  H   -2.65004563720698     -1.98391161769066     -4.40112047778705
  C   -1.44909473332987     -5.03920398383997     -5.29191711473674
  H   -1.10874689882713     -6.70527476580417     -3.96194268421585
  H   -1.92995892315485     -3.24462994430577     -6.39437406644126
  H   -1.14347576971624     -5.58459687091796     -6.17923809103208
