31
Coordinates from ORCA-job /home/ubuntu/works/orca-Ph-N2-OTs-B3LYP-6-31G_dp-scan-d09-49-n400/Ph-N2-OTs-B3LYP-6-31G_dp-scan-d09-49-n400
  C   0.64830149404135      1.39544112638585     -0.68452461818679
  C   1.14988185729626      2.23889908093820     -1.67678865375410
  C   1.73540725703292      1.67058535094848     -2.80879307978938
  C   1.82254962372131      0.28755620528737     -2.96812940727574
  C   1.30924503715436     -0.54400704185118     -1.97134965295999
  C   0.72503230472249      0.00747617537981     -0.82848961840978
  H   0.19160797912151      1.82660606258000      0.20185624817896
  H   1.09912004264535      3.31750399336095     -1.58478039435933
  H   2.27676163439077     -0.11570793936598     -3.86716209174016
  H   1.36711779085889     -1.62259742045125     -2.08961694068526
  N   2.47487848104419      2.77300775855516     -7.52555546052024
  N   1.56860777713548      3.39078448966160     -7.66017769390772
  C   5.22552861904024      1.67806979522699     -5.10427417177523
  C   6.21168186358941      0.70110794984344     -5.21216041113435
  C   6.83647957986248      0.16761292314677     -4.07352675153615
  C   6.44352505944334      0.63664772540512     -2.81206642192361
  C   5.45767053462954      1.61329443839736     -2.68014435789537
  C   4.85770140359655      2.12508590685752     -3.83193305995234
  H   4.75100745261769      2.09308627244036     -5.98682175848273
  H   6.50475404028548      0.34823760800292     -6.19752641811464
  H   6.91643622806972      0.23458259959127     -1.92010459813167
  H   5.16141156636355      1.98437083525343     -1.70538066637155
  S   3.58791847801052      3.36749705117745     -3.67956626764046
  O   2.18125066152317      2.48076381795989     -3.86012646184077
  O   3.58705040247355      4.21540791962009     -4.86261633744556
  O   3.62694790802304      3.91991677997414     -2.32849646267066
  C   7.92879628877631     -0.86550978193634     -4.20763717687401
  H   7.98132262981052     -1.51089746331034     -3.32562252994544
  H   7.77564081087146     -1.49774729412613     -5.08738146825113
  H   8.90881086225652     -0.38459088851583     -4.31888779218649
  H   0.32715433159158     -0.64178403643706     -0.05391552441849
