31
Coordinates from ORCA-job /home/ubuntu/works/orca-Ph-N2-OTs-B3LYP-6-31G_dp-scan-d09-49-n400/Ph-N2-OTs-B3LYP-6-31G_dp-scan-d09-49-n400
  C   1.85195450335072      0.32493250303453     -2.10763342378049
  C   1.76368655061000      1.16674660369829     -3.33527506616308
  C   0.38731046504959      1.73328465026580     -3.49558840042628
  C   -0.54978005588604      1.82557988839426     -2.40758008690462
  C   -0.28126497340681      1.17710738797444     -1.24493115789364
  C   0.91948099938182      0.37874310833159     -1.13006186664647
  H   2.73847509258541     -0.29356993535463     -2.00711180429948
  H   2.09238659227700      0.64803895996854     -4.23709450785848
  H   -1.45930111335462      2.40119820410294     -2.54919320774625
  H   -0.97483785035740      1.23030745001684     -0.41254798598707
  N   0.06040565167443      2.23150456327800     -4.67460927115917
  N   -0.21593408611129      2.65805431397064     -5.69296414308700
  C   5.45068429291306      0.72154635304667     -4.97885378868122
  C   6.62281996330934     -0.00886719206775     -4.78276467947868
  C   7.53870558436835      0.34397276288840     -3.78189597597399
  C   7.25715634315318      1.46308081668878     -2.98192774969526
  C   6.09378289554442      2.20607422426398     -3.16339891834635
  C   5.19344576802606      1.82261661278243     -4.16111911511103
  H   4.75244464891001      0.46201654389638     -5.76739283080580
  H   6.83177804546259     -0.86152702017862     -5.42375407272395
  H   7.96481736694501      1.76013301746168     -2.21193567291526
  H   5.89108422134753      3.08128447080056     -2.55516698512461
  S   3.69461094109090      2.76869857222145     -4.39715521362460
  O   3.05932835630580      2.31756765426128     -5.64132811865810
  O   3.98726068517766      4.17698047545281     -4.16097940649924
  O   2.76553529004172      2.30116263601342     -3.13829734251857
  C   8.79139364140747     -0.46895694598120     -3.55805849670685
  H   8.61430211292873     -1.26831990419718     -2.82722012599221
  H   9.13199565402193     -0.94245694806785     -4.48351114916378
  H   9.60673432978960      0.14997808162370     -3.17164211947413
  H   1.05913808344363     -0.21621190859015     -0.23070731655435
