31
Coordinates from ORCA-job /home/ubuntu/works/orca-Ph-N2-OTs-B3LYP-6-31G_dp-scan-d09-49-n400/Ph-N2-OTs-B3LYP-6-31G_dp-scan-d09-49-n400
  C   1.44197283593568      1.45390704138011     -0.66577093020027
  C   1.55039384973772      1.76711054232673     -2.03372299228299
  C   0.76805632677664      1.18233945430951     -2.82755707335934
  C   -0.23485952136043      0.25698073887348     -2.73741050011225
  C   -0.36094745419259     -0.07748530027265     -1.36630055148285
  C   0.44774753225024      0.50138922189437     -0.37113440700241
  H   2.05851946631493      1.89376529048191      0.11198047505722
  H   2.78236415638804      3.02131481050222     -2.96226408309881
  H   -0.84038146527768     -0.16505224358387     -3.52826954271665
  H   -1.11599740583990     -0.80828023308101     -1.08539787110227
  N   -0.10167870015804      1.41771336992255     -6.10209681264786
  N   0.01408782447798      2.00699483759515     -7.02973317815428
  C   6.59070505694816      2.58111591965130     -4.40447958027829
  C   7.66665664373847      1.74122792098802     -4.12159041177314
  C   7.47769597893881      0.37181516965573     -3.88735519786544
  C   6.17417810162199     -0.14441433402407     -3.95353896748976
  C   5.08668202852668      0.67872003471474     -4.23577558021547
  C   5.30527800727752      2.04061381140900     -4.45519200162906
  H   6.73967284803549      3.63695318484247     -4.60334956147290
  H   8.67114660541453      2.15559967912591     -4.08831799547791
  H   6.00997061924407     -1.20639162715957     -3.78769634240823
  H   4.08233168214988      0.27424543341949     -4.30431162332432
  S   3.91864683217022      3.11284820368030     -4.80509895940624
  O   2.82948234900669      2.29685903181402     -5.34839897240118
  O   4.41113953436598      4.29190625488031     -5.50350560332155
  O   3.47309926112903      3.63070352273885     -3.32930207395111
  C   8.64523431782537     -0.52739562114436     -3.55713097708306
  H   8.55137711591578     -1.50148151717740     -4.04679813436634
  H   9.59405013849238     -0.08102593955664     -3.86754581820348
  H   8.70533491103479     -0.71203453795933     -2.47725088664441
  H   0.29764052311122      0.20013787975284      0.66261615441455
