31
Coordinates from ORCA-job 1f-Schema5-R6-D+-B3LYPG-6-31G_dp-scan-d49-09-n400
  C   -4.44868273990613     -0.01424382960534     -3.64002207851254
  C   -2.97621821067812     -0.19225564092676     -3.21297024480942
  C   -2.77718339875172      0.44283442298838     -1.78196315153933
  C   -3.86416422750361      0.93975548613678     -0.97903032961332
  C   -5.12671244219266      0.95899602236386     -1.48482744432080
  C   -5.38326784065125      0.50508045471453     -2.82157988130639
  H   -4.63836839239247     -0.33464562705832     -4.65821823317957
  N   -1.50426639961527      0.45123189040589     -1.44380472000477
  N   -0.38132385462356      0.40564974366576     -1.28004747325233
  H   -6.39651243242444      0.58259881870660     -3.20938979671556
  H   -5.92967303160161      1.33401745059468     -0.86280943951803
  N   -2.32105075841862     -0.58134463742313     -3.69189128402281
  N   -1.34619747590930     -0.98203889473553     -4.35015272271715
  C   -1.07301945938040     -2.34565190331080     -4.37657205049245
  C   0.21583098444167     -2.72244266973461     -4.84197123610150
  C   -2.03803527526515     -3.32824113049648     -4.06990365328887
  C   0.49212414944714     -4.07557381320234     -5.02266709048685
  C   -1.73483610650703     -4.67089377133552     -4.24571066802059
  H   -3.03464106847588     -3.03529063339684     -3.75206108253892
  C   -0.47323414614415     -5.04387951457062     -4.72659897841147
  H   1.47295298171043     -4.36997758739731     -5.37632491296538
  H   -2.48130999172718     -5.42686994802182     -4.02681982009150
  H   -0.23940968695889     -6.09409493859004     -4.86932912726164
  C   1.29134896058244     -1.68852806783962     -5.00274398854165
  O   1.30855024878143     -0.63246506077563     -4.40799998857811
  O   2.24759313555460     -2.09456842405202     -5.85396807106226
  H   2.93437501712138     -1.40543755172579     -5.87519373871114
  C   -3.67372576263434      1.44744376817380      0.42380302301310
  O   -4.57529332550870      1.88499131262797      1.09625813841212
  O   -2.39415712475322      1.35723883296301      0.83670045932520
  H   -2.35239232561553      1.71130544085724      1.74220958531378
