31
Coordinates from ORCA-job 1f-Schema5-R6-D+-B3LYPG-6-31G_dp-scan-d49-09-n400
  C   -4.93690183031763     -0.38236971455716     -3.12400382831048
  C   -3.55774410717729     -0.67188175456683     -2.86097952203283
  C   -2.94618910805435      0.17449988806769     -1.83349082423757
  C   -3.65203544259268      1.22526435530180     -1.17540795835257
  C   -4.96474595585311      1.46252073139407     -1.55251967920559
  C   -5.60104343510156      0.66197973891836     -2.51824135345293
  H   -5.42690755548629     -1.01309360848821     -3.85768573273456
  N   -1.66750118916780     -0.11890717609002     -1.45664346137582
  N   -0.63806978650401     -0.33981904242110     -1.07761512242695
  H   -6.63736480457101      0.85772246702362     -2.77305381761076
  H   -5.49169089102442      2.26749389686235     -1.05338101011823
  N   -3.02740331395395     -1.53880652912715     -3.46200922934374
  N   -1.76594376775894     -1.55781931254619     -3.69271608183572
  C   -1.25390767672419     -2.72406301870924     -4.23587983427318
  C   0.14352252670936     -2.75280725984641     -4.51826675548771
  C   -2.06000041976382     -3.83757233406766     -4.57009606293238
  C   0.68214417680246     -3.87777784705264     -5.14199466956180
  C   -1.49815884196120     -4.95393606871055     -5.16726318272165
  H   -3.12395617404351     -3.78370239431147     -4.37205400149302
  C   -0.12709925439015     -4.97357276608513     -5.45756529334522
  H   1.74092396759853     -3.89949839269227     -5.37019147804811
  H   -2.12126148148963     -5.80448676287416     -5.42342391605167
  H   0.31269647331654     -5.84353917854657     -5.93503903837960
  C   1.05494763720930     -1.63592108072946     -4.10854601639033
  O   0.89342399482634     -0.90856393926903     -3.14944822525226
  O   2.12313853276175     -1.54983636078118     -4.92049398955136
  H   2.69723563727519     -0.84636411177787     -4.57067677865972
  C   -3.11314108419941      2.11735911361026     -0.08670879546940
  O   -3.74887901802237      3.03744431004888      0.36734342572385
  O   -1.87460286239912      1.78258531117948      0.31746421393978
  H   -1.61438494594318      2.41016884084375      1.01498801899134
