33
Coordinates from ORCA-job p-NO2-Ph-N2-OTs-B3LYPG-6-31G_dp-scan-d09-49-n400
  C   -1.36919338752273     -0.00615129272240     -1.53910230452573
  C   -0.04698243342610      0.16412253379754     -1.15027375328622
  C   0.88290583825819      0.75427073842818     -2.02404012511280
  C   0.49405669159167      1.14791586172387     -3.31925887262766
  C   -0.82596671213248      0.95705912280785     -3.71638813638808
  C   -1.73441479930066      0.39350083788566     -2.82283646907353
  H   -2.10850749861585     -0.44505527207659     -0.88172157203939
  H   0.29078673431822     -0.14781864602427     -0.16884005304452
  H   1.20747627977948      1.59082966505171     -3.99683388488415
  H   -1.16134249730459      1.24582844803158     -4.70415950712499
  N   -3.13384199677391      0.20496267016855     -3.25474419055381
  O   -3.42595167529929      0.55464278786438     -4.39595270747140
  O   -3.91350649062743     -0.29090886747532     -2.44427514350336
  N   2.18455760784012      0.83637790986913     -1.46870354436648
  N   3.16470960535252      1.47505689264266     -1.76727995381491
  C   6.43275523722897      1.92360311047839     -2.53243757751431
  C   7.51749189482011      1.11052722559208     -2.85248590120775
  C   7.79948935074972      0.76462457955949     -4.18258005189672
  C   6.96786350070634      1.26442475852148     -5.19559740921756
  C   5.87720127300897      2.07806214120037     -4.89754835350755
  C   5.61796603306902      2.39619488691901     -3.56310721771366
  H   6.22340584385371      2.20207432255923     -1.50613111680908
  H   8.16036093301225      0.74427905405237     -2.05682412623910
  H   7.18158397405362      1.01944183198360     -6.23231487693287
  H   5.24591281663118      2.47956756781163     -5.68233289431068
  S   4.22931655361970      3.44309236868631     -3.17425431118031
  O   4.45404409138395      4.07577667499937     -1.88116985619640
  O   2.96602024099356      2.36606123339190     -3.01951563235246
  O   3.84928772605734      4.20236467861001     -4.35945187699739
  C   8.96175330419764     -0.13913310369694     -4.51401024810325
  H   9.79060954697150     -0.00012677641299     -3.81357263958070
  H   8.66349905585514     -1.19389299308242     -4.46073020629404
  H   9.33485335765195      0.04312504885725     -5.52572548612905
