33
Coordinates from ORCA-job p-NO2-Ph-N2-OTs-B3LYPG-6-31G_dp-scan-d09-49-n400
  C   -1.38008837189073     -0.13008664062158     -3.24697392384839
  C   -0.18761415159754     -0.69565747760356     -2.81529367308030
  C   0.71392825880859      0.13367918984736     -2.13944853575927
  C   0.50016016234799      1.49064414634288     -1.88596104247313
  C   -0.70437850034831      2.03428161076306     -2.31907270155157
  C   -1.61698796986971      1.21903497741122     -2.98462549999177
  H   -2.12288986219368     -0.71196203542780     -3.77752528690021
  H   0.04573046786120     -1.73671941541799     -3.00232598026821
  H   1.27930232615622      2.07635161087491     -1.41008098823745
  H   -0.93488562029079      3.07943916932634     -2.15897224954579
  N   -2.89602761428291      1.80819492934855     -3.43876151609254
  O   -3.09406279591577      2.99032804935390     -3.17644717468029
  O   -3.67118383690703      1.06976606550459     -4.04078470086929
  N   1.88559101211064     -0.47769721138441     -1.63650326752843
  N   2.51216432020773     -1.11558663273885     -0.96582994713580
  C   6.28464705954978      1.10208774540280     -2.50935535546739
  C   7.63547676017432      1.06626089765735     -2.84918346203388
  C   8.07065647956587      1.43143649201176     -4.13180732364257
  C   7.11257342929796      1.84896107169825     -5.06632192648859
  C   5.75791571821126      1.89166239100033     -4.74051409826412
  C   5.34996408581094      1.51378357943665     -3.46057621330968
  H   5.95167361921782      0.83902264170110     -1.51143877874164
  H   8.36566527083292      0.75745695143959     -2.10509686661703
  H   7.43259179992842      2.15223564387732     -6.05993930795454
  H   5.01974783698188      2.23401317197092     -5.45750015202396
  S   3.60466030664099      1.53611486976653     -3.05383694126128
  O   2.97131383204254      2.59120452793647     -3.86716592426376
  O   3.50745144380689      1.71981402751291     -1.57285404732758
  O   3.09590587501073      0.13898074303758     -3.41647942090072
  C   9.53318681638473      1.35897936314032     -4.50154636860666
  H   10.17574128876546      1.56320666009959     -3.63972405816883
  H   9.79708761371417      0.36031499410550     -4.87236485796082
  H   9.78318293986925      2.07515389262909     -5.28988840900443
