Coordinates from ORCA-job o-NO2-Ph-N2+-B3LYPG-aug-cc-pVDZ-scan-d09-49-n400
 OpenBabel09291715233D

 15 14  0  0  0  0  0  0  0  0999 V2000
   -1.5790    0.3313   -0.7696 C   0  0  0  0  0  0  0  0  0  0  0  0
   -0.4317    0.3188   -0.0405 C   0  0  0  0  0  0  0  0  0  0  0  0
   -0.2510    1.1164    1.1573 C   0  0  0  0  0  0  0  0  0  0  0  0
   -1.6413    2.0199    1.4624 C   0  0  0  0  0  0  0  0  0  0  0  0
   -2.7979    1.9517    0.6124 C   0  0  0  0  0  0  0  0  0  0  0  0
   -2.7524    1.1301   -0.4624 C   0  0  0  0  0  0  0  0  0  0  0  0
   -1.6238   -0.3060   -1.6543 H   0  0  0  0  0  0  0  0  0  0  0  0
    0.4289   -0.2938   -0.3125 H   0  0  0  0  0  0  0  0  0  0  0  0
    3.2122    0.2970   -1.7084 N   0  0  0  0  0  0  0  0  0  0  0  0
    4.2201    0.2918   -2.1591 N   0  0  0  0  0  0  0  0  0  0  0  0
   -3.6155    1.0588   -1.1225 H   0  0  0  0  0  0  0  0  0  0  0  0
   -3.6636    2.5617    0.8662 H   0  0  0  0  0  0  0  0  0  0  0  0
   -1.3561    2.6517    2.5032 N   0  0  0  0  0  0  0  0  0  0  0  0
    0.6587    1.2320    1.9154 O   0  0  0  0  0  0  0  0  0  0  0  0
   -0.5734    2.8828    3.3318 O   0  0  0  0  0  0  0  0  0  0  0  0
  1  6  1  0  0  0  0
  1  2  2  0  0  0  0
  2  3  1  0  0  0  0
  3  4  1  0  0  0  0
  3 14  2  0  0  0  0
  4 13  2  0  0  0  0
  5 12  1  0  0  0  0
  5  4  1  0  0  0  0
  6  5  2  0  0  0  0
  7  1  1  0  0  0  0
  8  2  1  0  0  0  0
 10  9  3  0  0  0  0
 11  6  1  0  0  0  0
 13 15  1  0  0  0  0
M  RAD  1  15   2
M  END
