Coordinates from ORCA-job o-NO2-Ph-N2+-B3LYPG-aug-cc-pVDZ-scan-d09-49-n400
 OpenBabel09291715233D

 15 14  0  0  0  0  0  0  0  0999 V2000
   -2.0677    0.1517   -1.0073 C   0  0  0  0  0  0  0  0  0  0  0  0
   -0.6211    0.1719   -0.8982 C   0  0  0  0  0  0  0  0  0  0  0  0
   -0.4053    1.0096    0.0989 C   0  0  0  0  0  0  0  0  0  0  0  0
   -0.9885    1.8106    1.0058 C   0  0  0  0  0  0  0  0  0  0  0  0
   -2.3848    1.7267    0.8248 C   0  0  0  0  0  0  0  0  0  0  0  0
   -2.9050    0.8995   -0.1780 C   0  0  0  0  0  0  0  0  0  0  0  0
   -2.4537   -0.5000   -1.7959 H   0  0  0  0  0  0  0  0  0  0  0  0
    0.0494   -0.4030   -1.5341 H   0  0  0  0  0  0  0  0  0  0  0  0
    3.0975    0.3852   -0.4270 N   0  0  0  0  0  0  0  0  0  0  0  0
    4.2005    0.3502   -0.4023 N   0  0  0  0  0  0  0  0  0  0  0  0
   -3.9835    0.8345   -0.3181 H   0  0  0  0  0  0  0  0  0  0  0  0
   -2.9895    2.3370    1.5063 H   0  0  0  0  0  0  0  0  0  0  0  0
   -0.2835    2.6339    2.0149 N   0  0  0  0  0  0  0  0  0  0  0  0
    0.9351    2.5350    1.9705 O   0  0  0  0  0  0  0  0  0  0  0  0
   -0.9654    3.3015    2.7592 O   0  0  0  0  0  0  0  0  0  0  0  0
  1  2  2  0  0  0  0
  1  6  1  0  0  0  0
  2  3  1  0  0  0  0
  3  4  2  0  0  0  0
  4 13  1  0  0  0  0
  5  4  1  0  0  0  0
  5 12  1  0  0  0  0
  6  5  2  0  0  0  0
  7  1  1  0  0  0  0
  8  2  1  0  0  0  0
  9 10  3  0  0  0  0
 11  6  1  0  0  0  0
 13 15  2  0  0  0  0
 14 13  2  0  0  0  0
M  RAD  1   3   2
M  END
