Coordinates from ORCA-job o-NO2-Ph-N2+-B3LYPG-aug-cc-pVDZ-scan-d09-49-n400
 OpenBabel09291715233D

 15 14  0  0  0  0  0  0  0  0999 V2000
   -1.5874    0.3216   -0.7694 C   0  0  0  0  0  0  0  0  0  0  0  0
   -0.4383    0.3037   -0.0432 C   0  0  0  0  0  0  0  0  0  0  0  0
   -0.2484    1.1051    1.1506 C   0  0  0  0  0  0  0  0  0  0  0  0
   -1.6313    2.0204    1.4553 C   0  0  0  0  0  0  0  0  0  0  0  0
   -2.7905    1.9571    0.6085 C   0  0  0  0  0  0  0  0  0  0  0  0
   -2.7539    1.1305   -0.4627 C   0  0  0  0  0  0  0  0  0  0  0  0
   -1.6392   -0.3192   -1.6512 H   0  0  0  0  0  0  0  0  0  0  0  0
    0.4172   -0.3163   -0.3145 H   0  0  0  0  0  0  0  0  0  0  0  0
    3.1969    0.3216   -1.6828 N   0  0  0  0  0  0  0  0  0  0  0  0
    4.2066    0.3272   -2.1294 N   0  0  0  0  0  0  0  0  0  0  0  0
   -3.6192    1.0628   -1.1204 H   0  0  0  0  0  0  0  0  0  0  0  0
   -3.6510    2.5746    0.8618 H   0  0  0  0  0  0  0  0  0  0  0  0
   -1.3387    2.6546    2.4926 N   0  0  0  0  0  0  0  0  0  0  0  0
    0.6640    1.2172    1.9059 O   0  0  0  0  0  0  0  0  0  0  0  0
   -0.5525    2.8836    3.3183 O   0  0  0  0  0  0  0  0  0  0  0  0
  1  6  1  0  0  0  0
  1  2  2  0  0  0  0
  2  3  1  0  0  0  0
  3  4  1  0  0  0  0
  3 14  2  0  0  0  0
  4 13  2  0  0  0  0
  5 12  1  0  0  0  0
  5  4  1  0  0  0  0
  6  5  2  0  0  0  0
  7  1  1  0  0  0  0
  8  2  1  0  0  0  0
 10  9  3  0  0  0  0
 11  6  1  0  0  0  0
 13 15  1  0  0  0  0
M  RAD  1  15   2
M  END
