Coordinates from ORCA-job o-NO2-Ph-N2+-B3LYPG-aug-cc-pVDZ-scan-d09-49-n400
 OpenBabel09291715223D

 15 15  0  0  0  0  0  0  0  0999 V2000
   -1.8948    0.0950   -1.0640 C   0  0  0  0  0  0  0  0  0  0  0  0
   -0.5125    0.0871   -0.9904 C   0  0  0  0  0  0  0  0  0  0  0  0
    0.1777    0.8865   -0.0102 C   0  0  0  0  0  0  0  0  0  0  0  0
   -0.6322    1.6840    0.8784 C   0  0  0  0  0  0  0  0  0  0  0  0
   -2.0055    1.6789    0.7904 C   0  0  0  0  0  0  0  0  0  0  0  0
   -2.6421    0.8847   -0.1811 C   0  0  0  0  0  0  0  0  0  0  0  0
   -2.3922   -0.5184   -1.8145 H   0  0  0  0  0  0  0  0  0  0  0  0
    0.0915   -0.5191   -1.6660 H   0  0  0  0  0  0  0  0  0  0  0  0
    1.3273    0.8422    0.0064 N   0  0  0  0  0  0  0  0  0  0  0  0
    2.4467    0.7358   -0.0508 N   0  0  0  0  0  0  0  0  0  0  0  0
   -3.7306    0.8885   -0.2421 H   0  0  0  0  0  0  0  0  0  0  0  0
   -2.5743    2.2970    1.4830 H   0  0  0  0  0  0  0  0  0  0  0  0
    0.0244    2.5301    1.9110 N   0  0  0  0  0  0  0  0  0  0  0  0
    1.2511    2.4947    1.9297 O   0  0  0  0  0  0  0  0  0  0  0  0
   -0.7004    3.1772    2.6396 O   0  0  0  0  0  0  0  0  0  0  0  0
  1  2  2  0  0  0  0
  1  6  1  0  0  0  0
  2  3  1  0  0  0  0
  3  9  1  0  0  0  0
  3  4  2  0  0  0  0
  4 13  1  0  0  0  0
  5  4  1  0  0  0  0
  5 12  1  0  0  0  0
  6  5  2  0  0  0  0
  7  1  1  0  0  0  0
  8  2  1  0  0  0  0
 10  9  1  0  0  0  0
 11  6  1  0  0  0  0
 13 14  2  0  0  0  0
 13 15  2  0  0  0  0
M  RAD  2   9   2  10   3
M  END
