Coordinates from ORCA-job o-NO2-Ph-N2+-B3LYPG-aug-cc-pVDZ-scan-d09-49-n400
 OpenBabel09291715233D

 15 14  0  0  0  0  0  0  0  0999 V2000
   -1.6232    0.2829   -0.7687 C   0  0  0  0  0  0  0  0  0  0  0  0
   -0.4664    0.2440   -0.0559 C   0  0  0  0  0  0  0  0  0  0  0  0
   -0.2383    1.0602    1.1211 C   0  0  0  0  0  0  0  0  0  0  0  0
   -1.5899    2.0215    1.4256 C   0  0  0  0  0  0  0  0  0  0  0  0
   -2.7607    1.9777    0.5935 C   0  0  0  0  0  0  0  0  0  0  0  0
   -2.7615    1.1316   -0.4630 C   0  0  0  0  0  0  0  0  0  0  0  0
   -1.7049   -0.3715   -1.6380 H   0  0  0  0  0  0  0  0  0  0  0  0
    0.3681   -0.4047   -0.3250 H   0  0  0  0  0  0  0  0  0  0  0  0
    3.1380    0.4194   -1.5761 N   0  0  0  0  0  0  0  0  0  0  0  0
    4.1549    0.4710   -2.0032 N   0  0  0  0  0  0  0  0  0  0  0  0
   -3.6364    1.0780   -1.1091 H   0  0  0  0  0  0  0  0  0  0  0  0
   -3.5994    2.6249    0.8456 H   0  0  0  0  0  0  0  0  0  0  0  0
   -1.2666    2.6649    2.4478 N   0  0  0  0  0  0  0  0  0  0  0  0
    0.6862    1.1580    1.8635 O   0  0  0  0  0  0  0  0  0  0  0  0
   -0.4656    2.8863    3.2612 O   0  0  0  0  0  0  0  0  0  0  0  0
  1  6  1  0  0  0  0
  1  2  2  0  0  0  0
  2  3  1  0  0  0  0
  3  4  1  0  0  0  0
  3 14  2  0  0  0  0
  4 13  2  0  0  0  0
  5 12  1  0  0  0  0
  5  4  1  0  0  0  0
  6  5  2  0  0  0  0
  7  1  1  0  0  0  0
  8  2  1  0  0  0  0
 10  9  3  0  0  0  0
 11  6  1  0  0  0  0
 13 15  1  0  0  0  0
M  RAD  1  15   2
M  END
