Coordinates from ORCA-job o-NO2-Ph-N2+-B3LYPG-aug-cc-pVDZ-scan-d09-49-n400
 OpenBabel09291715233D

 15 14  0  0  0  0  0  0  0  0999 V2000
   -1.5710    0.3411   -0.7698 C   0  0  0  0  0  0  0  0  0  0  0  0
   -0.4254    0.3339   -0.0380 C   0  0  0  0  0  0  0  0  0  0  0  0
   -0.2535    1.1277    1.1638 C   0  0  0  0  0  0  0  0  0  0  0  0
   -1.6511    2.0194    1.4694 C   0  0  0  0  0  0  0  0  0  0  0  0
   -2.8052    1.9462    0.6164 C   0  0  0  0  0  0  0  0  0  0  0  0
   -2.7510    1.1297   -0.4619 C   0  0  0  0  0  0  0  0  0  0  0  0
   -1.6088   -0.2926   -1.6573 H   0  0  0  0  0  0  0  0  0  0  0  0
    0.4402   -0.2713   -0.3108 H   0  0  0  0  0  0  0  0  0  0  0  0
    3.2277    0.2726   -1.7337 N   0  0  0  0  0  0  0  0  0  0  0  0
    4.2339    0.2569   -2.1880 N   0  0  0  0  0  0  0  0  0  0  0  0
   -3.6121    1.0549   -1.1243 H   0  0  0  0  0  0  0  0  0  0  0  0
   -3.6760    2.5486    0.8708 H   0  0  0  0  0  0  0  0  0  0  0  0
   -1.3731    2.6488    2.5136 N   0  0  0  0  0  0  0  0  0  0  0  0
    0.6536    1.2468    1.9245 O   0  0  0  0  0  0  0  0  0  0  0  0
   -0.5938    2.8819    3.3448 O   0  0  0  0  0  0  0  0  0  0  0  0
  1  6  1  0  0  0  0
  1  2  2  0  0  0  0
  2  3  1  0  0  0  0
  3  4  1  0  0  0  0
  3 14  2  0  0  0  0
  4 13  2  0  0  0  0
  5 12  1  0  0  0  0
  5  4  1  0  0  0  0
  6  5  2  0  0  0  0
  7  1  1  0  0  0  0
  8  2  1  0  0  0  0
 10  9  3  0  0  0  0
 11  6  1  0  0  0  0
 13 15  1  0  0  0  0
M  RAD  1  15   2
M  END
