Coordinates from ORCA-job o-NO2-Ph-N2+-B3LYPG-aug-cc-pVDZ-scan-d09-49-n400
 OpenBabel09291715223D

 15 15  0  0  0  0  0  0  0  0999 V2000
   -1.9023    0.0968   -1.0623 C   0  0  0  0  0  0  0  0  0  0  0  0
   -0.5152    0.0910   -0.9870 C   0  0  0  0  0  0  0  0  0  0  0  0
    0.1384    0.8912   -0.0075 C   0  0  0  0  0  0  0  0  0  0  0  0
   -0.6462    1.6863    0.8806 C   0  0  0  0  0  0  0  0  0  0  0  0
   -2.0222    1.6803    0.7921 C   0  0  0  0  0  0  0  0  0  0  0  0
   -2.6524    0.8842   -0.1811 C   0  0  0  0  0  0  0  0  0  0  0  0
   -2.3980   -0.5171   -1.8134 H   0  0  0  0  0  0  0  0  0  0  0  0
    0.0883   -0.5143   -1.6628 H   0  0  0  0  0  0  0  0  0  0  0  0
    1.3984    0.8496    0.0184 N   0  0  0  0  0  0  0  0  0  0  0  0
    2.5065    0.7242   -0.0622 N   0  0  0  0  0  0  0  0  0  0  0  0
   -3.7406    0.8848   -0.2450 H   0  0  0  0  0  0  0  0  0  0  0  0
   -2.5940    2.2972    1.4834 H   0  0  0  0  0  0  0  0  0  0  0  0
    0.0193    2.5265    1.9077 N   0  0  0  0  0  0  0  0  0  0  0  0
    1.2472    2.4784    1.9207 O   0  0  0  0  0  0  0  0  0  0  0  0
   -0.6928    3.1849    2.6377 O   0  0  0  0  0  0  0  0  0  0  0  0
  1  2  2  0  0  0  0
  1  6  1  0  0  0  0
  2  3  1  0  0  0  0
  3  9  1  0  0  0  0
  3  4  2  0  0  0  0
  4 13  1  0  0  0  0
  5  4  1  0  0  0  0
  5 12  1  0  0  0  0
  6  5  2  0  0  0  0
  7  1  1  0  0  0  0
  8  2  1  0  0  0  0
 10  9  1  0  0  0  0
 11  6  1  0  0  0  0
 13 14  2  0  0  0  0
 13 15  2  0  0  0  0
M  RAD  2   9   2  10   3
M  END
