Coordinates from ORCA-job o-NO2-Ph-N2+-B3LYPG-aug-cc-pVDZ-scan-d09-49-n400
 OpenBabel09291715233D

 15 14  0  0  0  0  0  0  0  0999 V2000
   -2.0905    0.1406   -1.0218 C   0  0  0  0  0  0  0  0  0  0  0  0
   -0.6447    0.1401   -0.9369 C   0  0  0  0  0  0  0  0  0  0  0  0
   -0.3890    0.9732    0.0572 C   0  0  0  0  0  0  0  0  0  0  0  0
   -0.9356    1.7833    0.9768 C   0  0  0  0  0  0  0  0  0  0  0  0
   -2.3381    1.7175    0.8168 C   0  0  0  0  0  0  0  0  0  0  0  0
   -2.8959    0.9025   -0.1739 C   0  0  0  0  0  0  0  0  0  0  0  0
   -2.5041   -0.5032   -1.8027 H   0  0  0  0  0  0  0  0  0  0  0  0
    0.0076   -0.4432   -1.5839 H   0  0  0  0  0  0  0  0  0  0  0  0
    2.9896    0.4764   -0.3261 N   0  0  0  0  0  0  0  0  0  0  0  0
    4.0923    0.4570   -0.2832 N   0  0  0  0  0  0  0  0  0  0  0  0
   -3.9785    0.8589   -0.2891 H   0  0  0  0  0  0  0  0  0  0  0  0
   -2.9154    2.3387    1.5127 H   0  0  0  0  0  0  0  0  0  0  0  0
   -0.2287    2.6104    1.9904 N   0  0  0  0  0  0  0  0  0  0  0  0
    0.9876    2.5186    1.9541 O   0  0  0  0  0  0  0  0  0  0  0  0
   -0.9221    3.2735    2.7290 O   0  0  0  0  0  0  0  0  0  0  0  0
  1  2  2  0  0  0  0
  1  6  1  0  0  0  0
  2  3  1  0  0  0  0
  3  4  2  0  0  0  0
  4 13  1  0  0  0  0
  5  4  1  0  0  0  0
  5 12  1  0  0  0  0
  6  5  2  0  0  0  0
  7  1  1  0  0  0  0
  8  2  1  0  0  0  0
  9 10  3  0  0  0  0
 11  6  1  0  0  0  0
 13 15  2  0  0  0  0
 14 13  2  0  0  0  0
M  RAD  1   3   2
M  END
