Coordinates from ORCA-job o-NO2-Ph-N2+-B3LYPG-aug-cc-pVDZ-scan-d09-49-n400
 OpenBabel09291715233D

 15 14  0  0  0  0  0  0  0  0999 V2000
   -1.6912    0.1782   -0.7651 C   0  0  0  0  0  0  0  0  0  0  0  0
   -0.5293    0.0718   -0.0697 C   0  0  0  0  0  0  0  0  0  0  0  0
   -0.2023    0.9200    1.0607 C   0  0  0  0  0  0  0  0  0  0  0  0
   -1.4581    2.0186    1.3410 C   0  0  0  0  0  0  0  0  0  0  0  0
   -2.6470    2.0327    0.5312 C   0  0  0  0  0  0  0  0  0  0  0  0
   -2.7439    1.1383   -0.4795 C   0  0  0  0  0  0  0  0  0  0  0  0
   -1.8485   -0.5049   -1.6013 H   0  0  0  0  0  0  0  0  0  0  0  0
    0.2473   -0.6525   -0.3163 H   0  0  0  0  0  0  0  0  0  0  0  0
    2.8509    0.7115   -1.2875 N   0  0  0  0  0  0  0  0  0  0  0  0
    3.8742    0.8810   -1.6654 N   0  0  0  0  0  0  0  0  0  0  0  0
   -3.6351    1.1304   -1.1053 H   0  0  0  0  0  0  0  0  0  0  0  0
   -3.4217    2.7616    0.7641 H   0  0  0  0  0  0  0  0  0  0  0  0
   -1.0596    2.6835    2.3187 N   0  0  0  0  0  0  0  0  0  0  0  0
    0.7475    0.9672    1.7732 O   0  0  0  0  0  0  0  0  0  0  0  0
   -0.2488    2.9070    3.1206 O   0  0  0  0  0  0  0  0  0  0  0  0
  1  6  1  0  0  0  0
  1  2  2  0  0  0  0
  2  3  1  0  0  0  0
  3  4  1  0  0  0  0
  3 14  2  0  0  0  0
  4 13  2  0  0  0  0
  5 12  1  0  0  0  0
  5  4  1  0  0  0  0
  6  5  2  0  0  0  0
  7  1  1  0  0  0  0
  8  2  1  0  0  0  0
 10  9  3  0  0  0  0
 11  6  1  0  0  0  0
 13 15  1  0  0  0  0
M  RAD  1  15   2
M  END
