Coordinates from ORCA-job o-NO2-Ph-N2+-B3LYPG-aug-cc-pVDZ-scan-d09-49-n400
 OpenBabel09291715233D

 15 14  0  0  0  0  0  0  0  0999 V2000
   -2.0830    0.1177   -1.0482 C   0  0  0  0  0  0  0  0  0  0  0  0
   -0.6428    0.0901   -0.9955 C   0  0  0  0  0  0  0  0  0  0  0  0
   -0.3176    0.9140   -0.0081 C   0  0  0  0  0  0  0  0  0  0  0  0
   -0.8144    1.7348    0.9270 C   0  0  0  0  0  0  0  0  0  0  0  0
   -2.2247    1.6953    0.7973 C   0  0  0  0  0  0  0  0  0  0  0  0
   -2.8390    0.9003   -0.1732 C   0  0  0  0  0  0  0  0  0  0  0  0
   -2.5391   -0.5124   -1.8156 H   0  0  0  0  0  0  0  0  0  0  0  0
   -0.0187   -0.5055   -1.6584 H   0  0  0  0  0  0  0  0  0  0  0  0
    2.5735    0.6601   -0.1351 N   0  0  0  0  0  0  0  0  0  0  0  0
    3.6761    0.6327   -0.1016 N   0  0  0  0  0  0  0  0  0  0  0  0
   -3.9258    0.8900   -0.2495 H   0  0  0  0  0  0  0  0  0  0  0  0
   -2.7621    2.3307    1.5123 H   0  0  0  0  0  0  0  0  0  0  0  0
   -0.1149    2.5717    1.9518 N   0  0  0  0  0  0  0  0  0  0  0  0
    1.0994    2.4999    1.9389 O   0  0  0  0  0  0  0  0  0  0  0  0
   -0.8328    3.2248    2.6773 O   0  0  0  0  0  0  0  0  0  0  0  0
  1  2  2  0  0  0  0
  1  6  1  0  0  0  0
  2  3  1  0  0  0  0
  3  4  2  0  0  0  0
  4 13  1  0  0  0  0
  5  4  1  0  0  0  0
  5 12  1  0  0  0  0
  6  5  2  0  0  0  0
  7  1  1  0  0  0  0
  8  2  1  0  0  0  0
  9 10  3  0  0  0  0
 11  6  1  0  0  0  0
 13 15  2  0  0  0  0
 14 13  2  0  0  0  0
M  RAD  1   3   2
M  END
