Coordinates from ORCA-job o-NO2-Ph-N2+-B3LYPG-aug-cc-pVDZ-scan-d09-49-n400
 OpenBabel09291715233D

 15 14  0  0  0  0  0  0  0  0999 V2000
   -1.6626    0.2434   -0.7703 C   0  0  0  0  0  0  0  0  0  0  0  0
   -0.4988    0.1833   -0.0717 C   0  0  0  0  0  0  0  0  0  0  0  0
   -0.2334    1.0158    1.0876 C   0  0  0  0  0  0  0  0  0  0  0  0
   -1.5441    2.0211    1.3940 C   0  0  0  0  0  0  0  0  0  0  0  0
   -2.7287    1.9958    0.5797 C   0  0  0  0  0  0  0  0  0  0  0  0
   -2.7704    1.1312   -0.4608 C   0  0  0  0  0  0  0  0  0  0  0  0
   -1.7767   -0.4215   -1.6279 H   0  0  0  0  0  0  0  0  0  0  0  0
    0.3182   -0.4888   -0.3358 H   0  0  0  0  0  0  0  0  0  0  0  0
    3.0779    0.5176   -1.4612 N   0  0  0  0  0  0  0  0  0  0  0  0
    4.1022    0.6215   -1.8599 N   0  0  0  0  0  0  0  0  0  0  0  0
   -3.6570    1.0927   -1.0919 H   0  0  0  0  0  0  0  0  0  0  0  0
   -3.5446    2.6713    0.8322 H   0  0  0  0  0  0  0  0  0  0  0  0
   -1.1857    2.6741    2.3981 N   0  0  0  0  0  0  0  0  0  0  0  0
    0.7106    1.0927    1.8080 O   0  0  0  0  0  0  0  0  0  0  0  0
   -0.3726    2.8941    3.1993 O   0  0  0  0  0  0  0  0  0  0  0  0
  1  6  1  0  0  0  0
  1  2  2  0  0  0  0
  2  3  1  0  0  0  0
  3  4  1  0  0  0  0
  3 14  2  0  0  0  0
  4 13  2  0  0  0  0
  5 12  1  0  0  0  0
  5  4  1  0  0  0  0
  6  5  2  0  0  0  0
  7  1  1  0  0  0  0
  8  2  1  0  0  0  0
 10  9  3  0  0  0  0
 11  6  1  0  0  0  0
 13 15  1  0  0  0  0
M  RAD  1  15   2
M  END
