Coordinates from ORCA-job o-NO2-Ph-N2+-B3LYPG-aug-cc-pVDZ-scan-d09-49-n400
 OpenBabel09291715233D

 15 14  0  0  0  0  0  0  0  0999 V2000
   -2.0750    0.1128   -1.0535 C   0  0  0  0  0  0  0  0  0  0  0  0
   -0.6371    0.0811   -1.0057 C   0  0  0  0  0  0  0  0  0  0  0  0
   -0.2937    0.9027   -0.0200 C   0  0  0  0  0  0  0  0  0  0  0  0
   -0.7858    1.7252    0.9174 C   0  0  0  0  0  0  0  0  0  0  0  0
   -2.1971    1.6902    0.7929 C   0  0  0  0  0  0  0  0  0  0  0  0
   -2.8216    0.8991   -0.1736 C   0  0  0  0  0  0  0  0  0  0  0  0
   -2.5397   -0.5143   -1.8178 H   0  0  0  0  0  0  0  0  0  0  0  0
   -0.0185   -0.5167   -1.6716 H   0  0  0  0  0  0  0  0  0  0  0  0
    2.4623    0.6977   -0.0975 N   0  0  0  0  0  0  0  0  0  0  0  0
    3.5648    0.6622   -0.0736 N   0  0  0  0  0  0  0  0  0  0  0  0
   -3.9089    0.8952   -0.2425 H   0  0  0  0  0  0  0  0  0  0  0  0
   -2.7285    2.3275    1.5104 H   0  0  0  0  0  0  0  0  0  0  0  0
   -0.0919    2.5654    1.9458 N   0  0  0  0  0  0  0  0  0  0  0  0
    1.1223    2.5010    1.9415 O   0  0  0  0  0  0  0  0  0  0  0  0
   -0.8173    3.2153    2.6670 O   0  0  0  0  0  0  0  0  0  0  0  0
  1  2  2  0  0  0  0
  1  6  1  0  0  0  0
  2  3  1  0  0  0  0
  3  4  2  0  0  0  0
  4 13  1  0  0  0  0
  5  4  1  0  0  0  0
  5 12  1  0  0  0  0
  6  5  2  0  0  0  0
  7  1  1  0  0  0  0
  8  2  1  0  0  0  0
  9 10  3  0  0  0  0
 11  6  1  0  0  0  0
 13 15  2  0  0  0  0
 14 13  2  0  0  0  0
M  RAD  1   3   2
M  END
