Coordinates from ORCA-job o-NO2-Ph-N2+-B3LYPG-aug-cc-pVDZ-scan-d09-49-n400
 OpenBabel09291715233D

 15 14  0  0  0  0  0  0  0  0999 V2000
   -2.0916    0.1307   -1.0334 C   0  0  0  0  0  0  0  0  0  0  0  0
   -0.6475    0.1167   -0.9645 C   0  0  0  0  0  0  0  0  0  0  0  0
   -0.3609    0.9459    0.0267 C   0  0  0  0  0  0  0  0  0  0  0  0
   -0.8843    1.7614    0.9541 C   0  0  0  0  0  0  0  0  0  0  0  0
   -2.2903    1.7082    0.8086 C   0  0  0  0  0  0  0  0  0  0  0  0
   -2.8743    0.9022   -0.1730 C   0  0  0  0  0  0  0  0  0  0  0  0
   -2.5245   -0.5071   -1.8084 H   0  0  0  0  0  0  0  0  0  0  0  0
   -0.0090   -0.4728   -1.6195 H   0  0  0  0  0  0  0  0  0  0  0  0
    2.8206    0.5596   -0.2385 N   0  0  0  0  0  0  0  0  0  0  0  0
    3.9232    0.5406   -0.1951 N   0  0  0  0  0  0  0  0  0  0  0  0
   -3.9591    0.8737   -0.2706 H   0  0  0  0  0  0  0  0  0  0  0  0
   -2.8487    2.3364    1.5139 H   0  0  0  0  0  0  0  0  0  0  0  0
   -0.1776    2.5915    1.9713 N   0  0  0  0  0  0  0  0  0  0  0  0
    1.0376    2.5059    1.9421 O   0  0  0  0  0  0  0  0  0  0  0  0
   -0.8793    3.2514    2.7056 O   0  0  0  0  0  0  0  0  0  0  0  0
  1  2  2  0  0  0  0
  1  6  1  0  0  0  0
  2  3  1  0  0  0  0
  3  4  2  0  0  0  0
  4 13  1  0  0  0  0
  5  4  1  0  0  0  0
  5 12  1  0  0  0  0
  6  5  2  0  0  0  0
  7  1  1  0  0  0  0
  8  2  1  0  0  0  0
  9 10  3  0  0  0  0
 11  6  1  0  0  0  0
 13 15  2  0  0  0  0
 14 13  2  0  0  0  0
M  RAD  1   3   2
M  END
