Coordinates from ORCA-job o-NO2-Ph-N2+-B3LYPG-aug-cc-pVDZ-scan-d09-49-n400
 OpenBabel09291715223D

 15 15  0  0  0  0  0  0  0  0999 V2000
   -1.8908    0.0948   -1.0652 C   0  0  0  0  0  0  0  0  0  0  0  0
   -0.5104    0.0843   -0.9918 C   0  0  0  0  0  0  0  0  0  0  0  0
    0.1938    0.8848   -0.0115 C   0  0  0  0  0  0  0  0  0  0  0  0
   -0.6260    1.6835    0.8783 C   0  0  0  0  0  0  0  0  0  0  0  0
   -1.9983    1.6788    0.7893 C   0  0  0  0  0  0  0  0  0  0  0  0
   -2.6369    0.8863   -0.1824 C   0  0  0  0  0  0  0  0  0  0  0  0
   -2.3891   -0.5185   -1.8155 H   0  0  0  0  0  0  0  0  0  0  0  0
    0.0942   -0.5235   -1.6658 H   0  0  0  0  0  0  0  0  0  0  0  0
    1.2933    0.8389    0.0045 N   0  0  0  0  0  0  0  0  0  0  0  0
    2.4174    0.7360   -0.0432 N   0  0  0  0  0  0  0  0  0  0  0  0
   -3.7255    0.8921   -0.2432 H   0  0  0  0  0  0  0  0  0  0  0  0
   -2.5665    2.2968    1.4827 H   0  0  0  0  0  0  0  0  0  0  0  0
    0.0273    2.5309    1.9129 N   0  0  0  0  0  0  0  0  0  0  0  0
    1.2541    2.5172    1.9194 O   0  0  0  0  0  0  0  0  0  0  0  0
   -0.7024    3.1621    2.6509 O   0  0  0  0  0  0  0  0  0  0  0  0
  1  2  2  0  0  0  0
  1  6  1  0  0  0  0
  2  3  1  0  0  0  0
  3  9  1  0  0  0  0
  3  4  2  0  0  0  0
  4 13  1  0  0  0  0
  5  4  1  0  0  0  0
  5 12  1  0  0  0  0
  6  5  2  0  0  0  0
  7  1  1  0  0  0  0
  8  2  1  0  0  0  0
 10  9  1  0  0  0  0
 11  6  1  0  0  0  0
 13 14  2  0  0  0  0
 13 15  2  0  0  0  0
M  RAD  2   9   2  10   3
M  END
