Coordinates from ORCA-job o-NO2-Ph-N2+-B3LYPG-aug-cc-pVDZ-scan-d09-49-n400
 OpenBabel09291715223D

 15 15  0  0  0  0  0  0  0  0999 V2000
   -1.8801    0.0992   -1.0765 C   0  0  0  0  0  0  0  0  0  0  0  0
   -0.5117    0.0496   -0.9893 C   0  0  0  0  0  0  0  0  0  0  0  0
    0.2667    0.8536    0.0029 C   0  0  0  0  0  0  0  0  0  0  0  0
   -0.6136    1.6823    0.8810 C   0  0  0  0  0  0  0  0  0  0  0  0
   -1.9792    1.6960    0.7731 C   0  0  0  0  0  0  0  0  0  0  0  0
   -2.6219    0.9166   -0.2071 C   0  0  0  0  0  0  0  0  0  0  0  0
   -2.3848   -0.5093   -1.8276 H   0  0  0  0  0  0  0  0  0  0  0  0
    0.1032   -0.5794   -1.6354 H   0  0  0  0  0  0  0  0  0  0  0  0
    1.1647    0.8062    0.0385 N   0  0  0  0  0  0  0  0  0  0  0  0
    2.3198    0.7276    0.0623 N   0  0  0  0  0  0  0  0  0  0  0  0
   -3.7092    0.9468   -0.2843 H   0  0  0  0  0  0  0  0  0  0  0  0
   -2.5471    2.3206    1.4620 H   0  0  0  0  0  0  0  0  0  0  0  0
    0.0454    2.5352    1.8990 N   0  0  0  0  0  0  0  0  0  0  0  0
    1.2071    2.8451    1.6587 O   0  0  0  0  0  0  0  0  0  0  0  0
   -0.6249    2.8542    2.8620 O   0  0  0  0  0  0  0  0  0  0  0  0
  1  2  2  0  0  0  0
  1  6  1  0  0  0  0
  2  3  1  0  0  0  0
  3  9  1  0  0  0  0
  3  4  2  0  0  0  0
  4 13  1  0  0  0  0
  5  4  1  0  0  0  0
  5 12  1  0  0  0  0
  6  5  2  0  0  0  0
  7  1  1  0  0  0  0
  8  2  1  0  0  0  0
  9 10  1  0  0  0  0
 11  6  1  0  0  0  0
 13 15  2  0  0  0  0
 14 13  2  0  0  0  0
M  RAD  2   9   2  10   3
M  END
