Coordinates from ORCA-job o-NO2-Ph-N2+-B3LYPG-aug-cc-pVDZ-scan-d09-49-n400
 OpenBabel09291715233D

 15 14  0  0  0  0  0  0  0  0999 V2000
   -1.6380    0.2684   -0.7687 C   0  0  0  0  0  0  0  0  0  0  0  0
   -0.4780    0.2217   -0.0618 C   0  0  0  0  0  0  0  0  0  0  0  0
   -0.2349    1.0436    1.1085 C   0  0  0  0  0  0  0  0  0  0  0  0
   -1.5732    2.0213    1.4137 C   0  0  0  0  0  0  0  0  0  0  0  0
   -2.7492    1.9849    0.5883 C   0  0  0  0  0  0  0  0  0  0  0  0
   -2.7651    1.1317   -0.4623 C   0  0  0  0  0  0  0  0  0  0  0  0
   -1.7319   -0.3909   -1.6331 H   0  0  0  0  0  0  0  0  0  0  0  0
    0.3488   -0.4371   -0.3302 H   0  0  0  0  0  0  0  0  0  0  0  0
    3.1169    0.4561   -1.5342 N   0  0  0  0  0  0  0  0  0  0  0  0
    4.1368    0.5264   -1.9511 N   0  0  0  0  0  0  0  0  0  0  0  0
   -3.6442    1.0835   -1.1032 H   0  0  0  0  0  0  0  0  0  0  0  0
   -3.5793    2.6430    0.8406 H   0  0  0  0  0  0  0  0  0  0  0  0
   -1.2380    2.6684    2.4297 N   0  0  0  0  0  0  0  0  0  0  0  0
    0.6953    1.1354    1.8447 O   0  0  0  0  0  0  0  0  0  0  0  0
   -0.4316    2.8879    3.2383 O   0  0  0  0  0  0  0  0  0  0  0  0
  1  6  1  0  0  0  0
  1  2  2  0  0  0  0
  2  3  1  0  0  0  0
  3  4  1  0  0  0  0
  3 14  2  0  0  0  0
  4 13  2  0  0  0  0
  5 12  1  0  0  0  0
  5  4  1  0  0  0  0
  6  5  2  0  0  0  0
  7  1  1  0  0  0  0
  8  2  1  0  0  0  0
 10  9  3  0  0  0  0
 11  6  1  0  0  0  0
 13 15  1  0  0  0  0
M  RAD  1  15   2
M  END
