Coordinates from ORCA-job o-NO2-Ph-N2+-B3LYPG-aug-cc-pVDZ-scan-d09-49-n400
 OpenBabel09291715233D

 15 14  0  0  0  0  0  0  0  0999 V2000
   -2.0689    0.1513   -1.0078 C   0  0  0  0  0  0  0  0  0  0  0  0
   -0.6223    0.1700   -0.9005 C   0  0  0  0  0  0  0  0  0  0  0  0
   -0.4025    1.0075    0.0966 C   0  0  0  0  0  0  0  0  0  0  0  0
   -0.9851    1.8092    1.0043 C   0  0  0  0  0  0  0  0  0  0  0  0
   -2.3817    1.7261    0.8243 C   0  0  0  0  0  0  0  0  0  0  0  0
   -2.9042    0.8997   -0.1777 C   0  0  0  0  0  0  0  0  0  0  0  0
   -2.4565   -0.5000   -1.7960 H   0  0  0  0  0  0  0  0  0  0  0  0
    0.0467   -0.4056   -1.5373 H   0  0  0  0  0  0  0  0  0  0  0  0
    3.0922    0.3892   -0.4226 N   0  0  0  0  0  0  0  0  0  0  0  0
    4.1951    0.3550   -0.3970 N   0  0  0  0  0  0  0  0  0  0  0  0
   -3.9830    0.8360   -0.3163 H   0  0  0  0  0  0  0  0  0  0  0  0
   -2.9850    2.3370    1.5065 H   0  0  0  0  0  0  0  0  0  0  0  0
   -0.2817    2.6332    2.0142 N   0  0  0  0  0  0  0  0  0  0  0  0
    0.9364    2.5354    1.9710 O   0  0  0  0  0  0  0  0  0  0  0  0
   -0.9652    3.3002    2.7577 O   0  0  0  0  0  0  0  0  0  0  0  0
  1  2  2  0  0  0  0
  1  6  1  0  0  0  0
  2  3  1  0  0  0  0
  3  4  2  0  0  0  0
  4 13  1  0  0  0  0
  5  4  1  0  0  0  0
  5 12  1  0  0  0  0
  6  5  2  0  0  0  0
  7  1  1  0  0  0  0
  8  2  1  0  0  0  0
  9 10  3  0  0  0  0
 11  6  1  0  0  0  0
 13 15  2  0  0  0  0
 14 13  2  0  0  0  0
M  RAD  1   3   2
M  END
