Coordinates from ORCA-job o-NO2-Ph-N2+-B3LYPG-aug-cc-pVDZ-scan-d09-49-n400
 OpenBabel09291715233D

 15 14  0  0  0  0  0  0  0  0999 V2000
   -1.6643    0.2398   -0.7699 C   0  0  0  0  0  0  0  0  0  0  0  0
   -0.5004    0.1771   -0.0718 C   0  0  0  0  0  0  0  0  0  0  0  0
   -0.2311    1.0103    1.0859 C   0  0  0  0  0  0  0  0  0  0  0  0
   -1.5397    2.0213    1.3910 C   0  0  0  0  0  0  0  0  0  0  0  0
   -2.7244    1.9981    0.5770 C   0  0  0  0  0  0  0  0  0  0  0  0
   -2.7692    1.1316   -0.4618 C   0  0  0  0  0  0  0  0  0  0  0  0
   -1.7807   -0.4264   -1.6262 H   0  0  0  0  0  0  0  0  0  0  0  0
    0.3142   -0.4981   -0.3354 H   0  0  0  0  0  0  0  0  0  0  0  0
    3.0658    0.5269   -1.4514 N   0  0  0  0  0  0  0  0  0  0  0  0
    4.0899    0.6373   -1.8489 N   0  0  0  0  0  0  0  0  0  0  0  0
   -3.6561    1.0947   -1.0926 H   0  0  0  0  0  0  0  0  0  0  0  0
   -3.5381    2.6766    0.8285 H   0  0  0  0  0  0  0  0  0  0  0  0
   -1.1788    2.6748    2.3937 N   0  0  0  0  0  0  0  0  0  0  0  0
    0.7128    1.0858    1.8063 O   0  0  0  0  0  0  0  0  0  0  0  0
   -0.3656    2.8945    3.1949 O   0  0  0  0  0  0  0  0  0  0  0  0
  1  6  1  0  0  0  0
  1  2  2  0  0  0  0
  2  3  1  0  0  0  0
  3  4  1  0  0  0  0
  3 14  2  0  0  0  0
  4 13  2  0  0  0  0
  5 12  1  0  0  0  0
  5  4  1  0  0  0  0
  6  5  2  0  0  0  0
  7  1  1  0  0  0  0
  8  2  1  0  0  0  0
 10  9  3  0  0  0  0
 11  6  1  0  0  0  0
 13 15  1  0  0  0  0
M  RAD  1  15   2
M  END
