Coordinates from ORCA-job o-NO2-Ph-N2+-B3LYPG-aug-cc-pVDZ-scan-d09-49-n400
 OpenBabel09291715233D

 15 14  0  0  0  0  0  0  0  0999 V2000
   -2.0800    0.1154   -1.0507 C   0  0  0  0  0  0  0  0  0  0  0  0
   -0.6406    0.0857   -1.0006 C   0  0  0  0  0  0  0  0  0  0  0  0
   -0.3083    0.9086   -0.0139 C   0  0  0  0  0  0  0  0  0  0  0  0
   -0.8013    1.7304    0.9226 C   0  0  0  0  0  0  0  0  0  0  0  0
   -2.2123    1.6930    0.7953 C   0  0  0  0  0  0  0  0  0  0  0  0
   -2.8315    0.8998   -0.1733 C   0  0  0  0  0  0  0  0  0  0  0  0
   -2.5403   -0.5133   -1.8167 H   0  0  0  0  0  0  0  0  0  0  0  0
   -0.0189   -0.5109   -1.6648 H   0  0  0  0  0  0  0  0  0  0  0  0
    2.5252    0.6768   -0.1183 N   0  0  0  0  0  0  0  0  0  0  0  0
    3.6278    0.6471   -0.0876 N   0  0  0  0  0  0  0  0  0  0  0  0
   -3.9185    0.8926   -0.2461 H   0  0  0  0  0  0  0  0  0  0  0  0
   -2.7468    2.3293    1.5115 H   0  0  0  0  0  0  0  0  0  0  0  0
   -0.1043    2.5689    1.9492 N   0  0  0  0  0  0  0  0  0  0  0  0
    1.1099    2.5005    1.9402 O   0  0  0  0  0  0  0  0  0  0  0  0
   -0.8258    3.2204    2.6725 O   0  0  0  0  0  0  0  0  0  0  0  0
  1  2  2  0  0  0  0
  1  6  1  0  0  0  0
  2  3  1  0  0  0  0
  3  4  2  0  0  0  0
  4 13  1  0  0  0  0
  5  4  1  0  0  0  0
  5 12  1  0  0  0  0
  6  5  2  0  0  0  0
  7  1  1  0  0  0  0
  8  2  1  0  0  0  0
  9 10  3  0  0  0  0
 11  6  1  0  0  0  0
 13 15  2  0  0  0  0
 14 13  2  0  0  0  0
M  RAD  1   3   2
M  END
