Coordinates from ORCA-job o-NO2-Ph-N2+-B3LYPG-aug-cc-pVDZ-scan-d09-49-n400
 OpenBabel09291715223D

 15 15  0  0  0  0  0  0  0  0999 V2000
   -1.9748    0.0993   -1.0630 C   0  0  0  0  0  0  0  0  0  0  0  0
   -0.5621    0.0745   -1.0087 C   0  0  0  0  0  0  0  0  0  0  0  0
   -0.0718    0.8830   -0.0302 C   0  0  0  0  0  0  0  0  0  0  0  0
   -0.6889    1.6968    0.8891 C   0  0  0  0  0  0  0  0  0  0  0  0
   -2.0854    1.6816    0.7888 C   0  0  0  0  0  0  0  0  0  0  0  0
   -2.7145    0.8891   -0.1791 C   0  0  0  0  0  0  0  0  0  0  0  0
   -2.4688   -0.5161   -1.8150 H   0  0  0  0  0  0  0  0  0  0  0  0
    0.0444   -0.5283   -1.6808 H   0  0  0  0  0  0  0  0  0  0  0  0
    1.7983    0.8671    0.0617 N   0  0  0  0  0  0  0  0  0  0  0  0
    2.8851    0.7156   -0.0520 N   0  0  0  0  0  0  0  0  0  0  0  0
   -3.8020    0.8911   -0.2410 H   0  0  0  0  0  0  0  0  0  0  0  0
   -2.6438    2.3051    1.4882 H   0  0  0  0  0  0  0  0  0  0  0  0
    0.0005    2.5278    1.9058 N   0  0  0  0  0  0  0  0  0  0  0  0
    1.2256    2.4727    1.9163 O   0  0  0  0  0  0  0  0  0  0  0  0
   -0.7075    3.1849    2.6395 O   0  0  0  0  0  0  0  0  0  0  0  0
  1  2  2  0  0  0  0
  1  6  1  0  0  0  0
  2  3  1  0  0  0  0
  3  9  1  0  0  0  0
  3  4  2  0  0  0  0
  4 13  1  0  0  0  0
  5  4  1  0  0  0  0
  5 12  1  0  0  0  0
  6  5  2  0  0  0  0
  7  1  1  0  0  0  0
  8  2  1  0  0  0  0
 10  9  1  0  0  0  0
 11  6  1  0  0  0  0
 13 14  2  0  0  0  0
 13 15  2  0  0  0  0
M  RAD  2   9   2  10   3
M  END
