Coordinates from ORCA-job o-NO2-Ph-N2+-B3LYPG-aug-cc-pVDZ-scan-d09-49-n400
 OpenBabel09291715233D

 15 14  0  0  0  0  0  0  0  0999 V2000
   -1.6688    0.2311   -0.7685 C   0  0  0  0  0  0  0  0  0  0  0  0
   -0.5044    0.1622   -0.0714 C   0  0  0  0  0  0  0  0  0  0  0  0
   -0.2237    0.9957    1.0819 C   0  0  0  0  0  0  0  0  0  0  0  0
   -1.5287    2.0218    1.3833 C   0  0  0  0  0  0  0  0  0  0  0  0
   -2.7140    2.0038    0.5702 C   0  0  0  0  0  0  0  0  0  0  0  0
   -2.7665    1.1326   -0.4644 C   0  0  0  0  0  0  0  0  0  0  0  0
   -1.7904   -0.4384   -1.6215 H   0  0  0  0  0  0  0  0  0  0  0  0
    0.3038   -0.5209   -0.3348 H   0  0  0  0  0  0  0  0  0  0  0  0
    3.0362    0.5498   -1.4278 N   0  0  0  0  0  0  0  0  0  0  0  0
    4.0596    0.6763   -1.8223 N   0  0  0  0  0  0  0  0  0  0  0  0
   -3.6541    1.0994   -1.0945 H   0  0  0  0  0  0  0  0  0  0  0  0
   -3.5221    2.6902    0.8189 H   0  0  0  0  0  0  0  0  0  0  0  0
   -1.1624    2.6765    2.3825 N   0  0  0  0  0  0  0  0  0  0  0  0
    0.7182    1.0697    1.8040 O   0  0  0  0  0  0  0  0  0  0  0  0
   -0.3483    2.8945    3.1836 O   0  0  0  0  0  0  0  0  0  0  0  0
  1  6  1  0  0  0  0
  1  2  2  0  0  0  0
  2  3  1  0  0  0  0
  3  4  1  0  0  0  0
  3 14  2  0  0  0  0
  4 13  2  0  0  0  0
  5 12  1  0  0  0  0
  5  4  1  0  0  0  0
  6  5  2  0  0  0  0
  7  1  1  0  0  0  0
  8  2  1  0  0  0  0
 10  9  3  0  0  0  0
 11  6  1  0  0  0  0
 13 15  1  0  0  0  0
M  RAD  1  15   2
M  END
