Coordinates from ORCA-job o-NO2-Ph-N2+-B3LYPG-aug-cc-pVDZ-scan-d09-49-n400
 OpenBabel09291715233D

 15 14  0  0  0  0  0  0  0  0999 V2000
   -1.6822    0.2157   -0.7673 C   0  0  0  0  0  0  0  0  0  0  0  0
   -0.5183    0.1362   -0.0713 C   0  0  0  0  0  0  0  0  0  0  0  0
   -0.2266    0.9764    1.0755 C   0  0  0  0  0  0  0  0  0  0  0  0
   -1.5122    2.0207    1.3729 C   0  0  0  0  0  0  0  0  0  0  0  0
   -2.7006    2.0116    0.5631 C   0  0  0  0  0  0  0  0  0  0  0  0
   -2.7671    1.1339   -0.4649 C   0  0  0  0  0  0  0  0  0  0  0  0
   -1.8153   -0.4564   -1.6166 H   0  0  0  0  0  0  0  0  0  0  0  0
    0.2843   -0.5553   -0.3291 H   0  0  0  0  0  0  0  0  0  0  0  0
    3.0184    0.5872   -1.3966 N   0  0  0  0  0  0  0  0  0  0  0  0
    4.0424    0.7357   -1.7818 N   0  0  0  0  0  0  0  0  0  0  0  0
   -3.6572    1.1081   -1.0918 H   0  0  0  0  0  0  0  0  0  0  0  0
   -3.4994    2.7095    0.8093 H   0  0  0  0  0  0  0  0  0  0  0  0
   -1.1351    2.6803    2.3649 N   0  0  0  0  0  0  0  0  0  0  0  0
    0.7226    1.0412    1.7897 O   0  0  0  0  0  0  0  0  0  0  0  0
   -0.3194    2.8996    3.1634 O   0  0  0  0  0  0  0  0  0  0  0  0
  1  6  1  0  0  0  0
  1  2  2  0  0  0  0
  2  3  1  0  0  0  0
  3  4  1  0  0  0  0
  3 14  2  0  0  0  0
  4 13  2  0  0  0  0
  5 12  1  0  0  0  0
  5  4  1  0  0  0  0
  6  5  2  0  0  0  0
  7  1  1  0  0  0  0
  8  2  1  0  0  0  0
 10  9  3  0  0  0  0
 11  6  1  0  0  0  0
 13 15  1  0  0  0  0
M  RAD  1  15   2
M  END
