Coordinates from ORCA-job o-NO2-Ph-N2+-B3LYPG-aug-cc-pVDZ-scan-d09-49-n400
 OpenBabel09291715233D

 15 14  0  0  0  0  0  0  0  0999 V2000
   -1.6899    0.1895   -0.7657 C   0  0  0  0  0  0  0  0  0  0  0  0
   -0.5270    0.0915   -0.0705 C   0  0  0  0  0  0  0  0  0  0  0  0
   -0.2109    0.9377    1.0650 C   0  0  0  0  0  0  0  0  0  0  0  0
   -1.4754    2.0192    1.3510 C   0  0  0  0  0  0  0  0  0  0  0  0
   -2.6646    2.0263    0.5418 C   0  0  0  0  0  0  0  0  0  0  0  0
   -2.7525    1.1369   -0.4743 C   0  0  0  0  0  0  0  0  0  0  0  0
   -1.8400   -0.4902   -1.6058 H   0  0  0  0  0  0  0  0  0  0  0  0
    0.2578   -0.6225   -0.3207 H   0  0  0  0  0  0  0  0  0  0  0  0
    2.9091    0.6727   -1.3225 N   0  0  0  0  0  0  0  0  0  0  0  0
    3.9330    0.8360   -1.7019 N   0  0  0  0  0  0  0  0  0  0  0  0
   -3.6438    1.1235   -1.1000 H   0  0  0  0  0  0  0  0  0  0  0  0
   -3.4467    2.7457    0.7792 H   0  0  0  0  0  0  0  0  0  0  0  0
   -1.0833    2.6829    2.3330 N   0  0  0  0  0  0  0  0  0  0  0  0
    0.7393    0.9900    1.7774 O   0  0  0  0  0  0  0  0  0  0  0  0
   -0.2708    2.9050    3.1336 O   0  0  0  0  0  0  0  0  0  0  0  0
  1  6  1  0  0  0  0
  1  2  2  0  0  0  0
  2  3  1  0  0  0  0
  3  4  1  0  0  0  0
  3 14  2  0  0  0  0
  4 13  2  0  0  0  0
  5 12  1  0  0  0  0
  5  4  1  0  0  0  0
  6  5  2  0  0  0  0
  7  1  1  0  0  0  0
  8  2  1  0  0  0  0
 10  9  3  0  0  0  0
 11  6  1  0  0  0  0
 13 15  1  0  0  0  0
M  RAD  1  15   2
M  END
