Coordinates from ORCA-job o-NO2-Ph-N2+-B3LYPG-aug-cc-pVDZ-scan-d09-49-n400
 OpenBabel09291715233D

 15 14  0  0  0  0  0  0  0  0999 V2000
   -1.5443    0.3773   -0.7703 C   0  0  0  0  0  0  0  0  0  0  0  0
   -0.4041    0.3901   -0.0299 C   0  0  0  0  0  0  0  0  0  0  0  0
   -0.2632    1.1695    1.1853 C   0  0  0  0  0  0  0  0  0  0  0  0
   -1.6867    2.0168    1.4941 C   0  0  0  0  0  0  0  0  0  0  0  0
   -2.8323    1.9254    0.6316 C   0  0  0  0  0  0  0  0  0  0  0  0
   -2.7479    1.1279   -0.4589 C   0  0  0  0  0  0  0  0  0  0  0  0
   -1.5581   -0.2430   -1.6679 H   0  0  0  0  0  0  0  0  0  0  0  0
    0.4790   -0.1878   -0.3064 H   0  0  0  0  0  0  0  0  0  0  0  0
    3.2896    0.1824   -1.8242 N   0  0  0  0  0  0  0  0  0  0  0  0
    4.2898    0.1299   -2.2889 N   0  0  0  0  0  0  0  0  0  0  0  0
   -3.6019    1.0398   -1.1289 H   0  0  0  0  0  0  0  0  0  0  0  0
   -3.7212    2.4993    0.8890 H   0  0  0  0  0  0  0  0  0  0  0  0
   -1.4334    2.6372    2.5501 N   0  0  0  0  0  0  0  0  0  0  0  0
    0.6350    1.3016    1.9546 O   0  0  0  0  0  0  0  0  0  0  0  0
   -0.6658    2.8779    3.3900 O   0  0  0  0  0  0  0  0  0  0  0  0
  1  6  1  0  0  0  0
  1  2  2  0  0  0  0
  2  3  1  0  0  0  0
  3  4  1  0  0  0  0
  3 14  2  0  0  0  0
  4 13  2  0  0  0  0
  5 12  1  0  0  0  0
  5  4  1  0  0  0  0
  6  5  2  0  0  0  0
  7  1  1  0  0  0  0
  8  2  1  0  0  0  0
 10  9  3  0  0  0  0
 11  6  1  0  0  0  0
 13 15  1  0  0  0  0
M  RAD  1  15   2
M  END
