Coordinates from ORCA-job o-NO2-Ph-N2+-B3LYPG-aug-cc-pVDZ-scan-d09-49-n400
 OpenBabel09291715233D

 15 14  0  0  0  0  0  0  0  0999 V2000
   -2.0698    0.1111   -1.0552 C   0  0  0  0  0  0  0  0  0  0  0  0
   -0.6333    0.0775   -1.0096 C   0  0  0  0  0  0  0  0  0  0  0  0
   -0.2784    0.8982   -0.0243 C   0  0  0  0  0  0  0  0  0  0  0  0
   -0.7733    1.7215    0.9139 C   0  0  0  0  0  0  0  0  0  0  0  0
   -2.1846    1.6880    0.7911 C   0  0  0  0  0  0  0  0  0  0  0  0
   -2.8128    0.8985   -0.1738 C   0  0  0  0  0  0  0  0  0  0  0  0
   -2.5381   -0.5148   -1.8183 H   0  0  0  0  0  0  0  0  0  0  0  0
   -0.0180   -0.5216   -1.6772 H   0  0  0  0  0  0  0  0  0  0  0  0
    2.4091    0.7136   -0.0819 N   0  0  0  0  0  0  0  0  0  0  0  0
    3.5115    0.6725   -0.0648 N   0  0  0  0  0  0  0  0  0  0  0  0
   -3.9003    0.8970   -0.2399 H   0  0  0  0  0  0  0  0  0  0  0  0
   -2.7143    2.3257    1.5091 H   0  0  0  0  0  0  0  0  0  0  0  0
   -0.0829    2.5632    1.9438 N   0  0  0  0  0  0  0  0  0  0  0  0
    1.1312    2.5021    1.9433 O   0  0  0  0  0  0  0  0  0  0  0  0
   -0.8117    3.2117    2.6632 O   0  0  0  0  0  0  0  0  0  0  0  0
  1  2  2  0  0  0  0
  1  6  1  0  0  0  0
  2  3  1  0  0  0  0
  3  4  2  0  0  0  0
  4 13  1  0  0  0  0
  5  4  1  0  0  0  0
  5 12  1  0  0  0  0
  6  5  2  0  0  0  0
  7  1  1  0  0  0  0
  8  2  1  0  0  0  0
  9 10  3  0  0  0  0
 11  6  1  0  0  0  0
 13 15  2  0  0  0  0
 14 13  2  0  0  0  0
M  RAD  1   3   2
M  END
