Coordinates from ORCA-job o-NO2-Ph-N2+-B3LYPG-aug-cc-pVDZ-scan-d09-49-n400
 OpenBabel09291715223D

 15 15  0  0  0  0  0  0  0  0999 V2000
   -1.8880    0.0952   -1.0675 C   0  0  0  0  0  0  0  0  0  0  0  0
   -0.5102    0.0774   -0.9919 C   0  0  0  0  0  0  0  0  0  0  0  0
    0.2120    0.8791   -0.0104 C   0  0  0  0  0  0  0  0  0  0  0  0
   -0.6207    1.6833    0.8780 C   0  0  0  0  0  0  0  0  0  0  0  0
   -1.9916    1.6814    0.7860 C   0  0  0  0  0  0  0  0  0  0  0  0
   -2.6325    0.8919   -0.1869 C   0  0  0  0  0  0  0  0  0  0  0  0
   -2.3878   -0.5173   -1.8177 H   0  0  0  0  0  0  0  0  0  0  0  0
    0.0958   -0.5351   -1.6607 H   0  0  0  0  0  0  0  0  0  0  0  0
    1.2611    0.8310    0.0076 N   0  0  0  0  0  0  0  0  0  0  0  0
    2.3919    0.7325   -0.0250 N   0  0  0  0  0  0  0  0  0  0  0  0
   -3.7210    0.9032   -0.2500 H   0  0  0  0  0  0  0  0  0  0  0  0
   -2.5590    2.3004    1.4793 H   0  0  0  0  0  0  0  0  0  0  0  0
    0.0306    2.5344    1.9113 N   0  0  0  0  0  0  0  0  0  0  0  0
    1.2555    2.5808    1.8728 O   0  0  0  0  0  0  0  0  0  0  0  0
   -0.7017    3.1061    2.6943 O   0  0  0  0  0  0  0  0  0  0  0  0
  1  2  2  0  0  0  0
  1  6  1  0  0  0  0
  2  3  1  0  0  0  0
  3  9  1  0  0  0  0
  3  4  2  0  0  0  0
  4 13  1  0  0  0  0
  5  4  1  0  0  0  0
  5 12  1  0  0  0  0
  6  5  2  0  0  0  0
  7  1  1  0  0  0  0
  8  2  1  0  0  0  0
 10  9  1  0  0  0  0
 11  6  1  0  0  0  0
 13 15  2  0  0  0  0
 14 13  2  0  0  0  0
M  RAD  2   9   2  10   3
M  END
