Coordinates from ORCA-job o-NO2-Ph-N2+-B3LYPG-aug-cc-pVDZ-scan-d09-49-n400
 OpenBabel09291715223D

 15 15  0  0  0  0  0  0  0  0999 V2000
   -1.8955    0.0954   -1.0635 C   0  0  0  0  0  0  0  0  0  0  0  0
   -0.5118    0.0882   -0.9897 C   0  0  0  0  0  0  0  0  0  0  0  0
    0.1693    0.8879   -0.0096 C   0  0  0  0  0  0  0  0  0  0  0  0
   -0.6343    1.6847    0.8790 C   0  0  0  0  0  0  0  0  0  0  0  0
   -2.0084    1.6792    0.7910 C   0  0  0  0  0  0  0  0  0  0  0  0
   -2.6433    0.8843   -0.1809 C   0  0  0  0  0  0  0  0  0  0  0  0
   -2.3926   -0.5183   -1.8140 H   0  0  0  0  0  0  0  0  0  0  0  0
    0.0913   -0.5180   -1.6659 H   0  0  0  0  0  0  0  0  0  0  0  0
    1.3391    0.8441    0.0084 N   0  0  0  0  0  0  0  0  0  0  0  0
    2.4558    0.7326   -0.0552 N   0  0  0  0  0  0  0  0  0  0  0  0
   -3.7317    0.8871   -0.2424 H   0  0  0  0  0  0  0  0  0  0  0  0
   -2.5781    2.2969    1.4832 H   0  0  0  0  0  0  0  0  0  0  0  0
    0.0234    2.5297    1.9106 N   0  0  0  0  0  0  0  0  0  0  0  0
    1.2503    2.4893    1.9309 O   0  0  0  0  0  0  0  0  0  0  0  0
   -0.6991    3.1810    2.6375 O   0  0  0  0  0  0  0  0  0  0  0  0
  1  2  2  0  0  0  0
  1  6  1  0  0  0  0
  2  3  1  0  0  0  0
  3  9  1  0  0  0  0
  3  4  2  0  0  0  0
  4 13  1  0  0  0  0
  5  4  1  0  0  0  0
  5 12  1  0  0  0  0
  6  5  2  0  0  0  0
  7  1  1  0  0  0  0
  8  2  1  0  0  0  0
 10  9  1  0  0  0  0
 11  6  1  0  0  0  0
 13 14  2  0  0  0  0
 13 15  2  0  0  0  0
M  RAD  2   9   2  10   3
M  END
