Coordinates from ORCA-job o-NO2-Ph-N2+-B3LYPG-aug-cc-pVDZ-scan-d09-49-n400
 OpenBabel09291715223D

 15 14  0  0  0  0  0  0  0  0999 V2000
   -2.0534    0.1069   -1.0591 C   0  0  0  0  0  0  0  0  0  0  0  0
   -0.6196    0.0718   -1.0155 C   0  0  0  0  0  0  0  0  0  0  0  0
   -0.2474    0.8899   -0.0321 C   0  0  0  0  0  0  0  0  0  0  0  0
   -0.7470    1.7138    0.9064 C   0  0  0  0  0  0  0  0  0  0  0  0
   -2.1576    1.6845    0.7885 C   0  0  0  0  0  0  0  0  0  0  0  0
   -2.7911    0.8965   -0.1750 C   0  0  0  0  0  0  0  0  0  0  0  0
   -2.5285   -0.5164   -1.8196 H   0  0  0  0  0  0  0  0  0  0  0  0
   -0.0082   -0.5289   -1.6851 H   0  0  0  0  0  0  0  0  0  0  0  0
    2.2729    0.7519   -0.0449 N   0  0  0  0  0  0  0  0  0  0  0  0
    3.3744    0.6928   -0.0491 N   0  0  0  0  0  0  0  0  0  0  0  0
   -3.8787    0.8987   -0.2367 H   0  0  0  0  0  0  0  0  0  0  0  0
   -2.6872    2.3216    1.5058 H   0  0  0  0  0  0  0  0  0  0  0  0
   -0.0590    2.5562    1.9370 N   0  0  0  0  0  0  0  0  0  0  0  0
    1.1561    2.5017    1.9442 O   0  0  0  0  0  0  0  0  0  0  0  0
   -0.7913    3.2033    2.6547 O   0  0  0  0  0  0  0  0  0  0  0  0
  1  2  2  0  0  0  0
  1  6  1  0  0  0  0
  2  3  1  0  0  0  0
  3  4  2  0  0  0  0
  4 13  1  0  0  0  0
  5  4  1  0  0  0  0
  5 12  1  0  0  0  0
  6  5  2  0  0  0  0
  7  1  1  0  0  0  0
  8  2  1  0  0  0  0
 10  9  3  0  0  0  0
 11  6  1  0  0  0  0
 13 14  2  0  0  0  0
 13 15  2  0  0  0  0
M  RAD  1   3   2
M  END
