Coordinates from ORCA-job o-NO2-Ph-N2+-B3LYPG-aug-cc-pVDZ-scan-d09-49-n400
 OpenBabel09291715233D

 15 14  0  0  0  0  0  0  0  0999 V2000
   -2.0923    0.1325   -1.0314 C   0  0  0  0  0  0  0  0  0  0  0  0
   -0.6477    0.1213   -0.9592 C   0  0  0  0  0  0  0  0  0  0  0  0
   -0.3703    0.9513    0.0326 C   0  0  0  0  0  0  0  0  0  0  0  0
   -0.8949    1.7654    0.9583 C   0  0  0  0  0  0  0  0  0  0  0  0
   -2.3006    1.7102    0.8104 C   0  0  0  0  0  0  0  0  0  0  0  0
   -2.8796    0.9023   -0.1732 C   0  0  0  0  0  0  0  0  0  0  0  0
   -2.5214   -0.5065   -1.8076 H   0  0  0  0  0  0  0  0  0  0  0  0
   -0.0055   -0.4666   -1.6121 H   0  0  0  0  0  0  0  0  0  0  0  0
    2.8573    0.5437   -0.2549 N   0  0  0  0  0  0  0  0  0  0  0  0
    3.9599    0.5253   -0.2108 N   0  0  0  0  0  0  0  0  0  0  0  0
   -3.9640    0.8709   -0.2741 H   0  0  0  0  0  0  0  0  0  0  0  0
   -2.8625    2.3372    1.5140 H   0  0  0  0  0  0  0  0  0  0  0  0
   -0.1867    2.5945    1.9743 N   0  0  0  0  0  0  0  0  0  0  0  0
    1.0288    2.5072    1.9432 O   0  0  0  0  0  0  0  0  0  0  0  0
   -0.8859    3.2553    2.7099 O   0  0  0  0  0  0  0  0  0  0  0  0
  1  2  2  0  0  0  0
  1  6  1  0  0  0  0
  2  3  1  0  0  0  0
  3  4  2  0  0  0  0
  4 13  1  0  0  0  0
  5  4  1  0  0  0  0
  5 12  1  0  0  0  0
  6  5  2  0  0  0  0
  7  1  1  0  0  0  0
  8  2  1  0  0  0  0
  9 10  3  0  0  0  0
 11  6  1  0  0  0  0
 13 15  2  0  0  0  0
 14 13  2  0  0  0  0
M  RAD  1   3   2
M  END
