Coordinates from ORCA-job o-NO2-Ph-N2+-B3LYPG-aug-cc-pVDZ-scan-d09-49-n400
 OpenBabel09291715233D

 15 14  0  0  0  0  0  0  0  0999 V2000
   -1.6872    0.2005   -0.7663 C   0  0  0  0  0  0  0  0  0  0  0  0
   -0.5238    0.1103   -0.0709 C   0  0  0  0  0  0  0  0  0  0  0  0
   -0.2179    0.9541    1.0693 C   0  0  0  0  0  0  0  0  0  0  0  0
   -1.4912    2.0199    1.3603 C   0  0  0  0  0  0  0  0  0  0  0  0
   -2.6803    2.0202    0.5511 C   0  0  0  0  0  0  0  0  0  0  0  0
   -2.7593    1.1357   -0.4701 C   0  0  0  0  0  0  0  0  0  0  0  0
   -1.8303   -0.4761   -1.6103 H   0  0  0  0  0  0  0  0  0  0  0  0
    0.2686   -0.5942   -0.3245 H   0  0  0  0  0  0  0  0  0  0  0  0
    2.9581    0.6364   -1.3543 N   0  0  0  0  0  0  0  0  0  0  0  0
    3.9821    0.7937   -1.7359 N   0  0  0  0  0  0  0  0  0  0  0  0
   -3.6502    1.1170   -1.0961 H   0  0  0  0  0  0  0  0  0  0  0  0
   -3.4694    2.7306    0.7923 H   0  0  0  0  0  0  0  0  0  0  0  0
   -1.1054    2.6819    2.3465 N   0  0  0  0  0  0  0  0  0  0  0  0
    0.7321    1.0117    1.7822 O   0  0  0  0  0  0  0  0  0  0  0  0
   -0.2914    2.9028    3.1461 O   0  0  0  0  0  0  0  0  0  0  0  0
  1  6  1  0  0  0  0
  1  2  2  0  0  0  0
  2  3  1  0  0  0  0
  3  4  1  0  0  0  0
  3 14  2  0  0  0  0
  4 13  2  0  0  0  0
  5 12  1  0  0  0  0
  5  4  1  0  0  0  0
  6  5  2  0  0  0  0
  7  1  1  0  0  0  0
  8  2  1  0  0  0  0
 10  9  3  0  0  0  0
 11  6  1  0  0  0  0
 13 15  1  0  0  0  0
M  RAD  1  15   2
M  END
