Coordinates from ORCA-job o-NO2-Ph-N2+-B3LYPG-aug-cc-pVDZ-scan-d09-49-n400
 OpenBabel09291715233D

 15 14  0  0  0  0  0  0  0  0999 V2000
   -2.0804    0.1163   -1.0497 C   0  0  0  0  0  0  0  0  0  0  0  0
   -0.6410    0.0868   -0.9992 C   0  0  0  0  0  0  0  0  0  0  0  0
   -0.3066    0.9099   -0.0122 C   0  0  0  0  0  0  0  0  0  0  0  0
   -0.8047    1.7316    0.9239 C   0  0  0  0  0  0  0  0  0  0  0  0
   -2.2151    1.6935    0.7958 C   0  0  0  0  0  0  0  0  0  0  0  0
   -2.8330    0.9000   -0.1732 C   0  0  0  0  0  0  0  0  0  0  0  0
   -2.5395   -0.5128   -1.8160 H   0  0  0  0  0  0  0  0  0  0  0  0
   -0.0200   -0.5100   -1.6638 H   0  0  0  0  0  0  0  0  0  0  0  0
    2.5362    0.6719   -0.1234 N   0  0  0  0  0  0  0  0  0  0  0  0
    3.6387    0.6434   -0.0912 N   0  0  0  0  0  0  0  0  0  0  0  0
   -3.9199    0.8919   -0.2469 H   0  0  0  0  0  0  0  0  0  0  0  0
   -2.7503    2.3296    1.5116 H   0  0  0  0  0  0  0  0  0  0  0  0
   -0.1079    2.5698    1.9501 N   0  0  0  0  0  0  0  0  0  0  0  0
    1.1062    2.5004    1.9398 O   0  0  0  0  0  0  0  0  0  0  0  0
   -0.8285    3.2218    2.6740 O   0  0  0  0  0  0  0  0  0  0  0  0
  1  2  2  0  0  0  0
  1  6  1  0  0  0  0
  2  3  1  0  0  0  0
  3  4  2  0  0  0  0
  4 13  1  0  0  0  0
  5  4  1  0  0  0  0
  5 12  1  0  0  0  0
  6  5  2  0  0  0  0
  7  1  1  0  0  0  0
  8  2  1  0  0  0  0
  9 10  3  0  0  0  0
 11  6  1  0  0  0  0
 13 15  2  0  0  0  0
 14 13  2  0  0  0  0
M  RAD  1   3   2
M  END
