Coordinates from ORCA-job o-NO2-Ph-N2+-B3LYPG-aug-cc-pVDZ-scan-d09-49-n400
 OpenBabel09291715223D

 15 15  0  0  0  0  0  0  0  0999 V2000
   -1.9118    0.0979   -1.0609 C   0  0  0  0  0  0  0  0  0  0  0  0
   -0.5203    0.0923   -0.9854 C   0  0  0  0  0  0  0  0  0  0  0  0
    0.1002    0.8944   -0.0069 C   0  0  0  0  0  0  0  0  0  0  0  0
   -0.6600    1.6897    0.8821 C   0  0  0  0  0  0  0  0  0  0  0  0
   -2.0389    1.6824    0.7923 C   0  0  0  0  0  0  0  0  0  0  0  0
   -2.6639    0.8845   -0.1816 C   0  0  0  0  0  0  0  0  0  0  0  0
   -2.4063   -0.5169   -1.8120 H   0  0  0  0  0  0  0  0  0  0  0  0
    0.0849   -0.5122   -1.6597 H   0  0  0  0  0  0  0  0  0  0  0  0
    1.4703    0.8590    0.0325 N   0  0  0  0  0  0  0  0  0  0  0  0
    2.5692    0.7170   -0.0685 N   0  0  0  0  0  0  0  0  0  0  0  0
   -3.7518    0.8826   -0.2479 H   0  0  0  0  0  0  0  0  0  0  0  0
   -2.6126    2.2989    1.4824 H   0  0  0  0  0  0  0  0  0  0  0  0
    0.0153    2.5247    1.9024 N   0  0  0  0  0  0  0  0  0  0  0  0
    1.2444    2.4651    1.9092 O   0  0  0  0  0  0  0  0  0  0  0  0
   -0.6845    3.1850    2.6414 O   0  0  0  0  0  0  0  0  0  0  0  0
  1  2  2  0  0  0  0
  1  6  1  0  0  0  0
  2  3  1  0  0  0  0
  3  9  1  0  0  0  0
  3  4  2  0  0  0  0
  4 13  1  0  0  0  0
  5  4  1  0  0  0  0
  5 12  1  0  0  0  0
  6  5  2  0  0  0  0
  7  1  1  0  0  0  0
  8  2  1  0  0  0  0
 10  9  1  0  0  0  0
 11  6  1  0  0  0  0
 13 14  2  0  0  0  0
 13 15  2  0  0  0  0
M  RAD  2   9   2  10   3
M  END
