Coordinates from ORCA-job o-NO2-Ph-N2+-B3LYPG-aug-cc-pVDZ-scan-d09-49-n400
 OpenBabel09291715233D

 15 14  0  0  0  0  0  0  0  0999 V2000
   -1.9318    0.1885   -0.9560 C   0  0  0  0  0  0  0  0  0  0  0  0
   -0.4968    0.2855   -0.7573 C   0  0  0  0  0  0  0  0  0  0  0  0
   -0.3698    1.1355    0.2490 C   0  0  0  0  0  0  0  0  0  0  0  0
   -1.1302    1.8872    1.0874 C   0  0  0  0  0  0  0  0  0  0  0  0
   -2.4979    1.7432    0.8374 C   0  0  0  0  0  0  0  0  0  0  0  0
   -2.8789    0.8792   -0.2003 C   0  0  0  0  0  0  0  0  0  0  0  0
   -2.2193   -0.4870   -1.7667 H   0  0  0  0  0  0  0  0  0  0  0  0
    0.2309   -0.2589   -1.3541 H   0  0  0  0  0  0  0  0  0  0  0  0
    3.0986    0.1540   -0.6984 N   0  0  0  0  0  0  0  0  0  0  0  0
    4.1982    0.0660   -0.7365 N   0  0  0  0  0  0  0  0  0  0  0  0
   -3.9350    0.7386   -0.4278 H   0  0  0  0  0  0  0  0  0  0  0  0
   -3.1987    2.3082    1.4600 H   0  0  0  0  0  0  0  0  0  0  0  0
   -0.4263    2.6860    2.0676 N   0  0  0  0  0  0  0  0  0  0  0  0
    0.8042    2.5335    1.9610 O   0  0  0  0  0  0  0  0  0  0  0  0
   -1.0131    3.3848    2.8542 O   0  0  0  0  0  0  0  0  0  0  0  0
  1  2  2  0  0  0  0
  1  6  1  0  0  0  0
  2  3  1  0  0  0  0
  3  4  2  0  0  0  0
  4 13  1  0  0  0  0
  5  4  1  0  0  0  0
  5 12  1  0  0  0  0
  6  5  2  0  0  0  0
  7  1  1  0  0  0  0
  8  2  1  0  0  0  0
 10  9  3  0  0  0  0
 11  6  1  0  0  0  0
 13 15  2  0  0  0  0
 14 13  2  0  0  0  0
M  RAD  1   3   2
M  END
