Coordinates from ORCA-job o-NO2-Ph-N2+-B3LYPG-aug-cc-pVDZ-scan-d09-49-n400
 OpenBabel09291715233D

 15 14  0  0  0  0  0  0  0  0999 V2000
   -1.5509    0.3677   -0.7702 C   0  0  0  0  0  0  0  0  0  0  0  0
   -0.4094    0.3753   -0.0319 C   0  0  0  0  0  0  0  0  0  0  0  0
   -0.2606    1.1585    1.1800 C   0  0  0  0  0  0  0  0  0  0  0  0
   -1.6774    2.0176    1.4877 C   0  0  0  0  0  0  0  0  0  0  0  0
   -2.8251    1.9309    0.6275 C   0  0  0  0  0  0  0  0  0  0  0  0
   -2.7485    1.1284   -0.4599 C   0  0  0  0  0  0  0  0  0  0  0  0
   -1.5708   -0.2561   -1.6652 H   0  0  0  0  0  0  0  0  0  0  0  0
    0.4693   -0.2099   -0.3073 H   0  0  0  0  0  0  0  0  0  0  0  0
    3.2725    0.2061   -1.8007 N   0  0  0  0  0  0  0  0  0  0  0  0
    4.2742    0.1630   -2.2630 N   0  0  0  0  0  0  0  0  0  0  0  0
   -3.6042    1.0438   -1.1280 H   0  0  0  0  0  0  0  0  0  0  0  0
   -3.7094    2.5124    0.8840 H   0  0  0  0  0  0  0  0  0  0  0  0
   -1.4179    2.6404    2.5407 N   0  0  0  0  0  0  0  0  0  0  0  0
    0.6398    1.2872    1.9471 O   0  0  0  0  0  0  0  0  0  0  0  0
   -0.6473    2.8790    3.3785 O   0  0  0  0  0  0  0  0  0  0  0  0
  1  6  1  0  0  0  0
  1  2  2  0  0  0  0
  2  3  1  0  0  0  0
  3  4  1  0  0  0  0
  3 14  2  0  0  0  0
  4 13  2  0  0  0  0
  5 12  1  0  0  0  0
  5  4  1  0  0  0  0
  6  5  2  0  0  0  0
  7  1  1  0  0  0  0
  8  2  1  0  0  0  0
 10  9  3  0  0  0  0
 11  6  1  0  0  0  0
 13 15  1  0  0  0  0
M  RAD  1  15   2
M  END
