Coordinates from ORCA-job o-NO2-Ph-N2+-B3LYPG-aug-cc-pVDZ-scan-d09-49-n400
 OpenBabel09291715233D

 15 14  0  0  0  0  0  0  0  0999 V2000
   -2.0901    0.1256   -1.0393 C   0  0  0  0  0  0  0  0  0  0  0  0
   -0.6471    0.1061   -0.9770 C   0  0  0  0  0  0  0  0  0  0  0  0
   -0.3485    0.9334    0.0128 C   0  0  0  0  0  0  0  0  0  0  0  0
   -0.8584    1.7508    0.9433 C   0  0  0  0  0  0  0  0  0  0  0  0
   -2.2664    1.7035    0.8045 C   0  0  0  0  0  0  0  0  0  0  0  0
   -2.8625    0.9017   -0.1729 C   0  0  0  0  0  0  0  0  0  0  0  0
   -2.5320   -0.5093   -1.8115 H   0  0  0  0  0  0  0  0  0  0  0  0
   -0.0137   -0.4856   -1.6348 H   0  0  0  0  0  0  0  0  0  0  0  0
    2.7319    0.5993   -0.1971 N   0  0  0  0  0  0  0  0  0  0  0  0
    3.8345    0.5785   -0.1557 N   0  0  0  0  0  0  0  0  0  0  0  0
   -3.9481    0.8803   -0.2622 H   0  0  0  0  0  0  0  0  0  0  0  0
   -2.8161    2.3347    1.5138 H   0  0  0  0  0  0  0  0  0  0  0  0
   -0.1524    2.5829    1.9627 N   0  0  0  0  0  0  0  0  0  0  0  0
    1.0624    2.5016    1.9385 O   0  0  0  0  0  0  0  0  0  0  0  0
   -0.8591    3.2407    2.6943 O   0  0  0  0  0  0  0  0  0  0  0  0
  1  2  2  0  0  0  0
  1  6  1  0  0  0  0
  2  3  1  0  0  0  0
  3  4  2  0  0  0  0
  4 13  1  0  0  0  0
  5  4  1  0  0  0  0
  5 12  1  0  0  0  0
  6  5  2  0  0  0  0
  7  1  1  0  0  0  0
  8  2  1  0  0  0  0
  9 10  3  0  0  0  0
 11  6  1  0  0  0  0
 13 15  2  0  0  0  0
 14 13  2  0  0  0  0
M  RAD  1   3   2
M  END
