Coordinates from ORCA-job o-NO2-Ph-N2+-B3LYPG-aug-cc-pVDZ-scan-d09-49-n400
 OpenBabel09291715223D

 15 14  0  0  0  0  0  0  0  0999 V2000
   -2.0026    0.0999   -1.0644 C   0  0  0  0  0  0  0  0  0  0  0  0
   -0.5828    0.0676   -1.0183 C   0  0  0  0  0  0  0  0  0  0  0  0
   -0.1298    0.8780   -0.0391 C   0  0  0  0  0  0  0  0  0  0  0  0
   -0.6960    1.6979    0.8909 C   0  0  0  0  0  0  0  0  0  0  0  0
   -2.0987    1.6797    0.7865 C   0  0  0  0  0  0  0  0  0  0  0  0
   -2.7353    0.8916   -0.1774 C   0  0  0  0  0  0  0  0  0  0  0  0
   -2.4945   -0.5166   -1.8180 H   0  0  0  0  0  0  0  0  0  0  0  0
    0.0226   -0.5354   -1.6910 H   0  0  0  0  0  0  0  0  0  0  0  0
    1.9312    0.8455    0.0449 N   0  0  0  0  0  0  0  0  0  0  0  0
    3.0234    0.7191   -0.0390 N   0  0  0  0  0  0  0  0  0  0  0  0
   -3.8231    0.8976   -0.2348 H   0  0  0  0  0  0  0  0  0  0  0  0
   -2.6439    2.3089    1.4937 H   0  0  0  0  0  0  0  0  0  0  0  0
   -0.0109    2.5349    1.9153 N   0  0  0  0  0  0  0  0  0  0  0  0
    1.2100    2.4889    1.9321 O   0  0  0  0  0  0  0  0  0  0  0  0
   -0.7353    3.1867    2.6381 O   0  0  0  0  0  0  0  0  0  0  0  0
  1  2  2  0  0  0  0
  1  6  1  0  0  0  0
  2  3  1  0  0  0  0
  3  4  2  0  0  0  0
  4 13  1  0  0  0  0
  5  4  1  0  0  0  0
  5 12  1  0  0  0  0
  6  5  2  0  0  0  0
  7  1  1  0  0  0  0
  8  2  1  0  0  0  0
 10  9  3  0  0  0  0
 11  6  1  0  0  0  0
 13 14  2  0  0  0  0
 13 15  2  0  0  0  0
M  RAD  1   3   2
M  END
