Coordinates from ORCA-job o-NO2-Ph-N2+-B3LYPG-aug-cc-pVDZ-scan-d09-49-n400
 OpenBabel09291715223D

 15 15  0  0  0  0  0  0  0  0999 V2000
   -1.9660    0.0994   -1.0627 C   0  0  0  0  0  0  0  0  0  0  0  0
   -0.5554    0.0770   -1.0056 C   0  0  0  0  0  0  0  0  0  0  0  0
   -0.0535    0.8847   -0.0268 C   0  0  0  0  0  0  0  0  0  0  0  0
   -0.6868    1.6960    0.8890 C   0  0  0  0  0  0  0  0  0  0  0  0
   -2.0814    1.6818    0.7898 C   0  0  0  0  0  0  0  0  0  0  0  0
   -2.7081    0.8883   -0.1797 C   0  0  0  0  0  0  0  0  0  0  0  0
   -2.4604   -0.5156   -1.8146 H   0  0  0  0  0  0  0  0  0  0  0  0
    0.0515   -0.5255   -1.6775 H   0  0  0  0  0  0  0  0  0  0  0  0
    1.7564    0.8719    0.0653 N   0  0  0  0  0  0  0  0  0  0  0  0
    2.8420    0.7146   -0.0553 N   0  0  0  0  0  0  0  0  0  0  0  0
   -3.7956    0.8891   -0.2431 H   0  0  0  0  0  0  0  0  0  0  0  0
   -2.6434    2.3036    1.4872 H   0  0  0  0  0  0  0  0  0  0  0  0
    0.0038    2.5249    1.9039 N   0  0  0  0  0  0  0  0  0  0  0  0
    1.2302    2.4686    1.9103 O   0  0  0  0  0  0  0  0  0  0  0  0
   -0.6990    3.1856    2.6392 O   0  0  0  0  0  0  0  0  0  0  0  0
  1  2  2  0  0  0  0
  1  6  1  0  0  0  0
  2  3  1  0  0  0  0
  3  9  1  0  0  0  0
  3  4  2  0  0  0  0
  4 13  1  0  0  0  0
  5  4  1  0  0  0  0
  5 12  1  0  0  0  0
  6  5  2  0  0  0  0
  7  1  1  0  0  0  0
  8  2  1  0  0  0  0
 10  9  1  0  0  0  0
 11  6  1  0  0  0  0
 13 14  2  0  0  0  0
 13 15  2  0  0  0  0
M  RAD  2   9   2  10   3
M  END
