Coordinates from ORCA-job o-NO2-Ph-N2+-B3LYPG-aug-cc-pVDZ-scan-d09-49-n400
 OpenBabel09291715223D

 15 14  0  0  0  0  0  0  0  0999 V2000
   -1.9892    0.0994   -1.0636 C   0  0  0  0  0  0  0  0  0  0  0  0
   -0.5727    0.0706   -1.0138 C   0  0  0  0  0  0  0  0  0  0  0  0
   -0.1030    0.8805   -0.0352 C   0  0  0  0  0  0  0  0  0  0  0  0
   -0.6921    1.6982    0.8900 C   0  0  0  0  0  0  0  0  0  0  0  0
   -2.0920    1.6809    0.7871 C   0  0  0  0  0  0  0  0  0  0  0  0
   -2.7252    0.8904   -0.1783 C   0  0  0  0  0  0  0  0  0  0  0  0
   -2.4821   -0.5169   -1.8162 H   0  0  0  0  0  0  0  0  0  0  0  0
    0.0331   -0.5325   -1.6860 H   0  0  0  0  0  0  0  0  0  0  0  0
    1.8676    0.8560    0.0523 N   0  0  0  0  0  0  0  0  0  0  0  0
    2.9572    0.7169   -0.0466 N   0  0  0  0  0  0  0  0  0  0  0  0
   -3.8128    0.8945   -0.2377 H   0  0  0  0  0  0  0  0  0  0  0  0
   -2.6433    2.3077    1.4905 H   0  0  0  0  0  0  0  0  0  0  0  0
   -0.0054    2.5330    1.9105 N   0  0  0  0  0  0  0  0  0  0  0  0
    1.2172    2.4808    1.9265 O   0  0  0  0  0  0  0  0  0  0  0  0
   -0.7229    3.1849    2.6399 O   0  0  0  0  0  0  0  0  0  0  0  0
  1  2  2  0  0  0  0
  1  6  1  0  0  0  0
  2  3  1  0  0  0  0
  3  4  2  0  0  0  0
  4 13  1  0  0  0  0
  5  4  1  0  0  0  0
  5 12  1  0  0  0  0
  6  5  2  0  0  0  0
  7  1  1  0  0  0  0
  8  2  1  0  0  0  0
 10  9  3  0  0  0  0
 11  6  1  0  0  0  0
 13 14  2  0  0  0  0
 13 15  2  0  0  0  0
M  RAD  1   3   2
M  END
