Coordinates from ORCA-job o-NO2-Ph-N2+-B3LYPG-aug-cc-pVDZ-scan-d09-49-n400
 OpenBabel09291715223D

 15 15  0  0  0  0  0  0  0  0999 V2000
   -1.9704    0.0990   -1.0626 C   0  0  0  0  0  0  0  0  0  0  0  0
   -0.5585    0.0753   -1.0073 C   0  0  0  0  0  0  0  0  0  0  0  0
   -0.0634    0.8841   -0.0290 C   0  0  0  0  0  0  0  0  0  0  0  0
   -0.6874    1.6973    0.8885 C   0  0  0  0  0  0  0  0  0  0  0  0
   -2.0832    1.6823    0.7887 C   0  0  0  0  0  0  0  0  0  0  0  0
   -2.7112    0.8888   -0.1794 C   0  0  0  0  0  0  0  0  0  0  0  0
   -2.4646   -0.5167   -1.8142 H   0  0  0  0  0  0  0  0  0  0  0  0
    0.0481   -0.5276   -1.6790 H   0  0  0  0  0  0  0  0  0  0  0  0
    1.7766    0.8701    0.0629 N   0  0  0  0  0  0  0  0  0  0  0  0
    2.8629    0.7161   -0.0538 N   0  0  0  0  0  0  0  0  0  0  0  0
   -3.7987    0.8901   -0.2420 H   0  0  0  0  0  0  0  0  0  0  0  0
   -2.6431    2.3053    1.4869 H   0  0  0  0  0  0  0  0  0  0  0  0
    0.0026    2.5279    1.9038 N   0  0  0  0  0  0  0  0  0  0  0  0
    1.2280    2.4690    1.9152 O   0  0  0  0  0  0  0  0  0  0  0  0
   -0.7034    3.1835    2.6407 O   0  0  0  0  0  0  0  0  0  0  0  0
  1  2  2  0  0  0  0
  1  6  1  0  0  0  0
  2  3  1  0  0  0  0
  3  9  1  0  0  0  0
  3  4  2  0  0  0  0
  4 13  1  0  0  0  0
  5  4  1  0  0  0  0
  5 12  1  0  0  0  0
  6  5  2  0  0  0  0
  7  1  1  0  0  0  0
  8  2  1  0  0  0  0
 10  9  1  0  0  0  0
 11  6  1  0  0  0  0
 13 14  2  0  0  0  0
 13 15  2  0  0  0  0
M  RAD  2   9   2  10   3
M  END
