Coordinates from ORCA-job o-NO2-Ph-N2+-B3LYPG-aug-cc-pVDZ-scan-d09-49-n400
 OpenBabel09291715233D

 15 14  0  0  0  0  0  0  0  0999 V2000
   -1.5578    0.3581   -0.7701 C   0  0  0  0  0  0  0  0  0  0  0  0
   -0.4149    0.3603   -0.0340 C   0  0  0  0  0  0  0  0  0  0  0  0
   -0.2580    1.1474    1.1743 C   0  0  0  0  0  0  0  0  0  0  0  0
   -1.6680    2.0183    1.4812 C   0  0  0  0  0  0  0  0  0  0  0  0
   -2.8179    1.9365    0.6234 C   0  0  0  0  0  0  0  0  0  0  0  0
   -2.7492    1.1289   -0.4607 C   0  0  0  0  0  0  0  0  0  0  0  0
   -1.5841   -0.2694   -1.6624 H   0  0  0  0  0  0  0  0  0  0  0  0
    0.4591   -0.2321   -0.3083 H   0  0  0  0  0  0  0  0  0  0  0  0
    3.2559    0.2301   -1.7767 N   0  0  0  0  0  0  0  0  0  0  0  0
    4.2591    0.1967   -2.2365 N   0  0  0  0  0  0  0  0  0  0  0  0
   -3.6068    1.0478   -1.1269 H   0  0  0  0  0  0  0  0  0  0  0  0
   -3.6975    2.5256    0.8791 H   0  0  0  0  0  0  0  0  0  0  0  0
   -1.4019    2.6435    2.5311 N   0  0  0  0  0  0  0  0  0  0  0  0
    0.6447    1.2726    1.9393 O   0  0  0  0  0  0  0  0  0  0  0  0
   -0.6284    2.8801    3.3666 O   0  0  0  0  0  0  0  0  0  0  0  0
  1  6  1  0  0  0  0
  1  2  2  0  0  0  0
  2  3  1  0  0  0  0
  3  4  1  0  0  0  0
  3 14  2  0  0  0  0
  4 13  2  0  0  0  0
  5 12  1  0  0  0  0
  5  4  1  0  0  0  0
  6  5  2  0  0  0  0
  7  1  1  0  0  0  0
  8  2  1  0  0  0  0
 10  9  3  0  0  0  0
 11  6  1  0  0  0  0
 13 15  1  0  0  0  0
M  RAD  1  15   2
M  END
