Coordinates from ORCA-job o-NO2-Ph-N2+-B3LYPG-aug-cc-pVDZ-scan-d09-49-n400
 OpenBabel09291715233D

 15 14  0  0  0  0  0  0  0  0999 V2000
   -2.0914    0.1397   -1.0229 C   0  0  0  0  0  0  0  0  0  0  0  0
   -0.6458    0.1377   -0.9399 C   0  0  0  0  0  0  0  0  0  0  0  0
   -0.3860    0.9703    0.0539 C   0  0  0  0  0  0  0  0  0  0  0  0
   -0.9308    1.7809    0.9743 C   0  0  0  0  0  0  0  0  0  0  0  0
   -2.3335    1.7166    0.8160 C   0  0  0  0  0  0  0  0  0  0  0  0
   -2.8943    0.9026   -0.1737 C   0  0  0  0  0  0  0  0  0  0  0  0
   -2.5071   -0.5034   -1.8032 H   0  0  0  0  0  0  0  0  0  0  0  0
    0.0048   -0.4465   -1.5880 H   0  0  0  0  0  0  0  0  0  0  0  0
    2.9752    0.4850   -0.3169 N   0  0  0  0  0  0  0  0  0  0  0  0
    4.0779    0.4660   -0.2735 N   0  0  0  0  0  0  0  0  0  0  0  0
   -3.9771    0.8606   -0.2870 H   0  0  0  0  0  0  0  0  0  0  0  0
   -2.9087    2.3386    1.5129 H   0  0  0  0  0  0  0  0  0  0  0  0
   -0.2238    2.6083    1.9882 N   0  0  0  0  0  0  0  0  0  0  0  0
    0.9924    2.5170    1.9524 O   0  0  0  0  0  0  0  0  0  0  0  0
   -0.9178    3.2711    2.7265 O   0  0  0  0  0  0  0  0  0  0  0  0
  1  2  2  0  0  0  0
  1  6  1  0  0  0  0
  2  3  1  0  0  0  0
  3  4  2  0  0  0  0
  4 13  1  0  0  0  0
  5  4  1  0  0  0  0
  5 12  1  0  0  0  0
  6  5  2  0  0  0  0
  7  1  1  0  0  0  0
  8  2  1  0  0  0  0
  9 10  3  0  0  0  0
 11  6  1  0  0  0  0
 13 15  2  0  0  0  0
 14 13  2  0  0  0  0
M  RAD  1   3   2
M  END
