Coordinates from ORCA-job o-NO2-Ph-N2+-B3LYPG-aug-cc-pVDZ-scan-d09-49-n400
 OpenBabel09291715223D

 15 14  0  0  0  0  0  0  0  0999 V2000
   -2.0053    0.1000   -1.0645 C   0  0  0  0  0  0  0  0  0  0  0  0
   -0.5849    0.0671   -1.0190 C   0  0  0  0  0  0  0  0  0  0  0  0
   -0.1355    0.8778   -0.0396 C   0  0  0  0  0  0  0  0  0  0  0  0
   -0.6971    1.6982    0.8912 C   0  0  0  0  0  0  0  0  0  0  0  0
   -2.1004    1.6796    0.7863 C   0  0  0  0  0  0  0  0  0  0  0  0
   -2.7376    0.8918   -0.1773 C   0  0  0  0  0  0  0  0  0  0  0  0
   -2.4968   -0.5167   -1.8182 H   0  0  0  0  0  0  0  0  0  0  0  0
    0.0205   -0.5359   -1.6917 H   0  0  0  0  0  0  0  0  0  0  0  0
    1.9455    0.8427    0.0424 N   0  0  0  0  0  0  0  0  0  0  0  0
    3.0383    0.7190   -0.0383 N   0  0  0  0  0  0  0  0  0  0  0  0
   -3.8254    0.8981   -0.2343 H   0  0  0  0  0  0  0  0  0  0  0  0
   -2.6442    2.3095    1.4942 H   0  0  0  0  0  0  0  0  0  0  0  0
   -0.0125    2.5360    1.9162 N   0  0  0  0  0  0  0  0  0  0  0  0
    1.2081    2.4902    1.9336 O   0  0  0  0  0  0  0  0  0  0  0  0
   -0.7383    3.1870    2.6383 O   0  0  0  0  0  0  0  0  0  0  0  0
  1  2  2  0  0  0  0
  1  6  1  0  0  0  0
  2  3  1  0  0  0  0
  3  4  2  0  0  0  0
  4 13  1  0  0  0  0
  5  4  1  0  0  0  0
  5 12  1  0  0  0  0
  6  5  2  0  0  0  0
  7  1  1  0  0  0  0
  8  2  1  0  0  0  0
 10  9  3  0  0  0  0
 11  6  1  0  0  0  0
 13 14  2  0  0  0  0
 13 15  2  0  0  0  0
M  RAD  1   3   2
M  END
