Coordinates from ORCA-job o-NO2-Ph-N2+-B3LYPG-aug-cc-pVDZ-scan-d09-49-n400
 OpenBabel09291715223D

 15 15  0  0  0  0  0  0  0  0999 V2000
   -1.8997    0.0963   -1.0630 C   0  0  0  0  0  0  0  0  0  0  0  0
   -0.5145    0.0900   -0.9881 C   0  0  0  0  0  0  0  0  0  0  0  0
    0.1531    0.8894   -0.0085 C   0  0  0  0  0  0  0  0  0  0  0  0
   -0.6410    1.6850    0.8797 C   0  0  0  0  0  0  0  0  0  0  0  0
   -2.0159    1.6795    0.7917 C   0  0  0  0  0  0  0  0  0  0  0  0
   -2.6487    0.8843   -0.1809 C   0  0  0  0  0  0  0  0  0  0  0  0
   -2.3959   -0.5174   -1.8139 H   0  0  0  0  0  0  0  0  0  0  0  0
    0.0891   -0.5155   -1.6642 H   0  0  0  0  0  0  0  0  0  0  0  0
    1.3729    0.8461    0.0130 N   0  0  0  0  0  0  0  0  0  0  0  0
    2.4851    0.7289   -0.0576 N   0  0  0  0  0  0  0  0  0  0  0  0
   -3.7370    0.8860   -0.2435 H   0  0  0  0  0  0  0  0  0  0  0  0
   -2.5864    2.2968    1.4837 H   0  0  0  0  0  0  0  0  0  0  0  0
    0.0210    2.5274    1.9093 N   0  0  0  0  0  0  0  0  0  0  0  0
    1.2484    2.4836    1.9253 O   0  0  0  0  0  0  0  0  0  0  0  0
   -0.6961    3.1839    2.6366 O   0  0  0  0  0  0  0  0  0  0  0  0
  1  2  2  0  0  0  0
  1  6  1  0  0  0  0
  2  3  1  0  0  0  0
  3  9  1  0  0  0  0
  3  4  2  0  0  0  0
  4 13  1  0  0  0  0
  5  4  1  0  0  0  0
  5 12  1  0  0  0  0
  6  5  2  0  0  0  0
  7  1  1  0  0  0  0
  8  2  1  0  0  0  0
 10  9  1  0  0  0  0
 11  6  1  0  0  0  0
 13 14  2  0  0  0  0
 13 15  2  0  0  0  0
M  RAD  2   9   2  10   3
M  END
