Coordinates from ORCA-job o-NO2-Ph-N2+-B3LYPG-aug-cc-pVDZ-scan-d09-49-n400
 OpenBabel09291715233D

 15 14  0  0  0  0  0  0  0  0999 V2000
   -2.0787    0.1473   -1.0131 C   0  0  0  0  0  0  0  0  0  0  0  0
   -0.6321    0.1582   -0.9149 C   0  0  0  0  0  0  0  0  0  0  0  0
   -0.4004    0.9941    0.0810 C   0  0  0  0  0  0  0  0  0  0  0  0
   -0.9675    1.7990    0.9934 C   0  0  0  0  0  0  0  0  0  0  0  0
   -2.3664    1.7233    0.8218 C   0  0  0  0  0  0  0  0  0  0  0  0
   -2.9026    0.9011   -0.1760 C   0  0  0  0  0  0  0  0  0  0  0  0
   -2.4765   -0.5011   -1.7986 H   0  0  0  0  0  0  0  0  0  0  0  0
    0.0306   -0.4204   -1.5556 H   0  0  0  0  0  0  0  0  0  0  0  0
    3.0587    0.4235   -0.3843 N   0  0  0  0  0  0  0  0  0  0  0  0
    4.1616    0.3960   -0.3508 N   0  0  0  0  0  0  0  0  0  0  0  0
   -3.9830    0.8450   -0.3057 H   0  0  0  0  0  0  0  0  0  0  0  0
   -2.9594    2.3384    1.5096 H   0  0  0  0  0  0  0  0  0  0  0  0
   -0.2605    2.6234    2.0039 N   0  0  0  0  0  0  0  0  0  0  0  0
    0.9572    2.5270    1.9623 O   0  0  0  0  0  0  0  0  0  0  0  0
   -0.9465    3.2894    2.7463 O   0  0  0  0  0  0  0  0  0  0  0  0
  1  2  2  0  0  0  0
  1  6  1  0  0  0  0
  2  3  1  0  0  0  0
  3  4  2  0  0  0  0
  4 13  1  0  0  0  0
  5  4  1  0  0  0  0
  5 12  1  0  0  0  0
  6  5  2  0  0  0  0
  7  1  1  0  0  0  0
  8  2  1  0  0  0  0
  9 10  3  0  0  0  0
 11  6  1  0  0  0  0
 13 15  2  0  0  0  0
 14 13  2  0  0  0  0
M  RAD  1   3   2
M  END
