Coordinates from ORCA-job o-NO2-Ph-N2+-B3LYPG-aug-cc-pVDZ-scan-d09-49-n400
 OpenBabel09291715233D

 15 14  0  0  0  0  0  0  0  0999 V2000
   -2.0926    0.1351   -1.0283 C   0  0  0  0  0  0  0  0  0  0  0  0
   -0.6475    0.1274   -0.9520 C   0  0  0  0  0  0  0  0  0  0  0  0
   -0.3781    0.9585    0.0405 C   0  0  0  0  0  0  0  0  0  0  0  0
   -0.9088    1.7711    0.9642 C   0  0  0  0  0  0  0  0  0  0  0  0
   -2.3136    1.7127    0.8126 C   0  0  0  0  0  0  0  0  0  0  0  0
   -2.8858    0.9025   -0.1733 C   0  0  0  0  0  0  0  0  0  0  0  0
   -2.5167   -0.5054   -1.8061 H   0  0  0  0  0  0  0  0  0  0  0  0
   -0.0018   -0.4589   -1.6029 H   0  0  0  0  0  0  0  0  0  0  0  0
    2.9038    0.5220   -0.2777 N   0  0  0  0  0  0  0  0  0  0  0  0
    4.0065    0.5039   -0.2331 N   0  0  0  0  0  0  0  0  0  0  0  0
   -3.9696    0.8671   -0.2789 H   0  0  0  0  0  0  0  0  0  0  0  0
   -2.8803    2.3379    1.5138 H   0  0  0  0  0  0  0  0  0  0  0  0
   -0.2001    2.5992    1.9791 N   0  0  0  0  0  0  0  0  0  0  0  0
    1.0157    2.5100    1.9456 O   0  0  0  0  0  0  0  0  0  0  0  0
   -0.8967    3.2611    2.7160 O   0  0  0  0  0  0  0  0  0  0  0  0
  1  2  2  0  0  0  0
  1  6  1  0  0  0  0
  2  3  1  0  0  0  0
  3  4  2  0  0  0  0
  4 13  1  0  0  0  0
  5  4  1  0  0  0  0
  5 12  1  0  0  0  0
  6  5  2  0  0  0  0
  7  1  1  0  0  0  0
  8  2  1  0  0  0  0
  9 10  3  0  0  0  0
 11  6  1  0  0  0  0
 13 15  2  0  0  0  0
 14 13  2  0  0  0  0
M  RAD  1   3   2
M  END
