Coordinates from ORCA-job o-NO2-Ph-N2+-B3LYPG-aug-cc-pVDZ-scan-d09-49-n400
 OpenBabel09291715233D

 15 14  0  0  0  0  0  0  0  0999 V2000
   -1.5352    0.3915   -0.7703 C   0  0  0  0  0  0  0  0  0  0  0  0
   -0.3969    0.4121   -0.0273 C   0  0  0  0  0  0  0  0  0  0  0  0
   -0.2673    1.1856    1.1930 C   0  0  0  0  0  0  0  0  0  0  0  0
   -1.7002    2.0157    1.5034 C   0  0  0  0  0  0  0  0  0  0  0  0
   -2.8429    1.9171    0.6378 C   0  0  0  0  0  0  0  0  0  0  0  0
   -2.7476    1.1271   -0.4573 C   0  0  0  0  0  0  0  0  0  0  0  0
   -1.5402   -0.2236   -1.6717 H   0  0  0  0  0  0  0  0  0  0  0  0
    0.4926   -0.1552   -0.3053 H   0  0  0  0  0  0  0  0  0  0  0  0
    3.3161    0.1474   -1.8586 N   0  0  0  0  0  0  0  0  0  0  0  0
    4.3140    0.0813   -2.3263 N   0  0  0  0  0  0  0  0  0  0  0  0
   -3.5991    1.0339   -1.1297 H   0  0  0  0  0  0  0  0  0  0  0  0
   -3.7385    2.4799    0.8966 H   0  0  0  0  0  0  0  0  0  0  0  0
   -1.4560    2.6325    2.5637 N   0  0  0  0  0  0  0  0  0  0  0  0
    0.6278    1.3229    1.9650 O   0  0  0  0  0  0  0  0  0  0  0  0
   -0.6924    2.8760    3.4064 O   0  0  0  0  0  0  0  0  0  0  0  0
  1  6  1  0  0  0  0
  1  2  2  0  0  0  0
  2  3  1  0  0  0  0
  3  4  1  0  0  0  0
  3 14  2  0  0  0  0
  4 13  2  0  0  0  0
  5 12  1  0  0  0  0
  5  4  1  0  0  0  0
  6  5  2  0  0  0  0
  7  1  1  0  0  0  0
  8  2  1  0  0  0  0
 10  9  3  0  0  0  0
 11  6  1  0  0  0  0
 13 15  1  0  0  0  0
M  RAD  1  15   2
M  END
