Coordinates from ORCA-job o-NO2-Ph-N2+-B3LYPG-aug-cc-pVDZ-scan-d09-49-n400
 OpenBabel09291715223D

 15 15  0  0  0  0  0  0  0  0999 V2000
   -1.9603    0.0989   -1.0617 C   0  0  0  0  0  0  0  0  0  0  0  0
   -0.5516    0.0789   -1.0024 C   0  0  0  0  0  0  0  0  0  0  0  0
   -0.0390    0.8870   -0.0246 C   0  0  0  0  0  0  0  0  0  0  0  0
   -0.6864    1.6970    0.8871 C   0  0  0  0  0  0  0  0  0  0  0  0
   -2.0793    1.6834    0.7895 C   0  0  0  0  0  0  0  0  0  0  0  0
   -2.7043    0.8879   -0.1801 C   0  0  0  0  0  0  0  0  0  0  0  0
   -2.4549   -0.5168   -1.8127 H   0  0  0  0  0  0  0  0  0  0  0  0
    0.0556   -0.5240   -1.6737 H   0  0  0  0  0  0  0  0  0  0  0  0
    1.7308    0.8757    0.0661 N   0  0  0  0  0  0  0  0  0  0  0  0
    2.8156    0.7145   -0.0593 N   0  0  0  0  0  0  0  0  0  0  0  0
   -3.7917    0.8875   -0.2445 H   0  0  0  0  0  0  0  0  0  0  0  0
   -2.6441    2.3045    1.4848 H   0  0  0  0  0  0  0  0  0  0  0  0
    0.0052    2.5259    1.8997 N   0  0  0  0  0  0  0  0  0  0  0  0
    1.2323    2.4612    1.9090 O   0  0  0  0  0  0  0  0  0  0  0  0
   -0.6935    3.1826    2.6422 O   0  0  0  0  0  0  0  0  0  0  0  0
  1  2  2  0  0  0  0
  1  6  1  0  0  0  0
  2  3  1  0  0  0  0
  3  9  1  0  0  0  0
  3  4  2  0  0  0  0
  4 13  1  0  0  0  0
  5  4  1  0  0  0  0
  5 12  1  0  0  0  0
  6  5  2  0  0  0  0
  7  1  1  0  0  0  0
  8  2  1  0  0  0  0
 10  9  1  0  0  0  0
 11  6  1  0  0  0  0
 13 14  2  0  0  0  0
 13 15  2  0  0  0  0
M  RAD  2   9   2  10   3
M  END
