Coordinates from ORCA-job o-NO2-Ph-N2+-B3LYPG-aug-cc-pVDZ-scan-d09-49-n400
 OpenBabel09291715233D

 15 14  0  0  0  0  0  0  0  0999 V2000
   -2.0909    0.1400   -1.0224 C   0  0  0  0  0  0  0  0  0  0  0  0
   -0.6452    0.1389   -0.9384 C   0  0  0  0  0  0  0  0  0  0  0  0
   -0.3878    0.9718    0.0555 C   0  0  0  0  0  0  0  0  0  0  0  0
   -0.9332    1.7821    0.9756 C   0  0  0  0  0  0  0  0  0  0  0  0
   -2.3359    1.7171    0.8164 C   0  0  0  0  0  0  0  0  0  0  0  0
   -2.8951    0.9026   -0.1738 C   0  0  0  0  0  0  0  0  0  0  0  0
   -2.5055   -0.5034   -1.8030 H   0  0  0  0  0  0  0  0  0  0  0  0
    0.0064   -0.4448   -1.5858 H   0  0  0  0  0  0  0  0  0  0  0  0
    2.9821    0.4809   -0.3214 N   0  0  0  0  0  0  0  0  0  0  0  0
    4.0848    0.4616   -0.2781 N   0  0  0  0  0  0  0  0  0  0  0  0
   -3.9778    0.8597   -0.2881 H   0  0  0  0  0  0  0  0  0  0  0  0
   -2.9121    2.3387    1.5129 H   0  0  0  0  0  0  0  0  0  0  0  0
   -0.2261    2.6092    1.9892 N   0  0  0  0  0  0  0  0  0  0  0  0
    0.9902    2.5176    1.9531 O   0  0  0  0  0  0  0  0  0  0  0  0
   -0.9195    3.2723    2.7278 O   0  0  0  0  0  0  0  0  0  0  0  0
  1  2  2  0  0  0  0
  1  6  1  0  0  0  0
  2  3  1  0  0  0  0
  3  4  2  0  0  0  0
  4 13  1  0  0  0  0
  5  4  1  0  0  0  0
  5 12  1  0  0  0  0
  6  5  2  0  0  0  0
  7  1  1  0  0  0  0
  8  2  1  0  0  0  0
  9 10  3  0  0  0  0
 11  6  1  0  0  0  0
 13 15  2  0  0  0  0
 14 13  2  0  0  0  0
M  RAD  1   3   2
M  END
