Coordinates from ORCA-job o-NO2-Ph-N2+-B3LYPG-aug-cc-pVDZ-scan-d09-49-n400
 OpenBabel09291715223D

 15 15  0  0  0  0  0  0  0  0999 V2000
   -1.9134    0.0984   -1.0611 C   0  0  0  0  0  0  0  0  0  0  0  0
   -0.5208    0.0924   -0.9856 C   0  0  0  0  0  0  0  0  0  0  0  0
    0.0925    0.8944   -0.0065 C   0  0  0  0  0  0  0  0  0  0  0  0
   -0.6623    1.6895    0.8835 C   0  0  0  0  0  0  0  0  0  0  0  0
   -2.0419    1.6821    0.7930 C   0  0  0  0  0  0  0  0  0  0  0  0
   -2.6658    0.8844   -0.1816 C   0  0  0  0  0  0  0  0  0  0  0  0
   -2.4078   -0.5159   -1.8125 H   0  0  0  0  0  0  0  0  0  0  0  0
    0.0846   -0.5116   -1.6599 H   0  0  0  0  0  0  0  0  0  0  0  0
    1.4827    0.8609    0.0366 N   0  0  0  0  0  0  0  0  0  0  0  0
    2.5797    0.7147   -0.0694 N   0  0  0  0  0  0  0  0  0  0  0  0
   -3.7536    0.8823   -0.2486 H   0  0  0  0  0  0  0  0  0  0  0  0
   -2.6161    2.2981    1.4831 H   0  0  0  0  0  0  0  0  0  0  0  0
    0.0148    2.5227    1.9030 N   0  0  0  0  0  0  0  0  0  0  0  0
    1.2442    2.4650    1.9052 O   0  0  0  0  0  0  0  0  0  0  0  0
   -0.6826    3.1869    2.6404 O   0  0  0  0  0  0  0  0  0  0  0  0
  1  2  2  0  0  0  0
  1  6  1  0  0  0  0
  2  3  1  0  0  0  0
  3  9  1  0  0  0  0
  3  4  2  0  0  0  0
  4 13  1  0  0  0  0
  5  4  1  0  0  0  0
  5 12  1  0  0  0  0
  6  5  2  0  0  0  0
  7  1  1  0  0  0  0
  8  2  1  0  0  0  0
 10  9  1  0  0  0  0
 11  6  1  0  0  0  0
 13 14  2  0  0  0  0
 13 15  2  0  0  0  0
M  RAD  2   9   2  10   3
M  END
