Coordinates from ORCA-job o-NO2-Ph-N2+-B3LYPG-aug-cc-pVDZ-scan-d09-49-n400
 OpenBabel09291715233D

 15 14  0  0  0  0  0  0  0  0999 V2000
   -1.6907    0.1675   -0.7645 C   0  0  0  0  0  0  0  0  0  0  0  0
   -0.5300    0.0524   -0.0681 C   0  0  0  0  0  0  0  0  0  0  0  0
   -0.1903    0.9012    1.0566 C   0  0  0  0  0  0  0  0  0  0  0  0
   -1.4403    2.0179    1.3307 C   0  0  0  0  0  0  0  0  0  0  0  0
   -2.6282    2.0392    0.5196 C   0  0  0  0  0  0  0  0  0  0  0  0
   -2.7336    1.1400   -0.4860 C   0  0  0  0  0  0  0  0  0  0  0  0
   -1.8543   -0.5195   -1.5963 H   0  0  0  0  0  0  0  0  0  0  0  0
    0.2369   -0.6831   -0.3120 H   0  0  0  0  0  0  0  0  0  0  0  0
    2.7839    0.7506   -1.2507 N   0  0  0  0  0  0  0  0  0  0  0  0
    3.8062    0.9263   -1.6284 N   0  0  0  0  0  0  0  0  0  0  0  0
   -3.6243    1.1375   -1.1126 H   0  0  0  0  0  0  0  0  0  0  0  0
   -3.3955    2.7775    0.7475 H   0  0  0  0  0  0  0  0  0  0  0  0
   -1.0360    2.6838    2.3044 N   0  0  0  0  0  0  0  0  0  0  0  0
    0.7569    0.9456    1.7714 O   0  0  0  0  0  0  0  0  0  0  0  0
   -0.2265    2.9074    3.1077 O   0  0  0  0  0  0  0  0  0  0  0  0
  1  6  1  0  0  0  0
  1  2  2  0  0  0  0
  2  3  1  0  0  0  0
  3  4  1  0  0  0  0
  3 14  2  0  0  0  0
  4 13  2  0  0  0  0
  5 12  1  0  0  0  0
  5  4  1  0  0  0  0
  6  5  2  0  0  0  0
  7  1  1  0  0  0  0
  8  2  1  0  0  0  0
 10  9  3  0  0  0  0
 11  6  1  0  0  0  0
 13 15  1  0  0  0  0
M  RAD  1  15   2
M  END
