Coordinates from ORCA-job o-NO2-Ph-N2+-B3LYPG-aug-cc-pVDZ-scan-d09-49-n400
 OpenBabel09291715233D

 15 14  0  0  0  0  0  0  0  0999 V2000
   -2.0872    0.1224   -1.0430 C   0  0  0  0  0  0  0  0  0  0  0  0
   -0.6454    0.0988   -0.9854 C   0  0  0  0  0  0  0  0  0  0  0  0
   -0.3324    0.9246    0.0034 C   0  0  0  0  0  0  0  0  0  0  0  0
   -0.8392    1.7439    0.9363 C   0  0  0  0  0  0  0  0  0  0  0  0
   -2.2479    1.6998    0.8013 C   0  0  0  0  0  0  0  0  0  0  0  0
   -2.8521    0.9012   -0.1729 C   0  0  0  0  0  0  0  0  0  0  0  0
   -2.5355   -0.5104   -1.8130 H   0  0  0  0  0  0  0  0  0  0  0  0
   -0.0172   -0.4951   -1.6462 H   0  0  0  0  0  0  0  0  0  0  0  0
    2.6631    0.6260   -0.1698 N   0  0  0  0  0  0  0  0  0  0  0  0
    3.7657    0.6026   -0.1316 N   0  0  0  0  0  0  0  0  0  0  0  0
   -3.9383    0.8847   -0.2565 H   0  0  0  0  0  0  0  0  0  0  0  0
   -2.7921    2.3330    1.5132 H   0  0  0  0  0  0  0  0  0  0  0  0
   -0.1366    2.5782    1.9581 N   0  0  0  0  0  0  0  0  0  0  0  0
    1.0778    2.5007    1.9384 O   0  0  0  0  0  0  0  0  0  0  0  0
   -0.8483    3.2339    2.6870 O   0  0  0  0  0  0  0  0  0  0  0  0
  1  2  2  0  0  0  0
  1  6  1  0  0  0  0
  2  3  1  0  0  0  0
  3  4  2  0  0  0  0
  4 13  1  0  0  0  0
  5  4  1  0  0  0  0
  5 12  1  0  0  0  0
  6  5  2  0  0  0  0
  7  1  1  0  0  0  0
  8  2  1  0  0  0  0
  9 10  3  0  0  0  0
 11  6  1  0  0  0  0
 13 15  2  0  0  0  0
 14 13  2  0  0  0  0
M  RAD  1   3   2
M  END
