Coordinates from ORCA-job o-NO2-Ph-N2+-B3LYPG-aug-cc-pVDZ-scan-d09-49-n400
 OpenBabel09291715233D

 15 14  0  0  0  0  0  0  0  0999 V2000
   -2.0323    0.1632   -0.9917 C   0  0  0  0  0  0  0  0  0  0  0  0
   -0.5869    0.2075   -0.8543 C   0  0  0  0  0  0  0  0  0  0  0  0
   -0.4118    1.0499    0.1458 C   0  0  0  0  0  0  0  0  0  0  0  0
   -1.0386    1.8396    1.0369 C   0  0  0  0  0  0  0  0  0  0  0  0
   -2.4274    1.7341    0.8310 C   0  0  0  0  0  0  0  0  0  0  0  0
   -2.9046    0.8943   -0.1841 C   0  0  0  0  0  0  0  0  0  0  0  0
   -2.3874   -0.4968   -1.7882 H   0  0  0  0  0  0  0  0  0  0  0  0
    0.1058   -0.3563   -1.4761 H   0  0  0  0  0  0  0  0  0  0  0  0
    3.1623    0.2895   -0.5355 N   0  0  0  0  0  0  0  0  0  0  0  0
    4.2647    0.2350   -0.5338 N   0  0  0  0  0  0  0  0  0  0  0  0
   -3.9775    0.8056   -0.3515 H   0  0  0  0  0  0  0  0  0  0  0  0
   -3.0626    2.3314    1.4954 H   0  0  0  0  0  0  0  0  0  0  0  0
   -0.3401    2.6603    2.0424 N   0  0  0  0  0  0  0  0  0  0  0  0
    0.8813    2.5551    1.9909 O   0  0  0  0  0  0  0  0  0  0  0  0
   -1.0106    3.3319    2.7922 O   0  0  0  0  0  0  0  0  0  0  0  0
  1  2  2  0  0  0  0
  1  6  1  0  0  0  0
  2  3  1  0  0  0  0
  3  4  2  0  0  0  0
  4 13  1  0  0  0  0
  5  4  1  0  0  0  0
  5 12  1  0  0  0  0
  6  5  2  0  0  0  0
  7  1  1  0  0  0  0
  8  2  1  0  0  0  0
  9 10  3  0  0  0  0
 11  6  1  0  0  0  0
 13 15  2  0  0  0  0
 14 13  2  0  0  0  0
M  RAD  1   3   2
M  END
