Coordinates from ORCA-job o-NO2-Ph-N2+-B3LYPG-aug-cc-pVDZ-scan-d09-49-n400
 OpenBabel09291715233D

 15 14  0  0  0  0  0  0  0  0999 V2000
   -1.6256    0.2805   -0.7687 C   0  0  0  0  0  0  0  0  0  0  0  0
   -0.4683    0.2403   -0.0568 C   0  0  0  0  0  0  0  0  0  0  0  0
   -0.2377    1.0575    1.1190 C   0  0  0  0  0  0  0  0  0  0  0  0
   -1.5872    2.0215    1.4237 C   0  0  0  0  0  0  0  0  0  0  0  0
   -2.7588    1.9789    0.5927 C   0  0  0  0  0  0  0  0  0  0  0  0
   -2.7620    1.1316   -0.4629 C   0  0  0  0  0  0  0  0  0  0  0  0
   -1.7093   -0.3748   -1.6372 H   0  0  0  0  0  0  0  0  0  0  0  0
    0.3649   -0.4102   -0.3258 H   0  0  0  0  0  0  0  0  0  0  0  0
    3.1345    0.4255   -1.5693 N   0  0  0  0  0  0  0  0  0  0  0  0
    4.1518    0.4802   -1.9947 N   0  0  0  0  0  0  0  0  0  0  0  0
   -3.6376    1.0789   -1.1082 H   0  0  0  0  0  0  0  0  0  0  0  0
   -3.5962    2.6279    0.8448 H   0  0  0  0  0  0  0  0  0  0  0  0
   -1.2619    2.6655    2.4448 N   0  0  0  0  0  0  0  0  0  0  0  0
    0.6877    1.1543    1.8605 O   0  0  0  0  0  0  0  0  0  0  0  0
   -0.4599    2.8866    3.2575 O   0  0  0  0  0  0  0  0  0  0  0  0
  1  6  1  0  0  0  0
  1  2  2  0  0  0  0
  2  3  1  0  0  0  0
  3  4  1  0  0  0  0
  3 14  2  0  0  0  0
  4 13  2  0  0  0  0
  5 12  1  0  0  0  0
  5  4  1  0  0  0  0
  6  5  2  0  0  0  0
  7  1  1  0  0  0  0
  8  2  1  0  0  0  0
 10  9  3  0  0  0  0
 11  6  1  0  0  0  0
 13 15  1  0  0  0  0
M  RAD  1  15   2
M  END
