Coordinates from ORCA-job o-NO2-Ph-N2+-B3LYPG-aug-cc-pVDZ-scan-d09-49-n400
 OpenBabel09291715233D

 15 14  0  0  0  0  0  0  0  0999 V2000
   -2.0763    0.1138   -1.0523 C   0  0  0  0  0  0  0  0  0  0  0  0
   -0.6382    0.0823   -1.0044 C   0  0  0  0  0  0  0  0  0  0  0  0
   -0.2947    0.9043   -0.0181 C   0  0  0  0  0  0  0  0  0  0  0  0
   -0.7903    1.7269    0.9192 C   0  0  0  0  0  0  0  0  0  0  0  0
   -2.2013    1.6909    0.7936 C   0  0  0  0  0  0  0  0  0  0  0  0
   -2.8242    0.8994   -0.1734 C   0  0  0  0  0  0  0  0  0  0  0  0
   -2.5398   -0.5137   -1.8171 H   0  0  0  0  0  0  0  0  0  0  0  0
   -0.0198   -0.5157   -1.6704 H   0  0  0  0  0  0  0  0  0  0  0  0
    2.4806    0.6911   -0.1041 N   0  0  0  0  0  0  0  0  0  0  0  0
    3.5831    0.6575   -0.0780 N   0  0  0  0  0  0  0  0  0  0  0  0
   -3.9115    0.8945   -0.2434 H   0  0  0  0  0  0  0  0  0  0  0  0
   -2.7335    2.3279    1.5106 H   0  0  0  0  0  0  0  0  0  0  0  0
   -0.0964    2.5668    1.9471 N   0  0  0  0  0  0  0  0  0  0  0  0
    1.1176    2.5011    1.9414 O   0  0  0  0  0  0  0  0  0  0  0  0
   -0.8209    3.2171    2.6689 O   0  0  0  0  0  0  0  0  0  0  0  0
  1  2  2  0  0  0  0
  1  6  1  0  0  0  0
  2  3  1  0  0  0  0
  3  4  2  0  0  0  0
  4 13  1  0  0  0  0
  5  4  1  0  0  0  0
  5 12  1  0  0  0  0
  6  5  2  0  0  0  0
  7  1  1  0  0  0  0
  8  2  1  0  0  0  0
  9 10  3  0  0  0  0
 11  6  1  0  0  0  0
 13 15  2  0  0  0  0
 14 13  2  0  0  0  0
M  RAD  1   3   2
M  END
