Coordinates from ORCA-job o-NO2-Ph-N2+-B3LYPG-aug-cc-pVDZ-scan-d09-49-n400
 OpenBabel09291715223D

 15 14  0  0  0  0  0  0  0  0999 V2000
   -2.0462    0.1051   -1.0608 C   0  0  0  0  0  0  0  0  0  0  0  0
   -0.6143    0.0691   -1.0183 C   0  0  0  0  0  0  0  0  0  0  0  0
   -0.2295    0.8860   -0.0357 C   0  0  0  0  0  0  0  0  0  0  0  0
   -0.7345    1.7100    0.9027 C   0  0  0  0  0  0  0  0  0  0  0  0
   -2.1446    1.6826    0.7871 C   0  0  0  0  0  0  0  0  0  0  0  0
   -2.7810    0.8957   -0.1753 C   0  0  0  0  0  0  0  0  0  0  0  0
   -2.5250   -0.5169   -1.8200 H   0  0  0  0  0  0  0  0  0  0  0  0
   -0.0053   -0.5324   -1.6890 H   0  0  0  0  0  0  0  0  0  0  0  0
    2.2116    0.7695   -0.0278 N   0  0  0  0  0  0  0  0  0  0  0  0
    3.3124    0.7018   -0.0423 N   0  0  0  0  0  0  0  0  0  0  0  0
   -3.8688    0.8999   -0.2348 H   0  0  0  0  0  0  0  0  0  0  0  0
   -2.6744    2.3194    1.5040 H   0  0  0  0  0  0  0  0  0  0  0  0
   -0.0491    2.5531    1.9340 N   0  0  0  0  0  0  0  0  0  0  0  0
    1.1663    2.5018    1.9449 O   0  0  0  0  0  0  0  0  0  0  0  0
   -0.7834    3.1995    2.6507 O   0  0  0  0  0  0  0  0  0  0  0  0
  1  2  2  0  0  0  0
  1  6  1  0  0  0  0
  2  3  1  0  0  0  0
  3  4  2  0  0  0  0
  4 13  1  0  0  0  0
  5  4  1  0  0  0  0
  5 12  1  0  0  0  0
  6  5  2  0  0  0  0
  7  1  1  0  0  0  0
  8  2  1  0  0  0  0
 10  9  3  0  0  0  0
 11  6  1  0  0  0  0
 13 14  2  0  0  0  0
 13 15  2  0  0  0  0
M  RAD  1   3   2
M  END
