Coordinates from ORCA-job o-NO2-Ph-N2+-B3LYPG-aug-cc-pVDZ-scan-d09-49-n400
 OpenBabel09291715223D

 15 14  0  0  0  0  0  0  0  0999 V2000
   -2.0337    0.1023   -1.0634 C   0  0  0  0  0  0  0  0  0  0  0  0
   -0.6056    0.0663   -1.0212 C   0  0  0  0  0  0  0  0  0  0  0  0
   -0.1988    0.8807   -0.0400 C   0  0  0  0  0  0  0  0  0  0  0  0
   -0.7168    1.7044    0.8972 C   0  0  0  0  0  0  0  0  0  0  0  0
   -2.1254    1.6802    0.7854 C   0  0  0  0  0  0  0  0  0  0  0  0
   -2.7652    0.8943   -0.1760 C   0  0  0  0  0  0  0  0  0  0  0  0
   -2.5179   -0.5175   -1.8203 H   0  0  0  0  0  0  0  0  0  0  0  0
    0.0012   -0.5362   -1.6931 H   0  0  0  0  0  0  0  0  0  0  0  0
    2.1129    0.7965   -0.0020 N   0  0  0  0  0  0  0  0  0  0  0  0
    3.2124    0.7158   -0.0317 N   0  0  0  0  0  0  0  0  0  0  0  0
   -3.8530    0.9010   -0.2325 H   0  0  0  0  0  0  0  0  0  0  0  0
   -2.6567    2.3158    1.5009 H   0  0  0  0  0  0  0  0  0  0  0  0
   -0.0338    2.5473    1.9280 N   0  0  0  0  0  0  0  0  0  0  0  0
    1.1829    2.4997    1.9434 O   0  0  0  0  0  0  0  0  0  0  0  0
   -0.7683    3.1937    2.6447 O   0  0  0  0  0  0  0  0  0  0  0  0
  1  2  2  0  0  0  0
  1  6  1  0  0  0  0
  2  3  1  0  0  0  0
  3  4  2  0  0  0  0
  4 13  1  0  0  0  0
  5  4  1  0  0  0  0
  5 12  1  0  0  0  0
  6  5  2  0  0  0  0
  7  1  1  0  0  0  0
  8  2  1  0  0  0  0
 10  9  3  0  0  0  0
 11  6  1  0  0  0  0
 13 14  2  0  0  0  0
 13 15  2  0  0  0  0
M  RAD  1   3   2
M  END
