Coordinates from ORCA-job o-NO2-Ph-N2+-B3LYPG-aug-cc-pVDZ-scan-d09-49-n400
 OpenBabel09291715233D

 15 14  0  0  0  0  0  0  0  0999 V2000
   -2.0921    0.1378   -1.0251 C   0  0  0  0  0  0  0  0  0  0  0  0
   -0.6467    0.1331   -0.9453 C   0  0  0  0  0  0  0  0  0  0  0  0
   -0.3813    0.9650    0.0479 C   0  0  0  0  0  0  0  0  0  0  0  0
   -0.9214    1.7767    0.9700 C   0  0  0  0  0  0  0  0  0  0  0  0
   -2.3248    1.7149    0.8145 C   0  0  0  0  0  0  0  0  0  0  0  0
   -2.8906    0.9026   -0.1734 C   0  0  0  0  0  0  0  0  0  0  0  0
   -2.5115   -0.5042   -1.8043 H   0  0  0  0  0  0  0  0  0  0  0  0
    0.0012   -0.4523   -1.5949 H   0  0  0  0  0  0  0  0  0  0  0  0
    2.9447    0.5011   -0.2998 N   0  0  0  0  0  0  0  0  0  0  0  0
    4.0474    0.4827   -0.2556 N   0  0  0  0  0  0  0  0  0  0  0  0
   -3.9739    0.8635   -0.2834 H   0  0  0  0  0  0  0  0  0  0  0  0
   -2.8963    2.3383    1.5133 H   0  0  0  0  0  0  0  0  0  0  0  0
   -0.2137    2.6043    1.9842 N   0  0  0  0  0  0  0  0  0  0  0  0
    1.0022    2.5138    1.9493 O   0  0  0  0  0  0  0  0  0  0  0  0
   -0.9088    3.2668    2.7220 O   0  0  0  0  0  0  0  0  0  0  0  0
  1  2  2  0  0  0  0
  1  6  1  0  0  0  0
  2  3  1  0  0  0  0
  3  4  2  0  0  0  0
  4 13  1  0  0  0  0
  5  4  1  0  0  0  0
  5 12  1  0  0  0  0
  6  5  2  0  0  0  0
  7  1  1  0  0  0  0
  8  2  1  0  0  0  0
  9 10  3  0  0  0  0
 11  6  1  0  0  0  0
 13 15  2  0  0  0  0
 14 13  2  0  0  0  0
M  RAD  1   3   2
M  END
