Coordinates from ORCA-job o-NO2-Ph-N2+-B3LYPG-aug-cc-pVDZ-scan-d09-49-n400
 OpenBabel09291715233D

 15 14  0  0  0  0  0  0  0  0999 V2000
   -1.6828    0.2139   -0.7672 C   0  0  0  0  0  0  0  0  0  0  0  0
   -0.5190    0.1332   -0.0712 C   0  0  0  0  0  0  0  0  0  0  0  0
   -0.2257    0.9739    1.0748 C   0  0  0  0  0  0  0  0  0  0  0  0
   -1.5098    2.0206    1.3715 C   0  0  0  0  0  0  0  0  0  0  0  0
   -2.6983    2.0126    0.5618 C   0  0  0  0  0  0  0  0  0  0  0  0
   -2.7662    1.1341   -0.4655 C   0  0  0  0  0  0  0  0  0  0  0  0
   -1.8171   -0.4587   -1.6158 H   0  0  0  0  0  0  0  0  0  0  0  0
    0.2824   -0.5597   -0.3285 H   0  0  0  0  0  0  0  0  0  0  0  0
    3.0118    0.5928   -1.3919 N   0  0  0  0  0  0  0  0  0  0  0  0
    4.0358    0.7423   -1.7766 N   0  0  0  0  0  0  0  0  0  0  0  0
   -3.6565    1.1091   -1.0923 H   0  0  0  0  0  0  0  0  0  0  0  0
   -3.4960    2.7119    0.8074 H   0  0  0  0  0  0  0  0  0  0  0  0
   -1.1318    2.6805    2.3629 N   0  0  0  0  0  0  0  0  0  0  0  0
    0.7237    1.0378    1.7888 O   0  0  0  0  0  0  0  0  0  0  0  0
   -0.3162    2.8999    3.1614 O   0  0  0  0  0  0  0  0  0  0  0  0
  1  6  1  0  0  0  0
  1  2  2  0  0  0  0
  2  3  1  0  0  0  0
  3  4  1  0  0  0  0
  3 14  2  0  0  0  0
  4 13  2  0  0  0  0
  5 12  1  0  0  0  0
  5  4  1  0  0  0  0
  6  5  2  0  0  0  0
  7  1  1  0  0  0  0
  8  2  1  0  0  0  0
 10  9  3  0  0  0  0
 11  6  1  0  0  0  0
 13 15  1  0  0  0  0
M  RAD  1  15   2
M  END
