Coordinates from ORCA-job o-NO2-Ph-N2+-B3LYPG-aug-cc-pVDZ-scan-d09-49-n400
 OpenBabel09291715233D

 15 14  0  0  0  0  0  0  0  0999 V2000
   -2.0843    0.1192   -1.0465 C   0  0  0  0  0  0  0  0  0  0  0  0
   -0.6437    0.0924   -0.9929 C   0  0  0  0  0  0  0  0  0  0  0  0
   -0.3198    0.9168   -0.0050 C   0  0  0  0  0  0  0  0  0  0  0  0
   -0.8214    1.7374    0.9297 C   0  0  0  0  0  0  0  0  0  0  0  0
   -2.2311    1.6965    0.7984 C   0  0  0  0  0  0  0  0  0  0  0  0
   -2.8426    0.9006   -0.1730 C   0  0  0  0  0  0  0  0  0  0  0  0
   -2.5384   -0.5116   -1.8146 H   0  0  0  0  0  0  0  0  0  0  0  0
   -0.0193   -0.5031   -1.6557 H   0  0  0  0  0  0  0  0  0  0  0  0
    2.5998    0.6503   -0.1450 N   0  0  0  0  0  0  0  0  0  0  0  0
    3.7025    0.6238   -0.1104 N   0  0  0  0  0  0  0  0  0  0  0  0
   -3.9293    0.8887   -0.2513 H   0  0  0  0  0  0  0  0  0  0  0  0
   -2.7703    2.3313    1.5125 H   0  0  0  0  0  0  0  0  0  0  0  0
   -0.1218    2.5738    1.9539 N   0  0  0  0  0  0  0  0  0  0  0  0
    1.0924    2.5006    1.9392 O   0  0  0  0  0  0  0  0  0  0  0  0
   -0.8383    3.2276    2.6801 O   0  0  0  0  0  0  0  0  0  0  0  0
  1  2  2  0  0  0  0
  1  6  1  0  0  0  0
  2  3  1  0  0  0  0
  3  4  2  0  0  0  0
  4 13  1  0  0  0  0
  5  4  1  0  0  0  0
  5 12  1  0  0  0  0
  6  5  2  0  0  0  0
  7  1  1  0  0  0  0
  8  2  1  0  0  0  0
  9 10  3  0  0  0  0
 11  6  1  0  0  0  0
 13 15  2  0  0  0  0
 14 13  2  0  0  0  0
M  RAD  1   3   2
M  END
