Coordinates from ORCA-job o-NO2-Ph-N2+-B3LYPG-aug-cc-pVDZ-scan-d09-49-n400
 OpenBabel09291715223D

 15 14  0  0  0  0  0  0  0  0999 V2000
   -2.0423    0.1042   -1.0616 C   0  0  0  0  0  0  0  0  0  0  0  0
   -0.6114    0.0681   -1.0193 C   0  0  0  0  0  0  0  0  0  0  0  0
   -0.2205    0.8843   -0.0371 C   0  0  0  0  0  0  0  0  0  0  0  0
   -0.7289    1.7083    0.9011 C   0  0  0  0  0  0  0  0  0  0  0  0
   -2.1386    1.6819    0.7866 C   0  0  0  0  0  0  0  0  0  0  0  0
   -2.7760    0.8953   -0.1755 C   0  0  0  0  0  0  0  0  0  0  0  0
   -2.5228   -0.5171   -1.8201 H   0  0  0  0  0  0  0  0  0  0  0  0
   -0.0032   -0.5338   -1.6905 H   0  0  0  0  0  0  0  0  0  0  0  0
    2.1808    0.7781   -0.0196 N   0  0  0  0  0  0  0  0  0  0  0  0
    3.2813    0.7060   -0.0392 N   0  0  0  0  0  0  0  0  0  0  0  0
   -3.8638    0.9002   -0.2341 H   0  0  0  0  0  0  0  0  0  0  0  0
   -2.6689    2.3183    1.5030 H   0  0  0  0  0  0  0  0  0  0  0  0
   -0.0442    2.5514    1.9322 N   0  0  0  0  0  0  0  0  0  0  0  0
    1.1716    2.5014    1.9447 O   0  0  0  0  0  0  0  0  0  0  0  0
   -0.7788    3.1976    2.6488 O   0  0  0  0  0  0  0  0  0  0  0  0
  1  2  2  0  0  0  0
  1  6  1  0  0  0  0
  2  3  1  0  0  0  0
  3  4  2  0  0  0  0
  4 13  1  0  0  0  0
  5  4  1  0  0  0  0
  5 12  1  0  0  0  0
  6  5  2  0  0  0  0
  7  1  1  0  0  0  0
  8  2  1  0  0  0  0
 10  9  3  0  0  0  0
 11  6  1  0  0  0  0
 13 14  2  0  0  0  0
 13 15  2  0  0  0  0
M  RAD  1   3   2
M  END
