Coordinates from ORCA-job o-NO2-Ph-N2+-B3LYPG-aug-cc-pVDZ-scan-d09-49-n400
 OpenBabel09291715233D

 15 14  0  0  0  0  0  0  0  0999 V2000
   -1.6512    0.2558   -0.7694 C   0  0  0  0  0  0  0  0  0  0  0  0
   -0.4886    0.2028   -0.0678 C   0  0  0  0  0  0  0  0  0  0  0  0
   -0.2332    1.0306    1.0966 C   0  0  0  0  0  0  0  0  0  0  0  0
   -1.5584    2.0209    1.4036 C   0  0  0  0  0  0  0  0  0  0  0  0
   -2.7392    1.9904    0.5844 C   0  0  0  0  0  0  0  0  0  0  0  0
   -2.7685    1.1316   -0.4612 C   0  0  0  0  0  0  0  0  0  0  0  0
   -1.7562   -0.4071   -1.6297 H   0  0  0  0  0  0  0  0  0  0  0  0
    0.3327   -0.4633   -0.3345 H   0  0  0  0  0  0  0  0  0  0  0  0
    3.0999    0.4870   -1.4974 N   0  0  0  0  0  0  0  0  0  0  0  0
    4.1225    0.5735   -1.9046 N   0  0  0  0  0  0  0  0  0  0  0  0
   -3.6517    1.0882   -1.0968 H   0  0  0  0  0  0  0  0  0  0  0  0
   -3.5621    2.6572    0.8375 H   0  0  0  0  0  0  0  0  0  0  0  0
   -1.2125    2.6712    2.4140 N   0  0  0  0  0  0  0  0  0  0  0  0
    0.7030    1.1150    1.8263 O   0  0  0  0  0  0  0  0  0  0  0  0
   -0.4023    2.8906    3.2185 O   0  0  0  0  0  0  0  0  0  0  0  0
  1  6  1  0  0  0  0
  1  2  2  0  0  0  0
  2  3  1  0  0  0  0
  3  4  1  0  0  0  0
  3 14  2  0  0  0  0
  4 13  2  0  0  0  0
  5 12  1  0  0  0  0
  5  4  1  0  0  0  0
  6  5  2  0  0  0  0
  7  1  1  0  0  0  0
  8  2  1  0  0  0  0
 10  9  3  0  0  0  0
 11  6  1  0  0  0  0
 13 15  1  0  0  0  0
M  RAD  1  15   2
M  END
