Coordinates from ORCA-job o-NO2-Ph-N2+-B3LYPG-aug-cc-pVDZ-scan-d09-49-n400
 OpenBabel09291715223D

 15 15  0  0  0  0  0  0  0  0999 V2000
   -1.9012    0.0966   -1.0623 C   0  0  0  0  0  0  0  0  0  0  0  0
   -0.5143    0.0907   -0.9871 C   0  0  0  0  0  0  0  0  0  0  0  0
    0.1413    0.8911   -0.0079 C   0  0  0  0  0  0  0  0  0  0  0  0
   -0.6446    1.6866    0.8803 C   0  0  0  0  0  0  0  0  0  0  0  0
   -2.0205    1.6805    0.7919 C   0  0  0  0  0  0  0  0  0  0  0  0
   -2.6510    0.8843   -0.1811 C   0  0  0  0  0  0  0  0  0  0  0  0
   -2.3971   -0.5175   -1.8131 H   0  0  0  0  0  0  0  0  0  0  0  0
    0.0891   -0.5149   -1.6630 H   0  0  0  0  0  0  0  0  0  0  0  0
    1.3912    0.8492    0.0169 N   0  0  0  0  0  0  0  0  0  0  0  0
    2.4999    0.7242   -0.0631 N   0  0  0  0  0  0  0  0  0  0  0  0
   -3.7392    0.8849   -0.2447 H   0  0  0  0  0  0  0  0  0  0  0  0
   -2.5922    2.2975    1.4832 H   0  0  0  0  0  0  0  0  0  0  0  0
    0.0196    2.5276    1.9079 N   0  0  0  0  0  0  0  0  0  0  0  0
    1.2474    2.4793    1.9233 O   0  0  0  0  0  0  0  0  0  0  0  0
   -0.6939    3.1841    2.6381 O   0  0  0  0  0  0  0  0  0  0  0  0
  1  2  2  0  0  0  0
  1  6  1  0  0  0  0
  2  3  1  0  0  0  0
  3  9  1  0  0  0  0
  3  4  2  0  0  0  0
  4 13  1  0  0  0  0
  5  4  1  0  0  0  0
  5 12  1  0  0  0  0
  6  5  2  0  0  0  0
  7  1  1  0  0  0  0
  8  2  1  0  0  0  0
 10  9  1  0  0  0  0
 11  6  1  0  0  0  0
 13 14  2  0  0  0  0
 13 15  2  0  0  0  0
M  RAD  2   9   2  10   3
M  END
