Coordinates from ORCA-job o-NO2-Ph-N2+-B3LYPG-aug-cc-pVDZ-scan-d09-49-n400
 OpenBabel09291715233D

 15 14  0  0  0  0  0  0  0  0999 V2000
   -1.6867    0.2021   -0.7664 C   0  0  0  0  0  0  0  0  0  0  0  0
   -0.5233    0.1131   -0.0709 C   0  0  0  0  0  0  0  0  0  0  0  0
   -0.2189    0.9565    1.0700 C   0  0  0  0  0  0  0  0  0  0  0  0
   -1.4935    2.0200    1.3617 C   0  0  0  0  0  0  0  0  0  0  0  0
   -2.6825    2.0193    0.5524 C   0  0  0  0  0  0  0  0  0  0  0  0
   -2.7602    1.1355   -0.4695 C   0  0  0  0  0  0  0  0  0  0  0  0
   -1.8287   -0.4740   -1.6109 H   0  0  0  0  0  0  0  0  0  0  0  0
    0.2702   -0.5901   -0.3249 H   0  0  0  0  0  0  0  0  0  0  0  0
    2.9649    0.6311   -1.3590 N   0  0  0  0  0  0  0  0  0  0  0  0
    3.9889    0.7874   -1.7410 N   0  0  0  0  0  0  0  0  0  0  0  0
   -3.6510    1.1160   -1.0957 H   0  0  0  0  0  0  0  0  0  0  0  0
   -3.4727    2.7284    0.7942 H   0  0  0  0  0  0  0  0  0  0  0  0
   -1.1087    2.6818    2.3485 N   0  0  0  0  0  0  0  0  0  0  0  0
    0.7311    1.0149    1.7830 O   0  0  0  0  0  0  0  0  0  0  0  0
   -0.2945    2.9024    3.1480 O   0  0  0  0  0  0  0  0  0  0  0  0
  1  6  1  0  0  0  0
  1  2  2  0  0  0  0
  2  3  1  0  0  0  0
  3  4  1  0  0  0  0
  3 14  2  0  0  0  0
  4 13  2  0  0  0  0
  5 12  1  0  0  0  0
  5  4  1  0  0  0  0
  6  5  2  0  0  0  0
  7  1  1  0  0  0  0
  8  2  1  0  0  0  0
 10  9  3  0  0  0  0
 11  6  1  0  0  0  0
 13 15  1  0  0  0  0
M  RAD  1  15   2
M  END
