Coordinates from ORCA-job o-NO2-Ph-N2+-B3LYPG-aug-cc-pVDZ-scan-d09-49-n400
 OpenBabel09291715223D

 15 15  0  0  0  0  0  0  0  0999 V2000
   -1.8966    0.0954   -1.0633 C   0  0  0  0  0  0  0  0  0  0  0  0
   -0.5128    0.0885   -0.9894 C   0  0  0  0  0  0  0  0  0  0  0  0
    0.1666    0.8883   -0.0095 C   0  0  0  0  0  0  0  0  0  0  0  0
   -0.6358    1.6849    0.8788 C   0  0  0  0  0  0  0  0  0  0  0  0
   -2.0099    1.6794    0.7909 C   0  0  0  0  0  0  0  0  0  0  0  0
   -2.6446    0.8843   -0.1809 C   0  0  0  0  0  0  0  0  0  0  0  0
   -2.3935   -0.5183   -1.8138 H   0  0  0  0  0  0  0  0  0  0  0  0
    0.0906   -0.5176   -1.6654 H   0  0  0  0  0  0  0  0  0  0  0  0
    1.3464    0.8446    0.0091 N   0  0  0  0  0  0  0  0  0  0  0  0
    2.4624    0.7325   -0.0552 N   0  0  0  0  0  0  0  0  0  0  0  0
   -3.7330    0.8869   -0.2425 H   0  0  0  0  0  0  0  0  0  0  0  0
   -2.5797    2.2972    1.4831 H   0  0  0  0  0  0  0  0  0  0  0  0
    0.0229    2.5296    1.9099 N   0  0  0  0  0  0  0  0  0  0  0  0
    1.2498    2.4874    1.9301 O   0  0  0  0  0  0  0  0  0  0  0  0
   -0.6985    3.1811    2.6376 O   0  0  0  0  0  0  0  0  0  0  0  0
  1  2  2  0  0  0  0
  1  6  1  0  0  0  0
  2  3  1  0  0  0  0
  3  9  1  0  0  0  0
  3  4  2  0  0  0  0
  4 13  1  0  0  0  0
  5  4  1  0  0  0  0
  5 12  1  0  0  0  0
  6  5  2  0  0  0  0
  7  1  1  0  0  0  0
  8  2  1  0  0  0  0
 10  9  1  0  0  0  0
 11  6  1  0  0  0  0
 13 14  2  0  0  0  0
 13 15  2  0  0  0  0
M  RAD  2   9   2  10   3
M  END
