Coordinates from ORCA-job o-NO2-Ph-N2+-B3LYPG-aug-cc-pVDZ-scan-d09-49-n400
 OpenBabel09291715223D

 15 15  0  0  0  0  0  0  0  0999 V2000
   -1.9674    0.0996   -1.0628 C   0  0  0  0  0  0  0  0  0  0  0  0
   -0.5566    0.0767   -1.0060 C   0  0  0  0  0  0  0  0  0  0  0  0
   -0.0560    0.8843   -0.0272 C   0  0  0  0  0  0  0  0  0  0  0  0
   -0.6874    1.6958    0.8892 C   0  0  0  0  0  0  0  0  0  0  0  0
   -2.0823    1.6816    0.7899 C   0  0  0  0  0  0  0  0  0  0  0  0
   -2.7093    0.8884   -0.1795 C   0  0  0  0  0  0  0  0  0  0  0  0
   -2.4618   -0.5154   -1.8148 H   0  0  0  0  0  0  0  0  0  0  0  0
    0.0502   -0.5256   -1.6781 H   0  0  0  0  0  0  0  0  0  0  0  0
    1.7639    0.8711    0.0651 N   0  0  0  0  0  0  0  0  0  0  0  0
    2.8496    0.7143   -0.0548 N   0  0  0  0  0  0  0  0  0  0  0  0
   -3.7967    0.8894   -0.2428 H   0  0  0  0  0  0  0  0  0  0  0  0
   -2.6439    2.3035    1.4876 H   0  0  0  0  0  0  0  0  0  0  0  0
    0.0030    2.5247    1.9045 N   0  0  0  0  0  0  0  0  0  0  0  0
    1.2294    2.4698    1.9105 O   0  0  0  0  0  0  0  0  0  0  0  0
   -0.7003    3.1861    2.6387 O   0  0  0  0  0  0  0  0  0  0  0  0
  1  2  2  0  0  0  0
  1  6  1  0  0  0  0
  2  3  1  0  0  0  0
  3  9  1  0  0  0  0
  3  4  2  0  0  0  0
  4 13  1  0  0  0  0
  5  4  1  0  0  0  0
  5 12  1  0  0  0  0
  6  5  2  0  0  0  0
  7  1  1  0  0  0  0
  8  2  1  0  0  0  0
 10  9  1  0  0  0  0
 11  6  1  0  0  0  0
 13 14  2  0  0  0  0
 13 15  2  0  0  0  0
M  RAD  2   9   2  10   3
M  END
