Coordinates from ORCA-job o-NO2-Ph-N2+-B3LYPG-aug-cc-pVDZ-scan-d09-49-n400
 OpenBabel09291715223D

 15 15  0  0  0  0  0  0  0  0999 V2000
   -1.9688    0.0994   -1.0630 C   0  0  0  0  0  0  0  0  0  0  0  0
   -0.5571    0.0757   -1.0072 C   0  0  0  0  0  0  0  0  0  0  0  0
   -0.0617    0.8836   -0.0284 C   0  0  0  0  0  0  0  0  0  0  0  0
   -0.6865    1.6960    0.8894 C   0  0  0  0  0  0  0  0  0  0  0  0
   -2.0821    1.6813    0.7894 C   0  0  0  0  0  0  0  0  0  0  0  0
   -2.7099    0.8885   -0.1795 C   0  0  0  0  0  0  0  0  0  0  0  0
   -2.4629   -0.5157   -1.8152 H   0  0  0  0  0  0  0  0  0  0  0  0
    0.0498   -0.5266   -1.6792 H   0  0  0  0  0  0  0  0  0  0  0  0
    1.7682    0.8697    0.0636 N   0  0  0  0  0  0  0  0  0  0  0  0
    2.8544    0.7151   -0.0537 N   0  0  0  0  0  0  0  0  0  0  0  0
   -3.7973    0.8899   -0.2423 H   0  0  0  0  0  0  0  0  0  0  0  0
   -2.6423    2.3038    1.4879 H   0  0  0  0  0  0  0  0  0  0  0  0
    0.0035    2.5259    1.9055 N   0  0  0  0  0  0  0  0  0  0  0  0
    1.2293    2.4719    1.9132 O   0  0  0  0  0  0  0  0  0  0  0  0
   -0.7022    3.1859    2.6388 O   0  0  0  0  0  0  0  0  0  0  0  0
  1  2  2  0  0  0  0
  1  6  1  0  0  0  0
  2  3  1  0  0  0  0
  3  9  1  0  0  0  0
  3  4  2  0  0  0  0
  4 13  1  0  0  0  0
  5  4  1  0  0  0  0
  5 12  1  0  0  0  0
  6  5  2  0  0  0  0
  7  1  1  0  0  0  0
  8  2  1  0  0  0  0
 10  9  1  0  0  0  0
 11  6  1  0  0  0  0
 13 14  2  0  0  0  0
 13 15  2  0  0  0  0
M  RAD  2   9   2  10   3
M  END
