Coordinates from ORCA-job o-NO2-Ph-N2+-B3LYPG-aug-cc-pVDZ-scan-d09-49-n400
 OpenBabel09291715233D

 15 14  0  0  0  0  0  0  0  0999 V2000
   -1.5411    0.3821   -0.7703 C   0  0  0  0  0  0  0  0  0  0  0  0
   -0.4016    0.3975   -0.0290 C   0  0  0  0  0  0  0  0  0  0  0  0
   -0.2646    1.1749    1.1880 C   0  0  0  0  0  0  0  0  0  0  0  0
   -1.6912    2.0165    1.4972 C   0  0  0  0  0  0  0  0  0  0  0  0
   -2.8358    1.9226    0.6337 C   0  0  0  0  0  0  0  0  0  0  0  0
   -2.7478    1.1276   -0.4584 C   0  0  0  0  0  0  0  0  0  0  0  0
   -1.5520   -0.2365   -1.6692 H   0  0  0  0  0  0  0  0  0  0  0  0
    0.4837   -0.1768   -0.3060 H   0  0  0  0  0  0  0  0  0  0  0  0
    3.2983    0.1706   -1.8358 N   0  0  0  0  0  0  0  0  0  0  0  0
    4.2977    0.1135   -2.3015 N   0  0  0  0  0  0  0  0  0  0  0  0
   -3.6009    1.0378   -1.1292 H   0  0  0  0  0  0  0  0  0  0  0  0
   -3.7271    2.4928    0.8915 H   0  0  0  0  0  0  0  0  0  0  0  0
   -1.4410    2.6357    2.5547 N   0  0  0  0  0  0  0  0  0  0  0  0
    0.6326    1.3088    1.9582 O   0  0  0  0  0  0  0  0  0  0  0  0
   -0.6748    2.8773    3.3956 O   0  0  0  0  0  0  0  0  0  0  0  0
  1  6  1  0  0  0  0
  1  2  2  0  0  0  0
  2  3  1  0  0  0  0
  3  4  1  0  0  0  0
  3 14  2  0  0  0  0
  4 13  2  0  0  0  0
  5 12  1  0  0  0  0
  5  4  1  0  0  0  0
  6  5  2  0  0  0  0
  7  1  1  0  0  0  0
  8  2  1  0  0  0  0
 10  9  3  0  0  0  0
 11  6  1  0  0  0  0
 13 15  1  0  0  0  0
M  RAD  1  15   2
M  END
