Coordinates from ORCA-job o-NO2-Ph-N2+-B3LYPG-aug-cc-pVDZ-scan-d09-49-n400
 OpenBabel09291715233D

 15 14  0  0  0  0  0  0  0  0999 V2000
   -1.6432    0.2634   -0.7688 C   0  0  0  0  0  0  0  0  0  0  0  0
   -0.4821    0.2141   -0.0640 C   0  0  0  0  0  0  0  0  0  0  0  0
   -0.2340    1.0381    1.1041 C   0  0  0  0  0  0  0  0  0  0  0  0
   -1.5674    2.0211    1.4097 C   0  0  0  0  0  0  0  0  0  0  0  0
   -2.7452    1.9872    0.5867 C   0  0  0  0  0  0  0  0  0  0  0  0
   -2.7664    1.1316   -0.4619 C   0  0  0  0  0  0  0  0  0  0  0  0
   -1.7414   -0.3974   -1.6316 H   0  0  0  0  0  0  0  0  0  0  0  0
    0.3423   -0.4477   -0.3320 H   0  0  0  0  0  0  0  0  0  0  0  0
    3.1099    0.4685   -1.5197 N   0  0  0  0  0  0  0  0  0  0  0  0
    4.1309    0.5452   -1.9330 N   0  0  0  0  0  0  0  0  0  0  0  0
   -3.6470    1.0854   -1.1009 H   0  0  0  0  0  0  0  0  0  0  0  0
   -3.5724    2.6489    0.8391 H   0  0  0  0  0  0  0  0  0  0  0  0
   -1.2281    2.6695    2.4235 N   0  0  0  0  0  0  0  0  0  0  0  0
    0.6985    1.1276    1.8377 O   0  0  0  0  0  0  0  0  0  0  0  0
   -0.4202    2.8887    3.2306 O   0  0  0  0  0  0  0  0  0  0  0  0
  1  6  1  0  0  0  0
  1  2  2  0  0  0  0
  2  3  1  0  0  0  0
  3  4  1  0  0  0  0
  3 14  2  0  0  0  0
  4 13  2  0  0  0  0
  5 12  1  0  0  0  0
  5  4  1  0  0  0  0
  6  5  2  0  0  0  0
  7  1  1  0  0  0  0
  8  2  1  0  0  0  0
 10  9  3  0  0  0  0
 11  6  1  0  0  0  0
 13 15  1  0  0  0  0
M  RAD  1  15   2
M  END
