Coordinates from ORCA-job o-NO2-Ph-N2+-B3LYPG-aug-cc-pVDZ-scan-d09-49-n400
 OpenBabel09291715233D

 15 14  0  0  0  0  0  0  0  0999 V2000
   -1.6405    0.2660   -0.7688 C   0  0  0  0  0  0  0  0  0  0  0  0
   -0.4800    0.2180   -0.0630 C   0  0  0  0  0  0  0  0  0  0  0  0
   -0.2343    1.0411    1.1062 C   0  0  0  0  0  0  0  0  0  0  0  0
   -1.5704    2.0212    1.4117 C   0  0  0  0  0  0  0  0  0  0  0  0
   -2.7473    1.9860    0.5876 C   0  0  0  0  0  0  0  0  0  0  0  0
   -2.7658    1.1317   -0.4621 C   0  0  0  0  0  0  0  0  0  0  0  0
   -1.7365   -0.3941   -1.6323 H   0  0  0  0  0  0  0  0  0  0  0  0
    0.3456   -0.4423   -0.3311 H   0  0  0  0  0  0  0  0  0  0  0  0
    3.1135    0.4622   -1.5271 N   0  0  0  0  0  0  0  0  0  0  0  0
    4.1339    0.5356   -1.9422 N   0  0  0  0  0  0  0  0  0  0  0  0
   -3.6456    1.0844   -1.1020 H   0  0  0  0  0  0  0  0  0  0  0  0
   -3.5760    2.6458    0.8400 H   0  0  0  0  0  0  0  0  0  0  0  0
   -1.2331    2.6690    2.4267 N   0  0  0  0  0  0  0  0  0  0  0  0
    0.6967    1.1314    1.8414 O   0  0  0  0  0  0  0  0  0  0  0  0
   -0.4259    2.8884    3.2344 O   0  0  0  0  0  0  0  0  0  0  0  0
  1  6  1  0  0  0  0
  1  2  2  0  0  0  0
  2  3  1  0  0  0  0
  3  4  1  0  0  0  0
  3 14  2  0  0  0  0
  4 13  2  0  0  0  0
  5 12  1  0  0  0  0
  5  4  1  0  0  0  0
  6  5  2  0  0  0  0
  7  1  1  0  0  0  0
  8  2  1  0  0  0  0
 10  9  3  0  0  0  0
 11  6  1  0  0  0  0
 13 15  1  0  0  0  0
M  RAD  1  15   2
M  END
