Coordinates from ORCA-job o-NO2-Ph-N2+-B3LYPG-aug-cc-pVDZ-scan-d09-49-n400
 OpenBabel09291715233D

 15 14  0  0  0  0  0  0  0  0999 V2000
   -2.0918    0.1299   -1.0344 C   0  0  0  0  0  0  0  0  0  0  0  0
   -0.6477    0.1155   -0.9661 C   0  0  0  0  0  0  0  0  0  0  0  0
   -0.3623    0.9444    0.0250 C   0  0  0  0  0  0  0  0  0  0  0  0
   -0.8811    1.7599    0.9525 C   0  0  0  0  0  0  0  0  0  0  0  0
   -2.2877    1.7077    0.8082 C   0  0  0  0  0  0  0  0  0  0  0  0
   -2.8733    0.9021   -0.1730 C   0  0  0  0  0  0  0  0  0  0  0  0
   -2.5257   -0.5076   -1.8091 H   0  0  0  0  0  0  0  0  0  0  0  0
   -0.0089   -0.4739   -1.6209 H   0  0  0  0  0  0  0  0  0  0  0  0
    2.8104    0.5650   -0.2328 N   0  0  0  0  0  0  0  0  0  0  0  0
    3.9130    0.5459   -0.1894 N   0  0  0  0  0  0  0  0  0  0  0  0
   -3.9582    0.8745   -0.2695 H   0  0  0  0  0  0  0  0  0  0  0  0
   -2.8449    2.3363    1.5140 H   0  0  0  0  0  0  0  0  0  0  0  0
   -0.1736    2.5900    1.9698 N   0  0  0  0  0  0  0  0  0  0  0  0
    1.0416    2.5048    1.9411 O   0  0  0  0  0  0  0  0  0  0  0  0
   -0.8755    3.2497    2.7039 O   0  0  0  0  0  0  0  0  0  0  0  0
  1  2  2  0  0  0  0
  1  6  1  0  0  0  0
  2  3  1  0  0  0  0
  3  4  2  0  0  0  0
  4 13  1  0  0  0  0
  5  4  1  0  0  0  0
  5 12  1  0  0  0  0
  6  5  2  0  0  0  0
  7  1  1  0  0  0  0
  8  2  1  0  0  0  0
  9 10  3  0  0  0  0
 11  6  1  0  0  0  0
 13 15  2  0  0  0  0
 14 13  2  0  0  0  0
M  RAD  1   3   2
M  END
