Coordinates from ORCA-job o-NO2-Ph-N2+-B3LYPG-aug-cc-pVDZ-scan-d09-49-n400
 OpenBabel09291715223D

 15 15  0  0  0  0  0  0  0  0999 V2000
   -1.9009    0.0962   -1.0624 C   0  0  0  0  0  0  0  0  0  0  0  0
   -0.5146    0.0904   -0.9874 C   0  0  0  0  0  0  0  0  0  0  0  0
    0.1455    0.8908   -0.0083 C   0  0  0  0  0  0  0  0  0  0  0  0
   -0.6435    1.6865    0.8795 C   0  0  0  0  0  0  0  0  0  0  0  0
   -2.0191    1.6805    0.7914 C   0  0  0  0  0  0  0  0  0  0  0  0
   -2.6504    0.8843   -0.1811 C   0  0  0  0  0  0  0  0  0  0  0  0
   -2.3969   -0.5180   -1.8130 H   0  0  0  0  0  0  0  0  0  0  0  0
    0.0888   -0.5154   -1.6632 H   0  0  0  0  0  0  0  0  0  0  0  0
    1.3854    0.8485    0.0154 N   0  0  0  0  0  0  0  0  0  0  0  0
    2.4955    0.7270   -0.0605 N   0  0  0  0  0  0  0  0  0  0  0  0
   -3.7387    0.8852   -0.2442 H   0  0  0  0  0  0  0  0  0  0  0  0
   -2.5903    2.2979    1.4828 H   0  0  0  0  0  0  0  0  0  0  0  0
    0.0202    2.5284    1.9073 N   0  0  0  0  0  0  0  0  0  0  0  0
    1.2477    2.4790    1.9246 O   0  0  0  0  0  0  0  0  0  0  0  0
   -0.6944    3.1829    2.6385 O   0  0  0  0  0  0  0  0  0  0  0  0
  1  2  2  0  0  0  0
  1  6  1  0  0  0  0
  2  3  1  0  0  0  0
  3  9  1  0  0  0  0
  3  4  2  0  0  0  0
  4 13  1  0  0  0  0
  5  4  1  0  0  0  0
  5 12  1  0  0  0  0
  6  5  2  0  0  0  0
  7  1  1  0  0  0  0
  8  2  1  0  0  0  0
 10  9  1  0  0  0  0
 11  6  1  0  0  0  0
 13 14  2  0  0  0  0
 13 15  2  0  0  0  0
M  RAD  2   9   2  10   3
M  END
