Coordinates from ORCA-job o-NO2-Ph-N2+-B3LYPG-aug-cc-pVDZ-scan-d09-49-n400
 OpenBabel09291715223D

 15 14  0  0  0  0  0  0  0  0999 V2000
   -1.9835    0.0996   -1.0637 C   0  0  0  0  0  0  0  0  0  0  0  0
   -0.5682    0.0719   -1.0124 C   0  0  0  0  0  0  0  0  0  0  0  0
   -0.0917    0.8810   -0.0333 C   0  0  0  0  0  0  0  0  0  0  0  0
   -0.6902    1.6970    0.8904 C   0  0  0  0  0  0  0  0  0  0  0  0
   -2.0890    1.6805    0.7881 C   0  0  0  0  0  0  0  0  0  0  0  0
   -2.7208    0.8898   -0.1786 C   0  0  0  0  0  0  0  0  0  0  0  0
   -2.4768   -0.5160   -1.8165 H   0  0  0  0  0  0  0  0  0  0  0  0
    0.0378   -0.5307   -1.6847 H   0  0  0  0  0  0  0  0  0  0  0  0
    1.8387    0.8599    0.0564 N   0  0  0  0  0  0  0  0  0  0  0  0
    2.9274    0.7167   -0.0474 N   0  0  0  0  0  0  0  0  0  0  0  0
   -3.8083    0.8933   -0.2389 H   0  0  0  0  0  0  0  0  0  0  0  0
   -2.6428    2.3059    1.4903 H   0  0  0  0  0  0  0  0  0  0  0  0
   -0.0026    2.5298    1.9099 N   0  0  0  0  0  0  0  0  0  0  0  0
    1.2210    2.4795    1.9214 O   0  0  0  0  0  0  0  0  0  0  0  0
   -0.7167    3.1863    2.6384 O   0  0  0  0  0  0  0  0  0  0  0  0
  1  2  2  0  0  0  0
  1  6  1  0  0  0  0
  2  3  1  0  0  0  0
  3  4  2  0  0  0  0
  4 13  1  0  0  0  0
  5  4  1  0  0  0  0
  5 12  1  0  0  0  0
  6  5  2  0  0  0  0
  7  1  1  0  0  0  0
  8  2  1  0  0  0  0
 10  9  3  0  0  0  0
 11  6  1  0  0  0  0
 13 14  2  0  0  0  0
 13 15  2  0  0  0  0
M  RAD  1   3   2
M  END
