Coordinates from ORCA-job o-NO2-Ph-N2+-B3LYPG-aug-cc-pVDZ-scan-d09-49-n400
 OpenBabel09291715233D

 15 14  0  0  0  0  0  0  0  0999 V2000
   -1.6908    0.1685   -0.7645 C   0  0  0  0  0  0  0  0  0  0  0  0
   -0.5299    0.0544   -0.0684 C   0  0  0  0  0  0  0  0  0  0  0  0
   -0.1920    0.9033    1.0570 C   0  0  0  0  0  0  0  0  0  0  0  0
   -1.4422    2.0181    1.3318 C   0  0  0  0  0  0  0  0  0  0  0  0
   -2.6302    2.0385    0.5209 C   0  0  0  0  0  0  0  0  0  0  0  0
   -2.7347    1.1397   -0.4852 C   0  0  0  0  0  0  0  0  0  0  0  0
   -1.8539   -0.5179   -1.5968 H   0  0  0  0  0  0  0  0  0  0  0  0
    0.2381   -0.6798   -0.3124 H   0  0  0  0  0  0  0  0  0  0  0  0
    2.7912    0.7466   -1.2545 N   0  0  0  0  0  0  0  0  0  0  0  0
    3.8137    0.9216   -1.6322 N   0  0  0  0  0  0  0  0  0  0  0  0
   -3.6255    1.1367   -1.1117 H   0  0  0  0  0  0  0  0  0  0  0  0
   -3.3983    2.7759    0.7492 H   0  0  0  0  0  0  0  0  0  0  0  0
   -1.0383    2.6838    2.3059 N   0  0  0  0  0  0  0  0  0  0  0  0
    0.7558    0.9476    1.7714 O   0  0  0  0  0  0  0  0  0  0  0  0
   -0.2287    2.9075    3.1090 O   0  0  0  0  0  0  0  0  0  0  0  0
  1  6  1  0  0  0  0
  1  2  2  0  0  0  0
  2  3  1  0  0  0  0
  3  4  1  0  0  0  0
  3 14  2  0  0  0  0
  4 13  2  0  0  0  0
  5 12  1  0  0  0  0
  5  4  1  0  0  0  0
  6  5  2  0  0  0  0
  7  1  1  0  0  0  0
  8  2  1  0  0  0  0
 10  9  3  0  0  0  0
 11  6  1  0  0  0  0
 13 15  1  0  0  0  0
M  RAD  1  15   2
M  END
