Coordinates from ORCA-job o-NO2-Ph-N2+-B3LYPG-aug-cc-pVDZ-scan-d09-49-n400
 OpenBabel09291715233D

 15 14  0  0  0  0  0  0  0  0999 V2000
   -2.0890    0.1240   -1.0412 C   0  0  0  0  0  0  0  0  0  0  0  0
   -0.6465    0.1027   -0.9810 C   0  0  0  0  0  0  0  0  0  0  0  0
   -0.3426    0.9292    0.0083 C   0  0  0  0  0  0  0  0  0  0  0  0
   -0.8494    1.7475    0.9399 C   0  0  0  0  0  0  0  0  0  0  0  0
   -2.2580    1.7018    0.8030 C   0  0  0  0  0  0  0  0  0  0  0  0
   -2.8579    0.9014   -0.1730 C   0  0  0  0  0  0  0  0  0  0  0  0
   -2.5339   -0.5099   -1.8124 H   0  0  0  0  0  0  0  0  0  0  0  0
   -0.0151   -0.4898   -1.6399 H   0  0  0  0  0  0  0  0  0  0  0  0
    2.7003    0.6121   -0.1839 N   0  0  0  0  0  0  0  0  0  0  0  0
    3.8029    0.5903   -0.1438 N   0  0  0  0  0  0  0  0  0  0  0  0
   -3.9438    0.8824   -0.2595 H   0  0  0  0  0  0  0  0  0  0  0  0
   -2.8050    2.3340    1.5136 H   0  0  0  0  0  0  0  0  0  0  0  0
   -0.1445    2.5804    1.9603 N   0  0  0  0  0  0  0  0  0  0  0  0
    1.0702    2.5008    1.9381 O   0  0  0  0  0  0  0  0  0  0  0  0
   -0.8533    3.2374    2.6907 O   0  0  0  0  0  0  0  0  0  0  0  0
  1  2  2  0  0  0  0
  1  6  1  0  0  0  0
  2  3  1  0  0  0  0
  3  4  2  0  0  0  0
  4 13  1  0  0  0  0
  5  4  1  0  0  0  0
  5 12  1  0  0  0  0
  6  5  2  0  0  0  0
  7  1  1  0  0  0  0
  8  2  1  0  0  0  0
  9 10  3  0  0  0  0
 11  6  1  0  0  0  0
 13 15  2  0  0  0  0
 14 13  2  0  0  0  0
M  RAD  1   3   2
M  END
