Coordinates from ORCA-job o-NO2-Ph-N2+-B3LYPG-aug-cc-pVDZ-scan-d09-49-n400
 OpenBabel09291715233D

 15 14  0  0  0  0  0  0  0  0999 V2000
   -1.6208    0.2854   -0.7687 C   0  0  0  0  0  0  0  0  0  0  0  0
   -0.4645    0.2477   -0.0550 C   0  0  0  0  0  0  0  0  0  0  0  0
   -0.2389    1.0631    1.1231 C   0  0  0  0  0  0  0  0  0  0  0  0
   -1.5926    2.0215    1.4276 C   0  0  0  0  0  0  0  0  0  0  0  0
   -2.7626    1.9764    0.5944 C   0  0  0  0  0  0  0  0  0  0  0  0
   -2.7609    1.1315   -0.4631 C   0  0  0  0  0  0  0  0  0  0  0  0
   -1.7005   -0.3683   -1.6389 H   0  0  0  0  0  0  0  0  0  0  0  0
    0.3713   -0.3993   -0.3242 H   0  0  0  0  0  0  0  0  0  0  0  0
    3.1416    0.4133   -1.5830 N   0  0  0  0  0  0  0  0  0  0  0  0
    4.1579    0.4618   -2.0117 N   0  0  0  0  0  0  0  0  0  0  0  0
   -3.6351    1.0771   -1.1100 H   0  0  0  0  0  0  0  0  0  0  0  0
   -3.6028    2.6218    0.8466 H   0  0  0  0  0  0  0  0  0  0  0  0
   -1.2713    2.6643    2.4508 N   0  0  0  0  0  0  0  0  0  0  0  0
    0.6847    1.1618    1.8665 O   0  0  0  0  0  0  0  0  0  0  0  0
   -0.4712    2.8862    3.2650 O   0  0  0  0  0  0  0  0  0  0  0  0
  1  6  1  0  0  0  0
  1  2  2  0  0  0  0
  2  3  1  0  0  0  0
  3  4  1  0  0  0  0
  3 14  2  0  0  0  0
  4 13  2  0  0  0  0
  5 12  1  0  0  0  0
  5  4  1  0  0  0  0
  6  5  2  0  0  0  0
  7  1  1  0  0  0  0
  8  2  1  0  0  0  0
 10  9  3  0  0  0  0
 11  6  1  0  0  0  0
 13 15  1  0  0  0  0
M  RAD  1  15   2
M  END
