Coordinates from ORCA-job o-NO2-Ph-N2+-B3LYPG-aug-cc-pVDZ-scan-d09-49-n400
 OpenBabel09291715223D

 15 15  0  0  0  0  0  0  0  0999 V2000
   -1.9343    0.0995   -1.0609 C   0  0  0  0  0  0  0  0  0  0  0  0
   -0.5336    0.0882   -0.9912 C   0  0  0  0  0  0  0  0  0  0  0  0
    0.0256    0.8929   -0.0123 C   0  0  0  0  0  0  0  0  0  0  0  0
   -0.6789    1.6932    0.8866 C   0  0  0  0  0  0  0  0  0  0  0  0
   -2.0649    1.6831    0.7926 C   0  0  0  0  0  0  0  0  0  0  0  0
   -2.6853    0.8857   -0.1814 C   0  0  0  0  0  0  0  0  0  0  0  0
   -2.4285   -0.5151   -1.8125 H   0  0  0  0  0  0  0  0  0  0  0  0
    0.0740   -0.5144   -1.6634 H   0  0  0  0  0  0  0  0  0  0  0  0
    1.6055    0.8756    0.0610 N   0  0  0  0  0  0  0  0  0  0  0  0
    2.6919    0.7106   -0.0685 N   0  0  0  0  0  0  0  0  0  0  0  0
   -3.7727    0.8825   -0.2496 H   0  0  0  0  0  0  0  0  0  0  0  0
   -2.6380    2.2999    1.4836 H   0  0  0  0  0  0  0  0  0  0  0  0
    0.0106    2.5196    1.8989 N   0  0  0  0  0  0  0  0  0  0  0  0
    1.2406    2.4559    1.8953 O   0  0  0  0  0  0  0  0  0  0  0  0
   -0.6775    3.1870    2.6412 O   0  0  0  0  0  0  0  0  0  0  0  0
  1  2  2  0  0  0  0
  1  6  1  0  0  0  0
  2  3  1  0  0  0  0
  3  9  1  0  0  0  0
  3  4  2  0  0  0  0
  4 13  1  0  0  0  0
  5  4  1  0  0  0  0
  5 12  1  0  0  0  0
  6  5  2  0  0  0  0
  7  1  1  0  0  0  0
  8  2  1  0  0  0  0
 10  9  1  0  0  0  0
 11  6  1  0  0  0  0
 13 15  2  0  0  0  0
 14 13  2  0  0  0  0
M  RAD  2   9   2  10   3
M  END
