Coordinates from ORCA-job o-NO2-Ph-N2+-B3LYPG-aug-cc-pVDZ-scan-d09-49-n400
 OpenBabel09291715233D

 15 14  0  0  0  0  0  0  0  0999 V2000
   -2.0755    0.1488   -1.0112 C   0  0  0  0  0  0  0  0  0  0  0  0
   -0.6288    0.1624   -0.9097 C   0  0  0  0  0  0  0  0  0  0  0  0
   -0.4022    0.9989    0.0866 C   0  0  0  0  0  0  0  0  0  0  0  0
   -0.9744    1.8027    0.9973 C   0  0  0  0  0  0  0  0  0  0  0  0
   -2.3725    1.7245    0.8229 C   0  0  0  0  0  0  0  0  0  0  0  0
   -2.9036    0.9007   -0.1765 C   0  0  0  0  0  0  0  0  0  0  0  0
   -2.4695   -0.5007   -1.7976 H   0  0  0  0  0  0  0  0  0  0  0  0
    0.0364   -0.4150   -1.5490 H   0  0  0  0  0  0  0  0  0  0  0  0
    3.0720    0.4115   -0.3976 N   0  0  0  0  0  0  0  0  0  0  0  0
    4.1749    0.3817   -0.3668 N   0  0  0  0  0  0  0  0  0  0  0  0
   -3.9834    0.8418   -0.3096 H   0  0  0  0  0  0  0  0  0  0  0  0
   -2.9692    2.3381    1.5087 H   0  0  0  0  0  0  0  0  0  0  0  0
   -0.2678    2.6266    2.0072 N   0  0  0  0  0  0  0  0  0  0  0  0
    0.9502    2.5292    1.9645 O   0  0  0  0  0  0  0  0  0  0  0  0
   -0.9522    3.2932    2.7503 O   0  0  0  0  0  0  0  0  0  0  0  0
  1  2  2  0  0  0  0
  1  6  1  0  0  0  0
  2  3  1  0  0  0  0
  3  4  2  0  0  0  0
  4 13  1  0  0  0  0
  5  4  1  0  0  0  0
  5 12  1  0  0  0  0
  6  5  2  0  0  0  0
  7  1  1  0  0  0  0
  8  2  1  0  0  0  0
  9 10  3  0  0  0  0
 11  6  1  0  0  0  0
 13 15  2  0  0  0  0
 14 13  2  0  0  0  0
M  RAD  1   3   2
M  END
