Coordinates from ORCA-job o-NO2-Ph-N2+-B3LYPG-aug-cc-pVDZ-scan-d09-49-n400
 OpenBabel09291715223D

 15 14  0  0  0  0  0  0  0  0999 V2000
   -2.0456    0.1049   -1.0610 C   0  0  0  0  0  0  0  0  0  0  0  0
   -0.6140    0.0686   -1.0189 C   0  0  0  0  0  0  0  0  0  0  0  0
   -0.2262    0.8855   -0.0360 C   0  0  0  0  0  0  0  0  0  0  0  0
   -0.7324    1.7096    0.9024 C   0  0  0  0  0  0  0  0  0  0  0  0
   -2.1425    1.6823    0.7868 C   0  0  0  0  0  0  0  0  0  0  0  0
   -2.7796    0.8956   -0.1753 C   0  0  0  0  0  0  0  0  0  0  0  0
   -2.5249   -0.5168   -1.8199 H   0  0  0  0  0  0  0  0  0  0  0  0
   -0.0057   -0.5332   -1.6900 H   0  0  0  0  0  0  0  0  0  0  0  0
    2.2049    0.7711   -0.0264 N   0  0  0  0  0  0  0  0  0  0  0  0
    3.3057    0.7027   -0.0417 N   0  0  0  0  0  0  0  0  0  0  0  0
   -3.8674    0.9002   -0.2343 H   0  0  0  0  0  0  0  0  0  0  0  0
   -2.6722    2.3190    1.5037 H   0  0  0  0  0  0  0  0  0  0  0  0
   -0.0486    2.5532    1.9341 N   0  0  0  0  0  0  0  0  0  0  0  0
    1.1665    2.5024    1.9456 O   0  0  0  0  0  0  0  0  0  0  0  0
   -0.7837    3.1992    2.6503 O   0  0  0  0  0  0  0  0  0  0  0  0
  1  2  2  0  0  0  0
  1  6  1  0  0  0  0
  2  3  1  0  0  0  0
  3  4  2  0  0  0  0
  4 13  1  0  0  0  0
  5  4  1  0  0  0  0
  5 12  1  0  0  0  0
  6  5  2  0  0  0  0
  7  1  1  0  0  0  0
  8  2  1  0  0  0  0
 10  9  3  0  0  0  0
 11  6  1  0  0  0  0
 13 14  2  0  0  0  0
 13 15  2  0  0  0  0
M  RAD  1   3   2
M  END
