Coordinates from ORCA-job o-NO2-Ph-N2+-B3LYPG-aug-cc-pVDZ-scan-d09-49-n400
 OpenBabel09291715233D

 15 14  0  0  0  0  0  0  0  0999 V2000
   -1.6909    0.1696   -0.7646 C   0  0  0  0  0  0  0  0  0  0  0  0
   -0.5299    0.0564   -0.0687 C   0  0  0  0  0  0  0  0  0  0  0  0
   -0.1935    0.9053    1.0575 C   0  0  0  0  0  0  0  0  0  0  0  0
   -1.4441    2.0182    1.3329 C   0  0  0  0  0  0  0  0  0  0  0  0
   -2.6323    2.0378    0.5222 C   0  0  0  0  0  0  0  0  0  0  0  0
   -2.7358    1.1395   -0.4845 C   0  0  0  0  0  0  0  0  0  0  0  0
   -1.8534   -0.5164   -1.5974 H   0  0  0  0  0  0  0  0  0  0  0  0
    0.2393   -0.6765   -0.3129 H   0  0  0  0  0  0  0  0  0  0  0  0
    2.7986    0.7425   -1.2585 N   0  0  0  0  0  0  0  0  0  0  0  0
    3.8213    0.9168   -1.6361 N   0  0  0  0  0  0  0  0  0  0  0  0
   -3.6267    1.1359   -1.1108 H   0  0  0  0  0  0  0  0  0  0  0  0
   -3.4012    2.7742    0.7510 H   0  0  0  0  0  0  0  0  0  0  0  0
   -1.0407    2.6838    2.3074 N   0  0  0  0  0  0  0  0  0  0  0  0
    0.7547    0.9497    1.7714 O   0  0  0  0  0  0  0  0  0  0  0  0
   -0.2310    2.9075    3.1104 O   0  0  0  0  0  0  0  0  0  0  0  0
  1  6  1  0  0  0  0
  1  2  2  0  0  0  0
  2  3  1  0  0  0  0
  3  4  1  0  0  0  0
  3 14  2  0  0  0  0
  4 13  2  0  0  0  0
  5 12  1  0  0  0  0
  5  4  1  0  0  0  0
  6  5  2  0  0  0  0
  7  1  1  0  0  0  0
  8  2  1  0  0  0  0
 10  9  3  0  0  0  0
 11  6  1  0  0  0  0
 13 15  1  0  0  0  0
M  RAD  1  15   2
M  END
