Coordinates from ORCA-job o-NO2-Ph-N2+-B3LYPG-aug-cc-pVDZ-scan-d09-49-n400
 OpenBabel09291715233D

 15 14  0  0  0  0  0  0  0  0999 V2000
   -2.0824    0.1177   -1.0481 C   0  0  0  0  0  0  0  0  0  0  0  0
   -0.6424    0.0896   -0.9961 C   0  0  0  0  0  0  0  0  0  0  0  0
   -0.3133    0.9133   -0.0087 C   0  0  0  0  0  0  0  0  0  0  0  0
   -0.8130    1.7345    0.9268 C   0  0  0  0  0  0  0  0  0  0  0  0
   -2.2231    1.6950    0.7971 C   0  0  0  0  0  0  0  0  0  0  0  0
   -2.8378    0.9003   -0.1731 C   0  0  0  0  0  0  0  0  0  0  0  0
   -2.5390   -0.5122   -1.8154 H   0  0  0  0  0  0  0  0  0  0  0  0
   -0.0197   -0.5066   -1.6598 H   0  0  0  0  0  0  0  0  0  0  0  0
    2.5680    0.6613   -0.1339 N   0  0  0  0  0  0  0  0  0  0  0  0
    3.6706    0.6338   -0.1006 N   0  0  0  0  0  0  0  0  0  0  0  0
   -3.9247    0.8903   -0.2491 H   0  0  0  0  0  0  0  0  0  0  0  0
   -2.7603    2.3305    1.5121 H   0  0  0  0  0  0  0  0  0  0  0  0
   -0.1147    2.5718    1.9519 N   0  0  0  0  0  0  0  0  0  0  0  0
    1.0994    2.5003    1.9393 O   0  0  0  0  0  0  0  0  0  0  0  0
   -0.8332    3.2247    2.6771 O   0  0  0  0  0  0  0  0  0  0  0  0
  1  2  2  0  0  0  0
  1  6  1  0  0  0  0
  2  3  1  0  0  0  0
  3  4  2  0  0  0  0
  4 13  1  0  0  0  0
  5  4  1  0  0  0  0
  5 12  1  0  0  0  0
  6  5  2  0  0  0  0
  7  1  1  0  0  0  0
  8  2  1  0  0  0  0
  9 10  3  0  0  0  0
 11  6  1  0  0  0  0
 13 15  2  0  0  0  0
 14 13  2  0  0  0  0
M  RAD  1   3   2
M  END
