Coordinates from ORCA-job o-NO2-Ph-N2+-B3LYPG-aug-cc-pVDZ-scan-d09-49-n400
 OpenBabel09291715223D

 15 15  0  0  0  0  0  0  0  0999 V2000
   -1.9192    0.0989   -1.0606 C   0  0  0  0  0  0  0  0  0  0  0  0
   -0.5239    0.0918   -0.9863 C   0  0  0  0  0  0  0  0  0  0  0  0
    0.0709    0.8949   -0.0075 C   0  0  0  0  0  0  0  0  0  0  0  0
   -0.6685    1.6912    0.8845 C   0  0  0  0  0  0  0  0  0  0  0  0
   -2.0501    1.6828    0.7929 C   0  0  0  0  0  0  0  0  0  0  0  0
   -2.6719    0.8847   -0.1817 C   0  0  0  0  0  0  0  0  0  0  0  0
   -2.4132   -0.5158   -1.8121 H   0  0  0  0  0  0  0  0  0  0  0  0
    0.0825   -0.5117   -1.6597 H   0  0  0  0  0  0  0  0  0  0  0  0
    1.5211    0.8667    0.0453 N   0  0  0  0  0  0  0  0  0  0  0  0
    2.6136    0.7116   -0.0719 N   0  0  0  0  0  0  0  0  0  0  0  0
   -3.7595    0.8817   -0.2497 H   0  0  0  0  0  0  0  0  0  0  0  0
   -2.6248    2.2989    1.4828 H   0  0  0  0  0  0  0  0  0  0  0  0
    0.0133    2.5218    1.9008 N   0  0  0  0  0  0  0  0  0  0  0  0
    1.2432    2.4599    1.9009 O   0  0  0  0  0  0  0  0  0  0  0  0
   -0.6792    3.1868    2.6416 O   0  0  0  0  0  0  0  0  0  0  0  0
  1  2  2  0  0  0  0
  1  6  1  0  0  0  0
  2  3  1  0  0  0  0
  3  9  1  0  0  0  0
  3  4  2  0  0  0  0
  4 13  1  0  0  0  0
  5  4  1  0  0  0  0
  5 12  1  0  0  0  0
  6  5  2  0  0  0  0
  7  1  1  0  0  0  0
  8  2  1  0  0  0  0
 10  9  1  0  0  0  0
 11  6  1  0  0  0  0
 13 14  2  0  0  0  0
 13 15  2  0  0  0  0
M  RAD  2   9   2  10   3
M  END
