Coordinates from ORCA-job o-NO2-Ph-N2+-B3LYPG-aug-cc-pVDZ-scan-d09-49-n400
 OpenBabel09291715233D

 15 14  0  0  0  0  0  0  0  0999 V2000
   -1.6834    0.2122   -0.7671 C   0  0  0  0  0  0  0  0  0  0  0  0
   -0.5197    0.1303   -0.0712 C   0  0  0  0  0  0  0  0  0  0  0  0
   -0.2247    0.9713    1.0741 C   0  0  0  0  0  0  0  0  0  0  0  0
   -1.5075    2.0205    1.3701 C   0  0  0  0  0  0  0  0  0  0  0  0
   -2.6960    2.0136    0.5604 C   0  0  0  0  0  0  0  0  0  0  0  0
   -2.7654    1.1343   -0.4661 C   0  0  0  0  0  0  0  0  0  0  0  0
   -1.8188   -0.4609   -1.6151 H   0  0  0  0  0  0  0  0  0  0  0  0
    0.2806   -0.5642   -0.3280 H   0  0  0  0  0  0  0  0  0  0  0  0
    3.0052    0.5984   -1.3871 N   0  0  0  0  0  0  0  0  0  0  0  0
    4.0292    0.7489   -1.7715 N   0  0  0  0  0  0  0  0  0  0  0  0
   -3.6557    1.1101   -1.0928 H   0  0  0  0  0  0  0  0  0  0  0  0
   -3.4926    2.7143    0.8055 H   0  0  0  0  0  0  0  0  0  0  0  0
   -1.1284    2.6807    2.3608 N   0  0  0  0  0  0  0  0  0  0  0  0
    0.7247    1.0345    1.7880 O   0  0  0  0  0  0  0  0  0  0  0  0
   -0.3131    2.9003    3.1595 O   0  0  0  0  0  0  0  0  0  0  0  0
  1  6  1  0  0  0  0
  1  2  2  0  0  0  0
  2  3  1  0  0  0  0
  3  4  1  0  0  0  0
  3 14  2  0  0  0  0
  4 13  2  0  0  0  0
  5 12  1  0  0  0  0
  5  4  1  0  0  0  0
  6  5  2  0  0  0  0
  7  1  1  0  0  0  0
  8  2  1  0  0  0  0
 10  9  3  0  0  0  0
 11  6  1  0  0  0  0
 13 15  1  0  0  0  0
M  RAD  1  15   2
M  END
