Coordinates from ORCA-job o-NO2-Ph-N2+-B3LYPG-aug-cc-pVDZ-scan-d09-49-n400
 OpenBabel09291715233D

 15 14  0  0  0  0  0  0  0  0999 V2000
   -1.6609    0.2471   -0.7706 C   0  0  0  0  0  0  0  0  0  0  0  0
   -0.4972    0.1896   -0.0716 C   0  0  0  0  0  0  0  0  0  0  0  0
   -0.2356    1.0213    1.0893 C   0  0  0  0  0  0  0  0  0  0  0  0
   -1.5487    2.0209    1.3969 C   0  0  0  0  0  0  0  0  0  0  0  0
   -2.7330    1.9935    0.5823 C   0  0  0  0  0  0  0  0  0  0  0  0
   -2.7716    1.1308   -0.4598 C   0  0  0  0  0  0  0  0  0  0  0  0
   -1.7725   -0.4166   -1.6295 H   0  0  0  0  0  0  0  0  0  0  0  0
    0.3222   -0.4793   -0.3363 H   0  0  0  0  0  0  0  0  0  0  0  0
    3.0900    0.5081   -1.4711 N   0  0  0  0  0  0  0  0  0  0  0  0
    4.1145    0.6058   -1.8709 N   0  0  0  0  0  0  0  0  0  0  0  0
   -3.6579    1.0907   -1.0913 H   0  0  0  0  0  0  0  0  0  0  0  0
   -3.5511    2.6660    0.8359 H   0  0  0  0  0  0  0  0  0  0  0  0
   -1.1928    2.6734    2.4025 N   0  0  0  0  0  0  0  0  0  0  0  0
    0.7084    1.0996    1.8100 O   0  0  0  0  0  0  0  0  0  0  0  0
   -0.3795    2.8934    3.2036 O   0  0  0  0  0  0  0  0  0  0  0  0
  1  6  1  0  0  0  0
  1  2  2  0  0  0  0
  2  3  1  0  0  0  0
  3  4  1  0  0  0  0
  3 14  2  0  0  0  0
  4 13  2  0  0  0  0
  5 12  1  0  0  0  0
  5  4  1  0  0  0  0
  6  5  2  0  0  0  0
  7  1  1  0  0  0  0
  8  2  1  0  0  0  0
 10  9  3  0  0  0  0
 11  6  1  0  0  0  0
 13 15  1  0  0  0  0
M  RAD  1  15   2
M  END
