Coordinates from ORCA-job o-NO2-Ph-N2+-B3LYPG-aug-cc-pVDZ-scan-d09-49-n400
 OpenBabel09291715233D

 15 14  0  0  0  0  0  0  0  0999 V2000
   -2.0920    0.1325   -1.0314 C   0  0  0  0  0  0  0  0  0  0  0  0
   -0.6475    0.1207   -0.9599 C   0  0  0  0  0  0  0  0  0  0  0  0
   -0.3661    0.9505    0.0319 C   0  0  0  0  0  0  0  0  0  0  0  0
   -0.8935    1.7651    0.9580 C   0  0  0  0  0  0  0  0  0  0  0  0
   -2.2989    1.7099    0.8101 C   0  0  0  0  0  0  0  0  0  0  0  0
   -2.8785    0.9024   -0.1731 C   0  0  0  0  0  0  0  0  0  0  0  0
   -2.5216   -0.5063   -1.8074 H   0  0  0  0  0  0  0  0  0  0  0  0
   -0.0067   -0.4679   -1.6137 H   0  0  0  0  0  0  0  0  0  0  0  0
    2.8518    0.5454   -0.2533 N   0  0  0  0  0  0  0  0  0  0  0  0
    3.9544    0.5268   -0.2094 N   0  0  0  0  0  0  0  0  0  0  0  0
   -3.9630    0.8713   -0.2736 H   0  0  0  0  0  0  0  0  0  0  0  0
   -2.8605    2.3370    1.5138 H   0  0  0  0  0  0  0  0  0  0  0  0
   -0.1863    2.5945    1.9744 N   0  0  0  0  0  0  0  0  0  0  0  0
    1.0290    2.5075    1.9435 O   0  0  0  0  0  0  0  0  0  0  0  0
   -0.8862    3.2551    2.7096 O   0  0  0  0  0  0  0  0  0  0  0  0
  1  2  2  0  0  0  0
  1  6  1  0  0  0  0
  2  3  1  0  0  0  0
  3  4  2  0  0  0  0
  4 13  1  0  0  0  0
  5  4  1  0  0  0  0
  5 12  1  0  0  0  0
  6  5  2  0  0  0  0
  7  1  1  0  0  0  0
  8  2  1  0  0  0  0
  9 10  3  0  0  0  0
 11  6  1  0  0  0  0
 13 15  2  0  0  0  0
 14 13  2  0  0  0  0
M  RAD  1   3   2
M  END
