Coordinates from ORCA-job o-NO2-Ph-N2+-B3LYPG-aug-cc-pVDZ-scan-d09-49-n400
 OpenBabel09291715223D

 15 15  0  0  0  0  0  0  0  0999 V2000
   -1.8842    0.0983   -1.0722 C   0  0  0  0  0  0  0  0  0  0  0  0
   -0.5099    0.0659   -0.9900 C   0  0  0  0  0  0  0  0  0  0  0  0
    0.2319    0.8667   -0.0048 C   0  0  0  0  0  0  0  0  0  0  0  0
   -0.6156    1.6800    0.8800 C   0  0  0  0  0  0  0  0  0  0  0  0
   -1.9845    1.6859    0.7816 C   0  0  0  0  0  0  0  0  0  0  0  0
   -2.6270    0.9034   -0.1961 C   0  0  0  0  0  0  0  0  0  0  0  0
   -2.3860   -0.5108   -1.8240 H   0  0  0  0  0  0  0  0  0  0  0  0
    0.0984   -0.5550   -1.6494 H   0  0  0  0  0  0  0  0  0  0  0  0
    1.2205    0.8159    0.0216 N   0  0  0  0  0  0  0  0  0  0  0  0
    2.3589    0.7228    0.0139 N   0  0  0  0  0  0  0  0  0  0  0  0
   -3.7149    0.9248   -0.2660 H   0  0  0  0  0  0  0  0  0  0  0  0
   -2.5517    2.3060    1.4744 H   0  0  0  0  0  0  0  0  0  0  0  0
    0.0376    2.5321    1.9093 N   0  0  0  0  0  0  0  0  0  0  0  0
    1.2417    2.7145    1.7670 O   0  0  0  0  0  0  0  0  0  0  0  0
   -0.6809    2.9938    2.7741 O   0  0  0  0  0  0  0  0  0  0  0  0
  1  2  2  0  0  0  0
  1  6  1  0  0  0  0
  2  3  1  0  0  0  0
  3  9  1  0  0  0  0
  3  4  2  0  0  0  0
  4 13  1  0  0  0  0
  5  4  1  0  0  0  0
  5 12  1  0  0  0  0
  6  5  2  0  0  0  0
  7  1  1  0  0  0  0
  8  2  1  0  0  0  0
 10  9  1  0  0  0  0
 11  6  1  0  0  0  0
 13 15  2  0  0  0  0
 14 13  2  0  0  0  0
M  RAD  2   9   2  10   3
M  END
