Coordinates from ORCA-job o-NO2-Ph-N2+-B3LYPG-aug-cc-pVDZ-scan-d09-49-n400
 OpenBabel09291715223D

 15 14  0  0  0  0  0  0  0  0999 V2000
   -2.0214    0.1008   -1.0644 C   0  0  0  0  0  0  0  0  0  0  0  0
   -0.5971    0.0654   -1.0217 C   0  0  0  0  0  0  0  0  0  0  0  0
   -0.1685    0.8778   -0.0417 C   0  0  0  0  0  0  0  0  0  0  0  0
   -0.7053    1.7004    0.8931 C   0  0  0  0  0  0  0  0  0  0  0  0
   -2.1117    1.6794    0.7852 C   0  0  0  0  0  0  0  0  0  0  0  0
   -2.7518    0.8932   -0.1764 C   0  0  0  0  0  0  0  0  0  0  0  0
   -2.5100   -0.5172   -1.8195 H   0  0  0  0  0  0  0  0  0  0  0  0
    0.0085   -0.5376   -1.6943 H   0  0  0  0  0  0  0  0  0  0  0  0
    2.0331    0.8238    0.0253 N   0  0  0  0  0  0  0  0  0  0  0  0
    3.1291    0.7171   -0.0352 N   0  0  0  0  0  0  0  0  0  0  0  0
   -3.8396    0.9007   -0.2321 H   0  0  0  0  0  0  0  0  0  0  0  0
   -2.6482    2.3125    1.4975 H   0  0  0  0  0  0  0  0  0  0  0  0
   -0.0228    2.5417    1.9222 N   0  0  0  0  0  0  0  0  0  0  0  0
    1.1954    2.4970    1.9411 O   0  0  0  0  0  0  0  0  0  0  0  0
   -0.7555    3.1893    2.6403 O   0  0  0  0  0  0  0  0  0  0  0  0
  1  2  2  0  0  0  0
  1  6  1  0  0  0  0
  2  3  1  0  0  0  0
  3  4  2  0  0  0  0
  4 13  1  0  0  0  0
  5  4  1  0  0  0  0
  5 12  1  0  0  0  0
  6  5  2  0  0  0  0
  7  1  1  0  0  0  0
  8  2  1  0  0  0  0
 10  9  3  0  0  0  0
 11  6  1  0  0  0  0
 13 14  2  0  0  0  0
 13 15  2  0  0  0  0
M  RAD  1   3   2
M  END
