Coordinates from ORCA-job o-NO2-Ph-N2+-B3LYPG-aug-cc-pVDZ-scan-d09-49-n400
 OpenBabel09291715223D

 15 14  0  0  0  0  0  0  0  0999 V2000
   -2.0201    0.1007   -1.0644 C   0  0  0  0  0  0  0  0  0  0  0  0
   -0.5961    0.0655   -1.0215 C   0  0  0  0  0  0  0  0  0  0  0  0
   -0.1658    0.8777   -0.0416 C   0  0  0  0  0  0  0  0  0  0  0  0
   -0.7045    1.7002    0.8930 C   0  0  0  0  0  0  0  0  0  0  0  0
   -2.1107    1.6794    0.7853 C   0  0  0  0  0  0  0  0  0  0  0  0
   -2.7506    0.8931   -0.1765 C   0  0  0  0  0  0  0  0  0  0  0  0
   -2.5089   -0.5172   -1.8194 H   0  0  0  0  0  0  0  0  0  0  0  0
    0.0095   -0.5375   -1.6941 H   0  0  0  0  0  0  0  0  0  0  0  0
    2.0257    0.8255    0.0268 N   0  0  0  0  0  0  0  0  0  0  0  0
    3.1215    0.7172   -0.0355 N   0  0  0  0  0  0  0  0  0  0  0  0
   -3.8384    0.9005   -0.2323 H   0  0  0  0  0  0  0  0  0  0  0  0
   -2.6477    2.3123    1.4972 H   0  0  0  0  0  0  0  0  0  0  0  0
   -0.0219    2.5413    1.9217 N   0  0  0  0  0  0  0  0  0  0  0  0
    1.1965    2.4966    1.9406 O   0  0  0  0  0  0  0  0  0  0  0  0
   -0.7542    3.1890    2.6401 O   0  0  0  0  0  0  0  0  0  0  0  0
  1  2  2  0  0  0  0
  1  6  1  0  0  0  0
  2  3  1  0  0  0  0
  3  4  2  0  0  0  0
  4 13  1  0  0  0  0
  5  4  1  0  0  0  0
  5 12  1  0  0  0  0
  6  5  2  0  0  0  0
  7  1  1  0  0  0  0
  8  2  1  0  0  0  0
 10  9  3  0  0  0  0
 11  6  1  0  0  0  0
 13 14  2  0  0  0  0
 13 15  2  0  0  0  0
M  RAD  1   3   2
M  END
