Coordinates from ORCA-job o-NO2-Ph-N2+-B3LYPG-aug-cc-pVDZ-scan-d09-49-n400
 OpenBabel09291715223D

 15 15  0  0  0  0  0  0  0  0999 V2000
   -1.9108    0.0980   -1.0612 C   0  0  0  0  0  0  0  0  0  0  0  0
   -0.5196    0.0924   -0.9855 C   0  0  0  0  0  0  0  0  0  0  0  0
    0.1034    0.8940   -0.0066 C   0  0  0  0  0  0  0  0  0  0  0  0
   -0.6588    1.6889    0.8825 C   0  0  0  0  0  0  0  0  0  0  0  0
   -2.0374    1.6819    0.7927 C   0  0  0  0  0  0  0  0  0  0  0  0
   -2.6628    0.8844   -0.1815 C   0  0  0  0  0  0  0  0  0  0  0  0
   -2.4053   -0.5163   -1.8125 H   0  0  0  0  0  0  0  0  0  0  0  0
    0.0854   -0.5121   -1.6601 H   0  0  0  0  0  0  0  0  0  0  0  0
    1.4636    0.8580    0.0317 N   0  0  0  0  0  0  0  0  0  0  0  0
    2.5631    0.7169   -0.0680 N   0  0  0  0  0  0  0  0  0  0  0  0
   -3.7506    0.8827   -0.2478 H   0  0  0  0  0  0  0  0  0  0  0  0
   -2.6112    2.2981    1.4830 H   0  0  0  0  0  0  0  0  0  0  0  0
    0.0157    2.5239    1.9037 N   0  0  0  0  0  0  0  0  0  0  0  0
    1.2447    2.4674    1.9089 O   0  0  0  0  0  0  0  0  0  0  0  0
   -0.6850    3.1861    2.6402 O   0  0  0  0  0  0  0  0  0  0  0  0
  1  2  2  0  0  0  0
  1  6  1  0  0  0  0
  2  3  1  0  0  0  0
  3  9  1  0  0  0  0
  3  4  2  0  0  0  0
  4 13  1  0  0  0  0
  5  4  1  0  0  0  0
  5 12  1  0  0  0  0
  6  5  2  0  0  0  0
  7  1  1  0  0  0  0
  8  2  1  0  0  0  0
 10  9  1  0  0  0  0
 11  6  1  0  0  0  0
 13 14  2  0  0  0  0
 13 15  2  0  0  0  0
M  RAD  2   9   2  10   3
M  END
