Coordinates from ORCA-job o-NO2-Ph-N2+-B3LYPG-aug-cc-pVDZ-scan-d09-49-n400
 OpenBabel09291715233D

 15 14  0  0  0  0  0  0  0  0999 V2000
   -2.0731    0.1499   -1.0098 C   0  0  0  0  0  0  0  0  0  0  0  0
   -0.6264    0.1651   -0.9065 C   0  0  0  0  0  0  0  0  0  0  0  0
   -0.4010    1.0019    0.0902 C   0  0  0  0  0  0  0  0  0  0  0  0
   -0.9779    1.8050    0.9999 C   0  0  0  0  0  0  0  0  0  0  0  0
   -2.3755    1.7251    0.8234 C   0  0  0  0  0  0  0  0  0  0  0  0
   -2.9036    0.9004   -0.1769 C   0  0  0  0  0  0  0  0  0  0  0  0
   -2.4649   -0.5003   -1.7969 H   0  0  0  0  0  0  0  0  0  0  0  0
    0.0397   -0.4119   -1.5450 H   0  0  0  0  0  0  0  0  0  0  0  0
    3.0796    0.4029   -0.4073 N   0  0  0  0  0  0  0  0  0  0  0  0
    4.1825    0.3715   -0.3784 N   0  0  0  0  0  0  0  0  0  0  0  0
   -3.9831    0.8397   -0.3119 H   0  0  0  0  0  0  0  0  0  0  0  0
   -2.9746    2.3377    1.5078 H   0  0  0  0  0  0  0  0  0  0  0  0
   -0.2735    2.6293    2.0101 N   0  0  0  0  0  0  0  0  0  0  0  0
    0.9443    2.5322    1.9676 O   0  0  0  0  0  0  0  0  0  0  0  0
   -0.9581    3.2958    2.7531 O   0  0  0  0  0  0  0  0  0  0  0  0
  1  2  2  0  0  0  0
  1  6  1  0  0  0  0
  2  3  1  0  0  0  0
  3  4  2  0  0  0  0
  4 13  1  0  0  0  0
  5  4  1  0  0  0  0
  5 12  1  0  0  0  0
  6  5  2  0  0  0  0
  7  1  1  0  0  0  0
  8  2  1  0  0  0  0
  9 10  3  0  0  0  0
 11  6  1  0  0  0  0
 13 15  2  0  0  0  0
 14 13  2  0  0  0  0
M  RAD  1   3   2
M  END
