Coordinates from ORCA-job o-NO2-Ph-N2+-B3LYPG-aug-cc-pVDZ-scan-d09-49-n400
 OpenBabel09291715233D

 15 14  0  0  0  0  0  0  0  0999 V2000
   -1.6355    0.2709   -0.7687 C   0  0  0  0  0  0  0  0  0  0  0  0
   -0.4760    0.2255   -0.0608 C   0  0  0  0  0  0  0  0  0  0  0  0
   -0.2353    1.0465    1.1106 C   0  0  0  0  0  0  0  0  0  0  0  0
   -1.5761    2.0214    1.4158 C   0  0  0  0  0  0  0  0  0  0  0  0
   -2.7512    1.9837    0.5892 C   0  0  0  0  0  0  0  0  0  0  0  0
   -2.7645    1.1317   -0.4624 C   0  0  0  0  0  0  0  0  0  0  0  0
   -1.7272   -0.3876   -1.6339 H   0  0  0  0  0  0  0  0  0  0  0  0
    0.3520   -0.4317   -0.3293 H   0  0  0  0  0  0  0  0  0  0  0  0
    3.1204    0.4499   -1.5413 N   0  0  0  0  0  0  0  0  0  0  0  0
    4.1398    0.5170   -1.9600 N   0  0  0  0  0  0  0  0  0  0  0  0
   -3.6429    1.0826   -1.1043 H   0  0  0  0  0  0  0  0  0  0  0  0
   -3.5828    2.6399    0.8415 H   0  0  0  0  0  0  0  0  0  0  0  0
   -1.2428    2.6678    2.4328 N   0  0  0  0  0  0  0  0  0  0  0  0
    0.6937    1.1391    1.8481 O   0  0  0  0  0  0  0  0  0  0  0  0
   -0.4373    2.8876    3.2422 O   0  0  0  0  0  0  0  0  0  0  0  0
  1  6  1  0  0  0  0
  1  2  2  0  0  0  0
  2  3  1  0  0  0  0
  3  4  1  0  0  0  0
  3 14  2  0  0  0  0
  4 13  2  0  0  0  0
  5 12  1  0  0  0  0
  5  4  1  0  0  0  0
  6  5  2  0  0  0  0
  7  1  1  0  0  0  0
  8  2  1  0  0  0  0
 10  9  3  0  0  0  0
 11  6  1  0  0  0  0
 13 15  1  0  0  0  0
M  RAD  1  15   2
M  END
