Coordinates from ORCA-job o-NO2-Ph-N2+-B3LYPG-aug-cc-pVDZ-scan-d09-49-n400
 OpenBabel09291715233D

 15 14  0  0  0  0  0  0  0  0999 V2000
   -2.0835    0.1182   -1.0476 C   0  0  0  0  0  0  0  0  0  0  0  0
   -0.6430    0.0906   -0.9950 C   0  0  0  0  0  0  0  0  0  0  0  0
   -0.3177    0.9148   -0.0072 C   0  0  0  0  0  0  0  0  0  0  0  0
   -0.8166    1.7359    0.9282 C   0  0  0  0  0  0  0  0  0  0  0  0
   -2.2269    1.6958    0.7977 C   0  0  0  0  0  0  0  0  0  0  0  0
   -2.8401    0.9005   -0.1731 C   0  0  0  0  0  0  0  0  0  0  0  0
   -2.5392   -0.5120   -1.8151 H   0  0  0  0  0  0  0  0  0  0  0  0
   -0.0191   -0.5051   -1.6580 H   0  0  0  0  0  0  0  0  0  0  0  0
    2.5829    0.6565   -0.1387 N   0  0  0  0  0  0  0  0  0  0  0  0
    3.6855    0.6294   -0.1049 N   0  0  0  0  0  0  0  0  0  0  0  0
   -3.9268    0.8896   -0.2500 H   0  0  0  0  0  0  0  0  0  0  0  0
   -2.7651    2.3309    1.5123 H   0  0  0  0  0  0  0  0  0  0  0  0
   -0.1175    2.5728    1.9529 N   0  0  0  0  0  0  0  0  0  0  0  0
    1.0966    2.5006    1.9394 O   0  0  0  0  0  0  0  0  0  0  0  0
   -0.8352    3.2260    2.6785 O   0  0  0  0  0  0  0  0  0  0  0  0
  1  2  2  0  0  0  0
  1  6  1  0  0  0  0
  2  3  1  0  0  0  0
  3  4  2  0  0  0  0
  4 13  1  0  0  0  0
  5  4  1  0  0  0  0
  5 12  1  0  0  0  0
  6  5  2  0  0  0  0
  7  1  1  0  0  0  0
  8  2  1  0  0  0  0
  9 10  3  0  0  0  0
 11  6  1  0  0  0  0
 13 15  2  0  0  0  0
 14 13  2  0  0  0  0
M  RAD  1   3   2
M  END
