Coordinates from ORCA-job o-NO2-Ph-N2+-B3LYPG-aug-cc-pVDZ-scan-d09-49-n400
 OpenBabel09291715233D

 15 14  0  0  0  0  0  0  0  0999 V2000
   -1.5982    0.3094   -0.7692 C   0  0  0  0  0  0  0  0  0  0  0  0
   -0.4468    0.2849   -0.0469 C   0  0  0  0  0  0  0  0  0  0  0  0
   -0.2452    1.0910    1.1418 C   0  0  0  0  0  0  0  0  0  0  0  0
   -1.6186    2.0209    1.4463 C   0  0  0  0  0  0  0  0  0  0  0  0
   -2.7813    1.9637    0.6037 C   0  0  0  0  0  0  0  0  0  0  0  0
   -2.7560    1.1309   -0.4630 C   0  0  0  0  0  0  0  0  0  0  0  0
   -1.6591   -0.3357   -1.6472 H   0  0  0  0  0  0  0  0  0  0  0  0
    0.4022   -0.3442   -0.3173 H   0  0  0  0  0  0  0  0  0  0  0  0
    3.1782    0.3522   -1.6502 N   0  0  0  0  0  0  0  0  0  0  0  0
    4.1901    0.3718   -2.0912 N   0  0  0  0  0  0  0  0  0  0  0  0
   -3.6242    1.0677   -1.1173 H   0  0  0  0  0  0  0  0  0  0  0  0
   -3.6351    2.5906    0.8565 H   0  0  0  0  0  0  0  0  0  0  0  0
   -1.3166    2.6580    2.4790 N   0  0  0  0  0  0  0  0  0  0  0  0
    0.6708    1.1986    1.8934 O   0  0  0  0  0  0  0  0  0  0  0  0
   -0.5258    2.8845    3.3010 O   0  0  0  0  0  0  0  0  0  0  0  0
  1  6  1  0  0  0  0
  1  2  2  0  0  0  0
  2  3  1  0  0  0  0
  3  4  1  0  0  0  0
  3 14  2  0  0  0  0
  4 13  2  0  0  0  0
  5 12  1  0  0  0  0
  5  4  1  0  0  0  0
  6  5  2  0  0  0  0
  7  1  1  0  0  0  0
  8  2  1  0  0  0  0
 10  9  3  0  0  0  0
 11  6  1  0  0  0  0
 13 15  1  0  0  0  0
M  RAD  1  15   2
M  END
