Coordinates from ORCA-job o-NO2-Ph-N2+-B3LYPG-aug-cc-pVDZ-scan-d09-49-n400
 OpenBabel09291715223D

 15 15  0  0  0  0  0  0  0  0999 V2000
   -1.9172    0.0988   -1.0607 C   0  0  0  0  0  0  0  0  0  0  0  0
   -0.5230    0.0922   -0.9859 C   0  0  0  0  0  0  0  0  0  0  0  0
    0.0785    0.8949   -0.0069 C   0  0  0  0  0  0  0  0  0  0  0  0
   -0.6668    1.6906    0.8841 C   0  0  0  0  0  0  0  0  0  0  0  0
   -2.0476    1.6826    0.7930 C   0  0  0  0  0  0  0  0  0  0  0  0
   -2.6700    0.8846   -0.1817 C   0  0  0  0  0  0  0  0  0  0  0  0
   -2.4113   -0.5158   -1.8122 H   0  0  0  0  0  0  0  0  0  0  0  0
    0.0831   -0.5115   -1.6595 H   0  0  0  0  0  0  0  0  0  0  0  0
    1.5087    0.8650    0.0427 N   0  0  0  0  0  0  0  0  0  0  0  0
    2.6026    0.7126   -0.0711 N   0  0  0  0  0  0  0  0  0  0  0  0
   -3.7577    0.8818   -0.2495 H   0  0  0  0  0  0  0  0  0  0  0  0
   -2.6223    2.2986    1.4829 H   0  0  0  0  0  0  0  0  0  0  0  0
    0.0137    2.5219    1.9014 N   0  0  0  0  0  0  0  0  0  0  0  0
    1.2435    2.4611    1.9016 O   0  0  0  0  0  0  0  0  0  0  0  0
   -0.6800    3.1869    2.6412 O   0  0  0  0  0  0  0  0  0  0  0  0
  1  2  2  0  0  0  0
  1  6  1  0  0  0  0
  2  3  1  0  0  0  0
  3  9  1  0  0  0  0
  3  4  2  0  0  0  0
  4 13  1  0  0  0  0
  5  4  1  0  0  0  0
  5 12  1  0  0  0  0
  6  5  2  0  0  0  0
  7  1  1  0  0  0  0
  8  2  1  0  0  0  0
 10  9  1  0  0  0  0
 11  6  1  0  0  0  0
 13 14  2  0  0  0  0
 13 15  2  0  0  0  0
M  RAD  2   9   2  10   3
M  END
