Coordinates from ORCA-job o-NO2-Ph-N2+-B3LYPG-aug-cc-pVDZ-scan-d09-49-n400
 OpenBabel09291715233D

 15 14  0  0  0  0  0  0  0  0999 V2000
   -1.6047    0.3022   -0.7691 C   0  0  0  0  0  0  0  0  0  0  0  0
   -0.4520    0.2737   -0.0491 C   0  0  0  0  0  0  0  0  0  0  0  0
   -0.2434    1.0826    1.1365 C   0  0  0  0  0  0  0  0  0  0  0  0
   -1.6110    2.0211    1.4408 C   0  0  0  0  0  0  0  0  0  0  0  0
   -2.7757    1.9676    0.6009 C   0  0  0  0  0  0  0  0  0  0  0  0
   -2.7573    1.1311   -0.4631 C   0  0  0  0  0  0  0  0  0  0  0  0
   -1.6711   -0.3455   -1.6448 H   0  0  0  0  0  0  0  0  0  0  0  0
    0.3932   -0.3608   -0.3192 H   0  0  0  0  0  0  0  0  0  0  0  0
    3.1671    0.3706   -1.6302 N   0  0  0  0  0  0  0  0  0  0  0  0
    4.1802    0.3985   -2.0682 N   0  0  0  0  0  0  0  0  0  0  0  0
   -3.6273    1.0705   -1.1154 H   0  0  0  0  0  0  0  0  0  0  0  0
   -3.6255    2.6001    0.8534 H   0  0  0  0  0  0  0  0  0  0  0  0
   -1.3033    2.6600    2.4707 N   0  0  0  0  0  0  0  0  0  0  0  0
    0.6748    1.1875    1.8858 O   0  0  0  0  0  0  0  0  0  0  0  0
   -0.5097    2.8851    3.2905 O   0  0  0  0  0  0  0  0  0  0  0  0
  1  6  1  0  0  0  0
  1  2  2  0  0  0  0
  2  3  1  0  0  0  0
  3  4  1  0  0  0  0
  3 14  2  0  0  0  0
  4 13  2  0  0  0  0
  5 12  1  0  0  0  0
  5  4  1  0  0  0  0
  6  5  2  0  0  0  0
  7  1  1  0  0  0  0
  8  2  1  0  0  0  0
 10  9  3  0  0  0  0
 11  6  1  0  0  0  0
 13 15  1  0  0  0  0
M  RAD  1  15   2
M  END
