Coordinates from ORCA-job o-NO2-Ph-N2+-B3LYPG-aug-cc-pVDZ-scan-d09-49-n400
 OpenBabel09291715233D

 15 14  0  0  0  0  0  0  0  0999 V2000
   -1.6840    0.2105   -0.7670 C   0  0  0  0  0  0  0  0  0  0  0  0
   -0.5203    0.1274   -0.0712 C   0  0  0  0  0  0  0  0  0  0  0  0
   -0.2238    0.9688    1.0734 C   0  0  0  0  0  0  0  0  0  0  0  0
   -1.5051    2.0204    1.3686 C   0  0  0  0  0  0  0  0  0  0  0  0
   -2.6938    2.0145    0.5591 C   0  0  0  0  0  0  0  0  0  0  0  0
   -2.7646    1.1345   -0.4666 C   0  0  0  0  0  0  0  0  0  0  0  0
   -1.8205   -0.4631   -1.6144 H   0  0  0  0  0  0  0  0  0  0  0  0
    0.2789   -0.5686   -0.3275 H   0  0  0  0  0  0  0  0  0  0  0  0
    2.9986    0.6039   -1.3824 N   0  0  0  0  0  0  0  0  0  0  0  0
    4.0225    0.7554   -1.7664 N   0  0  0  0  0  0  0  0  0  0  0  0
   -3.6550    1.1111   -1.0932 H   0  0  0  0  0  0  0  0  0  0  0  0
   -3.4893    2.7167    0.8036 H   0  0  0  0  0  0  0  0  0  0  0  0
   -1.1251    2.6809    2.3587 N   0  0  0  0  0  0  0  0  0  0  0  0
    0.7258    1.0312    1.7871 O   0  0  0  0  0  0  0  0  0  0  0  0
   -0.3099    2.9007    3.1575 O   0  0  0  0  0  0  0  0  0  0  0  0
  1  6  1  0  0  0  0
  1  2  2  0  0  0  0
  2  3  1  0  0  0  0
  3  4  1  0  0  0  0
  3 14  2  0  0  0  0
  4 13  2  0  0  0  0
  5 12  1  0  0  0  0
  5  4  1  0  0  0  0
  6  5  2  0  0  0  0
  7  1  1  0  0  0  0
  8  2  1  0  0  0  0
 10  9  3  0  0  0  0
 11  6  1  0  0  0  0
 13 15  1  0  0  0  0
M  RAD  1  15   2
M  END
