Coordinates from ORCA-job o-NO2-Ph-N2+-B3LYPG-aug-cc-pVDZ-scan-d09-49-n400
 OpenBabel09291715233D

 15 14  0  0  0  0  0  0  0  0999 V2000
   -1.6026    0.3046   -0.7691 C   0  0  0  0  0  0  0  0  0  0  0  0
   -0.4503    0.2774   -0.0484 C   0  0  0  0  0  0  0  0  0  0  0  0
   -0.2440    1.0853    1.1383 C   0  0  0  0  0  0  0  0  0  0  0  0
   -1.6135    2.0210    1.4426 C   0  0  0  0  0  0  0  0  0  0  0  0
   -2.7776    1.9663    0.6019 C   0  0  0  0  0  0  0  0  0  0  0  0
   -2.7569    1.1310   -0.4631 C   0  0  0  0  0  0  0  0  0  0  0  0
   -1.6671   -0.3422   -1.6456 H   0  0  0  0  0  0  0  0  0  0  0  0
    0.3962   -0.3553   -0.3186 H   0  0  0  0  0  0  0  0  0  0  0  0
    3.1708    0.3645   -1.6369 N   0  0  0  0  0  0  0  0  0  0  0  0
    4.1836    0.3897   -2.0757 N   0  0  0  0  0  0  0  0  0  0  0  0
   -3.6263    1.0696   -1.1160 H   0  0  0  0  0  0  0  0  0  0  0  0
   -3.6287    2.5970    0.8544 H   0  0  0  0  0  0  0  0  0  0  0  0
   -1.3077    2.6593    2.4734 N   0  0  0  0  0  0  0  0  0  0  0  0
    0.6735    1.1912    1.8883 O   0  0  0  0  0  0  0  0  0  0  0  0
   -0.5150    2.8849    3.2939 O   0  0  0  0  0  0  0  0  0  0  0  0
  1  6  1  0  0  0  0
  1  2  2  0  0  0  0
  2  3  1  0  0  0  0
  3  4  1  0  0  0  0
  3 14  2  0  0  0  0
  4 13  2  0  0  0  0
  5 12  1  0  0  0  0
  5  4  1  0  0  0  0
  6  5  2  0  0  0  0
  7  1  1  0  0  0  0
  8  2  1  0  0  0  0
 10  9  3  0  0  0  0
 11  6  1  0  0  0  0
 13 15  1  0  0  0  0
M  RAD  1  15   2
M  END
