Coordinates from ORCA-job o-NO2-Ph-N2+-B3LYPG-aug-cc-pVDZ-scan-d09-49-n400
 OpenBabel09291715223D

 15 14  0  0  0  0  0  0  0  0999 V2000
   -2.0135    0.1003   -1.0645 C   0  0  0  0  0  0  0  0  0  0  0  0
   -0.5911    0.0660   -1.0206 C   0  0  0  0  0  0  0  0  0  0  0  0
   -0.1523    0.8776   -0.0409 C   0  0  0  0  0  0  0  0  0  0  0  0
   -0.7008    1.6992    0.8921 C   0  0  0  0  0  0  0  0  0  0  0  0
   -2.1058    1.6794    0.7857 C   0  0  0  0  0  0  0  0  0  0  0  0
   -2.7446    0.8925   -0.1768 C   0  0  0  0  0  0  0  0  0  0  0  0
   -2.5036   -0.5170   -1.8189 H   0  0  0  0  0  0  0  0  0  0  0  0
    0.0144   -0.5370   -1.6932 H   0  0  0  0  0  0  0  0  0  0  0  0
    1.9891    0.8336    0.0341 N   0  0  0  0  0  0  0  0  0  0  0  0
    3.0835    0.7182   -0.0366 N   0  0  0  0  0  0  0  0  0  0  0  0
   -3.8324    0.8995   -0.2330 H   0  0  0  0  0  0  0  0  0  0  0  0
   -2.6458    2.3110    1.4958 H   0  0  0  0  0  0  0  0  0  0  0  0
   -0.0175    2.5390    1.9193 N   0  0  0  0  0  0  0  0  0  0  0  0
    1.2019    2.4940    1.9379 O   0  0  0  0  0  0  0  0  0  0  0  0
   -0.7472    3.1880    2.6392 O   0  0  0  0  0  0  0  0  0  0  0  0
  1  2  2  0  0  0  0
  1  6  1  0  0  0  0
  2  3  1  0  0  0  0
  3  4  2  0  0  0  0
  4 13  1  0  0  0  0
  5  4  1  0  0  0  0
  5 12  1  0  0  0  0
  6  5  2  0  0  0  0
  7  1  1  0  0  0  0
  8  2  1  0  0  0  0
 10  9  3  0  0  0  0
 11  6  1  0  0  0  0
 13 14  2  0  0  0  0
 13 15  2  0  0  0  0
M  RAD  1   3   2
M  END
