Coordinates from ORCA-job o-NO2-Ph-N2+-B3LYPG-aug-cc-pVDZ-scan-d09-49-n400
 OpenBabel09291715223D

 15 15  0  0  0  0  0  0  0  0999 V2000
   -1.9027    0.0970   -1.0620 C   0  0  0  0  0  0  0  0  0  0  0  0
   -0.5148    0.0912   -0.9867 C   0  0  0  0  0  0  0  0  0  0  0  0
    0.1343    0.8917   -0.0074 C   0  0  0  0  0  0  0  0  0  0  0  0
   -0.6472    1.6870    0.8810 C   0  0  0  0  0  0  0  0  0  0  0  0
   -2.0236    1.6807    0.7922 C   0  0  0  0  0  0  0  0  0  0  0  0
   -2.6530    0.8843   -0.1811 C   0  0  0  0  0  0  0  0  0  0  0  0
   -2.3983   -0.5170   -1.8130 H   0  0  0  0  0  0  0  0  0  0  0  0
    0.0886   -0.5142   -1.6625 H   0  0  0  0  0  0  0  0  0  0  0  0
    1.4043    0.8506    0.0196 N   0  0  0  0  0  0  0  0  0  0  0  0
    2.5111    0.7215   -0.0653 N   0  0  0  0  0  0  0  0  0  0  0  0
   -3.7411    0.8844   -0.2454 H   0  0  0  0  0  0  0  0  0  0  0  0
   -2.5959    2.2975    1.4833 H   0  0  0  0  0  0  0  0  0  0  0  0
    0.0186    2.5269    1.9075 N   0  0  0  0  0  0  0  0  0  0  0  0
    1.2467    2.4777    1.9209 O   0  0  0  0  0  0  0  0  0  0  0  0
   -0.6927    3.1849    2.6384 O   0  0  0  0  0  0  0  0  0  0  0  0
  1  2  2  0  0  0  0
  1  6  1  0  0  0  0
  2  3  1  0  0  0  0
  3  9  1  0  0  0  0
  3  4  2  0  0  0  0
  4 13  1  0  0  0  0
  5  4  1  0  0  0  0
  5 12  1  0  0  0  0
  6  5  2  0  0  0  0
  7  1  1  0  0  0  0
  8  2  1  0  0  0  0
 10  9  1  0  0  0  0
 11  6  1  0  0  0  0
 13 14  2  0  0  0  0
 13 15  2  0  0  0  0
M  RAD  2   9   2  10   3
M  END
