Coordinates from ORCA-job o-NO2-Ph-N2+-B3LYPG-aug-cc-pVDZ-scan-d09-49-n400
 OpenBabel09291715233D

 15 14  0  0  0  0  0  0  0  0999 V2000
   -1.6330    0.2733   -0.7686 C   0  0  0  0  0  0  0  0  0  0  0  0
   -0.4741    0.2291   -0.0597 C   0  0  0  0  0  0  0  0  0  0  0  0
   -0.2359    1.0491    1.1128 C   0  0  0  0  0  0  0  0  0  0  0  0
   -1.5789    2.0214    1.4177 C   0  0  0  0  0  0  0  0  0  0  0  0
   -2.7531    1.9825    0.5900 C   0  0  0  0  0  0  0  0  0  0  0  0
   -2.7639    1.1316   -0.4626 C   0  0  0  0  0  0  0  0  0  0  0  0
   -1.7227   -0.3845   -1.6347 H   0  0  0  0  0  0  0  0  0  0  0  0
    0.3552   -0.4264   -0.3284 H   0  0  0  0  0  0  0  0  0  0  0  0
    3.1239    0.4439   -1.5484 N   0  0  0  0  0  0  0  0  0  0  0  0
    4.1428    0.5079   -1.9687 N   0  0  0  0  0  0  0  0  0  0  0  0
   -3.6415    1.0817   -1.1053 H   0  0  0  0  0  0  0  0  0  0  0  0
   -3.5861    2.6370    0.8422 H   0  0  0  0  0  0  0  0  0  0  0  0
   -1.2476    2.6673    2.4358 N   0  0  0  0  0  0  0  0  0  0  0  0
    0.6922    1.1430    1.8512 O   0  0  0  0  0  0  0  0  0  0  0  0
   -0.4430    2.8873    3.2460 O   0  0  0  0  0  0  0  0  0  0  0  0
  1  6  1  0  0  0  0
  1  2  2  0  0  0  0
  2  3  1  0  0  0  0
  3  4  1  0  0  0  0
  3 14  2  0  0  0  0
  4 13  2  0  0  0  0
  5 12  1  0  0  0  0
  5  4  1  0  0  0  0
  6  5  2  0  0  0  0
  7  1  1  0  0  0  0
  8  2  1  0  0  0  0
 10  9  3  0  0  0  0
 11  6  1  0  0  0  0
 13 15  1  0  0  0  0
M  RAD  1  15   2
M  END
