Coordinates from ORCA-job o-NO2-Ph-N2+-B3LYPG-aug-cc-pVDZ-scan-d09-49-n400
 OpenBabel09291715233D

 15 14  0  0  0  0  0  0  0  0999 V2000
   -2.0828    0.1453   -1.0158 C   0  0  0  0  0  0  0  0  0  0  0  0
   -0.6365    0.1525   -0.9218 C   0  0  0  0  0  0  0  0  0  0  0  0
   -0.3956    0.9875    0.0736 C   0  0  0  0  0  0  0  0  0  0  0  0
   -0.9572    1.7941    0.9883 C   0  0  0  0  0  0  0  0  0  0  0  0
   -2.3572    1.7214    0.8202 C   0  0  0  0  0  0  0  0  0  0  0  0
   -2.9006    0.9016   -0.1753 C   0  0  0  0  0  0  0  0  0  0  0  0
   -2.4856   -0.5017   -1.7998 H   0  0  0  0  0  0  0  0  0  0  0  0
    0.0225   -0.4278   -1.5648 H   0  0  0  0  0  0  0  0  0  0  0  0
    3.0395    0.4388   -0.3674 N   0  0  0  0  0  0  0  0  0  0  0  0
    4.1424    0.4140   -0.3307 N   0  0  0  0  0  0  0  0  0  0  0  0
   -3.9817    0.8496   -0.3002 H   0  0  0  0  0  0  0  0  0  0  0  0
   -2.9452    2.3385    1.5106 H   0  0  0  0  0  0  0  0  0  0  0  0
   -0.2518    2.6200    2.0004 N   0  0  0  0  0  0  0  0  0  0  0  0
    0.9651    2.5258    1.9613 O   0  0  0  0  0  0  0  0  0  0  0  0
   -0.9412    3.2847    2.7410 O   0  0  0  0  0  0  0  0  0  0  0  0
  1  2  2  0  0  0  0
  1  6  1  0  0  0  0
  2  3  1  0  0  0  0
  3  4  2  0  0  0  0
  4 13  1  0  0  0  0
  5  4  1  0  0  0  0
  5 12  1  0  0  0  0
  6  5  2  0  0  0  0
  7  1  1  0  0  0  0
  8  2  1  0  0  0  0
  9 10  3  0  0  0  0
 11  6  1  0  0  0  0
 13 15  2  0  0  0  0
 14 13  2  0  0  0  0
M  RAD  1   3   2
M  END
