Coordinates from ORCA-job o-NO2-Ph-N2+-B3LYPG-aug-cc-pVDZ-scan-d09-49-n400
 OpenBabel09291715233D

 15 14  0  0  0  0  0  0  0  0999 V2000
   -2.0923    0.1351   -1.0283 C   0  0  0  0  0  0  0  0  0  0  0  0
   -0.6473    0.1267   -0.9528 C   0  0  0  0  0  0  0  0  0  0  0  0
   -0.3739    0.9576    0.0397 C   0  0  0  0  0  0  0  0  0  0  0  0
   -0.9074    1.7708    0.9638 C   0  0  0  0  0  0  0  0  0  0  0  0
   -2.3118    1.7124    0.8123 C   0  0  0  0  0  0  0  0  0  0  0  0
   -2.8847    0.9025   -0.1732 C   0  0  0  0  0  0  0  0  0  0  0  0
   -2.5169   -0.5053   -1.8059 H   0  0  0  0  0  0  0  0  0  0  0  0
   -0.0030   -0.4603   -1.6045 H   0  0  0  0  0  0  0  0  0  0  0  0
    2.8984    0.5237   -0.2760 N   0  0  0  0  0  0  0  0  0  0  0  0
    4.0010    0.5054   -0.2317 N   0  0  0  0  0  0  0  0  0  0  0  0
   -3.9686    0.8675   -0.2784 H   0  0  0  0  0  0  0  0  0  0  0  0
   -2.8783    2.3377    1.5137 H   0  0  0  0  0  0  0  0  0  0  0  0
   -0.1997    2.5992    1.9791 N   0  0  0  0  0  0  0  0  0  0  0  0
    1.0159    2.5102    1.9459 O   0  0  0  0  0  0  0  0  0  0  0  0
   -0.8970    3.2608    2.7157 O   0  0  0  0  0  0  0  0  0  0  0  0
  1  2  2  0  0  0  0
  1  6  1  0  0  0  0
  2  3  1  0  0  0  0
  3  4  2  0  0  0  0
  4 13  1  0  0  0  0
  5  4  1  0  0  0  0
  5 12  1  0  0  0  0
  6  5  2  0  0  0  0
  7  1  1  0  0  0  0
  8  2  1  0  0  0  0
  9 10  3  0  0  0  0
 11  6  1  0  0  0  0
 13 15  2  0  0  0  0
 14 13  2  0  0  0  0
M  RAD  1   3   2
M  END
