Coordinates from ORCA-job o-NO2-Ph-N2+-B3LYPG-aug-cc-pVDZ-scan-d09-49-n400
 OpenBabel09291715223D

 15 15  0  0  0  0  0  0  0  0999 V2000
   -1.9237    0.0991   -1.0606 C   0  0  0  0  0  0  0  0  0  0  0  0
   -0.5270    0.0912   -0.9873 C   0  0  0  0  0  0  0  0  0  0  0  0
    0.0575    0.8946   -0.0085 C   0  0  0  0  0  0  0  0  0  0  0  0
   -0.6725    1.6917    0.8851 C   0  0  0  0  0  0  0  0  0  0  0  0
   -2.0552    1.6830    0.7929 C   0  0  0  0  0  0  0  0  0  0  0  0
   -2.6763    0.8850   -0.1817 C   0  0  0  0  0  0  0  0  0  0  0  0
   -2.4177   -0.5155   -1.8122 H   0  0  0  0  0  0  0  0  0  0  0  0
    0.0799   -0.5120   -1.6602 H   0  0  0  0  0  0  0  0  0  0  0  0
    1.5476    0.8698    0.0507 N   0  0  0  0  0  0  0  0  0  0  0  0
    2.6380    0.7115   -0.0706 N   0  0  0  0  0  0  0  0  0  0  0  0
   -3.7638    0.8817   -0.2500 H   0  0  0  0  0  0  0  0  0  0  0  0
   -2.6297    2.2991    1.4830 H   0  0  0  0  0  0  0  0  0  0  0  0
    0.0124    2.5206    1.8998 N   0  0  0  0  0  0  0  0  0  0  0  0
    1.2424    2.4575    1.8975 O   0  0  0  0  0  0  0  0  0  0  0  0
   -0.6775    3.1871    2.6415 O   0  0  0  0  0  0  0  0  0  0  0  0
  1  2  2  0  0  0  0
  1  6  1  0  0  0  0
  2  3  1  0  0  0  0
  3  9  1  0  0  0  0
  3  4  2  0  0  0  0
  4 13  1  0  0  0  0
  5  4  1  0  0  0  0
  5 12  1  0  0  0  0
  6  5  2  0  0  0  0
  7  1  1  0  0  0  0
  8  2  1  0  0  0  0
 10  9  1  0  0  0  0
 11  6  1  0  0  0  0
 13 15  2  0  0  0  0
 14 13  2  0  0  0  0
M  RAD  2   9   2  10   3
M  END
