Coordinates from ORCA-job o-NO2-Ph-N2+-B3LYPG-aug-cc-pVDZ-scan-d09-49-n400
 OpenBabel09291715233D

 15 14  0  0  0  0  0  0  0  0999 V2000
   -1.5652    0.3484   -0.7699 C   0  0  0  0  0  0  0  0  0  0  0  0
   -0.4208    0.3453   -0.0362 C   0  0  0  0  0  0  0  0  0  0  0  0
   -0.2554    1.1362    1.1684 C   0  0  0  0  0  0  0  0  0  0  0  0
   -1.6584    2.0189    1.4745 C   0  0  0  0  0  0  0  0  0  0  0  0
   -2.8107    1.9420    0.6194 C   0  0  0  0  0  0  0  0  0  0  0  0
   -2.7502    1.1293   -0.4614 C   0  0  0  0  0  0  0  0  0  0  0  0
   -1.5980   -0.2826   -1.6595 H   0  0  0  0  0  0  0  0  0  0  0  0
    0.4485   -0.2545   -0.3097 H   0  0  0  0  0  0  0  0  0  0  0  0
    3.2397    0.2543   -1.7523 N   0  0  0  0  0  0  0  0  0  0  0  0
    4.2445    0.2309   -2.2091 N   0  0  0  0  0  0  0  0  0  0  0  0
   -3.6097    1.0518   -1.1256 H   0  0  0  0  0  0  0  0  0  0  0  0
   -3.6853    2.5387    0.8743 H   0  0  0  0  0  0  0  0  0  0  0  0
   -1.3856    2.6465    2.5212 N   0  0  0  0  0  0  0  0  0  0  0  0
    0.6497    1.2579    1.9310 O   0  0  0  0  0  0  0  0  0  0  0  0
   -0.6088    2.8811    3.3543 O   0  0  0  0  0  0  0  0  0  0  0  0
  1  6  1  0  0  0  0
  1  2  2  0  0  0  0
  2  3  1  0  0  0  0
  3  4  1  0  0  0  0
  3 14  2  0  0  0  0
  4 13  2  0  0  0  0
  5 12  1  0  0  0  0
  5  4  1  0  0  0  0
  6  5  2  0  0  0  0
  7  1  1  0  0  0  0
  8  2  1  0  0  0  0
 10  9  3  0  0  0  0
 11  6  1  0  0  0  0
 13 15  1  0  0  0  0
M  RAD  1  15   2
M  END
