Coordinates from ORCA-job o-NO2-Ph-N2+-B3LYPG-aug-cc-pVDZ-scan-d09-49-n400
 OpenBabel09291715233D

 15 14  0  0  0  0  0  0  0  0999 V2000
   -2.0737    0.1119   -1.0545 C   0  0  0  0  0  0  0  0  0  0  0  0
   -0.6360    0.0796   -1.0073 C   0  0  0  0  0  0  0  0  0  0  0  0
   -0.2916    0.9010   -0.0218 C   0  0  0  0  0  0  0  0  0  0  0  0
   -0.7812    1.7237    0.9160 C   0  0  0  0  0  0  0  0  0  0  0  0
   -2.1930    1.6895    0.7924 C   0  0  0  0  0  0  0  0  0  0  0  0
   -2.8190    0.8989   -0.1738 C   0  0  0  0  0  0  0  0  0  0  0  0
   -2.5398   -0.5147   -1.8183 H   0  0  0  0  0  0  0  0  0  0  0  0
   -0.0176   -0.5182   -1.6733 H   0  0  0  0  0  0  0  0  0  0  0  0
    2.4451    0.7037   -0.0914 N   0  0  0  0  0  0  0  0  0  0  0  0
    3.5476    0.6663   -0.0699 N   0  0  0  0  0  0  0  0  0  0  0  0
   -3.9063    0.8960   -0.2415 H   0  0  0  0  0  0  0  0  0  0  0  0
   -2.7237    2.3269    1.5100 H   0  0  0  0  0  0  0  0  0  0  0  0
   -0.0880    2.5645    1.9450 N   0  0  0  0  0  0  0  0  0  0  0  0
    1.1262    2.5015    1.9423 O   0  0  0  0  0  0  0  0  0  0  0  0
   -0.8147    3.2138    2.6654 O   0  0  0  0  0  0  0  0  0  0  0  0
  1  2  2  0  0  0  0
  1  6  1  0  0  0  0
  2  3  1  0  0  0  0
  3  4  2  0  0  0  0
  4 13  1  0  0  0  0
  5  4  1  0  0  0  0
  5 12  1  0  0  0  0
  6  5  2  0  0  0  0
  7  1  1  0  0  0  0
  8  2  1  0  0  0  0
  9 10  3  0  0  0  0
 11  6  1  0  0  0  0
 13 15  2  0  0  0  0
 14 13  2  0  0  0  0
M  RAD  1   3   2
M  END
