Coordinates from ORCA-job o-NO2-Ph-N2+-B3LYPG-aug-cc-pVDZ-scan-d09-49-n400
 OpenBabel09291715223D

 15 15  0  0  0  0  0  0  0  0999 V2000
   -1.9462    0.0996   -1.0614 C   0  0  0  0  0  0  0  0  0  0  0  0
   -0.5417    0.0842   -0.9963 C   0  0  0  0  0  0  0  0  0  0  0  0
   -0.0053    0.8900   -0.0176 C   0  0  0  0  0  0  0  0  0  0  0  0
   -0.6834    1.6943    0.8875 C   0  0  0  0  0  0  0  0  0  0  0  0
   -2.0726    1.6829    0.7918 C   0  0  0  0  0  0  0  0  0  0  0  0
   -2.6944    0.8866   -0.1809 C   0  0  0  0  0  0  0  0  0  0  0  0
   -2.4407   -0.5151   -1.8130 H   0  0  0  0  0  0  0  0  0  0  0  0
    0.0660   -0.5181   -1.6681 H   0  0  0  0  0  0  0  0  0  0  0  0
    1.6644    0.8775    0.0666 N   0  0  0  0  0  0  0  0  0  0  0  0
    2.7490    0.7116   -0.0642 N   0  0  0  0  0  0  0  0  0  0  0  0
   -3.7817    0.8845   -0.2477 H   0  0  0  0  0  0  0  0  0  0  0  0
   -2.6426    2.3011    1.4845 H   0  0  0  0  0  0  0  0  0  0  0  0
    0.0084    2.5205    1.8994 N   0  0  0  0  0  0  0  0  0  0  0  0
    1.2375    2.4583    1.8983 O   0  0  0  0  0  0  0  0  0  0  0  0
   -0.6826    3.1863    2.6405 O   0  0  0  0  0  0  0  0  0  0  0  0
  1  2  2  0  0  0  0
  1  6  1  0  0  0  0
  2  3  1  0  0  0  0
  3  9  1  0  0  0  0
  3  4  2  0  0  0  0
  4 13  1  0  0  0  0
  5  4  1  0  0  0  0
  5 12  1  0  0  0  0
  6  5  2  0  0  0  0
  7  1  1  0  0  0  0
  8  2  1  0  0  0  0
 10  9  1  0  0  0  0
 11  6  1  0  0  0  0
 13 15  2  0  0  0  0
 14 13  2  0  0  0  0
M  RAD  2   9   2  10   3
M  END
