Coordinates from ORCA-job o-NO2-Ph-N2+-B3LYPG-aug-cc-pVDZ-scan-d09-49-n400
 OpenBabel09291715233D

 15 14  0  0  0  0  0  0  0  0999 V2000
   -1.5366    0.3891   -0.7703 C   0  0  0  0  0  0  0  0  0  0  0  0
   -0.3981    0.4084   -0.0277 C   0  0  0  0  0  0  0  0  0  0  0  0
   -0.2666    1.1830    1.1917 C   0  0  0  0  0  0  0  0  0  0  0  0
   -1.6980    2.0159    1.5019 C   0  0  0  0  0  0  0  0  0  0  0  0
   -2.8411    1.9185    0.6368 C   0  0  0  0  0  0  0  0  0  0  0  0
   -2.7476    1.1272   -0.4575 C   0  0  0  0  0  0  0  0  0  0  0  0
   -1.5431   -0.2268   -1.6711 H   0  0  0  0  0  0  0  0  0  0  0  0
    0.4904   -0.1606   -0.3055 H   0  0  0  0  0  0  0  0  0  0  0  0
    3.3116    0.1532   -1.8530 N   0  0  0  0  0  0  0  0  0  0  0  0
    4.3099    0.0893   -2.3202 N   0  0  0  0  0  0  0  0  0  0  0  0
   -3.5995    1.0349   -1.1296 H   0  0  0  0  0  0  0  0  0  0  0  0
   -3.7357    2.4831    0.8953 H   0  0  0  0  0  0  0  0  0  0  0  0
   -1.4523    2.6333    2.5614 N   0  0  0  0  0  0  0  0  0  0  0  0
    0.6290    1.3194    1.9633 O   0  0  0  0  0  0  0  0  0  0  0  0
   -0.6880    2.8763    3.4037 O   0  0  0  0  0  0  0  0  0  0  0  0
  1  6  1  0  0  0  0
  1  2  2  0  0  0  0
  2  3  1  0  0  0  0
  3  4  1  0  0  0  0
  3 14  2  0  0  0  0
  4 13  2  0  0  0  0
  5 12  1  0  0  0  0
  5  4  1  0  0  0  0
  6  5  2  0  0  0  0
  7  1  1  0  0  0  0
  8  2  1  0  0  0  0
 10  9  3  0  0  0  0
 11  6  1  0  0  0  0
 13 15  1  0  0  0  0
M  RAD  1  15   2
M  END
