Coordinates from ORCA-job o-NO2-Ph-N2+-B3LYPG-aug-cc-pVDZ-scan-d09-49-n400
 OpenBabel09291715223D

 15 15  0  0  0  0  0  0  0  0999 V2000
   -1.8805    0.0991   -1.0760 C   0  0  0  0  0  0  0  0  0  0  0  0
   -0.5116    0.0508   -0.9890 C   0  0  0  0  0  0  0  0  0  0  0  0
    0.2629    0.8580   -0.0004 C   0  0  0  0  0  0  0  0  0  0  0  0
   -0.6139    1.6834    0.8794 C   0  0  0  0  0  0  0  0  0  0  0  0
   -1.9799    1.6963    0.7730 C   0  0  0  0  0  0  0  0  0  0  0  0
   -2.6223    0.9169   -0.2073 C   0  0  0  0  0  0  0  0  0  0  0  0
   -2.3853   -0.5106   -1.8260 H   0  0  0  0  0  0  0  0  0  0  0  0
    0.1025   -0.5795   -1.6344 H   0  0  0  0  0  0  0  0  0  0  0  0
    1.1707    0.8074    0.0373 N   0  0  0  0  0  0  0  0  0  0  0  0
    2.3237    0.7235    0.0620 N   0  0  0  0  0  0  0  0  0  0  0  0
   -3.7097    0.9463   -0.2839 H   0  0  0  0  0  0  0  0  0  0  0  0
   -2.5481    2.3193    1.4629 H   0  0  0  0  0  0  0  0  0  0  0  0
    0.0449    2.5352    1.8991 N   0  0  0  0  0  0  0  0  0  0  0  0
    1.2079    2.8426    1.6623 O   0  0  0  0  0  0  0  0  0  0  0  0
   -0.6270    2.8555    2.8605 O   0  0  0  0  0  0  0  0  0  0  0  0
  1  2  2  0  0  0  0
  1  6  1  0  0  0  0
  2  3  1  0  0  0  0
  3  9  1  0  0  0  0
  3  4  2  0  0  0  0
  4 13  1  0  0  0  0
  5  4  1  0  0  0  0
  5 12  1  0  0  0  0
  6  5  2  0  0  0  0
  7  1  1  0  0  0  0
  8  2  1  0  0  0  0
  9 10  1  0  0  0  0
 11  6  1  0  0  0  0
 13 15  2  0  0  0  0
 14 13  2  0  0  0  0
M  RAD  2   9   2  10   3
M  END
