Coordinates from ORCA-job o-NO2-Ph-N2+-B3LYPG-aug-cc-pVDZ-scan-d09-49-n400
 OpenBabel09291715223D

 15 15  0  0  0  0  0  0  0  0999 V2000
   -1.9368    0.0995   -1.0609 C   0  0  0  0  0  0  0  0  0  0  0  0
   -0.5352    0.0873   -0.9923 C   0  0  0  0  0  0  0  0  0  0  0  0
    0.0183    0.8923   -0.0136 C   0  0  0  0  0  0  0  0  0  0  0  0
   -0.6799    1.6936    0.8867 C   0  0  0  0  0  0  0  0  0  0  0  0
   -2.0666    1.6832    0.7924 C   0  0  0  0  0  0  0  0  0  0  0  0
   -2.6873    0.8859   -0.1813 C   0  0  0  0  0  0  0  0  0  0  0  0
   -2.4310   -0.5152   -1.8124 H   0  0  0  0  0  0  0  0  0  0  0  0
    0.0725   -0.5153   -1.6643 H   0  0  0  0  0  0  0  0  0  0  0  0
    1.6182    0.8765    0.0625 N   0  0  0  0  0  0  0  0  0  0  0  0
    2.7040    0.7107   -0.0680 N   0  0  0  0  0  0  0  0  0  0  0  0
   -3.7746    0.8829   -0.2492 H   0  0  0  0  0  0  0  0  0  0  0  0
   -2.6392    2.3003    1.4836 H   0  0  0  0  0  0  0  0  0  0  0  0
    0.0102    2.5200    1.8987 N   0  0  0  0  0  0  0  0  0  0  0  0
    1.2400    2.4560    1.8963 O   0  0  0  0  0  0  0  0  0  0  0  0
   -0.6784    3.1866    2.6413 O   0  0  0  0  0  0  0  0  0  0  0  0
  1  2  2  0  0  0  0
  1  6  1  0  0  0  0
  2  3  1  0  0  0  0
  3  9  1  0  0  0  0
  3  4  2  0  0  0  0
  4 13  1  0  0  0  0
  5  4  1  0  0  0  0
  5 12  1  0  0  0  0
  6  5  2  0  0  0  0
  7  1  1  0  0  0  0
  8  2  1  0  0  0  0
 10  9  1  0  0  0  0
 11  6  1  0  0  0  0
 13 15  2  0  0  0  0
 14 13  2  0  0  0  0
M  RAD  2   9   2  10   3
M  END
