Coordinates from ORCA-job o-NO2-Ph-N2+-B3LYPG-aug-cc-pVDZ-scan-d09-49-n400
 OpenBabel09291715223D

 15 15  0  0  0  0  0  0  0  0999 V2000
   -1.9069    0.0976   -1.0615 C   0  0  0  0  0  0  0  0  0  0  0  0
   -0.5171    0.0920   -0.9858 C   0  0  0  0  0  0  0  0  0  0  0  0
    0.1168    0.8933   -0.0068 C   0  0  0  0  0  0  0  0  0  0  0  0
   -0.6537    1.6883    0.8817 C   0  0  0  0  0  0  0  0  0  0  0  0
   -2.0314    1.6815    0.7924 C   0  0  0  0  0  0  0  0  0  0  0  0
   -2.6583    0.8843   -0.1814 C   0  0  0  0  0  0  0  0  0  0  0  0
   -2.4019   -0.5168   -1.8125 H   0  0  0  0  0  0  0  0  0  0  0  0
    0.0871   -0.5129   -1.6608 H   0  0  0  0  0  0  0  0  0  0  0  0
    1.4369    0.8548    0.0261 N   0  0  0  0  0  0  0  0  0  0  0  0
    2.5394    0.7185   -0.0676 N   0  0  0  0  0  0  0  0  0  0  0  0
   -3.7463    0.8833   -0.2468 H   0  0  0  0  0  0  0  0  0  0  0  0
   -2.6045    2.2980    1.4830 H   0  0  0  0  0  0  0  0  0  0  0  0
    0.0169    2.5255    1.9053 N   0  0  0  0  0  0  0  0  0  0  0  0
    1.2456    2.4716    1.9145 O   0  0  0  0  0  0  0  0  0  0  0  0
   -0.6883    3.1854    2.6397 O   0  0  0  0  0  0  0  0  0  0  0  0
  1  2  2  0  0  0  0
  1  6  1  0  0  0  0
  2  3  1  0  0  0  0
  3  9  1  0  0  0  0
  3  4  2  0  0  0  0
  4 13  1  0  0  0  0
  5  4  1  0  0  0  0
  5 12  1  0  0  0  0
  6  5  2  0  0  0  0
  7  1  1  0  0  0  0
  8  2  1  0  0  0  0
 10  9  1  0  0  0  0
 11  6  1  0  0  0  0
 13 14  2  0  0  0  0
 13 15  2  0  0  0  0
M  RAD  2   9   2  10   3
M  END
