Coordinates from ORCA-job o-NO2-Ph-N2+-B3LYPG-aug-cc-pVDZ-scan-d09-49-n400
 OpenBabel09291715223D

 15 15  0  0  0  0  0  0  0  0999 V2000
   -1.8820    0.0990   -1.0749 C   0  0  0  0  0  0  0  0  0  0  0  0
   -0.5113    0.0543   -0.9880 C   0  0  0  0  0  0  0  0  0  0  0  0
    0.2507    0.8583    0.0001 C   0  0  0  0  0  0  0  0  0  0  0  0
   -0.6147    1.6818    0.8793 C   0  0  0  0  0  0  0  0  0  0  0  0
   -1.9817    1.6940    0.7749 C   0  0  0  0  0  0  0  0  0  0  0  0
   -2.6241    0.9137   -0.2047 C   0  0  0  0  0  0  0  0  0  0  0  0
   -2.3859   -0.5100   -1.8258 H   0  0  0  0  0  0  0  0  0  0  0  0
    0.1005   -0.5741   -1.6372 H   0  0  0  0  0  0  0  0  0  0  0  0
    1.1888    0.8091    0.0341 N   0  0  0  0  0  0  0  0  0  0  0  0
    2.3367    0.7252    0.0489 N   0  0  0  0  0  0  0  0  0  0  0  0
   -3.7115    0.9421   -0.2804 H   0  0  0  0  0  0  0  0  0  0  0  0
   -2.5496    2.3170    1.4649 H   0  0  0  0  0  0  0  0  0  0  0  0
    0.0427    2.5352    1.9004 N   0  0  0  0  0  0  0  0  0  0  0  0
    1.2175    2.8123    1.6857 O   0  0  0  0  0  0  0  0  0  0  0  0
   -0.6417    2.8863    2.8420 O   0  0  0  0  0  0  0  0  0  0  0  0
  1  2  2  0  0  0  0
  1  6  1  0  0  0  0
  2  3  1  0  0  0  0
  3  9  1  0  0  0  0
  3  4  2  0  0  0  0
  4 13  1  0  0  0  0
  5  4  1  0  0  0  0
  5 12  1  0  0  0  0
  6  5  2  0  0  0  0
  7  1  1  0  0  0  0
  8  2  1  0  0  0  0
  9 10  1  0  0  0  0
 11  6  1  0  0  0  0
 13 15  2  0  0  0  0
 14 13  2  0  0  0  0
M  RAD  2   9   2  10   3
M  END
