Coordinates from ORCA-job o-NO2-Ph-N2+-B3LYPG-aug-cc-pVDZ-scan-d09-49-n400
 OpenBabel09291715223D

 15 15  0  0  0  0  0  0  0  0999 V2000
   -1.9122    0.0982   -1.0610 C   0  0  0  0  0  0  0  0  0  0  0  0
   -0.5198    0.0923   -0.9856 C   0  0  0  0  0  0  0  0  0  0  0  0
    0.0954    0.8944   -0.0067 C   0  0  0  0  0  0  0  0  0  0  0  0
   -0.6608    1.6898    0.8832 C   0  0  0  0  0  0  0  0  0  0  0  0
   -2.0403    1.6822    0.7928 C   0  0  0  0  0  0  0  0  0  0  0  0
   -2.6644    0.8844   -0.1816 C   0  0  0  0  0  0  0  0  0  0  0  0
   -2.4066   -0.5162   -1.8123 H   0  0  0  0  0  0  0  0  0  0  0  0
    0.0854   -0.5120   -1.6599 H   0  0  0  0  0  0  0  0  0  0  0  0
    1.4755    0.8602    0.0349 N   0  0  0  0  0  0  0  0  0  0  0  0
    2.5730    0.7145   -0.0705 N   0  0  0  0  0  0  0  0  0  0  0  0
   -3.7522    0.8823   -0.2484 H   0  0  0  0  0  0  0  0  0  0  0  0
   -2.6145    2.2984    1.4828 H   0  0  0  0  0  0  0  0  0  0  0  0
    0.0151    2.5238    1.9031 N   0  0  0  0  0  0  0  0  0  0  0  0
    1.2444    2.4658    1.9076 O   0  0  0  0  0  0  0  0  0  0  0  0
   -0.6837    3.1862    2.6408 O   0  0  0  0  0  0  0  0  0  0  0  0
  1  2  2  0  0  0  0
  1  6  1  0  0  0  0
  2  3  1  0  0  0  0
  3  9  1  0  0  0  0
  3  4  2  0  0  0  0
  4 13  1  0  0  0  0
  5  4  1  0  0  0  0
  5 12  1  0  0  0  0
  6  5  2  0  0  0  0
  7  1  1  0  0  0  0
  8  2  1  0  0  0  0
 10  9  1  0  0  0  0
 11  6  1  0  0  0  0
 13 14  2  0  0  0  0
 13 15  2  0  0  0  0
M  RAD  2   9   2  10   3
M  END
