Coordinates from ORCA-job o-NO2-Ph-N2+-B3LYPG-aug-cc-pVDZ-scan-d09-49-n400
 OpenBabel09291715233D

 15 14  0  0  0  0  0  0  0  0999 V2000
   -2.0926    0.1360   -1.0273 C   0  0  0  0  0  0  0  0  0  0  0  0
   -0.6474    0.1295   -0.9496 C   0  0  0  0  0  0  0  0  0  0  0  0
   -0.3806    0.9609    0.0432 C   0  0  0  0  0  0  0  0  0  0  0  0
   -0.9135    1.7731    0.9662 C   0  0  0  0  0  0  0  0  0  0  0  0
   -2.3179    1.7136    0.8133 C   0  0  0  0  0  0  0  0  0  0  0  0
   -2.8878    0.9026   -0.1734 C   0  0  0  0  0  0  0  0  0  0  0  0
   -2.5150   -0.5051   -1.8055 H   0  0  0  0  0  0  0  0  0  0  0  0
   -0.0005   -0.4564   -1.5998 H   0  0  0  0  0  0  0  0  0  0  0  0
    2.9193    0.5147   -0.2854 N   0  0  0  0  0  0  0  0  0  0  0  0
    4.0219    0.4966   -0.2409 N   0  0  0  0  0  0  0  0  0  0  0  0
   -3.9714    0.8658   -0.2805 H   0  0  0  0  0  0  0  0  0  0  0  0
   -2.8863    2.3381    1.5137 H   0  0  0  0  0  0  0  0  0  0  0  0
   -0.2047    2.6009    1.9807 N   0  0  0  0  0  0  0  0  0  0  0  0
    1.0112    2.5110    1.9466 O   0  0  0  0  0  0  0  0  0  0  0  0
   -0.9005    3.2630    2.7180 O   0  0  0  0  0  0  0  0  0  0  0  0
  1  2  2  0  0  0  0
  1  6  1  0  0  0  0
  2  3  1  0  0  0  0
  3  4  2  0  0  0  0
  4 13  1  0  0  0  0
  5  4  1  0  0  0  0
  5 12  1  0  0  0  0
  6  5  2  0  0  0  0
  7  1  1  0  0  0  0
  8  2  1  0  0  0  0
  9 10  3  0  0  0  0
 11  6  1  0  0  0  0
 13 15  2  0  0  0  0
 14 13  2  0  0  0  0
M  RAD  1   3   2
M  END
