Coordinates from ORCA-job o-NO2-Ph-N2+-B3LYPG-aug-cc-pVDZ-scan-d09-49-n400
 OpenBabel09291715223D

 15 15  0  0  0  0  0  0  0  0999 V2000
   -1.8956    0.0951   -1.0637 C   0  0  0  0  0  0  0  0  0  0  0  0
   -0.5130    0.0875   -0.9900 C   0  0  0  0  0  0  0  0  0  0  0  0
    0.1743    0.8871   -0.0102 C   0  0  0  0  0  0  0  0  0  0  0  0
   -0.6334    1.6844    0.8781 C   0  0  0  0  0  0  0  0  0  0  0  0
   -2.0069    1.6792    0.7903 C   0  0  0  0  0  0  0  0  0  0  0  0
   -2.6431    0.8847   -0.1811 C   0  0  0  0  0  0  0  0  0  0  0  0
   -2.3928   -0.5187   -1.8142 H   0  0  0  0  0  0  0  0  0  0  0  0
    0.0911   -0.5187   -1.6655 H   0  0  0  0  0  0  0  0  0  0  0  0
    1.3340    0.8428    0.0068 N   0  0  0  0  0  0  0  0  0  0  0  0
    2.4523    0.7354   -0.0515 N   0  0  0  0  0  0  0  0  0  0  0  0
   -3.7316    0.8882   -0.2421 H   0  0  0  0  0  0  0  0  0  0  0  0
   -2.5758    2.2973    1.4829 H   0  0  0  0  0  0  0  0  0  0  0  0
    0.0240    2.5302    1.9103 N   0  0  0  0  0  0  0  0  0  0  0  0
    1.2507    2.4923    1.9299 O   0  0  0  0  0  0  0  0  0  0  0  0
   -0.6999    3.1776    2.6395 O   0  0  0  0  0  0  0  0  0  0  0  0
  1  2  2  0  0  0  0
  1  6  1  0  0  0  0
  2  3  1  0  0  0  0
  3  9  1  0  0  0  0
  3  4  2  0  0  0  0
  4 13  1  0  0  0  0
  5  4  1  0  0  0  0
  5 12  1  0  0  0  0
  6  5  2  0  0  0  0
  7  1  1  0  0  0  0
  8  2  1  0  0  0  0
 10  9  1  0  0  0  0
 11  6  1  0  0  0  0
 13 14  2  0  0  0  0
 13 15  2  0  0  0  0
M  RAD  2   9   2  10   3
M  END
