Coordinates from ORCA-job o-NO2-Ph-N2+-B3LYPG-aug-cc-pVDZ-scan-d09-49-n400
 OpenBabel09291715223D

 15 14  0  0  0  0  0  0  0  0999 V2000
   -2.0384    0.1034   -1.0623 C   0  0  0  0  0  0  0  0  0  0  0  0
   -0.6085    0.0672   -1.0202 C   0  0  0  0  0  0  0  0  0  0  0  0
   -0.2113    0.8827   -0.0384 C   0  0  0  0  0  0  0  0  0  0  0  0
   -0.7235    1.7067    0.8995 C   0  0  0  0  0  0  0  0  0  0  0  0
   -2.1327    1.6812    0.7861 C   0  0  0  0  0  0  0  0  0  0  0  0
   -2.7711    0.8948   -0.1757 C   0  0  0  0  0  0  0  0  0  0  0  0
   -2.5205   -0.5172   -1.8201 H   0  0  0  0  0  0  0  0  0  0  0  0
   -0.0011   -0.5350   -1.6918 H   0  0  0  0  0  0  0  0  0  0  0  0
    2.1503    0.7864   -0.0117 N   0  0  0  0  0  0  0  0  0  0  0  0
    3.2503    0.7102   -0.0361 N   0  0  0  0  0  0  0  0  0  0  0  0
   -3.8589    0.9005   -0.2335 H   0  0  0  0  0  0  0  0  0  0  0  0
   -2.6638    2.3172    1.5020 H   0  0  0  0  0  0  0  0  0  0  0  0
   -0.0394    2.5496    1.9304 N   0  0  0  0  0  0  0  0  0  0  0  0
    1.1768    2.5007    1.9442 O   0  0  0  0  0  0  0  0  0  0  0  0
   -0.7740    3.1959    2.6470 O   0  0  0  0  0  0  0  0  0  0  0  0
  1  2  2  0  0  0  0
  1  6  1  0  0  0  0
  2  3  1  0  0  0  0
  3  4  2  0  0  0  0
  4 13  1  0  0  0  0
  5  4  1  0  0  0  0
  5 12  1  0  0  0  0
  6  5  2  0  0  0  0
  7  1  1  0  0  0  0
  8  2  1  0  0  0  0
 10  9  3  0  0  0  0
 11  6  1  0  0  0  0
 13 14  2  0  0  0  0
 13 15  2  0  0  0  0
M  RAD  1   3   2
M  END
