Coordinates from ORCA-job o-NO2-Ph-N2+-B3LYPG-aug-cc-pVDZ-scan-d09-49-n400
 OpenBabel09291715223D

 15 14  0  0  0  0  0  0  0  0999 V2000
   -2.0240    0.1010   -1.0643 C   0  0  0  0  0  0  0  0  0  0  0  0
   -0.5991    0.0652   -1.0219 C   0  0  0  0  0  0  0  0  0  0  0  0
   -0.1737    0.8779   -0.0418 C   0  0  0  0  0  0  0  0  0  0  0  0
   -0.7069    1.7008    0.8935 C   0  0  0  0  0  0  0  0  0  0  0  0
   -2.1138    1.6794    0.7851 C   0  0  0  0  0  0  0  0  0  0  0  0
   -2.7542    0.8935   -0.1763 C   0  0  0  0  0  0  0  0  0  0  0  0
   -2.5120   -0.5173   -1.8197 H   0  0  0  0  0  0  0  0  0  0  0  0
    0.0067   -0.5376   -1.6945 H   0  0  0  0  0  0  0  0  0  0  0  0
    2.0479    0.8204    0.0222 N   0  0  0  0  0  0  0  0  0  0  0  0
    3.1444    0.7166   -0.0349 N   0  0  0  0  0  0  0  0  0  0  0  0
   -3.8420    0.9010   -0.2319 H   0  0  0  0  0  0  0  0  0  0  0  0
   -2.6492    2.3131    1.4980 H   0  0  0  0  0  0  0  0  0  0  0  0
   -0.0247    2.5426    1.9231 N   0  0  0  0  0  0  0  0  0  0  0  0
    1.1933    2.4979    1.9420 O   0  0  0  0  0  0  0  0  0  0  0  0
   -0.7582    3.1898    2.6407 O   0  0  0  0  0  0  0  0  0  0  0  0
  1  2  2  0  0  0  0
  1  6  1  0  0  0  0
  2  3  1  0  0  0  0
  3  4  2  0  0  0  0
  4 13  1  0  0  0  0
  5  4  1  0  0  0  0
  5 12  1  0  0  0  0
  6  5  2  0  0  0  0
  7  1  1  0  0  0  0
  8  2  1  0  0  0  0
 10  9  3  0  0  0  0
 11  6  1  0  0  0  0
 13 14  2  0  0  0  0
 13 15  2  0  0  0  0
M  RAD  1   3   2
M  END
