Coordinates from ORCA-job o-NO2-Ph-N2+-B3LYPG-aug-cc-pVDZ-scan-d09-49-n400
 OpenBabel09291715223D

 15 15  0  0  0  0  0  0  0  0999 V2000
   -1.9762    0.0994   -1.0634 C   0  0  0  0  0  0  0  0  0  0  0  0
   -0.5626    0.0736   -1.0099 C   0  0  0  0  0  0  0  0  0  0  0  0
   -0.0768    0.8823   -0.0310 C   0  0  0  0  0  0  0  0  0  0  0  0
   -0.6882    1.6967    0.8898 C   0  0  0  0  0  0  0  0  0  0  0  0
   -2.0855    1.6810    0.7887 C   0  0  0  0  0  0  0  0  0  0  0  0
   -2.7153    0.8892   -0.1790 C   0  0  0  0  0  0  0  0  0  0  0  0
   -2.4700   -0.5160   -1.8157 H   0  0  0  0  0  0  0  0  0  0  0  0
    0.0437   -0.5290   -1.6821 H   0  0  0  0  0  0  0  0  0  0  0  0
    1.8033    0.8653    0.0604 N   0  0  0  0  0  0  0  0  0  0  0  0
    2.8907    0.7164   -0.0502 N   0  0  0  0  0  0  0  0  0  0  0  0
   -3.8028    0.8916   -0.2405 H   0  0  0  0  0  0  0  0  0  0  0  0
   -2.6425    2.3050    1.4889 H   0  0  0  0  0  0  0  0  0  0  0  0
    0.0006    2.5280    1.9073 N   0  0  0  0  0  0  0  0  0  0  0  0
    1.2252    2.4751    1.9174 O   0  0  0  0  0  0  0  0  0  0  0  0
   -0.7093    3.1857    2.6388 O   0  0  0  0  0  0  0  0  0  0  0  0
  1  2  2  0  0  0  0
  1  6  1  0  0  0  0
  2  3  1  0  0  0  0
  3  9  1  0  0  0  0
  3  4  2  0  0  0  0
  4 13  1  0  0  0  0
  5  4  1  0  0  0  0
  5 12  1  0  0  0  0
  6  5  2  0  0  0  0
  7  1  1  0  0  0  0
  8  2  1  0  0  0  0
 10  9  1  0  0  0  0
 11  6  1  0  0  0  0
 13 14  2  0  0  0  0
 13 15  2  0  0  0  0
M  RAD  2   9   2  10   3
M  END
