Coordinates from ORCA-job o-NO2-Ph-N2+-B3LYPG-aug-cc-pVDZ-scan-d09-49-n400
 OpenBabel09291715223D

 15 15  0  0  0  0  0  0  0  0999 V2000
   -1.9631    0.0995   -1.0625 C   0  0  0  0  0  0  0  0  0  0  0  0
   -0.5536    0.0782   -1.0040 C   0  0  0  0  0  0  0  0  0  0  0  0
   -0.0459    0.8855   -0.0253 C   0  0  0  0  0  0  0  0  0  0  0  0
   -0.6869    1.6956    0.8888 C   0  0  0  0  0  0  0  0  0  0  0  0
   -2.0805    1.6820    0.7903 C   0  0  0  0  0  0  0  0  0  0  0  0
   -2.7063    0.8881   -0.1798 C   0  0  0  0  0  0  0  0  0  0  0  0
   -2.4576   -0.5153   -1.8143 H   0  0  0  0  0  0  0  0  0  0  0  0
    0.0535   -0.5241   -1.6759 H   0  0  0  0  0  0  0  0  0  0  0  0
    1.7440    0.8733    0.0664 N   0  0  0  0  0  0  0  0  0  0  0  0
    2.8291    0.7137   -0.0569 N   0  0  0  0  0  0  0  0  0  0  0  0
   -3.7937    0.8883   -0.2439 H   0  0  0  0  0  0  0  0  0  0  0  0
   -2.6441    2.3031    1.4868 H   0  0  0  0  0  0  0  0  0  0  0  0
    0.0043    2.5238    1.9030 N   0  0  0  0  0  0  0  0  0  0  0  0
    1.2313    2.4668    1.9077 O   0  0  0  0  0  0  0  0  0  0  0  0
   -0.6961    3.1859    2.6392 O   0  0  0  0  0  0  0  0  0  0  0  0
  1  2  2  0  0  0  0
  1  6  1  0  0  0  0
  2  3  1  0  0  0  0
  3  9  1  0  0  0  0
  3  4  2  0  0  0  0
  4 13  1  0  0  0  0
  5  4  1  0  0  0  0
  5 12  1  0  0  0  0
  6  5  2  0  0  0  0
  7  1  1  0  0  0  0
  8  2  1  0  0  0  0
 10  9  1  0  0  0  0
 11  6  1  0  0  0  0
 13 14  2  0  0  0  0
 13 15  2  0  0  0  0
M  RAD  2   9   2  10   3
M  END
