Coordinates from ORCA-job o-NO2-Ph-N2+-B3LYPG-aug-cc-pVDZ-scan-d09-49-n400
 OpenBabel09291715233D

 15 14  0  0  0  0  0  0  0  0999 V2000
   -1.5459    0.3749   -0.7702 C   0  0  0  0  0  0  0  0  0  0  0  0
   -0.4054    0.3864   -0.0304 C   0  0  0  0  0  0  0  0  0  0  0  0
   -0.2626    1.1667    1.1840 C   0  0  0  0  0  0  0  0  0  0  0  0
   -1.6844    2.0170    1.4925 C   0  0  0  0  0  0  0  0  0  0  0  0
   -2.8305    1.9268    0.6306 C   0  0  0  0  0  0  0  0  0  0  0  0
   -2.7481    1.1280   -0.4591 C   0  0  0  0  0  0  0  0  0  0  0  0
   -1.5612   -0.2463   -1.6672 H   0  0  0  0  0  0  0  0  0  0  0  0
    0.4766   -0.1933   -0.3066 H   0  0  0  0  0  0  0  0  0  0  0  0
    3.2853    0.1883   -1.8184 N   0  0  0  0  0  0  0  0  0  0  0  0
    4.2858    0.1381   -2.2824 N   0  0  0  0  0  0  0  0  0  0  0  0
   -3.6025    1.0408   -1.1287 H   0  0  0  0  0  0  0  0  0  0  0  0
   -3.7183    2.5026    0.8877 H   0  0  0  0  0  0  0  0  0  0  0  0
   -1.4296    2.6380    2.5478 N   0  0  0  0  0  0  0  0  0  0  0  0
    0.6362    1.2980    1.9528 O   0  0  0  0  0  0  0  0  0  0  0  0
   -0.6612    2.8782    3.3871 O   0  0  0  0  0  0  0  0  0  0  0  0
  1  6  1  0  0  0  0
  1  2  2  0  0  0  0
  2  3  1  0  0  0  0
  3  4  1  0  0  0  0
  3 14  2  0  0  0  0
  4 13  2  0  0  0  0
  5 12  1  0  0  0  0
  5  4  1  0  0  0  0
  6  5  2  0  0  0  0
  7  1  1  0  0  0  0
  8  2  1  0  0  0  0
 10  9  3  0  0  0  0
 11  6  1  0  0  0  0
 13 15  1  0  0  0  0
M  RAD  1  15   2
M  END
