Coordinates from ORCA-job o-NO2-Ph-N2+-B3LYPG-aug-cc-pVDZ-scan-d09-49-n400
 OpenBabel09291715233D

 15 14  0  0  0  0  0  0  0  0999 V2000
   -2.0923    0.1360   -1.0273 C   0  0  0  0  0  0  0  0  0  0  0  0
   -0.6472    0.1288   -0.9504 C   0  0  0  0  0  0  0  0  0  0  0  0
   -0.3765    0.9600    0.0424 C   0  0  0  0  0  0  0  0  0  0  0  0
   -0.9120    1.7727    0.9658 C   0  0  0  0  0  0  0  0  0  0  0  0
   -2.3161    1.7133    0.8131 C   0  0  0  0  0  0  0  0  0  0  0  0
   -2.8867    0.9026   -0.1733 C   0  0  0  0  0  0  0  0  0  0  0  0
   -2.5152   -0.5049   -1.8054 H   0  0  0  0  0  0  0  0  0  0  0  0
   -0.0017   -0.4577   -1.6014 H   0  0  0  0  0  0  0  0  0  0  0  0
    2.9139    0.5164   -0.2837 N   0  0  0  0  0  0  0  0  0  0  0  0
    4.0165    0.4981   -0.2393 N   0  0  0  0  0  0  0  0  0  0  0  0
   -3.9704    0.8662   -0.2800 H   0  0  0  0  0  0  0  0  0  0  0  0
   -2.8842    2.3379    1.5136 H   0  0  0  0  0  0  0  0  0  0  0  0
   -0.2043    2.6008    1.9807 N   0  0  0  0  0  0  0  0  0  0  0  0
    1.0114    2.5113    1.9469 O   0  0  0  0  0  0  0  0  0  0  0  0
   -0.9007    3.2628    2.7177 O   0  0  0  0  0  0  0  0  0  0  0  0
  1  2  2  0  0  0  0
  1  6  1  0  0  0  0
  2  3  1  0  0  0  0
  3  4  2  0  0  0  0
  4 13  1  0  0  0  0
  5  4  1  0  0  0  0
  5 12  1  0  0  0  0
  6  5  2  0  0  0  0
  7  1  1  0  0  0  0
  8  2  1  0  0  0  0
  9 10  3  0  0  0  0
 11  6  1  0  0  0  0
 13 15  2  0  0  0  0
 14 13  2  0  0  0  0
M  RAD  1   3   2
M  END
