Coordinates from ORCA-job o-NO2-Ph-N2+-B3LYPG-aug-cc-pVDZ-scan-d09-49-n400
 OpenBabel09291715233D

 15 14  0  0  0  0  0  0  0  0999 V2000
   -2.0634    0.1533   -1.0051 C   0  0  0  0  0  0  0  0  0  0  0  0
   -0.6168    0.1768   -0.8922 C   0  0  0  0  0  0  0  0  0  0  0  0
   -0.4068    1.0152    0.1054 C   0  0  0  0  0  0  0  0  0  0  0  0
   -0.9958    1.8148    1.0102 C   0  0  0  0  0  0  0  0  0  0  0  0
   -2.3911    1.7278    0.8257 C   0  0  0  0  0  0  0  0  0  0  0  0
   -2.9055    0.8988   -0.1788 C   0  0  0  0  0  0  0  0  0  0  0  0
   -2.4451   -0.4996   -1.7949 H   0  0  0  0  0  0  0  0  0  0  0  0
    0.0567   -0.3966   -1.5262 H   0  0  0  0  0  0  0  0  0  0  0  0
    3.1098    0.3713   -0.4426 N   0  0  0  0  0  0  0  0  0  0  0  0
    4.2127    0.3336   -0.4211 N   0  0  0  0  0  0  0  0  0  0  0  0
   -3.9833    0.8306   -0.3226 H   0  0  0  0  0  0  0  0  0  0  0  0
   -3.0000    2.3365    1.5050 H   0  0  0  0  0  0  0  0  0  0  0  0
   -0.2918    2.6378    2.0189 N   0  0  0  0  0  0  0  0  0  0  0  0
    0.9272    2.5382    1.9738 O   0  0  0  0  0  0  0  0  0  0  0  0
   -0.9724    3.3058    2.7638 O   0  0  0  0  0  0  0  0  0  0  0  0
  1  2  2  0  0  0  0
  1  6  1  0  0  0  0
  2  3  1  0  0  0  0
  3  4  2  0  0  0  0
  4 13  1  0  0  0  0
  5  4  1  0  0  0  0
  5 12  1  0  0  0  0
  6  5  2  0  0  0  0
  7  1  1  0  0  0  0
  8  2  1  0  0  0  0
  9 10  3  0  0  0  0
 11  6  1  0  0  0  0
 13 15  2  0  0  0  0
 14 13  2  0  0  0  0
M  RAD  1   3   2
M  END
