Coordinates from ORCA-job o-NO2-Ph-N2+-B3LYPG-aug-cc-pVDZ-scan-d09-49-n400
 OpenBabel09291715223D

 15 15  0  0  0  0  0  0  0  0999 V2000
   -1.9357    0.0989   -1.0604 C   0  0  0  0  0  0  0  0  0  0  0  0
   -0.5347    0.0876   -0.9913 C   0  0  0  0  0  0  0  0  0  0  0  0
    0.0226    0.8934   -0.0134 C   0  0  0  0  0  0  0  0  0  0  0  0
   -0.6796    1.6948    0.8853 C   0  0  0  0  0  0  0  0  0  0  0  0
   -2.0659    1.6843    0.7916 C   0  0  0  0  0  0  0  0  0  0  0  0
   -2.6865    0.8858   -0.1815 C   0  0  0  0  0  0  0  0  0  0  0  0
   -2.4299   -0.5165   -1.8113 H   0  0  0  0  0  0  0  0  0  0  0  0
    0.0730   -0.5155   -1.6630 H   0  0  0  0  0  0  0  0  0  0  0  0
    1.6125    0.8770    0.0607 N   0  0  0  0  0  0  0  0  0  0  0  0
    2.6987    0.7119   -0.0690 N   0  0  0  0  0  0  0  0  0  0  0  0
   -3.7739    0.8825   -0.2493 H   0  0  0  0  0  0  0  0  0  0  0  0
   -2.6387    2.3017    1.4822 H   0  0  0  0  0  0  0  0  0  0  0  0
    0.0104    2.5223    1.8965 N   0  0  0  0  0  0  0  0  0  0  0  0
    1.2400    2.4523    1.8985 O   0  0  0  0  0  0  0  0  0  0  0  0
   -0.6780    3.1839    2.6437 O   0  0  0  0  0  0  0  0  0  0  0  0
  1  2  2  0  0  0  0
  1  6  1  0  0  0  0
  2  3  1  0  0  0  0
  3  9  1  0  0  0  0
  3  4  2  0  0  0  0
  4 13  1  0  0  0  0
  5  4  1  0  0  0  0
  5 12  1  0  0  0  0
  6  5  2  0  0  0  0
  7  1  1  0  0  0  0
  8  2  1  0  0  0  0
 10  9  1  0  0  0  0
 11  6  1  0  0  0  0
 13 14  2  0  0  0  0
 13 15  2  0  0  0  0
M  RAD  2   9   2  10   3
M  END
