Coordinates from ORCA-job o-NO2-Ph-N2+-B3LYPG-aug-cc-pVDZ-scan-d09-49-n400
 OpenBabel09291715233D

 15 14  0  0  0  0  0  0  0  0999 V2000
   -1.6885    0.1957   -0.7660 C   0  0  0  0  0  0  0  0  0  0  0  0
   -0.5253    0.1021   -0.0707 C   0  0  0  0  0  0  0  0  0  0  0  0
   -0.2150    0.9470    1.0674 C   0  0  0  0  0  0  0  0  0  0  0  0
   -1.4844    2.0196    1.3562 C   0  0  0  0  0  0  0  0  0  0  0  0
   -2.6735    2.0229    0.5471 C   0  0  0  0  0  0  0  0  0  0  0  0
   -2.7565    1.1362   -0.4719 C   0  0  0  0  0  0  0  0  0  0  0  0
   -1.8347   -0.4823   -1.6083 H   0  0  0  0  0  0  0  0  0  0  0  0
    0.2638   -0.6066   -0.3229 H   0  0  0  0  0  0  0  0  0  0  0  0
    2.9373    0.6522   -1.3406 N   0  0  0  0  0  0  0  0  0  0  0  0
    3.9613    0.8121   -1.7211 N   0  0  0  0  0  0  0  0  0  0  0  0
   -3.6476    1.1198   -1.0977 H   0  0  0  0  0  0  0  0  0  0  0  0
   -3.4596    2.7372    0.7867 H   0  0  0  0  0  0  0  0  0  0  0  0
   -1.0958    2.6824    2.3406 N   0  0  0  0  0  0  0  0  0  0  0  0
    0.7352    1.0022    1.7800 O   0  0  0  0  0  0  0  0  0  0  0  0
   -0.2824    2.9037    3.1406 O   0  0  0  0  0  0  0  0  0  0  0  0
  1  6  1  0  0  0  0
  1  2  2  0  0  0  0
  2  3  1  0  0  0  0
  3  4  1  0  0  0  0
  3 14  2  0  0  0  0
  4 13  2  0  0  0  0
  5 12  1  0  0  0  0
  5  4  1  0  0  0  0
  6  5  2  0  0  0  0
  7  1  1  0  0  0  0
  8  2  1  0  0  0  0
 10  9  3  0  0  0  0
 11  6  1  0  0  0  0
 13 15  1  0  0  0  0
M  RAD  1  15   2
M  END
