Coordinates from ORCA-job o-NO2-Ph-N2+-B3LYPG-aug-cc-pVDZ-scan-d09-49-n400
 OpenBabel09291715223D

 15 15  0  0  0  0  0  0  0  0999 V2000
   -1.8838    0.0977   -1.0723 C   0  0  0  0  0  0  0  0  0  0  0  0
   -0.5101    0.0635   -0.9897 C   0  0  0  0  0  0  0  0  0  0  0  0
    0.2358    0.8659   -0.0042 C   0  0  0  0  0  0  0  0  0  0  0  0
   -0.6154    1.6822    0.8789 C   0  0  0  0  0  0  0  0  0  0  0  0
   -1.9841    1.6883    0.7795 C   0  0  0  0  0  0  0  0  0  0  0  0
   -2.6264    0.9050   -0.1976 C   0  0  0  0  0  0  0  0  0  0  0  0
   -2.3862   -0.5122   -1.8233 H   0  0  0  0  0  0  0  0  0  0  0  0
    0.0982   -0.5594   -1.6473 H   0  0  0  0  0  0  0  0  0  0  0  0
    1.2143    0.8158    0.0232 N   0  0  0  0  0  0  0  0  0  0  0  0
    2.3551    0.7246    0.0191 N   0  0  0  0  0  0  0  0  0  0  0  0
   -3.7143    0.9273   -0.2683 H   0  0  0  0  0  0  0  0  0  0  0  0
   -2.5517    2.3095    1.4711 H   0  0  0  0  0  0  0  0  0  0  0  0
    0.0377    2.5366    1.9055 N   0  0  0  0  0  0  0  0  0  0  0  0
    1.2396    2.7275    1.7559 O   0  0  0  0  0  0  0  0  0  0  0  0
   -0.6745    2.9720    2.7890 O   0  0  0  0  0  0  0  0  0  0  0  0
  1  2  2  0  0  0  0
  1  6  1  0  0  0  0
  2  3  1  0  0  0  0
  3  9  1  0  0  0  0
  3  4  2  0  0  0  0
  4 13  1  0  0  0  0
  5  4  1  0  0  0  0
  5 12  1  0  0  0  0
  6  5  2  0  0  0  0
  7  1  1  0  0  0  0
  8  2  1  0  0  0  0
 10  9  1  0  0  0  0
 11  6  1  0  0  0  0
 13 15  2  0  0  0  0
 14 13  2  0  0  0  0
M  RAD  2   9   2  10   3
M  END
