Coordinates from ORCA-job o-NO2-Ph-N2+-B3LYPG-aug-cc-pVDZ-scan-d09-49-n400
 OpenBabel09291715233D

 15 14  0  0  0  0  0  0  0  0999 V2000
   -2.0676    0.1102   -1.0561 C   0  0  0  0  0  0  0  0  0  0  0  0
   -0.6311    0.0766   -1.0105 C   0  0  0  0  0  0  0  0  0  0  0  0
   -0.2779    0.8971   -0.0256 C   0  0  0  0  0  0  0  0  0  0  0  0
   -0.7692    1.7204    0.9128 C   0  0  0  0  0  0  0  0  0  0  0  0
   -2.1810    1.6876    0.7908 C   0  0  0  0  0  0  0  0  0  0  0  0
   -2.8099    0.8981   -0.1741 C   0  0  0  0  0  0  0  0  0  0  0  0
   -2.5369   -0.5153   -1.8188 H   0  0  0  0  0  0  0  0  0  0  0  0
   -0.0152   -0.5223   -1.6778 H   0  0  0  0  0  0  0  0  0  0  0  0
    2.3901    0.7190   -0.0767 N   0  0  0  0  0  0  0  0  0  0  0  0
    3.4924    0.6753   -0.0626 N   0  0  0  0  0  0  0  0  0  0  0  0
   -3.8974    0.8972   -0.2395 H   0  0  0  0  0  0  0  0  0  0  0  0
   -2.7108    2.3252    1.5087 H   0  0  0  0  0  0  0  0  0  0  0  0
   -0.0786    2.5623    1.9429 N   0  0  0  0  0  0  0  0  0  0  0  0
    1.1357    2.5024    1.9440 O   0  0  0  0  0  0  0  0  0  0  0  0
   -0.8082    3.2104    2.6619 O   0  0  0  0  0  0  0  0  0  0  0  0
  1  2  2  0  0  0  0
  1  6  1  0  0  0  0
  2  3  1  0  0  0  0
  3  4  2  0  0  0  0
  4 13  1  0  0  0  0
  5  4  1  0  0  0  0
  5 12  1  0  0  0  0
  6  5  2  0  0  0  0
  7  1  1  0  0  0  0
  8  2  1  0  0  0  0
  9 10  3  0  0  0  0
 11  6  1  0  0  0  0
 13 14  2  0  0  0  0
 13 15  2  0  0  0  0
M  RAD  1   3   2
M  END
