Coordinates from ORCA-job o-NO2-Ph-N2+-B3LYPG-aug-cc-pVDZ-scan-d09-49-n400
 OpenBabel09291715233D

 15 14  0  0  0  0  0  0  0  0999 V2000
   -2.0908    0.1282   -1.0364 C   0  0  0  0  0  0  0  0  0  0  0  0
   -0.6473    0.1110   -0.9712 C   0  0  0  0  0  0  0  0  0  0  0  0
   -0.3527    0.9391    0.0193 C   0  0  0  0  0  0  0  0  0  0  0  0
   -0.8706    1.7559    0.9485 C   0  0  0  0  0  0  0  0  0  0  0  0
   -2.2775    1.7057    0.8064 C   0  0  0  0  0  0  0  0  0  0  0  0
   -2.8679    0.9020   -0.1729 C   0  0  0  0  0  0  0  0  0  0  0  0
   -2.5285   -0.5081   -1.8099 H   0  0  0  0  0  0  0  0  0  0  0  0
   -0.0121   -0.4799   -1.6281 H   0  0  0  0  0  0  0  0  0  0  0  0
    2.7736    0.5805   -0.2167 N   0  0  0  0  0  0  0  0  0  0  0  0
    3.8762    0.5606   -0.1743 N   0  0  0  0  0  0  0  0  0  0  0  0
   -3.9532    0.8772   -0.2661 H   0  0  0  0  0  0  0  0  0  0  0  0
   -2.8313    2.3355    1.5138 H   0  0  0  0  0  0  0  0  0  0  0  0
   -0.1647    2.5871    1.9669 N   0  0  0  0  0  0  0  0  0  0  0  0
    1.0502    2.5036    1.9402 O   0  0  0  0  0  0  0  0  0  0  0  0
   -0.8691    3.2459    2.6998 O   0  0  0  0  0  0  0  0  0  0  0  0
  1  2  2  0  0  0  0
  1  6  1  0  0  0  0
  2  3  1  0  0  0  0
  3  4  2  0  0  0  0
  4 13  1  0  0  0  0
  5  4  1  0  0  0  0
  5 12  1  0  0  0  0
  6  5  2  0  0  0  0
  7  1  1  0  0  0  0
  8  2  1  0  0  0  0
  9 10  3  0  0  0  0
 11  6  1  0  0  0  0
 13 15  2  0  0  0  0
 14 13  2  0  0  0  0
M  RAD  1   3   2
M  END
