Coordinates from ORCA-job o-NO2-Ph-N2+-B3LYPG-aug-cc-pVDZ-scan-d09-49-n400
 OpenBabel09291715233D

 15 14  0  0  0  0  0  0  0  0999 V2000
   -1.5633    0.3508   -0.7699 C   0  0  0  0  0  0  0  0  0  0  0  0
   -0.4193    0.3491   -0.0356 C   0  0  0  0  0  0  0  0  0  0  0  0
   -0.2561    1.1390    1.1699 C   0  0  0  0  0  0  0  0  0  0  0  0
   -1.6608    2.0188    1.4762 C   0  0  0  0  0  0  0  0  0  0  0  0
   -2.8125    1.9407    0.6204 C   0  0  0  0  0  0  0  0  0  0  0  0
   -2.7499    1.1292   -0.4613 C   0  0  0  0  0  0  0  0  0  0  0  0
   -1.5945   -0.2793   -1.6603 H   0  0  0  0  0  0  0  0  0  0  0  0
    0.4512   -0.2489   -0.3093 H   0  0  0  0  0  0  0  0  0  0  0  0
    3.2437    0.2482   -1.7584 N   0  0  0  0  0  0  0  0  0  0  0  0
    4.2481    0.2223   -2.2160 N   0  0  0  0  0  0  0  0  0  0  0  0
   -3.6089    1.0508   -1.1259 H   0  0  0  0  0  0  0  0  0  0  0  0
   -3.6883    2.5354    0.8755 H   0  0  0  0  0  0  0  0  0  0  0  0
   -1.3897    2.6458    2.5237 N   0  0  0  0  0  0  0  0  0  0  0  0
    0.6485    1.2616    1.9331 O   0  0  0  0  0  0  0  0  0  0  0  0
   -0.6138    2.8809    3.3574 O   0  0  0  0  0  0  0  0  0  0  0  0
  1  6  1  0  0  0  0
  1  2  2  0  0  0  0
  2  3  1  0  0  0  0
  3  4  1  0  0  0  0
  3 14  2  0  0  0  0
  4 13  2  0  0  0  0
  5 12  1  0  0  0  0
  5  4  1  0  0  0  0
  6  5  2  0  0  0  0
  7  1  1  0  0  0  0
  8  2  1  0  0  0  0
 10  9  3  0  0  0  0
 11  6  1  0  0  0  0
 13 15  1  0  0  0  0
M  RAD  1  15   2
M  END
