Coordinates from ORCA-job o-NO2-Ph-N2+-B3LYPG-aug-cc-pVDZ-scan-d09-49-n400
 OpenBabel09291715233D

 15 14  0  0  0  0  0  0  0  0999 V2000
   -2.0920    0.1307   -1.0334 C   0  0  0  0  0  0  0  0  0  0  0  0
   -0.6477    0.1174   -0.9638 C   0  0  0  0  0  0  0  0  0  0  0  0
   -0.3650    0.9467    0.0275 C   0  0  0  0  0  0  0  0  0  0  0  0
   -0.8857    1.7617    0.9544 C   0  0  0  0  0  0  0  0  0  0  0  0
   -2.2920    1.7085    0.8089 C   0  0  0  0  0  0  0  0  0  0  0  0
   -2.8754    0.9022   -0.1731 C   0  0  0  0  0  0  0  0  0  0  0  0
   -2.5244   -0.5072   -1.8086 H   0  0  0  0  0  0  0  0  0  0  0  0
   -0.0078   -0.4715   -1.6180 H   0  0  0  0  0  0  0  0  0  0  0  0
    2.8261    0.5580   -0.2401 N   0  0  0  0  0  0  0  0  0  0  0  0
    3.9287    0.5392   -0.1964 N   0  0  0  0  0  0  0  0  0  0  0  0
   -3.9602    0.8733   -0.2710 H   0  0  0  0  0  0  0  0  0  0  0  0
   -2.8507    2.3366    1.5140 H   0  0  0  0  0  0  0  0  0  0  0  0
   -0.1779    2.5915    1.9713 N   0  0  0  0  0  0  0  0  0  0  0  0
    1.0374    2.5056    1.9418 O   0  0  0  0  0  0  0  0  0  0  0  0
   -0.8789    3.2516    2.7059 O   0  0  0  0  0  0  0  0  0  0  0  0
  1  2  2  0  0  0  0
  1  6  1  0  0  0  0
  2  3  1  0  0  0  0
  3  4  2  0  0  0  0
  4 13  1  0  0  0  0
  5  4  1  0  0  0  0
  5 12  1  0  0  0  0
  6  5  2  0  0  0  0
  7  1  1  0  0  0  0
  8  2  1  0  0  0  0
  9 10  3  0  0  0  0
 11  6  1  0  0  0  0
 13 15  2  0  0  0  0
 14 13  2  0  0  0  0
M  RAD  1   3   2
M  END
