Coordinates from ORCA-job o-NO2-Ph-N2+-B3LYPG-aug-cc-pVDZ-scan-d09-49-n400
 OpenBabel09291715233D

 15 14  0  0  0  0  0  0  0  0999 V2000
   -2.0912    0.1281   -1.0364 C   0  0  0  0  0  0  0  0  0  0  0  0
   -0.6475    0.1116   -0.9705 C   0  0  0  0  0  0  0  0  0  0  0  0
   -0.3569    0.9399    0.0200 C   0  0  0  0  0  0  0  0  0  0  0  0
   -0.8720    1.7562    0.9488 C   0  0  0  0  0  0  0  0  0  0  0  0
   -2.2792    1.7060    0.8067 C   0  0  0  0  0  0  0  0  0  0  0  0
   -2.8690    0.9020   -0.1730 C   0  0  0  0  0  0  0  0  0  0  0  0
   -2.5284   -0.5083   -1.8101 H   0  0  0  0  0  0  0  0  0  0  0  0
   -0.0110   -0.4787   -1.6266 H   0  0  0  0  0  0  0  0  0  0  0  0
    2.7791    0.5789   -0.2182 N   0  0  0  0  0  0  0  0  0  0  0  0
    3.8817    0.5593   -0.1755 N   0  0  0  0  0  0  0  0  0  0  0  0
   -3.9542    0.8769   -0.2665 H   0  0  0  0  0  0  0  0  0  0  0  0
   -2.8333    2.3357    1.5140 H   0  0  0  0  0  0  0  0  0  0  0  0
   -0.1650    2.5871    1.9669 N   0  0  0  0  0  0  0  0  0  0  0  0
    1.0501    2.5034    1.9399 O   0  0  0  0  0  0  0  0  0  0  0  0
   -0.8688    3.2461    2.7000 O   0  0  0  0  0  0  0  0  0  0  0  0
  1  2  2  0  0  0  0
  1  6  1  0  0  0  0
  2  3  1  0  0  0  0
  3  4  2  0  0  0  0
  4 13  1  0  0  0  0
  5  4  1  0  0  0  0
  5 12  1  0  0  0  0
  6  5  2  0  0  0  0
  7  1  1  0  0  0  0
  8  2  1  0  0  0  0
  9 10  3  0  0  0  0
 11  6  1  0  0  0  0
 13 15  2  0  0  0  0
 14 13  2  0  0  0  0
M  RAD  1   3   2
M  END
