Coordinates from ORCA-job o-NO2-Ph-N2+-B3LYPG-aug-cc-pVDZ-scan-d09-49-n400
 OpenBabel09291715223D

 15 14  0  0  0  0  0  0  0  0999 V2000
   -2.0040    0.0999   -1.0644 C   0  0  0  0  0  0  0  0  0  0  0  0
   -0.5839    0.0673   -1.0186 C   0  0  0  0  0  0  0  0  0  0  0  0
   -0.1327    0.8780   -0.0394 C   0  0  0  0  0  0  0  0  0  0  0  0
   -0.6965    1.6982    0.8909 C   0  0  0  0  0  0  0  0  0  0  0  0
   -2.0995    1.6798    0.7863 C   0  0  0  0  0  0  0  0  0  0  0  0
   -2.7365    0.8917   -0.1773 C   0  0  0  0  0  0  0  0  0  0  0  0
   -2.4956   -0.5168   -1.8180 H   0  0  0  0  0  0  0  0  0  0  0  0
    0.0215   -0.5358   -1.6913 H   0  0  0  0  0  0  0  0  0  0  0  0
    1.9383    0.8442    0.0436 N   0  0  0  0  0  0  0  0  0  0  0  0
    3.0309    0.7192   -0.0387 N   0  0  0  0  0  0  0  0  0  0  0  0
   -3.8242    0.8979   -0.2345 H   0  0  0  0  0  0  0  0  0  0  0  0
   -2.6440    2.3093    1.4938 H   0  0  0  0  0  0  0  0  0  0  0  0
   -0.0117    2.5357    1.9155 N   0  0  0  0  0  0  0  0  0  0  0  0
    1.2091    2.4892    1.9331 O   0  0  0  0  0  0  0  0  0  0  0  0
   -0.7368    3.1865    2.6385 O   0  0  0  0  0  0  0  0  0  0  0  0
  1  2  2  0  0  0  0
  1  6  1  0  0  0  0
  2  3  1  0  0  0  0
  3  4  2  0  0  0  0
  4 13  1  0  0  0  0
  5  4  1  0  0  0  0
  5 12  1  0  0  0  0
  6  5  2  0  0  0  0
  7  1  1  0  0  0  0
  8  2  1  0  0  0  0
 10  9  3  0  0  0  0
 11  6  1  0  0  0  0
 13 14  2  0  0  0  0
 13 15  2  0  0  0  0
M  RAD  1   3   2
M  END
