Coordinates from ORCA-job o-NO2-Ph-N2+-B3LYPG-aug-cc-pVDZ-scan-d09-49-n400
 OpenBabel09291715223D

 15 15  0  0  0  0  0  0  0  0999 V2000
   -1.9488    0.0995   -1.0616 C   0  0  0  0  0  0  0  0  0  0  0  0
   -0.5432    0.0829   -0.9979 C   0  0  0  0  0  0  0  0  0  0  0  0
   -0.0134    0.8891   -0.0192 C   0  0  0  0  0  0  0  0  0  0  0  0
   -0.6834    1.6948    0.8878 C   0  0  0  0  0  0  0  0  0  0  0  0
   -2.0736    1.6828    0.7915 C   0  0  0  0  0  0  0  0  0  0  0  0
   -2.6961    0.8868   -0.1807 C   0  0  0  0  0  0  0  0  0  0  0  0
   -2.4434   -0.5152   -1.8132 H   0  0  0  0  0  0  0  0  0  0  0  0
    0.0644   -0.5194   -1.6697 H   0  0  0  0  0  0  0  0  0  0  0  0
    1.6764    0.8774    0.0670 N   0  0  0  0  0  0  0  0  0  0  0  0
    2.7608    0.7121   -0.0630 N   0  0  0  0  0  0  0  0  0  0  0  0
   -3.7834    0.8851   -0.2471 H   0  0  0  0  0  0  0  0  0  0  0  0
   -2.6425    2.3015    1.4848 H   0  0  0  0  0  0  0  0  0  0  0  0
    0.0082    2.5213    1.8999 N   0  0  0  0  0  0  0  0  0  0  0  0
    1.2369    2.4597    1.9004 O   0  0  0  0  0  0  0  0  0  0  0  0
   -0.6846    3.1860    2.6404 O   0  0  0  0  0  0  0  0  0  0  0  0
  1  2  2  0  0  0  0
  1  6  1  0  0  0  0
  2  3  1  0  0  0  0
  3  9  1  0  0  0  0
  3  4  2  0  0  0  0
  4 13  1  0  0  0  0
  5  4  1  0  0  0  0
  5 12  1  0  0  0  0
  6  5  2  0  0  0  0
  7  1  1  0  0  0  0
  8  2  1  0  0  0  0
 10  9  1  0  0  0  0
 11  6  1  0  0  0  0
 13 14  2  0  0  0  0
 13 15  2  0  0  0  0
M  RAD  2   9   2  10   3
M  END
