Coordinates from ORCA-job o-NO2-Ph-N2+-B3LYPG-aug-cc-pVDZ-scan-d09-49-n400
 OpenBabel09291715223D

 15 15  0  0  0  0  0  0  0  0999 V2000
   -1.8826    0.0993   -1.0742 C   0  0  0  0  0  0  0  0  0  0  0  0
   -0.5104    0.0592   -0.9890 C   0  0  0  0  0  0  0  0  0  0  0  0
    0.2428    0.8610   -0.0019 C   0  0  0  0  0  0  0  0  0  0  0  0
   -0.6143    1.6800    0.8801 C   0  0  0  0  0  0  0  0  0  0  0  0
   -1.9821    1.6900    0.7783 C   0  0  0  0  0  0  0  0  0  0  0  0
   -2.6248    0.9097   -0.2011 C   0  0  0  0  0  0  0  0  0  0  0  0
   -2.3858   -0.5092   -1.8258 H   0  0  0  0  0  0  0  0  0  0  0  0
    0.0996   -0.5663   -1.6427 H   0  0  0  0  0  0  0  0  0  0  0  0
    1.2011    0.8104    0.0292 N   0  0  0  0  0  0  0  0  0  0  0  0
    2.3446    0.7219    0.0353 N   0  0  0  0  0  0  0  0  0  0  0  0
   -3.7124    0.9357   -0.2745 H   0  0  0  0  0  0  0  0  0  0  0  0
   -2.5495    2.3114    1.4699 H   0  0  0  0  0  0  0  0  0  0  0  0
    0.0412    2.5323    1.9054 N   0  0  0  0  0  0  0  0  0  0  0  0
    1.2272    2.7786    1.7154 O   0  0  0  0  0  0  0  0  0  0  0  0
   -0.6602    2.9304    2.8150 O   0  0  0  0  0  0  0  0  0  0  0  0
  1  2  2  0  0  0  0
  1  6  1  0  0  0  0
  2  3  1  0  0  0  0
  3  9  1  0  0  0  0
  3  4  2  0  0  0  0
  4 13  1  0  0  0  0
  5  4  1  0  0  0  0
  5 12  1  0  0  0  0
  6  5  2  0  0  0  0
  7  1  1  0  0  0  0
  8  2  1  0  0  0  0
  9 10  1  0  0  0  0
 11  6  1  0  0  0  0
 13 15  2  0  0  0  0
 14 13  2  0  0  0  0
M  RAD  2   9   2  10   3
M  END
