Coordinates from ORCA-job o-NO2-Ph-N2+-B3LYPG-aug-cc-pVDZ-scan-d09-49-n400
 OpenBabel09291715223D

 15 15  0  0  0  0  0  0  0  0999 V2000
   -1.9382    0.0995   -1.0610 C   0  0  0  0  0  0  0  0  0  0  0  0
   -0.5363    0.0870   -0.9927 C   0  0  0  0  0  0  0  0  0  0  0  0
    0.0154    0.8921   -0.0140 C   0  0  0  0  0  0  0  0  0  0  0  0
   -0.6807    1.6936    0.8868 C   0  0  0  0  0  0  0  0  0  0  0  0
   -2.0677    1.6832    0.7923 C   0  0  0  0  0  0  0  0  0  0  0  0
   -2.6885    0.8859   -0.1813 C   0  0  0  0  0  0  0  0  0  0  0  0
   -2.4324   -0.5151   -1.8125 H   0  0  0  0  0  0  0  0  0  0  0  0
    0.0714   -0.5155   -1.6647 H   0  0  0  0  0  0  0  0  0  0  0  0
    1.6253    0.8767    0.0633 N   0  0  0  0  0  0  0  0  0  0  0  0
    2.7109    0.7109   -0.0672 N   0  0  0  0  0  0  0  0  0  0  0  0
   -3.7758    0.8830   -0.2491 H   0  0  0  0  0  0  0  0  0  0  0  0
   -2.6400    2.3004    1.4838 H   0  0  0  0  0  0  0  0  0  0  0  0
    0.0099    2.5198    1.8987 N   0  0  0  0  0  0  0  0  0  0  0  0
    1.2396    2.4560    1.8959 O   0  0  0  0  0  0  0  0  0  0  0  0
   -0.6786    3.1867    2.6411 O   0  0  0  0  0  0  0  0  0  0  0  0
  1  2  2  0  0  0  0
  1  6  1  0  0  0  0
  2  3  1  0  0  0  0
  3  9  1  0  0  0  0
  3  4  2  0  0  0  0
  4 13  1  0  0  0  0
  5  4  1  0  0  0  0
  5 12  1  0  0  0  0
  6  5  2  0  0  0  0
  7  1  1  0  0  0  0
  8  2  1  0  0  0  0
 10  9  1  0  0  0  0
 11  6  1  0  0  0  0
 13 15  2  0  0  0  0
 14 13  2  0  0  0  0
M  RAD  2   9   2  10   3
M  END
