Coordinates from ORCA-job o-NO2-Ph-N2+-B3LYPG-aug-cc-pVDZ-scan-d09-49-n400
 OpenBabel09291715233D

 15 14  0  0  0  0  0  0  0  0999 V2000
   -2.0925    0.1333   -1.0304 C   0  0  0  0  0  0  0  0  0  0  0  0
   -0.6477    0.1233   -0.9568 C   0  0  0  0  0  0  0  0  0  0  0  0
   -0.3730    0.9537    0.0352 C   0  0  0  0  0  0  0  0  0  0  0  0
   -0.8996    1.7673    0.9602 C   0  0  0  0  0  0  0  0  0  0  0  0
   -2.3049    1.7111    0.8111 C   0  0  0  0  0  0  0  0  0  0  0  0
   -2.8817    0.9024   -0.1732 C   0  0  0  0  0  0  0  0  0  0  0  0
   -2.5199   -0.5062   -1.8071 H   0  0  0  0  0  0  0  0  0  0  0  0
   -0.0043   -0.4640   -1.6091 H   0  0  0  0  0  0  0  0  0  0  0  0
    2.8728    0.5366   -0.2624 N   0  0  0  0  0  0  0  0  0  0  0  0
    3.9754    0.5183   -0.2181 N   0  0  0  0  0  0  0  0  0  0  0  0
   -3.9659    0.8697   -0.2757 H   0  0  0  0  0  0  0  0  0  0  0  0
   -2.8684    2.3374    1.5139 H   0  0  0  0  0  0  0  0  0  0  0  0
   -0.1911    2.5961    1.9759 N   0  0  0  0  0  0  0  0  0  0  0  0
    1.0245    2.5081    1.9439 O   0  0  0  0  0  0  0  0  0  0  0  0
   -0.8894    3.2573    2.7119 O   0  0  0  0  0  0  0  0  0  0  0  0
  1  2  2  0  0  0  0
  1  6  1  0  0  0  0
  2  3  1  0  0  0  0
  3  4  2  0  0  0  0
  4 13  1  0  0  0  0
  5  4  1  0  0  0  0
  5 12  1  0  0  0  0
  6  5  2  0  0  0  0
  7  1  1  0  0  0  0
  8  2  1  0  0  0  0
  9 10  3  0  0  0  0
 11  6  1  0  0  0  0
 13 15  2  0  0  0  0
 14 13  2  0  0  0  0
M  RAD  1   3   2
M  END
