Coordinates from ORCA-job o-NO2-Ph-N2+-B3LYPG-aug-cc-pVDZ-scan-d09-49-n400
 OpenBabel09291715223D

 15 15  0  0  0  0  0  0  0  0999 V2000
   -1.9307    0.0994   -1.0607 C   0  0  0  0  0  0  0  0  0  0  0  0
   -0.5314    0.0894   -0.9896 C   0  0  0  0  0  0  0  0  0  0  0  0
    0.0364    0.8936   -0.0109 C   0  0  0  0  0  0  0  0  0  0  0  0
   -0.6771    1.6928    0.8860 C   0  0  0  0  0  0  0  0  0  0  0  0
   -2.0619    1.6832    0.7927 C   0  0  0  0  0  0  0  0  0  0  0  0
   -2.6824    0.8854   -0.1816 C   0  0  0  0  0  0  0  0  0  0  0  0
   -2.4248   -0.5152   -1.8123 H   0  0  0  0  0  0  0  0  0  0  0  0
    0.0761   -0.5134   -1.6620 H   0  0  0  0  0  0  0  0  0  0  0  0
    1.5864    0.8740    0.0578 N   0  0  0  0  0  0  0  0  0  0  0  0
    2.6740    0.7110   -0.0693 N   0  0  0  0  0  0  0  0  0  0  0  0
   -3.7699    0.8821   -0.2498 H   0  0  0  0  0  0  0  0  0  0  0  0
   -2.6357    2.2997    1.4832 H   0  0  0  0  0  0  0  0  0  0  0  0
    0.0112    2.5199    1.8988 N   0  0  0  0  0  0  0  0  0  0  0  0
    1.2412    2.4557    1.8956 O   0  0  0  0  0  0  0  0  0  0  0  0
   -0.6769    3.1869    2.6415 O   0  0  0  0  0  0  0  0  0  0  0  0
  1  2  2  0  0  0  0
  1  6  1  0  0  0  0
  2  3  1  0  0  0  0
  3  9  1  0  0  0  0
  3  4  2  0  0  0  0
  4 13  1  0  0  0  0
  5  4  1  0  0  0  0
  5 12  1  0  0  0  0
  6  5  2  0  0  0  0
  7  1  1  0  0  0  0
  8  2  1  0  0  0  0
 10  9  1  0  0  0  0
 11  6  1  0  0  0  0
 13 15  2  0  0  0  0
 14 13  2  0  0  0  0
M  RAD  2   9   2  10   3
M  END
