Coordinates from ORCA-job o-NO2-Ph-N2+-B3LYPG-aug-cc-pVDZ-scan-d09-49-n400
 OpenBabel09291715223D

 15 15  0  0  0  0  0  0  0  0999 V2000
   -1.8920    0.0953   -1.0650 C   0  0  0  0  0  0  0  0  0  0  0  0
   -0.5107    0.0860   -0.9914 C   0  0  0  0  0  0  0  0  0  0  0  0
    0.1865    0.8846   -0.0098 C   0  0  0  0  0  0  0  0  0  0  0  0
   -0.6285    1.6823    0.8796 C   0  0  0  0  0  0  0  0  0  0  0  0
   -2.0013    1.6776    0.7908 C   0  0  0  0  0  0  0  0  0  0  0  0
   -2.6388    0.8850   -0.1814 C   0  0  0  0  0  0  0  0  0  0  0  0
   -2.3898   -0.5172   -1.8162 H   0  0  0  0  0  0  0  0  0  0  0  0
    0.0936   -0.5201   -1.6670 H   0  0  0  0  0  0  0  0  0  0  0  0
    1.3060    0.8402    0.0059 N   0  0  0  0  0  0  0  0  0  0  0  0
    2.4278    0.7361   -0.0473 N   0  0  0  0  0  0  0  0  0  0  0  0
   -3.7273    0.8900   -0.2425 H   0  0  0  0  0  0  0  0  0  0  0  0
   -2.5698    2.2954    1.4841 H   0  0  0  0  0  0  0  0  0  0  0  0
    0.0263    2.5283    1.9139 N   0  0  0  0  0  0  0  0  0  0  0  0
    1.2531    2.5056    1.9251 O   0  0  0  0  0  0  0  0  0  0  0  0
   -0.7009    3.1753    2.6405 O   0  0  0  0  0  0  0  0  0  0  0  0
  1  2  2  0  0  0  0
  1  6  1  0  0  0  0
  2  3  1  0  0  0  0
  3  9  1  0  0  0  0
  3  4  2  0  0  0  0
  4 13  1  0  0  0  0
  5  4  1  0  0  0  0
  5 12  1  0  0  0  0
  6  5  2  0  0  0  0
  7  1  1  0  0  0  0
  8  2  1  0  0  0  0
 10  9  1  0  0  0  0
 11  6  1  0  0  0  0
 13 14  2  0  0  0  0
 13 15  2  0  0  0  0
M  RAD  2   9   2  10   3
M  END
