Coordinates from ORCA-job o-NO2-Ph-N2+-B3LYPG-aug-cc-pVDZ-scan-d09-49-n400
 OpenBabel09291715223D

 15 15  0  0  0  0  0  0  0  0999 V2000
   -1.8998    0.0963   -1.0626 C   0  0  0  0  0  0  0  0  0  0  0  0
   -0.5137    0.0902   -0.9878 C   0  0  0  0  0  0  0  0  0  0  0  0
    0.1484    0.8902   -0.0083 C   0  0  0  0  0  0  0  0  0  0  0  0
   -0.6419    1.6859    0.8800 C   0  0  0  0  0  0  0  0  0  0  0  0
   -2.0173    1.6801    0.7917 C   0  0  0  0  0  0  0  0  0  0  0  0
   -2.6491    0.8842   -0.1809 C   0  0  0  0  0  0  0  0  0  0  0  0
   -2.3960   -0.5175   -1.8134 H   0  0  0  0  0  0  0  0  0  0  0  0
    0.0895   -0.5155   -1.6638 H   0  0  0  0  0  0  0  0  0  0  0  0
    1.3783    0.8474    0.0143 N   0  0  0  0  0  0  0  0  0  0  0  0
    2.4890    0.7263   -0.0611 N   0  0  0  0  0  0  0  0  0  0  0  0
   -3.7373    0.8855   -0.2440 H   0  0  0  0  0  0  0  0  0  0  0  0
   -2.5884    2.2973    1.4833 H   0  0  0  0  0  0  0  0  0  0  0  0
    0.0204    2.5281    1.9088 N   0  0  0  0  0  0  0  0  0  0  0  0
    1.2480    2.4821    1.9258 O   0  0  0  0  0  0  0  0  0  0  0  0
   -0.6957    3.1838    2.6374 O   0  0  0  0  0  0  0  0  0  0  0  0
  1  2  2  0  0  0  0
  1  6  1  0  0  0  0
  2  3  1  0  0  0  0
  3  9  1  0  0  0  0
  3  4  2  0  0  0  0
  4 13  1  0  0  0  0
  5  4  1  0  0  0  0
  5 12  1  0  0  0  0
  6  5  2  0  0  0  0
  7  1  1  0  0  0  0
  8  2  1  0  0  0  0
 10  9  1  0  0  0  0
 11  6  1  0  0  0  0
 13 14  2  0  0  0  0
 13 15  2  0  0  0  0
M  RAD  2   9   2  10   3
M  END
