Coordinates from ORCA-job o-NO2-Ph-N2+-B3LYPG-aug-cc-pVDZ-scan-d09-49-n400
 OpenBabel09291715233D

 15 14  0  0  0  0  0  0  0  0999 V2000
   -2.0809    0.1162   -1.0498 C   0  0  0  0  0  0  0  0  0  0  0  0
   -0.6414    0.0874   -0.9986 C   0  0  0  0  0  0  0  0  0  0  0  0
   -0.3109    0.9106   -0.0118 C   0  0  0  0  0  0  0  0  0  0  0  0
   -0.8060    1.7319    0.9241 C   0  0  0  0  0  0  0  0  0  0  0  0
   -2.2167    1.6938    0.7960 C   0  0  0  0  0  0  0  0  0  0  0  0
   -2.8341    0.9000   -0.1733 C   0  0  0  0  0  0  0  0  0  0  0  0
   -2.5396   -0.5130   -1.8163 H   0  0  0  0  0  0  0  0  0  0  0  0
   -0.0190   -0.5089   -1.6625 H   0  0  0  0  0  0  0  0  0  0  0  0
    2.5417    0.6707   -0.1245 N   0  0  0  0  0  0  0  0  0  0  0  0
    3.6443    0.6424   -0.0921 N   0  0  0  0  0  0  0  0  0  0  0  0
   -3.9210    0.8916   -0.2473 H   0  0  0  0  0  0  0  0  0  0  0  0
   -2.7521    2.3298    1.5118 H   0  0  0  0  0  0  0  0  0  0  0  0
   -0.1081    2.5698    1.9500 N   0  0  0  0  0  0  0  0  0  0  0  0
    1.1062    2.5000    1.9394 O   0  0  0  0  0  0  0  0  0  0  0  0
   -0.8280    3.2220    2.6742 O   0  0  0  0  0  0  0  0  0  0  0  0
  1  2  2  0  0  0  0
  1  6  1  0  0  0  0
  2  3  1  0  0  0  0
  3  4  2  0  0  0  0
  4 13  1  0  0  0  0
  5  4  1  0  0  0  0
  5 12  1  0  0  0  0
  6  5  2  0  0  0  0
  7  1  1  0  0  0  0
  8  2  1  0  0  0  0
  9 10  3  0  0  0  0
 11  6  1  0  0  0  0
 13 15  2  0  0  0  0
 14 13  2  0  0  0  0
M  RAD  1   3   2
M  END
