Coordinates from ORCA-job o-NO2-Ph-N2+-B3LYPG-aug-cc-pVDZ-scan-d09-49-n400
 OpenBabel09291715233D

 15 14  0  0  0  0  0  0  0  0999 V2000
   -2.0877    0.1223   -1.0430 C   0  0  0  0  0  0  0  0  0  0  0  0
   -0.6458    0.0994   -0.9848 C   0  0  0  0  0  0  0  0  0  0  0  0
   -0.3366    0.9253    0.0040 C   0  0  0  0  0  0  0  0  0  0  0  0
   -0.8405    1.7442    0.9365 C   0  0  0  0  0  0  0  0  0  0  0  0
   -2.2496    1.7002    0.8016 C   0  0  0  0  0  0  0  0  0  0  0  0
   -2.8533    0.9012   -0.1730 C   0  0  0  0  0  0  0  0  0  0  0  0
   -2.5355   -0.5106   -1.8132 H   0  0  0  0  0  0  0  0  0  0  0  0
   -0.0162   -0.4939   -1.6448 H   0  0  0  0  0  0  0  0  0  0  0  0
    2.6686    0.6246   -0.1711 N   0  0  0  0  0  0  0  0  0  0  0  0
    3.7713    0.6015   -0.1325 N   0  0  0  0  0  0  0  0  0  0  0  0
   -3.9394    0.8844   -0.2569 H   0  0  0  0  0  0  0  0  0  0  0  0
   -2.7940    2.3332    1.5134 H   0  0  0  0  0  0  0  0  0  0  0  0
   -0.1368    2.5781    1.9580 N   0  0  0  0  0  0  0  0  0  0  0  0
    1.0777    2.5004    1.9381 O   0  0  0  0  0  0  0  0  0  0  0  0
   -0.8479    3.2341    2.6872 O   0  0  0  0  0  0  0  0  0  0  0  0
  1  2  2  0  0  0  0
  1  6  1  0  0  0  0
  2  3  1  0  0  0  0
  3  4  2  0  0  0  0
  4 13  1  0  0  0  0
  5  4  1  0  0  0  0
  5 12  1  0  0  0  0
  6  5  2  0  0  0  0
  7  1  1  0  0  0  0
  8  2  1  0  0  0  0
  9 10  3  0  0  0  0
 11  6  1  0  0  0  0
 13 15  2  0  0  0  0
 14 13  2  0  0  0  0
M  RAD  1   3   2
M  END
