Coordinates from ORCA-job o-NO2-Ph-N2+-B3LYPG-aug-cc-pVDZ-scan-d09-49-n400
 OpenBabel09291715233D

 15 14  0  0  0  0  0  0  0  0999 V2000
   -1.5475    0.3725   -0.7702 C   0  0  0  0  0  0  0  0  0  0  0  0
   -0.4067    0.3827   -0.0309 C   0  0  0  0  0  0  0  0  0  0  0  0
   -0.2619    1.1640    1.1827 C   0  0  0  0  0  0  0  0  0  0  0  0
   -1.6821    2.0172    1.4909 C   0  0  0  0  0  0  0  0  0  0  0  0
   -2.8287    1.9281    0.6295 C   0  0  0  0  0  0  0  0  0  0  0  0
   -2.7482    1.1281   -0.4594 C   0  0  0  0  0  0  0  0  0  0  0  0
   -1.5644   -0.2496   -1.6666 H   0  0  0  0  0  0  0  0  0  0  0  0
    0.4742   -0.1988   -0.3068 H   0  0  0  0  0  0  0  0  0  0  0  0
    3.2810    0.1942   -1.8125 N   0  0  0  0  0  0  0  0  0  0  0  0
    4.2819    0.1464   -2.2760 N   0  0  0  0  0  0  0  0  0  0  0  0
   -3.6030    1.0418   -1.1285 H   0  0  0  0  0  0  0  0  0  0  0  0
   -3.7154    2.5059    0.8865 H   0  0  0  0  0  0  0  0  0  0  0  0
   -1.4257    2.6388    2.5454 N   0  0  0  0  0  0  0  0  0  0  0  0
    0.6374    1.2944    1.9509 O   0  0  0  0  0  0  0  0  0  0  0  0
   -0.6566    2.8784    3.3843 O   0  0  0  0  0  0  0  0  0  0  0  0
  1  6  1  0  0  0  0
  1  2  2  0  0  0  0
  2  3  1  0  0  0  0
  3  4  1  0  0  0  0
  3 14  2  0  0  0  0
  4 13  2  0  0  0  0
  5 12  1  0  0  0  0
  5  4  1  0  0  0  0
  6  5  2  0  0  0  0
  7  1  1  0  0  0  0
  8  2  1  0  0  0  0
 10  9  3  0  0  0  0
 11  6  1  0  0  0  0
 13 15  1  0  0  0  0
M  RAD  1  15   2
M  END
