Coordinates from ORCA-job o-NO2-Ph-N2+-B3LYPG-aug-cc-pVDZ-scan-d09-49-n400
 OpenBabel09291715233D

 15 14  0  0  0  0  0  0  0  0999 V2000
   -2.0913    0.1299   -1.0344 C   0  0  0  0  0  0  0  0  0  0  0  0
   -0.6474    0.1148   -0.9668 C   0  0  0  0  0  0  0  0  0  0  0  0
   -0.3582    0.9436    0.0243 C   0  0  0  0  0  0  0  0  0  0  0  0
   -0.8797    1.7595    0.9523 C   0  0  0  0  0  0  0  0  0  0  0  0
   -2.2861    1.7074    0.8079 C   0  0  0  0  0  0  0  0  0  0  0  0
   -2.8722    0.9022   -0.1729 C   0  0  0  0  0  0  0  0  0  0  0  0
   -2.5259   -0.5074   -1.8089 H   0  0  0  0  0  0  0  0  0  0  0  0
   -0.0100   -0.4752   -1.6224 H   0  0  0  0  0  0  0  0  0  0  0  0
    2.8050    0.5665   -0.2312 N   0  0  0  0  0  0  0  0  0  0  0  0
    3.9076    0.5473   -0.1881 N   0  0  0  0  0  0  0  0  0  0  0  0
   -3.9572    0.8749   -0.2691 H   0  0  0  0  0  0  0  0  0  0  0  0
   -2.8429    2.3361    1.5139 H   0  0  0  0  0  0  0  0  0  0  0  0
   -0.1732    2.5900    1.9699 N   0  0  0  0  0  0  0  0  0  0  0  0
    1.0418    2.5051    1.9415 O   0  0  0  0  0  0  0  0  0  0  0  0
   -0.8758    3.2495    2.7037 O   0  0  0  0  0  0  0  0  0  0  0  0
  1  2  2  0  0  0  0
  1  6  1  0  0  0  0
  2  3  1  0  0  0  0
  3  4  2  0  0  0  0
  4 13  1  0  0  0  0
  5  4  1  0  0  0  0
  5 12  1  0  0  0  0
  6  5  2  0  0  0  0
  7  1  1  0  0  0  0
  8  2  1  0  0  0  0
  9 10  3  0  0  0  0
 11  6  1  0  0  0  0
 13 15  2  0  0  0  0
 14 13  2  0  0  0  0
M  RAD  1   3   2
M  END
