Coordinates from ORCA-job o-NO2-Ph-N2+-B3LYPG-aug-cc-pVDZ-scan-d09-49-n400
 OpenBabel09291715233D

 15 14  0  0  0  0  0  0  0  0999 V2000
   -2.0598    0.1089   -1.0572 C   0  0  0  0  0  0  0  0  0  0  0  0
   -0.6246    0.0744   -1.0128 C   0  0  0  0  0  0  0  0  0  0  0  0
   -0.2599    0.8938   -0.0283 C   0  0  0  0  0  0  0  0  0  0  0  0
   -0.7580    1.7174    0.9100 C   0  0  0  0  0  0  0  0  0  0  0  0
   -2.1688    1.6860    0.7897 C   0  0  0  0  0  0  0  0  0  0  0  0
   -2.7999    0.8973   -0.1745 C   0  0  0  0  0  0  0  0  0  0  0  0
   -2.5316   -0.5157   -1.8190 H   0  0  0  0  0  0  0  0  0  0  0  0
   -0.0121   -0.5258   -1.6818 H   0  0  0  0  0  0  0  0  0  0  0  0
    2.3292    0.7344   -0.0623 N   0  0  0  0  0  0  0  0  0  0  0  0
    3.4312    0.6836   -0.0565 N   0  0  0  0  0  0  0  0  0  0  0  0
   -3.8874    0.8977   -0.2383 H   0  0  0  0  0  0  0  0  0  0  0  0
   -2.6987    2.3233    1.5072 H   0  0  0  0  0  0  0  0  0  0  0  0
   -0.0696    2.5596    1.9404 N   0  0  0  0  0  0  0  0  0  0  0  0
    1.1448    2.5021    1.9440 O   0  0  0  0  0  0  0  0  0  0  0  0
   -0.8005    3.2073    2.6588 O   0  0  0  0  0  0  0  0  0  0  0  0
  1  2  2  0  0  0  0
  1  6  1  0  0  0  0
  2  3  1  0  0  0  0
  3  4  2  0  0  0  0
  4 13  1  0  0  0  0
  5  4  1  0  0  0  0
  5 12  1  0  0  0  0
  6  5  2  0  0  0  0
  7  1  1  0  0  0  0
  8  2  1  0  0  0  0
  9 10  3  0  0  0  0
 11  6  1  0  0  0  0
 13 14  2  0  0  0  0
 13 15  2  0  0  0  0
M  RAD  1   3   2
M  END
