Coordinates from ORCA-job o-NO2-Ph-N2+-B3LYPG-aug-cc-pVDZ-scan-d09-49-n400
 OpenBabel09291715233D

 15 14  0  0  0  0  0  0  0  0999 V2000
   -1.6652    0.2380   -0.7696 C   0  0  0  0  0  0  0  0  0  0  0  0
   -0.5012    0.1740   -0.0717 C   0  0  0  0  0  0  0  0  0  0  0  0
   -0.2298    1.0075    1.0851 C   0  0  0  0  0  0  0  0  0  0  0  0
   -1.5375    2.0214    1.3895 C   0  0  0  0  0  0  0  0  0  0  0  0
   -2.7223    1.9992    0.5757 C   0  0  0  0  0  0  0  0  0  0  0  0
   -2.7686    1.1318   -0.4623 C   0  0  0  0  0  0  0  0  0  0  0  0
   -1.7827   -0.4288   -1.6254 H   0  0  0  0  0  0  0  0  0  0  0  0
    0.3122   -0.5028   -0.3353 H   0  0  0  0  0  0  0  0  0  0  0  0
    3.0598    0.5316   -1.4466 N   0  0  0  0  0  0  0  0  0  0  0  0
    4.0837    0.6451   -1.8435 N   0  0  0  0  0  0  0  0  0  0  0  0
   -3.6557    1.0956   -1.0929 H   0  0  0  0  0  0  0  0  0  0  0  0
   -3.5349    2.6793    0.8265 H   0  0  0  0  0  0  0  0  0  0  0  0
   -1.1754    2.6751    2.3915 N   0  0  0  0  0  0  0  0  0  0  0  0
    0.7139    1.0825    1.8056 O   0  0  0  0  0  0  0  0  0  0  0  0
   -0.3621    2.8947    3.1927 O   0  0  0  0  0  0  0  0  0  0  0  0
  1  6  1  0  0  0  0
  1  2  2  0  0  0  0
  2  3  1  0  0  0  0
  3  4  1  0  0  0  0
  3 14  2  0  0  0  0
  4 13  2  0  0  0  0
  5 12  1  0  0  0  0
  5  4  1  0  0  0  0
  6  5  2  0  0  0  0
  7  1  1  0  0  0  0
  8  2  1  0  0  0  0
 10  9  3  0  0  0  0
 11  6  1  0  0  0  0
 13 15  1  0  0  0  0
M  RAD  1  15   2
M  END
