Coordinates from ORCA-job o-NO2-Ph-N2+-B3LYPG-aug-cc-pVDZ-scan-d09-49-n400
 OpenBabel09291715233D

 15 14  0  0  0  0  0  0  0  0999 V2000
   -2.0408    0.1607   -0.9952 C   0  0  0  0  0  0  0  0  0  0  0  0
   -0.5953    0.1989   -0.8650 C   0  0  0  0  0  0  0  0  0  0  0  0
   -0.4063    1.0400    0.1346 C   0  0  0  0  0  0  0  0  0  0  0  0
   -1.0253    1.8327    1.0295 C   0  0  0  0  0  0  0  0  0  0  0  0
   -2.4157    1.7321    0.8293 C   0  0  0  0  0  0  0  0  0  0  0  0
   -2.9041    0.8956   -0.1824 C   0  0  0  0  0  0  0  0  0  0  0  0
   -2.4034   -0.4974   -1.7899 H   0  0  0  0  0  0  0  0  0  0  0  0
    0.0913   -0.3681   -1.4907 H   0  0  0  0  0  0  0  0  0  0  0  0
    3.1492    0.3097   -0.5126 N   0  0  0  0  0  0  0  0  0  0  0  0
    4.2518    0.2592   -0.5061 N   0  0  0  0  0  0  0  0  0  0  0  0
   -3.9786    0.8130   -0.3430 H   0  0  0  0  0  0  0  0  0  0  0  0
   -3.0435    2.3327    1.4981 H   0  0  0  0  0  0  0  0  0  0  0  0
   -0.3296    2.6556    2.0376 N   0  0  0  0  0  0  0  0  0  0  0  0
    0.8909    2.5546    1.9909 O   0  0  0  0  0  0  0  0  0  0  0  0
   -1.0062    3.3250    2.7844 O   0  0  0  0  0  0  0  0  0  0  0  0
  1  2  2  0  0  0  0
  1  6  1  0  0  0  0
  2  3  1  0  0  0  0
  3  4  2  0  0  0  0
  4 13  1  0  0  0  0
  5  4  1  0  0  0  0
  5 12  1  0  0  0  0
  6  5  2  0  0  0  0
  7  1  1  0  0  0  0
  8  2  1  0  0  0  0
  9 10  3  0  0  0  0
 11  6  1  0  0  0  0
 13 15  2  0  0  0  0
 14 13  2  0  0  0  0
M  RAD  1   3   2
M  END
