Coordinates from ORCA-job o-NO2-Ph-N2+-B3LYPG-aug-cc-pVDZ-scan-d09-49-n400
 OpenBabel09291715233D

 15 14  0  0  0  0  0  0  0  0999 V2000
   -2.0819    0.1458   -1.0152 C   0  0  0  0  0  0  0  0  0  0  0  0
   -0.6354    0.1541   -0.9200 C   0  0  0  0  0  0  0  0  0  0  0  0
   -0.3986    0.9893    0.0755 C   0  0  0  0  0  0  0  0  0  0  0  0
   -0.9606    1.7954    0.9896 C   0  0  0  0  0  0  0  0  0  0  0  0
   -2.3603    1.7220    0.8207 C   0  0  0  0  0  0  0  0  0  0  0  0
   -2.9016    0.9015   -0.1755 C   0  0  0  0  0  0  0  0  0  0  0  0
   -2.4833   -0.5016   -1.7996 H   0  0  0  0  0  0  0  0  0  0  0  0
    0.0249   -0.4256   -1.5621 H   0  0  0  0  0  0  0  0  0  0  0  0
    3.0452    0.4354   -0.3711 N   0  0  0  0  0  0  0  0  0  0  0  0
    4.1481    0.4100   -0.3351 N   0  0  0  0  0  0  0  0  0  0  0  0
   -3.9824    0.8483   -0.3018 H   0  0  0  0  0  0  0  0  0  0  0  0
   -2.9496    2.3386    1.5105 H   0  0  0  0  0  0  0  0  0  0  0  0
   -0.2534    2.6204    2.0008 N   0  0  0  0  0  0  0  0  0  0  0  0
    0.9640    2.5250    1.9604 O   0  0  0  0  0  0  0  0  0  0  0  0
   -0.9410    3.2857    2.7423 O   0  0  0  0  0  0  0  0  0  0  0  0
  1  2  2  0  0  0  0
  1  6  1  0  0  0  0
  2  3  1  0  0  0  0
  3  4  2  0  0  0  0
  4 13  1  0  0  0  0
  5  4  1  0  0  0  0
  5 12  1  0  0  0  0
  6  5  2  0  0  0  0
  7  1  1  0  0  0  0
  8  2  1  0  0  0  0
  9 10  3  0  0  0  0
 11  6  1  0  0  0  0
 13 15  2  0  0  0  0
 14 13  2  0  0  0  0
M  RAD  1   3   2
M  END
