Coordinates from ORCA-job o-NO2-Ph-N2+-B3LYPG-aug-cc-pVDZ-scan-d09-49-n400
 OpenBabel09291715223D

 15 15  0  0  0  0  0  0  0  0999 V2000
   -1.8869    0.0957   -1.0687 C   0  0  0  0  0  0  0  0  0  0  0  0
   -0.5102    0.0741   -0.9915 C   0  0  0  0  0  0  0  0  0  0  0  0
    0.2191    0.8761   -0.0093 C   0  0  0  0  0  0  0  0  0  0  0  0
   -0.6190    1.6831    0.8782 C   0  0  0  0  0  0  0  0  0  0  0  0
   -1.9892    1.6828    0.7844 C   0  0  0  0  0  0  0  0  0  0  0  0
   -2.6308    0.8949   -0.1894 C   0  0  0  0  0  0  0  0  0  0  0  0
   -2.3872   -0.5161   -1.8191 H   0  0  0  0  0  0  0  0  0  0  0  0
    0.0966   -0.5408   -1.6576 H   0  0  0  0  0  0  0  0  0  0  0  0
    1.2480    0.8271    0.0107 N   0  0  0  0  0  0  0  0  0  0  0  0
    2.3815    0.7300   -0.0150 N   0  0  0  0  0  0  0  0  0  0  0  0
   -3.7192    0.9089   -0.2541 H   0  0  0  0  0  0  0  0  0  0  0  0
   -2.5565    2.3022    1.4775 H   0  0  0  0  0  0  0  0  0  0  0  0
    0.0322    2.5353    1.9103 N   0  0  0  0  0  0  0  0  0  0  0  0
    1.2541    2.6157    1.8455 O   0  0  0  0  0  0  0  0  0  0  0  0
   -0.6983    3.0753    2.7173 O   0  0  0  0  0  0  0  0  0  0  0  0
  1  2  2  0  0  0  0
  1  6  1  0  0  0  0
  2  3  1  0  0  0  0
  3  9  1  0  0  0  0
  3  4  2  0  0  0  0
  4 13  1  0  0  0  0
  5  4  1  0  0  0  0
  5 12  1  0  0  0  0
  6  5  2  0  0  0  0
  7  1  1  0  0  0  0
  8  2  1  0  0  0  0
 10  9  1  0  0  0  0
 11  6  1  0  0  0  0
 13 15  2  0  0  0  0
 14 13  2  0  0  0  0
M  RAD  2   9   2  10   3
M  END
