Coordinates from ORCA-job o-NO2-Ph-N2+-B3LYPG-aug-cc-pVDZ-scan-d09-49-n400
 OpenBabel09291715223D

 15 15  0  0  0  0  0  0  0  0999 V2000
   -1.8853    0.0962   -1.0699 C   0  0  0  0  0  0  0  0  0  0  0  0
   -0.5095    0.0708   -0.9912 C   0  0  0  0  0  0  0  0  0  0  0  0
    0.2253    0.8725   -0.0075 C   0  0  0  0  0  0  0  0  0  0  0  0
   -0.6171    1.6827    0.8787 C   0  0  0  0  0  0  0  0  0  0  0  0
   -1.9869    1.6842    0.7831 C   0  0  0  0  0  0  0  0  0  0  0  0
   -2.6287    0.8977   -0.1917 C   0  0  0  0  0  0  0  0  0  0  0  0
   -2.3864   -0.5148   -1.8206 H   0  0  0  0  0  0  0  0  0  0  0  0
    0.0973   -0.5465   -1.6551 H   0  0  0  0  0  0  0  0  0  0  0  0
    1.2342    0.8234    0.0142 N   0  0  0  0  0  0  0  0  0  0  0  0
    2.3702    0.7280   -0.0056 N   0  0  0  0  0  0  0  0  0  0  0  0
   -3.7170    0.9143   -0.2582 H   0  0  0  0  0  0  0  0  0  0  0  0
   -2.5543    2.3041    1.4757 H   0  0  0  0  0  0  0  0  0  0  0  0
    0.0341    2.5362    1.9093 N   0  0  0  0  0  0  0  0  0  0  0  0
    1.2517    2.6498    1.8191 O   0  0  0  0  0  0  0  0  0  0  0  0
   -0.6932    3.0454    2.7391 O   0  0  0  0  0  0  0  0  0  0  0  0
  1  2  2  0  0  0  0
  1  6  1  0  0  0  0
  2  3  1  0  0  0  0
  3  9  1  0  0  0  0
  3  4  2  0  0  0  0
  4 13  1  0  0  0  0
  5  4  1  0  0  0  0
  5 12  1  0  0  0  0
  6  5  2  0  0  0  0
  7  1  1  0  0  0  0
  8  2  1  0  0  0  0
 10  9  1  0  0  0  0
 11  6  1  0  0  0  0
 13 15  2  0  0  0  0
 14 13  2  0  0  0  0
M  RAD  2   9   2  10   3
M  END
