Coordinates from ORCA-job o-NO2-Ph-N2+-B3LYPG-aug-cc-pVDZ-scan-d09-49-n400
 OpenBabel09291715233D

 15 14  0  0  0  0  0  0  0  0999 V2000
   -2.0667    0.1102   -1.0560 C   0  0  0  0  0  0  0  0  0  0  0  0
   -0.6303    0.0762   -1.0111 C   0  0  0  0  0  0  0  0  0  0  0  0
   -0.2739    0.8967   -0.0258 C   0  0  0  0  0  0  0  0  0  0  0  0
   -0.7680    1.7204    0.9129 C   0  0  0  0  0  0  0  0  0  0  0  0
   -2.1796    1.6875    0.7907 C   0  0  0  0  0  0  0  0  0  0  0  0
   -2.8087    0.8981   -0.1740 C   0  0  0  0  0  0  0  0  0  0  0  0
   -2.5364   -0.5151   -1.8186 H   0  0  0  0  0  0  0  0  0  0  0  0
   -0.0156   -0.5232   -1.6790 H   0  0  0  0  0  0  0  0  0  0  0  0
    2.3842    0.7200   -0.0759 N   0  0  0  0  0  0  0  0  0  0  0  0
    3.4865    0.6757   -0.0625 N   0  0  0  0  0  0  0  0  0  0  0  0
   -3.8962    0.8973   -0.2393 H   0  0  0  0  0  0  0  0  0  0  0  0
   -2.7096    2.3249    1.5084 H   0  0  0  0  0  0  0  0  0  0  0  0
   -0.0784    2.5625    1.9432 N   0  0  0  0  0  0  0  0  0  0  0  0
    1.1357    2.5028    1.9444 O   0  0  0  0  0  0  0  0  0  0  0  0
   -0.8085    3.2104    2.6619 O   0  0  0  0  0  0  0  0  0  0  0  0
  1  2  2  0  0  0  0
  1  6  1  0  0  0  0
  2  3  1  0  0  0  0
  3  4  2  0  0  0  0
  4 13  1  0  0  0  0
  5  4  1  0  0  0  0
  5 12  1  0  0  0  0
  6  5  2  0  0  0  0
  7  1  1  0  0  0  0
  8  2  1  0  0  0  0
  9 10  3  0  0  0  0
 11  6  1  0  0  0  0
 13 14  2  0  0  0  0
 13 15  2  0  0  0  0
M  RAD  1   3   2
M  END
