Coordinates from ORCA-job o-NO2-Ph-N2+-B3LYPG-aug-cc-pVDZ-scan-d09-49-n400
 OpenBabel09291715233D

 15 14  0  0  0  0  0  0  0  0999 V2000
   -1.5615    0.3532   -0.7700 C   0  0  0  0  0  0  0  0  0  0  0  0
   -0.4178    0.3528   -0.0351 C   0  0  0  0  0  0  0  0  0  0  0  0
   -0.2567    1.1418    1.1714 C   0  0  0  0  0  0  0  0  0  0  0  0
   -1.6632    2.0186    1.4778 C   0  0  0  0  0  0  0  0  0  0  0  0
   -2.8143    1.9393    0.6214 C   0  0  0  0  0  0  0  0  0  0  0  0
   -2.7497    1.1291   -0.4611 C   0  0  0  0  0  0  0  0  0  0  0  0
   -1.5910   -0.2760   -1.6610 H   0  0  0  0  0  0  0  0  0  0  0  0
    0.4538   -0.2433   -0.3090 H   0  0  0  0  0  0  0  0  0  0  0  0
    3.2477    0.2422   -1.7645 N   0  0  0  0  0  0  0  0  0  0  0  0
    4.2518    0.2137   -2.2228 N   0  0  0  0  0  0  0  0  0  0  0  0
   -3.6082    1.0498   -1.1263 H   0  0  0  0  0  0  0  0  0  0  0  0
   -3.6914    2.5321    0.8767 H   0  0  0  0  0  0  0  0  0  0  0  0
   -1.3938    2.6450    2.5261 N   0  0  0  0  0  0  0  0  0  0  0  0
    0.6472    1.2653    1.9352 O   0  0  0  0  0  0  0  0  0  0  0  0
   -0.6187    2.8806    3.3605 O   0  0  0  0  0  0  0  0  0  0  0  0
  1  6  1  0  0  0  0
  1  2  2  0  0  0  0
  2  3  1  0  0  0  0
  3  4  1  0  0  0  0
  3 14  2  0  0  0  0
  4 13  2  0  0  0  0
  5 12  1  0  0  0  0
  5  4  1  0  0  0  0
  6  5  2  0  0  0  0
  7  1  1  0  0  0  0
  8  2  1  0  0  0  0
 10  9  3  0  0  0  0
 11  6  1  0  0  0  0
 13 15  1  0  0  0  0
M  RAD  1  15   2
M  END
