Coordinates from ORCA-job o-NO2-Ph-N2+-B3LYPG-aug-cc-pVDZ-scan-d09-49-n400
 OpenBabel09291715223D

 15 15  0  0  0  0  0  0  0  0999 V2000
   -1.9573    0.0994   -1.0621 C   0  0  0  0  0  0  0  0  0  0  0  0
   -0.5492    0.0799   -1.0018 C   0  0  0  0  0  0  0  0  0  0  0  0
   -0.0336    0.8869   -0.0231 C   0  0  0  0  0  0  0  0  0  0  0  0
   -0.6853    1.6954    0.8884 C   0  0  0  0  0  0  0  0  0  0  0  0
   -2.0777    1.6824    0.7907 C   0  0  0  0  0  0  0  0  0  0  0  0
   -2.7021    0.8876   -0.1802 C   0  0  0  0  0  0  0  0  0  0  0  0
   -2.4519   -0.5154   -1.8138 H   0  0  0  0  0  0  0  0  0  0  0  0
    0.0582   -0.5224   -1.6736 H   0  0  0  0  0  0  0  0  0  0  0  0
    1.7161    0.8755    0.0671 N   0  0  0  0  0  0  0  0  0  0  0  0
    2.8008    0.7133   -0.0592 N   0  0  0  0  0  0  0  0  0  0  0  0
   -3.7894    0.8870   -0.2452 H   0  0  0  0  0  0  0  0  0  0  0  0
   -2.6434    2.3025    1.4859 H   0  0  0  0  0  0  0  0  0  0  0  0
    0.0062    2.5228    1.9016 N   0  0  0  0  0  0  0  0  0  0  0  0
    1.2339    2.4637    1.9049 O   0  0  0  0  0  0  0  0  0  0  0  0
   -0.6911    3.1857    2.6398 O   0  0  0  0  0  0  0  0  0  0  0  0
  1  2  2  0  0  0  0
  1  6  1  0  0  0  0
  2  3  1  0  0  0  0
  3  9  1  0  0  0  0
  3  4  2  0  0  0  0
  4 13  1  0  0  0  0
  5  4  1  0  0  0  0
  5 12  1  0  0  0  0
  6  5  2  0  0  0  0
  7  1  1  0  0  0  0
  8  2  1  0  0  0  0
 10  9  1  0  0  0  0
 11  6  1  0  0  0  0
 13 14  2  0  0  0  0
 13 15  2  0  0  0  0
M  RAD  2   9   2  10   3
M  END
