Coordinates from ORCA-job o-NO2-Ph-N2+-B3LYPG-aug-cc-pVDZ-scan-d09-49-n400
 OpenBabel09291715233D

 15 14  0  0  0  0  0  0  0  0999 V2000
   -2.0918    0.1316   -1.0324 C   0  0  0  0  0  0  0  0  0  0  0  0
   -0.6475    0.1187   -0.9623 C   0  0  0  0  0  0  0  0  0  0  0  0
   -0.3636    0.9482    0.0293 C   0  0  0  0  0  0  0  0  0  0  0  0
   -0.8889    1.7632    0.9560 C   0  0  0  0  0  0  0  0  0  0  0  0
   -2.2946    1.7091    0.8094 C   0  0  0  0  0  0  0  0  0  0  0  0
   -2.8764    0.9023   -0.1730 C   0  0  0  0  0  0  0  0  0  0  0  0
   -2.5231   -0.5067   -1.8079 H   0  0  0  0  0  0  0  0  0  0  0  0
   -0.0079   -0.4703   -1.6166 H   0  0  0  0  0  0  0  0  0  0  0  0
    2.8362    0.5525   -0.2459 N   0  0  0  0  0  0  0  0  0  0  0  0
    3.9388    0.5337   -0.2022 N   0  0  0  0  0  0  0  0  0  0  0  0
   -3.9611    0.8725   -0.2721 H   0  0  0  0  0  0  0  0  0  0  0  0
   -2.8546    2.3367    1.5139 H   0  0  0  0  0  0  0  0  0  0  0  0
   -0.1819    2.5930    1.9728 N   0  0  0  0  0  0  0  0  0  0  0  0
    1.0333    2.5067    1.9428 O   0  0  0  0  0  0  0  0  0  0  0  0
   -0.8827    3.2532    2.7076 O   0  0  0  0  0  0  0  0  0  0  0  0
  1  2  2  0  0  0  0
  1  6  1  0  0  0  0
  2  3  1  0  0  0  0
  3  4  2  0  0  0  0
  4 13  1  0  0  0  0
  5  4  1  0  0  0  0
  5 12  1  0  0  0  0
  6  5  2  0  0  0  0
  7  1  1  0  0  0  0
  8  2  1  0  0  0  0
  9 10  3  0  0  0  0
 11  6  1  0  0  0  0
 13 15  2  0  0  0  0
 14 13  2  0  0  0  0
M  RAD  1   3   2
M  END
