Coordinates from ORCA-job o-NO2-Ph-N2+-B3LYPG-aug-cc-pVDZ-scan-d09-49-n400
 OpenBabel09291715233D

 15 14  0  0  0  0  0  0  0  0999 V2000
   -1.6881    0.1973   -0.7661 C   0  0  0  0  0  0  0  0  0  0  0  0
   -0.5249    0.1048   -0.0708 C   0  0  0  0  0  0  0  0  0  0  0  0
   -0.2160    0.9493    1.0680 C   0  0  0  0  0  0  0  0  0  0  0  0
   -1.4866    2.0197    1.3576 C   0  0  0  0  0  0  0  0  0  0  0  0
   -2.6758    2.0220    0.5484 C   0  0  0  0  0  0  0  0  0  0  0  0
   -2.7574    1.1360   -0.4713 C   0  0  0  0  0  0  0  0  0  0  0  0
   -1.8333   -0.4803   -1.6090 H   0  0  0  0  0  0  0  0  0  0  0  0
    0.2654   -0.6025   -0.3234 H   0  0  0  0  0  0  0  0  0  0  0  0
    2.9443    0.6470   -1.3451 N   0  0  0  0  0  0  0  0  0  0  0  0
    3.9683    0.8060   -1.7260 N   0  0  0  0  0  0  0  0  0  0  0  0
   -3.6485    1.1189   -1.0972 H   0  0  0  0  0  0  0  0  0  0  0  0
   -3.4629    2.7351    0.7886 H   0  0  0  0  0  0  0  0  0  0  0  0
   -1.0990    2.6822    2.3426 N   0  0  0  0  0  0  0  0  0  0  0  0
    0.7342    1.0054    1.7807 O   0  0  0  0  0  0  0  0  0  0  0  0
   -0.2854    2.9034    3.1424 O   0  0  0  0  0  0  0  0  0  0  0  0
  1  6  1  0  0  0  0
  1  2  2  0  0  0  0
  2  3  1  0  0  0  0
  3  4  1  0  0  0  0
  3 14  2  0  0  0  0
  4 13  2  0  0  0  0
  5 12  1  0  0  0  0
  5  4  1  0  0  0  0
  6  5  2  0  0  0  0
  7  1  1  0  0  0  0
  8  2  1  0  0  0  0
 10  9  3  0  0  0  0
 11  6  1  0  0  0  0
 13 15  1  0  0  0  0
M  RAD  1  15   2
M  END
