Coordinates from ORCA-job o-NO2-Ph-N2+-B3LYPG-aug-cc-pVDZ-scan-d09-49-n400
 OpenBabel09291715233D

 15 14  0  0  0  0  0  0  0  0999 V2000
   -1.5852    0.3240   -0.7695 C   0  0  0  0  0  0  0  0  0  0  0  0
   -0.4366    0.3075   -0.0425 C   0  0  0  0  0  0  0  0  0  0  0  0
   -0.2491    1.1080    1.1523 C   0  0  0  0  0  0  0  0  0  0  0  0
   -1.6338    2.0203    1.4571 C   0  0  0  0  0  0  0  0  0  0  0  0
   -2.7924    1.9557    0.6095 C   0  0  0  0  0  0  0  0  0  0  0  0
   -2.7535    1.1304   -0.4627 C   0  0  0  0  0  0  0  0  0  0  0  0
   -1.6353   -0.3159   -1.6519 H   0  0  0  0  0  0  0  0  0  0  0  0
    0.4202   -0.3107   -0.3140 H   0  0  0  0  0  0  0  0  0  0  0  0
    3.2007    0.3154   -1.6893 N   0  0  0  0  0  0  0  0  0  0  0  0
    4.2099    0.3183   -2.1370 N   0  0  0  0  0  0  0  0  0  0  0  0
   -3.6183    1.0618   -1.1209 H   0  0  0  0  0  0  0  0  0  0  0  0
   -3.6541    2.5714    0.8629 H   0  0  0  0  0  0  0  0  0  0  0  0
   -1.3431    2.6539    2.4952 N   0  0  0  0  0  0  0  0  0  0  0  0
    0.6627    1.2209    1.9084 O   0  0  0  0  0  0  0  0  0  0  0  0
   -0.5578    2.8834    3.3218 O   0  0  0  0  0  0  0  0  0  0  0  0
  1  6  1  0  0  0  0
  1  2  2  0  0  0  0
  2  3  1  0  0  0  0
  3  4  1  0  0  0  0
  3 14  2  0  0  0  0
  4 13  2  0  0  0  0
  5 12  1  0  0  0  0
  5  4  1  0  0  0  0
  6  5  2  0  0  0  0
  7  1  1  0  0  0  0
  8  2  1  0  0  0  0
 10  9  3  0  0  0  0
 11  6  1  0  0  0  0
 13 15  1  0  0  0  0
M  RAD  1  15   2
M  END
