Coordinates from ORCA-job o-NO2-Ph-N2+-B3LYPG-aug-cc-pVDZ-scan-d09-49-n400
 OpenBabel09291715223D

 15 15  0  0  0  0  0  0  0  0999 V2000
   -1.9250    0.0988   -1.0603 C   0  0  0  0  0  0  0  0  0  0  0  0
   -0.5279    0.0908   -0.9874 C   0  0  0  0  0  0  0  0  0  0  0  0
    0.0543    0.8949   -0.0092 C   0  0  0  0  0  0  0  0  0  0  0  0
   -0.6734    1.6927    0.8844 C   0  0  0  0  0  0  0  0  0  0  0  0
   -2.0564    1.6837    0.7923 C   0  0  0  0  0  0  0  0  0  0  0  0
   -2.6774    0.8851   -0.1817 C   0  0  0  0  0  0  0  0  0  0  0  0
   -2.4189   -0.5163   -1.8114 H   0  0  0  0  0  0  0  0  0  0  0  0
    0.0791   -0.5126   -1.6600 H   0  0  0  0  0  0  0  0  0  0  0  0
    1.5544    0.8710    0.0512 N   0  0  0  0  0  0  0  0  0  0  0  0
    2.6444    0.7122   -0.0709 N   0  0  0  0  0  0  0  0  0  0  0  0
   -3.7649    0.8817   -0.2498 H   0  0  0  0  0  0  0  0  0  0  0  0
   -2.6308    2.3002    1.4821 H   0  0  0  0  0  0  0  0  0  0  0  0
    0.0122    2.5220    1.8982 N   0  0  0  0  0  0  0  0  0  0  0  0
    1.2420    2.4549    1.8989 O   0  0  0  0  0  0  0  0  0  0  0  0
   -0.6774    3.1852    2.6431 O   0  0  0  0  0  0  0  0  0  0  0  0
  1  2  2  0  0  0  0
  1  6  1  0  0  0  0
  2  3  1  0  0  0  0
  3  9  1  0  0  0  0
  3  4  2  0  0  0  0
  4 13  1  0  0  0  0
  5  4  1  0  0  0  0
  5 12  1  0  0  0  0
  6  5  2  0  0  0  0
  7  1  1  0  0  0  0
  8  2  1  0  0  0  0
 10  9  1  0  0  0  0
 11  6  1  0  0  0  0
 13 14  2  0  0  0  0
 13 15  2  0  0  0  0
M  RAD  2   9   2  10   3
M  END
