Coordinates from ORCA-job o-NO2-Ph-N2+-B3LYPG-aug-cc-pVDZ-scan-d09-49-n400
 OpenBabel09291715233D

 15 14  0  0  0  0  0  0  0  0999 V2000
   -1.5832    0.3264   -0.7695 C   0  0  0  0  0  0  0  0  0  0  0  0
   -0.4350    0.3112   -0.0418 C   0  0  0  0  0  0  0  0  0  0  0  0
   -0.2497    1.1108    1.1540 C   0  0  0  0  0  0  0  0  0  0  0  0
   -1.6363    2.0202    1.4589 C   0  0  0  0  0  0  0  0  0  0  0  0
   -2.7942    1.9544    0.6105 C   0  0  0  0  0  0  0  0  0  0  0  0
   -2.7531    1.1303   -0.4626 C   0  0  0  0  0  0  0  0  0  0  0  0
   -1.6314   -0.3126   -1.6527 H   0  0  0  0  0  0  0  0  0  0  0  0
    0.4231   -0.3051   -0.3135 H   0  0  0  0  0  0  0  0  0  0  0  0
    3.2045    0.3093   -1.6957 N   0  0  0  0  0  0  0  0  0  0  0  0
    4.2133    0.3095   -2.1444 N   0  0  0  0  0  0  0  0  0  0  0  0
   -3.6173    1.0608   -1.1215 H   0  0  0  0  0  0  0  0  0  0  0  0
   -3.6573    2.5682    0.8640 H   0  0  0  0  0  0  0  0  0  0  0  0
   -1.3474    2.6532    2.4979 N   0  0  0  0  0  0  0  0  0  0  0  0
    0.6614    1.2246    1.9107 O   0  0  0  0  0  0  0  0  0  0  0  0
   -0.5630    2.8832    3.3251 O   0  0  0  0  0  0  0  0  0  0  0  0
  1  6  1  0  0  0  0
  1  2  2  0  0  0  0
  2  3  1  0  0  0  0
  3  4  1  0  0  0  0
  3 14  2  0  0  0  0
  4 13  2  0  0  0  0
  5 12  1  0  0  0  0
  5  4  1  0  0  0  0
  6  5  2  0  0  0  0
  7  1  1  0  0  0  0
  8  2  1  0  0  0  0
 10  9  3  0  0  0  0
 11  6  1  0  0  0  0
 13 15  1  0  0  0  0
M  RAD  1  15   2
M  END
