Coordinates from ORCA-job 1f-Schema5-R6-D+-B3LYPG-6-31G_dp-scan-d49-09-n400
 OpenBabel08231810253D

 31 31  0  0  0  0  0  0  0  0999 V2000
   -4.0047   -0.6469   -3.0041 C   0  0  0  0  0  0  0  0  0  0  0  0
   -2.8383   -0.3540   -2.2748 C   0  0  0  0  0  0  0  0  0  0  0  0
   -3.0783    0.3578   -1.0920 C   0  0  0  0  0  0  0  0  0  0  0  0
   -4.3410    0.7737   -0.5737 C   0  0  0  0  0  0  0  0  0  0  0  0
   -5.4383    0.4292   -1.3462 C   0  0  0  0  0  0  0  0  0  0  0  0
   -5.2714   -0.2738   -2.5533 C   0  0  0  0  0  0  0  0  0  0  0  0
   -3.9299   -1.1797   -3.9497 H   0  0  0  0  0  0  0  0  0  0  0  0
   -1.9075    0.6703   -0.4104 N   0  0  0  0  0  0  0  0  0  0  0  0
   -0.9116    0.8759    0.0461 N   0  0  0  0  0  0  0  0  0  0  0  0
   -6.1514   -0.5237   -3.1399 H   0  0  0  0  0  0  0  0  0  0  0  0
   -6.4216    0.7219   -0.9956 H   0  0  0  0  0  0  0  0  0  0  0  0
   -0.3590   -0.0918   -3.1257 N   0  0  0  0  0  0  0  0  0  0  0  0
   -0.0390   -0.9409   -3.8065 N   0  0  0  0  0  0  0  0  0  0  0  0
   -0.2518   -2.2134   -4.3530 C   0  0  0  0  0  0  0  0  0  0  0  0
    0.4375   -2.6076   -5.5149 C   0  0  0  0  0  0  0  0  0  0  0  0
   -1.1289   -3.0508   -3.6583 C   0  0  0  0  0  0  0  0  0  0  0  0
    0.2110   -3.8997   -5.9859 C   0  0  0  0  0  0  0  0  0  0  0  0
   -1.3330   -4.3367   -4.1557 C   0  0  0  0  0  0  0  0  0  0  0  0
   -1.6293   -2.6752   -2.7710 H   0  0  0  0  0  0  0  0  0  0  0  0
   -0.6653   -4.7567   -5.3092 C   0  0  0  0  0  0  0  0  0  0  0  0
    0.7211   -4.2289   -6.8833 H   0  0  0  0  0  0  0  0  0  0  0  0
   -2.0081   -5.0102   -3.6382 H   0  0  0  0  0  0  0  0  0  0  0  0
   -0.8250   -5.7610   -5.6873 H   0  0  0  0  0  0  0  0  0  0  0  0
    1.3422   -1.6324   -6.1961 C   0  0  0  0  0  0  0  0  0  0  0  0
    1.4666   -0.4828   -5.8253 O   0  0  0  0  0  0  0  0  0  0  0  0
    1.9874   -2.1706   -7.2364 O   0  0  0  0  0  0  0  0  0  0  0  0
    2.5516   -1.4816   -7.6291 H   0  0  0  0  0  0  0  0  0  0  0  0
   -4.5837    1.5287    0.6952 C   0  0  0  0  0  0  0  0  0  0  0  0
   -5.6812    1.8530    1.0800 O   0  0  0  0  0  0  0  0  0  0  0  0
   -3.4394    1.8021    1.3607 O   0  0  0  0  0  0  0  0  0  0  0  0
   -3.6808    2.2886    2.1681 H   0  0  0  0  0  0  0  0  0  0  0  0
  1  6  2  0  0  0  0
  1  2  1  0  0  0  0
  2  3  2  0  0  0  0
  3  4  1  0  0  0  0
  3  8  1  0  0  0  0
  4 28  1  0  0  0  0
  5 11  1  0  0  0  0
  5  4  2  0  0  0  0
  6  5  1  0  0  0  0
  7  1  1  0  0  0  0
  8  9  1  0  0  0  0
 10  6  1  0  0  0  0
 13 12  2  0  0  0  0
 14 13  1  0  0  0  0
 14 16  2  0  0  0  0
 15 14  1  0  0  0  0
 16 19  1  0  0  0  0
 17 15  2  0  0  0  0
 17 20  1  0  0  0  0
 18 16  1  0  0  0  0
 18 22  1  0  0  0  0
 20 18  2  0  0  0  0
 21 17  1  0  0  0  0
 23 20  1  0  0  0  0
 24 25  2  0  0  0  0
 24 15  1  0  0  0  0
 26 24  1  0  0  0  0
 27 26  1  0  0  0  0
 28 29  2  0  0  0  0
 28 30  1  0  0  0  0
 30 31  1  0  0  0  0
M  RAD  4   2   2   8   2   9   3  12   2
M  END
