Coordinates from ORCA-job 1f-Schema5-R6-D+-B3LYPG-6-31G_dp-scan-d49-09-n400
 OpenBabel08231810253D

 31 31  0  0  0  0  0  0  0  0999 V2000
   -4.4760   -0.3847   -3.0490 C   0  0  0  0  0  0  0  0  0  0  0  0
   -3.2555   -0.5567   -2.3438 C   0  0  0  0  0  0  0  0  0  0  0  0
   -3.3609   -0.0583   -1.0320 C   0  0  0  0  0  0  0  0  0  0  0  0
   -4.4795    0.5574   -0.3875 C   0  0  0  0  0  0  0  0  0  0  0  0
   -5.6133    0.6764   -1.1714 C   0  0  0  0  0  0  0  0  0  0  0  0
   -5.6102    0.2056   -2.4993 C   0  0  0  0  0  0  0  0  0  0  0  0
   -4.5395   -0.7334   -4.0796 H   0  0  0  0  0  0  0  0  0  0  0  0
   -2.1746   -0.2270   -0.3269 N   0  0  0  0  0  0  0  0  0  0  0  0
   -1.1788   -0.4139    0.1422 N   0  0  0  0  0  0  0  0  0  0  0  0
   -6.5153    0.3112   -3.0924 H   0  0  0  0  0  0  0  0  0  0  0  0
   -6.4931    1.1367   -0.7359 H   0  0  0  0  0  0  0  0  0  0  0  0
   -0.3580    0.6916   -5.1136 N   0  0  0  0  0  0  0  0  0  0  0  0
   -0.2336   -0.4148   -5.0953 N   0  0  0  0  0  0  0  0  0  0  0  0
   -0.2342   -1.7944   -4.9208 C   0  0  0  0  0  0  0  0  0  0  0  0
    0.6517   -2.6075   -5.6704 C   0  0  0  0  0  0  0  0  0  0  0  0
   -1.1545   -2.2773   -3.9804 C   0  0  0  0  0  0  0  0  0  0  0  0
    0.5865   -3.9755   -5.4438 C   0  0  0  0  0  0  0  0  0  0  0  0
   -1.1777   -3.6604   -3.7906 C   0  0  0  0  0  0  0  0  0  0  0  0
   -1.8350   -1.5958   -3.4035 H   0  0  0  0  0  0  0  0  0  0  0  0
   -0.3238   -4.4978   -4.5096 C   0  0  0  0  0  0  0  0  0  0  0  0
    1.2478   -4.6312   -5.9981 H   0  0  0  0  0  0  0  0  0  0  0  0
   -1.8773   -4.0762   -3.0720 H   0  0  0  0  0  0  0  0  0  0  0  0
   -0.3582   -5.5711   -4.3492 H   0  0  0  0  0  0  0  0  0  0  0  0
    1.5888   -1.9690   -6.6418 C   0  0  0  0  0  0  0  0  0  0  0  0
    1.6181   -0.7654   -6.8070 O   0  0  0  0  0  0  0  0  0  0  0  0
    2.3587   -2.8520   -7.2773 O   0  0  0  0  0  0  0  0  0  0  0  0
    2.9407   -2.3679   -7.8896 H   0  0  0  0  0  0  0  0  0  0  0  0
   -4.5413    1.0722    1.0131 C   0  0  0  0  0  0  0  0  0  0  0  0
   -5.5214    1.5835    1.5023 O   0  0  0  0  0  0  0  0  0  0  0  0
   -3.3753    0.9076    1.6824 O   0  0  0  0  0  0  0  0  0  0  0  0
   -3.5061    1.2709    2.5752 H   0  0  0  0  0  0  0  0  0  0  0  0
  1  6  2  0  0  0  0
  1  2  1  0  0  0  0
  2  3  2  0  0  0  0
  3  4  1  0  0  0  0
  3  8  1  0  0  0  0
  4 28  1  0  0  0  0
  5 11  1  0  0  0  0
  5  4  2  0  0  0  0
  6  5  1  0  0  0  0
  7  1  1  0  0  0  0
  8  9  1  0  0  0  0
 10  6  1  0  0  0  0
 12 13  1  0  0  0  0
 13 14  1  0  0  0  0
 14 16  2  0  0  0  0
 15 17  2  0  0  0  0
 15 14  1  0  0  0  0
 16 18  1  0  0  0  0
 16 19  1  0  0  0  0
 17 20  1  0  0  0  0
 18 22  1  0  0  0  0
 20 23  1  0  0  0  0
 20 18  2  0  0  0  0
 21 17  1  0  0  0  0
 24 15  1  0  0  0  0
 25 24  2  0  0  0  0
 26 24  1  0  0  0  0
 27 26  1  0  0  0  0
 28 29  2  0  0  0  0
 28 30  1  0  0  0  0
 30 31  1  0  0  0  0
M  RAD  5   2   2   8   2   9   3  12   3  13   2
M  END
