Coordinates from ORCA-job 1f-Schema5-R6-D+-B3LYPG-6-31G_dp-scan-d49-09-n400
 OpenBabel08231810253D

 31 32  0  0  0  0  0  0  0  0999 V2000
   -2.8429   -0.1005   -3.6238 C   0  0  0  0  0  0  0  0  0  0  0  0
   -2.0404   -0.1437   -2.4907 C   0  0  0  0  0  0  0  0  0  0  0  0
   -2.5978    0.2162   -1.2543 C   0  0  0  0  0  0  0  0  0  0  0  0
   -3.9750    0.5354   -1.0852 C   0  0  0  0  0  0  0  0  0  0  0  0
   -4.7552    0.5095   -2.2328 C   0  0  0  0  0  0  0  0  0  0  0  0
   -4.1979    0.2064   -3.4874 C   0  0  0  0  0  0  0  0  0  0  0  0
   -2.4001   -0.2850   -4.5976 H   0  0  0  0  0  0  0  0  0  0  0  0
   -1.7074    0.2611   -0.2022 N   0  0  0  0  0  0  0  0  0  0  0  0
   -0.9172    0.3093    0.5816 N   0  0  0  0  0  0  0  0  0  0  0  0
   -4.8350    0.2238   -4.3663 H   0  0  0  0  0  0  0  0  0  0  0  0
   -5.8076    0.7509   -2.1309 H   0  0  0  0  0  0  0  0  0  0  0  0
   -0.3027   -0.0983   -2.6069 N   0  0  0  0  0  0  0  0  0  0  0  0
    0.2351   -0.9307   -3.3039 N   0  0  0  0  0  0  0  0  0  0  0  0
   -0.3195   -2.1402   -3.8069 C   0  0  0  0  0  0  0  0  0  0  0  0
   -0.2157   -2.4586   -5.1763 C   0  0  0  0  0  0  0  0  0  0  0  0
   -0.7702   -3.0908   -2.8852 C   0  0  0  0  0  0  0  0  0  0  0  0
   -0.5749   -3.7394   -5.6013 C   0  0  0  0  0  0  0  0  0  0  0  0
   -1.1270   -4.3656   -3.3315 C   0  0  0  0  0  0  0  0  0  0  0  0
   -0.7804   -2.8532   -1.8268 H   0  0  0  0  0  0  0  0  0  0  0  0
   -1.0275   -4.6916   -4.6839 C   0  0  0  0  0  0  0  0  0  0  0  0
   -0.5095   -3.9780   -6.6570 H   0  0  0  0  0  0  0  0  0  0  0  0
   -1.4660   -5.1065   -2.6145 H   0  0  0  0  0  0  0  0  0  0  0  0
   -1.2988   -5.6844   -5.0262 H   0  0  0  0  0  0  0  0  0  0  0  0
    0.1451   -1.3740   -6.1272 C   0  0  0  0  0  0  0  0  0  0  0  0
    0.0202   -0.1933   -5.8540 O   0  0  0  0  0  0  0  0  0  0  0  0
    0.5864   -1.8272   -7.3088 O   0  0  0  0  0  0  0  0  0  0  0  0
    0.7704   -1.0540   -7.8700 H   0  0  0  0  0  0  0  0  0  0  0  0
   -4.6395    0.8972    0.2119 C   0  0  0  0  0  0  0  0  0  0  0  0
   -5.8130    1.1576    0.2971 O   0  0  0  0  0  0  0  0  0  0  0  0
   -3.7739    0.8911    1.2453 O   0  0  0  0  0  0  0  0  0  0  0  0
   -4.2630    1.1390    2.0501 H   0  0  0  0  0  0  0  0  0  0  0  0
  1  6  2  0  0  0  0
  1  2  1  0  0  0  0
  2  3  2  0  0  0  0
  3  4  1  0  0  0  0
  3  8  1  0  0  0  0
  4 28  1  0  0  0  0
  5 11  1  0  0  0  0
  5  4  2  0  0  0  0
  6  5  1  0  0  0  0
  7  1  1  0  0  0  0
  8  9  1  0  0  0  0
 10  6  1  0  0  0  0
 12  2  1  0  0  0  0
 13 12  1  0  0  0  0
 14 13  1  0  0  0  0
 14 16  2  0  0  0  0
 15 14  1  0  0  0  0
 16 19  1  0  0  0  0
 17 15  2  0  0  0  0
 17 20  1  0  0  0  0
 18 16  1  0  0  0  0
 18 22  1  0  0  0  0
 20 18  2  0  0  0  0
 21 17  1  0  0  0  0
 23 20  1  0  0  0  0
 24 25  2  0  0  0  0
 24 15  1  0  0  0  0
 26 24  1  0  0  0  0
 27 26  1  0  0  0  0
 28 29  2  0  0  0  0
 28 30  1  0  0  0  0
 30 31  1  0  0  0  0
M  RAD  4   8   2   9   3  12   2  13   2
M  END
