Coordinates from ORCA-job 1f-Schema5-R6-D+-B3LYPG-6-31G_dp-scan-d49-09-n400
 OpenBabel08231810253D

 31 31  0  0  0  0  0  0  0  0999 V2000
   -4.3446   -0.3898   -3.0851 C   0  0  0  0  0  0  0  0  0  0  0  0
   -3.1663   -0.5832   -2.3177 C   0  0  0  0  0  0  0  0  0  0  0  0
   -3.3107   -0.0361   -1.0289 C   0  0  0  0  0  0  0  0  0  0  0  0
   -4.4324    0.6439   -0.4593 C   0  0  0  0  0  0  0  0  0  0  0  0
   -5.5227    0.7813   -1.3004 C   0  0  0  0  0  0  0  0  0  0  0  0
   -5.4777    0.2649   -2.6101 C   0  0  0  0  0  0  0  0  0  0  0  0
   -4.3763   -0.7735   -4.1047 H   0  0  0  0  0  0  0  0  0  0  0  0
   -2.1671   -0.2275   -0.2614 N   0  0  0  0  0  0  0  0  0  0  0  0
   -1.2043   -0.4373    0.2630 N   0  0  0  0  0  0  0  0  0  0  0  0
   -6.3489    0.3860   -3.2491 H   0  0  0  0  0  0  0  0  0  0  0  0
   -6.4020    1.2900   -0.9220 H   0  0  0  0  0  0  0  0  0  0  0  0
   -0.6355    0.5397   -4.6447 N   0  0  0  0  0  0  0  0  0  0  0  0
   -0.3953   -0.5371   -4.7995 N   0  0  0  0  0  0  0  0  0  0  0  0
   -0.3032   -1.9268   -4.7696 C   0  0  0  0  0  0  0  0  0  0  0  0
    0.5756   -2.6102   -5.6404 C   0  0  0  0  0  0  0  0  0  0  0  0
   -1.1367   -2.5426   -3.8295 C   0  0  0  0  0  0  0  0  0  0  0  0
    0.5992   -3.9951   -5.5395 C   0  0  0  0  0  0  0  0  0  0  0  0
   -1.0785   -3.9359   -3.7667 C   0  0  0  0  0  0  0  0  0  0  0  0
   -1.8047   -1.9135   -3.1922 H   0  0  0  0  0  0  0  0  0  0  0  0
   -0.2231   -4.6512   -4.6078 C   0  0  0  0  0  0  0  0  0  0  0  0
    1.2588   -4.5595   -6.1884 H   0  0  0  0  0  0  0  0  0  0  0  0
   -1.7087   -4.4602   -3.0553 H   0  0  0  0  0  0  0  0  0  0  0  0
   -0.1890   -5.7349   -4.5455 H   0  0  0  0  0  0  0  0  0  0  0  0
    1.4076   -1.8212   -6.5957 C   0  0  0  0  0  0  0  0  0  0  0  0
    1.3491   -0.6077   -6.6404 O   0  0  0  0  0  0  0  0  0  0  0  0
    2.1883   -2.5834   -7.3605 O   0  0  0  0  0  0  0  0  0  0  0  0
    2.6972   -2.0042   -7.9553 H   0  0  0  0  0  0  0  0  0  0  0  0
   -4.5395    1.2065    0.9205 C   0  0  0  0  0  0  0  0  0  0  0  0
   -5.5202    1.7725    1.3437 O   0  0  0  0  0  0  0  0  0  0  0  0
   -3.4155    1.0165    1.6512 O   0  0  0  0  0  0  0  0  0  0  0  0
   -3.5738    1.4123    2.5257 H   0  0  0  0  0  0  0  0  0  0  0  0
  1  6  2  0  0  0  0
  1  2  1  0  0  0  0
  2  3  2  0  0  0  0
  3  4  1  0  0  0  0
  3  8  1  0  0  0  0
  4 28  1  0  0  0  0
  5 11  1  0  0  0  0
  5  4  2  0  0  0  0
  6  5  1  0  0  0  0
  7  1  1  0  0  0  0
  8  9  1  0  0  0  0
 10  6  1  0  0  0  0
 13 14  1  0  0  0  0
 13 12  1  0  0  0  0
 14 16  2  0  0  0  0
 15 17  2  0  0  0  0
 15 14  1  0  0  0  0
 16 18  1  0  0  0  0
 16 19  1  0  0  0  0
 17 20  1  0  0  0  0
 18 22  1  0  0  0  0
 20 23  1  0  0  0  0
 20 18  2  0  0  0  0
 21 17  1  0  0  0  0
 24 15  1  0  0  0  0
 25 24  2  0  0  0  0
 26 24  1  0  0  0  0
 27 26  1  0  0  0  0
 28 29  2  0  0  0  0
 28 30  1  0  0  0  0
 30 31  1  0  0  0  0
M  RAD  5   2   2   8   2   9   3  12   3  13   2
M  END
