Coordinates from ORCA-job 1f-Schema5-R6-D+-B3LYPG-6-31G_dp-scan-d49-09-n400
 OpenBabel08231810253D

 31 32  0  0  0  0  0  0  0  0999 V2000
   -4.6178   -0.0978   -3.4726 C   0  0  0  0  0  0  0  0  0  0  0  0
   -3.1985   -0.2839   -3.0844 C   0  0  0  0  0  0  0  0  0  0  0  0
   -2.8402    0.4106   -1.8023 C   0  0  0  0  0  0  0  0  0  0  0  0
   -3.8221    1.0777   -0.9809 C   0  0  0  0  0  0  0  0  0  0  0  0
   -5.1103    1.1522   -1.4233 C   0  0  0  0  0  0  0  0  0  0  0  0
   -5.4842    0.5813   -2.6803 C   0  0  0  0  0  0  0  0  0  0  0  0
   -4.9117   -0.5245   -4.4246 H   0  0  0  0  0  0  0  0  0  0  0  0
   -1.5440    0.3555   -1.5037 N   0  0  0  0  0  0  0  0  0  0  0  0
   -0.4293    0.2634   -1.3404 N   0  0  0  0  0  0  0  0  0  0  0  0
   -6.5119    0.6867   -3.0158 H   0  0  0  0  0  0  0  0  0  0  0  0
   -5.8414    1.6527   -0.8003 H   0  0  0  0  0  0  0  0  0  0  0  0
   -2.4884   -0.8565   -3.6635 N   0  0  0  0  0  0  0  0  0  0  0  0
   -1.5028   -1.1606   -4.3330 N   0  0  0  0  0  0  0  0  0  0  0  0
   -1.1316   -2.5092   -4.4400 C   0  0  0  0  0  0  0  0  0  0  0  0
    0.2149   -2.7677   -4.7977 C   0  0  0  0  0  0  0  0  0  0  0  0
   -2.0601   -3.5575   -4.3232 C   0  0  0  0  0  0  0  0  0  0  0  0
    0.5963   -4.0815   -5.0615 C   0  0  0  0  0  0  0  0  0  0  0  0
   -1.6562   -4.8618   -4.5843 C   0  0  0  0  0  0  0  0  0  0  0  0
   -3.0971   -3.3364   -4.0893 H   0  0  0  0  0  0  0  0  0  0  0  0
   -0.3332   -5.1220   -4.9581 C   0  0  0  0  0  0  0  0  0  0  0  0
    1.6262   -4.2890   -5.3268 H   0  0  0  0  0  0  0  0  0  0  0  0
   -2.3729   -5.6731   -4.5136 H   0  0  0  0  0  0  0  0  0  0  0  0
   -0.0221   -6.1403   -5.1674 H   0  0  0  0  0  0  0  0  0  0  0  0
    1.2160   -1.6570   -4.7409 C   0  0  0  0  0  0  0  0  0  0  0  0
    1.0590   -0.6437   -4.0890 O   0  0  0  0  0  0  0  0  0  0  0  0
    2.3128   -1.9249   -5.4641 O   0  0  0  0  0  0  0  0  0  0  0  0
    2.9332   -1.1844   -5.3470 H   0  0  0  0  0  0  0  0  0  0  0  0
   -3.5126    1.7003    0.3497 C   0  0  0  0  0  0  0  0  0  0  0  0
   -4.3339    2.2859    1.0126 O   0  0  0  0  0  0  0  0  0  0  0  0
   -2.2266    1.5280    0.7178 O   0  0  0  0  0  0  0  0  0  0  0  0
   -2.1100    1.9602    1.5820 H   0  0  0  0  0  0  0  0  0  0  0  0
  1  2  2  0  0  0  0
  1  6  1  0  0  0  0
  2  3  1  0  0  0  0
  3  8  1  0  0  0  0
  3  4  2  0  0  0  0
  4 28  1  0  0  0  0
  5  4  1  0  0  0  0
  5 11  1  0  0  0  0
  6  5  2  0  0  0  0
  7  1  1  0  0  0  0
  8  9  1  0  0  0  0
 10  6  1  0  0  0  0
 12  2  1  0  0  0  0
 13 12  1  0  0  0  0
 14 13  1  0  0  0  0
 14 16  1  0  0  0  0
 15 24  1  0  0  0  0
 15 14  2  0  0  0  0
 16 19  1  0  0  0  0
 17 20  2  0  0  0  0
 17 15  1  0  0  0  0
 18 22  1  0  0  0  0
 18 16  2  0  0  0  0
 20 18  1  0  0  0  0
 21 17  1  0  0  0  0
 23 20  1  0  0  0  0
 24 25  2  0  0  0  0
 26 27  1  0  0  0  0
 26 24  1  0  0  0  0
 28 30  1  0  0  0  0
 28 29  2  0  0  0  0
 30 31  1  0  0  0  0
M  RAD  4   8   2   9   3  12   2  13   2
M  END
