Coordinates from ORCA-job 1f-Schema5-R6-D+-B3LYPG-6-31G_dp-scan-d49-09-n400
 OpenBabel08231810253D

 31 32  0  0  0  0  0  0  0  0999 V2000
   -4.5554   -0.0811   -3.5275 C   0  0  0  0  0  0  0  0  0  0  0  0
   -3.1174   -0.2389   -3.1316 C   0  0  0  0  0  0  0  0  0  0  0  0
   -2.8116    0.4260   -1.8005 C   0  0  0  0  0  0  0  0  0  0  0  0
   -3.8343    1.0235   -0.9751 C   0  0  0  0  0  0  0  0  0  0  0  0
   -5.1178    1.0615   -1.4304 C   0  0  0  0  0  0  0  0  0  0  0  0
   -5.4521    0.5256   -2.7160 C   0  0  0  0  0  0  0  0  0  0  0  0
   -4.8150   -0.4740   -4.5037 H   0  0  0  0  0  0  0  0  0  0  0  0
   -1.5212    0.4062   -1.4915 N   0  0  0  0  0  0  0  0  0  0  0  0
   -0.4025    0.3414   -1.3307 N   0  0  0  0  0  0  0  0  0  0  0  0
   -6.4790    0.6052   -3.0621 H   0  0  0  0  0  0  0  0  0  0  0  0
   -5.8764    1.5102   -0.8011 H   0  0  0  0  0  0  0  0  0  0  0  0
   -2.4096   -0.7305   -3.6964 N   0  0  0  0  0  0  0  0  0  0  0  0
   -1.4495   -1.0873   -4.3758 N   0  0  0  0  0  0  0  0  0  0  0  0
   -1.1149   -2.4470   -4.4375 C   0  0  0  0  0  0  0  0  0  0  0  0
    0.2158   -2.7540   -4.8168 C   0  0  0  0  0  0  0  0  0  0  0  0
   -2.0665   -3.4664   -4.2582 C   0  0  0  0  0  0  0  0  0  0  0  0
    0.5565   -4.0862   -5.0402 C   0  0  0  0  0  0  0  0  0  0  0  0
   -1.7022   -4.7894   -4.4793 C   0  0  0  0  0  0  0  0  0  0  0  0
   -3.0927   -3.2134   -4.0087 H   0  0  0  0  0  0  0  0  0  0  0  0
   -0.3959   -5.0976   -4.8750 C   0  0  0  0  0  0  0  0  0  0  0  0
    1.5739   -4.3301   -5.3224 H   0  0  0  0  0  0  0  0  0  0  0  0
   -2.4372   -5.5785   -4.3607 H   0  0  0  0  0  0  0  0  0  0  0  0
   -0.1156   -6.1308   -5.0526 H   0  0  0  0  0  0  0  0  0  0  0  0
    1.2475   -1.6693   -4.8242 C   0  0  0  0  0  0  0  0  0  0  0  0
    1.1354   -0.6326   -4.2015 O   0  0  0  0  0  0  0  0  0  0  0  0
    2.3163   -1.9925   -5.5669 O   0  0  0  0  0  0  0  0  0  0  0  0
    2.9605   -1.2671   -5.4910 H   0  0  0  0  0  0  0  0  0  0  0  0
   -3.5649    1.6141    0.3791 C   0  0  0  0  0  0  0  0  0  0  0  0
   -4.4186    2.1342    1.0556 O   0  0  0  0  0  0  0  0  0  0  0  0
   -2.2736    1.4963    0.7493 O   0  0  0  0  0  0  0  0  0  0  0  0
   -2.1830    1.9054    1.6276 H   0  0  0  0  0  0  0  0  0  0  0  0
  1  2  2  0  0  0  0
  1  6  1  0  0  0  0
  2  3  1  0  0  0  0
  3  8  1  0  0  0  0
  3  4  2  0  0  0  0
  4 28  1  0  0  0  0
  5  4  1  0  0  0  0
  5 11  1  0  0  0  0
  6  5  2  0  0  0  0
  7  1  1  0  0  0  0
  8  9  1  0  0  0  0
 10  6  1  0  0  0  0
 12  2  1  0  0  0  0
 13 12  1  0  0  0  0
 14 13  1  0  0  0  0
 14 16  1  0  0  0  0
 15 14  2  0  0  0  0
 16 19  1  0  0  0  0
 17 20  2  0  0  0  0
 17 15  1  0  0  0  0
 18 22  1  0  0  0  0
 18 16  2  0  0  0  0
 20 18  1  0  0  0  0
 21 17  1  0  0  0  0
 23 20  1  0  0  0  0
 24 15  1  0  0  0  0
 24 25  2  0  0  0  0
 26 27  1  0  0  0  0
 26 24  1  0  0  0  0
 28 30  1  0  0  0  0
 28 29  2  0  0  0  0
 30 31  1  0  0  0  0
M  RAD  4   8   2   9   3  12   2  13   2
M  END
