Coordinates from ORCA-job 1f-Schema5-R6-D+-B3LYPG-6-31G_dp-scan-d49-09-n400
 OpenBabel08231810253D

 31 31  0  0  0  0  0  0  0  0999 V2000
   -4.3278   -0.4584   -3.0563 C   0  0  0  0  0  0  0  0  0  0  0  0
   -3.1092   -0.4853   -2.3331 C   0  0  0  0  0  0  0  0  0  0  0  0
   -3.2560    0.0982   -1.0613 C   0  0  0  0  0  0  0  0  0  0  0  0
   -4.4237    0.6728   -0.4693 C   0  0  0  0  0  0  0  0  0  0  0  0
   -5.5571    0.6460   -1.2631 C   0  0  0  0  0  0  0  0  0  0  0  0
   -5.5083    0.0813   -2.5522 C   0  0  0  0  0  0  0  0  0  0  0  0
   -4.3542   -0.8796   -4.0605 H   0  0  0  0  0  0  0  0  0  0  0  0
   -2.0671    0.0718   -0.3416 N   0  0  0  0  0  0  0  0  0  0  0  0
   -1.0665   -0.0023    0.1472 N   0  0  0  0  0  0  0  0  0  0  0  0
   -6.4138    0.0745   -3.1537 H   0  0  0  0  0  0  0  0  0  0  0  0
   -6.4722    1.0693   -0.8648 H   0  0  0  0  0  0  0  0  0  0  0  0
   -0.5381    0.4438   -4.2451 N   0  0  0  0  0  0  0  0  0  0  0  0
   -0.2815   -0.5923   -4.5737 N   0  0  0  0  0  0  0  0  0  0  0  0
   -0.2731   -1.9840   -4.6924 C   0  0  0  0  0  0  0  0  0  0  0  0
    0.5783   -2.6246   -5.6154 C   0  0  0  0  0  0  0  0  0  0  0  0
   -1.1596   -2.6404   -3.8355 C   0  0  0  0  0  0  0  0  0  0  0  0
    0.5155   -4.0124   -5.6626 C   0  0  0  0  0  0  0  0  0  0  0  0
   -1.1922   -4.0331   -3.9167 C   0  0  0  0  0  0  0  0  0  0  0  0
   -1.7930   -2.0332   -3.1609 H   0  0  0  0  0  0  0  0  0  0  0  0
   -0.3643   -4.7084   -4.8177 C   0  0  0  0  0  0  0  0  0  0  0  0
    1.1521   -4.5467   -6.3582 H   0  0  0  0  0  0  0  0  0  0  0  0
   -1.8674   -4.5884   -3.2735 H   0  0  0  0  0  0  0  0  0  0  0  0
   -0.3988   -5.7925   -4.8701 H   0  0  0  0  0  0  0  0  0  0  0  0
    1.4740   -1.7884   -6.4674 C   0  0  0  0  0  0  0  0  0  0  0  0
    1.4858   -0.5754   -6.3822 O   0  0  0  0  0  0  0  0  0  0  0  0
    2.2278   -2.5087   -7.2971 O   0  0  0  0  0  0  0  0  0  0  0  0
    2.7819   -1.8999   -7.8173 H   0  0  0  0  0  0  0  0  0  0  0  0
   -4.5363    1.2854    0.8892 C   0  0  0  0  0  0  0  0  0  0  0  0
   -5.5584    1.7512    1.3350 O   0  0  0  0  0  0  0  0  0  0  0  0
   -3.3666    1.2635    1.5703 O   0  0  0  0  0  0  0  0  0  0  0  0
   -3.5312    1.6790    2.4344 H   0  0  0  0  0  0  0  0  0  0  0  0
  1  6  2  0  0  0  0
  1  2  1  0  0  0  0
  2  3  2  0  0  0  0
  3  4  1  0  0  0  0
  3  8  1  0  0  0  0
  4 28  1  0  0  0  0
  5 11  1  0  0  0  0
  5  4  2  0  0  0  0
  6  5  1  0  0  0  0
  7  1  1  0  0  0  0
  8  9  1  0  0  0  0
 10  6  1  0  0  0  0
 13 12  1  0  0  0  0
 14 13  1  0  0  0  0
 14 16  2  0  0  0  0
 15 14  1  0  0  0  0
 16 19  1  0  0  0  0
 17 15  2  0  0  0  0
 17 20  1  0  0  0  0
 18 16  1  0  0  0  0
 18 22  1  0  0  0  0
 20 18  2  0  0  0  0
 21 17  1  0  0  0  0
 23 20  1  0  0  0  0
 24 25  2  0  0  0  0
 24 15  1  0  0  0  0
 26 24  1  0  0  0  0
 27 26  1  0  0  0  0
 28 29  2  0  0  0  0
 28 30  1  0  0  0  0
 30 31  1  0  0  0  0
M  RAD  5   2   2   8   2   9   3  12   3  13   2
M  END
