Coordinates from ORCA-job 1f-Schema5-R6-D+-B3LYPG-6-31G_dp-scan-d49-09-n400
 OpenBabel08231810253D

 31 32  0  0  0  0  0  0  0  0999 V2000
   -3.0726   -0.3960   -3.4779 C   0  0  0  0  0  0  0  0  0  0  0  0
   -2.1822   -0.2671   -2.4190 C   0  0  0  0  0  0  0  0  0  0  0  0
   -2.6615    0.2563   -1.2102 C   0  0  0  0  0  0  0  0  0  0  0  0
   -4.0249    0.5932   -0.9815 C   0  0  0  0  0  0  0  0  0  0  0  0
   -4.8869    0.4069   -2.0538 C   0  0  0  0  0  0  0  0  0  0  0  0
   -4.4184   -0.0721   -3.2885 C   0  0  0  0  0  0  0  0  0  0  0  0
   -2.7204   -0.7444   -4.4428 H   0  0  0  0  0  0  0  0  0  0  0  0
   -1.6983    0.4539   -0.2372 N   0  0  0  0  0  0  0  0  0  0  0  0
   -0.8597    0.6102    0.4779 N   0  0  0  0  0  0  0  0  0  0  0  0
   -5.1184   -0.1866   -4.1107 H   0  0  0  0  0  0  0  0  0  0  0  0
   -5.9322    0.6575   -1.9095 H   0  0  0  0  0  0  0  0  0  0  0  0
   -0.3674   -0.1955   -2.5679 N   0  0  0  0  0  0  0  0  0  0  0  0
    0.1742   -0.9881   -3.2903 N   0  0  0  0  0  0  0  0  0  0  0  0
   -0.3324   -2.1774   -3.8756 C   0  0  0  0  0  0  0  0  0  0  0  0
   -0.0925   -2.4506   -5.2378 C   0  0  0  0  0  0  0  0  0  0  0  0
   -0.8984   -3.1427   -3.0364 C   0  0  0  0  0  0  0  0  0  0  0  0
   -0.4515   -3.7016   -5.7443 C   0  0  0  0  0  0  0  0  0  0  0  0
   -1.2462   -4.3880   -3.5637 C   0  0  0  0  0  0  0  0  0  0  0  0
   -1.0140   -2.9368   -1.9779 H   0  0  0  0  0  0  0  0  0  0  0  0
   -1.0253   -4.6671   -4.9128 C   0  0  0  0  0  0  0  0  0  0  0  0
   -0.2827   -3.9082   -6.7949 H   0  0  0  0  0  0  0  0  0  0  0  0
   -1.6741   -5.1433   -2.9124 H   0  0  0  0  0  0  0  0  0  0  0  0
   -1.2924   -5.6373   -5.3177 H   0  0  0  0  0  0  0  0  0  0  0  0
    0.4461   -1.3619   -6.0990 C   0  0  0  0  0  0  0  0  0  0  0  0
    0.4615   -0.1947   -5.7592 O   0  0  0  0  0  0  0  0  0  0  0  0
    0.8921   -1.8048   -7.2856 O   0  0  0  0  0  0  0  0  0  0  0  0
    1.2088   -1.0323   -7.7847 H   0  0  0  0  0  0  0  0  0  0  0  0
   -4.5996    1.1277    0.2989 C   0  0  0  0  0  0  0  0  0  0  0  0
   -5.7664    1.4001    0.4301 O   0  0  0  0  0  0  0  0  0  0  0  0
   -3.6649    1.2596    1.2613 O   0  0  0  0  0  0  0  0  0  0  0  0
   -4.0999    1.6136    2.0574 H   0  0  0  0  0  0  0  0  0  0  0  0
  1  6  2  0  0  0  0
  1  2  1  0  0  0  0
  2  3  2  0  0  0  0
  3  4  1  0  0  0  0
  3  8  1  0  0  0  0
  4 28  1  0  0  0  0
  5 11  1  0  0  0  0
  5  4  2  0  0  0  0
  6  5  1  0  0  0  0
  7  1  1  0  0  0  0
  8  9  1  0  0  0  0
 10  6  1  0  0  0  0
 12  2  1  0  0  0  0
 13 12  2  0  0  0  0
 14 13  1  0  0  0  0
 14 16  2  0  0  0  0
 15 14  1  0  0  0  0
 16 19  1  0  0  0  0
 17 15  2  0  0  0  0
 17 20  1  0  0  0  0
 18 16  1  0  0  0  0
 18 22  1  0  0  0  0
 20 18  2  0  0  0  0
 21 17  1  0  0  0  0
 23 20  1  0  0  0  0
 24 25  2  0  0  0  0
 24 15  1  0  0  0  0
 26 24  1  0  0  0  0
 27 26  1  0  0  0  0
 28 29  2  0  0  0  0
 28 30  1  0  0  0  0
 30 31  1  0  0  0  0
M  RAD  2   8   2   9   3
M  END
