Coordinates from ORCA-job 1f-Schema5-R6-D+-B3LYPG-6-31G_dp-scan-d49-09-n400
 OpenBabel08231810253D

 31 31  0  0  0  0  0  0  0  0999 V2000
   -3.6468   -0.7229   -3.1043 C   0  0  0  0  0  0  0  0  0  0  0  0
   -2.5775   -0.4082   -2.2595 C   0  0  0  0  0  0  0  0  0  0  0  0
   -2.9052    0.3359   -1.1223 C   0  0  0  0  0  0  0  0  0  0  0  0
   -4.2130    0.7581   -0.7461 C   0  0  0  0  0  0  0  0  0  0  0  0
   -5.2297    0.3951   -1.6167 C   0  0  0  0  0  0  0  0  0  0  0  0
   -4.9504   -0.3337   -2.7857 C   0  0  0  0  0  0  0  0  0  0  0  0
   -3.4725   -1.2786   -4.0215 H   0  0  0  0  0  0  0  0  0  0  0  0
   -1.8031    0.6737   -0.3442 N   0  0  0  0  0  0  0  0  0  0  0  0
   -0.8533    0.9013    0.1908 N   0  0  0  0  0  0  0  0  0  0  0  0
   -5.7692   -0.5947   -3.4504 H   0  0  0  0  0  0  0  0  0  0  0  0
   -6.2418    0.6959   -1.3699 H   0  0  0  0  0  0  0  0  0  0  0  0
   -0.3331   -0.3287   -2.6727 N   0  0  0  0  0  0  0  0  0  0  0  0
    0.0708   -1.0992   -3.4298 N   0  0  0  0  0  0  0  0  0  0  0  0
   -0.2769   -2.2860   -4.1039 C   0  0  0  0  0  0  0  0  0  0  0  0
    0.2254   -2.5289   -5.3963 C   0  0  0  0  0  0  0  0  0  0  0  0
   -1.0339   -3.2294   -3.4040 C   0  0  0  0  0  0  0  0  0  0  0  0
   -0.0745   -3.7543   -5.9924 C   0  0  0  0  0  0  0  0  0  0  0  0
   -1.3151   -4.4466   -4.0242 C   0  0  0  0  0  0  0  0  0  0  0  0
   -1.3743   -3.0097   -2.3991 H   0  0  0  0  0  0  0  0  0  0  0  0
   -0.8376   -4.7071   -5.3103 C   0  0  0  0  0  0  0  0  0  0  0  0
    0.2917   -3.9536   -6.9923 H   0  0  0  0  0  0  0  0  0  0  0  0
   -1.8975   -5.1938   -3.4951 H   0  0  0  0  0  0  0  0  0  0  0  0
   -1.0550   -5.6584   -5.7846 H   0  0  0  0  0  0  0  0  0  0  0  0
    1.0015   -1.4593   -6.0905 C   0  0  0  0  0  0  0  0  0  0  0  0
    1.1172   -0.3333   -5.6504 O   0  0  0  0  0  0  0  0  0  0  0  0
    1.5451   -1.8809   -7.2406 O   0  0  0  0  0  0  0  0  0  0  0  0
    2.0222   -1.1301   -7.6346 H   0  0  0  0  0  0  0  0  0  0  0  0
   -4.5795    1.5401    0.4784 C   0  0  0  0  0  0  0  0  0  0  0  0
   -5.7098    1.8708    0.7409 O   0  0  0  0  0  0  0  0  0  0  0  0
   -3.5059    1.8231    1.2470 O   0  0  0  0  0  0  0  0  0  0  0  0
   -3.8194    2.3261    2.0191 H   0  0  0  0  0  0  0  0  0  0  0  0
  1  6  2  0  0  0  0
  1  2  1  0  0  0  0
  2  3  2  0  0  0  0
  3  4  1  0  0  0  0
  3  8  1  0  0  0  0
  4 28  1  0  0  0  0
  5 11  1  0  0  0  0
  5  4  2  0  0  0  0
  6  5  1  0  0  0  0
  7  1  1  0  0  0  0
  8  9  1  0  0  0  0
 10  6  1  0  0  0  0
 13 12  2  0  0  0  0
 14 13  1  0  0  0  0
 14 16  2  0  0  0  0
 15 14  1  0  0  0  0
 16 19  1  0  0  0  0
 17 15  2  0  0  0  0
 17 20  1  0  0  0  0
 18 22  1  0  0  0  0
 18 16  1  0  0  0  0
 20 18  2  0  0  0  0
 21 17  1  0  0  0  0
 23 20  1  0  0  0  0
 24 25  2  0  0  0  0
 24 15  1  0  0  0  0
 26 24  1  0  0  0  0
 27 26  1  0  0  0  0
 28 29  2  0  0  0  0
 28 30  1  0  0  0  0
 30 31  1  0  0  0  0
M  RAD  4   2   2   8   2   9   3  12   2
M  END
