Coordinates from ORCA-job 1f-Schema5-R6-D+-B3LYPG-6-31G_dp-scan-d49-09-n400
 OpenBabel08231810253D

 31 32  0  0  0  0  0  0  0  0999 V2000
   -2.7537   -0.0384   -3.6581 C   0  0  0  0  0  0  0  0  0  0  0  0
   -1.9517   -0.0876   -2.5164 C   0  0  0  0  0  0  0  0  0  0  0  0
   -2.5361    0.2321   -1.2687 C   0  0  0  0  0  0  0  0  0  0  0  0
   -3.9249    0.5062   -1.1159 C   0  0  0  0  0  0  0  0  0  0  0  0
   -4.6919    0.4882   -2.2709 C   0  0  0  0  0  0  0  0  0  0  0  0
   -4.1126    0.2334   -3.5270 C   0  0  0  0  0  0  0  0  0  0  0  0
   -2.2879   -0.1825   -4.6281 H   0  0  0  0  0  0  0  0  0  0  0  0
   -1.6642    0.2833   -0.2103 N   0  0  0  0  0  0  0  0  0  0  0  0
   -0.8900    0.3468    0.5900 N   0  0  0  0  0  0  0  0  0  0  0  0
   -4.7396    0.2574   -4.4126 H   0  0  0  0  0  0  0  0  0  0  0  0
   -5.7514    0.6989   -2.1741 H   0  0  0  0  0  0  0  0  0  0  0  0
   -0.4321   -0.0858   -2.5931 N   0  0  0  0  0  0  0  0  0  0  0  0
    0.1709   -0.8997   -3.3001 N   0  0  0  0  0  0  0  0  0  0  0  0
   -0.3898   -2.1152   -3.7884 C   0  0  0  0  0  0  0  0  0  0  0  0
   -0.2680   -2.4542   -5.1531 C   0  0  0  0  0  0  0  0  0  0  0  0
   -0.8310   -3.0684   -2.8621 C   0  0  0  0  0  0  0  0  0  0  0  0
   -0.5933   -3.7469   -5.5671 C   0  0  0  0  0  0  0  0  0  0  0  0
   -1.1526   -4.3568   -3.2951 C   0  0  0  0  0  0  0  0  0  0  0  0
   -0.8530   -2.8229   -1.8053 H   0  0  0  0  0  0  0  0  0  0  0  0
   -1.0322   -4.6985   -4.6421 C   0  0  0  0  0  0  0  0  0  0  0  0
   -0.5150   -3.9959   -6.6197 H   0  0  0  0  0  0  0  0  0  0  0  0
   -1.4815   -5.0962   -2.5719 H   0  0  0  0  0  0  0  0  0  0  0  0
   -1.2781   -5.7013   -4.9742 H   0  0  0  0  0  0  0  0  0  0  0  0
    0.0690   -1.3698   -6.1104 C   0  0  0  0  0  0  0  0  0  0  0  0
   -0.1034   -0.1902   -5.8510 O   0  0  0  0  0  0  0  0  0  0  0  0
    0.5400   -1.8149   -7.2824 O   0  0  0  0  0  0  0  0  0  0  0  0
    0.7023   -1.0405   -7.8487 H   0  0  0  0  0  0  0  0  0  0  0  0
   -4.6157    0.8181    0.1812 C   0  0  0  0  0  0  0  0  0  0  0  0
   -5.7971    1.0439    0.2546 O   0  0  0  0  0  0  0  0  0  0  0  0
   -3.7648    0.8123    1.2260 O   0  0  0  0  0  0  0  0  0  0  0  0
   -4.2715    1.0279    2.0293 H   0  0  0  0  0  0  0  0  0  0  0  0
  1  6  2  0  0  0  0
  1  2  1  0  0  0  0
  2  3  2  0  0  0  0
  3  4  1  0  0  0  0
  3  8  1  0  0  0  0
  4 28  1  0  0  0  0
  5 11  1  0  0  0  0
  5  4  2  0  0  0  0
  6  5  1  0  0  0  0
  7  1  1  0  0  0  0
  8  9  1  0  0  0  0
 10  6  1  0  0  0  0
 12  2  1  0  0  0  0
 13 12  1  0  0  0  0
 14 13  1  0  0  0  0
 14 16  2  0  0  0  0
 15 14  1  0  0  0  0
 16 19  1  0  0  0  0
 17 15  2  0  0  0  0
 17 20  1  0  0  0  0
 18 16  1  0  0  0  0
 18 22  1  0  0  0  0
 20 18  2  0  0  0  0
 21 17  1  0  0  0  0
 23 20  1  0  0  0  0
 24 25  2  0  0  0  0
 24 15  1  0  0  0  0
 26 24  1  0  0  0  0
 27 26  1  0  0  0  0
 28 29  2  0  0  0  0
 28 30  1  0  0  0  0
 30 31  1  0  0  0  0
M  RAD  4   8   2   9   3  12   2  13   2
M  END
