Coordinates from ORCA-job 1f-Schema5-R6-D+-B3LYPG-6-31G_dp-scan-d49-09-n400
 OpenBabel08231810253D

 31 32  0  0  0  0  0  0  0  0999 V2000
   -2.7563   -0.0301   -3.6567 C   0  0  0  0  0  0  0  0  0  0  0  0
   -1.9427   -0.0765   -2.5176 C   0  0  0  0  0  0  0  0  0  0  0  0
   -2.5299    0.2421   -1.2652 C   0  0  0  0  0  0  0  0  0  0  0  0
   -3.9202    0.5097   -1.1106 C   0  0  0  0  0  0  0  0  0  0  0  0
   -4.6904    0.4909   -2.2623 C   0  0  0  0  0  0  0  0  0  0  0  0
   -4.1130    0.2394   -3.5209 C   0  0  0  0  0  0  0  0  0  0  0  0
   -2.2937   -0.1726   -4.6282 H   0  0  0  0  0  0  0  0  0  0  0  0
   -1.6577    0.2984   -0.2107 N   0  0  0  0  0  0  0  0  0  0  0  0
   -0.8805    0.3676    0.5872 N   0  0  0  0  0  0  0  0  0  0  0  0
   -4.7424    0.2622   -4.4048 H   0  0  0  0  0  0  0  0  0  0  0  0
   -5.7502    0.6981   -2.1624 H   0  0  0  0  0  0  0  0  0  0  0  0
   -0.4835   -0.0945   -2.5957 N   0  0  0  0  0  0  0  0  0  0  0  0
    0.1384   -0.8923   -3.3133 N   0  0  0  0  0  0  0  0  0  0  0  0
   -0.4111   -2.1144   -3.7966 C   0  0  0  0  0  0  0  0  0  0  0  0
   -0.2669   -2.4607   -5.1580 C   0  0  0  0  0  0  0  0  0  0  0  0
   -0.8580   -3.0671   -2.8717 C   0  0  0  0  0  0  0  0  0  0  0  0
   -0.5748   -3.7577   -5.5701 C   0  0  0  0  0  0  0  0  0  0  0  0
   -1.1610   -4.3606   -3.3023 C   0  0  0  0  0  0  0  0  0  0  0  0
   -0.8971   -2.8170   -1.8164 H   0  0  0  0  0  0  0  0  0  0  0  0
   -1.0181   -4.7083   -4.6457 C   0  0  0  0  0  0  0  0  0  0  0  0
   -0.4806   -4.0113   -6.6202 H   0  0  0  0  0  0  0  0  0  0  0  0
   -1.4932   -5.0994   -2.5800 H   0  0  0  0  0  0  0  0  0  0  0  0
   -1.2506   -5.7150   -4.9757 H   0  0  0  0  0  0  0  0  0  0  0  0
    0.0731   -1.3758   -6.1131 C   0  0  0  0  0  0  0  0  0  0  0  0
   -0.1027   -0.1965   -5.8533 O   0  0  0  0  0  0  0  0  0  0  0  0
    0.5580   -1.8185   -7.2801 O   0  0  0  0  0  0  0  0  0  0  0  0
    0.7247   -1.0435   -7.8442 H   0  0  0  0  0  0  0  0  0  0  0  0
   -4.6091    0.8170    0.1886 C   0  0  0  0  0  0  0  0  0  0  0  0
   -5.7913    1.0376    0.2651 O   0  0  0  0  0  0  0  0  0  0  0  0
   -3.7568    0.8101    1.2322 O   0  0  0  0  0  0  0  0  0  0  0  0
   -4.2633    1.0214    2.0368 H   0  0  0  0  0  0  0  0  0  0  0  0
  1  6  2  0  0  0  0
  1  2  1  0  0  0  0
  2  3  2  0  0  0  0
  3  4  1  0  0  0  0
  3  8  1  0  0  0  0
  4 28  1  0  0  0  0
  5 11  1  0  0  0  0
  5  4  2  0  0  0  0
  6  5  1  0  0  0  0
  7  1  1  0  0  0  0
  8  9  1  0  0  0  0
 10  6  1  0  0  0  0
 12  2  1  0  0  0  0
 13 12  1  0  0  0  0
 14 13  1  0  0  0  0
 14 16  2  0  0  0  0
 15 14  1  0  0  0  0
 16 19  1  0  0  0  0
 17 15  2  0  0  0  0
 17 20  1  0  0  0  0
 18 16  1  0  0  0  0
 18 22  1  0  0  0  0
 20 18  2  0  0  0  0
 21 17  1  0  0  0  0
 23 20  1  0  0  0  0
 24 25  2  0  0  0  0
 24 15  1  0  0  0  0
 26 24  1  0  0  0  0
 27 26  1  0  0  0  0
 28 29  2  0  0  0  0
 28 30  1  0  0  0  0
 30 31  1  0  0  0  0
M  RAD  4   8   2   9   3  12   2  13   2
M  END
