Coordinates from ORCA-job 1f-Schema5-R6-D+-B3LYPG-6-31G_dp-scan-d49-09-n400
 OpenBabel08231810253D

 31 31  0  0  0  0  0  0  0  0999 V2000
   -4.4727   -0.4128   -3.0326 C   0  0  0  0  0  0  0  0  0  0  0  0
   -3.2462   -0.5520   -2.3306 C   0  0  0  0  0  0  0  0  0  0  0  0
   -3.3588   -0.0479   -1.0215 C   0  0  0  0  0  0  0  0  0  0  0  0
   -4.4892    0.5458   -0.3771 C   0  0  0  0  0  0  0  0  0  0  0  0
   -5.6283    0.6328   -1.1575 C   0  0  0  0  0  0  0  0  0  0  0  0
   -5.6186    0.1537   -2.4825 C   0  0  0  0  0  0  0  0  0  0  0  0
   -4.5310   -0.7685   -4.0612 H   0  0  0  0  0  0  0  0  0  0  0  0
   -2.1665   -0.1849   -0.3196 N   0  0  0  0  0  0  0  0  0  0  0  0
   -1.1650   -0.3458    0.1469 N   0  0  0  0  0  0  0  0  0  0  0  0
   -6.5281    0.2341   -3.0728 H   0  0  0  0  0  0  0  0  0  0  0  0
   -6.5170    1.0752   -0.7219 H   0  0  0  0  0  0  0  0  0  0  0  0
   -0.2529    0.7158   -5.1123 N   0  0  0  0  0  0  0  0  0  0  0  0
   -0.1642   -0.3941   -5.0944 N   0  0  0  0  0  0  0  0  0  0  0  0
   -0.2042   -1.7737   -4.9263 C   0  0  0  0  0  0  0  0  0  0  0  0
    0.6589   -2.6078   -5.6797 C   0  0  0  0  0  0  0  0  0  0  0  0
   -1.1380   -2.2363   -3.9885 C   0  0  0  0  0  0  0  0  0  0  0  0
    0.5552   -3.9745   -5.4602 C   0  0  0  0  0  0  0  0  0  0  0  0
   -1.2005   -3.6192   -3.8066 C   0  0  0  0  0  0  0  0  0  0  0  0
   -1.8049   -1.5455   -3.4064 H   0  0  0  0  0  0  0  0  0  0  0  0
   -0.3699   -4.4763   -4.5294 C   0  0  0  0  0  0  0  0  0  0  0  0
    1.1983   -4.6453   -6.0179 H   0  0  0  0  0  0  0  0  0  0  0  0
   -1.9125   -4.0178   -3.0903 H   0  0  0  0  0  0  0  0  0  0  0  0
   -0.4345   -5.5492   -4.3751 H   0  0  0  0  0  0  0  0  0  0  0  0
    1.6140   -1.9911   -6.6476 C   0  0  0  0  0  0  0  0  0  0  0  0
    1.6760   -0.7882   -6.8081 O   0  0  0  0  0  0  0  0  0  0  0  0
    2.3592   -2.8922   -7.2871 O   0  0  0  0  0  0  0  0  0  0  0  0
    2.9542   -2.4214   -7.8974 H   0  0  0  0  0  0  0  0  0  0  0  0
   -4.5579    1.0687    1.0202 C   0  0  0  0  0  0  0  0  0  0  0  0
   -5.5487    1.5580    1.5104 O   0  0  0  0  0  0  0  0  0  0  0  0
   -3.3852    0.9387    1.6853 O   0  0  0  0  0  0  0  0  0  0  0  0
   -3.5215    1.3044    2.5763 H   0  0  0  0  0  0  0  0  0  0  0  0
  1  6  2  0  0  0  0
  1  2  1  0  0  0  0
  2  3  2  0  0  0  0
  3  4  1  0  0  0  0
  3  8  1  0  0  0  0
  4 28  1  0  0  0  0
  5 11  1  0  0  0  0
  5  4  2  0  0  0  0
  6  5  1  0  0  0  0
  7  1  1  0  0  0  0
  8  9  1  0  0  0  0
 10  6  1  0  0  0  0
 12 13  1  0  0  0  0
 13 14  1  0  0  0  0
 14 16  2  0  0  0  0
 15 17  2  0  0  0  0
 15 14  1  0  0  0  0
 16 18  1  0  0  0  0
 16 19  1  0  0  0  0
 17 20  1  0  0  0  0
 18 22  1  0  0  0  0
 20 23  1  0  0  0  0
 20 18  2  0  0  0  0
 21 17  1  0  0  0  0
 24 15  1  0  0  0  0
 25 24  2  0  0  0  0
 26 24  1  0  0  0  0
 27 26  1  0  0  0  0
 28 29  2  0  0  0  0
 28 30  1  0  0  0  0
 30 31  1  0  0  0  0
M  RAD  5   2   2   8   2   9   3  12   3  13   2
M  END
