Coordinates from ORCA-job 1f-Schema5-R6-D+-B3LYPG-6-31G_dp-scan-d49-09-n400
 OpenBabel08231810253D

 31 31  0  0  0  0  0  0  0  0999 V2000
   -4.4751   -0.5374   -2.9575 C   0  0  0  0  0  0  0  0  0  0  0  0
   -3.2225   -0.5106   -2.2888 C   0  0  0  0  0  0  0  0  0  0  0  0
   -3.3620    0.0044   -0.9867 C   0  0  0  0  0  0  0  0  0  0  0  0
   -4.5390    0.4689   -0.3200 C   0  0  0  0  0  0  0  0  0  0  0  0
   -5.7011    0.3951   -1.0672 C   0  0  0  0  0  0  0  0  0  0  0  0
   -5.6676   -0.1077   -2.3830 C   0  0  0  0  0  0  0  0  0  0  0  0
   -4.5157   -0.9143   -3.9792 H   0  0  0  0  0  0  0  0  0  0  0  0
   -2.1425    0.0321   -0.3191 N   0  0  0  0  0  0  0  0  0  0  0  0
   -1.1157    0.0079    0.1186 N   0  0  0  0  0  0  0  0  0  0  0  0
   -6.5960   -0.1540   -2.9470 H   0  0  0  0  0  0  0  0  0  0  0  0
   -6.6257    0.7343   -0.6141 H   0  0  0  0  0  0  0  0  0  0  0  0
    0.2980    0.8090   -5.1748 N   0  0  0  0  0  0  0  0  0  0  0  0
    0.1990   -0.2997   -5.1397 N   0  0  0  0  0  0  0  0  0  0  0  0
   -0.0494   -1.6568   -4.9759 C   0  0  0  0  0  0  0  0  0  0  0  0
    0.6981   -2.6052   -5.7212 C   0  0  0  0  0  0  0  0  0  0  0  0
   -1.0553   -1.9916   -4.0571 C   0  0  0  0  0  0  0  0  0  0  0  0
    0.3978   -3.9444   -5.5138 C   0  0  0  0  0  0  0  0  0  0  0  0
   -1.3155   -3.3525   -3.8880 C   0  0  0  0  0  0  0  0  0  0  0  0
   -1.6564   -1.2571   -3.4646 H   0  0  0  0  0  0  0  0  0  0  0  0
   -0.6044   -4.3162   -4.6026 C   0  0  0  0  0  0  0  0  0  0  0  0
    0.9492   -4.6958   -6.0668 H   0  0  0  0  0  0  0  0  0  0  0  0
   -2.0907   -3.6409   -3.1844 H   0  0  0  0  0  0  0  0  0  0  0  0
   -0.8235   -5.3695   -4.4578 H   0  0  0  0  0  0  0  0  0  0  0  0
    1.7496   -2.1338   -6.6721 C   0  0  0  0  0  0  0  0  0  0  0  0
    1.9904   -0.9534   -6.8302 O   0  0  0  0  0  0  0  0  0  0  0  0
    2.3652   -3.1346   -7.3012 O   0  0  0  0  0  0  0  0  0  0  0  0
    3.0326   -2.7554   -7.9004 H   0  0  0  0  0  0  0  0  0  0  0  0
   -4.6333    1.0130    1.0675 C   0  0  0  0  0  0  0  0  0  0  0  0
   -5.6634    1.3863    1.5786 O   0  0  0  0  0  0  0  0  0  0  0  0
   -3.4349    1.0476    1.6980 O   0  0  0  0  0  0  0  0  0  0  0  0
   -3.5910    1.4151    2.5850 H   0  0  0  0  0  0  0  0  0  0  0  0
  1  6  2  0  0  0  0
  1  2  1  0  0  0  0
  2  3  2  0  0  0  0
  3  4  1  0  0  0  0
  3  8  1  0  0  0  0
  4 28  1  0  0  0  0
  5 11  1  0  0  0  0
  5  4  2  0  0  0  0
  6  5  1  0  0  0  0
  7  1  1  0  0  0  0
  8  9  1  0  0  0  0
 10  6  1  0  0  0  0
 12 13  1  0  0  0  0
 13 14  1  0  0  0  0
 14 16  2  0  0  0  0
 15 17  2  0  0  0  0
 15 14  1  0  0  0  0
 16 18  1  0  0  0  0
 16 19  1  0  0  0  0
 17 20  1  0  0  0  0
 18 22  1  0  0  0  0
 20 23  1  0  0  0  0
 20 18  2  0  0  0  0
 21 17  1  0  0  0  0
 24 15  1  0  0  0  0
 25 24  2  0  0  0  0
 26 24  1  0  0  0  0
 27 26  1  0  0  0  0
 28 29  2  0  0  0  0
 28 30  1  0  0  0  0
 30 31  1  0  0  0  0
M  RAD  5   2   2   8   2   9   3  12   3  13   2
M  END
