Coordinates from ORCA-job 1f-Schema5-R6-D+-B3LYPG-6-31G_dp-scan-d49-09-n400
 OpenBabel08231810253D

 31 31  0  0  0  0  0  0  0  0999 V2000
   -3.4723   -0.6542   -3.2221 C   0  0  0  0  0  0  0  0  0  0  0  0
   -2.4554   -0.3833   -2.3063 C   0  0  0  0  0  0  0  0  0  0  0  0
   -2.8271    0.3087   -1.1498 C   0  0  0  0  0  0  0  0  0  0  0  0
   -4.1532    0.7110   -0.8217 C   0  0  0  0  0  0  0  0  0  0  0  0
   -5.1256    0.3915   -1.7585 C   0  0  0  0  0  0  0  0  0  0  0  0
   -4.7902   -0.2781   -2.9475 C   0  0  0  0  0  0  0  0  0  0  0  0
   -3.2471   -1.1625   -4.1548 H   0  0  0  0  0  0  0  0  0  0  0  0
   -1.7647    0.6128   -0.3072 N   0  0  0  0  0  0  0  0  0  0  0  0
   -0.8438    0.8220    0.2822 N   0  0  0  0  0  0  0  0  0  0  0  0
   -5.5749   -0.5034   -3.6642 H   0  0  0  0  0  0  0  0  0  0  0  0
   -6.1487    0.6814   -1.5463 H   0  0  0  0  0  0  0  0  0  0  0  0
   -0.3459   -0.3051   -2.6132 N   0  0  0  0  0  0  0  0  0  0  0  0
    0.1071   -1.0765   -3.3603 N   0  0  0  0  0  0  0  0  0  0  0  0
   -0.2923   -2.2592   -4.0205 C   0  0  0  0  0  0  0  0  0  0  0  0
    0.1255   -2.4965   -5.3442 C   0  0  0  0  0  0  0  0  0  0  0  0
   -0.9890   -3.2181   -3.2800 C   0  0  0  0  0  0  0  0  0  0  0  0
   -0.1999   -3.7231   -5.9258 C   0  0  0  0  0  0  0  0  0  0  0  0
   -1.2974   -4.4371   -3.8848 C   0  0  0  0  0  0  0  0  0  0  0  0
   -1.2556   -3.0156   -2.2495 H   0  0  0  0  0  0  0  0  0  0  0  0
   -0.9056   -4.6879   -5.2010 C   0  0  0  0  0  0  0  0  0  0  0  0
    0.1020   -3.9130   -6.9489 H   0  0  0  0  0  0  0  0  0  0  0  0
   -1.8319   -5.1938   -3.3197 H   0  0  0  0  0  0  0  0  0  0  0  0
   -1.1433   -5.6396   -5.6643 H   0  0  0  0  0  0  0  0  0  0  0  0
    0.8352   -1.4154   -6.0879 C   0  0  0  0  0  0  0  0  0  0  0  0
    0.9365   -0.2789   -5.6715 O   0  0  0  0  0  0  0  0  0  0  0  0
    1.3368   -1.8371   -7.2584 O   0  0  0  0  0  0  0  0  0  0  0  0
    1.7704   -1.0767   -7.6829 H   0  0  0  0  0  0  0  0  0  0  0  0
   -4.5816    1.4333    0.4205 C   0  0  0  0  0  0  0  0  0  0  0  0
   -5.7247    1.7496    0.6401 O   0  0  0  0  0  0  0  0  0  0  0  0
   -3.5474    1.6802    1.2517 O   0  0  0  0  0  0  0  0  0  0  0  0
   -3.8968    2.1475    2.0310 H   0  0  0  0  0  0  0  0  0  0  0  0
  1  6  2  0  0  0  0
  1  2  1  0  0  0  0
  2  3  2  0  0  0  0
  3  4  1  0  0  0  0
  3  8  1  0  0  0  0
  4 28  1  0  0  0  0
  5 11  1  0  0  0  0
  5  4  2  0  0  0  0
  6  5  1  0  0  0  0
  7  1  1  0  0  0  0
  8  9  1  0  0  0  0
 10  6  1  0  0  0  0
 13 12  2  0  0  0  0
 14 13  1  0  0  0  0
 14 16  2  0  0  0  0
 15 14  1  0  0  0  0
 16 19  1  0  0  0  0
 17 15  2  0  0  0  0
 17 20  1  0  0  0  0
 18 22  1  0  0  0  0
 18 16  1  0  0  0  0
 20 18  2  0  0  0  0
 21 17  1  0  0  0  0
 23 20  1  0  0  0  0
 24 25  2  0  0  0  0
 24 15  1  0  0  0  0
 26 24  1  0  0  0  0
 27 26  1  0  0  0  0
 28 29  2  0  0  0  0
 28 30  1  0  0  0  0
 30 31  1  0  0  0  0
M  RAD  4   2   2   8   2   9   3  12   2
M  END
