Coordinates from ORCA-job 1f-Schema5-R6-D+-B3LYPG-6-31G_dp-scan-d49-09-n400
 OpenBabel08231810253D

 31 31  0  0  0  0  0  0  0  0999 V2000
   -4.4739   -0.5306   -2.9625 C   0  0  0  0  0  0  0  0  0  0  0  0
   -3.2227   -0.5164   -2.2907 C   0  0  0  0  0  0  0  0  0  0  0  0
   -3.3600    0.0010   -0.9892 C   0  0  0  0  0  0  0  0  0  0  0  0
   -4.5337    0.4783   -0.3259 C   0  0  0  0  0  0  0  0  0  0  0  0
   -5.6946    0.4165   -1.0761 C   0  0  0  0  0  0  0  0  0  0  0  0
   -5.6632   -0.0878   -2.3914 C   0  0  0  0  0  0  0  0  0  0  0  0
   -4.5159   -0.9083   -3.9839 H   0  0  0  0  0  0  0  0  0  0  0  0
   -2.1420    0.0160   -0.3184 N   0  0  0  0  0  0  0  0  0  0  0  0
   -1.1168   -0.0191    0.1221 N   0  0  0  0  0  0  0  0  0  0  0  0
   -6.5905   -0.1246   -2.9577 H   0  0  0  0  0  0  0  0  0  0  0  0
   -6.6167    0.7656   -0.6255 H   0  0  0  0  0  0  0  0  0  0  0  0
    0.2482    0.8016   -5.1554 N   0  0  0  0  0  0  0  0  0  0  0  0
    0.1661   -0.3087   -5.1261 N   0  0  0  0  0  0  0  0  0  0  0  0
   -0.0639   -1.6697   -4.9676 C   0  0  0  0  0  0  0  0  0  0  0  0
    0.6941   -2.6057   -5.7174 C   0  0  0  0  0  0  0  0  0  0  0  0
   -1.0641   -2.0194   -4.0483 C   0  0  0  0  0  0  0  0  0  0  0  0
    0.4104   -3.9492   -5.5142 C   0  0  0  0  0  0  0  0  0  0  0  0
   -1.3078   -3.3840   -3.8835 C   0  0  0  0  0  0  0  0  0  0  0  0
   -1.6707   -1.2894   -3.4544 H   0  0  0  0  0  0  0  0  0  0  0  0
   -0.5859   -4.3362   -4.6027 C   0  0  0  0  0  0  0  0  0  0  0  0
    0.9700   -4.6919   -6.0707 H   0  0  0  0  0  0  0  0  0  0  0  0
   -2.0783   -3.6853   -3.1802 H   0  0  0  0  0  0  0  0  0  0  0  0
   -0.7918   -5.3927   -4.4614 H   0  0  0  0  0  0  0  0  0  0  0  0
    1.7376   -2.1168   -6.6679 C   0  0  0  0  0  0  0  0  0  0  0  0
    1.9629   -0.9327   -6.8208 O   0  0  0  0  0  0  0  0  0  0  0  0
    2.3659   -3.1068   -7.3017 O   0  0  0  0  0  0  0  0  0  0  0  0
    3.0275   -2.7163   -7.9000 H   0  0  0  0  0  0  0  0  0  0  0  0
   -4.6258    1.0243    1.0610 C   0  0  0  0  0  0  0  0  0  0  0  0
   -5.6533    1.4080    1.5695 O   0  0  0  0  0  0  0  0  0  0  0  0
   -3.4287    1.0469    1.6944 O   0  0  0  0  0  0  0  0  0  0  0  0
   -3.5832    1.4162    2.5810 H   0  0  0  0  0  0  0  0  0  0  0  0
  1  6  2  0  0  0  0
  1  2  1  0  0  0  0
  2  3  2  0  0  0  0
  3  4  1  0  0  0  0
  3  8  1  0  0  0  0
  4 28  1  0  0  0  0
  5 11  1  0  0  0  0
  5  4  2  0  0  0  0
  6  5  1  0  0  0  0
  7  1  1  0  0  0  0
  8  9  1  0  0  0  0
 10  6  1  0  0  0  0
 12 13  1  0  0  0  0
 13 14  1  0  0  0  0
 14 16  2  0  0  0  0
 15 17  2  0  0  0  0
 15 14  1  0  0  0  0
 16 18  1  0  0  0  0
 16 19  1  0  0  0  0
 17 20  1  0  0  0  0
 18 22  1  0  0  0  0
 20 23  1  0  0  0  0
 20 18  2  0  0  0  0
 21 17  1  0  0  0  0
 24 15  1  0  0  0  0
 25 24  2  0  0  0  0
 26 24  1  0  0  0  0
 27 26  1  0  0  0  0
 28 29  2  0  0  0  0
 28 30  1  0  0  0  0
 30 31  1  0  0  0  0
M  RAD  5   2   2   8   2   9   3  12   3  13   2
M  END
