Coordinates from ORCA-job 1f-Schema5-R6-D+-B3LYPG-6-31G_dp-scan-d49-09-n400
 OpenBabel08231810253D

 31 31  0  0  0  0  0  0  0  0999 V2000
   -3.9833   -0.6443   -3.0131 C   0  0  0  0  0  0  0  0  0  0  0  0
   -2.8236   -0.3527   -2.2738 C   0  0  0  0  0  0  0  0  0  0  0  0
   -3.0689    0.3587   -1.0925 C   0  0  0  0  0  0  0  0  0  0  0  0
   -4.3355    0.7741   -0.5833 C   0  0  0  0  0  0  0  0  0  0  0  0
   -5.4274    0.4316   -1.3642 C   0  0  0  0  0  0  0  0  0  0  0  0
   -5.2529   -0.2699   -2.5711 C   0  0  0  0  0  0  0  0  0  0  0  0
   -3.9010   -1.1766   -3.9582 H   0  0  0  0  0  0  0  0  0  0  0  0
   -1.9026    0.6696   -0.4022 N   0  0  0  0  0  0  0  0  0  0  0  0
   -0.9100    0.8736    0.0618 N   0  0  0  0  0  0  0  0  0  0  0  0
   -6.1289   -0.5180   -3.1643 H   0  0  0  0  0  0  0  0  0  0  0  0
   -6.4129    0.7248   -1.0200 H   0  0  0  0  0  0  0  0  0  0  0  0
   -0.3550   -0.1052   -3.0981 N   0  0  0  0  0  0  0  0  0  0  0  0
   -0.0320   -0.9498   -3.7848 N   0  0  0  0  0  0  0  0  0  0  0  0
   -0.2513   -2.2187   -4.3379 C   0  0  0  0  0  0  0  0  0  0  0  0
    0.4258   -2.6047   -5.5096 C   0  0  0  0  0  0  0  0  0  0  0  0
   -1.1191   -3.0628   -3.6394 C   0  0  0  0  0  0  0  0  0  0  0  0
    0.1964   -3.8941   -5.9868 C   0  0  0  0  0  0  0  0  0  0  0  0
   -1.3265   -4.3457   -4.1431 C   0  0  0  0  0  0  0  0  0  0  0  0
   -1.6101   -2.6958   -2.7438 H   0  0  0  0  0  0  0  0  0  0  0  0
   -0.6709   -4.7572   -5.3065 C   0  0  0  0  0  0  0  0  0  0  0  0
    0.6973   -4.2163   -6.8919 H   0  0  0  0  0  0  0  0  0  0  0  0
   -1.9945   -5.0238   -3.6224 H   0  0  0  0  0  0  0  0  0  0  0  0
   -0.8329   -5.7594   -5.6893 H   0  0  0  0  0  0  0  0  0  0  0  0
    1.3206   -1.6237   -6.1954 C   0  0  0  0  0  0  0  0  0  0  0  0
    1.4423   -0.4742   -5.8235 O   0  0  0  0  0  0  0  0  0  0  0  0
    1.9571   -2.1553   -7.2446 O   0  0  0  0  0  0  0  0  0  0  0  0
    2.5132   -1.4618   -7.6411 H   0  0  0  0  0  0  0  0  0  0  0  0
   -4.5869    1.5268    0.6854 C   0  0  0  0  0  0  0  0  0  0  0  0
   -5.6869    1.8518    1.0625 O   0  0  0  0  0  0  0  0  0  0  0  0
   -3.4471    1.7981    1.3594 O   0  0  0  0  0  0  0  0  0  0  0  0
   -3.6935    2.2837    2.1659 H   0  0  0  0  0  0  0  0  0  0  0  0
  1  6  2  0  0  0  0
  1  2  1  0  0  0  0
  2  3  2  0  0  0  0
  3  4  1  0  0  0  0
  3  8  1  0  0  0  0
  4 28  1  0  0  0  0
  5 11  1  0  0  0  0
  5  4  2  0  0  0  0
  6  5  1  0  0  0  0
  7  1  1  0  0  0  0
  8  9  1  0  0  0  0
 10  6  1  0  0  0  0
 13 12  2  0  0  0  0
 14 13  1  0  0  0  0
 14 16  2  0  0  0  0
 15 14  1  0  0  0  0
 16 19  1  0  0  0  0
 17 15  2  0  0  0  0
 17 20  1  0  0  0  0
 18 16  1  0  0  0  0
 18 22  1  0  0  0  0
 20 18  2  0  0  0  0
 21 17  1  0  0  0  0
 23 20  1  0  0  0  0
 24 25  2  0  0  0  0
 24 15  1  0  0  0  0
 26 24  1  0  0  0  0
 27 26  1  0  0  0  0
 28 29  2  0  0  0  0
 28 30  1  0  0  0  0
 30 31  1  0  0  0  0
M  RAD  4   2   2   8   2   9   3  12   2
M  END
