Coordinates from ORCA-job 1f-Schema5-R6-D+-B3LYPG-6-31G_dp-scan-d49-09-n400
 OpenBabel08231810253D

 31 31  0  0  0  0  0  0  0  0999 V2000
   -3.3219   -0.5835   -3.3184 C   0  0  0  0  0  0  0  0  0  0  0  0
   -2.3508   -0.3513   -2.3479 C   0  0  0  0  0  0  0  0  0  0  0  0
   -2.7615    0.2884   -1.1737 C   0  0  0  0  0  0  0  0  0  0  0  0
   -4.1029    0.6655   -0.8830 C   0  0  0  0  0  0  0  0  0  0  0  0
   -5.0361    0.3835   -1.8710 C   0  0  0  0  0  0  0  0  0  0  0  0
   -4.6519   -0.2267   -3.0765 C   0  0  0  0  0  0  0  0  0  0  0  0
   -3.0516   -1.0444   -4.2630 H   0  0  0  0  0  0  0  0  0  0  0  0
   -1.7345    0.5636   -0.2814 N   0  0  0  0  0  0  0  0  0  0  0  0
   -0.8420    0.7598    0.3539 N   0  0  0  0  0  0  0  0  0  0  0  0
   -5.4066   -0.4212   -3.8331 H   0  0  0  0  0  0  0  0  0  0  0  0
   -6.0686    0.6579   -1.6846 H   0  0  0  0  0  0  0  0  0  0  0  0
   -0.3533   -0.2706   -2.5821 N   0  0  0  0  0  0  0  0  0  0  0  0
    0.1371   -1.0460   -3.3200 N   0  0  0  0  0  0  0  0  0  0  0  0
   -0.3064   -2.2277   -3.9599 C   0  0  0  0  0  0  0  0  0  0  0  0
    0.0429   -2.4717   -5.3026 C   0  0  0  0  0  0  0  0  0  0  0  0
   -0.9578   -3.1914   -3.1848 C   0  0  0  0  0  0  0  0  0  0  0  0
   -0.3046   -3.7024   -5.8636 C   0  0  0  0  0  0  0  0  0  0  0  0
   -1.2895   -4.4153   -3.7680 C   0  0  0  0  0  0  0  0  0  0  0  0
   -1.1656   -2.9942   -2.1395 H   0  0  0  0  0  0  0  0  0  0  0  0
   -0.9661   -4.6693   -5.1016 C   0  0  0  0  0  0  0  0  0  0  0  0
   -0.0543   -3.8931   -6.9005 H   0  0  0  0  0  0  0  0  0  0  0  0
   -1.7875   -5.1734   -3.1722 H   0  0  0  0  0  0  0  0  0  0  0  0
   -1.2217   -5.6240   -5.5489 H   0  0  0  0  0  0  0  0  0  0  0  0
    0.7007   -1.3883   -6.0878 C   0  0  0  0  0  0  0  0  0  0  0  0
    0.7928   -0.2431   -5.6931 O   0  0  0  0  0  0  0  0  0  0  0  0
    1.1698   -1.8169   -7.2702 O   0  0  0  0  0  0  0  0  0  0  0  0
    1.5711   -1.0531   -7.7195 H   0  0  0  0  0  0  0  0  0  0  0  0
   -4.5858    1.3284    0.3735 C   0  0  0  0  0  0  0  0  0  0  0  0
   -5.7399    1.6228    0.5611 O   0  0  0  0  0  0  0  0  0  0  0  0
   -3.5865    1.5453    1.2534 O   0  0  0  0  0  0  0  0  0  0  0  0
   -3.9679    1.9752    2.0394 H   0  0  0  0  0  0  0  0  0  0  0  0
  1  6  2  0  0  0  0
  1  2  1  0  0  0  0
  2  3  2  0  0  0  0
  3  4  1  0  0  0  0
  3  8  1  0  0  0  0
  4 28  1  0  0  0  0
  5 11  1  0  0  0  0
  5  4  2  0  0  0  0
  6  5  1  0  0  0  0
  7  1  1  0  0  0  0
  8  9  1  0  0  0  0
 10  6  1  0  0  0  0
 13 12  2  0  0  0  0
 14 13  1  0  0  0  0
 14 16  2  0  0  0  0
 15 14  1  0  0  0  0
 16 19  1  0  0  0  0
 17 15  2  0  0  0  0
 17 20  1  0  0  0  0
 18 16  1  0  0  0  0
 18 22  1  0  0  0  0
 20 18  2  0  0  0  0
 21 17  1  0  0  0  0
 23 20  1  0  0  0  0
 24 25  2  0  0  0  0
 24 15  1  0  0  0  0
 26 24  1  0  0  0  0
 27 26  1  0  0  0  0
 28 29  2  0  0  0  0
 28 30  1  0  0  0  0
 30 31  1  0  0  0  0
M  RAD  4   2   2   8   2   9   3  12   2
M  END
