Coordinates from ORCA-job 1f-Schema5-R6-D+-B3LYPG-6-31G_dp-scan-d49-09-n400
 OpenBabel08231810253D

 31 31  0  0  0  0  0  0  0  0999 V2000
   -3.9748   -0.6931   -2.9880 C   0  0  0  0  0  0  0  0  0  0  0  0
   -2.8158   -0.3742   -2.2599 C   0  0  0  0  0  0  0  0  0  0  0  0
   -3.0602    0.3642   -1.0958 C   0  0  0  0  0  0  0  0  0  0  0  0
   -4.3276    0.7826   -0.5920 C   0  0  0  0  0  0  0  0  0  0  0  0
   -5.4201    0.4124   -1.3596 C   0  0  0  0  0  0  0  0  0  0  0  0
   -5.2454   -0.3172   -2.5495 C   0  0  0  0  0  0  0  0  0  0  0  0
   -3.8919   -1.2475   -3.9201 H   0  0  0  0  0  0  0  0  0  0  0  0
   -1.8927    0.7019   -0.4192 N   0  0  0  0  0  0  0  0  0  0  0  0
   -0.8989    0.9244    0.0335 N   0  0  0  0  0  0  0  0  0  0  0  0
   -6.1219   -0.5865   -3.1326 H   0  0  0  0  0  0  0  0  0  0  0  0
   -6.4064    0.7063   -1.0183 H   0  0  0  0  0  0  0  0  0  0  0  0
   -0.3460   -0.1584   -3.0238 N   0  0  0  0  0  0  0  0  0  0  0  0
   -0.0170   -0.9882   -3.7272 N   0  0  0  0  0  0  0  0  0  0  0  0
   -0.2519   -2.2384   -4.3160 C   0  0  0  0  0  0  0  0  0  0  0  0
    0.4199   -2.5985   -5.4990 C   0  0  0  0  0  0  0  0  0  0  0  0
   -1.1259   -3.0945   -3.6402 C   0  0  0  0  0  0  0  0  0  0  0  0
    0.1775   -3.8718   -6.0121 C   0  0  0  0  0  0  0  0  0  0  0  0
   -1.3460   -4.3609   -4.1791 C   0  0  0  0  0  0  0  0  0  0  0  0
   -1.6104   -2.7510   -2.7321 H   0  0  0  0  0  0  0  0  0  0  0  0
   -0.6965   -4.7456   -5.3549 C   0  0  0  0  0  0  0  0  0  0  0  0
    0.6738   -4.1727   -6.9269 H   0  0  0  0  0  0  0  0  0  0  0  0
   -2.0188   -5.0473   -3.6757 H   0  0  0  0  0  0  0  0  0  0  0  0
   -0.8685   -5.7352   -5.7653 H   0  0  0  0  0  0  0  0  0  0  0  0
    1.3223   -1.6073   -6.1594 C   0  0  0  0  0  0  0  0  0  0  0  0
    1.4526   -0.4682   -5.7590 O   0  0  0  0  0  0  0  0  0  0  0  0
    1.9560   -2.1171   -7.2213 O   0  0  0  0  0  0  0  0  0  0  0  0
    2.5173   -1.4178   -7.5996 H   0  0  0  0  0  0  0  0  0  0  0  0
   -4.5795    1.5648    0.6588 C   0  0  0  0  0  0  0  0  0  0  0  0
   -5.6805    1.8890    1.0335 O   0  0  0  0  0  0  0  0  0  0  0  0
   -3.4387    1.8628    1.3196 O   0  0  0  0  0  0  0  0  0  0  0  0
   -3.6850    2.3655    2.1156 H   0  0  0  0  0  0  0  0  0  0  0  0
  1  6  2  0  0  0  0
  1  2  1  0  0  0  0
  2  3  2  0  0  0  0
  3  4  1  0  0  0  0
  3  8  1  0  0  0  0
  4 28  1  0  0  0  0
  5 11  1  0  0  0  0
  5  4  2  0  0  0  0
  6  5  1  0  0  0  0
  7  1  1  0  0  0  0
  8  9  1  0  0  0  0
 10  6  1  0  0  0  0
 13 12  2  0  0  0  0
 14 13  1  0  0  0  0
 14 16  2  0  0  0  0
 15 14  1  0  0  0  0
 16 19  1  0  0  0  0
 17 15  2  0  0  0  0
 17 20  1  0  0  0  0
 18 22  1  0  0  0  0
 18 16  1  0  0  0  0
 20 18  2  0  0  0  0
 21 17  1  0  0  0  0
 23 20  1  0  0  0  0
 24 25  2  0  0  0  0
 24 15  1  0  0  0  0
 26 24  1  0  0  0  0
 27 26  1  0  0  0  0
 28 29  2  0  0  0  0
 28 30  1  0  0  0  0
 30 31  1  0  0  0  0
M  RAD  4   2   2   8   2   9   3  12   2
M  END
