Coordinates from ORCA-job 1f-Schema5-R6-D+-B3LYPG-6-31G_dp-scan-d49-09-n400
 OpenBabel08231810253D

 31 31  0  0  0  0  0  0  0  0999 V2000
   -4.4742   -0.3944   -3.0449 C   0  0  0  0  0  0  0  0  0  0  0  0
   -3.2523   -0.5581   -2.3401 C   0  0  0  0  0  0  0  0  0  0  0  0
   -3.3593   -0.0562   -1.0297 C   0  0  0  0  0  0  0  0  0  0  0  0
   -4.4805    0.5559   -0.3864 C   0  0  0  0  0  0  0  0  0  0  0  0
   -5.6155    0.6667   -1.1698 C   0  0  0  0  0  0  0  0  0  0  0  0
   -5.6109    0.1917   -2.4962 C   0  0  0  0  0  0  0  0  0  0  0  0
   -4.5365   -0.7465   -4.0744 H   0  0  0  0  0  0  0  0  0  0  0  0
   -2.1718   -0.2173   -0.3248 N   0  0  0  0  0  0  0  0  0  0  0  0
   -1.1748   -0.3981    0.1441 N   0  0  0  0  0  0  0  0  0  0  0  0
   -6.5171    0.2908   -3.0888 H   0  0  0  0  0  0  0  0  0  0  0  0
   -6.4972    1.1239   -0.7351 H   0  0  0  0  0  0  0  0  0  0  0  0
   -0.3372    0.6962   -5.1039 N   0  0  0  0  0  0  0  0  0  0  0  0
   -0.2192   -0.4110   -5.0894 N   0  0  0  0  0  0  0  0  0  0  0  0
   -0.2278   -1.7912   -4.9198 C   0  0  0  0  0  0  0  0  0  0  0  0
    0.6529   -2.6075   -5.6718 C   0  0  0  0  0  0  0  0  0  0  0  0
   -1.1515   -2.2710   -3.9811 C   0  0  0  0  0  0  0  0  0  0  0  0
    0.5785   -3.9757   -5.4493 C   0  0  0  0  0  0  0  0  0  0  0  0
   -1.1844   -3.6545   -3.7956 C   0  0  0  0  0  0  0  0  0  0  0  0
   -1.8283   -1.5866   -3.4030 H   0  0  0  0  0  0  0  0  0  0  0  0
   -0.3356   -4.4950   -4.5171 C   0  0  0  0  0  0  0  0  0  0  0  0
    1.2356   -4.6340   -6.0055 H   0  0  0  0  0  0  0  0  0  0  0  0
   -1.8871   -4.0675   -3.0784 H   0  0  0  0  0  0  0  0  0  0  0  0
   -0.3771   -5.5687   -4.3603 H   0  0  0  0  0  0  0  0  0  0  0  0
    1.5940   -1.9714   -6.6406 C   0  0  0  0  0  0  0  0  0  0  0  0
    1.6296   -0.7674   -6.8020 O   0  0  0  0  0  0  0  0  0  0  0  0
    2.3584   -2.8566   -7.2796 O   0  0  0  0  0  0  0  0  0  0  0  0
    2.9429   -2.3737   -7.8905 H   0  0  0  0  0  0  0  0  0  0  0  0
   -4.5437    1.0749    1.0126 C   0  0  0  0  0  0  0  0  0  0  0  0
   -5.5263    1.5819    1.5012 O   0  0  0  0  0  0  0  0  0  0  0  0
   -3.3762    0.9190    1.6813 O   0  0  0  0  0  0  0  0  0  0  0  0
   -3.5083    1.2840    2.5732 H   0  0  0  0  0  0  0  0  0  0  0  0
  1  6  2  0  0  0  0
  1  2  1  0  0  0  0
  2  3  2  0  0  0  0
  3  4  1  0  0  0  0
  3  8  1  0  0  0  0
  4 28  1  0  0  0  0
  5 11  1  0  0  0  0
  5  4  2  0  0  0  0
  6  5  1  0  0  0  0
  7  1  1  0  0  0  0
  8  9  1  0  0  0  0
 10  6  1  0  0  0  0
 12 13  1  0  0  0  0
 13 14  1  0  0  0  0
 14 16  2  0  0  0  0
 15 17  2  0  0  0  0
 15 14  1  0  0  0  0
 16 18  1  0  0  0  0
 16 19  1  0  0  0  0
 17 20  1  0  0  0  0
 18 22  1  0  0  0  0
 20 23  1  0  0  0  0
 20 18  2  0  0  0  0
 21 17  1  0  0  0  0
 24 15  1  0  0  0  0
 25 24  2  0  0  0  0
 26 24  1  0  0  0  0
 27 26  1  0  0  0  0
 28 29  2  0  0  0  0
 28 30  1  0  0  0  0
 30 31  1  0  0  0  0
M  RAD  5   2   2   8   2   9   3  12   3  13   2
M  END
