Coordinates from ORCA-job 1f-Schema5-R6-D+-B3LYPG-6-31G_dp-scan-d49-09-n400
 OpenBabel08231810253D

 31 31  0  0  0  0  0  0  0  0999 V2000
   -3.2727   -0.5559   -3.3495 C   0  0  0  0  0  0  0  0  0  0  0  0
   -2.3169   -0.3387   -2.3616 C   0  0  0  0  0  0  0  0  0  0  0  0
   -2.7403    0.2819   -1.1813 C   0  0  0  0  0  0  0  0  0  0  0  0
   -4.0864    0.6505   -0.9027 C   0  0  0  0  0  0  0  0  0  0  0  0
   -5.0066    0.3827   -1.9069 C   0  0  0  0  0  0  0  0  0  0  0  0
   -4.6062   -0.2059   -3.1180 C   0  0  0  0  0  0  0  0  0  0  0  0
   -2.9873   -0.9991   -4.2979 H   0  0  0  0  0  0  0  0  0  0  0  0
   -1.7253    0.5462   -0.2732 N   0  0  0  0  0  0  0  0  0  0  0  0
   -0.8428    0.7374    0.3774 N   0  0  0  0  0  0  0  0  0  0  0  0
   -5.3509   -0.3885   -3.8873 H   0  0  0  0  0  0  0  0  0  0  0  0
   -6.0418    0.6518   -1.7288 H   0  0  0  0  0  0  0  0  0  0  0  0
   -0.3574   -0.2578   -2.5750 N   0  0  0  0  0  0  0  0  0  0  0  0
    0.1454   -1.0352   -3.3097 N   0  0  0  0  0  0  0  0  0  0  0  0
   -0.3118   -2.2171   -3.9415 C   0  0  0  0  0  0  0  0  0  0  0  0
    0.0159   -2.4647   -5.2892 C   0  0  0  0  0  0  0  0  0  0  0  0
   -0.9482   -3.1819   -3.1551 C   0  0  0  0  0  0  0  0  0  0  0  0
   -0.3369   -3.6978   -5.8420 C   0  0  0  0  0  0  0  0  0  0  0  0
   -1.2857   -4.4084   -3.7297 C   0  0  0  0  0  0  0  0  0  0  0  0
   -1.1374   -2.9852   -2.1061 H   0  0  0  0  0  0  0  0  0  0  0  0
   -0.9834   -4.6650   -5.0678 C   0  0  0  0  0  0  0  0  0  0  0  0
   -0.1027   -3.8899   -6.8825 H   0  0  0  0  0  0  0  0  0  0  0  0
   -1.7712   -5.1666   -3.1238 H   0  0  0  0  0  0  0  0  0  0  0  0
   -1.2434   -5.6214   -5.5087 H   0  0  0  0  0  0  0  0  0  0  0  0
    0.6550   -1.3807   -6.0881 C   0  0  0  0  0  0  0  0  0  0  0  0
    0.7398   -0.2319   -5.7022 O   0  0  0  0  0  0  0  0  0  0  0  0
    1.1162   -1.8121   -7.2729 O   0  0  0  0  0  0  0  0  0  0  0  0
    1.5052   -1.0471   -7.7307 H   0  0  0  0  0  0  0  0  0  0  0  0
   -4.5872    1.2919    0.3583 C   0  0  0  0  0  0  0  0  0  0  0  0
   -5.7445    1.5801    0.5351 O   0  0  0  0  0  0  0  0  0  0  0  0
   -3.5998    1.4971    1.2540 O   0  0  0  0  0  0  0  0  0  0  0  0
   -3.9916    1.9141    2.0419 H   0  0  0  0  0  0  0  0  0  0  0  0
  1  6  2  0  0  0  0
  1  2  1  0  0  0  0
  2  3  2  0  0  0  0
  3  4  1  0  0  0  0
  3  8  1  0  0  0  0
  4 28  1  0  0  0  0
  5 11  1  0  0  0  0
  5  4  2  0  0  0  0
  6  5  1  0  0  0  0
  7  1  1  0  0  0  0
  8  9  1  0  0  0  0
 10  6  1  0  0  0  0
 13 12  2  0  0  0  0
 14 13  1  0  0  0  0
 14 16  2  0  0  0  0
 15 14  1  0  0  0  0
 16 19  1  0  0  0  0
 17 15  2  0  0  0  0
 17 20  1  0  0  0  0
 18 16  1  0  0  0  0
 18 22  1  0  0  0  0
 20 18  2  0  0  0  0
 21 17  1  0  0  0  0
 23 20  1  0  0  0  0
 24 25  2  0  0  0  0
 24 15  1  0  0  0  0
 26 24  1  0  0  0  0
 27 26  1  0  0  0  0
 28 29  2  0  0  0  0
 28 30  1  0  0  0  0
 30 31  1  0  0  0  0
M  RAD  4   2   2   8   2   9   3  12   2
M  END
