Coordinates from ORCA-job 1f-Schema5-R6-D+-B3LYPG-6-31G_dp-scan-d49-09-n400
 OpenBabel08231810253D

 31 31  0  0  0  0  0  0  0  0999 V2000
   -4.4055   -0.3765   -3.0731 C   0  0  0  0  0  0  0  0  0  0  0  0
   -3.2093   -0.5709   -2.3337 C   0  0  0  0  0  0  0  0  0  0  0  0
   -3.3363   -0.0559   -1.0301 C   0  0  0  0  0  0  0  0  0  0  0  0
   -4.4559    0.5944   -0.4226 C   0  0  0  0  0  0  0  0  0  0  0  0
   -5.5647    0.7345   -1.2384 C   0  0  0  0  0  0  0  0  0  0  0  0
   -5.5383    0.2493   -2.5607 C   0  0  0  0  0  0  0  0  0  0  0  0
   -4.4511   -0.7364   -4.1009 H   0  0  0  0  0  0  0  0  0  0  0  0
   -2.1746   -0.2475   -0.2906 N   0  0  0  0  0  0  0  0  0  0  0  0
   -1.1978   -0.4549    0.2085 N   0  0  0  0  0  0  0  0  0  0  0  0
   -6.4240    0.3719   -3.1793 H   0  0  0  0  0  0  0  0  0  0  0  0
   -6.4437    1.2214   -0.8312 H   0  0  0  0  0  0  0  0  0  0  0  0
   -0.5135    0.6283   -4.9109 N   0  0  0  0  0  0  0  0  0  0  0  0
   -0.3230   -0.4675   -4.9689 N   0  0  0  0  0  0  0  0  0  0  0  0
   -0.2695   -1.8535   -4.8532 C   0  0  0  0  0  0  0  0  0  0  0  0
    0.6152   -2.6095   -5.6581 C   0  0  0  0  0  0  0  0  0  0  0  0
   -1.1458   -2.3934   -3.9038 C   0  0  0  0  0  0  0  0  0  0  0  0
    0.5968   -3.9860   -5.4781 C   0  0  0  0  0  0  0  0  0  0  0  0
   -1.1264   -3.7821   -3.7617 C   0  0  0  0  0  0  0  0  0  0  0  0
   -1.8189   -1.7238   -3.3055 H   0  0  0  0  0  0  0  0  0  0  0  0
   -0.2693   -4.5666   -4.5357 C   0  0  0  0  0  0  0  0  0  0  0  0
    1.2588   -4.6032   -6.0744 H   0  0  0  0  0  0  0  0  0  0  0  0
   -1.7911   -4.2461   -3.0396 H   0  0  0  0  0  0  0  0  0  0  0  0
   -0.2671   -5.6456   -4.4124 H   0  0  0  0  0  0  0  0  0  0  0  0
    1.4975   -1.9019   -6.6319 C   0  0  0  0  0  0  0  0  0  0  0  0
    1.4768   -0.6922   -6.7496 O   0  0  0  0  0  0  0  0  0  0  0  0
    2.2761   -2.7304   -7.3269 O   0  0  0  0  0  0  0  0  0  0  0  0
    2.8194   -2.2023   -7.9384 H   0  0  0  0  0  0  0  0  0  0  0  0
   -4.5428    1.1243    0.9712 C   0  0  0  0  0  0  0  0  0  0  0  0
   -5.5232    1.6638    1.4283 O   0  0  0  0  0  0  0  0  0  0  0  0
   -3.4016    0.9338    1.6750 O   0  0  0  0  0  0  0  0  0  0  0  0
   -3.5481    1.3070    2.5614 H   0  0  0  0  0  0  0  0  0  0  0  0
  1  6  2  0  0  0  0
  1  2  1  0  0  0  0
  2  3  2  0  0  0  0
  3  4  1  0  0  0  0
  3  8  1  0  0  0  0
  4 28  1  0  0  0  0
  5 11  1  0  0  0  0
  5  4  2  0  0  0  0
  6  5  1  0  0  0  0
  7  1  1  0  0  0  0
  8  9  1  0  0  0  0
 10  6  1  0  0  0  0
 13 12  1  0  0  0  0
 13 14  1  0  0  0  0
 14 16  2  0  0  0  0
 15 17  2  0  0  0  0
 15 14  1  0  0  0  0
 16 18  1  0  0  0  0
 16 19  1  0  0  0  0
 17 20  1  0  0  0  0
 18 22  1  0  0  0  0
 20 23  1  0  0  0  0
 20 18  2  0  0  0  0
 21 17  1  0  0  0  0
 24 15  1  0  0  0  0
 25 24  2  0  0  0  0
 26 24  1  0  0  0  0
 27 26  1  0  0  0  0
 28 29  2  0  0  0  0
 28 30  1  0  0  0  0
 30 31  1  0  0  0  0
M  RAD  5   2   2   8   2   9   3  12   3  13   2
M  END
