Coordinates from ORCA-job 1f-Schema5-R6-D+-B3LYPG-6-31G_dp-scan-d49-09-n400
 OpenBabel08231810253D

 31 32  0  0  0  0  0  0  0  0999 V2000
   -4.9216   -0.3619   -3.1558 C   0  0  0  0  0  0  0  0  0  0  0  0
   -3.5369   -0.6564   -2.8880 C   0  0  0  0  0  0  0  0  0  0  0  0
   -2.9387    0.1850   -1.8373 C   0  0  0  0  0  0  0  0  0  0  0  0
   -3.6594    1.2178   -1.1648 C   0  0  0  0  0  0  0  0  0  0  0  0
   -4.9672    1.4565   -1.5512 C   0  0  0  0  0  0  0  0  0  0  0  0
   -5.5903    0.6704   -2.5404 C   0  0  0  0  0  0  0  0  0  0  0  0
   -5.4046   -0.9803   -3.9046 H   0  0  0  0  0  0  0  0  0  0  0  0
   -1.6628   -0.1064   -1.4628 N   0  0  0  0  0  0  0  0  0  0  0  0
   -0.6294   -0.3377   -1.0979 N   0  0  0  0  0  0  0  0  0  0  0  0
   -6.6253    0.8669   -2.8006 H   0  0  0  0  0  0  0  0  0  0  0  0
   -5.5053    2.2471   -1.0411 H   0  0  0  0  0  0  0  0  0  0  0  0
   -3.0015   -1.4850   -3.4802 N   0  0  0  0  0  0  0  0  0  0  0  0
   -1.7483   -1.5152   -3.7499 N   0  0  0  0  0  0  0  0  0  0  0  0
   -1.2472   -2.7021   -4.2529 C   0  0  0  0  0  0  0  0  0  0  0  0
    0.1486   -2.7448   -4.5421 C   0  0  0  0  0  0  0  0  0  0  0  0
   -2.0597   -3.8229   -4.5455 C   0  0  0  0  0  0  0  0  0  0  0  0
    0.6800   -3.8905   -5.1322 C   0  0  0  0  0  0  0  0  0  0  0  0
   -1.5050   -4.9593   -5.1105 C   0  0  0  0  0  0  0  0  0  0  0  0
   -3.1232   -3.7579   -4.3473 H   0  0  0  0  0  0  0  0  0  0  0  0
   -0.1356   -4.9927   -5.4082 C   0  0  0  0  0  0  0  0  0  0  0  0
    1.7377   -3.9240   -5.3640 H   0  0  0  0  0  0  0  0  0  0  0  0
   -2.1324   -5.8149   -5.3377 H   0  0  0  0  0  0  0  0  0  0  0  0
    0.2980   -5.8788   -5.8610 H   0  0  0  0  0  0  0  0  0  0  0  0
    1.0633   -1.6200   -4.1617 C   0  0  0  0  0  0  0  0  0  0  0  0
    0.9030   -0.8723   -3.2185 O   0  0  0  0  0  0  0  0  0  0  0  0
    2.1287   -1.5543   -4.9787 O   0  0  0  0  0  0  0  0  0  0  0  0
    2.7050   -0.8433   -4.6483 H   0  0  0  0  0  0  0  0  0  0  0  0
   -3.1355    2.0849   -0.0499 C   0  0  0  0  0  0  0  0  0  0  0  0
   -3.7722    3.0013    0.4105 O   0  0  0  0  0  0  0  0  0  0  0  0
   -1.9076    1.7311    0.3713 O   0  0  0  0  0  0  0  0  0  0  0  0
   -1.6555    2.3424    1.0859 H   0  0  0  0  0  0  0  0  0  0  0  0
  1  2  2  0  0  0  0
  1  6  1  0  0  0  0
  2  3  1  0  0  0  0
  3  8  1  0  0  0  0
  3  4  2  0  0  0  0
  4 28  1  0  0  0  0
  5  4  1  0  0  0  0
  5 11  1  0  0  0  0
  6  5  2  0  0  0  0
  7  1  1  0  0  0  0
  8  9  1  0  0  0  0
 10  6  1  0  0  0  0
 12  2  1  0  0  0  0
 13 12  2  0  0  0  0
 14 13  1  0  0  0  0
 15 14  2  0  0  0  0
 15 24  1  0  0  0  0
 16 19  1  0  0  0  0
 16 14  1  0  0  0  0
 17 15  1  0  0  0  0
 18 16  2  0  0  0  0
 20 17  2  0  0  0  0
 20 18  1  0  0  0  0
 21 17  1  0  0  0  0
 22 18  1  0  0  0  0
 23 20  1  0  0  0  0
 24 25  2  0  0  0  0
 26 27  1  0  0  0  0
 26 24  1  0  0  0  0
 28 30  1  0  0  0  0
 28 29  2  0  0  0  0
 30 31  1  0  0  0  0
M  RAD  2   8   2   9   3
M  END
