Coordinates from ORCA-job 1f-Schema5-R6-D+-B3LYPG-6-31G_dp-scan-d49-09-n400
 OpenBabel08231810253D

 31 31  0  0  0  0  0  0  0  0999 V2000
   -3.4458   -0.6416   -3.2403 C   0  0  0  0  0  0  0  0  0  0  0  0
   -2.4369   -0.3773   -2.3145 C   0  0  0  0  0  0  0  0  0  0  0  0
   -2.8155    0.3051   -1.1544 C   0  0  0  0  0  0  0  0  0  0  0  0
   -4.1445    0.7024   -0.8326 C   0  0  0  0  0  0  0  0  0  0  0  0
   -5.1101    0.3895   -1.7787 C   0  0  0  0  0  0  0  0  0  0  0  0
   -4.7660   -0.2693   -2.9712 C   0  0  0  0  0  0  0  0  0  0  0  0
   -3.2127   -1.1414   -4.1755 H   0  0  0  0  0  0  0  0  0  0  0  0
   -1.7592    0.6040   -0.3028 N   0  0  0  0  0  0  0  0  0  0  0  0
   -0.8430    0.8109    0.2946 N   0  0  0  0  0  0  0  0  0  0  0  0
   -5.5455   -0.4893   -3.6951 H   0  0  0  0  0  0  0  0  0  0  0  0
   -6.1350    0.6763   -1.5709 H   0  0  0  0  0  0  0  0  0  0  0  0
   -0.3459   -0.2978   -2.6082 N   0  0  0  0  0  0  0  0  0  0  0  0
    0.1136   -1.0699   -3.3534 N   0  0  0  0  0  0  0  0  0  0  0  0
   -0.2941   -2.2528   -4.0096 C   0  0  0  0  0  0  0  0  0  0  0  0
    0.1114   -2.4920   -5.3368 C   0  0  0  0  0  0  0  0  0  0  0  0
   -0.9833   -3.2118   -3.2623 C   0  0  0  0  0  0  0  0  0  0  0  0
   -0.2190   -3.7192   -5.9144 C   0  0  0  0  0  0  0  0  0  0  0  0
   -1.2968   -4.4317   -3.8630 C   0  0  0  0  0  0  0  0  0  0  0  0
   -1.2394   -3.0098   -2.2290 H   0  0  0  0  0  0  0  0  0  0  0  0
   -0.9175   -4.6837   -5.1825 C   0  0  0  0  0  0  0  0  0  0  0  0
    0.0736   -3.9098   -6.9401 H   0  0  0  0  0  0  0  0  0  0  0  0
   -1.8255   -5.1880   -3.2919 H   0  0  0  0  0  0  0  0  0  0  0  0
   -1.1593   -5.6359   -5.6426 H   0  0  0  0  0  0  0  0  0  0  0  0
    0.8131   -1.4113   -6.0884 C   0  0  0  0  0  0  0  0  0  0  0  0
    0.9139   -0.2732   -5.6764 O   0  0  0  0  0  0  0  0  0  0  0  0
    1.3074   -1.8348   -7.2616 O   0  0  0  0  0  0  0  0  0  0  0  0
    1.7356   -1.0742   -7.6910 H   0  0  0  0  0  0  0  0  0  0  0  0
   -4.5826    1.4138    0.4127 C   0  0  0  0  0  0  0  0  0  0  0  0
   -5.7279    1.7252    0.6274 O   0  0  0  0  0  0  0  0  0  0  0  0
   -3.5544    1.6550    1.2530 O   0  0  0  0  0  0  0  0  0  0  0  0
   -3.9096    2.1149    2.0341 H   0  0  0  0  0  0  0  0  0  0  0  0
  1  6  2  0  0  0  0
  1  2  1  0  0  0  0
  2  3  2  0  0  0  0
  3  4  1  0  0  0  0
  3  8  1  0  0  0  0
  4 28  1  0  0  0  0
  5 11  1  0  0  0  0
  5  4  2  0  0  0  0
  6  5  1  0  0  0  0
  7  1  1  0  0  0  0
  8  9  1  0  0  0  0
 10  6  1  0  0  0  0
 13 12  2  0  0  0  0
 14 13  1  0  0  0  0
 14 16  2  0  0  0  0
 15 14  1  0  0  0  0
 16 19  1  0  0  0  0
 17 15  2  0  0  0  0
 17 20  1  0  0  0  0
 18 22  1  0  0  0  0
 18 16  1  0  0  0  0
 20 18  2  0  0  0  0
 21 17  1  0  0  0  0
 23 20  1  0  0  0  0
 24 25  2  0  0  0  0
 24 15  1  0  0  0  0
 26 24  1  0  0  0  0
 27 26  1  0  0  0  0
 28 29  2  0  0  0  0
 28 30  1  0  0  0  0
 30 31  1  0  0  0  0
M  RAD  4   2   2   8   2   9   3  12   2
M  END
