Coordinates from ORCA-job 1f-Schema5-R6-D+-B3LYPG-6-31G_dp-scan-d49-09-n400
 OpenBabel08231810253D

 31 31  0  0  0  0  0  0  0  0999 V2000
   -3.9183   -0.6789   -3.0161 C   0  0  0  0  0  0  0  0  0  0  0  0
   -2.7747   -0.3677   -2.2626 C   0  0  0  0  0  0  0  0  0  0  0  0
   -3.0365    0.3626   -1.0974 C   0  0  0  0  0  0  0  0  0  0  0  0
   -4.3127    0.7786   -0.6146 C   0  0  0  0  0  0  0  0  0  0  0  0
   -5.3913    0.4171   -1.4059 C   0  0  0  0  0  0  0  0  0  0  0  0
   -5.1960   -0.3031   -2.5984 C   0  0  0  0  0  0  0  0  0  0  0  0
   -3.8181   -1.2267   -3.9503 H   0  0  0  0  0  0  0  0  0  0  0  0
   -1.8810    0.6929   -0.3973 N   0  0  0  0  0  0  0  0  0  0  0  0
   -0.8953    0.9102    0.0748 N   0  0  0  0  0  0  0  0  0  0  0  0
   -6.0619   -0.5653   -3.2002 H   0  0  0  0  0  0  0  0  0  0  0  0
   -6.3832    0.7103   -1.0807 H   0  0  0  0  0  0  0  0  0  0  0  0
   -0.3404   -0.1762   -2.9767 N   0  0  0  0  0  0  0  0  0  0  0  0
   -0.0050   -0.9985   -3.6887 N   0  0  0  0  0  0  0  0  0  0  0  0
   -0.2544   -2.2437   -4.2841 C   0  0  0  0  0  0  0  0  0  0  0  0
    0.3889   -2.5904   -5.4869 C   0  0  0  0  0  0  0  0  0  0  0  0
   -1.1051   -3.1126   -3.5950 C   0  0  0  0  0  0  0  0  0  0  0  0
    0.1406   -3.8603   -6.0061 C   0  0  0  0  0  0  0  0  0  0  0  0
   -1.3321   -4.3753   -4.1400 C   0  0  0  0  0  0  0  0  0  0  0  0
   -1.5669   -2.7842   -2.6702 H   0  0  0  0  0  0  0  0  0  0  0  0
   -0.7112   -4.7456   -5.3356 C   0  0  0  0  0  0  0  0  0  0  0  0
    0.6149   -4.1492   -6.9362 H   0  0  0  0  0  0  0  0  0  0  0  0
   -1.9873   -5.0704   -3.6255 H   0  0  0  0  0  0  0  0  0  0  0  0
   -0.8880   -5.7323   -5.7506 H   0  0  0  0  0  0  0  0  0  0  0  0
    1.2661   -1.5879   -6.1635 C   0  0  0  0  0  0  0  0  0  0  0  0
    1.3919   -0.4479   -5.7646 O   0  0  0  0  0  0  0  0  0  0  0  0
    1.8834   -2.0886   -7.2398 O   0  0  0  0  0  0  0  0  0  0  0  0
    2.4275   -1.3815   -7.6284 H   0  0  0  0  0  0  0  0  0  0  0  0
   -4.5864    1.5503    0.6383 C   0  0  0  0  0  0  0  0  0  0  0  0
   -5.6937    1.8746    0.9938 O   0  0  0  0  0  0  0  0  0  0  0  0
   -3.4578    1.8380    1.3236 O   0  0  0  0  0  0  0  0  0  0  0  0
   -3.7172    2.3346    2.1193 H   0  0  0  0  0  0  0  0  0  0  0  0
  1  6  2  0  0  0  0
  1  2  1  0  0  0  0
  2  3  2  0  0  0  0
  3  4  1  0  0  0  0
  3  8  1  0  0  0  0
  4 28  1  0  0  0  0
  5 11  1  0  0  0  0
  5  4  2  0  0  0  0
  6  5  1  0  0  0  0
  7  1  1  0  0  0  0
  8  9  1  0  0  0  0
 10  6  1  0  0  0  0
 13 12  2  0  0  0  0
 14 13  1  0  0  0  0
 14 16  2  0  0  0  0
 15 14  1  0  0  0  0
 16 19  1  0  0  0  0
 17 15  2  0  0  0  0
 17 20  1  0  0  0  0
 18 22  1  0  0  0  0
 18 16  1  0  0  0  0
 20 18  2  0  0  0  0
 21 17  1  0  0  0  0
 23 20  1  0  0  0  0
 24 25  2  0  0  0  0
 24 15  1  0  0  0  0
 26 24  1  0  0  0  0
 27 26  1  0  0  0  0
 28 29  2  0  0  0  0
 28 30  1  0  0  0  0
 30 31  1  0  0  0  0
M  RAD  4   2   2   8   2   9   3  12   2
M  END
