Coordinates from ORCA-job 1f-Schema5-R6-D+-B3LYPG-6-31G_dp-scan-d49-09-n400
 OpenBabel08231810253D

 31 31  0  0  0  0  0  0  0  0999 V2000
   -4.4737   -0.4336   -3.0182 C   0  0  0  0  0  0  0  0  0  0  0  0
   -3.2417   -0.5445   -2.3209 C   0  0  0  0  0  0  0  0  0  0  0  0
   -3.3593   -0.0375   -1.0134 C   0  0  0  0  0  0  0  0  0  0  0  0
   -4.4991    0.5350   -0.3663 C   0  0  0  0  0  0  0  0  0  0  0  0
   -5.6432    0.5943   -1.1419 C   0  0  0  0  0  0  0  0  0  0  0  0
   -5.6292    0.1103   -2.4651 C   0  0  0  0  0  0  0  0  0  0  0  0
   -4.5287   -0.7936   -4.0454 H   0  0  0  0  0  0  0  0  0  0  0  0
   -2.1612   -0.1464   -0.3163 N   0  0  0  0  0  0  0  0  0  0  0  0
   -1.1544   -0.2841    0.1461 N   0  0  0  0  0  0  0  0  0  0  0  0
   -6.5428    0.1690   -3.0516 H   0  0  0  0  0  0  0  0  0  0  0  0
   -6.5392    1.0197   -0.7042 H   0  0  0  0  0  0  0  0  0  0  0  0
   -0.1570    0.7356   -5.1216 N   0  0  0  0  0  0  0  0  0  0  0  0
   -0.1017   -0.3764   -5.1001 N   0  0  0  0  0  0  0  0  0  0  0  0
   -0.1779   -1.7546   -4.9337 C   0  0  0  0  0  0  0  0  0  0  0  0
    0.6662   -2.6080   -5.6883 C   0  0  0  0  0  0  0  0  0  0  0  0
   -1.1241   -2.1984   -3.9984 C   0  0  0  0  0  0  0  0  0  0  0  0
    0.5295   -3.9724   -5.4729 C   0  0  0  0  0  0  0  0  0  0  0  0
   -1.2193   -3.5801   -3.8214 C   0  0  0  0  0  0  0  0  0  0  0  0
   -1.7805   -1.5013   -3.4119 H   0  0  0  0  0  0  0  0  0  0  0  0
   -0.4086   -4.4548   -4.5453 C   0  0  0  0  0  0  0  0  0  0  0  0
    1.1574   -4.6566   -6.0317 H   0  0  0  0  0  0  0  0  0  0  0  0
   -1.9421   -3.9629   -3.1074 H   0  0  0  0  0  0  0  0  0  0  0  0
   -0.4991   -5.5263   -4.3943 H   0  0  0  0  0  0  0  0  0  0  0  0
    1.6382   -2.0137   -6.6537 C   0  0  0  0  0  0  0  0  0  0  0  0
    1.7308   -0.8125   -6.8126 O   0  0  0  0  0  0  0  0  0  0  0  0
    2.3622   -2.9321   -7.2927 O   0  0  0  0  0  0  0  0  0  0  0  0
    2.9699   -2.4754   -7.9011 H   0  0  0  0  0  0  0  0  0  0  0  0
   -4.5726    1.0627    1.0289 C   0  0  0  0  0  0  0  0  0  0  0  0
   -5.5718    1.5311    1.5223 O   0  0  0  0  0  0  0  0  0  0  0  0
   -3.3939    0.9619    1.6886 O   0  0  0  0  0  0  0  0  0  0  0  0
   -3.5341    1.3281    2.5789 H   0  0  0  0  0  0  0  0  0  0  0  0
  1  6  2  0  0  0  0
  1  2  1  0  0  0  0
  2  3  2  0  0  0  0
  3  4  1  0  0  0  0
  3  8  1  0  0  0  0
  4 28  1  0  0  0  0
  5 11  1  0  0  0  0
  5  4  2  0  0  0  0
  6  5  1  0  0  0  0
  7  1  1  0  0  0  0
  8  9  1  0  0  0  0
 10  6  1  0  0  0  0
 12 13  1  0  0  0  0
 13 14  1  0  0  0  0
 14 16  2  0  0  0  0
 15 17  2  0  0  0  0
 15 14  1  0  0  0  0
 16 18  1  0  0  0  0
 16 19  1  0  0  0  0
 17 20  1  0  0  0  0
 18 22  1  0  0  0  0
 20 23  1  0  0  0  0
 20 18  2  0  0  0  0
 21 17  1  0  0  0  0
 24 15  1  0  0  0  0
 25 24  2  0  0  0  0
 26 24  1  0  0  0  0
 27 26  1  0  0  0  0
 28 29  2  0  0  0  0
 28 30  1  0  0  0  0
 30 31  1  0  0  0  0
M  RAD  5   2   2   8   2   9   3  12   3  13   2
M  END
