Coordinates from ORCA-job 1f-Schema5-R6-D+-B3LYPG-6-31G_dp-scan-d49-09-n400
 OpenBabel08231810253D

 31 31  0  0  0  0  0  0  0  0999 V2000
   -3.3719   -0.6072   -3.2880 C   0  0  0  0  0  0  0  0  0  0  0  0
   -2.3854   -0.3617   -2.3353 C   0  0  0  0  0  0  0  0  0  0  0  0
   -2.7831    0.2951   -1.1665 C   0  0  0  0  0  0  0  0  0  0  0  0
   -4.1196    0.6802   -0.8630 C   0  0  0  0  0  0  0  0  0  0  0  0
   -5.0661    0.3856   -1.8343 C   0  0  0  0  0  0  0  0  0  0  0  0
   -4.6981   -0.2443   -3.0350 C   0  0  0  0  0  0  0  0  0  0  0  0
   -3.1168   -1.0838   -4.2292 H   0  0  0  0  0  0  0  0  0  0  0  0
   -1.7441    0.5800   -0.2904 N   0  0  0  0  0  0  0  0  0  0  0  0
   -0.8416    0.7805    0.3295 N   0  0  0  0  0  0  0  0  0  0  0  0
   -5.4629   -0.4492   -3.7786 H   0  0  0  0  0  0  0  0  0  0  0  0
   -6.0956    0.6648   -1.6392 H   0  0  0  0  0  0  0  0  0  0  0  0
   -0.3503   -0.2811   -2.5925 N   0  0  0  0  0  0  0  0  0  0  0  0
    0.1277   -1.0551   -3.3331 N   0  0  0  0  0  0  0  0  0  0  0  0
   -0.3014   -2.2375   -3.9795 C   0  0  0  0  0  0  0  0  0  0  0  0
    0.0702   -2.4795   -5.3164 C   0  0  0  0  0  0  0  0  0  0  0  0
   -0.9678   -3.1993   -3.2151 C   0  0  0  0  0  0  0  0  0  0  0  0
   -0.2709   -3.7087   -5.8840 C   0  0  0  0  0  0  0  0  0  0  0  0
   -1.2927   -4.4215   -3.8053 C   0  0  0  0  0  0  0  0  0  0  0  0
   -1.1947   -3.0002   -2.1743 H   0  0  0  0  0  0  0  0  0  0  0  0
   -0.9473   -4.6746   -5.1337 C   0  0  0  0  0  0  0  0  0  0  0  0
   -0.0039   -3.8994   -6.9167 H   0  0  0  0  0  0  0  0  0  0  0  0
   -1.8029   -5.1789   -3.2191 H   0  0  0  0  0  0  0  0  0  0  0  0
   -1.1976   -5.6283   -5.5862 H   0  0  0  0  0  0  0  0  0  0  0  0
    0.7458   -1.3973   -6.0885 C   0  0  0  0  0  0  0  0  0  0  0  0
    0.8435   -0.2553   -5.6862 O   0  0  0  0  0  0  0  0  0  0  0  0
    1.2252   -1.8242   -7.2671 O   0  0  0  0  0  0  0  0  0  0  0  0
    1.6384   -1.0620   -7.7082 H   0  0  0  0  0  0  0  0  0  0  0  0
   -4.5844    1.3627    0.3895 C   0  0  0  0  0  0  0  0  0  0  0  0
   -5.7352    1.6630    0.5886 O   0  0  0  0  0  0  0  0  0  0  0  0
   -3.5733    1.5892    1.2537 O   0  0  0  0  0  0  0  0  0  0  0  0
   -3.9442    2.0306    2.0383 H   0  0  0  0  0  0  0  0  0  0  0  0
  1  6  2  0  0  0  0
  1  2  1  0  0  0  0
  2  3  2  0  0  0  0
  3  4  1  0  0  0  0
  3  8  1  0  0  0  0
  4 28  1  0  0  0  0
  5 11  1  0  0  0  0
  5  4  2  0  0  0  0
  6  5  1  0  0  0  0
  7  1  1  0  0  0  0
  8  9  1  0  0  0  0
 10  6  1  0  0  0  0
 13 12  2  0  0  0  0
 14 13  1  0  0  0  0
 14 16  2  0  0  0  0
 15 14  1  0  0  0  0
 16 19  1  0  0  0  0
 17 15  2  0  0  0  0
 17 20  1  0  0  0  0
 18 22  1  0  0  0  0
 18 16  1  0  0  0  0
 20 18  2  0  0  0  0
 21 17  1  0  0  0  0
 23 20  1  0  0  0  0
 24 25  2  0  0  0  0
 24 15  1  0  0  0  0
 26 24  1  0  0  0  0
 27 26  1  0  0  0  0
 28 29  2  0  0  0  0
 28 30  1  0  0  0  0
 30 31  1  0  0  0  0
M  RAD  4   2   2   8   2   9   3  12   2
M  END
