Coordinates from ORCA-job 1f-Schema5-R6-D+-B3LYPG-6-31G_dp-scan-d49-09-n400
 OpenBabel08231810253D

 31 31  0  0  0  0  0  0  0  0999 V2000
   -4.2400   -0.5239   -3.0168 C   0  0  0  0  0  0  0  0  0  0  0  0
   -3.0170   -0.3359   -2.3383 C   0  0  0  0  0  0  0  0  0  0  0  0
   -3.1806    0.2994   -1.0967 C   0  0  0  0  0  0  0  0  0  0  0  0
   -4.3968    0.7342   -0.4862 C   0  0  0  0  0  0  0  0  0  0  0  0
   -5.5442    0.4939   -1.2231 C   0  0  0  0  0  0  0  0  0  0  0  0
   -5.4659   -0.1313   -2.4816 C   0  0  0  0  0  0  0  0  0  0  0  0
   -4.2389   -0.9929   -3.9990 H   0  0  0  0  0  0  0  0  0  0  0  0
   -1.9704    0.5027   -0.4451 N   0  0  0  0  0  0  0  0  0  0  0  0
   -0.9503    0.6222   -0.0104 N   0  0  0  0  0  0  0  0  0  0  0  0
   -6.3833   -0.3026   -3.0385 H   0  0  0  0  0  0  0  0  0  0  0  0
   -6.4949    0.8047   -0.8049 H   0  0  0  0  0  0  0  0  0  0  0  0
   -0.4926    0.1880   -3.6770 N   0  0  0  0  0  0  0  0  0  0  0  0
   -0.1797   -0.7491   -4.2169 N   0  0  0  0  0  0  0  0  0  0  0  0
   -0.2690   -2.1039   -4.5602 C   0  0  0  0  0  0  0  0  0  0  0  0
    0.5500   -2.6394   -5.5711 C   0  0  0  0  0  0  0  0  0  0  0  0
   -1.1955   -2.8481   -3.8269 C   0  0  0  0  0  0  0  0  0  0  0  0
    0.4087   -3.9974   -5.8452 C   0  0  0  0  0  0  0  0  0  0  0  0
   -1.3112   -4.2042   -4.1286 C   0  0  0  0  0  0  0  0  0  0  0  0
   -1.7960   -2.3390   -3.0711 H   0  0  0  0  0  0  0  0  0  0  0  0
   -0.5143   -4.7710   -5.1278 C   0  0  0  0  0  0  0  0  0  0  0  0
    1.0200   -4.4454   -6.6197 H   0  0  0  0  0  0  0  0  0  0  0  0
   -2.0215   -4.8159   -3.5824 H   0  0  0  0  0  0  0  0  0  0  0  0
   -0.6092   -5.8280   -5.3550 H   0  0  0  0  0  0  0  0  0  0  0  0
    1.5033   -1.7401   -6.2893 C   0  0  0  0  0  0  0  0  0  0  0  0
    1.5847   -0.5526   -6.0457 O   0  0  0  0  0  0  0  0  0  0  0  0
    2.2331   -2.3853   -7.2021 O   0  0  0  0  0  0  0  0  0  0  0  0
    2.8267   -1.7416   -7.6277 H   0  0  0  0  0  0  0  0  0  0  0  0
   -4.5448    1.4095    0.8400 C   0  0  0  0  0  0  0  0  0  0  0  0
   -5.6062    1.7559    1.3012 O   0  0  0  0  0  0  0  0  0  0  0  0
   -3.3598    1.5887    1.4670 O   0  0  0  0  0  0  0  0  0  0  0  0
   -3.5451    2.0311    2.3136 H   0  0  0  0  0  0  0  0  0  0  0  0
  1  6  2  0  0  0  0
  1  2  1  0  0  0  0
  2  3  2  0  0  0  0
  3  4  1  0  0  0  0
  3  8  1  0  0  0  0
  4 28  1  0  0  0  0
  5 11  1  0  0  0  0
  5  4  2  0  0  0  0
  6  5  1  0  0  0  0
  7  1  1  0  0  0  0
  8  9  1  0  0  0  0
 10  6  1  0  0  0  0
 13 12  2  0  0  0  0
 14 13  1  0  0  0  0
 14 16  2  0  0  0  0
 15 14  1  0  0  0  0
 16 19  1  0  0  0  0
 17 15  2  0  0  0  0
 17 20  1  0  0  0  0
 18 16  1  0  0  0  0
 18 22  1  0  0  0  0
 20 18  2  0  0  0  0
 21 17  1  0  0  0  0
 23 20  1  0  0  0  0
 24 25  2  0  0  0  0
 24 15  1  0  0  0  0
 26 24  1  0  0  0  0
 27 26  1  0  0  0  0
 28 29  2  0  0  0  0
 28 30  1  0  0  0  0
 30 31  1  0  0  0  0
M  RAD  4   2   2   8   2   9   3  12   2
M  END
