Coordinates from ORCA-job 1f-Schema5-R6-D+-B3LYPG-6-31G_dp-scan-d49-09-n400
 OpenBabel08231810253D

 31 31  0  0  0  0  0  0  0  0999 V2000
   -4.3181   -0.4915   -3.0331 C   0  0  0  0  0  0  0  0  0  0  0  0
   -3.0835   -0.4024   -2.3489 C   0  0  0  0  0  0  0  0  0  0  0  0
   -3.2238    0.2064   -1.0895 C   0  0  0  0  0  0  0  0  0  0  0  0
   -4.4130    0.7046   -0.4726 C   0  0  0  0  0  0  0  0  0  0  0  0
   -5.5675    0.5634   -1.2231 C   0  0  0  0  0  0  0  0  0  0  0  0
   -5.5196   -0.0328   -2.4975 C   0  0  0  0  0  0  0  0  0  0  0  0
   -4.3431   -0.9371   -4.0263 H   0  0  0  0  0  0  0  0  0  0  0  0
   -2.0108    0.3023   -0.4186 N   0  0  0  0  0  0  0  0  0  0  0  0
   -0.9907    0.3312    0.0323 N   0  0  0  0  0  0  0  0  0  0  0  0
   -6.4419   -0.1282   -3.0648 H   0  0  0  0  0  0  0  0  0  0  0  0
   -6.4989    0.9255   -0.8028 H   0  0  0  0  0  0  0  0  0  0  0  0
   -0.5303    0.3217   -3.9617 N   0  0  0  0  0  0  0  0  0  0  0  0
   -0.2343   -0.6634   -4.4076 N   0  0  0  0  0  0  0  0  0  0  0  0
   -0.2702   -2.0434   -4.6374 C   0  0  0  0  0  0  0  0  0  0  0  0
    0.5779   -2.6357   -5.5918 C   0  0  0  0  0  0  0  0  0  0  0  0
   -1.1899   -2.7418   -3.8534 C   0  0  0  0  0  0  0  0  0  0  0  0
    0.4752   -4.0141   -5.7523 C   0  0  0  0  0  0  0  0  0  0  0  0
   -1.2653   -4.1215   -4.0438 C   0  0  0  0  0  0  0  0  0  0  0  0
   -1.8130   -2.1760   -3.1488 H   0  0  0  0  0  0  0  0  0  0  0  0
   -0.4401   -4.7480   -4.9824 C   0  0  0  0  0  0  0  0  0  0  0  0
    1.1089   -4.5100   -6.4780 H   0  0  0  0  0  0  0  0  0  0  0  0
   -1.9683   -4.7047   -3.4581 H   0  0  0  0  0  0  0  0  0  0  0  0
   -0.5059   -5.8227   -5.1222 H   0  0  0  0  0  0  0  0  0  0  0  0
    1.5162   -1.7662   -6.3622 C   0  0  0  0  0  0  0  0  0  0  0  0
    1.5641   -0.5634   -6.1926 O   0  0  0  0  0  0  0  0  0  0  0  0
    2.2676   -2.4496   -7.2262 O   0  0  0  0  0  0  0  0  0  0  0  0
    2.8502   -1.8220   -7.6894 H   0  0  0  0  0  0  0  0  0  0  0  0
   -4.5268    1.3496    0.8713 C   0  0  0  0  0  0  0  0  0  0  0  0
   -5.5662    1.7531    1.3369 O   0  0  0  0  0  0  0  0  0  0  0  0
   -3.3373    1.4346    1.5109 O   0  0  0  0  0  0  0  0  0  0  0  0
   -3.5023    1.8647    2.3679 H   0  0  0  0  0  0  0  0  0  0  0  0
  1  6  2  0  0  0  0
  1  2  1  0  0  0  0
  2  3  2  0  0  0  0
  3  4  1  0  0  0  0
  3  8  1  0  0  0  0
  4 28  1  0  0  0  0
  5 11  1  0  0  0  0
  5  4  2  0  0  0  0
  6  5  1  0  0  0  0
  7  1  1  0  0  0  0
  8  9  1  0  0  0  0
 10  6  1  0  0  0  0
 13 12  1  0  0  0  0
 14 13  1  0  0  0  0
 14 16  2  0  0  0  0
 15 14  1  0  0  0  0
 16 19  1  0  0  0  0
 17 15  2  0  0  0  0
 17 20  1  0  0  0  0
 18 16  1  0  0  0  0
 18 22  1  0  0  0  0
 20 18  2  0  0  0  0
 21 17  1  0  0  0  0
 23 20  1  0  0  0  0
 24 25  2  0  0  0  0
 24 15  1  0  0  0  0
 26 24  1  0  0  0  0
 27 26  1  0  0  0  0
 28 29  2  0  0  0  0
 28 30  1  0  0  0  0
 30 31  1  0  0  0  0
M  RAD  5   2   2   8   2   9   3  12   3  13   2
M  END
