Coordinates from ORCA-job 1f-Schema5-R6-D+-B3LYPG-6-31G_dp-scan-d49-09-n400
 OpenBabel08231810253D

 31 31  0  0  0  0  0  0  0  0999 V2000
   -4.3277   -0.4298   -3.0731 C   0  0  0  0  0  0  0  0  0  0  0  0
   -3.1286   -0.5374   -2.3229 C   0  0  0  0  0  0  0  0  0  0  0  0
   -3.2785    0.0311   -1.0443 C   0  0  0  0  0  0  0  0  0  0  0  0
   -4.4269    0.6598   -0.4695 C   0  0  0  0  0  0  0  0  0  0  0  0
   -5.5387    0.7130   -1.2919 C   0  0  0  0  0  0  0  0  0  0  0  0
   -5.4882    0.1688   -2.5899 C   0  0  0  0  0  0  0  0  0  0  0  0
   -4.3539   -0.8354   -4.0840 H   0  0  0  0  0  0  0  0  0  0  0  0
   -2.1121   -0.0759   -0.2953 N   0  0  0  0  0  0  0  0  0  0  0  0
   -1.1300   -0.2169    0.2162 N   0  0  0  0  0  0  0  0  0  0  0  0
   -6.3766    0.2243   -3.2140 H   0  0  0  0  0  0  0  0  0  0  0  0
   -6.4387    1.1800   -0.9083 H   0  0  0  0  0  0  0  0  0  0  0  0
   -0.5769    0.4942   -4.4136 N   0  0  0  0  0  0  0  0  0  0  0  0
   -0.3299   -0.5634   -4.6676 N   0  0  0  0  0  0  0  0  0  0  0  0
   -0.2832   -1.9568   -4.7205 C   0  0  0  0  0  0  0  0  0  0  0  0
    0.5730   -2.6170   -5.6274 C   0  0  0  0  0  0  0  0  0  0  0  0
   -1.1392   -2.5957   -3.8190 C   0  0  0  0  0  0  0  0  0  0  0  0
    0.5488   -4.0060   -5.6077 C   0  0  0  0  0  0  0  0  0  0  0  0
   -1.1320   -3.9915   -3.8358 C   0  0  0  0  0  0  0  0  0  0  0  0
   -1.7840   -1.9755   -3.1585 H   0  0  0  0  0  0  0  0  0  0  0  0
   -0.2987   -4.6856   -4.7166 C   0  0  0  0  0  0  0  0  0  0  0  0
    1.1903   -4.5546   -6.2874 H   0  0  0  0  0  0  0  0  0  0  0  0
   -1.7821   -4.5340   -3.1569 H   0  0  0  0  0  0  0  0  0  0  0  0
   -0.3026   -5.7716   -4.7173 H   0  0  0  0  0  0  0  0  0  0  0  0
    1.4321   -1.7985   -6.5321 C   0  0  0  0  0  0  0  0  0  0  0  0
    1.4113   -0.5830   -6.5026 O   0  0  0  0  0  0  0  0  0  0  0  0
    2.1913   -2.5362   -7.3412 O   0  0  0  0  0  0  0  0  0  0  0  0
    2.7199   -1.9379   -7.8988 H   0  0  0  0  0  0  0  0  0  0  0  0
   -4.5408    1.2506    0.8982 C   0  0  0  0  0  0  0  0  0  0  0  0
   -5.5449    1.7692    1.3267 O   0  0  0  0  0  0  0  0  0  0  0  0
   -3.3946    1.1434    1.6108 O   0  0  0  0  0  0  0  0  0  0  0  0
   -3.5589    1.5509    2.4787 H   0  0  0  0  0  0  0  0  0  0  0  0
  1  6  2  0  0  0  0
  1  2  1  0  0  0  0
  2  3  2  0  0  0  0
  3  4  1  0  0  0  0
  3  8  1  0  0  0  0
  4 28  1  0  0  0  0
  5 11  1  0  0  0  0
  5  4  2  0  0  0  0
  6  5  1  0  0  0  0
  7  1  1  0  0  0  0
  8  9  1  0  0  0  0
 10  6  1  0  0  0  0
 13 12  1  0  0  0  0
 14 13  1  0  0  0  0
 14 16  2  0  0  0  0
 15 17  2  0  0  0  0
 15 14  1  0  0  0  0
 16 19  1  0  0  0  0
 17 20  1  0  0  0  0
 18 16  1  0  0  0  0
 18 22  1  0  0  0  0
 20 18  2  0  0  0  0
 21 17  1  0  0  0  0
 23 20  1  0  0  0  0
 24 25  2  0  0  0  0
 24 15  1  0  0  0  0
 26 24  1  0  0  0  0
 27 26  1  0  0  0  0
 28 29  2  0  0  0  0
 28 30  1  0  0  0  0
 30 31  1  0  0  0  0
M  RAD  5   2   2   8   2   9   3  12   3  13   2
M  END
