Coordinates from ORCA-job 1f-Schema5-R6-D+-B3LYPG-6-31G_dp-scan-d49-09-n400
 OpenBabel08231810253D

 31 31  0  0  0  0  0  0  0  0999 V2000
   -4.4798   -0.3673   -3.0637 C   0  0  0  0  0  0  0  0  0  0  0  0
   -3.2638   -0.5661   -2.3579 C   0  0  0  0  0  0  0  0  0  0  0  0
   -3.3597   -0.0675   -1.0452 C   0  0  0  0  0  0  0  0  0  0  0  0
   -4.4657    0.5708   -0.4008 C   0  0  0  0  0  0  0  0  0  0  0  0
   -5.5958    0.7156   -1.1858 C   0  0  0  0  0  0  0  0  0  0  0  0
   -5.6015    0.2467   -2.5143 C   0  0  0  0  0  0  0  0  0  0  0  0
   -4.5501   -0.7137   -4.0946 H   0  0  0  0  0  0  0  0  0  0  0  0
   -2.1784   -0.2632   -0.3389 N   0  0  0  0  0  0  0  0  0  0  0  0
   -1.1875   -0.4726    0.1311 N   0  0  0  0  0  0  0  0  0  0  0  0
   -6.5034    0.3726   -3.1082 H   0  0  0  0  0  0  0  0  0  0  0  0
   -6.4659    1.1940   -0.7504 H   0  0  0  0  0  0  0  0  0  0  0  0
   -0.4673    0.6626   -5.0898 N   0  0  0  0  0  0  0  0  0  0  0  0
   -0.3041   -0.4390   -5.0817 N   0  0  0  0  0  0  0  0  0  0  0  0
   -0.2654   -1.8187   -4.9106 C   0  0  0  0  0  0  0  0  0  0  0  0
    0.6438   -2.6069   -5.6578 C   0  0  0  0  0  0  0  0  0  0  0  0
   -1.1759   -2.3251   -3.9734 C   0  0  0  0  0  0  0  0  0  0  0  0
    0.6133   -3.9762   -5.4319 C   0  0  0  0  0  0  0  0  0  0  0  0
   -1.1643   -3.7083   -3.7834 C   0  0  0  0  0  0  0  0  0  0  0  0
   -1.8688   -1.6510   -3.4026 H   0  0  0  0  0  0  0  0  0  0  0  0
   -0.2863   -4.5223   -4.5007 C   0  0  0  0  0  0  0  0  0  0  0  0
    1.2931   -4.6146   -5.9841 H   0  0  0  0  0  0  0  0  0  0  0  0
   -1.8544   -4.1434   -3.0671 H   0  0  0  0  0  0  0  0  0  0  0  0
   -0.2932   -5.5963   -4.3412 H   0  0  0  0  0  0  0  0  0  0  0  0
    1.5660   -1.9408   -6.6245 C   0  0  0  0  0  0  0  0  0  0  0  0
    1.5627   -0.7362   -6.7855 O   0  0  0  0  0  0  0  0  0  0  0  0
    2.3618   -2.8003   -7.2600 O   0  0  0  0  0  0  0  0  0  0  0  0
    2.9325   -2.2988   -7.8689 H   0  0  0  0  0  0  0  0  0  0  0  0
   -4.5180    1.0839    1.0008 C   0  0  0  0  0  0  0  0  0  0  0  0
   -5.4872    1.6159    1.4895 O   0  0  0  0  0  0  0  0  0  0  0  0
   -3.3568    0.8924    1.6712 O   0  0  0  0  0  0  0  0  0  0  0  0
   -3.4807    1.2566    2.5646 H   0  0  0  0  0  0  0  0  0  0  0  0
  1  6  2  0  0  0  0
  1  2  1  0  0  0  0
  2  3  2  0  0  0  0
  3  4  1  0  0  0  0
  3  8  1  0  0  0  0
  4 28  1  0  0  0  0
  5 11  1  0  0  0  0
  5  4  2  0  0  0  0
  6  5  1  0  0  0  0
  7  1  1  0  0  0  0
  8  9  1  0  0  0  0
 10  6  1  0  0  0  0
 12 13  1  0  0  0  0
 13 14  1  0  0  0  0
 14 16  2  0  0  0  0
 15 17  2  0  0  0  0
 15 14  1  0  0  0  0
 16 18  1  0  0  0  0
 16 19  1  0  0  0  0
 17 20  1  0  0  0  0
 18 22  1  0  0  0  0
 20 23  1  0  0  0  0
 20 18  2  0  0  0  0
 21 17  1  0  0  0  0
 24 15  1  0  0  0  0
 25 24  2  0  0  0  0
 26 24  1  0  0  0  0
 27 26  1  0  0  0  0
 28 29  2  0  0  0  0
 28 30  1  0  0  0  0
 30 31  1  0  0  0  0
M  RAD  5   2   2   8   2   9   3  12   3  13   2
M  END
