Coordinates from ORCA-job 1f-Schema5-R6-D+-B3LYPG-6-31G_dp-scan-d49-09-n400
 OpenBabel08231810253D

 31 32  0  0  0  0  0  0  0  0999 V2000
   -4.4663   -0.0303   -3.6169 C   0  0  0  0  0  0  0  0  0  0  0  0
   -3.0023   -0.1992   -3.1923 C   0  0  0  0  0  0  0  0  0  0  0  0
   -2.7833    0.4380   -1.7837 C   0  0  0  0  0  0  0  0  0  0  0  0
   -3.8593    0.9562   -0.9767 C   0  0  0  0  0  0  0  0  0  0  0  0
   -5.1255    0.9780   -1.4739 C   0  0  0  0  0  0  0  0  0  0  0  0
   -5.3958    0.5053   -2.8010 C   0  0  0  0  0  0  0  0  0  0  0  0
   -4.6686   -0.3674   -4.6271 H   0  0  0  0  0  0  0  0  0  0  0  0
   -1.5076    0.4417   -1.4462 N   0  0  0  0  0  0  0  0  0  0  0  0
   -0.3867    0.3941   -1.2755 N   0  0  0  0  0  0  0  0  0  0  0  0
   -6.4117    0.5808   -3.1817 H   0  0  0  0  0  0  0  0  0  0  0  0
   -5.9207    1.3686   -0.8514 H   0  0  0  0  0  0  0  0  0  0  0  0
   -2.3326   -0.6068   -3.6927 N   0  0  0  0  0  0  0  0  0  0  0  0
   -1.3650   -1.0017   -4.3571 N   0  0  0  0  0  0  0  0  0  0  0  0
   -1.0803   -2.3657   -4.3901 C   0  0  0  0  0  0  0  0  0  0  0  0
    0.2165   -2.7294   -4.8403 C   0  0  0  0  0  0  0  0  0  0  0  0
   -2.0442   -3.3546   -4.1071 C   0  0  0  0  0  0  0  0  0  0  0  0
    0.5040   -4.0792   -5.0293 C   0  0  0  0  0  0  0  0  0  0  0  0
   -1.7306   -4.6942   -4.2919 C   0  0  0  0  0  0  0  0  0  0  0  0
   -3.0468   -3.0685   -3.8021 H   0  0  0  0  0  0  0  0  0  0  0  0
   -0.4603   -5.0555   -4.7574 C   0  0  0  0  0  0  0  0  0  0  0  0
    1.4921   -4.3645   -5.3701 H   0  0  0  0  0  0  0  0  0  0  0  0
   -2.4762   -5.4563   -4.0918 H   0  0  0  0  0  0  0  0  0  0  0  0
   -0.2186   -6.1030   -4.9070 H   0  0  0  0  0  0  0  0  0  0  0  0
    1.2851   -1.6853   -4.9722 C   0  0  0  0  0  0  0  0  0  0  0  0
    1.2769   -0.6317   -4.3720 O   0  0  0  0  0  0  0  0  0  0  0  0
    2.2650   -2.0764   -5.8026 O   0  0  0  0  0  0  0  0  0  0  0  0
    2.9444   -1.3797   -5.8053 H   0  0  0  0  0  0  0  0  0  0  0  0
   -3.6555    1.4834    0.4163 C   0  0  0  0  0  0  0  0  0  0  0  0
   -4.5493    1.9372    1.0886 O   0  0  0  0  0  0  0  0  0  0  0  0
   -2.3737    1.3911    0.8224 O   0  0  0  0  0  0  0  0  0  0  0  0
   -2.3243    1.7578    1.7225 H   0  0  0  0  0  0  0  0  0  0  0  0
  1  2  2  0  0  0  0
  1  6  1  0  0  0  0
  2  3  1  0  0  0  0
  3  8  1  0  0  0  0
  3  4  2  0  0  0  0
  4 28  1  0  0  0  0
  5  4  1  0  0  0  0
  5 11  1  0  0  0  0
  6  5  2  0  0  0  0
  7  1  1  0  0  0  0
  8  9  1  0  0  0  0
 10  6  1  0  0  0  0
 12  2  1  0  0  0  0
 13 12  1  0  0  0  0
 14 13  1  0  0  0  0
 14 16  2  0  0  0  0
 15 14  1  0  0  0  0
 16 19  1  0  0  0  0
 17 15  2  0  0  0  0
 17 20  1  0  0  0  0
 18 16  1  0  0  0  0
 18 22  1  0  0  0  0
 20 18  2  0  0  0  0
 21 17  1  0  0  0  0
 23 20  1  0  0  0  0
 24 15  1  0  0  0  0
 24 25  2  0  0  0  0
 26 24  1  0  0  0  0
 27 26  1  0  0  0  0
 28 30  1  0  0  0  0
 28 29  2  0  0  0  0
 30 31  1  0  0  0  0
M  RAD  4   8   2   9   3  12   2  13   2
M  END
