Coordinates from ORCA-job 1f-Schema5-R6-D+-B3LYPG-6-31G_dp-scan-d49-09-n400
 OpenBabel08231810253D

 31 31  0  0  0  0  0  0  0  0999 V2000
   -4.3772   -0.3881   -3.0598 C   0  0  0  0  0  0  0  0  0  0  0  0
   -3.1904   -0.5723   -2.3026 C   0  0  0  0  0  0  0  0  0  0  0  0
   -3.3407   -0.0563   -1.0019 C   0  0  0  0  0  0  0  0  0  0  0  0
   -4.4739    0.5864   -0.4119 C   0  0  0  0  0  0  0  0  0  0  0  0
   -5.5717    0.7166   -1.2441 C   0  0  0  0  0  0  0  0  0  0  0  0
   -5.5221    0.2297   -2.5651 C   0  0  0  0  0  0  0  0  0  0  0  0
   -4.4050   -0.7498   -4.0876 H   0  0  0  0  0  0  0  0  0  0  0  0
   -2.1884   -0.2380   -0.2452 N   0  0  0  0  0  0  0  0  0  0  0  0
   -1.2173   -0.4368    0.2683 N   0  0  0  0  0  0  0  0  0  0  0  0
   -6.3997    0.3445   -3.1966 H   0  0  0  0  0  0  0  0  0  0  0  0
   -6.4603    1.1973   -0.8506 H   0  0  0  0  0  0  0  0  0  0  0  0
   -0.3953    0.6577   -4.9290 N   0  0  0  0  0  0  0  0  0  0  0  0
   -0.2526   -0.4460   -4.9706 N   0  0  0  0  0  0  0  0  0  0  0  0
   -0.2339   -1.8318   -4.8529 C   0  0  0  0  0  0  0  0  0  0  0  0
    0.6152   -2.6090   -5.6780 C   0  0  0  0  0  0  0  0  0  0  0  0
   -1.1003   -2.3542   -3.8838 C   0  0  0  0  0  0  0  0  0  0  0  0
    0.5708   -3.9846   -5.4970 C   0  0  0  0  0  0  0  0  0  0  0  0
   -1.1080   -3.7434   -3.7437 C   0  0  0  0  0  0  0  0  0  0  0  0
   -1.7586   -1.6849   -3.2688 H   0  0  0  0  0  0  0  0  0  0  0  0
   -0.2857   -4.5469   -4.5352 C   0  0  0  0  0  0  0  0  0  0  0  0
    1.2054   -4.6154   -6.1086 H   0  0  0  0  0  0  0  0  0  0  0  0
   -1.7679   -4.1920   -3.0077 H   0  0  0  0  0  0  0  0  0  0  0  0
   -0.3039   -5.6256   -4.4112 H   0  0  0  0  0  0  0  0  0  0  0  0
    1.4914   -1.9257   -6.6749 C   0  0  0  0  0  0  0  0  0  0  0  0
    1.4979   -0.7167   -6.7984 O   0  0  0  0  0  0  0  0  0  0  0  0
    2.2322   -2.7763   -7.3848 O   0  0  0  0  0  0  0  0  0  0  0  0
    2.7729   -2.2640   -8.0119 H   0  0  0  0  0  0  0  0  0  0  0  0
   -4.5853    1.1180    0.9795 C   0  0  0  0  0  0  0  0  0  0  0  0
   -5.5773    1.6485    1.4220 O   0  0  0  0  0  0  0  0  0  0  0  0
   -3.4541    0.9350    1.7013 O   0  0  0  0  0  0  0  0  0  0  0  0
   -3.6175    1.3067    2.5853 H   0  0  0  0  0  0  0  0  0  0  0  0
  1  6  2  0  0  0  0
  1  2  1  0  0  0  0
  2  3  2  0  0  0  0
  3  4  1  0  0  0  0
  3  8  1  0  0  0  0
  4 28  1  0  0  0  0
  5 11  1  0  0  0  0
  5  4  2  0  0  0  0
  6  5  1  0  0  0  0
  7  1  1  0  0  0  0
  8  9  1  0  0  0  0
 10  6  1  0  0  0  0
 13 12  1  0  0  0  0
 13 14  1  0  0  0  0
 14 16  2  0  0  0  0
 15 17  2  0  0  0  0
 15 14  1  0  0  0  0
 16 18  1  0  0  0  0
 16 19  1  0  0  0  0
 17 20  1  0  0  0  0
 18 22  1  0  0  0  0
 20 23  1  0  0  0  0
 20 18  2  0  0  0  0
 21 17  1  0  0  0  0
 24 15  1  0  0  0  0
 25 24  2  0  0  0  0
 26 24  1  0  0  0  0
 27 26  1  0  0  0  0
 28 29  2  0  0  0  0
 28 30  1  0  0  0  0
 30 31  1  0  0  0  0
M  RAD  5   2   2   8   2   9   3  12   3  13   2
M  END
