Coordinates from ORCA-job 1f-Schema5-R6-D+-B3LYPG-6-31G_dp-scan-d49-09-n400
 OpenBabel08231810253D

 31 31  0  0  0  0  0  0  0  0999 V2000
   -4.3314   -0.3871   -3.0809 C   0  0  0  0  0  0  0  0  0  0  0  0
   -3.1598   -0.5849   -2.3042 C   0  0  0  0  0  0  0  0  0  0  0  0
   -3.3171   -0.0476   -1.0128 C   0  0  0  0  0  0  0  0  0  0  0  0
   -4.4449    0.6266   -0.4484 C   0  0  0  0  0  0  0  0  0  0  0  0
   -5.5275    0.7690   -1.2985 C   0  0  0  0  0  0  0  0  0  0  0  0
   -5.4696    0.2626   -2.6117 C   0  0  0  0  0  0  0  0  0  0  0  0
   -4.3532   -0.7636   -4.1035 H   0  0  0  0  0  0  0  0  0  0  0  0
   -2.1802   -0.2431   -0.2364 N   0  0  0  0  0  0  0  0  0  0  0  0
   -1.2217   -0.4554    0.2950 N   0  0  0  0  0  0  0  0  0  0  0  0
   -6.3351    0.3875   -3.2577 H   0  0  0  0  0  0  0  0  0  0  0  0
   -6.4111    1.2737   -0.9245 H   0  0  0  0  0  0  0  0  0  0  0  0
   -0.5670    0.5766   -4.7165 N   0  0  0  0  0  0  0  0  0  0  0  0
   -0.3532   -0.5095   -4.8405 N   0  0  0  0  0  0  0  0  0  0  0  0
   -0.2795   -1.8989   -4.7866 C   0  0  0  0  0  0  0  0  0  0  0  0
    0.5806   -2.6097   -5.6554 C   0  0  0  0  0  0  0  0  0  0  0  0
   -1.1114   -2.4872   -3.8270 C   0  0  0  0  0  0  0  0  0  0  0  0
    0.5855   -3.9927   -5.5308 C   0  0  0  0  0  0  0  0  0  0  0  0
   -1.0724   -3.8802   -3.7423 C   0  0  0  0  0  0  0  0  0  0  0  0
   -1.7696   -1.8421   -3.1915 H   0  0  0  0  0  0  0  0  0  0  0  0
   -0.2361   -4.6216   -4.5796 C   0  0  0  0  0  0  0  0  0  0  0  0
    1.2301   -4.5771   -6.1769 H   0  0  0  0  0  0  0  0  0  0  0  0
   -1.7033   -4.3826   -3.0158 H   0  0  0  0  0  0  0  0  0  0  0  0
   -0.2162   -5.7044   -4.4996 H   0  0  0  0  0  0  0  0  0  0  0  0
    1.4131   -1.8503   -6.6338 C   0  0  0  0  0  0  0  0  0  0  0  0
    1.3713   -0.6372   -6.7005 O   0  0  0  0  0  0  0  0  0  0  0  0
    2.1741   -2.6378   -7.3929 O   0  0  0  0  0  0  0  0  0  0  0  0
    2.6843   -2.0771   -8.0040 H   0  0  0  0  0  0  0  0  0  0  0  0
   -4.5656    1.1786    0.9345 C   0  0  0  0  0  0  0  0  0  0  0  0
   -5.5511    1.7394    1.3532 O   0  0  0  0  0  0  0  0  0  0  0  0
   -3.4480    0.9850    1.6740 O   0  0  0  0  0  0  0  0  0  0  0  0
   -3.6151    1.3739    2.5499 H   0  0  0  0  0  0  0  0  0  0  0  0
  1  6  2  0  0  0  0
  1  2  1  0  0  0  0
  2  3  2  0  0  0  0
  3  4  1  0  0  0  0
  3  8  1  0  0  0  0
  4 28  1  0  0  0  0
  5 11  1  0  0  0  0
  5  4  2  0  0  0  0
  6  5  1  0  0  0  0
  7  1  1  0  0  0  0
  8  9  1  0  0  0  0
 10  6  1  0  0  0  0
 13 14  1  0  0  0  0
 13 12  1  0  0  0  0
 14 16  2  0  0  0  0
 15 17  2  0  0  0  0
 15 14  1  0  0  0  0
 16 18  1  0  0  0  0
 16 19  1  0  0  0  0
 17 20  1  0  0  0  0
 18 22  1  0  0  0  0
 20 23  1  0  0  0  0
 20 18  2  0  0  0  0
 21 17  1  0  0  0  0
 24 15  1  0  0  0  0
 25 24  2  0  0  0  0
 26 24  1  0  0  0  0
 27 26  1  0  0  0  0
 28 29  2  0  0  0  0
 28 30  1  0  0  0  0
 30 31  1  0  0  0  0
M  RAD  5   2   2   8   2   9   3  12   3  13   2
M  END
