Coordinates from ORCA-job 1f-Schema5-R6-D+-B3LYPG-6-31G_dp-scan-d49-09-n400
 OpenBabel08231810253D

 31 31  0  0  0  0  0  0  0  0999 V2000
   -3.8693   -0.6952   -3.0265 C   0  0  0  0  0  0  0  0  0  0  0  0
   -2.7386   -0.3767   -2.2587 C   0  0  0  0  0  0  0  0  0  0  0  0
   -3.0124    0.3617   -1.1024 C   0  0  0  0  0  0  0  0  0  0  0  0
   -4.2949    0.7796   -0.6395 C   0  0  0  0  0  0  0  0  0  0  0  0
   -5.3629    0.4117   -1.4425 C   0  0  0  0  0  0  0  0  0  0  0  0
   -5.1525   -0.3164   -2.6273 C   0  0  0  0  0  0  0  0  0  0  0  0
   -3.7557   -1.2498   -3.9549 H   0  0  0  0  0  0  0  0  0  0  0  0
   -1.8656    0.6986   -0.3908 N   0  0  0  0  0  0  0  0  0  0  0  0
   -0.8856    0.9210    0.0904 N   0  0  0  0  0  0  0  0  0  0  0  0
   -6.0106   -0.5832   -3.2381 H   0  0  0  0  0  0  0  0  0  0  0  0
   -6.3590    0.7064   -1.1320 H   0  0  0  0  0  0  0  0  0  0  0  0
   -0.3335   -0.2203   -2.8997 N   0  0  0  0  0  0  0  0  0  0  0  0
    0.0133   -1.0296   -3.6253 N   0  0  0  0  0  0  0  0  0  0  0  0
   -0.2566   -2.2591   -4.2453 C   0  0  0  0  0  0  0  0  0  0  0  0
    0.3593   -2.5793   -5.4697 C   0  0  0  0  0  0  0  0  0  0  0  0
   -1.0909   -3.1455   -3.5582 C   0  0  0  0  0  0  0  0  0  0  0  0
    0.0993   -3.8370   -6.0126 C   0  0  0  0  0  0  0  0  0  0  0  0
   -1.3300   -4.3957   -4.1267 C   0  0  0  0  0  0  0  0  0  0  0  0
   -1.5294   -2.8435   -2.6138 H   0  0  0  0  0  0  0  0  0  0  0  0
   -0.7369   -4.7383   -5.3442 C   0  0  0  0  0  0  0  0  0  0  0  0
    0.5525   -4.1036   -6.9598 H   0  0  0  0  0  0  0  0  0  0  0  0
   -1.9723   -5.1031   -3.6127 H   0  0  0  0  0  0  0  0  0  0  0  0
   -0.9228   -5.7154   -5.7776 H   0  0  0  0  0  0  0  0  0  0  0  0
    1.2190   -1.5611   -6.1449 C   0  0  0  0  0  0  0  0  0  0  0  0
    1.3448   -0.4262   -5.7316 O   0  0  0  0  0  0  0  0  0  0  0  0
    1.8215   -2.0413   -7.2393 O   0  0  0  0  0  0  0  0  0  0  0  0
    2.3536   -1.3242   -7.6258 H   0  0  0  0  0  0  0  0  0  0  0  0
   -4.5856    1.5594    0.6049 C   0  0  0  0  0  0  0  0  0  0  0  0
   -5.6978    1.8845    0.9434 O   0  0  0  0  0  0  0  0  0  0  0  0
   -3.4662    1.8516    1.3029 O   0  0  0  0  0  0  0  0  0  0  0  0
   -3.7354    2.3528    2.0925 H   0  0  0  0  0  0  0  0  0  0  0  0
  1  6  2  0  0  0  0
  1  2  1  0  0  0  0
  2  3  2  0  0  0  0
  3  4  1  0  0  0  0
  3  8  1  0  0  0  0
  4 28  1  0  0  0  0
  5 11  1  0  0  0  0
  5  4  2  0  0  0  0
  6  5  1  0  0  0  0
  7  1  1  0  0  0  0
  8  9  1  0  0  0  0
 10  6  1  0  0  0  0
 13 12  2  0  0  0  0
 14 13  1  0  0  0  0
 14 16  2  0  0  0  0
 15 14  1  0  0  0  0
 16 19  1  0  0  0  0
 17 15  2  0  0  0  0
 17 20  1  0  0  0  0
 18 22  1  0  0  0  0
 18 16  1  0  0  0  0
 20 18  2  0  0  0  0
 21 17  1  0  0  0  0
 23 20  1  0  0  0  0
 24 25  2  0  0  0  0
 24 15  1  0  0  0  0
 26 24  1  0  0  0  0
 27 26  1  0  0  0  0
 28 29  2  0  0  0  0
 28 30  1  0  0  0  0
 30 31  1  0  0  0  0
M  RAD  4   2   2   8   2   9   3  12   2
M  END
