Coordinates from ORCA-job 1f-Schema5-R6-D+-B3LYPG-6-31G_dp-scan-d49-09-n400
 OpenBabel08231810253D

 31 31  0  0  0  0  0  0  0  0999 V2000
   -4.3204   -0.4003   -3.0797 C   0  0  0  0  0  0  0  0  0  0  0  0
   -3.1476   -0.5839   -2.3016 C   0  0  0  0  0  0  0  0  0  0  0  0
   -3.3083   -0.0384   -1.0141 C   0  0  0  0  0  0  0  0  0  0  0  0
   -4.4407    0.6319   -0.4546 C   0  0  0  0  0  0  0  0  0  0  0  0
   -5.5244    0.7604   -1.3056 C   0  0  0  0  0  0  0  0  0  0  0  0
   -5.4631    0.2448   -2.6150 C   0  0  0  0  0  0  0  0  0  0  0  0
   -4.3394   -0.7844   -4.0995 H   0  0  0  0  0  0  0  0  0  0  0  0
   -2.1701   -0.2203   -0.2362 N   0  0  0  0  0  0  0  0  0  0  0  0
   -1.2103   -0.4221    0.2968 N   0  0  0  0  0  0  0  0  0  0  0  0
   -6.3296    0.3589   -3.2618 H   0  0  0  0  0  0  0  0  0  0  0  0
   -6.4115    1.2617   -0.9352 H   0  0  0  0  0  0  0  0  0  0  0  0
   -0.5649    0.5653   -4.6530 N   0  0  0  0  0  0  0  0  0  0  0  0
   -0.3462   -0.5167   -4.8029 N   0  0  0  0  0  0  0  0  0  0  0  0
   -0.2772   -1.9075   -4.7705 C   0  0  0  0  0  0  0  0  0  0  0  0
    0.5759   -2.6098   -5.6520 C   0  0  0  0  0  0  0  0  0  0  0  0
   -1.1090   -2.5039   -3.8164 C   0  0  0  0  0  0  0  0  0  0  0  0
    0.5736   -3.9944   -5.5467 C   0  0  0  0  0  0  0  0  0  0  0  0
   -1.0784   -3.8981   -3.7511 C   0  0  0  0  0  0  0  0  0  0  0  0
   -1.7598   -1.8585   -3.1748 H   0  0  0  0  0  0  0  0  0  0  0  0
   -0.2486   -4.6319   -4.6017 C   0  0  0  0  0  0  0  0  0  0  0  0
    1.2128   -4.5736   -6.2030 H   0  0  0  0  0  0  0  0  0  0  0  0
   -1.7097   -4.4075   -3.0298 H   0  0  0  0  0  0  0  0  0  0  0  0
   -0.2345   -5.7159   -4.5371 H   0  0  0  0  0  0  0  0  0  0  0  0
    1.4083   -1.8392   -6.6217 C   0  0  0  0  0  0  0  0  0  0  0  0
    1.3704   -0.6250   -6.6698 O   0  0  0  0  0  0  0  0  0  0  0  0
    2.1631   -2.6179   -7.3958 O   0  0  0  0  0  0  0  0  0  0  0  0
    2.6731   -2.0500   -8.0003 H   0  0  0  0  0  0  0  0  0  0  0  0
   -4.5654    1.1929    0.9243 C   0  0  0  0  0  0  0  0  0  0  0  0
   -5.5549    1.7500    1.3388 O   0  0  0  0  0  0  0  0  0  0  0  0
   -3.4470    1.0112    1.6657 O   0  0  0  0  0  0  0  0  0  0  0  0
   -3.6170    1.4047    2.5390 H   0  0  0  0  0  0  0  0  0  0  0  0
  1  6  2  0  0  0  0
  1  2  1  0  0  0  0
  2  3  2  0  0  0  0
  3  4  1  0  0  0  0
  3  8  1  0  0  0  0
  4 28  1  0  0  0  0
  5 11  1  0  0  0  0
  5  4  2  0  0  0  0
  6  5  1  0  0  0  0
  7  1  1  0  0  0  0
  8  9  1  0  0  0  0
 10  6  1  0  0  0  0
 13 14  1  0  0  0  0
 13 12  1  0  0  0  0
 14 16  2  0  0  0  0
 15 17  2  0  0  0  0
 15 14  1  0  0  0  0
 16 18  1  0  0  0  0
 16 19  1  0  0  0  0
 17 20  1  0  0  0  0
 18 22  1  0  0  0  0
 20 23  1  0  0  0  0
 20 18  2  0  0  0  0
 21 17  1  0  0  0  0
 24 15  1  0  0  0  0
 25 24  2  0  0  0  0
 26 24  1  0  0  0  0
 27 26  1  0  0  0  0
 28 29  2  0  0  0  0
 28 30  1  0  0  0  0
 30 31  1  0  0  0  0
M  RAD  5   2   2   8   2   9   3  12   3  13   2
M  END
