Coordinates from ORCA-job 1f-Schema5-R6-D+-B3LYPG-6-31G_dp-scan-d49-09-n400
 OpenBabel08231810253D

 31 31  0  0  0  0  0  0  0  0999 V2000
   -4.4764   -0.5449   -2.9541 C   0  0  0  0  0  0  0  0  0  0  0  0
   -3.2225   -0.5101   -2.2882 C   0  0  0  0  0  0  0  0  0  0  0  0
   -3.3623    0.0059   -0.9865 C   0  0  0  0  0  0  0  0  0  0  0  0
   -4.5405    0.4645   -0.3178 C   0  0  0  0  0  0  0  0  0  0  0  0
   -5.7037    0.3830   -1.0625 C   0  0  0  0  0  0  0  0  0  0  0  0
   -5.6702   -0.1215   -2.3776 C   0  0  0  0  0  0  0  0  0  0  0  0
   -4.5170   -0.9232   -3.9754 H   0  0  0  0  0  0  0  0  0  0  0  0
   -2.1415    0.0415   -0.3216 N   0  0  0  0  0  0  0  0  0  0  0  0
   -1.1135    0.0240    0.1137 N   0  0  0  0  0  0  0  0  0  0  0  0
   -6.5995   -0.1739   -2.9395 H   0  0  0  0  0  0  0  0  0  0  0  0
   -6.6293    0.7175   -0.6078 H   0  0  0  0  0  0  0  0  0  0  0  0
    0.3217    0.8124   -5.1767 N   0  0  0  0  0  0  0  0  0  0  0  0
    0.2156   -0.2957   -5.1426 N   0  0  0  0  0  0  0  0  0  0  0  0
   -0.0420   -1.6510   -4.9792 C   0  0  0  0  0  0  0  0  0  0  0  0
    0.6998   -2.6051   -5.7229 C   0  0  0  0  0  0  0  0  0  0  0  0
   -1.0517   -1.9783   -4.0620 C   0  0  0  0  0  0  0  0  0  0  0  0
    0.3894   -3.9419   -5.5153 C   0  0  0  0  0  0  0  0  0  0  0  0
   -1.3225   -3.3371   -3.8924 C   0  0  0  0  0  0  0  0  0  0  0  0
   -1.6488   -1.2400   -3.4710 H   0  0  0  0  0  0  0  0  0  0  0  0
   -0.6170   -4.3061   -4.6054 C   0  0  0  0  0  0  0  0  0  0  0  0
    0.9362   -4.6976   -6.0669 H   0  0  0  0  0  0  0  0  0  0  0  0
   -2.1010   -3.6186   -3.1897 H   0  0  0  0  0  0  0  0  0  0  0  0
   -0.8438   -5.3578   -4.4608 H   0  0  0  0  0  0  0  0  0  0  0  0
    1.7560   -2.1411   -6.6721 C   0  0  0  0  0  0  0  0  0  0  0  0
    2.0061   -0.9624   -6.8287 O   0  0  0  0  0  0  0  0  0  0  0  0
    2.3668   -3.1462   -7.2990 O   0  0  0  0  0  0  0  0  0  0  0  0
    3.0387   -2.7718   -7.8962 H   0  0  0  0  0  0  0  0  0  0  0  0
   -4.6349    1.0101    1.0690 C   0  0  0  0  0  0  0  0  0  0  0  0
   -5.6659    1.3782    1.5819 O   0  0  0  0  0  0  0  0  0  0  0  0
   -3.4355    1.0512    1.6973 O   0  0  0  0  0  0  0  0  0  0  0  0
   -3.5919    1.4187    2.5843 H   0  0  0  0  0  0  0  0  0  0  0  0
  1  6  2  0  0  0  0
  1  2  1  0  0  0  0
  2  3  2  0  0  0  0
  3  8  1  0  0  0  0
  3  4  1  0  0  0  0
  4 28  1  0  0  0  0
  5 11  1  0  0  0  0
  5  4  2  0  0  0  0
  6  5  1  0  0  0  0
  7  1  1  0  0  0  0
  8  9  1  0  0  0  0
 10  6  1  0  0  0  0
 12 13  1  0  0  0  0
 13 14  1  0  0  0  0
 14 16  2  0  0  0  0
 15 17  2  0  0  0  0
 15 14  1  0  0  0  0
 16 18  1  0  0  0  0
 16 19  1  0  0  0  0
 17 20  1  0  0  0  0
 18 22  1  0  0  0  0
 20 23  1  0  0  0  0
 20 18  2  0  0  0  0
 21 17  1  0  0  0  0
 24 15  1  0  0  0  0
 25 24  2  0  0  0  0
 26 24  1  0  0  0  0
 27 26  1  0  0  0  0
 28 29  2  0  0  0  0
 28 30  1  0  0  0  0
 30 31  1  0  0  0  0
M  RAD  5   2   2   8   2   9   3  12   3  13   2
M  END
