Coordinates from ORCA-job 1f-Schema5-R6-D+-B3LYPG-6-31G_dp-scan-d49-09-n400
 OpenBabel08231810253D

 31 32  0  0  0  0  0  0  0  0999 V2000
   -2.7579   -0.0259   -3.6563 C   0  0  0  0  0  0  0  0  0  0  0  0
   -1.9403   -0.0727   -2.5180 C   0  0  0  0  0  0  0  0  0  0  0  0
   -2.5285    0.2451   -1.2638 C   0  0  0  0  0  0  0  0  0  0  0  0
   -3.9192    0.5118   -1.1087 C   0  0  0  0  0  0  0  0  0  0  0  0
   -4.6903    0.4943   -2.2594 C   0  0  0  0  0  0  0  0  0  0  0  0
   -4.1136    0.2442   -3.5189 C   0  0  0  0  0  0  0  0  0  0  0  0
   -2.2965   -0.1677   -4.6284 H   0  0  0  0  0  0  0  0  0  0  0  0
   -1.6566    0.3016   -0.2105 N   0  0  0  0  0  0  0  0  0  0  0  0
   -0.8778    0.3714    0.5863 N   0  0  0  0  0  0  0  0  0  0  0  0
   -4.7436    0.2677   -4.4023 H   0  0  0  0  0  0  0  0  0  0  0  0
   -5.7501    0.7011   -2.1585 H   0  0  0  0  0  0  0  0  0  0  0  0
   -0.5013   -0.0986   -2.5969 N   0  0  0  0  0  0  0  0  0  0  0  0
    0.1271   -0.8899   -3.3185 N   0  0  0  0  0  0  0  0  0  0  0  0
   -0.4174   -2.1148   -3.7994 C   0  0  0  0  0  0  0  0  0  0  0  0
   -0.2655   -2.4635   -5.1595 C   0  0  0  0  0  0  0  0  0  0  0  0
   -0.8660   -3.0673   -2.8748 C   0  0  0  0  0  0  0  0  0  0  0  0
   -0.5670   -3.7622   -5.5708 C   0  0  0  0  0  0  0  0  0  0  0  0
   -1.1620   -4.3628   -3.3044 C   0  0  0  0  0  0  0  0  0  0  0  0
   -0.9110   -2.8156   -1.8202 H   0  0  0  0  0  0  0  0  0  0  0  0
   -1.0113   -4.7125   -4.6465 C   0  0  0  0  0  0  0  0  0  0  0  0
   -0.4674   -4.0174   -6.6200 H   0  0  0  0  0  0  0  0  0  0  0  0
   -1.4950   -5.1015   -2.5824 H   0  0  0  0  0  0  0  0  0  0  0  0
   -1.2388   -5.7207   -4.9756 H   0  0  0  0  0  0  0  0  0  0  0  0
    0.0747   -1.3783   -6.1141 C   0  0  0  0  0  0  0  0  0  0  0  0
   -0.1042   -0.1993   -5.8546 O   0  0  0  0  0  0  0  0  0  0  0  0
    0.5626   -1.8200   -7.2801 O   0  0  0  0  0  0  0  0  0  0  0  0
    0.7290   -1.0448   -7.8440 H   0  0  0  0  0  0  0  0  0  0  0  0
   -4.6074    0.8170    0.1913 C   0  0  0  0  0  0  0  0  0  0  0  0
   -5.7897    1.0375    0.2689 O   0  0  0  0  0  0  0  0  0  0  0  0
   -3.7548    0.8083    1.2347 O   0  0  0  0  0  0  0  0  0  0  0  0
   -4.2612    1.0182    2.0397 H   0  0  0  0  0  0  0  0  0  0  0  0
  1  6  2  0  0  0  0
  1  2  1  0  0  0  0
  2  3  2  0  0  0  0
  3  4  1  0  0  0  0
  3  8  1  0  0  0  0
  4 28  1  0  0  0  0
  5 11  1  0  0  0  0
  5  4  2  0  0  0  0
  6  5  1  0  0  0  0
  7  1  1  0  0  0  0
  8  9  1  0  0  0  0
 10  6  1  0  0  0  0
 12  2  1  0  0  0  0
 13 12  1  0  0  0  0
 14 13  1  0  0  0  0
 14 16  2  0  0  0  0
 15 14  1  0  0  0  0
 16 19  1  0  0  0  0
 17 15  2  0  0  0  0
 17 20  1  0  0  0  0
 18 16  1  0  0  0  0
 18 22  1  0  0  0  0
 20 18  2  0  0  0  0
 21 17  1  0  0  0  0
 23 20  1  0  0  0  0
 24 25  2  0  0  0  0
 24 15  1  0  0  0  0
 26 24  1  0  0  0  0
 27 26  1  0  0  0  0
 28 29  2  0  0  0  0
 28 30  1  0  0  0  0
 30 31  1  0  0  0  0
M  RAD  4   8   2   9   3  12   2  13   2
M  END
