Coordinates from ORCA-job 1f-Schema5-R6-D+-B3LYPG-6-31G_dp-scan-d49-09-n400
 OpenBabel08231810253D

 31 32  0  0  0  0  0  0  0  0999 V2000
   -2.7607   -0.0222   -3.6555 C   0  0  0  0  0  0  0  0  0  0  0  0
   -1.9384   -0.0695   -2.5182 C   0  0  0  0  0  0  0  0  0  0  0  0
   -2.5276    0.2482   -1.2621 C   0  0  0  0  0  0  0  0  0  0  0  0
   -3.9186    0.5143   -1.1064 C   0  0  0  0  0  0  0  0  0  0  0  0
   -4.6908    0.4980   -2.2557 C   0  0  0  0  0  0  0  0  0  0  0  0
   -4.1150    0.2487   -3.5164 C   0  0  0  0  0  0  0  0  0  0  0  0
   -2.3007   -0.1639   -4.6283 H   0  0  0  0  0  0  0  0  0  0  0  0
   -1.6556    0.3049   -0.2102 N   0  0  0  0  0  0  0  0  0  0  0  0
   -0.8750    0.3752    0.5851 N   0  0  0  0  0  0  0  0  0  0  0  0
   -4.7460    0.2727   -4.3991 H   0  0  0  0  0  0  0  0  0  0  0  0
   -5.7505    0.7048   -2.1537 H   0  0  0  0  0  0  0  0  0  0  0  0
   -0.5198   -0.1033   -2.5985 N   0  0  0  0  0  0  0  0  0  0  0  0
    0.1151   -0.8874   -3.3245 N   0  0  0  0  0  0  0  0  0  0  0  0
   -0.4236   -2.1155   -3.8028 C   0  0  0  0  0  0  0  0  0  0  0  0
   -0.2636   -2.4666   -5.1615 C   0  0  0  0  0  0  0  0  0  0  0  0
   -0.8742   -3.0677   -2.8785 C   0  0  0  0  0  0  0  0  0  0  0  0
   -0.5583   -3.7668   -5.5719 C   0  0  0  0  0  0  0  0  0  0  0  0
   -1.1630   -4.3650   -3.3071 C   0  0  0  0  0  0  0  0  0  0  0  0
   -0.9258   -2.8142   -1.8246 H   0  0  0  0  0  0  0  0  0  0  0  0
   -1.0039   -4.7169   -4.6477 C   0  0  0  0  0  0  0  0  0  0  0  0
   -0.4529   -4.0237   -6.6201 H   0  0  0  0  0  0  0  0  0  0  0  0
   -1.4971   -5.1036   -2.5854 H   0  0  0  0  0  0  0  0  0  0  0  0
   -1.2262   -5.7265   -4.9759 H   0  0  0  0  0  0  0  0  0  0  0  0
    0.0769   -1.3810   -6.1154 C   0  0  0  0  0  0  0  0  0  0  0  0
   -0.1047   -0.2023   -5.8561 O   0  0  0  0  0  0  0  0  0  0  0  0
    0.5686   -1.8217   -7.2801 O   0  0  0  0  0  0  0  0  0  0  0  0
    0.7352   -1.0462   -7.8437 H   0  0  0  0  0  0  0  0  0  0  0  0
   -4.6057    0.8180    0.1946 C   0  0  0  0  0  0  0  0  0  0  0  0
   -5.7879    1.0387    0.2735 O   0  0  0  0  0  0  0  0  0  0  0  0
   -3.7526    0.8072    1.2375 O   0  0  0  0  0  0  0  0  0  0  0  0
   -4.2586    1.0160    2.0430 H   0  0  0  0  0  0  0  0  0  0  0  0
  1  6  2  0  0  0  0
  1  2  1  0  0  0  0
  2  3  2  0  0  0  0
  3  4  1  0  0  0  0
  3  8  1  0  0  0  0
  4 28  1  0  0  0  0
  5 11  1  0  0  0  0
  5  4  2  0  0  0  0
  6  5  1  0  0  0  0
  7  1  1  0  0  0  0
  8  9  1  0  0  0  0
 10  6  1  0  0  0  0
 12  2  1  0  0  0  0
 13 12  1  0  0  0  0
 14 13  1  0  0  0  0
 14 16  2  0  0  0  0
 15 14  1  0  0  0  0
 16 19  1  0  0  0  0
 17 15  2  0  0  0  0
 17 20  1  0  0  0  0
 18 16  1  0  0  0  0
 18 22  1  0  0  0  0
 20 18  2  0  0  0  0
 21 17  1  0  0  0  0
 23 20  1  0  0  0  0
 24 25  2  0  0  0  0
 24 15  1  0  0  0  0
 26 24  1  0  0  0  0
 27 26  1  0  0  0  0
 28 29  2  0  0  0  0
 28 30  1  0  0  0  0
 30 31  1  0  0  0  0
M  RAD  4   8   2   9   3  12   2  13   2
M  END
