Coordinates from ORCA-job 1f-Schema5-R6-D+-B3LYPG-6-31G_dp-scan-d49-09-n400
 OpenBabel08231810253D

 31 32  0  0  0  0  0  0  0  0999 V2000
   -2.7548   -0.0396   -3.6587 C   0  0  0  0  0  0  0  0  0  0  0  0
   -1.9558   -0.0909   -2.5164 C   0  0  0  0  0  0  0  0  0  0  0  0
   -2.5390    0.2290   -1.2698 C   0  0  0  0  0  0  0  0  0  0  0  0
   -3.9272    0.5060   -1.1171 C   0  0  0  0  0  0  0  0  0  0  0  0
   -4.6935    0.4894   -2.2729 C   0  0  0  0  0  0  0  0  0  0  0  0
   -4.1140    0.2339   -3.5286 C   0  0  0  0  0  0  0  0  0  0  0  0
   -2.2886   -0.1841   -4.6285 H   0  0  0  0  0  0  0  0  0  0  0  0
   -1.6670    0.2774   -0.2105 N   0  0  0  0  0  0  0  0  0  0  0  0
   -0.8931    0.3380    0.5901 N   0  0  0  0  0  0  0  0  0  0  0  0
   -4.7406    0.2591   -4.4145 H   0  0  0  0  0  0  0  0  0  0  0  0
   -5.7527    0.7019   -2.1767 H   0  0  0  0  0  0  0  0  0  0  0  0
   -0.4161   -0.0833   -2.5936 N   0  0  0  0  0  0  0  0  0  0  0  0
    0.1806   -0.9017   -3.2975 N   0  0  0  0  0  0  0  0  0  0  0  0
   -0.3827   -2.1158   -3.7865 C   0  0  0  0  0  0  0  0  0  0  0  0
   -0.2675   -2.4529   -5.1521 C   0  0  0  0  0  0  0  0  0  0  0  0
   -0.8219   -3.0689   -2.8594 C   0  0  0  0  0  0  0  0  0  0  0  0
   -0.5978   -3.7445   -5.5661 C   0  0  0  0  0  0  0  0  0  0  0  0
   -1.1490   -4.3559   -3.2926 C   0  0  0  0  0  0  0  0  0  0  0  0
   -0.8388   -2.8244   -1.8023 H   0  0  0  0  0  0  0  0  0  0  0  0
   -1.0352   -4.6961   -4.6405 C   0  0  0  0  0  0  0  0  0  0  0  0
   -0.5243   -3.9924   -6.6193 H   0  0  0  0  0  0  0  0  0  0  0  0
   -1.4767   -5.0953   -2.5689 H   0  0  0  0  0  0  0  0  0  0  0  0
   -1.2850   -5.6979   -4.9729 H   0  0  0  0  0  0  0  0  0  0  0  0
    0.0683   -1.3689   -6.1103 C   0  0  0  0  0  0  0  0  0  0  0  0
   -0.1025   -0.1890   -5.8509 O   0  0  0  0  0  0  0  0  0  0  0  0
    0.5353   -1.8149   -7.2836 O   0  0  0  0  0  0  0  0  0  0  0  0
    0.6967   -1.0408   -7.8505 H   0  0  0  0  0  0  0  0  0  0  0  0
   -4.6180    0.8190    0.1796 C   0  0  0  0  0  0  0  0  0  0  0  0
   -5.7990    1.0468    0.2527 O   0  0  0  0  0  0  0  0  0  0  0  0
   -3.7674    0.8116    1.2247 O   0  0  0  0  0  0  0  0  0  0  0  0
   -4.2738    1.0279    2.0280 H   0  0  0  0  0  0  0  0  0  0  0  0
  1  6  2  0  0  0  0
  1  2  1  0  0  0  0
  2  3  2  0  0  0  0
  3  4  1  0  0  0  0
  3  8  1  0  0  0  0
  4 28  1  0  0  0  0
  5 11  1  0  0  0  0
  5  4  2  0  0  0  0
  6  5  1  0  0  0  0
  7  1  1  0  0  0  0
  8  9  1  0  0  0  0
 10  6  1  0  0  0  0
 12  2  1  0  0  0  0
 13 12  1  0  0  0  0
 14 13  1  0  0  0  0
 14 16  2  0  0  0  0
 15 14  1  0  0  0  0
 16 19  1  0  0  0  0
 17 15  2  0  0  0  0
 17 20  1  0  0  0  0
 18 16  1  0  0  0  0
 18 22  1  0  0  0  0
 20 18  2  0  0  0  0
 21 17  1  0  0  0  0
 23 20  1  0  0  0  0
 24 25  2  0  0  0  0
 24 15  1  0  0  0  0
 26 24  1  0  0  0  0
 27 26  1  0  0  0  0
 28 29  2  0  0  0  0
 28 30  1  0  0  0  0
 30 31  1  0  0  0  0
M  RAD  4   8   2   9   3  12   2  13   2
M  END
