Coordinates from ORCA-job 1f-Schema5-R6-D+-B3LYPG-6-31G_dp-scan-d49-09-n400
 OpenBabel08231810253D

 31 31  0  0  0  0  0  0  0  0999 V2000
   -4.1634   -0.5789   -3.0014 C   0  0  0  0  0  0  0  0  0  0  0  0
   -2.9579   -0.3342   -2.3136 C   0  0  0  0  0  0  0  0  0  0  0  0
   -3.1470    0.3357   -1.0955 C   0  0  0  0  0  0  0  0  0  0  0  0
   -4.3815    0.7530   -0.5113 C   0  0  0  0  0  0  0  0  0  0  0  0
   -5.5137    0.4560   -1.2514 C   0  0  0  0  0  0  0  0  0  0  0  0
   -5.4052   -0.2044   -2.4893 C   0  0  0  0  0  0  0  0  0  0  0  0
   -4.1368   -1.0771   -3.9685 H   0  0  0  0  0  0  0  0  0  0  0  0
   -1.9481    0.5995   -0.4441 N   0  0  0  0  0  0  0  0  0  0  0  0
   -0.9349    0.7686   -0.0101 N   0  0  0  0  0  0  0  0  0  0  0  0
   -6.3116   -0.4187   -3.0493 H   0  0  0  0  0  0  0  0  0  0  0  0
   -6.4773    0.7514   -0.8518 H   0  0  0  0  0  0  0  0  0  0  0  0
   -0.4248    0.0780   -3.4452 N   0  0  0  0  0  0  0  0  0  0  0  0
   -0.1139   -0.8238   -4.0490 N   0  0  0  0  0  0  0  0  0  0  0  0
   -0.2563   -2.1480   -4.4831 C   0  0  0  0  0  0  0  0  0  0  0  0
    0.5178   -2.6321   -5.5536 C   0  0  0  0  0  0  0  0  0  0  0  0
   -1.1753   -2.9250   -3.7739 C   0  0  0  0  0  0  0  0  0  0  0  0
    0.3370   -3.9653   -5.9152 C   0  0  0  0  0  0  0  0  0  0  0  0
   -1.3317   -4.2543   -4.1627 C   0  0  0  0  0  0  0  0  0  0  0  0
   -1.7422   -2.4634   -2.9673 H   0  0  0  0  0  0  0  0  0  0  0  0
   -0.5793   -4.7680   -5.2230 C   0  0  0  0  0  0  0  0  0  0  0  0
    0.9130   -4.3703   -6.7387 H   0  0  0  0  0  0  0  0  0  0  0  0
   -2.0378   -4.8873   -3.6355 H   0  0  0  0  0  0  0  0  0  0  0  0
   -0.7043   -5.8049   -5.5173 H   0  0  0  0  0  0  0  0  0  0  0  0
    1.4659   -1.7077   -6.2467 C   0  0  0  0  0  0  0  0  0  0  0  0
    1.5715   -0.5356   -5.9459 O   0  0  0  0  0  0  0  0  0  0  0  0
    2.1648   -2.3147   -7.2097 O   0  0  0  0  0  0  0  0  0  0  0  0
    2.7560   -1.6565   -7.6157 H   0  0  0  0  0  0  0  0  0  0  0  0
   -4.5624    1.4640    0.7923 C   0  0  0  0  0  0  0  0  0  0  0  0
   -5.6383    1.7916    1.2326 O   0  0  0  0  0  0  0  0  0  0  0  0
   -3.3892    1.6969    1.4231 O   0  0  0  0  0  0  0  0  0  0  0  0
   -3.5940    2.1581    2.2551 H   0  0  0  0  0  0  0  0  0  0  0  0
  1  6  2  0  0  0  0
  1  2  1  0  0  0  0
  2  3  2  0  0  0  0
  3  4  1  0  0  0  0
  3  8  1  0  0  0  0
  4 28  1  0  0  0  0
  5 11  1  0  0  0  0
  5  4  2  0  0  0  0
  6  5  1  0  0  0  0
  7  1  1  0  0  0  0
  8  9  1  0  0  0  0
 10  6  1  0  0  0  0
 13 12  2  0  0  0  0
 14 13  1  0  0  0  0
 14 16  2  0  0  0  0
 15 14  1  0  0  0  0
 16 19  1  0  0  0  0
 17 15  2  0  0  0  0
 17 20  1  0  0  0  0
 18 16  1  0  0  0  0
 18 22  1  0  0  0  0
 20 18  2  0  0  0  0
 21 17  1  0  0  0  0
 23 20  1  0  0  0  0
 24 25  2  0  0  0  0
 24 15  1  0  0  0  0
 26 24  1  0  0  0  0
 27 26  1  0  0  0  0
 28 29  2  0  0  0  0
 28 30  1  0  0  0  0
 30 31  1  0  0  0  0
M  RAD  4   2   2   8   2   9   3  12   2
M  END
