Coordinates from ORCA-job 1f-Schema5-R6-D+-B3LYPG-6-31G_dp-scan-d49-09-n400
 OpenBabel08231810253D

 31 31  0  0  0  0  0  0  0  0999 V2000
   -4.4735   -0.4009   -3.0393 C   0  0  0  0  0  0  0  0  0  0  0  0
   -3.2496   -0.5534   -2.3356 C   0  0  0  0  0  0  0  0  0  0  0  0
   -3.3598   -0.0520   -1.0253 C   0  0  0  0  0  0  0  0  0  0  0  0
   -4.4858    0.5502   -0.3810 C   0  0  0  0  0  0  0  0  0  0  0  0
   -5.6226    0.6502   -1.1633 C   0  0  0  0  0  0  0  0  0  0  0  0
   -5.6150    0.1748   -2.4896 C   0  0  0  0  0  0  0  0  0  0  0  0
   -4.5335   -0.7534   -4.0688 H   0  0  0  0  0  0  0  0  0  0  0  0
   -2.1701   -0.2019   -0.3216 N   0  0  0  0  0  0  0  0  0  0  0  0
   -1.1710   -0.3734    0.1463 N   0  0  0  0  0  0  0  0  0  0  0  0
   -6.5226    0.2655   -3.0814 H   0  0  0  0  0  0  0  0  0  0  0  0
   -6.5080    1.0996   -0.7279 H   0  0  0  0  0  0  0  0  0  0  0  0
   -0.2933    0.7068   -5.1143 N   0  0  0  0  0  0  0  0  0  0  0  0
   -0.1910   -0.4019   -5.0954 N   0  0  0  0  0  0  0  0  0  0  0  0
   -0.2155   -1.7815   -4.9242 C   0  0  0  0  0  0  0  0  0  0  0  0
    0.6561   -2.6078   -5.6766 C   0  0  0  0  0  0  0  0  0  0  0  0
   -1.1433   -2.2518   -3.9846 C   0  0  0  0  0  0  0  0  0  0  0  0
    0.5675   -3.9750   -5.4536 C   0  0  0  0  0  0  0  0  0  0  0  0
   -1.1904   -3.6349   -3.7990 C   0  0  0  0  0  0  0  0  0  0  0  0
   -1.8155   -1.5644   -3.4044 H   0  0  0  0  0  0  0  0  0  0  0  0
   -0.3512   -4.4846   -4.5206 C   0  0  0  0  0  0  0  0  0  0  0  0
    1.2173   -4.6402   -6.0102 H   0  0  0  0  0  0  0  0  0  0  0  0
   -1.8971   -4.0399   -3.0812 H   0  0  0  0  0  0  0  0  0  0  0  0
   -0.4038   -5.5577   -4.3634 H   0  0  0  0  0  0  0  0  0  0  0  0
    1.6034   -1.9830   -6.6468 C   0  0  0  0  0  0  0  0  0  0  0  0
    1.6526   -0.7797   -6.8094 O   0  0  0  0  0  0  0  0  0  0  0  0
    2.3580   -2.8773   -7.2848 O   0  0  0  0  0  0  0  0  0  0  0  0
    2.9476   -2.4014   -7.8963 H   0  0  0  0  0  0  0  0  0  0  0  0
   -4.5523    1.0694    1.0177 C   0  0  0  0  0  0  0  0  0  0  0  0
   -5.5391    1.5673    1.5073 O   0  0  0  0  0  0  0  0  0  0  0  0
   -3.3825    0.9253    1.6850 O   0  0  0  0  0  0  0  0  0  0  0  0
   -3.5169    1.2897    2.5768 H   0  0  0  0  0  0  0  0  0  0  0  0
  1  6  2  0  0  0  0
  1  2  1  0  0  0  0
  2  3  2  0  0  0  0
  3  4  1  0  0  0  0
  3  8  1  0  0  0  0
  4 28  1  0  0  0  0
  5 11  1  0  0  0  0
  5  4  2  0  0  0  0
  6  5  1  0  0  0  0
  7  1  1  0  0  0  0
  8  9  1  0  0  0  0
 10  6  1  0  0  0  0
 12 13  1  0  0  0  0
 13 14  1  0  0  0  0
 14 16  2  0  0  0  0
 15 17  2  0  0  0  0
 15 14  1  0  0  0  0
 16 18  1  0  0  0  0
 16 19  1  0  0  0  0
 17 20  1  0  0  0  0
 18 22  1  0  0  0  0
 20 23  1  0  0  0  0
 20 18  2  0  0  0  0
 21 17  1  0  0  0  0
 24 15  1  0  0  0  0
 25 24  2  0  0  0  0
 26 24  1  0  0  0  0
 27 26  1  0  0  0  0
 28 29  2  0  0  0  0
 28 30  1  0  0  0  0
 30 31  1  0  0  0  0
M  RAD  5   2   2   8   2   9   3  12   3  13   2
M  END
