Coordinates from ORCA-job 1f-Schema5-R6-D+-B3LYPG-6-31G_dp-scan-d49-09-n400
 OpenBabel08231810253D

 31 31  0  0  0  0  0  0  0  0999 V2000
   -4.4769   -0.5461   -2.9523 C   0  0  0  0  0  0  0  0  0  0  0  0
   -3.2225   -0.5044   -2.2876 C   0  0  0  0  0  0  0  0  0  0  0  0
   -3.3644    0.0077   -0.9846 C   0  0  0  0  0  0  0  0  0  0  0  0
   -4.5449    0.4567   -0.3135 C   0  0  0  0  0  0  0  0  0  0  0  0
   -5.7084    0.3688   -1.0570 C   0  0  0  0  0  0  0  0  0  0  0  0
   -5.6729   -0.1324   -2.3733 C   0  0  0  0  0  0  0  0  0  0  0  0
   -4.5161   -0.9219   -3.9745 H   0  0  0  0  0  0  0  0  0  0  0  0
   -2.1429    0.0507   -0.3213 N   0  0  0  0  0  0  0  0  0  0  0  0
   -1.1143    0.0395    0.1126 N   0  0  0  0  0  0  0  0  0  0  0  0
   -6.6025   -0.1900   -2.9343 H   0  0  0  0  0  0  0  0  0  0  0  0
   -6.6358    0.6958   -0.6005 H   0  0  0  0  0  0  0  0  0  0  0  0
    0.3577    0.8177   -5.1984 N   0  0  0  0  0  0  0  0  0  0  0  0
    0.2388   -0.2887   -5.1567 N   0  0  0  0  0  0  0  0  0  0  0  0
   -0.0315   -1.6406   -4.9863 C   0  0  0  0  0  0  0  0  0  0  0  0
    0.7029   -2.6045   -5.7252 C   0  0  0  0  0  0  0  0  0  0  0  0
   -1.0441   -1.9561   -4.0682 C   0  0  0  0  0  0  0  0  0  0  0  0
    0.3819   -3.9380   -5.5116 C   0  0  0  0  0  0  0  0  0  0  0  0
   -1.3253   -3.3118   -3.8924 C   0  0  0  0  0  0  0  0  0  0  0  0
   -1.6378   -1.2147   -3.4789 H   0  0  0  0  0  0  0  0  0  0  0  0
   -0.6276   -4.2900   -4.6005 C   0  0  0  0  0  0  0  0  0  0  0  0
    0.9230   -4.7003   -6.0596 H   0  0  0  0  0  0  0  0  0  0  0  0
   -2.1063   -3.5832   -3.1886 H   0  0  0  0  0  0  0  0  0  0  0  0
   -0.8628   -5.3391   -4.4509 H   0  0  0  0  0  0  0  0  0  0  0  0
    1.7637   -2.1549   -6.6765 C   0  0  0  0  0  0  0  0  0  0  0  0
    2.0231   -0.9794   -6.8414 O   0  0  0  0  0  0  0  0  0  0  0  0
    2.3638   -3.1688   -7.2995 O   0  0  0  0  0  0  0  0  0  0  0  0
    3.0379   -2.8037   -7.8999 H   0  0  0  0  0  0  0  0  0  0  0  0
   -4.6414    0.9985    1.0747 C   0  0  0  0  0  0  0  0  0  0  0  0
   -5.6743    1.3585    1.5896 O   0  0  0  0  0  0  0  0  0  0  0  0
   -3.4416    1.0463    1.7017 O   0  0  0  0  0  0  0  0  0  0  0  0
   -3.5994    1.4109    2.5896 H   0  0  0  0  0  0  0  0  0  0  0  0
  1  6  2  0  0  0  0
  1  2  1  0  0  0  0
  2  3  2  0  0  0  0
  3  8  1  0  0  0  0
  3  4  1  0  0  0  0
  4 28  1  0  0  0  0
  5 11  1  0  0  0  0
  5  4  2  0  0  0  0
  6  5  1  0  0  0  0
  7  1  1  0  0  0  0
  8  9  1  0  0  0  0
 10  6  1  0  0  0  0
 12 13  1  0  0  0  0
 13 14  1  0  0  0  0
 14 16  2  0  0  0  0
 15 17  2  0  0  0  0
 15 14  1  0  0  0  0
 16 18  1  0  0  0  0
 16 19  1  0  0  0  0
 17 20  1  0  0  0  0
 18 22  1  0  0  0  0
 20 23  1  0  0  0  0
 20 18  2  0  0  0  0
 21 17  1  0  0  0  0
 24 15  1  0  0  0  0
 25 24  2  0  0  0  0
 26 24  1  0  0  0  0
 27 26  1  0  0  0  0
 28 29  2  0  0  0  0
 28 30  1  0  0  0  0
 30 31  1  0  0  0  0
M  RAD  5   2   2   8   2   9   3  12   3  13   2
M  END
