Coordinates from ORCA-job 1f-Schema5-R6-D+-B3LYPG-6-31G_dp-scan-d49-09-n400
 OpenBabel08231810253D

 31 31  0  0  0  0  0  0  0  0999 V2000
   -4.3218   -0.4861   -3.0364 C   0  0  0  0  0  0  0  0  0  0  0  0
   -3.0881   -0.4128   -2.3478 C   0  0  0  0  0  0  0  0  0  0  0  0
   -3.2288    0.1912   -1.0858 C   0  0  0  0  0  0  0  0  0  0  0  0
   -4.4153    0.6985   -0.4711 C   0  0  0  0  0  0  0  0  0  0  0  0
   -5.5681    0.5729   -1.2269 C   0  0  0  0  0  0  0  0  0  0  0  0
   -5.5208   -0.0177   -2.5040 C   0  0  0  0  0  0  0  0  0  0  0  0
   -4.3476   -0.9273   -4.0316 H   0  0  0  0  0  0  0  0  0  0  0  0
   -2.0181    0.2700   -0.4085 N   0  0  0  0  0  0  0  0  0  0  0  0
   -0.9998    0.2845    0.0473 N   0  0  0  0  0  0  0  0  0  0  0  0
   -6.4417   -0.1011   -3.0755 H   0  0  0  0  0  0  0  0  0  0  0  0
   -6.4975    0.9424   -0.8086 H   0  0  0  0  0  0  0  0  0  0  0  0
   -0.5268    0.3446   -4.0093 N   0  0  0  0  0  0  0  0  0  0  0  0
   -0.2392   -0.6503   -4.4365 N   0  0  0  0  0  0  0  0  0  0  0  0
   -0.2696   -2.0329   -4.6478 C   0  0  0  0  0  0  0  0  0  0  0  0
    0.5796   -2.6346   -5.5957 C   0  0  0  0  0  0  0  0  0  0  0  0
   -1.1868   -2.7234   -3.8530 C   0  0  0  0  0  0  0  0  0  0  0  0
    0.4811   -4.0150   -5.7376 C   0  0  0  0  0  0  0  0  0  0  0  0
   -1.2572   -4.1058   -4.0256 C   0  0  0  0  0  0  0  0  0  0  0  0
   -1.8113   -2.1489   -3.1542 H   0  0  0  0  0  0  0  0  0  0  0  0
   -0.4310   -4.7416   -4.9570 C   0  0  0  0  0  0  0  0  0  0  0  0
    1.1157   -4.5186   -6.4574 H   0  0  0  0  0  0  0  0  0  0  0  0
   -1.9577   -4.6838   -3.4318 H   0  0  0  0  0  0  0  0  0  0  0  0
   -0.4933   -5.8182   -5.0828 H   0  0  0  0  0  0  0  0  0  0  0  0
    1.5137   -1.7711   -6.3776 C   0  0  0  0  0  0  0  0  0  0  0  0
    1.5570   -0.5663   -6.2212 O   0  0  0  0  0  0  0  0  0  0  0  0
    2.2655   -2.4614   -7.2355 O   0  0  0  0  0  0  0  0  0  0  0  0
    2.8452   -1.8371   -7.7070 H   0  0  0  0  0  0  0  0  0  0  0  0
   -4.5281    1.3378    0.8755 C   0  0  0  0  0  0  0  0  0  0  0  0
   -5.5654    1.7486    1.3396 O   0  0  0  0  0  0  0  0  0  0  0  0
   -3.3402    1.4093    1.5199 O   0  0  0  0  0  0  0  0  0  0  0  0
   -3.5047    1.8367    2.3783 H   0  0  0  0  0  0  0  0  0  0  0  0
  1  6  2  0  0  0  0
  1  2  1  0  0  0  0
  2  3  2  0  0  0  0
  3  4  1  0  0  0  0
  3  8  1  0  0  0  0
  4 28  1  0  0  0  0
  5 11  1  0  0  0  0
  5  4  2  0  0  0  0
  6  5  1  0  0  0  0
  7  1  1  0  0  0  0
  8  9  1  0  0  0  0
 10  6  1  0  0  0  0
 13 12  1  0  0  0  0
 14 13  1  0  0  0  0
 14 16  2  0  0  0  0
 15 14  1  0  0  0  0
 16 19  1  0  0  0  0
 17 15  2  0  0  0  0
 17 20  1  0  0  0  0
 18 16  1  0  0  0  0
 18 22  1  0  0  0  0
 20 18  2  0  0  0  0
 21 17  1  0  0  0  0
 23 20  1  0  0  0  0
 24 25  2  0  0  0  0
 24 15  1  0  0  0  0
 26 24  1  0  0  0  0
 27 26  1  0  0  0  0
 28 29  2  0  0  0  0
 28 30  1  0  0  0  0
 30 31  1  0  0  0  0
M  RAD  5   2   2   8   2   9   3  12   3  13   2
M  END
