Coordinates from ORCA-job 1f-Schema5-R6-D+-B3LYPG-6-31G_dp-scan-d49-09-n400
 OpenBabel08231810253D

 31 31  0  0  0  0  0  0  0  0999 V2000
   -4.3277   -0.4814   -3.0406 C   0  0  0  0  0  0  0  0  0  0  0  0
   -3.0954   -0.4312   -2.3458 C   0  0  0  0  0  0  0  0  0  0  0  0
   -3.2359    0.1684   -1.0814 C   0  0  0  0  0  0  0  0  0  0  0  0
   -4.4176    0.6916   -0.4705 C   0  0  0  0  0  0  0  0  0  0  0  0
   -5.5678    0.5886   -1.2335 C   0  0  0  0  0  0  0  0  0  0  0  0
   -5.5222    0.0034   -2.5133 C   0  0  0  0  0  0  0  0  0  0  0  0
   -4.3553   -0.9184   -4.0377 H   0  0  0  0  0  0  0  0  0  0  0  0
   -2.0286    0.2223   -0.3954 N   0  0  0  0  0  0  0  0  0  0  0  0
   -1.0132    0.2156    0.0672 N   0  0  0  0  0  0  0  0  0  0  0  0
   -6.4410   -0.0625   -3.0905 H   0  0  0  0  0  0  0  0  0  0  0  0
   -6.4937    0.9707   -0.8188 H   0  0  0  0  0  0  0  0  0  0  0  0
   -0.5265    0.3722   -4.0685 N   0  0  0  0  0  0  0  0  0  0  0  0
   -0.2477   -0.6341   -4.4717 N   0  0  0  0  0  0  0  0  0  0  0  0
   -0.2694   -2.0197   -4.6599 C   0  0  0  0  0  0  0  0  0  0  0  0
    0.5810   -2.6322   -5.6004 C   0  0  0  0  0  0  0  0  0  0  0  0
   -1.1815   -2.7005   -3.8508 C   0  0  0  0  0  0  0  0  0  0  0  0
    0.4894   -4.0149   -5.7187 C   0  0  0  0  0  0  0  0  0  0  0  0
   -1.2446   -4.0861   -4.0009 C   0  0  0  0  0  0  0  0  0  0  0  0
   -1.8080   -2.1160   -3.1592 H   0  0  0  0  0  0  0  0  0  0  0  0
   -0.4173   -4.7330   -4.9235 C   0  0  0  0  0  0  0  0  0  0  0  0
    1.1249   -4.5273   -6.4314 H   0  0  0  0  0  0  0  0  0  0  0  0
   -1.9407   -4.6579   -3.3959 H   0  0  0  0  0  0  0  0  0  0  0  0
   -0.4744   -5.8120   -5.0312 H   0  0  0  0  0  0  0  0  0  0  0  0
    1.5080   -1.7757   -6.3978 C   0  0  0  0  0  0  0  0  0  0  0  0
    1.5449   -0.5686   -6.2577 O   0  0  0  0  0  0  0  0  0  0  0  0
    2.2613   -2.4738   -7.2475 O   0  0  0  0  0  0  0  0  0  0  0  0
    2.8367   -1.8534   -7.7294 H   0  0  0  0  0  0  0  0  0  0  0  0
   -4.5281    1.3252    0.8788 C   0  0  0  0  0  0  0  0  0  0  0  0
   -5.5618    1.7479    1.3405 O   0  0  0  0  0  0  0  0  0  0  0  0
   -3.3427    1.3756    1.5301 O   0  0  0  0  0  0  0  0  0  0  0  0
   -3.5061    1.8000    2.3901 H   0  0  0  0  0  0  0  0  0  0  0  0
  1  6  2  0  0  0  0
  1  2  1  0  0  0  0
  2  3  2  0  0  0  0
  3  4  1  0  0  0  0
  3  8  1  0  0  0  0
  4 28  1  0  0  0  0
  5 11  1  0  0  0  0
  5  4  2  0  0  0  0
  6  5  1  0  0  0  0
  7  1  1  0  0  0  0
  8  9  1  0  0  0  0
 10  6  1  0  0  0  0
 13 12  1  0  0  0  0
 14 13  1  0  0  0  0
 14 16  2  0  0  0  0
 15 14  1  0  0  0  0
 16 19  1  0  0  0  0
 17 15  2  0  0  0  0
 17 20  1  0  0  0  0
 18 16  1  0  0  0  0
 18 22  1  0  0  0  0
 20 18  2  0  0  0  0
 21 17  1  0  0  0  0
 23 20  1  0  0  0  0
 24 25  2  0  0  0  0
 24 15  1  0  0  0  0
 26 24  1  0  0  0  0
 27 26  1  0  0  0  0
 28 29  2  0  0  0  0
 28 30  1  0  0  0  0
 30 31  1  0  0  0  0
M  RAD  5   2   2   8   2   9   3  12   3  13   2
M  END
