Coordinates from ORCA-job 1f-Schema5-R6-D+-B3LYPG-6-31G_dp-scan-d49-09-n400
 OpenBabel08231810253D

 31 31  0  0  0  0  0  0  0  0999 V2000
   -4.1179   -0.6108   -2.9923 C   0  0  0  0  0  0  0  0  0  0  0  0
   -2.9239   -0.3429   -2.2949 C   0  0  0  0  0  0  0  0  0  0  0  0
   -3.1287    0.3466   -1.0912 C   0  0  0  0  0  0  0  0  0  0  0  0
   -4.3727    0.7623   -0.5271 C   0  0  0  0  0  0  0  0  0  0  0  0
   -5.4946    0.4423   -1.2736 C   0  0  0  0  0  0  0  0  0  0  0  0
   -5.3680   -0.2380   -2.4988 C   0  0  0  0  0  0  0  0  0  0  0  0
   -4.0763   -1.1253   -3.9503 H   0  0  0  0  0  0  0  0  0  0  0  0
   -1.9378    0.6342   -0.4347 N   0  0  0  0  0  0  0  0  0  0  0  0
   -0.9296    0.8217    0.0031 N   0  0  0  0  0  0  0  0  0  0  0  0
   -6.2668   -0.4695   -3.0641 H   0  0  0  0  0  0  0  0  0  0  0  0
   -6.4648    0.7357   -0.8887 H   0  0  0  0  0  0  0  0  0  0  0  0
   -0.3872    0.0193   -3.3327 N   0  0  0  0  0  0  0  0  0  0  0  0
   -0.0783   -0.8649   -3.9656 N   0  0  0  0  0  0  0  0  0  0  0  0
   -0.2486   -2.1709   -4.4425 C   0  0  0  0  0  0  0  0  0  0  0  0
    0.4981   -2.6267   -5.5445 C   0  0  0  0  0  0  0  0  0  0  0  0
   -1.1599   -2.9650   -3.7419 C   0  0  0  0  0  0  0  0  0  0  0  0
    0.2967   -3.9450   -5.9481 C   0  0  0  0  0  0  0  0  0  0  0  0
   -1.3376   -4.2787   -4.1724 C   0  0  0  0  0  0  0  0  0  0  0  0
   -1.7064   -2.5300   -2.9083 H   0  0  0  0  0  0  0  0  0  0  0  0
   -0.6124   -4.7629   -5.2649 C   0  0  0  0  0  0  0  0  0  0  0  0
    0.8513   -4.3261   -6.7973 H   0  0  0  0  0  0  0  0  0  0  0  0
   -2.0384   -4.9229   -3.6518 H   0  0  0  0  0  0  0  0  0  0  0  0
   -0.7530   -5.7882   -5.5910 H   0  0  0  0  0  0  0  0  0  0  0  0
    1.4388   -1.6880   -6.2283 C   0  0  0  0  0  0  0  0  0  0  0  0
    1.5556   -0.5248   -5.8988 O   0  0  0  0  0  0  0  0  0  0  0  0
    2.1181   -2.2719   -7.2197 O   0  0  0  0  0  0  0  0  0  0  0  0
    2.7046   -1.6049   -7.6180 H   0  0  0  0  0  0  0  0  0  0  0  0
   -4.5729    1.4936    0.7624 C   0  0  0  0  0  0  0  0  0  0  0  0
   -5.6560    1.8187    1.1863 O   0  0  0  0  0  0  0  0  0  0  0  0
   -3.4080    1.7466    1.4006 O   0  0  0  0  0  0  0  0  0  0  0  0
   -3.6243    2.2192    2.2232 H   0  0  0  0  0  0  0  0  0  0  0  0
  1  6  2  0  0  0  0
  1  2  1  0  0  0  0
  2  3  2  0  0  0  0
  3  4  1  0  0  0  0
  3  8  1  0  0  0  0
  4 28  1  0  0  0  0
  5 11  1  0  0  0  0
  5  4  2  0  0  0  0
  6  5  1  0  0  0  0
  7  1  1  0  0  0  0
  8  9  1  0  0  0  0
 10  6  1  0  0  0  0
 13 12  2  0  0  0  0
 14 13  1  0  0  0  0
 14 16  2  0  0  0  0
 15 14  1  0  0  0  0
 16 19  1  0  0  0  0
 17 15  2  0  0  0  0
 17 20  1  0  0  0  0
 18 16  1  0  0  0  0
 18 22  1  0  0  0  0
 20 18  2  0  0  0  0
 21 17  1  0  0  0  0
 23 20  1  0  0  0  0
 24 25  2  0  0  0  0
 24 15  1  0  0  0  0
 26 24  1  0  0  0  0
 27 26  1  0  0  0  0
 28 29  2  0  0  0  0
 28 30  1  0  0  0  0
 30 31  1  0  0  0  0
M  RAD  4   2   2   8   2   9   3  12   2
M  END
