Coordinates from ORCA-job 1f-Schema5-R6-D+-B3LYPG-6-31G_dp-scan-d49-09-n400
 OpenBabel08231810253D

 31 32  0  0  0  0  0  0  0  0999 V2000
   -2.8355   -0.0961   -3.6268 C   0  0  0  0  0  0  0  0  0  0  0  0
   -2.0343   -0.1403   -2.4927 C   0  0  0  0  0  0  0  0  0  0  0  0
   -2.5936    0.2162   -1.2558 C   0  0  0  0  0  0  0  0  0  0  0  0
   -3.9716    0.5328   -1.0881 C   0  0  0  0  0  0  0  0  0  0  0  0
   -4.7504    0.5078   -2.2367 C   0  0  0  0  0  0  0  0  0  0  0  0
   -4.1911    0.2083   -3.4912 C   0  0  0  0  0  0  0  0  0  0  0  0
   -2.3907   -0.2774   -4.6003 H   0  0  0  0  0  0  0  0  0  0  0  0
   -1.7047    0.2607   -0.2028 N   0  0  0  0  0  0  0  0  0  0  0  0
   -0.9157    0.3087    0.5823 N   0  0  0  0  0  0  0  0  0  0  0  0
   -4.8271    0.2265   -4.3709 H   0  0  0  0  0  0  0  0  0  0  0  0
   -5.8033    0.7472   -2.1355 H   0  0  0  0  0  0  0  0  0  0  0  0
   -0.3066   -0.0957   -2.6061 N   0  0  0  0  0  0  0  0  0  0  0  0
    0.2339   -0.9282   -3.3026 N   0  0  0  0  0  0  0  0  0  0  0  0
   -0.3223   -2.1376   -3.8047 C   0  0  0  0  0  0  0  0  0  0  0  0
   -0.2190   -2.4575   -5.1739 C   0  0  0  0  0  0  0  0  0  0  0  0
   -0.7725   -3.0878   -2.8822 C   0  0  0  0  0  0  0  0  0  0  0  0
   -0.5780   -3.7387   -5.5977 C   0  0  0  0  0  0  0  0  0  0  0  0
   -1.1291   -4.3632   -3.3273 C   0  0  0  0  0  0  0  0  0  0  0  0
   -0.7821   -2.8496   -1.8240 H   0  0  0  0  0  0  0  0  0  0  0  0
   -1.0298   -4.6903   -4.6794 C   0  0  0  0  0  0  0  0  0  0  0  0
   -0.5128   -3.9782   -6.6533 H   0  0  0  0  0  0  0  0  0  0  0  0
   -1.4676   -5.1034   -2.6096 H   0  0  0  0  0  0  0  0  0  0  0  0
   -1.3010   -5.6835   -5.0208 H   0  0  0  0  0  0  0  0  0  0  0  0
    0.1406   -1.3736   -6.1259 C   0  0  0  0  0  0  0  0  0  0  0  0
    0.0103   -0.1927   -5.8556 O   0  0  0  0  0  0  0  0  0  0  0  0
    0.5813   -1.8274   -7.3075 O   0  0  0  0  0  0  0  0  0  0  0  0
    0.7621   -1.0546   -7.8703 H   0  0  0  0  0  0  0  0  0  0  0  0
   -4.6384    0.8910    0.2089 C   0  0  0  0  0  0  0  0  0  0  0  0
   -5.8126    1.1481    0.2931 O   0  0  0  0  0  0  0  0  0  0  0  0
   -3.7742    0.8833    1.2435 O   0  0  0  0  0  0  0  0  0  0  0  0
   -4.2650    1.1279    2.0484 H   0  0  0  0  0  0  0  0  0  0  0  0
  1  6  2  0  0  0  0
  1  2  1  0  0  0  0
  2  3  2  0  0  0  0
  3  4  1  0  0  0  0
  3  8  1  0  0  0  0
  4 28  1  0  0  0  0
  5 11  1  0  0  0  0
  5  4  2  0  0  0  0
  6  5  1  0  0  0  0
  7  1  1  0  0  0  0
  8  9  1  0  0  0  0
 10  6  1  0  0  0  0
 12  2  1  0  0  0  0
 13 12  1  0  0  0  0
 14 13  1  0  0  0  0
 14 16  2  0  0  0  0
 15 14  1  0  0  0  0
 16 19  1  0  0  0  0
 17 15  2  0  0  0  0
 17 20  1  0  0  0  0
 18 16  1  0  0  0  0
 18 22  1  0  0  0  0
 20 18  2  0  0  0  0
 21 17  1  0  0  0  0
 23 20  1  0  0  0  0
 24 25  2  0  0  0  0
 24 15  1  0  0  0  0
 26 24  1  0  0  0  0
 27 26  1  0  0  0  0
 28 29  2  0  0  0  0
 28 30  1  0  0  0  0
 30 31  1  0  0  0  0
M  RAD  4   8   2   9   3  12   2  13   2
M  END
