Coordinates from ORCA-job 1f-Schema5-R6-D+-B3LYPG-6-31G_dp-scan-d49-09-n400
 OpenBabel08231810253D

 31 31  0  0  0  0  0  0  0  0999 V2000
   -3.2483   -0.5374   -3.3672 C   0  0  0  0  0  0  0  0  0  0  0  0
   -2.3002   -0.3302   -2.3704 C   0  0  0  0  0  0  0  0  0  0  0  0
   -2.7300    0.2778   -1.1855 C   0  0  0  0  0  0  0  0  0  0  0  0
   -4.0786    0.6411   -0.9120 C   0  0  0  0  0  0  0  0  0  0  0  0
   -4.9921    0.3828   -1.9249 C   0  0  0  0  0  0  0  0  0  0  0  0
   -4.5837   -0.1917   -3.1399 C   0  0  0  0  0  0  0  0  0  0  0  0
   -2.9552   -0.9691   -4.3184 H   0  0  0  0  0  0  0  0  0  0  0  0
   -1.7210    0.5346   -0.2694 N   0  0  0  0  0  0  0  0  0  0  0  0
   -0.8437    0.7218    0.3892 N   0  0  0  0  0  0  0  0  0  0  0  0
   -5.3232   -0.3667   -3.9158 H   0  0  0  0  0  0  0  0  0  0  0  0
   -6.0288    0.6486   -1.7501 H   0  0  0  0  0  0  0  0  0  0  0  0
   -0.3599   -0.2483   -2.5743 N   0  0  0  0  0  0  0  0  0  0  0  0
    0.1490   -1.0275   -3.3068 N   0  0  0  0  0  0  0  0  0  0  0  0
   -0.3146   -2.2104   -3.9330 C   0  0  0  0  0  0  0  0  0  0  0  0
    0.0030   -2.4618   -5.2825 C   0  0  0  0  0  0  0  0  0  0  0  0
   -0.9436   -3.1746   -3.1398 C   0  0  0  0  0  0  0  0  0  0  0  0
   -0.3520   -3.6969   -5.8295 C   0  0  0  0  0  0  0  0  0  0  0  0
   -1.2836   -4.4033   -3.7085 C   0  0  0  0  0  0  0  0  0  0  0  0
   -1.1241   -2.9765   -2.0895 H   0  0  0  0  0  0  0  0  0  0  0  0
   -0.9911   -4.6632   -5.0480 C   0  0  0  0  0  0  0  0  0  0  0  0
   -0.1254   -3.8913   -6.8713 H   0  0  0  0  0  0  0  0  0  0  0  0
   -1.7631   -5.1607   -3.0968 H   0  0  0  0  0  0  0  0  0  0  0  0
   -1.2529   -5.6212   -5.4844 H   0  0  0  0  0  0  0  0  0  0  0  0
    0.6326   -1.3785   -6.0894 C   0  0  0  0  0  0  0  0  0  0  0  0
    0.7121   -0.2271   -5.7097 O   0  0  0  0  0  0  0  0  0  0  0  0
    1.0899   -1.8126   -7.2749 O   0  0  0  0  0  0  0  0  0  0  0  0
    1.4719   -1.0473   -7.7381 H   0  0  0  0  0  0  0  0  0  0  0  0
   -4.5883    1.2684    0.3527 C   0  0  0  0  0  0  0  0  0  0  0  0
   -5.7467    1.5558    0.5236 O   0  0  0  0  0  0  0  0  0  0  0  0
   -3.6063    1.4686    1.2553 O   0  0  0  0  0  0  0  0  0  0  0  0
   -4.0030    1.8795    2.0440 H   0  0  0  0  0  0  0  0  0  0  0  0
  1  6  2  0  0  0  0
  1  2  1  0  0  0  0
  2  3  2  0  0  0  0
  3  4  1  0  0  0  0
  3  8  1  0  0  0  0
  4 28  1  0  0  0  0
  5 11  1  0  0  0  0
  5  4  2  0  0  0  0
  6  5  1  0  0  0  0
  7  1  1  0  0  0  0
  8  9  1  0  0  0  0
 10  6  1  0  0  0  0
 13 12  2  0  0  0  0
 14 13  1  0  0  0  0
 14 16  2  0  0  0  0
 15 14  1  0  0  0  0
 16 19  1  0  0  0  0
 17 15  2  0  0  0  0
 17 20  1  0  0  0  0
 18 16  1  0  0  0  0
 18 22  1  0  0  0  0
 20 18  2  0  0  0  0
 21 17  1  0  0  0  0
 23 20  1  0  0  0  0
 24 25  2  0  0  0  0
 24 15  1  0  0  0  0
 26 24  1  0  0  0  0
 27 26  1  0  0  0  0
 28 29  2  0  0  0  0
 28 30  1  0  0  0  0
 30 31  1  0  0  0  0
M  RAD  4   2   2   8   2   9   3  12   2
M  END
