Coordinates from ORCA-job 1f-Schema5-R6-D+-B3LYPG-6-31G_dp-scan-d49-09-n400
 OpenBabel08231810253D

 31 31  0  0  0  0  0  0  0  0999 V2000
   -4.3341   -0.4010   -3.0836 C   0  0  0  0  0  0  0  0  0  0  0  0
   -3.1512   -0.5698   -2.3179 C   0  0  0  0  0  0  0  0  0  0  0  0
   -3.2999   -0.0159   -1.0325 C   0  0  0  0  0  0  0  0  0  0  0  0
   -4.4308    0.6500   -0.4647 C   0  0  0  0  0  0  0  0  0  0  0  0
   -5.5257    0.7634   -1.3034 C   0  0  0  0  0  0  0  0  0  0  0  0
   -5.4762    0.2384   -2.6095 C   0  0  0  0  0  0  0  0  0  0  0  0
   -4.3620   -0.7917   -4.1006 H   0  0  0  0  0  0  0  0  0  0  0  0
   -2.1512   -0.1830   -0.2672 N   0  0  0  0  0  0  0  0  0  0  0  0
   -1.1838   -0.3732    0.2563 N   0  0  0  0  0  0  0  0  0  0  0  0
   -6.3513    0.3408   -3.2466 H   0  0  0  0  0  0  0  0  0  0  0  0
   -6.4120    1.2607   -0.9260 H   0  0  0  0  0  0  0  0  0  0  0  0
   -0.6161    0.5248   -4.5596 N   0  0  0  0  0  0  0  0  0  0  0  0
   -0.3727   -0.5459   -4.7506 N   0  0  0  0  0  0  0  0  0  0  0  0
   -0.2949   -1.9376   -4.7492 C   0  0  0  0  0  0  0  0  0  0  0  0
    0.5723   -2.6125   -5.6370 C   0  0  0  0  0  0  0  0  0  0  0  0
   -1.1307   -2.5623   -3.8176 C   0  0  0  0  0  0  0  0  0  0  0  0
    0.5814   -3.9995   -5.5635 C   0  0  0  0  0  0  0  0  0  0  0  0
   -1.0883   -3.9571   -3.7823 C   0  0  0  0  0  0  0  0  0  0  0  0
   -1.7892   -1.9360   -3.1706 H   0  0  0  0  0  0  0  0  0  0  0  0
   -0.2439   -4.6646   -4.6412 C   0  0  0  0  0  0  0  0  0  0  0  0
    1.2319   -4.5583   -6.2262 H   0  0  0  0  0  0  0  0  0  0  0  0
   -1.7212   -4.4886   -3.0787 H   0  0  0  0  0  0  0  0  0  0  0  0
   -0.2212   -5.7497   -4.6004 H   0  0  0  0  0  0  0  0  0  0  0  0
    1.4073   -1.8120   -6.5796 C   0  0  0  0  0  0  0  0  0  0  0  0
    1.3602   -0.5971   -6.5984 O   0  0  0  0  0  0  0  0  0  0  0  0
    2.1778   -2.5649   -7.3636 O   0  0  0  0  0  0  0  0  0  0  0  0
    2.6897   -1.9782   -7.9483 H   0  0  0  0  0  0  0  0  0  0  0  0
   -4.5430    1.2213    0.9113 C   0  0  0  0  0  0  0  0  0  0  0  0
   -5.5315    1.7745    1.3329 O   0  0  0  0  0  0  0  0  0  0  0  0
   -3.4143    1.0542    1.6402 O   0  0  0  0  0  0  0  0  0  0  0  0
   -3.5764    1.4536    2.5123 H   0  0  0  0  0  0  0  0  0  0  0  0
  1  6  2  0  0  0  0
  1  2  1  0  0  0  0
  2  3  2  0  0  0  0
  3  4  1  0  0  0  0
  3  8  1  0  0  0  0
  4 28  1  0  0  0  0
  5 11  1  0  0  0  0
  5  4  2  0  0  0  0
  6  5  1  0  0  0  0
  7  1  1  0  0  0  0
  8  9  1  0  0  0  0
 10  6  1  0  0  0  0
 13 14  1  0  0  0  0
 13 12  1  0  0  0  0
 14 16  2  0  0  0  0
 15 17  2  0  0  0  0
 15 14  1  0  0  0  0
 16 18  1  0  0  0  0
 16 19  1  0  0  0  0
 17 20  1  0  0  0  0
 18 22  1  0  0  0  0
 20 23  1  0  0  0  0
 20 18  2  0  0  0  0
 21 17  1  0  0  0  0
 24 15  1  0  0  0  0
 25 24  2  0  0  0  0
 26 24  1  0  0  0  0
 27 26  1  0  0  0  0
 28 29  2  0  0  0  0
 28 30  1  0  0  0  0
 30 31  1  0  0  0  0
M  RAD  5   2   2   8   2   9   3  12   3  13   2
M  END
