Coordinates from ORCA-job 1f-Schema5-R6-D+-B3LYPG-6-31G_dp-scan-d49-09-n400
 OpenBabel08231810253D

 31 32  0  0  0  0  0  0  0  0999 V2000
   -4.5874   -0.0896   -3.4985 C   0  0  0  0  0  0  0  0  0  0  0  0
   -3.1597   -0.2591   -3.1070 C   0  0  0  0  0  0  0  0  0  0  0  0
   -2.8262    0.4188   -1.8013 C   0  0  0  0  0  0  0  0  0  0  0  0
   -3.8286    1.0508   -0.9763 C   0  0  0  0  0  0  0  0  0  0  0  0
   -5.1150    1.1059   -1.4239 C   0  0  0  0  0  0  0  0  0  0  0  0
   -5.4698    0.5520   -2.6951 C   0  0  0  0  0  0  0  0  0  0  0  0
   -4.8649   -0.4997   -4.4626 H   0  0  0  0  0  0  0  0  0  0  0  0
   -1.5325    0.3821   -1.4982 N   0  0  0  0  0  0  0  0  0  0  0  0
   -0.4156    0.3043   -1.3369 N   0  0  0  0  0  0  0  0  0  0  0  0
   -6.4976    0.6434   -3.0347 H   0  0  0  0  0  0  0  0  0  0  0  0
   -5.8599    1.5802   -0.7968 H   0  0  0  0  0  0  0  0  0  0  0  0
   -2.4465   -0.7914   -3.6836 N   0  0  0  0  0  0  0  0  0  0  0  0
   -1.4766   -1.1241   -4.3603 N   0  0  0  0  0  0  0  0  0  0  0  0
   -1.1233   -2.4793   -4.4426 C   0  0  0  0  0  0  0  0  0  0  0  0
    0.2161   -2.7622   -4.8082 C   0  0  0  0  0  0  0  0  0  0  0  0
   -2.0643   -3.5128   -4.2957 C   0  0  0  0  0  0  0  0  0  0  0  0
    0.5776   -4.0857   -5.0500 C   0  0  0  0  0  0  0  0  0  0  0  0
   -1.6799   -4.8270   -4.5355 C   0  0  0  0  0  0  0  0  0  0  0  0
   -3.0964   -3.2751   -4.0563 H   0  0  0  0  0  0  0  0  0  0  0  0
   -0.3643   -5.1117   -4.9173 C   0  0  0  0  0  0  0  0  0  0  0  0
    1.6020   -4.3118   -5.3212 H   0  0  0  0  0  0  0  0  0  0  0  0
   -2.4064   -5.6273   -4.4419 H   0  0  0  0  0  0  0  0  0  0  0  0
   -0.0684   -6.1379   -5.1096 H   0  0  0  0  0  0  0  0  0  0  0  0
    1.2319   -1.6636   -4.7813 C   0  0  0  0  0  0  0  0  0  0  0  0
    1.0932   -0.6371   -4.1466 O   0  0  0  0  0  0  0  0  0  0  0  0
    2.3183   -1.9593   -5.5092 O   0  0  0  0  0  0  0  0  0  0  0  0
    2.9496   -1.2253   -5.4117 H   0  0  0  0  0  0  0  0  0  0  0  0
   -3.5384    1.6581    0.3657 C   0  0  0  0  0  0  0  0  0  0  0  0
   -4.3758    2.2114    1.0363 O   0  0  0  0  0  0  0  0  0  0  0  0
   -2.2482    1.5168    0.7321 O   0  0  0  0  0  0  0  0  0  0  0  0
   -2.1439    1.9389    1.6027 H   0  0  0  0  0  0  0  0  0  0  0  0
  1  2  2  0  0  0  0
  1  6  1  0  0  0  0
  2  3  1  0  0  0  0
  3  8  1  0  0  0  0
  3  4  2  0  0  0  0
  4 28  1  0  0  0  0
  5  4  1  0  0  0  0
  5 11  1  0  0  0  0
  6  5  2  0  0  0  0
  7  1  1  0  0  0  0
  8  9  1  0  0  0  0
 10  6  1  0  0  0  0
 12  2  1  0  0  0  0
 13 12  1  0  0  0  0
 14 13  1  0  0  0  0
 14 16  1  0  0  0  0
 15 24  1  0  0  0  0
 15 14  2  0  0  0  0
 16 19  1  0  0  0  0
 17 20  2  0  0  0  0
 17 15  1  0  0  0  0
 18 22  1  0  0  0  0
 18 16  2  0  0  0  0
 20 18  1  0  0  0  0
 21 17  1  0  0  0  0
 23 20  1  0  0  0  0
 24 25  2  0  0  0  0
 26 27  1  0  0  0  0
 26 24  1  0  0  0  0
 28 30  1  0  0  0  0
 28 29  2  0  0  0  0
 30 31  1  0  0  0  0
M  RAD  4   8   2   9   3  12   2  13   2
M  END
