Coordinates from ORCA-job 1f-Schema5-R6-D+-B3LYPG-6-31G_dp-scan-d49-09-n400
 OpenBabel08231810253D

 31 32  0  0  0  0  0  0  0  0999 V2000
   -3.0447   -0.3640   -3.4978 C   0  0  0  0  0  0  0  0  0  0  0  0
   -2.1633   -0.2519   -2.4296 C   0  0  0  0  0  0  0  0  0  0  0  0
   -2.6509    0.2527   -1.2156 C   0  0  0  0  0  0  0  0  0  0  0  0
   -4.0167    0.5837   -0.9926 C   0  0  0  0  0  0  0  0  0  0  0  0
   -4.8704    0.4128   -2.0741 C   0  0  0  0  0  0  0  0  0  0  0  0
   -4.3922   -0.0454   -3.3130 C   0  0  0  0  0  0  0  0  0  0  0  0
   -2.6826   -0.6937   -4.4657 H   0  0  0  0  0  0  0  0  0  0  0  0
   -1.6951    0.4370   -0.2337 N   0  0  0  0  0  0  0  0  0  0  0  0
   -0.8623    0.5856    0.4899 N   0  0  0  0  0  0  0  0  0  0  0  0
   -5.0857   -0.1471   -4.1422 H   0  0  0  0  0  0  0  0  0  0  0  0
   -5.9170    0.6596   -1.9335 H   0  0  0  0  0  0  0  0  0  0  0  0
   -0.3681   -0.1816   -2.5728 N   0  0  0  0  0  0  0  0  0  0  0  0
    0.1773   -0.9777   -3.2928 N   0  0  0  0  0  0  0  0  0  0  0  0
   -0.3358   -2.1695   -3.8683 C   0  0  0  0  0  0  0  0  0  0  0  0
   -0.1073   -2.4503   -5.2310 C   0  0  0  0  0  0  0  0  0  0  0  0
   -0.8921   -3.1322   -3.0195 C   0  0  0  0  0  0  0  0  0  0  0  0
   -0.4659   -3.7054   -5.7275 C   0  0  0  0  0  0  0  0  0  0  0  0
   -1.2402   -4.3817   -3.5368 C   0  0  0  0  0  0  0  0  0  0  0  0
   -0.9985   -2.9216   -1.9610 H   0  0  0  0  0  0  0  0  0  0  0  0
   -1.0293   -4.6683   -4.8858 C   0  0  0  0  0  0  0  0  0  0  0  0
   -0.3057   -3.9171   -6.7785 H   0  0  0  0  0  0  0  0  0  0  0  0
   -1.6604   -5.1345   -2.8775 H   0  0  0  0  0  0  0  0  0  0  0  0
   -1.2965   -5.6417   -5.2829 H   0  0  0  0  0  0  0  0  0  0  0  0
    0.4151   -1.3629   -6.1032 C   0  0  0  0  0  0  0  0  0  0  0  0
    0.4173   -0.1928   -5.7723 O   0  0  0  0  0  0  0  0  0  0  0  0
    0.8633   -1.8095   -7.2873 O   0  0  0  0  0  0  0  0  0  0  0  0
    1.1687   -1.0371   -7.7936 H   0  0  0  0  0  0  0  0  0  0  0  0
   -4.6018    1.0977    0.2915 C   0  0  0  0  0  0  0  0  0  0  0  0
   -5.7698    1.3664    0.4179 O   0  0  0  0  0  0  0  0  0  0  0  0
   -3.6744    1.2159    1.2627 O   0  0  0  0  0  0  0  0  0  0  0  0
   -4.1156    1.5573    2.0610 H   0  0  0  0  0  0  0  0  0  0  0  0
  1  6  2  0  0  0  0
  1  2  1  0  0  0  0
  2  3  2  0  0  0  0
  3  4  1  0  0  0  0
  3  8  1  0  0  0  0
  4 28  1  0  0  0  0
  5 11  1  0  0  0  0
  5  4  2  0  0  0  0
  6  5  1  0  0  0  0
  7  1  1  0  0  0  0
  8  9  1  0  0  0  0
 10  6  1  0  0  0  0
 12  2  1  0  0  0  0
 13 12  2  0  0  0  0
 14 13  1  0  0  0  0
 14 16  2  0  0  0  0
 15 14  1  0  0  0  0
 16 19  1  0  0  0  0
 17 15  2  0  0  0  0
 17 20  1  0  0  0  0
 18 16  1  0  0  0  0
 18 22  1  0  0  0  0
 20 18  2  0  0  0  0
 21 17  1  0  0  0  0
 23 20  1  0  0  0  0
 24 25  2  0  0  0  0
 24 15  1  0  0  0  0
 26 24  1  0  0  0  0
 27 26  1  0  0  0  0
 28 29  2  0  0  0  0
 28 30  1  0  0  0  0
 30 31  1  0  0  0  0
M  RAD  2   8   2   9   3
M  END
