Coordinates from ORCA-job 1f-Schema5-R6-D+-B3LYPG-6-31G_dp-scan-d49-09-n400
 OpenBabel08231810253D

 31 32  0  0  0  0  0  0  0  0999 V2000
   -2.7672   -0.0461   -3.6565 C   0  0  0  0  0  0  0  0  0  0  0  0
   -1.9733   -0.1013   -2.5141 C   0  0  0  0  0  0  0  0  0  0  0  0
   -2.5515    0.2225   -1.2703 C   0  0  0  0  0  0  0  0  0  0  0  0
   -3.9373    0.5096   -1.1157 C   0  0  0  0  0  0  0  0  0  0  0  0
   -4.7038    0.4958   -2.2720 C   0  0  0  0  0  0  0  0  0  0  0  0
   -4.1265    0.2343   -3.5271 C   0  0  0  0  0  0  0  0  0  0  0  0
   -2.3026   -0.1949   -4.6266 H   0  0  0  0  0  0  0  0  0  0  0  0
   -1.6772    0.2641   -0.2099 N   0  0  0  0  0  0  0  0  0  0  0  0
   -0.9020    0.3171    0.5892 N   0  0  0  0  0  0  0  0  0  0  0  0
   -4.7533    0.2619   -4.4129 H   0  0  0  0  0  0  0  0  0  0  0  0
   -5.7616    0.7150   -2.1762 H   0  0  0  0  0  0  0  0  0  0  0  0
   -0.3738   -0.0805   -2.5975 N   0  0  0  0  0  0  0  0  0  0  0  0
    0.2049   -0.9088   -3.2948 N   0  0  0  0  0  0  0  0  0  0  0  0
   -0.3621   -2.1200   -3.7860 C   0  0  0  0  0  0  0  0  0  0  0  0
   -0.2616   -2.4520   -5.1534 C   0  0  0  0  0  0  0  0  0  0  0  0
   -0.7979   -3.0725   -2.8573 C   0  0  0  0  0  0  0  0  0  0  0  0
   -0.6041   -3.7405   -5.5680 C   0  0  0  0  0  0  0  0  0  0  0  0
   -1.1382   -4.3558   -3.2917 C   0  0  0  0  0  0  0  0  0  0  0  0
   -0.8036   -2.8304   -1.7996 H   0  0  0  0  0  0  0  0  0  0  0  0
   -1.0395   -4.6921   -4.6416 C   0  0  0  0  0  0  0  0  0  0  0  0
   -0.5412   -3.9858   -6.6224 H   0  0  0  0  0  0  0  0  0  0  0  0
   -1.4643   -5.0953   -2.5673 H   0  0  0  0  0  0  0  0  0  0  0  0
   -1.2988   -5.6911   -4.9749 H   0  0  0  0  0  0  0  0  0  0  0  0
    0.0730   -1.3686   -6.1134 C   0  0  0  0  0  0  0  0  0  0  0  0
   -0.0891   -0.1882   -5.8524 O   0  0  0  0  0  0  0  0  0  0  0  0
    0.5346   -1.8171   -7.2881 O   0  0  0  0  0  0  0  0  0  0  0  0
    0.6976   -1.0436   -7.8555 H   0  0  0  0  0  0  0  0  0  0  0  0
   -4.6251    0.8291    0.1810 C   0  0  0  0  0  0  0  0  0  0  0  0
   -5.8047    1.0638    0.2551 O   0  0  0  0  0  0  0  0  0  0  0  0
   -3.7734    0.8169    1.2252 O   0  0  0  0  0  0  0  0  0  0  0  0
   -4.2776    1.0371    2.0289 H   0  0  0  0  0  0  0  0  0  0  0  0
  1  6  2  0  0  0  0
  1  2  1  0  0  0  0
  2  3  2  0  0  0  0
  3  4  1  0  0  0  0
  3  8  1  0  0  0  0
  4 28  1  0  0  0  0
  5 11  1  0  0  0  0
  5  4  2  0  0  0  0
  6  5  1  0  0  0  0
  7  1  1  0  0  0  0
  8  9  1  0  0  0  0
 10  6  1  0  0  0  0
 12  2  1  0  0  0  0
 13 12  1  0  0  0  0
 14 13  1  0  0  0  0
 14 16  2  0  0  0  0
 15 14  1  0  0  0  0
 16 19  1  0  0  0  0
 17 15  2  0  0  0  0
 17 20  1  0  0  0  0
 18 16  1  0  0  0  0
 18 22  1  0  0  0  0
 20 18  2  0  0  0  0
 21 17  1  0  0  0  0
 23 20  1  0  0  0  0
 24 25  2  0  0  0  0
 24 15  1  0  0  0  0
 26 24  1  0  0  0  0
 27 26  1  0  0  0  0
 28 29  2  0  0  0  0
 28 30  1  0  0  0  0
 30 31  1  0  0  0  0
M  RAD  4   8   2   9   3  12   2  13   2
M  END
