Coordinates from ORCA-job 1f-Schema5-R6-D+-B3LYPG-6-31G_dp-scan-d49-09-n400
 OpenBabel08231810253D

 31 31  0  0  0  0  0  0  0  0999 V2000
   -4.4764   -0.3797   -3.0543 C   0  0  0  0  0  0  0  0  0  0  0  0
   -3.2579   -0.5618   -2.3483 C   0  0  0  0  0  0  0  0  0  0  0  0
   -3.3599   -0.0623   -1.0366 C   0  0  0  0  0  0  0  0  0  0  0  0
   -4.4738    0.5631   -0.3931 C   0  0  0  0  0  0  0  0  0  0  0  0
   -5.6058    0.6919   -1.1780 C   0  0  0  0  0  0  0  0  0  0  0  0
   -5.6058    0.2206   -2.5057 C   0  0  0  0  0  0  0  0  0  0  0  0
   -4.5423   -0.7285   -4.0848 H   0  0  0  0  0  0  0  0  0  0  0  0
   -2.1760   -0.2416   -0.3303 N   0  0  0  0  0  0  0  0  0  0  0  0
   -1.1824   -0.4374    0.1398 N   0  0  0  0  0  0  0  0  0  0  0  0
   -6.5095    0.3339   -3.0996 H   0  0  0  0  0  0  0  0  0  0  0  0
   -6.4819    1.1599   -0.7433 H   0  0  0  0  0  0  0  0  0  0  0  0
   -0.4001    0.6803   -5.1015 N   0  0  0  0  0  0  0  0  0  0  0  0
   -0.2605   -0.4245   -5.0882 N   0  0  0  0  0  0  0  0  0  0  0  0
   -0.2461   -1.8045   -4.9158 C   0  0  0  0  0  0  0  0  0  0  0  0
    0.6485   -2.6075   -5.6653 C   0  0  0  0  0  0  0  0  0  0  0  0
   -1.1627   -2.2971   -3.9766 C   0  0  0  0  0  0  0  0  0  0  0  0
    0.5963   -3.9762   -5.4400 C   0  0  0  0  0  0  0  0  0  0  0  0
   -1.1729   -3.6805   -3.7879 C   0  0  0  0  0  0  0  0  0  0  0  0
   -1.8478   -1.6177   -3.4018 H   0  0  0  0  0  0  0  0  0  0  0  0
   -0.3098   -4.5083   -4.5073 C   0  0  0  0  0  0  0  0  0  0  0  0
    1.2645   -4.6250   -5.9943 H   0  0  0  0  0  0  0  0  0  0  0  0
   -1.8687   -4.1043   -3.0704 H   0  0  0  0  0  0  0  0  0  0  0  0
   -0.3337   -5.5821   -4.3483 H   0  0  0  0  0  0  0  0  0  0  0  0
    1.5793   -1.9568   -6.6343 C   0  0  0  0  0  0  0  0  0  0  0  0
    1.5948   -0.7525   -6.7965 O   0  0  0  0  0  0  0  0  0  0  0  0
    2.3590   -2.8296   -7.2717 O   0  0  0  0  0  0  0  0  0  0  0  0
    2.9359   -2.3377   -7.8827 H   0  0  0  0  0  0  0  0  0  0  0  0
   -4.5323    1.0784    1.0074 C   0  0  0  0  0  0  0  0  0  0  0  0
   -5.5082    1.5985    1.4956 O   0  0  0  0  0  0  0  0  0  0  0  0
   -3.3683    0.9037    1.6777 O   0  0  0  0  0  0  0  0  0  0  0  0
   -3.4967    1.2681    2.5704 H   0  0  0  0  0  0  0  0  0  0  0  0
  1  6  2  0  0  0  0
  1  2  1  0  0  0  0
  2  3  2  0  0  0  0
  3  4  1  0  0  0  0
  3  8  1  0  0  0  0
  4 28  1  0  0  0  0
  5 11  1  0  0  0  0
  5  4  2  0  0  0  0
  6  5  1  0  0  0  0
  7  1  1  0  0  0  0
  8  9  1  0  0  0  0
 10  6  1  0  0  0  0
 12 13  1  0  0  0  0
 13 14  1  0  0  0  0
 14 16  2  0  0  0  0
 15 17  2  0  0  0  0
 15 14  1  0  0  0  0
 16 18  1  0  0  0  0
 16 19  1  0  0  0  0
 17 20  1  0  0  0  0
 18 22  1  0  0  0  0
 20 23  1  0  0  0  0
 20 18  2  0  0  0  0
 21 17  1  0  0  0  0
 24 15  1  0  0  0  0
 25 24  2  0  0  0  0
 26 24  1  0  0  0  0
 27 26  1  0  0  0  0
 28 29  2  0  0  0  0
 28 30  1  0  0  0  0
 30 31  1  0  0  0  0
M  RAD  5   2   2   8   2   9   3  12   3  13   2
M  END
