Coordinates from ORCA-job 1f-Schema5-R6-D+-B3LYPG-6-31G_dp-scan-d49-09-n400
 OpenBabel08231810253D

 31 31  0  0  0  0  0  0  0  0999 V2000
   -4.3260   -0.4865   -3.0379 C   0  0  0  0  0  0  0  0  0  0  0  0
   -3.0932   -0.4276   -2.3454 C   0  0  0  0  0  0  0  0  0  0  0  0
   -3.2329    0.1764   -1.0832 C   0  0  0  0  0  0  0  0  0  0  0  0
   -4.4157    0.6966   -0.4721 C   0  0  0  0  0  0  0  0  0  0  0  0
   -5.5670    0.5854   -1.2325 C   0  0  0  0  0  0  0  0  0  0  0  0
   -5.5215   -0.0046   -2.5100 C   0  0  0  0  0  0  0  0  0  0  0  0
   -4.3535   -0.9276   -4.0332 H   0  0  0  0  0  0  0  0  0  0  0  0
   -2.0242    0.2398   -0.4007 N   0  0  0  0  0  0  0  0  0  0  0  0
   -1.0076    0.2410    0.0594 N   0  0  0  0  0  0  0  0  0  0  0  0
   -6.4410   -0.0768   -3.0851 H   0  0  0  0  0  0  0  0  0  0  0  0
   -6.4937    0.9650   -0.8174 H   0  0  0  0  0  0  0  0  0  0  0  0
   -0.5328    0.3557   -4.0343 N   0  0  0  0  0  0  0  0  0  0  0  0
   -0.2468   -0.6434   -4.4515 N   0  0  0  0  0  0  0  0  0  0  0  0
   -0.2703   -2.0274   -4.6526 C   0  0  0  0  0  0  0  0  0  0  0  0
    0.5797   -2.6326   -5.5977 C   0  0  0  0  0  0  0  0  0  0  0  0
   -1.1831   -2.7146   -3.8505 C   0  0  0  0  0  0  0  0  0  0  0  0
    0.4867   -4.0144   -5.7287 C   0  0  0  0  0  0  0  0  0  0  0  0
   -1.2482   -4.0985   -4.0124 C   0  0  0  0  0  0  0  0  0  0  0  0
   -1.8086   -2.1357   -3.1549 H   0  0  0  0  0  0  0  0  0  0  0  0
   -0.4212   -4.7385   -4.9403 C   0  0  0  0  0  0  0  0  0  0  0  0
    1.1219   -4.5211   -6.4457 H   0  0  0  0  0  0  0  0  0  0  0  0
   -1.9452   -4.6747   -3.4127 H   0  0  0  0  0  0  0  0  0  0  0  0
   -0.4795   -5.8163   -5.0575 H   0  0  0  0  0  0  0  0  0  0  0  0
    1.5083   -1.7707   -6.3876 C   0  0  0  0  0  0  0  0  0  0  0  0
    1.5469   -0.5648   -6.2385 O   0  0  0  0  0  0  0  0  0  0  0  0
    2.2615   -2.4633   -7.2423 O   0  0  0  0  0  0  0  0  0  0  0  0
    2.8378   -1.8398   -7.7190 H   0  0  0  0  0  0  0  0  0  0  0  0
   -4.5265    1.3349    0.8750 C   0  0  0  0  0  0  0  0  0  0  0  0
   -5.5610    1.7556    1.3366 O   0  0  0  0  0  0  0  0  0  0  0  0
   -3.3403    1.3920    1.5241 O   0  0  0  0  0  0  0  0  0  0  0  0
   -3.5036    1.8191    2.3829 H   0  0  0  0  0  0  0  0  0  0  0  0
  1  6  2  0  0  0  0
  1  2  1  0  0  0  0
  2  3  2  0  0  0  0
  3  4  1  0  0  0  0
  3  8  1  0  0  0  0
  4 28  1  0  0  0  0
  5 11  1  0  0  0  0
  5  4  2  0  0  0  0
  6  5  1  0  0  0  0
  7  1  1  0  0  0  0
  8  9  1  0  0  0  0
 10  6  1  0  0  0  0
 13 12  1  0  0  0  0
 14 13  1  0  0  0  0
 14 16  2  0  0  0  0
 15 14  1  0  0  0  0
 16 19  1  0  0  0  0
 17 15  2  0  0  0  0
 17 20  1  0  0  0  0
 18 16  1  0  0  0  0
 18 22  1  0  0  0  0
 20 18  2  0  0  0  0
 21 17  1  0  0  0  0
 23 20  1  0  0  0  0
 24 25  2  0  0  0  0
 24 15  1  0  0  0  0
 26 24  1  0  0  0  0
 27 26  1  0  0  0  0
 28 29  2  0  0  0  0
 28 30  1  0  0  0  0
 30 31  1  0  0  0  0
M  RAD  5   2   2   8   2   9   3  12   3  13   2
M  END
