Coordinates from ORCA-job 1f-Schema5-R6-D+-B3LYPG-6-31G_dp-scan-d49-09-n400
 OpenBabel08231810253D

 31 31  0  0  0  0  0  0  0  0999 V2000
   -4.3792   -0.3880   -3.0603 C   0  0  0  0  0  0  0  0  0  0  0  0
   -3.1918   -0.5732   -2.3043 C   0  0  0  0  0  0  0  0  0  0  0  0
   -3.3405   -0.0572   -1.0034 C   0  0  0  0  0  0  0  0  0  0  0  0
   -4.4727    0.5863   -0.4123 C   0  0  0  0  0  0  0  0  0  0  0  0
   -5.5712    0.7175   -1.2434 C   0  0  0  0  0  0  0  0  0  0  0  0
   -5.5232    0.2307   -2.5646 C   0  0  0  0  0  0  0  0  0  0  0  0
   -4.4082   -0.7495   -4.0882 H   0  0  0  0  0  0  0  0  0  0  0  0
   -2.1877   -0.2398   -0.2478 N   0  0  0  0  0  0  0  0  0  0  0  0
   -1.2163   -0.4395    0.2649 N   0  0  0  0  0  0  0  0  0  0  0  0
   -6.4012    0.3463   -3.1953 H   0  0  0  0  0  0  0  0  0  0  0  0
   -6.4590    1.1989   -0.8491 H   0  0  0  0  0  0  0  0  0  0  0  0
   -0.4060    0.6550   -4.9261 N   0  0  0  0  0  0  0  0  0  0  0  0
   -0.2589   -0.4480   -4.9696 N   0  0  0  0  0  0  0  0  0  0  0  0
   -0.2371   -1.8340   -4.8528 C   0  0  0  0  0  0  0  0  0  0  0  0
    0.6151   -2.6089   -5.6766 C   0  0  0  0  0  0  0  0  0  0  0  0
   -1.1046   -2.3585   -3.8856 C   0  0  0  0  0  0  0  0  0  0  0  0
    0.5728   -3.9848   -5.4965 C   0  0  0  0  0  0  0  0  0  0  0  0
   -1.1099   -3.7477   -3.7463 C   0  0  0  0  0  0  0  0  0  0  0  0
   -1.7640   -1.6891   -3.2717 H   0  0  0  0  0  0  0  0  0  0  0  0
   -0.2846   -4.5491   -4.5367 C   0  0  0  0  0  0  0  0  0  0  0  0
    1.2098   -4.6141   -6.1071 H   0  0  0  0  0  0  0  0  0  0  0  0
   -1.7702   -4.1981   -3.0117 H   0  0  0  0  0  0  0  0  0  0  0  0
   -0.3011   -5.6279   -4.4136 H   0  0  0  0  0  0  0  0  0  0  0  0
    1.4919   -1.9230   -6.6711 C   0  0  0  0  0  0  0  0  0  0  0  0
    1.4966   -0.7138   -6.7931 O   0  0  0  0  0  0  0  0  0  0  0  0
    2.2365   -2.7713   -7.3798 O   0  0  0  0  0  0  0  0  0  0  0  0
    2.7779   -2.2574   -8.0049 H   0  0  0  0  0  0  0  0  0  0  0  0
   -4.5825    1.1175    0.9794 C   0  0  0  0  0  0  0  0  0  0  0  0
   -5.5723    1.6526    1.4215 O   0  0  0  0  0  0  0  0  0  0  0  0
   -3.4492    0.9380    1.6986 O   0  0  0  0  0  0  0  0  0  0  0  0
   -3.6102    1.3127    2.5817 H   0  0  0  0  0  0  0  0  0  0  0  0
  1  6  2  0  0  0  0
  1  2  1  0  0  0  0
  2  3  2  0  0  0  0
  3  4  1  0  0  0  0
  3  8  1  0  0  0  0
  4 28  1  0  0  0  0
  5 11  1  0  0  0  0
  5  4  2  0  0  0  0
  6  5  1  0  0  0  0
  7  1  1  0  0  0  0
  8  9  1  0  0  0  0
 10  6  1  0  0  0  0
 13 12  1  0  0  0  0
 13 14  1  0  0  0  0
 14 16  2  0  0  0  0
 15 17  2  0  0  0  0
 15 14  1  0  0  0  0
 16 18  1  0  0  0  0
 16 19  1  0  0  0  0
 17 20  1  0  0  0  0
 18 22  1  0  0  0  0
 20 23  1  0  0  0  0
 20 18  2  0  0  0  0
 21 17  1  0  0  0  0
 24 15  1  0  0  0  0
 25 24  2  0  0  0  0
 26 24  1  0  0  0  0
 27 26  1  0  0  0  0
 28 29  2  0  0  0  0
 28 30  1  0  0  0  0
 30 31  1  0  0  0  0
M  RAD  5   2   2   8   2   9   3  12   3  13   2
M  END
