Coordinates from ORCA-job 1f-Schema5-R6-D+-B3LYPG-6-31G_dp-scan-d49-09-n400
 OpenBabel08231810253D

 31 31  0  0  0  0  0  0  0  0999 V2000
   -3.5126   -0.6660   -3.2005 C   0  0  0  0  0  0  0  0  0  0  0  0
   -2.4830   -0.3860   -2.3006 C   0  0  0  0  0  0  0  0  0  0  0  0
   -2.8441    0.3149   -1.1462 C   0  0  0  0  0  0  0  0  0  0  0  0
   -4.1662    0.7198   -0.8050 C   0  0  0  0  0  0  0  0  0  0  0  0
   -5.1495    0.3917   -1.7271 C   0  0  0  0  0  0  0  0  0  0  0  0
   -4.8275   -0.2885   -2.9138 C   0  0  0  0  0  0  0  0  0  0  0  0
   -3.2996   -1.1830   -4.1314 H   0  0  0  0  0  0  0  0  0  0  0  0
   -1.7719    0.6254   -0.3179 N   0  0  0  0  0  0  0  0  0  0  0  0
   -0.8436    0.8379    0.2587 N   0  0  0  0  0  0  0  0  0  0  0  0
   -5.6206   -0.5212   -3.6189 H   0  0  0  0  0  0  0  0  0  0  0  0
   -6.1703    0.6829   -1.5055 H   0  0  0  0  0  0  0  0  0  0  0  0
   -0.3467   -0.3046   -2.6308 N   0  0  0  0  0  0  0  0  0  0  0  0
    0.0966   -1.0768   -3.3782 N   0  0  0  0  0  0  0  0  0  0  0  0
   -0.2900   -2.2622   -4.0394 C   0  0  0  0  0  0  0  0  0  0  0  0
    0.1483   -2.5035   -5.3555 C   0  0  0  0  0  0  0  0  0  0  0  0
   -1.0010   -3.2161   -3.3062 C   0  0  0  0  0  0  0  0  0  0  0  0
   -0.1710   -3.7311   -5.9382 C   0  0  0  0  0  0  0  0  0  0  0  0
   -1.3029   -4.4360   -3.9123 C   0  0  0  0  0  0  0  0  0  0  0  0
   -1.2856   -3.0075   -2.2818 H   0  0  0  0  0  0  0  0  0  0  0  0
   -0.8904   -4.6916   -5.2213 C   0  0  0  0  0  0  0  0  0  0  0  0
    0.1465   -3.9253   -6.9557 H   0  0  0  0  0  0  0  0  0  0  0  0
   -1.8491   -5.1893   -3.3539 H   0  0  0  0  0  0  0  0  0  0  0  0
   -1.1233   -5.6443   -5.6853 H   0  0  0  0  0  0  0  0  0  0  0  0
    0.8739   -1.4266   -6.0901 C   0  0  0  0  0  0  0  0  0  0  0  0
    0.9785   -0.2915   -5.6709 O   0  0  0  0  0  0  0  0  0  0  0  0
    1.3869   -1.8511   -7.2544 O   0  0  0  0  0  0  0  0  0  0  0  0
    1.8311   -1.0939   -7.6734 H   0  0  0  0  0  0  0  0  0  0  0  0
   -4.5799    1.4526    0.4358 C   0  0  0  0  0  0  0  0  0  0  0  0
   -5.7203    1.7705    0.6671 O   0  0  0  0  0  0  0  0  0  0  0  0
   -3.5363    1.7051    1.2537 O   0  0  0  0  0  0  0  0  0  0  0  0
   -3.8773    2.1778    2.0334 H   0  0  0  0  0  0  0  0  0  0  0  0
  1  6  2  0  0  0  0
  1  2  1  0  0  0  0
  2  3  2  0  0  0  0
  3  4  1  0  0  0  0
  3  8  1  0  0  0  0
  4 28  1  0  0  0  0
  5 11  1  0  0  0  0
  5  4  2  0  0  0  0
  6  5  1  0  0  0  0
  7  1  1  0  0  0  0
  8  9  1  0  0  0  0
 10  6  1  0  0  0  0
 13 12  2  0  0  0  0
 14 13  1  0  0  0  0
 14 16  2  0  0  0  0
 15 14  1  0  0  0  0
 16 19  1  0  0  0  0
 17 15  2  0  0  0  0
 17 20  1  0  0  0  0
 18 22  1  0  0  0  0
 18 16  1  0  0  0  0
 20 18  2  0  0  0  0
 21 17  1  0  0  0  0
 23 20  1  0  0  0  0
 24 25  2  0  0  0  0
 24 15  1  0  0  0  0
 26 24  1  0  0  0  0
 27 26  1  0  0  0  0
 28 29  2  0  0  0  0
 28 30  1  0  0  0  0
 30 31  1  0  0  0  0
M  RAD  4   2   2   8   2   9   3  12   2
M  END
