Coordinates from ORCA-job 1f-Schema5-R6-D+-B3LYPG-6-31G_dp-scan-d49-09-n400
 OpenBabel08231810253D

 31 31  0  0  0  0  0  0  0  0999 V2000
   -3.9515   -0.6840   -3.0016 C   0  0  0  0  0  0  0  0  0  0  0  0
   -2.7993   -0.3699   -2.2616 C   0  0  0  0  0  0  0  0  0  0  0  0
   -3.0509    0.3636   -1.0963 C   0  0  0  0  0  0  0  0  0  0  0  0
   -4.3219    0.7808   -0.6011 C   0  0  0  0  0  0  0  0  0  0  0  0
   -5.4084    0.4160   -1.3798 C   0  0  0  0  0  0  0  0  0  0  0  0
   -5.2251   -0.3080   -2.5719 C   0  0  0  0  0  0  0  0  0  0  0  0
   -3.8609   -1.2345   -3.9353 H   0  0  0  0  0  0  0  0  0  0  0  0
   -1.8880    0.6964   -0.4089 N   0  0  0  0  0  0  0  0  0  0  0  0
   -0.8975    0.9152    0.0524 N   0  0  0  0  0  0  0  0  0  0  0  0
   -6.0972   -0.5728   -3.1636 H   0  0  0  0  0  0  0  0  0  0  0  0
   -6.3970    0.7096   -1.0452 H   0  0  0  0  0  0  0  0  0  0  0  0
   -0.3436   -0.1646   -3.0056 N   0  0  0  0  0  0  0  0  0  0  0  0
   -0.0123   -0.9920   -3.7121 N   0  0  0  0  0  0  0  0  0  0  0  0
   -0.2526   -2.2406   -4.3028 C   0  0  0  0  0  0  0  0  0  0  0  0
    0.4067   -2.5954   -5.4944 C   0  0  0  0  0  0  0  0  0  0  0  0
   -1.1159   -3.1021   -3.6202 C   0  0  0  0  0  0  0  0  0  0  0  0
    0.1628   -3.8680   -6.0089 C   0  0  0  0  0  0  0  0  0  0  0  0
   -1.3381   -4.3676   -4.1605 C   0  0  0  0  0  0  0  0  0  0  0  0
   -1.5909   -2.7647   -2.7051 H   0  0  0  0  0  0  0  0  0  0  0  0
   -0.7009   -4.7468   -5.3448 C   0  0  0  0  0  0  0  0  0  0  0  0
    0.6497   -4.1642   -6.9302 H   0  0  0  0  0  0  0  0  0  0  0  0
   -2.0027   -5.0578   -3.6515 H   0  0  0  0  0  0  0  0  0  0  0  0
   -0.8743   -5.7356   -5.7562 H   0  0  0  0  0  0  0  0  0  0  0  0
    1.2975   -1.5993   -6.1631 C   0  0  0  0  0  0  0  0  0  0  0  0
    1.4252   -0.4594   -5.7645 O   0  0  0  0  0  0  0  0  0  0  0  0
    1.9244   -2.1059   -7.2307 O   0  0  0  0  0  0  0  0  0  0  0  0
    2.4778   -1.4032   -7.6144 H   0  0  0  0  0  0  0  0  0  0  0  0
   -4.5831    1.5567    0.6518 C   0  0  0  0  0  0  0  0  0  0  0  0
   -5.6866    1.8818    1.0180 O   0  0  0  0  0  0  0  0  0  0  0  0
   -3.4473    1.8497    1.3232 O   0  0  0  0  0  0  0  0  0  0  0  0
   -3.6990    2.3495    2.1194 H   0  0  0  0  0  0  0  0  0  0  0  0
  1  6  2  0  0  0  0
  1  2  1  0  0  0  0
  2  3  2  0  0  0  0
  3  4  1  0  0  0  0
  3  8  1  0  0  0  0
  4 28  1  0  0  0  0
  5 11  1  0  0  0  0
  5  4  2  0  0  0  0
  6  5  1  0  0  0  0
  7  1  1  0  0  0  0
  8  9  1  0  0  0  0
 10  6  1  0  0  0  0
 13 12  2  0  0  0  0
 14 13  1  0  0  0  0
 14 16  2  0  0  0  0
 15 14  1  0  0  0  0
 16 19  1  0  0  0  0
 17 15  2  0  0  0  0
 17 20  1  0  0  0  0
 18 22  1  0  0  0  0
 18 16  1  0  0  0  0
 20 18  2  0  0  0  0
 21 17  1  0  0  0  0
 23 20  1  0  0  0  0
 24 25  2  0  0  0  0
 24 15  1  0  0  0  0
 26 24  1  0  0  0  0
 27 26  1  0  0  0  0
 28 29  2  0  0  0  0
 28 30  1  0  0  0  0
 30 31  1  0  0  0  0
M  RAD  4   2   2   8   2   9   3  12   2
M  END
