Coordinates from ORCA-job 1f-Schema5-R6-D+-B3LYPG-6-31G_dp-scan-d49-09-n400
 OpenBabel08231810253D

 31 32  0  0  0  0  0  0  0  0999 V2000
   -2.7832   -0.0537   -3.6520 C   0  0  0  0  0  0  0  0  0  0  0  0
   -1.9911   -0.1116   -2.5104 C   0  0  0  0  0  0  0  0  0  0  0  0
   -2.5646    0.2179   -1.2689 C   0  0  0  0  0  0  0  0  0  0  0  0
   -3.9478    0.5158   -1.1115 C   0  0  0  0  0  0  0  0  0  0  0  0
   -4.7156    0.5042   -2.2674 C   0  0  0  0  0  0  0  0  0  0  0  0
   -4.1417    0.2352   -3.5223 C   0  0  0  0  0  0  0  0  0  0  0  0
   -2.3224   -0.2087   -4.6228 H   0  0  0  0  0  0  0  0  0  0  0  0
   -1.6876    0.2541   -0.2086 N   0  0  0  0  0  0  0  0  0  0  0  0
   -0.9095    0.3001    0.5879 N   0  0  0  0  0  0  0  0  0  0  0  0
   -4.7695    0.2644   -4.4074 H   0  0  0  0  0  0  0  0  0  0  0  0
   -5.7718    0.7308   -2.1712 H   0  0  0  0  0  0  0  0  0  0  0  0
   -0.3420   -0.0816   -2.6015 N   0  0  0  0  0  0  0  0  0  0  0  0
    0.2215   -0.9152   -3.2953 N   0  0  0  0  0  0  0  0  0  0  0  0
   -0.3448   -2.1255   -3.7880 C   0  0  0  0  0  0  0  0  0  0  0  0
   -0.2521   -2.4531   -5.1566 C   0  0  0  0  0  0  0  0  0  0  0  0
   -0.7796   -3.0772   -2.8588 C   0  0  0  0  0  0  0  0  0  0  0  0
   -0.6030   -3.7392   -5.5722 C   0  0  0  0  0  0  0  0  0  0  0  0
   -1.1286   -4.3578   -3.2947 C   0  0  0  0  0  0  0  0  0  0  0  0
   -0.7797   -2.8366   -1.8008 H   0  0  0  0  0  0  0  0  0  0  0  0
   -1.0382   -4.6909   -4.6460 C   0  0  0  0  0  0  0  0  0  0  0  0
   -0.5459   -3.9824   -6.6274 H   0  0  0  0  0  0  0  0  0  0  0  0
   -1.4546   -5.0975   -2.5705 H   0  0  0  0  0  0  0  0  0  0  0  0
   -1.3037   -5.6879   -4.9805 H   0  0  0  0  0  0  0  0  0  0  0  0
    0.0836   -1.3697   -6.1167 C   0  0  0  0  0  0  0  0  0  0  0  0
   -0.0702   -0.1891   -5.8535 O   0  0  0  0  0  0  0  0  0  0  0  0
    0.5371   -1.8200   -7.2941 O   0  0  0  0  0  0  0  0  0  0  0  0
    0.7018   -1.0470   -7.8615 H   0  0  0  0  0  0  0  0  0  0  0  0
   -4.6313    0.8432    0.1852 C   0  0  0  0  0  0  0  0  0  0  0  0
   -5.8092    1.0854    0.2614 O   0  0  0  0  0  0  0  0  0  0  0  0
   -3.7779    0.8259    1.2282 O   0  0  0  0  0  0  0  0  0  0  0  0
   -4.2792    1.0504    2.0325 H   0  0  0  0  0  0  0  0  0  0  0  0
  1  6  2  0  0  0  0
  1  2  1  0  0  0  0
  2  3  2  0  0  0  0
  3  4  1  0  0  0  0
  3  8  1  0  0  0  0
  4 28  1  0  0  0  0
  5 11  1  0  0  0  0
  5  4  2  0  0  0  0
  6  5  1  0  0  0  0
  7  1  1  0  0  0  0
  8  9  1  0  0  0  0
 10  6  1  0  0  0  0
 12  2  1  0  0  0  0
 13 12  1  0  0  0  0
 14 13  1  0  0  0  0
 14 16  2  0  0  0  0
 15 14  1  0  0  0  0
 16 19  1  0  0  0  0
 17 15  2  0  0  0  0
 17 20  1  0  0  0  0
 18 16  1  0  0  0  0
 18 22  1  0  0  0  0
 20 18  2  0  0  0  0
 21 17  1  0  0  0  0
 23 20  1  0  0  0  0
 24 25  2  0  0  0  0
 24 15  1  0  0  0  0
 26 24  1  0  0  0  0
 27 26  1  0  0  0  0
 28 29  2  0  0  0  0
 28 30  1  0  0  0  0
 30 31  1  0  0  0  0
M  RAD  4   8   2   9   3  12   2  13   2
M  END
