Coordinates from ORCA-job 1f-Schema5-R6-D+-B3LYPG-6-31G_dp-scan-d49-09-n400
 OpenBabel08231810253D

 31 32  0  0  0  0  0  0  0  0999 V2000
   -3.1802   -0.4952   -3.4062 C   0  0  0  0  0  0  0  0  0  0  0  0
   -2.2543   -0.3119   -2.3852 C   0  0  0  0  0  0  0  0  0  0  0  0
   -2.7029    0.2702   -1.1933 C   0  0  0  0  0  0  0  0  0  0  0  0
   -4.0574    0.6243   -0.9388 C   0  0  0  0  0  0  0  0  0  0  0  0
   -4.9513    0.3877   -1.9742 C   0  0  0  0  0  0  0  0  0  0  0  0
   -4.5198   -0.1568   -3.1951 C   0  0  0  0  0  0  0  0  0  0  0  0
   -2.8647   -0.9011   -4.3614 H   0  0  0  0  0  0  0  0  0  0  0  0
   -1.7114    0.5097   -0.2555 N   0  0  0  0  0  0  0  0  0  0  0  0
   -0.8488    0.6881    0.4247 N   0  0  0  0  0  0  0  0  0  0  0  0
   -5.2443   -0.3132   -3.9888 H   0  0  0  0  0  0  0  0  0  0  0  0
   -5.9915    0.6482   -1.8124 H   0  0  0  0  0  0  0  0  0  0  0  0
   -0.3619   -0.2337   -2.5652 N   0  0  0  0  0  0  0  0  0  0  0  0
    0.1610   -1.0163   -3.2949 N   0  0  0  0  0  0  0  0  0  0  0  0
   -0.3209   -2.1994   -3.9093 C   0  0  0  0  0  0  0  0  0  0  0  0
   -0.0342   -2.4551   -5.2653 C   0  0  0  0  0  0  0  0  0  0  0  0
   -0.9264   -3.1663   -3.1008 C   0  0  0  0  0  0  0  0  0  0  0  0
   -0.3936   -3.6941   -5.8006 C   0  0  0  0  0  0  0  0  0  0  0  0
   -1.2719   -4.3991   -3.6574 C   0  0  0  0  0  0  0  0  0  0  0  0
   -1.0806   -2.9689   -2.0459 H   0  0  0  0  0  0  0  0  0  0  0  0
   -1.0088   -4.6620   -5.0023 C   0  0  0  0  0  0  0  0  0  0  0  0
   -0.1900   -3.8899   -6.8469 H   0  0  0  0  0  0  0  0  0  0  0  0
   -1.7320   -5.1574   -3.0320 H   0  0  0  0  0  0  0  0  0  0  0  0
   -1.2747   -5.6229   -5.4296 H   0  0  0  0  0  0  0  0  0  0  0  0
    0.5640   -1.3685   -6.0908 C   0  0  0  0  0  0  0  0  0  0  0  0
    0.6253   -0.2118   -5.7232 O   0  0  0  0  0  0  0  0  0  0  0  0
    1.0126   -1.8043   -7.2791 O   0  0  0  0  0  0  0  0  0  0  0  0
    1.3727   -1.0357   -7.7543 H   0  0  0  0  0  0  0  0  0  0  0  0
   -4.5922    1.2227    0.3300 C   0  0  0  0  0  0  0  0  0  0  0  0
   -5.7545    1.5025    0.4850 O   0  0  0  0  0  0  0  0  0  0  0  0
   -3.6285    1.4006    1.2562 O   0  0  0  0  0  0  0  0  0  0  0  0
   -4.0401    1.7924    2.0470 H   0  0  0  0  0  0  0  0  0  0  0  0
  1  6  2  0  0  0  0
  1  2  1  0  0  0  0
  2  3  2  0  0  0  0
  3  4  1  0  0  0  0
  3  8  1  0  0  0  0
  4 28  1  0  0  0  0
  5 11  1  0  0  0  0
  5  4  2  0  0  0  0
  6  5  1  0  0  0  0
  7  1  1  0  0  0  0
  8  9  1  0  0  0  0
 10  6  1  0  0  0  0
 12  2  1  0  0  0  0
 13 12  2  0  0  0  0
 14 13  1  0  0  0  0
 14 16  2  0  0  0  0
 15 14  1  0  0  0  0
 16 19  1  0  0  0  0
 17 15  2  0  0  0  0
 17 20  1  0  0  0  0
 18 16  1  0  0  0  0
 18 22  1  0  0  0  0
 20 18  2  0  0  0  0
 21 17  1  0  0  0  0
 23 20  1  0  0  0  0
 24 25  2  0  0  0  0
 24 15  1  0  0  0  0
 26 24  1  0  0  0  0
 27 26  1  0  0  0  0
 28 29  2  0  0  0  0
 28 30  1  0  0  0  0
 30 31  1  0  0  0  0
M  RAD  2   8   2   9   3
M  END
