Coordinates from ORCA-job 1f-Schema5-R6-D+-B3LYPG-6-31G_dp-scan-d49-09-n400
 OpenBabel08231810253D

 31 31  0  0  0  0  0  0  0  0999 V2000
   -4.3801   -0.3889   -3.0612 C   0  0  0  0  0  0  0  0  0  0  0  0
   -3.1922   -0.5742   -2.3061 C   0  0  0  0  0  0  0  0  0  0  0  0
   -3.3395   -0.0574   -1.0053 C   0  0  0  0  0  0  0  0  0  0  0  0
   -4.4708    0.5871   -0.4136 C   0  0  0  0  0  0  0  0  0  0  0  0
   -5.5699    0.7184   -1.2439 C   0  0  0  0  0  0  0  0  0  0  0  0
   -5.5233    0.2307   -2.5648 C   0  0  0  0  0  0  0  0  0  0  0  0
   -4.4102   -0.7511   -4.0887 H   0  0  0  0  0  0  0  0  0  0  0  0
   -2.1861   -0.2401   -0.2506 N   0  0  0  0  0  0  0  0  0  0  0  0
   -1.2144   -0.4400    0.2614 N   0  0  0  0  0  0  0  0  0  0  0  0
   -6.4019    0.3464   -3.1948 H   0  0  0  0  0  0  0  0  0  0  0  0
   -6.4571    1.2005   -0.8491 H   0  0  0  0  0  0  0  0  0  0  0  0
   -0.4149    0.6528   -4.9220 N   0  0  0  0  0  0  0  0  0  0  0  0
   -0.2644   -0.4496   -4.9676 N   0  0  0  0  0  0  0  0  0  0  0  0
   -0.2399   -1.8356   -4.8521 C   0  0  0  0  0  0  0  0  0  0  0  0
    0.6140   -2.6087   -5.6755 C   0  0  0  0  0  0  0  0  0  0  0  0
   -1.1076   -2.3615   -3.8862 C   0  0  0  0  0  0  0  0  0  0  0  0
    0.5733   -3.9848   -5.4962 C   0  0  0  0  0  0  0  0  0  0  0  0
   -1.1116   -3.7508   -3.7474 C   0  0  0  0  0  0  0  0  0  0  0  0
   -1.7675   -1.6919   -3.2732 H   0  0  0  0  0  0  0  0  0  0  0  0
   -0.2845   -4.5507   -4.5376 C   0  0  0  0  0  0  0  0  0  0  0  0
    1.2116   -4.6130   -6.1065 H   0  0  0  0  0  0  0  0  0  0  0  0
   -1.7721   -4.2024   -3.0137 H   0  0  0  0  0  0  0  0  0  0  0  0
   -0.2998   -5.6296   -4.4152 H   0  0  0  0  0  0  0  0  0  0  0  0
    1.4907   -1.9206   -6.6686 C   0  0  0  0  0  0  0  0  0  0  0  0
    1.4951   -0.7111   -6.7877 O   0  0  0  0  0  0  0  0  0  0  0  0
    2.2391   -2.7669   -7.3755 O   0  0  0  0  0  0  0  0  0  0  0  0
    2.7818   -2.2513   -7.9982 H   0  0  0  0  0  0  0  0  0  0  0  0
   -4.5792    1.1192    0.9778 C   0  0  0  0  0  0  0  0  0  0  0  0
   -5.5684    1.6547    1.4206 O   0  0  0  0  0  0  0  0  0  0  0  0
   -3.4454    0.9391    1.6963 O   0  0  0  0  0  0  0  0  0  0  0  0
   -3.6056    1.3141    2.5794 H   0  0  0  0  0  0  0  0  0  0  0  0
  1  6  2  0  0  0  0
  1  2  1  0  0  0  0
  2  3  2  0  0  0  0
  3  4  1  0  0  0  0
  3  8  1  0  0  0  0
  4 28  1  0  0  0  0
  5 11  1  0  0  0  0
  5  4  2  0  0  0  0
  6  5  1  0  0  0  0
  7  1  1  0  0  0  0
  8  9  1  0  0  0  0
 10  6  1  0  0  0  0
 13 12  1  0  0  0  0
 13 14  1  0  0  0  0
 14 16  2  0  0  0  0
 15 17  2  0  0  0  0
 15 14  1  0  0  0  0
 16 18  1  0  0  0  0
 16 19  1  0  0  0  0
 17 20  1  0  0  0  0
 18 22  1  0  0  0  0
 20 23  1  0  0  0  0
 20 18  2  0  0  0  0
 21 17  1  0  0  0  0
 24 15  1  0  0  0  0
 25 24  2  0  0  0  0
 26 24  1  0  0  0  0
 27 26  1  0  0  0  0
 28 29  2  0  0  0  0
 28 30  1  0  0  0  0
 30 31  1  0  0  0  0
M  RAD  5   2   2   8   2   9   3  12   3  13   2
M  END
