Coordinates from ORCA-job 1f-Schema5-R6-D+-B3LYPG-6-31G_dp-scan-d49-09-n400
 OpenBabel08231810253D

 31 31  0  0  0  0  0  0  0  0999 V2000
   -3.6646   -0.7209   -3.0928 C   0  0  0  0  0  0  0  0  0  0  0  0
   -2.5897   -0.4047   -2.2544 C   0  0  0  0  0  0  0  0  0  0  0  0
   -2.9154    0.3405   -1.1170 C   0  0  0  0  0  0  0  0  0  0  0  0
   -4.2217    0.7624   -0.7350 C   0  0  0  0  0  0  0  0  0  0  0  0
   -5.2422    0.3973   -1.6001 C   0  0  0  0  0  0  0  0  0  0  0  0
   -4.9671   -0.3330   -2.7693 C   0  0  0  0  0  0  0  0  0  0  0  0
   -3.4947   -1.2777   -4.0103 H   0  0  0  0  0  0  0  0  0  0  0  0
   -1.8100    0.6800   -0.3445 N   0  0  0  0  0  0  0  0  0  0  0  0
   -0.8563    0.9070    0.1839 N   0  0  0  0  0  0  0  0  0  0  0  0
   -5.7885   -0.5959   -3.4301 H   0  0  0  0  0  0  0  0  0  0  0  0
   -6.2535    0.6975   -1.3491 H   0  0  0  0  0  0  0  0  0  0  0  0
   -0.3293   -0.3227   -2.6903 N   0  0  0  0  0  0  0  0  0  0  0  0
    0.0636   -1.0966   -3.4470 N   0  0  0  0  0  0  0  0  0  0  0  0
   -0.2755   -2.2862   -4.1178 C   0  0  0  0  0  0  0  0  0  0  0  0
    0.2374   -2.5344   -5.4050 C   0  0  0  0  0  0  0  0  0  0  0  0
   -1.0393   -3.2257   -3.4194 C   0  0  0  0  0  0  0  0  0  0  0  0
   -0.0582   -3.7624   -5.9977 C   0  0  0  0  0  0  0  0  0  0  0  0
   -1.3161   -4.4454   -4.0365 C   0  0  0  0  0  0  0  0  0  0  0  0
   -1.3884   -2.9990   -2.4190 H   0  0  0  0  0  0  0  0  0  0  0  0
   -0.8277   -4.7116   -5.3174 C   0  0  0  0  0  0  0  0  0  0  0  0
    0.3159   -3.9668   -6.9936 H   0  0  0  0  0  0  0  0  0  0  0  0
   -1.9037   -5.1899   -3.5094 H   0  0  0  0  0  0  0  0  0  0  0  0
   -1.0416   -5.6648   -5.7893 H   0  0  0  0  0  0  0  0  0  0  0  0
    1.0204   -1.4683   -6.0970 C   0  0  0  0  0  0  0  0  0  0  0  0
    1.1377   -0.3422   -5.6575 O   0  0  0  0  0  0  0  0  0  0  0  0
    1.5704   -1.8943   -7.2422 O   0  0  0  0  0  0  0  0  0  0  0  0
    2.0529   -1.1462   -7.6349 H   0  0  0  0  0  0  0  0  0  0  0  0
   -4.5826    1.5458    0.4900 C   0  0  0  0  0  0  0  0  0  0  0  0
   -5.7118    1.8759    0.7583 O   0  0  0  0  0  0  0  0  0  0  0  0
   -3.5054    1.8306    1.2530 O   0  0  0  0  0  0  0  0  0  0  0  0
   -3.8158    2.3342    2.0260 H   0  0  0  0  0  0  0  0  0  0  0  0
  1  6  2  0  0  0  0
  1  2  1  0  0  0  0
  2  3  2  0  0  0  0
  3  4  1  0  0  0  0
  3  8  1  0  0  0  0
  4 28  1  0  0  0  0
  5 11  1  0  0  0  0
  5  4  2  0  0  0  0
  6  5  1  0  0  0  0
  7  1  1  0  0  0  0
  8  9  1  0  0  0  0
 10  6  1  0  0  0  0
 13 12  2  0  0  0  0
 14 13  1  0  0  0  0
 14 16  2  0  0  0  0
 15 14  1  0  0  0  0
 16 19  1  0  0  0  0
 17 15  2  0  0  0  0
 17 20  1  0  0  0  0
 18 22  1  0  0  0  0
 18 16  1  0  0  0  0
 20 18  2  0  0  0  0
 21 17  1  0  0  0  0
 23 20  1  0  0  0  0
 24 25  2  0  0  0  0
 24 15  1  0  0  0  0
 26 24  1  0  0  0  0
 27 26  1  0  0  0  0
 28 29  2  0  0  0  0
 28 30  1  0  0  0  0
 30 31  1  0  0  0  0
M  RAD  4   2   2   8   2   9   3  12   2
M  END
