Coordinates from ORCA-job 1f-Schema5-R6-D+-B3LYPG-6-31G_dp-scan-d49-09-n400
 OpenBabel08231810253D

 31 31  0  0  0  0  0  0  0  0999 V2000
   -4.4756   -0.5415   -2.9565 C   0  0  0  0  0  0  0  0  0  0  0  0
   -3.2222   -0.5110   -2.2893 C   0  0  0  0  0  0  0  0  0  0  0  0
   -3.3617    0.0044   -0.9873 C   0  0  0  0  0  0  0  0  0  0  0  0
   -4.5391    0.4661   -0.3195 C   0  0  0  0  0  0  0  0  0  0  0  0
   -5.7019    0.3888   -1.0653 C   0  0  0  0  0  0  0  0  0  0  0  0
   -5.6687   -0.1149   -2.3808 C   0  0  0  0  0  0  0  0  0  0  0  0
   -4.5165   -0.9190   -3.9780 H   0  0  0  0  0  0  0  0  0  0  0  0
   -2.1414    0.0357   -0.3212 N   0  0  0  0  0  0  0  0  0  0  0  0
   -1.1141    0.0145    0.1152 N   0  0  0  0  0  0  0  0  0  0  0  0
   -6.5976   -0.1641   -2.9436 H   0  0  0  0  0  0  0  0  0  0  0  0
   -6.6269    0.7257   -0.6113 H   0  0  0  0  0  0  0  0  0  0  0  0
    0.3091    0.8111   -5.1773 N   0  0  0  0  0  0  0  0  0  0  0  0
    0.2071   -0.2974   -5.1425 N   0  0  0  0  0  0  0  0  0  0  0  0
   -0.0458   -1.6535   -4.9779 C   0  0  0  0  0  0  0  0  0  0  0  0
    0.6987   -2.6053   -5.7214 C   0  0  0  0  0  0  0  0  0  0  0  0
   -1.0540   -1.9837   -4.0598 C   0  0  0  0  0  0  0  0  0  0  0  0
    0.3931   -3.9431   -5.5131 C   0  0  0  0  0  0  0  0  0  0  0  0
   -1.3200   -3.3434   -3.8894 C   0  0  0  0  0  0  0  0  0  0  0  0
   -1.6527   -1.2463   -3.4690 H   0  0  0  0  0  0  0  0  0  0  0  0
   -0.6116   -4.3102   -4.6025 C   0  0  0  0  0  0  0  0  0  0  0  0
    0.9422   -4.6971   -6.0647 H   0  0  0  0  0  0  0  0  0  0  0  0
   -2.0970   -3.6275   -3.1862 H   0  0  0  0  0  0  0  0  0  0  0  0
   -0.8346   -5.3627   -4.4572 H   0  0  0  0  0  0  0  0  0  0  0  0
    1.7525   -2.1374   -6.6714 C   0  0  0  0  0  0  0  0  0  0  0  0
    1.9972   -0.9577   -6.8287 O   0  0  0  0  0  0  0  0  0  0  0  0
    2.3663   -3.1401   -7.2992 O   0  0  0  0  0  0  0  0  0  0  0  0
    3.0358   -2.7631   -7.8973 H   0  0  0  0  0  0  0  0  0  0  0  0
   -4.6332    1.0108    1.0678 C   0  0  0  0  0  0  0  0  0  0  0  0
   -5.6636    1.3815    1.5800 O   0  0  0  0  0  0  0  0  0  0  0  0
   -3.4344    1.0479    1.6972 O   0  0  0  0  0  0  0  0  0  0  0  0
   -3.5904    1.4150    2.5844 H   0  0  0  0  0  0  0  0  0  0  0  0
  1  6  2  0  0  0  0
  1  2  1  0  0  0  0
  2  3  2  0  0  0  0
  3  8  1  0  0  0  0
  3  4  1  0  0  0  0
  4 28  1  0  0  0  0
  5 11  1  0  0  0  0
  5  4  2  0  0  0  0
  6  5  1  0  0  0  0
  7  1  1  0  0  0  0
  8  9  1  0  0  0  0
 10  6  1  0  0  0  0
 12 13  1  0  0  0  0
 13 14  1  0  0  0  0
 14 16  2  0  0  0  0
 15 17  2  0  0  0  0
 15 14  1  0  0  0  0
 16 18  1  0  0  0  0
 16 19  1  0  0  0  0
 17 20  1  0  0  0  0
 18 22  1  0  0  0  0
 20 23  1  0  0  0  0
 20 18  2  0  0  0  0
 21 17  1  0  0  0  0
 24 15  1  0  0  0  0
 25 24  2  0  0  0  0
 26 24  1  0  0  0  0
 27 26  1  0  0  0  0
 28 29  2  0  0  0  0
 28 30  1  0  0  0  0
 30 31  1  0  0  0  0
M  RAD  5   2   2   8   2   9   3  12   3  13   2
M  END
