Coordinates from ORCA-job 1f-Schema5-R6-D+-B3LYPG-6-31G_dp-scan-d49-09-n400
 OpenBabel08231810253D

 31 31  0  0  0  0  0  0  0  0999 V2000
   -4.3303   -0.4671   -3.0523 C   0  0  0  0  0  0  0  0  0  0  0  0
   -3.1085   -0.4802   -2.3347 C   0  0  0  0  0  0  0  0  0  0  0  0
   -3.2527    0.1092   -1.0654 C   0  0  0  0  0  0  0  0  0  0  0  0
   -4.4220    0.6777   -0.4709 C   0  0  0  0  0  0  0  0  0  0  0  0
   -5.5592    0.6373   -1.2587 C   0  0  0  0  0  0  0  0  0  0  0  0
   -5.5126    0.0658   -2.5449 C   0  0  0  0  0  0  0  0  0  0  0  0
   -4.3581   -0.8936   -4.0542 H   0  0  0  0  0  0  0  0  0  0  0  0
   -2.0599    0.0969   -0.3521 N   0  0  0  0  0  0  0  0  0  0  0  0
   -1.0563    0.0342    0.1319 N   0  0  0  0  0  0  0  0  0  0  0  0
   -6.4210    0.0484   -3.1417 H   0  0  0  0  0  0  0  0  0  0  0  0
   -6.4756    1.0555   -0.8581 H   0  0  0  0  0  0  0  0  0  0  0  0
   -0.5370    0.4284   -4.2033 N   0  0  0  0  0  0  0  0  0  0  0  0
   -0.2754   -0.6013   -4.5492 N   0  0  0  0  0  0  0  0  0  0  0  0
   -0.2721   -1.9918   -4.6840 C   0  0  0  0  0  0  0  0  0  0  0  0
    0.5788   -2.6252   -5.6118 C   0  0  0  0  0  0  0  0  0  0  0  0
   -1.1630   -2.6543   -3.8371 C   0  0  0  0  0  0  0  0  0  0  0  0
    0.5108   -4.0124   -5.6749 C   0  0  0  0  0  0  0  0  0  0  0  0
   -1.2015   -4.0458   -3.9337 C   0  0  0  0  0  0  0  0  0  0  0  0
   -1.7949   -2.0520   -3.1585 H   0  0  0  0  0  0  0  0  0  0  0  0
   -0.3739   -4.7143   -4.8402 C   0  0  0  0  0  0  0  0  0  0  0  0
    1.1469   -4.5413   -6.3750 H   0  0  0  0  0  0  0  0  0  0  0  0
   -1.8804   -4.6055   -3.2984 H   0  0  0  0  0  0  0  0  0  0  0  0
   -0.4127   -5.7976   -4.9048 H   0  0  0  0  0  0  0  0  0  0  0  0
    1.4801   -1.7833   -6.4522 C   0  0  0  0  0  0  0  0  0  0  0  0
    1.4964   -0.5713   -6.3544 O   0  0  0  0  0  0  0  0  0  0  0  0
    2.2335   -2.4976   -7.2877 O   0  0  0  0  0  0  0  0  0  0  0  0
    2.7912   -1.8854   -7.7998 H   0  0  0  0  0  0  0  0  0  0  0  0
   -4.5326    1.2973    0.8846 C   0  0  0  0  0  0  0  0  0  0  0  0
   -5.5562    1.7577    1.3328 O   0  0  0  0  0  0  0  0  0  0  0  0
   -3.3596    1.2878    1.5602 O   0  0  0  0  0  0  0  0  0  0  0  0
   -3.5230    1.7067    2.4229 H   0  0  0  0  0  0  0  0  0  0  0  0
  1  6  2  0  0  0  0
  1  2  1  0  0  0  0
  2  3  2  0  0  0  0
  3  4  1  0  0  0  0
  3  8  1  0  0  0  0
  4 28  1  0  0  0  0
  5 11  1  0  0  0  0
  5  4  2  0  0  0  0
  6  5  1  0  0  0  0
  7  1  1  0  0  0  0
  8  9  1  0  0  0  0
 10  6  1  0  0  0  0
 13 12  1  0  0  0  0
 14 13  1  0  0  0  0
 14 16  2  0  0  0  0
 15 14  1  0  0  0  0
 16 19  1  0  0  0  0
 17 15  2  0  0  0  0
 17 20  1  0  0  0  0
 18 16  1  0  0  0  0
 18 22  1  0  0  0  0
 20 18  2  0  0  0  0
 21 17  1  0  0  0  0
 23 20  1  0  0  0  0
 24 25  2  0  0  0  0
 24 15  1  0  0  0  0
 26 24  1  0  0  0  0
 27 26  1  0  0  0  0
 28 29  2  0  0  0  0
 28 30  1  0  0  0  0
 30 31  1  0  0  0  0
M  RAD  5   2   2   8   2   9   3  12   3  13   2
M  END
