Coordinates from ORCA-job 1f-Schema5-R6-D+-B3LYPG-6-31G_dp-scan-d49-09-n400
 OpenBabel08231810253D

 31 31  0  0  0  0  0  0  0  0999 V2000
   -4.3411   -0.3820   -3.0807 C   0  0  0  0  0  0  0  0  0  0  0  0
   -3.1700   -0.5895   -2.3057 C   0  0  0  0  0  0  0  0  0  0  0  0
   -3.3233   -0.0554   -1.0125 C   0  0  0  0  0  0  0  0  0  0  0  0
   -4.4465    0.6237   -0.4449 C   0  0  0  0  0  0  0  0  0  0  0  0
   -5.5289    0.7755   -1.2937 C   0  0  0  0  0  0  0  0  0  0  0  0
   -5.4750    0.2731   -2.6086 C   0  0  0  0  0  0  0  0  0  0  0  0
   -4.3660   -0.7552   -4.1045 H   0  0  0  0  0  0  0  0  0  0  0  0
   -2.1869   -0.2603   -0.2376 N   0  0  0  0  0  0  0  0  0  0  0  0
   -1.2292   -0.4801    0.2921 N   0  0  0  0  0  0  0  0  0  0  0  0
   -6.3403    0.4052   -3.2535 H   0  0  0  0  0  0  0  0  0  0  0  0
   -6.4092    1.2843   -0.9173 H   0  0  0  0  0  0  0  0  0  0  0  0
   -0.5735    0.5819   -4.7556 N   0  0  0  0  0  0  0  0  0  0  0  0
   -0.3615   -0.5063   -4.8630 N   0  0  0  0  0  0  0  0  0  0  0  0
   -0.2831   -1.8946   -4.7966 C   0  0  0  0  0  0  0  0  0  0  0  0
    0.5834   -2.6090   -5.6568 C   0  0  0  0  0  0  0  0  0  0  0  0
   -1.1158   -2.4794   -3.8351 C   0  0  0  0  0  0  0  0  0  0  0  0
    0.5940   -3.9907   -5.5210 C   0  0  0  0  0  0  0  0  0  0  0  0
   -1.0701   -3.8715   -3.7392 C   0  0  0  0  0  0  0  0  0  0  0  0
   -1.7796   -1.8353   -3.2038 H   0  0  0  0  0  0  0  0  0  0  0  0
   -0.2279   -4.6159   -4.5677 C   0  0  0  0  0  0  0  0  0  0  0  0
    1.2436   -4.5773   -6.1603 H   0  0  0  0  0  0  0  0  0  0  0  0
   -1.7012   -4.3708   -3.0107 H   0  0  0  0  0  0  0  0  0  0  0  0
   -0.2033   -5.6979   -4.4790 H   0  0  0  0  0  0  0  0  0  0  0  0
    1.4168   -1.8549   -6.6388 C   0  0  0  0  0  0  0  0  0  0  0  0
    1.3723   -0.6425   -6.7154 O   0  0  0  0  0  0  0  0  0  0  0  0
    2.1846   -2.6464   -7.3869 O   0  0  0  0  0  0  0  0  0  0  0  0
    2.6961   -2.0892   -8.0001 H   0  0  0  0  0  0  0  0  0  0  0  0
   -4.5628    1.1717    0.9399 C   0  0  0  0  0  0  0  0  0  0  0  0
   -5.5438    1.7391    1.3606 O   0  0  0  0  0  0  0  0  0  0  0  0
   -3.4446    0.9719    1.6769 O   0  0  0  0  0  0  0  0  0  0  0  0
   -3.6080    1.3607    2.5535 H   0  0  0  0  0  0  0  0  0  0  0  0
  1  6  2  0  0  0  0
  1  2  1  0  0  0  0
  2  3  2  0  0  0  0
  3  4  1  0  0  0  0
  3  8  1  0  0  0  0
  4 28  1  0  0  0  0
  5 11  1  0  0  0  0
  5  4  2  0  0  0  0
  6  5  1  0  0  0  0
  7  1  1  0  0  0  0
  8  9  1  0  0  0  0
 10  6  1  0  0  0  0
 13 14  1  0  0  0  0
 13 12  1  0  0  0  0
 14 16  2  0  0  0  0
 15 17  2  0  0  0  0
 15 14  1  0  0  0  0
 16 18  1  0  0  0  0
 16 19  1  0  0  0  0
 17 20  1  0  0  0  0
 18 22  1  0  0  0  0
 20 23  1  0  0  0  0
 20 18  2  0  0  0  0
 21 17  1  0  0  0  0
 24 15  1  0  0  0  0
 25 24  2  0  0  0  0
 26 24  1  0  0  0  0
 27 26  1  0  0  0  0
 28 29  2  0  0  0  0
 28 30  1  0  0  0  0
 30 31  1  0  0  0  0
M  RAD  5   2   2   8   2   9   3  12   3  13   2
M  END
