Coordinates from ORCA-job 1f-Schema5-R6-D+-B3LYPG-6-31G_dp-scan-d49-09-n400
 OpenBabel08231810253D

 31 31  0  0  0  0  0  0  0  0999 V2000
   -4.3119   -0.4091   -3.0769 C   0  0  0  0  0  0  0  0  0  0  0  0
   -3.1369   -0.5774   -2.2988 C   0  0  0  0  0  0  0  0  0  0  0  0
   -3.3014   -0.0270   -1.0140 C   0  0  0  0  0  0  0  0  0  0  0  0
   -4.4398    0.6353   -0.4570 C   0  0  0  0  0  0  0  0  0  0  0  0
   -5.5255    0.7488   -1.3076 C   0  0  0  0  0  0  0  0  0  0  0  0
   -5.4604    0.2271   -2.6144 C   0  0  0  0  0  0  0  0  0  0  0  0
   -4.3279   -0.7980   -4.0949 H   0  0  0  0  0  0  0  0  0  0  0  0
   -2.1608   -0.1938   -0.2363 N   0  0  0  0  0  0  0  0  0  0  0  0
   -1.1987   -0.3834    0.2971 N   0  0  0  0  0  0  0  0  0  0  0  0
   -6.3286    0.3295   -3.2609 H   0  0  0  0  0  0  0  0  0  0  0  0
   -6.4170    1.2433   -0.9389 H   0  0  0  0  0  0  0  0  0  0  0  0
   -0.5513    0.5579   -4.6065 N   0  0  0  0  0  0  0  0  0  0  0  0
   -0.3327   -0.5215   -4.7754 N   0  0  0  0  0  0  0  0  0  0  0  0
   -0.2728   -1.9134   -4.7595 C   0  0  0  0  0  0  0  0  0  0  0  0
    0.5732   -2.6108   -5.6509 C   0  0  0  0  0  0  0  0  0  0  0  0
   -1.1062   -2.5150   -3.8104 C   0  0  0  0  0  0  0  0  0  0  0  0
    0.5621   -3.9966   -5.5619 C   0  0  0  0  0  0  0  0  0  0  0  0
   -1.0852   -3.9101   -3.7613 C   0  0  0  0  0  0  0  0  0  0  0  0
   -1.7514   -1.8720   -3.1621 H   0  0  0  0  0  0  0  0  0  0  0  0
   -0.2622   -4.6394   -4.6224 C   0  0  0  0  0  0  0  0  0  0  0  0
    1.1958   -4.5724   -6.2265 H   0  0  0  0  0  0  0  0  0  0  0  0
   -1.7181   -4.4237   -3.0446 H   0  0  0  0  0  0  0  0  0  0  0  0
   -0.2553   -5.7242   -4.5703 H   0  0  0  0  0  0  0  0  0  0  0  0
    1.4079   -1.8337   -6.6132 C   0  0  0  0  0  0  0  0  0  0  0  0
    1.3780   -0.6187   -6.6456 O   0  0  0  0  0  0  0  0  0  0  0  0
    2.1568   -2.6072   -7.3982 O   0  0  0  0  0  0  0  0  0  0  0  0
    2.6694   -2.0349   -7.9965 H   0  0  0  0  0  0  0  0  0  0  0  0
   -4.5687    1.2024    0.9192 C   0  0  0  0  0  0  0  0  0  0  0  0
   -5.5628    1.7530    1.3312 O   0  0  0  0  0  0  0  0  0  0  0  0
   -3.4479    1.0354    1.6604 O   0  0  0  0  0  0  0  0  0  0  0  0
   -3.6207    1.4322    2.5316 H   0  0  0  0  0  0  0  0  0  0  0  0
  1  6  2  0  0  0  0
  1  2  1  0  0  0  0
  2  3  2  0  0  0  0
  3  4  1  0  0  0  0
  3  8  1  0  0  0  0
  4 28  1  0  0  0  0
  5 11  1  0  0  0  0
  5  4  2  0  0  0  0
  6  5  1  0  0  0  0
  7  1  1  0  0  0  0
  8  9  1  0  0  0  0
 10  6  1  0  0  0  0
 13 14  1  0  0  0  0
 13 12  1  0  0  0  0
 14 16  2  0  0  0  0
 15 17  2  0  0  0  0
 15 14  1  0  0  0  0
 16 18  1  0  0  0  0
 16 19  1  0  0  0  0
 17 20  1  0  0  0  0
 18 22  1  0  0  0  0
 20 23  1  0  0  0  0
 20 18  2  0  0  0  0
 21 17  1  0  0  0  0
 24 15  1  0  0  0  0
 25 24  2  0  0  0  0
 26 24  1  0  0  0  0
 27 26  1  0  0  0  0
 28 29  2  0  0  0  0
 28 30  1  0  0  0  0
 30 31  1  0  0  0  0
M  RAD  5   2   2   8   2   9   3  12   3  13   2
M  END
