Coordinates from ORCA-job 1f-Schema5-R6-D+-B3LYPG-6-31G_dp-scan-d49-09-n400
 OpenBabel08231810253D

 31 31  0  0  0  0  0  0  0  0999 V2000
   -3.6055   -0.7170   -3.1254 C   0  0  0  0  0  0  0  0  0  0  0  0
   -2.5478   -0.4083   -2.2653 C   0  0  0  0  0  0  0  0  0  0  0  0
   -2.8854    0.3305   -1.1278 C   0  0  0  0  0  0  0  0  0  0  0  0
   -4.1974    0.7508   -0.7652 C   0  0  0  0  0  0  0  0  0  0  0  0
   -5.2045    0.3937   -1.6497 C   0  0  0  0  0  0  0  0  0  0  0  0
   -4.9125   -0.3282   -2.8197 C   0  0  0  0  0  0  0  0  0  0  0  0
   -3.4198   -1.2671   -4.0435 H   0  0  0  0  0  0  0  0  0  0  0  0
   -1.7918    0.6639   -0.3358 N   0  0  0  0  0  0  0  0  0  0  0  0
   -0.8475    0.8890    0.2098 N   0  0  0  0  0  0  0  0  0  0  0  0
   -5.7234   -0.5845   -3.4958 H   0  0  0  0  0  0  0  0  0  0  0  0
   -6.2191    0.6941   -1.4127 H   0  0  0  0  0  0  0  0  0  0  0  0
   -0.3387   -0.3326   -2.6487 N   0  0  0  0  0  0  0  0  0  0  0  0
    0.0761   -1.1013   -3.4061 N   0  0  0  0  0  0  0  0  0  0  0  0
   -0.2832   -2.2841   -4.0824 C   0  0  0  0  0  0  0  0  0  0  0  0
    0.2004   -2.5199   -5.3834 C   0  0  0  0  0  0  0  0  0  0  0  0
   -1.0261   -3.2352   -3.3766 C   0  0  0  0  0  0  0  0  0  0  0  0
   -0.1040   -3.7437   -5.9809 C   0  0  0  0  0  0  0  0  0  0  0  0
   -1.3121   -4.4508   -3.9983 C   0  0  0  0  0  0  0  0  0  0  0  0
   -1.3503   -3.0232   -2.3647 H   0  0  0  0  0  0  0  0  0  0  0  0
   -0.8532   -4.7030   -5.2927 C   0  0  0  0  0  0  0  0  0  0  0  0
    0.2480   -3.9366   -6.9872 H   0  0  0  0  0  0  0  0  0  0  0  0
   -1.8831   -5.2031   -3.4640 H   0  0  0  0  0  0  0  0  0  0  0  0
   -1.0740   -5.6527   -5.7685 H   0  0  0  0  0  0  0  0  0  0  0  0
    0.9599   -1.4439   -6.0854 C   0  0  0  0  0  0  0  0  0  0  0  0
    1.0709   -0.3168   -5.6468 O   0  0  0  0  0  0  0  0  0  0  0  0
    1.4968   -1.8615   -7.2405 O   0  0  0  0  0  0  0  0  0  0  0  0
    1.9638   -1.1066   -7.6386 H   0  0  0  0  0  0  0  0  0  0  0  0
   -4.5777    1.5262    0.4596 C   0  0  0  0  0  0  0  0  0  0  0  0
   -5.7112    1.8544    0.7110 O   0  0  0  0  0  0  0  0  0  0  0  0
   -3.5135    1.8014    1.2435 O   0  0  0  0  0  0  0  0  0  0  0  0
   -3.8353    2.2990    2.0158 H   0  0  0  0  0  0  0  0  0  0  0  0
  1  6  2  0  0  0  0
  1  2  1  0  0  0  0
  2  3  2  0  0  0  0
  3  4  1  0  0  0  0
  3  8  1  0  0  0  0
  4 28  1  0  0  0  0
  5 11  1  0  0  0  0
  5  4  2  0  0  0  0
  6  5  1  0  0  0  0
  7  1  1  0  0  0  0
  8  9  1  0  0  0  0
 10  6  1  0  0  0  0
 13 12  2  0  0  0  0
 14 13  1  0  0  0  0
 14 16  2  0  0  0  0
 15 14  1  0  0  0  0
 16 19  1  0  0  0  0
 17 15  2  0  0  0  0
 17 20  1  0  0  0  0
 18 22  1  0  0  0  0
 18 16  1  0  0  0  0
 20 18  2  0  0  0  0
 21 17  1  0  0  0  0
 23 20  1  0  0  0  0
 24 25  2  0  0  0  0
 24 15  1  0  0  0  0
 26 24  1  0  0  0  0
 27 26  1  0  0  0  0
 28 29  2  0  0  0  0
 28 30  1  0  0  0  0
 30 31  1  0  0  0  0
M  RAD  4   2   2   8   2   9   3  12   2
M  END
