Coordinates from ORCA-job 1f-Schema5-R6-D+-B3LYPG-6-31G_dp-scan-d49-09-n400
 OpenBabel08231810253D

 31 32  0  0  0  0  0  0  0  0999 V2000
   -2.8516   -0.1097   -3.6184 C   0  0  0  0  0  0  0  0  0  0  0  0
   -2.0468   -0.1486   -2.4869 C   0  0  0  0  0  0  0  0  0  0  0  0
   -2.6018    0.2167   -1.2514 C   0  0  0  0  0  0  0  0  0  0  0  0
   -3.9783    0.5381   -1.0806 C   0  0  0  0  0  0  0  0  0  0  0  0
   -4.7607    0.5080   -2.2266 C   0  0  0  0  0  0  0  0  0  0  0  0
   -4.2062    0.1990   -3.4809 C   0  0  0  0  0  0  0  0  0  0  0  0
   -2.4115   -0.2993   -4.5926 H   0  0  0  0  0  0  0  0  0  0  0  0
   -1.7092    0.2650   -0.2010 N   0  0  0  0  0  0  0  0  0  0  0  0
   -0.9175    0.3156    0.5811 N   0  0  0  0  0  0  0  0  0  0  0  0
   -4.8450    0.2131   -4.3587 H   0  0  0  0  0  0  0  0  0  0  0  0
   -5.8127    0.7508   -2.1238 H   0  0  0  0  0  0  0  0  0  0  0  0
   -0.2995   -0.1012   -2.6071 N   0  0  0  0  0  0  0  0  0  0  0  0
    0.2354   -0.9326   -3.3053 N   0  0  0  0  0  0  0  0  0  0  0  0
   -0.3174   -2.1419   -3.8105 C   0  0  0  0  0  0  0  0  0  0  0  0
   -0.2102   -2.4592   -5.1798 C   0  0  0  0  0  0  0  0  0  0  0  0
   -0.7718   -3.0922   -2.8904 C   0  0  0  0  0  0  0  0  0  0  0  0
   -0.5703   -3.7391   -5.6066 C   0  0  0  0  0  0  0  0  0  0  0  0
   -1.1293   -4.3661   -3.3386 C   0  0  0  0  0  0  0  0  0  0  0  0
   -0.7850   -2.8549   -1.8320 H   0  0  0  0  0  0  0  0  0  0  0  0
   -1.0267   -4.6912   -4.6910 C   0  0  0  0  0  0  0  0  0  0  0  0
   -0.5022   -3.9772   -6.6623 H   0  0  0  0  0  0  0  0  0  0  0  0
   -1.4713   -5.1070   -2.6231 H   0  0  0  0  0  0  0  0  0  0  0  0
   -1.2986   -5.6834   -5.0347 H   0  0  0  0  0  0  0  0  0  0  0  0
    0.1558   -1.3746   -6.1289 C   0  0  0  0  0  0  0  0  0  0  0  0
    0.0352   -0.1938   -5.8543 O   0  0  0  0  0  0  0  0  0  0  0  0
    0.5968   -1.8281   -7.3106 O   0  0  0  0  0  0  0  0  0  0  0  0
    0.7847   -1.0550   -7.8706 H   0  0  0  0  0  0  0  0  0  0  0  0
   -4.6400    0.9059    0.2163 C   0  0  0  0  0  0  0  0  0  0  0  0
   -5.8131    1.1678    0.3028 O   0  0  0  0  0  0  0  0  0  0  0  0
   -3.7723    0.9031    1.2480 O   0  0  0  0  0  0  0  0  0  0  0  0
   -4.2597    1.1547    2.0528 H   0  0  0  0  0  0  0  0  0  0  0  0
  1  6  2  0  0  0  0
  1  2  1  0  0  0  0
  2  3  2  0  0  0  0
  3  4  1  0  0  0  0
  3  8  1  0  0  0  0
  4 28  1  0  0  0  0
  5 11  1  0  0  0  0
  5  4  2  0  0  0  0
  6  5  1  0  0  0  0
  7  1  1  0  0  0  0
  8  9  1  0  0  0  0
 10  6  1  0  0  0  0
 12  2  1  0  0  0  0
 13 12  1  0  0  0  0
 14 13  1  0  0  0  0
 14 16  2  0  0  0  0
 15 14  1  0  0  0  0
 16 19  1  0  0  0  0
 17 15  2  0  0  0  0
 17 20  1  0  0  0  0
 18 16  1  0  0  0  0
 18 22  1  0  0  0  0
 20 18  2  0  0  0  0
 21 17  1  0  0  0  0
 23 20  1  0  0  0  0
 24 25  2  0  0  0  0
 24 15  1  0  0  0  0
 26 24  1  0  0  0  0
 27 26  1  0  0  0  0
 28 29  2  0  0  0  0
 28 30  1  0  0  0  0
 30 31  1  0  0  0  0
M  RAD  4   8   2   9   3  12   2  13   2
M  END
