Coordinates from ORCA-job 1f-Schema5-R6-D+-B3LYPG-6-31G_dp-scan-d49-09-n400
 OpenBabel08231810253D

 31 31  0  0  0  0  0  0  0  0999 V2000
   -3.5470   -0.6810   -3.1768 C   0  0  0  0  0  0  0  0  0  0  0  0
   -2.5073   -0.3926   -2.2903 C   0  0  0  0  0  0  0  0  0  0  0  0
   -2.8596    0.3198   -1.1403 C   0  0  0  0  0  0  0  0  0  0  0  0
   -4.1781    0.7300   -0.7906 C   0  0  0  0  0  0  0  0  0  0  0  0
   -5.1700    0.3934   -1.7001 C   0  0  0  0  0  0  0  0  0  0  0  0
   -4.8590   -0.2996   -2.8825 C   0  0  0  0  0  0  0  0  0  0  0  0
   -3.3440   -1.2082   -4.1044 H   0  0  0  0  0  0  0  0  0  0  0  0
   -1.7797    0.6371   -0.3243 N   0  0  0  0  0  0  0  0  0  0  0  0
   -0.8458    0.8531    0.2420 N   0  0  0  0  0  0  0  0  0  0  0  0
   -5.6586   -0.5391   -3.5778 H   0  0  0  0  0  0  0  0  0  0  0  0
   -6.1885    0.6878   -1.4725 H   0  0  0  0  0  0  0  0  0  0  0  0
   -0.3434   -0.3126   -2.6392 N   0  0  0  0  0  0  0  0  0  0  0  0
    0.0912   -1.0844   -3.3886 N   0  0  0  0  0  0  0  0  0  0  0  0
   -0.2860   -2.2696   -4.0542 C   0  0  0  0  0  0  0  0  0  0  0  0
    0.1674   -2.5097   -5.3653 C   0  0  0  0  0  0  0  0  0  0  0  0
   -1.0075   -3.2220   -3.3294 C   0  0  0  0  0  0  0  0  0  0  0  0
   -0.1472   -3.7362   -5.9525 C   0  0  0  0  0  0  0  0  0  0  0  0
   -1.3045   -4.4407   -3.9402 C   0  0  0  0  0  0  0  0  0  0  0  0
   -1.3048   -3.0122   -2.3089 H   0  0  0  0  0  0  0  0  0  0  0  0
   -0.8769   -4.6958   -5.2445 C   0  0  0  0  0  0  0  0  0  0  0  0
    0.1816   -3.9304   -6.9663 H   0  0  0  0  0  0  0  0  0  0  0  0
   -1.8589   -5.1934   -3.3892 H   0  0  0  0  0  0  0  0  0  0  0  0
   -1.1060   -5.6476   -5.7120 H   0  0  0  0  0  0  0  0  0  0  0  0
    0.9047   -1.4336   -6.0898 C   0  0  0  0  0  0  0  0  0  0  0  0
    1.0118   -0.3008   -5.6650 O   0  0  0  0  0  0  0  0  0  0  0  0
    1.4253   -1.8566   -7.2509 O   0  0  0  0  0  0  0  0  0  0  0  0
    1.8772   -1.1003   -7.6637 H   0  0  0  0  0  0  0  0  0  0  0  0
   -4.5796    1.4758    0.4461 C   0  0  0  0  0  0  0  0  0  0  0  0
   -5.7173    1.7987    0.6845 O   0  0  0  0  0  0  0  0  0  0  0  0
   -3.5282    1.7359    1.2519 O   0  0  0  0  0  0  0  0  0  0  0  0
   -3.8620    2.2174    2.0293 H   0  0  0  0  0  0  0  0  0  0  0  0
  1  6  2  0  0  0  0
  1  2  1  0  0  0  0
  2  3  2  0  0  0  0
  3  4  1  0  0  0  0
  3  8  1  0  0  0  0
  4 28  1  0  0  0  0
  5 11  1  0  0  0  0
  5  4  2  0  0  0  0
  6  5  1  0  0  0  0
  7  1  1  0  0  0  0
  8  9  1  0  0  0  0
 10  6  1  0  0  0  0
 13 12  2  0  0  0  0
 14 13  1  0  0  0  0
 14 16  2  0  0  0  0
 15 14  1  0  0  0  0
 16 19  1  0  0  0  0
 17 15  2  0  0  0  0
 17 20  1  0  0  0  0
 18 22  1  0  0  0  0
 18 16  1  0  0  0  0
 20 18  2  0  0  0  0
 21 17  1  0  0  0  0
 23 20  1  0  0  0  0
 24 25  2  0  0  0  0
 24 15  1  0  0  0  0
 26 24  1  0  0  0  0
 27 26  1  0  0  0  0
 28 29  2  0  0  0  0
 28 30  1  0  0  0  0
 30 31  1  0  0  0  0
M  RAD  4   2   2   8   2   9   3  12   2
M  END
