Coordinates from ORCA-job 1f-Schema5-R6-D+-B3LYPG-6-31G_dp-scan-d49-09-n400
 OpenBabel08231810253D

 31 31  0  0  0  0  0  0  0  0999 V2000
   -4.2127   -0.5419   -3.0116 C   0  0  0  0  0  0  0  0  0  0  0  0
   -2.9961   -0.3307   -2.3304 C   0  0  0  0  0  0  0  0  0  0  0  0
   -3.1686    0.3161   -1.0966 C   0  0  0  0  0  0  0  0  0  0  0  0
   -4.3919    0.7413   -0.4942 C   0  0  0  0  0  0  0  0  0  0  0  0
   -5.5342    0.4781   -1.2315 C   0  0  0  0  0  0  0  0  0  0  0  0
   -5.4448   -0.1590   -2.4832 C   0  0  0  0  0  0  0  0  0  0  0  0
   -4.2024   -1.0208   -3.9889 H   0  0  0  0  0  0  0  0  0  0  0  0
   -1.9621    0.5442   -0.4463 N   0  0  0  0  0  0  0  0  0  0  0  0
   -0.9442    0.6844   -0.0127 N   0  0  0  0  0  0  0  0  0  0  0  0
   -6.3585   -0.3477   -3.0405 H   0  0  0  0  0  0  0  0  0  0  0  0
   -6.4899    0.7808   -0.8189 H   0  0  0  0  0  0  0  0  0  0  0  0
   -0.4674    0.1475   -3.5892 N   0  0  0  0  0  0  0  0  0  0  0  0
   -0.1537   -0.7758   -4.1545 N   0  0  0  0  0  0  0  0  0  0  0  0
   -0.2635   -2.1201   -4.5320 C   0  0  0  0  0  0  0  0  0  0  0  0
    0.5391   -2.6375   -5.5652 C   0  0  0  0  0  0  0  0  0  0  0  0
   -1.1880   -2.8765   -3.8082 C   0  0  0  0  0  0  0  0  0  0  0  0
    0.3825   -3.9870   -5.8725 C   0  0  0  0  0  0  0  0  0  0  0  0
   -1.3195   -4.2231   -4.1430 C   0  0  0  0  0  0  0  0  0  0  0  0
   -1.7766   -2.3845   -3.0337 H   0  0  0  0  0  0  0  0  0  0  0  0
   -0.5387   -4.7711   -5.1650 C   0  0  0  0  0  0  0  0  0  0  0  0
    0.9810   -4.4198   -6.6654 H   0  0  0  0  0  0  0  0  0  0  0  0
   -2.0290   -4.8425   -3.6042 H   0  0  0  0  0  0  0  0  0  0  0  0
   -0.6451   -5.8212   -5.4178 H   0  0  0  0  0  0  0  0  0  0  0  0
    1.4916   -1.7296   -6.2738 C   0  0  0  0  0  0  0  0  0  0  0  0
    1.5830   -0.5476   -6.0090 O   0  0  0  0  0  0  0  0  0  0  0  0
    2.2106   -2.3623   -7.2044 O   0  0  0  0  0  0  0  0  0  0  0  0
    2.8043   -1.7138   -7.6223 H   0  0  0  0  0  0  0  0  0  0  0  0
   -4.5521    1.4285    0.8246 C   0  0  0  0  0  0  0  0  0  0  0  0
   -5.6192    1.7655    1.2793 O   0  0  0  0  0  0  0  0  0  0  0  0
   -3.3710    1.6300    1.4519 O   0  0  0  0  0  0  0  0  0  0  0  0
   -3.5635    2.0785    2.2937 H   0  0  0  0  0  0  0  0  0  0  0  0
  1  6  2  0  0  0  0
  1  2  1  0  0  0  0
  2  3  2  0  0  0  0
  3  4  1  0  0  0  0
  3  8  1  0  0  0  0
  4 28  1  0  0  0  0
  5 11  1  0  0  0  0
  5  4  2  0  0  0  0
  6  5  1  0  0  0  0
  7  1  1  0  0  0  0
  8  9  1  0  0  0  0
 10  6  1  0  0  0  0
 13 12  2  0  0  0  0
 14 13  1  0  0  0  0
 14 16  2  0  0  0  0
 15 14  1  0  0  0  0
 16 19  1  0  0  0  0
 17 15  2  0  0  0  0
 17 20  1  0  0  0  0
 18 16  1  0  0  0  0
 18 22  1  0  0  0  0
 20 18  2  0  0  0  0
 21 17  1  0  0  0  0
 23 20  1  0  0  0  0
 24 25  2  0  0  0  0
 24 15  1  0  0  0  0
 26 24  1  0  0  0  0
 27 26  1  0  0  0  0
 28 29  2  0  0  0  0
 28 30  1  0  0  0  0
 30 31  1  0  0  0  0
M  RAD  4   2   2   8   2   9   3  12   2
M  END
