Coordinates from ORCA-job 1f-Schema5-R6-D+-B3LYPG-6-31G_dp-scan-d49-09-n400
 OpenBabel08231810253D

 31 31  0  0  0  0  0  0  0  0999 V2000
   -4.4824   -0.3630   -3.0681 C   0  0  0  0  0  0  0  0  0  0  0  0
   -3.2672   -0.5693   -2.3630 C   0  0  0  0  0  0  0  0  0  0  0  0
   -3.3592   -0.0700   -1.0503 C   0  0  0  0  0  0  0  0  0  0  0  0
   -4.4606    0.5754   -0.4054 C   0  0  0  0  0  0  0  0  0  0  0  0
   -5.5902    0.7275   -1.1897 C   0  0  0  0  0  0  0  0  0  0  0  0
   -5.5997    0.2584   -2.5181 C   0  0  0  0  0  0  0  0  0  0  0  0
   -4.5557   -0.7093   -4.0988 H   0  0  0  0  0  0  0  0  0  0  0  0
   -2.1788   -0.2734   -0.3445 N   0  0  0  0  0  0  0  0  0  0  0  0
   -1.1892   -0.4892    0.1251 N   0  0  0  0  0  0  0  0  0  0  0  0
   -6.5012    0.3901   -3.1115 H   0  0  0  0  0  0  0  0  0  0  0  0
   -6.4571    1.2115   -0.7538 H   0  0  0  0  0  0  0  0  0  0  0  0
   -0.5001    0.6530   -5.0827 N   0  0  0  0  0  0  0  0  0  0  0  0
   -0.3254   -0.4470   -5.0776 N   0  0  0  0  0  0  0  0  0  0  0  0
   -0.2758   -1.8267   -4.9072 C   0  0  0  0  0  0  0  0  0  0  0  0
    0.6415   -2.6066   -5.6527 C   0  0  0  0  0  0  0  0  0  0  0  0
   -1.1844   -2.3409   -3.9722 C   0  0  0  0  0  0  0  0  0  0  0  0
    0.6217   -3.9762   -5.4278 C   0  0  0  0  0  0  0  0  0  0  0  0
   -1.1618   -3.7241   -3.7829 C   0  0  0  0  0  0  0  0  0  0  0  0
   -1.8818   -1.6698   -3.4033 H   0  0  0  0  0  0  0  0  0  0  0  0
   -0.2756   -4.5302   -4.4990 C   0  0  0  0  0  0  0  0  0  0  0  0
    1.3079   -4.6088   -5.9788 H   0  0  0  0  0  0  0  0  0  0  0  0
   -1.8496   -4.1658   -3.0684 H   0  0  0  0  0  0  0  0  0  0  0  0
   -0.2740   -5.6044   -4.3403 H   0  0  0  0  0  0  0  0  0  0  0  0
    1.5599   -1.9311   -6.6162 C   0  0  0  0  0  0  0  0  0  0  0  0
    1.5456   -0.7263   -6.7757 O   0  0  0  0  0  0  0  0  0  0  0  0
    2.3640   -2.7826   -7.2521 O   0  0  0  0  0  0  0  0  0  0  0  0
    2.9313   -2.2752   -7.8594 H   0  0  0  0  0  0  0  0  0  0  0  0
   -4.5089    1.0888    0.9963 C   0  0  0  0  0  0  0  0  0  0  0  0
   -5.4746    1.6265    1.4857 O   0  0  0  0  0  0  0  0  0  0  0  0
   -3.3491    0.8886    1.6664 O   0  0  0  0  0  0  0  0  0  0  0  0
   -3.4703    1.2529    2.5602 H   0  0  0  0  0  0  0  0  0  0  0  0
  1  6  2  0  0  0  0
  1  2  1  0  0  0  0
  2  3  2  0  0  0  0
  3  4  1  0  0  0  0
  3  8  1  0  0  0  0
  4 28  1  0  0  0  0
  5 11  1  0  0  0  0
  5  4  2  0  0  0  0
  6  5  1  0  0  0  0
  7  1  1  0  0  0  0
  8  9  1  0  0  0  0
 10  6  1  0  0  0  0
 12 13  1  0  0  0  0
 13 14  1  0  0  0  0
 14 16  2  0  0  0  0
 15 17  2  0  0  0  0
 15 14  1  0  0  0  0
 16 18  1  0  0  0  0
 16 19  1  0  0  0  0
 17 20  1  0  0  0  0
 18 22  1  0  0  0  0
 20 23  1  0  0  0  0
 20 18  2  0  0  0  0
 21 17  1  0  0  0  0
 24 15  1  0  0  0  0
 25 24  2  0  0  0  0
 26 24  1  0  0  0  0
 27 26  1  0  0  0  0
 28 29  2  0  0  0  0
 28 30  1  0  0  0  0
 30 31  1  0  0  0  0
M  RAD  5   2   2   8   2   9   3  12   3  13   2
M  END
