Coordinates from ORCA-job 1f-Schema5-R6-D+-B3LYPG-6-31G_dp-scan-d49-09-n400
 OpenBabel08231810253D

 31 31  0  0  0  0  0  0  0  0999 V2000
   -4.4742   -0.3958   -3.0433 C   0  0  0  0  0  0  0  0  0  0  0  0
   -3.2519   -0.5571   -2.3387 C   0  0  0  0  0  0  0  0  0  0  0  0
   -3.3597   -0.0556   -1.0282 C   0  0  0  0  0  0  0  0  0  0  0  0
   -4.4821    0.5541   -0.3846 C   0  0  0  0  0  0  0  0  0  0  0  0
   -5.6174    0.6627   -1.1679 C   0  0  0  0  0  0  0  0  0  0  0  0
   -5.6121    0.1879   -2.4944 C   0  0  0  0  0  0  0  0  0  0  0  0
   -4.5359   -0.7476   -4.0730 H   0  0  0  0  0  0  0  0  0  0  0  0
   -2.1718   -0.2143   -0.3235 N   0  0  0  0  0  0  0  0  0  0  0  0
   -1.1744   -0.3931    0.1452 N   0  0  0  0  0  0  0  0  0  0  0  0
   -6.5185    0.2852   -3.0869 H   0  0  0  0  0  0  0  0  0  0  0  0
   -6.5001    1.1180   -0.7330 H   0  0  0  0  0  0  0  0  0  0  0  0
   -0.3270    0.6988   -5.1067 N   0  0  0  0  0  0  0  0  0  0  0  0
   -0.2126   -0.4088   -5.0912 N   0  0  0  0  0  0  0  0  0  0  0  0
   -0.2249   -1.7889   -4.9212 C   0  0  0  0  0  0  0  0  0  0  0  0
    0.6536   -2.6076   -5.6734 C   0  0  0  0  0  0  0  0  0  0  0  0
   -1.1494   -2.2665   -3.9821 C   0  0  0  0  0  0  0  0  0  0  0  0
    0.5759   -3.9755   -5.4507 C   0  0  0  0  0  0  0  0  0  0  0  0
   -1.1855   -3.6499   -3.7966 C   0  0  0  0  0  0  0  0  0  0  0  0
   -1.8252   -1.5814   -3.4033 H   0  0  0  0  0  0  0  0  0  0  0  0
   -0.3391   -4.4925   -4.5182 C   0  0  0  0  0  0  0  0  0  0  0  0
    1.2313   -4.6355   -6.0071 H   0  0  0  0  0  0  0  0  0  0  0  0
   -1.8890   -4.0611   -3.0791 H   0  0  0  0  0  0  0  0  0  0  0  0
   -0.3831   -5.5661   -4.3613 H   0  0  0  0  0  0  0  0  0  0  0  0
    1.5961   -1.9743   -6.6428 C   0  0  0  0  0  0  0  0  0  0  0  0
    1.6357   -0.7705   -6.8041 O   0  0  0  0  0  0  0  0  0  0  0  0
    2.3587   -2.8618   -7.2807 O   0  0  0  0  0  0  0  0  0  0  0  0
    2.9450   -2.3807   -7.8914 H   0  0  0  0  0  0  0  0  0  0  0  0
   -4.5463    1.0728    1.0144 C   0  0  0  0  0  0  0  0  0  0  0  0
   -5.5294    1.5792    1.5027 O   0  0  0  0  0  0  0  0  0  0  0  0
   -3.3777    0.9212    1.6822 O   0  0  0  0  0  0  0  0  0  0  0  0
   -3.5100    1.2872    2.5737 H   0  0  0  0  0  0  0  0  0  0  0  0
  1  6  2  0  0  0  0
  1  2  1  0  0  0  0
  2  3  2  0  0  0  0
  3  4  1  0  0  0  0
  3  8  1  0  0  0  0
  4 28  1  0  0  0  0
  5 11  1  0  0  0  0
  5  4  2  0  0  0  0
  6  5  1  0  0  0  0
  7  1  1  0  0  0  0
  8  9  1  0  0  0  0
 10  6  1  0  0  0  0
 12 13  1  0  0  0  0
 13 14  1  0  0  0  0
 14 16  2  0  0  0  0
 15 17  2  0  0  0  0
 15 14  1  0  0  0  0
 16 18  1  0  0  0  0
 16 19  1  0  0  0  0
 17 20  1  0  0  0  0
 18 22  1  0  0  0  0
 20 23  1  0  0  0  0
 20 18  2  0  0  0  0
 21 17  1  0  0  0  0
 24 15  1  0  0  0  0
 25 24  2  0  0  0  0
 26 24  1  0  0  0  0
 27 26  1  0  0  0  0
 28 29  2  0  0  0  0
 28 30  1  0  0  0  0
 30 31  1  0  0  0  0
M  RAD  5   2   2   8   2   9   3  12   3  13   2
M  END
