Coordinates from ORCA-job 1f-Schema5-R6-D+-B3LYPG-6-31G_dp-scan-d49-09-n400
 OpenBabel08231810253D

 31 31  0  0  0  0  0  0  0  0999 V2000
   -4.4750   -0.5155   -2.9717 C   0  0  0  0  0  0  0  0  0  0  0  0
   -3.2265   -0.5258   -2.2951 C   0  0  0  0  0  0  0  0  0  0  0  0
   -3.3586   -0.0069   -0.9937 C   0  0  0  0  0  0  0  0  0  0  0  0
   -4.5256    0.4924   -0.3346 C   0  0  0  0  0  0  0  0  0  0  0  0
   -5.6844    0.4539   -1.0894 C   0  0  0  0  0  0  0  0  0  0  0  0
   -5.6577   -0.0499   -2.4050 C   0  0  0  0  0  0  0  0  0  0  0  0
   -4.5205   -0.8923   -3.9933 H   0  0  0  0  0  0  0  0  0  0  0  0
   -2.1435   -0.0165   -0.3179 N   0  0  0  0  0  0  0  0  0  0  0  0
   -1.1210   -0.0722    0.1270 N   0  0  0  0  0  0  0  0  0  0  0  0
   -6.5834   -0.0682   -2.9751 H   0  0  0  0  0  0  0  0  0  0  0  0
   -6.6014    0.8205   -0.6421 H   0  0  0  0  0  0  0  0  0  0  0  0
    0.1597    0.7888   -5.1325 N   0  0  0  0  0  0  0  0  0  0  0  0
    0.1080   -0.3234   -5.1107 N   0  0  0  0  0  0  0  0  0  0  0  0
   -0.0893   -1.6902   -4.9571 C   0  0  0  0  0  0  0  0  0  0  0  0
    0.6880   -2.6062   -5.7114 C   0  0  0  0  0  0  0  0  0  0  0  0
   -1.0796   -2.0640   -4.0368 C   0  0  0  0  0  0  0  0  0  0  0  0
    0.4346   -3.9563   -5.5118 C   0  0  0  0  0  0  0  0  0  0  0  0
   -1.2929   -3.4342   -3.8757 C   0  0  0  0  0  0  0  0  0  0  0  0
   -1.6967   -1.3418   -3.4423 H   0  0  0  0  0  0  0  0  0  0  0  0
   -0.5512   -4.3678   -4.5994 C   0  0  0  0  0  0  0  0  0  0  0  0
    1.0093   -4.6850   -6.0714 H   0  0  0  0  0  0  0  0  0  0  0  0
   -2.0547   -3.7564   -3.1722 H   0  0  0  0  0  0  0  0  0  0  0  0
   -0.7334   -5.4291   -4.4610 H   0  0  0  0  0  0  0  0  0  0  0  0
    1.7180   -2.0901   -6.6621 C   0  0  0  0  0  0  0  0  0  0  0  0
    1.9167   -0.9005   -6.8094 O   0  0  0  0  0  0  0  0  0  0  0  0
    2.3696   -3.0629   -7.2987 O   0  0  0  0  0  0  0  0  0  0  0  0
    3.0221   -2.6551   -7.8955 H   0  0  0  0  0  0  0  0  0  0  0  0
   -4.6127    1.0385    1.0526 C   0  0  0  0  0  0  0  0  0  0  0  0
   -5.6343    1.4432    1.5567 O   0  0  0  0  0  0  0  0  0  0  0  0
   -3.4171    1.0413    1.6892 O   0  0  0  0  0  0  0  0  0  0  0  0
   -3.5675    1.4144    2.5749 H   0  0  0  0  0  0  0  0  0  0  0  0
  1  6  2  0  0  0  0
  1  2  1  0  0  0  0
  2  3  2  0  0  0  0
  3  4  1  0  0  0  0
  3  8  1  0  0  0  0
  4 28  1  0  0  0  0
  5 11  1  0  0  0  0
  5  4  2  0  0  0  0
  6  5  1  0  0  0  0
  7  1  1  0  0  0  0
  8  9  1  0  0  0  0
 10  6  1  0  0  0  0
 12 13  1  0  0  0  0
 13 14  1  0  0  0  0
 14 16  2  0  0  0  0
 15 17  2  0  0  0  0
 15 14  1  0  0  0  0
 16 18  1  0  0  0  0
 16 19  1  0  0  0  0
 17 20  1  0  0  0  0
 18 22  1  0  0  0  0
 20 23  1  0  0  0  0
 20 18  2  0  0  0  0
 21 17  1  0  0  0  0
 24 15  1  0  0  0  0
 25 24  2  0  0  0  0
 26 24  1  0  0  0  0
 27 26  1  0  0  0  0
 28 29  2  0  0  0  0
 28 30  1  0  0  0  0
 30 31  1  0  0  0  0
M  RAD  5   2   2   8   2   9   3  12   3  13   2
M  END
