Coordinates from ORCA-job 1f-Schema5-R6-D+-B3LYPG-6-31G_dp-scan-d49-09-n400
 OpenBabel08231810253D

 31 31  0  0  0  0  0  0  0  0999 V2000
   -4.4743   -0.5154   -2.9715 C   0  0  0  0  0  0  0  0  0  0  0  0
   -3.2258   -0.5240   -2.2949 C   0  0  0  0  0  0  0  0  0  0  0  0
   -3.3587   -0.0055   -0.9935 C   0  0  0  0  0  0  0  0  0  0  0  0
   -4.5264    0.4920   -0.3343 C   0  0  0  0  0  0  0  0  0  0  0  0
   -5.6852    0.4520   -1.0892 C   0  0  0  0  0  0  0  0  0  0  0  0
   -5.6577   -0.0515   -2.4048 C   0  0  0  0  0  0  0  0  0  0  0  0
   -4.5192   -0.8921   -3.9932 H   0  0  0  0  0  0  0  0  0  0  0  0
   -2.1436   -0.0135   -0.3175 N   0  0  0  0  0  0  0  0  0  0  0  0
   -1.1211   -0.0679    0.1273 N   0  0  0  0  0  0  0  0  0  0  0  0
   -6.5833   -0.0711   -2.9749 H   0  0  0  0  0  0  0  0  0  0  0  0
   -6.6027    0.8172   -0.6418 H   0  0  0  0  0  0  0  0  0  0  0  0
    0.1690    0.7900   -5.1387 N   0  0  0  0  0  0  0  0  0  0  0  0
    0.1139   -0.3221   -5.1141 N   0  0  0  0  0  0  0  0  0  0  0  0
   -0.0867   -1.6883   -4.9580 C   0  0  0  0  0  0  0  0  0  0  0  0
    0.6889   -2.6065   -5.7113 C   0  0  0  0  0  0  0  0  0  0  0  0
   -1.0778   -2.0597   -4.0370 C   0  0  0  0  0  0  0  0  0  0  0  0
    0.4335   -3.9559   -5.5102 C   0  0  0  0  0  0  0  0  0  0  0  0
   -1.2930   -3.4295   -3.8746 C   0  0  0  0  0  0  0  0  0  0  0  0
   -1.6945   -1.3369   -3.4426 H   0  0  0  0  0  0  0  0  0  0  0  0
   -0.5528   -4.3649   -4.5974 C   0  0  0  0  0  0  0  0  0  0  0  0
    1.0070   -4.6860   -6.0691 H   0  0  0  0  0  0  0  0  0  0  0  0
   -2.0553   -3.7499   -3.1708 H   0  0  0  0  0  0  0  0  0  0  0  0
   -0.7366   -5.4258   -4.4580 H   0  0  0  0  0  0  0  0  0  0  0  0
    1.7198   -2.0929   -6.6623 C   0  0  0  0  0  0  0  0  0  0  0  0
    1.9180   -0.9036   -6.8130 O   0  0  0  0  0  0  0  0  0  0  0  0
    2.3675   -3.0671   -7.3007 O   0  0  0  0  0  0  0  0  0  0  0  0
    3.0187   -2.6608   -7.8999 H   0  0  0  0  0  0  0  0  0  0  0  0
   -4.6143    1.0380    1.0529 C   0  0  0  0  0  0  0  0  0  0  0  0
   -5.6371    1.4378    1.5583 O   0  0  0  0  0  0  0  0  0  0  0  0
   -3.4196    1.0383    1.6912 O   0  0  0  0  0  0  0  0  0  0  0  0
   -3.5711    1.4083    2.5780 H   0  0  0  0  0  0  0  0  0  0  0  0
  1  6  2  0  0  0  0
  1  2  1  0  0  0  0
  2  3  2  0  0  0  0
  3  4  1  0  0  0  0
  3  8  1  0  0  0  0
  4 28  1  0  0  0  0
  5 11  1  0  0  0  0
  5  4  2  0  0  0  0
  6  5  1  0  0  0  0
  7  1  1  0  0  0  0
  8  9  1  0  0  0  0
 10  6  1  0  0  0  0
 12 13  1  0  0  0  0
 13 14  1  0  0  0  0
 14 16  2  0  0  0  0
 15 17  2  0  0  0  0
 15 14  1  0  0  0  0
 16 18  1  0  0  0  0
 16 19  1  0  0  0  0
 17 20  1  0  0  0  0
 18 22  1  0  0  0  0
 20 23  1  0  0  0  0
 20 18  2  0  0  0  0
 21 17  1  0  0  0  0
 24 15  1  0  0  0  0
 25 24  2  0  0  0  0
 26 24  1  0  0  0  0
 27 26  1  0  0  0  0
 28 29  2  0  0  0  0
 28 30  1  0  0  0  0
 30 31  1  0  0  0  0
M  RAD  5   2   2   8   2   9   3  12   3  13   2
M  END
