Coordinates from ORCA-job 1f-Schema5-R6-D+-B3LYPG-6-31G_dp-scan-d49-09-n400
 OpenBabel08231810253D

 31 32  0  0  0  0  0  0  0  0999 V2000
   -2.7554   -0.0373   -3.6565 C   0  0  0  0  0  0  0  0  0  0  0  0
   -1.9473   -0.0828   -2.5165 C   0  0  0  0  0  0  0  0  0  0  0  0
   -2.5325    0.2375   -1.2666 C   0  0  0  0  0  0  0  0  0  0  0  0
   -3.9222    0.5073   -1.1125 C   0  0  0  0  0  0  0  0  0  0  0  0
   -4.6914    0.4866   -2.2655 C   0  0  0  0  0  0  0  0  0  0  0  0
   -4.1135    0.2322   -3.5228 C   0  0  0  0  0  0  0  0  0  0  0  0
   -2.2915   -0.1815   -4.6273 H   0  0  0  0  0  0  0  0  0  0  0  0
   -1.6600    0.2936   -0.2106 N   0  0  0  0  0  0  0  0  0  0  0  0
   -0.8842    0.3619    0.5883 N   0  0  0  0  0  0  0  0  0  0  0  0
   -4.7422    0.2538   -4.4073 H   0  0  0  0  0  0  0  0  0  0  0  0
   -5.7512    0.6946   -2.1669 H   0  0  0  0  0  0  0  0  0  0  0  0
   -0.4579   -0.0896   -2.5943 N   0  0  0  0  0  0  0  0  0  0  0  0
    0.1545   -0.8958   -3.3067 N   0  0  0  0  0  0  0  0  0  0  0  0
   -0.4013   -2.1141   -3.7933 C   0  0  0  0  0  0  0  0  0  0  0  0
   -0.2678   -2.4567   -5.1563 C   0  0  0  0  0  0  0  0  0  0  0  0
   -0.8465   -3.0668   -2.8680 C   0  0  0  0  0  0  0  0  0  0  0  0
   -0.5850   -3.7514   -5.5696 C   0  0  0  0  0  0  0  0  0  0  0  0
   -1.1595   -4.3576   -3.3001 C   0  0  0  0  0  0  0  0  0  0  0  0
   -0.8775   -2.8192   -1.8119 H   0  0  0  0  0  0  0  0  0  0  0  0
   -1.0273   -4.7023   -4.6453 C   0  0  0  0  0  0  0  0  0  0  0  0
   -0.4982   -4.0027   -6.6210 H   0  0  0  0  0  0  0  0  0  0  0  0
   -1.4910   -5.0965   -2.5776 H   0  0  0  0  0  0  0  0  0  0  0  0
   -1.2670   -5.7069   -4.9766 H   0  0  0  0  0  0  0  0  0  0  0  0
    0.0723   -1.3725   -6.1122 C   0  0  0  0  0  0  0  0  0  0  0  0
   -0.0993   -0.1927   -5.8521 O   0  0  0  0  0  0  0  0  0  0  0  0
    0.5532   -1.8166   -7.2805 O   0  0  0  0  0  0  0  0  0  0  0  0
    0.7203   -1.0419   -7.8449 H   0  0  0  0  0  0  0  0  0  0  0  0
   -4.6118    0.8182    0.1855 C   0  0  0  0  0  0  0  0  0  0  0  0
   -5.7938    1.0401    0.2607 O   0  0  0  0  0  0  0  0  0  0  0  0
   -3.7597    0.8140    1.2293 O   0  0  0  0  0  0  0  0  0  0  0  0
   -4.2661    1.0278    2.0333 H   0  0  0  0  0  0  0  0  0  0  0  0
  1  6  2  0  0  0  0
  1  2  1  0  0  0  0
  2  3  2  0  0  0  0
  3  4  1  0  0  0  0
  3  8  1  0  0  0  0
  4 28  1  0  0  0  0
  5 11  1  0  0  0  0
  5  4  2  0  0  0  0
  6  5  1  0  0  0  0
  7  1  1  0  0  0  0
  8  9  1  0  0  0  0
 10  6  1  0  0  0  0
 12  2  1  0  0  0  0
 13 12  1  0  0  0  0
 14 13  1  0  0  0  0
 14 16  2  0  0  0  0
 15 14  1  0  0  0  0
 16 19  1  0  0  0  0
 17 15  2  0  0  0  0
 17 20  1  0  0  0  0
 18 16  1  0  0  0  0
 18 22  1  0  0  0  0
 20 18  2  0  0  0  0
 21 17  1  0  0  0  0
 23 20  1  0  0  0  0
 24 25  2  0  0  0  0
 24 15  1  0  0  0  0
 26 24  1  0  0  0  0
 27 26  1  0  0  0  0
 28 29  2  0  0  0  0
 28 30  1  0  0  0  0
 30 31  1  0  0  0  0
M  RAD  4   8   2   9   3  12   2  13   2
M  END
