Coordinates from ORCA-job 1f-Schema5-R6-D+-B3LYPG-6-31G_dp-scan-d49-09-n400
 OpenBabel08231810253D

 31 31  0  0  0  0  0  0  0  0999 V2000
   -3.8445   -0.7120   -3.0263 C   0  0  0  0  0  0  0  0  0  0  0  0
   -2.7200   -0.3862   -2.2537 C   0  0  0  0  0  0  0  0  0  0  0  0
   -2.9989    0.3612   -1.1047 C   0  0  0  0  0  0  0  0  0  0  0  0
   -4.2844    0.7806   -0.6524 C   0  0  0  0  0  0  0  0  0  0  0  0
   -5.3476    0.4054   -1.4586 C   0  0  0  0  0  0  0  0  0  0  0  0
   -5.1302   -0.3312   -2.6368 C   0  0  0  0  0  0  0  0  0  0  0  0
   -3.7246   -1.2736   -3.9496 H   0  0  0  0  0  0  0  0  0  0  0  0
   -1.8557    0.7061   -0.3905 N   0  0  0  0  0  0  0  0  0  0  0  0
   -0.8778    0.9357    0.0915 N   0  0  0  0  0  0  0  0  0  0  0  0
   -5.9846   -0.6034   -3.2504 H   0  0  0  0  0  0  0  0  0  0  0  0
   -6.3458    0.7012   -1.1556 H   0  0  0  0  0  0  0  0  0  0  0  0
   -0.3348   -0.2482   -2.8557 N   0  0  0  0  0  0  0  0  0  0  0  0
    0.0202   -1.0492   -3.5888 N   0  0  0  0  0  0  0  0  0  0  0  0
   -0.2602   -2.2689   -4.2248 C   0  0  0  0  0  0  0  0  0  0  0  0
    0.3441   -2.5726   -5.4591 C   0  0  0  0  0  0  0  0  0  0  0  0
   -1.0881   -3.1655   -3.5433 C   0  0  0  0  0  0  0  0  0  0  0  0
    0.0781   -3.8222   -6.0180 C   0  0  0  0  0  0  0  0  0  0  0  0
   -1.3333   -4.4074   -4.1273 C   0  0  0  0  0  0  0  0  0  0  0  0
   -1.5157   -2.8795   -2.5892 H   0  0  0  0  0  0  0  0  0  0  0  0
   -0.7523   -4.7328   -5.3553 C   0  0  0  0  0  0  0  0  0  0  0  0
    0.5222   -4.0750   -6.9732 H   0  0  0  0  0  0  0  0  0  0  0  0
   -1.9707   -5.1220   -3.6171 H   0  0  0  0  0  0  0  0  0  0  0  0
   -0.9428   -5.7034   -5.8010 H   0  0  0  0  0  0  0  0  0  0  0  0
    1.1969   -1.5453   -6.1291 C   0  0  0  0  0  0  0  0  0  0  0  0
    1.3221   -0.4140   -5.7058 O   0  0  0  0  0  0  0  0  0  0  0  0
    1.7939   -2.0128   -7.2322 O   0  0  0  0  0  0  0  0  0  0  0  0
    2.3211   -1.2898   -7.6148 H   0  0  0  0  0  0  0  0  0  0  0  0
   -4.5827    1.5692    0.5848 C   0  0  0  0  0  0  0  0  0  0  0  0
   -5.6971    1.8954    0.9146 O   0  0  0  0  0  0  0  0  0  0  0  0
   -3.4672    1.8681    1.2861 O   0  0  0  0  0  0  0  0  0  0  0  0
   -3.7407    2.3749    2.0706 H   0  0  0  0  0  0  0  0  0  0  0  0
  1  6  2  0  0  0  0
  1  2  1  0  0  0  0
  2  3  2  0  0  0  0
  3  4  1  0  0  0  0
  3  8  1  0  0  0  0
  4 28  1  0  0  0  0
  5 11  1  0  0  0  0
  5  4  2  0  0  0  0
  6  5  1  0  0  0  0
  7  1  1  0  0  0  0
  8  9  1  0  0  0  0
 10  6  1  0  0  0  0
 13 12  2  0  0  0  0
 14 13  1  0  0  0  0
 14 16  2  0  0  0  0
 15 14  1  0  0  0  0
 16 19  1  0  0  0  0
 17 15  2  0  0  0  0
 17 20  1  0  0  0  0
 18 22  1  0  0  0  0
 18 16  1  0  0  0  0
 20 18  2  0  0  0  0
 21 17  1  0  0  0  0
 23 20  1  0  0  0  0
 24 25  2  0  0  0  0
 24 15  1  0  0  0  0
 26 24  1  0  0  0  0
 27 26  1  0  0  0  0
 28 29  2  0  0  0  0
 28 30  1  0  0  0  0
 30 31  1  0  0  0  0
M  RAD  4   2   2   8   2   9   3  12   2
M  END
