Coordinates from ORCA-job 1f-Schema5-R6-D+-B3LYPG-6-31G_dp-scan-d49-09-n400
 OpenBabel08231810253D

 31 31  0  0  0  0  0  0  0  0999 V2000
   -4.4738   -0.4420   -3.0149 C   0  0  0  0  0  0  0  0  0  0  0  0
   -3.2399   -0.5446   -2.3195 C   0  0  0  0  0  0  0  0  0  0  0  0
   -3.3580   -0.0353   -1.0129 C   0  0  0  0  0  0  0  0  0  0  0  0
   -4.4998    0.5324   -0.3651 C   0  0  0  0  0  0  0  0  0  0  0  0
   -5.6457    0.5835   -1.1388 C   0  0  0  0  0  0  0  0  0  0  0  0
   -5.6312    0.0965   -2.4609 C   0  0  0  0  0  0  0  0  0  0  0  0
   -4.5284   -0.8044   -4.0413 H   0  0  0  0  0  0  0  0  0  0  0  0
   -2.1581   -0.1360   -0.3178 N   0  0  0  0  0  0  0  0  0  0  0  0
   -1.1497   -0.2670    0.1431 N   0  0  0  0  0  0  0  0  0  0  0  0
   -6.5462    0.1488   -3.0459 H   0  0  0  0  0  0  0  0  0  0  0  0
   -6.5432    1.0049   -0.7004 H   0  0  0  0  0  0  0  0  0  0  0  0
   -0.1368    0.7394   -5.1136 N   0  0  0  0  0  0  0  0  0  0  0  0
   -0.0882   -0.3729   -5.0951 N   0  0  0  0  0  0  0  0  0  0  0  0
   -0.1722   -1.7509   -4.9333 C   0  0  0  0  0  0  0  0  0  0  0  0
    0.6673   -2.6075   -5.6889 C   0  0  0  0  0  0  0  0  0  0  0  0
   -1.1220   -2.1909   -4.0006 C   0  0  0  0  0  0  0  0  0  0  0  0
    0.5217   -3.9716   -5.4772 C   0  0  0  0  0  0  0  0  0  0  0  0
   -1.2268   -3.5723   -3.8268 C   0  0  0  0  0  0  0  0  0  0  0  0
   -1.7752   -1.4920   -3.4133 H   0  0  0  0  0  0  0  0  0  0  0  0
   -0.4208   -4.4506   -4.5518 C   0  0  0  0  0  0  0  0  0  0  0  0
    1.1459   -4.6583   -6.0370 H   0  0  0  0  0  0  0  0  0  0  0  0
   -1.9532   -3.9516   -3.1146 H   0  0  0  0  0  0  0  0  0  0  0  0
   -0.5184   -5.5218   -4.4036 H   0  0  0  0  0  0  0  0  0  0  0  0
    1.6440   -2.0169   -6.6517 C   0  0  0  0  0  0  0  0  0  0  0  0
    1.7444   -0.8159   -6.8073 O   0  0  0  0  0  0  0  0  0  0  0  0
    2.3634   -2.9382   -7.2919 O   0  0  0  0  0  0  0  0  0  0  0  0
    2.9747   -2.4836   -7.8983 H   0  0  0  0  0  0  0  0  0  0  0  0
   -4.5737    1.0630    1.0289 C   0  0  0  0  0  0  0  0  0  0  0  0
   -5.5745    1.5273    1.5230 O   0  0  0  0  0  0  0  0  0  0  0  0
   -3.3929    0.9716    1.6863 O   0  0  0  0  0  0  0  0  0  0  0  0
   -3.5334    1.3395    2.5758 H   0  0  0  0  0  0  0  0  0  0  0  0
  1  6  2  0  0  0  0
  1  2  1  0  0  0  0
  2  3  2  0  0  0  0
  3  4  1  0  0  0  0
  3  8  1  0  0  0  0
  4 28  1  0  0  0  0
  5 11  1  0  0  0  0
  5  4  2  0  0  0  0
  6  5  1  0  0  0  0
  7  1  1  0  0  0  0
  8  9  1  0  0  0  0
 10  6  1  0  0  0  0
 12 13  1  0  0  0  0
 13 14  1  0  0  0  0
 14 16  2  0  0  0  0
 15 17  2  0  0  0  0
 15 14  1  0  0  0  0
 16 18  1  0  0  0  0
 16 19  1  0  0  0  0
 17 20  1  0  0  0  0
 18 22  1  0  0  0  0
 20 23  1  0  0  0  0
 20 18  2  0  0  0  0
 21 17  1  0  0  0  0
 24 15  1  0  0  0  0
 25 24  2  0  0  0  0
 26 24  1  0  0  0  0
 27 26  1  0  0  0  0
 28 29  2  0  0  0  0
 28 30  1  0  0  0  0
 30 31  1  0  0  0  0
M  RAD  5   2   2   8   2   9   3  12   3  13   2
M  END
