Coordinates from ORCA-job 1f-Schema5-R6-D+-B3LYPG-6-31G_dp-scan-d49-09-n400
 OpenBabel08231810253D

 31 32  0  0  0  0  0  0  0  0999 V2000
   -2.7658   -0.0184   -3.6542 C   0  0  0  0  0  0  0  0  0  0  0  0
   -1.9379   -0.0658   -2.5184 C   0  0  0  0  0  0  0  0  0  0  0  0
   -2.5273    0.2520   -1.2599 C   0  0  0  0  0  0  0  0  0  0  0  0
   -3.9187    0.5173   -1.1027 C   0  0  0  0  0  0  0  0  0  0  0  0
   -4.6927    0.5022   -2.2502 C   0  0  0  0  0  0  0  0  0  0  0  0
   -4.1187    0.2535   -3.5123 C   0  0  0  0  0  0  0  0  0  0  0  0
   -2.3082   -0.1602   -4.6281 H   0  0  0  0  0  0  0  0  0  0  0  0
   -1.6548    0.3089   -0.2101 N   0  0  0  0  0  0  0  0  0  0  0  0
   -0.8713    0.3799    0.5829 N   0  0  0  0  0  0  0  0  0  0  0  0
   -4.7512    0.2778   -4.3940 H   0  0  0  0  0  0  0  0  0  0  0  0
   -5.7522    0.7089   -2.1464 H   0  0  0  0  0  0  0  0  0  0  0  0
   -0.5397   -0.1083   -2.6015 N   0  0  0  0  0  0  0  0  0  0  0  0
    0.1020   -0.8843   -3.3323 N   0  0  0  0  0  0  0  0  0  0  0  0
   -0.4302   -2.1158   -3.8075 C   0  0  0  0  0  0  0  0  0  0  0  0
   -0.2600   -2.4703   -5.1645 C   0  0  0  0  0  0  0  0  0  0  0  0
   -0.8842   -3.0671   -2.8837 C   0  0  0  0  0  0  0  0  0  0  0  0
   -0.5476   -3.7723   -5.5735 C   0  0  0  0  0  0  0  0  0  0  0  0
   -1.1653   -4.3665   -3.3108 C   0  0  0  0  0  0  0  0  0  0  0  0
   -0.9437   -2.8112   -1.8308 H   0  0  0  0  0  0  0  0  0  0  0  0
   -0.9959   -4.7214   -4.6495 C   0  0  0  0  0  0  0  0  0  0  0  0
   -0.4351   -4.0315   -6.6204 H   0  0  0  0  0  0  0  0  0  0  0  0
   -1.5015   -5.1045   -2.5895 H   0  0  0  0  0  0  0  0  0  0  0  0
   -1.2127   -5.7326   -4.9763 H   0  0  0  0  0  0  0  0  0  0  0  0
    0.0821   -1.3848   -6.1179 C   0  0  0  0  0  0  0  0  0  0  0  0
   -0.1025   -0.2063   -5.8598 O   0  0  0  0  0  0  0  0  0  0  0  0
    0.5793   -1.8253   -7.2803 O   0  0  0  0  0  0  0  0  0  0  0  0
    0.7470   -1.0500   -7.8438 H   0  0  0  0  0  0  0  0  0  0  0  0
   -4.6037    0.8195    0.1996 C   0  0  0  0  0  0  0  0  0  0  0  0
   -5.7859    1.0399    0.2807 O   0  0  0  0  0  0  0  0  0  0  0  0
   -3.7496    0.8060    1.2416 O   0  0  0  0  0  0  0  0  0  0  0  0
   -4.2548    1.0134    2.0480 H   0  0  0  0  0  0  0  0  0  0  0  0
  1  6  2  0  0  0  0
  1  2  1  0  0  0  0
  2  3  2  0  0  0  0
  3  4  1  0  0  0  0
  3  8  1  0  0  0  0
  4 28  1  0  0  0  0
  5 11  1  0  0  0  0
  5  4  2  0  0  0  0
  6  5  1  0  0  0  0
  7  1  1  0  0  0  0
  8  9  1  0  0  0  0
 10  6  1  0  0  0  0
 12  2  1  0  0  0  0
 13 12  1  0  0  0  0
 14 13  1  0  0  0  0
 14 16  2  0  0  0  0
 15 14  1  0  0  0  0
 16 19  1  0  0  0  0
 17 15  2  0  0  0  0
 17 20  1  0  0  0  0
 18 16  1  0  0  0  0
 18 22  1  0  0  0  0
 20 18  2  0  0  0  0
 21 17  1  0  0  0  0
 23 20  1  0  0  0  0
 24 25  2  0  0  0  0
 24 15  1  0  0  0  0
 26 24  1  0  0  0  0
 27 26  1  0  0  0  0
 28 29  2  0  0  0  0
 28 30  1  0  0  0  0
 30 31  1  0  0  0  0
M  RAD  4   8   2   9   3  12   2  13   2
M  END
