Coordinates from ORCA-job 1f-Schema5-R6-D+-B3LYPG-6-31G_dp-scan-d49-09-n400
 OpenBabel08231810253D

 31 31  0  0  0  0  0  0  0  0999 V2000
   -4.0518   -0.6476   -2.9894 C   0  0  0  0  0  0  0  0  0  0  0  0
   -2.8736   -0.3536   -2.2785 C   0  0  0  0  0  0  0  0  0  0  0  0
   -3.0979    0.3586   -1.0927 C   0  0  0  0  0  0  0  0  0  0  0  0
   -4.3535    0.7729   -0.5553 C   0  0  0  0  0  0  0  0  0  0  0  0
   -5.4618    0.4269   -1.3109 C   0  0  0  0  0  0  0  0  0  0  0  0
   -5.3121   -0.2762   -2.5203 C   0  0  0  0  0  0  0  0  0  0  0  0
   -3.9906   -1.1806   -3.9359 H   0  0  0  0  0  0  0  0  0  0  0  0
   -1.9178    0.6722   -0.4277 N   0  0  0  0  0  0  0  0  0  0  0  0
   -0.9157    0.8790    0.0147 N   0  0  0  0  0  0  0  0  0  0  0  0
   -6.2005   -0.5274   -3.0935 H   0  0  0  0  0  0  0  0  0  0  0  0
   -6.4401    0.7184   -0.9454 H   0  0  0  0  0  0  0  0  0  0  0  0
   -0.3628   -0.0640   -3.1829 N   0  0  0  0  0  0  0  0  0  0  0  0
   -0.0476   -0.9232   -3.8507 N   0  0  0  0  0  0  0  0  0  0  0  0
   -0.2487   -2.2035   -4.3829 C   0  0  0  0  0  0  0  0  0  0  0  0
    0.4636   -2.6151   -5.5245 C   0  0  0  0  0  0  0  0  0  0  0  0
   -1.1443   -3.0263   -3.6947 C   0  0  0  0  0  0  0  0  0  0  0  0
    0.2419   -3.9127   -5.9820 C   0  0  0  0  0  0  0  0  0  0  0  0
   -1.3430   -4.3181   -4.1786 C   0  0  0  0  0  0  0  0  0  0  0  0
   -1.6628   -2.6330   -2.8250 H   0  0  0  0  0  0  0  0  0  0  0  0
   -0.6524   -4.7565   -5.3118 C   0  0  0  0  0  0  0  0  0  0  0  0
    0.7696   -4.2569   -6.8635 H   0  0  0  0  0  0  0  0  0  0  0  0
   -2.0322   -4.9817   -3.6669 H   0  0  0  0  0  0  0  0  0  0  0  0
   -0.8084   -5.7653   -5.6794 H   0  0  0  0  0  0  0  0  0  0  0  0
    1.3885   -1.6526   -6.1967 C   0  0  0  0  0  0  0  0  0  0  0  0
    1.5139   -0.5011   -5.8320 O   0  0  0  0  0  0  0  0  0  0  0  0
    2.0454   -2.2025   -7.2228 O   0  0  0  0  0  0  0  0  0  0  0  0
    2.6218   -1.5211   -7.6112 H   0  0  0  0  0  0  0  0  0  0  0  0
   -4.5783    1.5278    0.7168 C   0  0  0  0  0  0  0  0  0  0  0  0
   -5.6703    1.8496    1.1193 O   0  0  0  0  0  0  0  0  0  0  0  0
   -3.4243    1.8051    1.3641 O   0  0  0  0  0  0  0  0  0  0  0  0
   -3.6549    2.2914    2.1749 H   0  0  0  0  0  0  0  0  0  0  0  0
  1  6  2  0  0  0  0
  1  2  1  0  0  0  0
  2  3  2  0  0  0  0
  3  4  1  0  0  0  0
  3  8  1  0  0  0  0
  4 28  1  0  0  0  0
  5 11  1  0  0  0  0
  5  4  2  0  0  0  0
  6  5  1  0  0  0  0
  7  1  1  0  0  0  0
  8  9  1  0  0  0  0
 10  6  1  0  0  0  0
 13 12  2  0  0  0  0
 14 13  1  0  0  0  0
 14 16  2  0  0  0  0
 15 14  1  0  0  0  0
 16 19  1  0  0  0  0
 17 15  2  0  0  0  0
 17 20  1  0  0  0  0
 18 16  1  0  0  0  0
 18 22  1  0  0  0  0
 20 18  2  0  0  0  0
 21 17  1  0  0  0  0
 23 20  1  0  0  0  0
 24 25  2  0  0  0  0
 24 15  1  0  0  0  0
 26 24  1  0  0  0  0
 27 26  1  0  0  0  0
 28 29  2  0  0  0  0
 28 30  1  0  0  0  0
 30 31  1  0  0  0  0
M  RAD  4   2   2   8   2   9   3  12   2
M  END
