Coordinates from ORCA-job 1f-Schema5-R6-D+-B3LYPG-6-31G_dp-scan-d49-09-n400
 OpenBabel08231810253D

 31 32  0  0  0  0  0  0  0  0999 V2000
   -2.7803   -0.0538   -3.6520 C   0  0  0  0  0  0  0  0  0  0  0  0
   -1.9877   -0.1100   -2.5103 C   0  0  0  0  0  0  0  0  0  0  0  0
   -2.5620    0.2189   -1.2684 C   0  0  0  0  0  0  0  0  0  0  0  0
   -3.9458    0.5141   -1.1116 C   0  0  0  0  0  0  0  0  0  0  0  0
   -4.7136    0.5010   -2.2674 C   0  0  0  0  0  0  0  0  0  0  0  0
   -4.1391    0.2329   -3.5223 C   0  0  0  0  0  0  0  0  0  0  0  0
   -2.3187   -0.2079   -4.6226 H   0  0  0  0  0  0  0  0  0  0  0  0
   -1.6854    0.2573   -0.2083 N   0  0  0  0  0  0  0  0  0  0  0  0
   -0.9079    0.3057    0.5886 N   0  0  0  0  0  0  0  0  0  0  0  0
   -4.7669    0.2610   -4.4074 H   0  0  0  0  0  0  0  0  0  0  0  0
   -5.7702    0.7257   -2.1712 H   0  0  0  0  0  0  0  0  0  0  0  0
   -0.3486   -0.0818   -2.6003 N   0  0  0  0  0  0  0  0  0  0  0  0
    0.2182   -0.9142   -3.2951 N   0  0  0  0  0  0  0  0  0  0  0  0
   -0.3486   -2.1242   -3.7882 C   0  0  0  0  0  0  0  0  0  0  0  0
   -0.2537   -2.4527   -5.1566 C   0  0  0  0  0  0  0  0  0  0  0  0
   -0.7844   -3.0761   -2.8595 C   0  0  0  0  0  0  0  0  0  0  0  0
   -0.6030   -3.7392   -5.5722 C   0  0  0  0  0  0  0  0  0  0  0  0
   -1.1318   -4.3571   -3.2954 C   0  0  0  0  0  0  0  0  0  0  0  0
   -0.7860   -2.8354   -1.8015 H   0  0  0  0  0  0  0  0  0  0  0  0
   -1.0390   -4.6908   -4.6464 C   0  0  0  0  0  0  0  0  0  0  0  0
   -0.5441   -3.9827   -6.6273 H   0  0  0  0  0  0  0  0  0  0  0  0
   -1.4583   -5.0967   -2.5714 H   0  0  0  0  0  0  0  0  0  0  0  0
   -1.3034   -5.6881   -4.9809 H   0  0  0  0  0  0  0  0  0  0  0  0
    0.0828   -1.3694   -6.1164 C   0  0  0  0  0  0  0  0  0  0  0  0
   -0.0733   -0.1888   -5.8542 O   0  0  0  0  0  0  0  0  0  0  0  0
    0.5392   -1.8195   -7.2927 O   0  0  0  0  0  0  0  0  0  0  0  0
    0.7041   -1.0464   -7.8601 H   0  0  0  0  0  0  0  0  0  0  0  0
   -4.6301    0.8405    0.1851 C   0  0  0  0  0  0  0  0  0  0  0  0
   -5.8083    1.0818    0.2607 O   0  0  0  0  0  0  0  0  0  0  0  0
   -3.7766    0.8267    1.2279 O   0  0  0  0  0  0  0  0  0  0  0  0
   -4.2782    1.0517    2.0319 H   0  0  0  0  0  0  0  0  0  0  0  0
  1  6  2  0  0  0  0
  1  2  1  0  0  0  0
  2  3  2  0  0  0  0
  3  4  1  0  0  0  0
  3  8  1  0  0  0  0
  4 28  1  0  0  0  0
  5 11  1  0  0  0  0
  5  4  2  0  0  0  0
  6  5  1  0  0  0  0
  7  1  1  0  0  0  0
  8  9  1  0  0  0  0
 10  6  1  0  0  0  0
 12  2  1  0  0  0  0
 13 12  1  0  0  0  0
 14 13  1  0  0  0  0
 14 16  2  0  0  0  0
 15 14  1  0  0  0  0
 16 19  1  0  0  0  0
 17 15  2  0  0  0  0
 17 20  1  0  0  0  0
 18 16  1  0  0  0  0
 18 22  1  0  0  0  0
 20 18  2  0  0  0  0
 21 17  1  0  0  0  0
 23 20  1  0  0  0  0
 24 25  2  0  0  0  0
 24 15  1  0  0  0  0
 26 24  1  0  0  0  0
 27 26  1  0  0  0  0
 28 29  2  0  0  0  0
 28 30  1  0  0  0  0
 30 31  1  0  0  0  0
M  RAD  4   8   2   9   3  12   2  13   2
M  END
