Coordinates from ORCA-job 1f-Schema5-R6-D+-B3LYPG-6-31G_dp-scan-d49-09-n400
 OpenBabel08231810253D

 31 32  0  0  0  0  0  0  0  0999 V2000
   -2.7602   -0.0413   -3.6583 C   0  0  0  0  0  0  0  0  0  0  0  0
   -1.9643   -0.0953   -2.5157 C   0  0  0  0  0  0  0  0  0  0  0  0
   -2.5452    0.2260   -1.2706 C   0  0  0  0  0  0  0  0  0  0  0  0
   -3.9321    0.5082   -1.1171 C   0  0  0  0  0  0  0  0  0  0  0  0
   -4.6981    0.4938   -2.2734 C   0  0  0  0  0  0  0  0  0  0  0  0
   -4.1195    0.2359   -3.5288 C   0  0  0  0  0  0  0  0  0  0  0  0
   -2.2944   -0.1874   -4.6282 H   0  0  0  0  0  0  0  0  0  0  0  0
   -1.6723    0.2703   -0.2103 N   0  0  0  0  0  0  0  0  0  0  0  0
   -0.8981    0.3266    0.5899 N   0  0  0  0  0  0  0  0  0  0  0  0
   -4.7459    0.2630   -4.4149 H   0  0  0  0  0  0  0  0  0  0  0  0
   -5.7566    0.7099   -2.1777 H   0  0  0  0  0  0  0  0  0  0  0  0
   -0.3947   -0.0819   -2.5954 N   0  0  0  0  0  0  0  0  0  0  0  0
    0.1931   -0.9060   -3.2955 N   0  0  0  0  0  0  0  0  0  0  0  0
   -0.3724   -2.1186   -3.7856 C   0  0  0  0  0  0  0  0  0  0  0  0
   -0.2659   -2.4527   -5.1523 C   0  0  0  0  0  0  0  0  0  0  0  0
   -0.8082   -3.0720   -2.8575 C   0  0  0  0  0  0  0  0  0  0  0  0
   -0.6020   -3.7428   -5.5667 C   0  0  0  0  0  0  0  0  0  0  0  0
   -1.1417   -4.3572   -3.2913 C   0  0  0  0  0  0  0  0  0  0  0  0
   -0.8182   -2.8291   -1.7999 H   0  0  0  0  0  0  0  0  0  0  0  0
   -1.0368   -4.6950   -4.6405 C   0  0  0  0  0  0  0  0  0  0  0  0
   -0.5348   -3.9891   -6.6206 H   0  0  0  0  0  0  0  0  0  0  0  0
   -1.4672   -5.0971   -2.5671 H   0  0  0  0  0  0  0  0  0  0  0  0
   -1.2912   -5.6954   -4.9734 H   0  0  0  0  0  0  0  0  0  0  0  0
    0.0676   -1.3686   -6.1115 C   0  0  0  0  0  0  0  0  0  0  0  0
   -0.0985   -0.1885   -5.8506 O   0  0  0  0  0  0  0  0  0  0  0  0
    0.5330   -1.8151   -7.2853 O   0  0  0  0  0  0  0  0  0  0  0  0
    0.6951   -1.0410   -7.8521 H   0  0  0  0  0  0  0  0  0  0  0  0
   -4.6218    0.8241    0.1795 C   0  0  0  0  0  0  0  0  0  0  0  0
   -5.8021    1.0550    0.2530 O   0  0  0  0  0  0  0  0  0  0  0  0
   -3.7709    0.8131    1.2245 O   0  0  0  0  0  0  0  0  0  0  0  0
   -4.2765    1.0306    2.0280 H   0  0  0  0  0  0  0  0  0  0  0  0
  1  6  2  0  0  0  0
  1  2  1  0  0  0  0
  2  3  2  0  0  0  0
  3  4  1  0  0  0  0
  3  8  1  0  0  0  0
  4 28  1  0  0  0  0
  5 11  1  0  0  0  0
  5  4  2  0  0  0  0
  6  5  1  0  0  0  0
  7  1  1  0  0  0  0
  8  9  1  0  0  0  0
 10  6  1  0  0  0  0
 12  2  1  0  0  0  0
 13 12  1  0  0  0  0
 14 13  1  0  0  0  0
 14 16  2  0  0  0  0
 15 14  1  0  0  0  0
 16 19  1  0  0  0  0
 17 15  2  0  0  0  0
 17 20  1  0  0  0  0
 18 16  1  0  0  0  0
 18 22  1  0  0  0  0
 20 18  2  0  0  0  0
 21 17  1  0  0  0  0
 23 20  1  0  0  0  0
 24 25  2  0  0  0  0
 24 15  1  0  0  0  0
 26 24  1  0  0  0  0
 27 26  1  0  0  0  0
 28 29  2  0  0  0  0
 28 30  1  0  0  0  0
 30 31  1  0  0  0  0
M  RAD  4   8   2   9   3  12   2  13   2
M  END
