Coordinates from ORCA-job 1f-Schema5-R6-D+-B3LYPG-6-31G_dp-scan-d49-09-n400
 OpenBabel08231810253D

 31 32  0  0  0  0  0  0  0  0999 V2000
   -2.8977    0.0944   -3.6533 C   0  0  0  0  0  0  0  0  0  0  0  0
   -1.9972   -0.0217   -2.5399 C   0  0  0  0  0  0  0  0  0  0  0  0
   -2.5658    0.2835   -1.2377 C   0  0  0  0  0  0  0  0  0  0  0  0
   -3.9510    0.5933   -1.0483 C   0  0  0  0  0  0  0  0  0  0  0  0
   -4.7509    0.6564   -2.1669 C   0  0  0  0  0  0  0  0  0  0  0  0
   -4.2169    0.4246   -3.4591 C   0  0  0  0  0  0  0  0  0  0  0  0
   -2.4775   -0.0426   -4.6444 H   0  0  0  0  0  0  0  0  0  0  0  0
   -1.6804    0.2724   -0.2184 N   0  0  0  0  0  0  0  0  0  0  0  0
   -0.8588    0.2871    0.5465 N   0  0  0  0  0  0  0  0  0  0  0  0
   -4.8733    0.5005   -4.3203 H   0  0  0  0  0  0  0  0  0  0  0  0
   -5.7983    0.8998   -2.0296 H   0  0  0  0  0  0  0  0  0  0  0  0
   -0.7865   -0.1931   -2.6804 N   0  0  0  0  0  0  0  0  0  0  0  0
   -0.0703   -0.8614   -3.4536 N   0  0  0  0  0  0  0  0  0  0  0  0
   -0.4771   -2.1488   -3.8727 C   0  0  0  0  0  0  0  0  0  0  0  0
   -0.1849   -2.5381   -5.2027 C   0  0  0  0  0  0  0  0  0  0  0  0
   -0.9500   -3.0928   -2.9479 C   0  0  0  0  0  0  0  0  0  0  0  0
   -0.3626   -3.8660   -5.5807 C   0  0  0  0  0  0  0  0  0  0  0  0
   -1.1178   -4.4197   -3.3439 C   0  0  0  0  0  0  0  0  0  0  0  0
   -1.1051   -2.8056   -1.9131 H   0  0  0  0  0  0  0  0  0  0  0  0
   -0.8223   -4.8078   -4.6523 C   0  0  0  0  0  0  0  0  0  0  0  0
   -0.1634   -4.1542   -6.6068 H   0  0  0  0  0  0  0  0  0  0  0  0
   -1.4630   -5.1536   -2.6231 H   0  0  0  0  0  0  0  0  0  0  0  0
   -0.9537   -5.8414   -4.9543 H   0  0  0  0  0  0  0  0  0  0  0  0
    0.1393   -1.4569   -6.1697 C   0  0  0  0  0  0  0  0  0  0  0  0
   -0.1319   -0.2867   -5.9551 O   0  0  0  0  0  0  0  0  0  0  0  0
    0.7264   -1.8969   -7.2885 O   0  0  0  0  0  0  0  0  0  0  0  0
    0.8761   -1.1307   -7.8693 H   0  0  0  0  0  0  0  0  0  0  0  0
   -4.5938    0.8610    0.2818 C   0  0  0  0  0  0  0  0  0  0  0  0
   -5.7610    1.1393    0.4033 O   0  0  0  0  0  0  0  0  0  0  0  0
   -3.7243    0.7482    1.3057 O   0  0  0  0  0  0  0  0  0  0  0  0
   -4.2073    0.9402    2.1290 H   0  0  0  0  0  0  0  0  0  0  0  0
  1  6  2  0  0  0  0
  1  2  1  0  0  0  0
  2  3  2  0  0  0  0
  3  4  1  0  0  0  0
  3  8  1  0  0  0  0
  4 28  1  0  0  0  0
  5 11  1  0  0  0  0
  5  4  2  0  0  0  0
  6  5  1  0  0  0  0
  7  1  1  0  0  0  0
  8  9  1  0  0  0  0
 10  6  1  0  0  0  0
 12  2  1  0  0  0  0
 13 12  1  0  0  0  0
 14 13  1  0  0  0  0
 14 16  2  0  0  0  0
 15 14  1  0  0  0  0
 16 19  1  0  0  0  0
 17 15  2  0  0  0  0
 17 20  1  0  0  0  0
 18 16  1  0  0  0  0
 18 22  1  0  0  0  0
 20 18  2  0  0  0  0
 21 17  1  0  0  0  0
 23 20  1  0  0  0  0
 24 25  2  0  0  0  0
 24 15  1  0  0  0  0
 26 24  1  0  0  0  0
 27 26  1  0  0  0  0
 28 29  2  0  0  0  0
 28 30  1  0  0  0  0
 30 31  1  0  0  0  0
M  RAD  4   8   2   9   3  12   2  13   2
M  END
