Coordinates from ORCA-job 1f-Schema5-R6-D+-B3LYPG-6-31G_dp-scan-d49-09-n400
 OpenBabel08231810253D

 31 32  0  0  0  0  0  0  0  0999 V2000
   -3.0080   -0.3164   -3.5251 C   0  0  0  0  0  0  0  0  0  0  0  0
   -2.1390   -0.2300   -2.4446 C   0  0  0  0  0  0  0  0  0  0  0  0
   -2.6381    0.2467   -1.2235 C   0  0  0  0  0  0  0  0  0  0  0  0
   -4.0069    0.5706   -1.0079 C   0  0  0  0  0  0  0  0  0  0  0  0
   -4.8491    0.4234   -2.1017 C   0  0  0  0  0  0  0  0  0  0  0  0
   -4.3576   -0.0045   -3.3464 C   0  0  0  0  0  0  0  0  0  0  0  0
   -2.6324   -0.6182   -4.4969 H   0  0  0  0  0  0  0  0  0  0  0  0
   -1.6925    0.4097   -0.2292 N   0  0  0  0  0  0  0  0  0  0  0  0
   -0.8672    0.5442    0.5059 N   0  0  0  0  0  0  0  0  0  0  0  0
   -5.0423   -0.0865   -4.1851 H   0  0  0  0  0  0  0  0  0  0  0  0
   -5.8974    0.6657   -1.9662 H   0  0  0  0  0  0  0  0  0  0  0  0
   -0.3634   -0.1608   -2.5815 N   0  0  0  0  0  0  0  0  0  0  0  0
    0.1840   -0.9629   -3.2976 N   0  0  0  0  0  0  0  0  0  0  0  0
   -0.3374   -2.1585   -3.8587 C   0  0  0  0  0  0  0  0  0  0  0  0
   -0.1253   -2.4510   -5.2217 C   0  0  0  0  0  0  0  0  0  0  0  0
   -0.8814   -3.1158   -2.9959 C   0  0  0  0  0  0  0  0  0  0  0  0
   -0.4839   -3.7119   -5.7031 C   0  0  0  0  0  0  0  0  0  0  0  0
   -1.2307   -4.3713   -3.4980 C   0  0  0  0  0  0  0  0  0  0  0  0
   -0.9757   -2.8970   -1.9378 H   0  0  0  0  0  0  0  0  0  0  0  0
   -1.0334   -4.6697   -4.8464 C   0  0  0  0  0  0  0  0  0  0  0  0
   -0.3359   -3.9319   -6.7542 H   0  0  0  0  0  0  0  0  0  0  0  0
   -1.6411   -5.1194   -2.8274 H   0  0  0  0  0  0  0  0  0  0  0  0
   -1.3011   -5.6476   -5.2318 H   0  0  0  0  0  0  0  0  0  0  0  0
    0.3748   -1.3665   -6.1098 C   0  0  0  0  0  0  0  0  0  0  0  0
    0.3566   -0.1923   -5.7929 O   0  0  0  0  0  0  0  0  0  0  0  0
    0.8219   -1.8186   -7.2920 O   0  0  0  0  0  0  0  0  0  0  0  0
    1.1093   -1.0469   -7.8097 H   0  0  0  0  0  0  0  0  0  0  0  0
   -4.6058    1.0548    0.2815 C   0  0  0  0  0  0  0  0  0  0  0  0
   -5.7756    1.3186    0.4019 O   0  0  0  0  0  0  0  0  0  0  0  0
   -3.6886    1.1520    1.2645 O   0  0  0  0  0  0  0  0  0  0  0  0
   -4.1382    1.4746    2.0658 H   0  0  0  0  0  0  0  0  0  0  0  0
  1  6  2  0  0  0  0
  1  2  1  0  0  0  0
  2  3  2  0  0  0  0
  3  4  1  0  0  0  0
  3  8  1  0  0  0  0
  4 28  1  0  0  0  0
  5 11  1  0  0  0  0
  5  4  2  0  0  0  0
  6  5  1  0  0  0  0
  7  1  1  0  0  0  0
  8  9  1  0  0  0  0
 10  6  1  0  0  0  0
 12  2  1  0  0  0  0
 13 12  2  0  0  0  0
 14 13  1  0  0  0  0
 14 16  2  0  0  0  0
 15 14  1  0  0  0  0
 16 19  1  0  0  0  0
 17 15  2  0  0  0  0
 17 20  1  0  0  0  0
 18 16  1  0  0  0  0
 18 22  1  0  0  0  0
 20 18  2  0  0  0  0
 21 17  1  0  0  0  0
 23 20  1  0  0  0  0
 24 25  2  0  0  0  0
 24 15  1  0  0  0  0
 26 24  1  0  0  0  0
 27 26  1  0  0  0  0
 28 29  2  0  0  0  0
 28 30  1  0  0  0  0
 30 31  1  0  0  0  0
M  RAD  2   8   2   9   3
M  END
