Coordinates from ORCA-job 1f-Schema5-R6-D+-B3LYPG-6-31G_dp-scan-d49-09-n400
 OpenBabel08231810253D

 31 31  0  0  0  0  0  0  0  0999 V2000
   -4.4748   -0.5362   -2.9599 C   0  0  0  0  0  0  0  0  0  0  0  0
   -3.2226   -0.5154   -2.2902 C   0  0  0  0  0  0  0  0  0  0  0  0
   -3.3603    0.0022   -0.9889 C   0  0  0  0  0  0  0  0  0  0  0  0
   -4.5352    0.4743   -0.3239 C   0  0  0  0  0  0  0  0  0  0  0  0
   -5.6970    0.4061   -1.0720 C   0  0  0  0  0  0  0  0  0  0  0  0
   -5.6653   -0.0989   -2.3870 C   0  0  0  0  0  0  0  0  0  0  0  0
   -4.5166   -0.9146   -3.9810 H   0  0  0  0  0  0  0  0  0  0  0  0
   -2.1413    0.0236   -0.3201 N   0  0  0  0  0  0  0  0  0  0  0  0
   -1.1151   -0.0061    0.1186 N   0  0  0  0  0  0  0  0  0  0  0  0
   -6.5934   -0.1407   -2.9518 H   0  0  0  0  0  0  0  0  0  0  0  0
   -6.6201    0.7511   -0.6202 H   0  0  0  0  0  0  0  0  0  0  0  0
    0.2700    0.8049   -5.1604 N   0  0  0  0  0  0  0  0  0  0  0  0
    0.1810   -0.3049   -5.1304 N   0  0  0  0  0  0  0  0  0  0  0  0
   -0.0575   -1.6643   -4.9707 C   0  0  0  0  0  0  0  0  0  0  0  0
    0.6958   -2.6056   -5.7185 C   0  0  0  0  0  0  0  0  0  0  0  0
   -1.0613   -2.0074   -4.0525 C   0  0  0  0  0  0  0  0  0  0  0  0
    0.4037   -3.9471   -5.5145 C   0  0  0  0  0  0  0  0  0  0  0  0
   -1.3136   -3.3702   -3.8868 C   0  0  0  0  0  0  0  0  0  0  0  0
   -1.6649   -1.2745   -3.4597 H   0  0  0  0  0  0  0  0  0  0  0  0
   -0.5963   -4.3274   -4.6041 C   0  0  0  0  0  0  0  0  0  0  0  0
    0.9596   -4.6937   -6.0695 H   0  0  0  0  0  0  0  0  0  0  0  0
   -2.0869   -3.6657   -3.1841 H   0  0  0  0  0  0  0  0  0  0  0  0
   -0.8087   -5.3825   -4.4624 H   0  0  0  0  0  0  0  0  0  0  0  0
    1.7436   -2.1234   -6.6677 C   0  0  0  0  0  0  0  0  0  0  0  0
    1.9757   -0.9407   -6.8210 O   0  0  0  0  0  0  0  0  0  0  0  0
    2.3669   -3.1174   -7.3002 O   0  0  0  0  0  0  0  0  0  0  0  0
    3.0316   -2.7311   -7.8978 H   0  0  0  0  0  0  0  0  0  0  0  0
   -4.6276    1.0208    1.0628 C   0  0  0  0  0  0  0  0  0  0  0  0
   -5.6561    1.4001    1.5727 O   0  0  0  0  0  0  0  0  0  0  0  0
   -3.4297    1.0490    1.6944 O   0  0  0  0  0  0  0  0  0  0  0  0
   -3.5845    1.4181    2.5810 H   0  0  0  0  0  0  0  0  0  0  0  0
  1  6  2  0  0  0  0
  1  2  1  0  0  0  0
  2  3  2  0  0  0  0
  3  4  1  0  0  0  0
  3  8  1  0  0  0  0
  4 28  1  0  0  0  0
  5 11  1  0  0  0  0
  5  4  2  0  0  0  0
  6  5  1  0  0  0  0
  7  1  1  0  0  0  0
  8  9  1  0  0  0  0
 10  6  1  0  0  0  0
 12 13  1  0  0  0  0
 13 14  1  0  0  0  0
 14 16  2  0  0  0  0
 15 17  2  0  0  0  0
 15 14  1  0  0  0  0
 16 18  1  0  0  0  0
 16 19  1  0  0  0  0
 17 20  1  0  0  0  0
 18 22  1  0  0  0  0
 20 23  1  0  0  0  0
 20 18  2  0  0  0  0
 21 17  1  0  0  0  0
 24 15  1  0  0  0  0
 25 24  2  0  0  0  0
 26 24  1  0  0  0  0
 27 26  1  0  0  0  0
 28 29  2  0  0  0  0
 28 30  1  0  0  0  0
 30 31  1  0  0  0  0
M  RAD  5   2   2   8   2   9   3  12   3  13   2
M  END
