Coordinates from ORCA-job 1f-Schema5-R6-D+-B3LYPG-6-31G_dp-scan-d49-09-n400
 OpenBabel08231810253D

 31 31  0  0  0  0  0  0  0  0999 V2000
   -4.4744   -0.4579   -3.0054 C   0  0  0  0  0  0  0  0  0  0  0  0
   -3.2369   -0.5407   -2.3139 C   0  0  0  0  0  0  0  0  0  0  0  0
   -3.3577   -0.0285   -1.0087 C   0  0  0  0  0  0  0  0  0  0  0  0
   -4.5051    0.5253   -0.3588 C   0  0  0  0  0  0  0  0  0  0  0  0
   -5.6543    0.5571   -1.1286 C   0  0  0  0  0  0  0  0  0  0  0  0
   -5.6376    0.0657   -2.4490 C   0  0  0  0  0  0  0  0  0  0  0  0
   -4.5273   -0.8241   -4.0305 H   0  0  0  0  0  0  0  0  0  0  0  0
   -2.1541   -0.1100   -0.3175 N   0  0  0  0  0  0  0  0  0  0  0  0
   -1.1423   -0.2251    0.1402 N   0  0  0  0  0  0  0  0  0  0  0  0
   -6.5553    0.1029   -3.0309 H   0  0  0  0  0  0  0  0  0  0  0  0
   -6.5562    0.9673   -0.6886 H   0  0  0  0  0  0  0  0  0  0  0  0
   -0.0739    0.7507   -5.1163 N   0  0  0  0  0  0  0  0  0  0  0  0
   -0.0470   -0.3624   -5.0970 N   0  0  0  0  0  0  0  0  0  0  0  0
   -0.1552   -1.7390   -4.9373 C   0  0  0  0  0  0  0  0  0  0  0  0
    0.6719   -2.6076   -5.6934 C   0  0  0  0  0  0  0  0  0  0  0  0
   -1.1141   -2.1666   -4.0074 C   0  0  0  0  0  0  0  0  0  0  0  0
    0.5038   -3.9696   -5.4855 C   0  0  0  0  0  0  0  0  0  0  0  0
   -1.2413   -3.5467   -3.8380 C   0  0  0  0  0  0  0  0  0  0  0  0
   -1.7602   -1.4631   -3.4177 H   0  0  0  0  0  0  0  0  0  0  0  0
   -0.4482   -4.4359   -4.5636 C   0  0  0  0  0  0  0  0  0  0  0  0
    1.1180   -4.6648   -6.0459 H   0  0  0  0  0  0  0  0  0  0  0  0
   -1.9755   -3.9155   -3.1281 H   0  0  0  0  0  0  0  0  0  0  0  0
   -0.5634   -5.5058   -4.4186 H   0  0  0  0  0  0  0  0  0  0  0  0
    1.6601   -2.0307   -6.6528 C   0  0  0  0  0  0  0  0  0  0  0  0
    1.7799   -0.8312   -6.8058 O   0  0  0  0  0  0  0  0  0  0  0  0
    2.3657   -2.9621   -7.2936 O   0  0  0  0  0  0  0  0  0  0  0  0
    2.9854   -2.5160   -7.8979 H   0  0  0  0  0  0  0  0  0  0  0  0
   -4.5815    1.0602    1.0334 C   0  0  0  0  0  0  0  0  0  0  0  0
   -5.5875    1.5107    1.5299 O   0  0  0  0  0  0  0  0  0  0  0  0
   -3.3971    0.9887    1.6865 O   0  0  0  0  0  0  0  0  0  0  0  0
   -3.5397    1.3574    2.5753 H   0  0  0  0  0  0  0  0  0  0  0  0
  1  6  2  0  0  0  0
  1  2  1  0  0  0  0
  2  3  2  0  0  0  0
  3  4  1  0  0  0  0
  3  8  1  0  0  0  0
  4 28  1  0  0  0  0
  5 11  1  0  0  0  0
  5  4  2  0  0  0  0
  6  5  1  0  0  0  0
  7  1  1  0  0  0  0
  8  9  1  0  0  0  0
 10  6  1  0  0  0  0
 12 13  1  0  0  0  0
 13 14  1  0  0  0  0
 14 16  2  0  0  0  0
 15 17  2  0  0  0  0
 15 14  1  0  0  0  0
 16 18  1  0  0  0  0
 16 19  1  0  0  0  0
 17 20  1  0  0  0  0
 18 22  1  0  0  0  0
 20 23  1  0  0  0  0
 20 18  2  0  0  0  0
 21 17  1  0  0  0  0
 24 15  1  0  0  0  0
 25 24  2  0  0  0  0
 26 24  1  0  0  0  0
 27 26  1  0  0  0  0
 28 29  2  0  0  0  0
 28 30  1  0  0  0  0
 30 31  1  0  0  0  0
M  RAD  5   2   2   8   2   9   3  12   3  13   2
M  END
