Coordinates from ORCA-job 1f-Schema5-R6-D+-B3LYPG-6-31G_dp-scan-d49-09-n400
 OpenBabel08231810253D

 31 31  0  0  0  0  0  0  0  0999 V2000
   -4.4739   -0.4027   -3.0379 C   0  0  0  0  0  0  0  0  0  0  0  0
   -3.2493   -0.5522   -2.3348 C   0  0  0  0  0  0  0  0  0  0  0  0
   -3.3600   -0.0509   -1.0245 C   0  0  0  0  0  0  0  0  0  0  0  0
   -4.4871    0.5487   -0.3797 C   0  0  0  0  0  0  0  0  0  0  0  0
   -5.6246    0.6458   -1.1614 C   0  0  0  0  0  0  0  0  0  0  0  0
   -5.6166    0.1703   -2.4876 C   0  0  0  0  0  0  0  0  0  0  0  0
   -4.5336   -0.7554   -4.0673 H   0  0  0  0  0  0  0  0  0  0  0  0
   -2.1695   -0.1977   -0.3216 N   0  0  0  0  0  0  0  0  0  0  0  0
   -1.1697   -0.3665    0.1457 N   0  0  0  0  0  0  0  0  0  0  0  0
   -6.5247    0.2587   -3.0789 H   0  0  0  0  0  0  0  0  0  0  0  0
   -6.5109    1.0931   -0.7255 H   0  0  0  0  0  0  0  0  0  0  0  0
   -0.2817    0.7095   -5.1160 N   0  0  0  0  0  0  0  0  0  0  0  0
   -0.1837   -0.3996   -5.0962 N   0  0  0  0  0  0  0  0  0  0  0  0
   -0.2124   -1.7791   -4.9251 C   0  0  0  0  0  0  0  0  0  0  0  0
    0.6572   -2.6077   -5.6772 C   0  0  0  0  0  0  0  0  0  0  0  0
   -1.1418   -2.2470   -3.9859 C   0  0  0  0  0  0  0  0  0  0  0  0
    0.5651   -3.9747   -5.4545 C   0  0  0  0  0  0  0  0  0  0  0  0
   -1.1924   -3.6300   -3.8006 C   0  0  0  0  0  0  0  0  0  0  0  0
   -1.8130   -1.5594   -3.4052 H   0  0  0  0  0  0  0  0  0  0  0  0
   -0.3552   -4.4820   -4.5219 C   0  0  0  0  0  0  0  0  0  0  0  0
    1.2134   -4.6415   -6.0111 H   0  0  0  0  0  0  0  0  0  0  0  0
   -1.9005   -4.0332   -3.0831 H   0  0  0  0  0  0  0  0  0  0  0  0
   -0.4108   -5.5550   -4.3648 H   0  0  0  0  0  0  0  0  0  0  0  0
    1.6068   -1.9857   -6.6471 C   0  0  0  0  0  0  0  0  0  0  0  0
    1.6589   -0.7827   -6.8109 O   0  0  0  0  0  0  0  0  0  0  0  0
    2.3581   -2.8825   -7.2855 O   0  0  0  0  0  0  0  0  0  0  0  0
    2.9486   -2.4086   -7.8977 H   0  0  0  0  0  0  0  0  0  0  0  0
   -4.5541    1.0680    1.0190 C   0  0  0  0  0  0  0  0  0  0  0  0
   -5.5417    1.5638    1.5089 O   0  0  0  0  0  0  0  0  0  0  0  0
   -3.3834    0.9271    1.6855 O   0  0  0  0  0  0  0  0  0  0  0  0
   -3.5182    1.2917    2.5772 H   0  0  0  0  0  0  0  0  0  0  0  0
  1  6  2  0  0  0  0
  1  2  1  0  0  0  0
  2  3  2  0  0  0  0
  3  4  1  0  0  0  0
  3  8  1  0  0  0  0
  4 28  1  0  0  0  0
  5 11  1  0  0  0  0
  5  4  2  0  0  0  0
  6  5  1  0  0  0  0
  7  1  1  0  0  0  0
  8  9  1  0  0  0  0
 10  6  1  0  0  0  0
 12 13  1  0  0  0  0
 13 14  1  0  0  0  0
 14 16  2  0  0  0  0
 15 17  2  0  0  0  0
 15 14  1  0  0  0  0
 16 18  1  0  0  0  0
 16 19  1  0  0  0  0
 17 20  1  0  0  0  0
 18 22  1  0  0  0  0
 20 23  1  0  0  0  0
 20 18  2  0  0  0  0
 21 17  1  0  0  0  0
 24 15  1  0  0  0  0
 25 24  2  0  0  0  0
 26 24  1  0  0  0  0
 27 26  1  0  0  0  0
 28 29  2  0  0  0  0
 28 30  1  0  0  0  0
 30 31  1  0  0  0  0
M  RAD  5   2   2   8   2   9   3  12   3  13   2
M  END
