Coordinates from ORCA-job 1f-Schema5-R6-D+-B3LYPG-6-31G_dp-scan-d49-09-n400
 OpenBabel08231810253D

 31 31  0  0  0  0  0  0  0  0999 V2000
   -4.2298   -0.5304   -3.0149 C   0  0  0  0  0  0  0  0  0  0  0  0
   -3.0093   -0.3318   -2.3358 C   0  0  0  0  0  0  0  0  0  0  0  0
   -3.1766    0.3070   -1.0968 C   0  0  0  0  0  0  0  0  0  0  0  0
   -4.3959    0.7358   -0.4885 C   0  0  0  0  0  0  0  0  0  0  0  0
   -5.5413    0.4851   -1.2251 C   0  0  0  0  0  0  0  0  0  0  0  0
   -5.4585   -0.1439   -2.4813 C   0  0  0  0  0  0  0  0  0  0  0  0
   -4.2251   -1.0027   -3.9955 H   0  0  0  0  0  0  0  0  0  0  0  0
   -1.9677    0.5216   -0.4464 N   0  0  0  0  0  0  0  0  0  0  0  0
   -0.9483    0.6507   -0.0126 N   0  0  0  0  0  0  0  0  0  0  0  0
   -6.3745   -0.3231   -3.0380 H   0  0  0  0  0  0  0  0  0  0  0  0
   -6.4943    0.7910   -0.8083 H   0  0  0  0  0  0  0  0  0  0  0  0
   -0.4777    0.1750   -3.6454 N   0  0  0  0  0  0  0  0  0  0  0  0
   -0.1650   -0.7570   -4.1950 N   0  0  0  0  0  0  0  0  0  0  0  0
   -0.2648   -2.1083   -4.5504 C   0  0  0  0  0  0  0  0  0  0  0  0
    0.5470   -2.6392   -5.5695 C   0  0  0  0  0  0  0  0  0  0  0  0
   -1.1918   -2.8549   -3.8203 C   0  0  0  0  0  0  0  0  0  0  0  0
    0.3974   -3.9940   -5.8555 C   0  0  0  0  0  0  0  0  0  0  0  0
   -1.3160   -4.2075   -4.1338 C   0  0  0  0  0  0  0  0  0  0  0  0
   -1.7871   -2.3508   -3.0575 H   0  0  0  0  0  0  0  0  0  0  0  0
   -0.5263   -4.7694   -5.1414 C   0  0  0  0  0  0  0  0  0  0  0  0
    1.0031   -4.4378   -6.6368 H   0  0  0  0  0  0  0  0  0  0  0  0
   -2.0271   -4.8205   -3.5899 H   0  0  0  0  0  0  0  0  0  0  0  0
   -0.6276   -5.8238   -5.3777 H   0  0  0  0  0  0  0  0  0  0  0  0
    1.5017   -1.7387   -6.2844 C   0  0  0  0  0  0  0  0  0  0  0  0
    1.5887   -0.5532   -6.0336 O   0  0  0  0  0  0  0  0  0  0  0  0
    2.2261   -2.3808   -7.2039 O   0  0  0  0  0  0  0  0  0  0  0  0
    2.8206   -1.7363   -7.6271 H   0  0  0  0  0  0  0  0  0  0  0  0
   -4.5490    1.4149    0.8352 C   0  0  0  0  0  0  0  0  0  0  0  0
   -5.6129    1.7551    1.2950 O   0  0  0  0  0  0  0  0  0  0  0  0
   -3.3654    1.6035    1.4622 O   0  0  0  0  0  0  0  0  0  0  0  0
   -3.5537    2.0471    2.3075 H   0  0  0  0  0  0  0  0  0  0  0  0
  1  6  2  0  0  0  0
  1  2  1  0  0  0  0
  2  3  2  0  0  0  0
  3  4  1  0  0  0  0
  3  8  1  0  0  0  0
  4 28  1  0  0  0  0
  5 11  1  0  0  0  0
  5  4  2  0  0  0  0
  6  5  1  0  0  0  0
  7  1  1  0  0  0  0
  8  9  1  0  0  0  0
 10  6  1  0  0  0  0
 13 12  2  0  0  0  0
 14 13  1  0  0  0  0
 14 16  2  0  0  0  0
 15 14  1  0  0  0  0
 16 19  1  0  0  0  0
 17 15  2  0  0  0  0
 17 20  1  0  0  0  0
 18 16  1  0  0  0  0
 18 22  1  0  0  0  0
 20 18  2  0  0  0  0
 21 17  1  0  0  0  0
 23 20  1  0  0  0  0
 24 25  2  0  0  0  0
 24 15  1  0  0  0  0
 26 24  1  0  0  0  0
 27 26  1  0  0  0  0
 28 29  2  0  0  0  0
 28 30  1  0  0  0  0
 30 31  1  0  0  0  0
M  RAD  4   2   2   8   2   9   3  12   2
M  END
