Coordinates from ORCA-job 1f-Schema5-R6-D+-B3LYPG-6-31G_dp-scan-d49-09-n400
 OpenBabel08231810253D

 31 31  0  0  0  0  0  0  0  0999 V2000
   -4.3239   -0.3939   -3.0802 C   0  0  0  0  0  0  0  0  0  0  0  0
   -3.1516   -0.5830   -2.3025 C   0  0  0  0  0  0  0  0  0  0  0  0
   -3.3113   -0.0410   -1.0134 C   0  0  0  0  0  0  0  0  0  0  0  0
   -4.4422    0.6306   -0.4521 C   0  0  0  0  0  0  0  0  0  0  0  0
   -5.5253    0.7644   -1.3029 C   0  0  0  0  0  0  0  0  0  0  0  0
   -5.4650    0.2528   -2.6139 C   0  0  0  0  0  0  0  0  0  0  0  0
   -4.3437   -0.7748   -4.1012 H   0  0  0  0  0  0  0  0  0  0  0  0
   -2.1737   -0.2281   -0.2359 N   0  0  0  0  0  0  0  0  0  0  0  0
   -1.2145   -0.4339    0.2966 N   0  0  0  0  0  0  0  0  0  0  0  0
   -6.3310    0.3711   -3.2605 H   0  0  0  0  0  0  0  0  0  0  0  0
   -6.4112    1.2668   -0.9311 H   0  0  0  0  0  0  0  0  0  0  0  0
   -0.5674    0.5700   -4.6816 N   0  0  0  0  0  0  0  0  0  0  0  0
   -0.3502   -0.5138   -4.8205 N   0  0  0  0  0  0  0  0  0  0  0  0
   -0.2788   -1.9040   -4.7782 C   0  0  0  0  0  0  0  0  0  0  0  0
    0.5762   -2.6102   -5.6551 C   0  0  0  0  0  0  0  0  0  0  0  0
   -1.1094   -2.4966   -3.8205 C   0  0  0  0  0  0  0  0  0  0  0  0
    0.5775   -3.9941   -5.5409 C   0  0  0  0  0  0  0  0  0  0  0  0
   -1.0749   -3.8903   -3.7463 C   0  0  0  0  0  0  0  0  0  0  0  0
   -1.7627   -1.8511   -3.1811 H   0  0  0  0  0  0  0  0  0  0  0  0
   -0.2432   -4.6276   -4.5919 C   0  0  0  0  0  0  0  0  0  0  0  0
    1.2182   -4.5757   -6.1934 H   0  0  0  0  0  0  0  0  0  0  0  0
   -1.7050   -4.3965   -3.0218 H   0  0  0  0  0  0  0  0  0  0  0  0
   -0.2264   -5.7111   -4.5203 H   0  0  0  0  0  0  0  0  0  0  0  0
    1.4069   -1.8447   -6.6302 C   0  0  0  0  0  0  0  0  0  0  0  0
    1.3713   -0.6306   -6.6829 O   0  0  0  0  0  0  0  0  0  0  0  0
    2.1681   -2.6270   -7.3944 O   0  0  0  0  0  0  0  0  0  0  0  0
    2.6808   -2.0621   -7.9995 H   0  0  0  0  0  0  0  0  0  0  0  0
   -4.5656    1.1879    0.9285 C   0  0  0  0  0  0  0  0  0  0  0  0
   -5.5548    1.7435    1.3455 O   0  0  0  0  0  0  0  0  0  0  0  0
   -3.4490    0.9983    1.6705 O   0  0  0  0  0  0  0  0  0  0  0  0
   -3.6190    1.3876    2.5457 H   0  0  0  0  0  0  0  0  0  0  0  0
  1  6  2  0  0  0  0
  1  2  1  0  0  0  0
  2  3  2  0  0  0  0
  3  4  1  0  0  0  0
  3  8  1  0  0  0  0
  4 28  1  0  0  0  0
  5 11  1  0  0  0  0
  5  4  2  0  0  0  0
  6  5  1  0  0  0  0
  7  1  1  0  0  0  0
  8  9  1  0  0  0  0
 10  6  1  0  0  0  0
 13 14  1  0  0  0  0
 13 12  1  0  0  0  0
 14 16  2  0  0  0  0
 15 17  2  0  0  0  0
 15 14  1  0  0  0  0
 16 18  1  0  0  0  0
 16 19  1  0  0  0  0
 17 20  1  0  0  0  0
 18 22  1  0  0  0  0
 20 23  1  0  0  0  0
 20 18  2  0  0  0  0
 21 17  1  0  0  0  0
 24 15  1  0  0  0  0
 25 24  2  0  0  0  0
 26 24  1  0  0  0  0
 27 26  1  0  0  0  0
 28 29  2  0  0  0  0
 28 30  1  0  0  0  0
 30 31  1  0  0  0  0
M  RAD  5   2   2   8   2   9   3  12   3  13   2
M  END
