Coordinates from ORCA-job 1f-Schema5-R6-D+-B3LYPG-6-31G_dp-scan-d49-09-n400
 OpenBabel08231810253D

 31 31  0  0  0  0  0  0  0  0999 V2000
   -4.4748   -0.5095   -2.9755 C   0  0  0  0  0  0  0  0  0  0  0  0
   -3.2272   -0.5273   -2.2974 C   0  0  0  0  0  0  0  0  0  0  0  0
   -3.3581   -0.0088   -0.9957 C   0  0  0  0  0  0  0  0  0  0  0  0
   -4.5231    0.4965   -0.3377 C   0  0  0  0  0  0  0  0  0  0  0  0
   -5.6811    0.4652   -1.0941 C   0  0  0  0  0  0  0  0  0  0  0  0
   -5.6555   -0.0376   -2.4101 C   0  0  0  0  0  0  0  0  0  0  0  0
   -4.5210   -0.8855   -3.9974 H   0  0  0  0  0  0  0  0  0  0  0  0
   -2.1440   -0.0258   -0.3182 N   0  0  0  0  0  0  0  0  0  0  0  0
   -1.1224   -0.0878    0.1281 N   0  0  0  0  0  0  0  0  0  0  0  0
   -6.5805   -0.0502   -2.9814 H   0  0  0  0  0  0  0  0  0  0  0  0
   -6.5966    0.8365   -0.6477 H   0  0  0  0  0  0  0  0  0  0  0  0
    0.1354    0.7854   -5.1312 N   0  0  0  0  0  0  0  0  0  0  0  0
    0.0920   -0.3272   -5.1094 N   0  0  0  0  0  0  0  0  0  0  0  0
   -0.0962   -1.6953   -4.9546 C   0  0  0  0  0  0  0  0  0  0  0  0
    0.6866   -2.6065   -5.7087 C   0  0  0  0  0  0  0  0  0  0  0  0
   -1.0836   -2.0746   -4.0334 C   0  0  0  0  0  0  0  0  0  0  0  0
    0.4422   -3.9581   -5.5081 C   0  0  0  0  0  0  0  0  0  0  0  0
   -1.2879   -3.4461   -3.8713 C   0  0  0  0  0  0  0  0  0  0  0  0
   -1.7039   -1.3543   -3.4397 H   0  0  0  0  0  0  0  0  0  0  0  0
   -0.5404   -4.3753   -4.5949 C   0  0  0  0  0  0  0  0  0  0  0  0
    1.0213   -4.6834   -6.0675 H   0  0  0  0  0  0  0  0  0  0  0  0
   -2.0471   -3.7733   -3.1673 H   0  0  0  0  0  0  0  0  0  0  0  0
   -0.7157   -5.4377   -4.4557 H   0  0  0  0  0  0  0  0  0  0  0  0
    1.7125   -2.0836   -6.6599 C   0  0  0  0  0  0  0  0  0  0  0  0
    1.9010   -0.8926   -6.8093 O   0  0  0  0  0  0  0  0  0  0  0  0
    2.3688   -3.0519   -7.2986 O   0  0  0  0  0  0  0  0  0  0  0  0
    3.0167   -2.6398   -7.8974 H   0  0  0  0  0  0  0  0  0  0  0  0
   -4.6090    1.0420    1.0498 C   0  0  0  0  0  0  0  0  0  0  0  0
   -5.6296    1.4491    1.5540 O   0  0  0  0  0  0  0  0  0  0  0  0
   -3.4149    1.0346    1.6892 O   0  0  0  0  0  0  0  0  0  0  0  0
   -3.5649    1.4056    2.5758 H   0  0  0  0  0  0  0  0  0  0  0  0
  1  6  2  0  0  0  0
  1  2  1  0  0  0  0
  2  3  2  0  0  0  0
  3  4  1  0  0  0  0
  3  8  1  0  0  0  0
  4 28  1  0  0  0  0
  5 11  1  0  0  0  0
  5  4  2  0  0  0  0
  6  5  1  0  0  0  0
  7  1  1  0  0  0  0
  8  9  1  0  0  0  0
 10  6  1  0  0  0  0
 12 13  1  0  0  0  0
 13 14  1  0  0  0  0
 14 16  2  0  0  0  0
 15 17  2  0  0  0  0
 15 14  1  0  0  0  0
 16 18  1  0  0  0  0
 16 19  1  0  0  0  0
 17 20  1  0  0  0  0
 18 22  1  0  0  0  0
 20 23  1  0  0  0  0
 20 18  2  0  0  0  0
 21 17  1  0  0  0  0
 24 15  1  0  0  0  0
 25 24  2  0  0  0  0
 26 24  1  0  0  0  0
 27 26  1  0  0  0  0
 28 29  2  0  0  0  0
 28 30  1  0  0  0  0
 30 31  1  0  0  0  0
M  RAD  5   2   2   8   2   9   3  12   3  13   2
M  END
