Coordinates from ORCA-job 1f-Schema5-R6-D+-B3LYPG-6-31G_dp-scan-d49-09-n400
 OpenBabel08231810253D

 31 32  0  0  0  0  0  0  0  0999 V2000
   -4.4964   -0.0518   -3.5835 C   0  0  0  0  0  0  0  0  0  0  0  0
   -3.0432   -0.2113   -3.1680 C   0  0  0  0  0  0  0  0  0  0  0  0
   -2.7928    0.4333   -1.7892 C   0  0  0  0  0  0  0  0  0  0  0  0
   -3.8506    0.9802   -0.9750 C   0  0  0  0  0  0  0  0  0  0  0  0
   -5.1233    1.0056   -1.4570 C   0  0  0  0  0  0  0  0  0  0  0  0
   -5.4160    0.5077   -2.7692 C   0  0  0  0  0  0  0  0  0  0  0  0
   -4.7192   -0.4109   -4.5816 H   0  0  0  0  0  0  0  0  0  0  0  0
   -1.5119    0.4297   -1.4595 N   0  0  0  0  0  0  0  0  0  0  0  0
   -0.3924    0.3773   -1.2888 N   0  0  0  0  0  0  0  0  0  0  0  0
   -6.4362    0.5817   -3.1373 H   0  0  0  0  0  0  0  0  0  0  0  0
   -5.9059    1.4172   -0.8319 H   0  0  0  0  0  0  0  0  0  0  0  0
   -2.3556   -0.6468   -3.6961 N   0  0  0  0  0  0  0  0  0  0  0  0
   -1.3948   -1.0309   -4.3679 N   0  0  0  0  0  0  0  0  0  0  0  0
   -1.0925   -2.3944   -4.4097 C   0  0  0  0  0  0  0  0  0  0  0  0
    0.2169   -2.7388   -4.8338 C   0  0  0  0  0  0  0  0  0  0  0  0
   -2.0541   -3.3933   -4.1637 C   0  0  0  0  0  0  0  0  0  0  0  0
    0.5224   -4.0830   -5.0343 C   0  0  0  0  0  0  0  0  0  0  0  0
   -1.7236   -4.7279   -4.3608 C   0  0  0  0  0  0  0  0  0  0  0  0
   -3.0656   -3.1179   -3.8798 H   0  0  0  0  0  0  0  0  0  0  0  0
   -0.4397   -5.0714   -4.8005 C   0  0  0  0  0  0  0  0  0  0  0  0
    1.5216   -4.3544   -5.3534 H   0  0  0  0  0  0  0  0  0  0  0  0
   -2.4670   -5.4992   -4.1899 H   0  0  0  0  0  0  0  0  0  0  0  0
   -0.1852   -6.1144   -4.9595 H   0  0  0  0  0  0  0  0  0  0  0  0
    1.2740   -1.6799   -4.9206 C   0  0  0  0  0  0  0  0  0  0  0  0
    1.2267   -0.6306   -4.3132 O   0  0  0  0  0  0  0  0  0  0  0  0
    2.2889   -2.0480   -5.7175 O   0  0  0  0  0  0  0  0  0  0  0  0
    2.9565   -1.3404   -5.6917 H   0  0  0  0  0  0  0  0  0  0  0  0
   -3.6240    1.5332    0.4037 C   0  0  0  0  0  0  0  0  0  0  0  0
   -4.5045    2.0089    1.0784 O   0  0  0  0  0  0  0  0  0  0  0  0
   -2.3381    1.4351    0.7967 O   0  0  0  0  0  0  0  0  0  0  0  0
   -2.2749    1.8182    1.6891 H   0  0  0  0  0  0  0  0  0  0  0  0
  1  2  2  0  0  0  0
  1  6  1  0  0  0  0
  2  3  1  0  0  0  0
  3  8  1  0  0  0  0
  3  4  2  0  0  0  0
  4 28  1  0  0  0  0
  5  4  1  0  0  0  0
  5 11  1  0  0  0  0
  6  5  2  0  0  0  0
  7  1  1  0  0  0  0
  8  9  1  0  0  0  0
 10  6  1  0  0  0  0
 12  2  1  0  0  0  0
 13 12  1  0  0  0  0
 14 13  1  0  0  0  0
 14 16  2  0  0  0  0
 15 14  1  0  0  0  0
 16 19  1  0  0  0  0
 17 15  2  0  0  0  0
 17 20  1  0  0  0  0
 18 22  1  0  0  0  0
 18 16  1  0  0  0  0
 20 18  2  0  0  0  0
 21 17  1  0  0  0  0
 23 20  1  0  0  0  0
 24 15  1  0  0  0  0
 24 25  2  0  0  0  0
 26 27  1  0  0  0  0
 26 24  1  0  0  0  0
 28 30  1  0  0  0  0
 28 29  2  0  0  0  0
 30 31  1  0  0  0  0
M  RAD  4   8   2   9   3  12   2  13   2
M  END
