Coordinates from ORCA-job 1f-Schema5-R6-D+-B3LYPG-6-31G_dp-scan-d49-09-n400
 OpenBabel08231810253D

 31 31  0  0  0  0  0  0  0  0999 V2000
   -4.4733   -0.4329   -3.0205 C   0  0  0  0  0  0  0  0  0  0  0  0
   -3.2417   -0.5469   -2.3229 C   0  0  0  0  0  0  0  0  0  0  0  0
   -3.3580   -0.0385   -1.0158 C   0  0  0  0  0  0  0  0  0  0  0  0
   -4.4961    0.5380   -0.3694 C   0  0  0  0  0  0  0  0  0  0  0  0
   -5.6399    0.6001   -1.1453 C   0  0  0  0  0  0  0  0  0  0  0  0
   -5.6271    0.1150   -2.4680 C   0  0  0  0  0  0  0  0  0  0  0  0
   -4.5291   -0.7938   -4.0473 H   0  0  0  0  0  0  0  0  0  0  0  0
   -2.1604   -0.1506   -0.3184 N   0  0  0  0  0  0  0  0  0  0  0  0
   -1.1541   -0.2910    0.1444 N   0  0  0  0  0  0  0  0  0  0  0  0
   -6.5404    0.1760   -3.0548 H   0  0  0  0  0  0  0  0  0  0  0  0
   -6.5347    1.0286   -0.7080 H   0  0  0  0  0  0  0  0  0  0  0  0
   -0.1747    0.7320   -5.1125 N   0  0  0  0  0  0  0  0  0  0  0  0
   -0.1128   -0.3797   -5.0945 N   0  0  0  0  0  0  0  0  0  0  0  0
   -0.1825   -1.7584   -4.9308 C   0  0  0  0  0  0  0  0  0  0  0  0
    0.6647   -2.6077   -5.6860 C   0  0  0  0  0  0  0  0  0  0  0  0
   -1.1270   -2.2058   -3.9965 C   0  0  0  0  0  0  0  0  0  0  0  0
    0.5326   -3.9728   -5.4718 C   0  0  0  0  0  0  0  0  0  0  0  0
   -1.2181   -3.5878   -3.8202 C   0  0  0  0  0  0  0  0  0  0  0  0
   -1.7845   -1.5093   -3.4109 H   0  0  0  0  0  0  0  0  0  0  0  0
   -0.4043   -4.4593   -4.5446 C   0  0  0  0  0  0  0  0  0  0  0  0
    1.1628   -4.6544   -6.0311 H   0  0  0  0  0  0  0  0  0  0  0  0
   -1.9399   -3.9735   -3.1066 H   0  0  0  0  0  0  0  0  0  0  0  0
   -0.4912   -5.5312   -4.3945 H   0  0  0  0  0  0  0  0  0  0  0  0
    1.6344   -2.0085   -6.6505 C   0  0  0  0  0  0  0  0  0  0  0  0
    1.7220   -0.8067   -6.8078 O   0  0  0  0  0  0  0  0  0  0  0  0
    2.3618   -2.9233   -7.2909 O   0  0  0  0  0  0  0  0  0  0  0  0
    2.9676   -2.4634   -7.8988 H   0  0  0  0  0  0  0  0  0  0  0  0
   -4.5682    1.0671    1.0253 C   0  0  0  0  0  0  0  0  0  0  0  0
   -5.5669    1.5365    1.5191 O   0  0  0  0  0  0  0  0  0  0  0  0
   -3.3910    0.9600    1.6865 O   0  0  0  0  0  0  0  0  0  0  0  0
   -3.5308    1.3253    2.5772 H   0  0  0  0  0  0  0  0  0  0  0  0
  1  6  2  0  0  0  0
  1  2  1  0  0  0  0
  2  3  2  0  0  0  0
  3  4  1  0  0  0  0
  3  8  1  0  0  0  0
  4 28  1  0  0  0  0
  5 11  1  0  0  0  0
  5  4  2  0  0  0  0
  6  5  1  0  0  0  0
  7  1  1  0  0  0  0
  8  9  1  0  0  0  0
 10  6  1  0  0  0  0
 12 13  1  0  0  0  0
 13 14  1  0  0  0  0
 14 16  2  0  0  0  0
 15 17  2  0  0  0  0
 15 14  1  0  0  0  0
 16 18  1  0  0  0  0
 16 19  1  0  0  0  0
 17 20  1  0  0  0  0
 18 22  1  0  0  0  0
 20 23  1  0  0  0  0
 20 18  2  0  0  0  0
 21 17  1  0  0  0  0
 24 15  1  0  0  0  0
 25 24  2  0  0  0  0
 26 24  1  0  0  0  0
 27 26  1  0  0  0  0
 28 29  2  0  0  0  0
 28 30  1  0  0  0  0
 30 31  1  0  0  0  0
M  RAD  5   2   2   8   2   9   3  12   3  13   2
M  END
