Coordinates from ORCA-job 1f-Schema5-R6-D+-B3LYPG-6-31G_dp-scan-d49-09-n400
 OpenBabel08231810253D

 31 31  0  0  0  0  0  0  0  0999 V2000
   -3.9639   -0.6890   -2.9943 C   0  0  0  0  0  0  0  0  0  0  0  0
   -2.8079   -0.3724   -2.2608 C   0  0  0  0  0  0  0  0  0  0  0  0
   -3.0557    0.3638   -1.0962 C   0  0  0  0  0  0  0  0  0  0  0  0
   -4.3248    0.7819   -0.5964 C   0  0  0  0  0  0  0  0  0  0  0  0
   -5.4146    0.4142   -1.3691 C   0  0  0  0  0  0  0  0  0  0  0  0
   -5.2359   -0.3130   -2.5599 C   0  0  0  0  0  0  0  0  0  0  0  0
   -3.8777   -1.2417   -3.9272 H   0  0  0  0  0  0  0  0  0  0  0  0
   -1.8905    0.6993   -0.4146 N   0  0  0  0  0  0  0  0  0  0  0  0
   -0.8981    0.9200    0.0419 N   0  0  0  0  0  0  0  0  0  0  0  0
   -6.1103   -0.5802   -3.1470 H   0  0  0  0  0  0  0  0  0  0  0  0
   -6.4019    0.7081   -1.0310 H   0  0  0  0  0  0  0  0  0  0  0  0
   -0.3455   -0.1608   -3.0158 N   0  0  0  0  0  0  0  0  0  0  0  0
   -0.0155   -0.9896   -3.7205 N   0  0  0  0  0  0  0  0  0  0  0  0
   -0.2526   -2.2392   -4.3100 C   0  0  0  0  0  0  0  0  0  0  0  0
    0.4137   -2.5969   -5.4968 C   0  0  0  0  0  0  0  0  0  0  0  0
   -1.1217   -3.0977   -3.6310 C   0  0  0  0  0  0  0  0  0  0  0  0
    0.1708   -3.8700   -6.0103 C   0  0  0  0  0  0  0  0  0  0  0  0
   -1.3425   -4.3639   -4.1703 C   0  0  0  0  0  0  0  0  0  0  0  0
   -1.6019   -2.7569   -2.7198 H   0  0  0  0  0  0  0  0  0  0  0  0
   -0.6984   -4.7462   -5.3499 C   0  0  0  0  0  0  0  0  0  0  0  0
    0.6629   -4.1689   -6.9280 H   0  0  0  0  0  0  0  0  0  0  0  0
   -2.0115   -5.0521   -3.6643 H   0  0  0  0  0  0  0  0  0  0  0  0
   -0.8708   -5.7355   -5.7606 H   0  0  0  0  0  0  0  0  0  0  0  0
    1.3107   -1.6035   -6.1612 C   0  0  0  0  0  0  0  0  0  0  0  0
    1.4397   -0.4640   -5.7618 O   0  0  0  0  0  0  0  0  0  0  0  0
    1.9415   -2.1120   -7.2255 O   0  0  0  0  0  0  0  0  0  0  0  0
    2.4992   -1.4112   -7.6063 H   0  0  0  0  0  0  0  0  0  0  0  0
   -4.5809    1.5615    0.6552 C   0  0  0  0  0  0  0  0  0  0  0  0
   -5.6831    1.8855    1.0263 O   0  0  0  0  0  0  0  0  0  0  0  0
   -3.4425    1.8561    1.3215 O   0  0  0  0  0  0  0  0  0  0  0  0
   -3.6913    2.3569    2.1180 H   0  0  0  0  0  0  0  0  0  0  0  0
  1  6  2  0  0  0  0
  1  2  1  0  0  0  0
  2  3  2  0  0  0  0
  3  4  1  0  0  0  0
  3  8  1  0  0  0  0
  4 28  1  0  0  0  0
  5 11  1  0  0  0  0
  5  4  2  0  0  0  0
  6  5  1  0  0  0  0
  7  1  1  0  0  0  0
  8  9  1  0  0  0  0
 10  6  1  0  0  0  0
 13 12  2  0  0  0  0
 14 13  1  0  0  0  0
 14 16  2  0  0  0  0
 15 14  1  0  0  0  0
 16 19  1  0  0  0  0
 17 15  2  0  0  0  0
 17 20  1  0  0  0  0
 18 22  1  0  0  0  0
 18 16  1  0  0  0  0
 20 18  2  0  0  0  0
 21 17  1  0  0  0  0
 23 20  1  0  0  0  0
 24 25  2  0  0  0  0
 24 15  1  0  0  0  0
 26 24  1  0  0  0  0
 27 26  1  0  0  0  0
 28 29  2  0  0  0  0
 28 30  1  0  0  0  0
 30 31  1  0  0  0  0
M  RAD  4   2   2   8   2   9   3  12   2
M  END
