Coordinates from ORCA-job 1f-Schema5-R6-D+-B3LYPG-6-31G_dp-scan-d49-09-n400
 OpenBabel08231810253D

 31 32  0  0  0  0  0  0  0  0999 V2000
   -4.5455   -0.0771   -3.5370 C   0  0  0  0  0  0  0  0  0  0  0  0
   -3.1045   -0.2336   -3.1387 C   0  0  0  0  0  0  0  0  0  0  0  0
   -2.8076    0.4274   -1.7995 C   0  0  0  0  0  0  0  0  0  0  0  0
   -3.8365    1.0154   -0.9750 C   0  0  0  0  0  0  0  0  0  0  0  0
   -5.1185    1.0500   -1.4339 C   0  0  0  0  0  0  0  0  0  0  0  0
   -5.4462    0.5204   -2.7241 C   0  0  0  0  0  0  0  0  0  0  0  0
   -4.7992   -0.4643   -4.5170 H   0  0  0  0  0  0  0  0  0  0  0  0
   -1.5187    0.4111   -1.4877 N   0  0  0  0  0  0  0  0  0  0  0  0
   -0.3997    0.3490   -1.3259 N   0  0  0  0  0  0  0  0  0  0  0  0
   -6.4723    0.5980   -3.0731 H   0  0  0  0  0  0  0  0  0  0  0  0
   -5.8812    1.4919   -0.8047 H   0  0  0  0  0  0  0  0  0  0  0  0
   -2.3995   -0.7141   -3.6983 N   0  0  0  0  0  0  0  0  0  0  0  0
   -1.4409   -1.0768   -4.3775 N   0  0  0  0  0  0  0  0  0  0  0  0
   -1.1118   -2.4375   -4.4344 C   0  0  0  0  0  0  0  0  0  0  0  0
    0.2157   -2.7512   -4.8197 C   0  0  0  0  0  0  0  0  0  0  0  0
   -2.0658   -3.4530   -4.2441 C   0  0  0  0  0  0  0  0  0  0  0  0
    0.5504   -4.0858   -5.0378 C   0  0  0  0  0  0  0  0  0  0  0  0
   -1.7074   -4.7784   -4.4601 C   0  0  0  0  0  0  0  0  0  0  0  0
   -3.0899   -3.1958   -3.9901 H   0  0  0  0  0  0  0  0  0  0  0  0
   -0.4044   -5.0931   -4.8615 C   0  0  0  0  0  0  0  0  0  0  0  0
    1.5652   -4.3348   -5.3249 H   0  0  0  0  0  0  0  0  0  0  0  0
   -2.4444   -5.5642   -4.3329 H   0  0  0  0  0  0  0  0  0  0  0  0
   -0.1285   -6.1282   -5.0350 H   0  0  0  0  0  0  0  0  0  0  0  0
    1.2519   -1.6707   -4.8394 C   0  0  0  0  0  0  0  0  0  0  0  0
    1.1490   -0.6311   -4.2204 O   0  0  0  0  0  0  0  0  0  0  0  0
    2.3136   -2.0021   -5.5888 O   0  0  0  0  0  0  0  0  0  0  0  0
    2.9617   -1.2793   -5.5207 H   0  0  0  0  0  0  0  0  0  0  0  0
   -3.5739    1.6000    0.3833 C   0  0  0  0  0  0  0  0  0  0  0  0
   -4.4322    2.1115    1.0604 O   0  0  0  0  0  0  0  0  0  0  0  0
   -2.2830    1.4871    0.7562 O   0  0  0  0  0  0  0  0  0  0  0  0
   -2.1968    1.8919    1.6370 H   0  0  0  0  0  0  0  0  0  0  0  0
  1  2  2  0  0  0  0
  1  6  1  0  0  0  0
  2  3  1  0  0  0  0
  3  8  1  0  0  0  0
  3  4  2  0  0  0  0
  4 28  1  0  0  0  0
  5  4  1  0  0  0  0
  5 11  1  0  0  0  0
  6  5  2  0  0  0  0
  7  1  1  0  0  0  0
  8  9  1  0  0  0  0
 10  6  1  0  0  0  0
 12  2  1  0  0  0  0
 13 12  1  0  0  0  0
 14 13  1  0  0  0  0
 14 16  1  0  0  0  0
 15 14  2  0  0  0  0
 16 19  1  0  0  0  0
 17 20  2  0  0  0  0
 17 15  1  0  0  0  0
 18 22  1  0  0  0  0
 18 16  2  0  0  0  0
 20 18  1  0  0  0  0
 21 17  1  0  0  0  0
 23 20  1  0  0  0  0
 24 15  1  0  0  0  0
 24 25  2  0  0  0  0
 26 27  1  0  0  0  0
 26 24  1  0  0  0  0
 28 30  1  0  0  0  0
 28 29  2  0  0  0  0
 30 31  1  0  0  0  0
M  RAD  4   8   2   9   3  12   2  13   2
M  END
