Coordinates from ORCA-job 1f-Schema5-R6-D+-B3LYPG-6-31G_dp-scan-d49-09-n400
 OpenBabel08231810253D

 31 31  0  0  0  0  0  0  0  0999 V2000
   -3.9417   -0.6814   -3.0056 C   0  0  0  0  0  0  0  0  0  0  0  0
   -2.7915   -0.3683   -2.2622 C   0  0  0  0  0  0  0  0  0  0  0  0
   -3.0467    0.3638   -1.0964 C   0  0  0  0  0  0  0  0  0  0  0  0
   -4.3193    0.7802   -0.6044 C   0  0  0  0  0  0  0  0  0  0  0  0
   -5.4036    0.4163   -1.3867 C   0  0  0  0  0  0  0  0  0  0  0  0
   -5.2166   -0.3060   -2.5792 C   0  0  0  0  0  0  0  0  0  0  0  0
   -3.8488   -1.2308   -3.9398 H   0  0  0  0  0  0  0  0  0  0  0  0
   -1.8864    0.6960   -0.4053 N   0  0  0  0  0  0  0  0  0  0  0  0
   -0.8969    0.9141    0.0585 N   0  0  0  0  0  0  0  0  0  0  0  0
   -6.0868   -0.5703   -3.1738 H   0  0  0  0  0  0  0  0  0  0  0  0
   -6.3933    0.7094   -1.0547 H   0  0  0  0  0  0  0  0  0  0  0  0
   -0.3441   -0.1663   -2.9999 N   0  0  0  0  0  0  0  0  0  0  0  0
   -0.0121   -0.9926   -3.7077 N   0  0  0  0  0  0  0  0  0  0  0  0
   -0.2540   -2.2407   -4.2988 C   0  0  0  0  0  0  0  0  0  0  0  0
    0.4021   -2.5943   -5.4926 C   0  0  0  0  0  0  0  0  0  0  0  0
   -1.1143   -3.1039   -3.6142 C   0  0  0  0  0  0  0  0  0  0  0  0
    0.1576   -3.8667   -6.0073 C   0  0  0  0  0  0  0  0  0  0  0  0
   -1.3370   -4.3692   -4.1547 C   0  0  0  0  0  0  0  0  0  0  0  0
   -1.5863   -2.7679   -2.6972 H   0  0  0  0  0  0  0  0  0  0  0  0
   -0.7031   -4.7469   -5.3413 C   0  0  0  0  0  0  0  0  0  0  0  0
    0.6419   -4.1617   -6.9303 H   0  0  0  0  0  0  0  0  0  0  0  0
   -1.9993   -5.0605   -3.6441 H   0  0  0  0  0  0  0  0  0  0  0  0
   -0.8768   -5.7356   -5.7529 H   0  0  0  0  0  0  0  0  0  0  0  0
    1.2895   -1.5969   -6.1638 C   0  0  0  0  0  0  0  0  0  0  0  0
    1.4159   -0.4564   -5.7664 O   0  0  0  0  0  0  0  0  0  0  0  0
    1.9140   -2.1026   -7.2333 O   0  0  0  0  0  0  0  0  0  0  0  0
    2.4648   -1.3989   -7.6188 H   0  0  0  0  0  0  0  0  0  0  0  0
   -4.5842    1.5544    0.6488 C   0  0  0  0  0  0  0  0  0  0  0  0
   -5.6889    1.8780    1.0126 O   0  0  0  0  0  0  0  0  0  0  0  0
   -3.4505    1.8452    1.3246 O   0  0  0  0  0  0  0  0  0  0  0  0
   -3.7046    2.3431    2.1212 H   0  0  0  0  0  0  0  0  0  0  0  0
  1  6  2  0  0  0  0
  1  2  1  0  0  0  0
  2  3  2  0  0  0  0
  3  4  1  0  0  0  0
  3  8  1  0  0  0  0
  4 28  1  0  0  0  0
  5 11  1  0  0  0  0
  5  4  2  0  0  0  0
  6  5  1  0  0  0  0
  7  1  1  0  0  0  0
  8  9  1  0  0  0  0
 10  6  1  0  0  0  0
 13 12  2  0  0  0  0
 14 13  1  0  0  0  0
 14 16  2  0  0  0  0
 15 14  1  0  0  0  0
 16 19  1  0  0  0  0
 17 15  2  0  0  0  0
 17 20  1  0  0  0  0
 18 22  1  0  0  0  0
 18 16  1  0  0  0  0
 20 18  2  0  0  0  0
 21 17  1  0  0  0  0
 23 20  1  0  0  0  0
 24 25  2  0  0  0  0
 24 15  1  0  0  0  0
 26 24  1  0  0  0  0
 27 26  1  0  0  0  0
 28 29  2  0  0  0  0
 28 30  1  0  0  0  0
 30 31  1  0  0  0  0
M  RAD  4   2   2   8   2   9   3  12   2
M  END
