Coordinates from ORCA-job 1f-Schema5-R6-D+-B3LYPG-6-31G_dp-scan-d49-09-n400
 OpenBabel08231810253D

 31 31  0  0  0  0  0  0  0  0999 V2000
   -3.2321   -0.5358   -3.3711 C   0  0  0  0  0  0  0  0  0  0  0  0
   -2.2895   -0.3308   -2.3689 C   0  0  0  0  0  0  0  0  0  0  0  0
   -2.7239    0.2767   -1.1852 C   0  0  0  0  0  0  0  0  0  0  0  0
   -4.0736    0.6404   -0.9184 C   0  0  0  0  0  0  0  0  0  0  0  0
   -4.9822    0.3837   -1.9361 C   0  0  0  0  0  0  0  0  0  0  0  0
   -4.5683   -0.1894   -3.1498 C   0  0  0  0  0  0  0  0  0  0  0  0
   -2.9337   -0.9659   -4.3213 H   0  0  0  0  0  0  0  0  0  0  0  0
   -1.7193    0.5326   -0.2643 N   0  0  0  0  0  0  0  0  0  0  0  0
   -0.8456    0.7197    0.3992 N   0  0  0  0  0  0  0  0  0  0  0  0
   -5.3040   -0.3626   -3.9297 H   0  0  0  0  0  0  0  0  0  0  0  0
   -6.0196    0.6501   -1.7661 H   0  0  0  0  0  0  0  0  0  0  0  0
   -0.3585   -0.2522   -2.5661 N   0  0  0  0  0  0  0  0  0  0  0  0
    0.1533   -1.0308   -3.2996 N   0  0  0  0  0  0  0  0  0  0  0  0
   -0.3154   -2.2117   -3.9264 C   0  0  0  0  0  0  0  0  0  0  0  0
   -0.0062   -2.4598   -5.2787 C   0  0  0  0  0  0  0  0  0  0  0  0
   -0.9380   -3.1792   -3.1321 C   0  0  0  0  0  0  0  0  0  0  0  0
   -0.3625   -3.6941   -5.8265 C   0  0  0  0  0  0  0  0  0  0  0  0
   -1.2796   -4.4071   -3.7016 C   0  0  0  0  0  0  0  0  0  0  0  0
   -1.1111   -2.9848   -2.0798 H   0  0  0  0  0  0  0  0  0  0  0  0
   -0.9953   -4.6633   -5.0435 C   0  0  0  0  0  0  0  0  0  0  0  0
   -0.1423   -3.8854   -6.8702 H   0  0  0  0  0  0  0  0  0  0  0  0
   -1.7537   -5.1668   -3.0885 H   0  0  0  0  0  0  0  0  0  0  0  0
   -1.2584   -5.6207   -5.4806 H   0  0  0  0  0  0  0  0  0  0  0  0
    0.6153   -1.3730   -6.0873 C   0  0  0  0  0  0  0  0  0  0  0  0
    0.6910   -0.2215   -5.7071 O   0  0  0  0  0  0  0  0  0  0  0  0
    1.0695   -1.8040   -7.2751 O   0  0  0  0  0  0  0  0  0  0  0  0
    1.4460   -1.0365   -7.7392 H   0  0  0  0  0  0  0  0  0  0  0  0
   -4.5894    1.2670    0.3443 C   0  0  0  0  0  0  0  0  0  0  0  0
   -5.7488    1.5528    0.5103 O   0  0  0  0  0  0  0  0  0  0  0  0
   -3.6122    1.4632    1.2529 O   0  0  0  0  0  0  0  0  0  0  0  0
   -4.0126    1.8721    2.0408 H   0  0  0  0  0  0  0  0  0  0  0  0
  1  6  2  0  0  0  0
  1  2  1  0  0  0  0
  2  3  2  0  0  0  0
  3  4  1  0  0  0  0
  3  8  1  0  0  0  0
  4 28  1  0  0  0  0
  5 11  1  0  0  0  0
  5  4  2  0  0  0  0
  6  5  1  0  0  0  0
  7  1  1  0  0  0  0
  8  9  1  0  0  0  0
 10  6  1  0  0  0  0
 13 12  2  0  0  0  0
 14 13  1  0  0  0  0
 14 16  2  0  0  0  0
 15 14  1  0  0  0  0
 16 19  1  0  0  0  0
 17 15  2  0  0  0  0
 17 20  1  0  0  0  0
 18 16  1  0  0  0  0
 18 22  1  0  0  0  0
 20 18  2  0  0  0  0
 21 17  1  0  0  0  0
 23 20  1  0  0  0  0
 24 25  2  0  0  0  0
 24 15  1  0  0  0  0
 26 24  1  0  0  0  0
 27 26  1  0  0  0  0
 28 29  2  0  0  0  0
 28 30  1  0  0  0  0
 30 31  1  0  0  0  0
M  RAD  4   2   2   8   2   9   3  12   2
M  END
