Coordinates from ORCA-job 1f-Schema5-R6-D+-B3LYPG-6-31G_dp-scan-d49-09-n400
 OpenBabel08231810253D

 31 31  0  0  0  0  0  0  0  0999 V2000
   -4.1377   -0.5958   -2.9973 C   0  0  0  0  0  0  0  0  0  0  0  0
   -2.9388   -0.3375   -2.3040 C   0  0  0  0  0  0  0  0  0  0  0  0
   -3.1370    0.3423   -1.0933 C   0  0  0  0  0  0  0  0  0  0  0  0
   -4.3771    0.7571   -0.5198 C   0  0  0  0  0  0  0  0  0  0  0  0
   -5.5035    0.4468   -1.2636 C   0  0  0  0  0  0  0  0  0  0  0  0
   -5.3845   -0.2237   -2.4950 C   0  0  0  0  0  0  0  0  0  0  0  0
   -4.1025   -1.1023   -3.9598 H   0  0  0  0  0  0  0  0  0  0  0  0
   -1.9426    0.6202   -0.4392 N   0  0  0  0  0  0  0  0  0  0  0  0
   -0.9324    0.8004   -0.0032 N   0  0  0  0  0  0  0  0  0  0  0  0
   -6.2865   -0.4480   -3.0581 H   0  0  0  0  0  0  0  0  0  0  0  0
   -6.4710    0.7399   -0.8719 H   0  0  0  0  0  0  0  0  0  0  0  0
   -0.4002    0.0468   -3.3822 N   0  0  0  0  0  0  0  0  0  0  0  0
   -0.0908   -0.8453   -4.0025 N   0  0  0  0  0  0  0  0  0  0  0  0
   -0.2506   -2.1596   -4.4603 C   0  0  0  0  0  0  0  0  0  0  0  0
    0.5071   -2.6293   -5.5488 C   0  0  0  0  0  0  0  0  0  0  0  0
   -1.1657   -2.9450   -3.7552 C   0  0  0  0  0  0  0  0  0  0  0  0
    0.3133   -3.9543   -5.9336 C   0  0  0  0  0  0  0  0  0  0  0  0
   -1.3355   -4.2657   -4.1669 C   0  0  0  0  0  0  0  0  0  0  0  0
   -1.7206   -2.4973   -2.9331 H   0  0  0  0  0  0  0  0  0  0  0  0
   -0.5994   -4.7643   -5.2456 C   0  0  0  0  0  0  0  0  0  0  0  0
    0.8766   -4.3469   -6.7718 H   0  0  0  0  0  0  0  0  0  0  0  0
   -2.0390   -4.9040   -3.6426 H   0  0  0  0  0  0  0  0  0  0  0  0
   -0.7343   -5.7948   -5.5573 H   0  0  0  0  0  0  0  0  0  0  0  0
    1.4518   -1.6981   -6.2376 C   0  0  0  0  0  0  0  0  0  0  0  0
    1.5648   -0.5308   -5.9214 O   0  0  0  0  0  0  0  0  0  0  0  0
    2.1390   -2.2933   -7.2165 O   0  0  0  0  0  0  0  0  0  0  0  0
    2.7279   -1.6308   -7.6188 H   0  0  0  0  0  0  0  0  0  0  0  0
   -4.5693    1.4783    0.7765 C   0  0  0  0  0  0  0  0  0  0  0  0
   -5.6494    1.8038    1.2079 O   0  0  0  0  0  0  0  0  0  0  0  0
   -3.4007    1.7234    1.4113 O   0  0  0  0  0  0  0  0  0  0  0  0
   -3.6122    2.1906    2.2382 H   0  0  0  0  0  0  0  0  0  0  0  0
  1  6  2  0  0  0  0
  1  2  1  0  0  0  0
  2  3  2  0  0  0  0
  3  4  1  0  0  0  0
  3  8  1  0  0  0  0
  4 28  1  0  0  0  0
  5 11  1  0  0  0  0
  5  4  2  0  0  0  0
  6  5  1  0  0  0  0
  7  1  1  0  0  0  0
  8  9  1  0  0  0  0
 10  6  1  0  0  0  0
 13 12  2  0  0  0  0
 14 13  1  0  0  0  0
 14 16  2  0  0  0  0
 15 14  1  0  0  0  0
 16 19  1  0  0  0  0
 17 15  2  0  0  0  0
 17 20  1  0  0  0  0
 18 16  1  0  0  0  0
 18 22  1  0  0  0  0
 20 18  2  0  0  0  0
 21 17  1  0  0  0  0
 23 20  1  0  0  0  0
 24 25  2  0  0  0  0
 24 15  1  0  0  0  0
 26 24  1  0  0  0  0
 27 26  1  0  0  0  0
 28 29  2  0  0  0  0
 28 30  1  0  0  0  0
 30 31  1  0  0  0  0
M  RAD  4   2   2   8   2   9   3  12   2
M  END
