Coordinates from ORCA-job 1f-Schema5-R6-D+-B3LYPG-6-31G_dp-scan-d49-09-n400
 OpenBabel08231810253D

 31 31  0  0  0  0  0  0  0  0999 V2000
   -4.2835   -0.5031   -3.0228 C   0  0  0  0  0  0  0  0  0  0  0  0
   -3.0520   -0.3554   -2.3468 C   0  0  0  0  0  0  0  0  0  0  0  0
   -3.2021    0.2646   -1.0949 C   0  0  0  0  0  0  0  0  0  0  0  0
   -4.4060    0.7214   -0.4753 C   0  0  0  0  0  0  0  0  0  0  0  0
   -5.5599    0.5213   -1.2135 C   0  0  0  0  0  0  0  0  0  0  0  0
   -5.4985   -0.0881   -2.4809 C   0  0  0  0  0  0  0  0  0  0  0  0
   -4.2967   -0.9591   -4.0113 H   0  0  0  0  0  0  0  0  0  0  0  0
   -1.9873    0.4241   -0.4397 N   0  0  0  0  0  0  0  0  0  0  0  0
   -0.9646    0.5068   -0.0019 N   0  0  0  0  0  0  0  0  0  0  0  0
   -6.4207   -0.2287   -3.0386 H   0  0  0  0  0  0  0  0  0  0  0  0
   -6.5020    0.8500   -0.7895 H   0  0  0  0  0  0  0  0  0  0  0  0
   -0.5158    0.2533   -3.8195 N   0  0  0  0  0  0  0  0  0  0  0  0
   -0.2086   -0.7069   -4.3156 N   0  0  0  0  0  0  0  0  0  0  0  0
   -0.2714   -2.0757   -4.6033 C   0  0  0  0  0  0  0  0  0  0  0  0
    0.5676   -2.6406   -5.5816 C   0  0  0  0  0  0  0  0  0  0  0  0
   -1.2000   -2.7974   -3.8510 C   0  0  0  0  0  0  0  0  0  0  0  0
    0.4453   -4.0098   -5.8013 C   0  0  0  0  0  0  0  0  0  0  0  0
   -1.2956   -4.1662   -4.0990 C   0  0  0  0  0  0  0  0  0  0  0  0
   -1.8154   -2.2603   -3.1235 H   0  0  0  0  0  0  0  0  0  0  0  0
   -0.4792   -4.7637   -5.0640 C   0  0  0  0  0  0  0  0  0  0  0  0
    1.0721   -4.4825   -6.5483 H   0  0  0  0  0  0  0  0  0  0  0  0
   -2.0065   -4.7637   -3.5379 H   0  0  0  0  0  0  0  0  0  0  0  0
   -0.5597   -5.8302   -5.2494 H   0  0  0  0  0  0  0  0  0  0  0  0
    1.5199   -1.7567   -6.3191 C   0  0  0  0  0  0  0  0  0  0  0  0
    1.5866   -0.5614   -6.1102 O   0  0  0  0  0  0  0  0  0  0  0  0
    2.2637   -2.4222   -7.2046 O   0  0  0  0  0  0  0  0  0  0  0  0
    2.8561   -1.7871   -7.6446 H   0  0  0  0  0  0  0  0  0  0  0  0
   -4.5351    1.3805    0.8607 C   0  0  0  0  0  0  0  0  0  0  0  0
   -5.5867    1.7464    1.3296 O   0  0  0  0  0  0  0  0  0  0  0  0
   -3.3453    1.5195    1.4895 O   0  0  0  0  0  0  0  0  0  0  0  0
   -3.5196    1.9536    2.3427 H   0  0  0  0  0  0  0  0  0  0  0  0
  1  6  2  0  0  0  0
  1  2  1  0  0  0  0
  2  3  2  0  0  0  0
  3  4  1  0  0  0  0
  3  8  1  0  0  0  0
  4 28  1  0  0  0  0
  5 11  1  0  0  0  0
  5  4  2  0  0  0  0
  6  5  1  0  0  0  0
  7  1  1  0  0  0  0
  8  9  1  0  0  0  0
 10  6  1  0  0  0  0
 13 12  1  0  0  0  0
 14 13  1  0  0  0  0
 14 16  2  0  0  0  0
 15 14  1  0  0  0  0
 16 19  1  0  0  0  0
 17 15  2  0  0  0  0
 17 20  1  0  0  0  0
 18 16  1  0  0  0  0
 18 22  1  0  0  0  0
 20 18  2  0  0  0  0
 21 17  1  0  0  0  0
 23 20  1  0  0  0  0
 24 25  2  0  0  0  0
 24 15  1  0  0  0  0
 26 24  1  0  0  0  0
 27 26  1  0  0  0  0
 28 29  2  0  0  0  0
 28 30  1  0  0  0  0
 30 31  1  0  0  0  0
M  RAD  5   2   2   8   2   9   3  12   3  13   2
M  END
