Coordinates from ORCA-job 1f-Schema5-R6-D+-B3LYPG-6-31G_dp-scan-d49-09-n400
 OpenBabel08231810253D

 31 31  0  0  0  0  0  0  0  0999 V2000
   -3.5787   -0.7055   -3.1472 C   0  0  0  0  0  0  0  0  0  0  0  0
   -2.5290   -0.4039   -2.2760 C   0  0  0  0  0  0  0  0  0  0  0  0
   -2.8720    0.3252   -1.1337 C   0  0  0  0  0  0  0  0  0  0  0  0
   -4.1868    0.7413   -0.7771 C   0  0  0  0  0  0  0  0  0  0  0  0
   -5.1875    0.3918   -1.6718 C   0  0  0  0  0  0  0  0  0  0  0  0
   -4.8878   -0.3194   -2.8464 C   0  0  0  0  0  0  0  0  0  0  0  0
   -3.3856   -1.2472   -4.0685 H   0  0  0  0  0  0  0  0  0  0  0  0
   -1.7844    0.6529   -0.3317 N   0  0  0  0  0  0  0  0  0  0  0  0
   -0.8449    0.8753    0.2228 N   0  0  0  0  0  0  0  0  0  0  0  0
   -5.6941   -0.5694   -3.5302 H   0  0  0  0  0  0  0  0  0  0  0  0
   -6.2037    0.6899   -1.4390 H   0  0  0  0  0  0  0  0  0  0  0  0
   -0.3477   -0.3251   -2.6427 N   0  0  0  0  0  0  0  0  0  0  0  0
    0.0802   -1.0941   -3.3960 N   0  0  0  0  0  0  0  0  0  0  0  0
   -0.2879   -2.2774   -4.0689 C   0  0  0  0  0  0  0  0  0  0  0  0
    0.1845   -2.5143   -5.3739 C   0  0  0  0  0  0  0  0  0  0  0  0
   -1.0215   -3.2303   -3.3568 C   0  0  0  0  0  0  0  0  0  0  0  0
   -0.1232   -3.7387   -5.9686 C   0  0  0  0  0  0  0  0  0  0  0  0
   -1.3108   -4.4468   -3.9750 C   0  0  0  0  0  0  0  0  0  0  0  0
   -1.3358   -3.0207   -2.3415 H   0  0  0  0  0  0  0  0  0  0  0  0
   -0.8639   -4.6993   -5.2734 C   0  0  0  0  0  0  0  0  0  0  0  0
    0.2200   -3.9311   -6.9781 H   0  0  0  0  0  0  0  0  0  0  0  0
   -1.8747   -5.2001   -3.4345 H   0  0  0  0  0  0  0  0  0  0  0  0
   -1.0870   -5.6497   -5.7466 H   0  0  0  0  0  0  0  0  0  0  0  0
    0.9344   -1.4374   -6.0846 C   0  0  0  0  0  0  0  0  0  0  0  0
    1.0407   -0.3072   -5.6530 O   0  0  0  0  0  0  0  0  0  0  0  0
    1.4681   -1.8574   -7.2407 O   0  0  0  0  0  0  0  0  0  0  0  0
    1.9279   -1.1012   -7.6447 H   0  0  0  0  0  0  0  0  0  0  0  0
   -4.5763    1.5055    0.4522 C   0  0  0  0  0  0  0  0  0  0  0  0
   -5.7115    1.8326    0.6969 O   0  0  0  0  0  0  0  0  0  0  0  0
   -3.5174    1.7761    1.2448 O   0  0  0  0  0  0  0  0  0  0  0  0
   -3.8442    2.2683    2.0184 H   0  0  0  0  0  0  0  0  0  0  0  0
  1  6  2  0  0  0  0
  1  2  1  0  0  0  0
  2  3  2  0  0  0  0
  3  4  1  0  0  0  0
  3  8  1  0  0  0  0
  4 28  1  0  0  0  0
  5 11  1  0  0  0  0
  5  4  2  0  0  0  0
  6  5  1  0  0  0  0
  7  1  1  0  0  0  0
  8  9  1  0  0  0  0
 10  6  1  0  0  0  0
 13 12  2  0  0  0  0
 14 13  1  0  0  0  0
 14 16  2  0  0  0  0
 15 14  1  0  0  0  0
 16 19  1  0  0  0  0
 17 15  2  0  0  0  0
 17 20  1  0  0  0  0
 18 22  1  0  0  0  0
 18 16  1  0  0  0  0
 20 18  2  0  0  0  0
 21 17  1  0  0  0  0
 23 20  1  0  0  0  0
 24 25  2  0  0  0  0
 24 15  1  0  0  0  0
 26 24  1  0  0  0  0
 27 26  1  0  0  0  0
 28 29  2  0  0  0  0
 28 30  1  0  0  0  0
 30 31  1  0  0  0  0
M  RAD  4   2   2   8   2   9   3  12   2
M  END
