Coordinates from ORCA-job 1f-Schema5-R6-D+-B3LYPG-6-31G_dp-scan-d49-09-n400
 OpenBabel08231810253D

 31 31  0  0  0  0  0  0  0  0999 V2000
   -4.3308   -0.4079   -3.0829 C   0  0  0  0  0  0  0  0  0  0  0  0
   -3.1468   -0.5699   -2.3176 C   0  0  0  0  0  0  0  0  0  0  0  0
   -3.2957   -0.0114   -1.0342 C   0  0  0  0  0  0  0  0  0  0  0  0
   -4.4281    0.6533   -0.4680 C   0  0  0  0  0  0  0  0  0  0  0  0
   -5.5241    0.7600   -1.3062 C   0  0  0  0  0  0  0  0  0  0  0  0
   -5.4745    0.2299   -2.6102 C   0  0  0  0  0  0  0  0  0  0  0  0
   -4.3583   -0.8025   -4.0983 H   0  0  0  0  0  0  0  0  0  0  0  0
   -2.1459   -0.1723   -0.2692 N   0  0  0  0  0  0  0  0  0  0  0  0
   -1.1777   -0.3576    0.2544 N   0  0  0  0  0  0  0  0  0  0  0  0
   -6.3504    0.3272   -3.2468 H   0  0  0  0  0  0  0  0  0  0  0  0
   -6.4116    1.2562   -0.9299 H   0  0  0  0  0  0  0  0  0  0  0  0
   -0.6210    0.5157   -4.5263 N   0  0  0  0  0  0  0  0  0  0  0  0
   -0.3731   -0.5516   -4.7309 N   0  0  0  0  0  0  0  0  0  0  0  0
   -0.2953   -1.9434   -4.7414 C   0  0  0  0  0  0  0  0  0  0  0  0
    0.5701   -2.6124   -5.6346 C   0  0  0  0  0  0  0  0  0  0  0  0
   -1.1315   -2.5733   -3.8140 C   0  0  0  0  0  0  0  0  0  0  0  0
    0.5769   -4.0000   -5.5714 C   0  0  0  0  0  0  0  0  0  0  0  0
   -1.0921   -3.9685   -3.7888 C   0  0  0  0  0  0  0  0  0  0  0  0
   -1.7869   -1.9475   -3.1642 H   0  0  0  0  0  0  0  0  0  0  0  0
   -0.2493   -4.6706   -4.6537 C   0  0  0  0  0  0  0  0  0  0  0  0
    1.2260   -4.5550   -6.2386 H   0  0  0  0  0  0  0  0  0  0  0  0
   -1.7256   -4.5041   -3.0889 H   0  0  0  0  0  0  0  0  0  0  0  0
   -0.2283   -5.7560   -4.6212 H   0  0  0  0  0  0  0  0  0  0  0  0
    1.4053   -1.8051   -6.5713 C   0  0  0  0  0  0  0  0  0  0  0  0
    1.3596   -0.5901   -6.5796 O   0  0  0  0  0  0  0  0  0  0  0  0
    2.1753   -2.5523   -7.3612 O   0  0  0  0  0  0  0  0  0  0  0  0
    2.6878   -1.9613   -7.9410 H   0  0  0  0  0  0  0  0  0  0  0  0
   -4.5408    1.2297    0.9058 C   0  0  0  0  0  0  0  0  0  0  0  0
   -5.5303    1.7824    1.3258 O   0  0  0  0  0  0  0  0  0  0  0  0
   -3.4108    1.0692    1.6342 O   0  0  0  0  0  0  0  0  0  0  0  0
   -3.5731    1.4719    2.5048 H   0  0  0  0  0  0  0  0  0  0  0  0
  1  6  2  0  0  0  0
  1  2  1  0  0  0  0
  2  3  2  0  0  0  0
  3  4  1  0  0  0  0
  3  8  1  0  0  0  0
  4 28  1  0  0  0  0
  5 11  1  0  0  0  0
  5  4  2  0  0  0  0
  6  5  1  0  0  0  0
  7  1  1  0  0  0  0
  8  9  1  0  0  0  0
 10  6  1  0  0  0  0
 13 12  1  0  0  0  0
 14 13  1  0  0  0  0
 14 16  2  0  0  0  0
 15 17  2  0  0  0  0
 15 14  1  0  0  0  0
 16 18  1  0  0  0  0
 16 19  1  0  0  0  0
 17 20  1  0  0  0  0
 18 22  1  0  0  0  0
 20 23  1  0  0  0  0
 20 18  2  0  0  0  0
 21 17  1  0  0  0  0
 24 15  1  0  0  0  0
 25 24  2  0  0  0  0
 26 24  1  0  0  0  0
 27 26  1  0  0  0  0
 28 29  2  0  0  0  0
 28 30  1  0  0  0  0
 30 31  1  0  0  0  0
M  RAD  5   2   2   8   2   9   3  12   3  13   2
M  END
