Coordinates from ORCA-job 1f-Schema5-R6-D+-B3LYPG-6-31G_dp-scan-d49-09-n400
 OpenBabel08231810253D

 31 32  0  0  0  0  0  0  0  0999 V2000
   -2.8050    0.0175   -3.6513 C   0  0  0  0  0  0  0  0  0  0  0  0
   -1.9467   -0.0465   -2.5230 C   0  0  0  0  0  0  0  0  0  0  0  0
   -2.5346    0.2682   -1.2491 C   0  0  0  0  0  0  0  0  0  0  0  0
   -3.9258    0.5416   -1.0827 C   0  0  0  0  0  0  0  0  0  0  0  0
   -4.7091    0.5480   -2.2202 C   0  0  0  0  0  0  0  0  0  0  0  0
   -4.1467    0.3055   -3.4924 C   0  0  0  0  0  0  0  0  0  0  0  0
   -2.3604   -0.1226   -4.6312 H   0  0  0  0  0  0  0  0  0  0  0  0
   -1.6589    0.3103   -0.2101 N   0  0  0  0  0  0  0  0  0  0  0  0
   -0.8601    0.3713    0.5716 N   0  0  0  0  0  0  0  0  0  0  0  0
   -4.7874    0.3431   -4.3677 H   0  0  0  0  0  0  0  0  0  0  0  0
   -5.7657    0.7629   -2.1057 H   0  0  0  0  0  0  0  0  0  0  0  0
   -0.6430   -0.1413   -2.6244 N   0  0  0  0  0  0  0  0  0  0  0  0
    0.0322   -0.8718   -3.3786 N   0  0  0  0  0  0  0  0  0  0  0  0
   -0.4559   -2.1249   -3.8327 C   0  0  0  0  0  0  0  0  0  0  0  0
   -0.2354   -2.4950   -5.1798 C   0  0  0  0  0  0  0  0  0  0  0  0
   -0.9210   -3.0728   -2.9094 C   0  0  0  0  0  0  0  0  0  0  0  0
   -0.4810   -3.8073   -5.5788 C   0  0  0  0  0  0  0  0  0  0  0  0
   -1.1580   -4.3837   -3.3261 C   0  0  0  0  0  0  0  0  0  0  0  0
   -1.0199   -2.8040   -1.8627 H   0  0  0  0  0  0  0  0  0  0  0  0
   -0.9369   -4.7530   -4.6538 C   0  0  0  0  0  0  0  0  0  0  0  0
   -0.3333   -4.0786   -6.6182 H   0  0  0  0  0  0  0  0  0  0  0  0
   -1.5000   -5.1196   -2.6056 H   0  0  0  0  0  0  0  0  0  0  0  0
   -1.1211   -5.7734   -4.9721 H   0  0  0  0  0  0  0  0  0  0  0  0
    0.1041   -1.4097   -6.1348 C   0  0  0  0  0  0  0  0  0  0  0  0
   -0.1079   -0.2333   -5.8875 O   0  0  0  0  0  0  0  0  0  0  0  0
    0.6319   -1.8485   -7.2836 O   0  0  0  0  0  0  0  0  0  0  0  0
    0.7961   -1.0749   -7.8506 H   0  0  0  0  0  0  0  0  0  0  0  0
   -4.5982    0.8307    0.2289 C   0  0  0  0  0  0  0  0  0  0  0  0
   -5.7769    1.0659    0.3227 O   0  0  0  0  0  0  0  0  0  0  0  0
   -3.7386    0.7887    1.2659 O   0  0  0  0  0  0  0  0  0  0  0  0
   -4.2377    0.9897    2.0776 H   0  0  0  0  0  0  0  0  0  0  0  0
  1  6  2  0  0  0  0
  1  2  1  0  0  0  0
  2  3  2  0  0  0  0
  3  4  1  0  0  0  0
  3  8  1  0  0  0  0
  4 28  1  0  0  0  0
  5 11  1  0  0  0  0
  5  4  2  0  0  0  0
  6  5  1  0  0  0  0
  7  1  1  0  0  0  0
  8  9  1  0  0  0  0
 10  6  1  0  0  0  0
 12  2  1  0  0  0  0
 13 12  1  0  0  0  0
 14 13  1  0  0  0  0
 14 16  2  0  0  0  0
 15 14  1  0  0  0  0
 16 19  1  0  0  0  0
 17 15  2  0  0  0  0
 17 20  1  0  0  0  0
 18 16  1  0  0  0  0
 18 22  1  0  0  0  0
 20 18  2  0  0  0  0
 21 17  1  0  0  0  0
 23 20  1  0  0  0  0
 24 25  2  0  0  0  0
 24 15  1  0  0  0  0
 26 24  1  0  0  0  0
 27 26  1  0  0  0  0
 28 29  2  0  0  0  0
 28 30  1  0  0  0  0
 30 31  1  0  0  0  0
M  RAD  4   8   2   9   3  12   2  13   2
M  END
