Coordinates from ORCA-job 1f-Schema5-R6-D+-B3LYPG-6-31G_dp-scan-d49-09-n400
 OpenBabel08231810253D

 31 31  0  0  0  0  0  0  0  0999 V2000
   -4.4751   -0.4725   -2.9974 C   0  0  0  0  0  0  0  0  0  0  0  0
   -3.2345   -0.5384   -2.3096 C   0  0  0  0  0  0  0  0  0  0  0  0
   -3.3573   -0.0236   -1.0056 C   0  0  0  0  0  0  0  0  0  0  0  0
   -4.5092    0.5184   -0.3537 C   0  0  0  0  0  0  0  0  0  0  0  0
   -5.6612    0.5337   -1.1197 C   0  0  0  0  0  0  0  0  0  0  0  0
   -5.6428    0.0385   -2.4387 C   0  0  0  0  0  0  0  0  0  0  0  0
   -4.5267   -0.8419   -4.0214 H   0  0  0  0  0  0  0  0  0  0  0  0
   -2.1505   -0.0884   -0.3182 N   0  0  0  0  0  0  0  0  0  0  0  0
   -1.1358   -0.1898    0.1364 N   0  0  0  0  0  0  0  0  0  0  0  0
   -6.5628    0.0626   -3.0176 H   0  0  0  0  0  0  0  0  0  0  0  0
   -6.5666    0.9344   -0.6781 H   0  0  0  0  0  0  0  0  0  0  0  0
   -0.0224    0.7601   -5.1164 N   0  0  0  0  0  0  0  0  0  0  0  0
   -0.0126   -0.3534   -5.0979 N   0  0  0  0  0  0  0  0  0  0  0  0
   -0.1409   -1.7284   -4.9410 C   0  0  0  0  0  0  0  0  0  0  0  0
    0.6757   -2.6072   -5.6968 C   0  0  0  0  0  0  0  0  0  0  0  0
   -1.1077   -2.1446   -4.0143 C   0  0  0  0  0  0  0  0  0  0  0  0
    0.4881   -3.9672   -5.4922 C   0  0  0  0  0  0  0  0  0  0  0  0
   -1.2547   -3.5231   -3.8480 C   0  0  0  0  0  0  0  0  0  0  0  0
   -1.7474   -1.4371   -3.4234 H   0  0  0  0  0  0  0  0  0  0  0  0
   -0.4725   -4.4220   -4.5735 C   0  0  0  0  0  0  0  0  0  0  0  0
    1.0939   -4.6696   -6.0526 H   0  0  0  0  0  0  0  0  0  0  0  0
   -1.9959   -3.8822   -3.1405 H   0  0  0  0  0  0  0  0  0  0  0  0
   -0.6032   -5.4905   -4.4311 H   0  0  0  0  0  0  0  0  0  0  0  0
    1.6743   -2.0428   -6.6530 C   0  0  0  0  0  0  0  0  0  0  0  0
    1.8113   -0.8449   -6.8041 O   0  0  0  0  0  0  0  0  0  0  0  0
    2.3682   -2.9831   -7.2937 O   0  0  0  0  0  0  0  0  0  0  0  0
    2.9953   -2.5448   -7.8959 H   0  0  0  0  0  0  0  0  0  0  0  0
   -4.5874    1.0570    1.0370 C   0  0  0  0  0  0  0  0  0  0  0  0
   -5.5971    1.4970    1.5354 O   0  0  0  0  0  0  0  0  0  0  0  0
   -3.3997    1.0032    1.6859 O   0  0  0  0  0  0  0  0  0  0  0  0
   -3.5438    1.3734    2.5739 H   0  0  0  0  0  0  0  0  0  0  0  0
  1  6  2  0  0  0  0
  1  2  1  0  0  0  0
  2  3  2  0  0  0  0
  3  4  1  0  0  0  0
  3  8  1  0  0  0  0
  4 28  1  0  0  0  0
  5 11  1  0  0  0  0
  5  4  2  0  0  0  0
  6  5  1  0  0  0  0
  7  1  1  0  0  0  0
  8  9  1  0  0  0  0
 10  6  1  0  0  0  0
 12 13  1  0  0  0  0
 13 14  1  0  0  0  0
 14 16  2  0  0  0  0
 15 17  2  0  0  0  0
 15 14  1  0  0  0  0
 16 18  1  0  0  0  0
 16 19  1  0  0  0  0
 17 20  1  0  0  0  0
 18 22  1  0  0  0  0
 20 23  1  0  0  0  0
 20 18  2  0  0  0  0
 21 17  1  0  0  0  0
 24 15  1  0  0  0  0
 25 24  2  0  0  0  0
 26 24  1  0  0  0  0
 27 26  1  0  0  0  0
 28 29  2  0  0  0  0
 28 30  1  0  0  0  0
 30 31  1  0  0  0  0
M  RAD  5   2   2   8   2   9   3  12   3  13   2
M  END
