Coordinates from ORCA-job 1f-Schema5-R6-D+-B3LYPG-6-31G_dp-scan-d49-09-n400
 OpenBabel08231810253D

 31 31  0  0  0  0  0  0  0  0999 V2000
   -3.6378   -0.7226   -3.1072 C   0  0  0  0  0  0  0  0  0  0  0  0
   -2.5709   -0.4091   -2.2591 C   0  0  0  0  0  0  0  0  0  0  0  0
   -2.9010    0.3347   -1.1225 C   0  0  0  0  0  0  0  0  0  0  0  0
   -4.2096    0.7571   -0.7498 C   0  0  0  0  0  0  0  0  0  0  0  0
   -5.2242    0.3951   -1.6233 C   0  0  0  0  0  0  0  0  0  0  0  0
   -4.9421   -0.3331   -2.7920 C   0  0  0  0  0  0  0  0  0  0  0  0
   -3.4610   -1.2777   -4.0242 H   0  0  0  0  0  0  0  0  0  0  0  0
   -1.8006    0.6716   -0.3412 N   0  0  0  0  0  0  0  0  0  0  0  0
   -0.8517    0.8982    0.1955 N   0  0  0  0  0  0  0  0  0  0  0  0
   -5.7590   -0.5933   -3.4593 H   0  0  0  0  0  0  0  0  0  0  0  0
   -6.2368    0.6963   -1.3789 H   0  0  0  0  0  0  0  0  0  0  0  0
   -0.3356   -0.3306   -2.6667 N   0  0  0  0  0  0  0  0  0  0  0  0
    0.0694   -1.1007   -3.4246 N   0  0  0  0  0  0  0  0  0  0  0  0
   -0.2796   -2.2862   -4.0998 C   0  0  0  0  0  0  0  0  0  0  0  0
    0.2200   -2.5270   -5.3937 C   0  0  0  0  0  0  0  0  0  0  0  0
   -1.0337   -3.2320   -3.3994 C   0  0  0  0  0  0  0  0  0  0  0  0
   -0.0794   -3.7522   -5.9904 C   0  0  0  0  0  0  0  0  0  0  0  0
   -1.3144   -4.4490   -4.0203 C   0  0  0  0  0  0  0  0  0  0  0  0
   -1.3717   -3.0136   -2.3935 H   0  0  0  0  0  0  0  0  0  0  0  0
   -0.8394   -4.7071   -5.3078 C   0  0  0  0  0  0  0  0  0  0  0  0
    0.2846   -3.9499   -6.9915 H   0  0  0  0  0  0  0  0  0  0  0  0
   -1.8943   -5.1978   -3.4908 H   0  0  0  0  0  0  0  0  0  0  0  0
   -1.0563   -5.6581   -5.7828 H   0  0  0  0  0  0  0  0  0  0  0  0
    0.9924   -1.4554   -6.0888 C   0  0  0  0  0  0  0  0  0  0  0  0
    1.1051   -0.3289   -5.6494 O   0  0  0  0  0  0  0  0  0  0  0  0
    1.5353   -1.8756   -7.2399 O   0  0  0  0  0  0  0  0  0  0  0  0
    2.0094   -1.1234   -7.6348 H   0  0  0  0  0  0  0  0  0  0  0  0
   -4.5789    1.5385    0.4743 C   0  0  0  0  0  0  0  0  0  0  0  0
   -5.7096    1.8700    0.7337 O   0  0  0  0  0  0  0  0  0  0  0  0
   -3.5071    1.8208    1.2456 O   0  0  0  0  0  0  0  0  0  0  0  0
   -3.8222    2.3238    2.0171 H   0  0  0  0  0  0  0  0  0  0  0  0
  1  6  2  0  0  0  0
  1  2  1  0  0  0  0
  2  3  2  0  0  0  0
  3  4  1  0  0  0  0
  3  8  1  0  0  0  0
  4 28  1  0  0  0  0
  5 11  1  0  0  0  0
  5  4  2  0  0  0  0
  6  5  1  0  0  0  0
  7  1  1  0  0  0  0
  8  9  1  0  0  0  0
 10  6  1  0  0  0  0
 13 12  2  0  0  0  0
 14 13  1  0  0  0  0
 14 16  2  0  0  0  0
 15 14  1  0  0  0  0
 16 19  1  0  0  0  0
 17 15  2  0  0  0  0
 17 20  1  0  0  0  0
 18 22  1  0  0  0  0
 18 16  1  0  0  0  0
 20 18  2  0  0  0  0
 21 17  1  0  0  0  0
 23 20  1  0  0  0  0
 24 25  2  0  0  0  0
 24 15  1  0  0  0  0
 26 24  1  0  0  0  0
 27 26  1  0  0  0  0
 28 29  2  0  0  0  0
 28 30  1  0  0  0  0
 30 31  1  0  0  0  0
M  RAD  4   2   2   8   2   9   3  12   2
M  END
