Coordinates from ORCA-job 1f-Schema5-R6-D+-B3LYPG-6-31G_dp-scan-d49-09-n400
 OpenBabel08231810253D

 31 32  0  0  0  0  0  0  0  0999 V2000
   -2.7894    0.0011   -3.6514 C   0  0  0  0  0  0  0  0  0  0  0  0
   -1.9415   -0.0530   -2.5207 C   0  0  0  0  0  0  0  0  0  0  0  0
   -2.5304    0.2631   -1.2527 C   0  0  0  0  0  0  0  0  0  0  0  0
   -3.9221    0.5304   -1.0894 C   0  0  0  0  0  0  0  0  0  0  0  0
   -4.7026    0.5255   -2.2303 C   0  0  0  0  0  0  0  0  0  0  0  0
   -4.1358    0.2804   -3.4986 C   0  0  0  0  0  0  0  0  0  0  0  0
   -2.3402   -0.1397   -4.6291 H   0  0  0  0  0  0  0  0  0  0  0  0
   -1.6555    0.3143   -0.2101 N   0  0  0  0  0  0  0  0  0  0  0  0
   -0.8621    0.3824    0.5752 N   0  0  0  0  0  0  0  0  0  0  0  0
   -4.7739    0.3106   -4.3761 H   0  0  0  0  0  0  0  0  0  0  0  0
   -5.7607    0.7352   -2.1195 H   0  0  0  0  0  0  0  0  0  0  0  0
   -0.6058   -0.1272   -2.6153 N   0  0  0  0  0  0  0  0  0  0  0  0
    0.0574   -0.8748   -3.3616 N   0  0  0  0  0  0  0  0  0  0  0  0
   -0.4486   -2.1195   -3.8244 C   0  0  0  0  0  0  0  0  0  0  0  0
   -0.2446   -2.4849   -5.1747 C   0  0  0  0  0  0  0  0  0  0  0  0
   -0.9122   -3.0677   -2.9013 C   0  0  0  0  0  0  0  0  0  0  0  0
   -0.5066   -3.7933   -5.5776 C   0  0  0  0  0  0  0  0  0  0  0  0
   -1.1663   -4.3744   -3.3219 C   0  0  0  0  0  0  0  0  0  0  0  0
   -0.9982   -2.8030   -1.8524 H   0  0  0  0  0  0  0  0  0  0  0  0
   -0.9625   -4.7394   -4.6534 C   0  0  0  0  0  0  0  0  0  0  0  0
   -0.3703   -4.0609   -6.6196 H   0  0  0  0  0  0  0  0  0  0  0  0
   -1.5083   -5.1103   -2.6014 H   0  0  0  0  0  0  0  0  0  0  0  0
   -1.1594   -5.7564   -4.9749 H   0  0  0  0  0  0  0  0  0  0  0  0
    0.0999   -1.4004   -6.1285 C   0  0  0  0  0  0  0  0  0  0  0  0
   -0.0999   -0.2227   -5.8773 O   0  0  0  0  0  0  0  0  0  0  0  0
    0.6164   -1.8408   -7.2820 O   0  0  0  0  0  0  0  0  0  0  0  0
    0.7843   -1.0668   -7.8474 H   0  0  0  0  0  0  0  0  0  0  0  0
   -4.5992    0.8246    0.2188 C   0  0  0  0  0  0  0  0  0  0  0  0
   -5.7797    1.0519    0.3080 O   0  0  0  0  0  0  0  0  0  0  0  0
   -3.7409    0.7974    1.2572 O   0  0  0  0  0  0  0  0  0  0  0  0
   -4.2421    1.0011    2.0668 H   0  0  0  0  0  0  0  0  0  0  0  0
  1  6  2  0  0  0  0
  1  2  1  0  0  0  0
  2  3  2  0  0  0  0
  3  4  1  0  0  0  0
  3  8  1  0  0  0  0
  4 28  1  0  0  0  0
  5 11  1  0  0  0  0
  5  4  2  0  0  0  0
  6  5  1  0  0  0  0
  7  1  1  0  0  0  0
  8  9  1  0  0  0  0
 10  6  1  0  0  0  0
 12  2  1  0  0  0  0
 13 12  1  0  0  0  0
 14 13  1  0  0  0  0
 14 16  2  0  0  0  0
 15 14  1  0  0  0  0
 16 19  1  0  0  0  0
 17 15  2  0  0  0  0
 17 20  1  0  0  0  0
 18 16  1  0  0  0  0
 18 22  1  0  0  0  0
 20 18  2  0  0  0  0
 21 17  1  0  0  0  0
 23 20  1  0  0  0  0
 24 25  2  0  0  0  0
 24 15  1  0  0  0  0
 26 24  1  0  0  0  0
 27 26  1  0  0  0  0
 28 29  2  0  0  0  0
 28 30  1  0  0  0  0
 30 31  1  0  0  0  0
M  RAD  4   8   2   9   3  12   2  13   2
M  END
