Coordinates from ORCA-job 1f-Schema5-R6-D+-B3LYPG-6-31G_dp-scan-d49-09-n400
 OpenBabel08231810253D

 31 31  0  0  0  0  0  0  0  0999 V2000
   -3.5915   -0.7108   -3.1381 C   0  0  0  0  0  0  0  0  0  0  0  0
   -2.5382   -0.4063   -2.2719 C   0  0  0  0  0  0  0  0  0  0  0  0
   -2.8779    0.3269   -1.1313 C   0  0  0  0  0  0  0  0  0  0  0  0
   -4.1911    0.7452   -0.7716 C   0  0  0  0  0  0  0  0  0  0  0  0
   -5.1950    0.3928   -1.6616 C   0  0  0  0  0  0  0  0  0  0  0  0
   -4.8994   -0.3231   -2.8344 C   0  0  0  0  0  0  0  0  0  0  0  0
   -3.4021   -1.2561   -4.0581 H   0  0  0  0  0  0  0  0  0  0  0  0
   -1.7873    0.6564   -0.3338 N   0  0  0  0  0  0  0  0  0  0  0  0
   -0.8454    0.8793    0.2165 N   0  0  0  0  0  0  0  0  0  0  0  0
   -5.7082   -0.5755   -3.5144 H   0  0  0  0  0  0  0  0  0  0  0  0
   -6.2103    0.6922   -1.4266 H   0  0  0  0  0  0  0  0  0  0  0  0
   -0.3480   -0.3276   -2.6462 N   0  0  0  0  0  0  0  0  0  0  0  0
    0.0765   -1.0965   -3.4004 N   0  0  0  0  0  0  0  0  0  0  0  0
   -0.2873   -2.2798   -4.0749 C   0  0  0  0  0  0  0  0  0  0  0  0
    0.1917   -2.5166   -5.3774 C   0  0  0  0  0  0  0  0  0  0  0  0
   -1.0253   -3.2320   -3.3663 C   0  0  0  0  0  0  0  0  0  0  0  0
   -0.1129   -3.7412   -5.9734 C   0  0  0  0  0  0  0  0  0  0  0  0
   -1.3114   -4.4486   -3.9858 C   0  0  0  0  0  0  0  0  0  0  0  0
   -1.3455   -3.0216   -2.3530 H   0  0  0  0  0  0  0  0  0  0  0  0
   -0.8575   -4.7014   -5.2818 C   0  0  0  0  0  0  0  0  0  0  0  0
    0.2354   -3.9339   -6.9809 H   0  0  0  0  0  0  0  0  0  0  0  0
   -1.8787   -5.2015   -3.4483 H   0  0  0  0  0  0  0  0  0  0  0  0
   -1.0784   -5.6519   -5.7559 H   0  0  0  0  0  0  0  0  0  0  0  0
    0.9462   -1.4402   -6.0841 C   0  0  0  0  0  0  0  0  0  0  0  0
    1.0515   -0.3103   -5.6514 O   0  0  0  0  0  0  0  0  0  0  0  0
    1.4824   -1.8595   -7.2391 O   0  0  0  0  0  0  0  0  0  0  0  0
    1.9441   -1.1034   -7.6413 H   0  0  0  0  0  0  0  0  0  0  0  0
   -4.5758    1.5144    0.4560 C   0  0  0  0  0  0  0  0  0  0  0  0
   -5.7099    1.8430    0.7037 O   0  0  0  0  0  0  0  0  0  0  0  0
   -3.5139    1.7875    1.2437 O   0  0  0  0  0  0  0  0  0  0  0  0
   -3.8378    2.2828    2.0166 H   0  0  0  0  0  0  0  0  0  0  0  0
  1  6  2  0  0  0  0
  1  2  1  0  0  0  0
  2  3  2  0  0  0  0
  3  4  1  0  0  0  0
  3  8  1  0  0  0  0
  4 28  1  0  0  0  0
  5 11  1  0  0  0  0
  5  4  2  0  0  0  0
  6  5  1  0  0  0  0
  7  1  1  0  0  0  0
  8  9  1  0  0  0  0
 10  6  1  0  0  0  0
 13 12  2  0  0  0  0
 14 13  1  0  0  0  0
 14 16  2  0  0  0  0
 15 14  1  0  0  0  0
 16 19  1  0  0  0  0
 17 15  2  0  0  0  0
 17 20  1  0  0  0  0
 18 22  1  0  0  0  0
 18 16  1  0  0  0  0
 20 18  2  0  0  0  0
 21 17  1  0  0  0  0
 23 20  1  0  0  0  0
 24 25  2  0  0  0  0
 24 15  1  0  0  0  0
 26 24  1  0  0  0  0
 27 26  1  0  0  0  0
 28 29  2  0  0  0  0
 28 30  1  0  0  0  0
 30 31  1  0  0  0  0
M  RAD  4   2   2   8   2   9   3  12   2
M  END
