Coordinates from ORCA-job 1f-Schema5-R6-D+-B3LYPG-6-31G_dp-scan-d49-09-n400
 OpenBabel08231810253D

 31 31  0  0  0  0  0  0  0  0999 V2000
   -4.3298   -0.4748   -3.0473 C   0  0  0  0  0  0  0  0  0  0  0  0
   -3.1027   -0.4605   -2.3400 C   0  0  0  0  0  0  0  0  0  0  0  0
   -3.2448    0.1341   -1.0730 C   0  0  0  0  0  0  0  0  0  0  0  0
   -4.4195    0.6835   -0.4713 C   0  0  0  0  0  0  0  0  0  0  0  0
   -5.5630    0.6157   -1.2481 C   0  0  0  0  0  0  0  0  0  0  0  0
   -5.5175    0.0376   -2.5312 C   0  0  0  0  0  0  0  0  0  0  0  0
   -4.3580   -0.9065   -4.0469 H   0  0  0  0  0  0  0  0  0  0  0  0
   -2.0452    0.1502   -0.3716 N   0  0  0  0  0  0  0  0  0  0  0  0
   -1.0359    0.1114    0.1031 N   0  0  0  0  0  0  0  0  0  0  0  0
   -6.4309   -0.0010   -3.1193 H   0  0  0  0  0  0  0  0  0  0  0  0
   -6.4836    1.0187   -0.8413 H   0  0  0  0  0  0  0  0  0  0  0  0
   -0.5339    0.4046   -4.1437 N   0  0  0  0  0  0  0  0  0  0  0  0
   -0.2646   -0.6151   -4.5150 N   0  0  0  0  0  0  0  0  0  0  0  0
   -0.2712   -2.0038   -4.6734 C   0  0  0  0  0  0  0  0  0  0  0  0
    0.5798   -2.6279   -5.6063 C   0  0  0  0  0  0  0  0  0  0  0  0
   -1.1721   -2.6743   -3.8432 C   0  0  0  0  0  0  0  0  0  0  0  0
    0.5012   -4.0134   -5.6935 C   0  0  0  0  0  0  0  0  0  0  0  0
   -1.2217   -4.0636   -3.9632 C   0  0  0  0  0  0  0  0  0  0  0  0
   -1.8012   -2.0784   -3.1595 H   0  0  0  0  0  0  0  0  0  0  0  0
   -0.3938   -4.7226   -4.8765 C   0  0  0  0  0  0  0  0  0  0  0  0
    1.1374   -4.5353   -6.3988 H   0  0  0  0  0  0  0  0  0  0  0  0
   -1.9086   -4.6288   -3.3416 H   0  0  0  0  0  0  0  0  0  0  0  0
   -0.4408   -5.8042   -4.9602 H   0  0  0  0  0  0  0  0  0  0  0  0
    1.4927   -1.7790   -6.4272 C   0  0  0  0  0  0  0  0  0  0  0  0
    1.5177   -0.5690   -6.3101 O   0  0  0  0  0  0  0  0  0  0  0  0
    2.2466   -2.4857   -7.2689 O   0  0  0  0  0  0  0  0  0  0  0  0
    2.8123   -1.8694   -7.7672 H   0  0  0  0  0  0  0  0  0  0  0  0
   -4.5293    1.3098    0.8813 C   0  0  0  0  0  0  0  0  0  0  0  0
   -5.5574    1.7537    1.3357 O   0  0  0  0  0  0  0  0  0  0  0  0
   -3.3500    1.3274    1.5455 O   0  0  0  0  0  0  0  0  0  0  0  0
   -3.5130    1.7492    2.4069 H   0  0  0  0  0  0  0  0  0  0  0  0
  1  6  2  0  0  0  0
  1  2  1  0  0  0  0
  2  3  2  0  0  0  0
  3  4  1  0  0  0  0
  3  8  1  0  0  0  0
  4 28  1  0  0  0  0
  5 11  1  0  0  0  0
  5  4  2  0  0  0  0
  6  5  1  0  0  0  0
  7  1  1  0  0  0  0
  8  9  1  0  0  0  0
 10  6  1  0  0  0  0
 13 12  1  0  0  0  0
 14 13  1  0  0  0  0
 14 16  2  0  0  0  0
 15 14  1  0  0  0  0
 16 19  1  0  0  0  0
 17 15  2  0  0  0  0
 17 20  1  0  0  0  0
 18 16  1  0  0  0  0
 18 22  1  0  0  0  0
 20 18  2  0  0  0  0
 21 17  1  0  0  0  0
 23 20  1  0  0  0  0
 24 25  2  0  0  0  0
 24 15  1  0  0  0  0
 26 24  1  0  0  0  0
 27 26  1  0  0  0  0
 28 29  2  0  0  0  0
 28 30  1  0  0  0  0
 30 31  1  0  0  0  0
M  RAD  5   2   2   8   2   9   3  12   3  13   2
M  END
