Coordinates from ORCA-job 1f-Schema5-R6-D+-B3LYPG-6-31G_dp-scan-d49-09-n400
 OpenBabel08231810253D

 31 31  0  0  0  0  0  0  0  0999 V2000
   -4.3942   -0.3831   -3.0680 C   0  0  0  0  0  0  0  0  0  0  0  0
   -3.2016   -0.5739   -2.3218 C   0  0  0  0  0  0  0  0  0  0  0  0
   -3.3368   -0.0570   -1.0198 C   0  0  0  0  0  0  0  0  0  0  0  0
   -4.4610    0.5920   -0.4194 C   0  0  0  0  0  0  0  0  0  0  0  0
   -5.5656    0.7286   -1.2415 C   0  0  0  0  0  0  0  0  0  0  0  0
   -5.5310    0.2414   -2.5629 C   0  0  0  0  0  0  0  0  0  0  0  0
   -4.4335   -0.7449   -4.0954 H   0  0  0  0  0  0  0  0  0  0  0  0
   -2.1788   -0.2453   -0.2736 N   0  0  0  0  0  0  0  0  0  0  0  0
   -1.2043   -0.4499    0.2312 N   0  0  0  0  0  0  0  0  0  0  0  0
   -6.4136    0.3612   -3.1864 H   0  0  0  0  0  0  0  0  0  0  0  0
   -6.4477    1.2145   -0.8399 H   0  0  0  0  0  0  0  0  0  0  0  0
   -0.4797    0.6368   -4.9120 N   0  0  0  0  0  0  0  0  0  0  0  0
   -0.3027   -0.4614   -4.9663 N   0  0  0  0  0  0  0  0  0  0  0  0
   -0.2591   -1.8475   -4.8522 C   0  0  0  0  0  0  0  0  0  0  0  0
    0.6143   -2.6091   -5.6648 C   0  0  0  0  0  0  0  0  0  0  0  0
   -1.1321   -2.3829   -3.8968 C   0  0  0  0  0  0  0  0  0  0  0  0
    0.5876   -3.9856   -5.4862 C   0  0  0  0  0  0  0  0  0  0  0  0
   -1.1214   -3.7720   -3.7572 C   0  0  0  0  0  0  0  0  0  0  0  0
   -1.7997   -1.7127   -3.2929 H   0  0  0  0  0  0  0  0  0  0  0  0
   -0.2754   -4.5615   -4.5381 C   0  0  0  0  0  0  0  0  0  0  0  0
    1.2407   -4.6065   -6.0883 H   0  0  0  0  0  0  0  0  0  0  0  0
   -1.7844   -4.2321   -3.0310 H   0  0  0  0  0  0  0  0  0  0  0  0
   -0.2796   -5.6406   -4.4162 H   0  0  0  0  0  0  0  0  0  0  0  0
    1.4943   -1.9076   -6.6452 C   0  0  0  0  0  0  0  0  0  0  0  0
    1.4827   -0.6978   -6.7621 O   0  0  0  0  0  0  0  0  0  0  0  0
    2.2620   -2.7419   -7.3454 O   0  0  0  0  0  0  0  0  0  0  0  0
    2.8050   -2.2178   -7.9606 H   0  0  0  0  0  0  0  0  0  0  0  0
   -4.5566    1.1239    0.9731 C   0  0  0  0  0  0  0  0  0  0  0  0
   -5.5401    1.6637    1.4233 O   0  0  0  0  0  0  0  0  0  0  0  0
   -3.4184    0.9383    1.6830 O   0  0  0  0  0  0  0  0  0  0  0  0
   -3.5702    1.3136    2.5675 H   0  0  0  0  0  0  0  0  0  0  0  0
  1  6  2  0  0  0  0
  1  2  1  0  0  0  0
  2  3  2  0  0  0  0
  3  4  1  0  0  0  0
  3  8  1  0  0  0  0
  4 28  1  0  0  0  0
  5 11  1  0  0  0  0
  5  4  2  0  0  0  0
  6  5  1  0  0  0  0
  7  1  1  0  0  0  0
  8  9  1  0  0  0  0
 10  6  1  0  0  0  0
 13 12  1  0  0  0  0
 13 14  1  0  0  0  0
 14 16  2  0  0  0  0
 15 17  2  0  0  0  0
 15 14  1  0  0  0  0
 16 18  1  0  0  0  0
 16 19  1  0  0  0  0
 17 20  1  0  0  0  0
 18 22  1  0  0  0  0
 20 23  1  0  0  0  0
 20 18  2  0  0  0  0
 21 17  1  0  0  0  0
 24 15  1  0  0  0  0
 25 24  2  0  0  0  0
 26 24  1  0  0  0  0
 27 26  1  0  0  0  0
 28 29  2  0  0  0  0
 28 30  1  0  0  0  0
 30 31  1  0  0  0  0
M  RAD  5   2   2   8   2   9   3  12   3  13   2
M  END
