Coordinates from ORCA-job 1f-Schema5-R6-D+-B3LYPG-6-31G_dp-scan-d49-09-n400
 OpenBabel08231810253D

 31 31  0  0  0  0  0  0  0  0999 V2000
   -4.3302   -0.4536   -3.0607 C   0  0  0  0  0  0  0  0  0  0  0  0
   -3.1170   -0.5067   -2.3292 C   0  0  0  0  0  0  0  0  0  0  0  0
   -3.2636    0.0745   -1.0561 C   0  0  0  0  0  0  0  0  0  0  0  0
   -4.4244    0.6691   -0.4704 C   0  0  0  0  0  0  0  0  0  0  0  0
   -5.5517    0.6683   -1.2732 C   0  0  0  0  0  0  0  0  0  0  0  0
   -5.5038    0.1076   -2.5642 C   0  0  0  0  0  0  0  0  0  0  0  0
   -4.3577   -0.8719   -4.0663 H   0  0  0  0  0  0  0  0  0  0  0  0
   -2.0813    0.0216   -0.3269 N   0  0  0  0  0  0  0  0  0  0  0  0
   -1.0862   -0.0748    0.1693 N   0  0  0  0  0  0  0  0  0  0  0  0
   -6.4045    0.1210   -3.1729 H   0  0  0  0  0  0  0  0  0  0  0  0
   -6.4616    1.1076   -0.8802 H   0  0  0  0  0  0  0  0  0  0  0  0
   -0.5478    0.4609   -4.2943 N   0  0  0  0  0  0  0  0  0  0  0  0
   -0.2957   -0.5826   -4.6004 N   0  0  0  0  0  0  0  0  0  0  0  0
   -0.2757   -1.9751   -4.6998 C   0  0  0  0  0  0  0  0  0  0  0  0
    0.5769   -2.6213   -5.6185 C   0  0  0  0  0  0  0  0  0  0  0  0
   -1.1528   -2.6268   -3.8292 C   0  0  0  0  0  0  0  0  0  0  0  0
    0.5258   -4.0099   -5.6459 C   0  0  0  0  0  0  0  0  0  0  0  0
   -1.1734   -4.0209   -3.8915 C   0  0  0  0  0  0  0  0  0  0  0  0
   -1.7899   -2.0156   -3.1586 H   0  0  0  0  0  0  0  0  0  0  0  0
   -0.3440   -4.7016   -4.7869 C   0  0  0  0  0  0  0  0  0  0  0  0
    1.1637   -4.5483   -6.3371 H   0  0  0  0  0  0  0  0  0  0  0  0
   -1.8408   -4.5729   -3.2376 H   0  0  0  0  0  0  0  0  0  0  0  0
   -0.3693   -5.7867   -4.8240 H   0  0  0  0  0  0  0  0  0  0  0  0
    1.4614   -1.7897   -6.4862 C   0  0  0  0  0  0  0  0  0  0  0  0
    1.4628   -0.5756   -6.4177 O   0  0  0  0  0  0  0  0  0  0  0  0
    2.2158   -2.5146   -7.3112 O   0  0  0  0  0  0  0  0  0  0  0  0
    2.7616   -1.9084   -7.8430 H   0  0  0  0  0  0  0  0  0  0  0  0
   -4.5360    1.2771    0.8901 C   0  0  0  0  0  0  0  0  0  0  0  0
   -5.5519    1.7625    1.3296 O   0  0  0  0  0  0  0  0  0  0  0  0
   -3.3730    1.2274    1.5813 O   0  0  0  0  0  0  0  0  0  0  0  0
   -3.5367    1.6421    2.4460 H   0  0  0  0  0  0  0  0  0  0  0  0
  1  6  2  0  0  0  0
  1  2  1  0  0  0  0
  2  3  2  0  0  0  0
  3  4  1  0  0  0  0
  3  8  1  0  0  0  0
  4 28  1  0  0  0  0
  5 11  1  0  0  0  0
  5  4  2  0  0  0  0
  6  5  1  0  0  0  0
  7  1  1  0  0  0  0
  8  9  1  0  0  0  0
 10  6  1  0  0  0  0
 13 12  1  0  0  0  0
 14 13  1  0  0  0  0
 14 16  2  0  0  0  0
 15 14  1  0  0  0  0
 16 19  1  0  0  0  0
 17 15  2  0  0  0  0
 17 20  1  0  0  0  0
 18 16  1  0  0  0  0
 18 22  1  0  0  0  0
 20 18  2  0  0  0  0
 21 17  1  0  0  0  0
 23 20  1  0  0  0  0
 24 25  2  0  0  0  0
 24 15  1  0  0  0  0
 26 24  1  0  0  0  0
 27 26  1  0  0  0  0
 28 29  2  0  0  0  0
 28 30  1  0  0  0  0
 30 31  1  0  0  0  0
M  RAD  5   2   2   8   2   9   3  12   3  13   2
M  END
