Coordinates from ORCA-job 1f-Schema5-R6-D+-B3LYPG-6-31G_dp-scan-d49-09-n400
 OpenBabel08231810253D

 31 31  0  0  0  0  0  0  0  0999 V2000
   -4.3773   -0.3875   -3.0580 C   0  0  0  0  0  0  0  0  0  0  0  0
   -3.1908   -0.5710   -2.3002 C   0  0  0  0  0  0  0  0  0  0  0  0
   -3.3427   -0.0566   -0.9990 C   0  0  0  0  0  0  0  0  0  0  0  0
   -4.4773    0.5839   -0.4091 C   0  0  0  0  0  0  0  0  0  0  0  0
   -5.5747    0.7135   -1.2419 C   0  0  0  0  0  0  0  0  0  0  0  0
   -5.5234    0.2282   -2.5635 C   0  0  0  0  0  0  0  0  0  0  0  0
   -4.4038   -0.7479   -4.0863 H   0  0  0  0  0  0  0  0  0  0  0  0
   -2.1907   -0.2375   -0.2418 N   0  0  0  0  0  0  0  0  0  0  0  0
   -1.2197   -0.4356    0.2722 N   0  0  0  0  0  0  0  0  0  0  0  0
   -6.4007    0.3424   -3.1955 H   0  0  0  0  0  0  0  0  0  0  0  0
   -6.4641    1.1926   -0.8486 H   0  0  0  0  0  0  0  0  0  0  0  0
   -0.3789    0.6617   -4.9382 N   0  0  0  0  0  0  0  0  0  0  0  0
   -0.2431   -0.4429   -4.9754 N   0  0  0  0  0  0  0  0  0  0  0  0
   -0.2297   -1.8286   -4.8550 C   0  0  0  0  0  0  0  0  0  0  0  0
    0.6161   -2.6091   -5.6805 C   0  0  0  0  0  0  0  0  0  0  0  0
   -1.0962   -2.3484   -3.8839 C   0  0  0  0  0  0  0  0  0  0  0  0
    0.5689   -3.9845   -5.4983 C   0  0  0  0  0  0  0  0  0  0  0  0
   -1.1065   -3.7375   -3.7430 C   0  0  0  0  0  0  0  0  0  0  0  0
   -1.7539   -1.6800   -3.2671 H   0  0  0  0  0  0  0  0  0  0  0  0
   -0.2873   -4.5438   -4.5347 C   0  0  0  0  0  0  0  0  0  0  0  0
    1.2010   -4.6173   -6.1103 H   0  0  0  0  0  0  0  0  0  0  0  0
   -1.7664   -4.1840   -3.0057 H   0  0  0  0  0  0  0  0  0  0  0  0
   -0.3079   -5.6223   -4.4096 H   0  0  0  0  0  0  0  0  0  0  0  0
    1.4928   -1.9298   -6.6799 C   0  0  0  0  0  0  0  0  0  0  0  0
    1.5037   -0.7210   -6.8047 O   0  0  0  0  0  0  0  0  0  0  0  0
    2.2308   -2.7837   -7.3888 O   0  0  0  0  0  0  0  0  0  0  0  0
    2.7728   -2.2740   -8.0168 H   0  0  0  0  0  0  0  0  0  0  0  0
   -4.5904    1.1138    0.9828 C   0  0  0  0  0  0  0  0  0  0  0  0
   -5.5822    1.6456    1.4241 O   0  0  0  0  0  0  0  0  0  0  0  0
   -3.4580    0.9353    1.7039 O   0  0  0  0  0  0  0  0  0  0  0  0
   -3.6215    1.3085    2.5873 H   0  0  0  0  0  0  0  0  0  0  0  0
  1  6  2  0  0  0  0
  1  2  1  0  0  0  0
  2  3  2  0  0  0  0
  3  4  1  0  0  0  0
  3  8  1  0  0  0  0
  4 28  1  0  0  0  0
  5 11  1  0  0  0  0
  5  4  2  0  0  0  0
  6  5  1  0  0  0  0
  7  1  1  0  0  0  0
  8  9  1  0  0  0  0
 10  6  1  0  0  0  0
 13 12  1  0  0  0  0
 13 14  1  0  0  0  0
 14 16  2  0  0  0  0
 15 17  2  0  0  0  0
 15 14  1  0  0  0  0
 16 18  1  0  0  0  0
 16 19  1  0  0  0  0
 17 20  1  0  0  0  0
 18 22  1  0  0  0  0
 20 23  1  0  0  0  0
 20 18  2  0  0  0  0
 21 17  1  0  0  0  0
 24 15  1  0  0  0  0
 25 24  2  0  0  0  0
 26 24  1  0  0  0  0
 27 26  1  0  0  0  0
 28 29  2  0  0  0  0
 28 30  1  0  0  0  0
 30 31  1  0  0  0  0
M  RAD  5   2   2   8   2   9   3  12   3  13   2
M  END
