Coordinates from ORCA-job 1f-Schema5-R6-D+-B3LYPG-6-31G_dp-scan-d49-09-n400
 OpenBabel08231810253D

 31 31  0  0  0  0  0  0  0  0999 V2000
   -4.3258   -0.4474   -3.0648 C   0  0  0  0  0  0  0  0  0  0  0  0
   -3.1176   -0.5164   -2.3259 C   0  0  0  0  0  0  0  0  0  0  0  0
   -3.2663    0.0624   -1.0519 C   0  0  0  0  0  0  0  0  0  0  0  0
   -4.4241    0.6682   -0.4716 C   0  0  0  0  0  0  0  0  0  0  0  0
   -5.5460    0.6831   -1.2819 C   0  0  0  0  0  0  0  0  0  0  0  0
   -5.4960    0.1259   -2.5743 C   0  0  0  0  0  0  0  0  0  0  0  0
   -4.3518   -0.8631   -4.0715 H   0  0  0  0  0  0  0  0  0  0  0  0
   -2.0895   -0.0065   -0.3150 N   0  0  0  0  0  0  0  0  0  0  0  0
   -1.0989   -0.1162    0.1873 N   0  0  0  0  0  0  0  0  0  0  0  0
   -6.3925    0.1516   -3.1888 H   0  0  0  0  0  0  0  0  0  0  0  0
   -6.4534    1.1315   -0.8933 H   0  0  0  0  0  0  0  0  0  0  0  0
   -0.5616    0.4662   -4.3178 N   0  0  0  0  0  0  0  0  0  0  0  0
   -0.3081   -0.5797   -4.6136 N   0  0  0  0  0  0  0  0  0  0  0  0
   -0.2785   -1.9725   -4.7029 C   0  0  0  0  0  0  0  0  0  0  0  0
    0.5739   -2.6200   -5.6211 C   0  0  0  0  0  0  0  0  0  0  0  0
   -1.1476   -2.6231   -3.8229 C   0  0  0  0  0  0  0  0  0  0  0  0
    0.5314   -4.0089   -5.6373 C   0  0  0  0  0  0  0  0  0  0  0  0
   -1.1594   -4.0178   -3.8747 C   0  0  0  0  0  0  0  0  0  0  0  0
   -1.7852   -2.0093   -3.1538 H   0  0  0  0  0  0  0  0  0  0  0  0
   -0.3300   -4.6997   -4.7689 C   0  0  0  0  0  0  0  0  0  0  0  0
    1.1694   -4.5486   -6.3274 H   0  0  0  0  0  0  0  0  0  0  0  0
   -1.8202   -4.5691   -3.2134 H   0  0  0  0  0  0  0  0  0  0  0  0
   -0.3483   -5.7851   -4.7979 H   0  0  0  0  0  0  0  0  0  0  0  0
    1.4485   -1.7891   -6.4994 C   0  0  0  0  0  0  0  0  0  0  0  0
    1.4427   -0.5746   -6.4391 O   0  0  0  0  0  0  0  0  0  0  0  0
    2.2043   -2.5153   -7.3221 O   0  0  0  0  0  0  0  0  0  0  0  0
    2.7440   -1.9095   -7.8606 H   0  0  0  0  0  0  0  0  0  0  0  0
   -4.5379    1.2724    0.8903 C   0  0  0  0  0  0  0  0  0  0  0  0
   -5.5507    1.7687    1.3245 O   0  0  0  0  0  0  0  0  0  0  0  0
   -3.3805    1.2058    1.5896 O   0  0  0  0  0  0  0  0  0  0  0  0
   -3.5453    1.6192    2.4547 H   0  0  0  0  0  0  0  0  0  0  0  0
  1  6  2  0  0  0  0
  1  2  1  0  0  0  0
  2  3  2  0  0  0  0
  3  4  1  0  0  0  0
  3  8  1  0  0  0  0
  4 28  1  0  0  0  0
  5 11  1  0  0  0  0
  5  4  2  0  0  0  0
  6  5  1  0  0  0  0
  7  1  1  0  0  0  0
  8  9  1  0  0  0  0
 10  6  1  0  0  0  0
 13 12  1  0  0  0  0
 14 13  1  0  0  0  0
 14 16  2  0  0  0  0
 15 14  1  0  0  0  0
 16 19  1  0  0  0  0
 17 15  2  0  0  0  0
 17 20  1  0  0  0  0
 18 16  1  0  0  0  0
 18 22  1  0  0  0  0
 20 18  2  0  0  0  0
 21 17  1  0  0  0  0
 23 20  1  0  0  0  0
 24 25  2  0  0  0  0
 24 15  1  0  0  0  0
 26 24  1  0  0  0  0
 27 26  1  0  0  0  0
 28 29  2  0  0  0  0
 28 30  1  0  0  0  0
 30 31  1  0  0  0  0
M  RAD  5   2   2   8   2   9   3  12   3  13   2
M  END
