Coordinates from ORCA-job 1f-Schema5-R6-D+-B3LYPG-6-31G_dp-scan-d49-09-n400
 OpenBabel08231810253D

 31 31  0  0  0  0  0  0  0  0999 V2000
   -4.1061   -0.6078   -2.9966 C   0  0  0  0  0  0  0  0  0  0  0  0
   -2.9149   -0.3407   -2.2946 C   0  0  0  0  0  0  0  0  0  0  0  0
   -3.1233    0.3481   -1.0911 C   0  0  0  0  0  0  0  0  0  0  0  0
   -4.3693    0.7634   -0.5314 C   0  0  0  0  0  0  0  0  0  0  0  0
   -5.4887    0.4443   -1.2821 C   0  0  0  0  0  0  0  0  0  0  0  0
   -5.3580   -0.2350   -2.5074 C   0  0  0  0  0  0  0  0  0  0  0  0
   -4.0610   -1.1216   -3.9547 H   0  0  0  0  0  0  0  0  0  0  0  0
   -1.9348    0.6353   -0.4302 N   0  0  0  0  0  0  0  0  0  0  0  0
   -0.9278    0.8222    0.0103 N   0  0  0  0  0  0  0  0  0  0  0  0
   -6.2546   -0.4660   -3.0762 H   0  0  0  0  0  0  0  0  0  0  0  0
   -6.4602    0.7376   -0.9004 H   0  0  0  0  0  0  0  0  0  0  0  0
   -0.3931    0.0118   -3.3188 N   0  0  0  0  0  0  0  0  0  0  0  0
   -0.0810   -0.8693   -3.9555 N   0  0  0  0  0  0  0  0  0  0  0  0
   -0.2517   -2.1742   -4.4358 C   0  0  0  0  0  0  0  0  0  0  0  0
    0.4911   -2.6251   -5.5424 C   0  0  0  0  0  0  0  0  0  0  0  0
   -1.1576   -2.9731   -3.7336 C   0  0  0  0  0  0  0  0  0  0  0  0
    0.2912   -3.9428   -5.9489 C   0  0  0  0  0  0  0  0  0  0  0  0
   -1.3340   -4.2860   -4.1670 C   0  0  0  0  0  0  0  0  0  0  0  0
   -1.7006   -2.5427   -2.8956 H   0  0  0  0  0  0  0  0  0  0  0  0
   -0.6126   -4.7651   -5.2641 C   0  0  0  0  0  0  0  0  0  0  0  0
    0.8428   -4.3199   -6.8018 H   0  0  0  0  0  0  0  0  0  0  0  0
   -2.0307   -4.9335   -3.6450 H   0  0  0  0  0  0  0  0  0  0  0  0
   -0.7521   -5.7898   -5.5927 H   0  0  0  0  0  0  0  0  0  0  0  0
    1.4259   -1.6824   -6.2290 C   0  0  0  0  0  0  0  0  0  0  0  0
    1.5415   -0.5195   -5.8984 O   0  0  0  0  0  0  0  0  0  0  0  0
    2.1047   -2.2639   -7.2224 O   0  0  0  0  0  0  0  0  0  0  0  0
    2.6883   -1.5949   -7.6215 H   0  0  0  0  0  0  0  0  0  0  0  0
   -4.5740    1.4937    0.7581 C   0  0  0  0  0  0  0  0  0  0  0  0
   -5.6586    1.8181    1.1786 O   0  0  0  0  0  0  0  0  0  0  0  0
   -3.4113    1.7451    1.4009 O   0  0  0  0  0  0  0  0  0  0  0  0
   -3.6303    2.2166    2.2235 H   0  0  0  0  0  0  0  0  0  0  0  0
  1  6  2  0  0  0  0
  1  2  1  0  0  0  0
  2  3  2  0  0  0  0
  3  4  1  0  0  0  0
  3  8  1  0  0  0  0
  4 28  1  0  0  0  0
  5 11  1  0  0  0  0
  5  4  2  0  0  0  0
  6  5  1  0  0  0  0
  7  1  1  0  0  0  0
  8  9  1  0  0  0  0
 10  6  1  0  0  0  0
 13 12  2  0  0  0  0
 14 13  1  0  0  0  0
 14 16  2  0  0  0  0
 15 14  1  0  0  0  0
 16 19  1  0  0  0  0
 17 15  2  0  0  0  0
 17 20  1  0  0  0  0
 18 16  1  0  0  0  0
 18 22  1  0  0  0  0
 20 18  2  0  0  0  0
 21 17  1  0  0  0  0
 23 20  1  0  0  0  0
 24 25  2  0  0  0  0
 24 15  1  0  0  0  0
 26 24  1  0  0  0  0
 27 26  1  0  0  0  0
 28 29  2  0  0  0  0
 28 30  1  0  0  0  0
 30 31  1  0  0  0  0
M  RAD  4   2   2   8   2   9   3  12   2
M  END
