Coordinates from ORCA-job 1f-Schema5-R6-D+-B3LYPG-6-31G_dp-scan-d49-09-n400
 OpenBabel08231810253D

 31 31  0  0  0  0  0  0  0  0999 V2000
   -3.9097   -0.7062   -3.0043 C   0  0  0  0  0  0  0  0  0  0  0  0
   -2.7675   -0.3802   -2.2558 C   0  0  0  0  0  0  0  0  0  0  0  0
   -3.0289    0.3654   -1.1007 C   0  0  0  0  0  0  0  0  0  0  0  0
   -4.3057    0.7835   -0.6223 C   0  0  0  0  0  0  0  0  0  0  0  0
   -5.3841    0.4072   -1.4072 C   0  0  0  0  0  0  0  0  0  0  0  0
   -5.1882   -0.3286   -2.5898 C   0  0  0  0  0  0  0  0  0  0  0  0
   -3.8084   -1.2666   -3.9308 H   0  0  0  0  0  0  0  0  0  0  0  0
   -1.8730    0.7101   -0.4074 N   0  0  0  0  0  0  0  0  0  0  0  0
   -0.8868    0.9379    0.0585 N   0  0  0  0  0  0  0  0  0  0  0  0
   -6.0539   -0.6021   -3.1867 H   0  0  0  0  0  0  0  0  0  0  0  0
   -6.3766    0.7013   -1.0846 H   0  0  0  0  0  0  0  0  0  0  0  0
   -0.3414   -0.2099   -2.9311 N   0  0  0  0  0  0  0  0  0  0  0  0
    0.0013   -1.0234   -3.6515 N   0  0  0  0  0  0  0  0  0  0  0  0
   -0.2569   -2.2566   -4.2684 C   0  0  0  0  0  0  0  0  0  0  0  0
    0.3821   -2.5855   -5.4785 C   0  0  0  0  0  0  0  0  0  0  0  0
   -1.1086   -3.1348   -3.5923 C   0  0  0  0  0  0  0  0  0  0  0  0
    0.1278   -3.8455   -6.0187 C   0  0  0  0  0  0  0  0  0  0  0  0
   -1.3413   -4.3873   -4.1580 C   0  0  0  0  0  0  0  0  0  0  0  0
   -1.5654   -2.8228   -2.6596 H   0  0  0  0  0  0  0  0  0  0  0  0
   -0.7252   -4.7393   -5.3615 C   0  0  0  0  0  0  0  0  0  0  0  0
    0.5987   -4.1199   -6.9550 H   0  0  0  0  0  0  0  0  0  0  0  0
   -1.9971   -5.0890   -3.6532 H   0  0  0  0  0  0  0  0  0  0  0  0
   -0.9064   -5.7182   -5.7928 H   0  0  0  0  0  0  0  0  0  0  0  0
    1.2606   -1.5749   -6.1411 C   0  0  0  0  0  0  0  0  0  0  0  0
    1.3885   -0.4407   -5.7267 O   0  0  0  0  0  0  0  0  0  0  0  0
    1.8769   -2.0615   -7.2246 O   0  0  0  0  0  0  0  0  0  0  0  0
    2.4217   -1.3496   -7.6033 H   0  0  0  0  0  0  0  0  0  0  0  0
   -4.5806    1.5715    0.6203 C   0  0  0  0  0  0  0  0  0  0  0  0
   -5.6887    1.8954    0.9733 O   0  0  0  0  0  0  0  0  0  0  0  0
   -3.4520    1.8735    1.2993 O   0  0  0  0  0  0  0  0  0  0  0  0
   -3.7118    2.3795    2.0889 H   0  0  0  0  0  0  0  0  0  0  0  0
  1  6  2  0  0  0  0
  1  2  1  0  0  0  0
  2  3  2  0  0  0  0
  3  4  1  0  0  0  0
  3  8  1  0  0  0  0
  4 28  1  0  0  0  0
  5 11  1  0  0  0  0
  5  4  2  0  0  0  0
  6  5  1  0  0  0  0
  7  1  1  0  0  0  0
  8  9  1  0  0  0  0
 10  6  1  0  0  0  0
 13 12  2  0  0  0  0
 14 13  1  0  0  0  0
 14 16  2  0  0  0  0
 15 14  1  0  0  0  0
 16 19  1  0  0  0  0
 17 15  2  0  0  0  0
 17 20  1  0  0  0  0
 18 22  1  0  0  0  0
 18 16  1  0  0  0  0
 20 18  2  0  0  0  0
 21 17  1  0  0  0  0
 23 20  1  0  0  0  0
 24 25  2  0  0  0  0
 24 15  1  0  0  0  0
 26 24  1  0  0  0  0
 27 26  1  0  0  0  0
 28 29  2  0  0  0  0
 28 30  1  0  0  0  0
 30 31  1  0  0  0  0
M  RAD  4   2   2   8   2   9   3  12   2
M  END
