Coordinates from ORCA-job 1f-Schema5-R6-D+-B3LYPG-6-31G_dp-scan-d49-09-n400
 OpenBabel08231810253D

 31 31  0  0  0  0  0  0  0  0999 V2000
   -4.2618   -0.5127   -3.0202 C   0  0  0  0  0  0  0  0  0  0  0  0
   -3.0345   -0.3407   -2.3442 C   0  0  0  0  0  0  0  0  0  0  0  0
   -3.1910    0.2866   -1.0973 C   0  0  0  0  0  0  0  0  0  0  0  0
   -4.4017    0.7285   -0.4808 C   0  0  0  0  0  0  0  0  0  0  0  0
   -5.5528    0.5044   -1.2168 C   0  0  0  0  0  0  0  0  0  0  0  0
   -5.4828   -0.1127   -2.4798 C   0  0  0  0  0  0  0  0  0  0  0  0
   -4.2678   -0.9750   -4.0056 H   0  0  0  0  0  0  0  0  0  0  0  0
   -1.9779    0.4723   -0.4459 N   0  0  0  0  0  0  0  0  0  0  0  0
   -0.9560    0.5773   -0.0115 N   0  0  0  0  0  0  0  0  0  0  0  0
   -6.4030   -0.2716   -3.0359 H   0  0  0  0  0  0  0  0  0  0  0  0
   -6.4997    0.8210   -0.7944 H   0  0  0  0  0  0  0  0  0  0  0  0
   -0.5011    0.2168   -3.7387 N   0  0  0  0  0  0  0  0  0  0  0  0
   -0.1898   -0.7300   -4.2604 N   0  0  0  0  0  0  0  0  0  0  0  0
   -0.2687   -2.0913   -4.5794 C   0  0  0  0  0  0  0  0  0  0  0  0
    0.5590   -2.6406   -5.5758 C   0  0  0  0  0  0  0  0  0  0  0  0
   -1.1970   -2.8252   -3.8381 C   0  0  0  0  0  0  0  0  0  0  0  0
    0.4250   -4.0037   -5.8263 C   0  0  0  0  0  0  0  0  0  0  0  0
   -1.3048   -4.1869   -4.1165 C   0  0  0  0  0  0  0  0  0  0  0  0
   -1.8041   -2.3035   -3.0950 H   0  0  0  0  0  0  0  0  0  0  0  0
   -0.4994   -4.7680   -5.1005 C   0  0  0  0  0  0  0  0  0  0  0  0
    1.0431   -4.4631   -6.5887 H   0  0  0  0  0  0  0  0  0  0  0  0
   -2.0162   -4.7920   -3.5640 H   0  0  0  0  0  0  0  0  0  0  0  0
   -0.5888   -5.8294   -5.3096 H   0  0  0  0  0  0  0  0  0  0  0  0
    1.5129   -1.7488   -6.3021 C   0  0  0  0  0  0  0  0  0  0  0  0
    1.5890   -0.5578   -6.0736 O   0  0  0  0  0  0  0  0  0  0  0  0
    2.2491   -2.4039   -7.2023 O   0  0  0  0  0  0  0  0  0  0  0  0
    2.8431   -1.7645   -7.6338 H   0  0  0  0  0  0  0  0  0  0  0  0
   -4.5405    1.3954    0.8505 C   0  0  0  0  0  0  0  0  0  0  0  0
   -5.5976    1.7481    1.3170 O   0  0  0  0  0  0  0  0  0  0  0  0
   -3.3526    1.5581    1.4769 O   0  0  0  0  0  0  0  0  0  0  0  0
   -3.5325    1.9957    2.3271 H   0  0  0  0  0  0  0  0  0  0  0  0
  1  6  2  0  0  0  0
  1  2  1  0  0  0  0
  2  3  2  0  0  0  0
  3  4  1  0  0  0  0
  3  8  1  0  0  0  0
  4 28  1  0  0  0  0
  5 11  1  0  0  0  0
  5  4  2  0  0  0  0
  6  5  1  0  0  0  0
  7  1  1  0  0  0  0
  8  9  1  0  0  0  0
 10  6  1  0  0  0  0
 13 12  1  0  0  0  0
 14 13  1  0  0  0  0
 14 16  2  0  0  0  0
 15 14  1  0  0  0  0
 16 19  1  0  0  0  0
 17 15  2  0  0  0  0
 17 20  1  0  0  0  0
 18 16  1  0  0  0  0
 18 22  1  0  0  0  0
 20 18  2  0  0  0  0
 21 17  1  0  0  0  0
 23 20  1  0  0  0  0
 24 25  2  0  0  0  0
 24 15  1  0  0  0  0
 26 24  1  0  0  0  0
 27 26  1  0  0  0  0
 28 29  2  0  0  0  0
 28 30  1  0  0  0  0
 30 31  1  0  0  0  0
M  RAD  5   2   2   8   2   9   3  12   3  13   2
M  END
