Coordinates from ORCA-job 1f-Schema5-R6-D+-B3LYPG-6-31G_dp-scan-d49-09-n400
 OpenBabel08231810253D

 31 31  0  0  0  0  0  0  0  0999 V2000
   -4.4737   -0.4424   -3.0140 C   0  0  0  0  0  0  0  0  0  0  0  0
   -3.2396   -0.5431   -2.3189 C   0  0  0  0  0  0  0  0  0  0  0  0
   -3.3584   -0.0344   -1.0121 C   0  0  0  0  0  0  0  0  0  0  0  0
   -4.5010    0.5311   -0.3639 C   0  0  0  0  0  0  0  0  0  0  0  0
   -5.6471    0.5804   -1.1374 C   0  0  0  0  0  0  0  0  0  0  0  0
   -5.6320    0.0939   -2.4596 C   0  0  0  0  0  0  0  0  0  0  0  0
   -4.5279   -0.8045   -4.0406 H   0  0  0  0  0  0  0  0  0  0  0  0
   -2.1581   -0.1332   -0.3173 N   0  0  0  0  0  0  0  0  0  0  0  0
   -1.1494   -0.2626    0.1434 N   0  0  0  0  0  0  0  0  0  0  0  0
   -6.5472    0.1448   -3.0445 H   0  0  0  0  0  0  0  0  0  0  0  0
   -6.5453    1.0001   -0.6987 H   0  0  0  0  0  0  0  0  0  0  0  0
   -0.1274    0.7414   -5.1184 N   0  0  0  0  0  0  0  0  0  0  0  0
   -0.0824   -0.3711   -5.0980 N   0  0  0  0  0  0  0  0  0  0  0  0
   -0.1699   -1.7488   -4.9346 C   0  0  0  0  0  0  0  0  0  0  0  0
    0.6680   -2.6076   -5.6898 C   0  0  0  0  0  0  0  0  0  0  0  0
   -1.1205   -2.1865   -4.0015 C   0  0  0  0  0  0  0  0  0  0  0  0
    0.5199   -3.9713   -5.4772 C   0  0  0  0  0  0  0  0  0  0  0  0
   -1.2276   -3.5677   -3.8271 C   0  0  0  0  0  0  0  0  0  0  0  0
   -1.7730   -1.4874   -3.4139 H   0  0  0  0  0  0  0  0  0  0  0  0
   -0.4234   -4.4479   -4.5516 C   0  0  0  0  0  0  0  0  0  0  0  0
    1.1428   -4.6594   -6.0367 H   0  0  0  0  0  0  0  0  0  0  0  0
   -1.9546   -3.9453   -3.1146 H   0  0  0  0  0  0  0  0  0  0  0  0
   -0.5230   -5.5189   -4.4027 H   0  0  0  0  0  0  0  0  0  0  0  0
    1.6458   -2.0196   -6.6531 C   0  0  0  0  0  0  0  0  0  0  0  0
    1.7486   -0.8190   -6.8098 O   0  0  0  0  0  0  0  0  0  0  0  0
    2.3631   -2.9430   -7.2928 O   0  0  0  0  0  0  0  0  0  0  0  0
    2.9751   -2.4901   -7.8997 H   0  0  0  0  0  0  0  0  0  0  0  0
   -4.5755    1.0612    1.0303 C   0  0  0  0  0  0  0  0  0  0  0  0
   -5.5772    1.5234    1.5247 O   0  0  0  0  0  0  0  0  0  0  0  0
   -3.3946    0.9715    1.6875 O   0  0  0  0  0  0  0  0  0  0  0  0
   -3.5356    1.3388    2.5771 H   0  0  0  0  0  0  0  0  0  0  0  0
  1  6  2  0  0  0  0
  1  2  1  0  0  0  0
  2  3  2  0  0  0  0
  3  4  1  0  0  0  0
  3  8  1  0  0  0  0
  4 28  1  0  0  0  0
  5 11  1  0  0  0  0
  5  4  2  0  0  0  0
  6  5  1  0  0  0  0
  7  1  1  0  0  0  0
  8  9  1  0  0  0  0
 10  6  1  0  0  0  0
 12 13  1  0  0  0  0
 13 14  1  0  0  0  0
 14 16  2  0  0  0  0
 15 17  2  0  0  0  0
 15 14  1  0  0  0  0
 16 18  1  0  0  0  0
 16 19  1  0  0  0  0
 17 20  1  0  0  0  0
 18 22  1  0  0  0  0
 20 23  1  0  0  0  0
 20 18  2  0  0  0  0
 21 17  1  0  0  0  0
 24 15  1  0  0  0  0
 25 24  2  0  0  0  0
 26 24  1  0  0  0  0
 27 26  1  0  0  0  0
 28 29  2  0  0  0  0
 28 30  1  0  0  0  0
 30 31  1  0  0  0  0
M  RAD  5   2   2   8   2   9   3  12   3  13   2
M  END
