Coordinates from ORCA-job 1f-Schema5-R6-D+-B3LYPG-6-31G_dp-scan-d49-09-n400
 OpenBabel08231810253D

 31 32  0  0  0  0  0  0  0  0999 V2000
   -2.9494    0.1337   -3.6557 C   0  0  0  0  0  0  0  0  0  0  0  0
   -2.0323   -0.0126   -2.5513 C   0  0  0  0  0  0  0  0  0  0  0  0
   -2.5858    0.2871   -1.2355 C   0  0  0  0  0  0  0  0  0  0  0  0
   -3.9657    0.6203   -1.0322 C   0  0  0  0  0  0  0  0  0  0  0  0
   -4.7739    0.7142   -2.1401 C   0  0  0  0  0  0  0  0  0  0  0  0
   -4.2565    0.4871   -3.4424 C   0  0  0  0  0  0  0  0  0  0  0  0
   -2.5422   -0.0032   -4.6523 H   0  0  0  0  0  0  0  0  0  0  0  0
   -1.6944    0.2444   -0.2270 N   0  0  0  0  0  0  0  0  0  0  0  0
   -0.8638    0.2301    0.5302 N   0  0  0  0  0  0  0  0  0  0  0  0
   -4.9207    0.5843   -4.2955 H   0  0  0  0  0  0  0  0  0  0  0  0
   -5.8153    0.9747   -1.9900 H   0  0  0  0  0  0  0  0  0  0  0  0
   -0.8498   -0.2166   -2.7127 N   0  0  0  0  0  0  0  0  0  0  0  0
   -0.1156   -0.8606   -3.4863 N   0  0  0  0  0  0  0  0  0  0  0  0
   -0.4824   -2.1628   -3.8905 C   0  0  0  0  0  0  0  0  0  0  0  0
   -0.1585   -2.5583   -5.2118 C   0  0  0  0  0  0  0  0  0  0  0  0
   -0.9565   -3.1060   -2.9652 C   0  0  0  0  0  0  0  0  0  0  0  0
   -0.3046   -3.8925   -5.5797 C   0  0  0  0  0  0  0  0  0  0  0  0
   -1.0924   -4.4390   -3.3513 C   0  0  0  0  0  0  0  0  0  0  0  0
   -1.1366   -2.8116   -1.9365 H   0  0  0  0  0  0  0  0  0  0  0  0
   -0.7645   -4.8336   -4.6503 C   0  0  0  0  0  0  0  0  0  0  0  0
   -0.0821   -4.1870   -6.5991 H   0  0  0  0  0  0  0  0  0  0  0  0
   -1.4380   -5.1726   -2.6303 H   0  0  0  0  0  0  0  0  0  0  0  0
   -0.8711   -5.8723   -4.9445 H   0  0  0  0  0  0  0  0  0  0  0  0
    0.1589   -1.4798   -6.1852 C   0  0  0  0  0  0  0  0  0  0  0  0
   -0.1417   -0.3139   -5.9888 O   0  0  0  0  0  0  0  0  0  0  0  0
    0.7711   -1.9206   -7.2900 O   0  0  0  0  0  0  0  0  0  0  0  0
    0.9125   -1.1588   -7.8788 H   0  0  0  0  0  0  0  0  0  0  0  0
   -4.5914    0.8795    0.3075 C   0  0  0  0  0  0  0  0  0  0  0  0
   -5.7509    1.1827    0.4445 O   0  0  0  0  0  0  0  0  0  0  0  0
   -3.7171    0.7287    1.3227 O   0  0  0  0  0  0  0  0  0  0  0  0
   -4.1902    0.9177    2.1523 H   0  0  0  0  0  0  0  0  0  0  0  0
  1  6  2  0  0  0  0
  1  2  1  0  0  0  0
  2  3  2  0  0  0  0
  3  4  1  0  0  0  0
  3  8  1  0  0  0  0
  4 28  1  0  0  0  0
  5 11  1  0  0  0  0
  5  4  2  0  0  0  0
  6  5  1  0  0  0  0
  7  1  1  0  0  0  0
  8  9  1  0  0  0  0
 10  6  1  0  0  0  0
 12  2  1  0  0  0  0
 13 12  1  0  0  0  0
 14 13  1  0  0  0  0
 14 16  2  0  0  0  0
 15 14  1  0  0  0  0
 16 19  1  0  0  0  0
 17 15  2  0  0  0  0
 17 20  1  0  0  0  0
 18 16  1  0  0  0  0
 18 22  1  0  0  0  0
 20 18  2  0  0  0  0
 21 17  1  0  0  0  0
 23 20  1  0  0  0  0
 24 25  2  0  0  0  0
 24 15  1  0  0  0  0
 26 24  1  0  0  0  0
 27 26  1  0  0  0  0
 28 29  2  0  0  0  0
 28 30  1  0  0  0  0
 30 31  1  0  0  0  0
M  RAD  4   8   2   9   3  12   2  13   2
M  END
