Coordinates from ORCA-job 1f-Schema5-R6-D+-B3LYPG-6-31G_dp-scan-d49-09-n400
 OpenBabel08231810253D

 31 32  0  0  0  0  0  0  0  0999 V2000
   -2.7669   -0.0210   -3.6542 C   0  0  0  0  0  0  0  0  0  0  0  0
   -1.9400   -0.0668   -2.5190 C   0  0  0  0  0  0  0  0  0  0  0  0
   -2.5278    0.2503   -1.2608 C   0  0  0  0  0  0  0  0  0  0  0  0
   -3.9191    0.5139   -1.1021 C   0  0  0  0  0  0  0  0  0  0  0  0
   -4.6940    0.4968   -2.2493 C   0  0  0  0  0  0  0  0  0  0  0  0
   -4.1207    0.2484   -3.5116 C   0  0  0  0  0  0  0  0  0  0  0  0
   -2.3094   -0.1619   -4.6283 H   0  0  0  0  0  0  0  0  0  0  0  0
   -1.6539    0.3085   -0.2113 N   0  0  0  0  0  0  0  0  0  0  0  0
   -0.8708    0.3803    0.5817 N   0  0  0  0  0  0  0  0  0  0  0  0
   -4.7539    0.2716   -4.3928 H   0  0  0  0  0  0  0  0  0  0  0  0
   -5.7537    0.7020   -2.1448 H   0  0  0  0  0  0  0  0  0  0  0  0
   -0.5317   -0.1028   -2.6027 N   0  0  0  0  0  0  0  0  0  0  0  0
    0.1066   -0.8828   -3.3314 N   0  0  0  0  0  0  0  0  0  0  0  0
   -0.4287   -2.1127   -3.8081 C   0  0  0  0  0  0  0  0  0  0  0  0
   -0.2593   -2.4682   -5.1647 C   0  0  0  0  0  0  0  0  0  0  0  0
   -0.8851   -3.0623   -2.8839 C   0  0  0  0  0  0  0  0  0  0  0  0
   -0.5507   -3.7697   -5.5731 C   0  0  0  0  0  0  0  0  0  0  0  0
   -1.1704   -4.3610   -3.3103 C   0  0  0  0  0  0  0  0  0  0  0  0
   -0.9440   -2.8055   -1.8311 H   0  0  0  0  0  0  0  0  0  0  0  0
   -1.0021   -4.7171   -4.6488 C   0  0  0  0  0  0  0  0  0  0  0  0
   -0.4384   -4.0299   -6.6198 H   0  0  0  0  0  0  0  0  0  0  0  0
   -1.5089   -5.0975   -2.5887 H   0  0  0  0  0  0  0  0  0  0  0  0
   -1.2218   -5.7278   -4.9752 H   0  0  0  0  0  0  0  0  0  0  0  0
    0.0875   -1.3852   -6.1192 C   0  0  0  0  0  0  0  0  0  0  0  0
   -0.0947   -0.2057   -5.8637 O   0  0  0  0  0  0  0  0  0  0  0  0
    0.5851   -1.8289   -7.2802 O   0  0  0  0  0  0  0  0  0  0  0  0
    0.7555   -1.0550   -7.8447 H   0  0  0  0  0  0  0  0  0  0  0  0
   -4.6035    0.8160    0.2006 C   0  0  0  0  0  0  0  0  0  0  0  0
   -5.7858    1.0356    0.2822 O   0  0  0  0  0  0  0  0  0  0  0  0
   -3.7481    0.8063    1.2415 O   0  0  0  0  0  0  0  0  0  0  0  0
   -4.2526    1.0145    2.0482 H   0  0  0  0  0  0  0  0  0  0  0  0
  1  6  2  0  0  0  0
  1  2  1  0  0  0  0
  2  3  2  0  0  0  0
  3  4  1  0  0  0  0
  3  8  1  0  0  0  0
  4 28  1  0  0  0  0
  5 11  1  0  0  0  0
  5  4  2  0  0  0  0
  6  5  1  0  0  0  0
  7  1  1  0  0  0  0
  8  9  1  0  0  0  0
 10  6  1  0  0  0  0
 12  2  1  0  0  0  0
 13 12  1  0  0  0  0
 14 13  1  0  0  0  0
 14 16  2  0  0  0  0
 15 14  1  0  0  0  0
 16 19  1  0  0  0  0
 17 15  2  0  0  0  0
 17 20  1  0  0  0  0
 18 16  1  0  0  0  0
 18 22  1  0  0  0  0
 20 18  2  0  0  0  0
 21 17  1  0  0  0  0
 23 20  1  0  0  0  0
 24 25  2  0  0  0  0
 24 15  1  0  0  0  0
 26 24  1  0  0  0  0
 27 26  1  0  0  0  0
 28 29  2  0  0  0  0
 28 30  1  0  0  0  0
 30 31  1  0  0  0  0
M  RAD  4   8   2   9   3  12   2  13   2
M  END
