Coordinates from ORCA-job 1f-Schema5-R6-D+-B3LYPG-6-31G_dp-scan-d49-09-n400
 OpenBabel08231810253D

 31 31  0  0  0  0  0  0  0  0999 V2000
   -4.4047   -0.3750   -3.0730 C   0  0  0  0  0  0  0  0  0  0  0  0
   -3.2089   -0.5700   -2.3330 C   0  0  0  0  0  0  0  0  0  0  0  0
   -3.3370   -0.0566   -1.0288 C   0  0  0  0  0  0  0  0  0  0  0  0
   -4.4572    0.5927   -0.4213 C   0  0  0  0  0  0  0  0  0  0  0  0
   -5.5654    0.7335   -1.2377 C   0  0  0  0  0  0  0  0  0  0  0  0
   -5.5380    0.2500   -2.5606 C   0  0  0  0  0  0  0  0  0  0  0  0
   -4.4495   -0.7335   -4.1013 H   0  0  0  0  0  0  0  0  0  0  0  0
   -2.1758   -0.2490   -0.2887 N   0  0  0  0  0  0  0  0  0  0  0  0
   -1.1993   -0.4569    0.2108 N   0  0  0  0  0  0  0  0  0  0  0  0
   -6.4232    0.3731   -3.1796 H   0  0  0  0  0  0  0  0  0  0  0  0
   -6.4448    1.2197   -0.8306 H   0  0  0  0  0  0  0  0  0  0  0  0
   -0.5082    0.6304   -4.9197 N   0  0  0  0  0  0  0  0  0  0  0  0
   -0.3202   -0.4661   -4.9739 N   0  0  0  0  0  0  0  0  0  0  0  0
   -0.2685   -1.8520   -4.8549 C   0  0  0  0  0  0  0  0  0  0  0  0
    0.6152   -2.6097   -5.6592 C   0  0  0  0  0  0  0  0  0  0  0  0
   -1.1447   -2.3903   -3.9040 C   0  0  0  0  0  0  0  0  0  0  0  0
    0.5964   -3.9860   -5.4773 C   0  0  0  0  0  0  0  0  0  0  0  0
   -1.1256   -3.7789   -3.7602 C   0  0  0  0  0  0  0  0  0  0  0  0
   -1.8179   -1.7211   -3.3051 H   0  0  0  0  0  0  0  0  0  0  0  0
   -0.2693   -4.5649   -4.5336 C   0  0  0  0  0  0  0  0  0  0  0  0
    1.2578   -4.6042   -6.0732 H   0  0  0  0  0  0  0  0  0  0  0  0
   -1.7900   -4.2417   -3.0371 H   0  0  0  0  0  0  0  0  0  0  0  0
   -0.2675   -5.6437   -4.4088 H   0  0  0  0  0  0  0  0  0  0  0  0
    1.4970   -1.9038   -6.6346 C   0  0  0  0  0  0  0  0  0  0  0  0
    1.4774   -0.6942   -6.7531 O   0  0  0  0  0  0  0  0  0  0  0  0
    2.2756   -2.7335   -7.3283 O   0  0  0  0  0  0  0  0  0  0  0  0
    2.8192   -2.2064   -7.9404 H   0  0  0  0  0  0  0  0  0  0  0  0
   -4.5452    1.1207    0.9731 C   0  0  0  0  0  0  0  0  0  0  0  0
   -5.5252    1.6617    1.4294 O   0  0  0  0  0  0  0  0  0  0  0  0
   -3.4034    0.9323    1.6766 O   0  0  0  0  0  0  0  0  0  0  0  0
   -3.5500    1.3061    2.5626 H   0  0  0  0  0  0  0  0  0  0  0  0
  1  6  2  0  0  0  0
  1  2  1  0  0  0  0
  2  3  2  0  0  0  0
  3  4  1  0  0  0  0
  3  8  1  0  0  0  0
  4 28  1  0  0  0  0
  5 11  1  0  0  0  0
  5  4  2  0  0  0  0
  6  5  1  0  0  0  0
  7  1  1  0  0  0  0
  8  9  1  0  0  0  0
 10  6  1  0  0  0  0
 13 12  1  0  0  0  0
 13 14  1  0  0  0  0
 14 16  2  0  0  0  0
 15 17  2  0  0  0  0
 15 14  1  0  0  0  0
 16 18  1  0  0  0  0
 16 19  1  0  0  0  0
 17 20  1  0  0  0  0
 18 22  1  0  0  0  0
 20 23  1  0  0  0  0
 20 18  2  0  0  0  0
 21 17  1  0  0  0  0
 24 15  1  0  0  0  0
 25 24  2  0  0  0  0
 26 24  1  0  0  0  0
 27 26  1  0  0  0  0
 28 29  2  0  0  0  0
 28 30  1  0  0  0  0
 30 31  1  0  0  0  0
M  RAD  5   2   2   8   2   9   3  12   3  13   2
M  END
