Coordinates from ORCA-job 1f-Schema5-R6-D+-B3LYPG-6-31G_dp-scan-d49-09-n400
 OpenBabel08231810253D

 31 31  0  0  0  0  0  0  0  0999 V2000
   -4.1515   -0.5840   -3.0013 C   0  0  0  0  0  0  0  0  0  0  0  0
   -2.9493   -0.3354   -2.3098 C   0  0  0  0  0  0  0  0  0  0  0  0
   -3.1424    0.3377   -1.0943 C   0  0  0  0  0  0  0  0  0  0  0  0
   -4.3793    0.7547   -0.5154 C   0  0  0  0  0  0  0  0  0  0  0  0
   -5.5088    0.4542   -1.2584 C   0  0  0  0  0  0  0  0  0  0  0  0
   -5.3955   -0.2095   -2.4941 C   0  0  0  0  0  0  0  0  0  0  0  0
   -4.1211   -1.0850   -3.9668 H   0  0  0  0  0  0  0  0  0  0  0  0
   -1.9456    0.6055   -0.4405 N   0  0  0  0  0  0  0  0  0  0  0  0
   -0.9338    0.7776   -0.0046 N   0  0  0  0  0  0  0  0  0  0  0  0
   -6.2998   -0.4264   -3.0564 H   0  0  0  0  0  0  0  0  0  0  0  0
   -6.4740    0.7493   -0.8627 H   0  0  0  0  0  0  0  0  0  0  0  0
   -0.4170    0.0665   -3.4217 N   0  0  0  0  0  0  0  0  0  0  0  0
   -0.1060   -0.8316   -4.0316 N   0  0  0  0  0  0  0  0  0  0  0  0
   -0.2546   -2.1524   -4.4737 C   0  0  0  0  0  0  0  0  0  0  0  0
    0.5122   -2.6308   -5.5518 C   0  0  0  0  0  0  0  0  0  0  0  0
   -1.1703   -2.9333   -3.7645 C   0  0  0  0  0  0  0  0  0  0  0  0
    0.3273   -3.9612   -5.9216 C   0  0  0  0  0  0  0  0  0  0  0  0
   -1.3313   -4.2596   -4.1614 C   0  0  0  0  0  0  0  0  0  0  0  0
   -1.7325   -2.4772   -2.9519 H   0  0  0  0  0  0  0  0  0  0  0  0
   -0.5859   -4.7674   -5.2295 C   0  0  0  0  0  0  0  0  0  0  0  0
    0.8977   -4.3613   -6.7514 H   0  0  0  0  0  0  0  0  0  0  0  0
   -2.0353   -4.8950   -3.6343 H   0  0  0  0  0  0  0  0  0  0  0  0
   -0.7140   -5.8022   -5.5300 H   0  0  0  0  0  0  0  0  0  0  0  0
    1.4570   -1.7030   -6.2449 C   0  0  0  0  0  0  0  0  0  0  0  0
    1.5647   -0.5327   -5.9383 O   0  0  0  0  0  0  0  0  0  0  0  0
    2.1520   -2.3055   -7.2137 O   0  0  0  0  0  0  0  0  0  0  0  0
    2.7415   -1.6451   -7.6188 H   0  0  0  0  0  0  0  0  0  0  0  0
   -4.5654    1.4689    0.7858 C   0  0  0  0  0  0  0  0  0  0  0  0
   -5.6431    1.7963    1.2217 O   0  0  0  0  0  0  0  0  0  0  0  0
   -3.3945    1.7040    1.4201 O   0  0  0  0  0  0  0  0  0  0  0  0
   -3.6024    2.1668    2.2504 H   0  0  0  0  0  0  0  0  0  0  0  0
  1  6  2  0  0  0  0
  1  2  1  0  0  0  0
  2  3  2  0  0  0  0
  3  4  1  0  0  0  0
  3  8  1  0  0  0  0
  4 28  1  0  0  0  0
  5 11  1  0  0  0  0
  5  4  2  0  0  0  0
  6  5  1  0  0  0  0
  7  1  1  0  0  0  0
  8  9  1  0  0  0  0
 10  6  1  0  0  0  0
 13 12  2  0  0  0  0
 14 13  1  0  0  0  0
 14 16  2  0  0  0  0
 15 14  1  0  0  0  0
 16 19  1  0  0  0  0
 17 15  2  0  0  0  0
 17 20  1  0  0  0  0
 18 16  1  0  0  0  0
 18 22  1  0  0  0  0
 20 18  2  0  0  0  0
 21 17  1  0  0  0  0
 23 20  1  0  0  0  0
 24 25  2  0  0  0  0
 24 15  1  0  0  0  0
 26 24  1  0  0  0  0
 27 26  1  0  0  0  0
 28 29  2  0  0  0  0
 28 30  1  0  0  0  0
 30 31  1  0  0  0  0
M  RAD  4   2   2   8   2   9   3  12   2
M  END
