Coordinates from ORCA-job 1f-Schema5-R6-D+-B3LYPG-6-31G_dp-scan-d49-09-n400
 OpenBabel08231810253D

 31 31  0  0  0  0  0  0  0  0999 V2000
   -4.4791   -0.5553   -2.9479 C   0  0  0  0  0  0  0  0  0  0  0  0
   -3.2230   -0.5023   -2.2870 C   0  0  0  0  0  0  0  0  0  0  0  0
   -3.3659    0.0093   -0.9838 C   0  0  0  0  0  0  0  0  0  0  0  0
   -4.5482    0.4483   -0.3094 C   0  0  0  0  0  0  0  0  0  0  0  0
   -5.7131    0.3496   -1.0493 C   0  0  0  0  0  0  0  0  0  0  0  0
   -5.6770   -0.1520   -2.3655 C   0  0  0  0  0  0  0  0  0  0  0  0
   -4.5181   -0.9316   -3.9699 H   0  0  0  0  0  0  0  0  0  0  0  0
   -2.1428    0.0635   -0.3243 N   0  0  0  0  0  0  0  0  0  0  0  0
   -1.1128    0.0618    0.1065 N   0  0  0  0  0  0  0  0  0  0  0  0
   -6.6077   -0.2182   -2.9237 H   0  0  0  0  0  0  0  0  0  0  0  0
   -6.6420    0.6687   -0.5903 H   0  0  0  0  0  0  0  0  0  0  0  0
    0.3992    0.8232   -5.2104 N   0  0  0  0  0  0  0  0  0  0  0  0
    0.2668   -0.2817   -5.1665 N   0  0  0  0  0  0  0  0  0  0  0  0
   -0.0189   -1.6300   -4.9932 C   0  0  0  0  0  0  0  0  0  0  0  0
    0.7058   -2.6042   -5.7280 C   0  0  0  0  0  0  0  0  0  0  0  0
   -1.0370   -1.9323   -4.0763 C   0  0  0  0  0  0  0  0  0  0  0  0
    0.3693   -3.9333   -5.5115 C   0  0  0  0  0  0  0  0  0  0  0  0
   -1.3341   -3.2841   -3.8972 C   0  0  0  0  0  0  0  0  0  0  0  0
   -1.6243   -1.1848   -3.4898 H   0  0  0  0  0  0  0  0  0  0  0  0
   -0.6458   -4.2717   -4.6015 C   0  0  0  0  0  0  0  0  0  0  0  0
    0.9028   -4.7032   -6.0564 H   0  0  0  0  0  0  0  0  0  0  0  0
   -2.1196   -3.5434   -3.1939 H   0  0  0  0  0  0  0  0  0  0  0  0
   -0.8930   -5.3178   -4.4497 H   0  0  0  0  0  0  0  0  0  0  0  0
    1.7731   -2.1684   -6.6785 C   0  0  0  0  0  0  0  0  0  0  0  0
    2.0468   -0.9963   -6.8439 O   0  0  0  0  0  0  0  0  0  0  0  0
    2.3647   -3.1903   -7.2966 O   0  0  0  0  0  0  0  0  0  0  0  0
    3.0450   -2.8340   -7.8954 H   0  0  0  0  0  0  0  0  0  0  0  0
   -4.6453    0.9901    1.0787 C   0  0  0  0  0  0  0  0  0  0  0  0
   -5.6797    1.3422    1.5962 O   0  0  0  0  0  0  0  0  0  0  0  0
   -3.4442    1.0484    1.7023 O   0  0  0  0  0  0  0  0  0  0  0  0
   -3.6026    1.4124    2.5904 H   0  0  0  0  0  0  0  0  0  0  0  0
  1  6  2  0  0  0  0
  1  2  1  0  0  0  0
  2  3  2  0  0  0  0
  3  8  1  0  0  0  0
  3  4  1  0  0  0  0
  4 28  1  0  0  0  0
  5 11  1  0  0  0  0
  5  4  2  0  0  0  0
  6  5  1  0  0  0  0
  7  1  1  0  0  0  0
  8  9  1  0  0  0  0
 10  6  1  0  0  0  0
 12 13  1  0  0  0  0
 13 14  1  0  0  0  0
 14 16  2  0  0  0  0
 15 17  2  0  0  0  0
 15 14  1  0  0  0  0
 16 18  1  0  0  0  0
 16 19  1  0  0  0  0
 17 20  1  0  0  0  0
 18 22  1  0  0  0  0
 20 23  1  0  0  0  0
 20 18  2  0  0  0  0
 21 17  1  0  0  0  0
 24 15  1  0  0  0  0
 25 24  2  0  0  0  0
 26 24  1  0  0  0  0
 27 26  1  0  0  0  0
 28 29  2  0  0  0  0
 28 30  1  0  0  0  0
 30 31  1  0  0  0  0
M  RAD  5   2   2   8   2   9   3  12   3  13   2
M  END
