Coordinates from ORCA-job 1f-Schema5-R6-D+-B3LYPG-6-31G_dp-scan-d49-09-n400
 OpenBabel08231810253D

 31 31  0  0  0  0  0  0  0  0999 V2000
   -4.4747   -0.5010   -2.9803 C   0  0  0  0  0  0  0  0  0  0  0  0
   -3.2286   -0.5291   -2.2998 C   0  0  0  0  0  0  0  0  0  0  0  0
   -3.3579   -0.0115   -0.9976 C   0  0  0  0  0  0  0  0  0  0  0  0
   -4.5204    0.5016   -0.3411 C   0  0  0  0  0  0  0  0  0  0  0  0
   -5.6771    0.4804   -1.0998 C   0  0  0  0  0  0  0  0  0  0  0  0
   -5.6528   -0.0206   -2.4165 C   0  0  0  0  0  0  0  0  0  0  0  0
   -4.5219   -0.8754   -4.0027 H   0  0  0  0  0  0  0  0  0  0  0  0
   -2.1453   -0.0388   -0.3178 N   0  0  0  0  0  0  0  0  0  0  0  0
   -1.1252   -0.1093    0.1304 N   0  0  0  0  0  0  0  0  0  0  0  0
   -6.5768   -0.0252   -2.9896 H   0  0  0  0  0  0  0  0  0  0  0  0
   -6.5906    0.8580   -0.6545 H   0  0  0  0  0  0  0  0  0  0  0  0
    0.1010    0.7799   -5.1258 N   0  0  0  0  0  0  0  0  0  0  0  0
    0.0687   -0.3330   -5.1049 N   0  0  0  0  0  0  0  0  0  0  0  0
   -0.1059   -1.7029   -4.9509 C   0  0  0  0  0  0  0  0  0  0  0  0
    0.6842   -2.6066   -5.7064 C   0  0  0  0  0  0  0  0  0  0  0  0
   -1.0884   -2.0910   -4.0285 C   0  0  0  0  0  0  0  0  0  0  0  0
    0.4524   -3.9604   -5.5055 C   0  0  0  0  0  0  0  0  0  0  0  0
   -1.2800   -3.4644   -3.8661 C   0  0  0  0  0  0  0  0  0  0  0  0
   -1.7129   -1.3740   -3.4347 H   0  0  0  0  0  0  0  0  0  0  0  0
   -0.5251   -4.3866   -4.5910 C   0  0  0  0  0  0  0  0  0  0  0  0
    1.0372   -4.6803   -6.0659 H   0  0  0  0  0  0  0  0  0  0  0  0
   -2.0351   -3.7991   -3.1613 H   0  0  0  0  0  0  0  0  0  0  0  0
   -0.6905   -5.4505   -4.4515 H   0  0  0  0  0  0  0  0  0  0  0  0
    1.7039   -2.0743   -6.6591 C   0  0  0  0  0  0  0  0  0  0  0  0
    1.8816   -0.8817   -6.8086 O   0  0  0  0  0  0  0  0  0  0  0  0
    2.3682   -3.0367   -7.2985 O   0  0  0  0  0  0  0  0  0  0  0  0
    3.0116   -2.6187   -7.8981 H   0  0  0  0  0  0  0  0  0  0  0  0
   -4.6048    1.0455    1.0471 C   0  0  0  0  0  0  0  0  0  0  0  0
   -5.6232    1.4598    1.5499 O   0  0  0  0  0  0  0  0  0  0  0  0
   -3.4118    1.0289    1.6884 O   0  0  0  0  0  0  0  0  0  0  0  0
   -3.5606    1.4000    2.5752 H   0  0  0  0  0  0  0  0  0  0  0  0
  1  6  2  0  0  0  0
  1  2  1  0  0  0  0
  2  3  2  0  0  0  0
  3  4  1  0  0  0  0
  3  8  1  0  0  0  0
  4 28  1  0  0  0  0
  5 11  1  0  0  0  0
  5  4  2  0  0  0  0
  6  5  1  0  0  0  0
  7  1  1  0  0  0  0
  8  9  1  0  0  0  0
 10  6  1  0  0  0  0
 12 13  1  0  0  0  0
 13 14  1  0  0  0  0
 14 16  2  0  0  0  0
 15 17  2  0  0  0  0
 15 14  1  0  0  0  0
 16 18  1  0  0  0  0
 16 19  1  0  0  0  0
 17 20  1  0  0  0  0
 18 22  1  0  0  0  0
 20 23  1  0  0  0  0
 20 18  2  0  0  0  0
 21 17  1  0  0  0  0
 24 15  1  0  0  0  0
 25 24  2  0  0  0  0
 26 24  1  0  0  0  0
 27 26  1  0  0  0  0
 28 29  2  0  0  0  0
 28 30  1  0  0  0  0
 30 31  1  0  0  0  0
M  RAD  5   2   2   8   2   9   3  12   3  13   2
M  END
