Coordinates from ORCA-job 1f-Schema5-R6-D+-B3LYPG-6-31G_dp-scan-d49-09-n400
 OpenBabel08231810253D

 31 31  0  0  0  0  0  0  0  0999 V2000
   -4.3761   -0.3832   -3.0583 C   0  0  0  0  0  0  0  0  0  0  0  0
   -3.1908   -0.5690   -2.2990 C   0  0  0  0  0  0  0  0  0  0  0  0
   -3.3445   -0.0572   -0.9970 C   0  0  0  0  0  0  0  0  0  0  0  0
   -4.4796    0.5827   -0.4075 C   0  0  0  0  0  0  0  0  0  0  0  0
   -5.5757    0.7145   -1.2416 C   0  0  0  0  0  0  0  0  0  0  0  0
   -5.5227    0.2318   -2.5641 C   0  0  0  0  0  0  0  0  0  0  0  0
   -4.4011   -0.7414   -4.0874 H   0  0  0  0  0  0  0  0  0  0  0  0
   -2.1937   -0.2402   -0.2385 N   0  0  0  0  0  0  0  0  0  0  0  0
   -1.2235   -0.4398    0.2765 N   0  0  0  0  0  0  0  0  0  0  0  0
   -6.3990    0.3476   -3.1971 H   0  0  0  0  0  0  0  0  0  0  0  0
   -6.4655    1.1932   -0.8487 H   0  0  0  0  0  0  0  0  0  0  0  0
   -0.3738    0.6635   -4.9470 N   0  0  0  0  0  0  0  0  0  0  0  0
   -0.2401   -0.4415   -4.9810 N   0  0  0  0  0  0  0  0  0  0  0  0
   -0.2279   -1.8267   -4.8570 C   0  0  0  0  0  0  0  0  0  0  0  0
    0.6163   -2.6093   -5.6825 C   0  0  0  0  0  0  0  0  0  0  0  0
   -1.0924   -2.3447   -3.8832 C   0  0  0  0  0  0  0  0  0  0  0  0
    0.5697   -3.9844   -5.4973 C   0  0  0  0  0  0  0  0  0  0  0  0
   -1.1020   -3.7335   -3.7394 C   0  0  0  0  0  0  0  0  0  0  0  0
   -1.7497   -1.6765   -3.2660 H   0  0  0  0  0  0  0  0  0  0  0  0
   -0.2844   -4.5416   -4.5309 C   0  0  0  0  0  0  0  0  0  0  0  0
    1.2006   -4.6185   -6.1093 H   0  0  0  0  0  0  0  0  0  0  0  0
   -1.7604   -4.1786   -2.9998 H   0  0  0  0  0  0  0  0  0  0  0  0
   -0.3047   -5.6198   -4.4032 H   0  0  0  0  0  0  0  0  0  0  0  0
    1.4914   -1.9332   -6.6855 C   0  0  0  0  0  0  0  0  0  0  0  0
    1.5030   -0.7247   -6.8138 O   0  0  0  0  0  0  0  0  0  0  0  0
    2.2277   -2.7895   -7.3932 O   0  0  0  0  0  0  0  0  0  0  0  0
    2.7690   -2.2821   -8.0237 H   0  0  0  0  0  0  0  0  0  0  0  0
   -4.5944    1.1101    0.9852 C   0  0  0  0  0  0  0  0  0  0  0  0
   -5.5862    1.6425    1.4259 O   0  0  0  0  0  0  0  0  0  0  0  0
   -3.4630    0.9301    1.7074 O   0  0  0  0  0  0  0  0  0  0  0  0
   -3.6273    1.3022    2.5911 H   0  0  0  0  0  0  0  0  0  0  0  0
  1  6  2  0  0  0  0
  1  2  1  0  0  0  0
  2  3  2  0  0  0  0
  3  4  1  0  0  0  0
  3  8  1  0  0  0  0
  4 28  1  0  0  0  0
  5 11  1  0  0  0  0
  5  4  2  0  0  0  0
  6  5  1  0  0  0  0
  7  1  1  0  0  0  0
  8  9  1  0  0  0  0
 10  6  1  0  0  0  0
 13 12  1  0  0  0  0
 13 14  1  0  0  0  0
 14 16  2  0  0  0  0
 15 17  2  0  0  0  0
 15 14  1  0  0  0  0
 16 18  1  0  0  0  0
 16 19  1  0  0  0  0
 17 20  1  0  0  0  0
 18 22  1  0  0  0  0
 20 23  1  0  0  0  0
 20 18  2  0  0  0  0
 21 17  1  0  0  0  0
 24 15  1  0  0  0  0
 25 24  2  0  0  0  0
 26 24  1  0  0  0  0
 27 26  1  0  0  0  0
 28 29  2  0  0  0  0
 28 30  1  0  0  0  0
 30 31  1  0  0  0  0
M  RAD  5   2   2   8   2   9   3  12   3  13   2
M  END
