Coordinates from ORCA-job 1f-Schema5-R6-D+-B3LYPG-6-31G_dp-scan-d49-09-n400
 OpenBabel08231810253D

 31 31  0  0  0  0  0  0  0  0999 V2000
   -4.4756   -0.3836   -3.0513 C   0  0  0  0  0  0  0  0  0  0  0  0
   -3.2560   -0.5595   -2.3457 C   0  0  0  0  0  0  0  0  0  0  0  0
   -3.3600   -0.0599   -1.0341 C   0  0  0  0  0  0  0  0  0  0  0  0
   -4.4767    0.5601   -0.3904 C   0  0  0  0  0  0  0  0  0  0  0  0
   -5.6097    0.6829   -1.1748 C   0  0  0  0  0  0  0  0  0  0  0  0
   -5.6078    0.2111   -2.5024 C   0  0  0  0  0  0  0  0  0  0  0  0
   -4.5401   -0.7329   -4.0816 H   0  0  0  0  0  0  0  0  0  0  0  0
   -2.1748   -0.2329   -0.3283 N   0  0  0  0  0  0  0  0  0  0  0  0
   -1.1799   -0.4234    0.1413 N   0  0  0  0  0  0  0  0  0  0  0  0
   -6.5124    0.3196   -3.0959 H   0  0  0  0  0  0  0  0  0  0  0  0
   -6.4880    1.1466   -0.7399 H   0  0  0  0  0  0  0  0  0  0  0  0
   -0.3767    0.6866   -5.1050 N   0  0  0  0  0  0  0  0  0  0  0  0
   -0.2453   -0.4191   -5.0901 N   0  0  0  0  0  0  0  0  0  0  0  0
   -0.2391   -1.7990   -4.9179 C   0  0  0  0  0  0  0  0  0  0  0  0
    0.6502   -2.6075   -5.6681 C   0  0  0  0  0  0  0  0  0  0  0  0
   -1.1578   -2.2863   -3.9782 C   0  0  0  0  0  0  0  0  0  0  0  0
    0.5901   -3.9759   -5.4427 C   0  0  0  0  0  0  0  0  0  0  0  0
   -1.1761   -3.6697   -3.7896 C   0  0  0  0  0  0  0  0  0  0  0  0
   -1.8399   -1.6052   -3.4022 H   0  0  0  0  0  0  0  0  0  0  0  0
   -0.3185   -4.5027   -4.5093 C   0  0  0  0  0  0  0  0  0  0  0  0
    1.2541   -4.6286   -5.9975 H   0  0  0  0  0  0  0  0  0  0  0  0
   -1.8742   -4.0890   -3.0715 H   0  0  0  0  0  0  0  0  0  0  0  0
   -0.3487   -5.5764   -4.3502 H   0  0  0  0  0  0  0  0  0  0  0  0
    1.5844   -1.9632   -6.6381 C   0  0  0  0  0  0  0  0  0  0  0  0
    1.6077   -0.7591   -6.8010 O   0  0  0  0  0  0  0  0  0  0  0  0
    2.3584   -2.8413   -7.2753 O   0  0  0  0  0  0  0  0  0  0  0  0
    2.9382   -2.3533   -7.8867 H   0  0  0  0  0  0  0  0  0  0  0  0
   -4.5371    1.0759    1.0099 C   0  0  0  0  0  0  0  0  0  0  0  0
   -5.5156    1.5907    1.4985 O   0  0  0  0  0  0  0  0  0  0  0  0
   -3.3721    0.9070    1.6799 O   0  0  0  0  0  0  0  0  0  0  0  0
   -3.5020    1.2709    2.5726 H   0  0  0  0  0  0  0  0  0  0  0  0
  1  6  2  0  0  0  0
  1  2  1  0  0  0  0
  2  3  2  0  0  0  0
  3  4  1  0  0  0  0
  3  8  1  0  0  0  0
  4 28  1  0  0  0  0
  5 11  1  0  0  0  0
  5  4  2  0  0  0  0
  6  5  1  0  0  0  0
  7  1  1  0  0  0  0
  8  9  1  0  0  0  0
 10  6  1  0  0  0  0
 12 13  1  0  0  0  0
 13 14  1  0  0  0  0
 14 16  2  0  0  0  0
 15 17  2  0  0  0  0
 15 14  1  0  0  0  0
 16 18  1  0  0  0  0
 16 19  1  0  0  0  0
 17 20  1  0  0  0  0
 18 22  1  0  0  0  0
 20 23  1  0  0  0  0
 20 18  2  0  0  0  0
 21 17  1  0  0  0  0
 24 15  1  0  0  0  0
 25 24  2  0  0  0  0
 26 24  1  0  0  0  0
 27 26  1  0  0  0  0
 28 29  2  0  0  0  0
 28 30  1  0  0  0  0
 30 31  1  0  0  0  0
M  RAD  5   2   2   8   2   9   3  12   3  13   2
M  END
