Coordinates from ORCA-job 1f-Schema5-R6-D+-B3LYPG-6-31G_dp-scan-d49-09-n400
 OpenBabel08231810253D

 31 31  0  0  0  0  0  0  0  0999 V2000
   -3.2056   -0.5152   -3.3892 C   0  0  0  0  0  0  0  0  0  0  0  0
   -2.2716   -0.3214   -2.3771 C   0  0  0  0  0  0  0  0  0  0  0  0
   -2.7133    0.2732   -1.1893 C   0  0  0  0  0  0  0  0  0  0  0  0
   -4.0655    0.6323   -0.9289 C   0  0  0  0  0  0  0  0  0  0  0  0
   -4.9665    0.3860   -1.9558 C   0  0  0  0  0  0  0  0  0  0  0  0
   -4.5435   -0.1726   -3.1733 C   0  0  0  0  0  0  0  0  0  0  0  0
   -2.8985   -0.9332   -4.3420 H   0  0  0  0  0  0  0  0  0  0  0  0
   -1.7154    0.5206   -0.2595 N   0  0  0  0  0  0  0  0  0  0  0  0
   -0.8474    0.7032    0.4127 N   0  0  0  0  0  0  0  0  0  0  0  0
   -5.2735   -0.3372   -3.9604 H   0  0  0  0  0  0  0  0  0  0  0  0
   -6.0053    0.6496   -1.7901 H   0  0  0  0  0  0  0  0  0  0  0  0
   -0.3599   -0.2432   -2.5652 N   0  0  0  0  0  0  0  0  0  0  0  0
    0.1577   -1.0238   -3.2967 N   0  0  0  0  0  0  0  0  0  0  0  0
   -0.3178   -2.2058   -3.9173 C   0  0  0  0  0  0  0  0  0  0  0  0
   -0.0206   -2.4573   -5.2717 C   0  0  0  0  0  0  0  0  0  0  0  0
   -0.9313   -3.1732   -3.1158 C   0  0  0  0  0  0  0  0  0  0  0  0
   -0.3786   -3.6939   -5.8133 C   0  0  0  0  0  0  0  0  0  0  0  0
   -1.2751   -4.4035   -3.6789 C   0  0  0  0  0  0  0  0  0  0  0  0
   -1.0943   -2.9776   -2.0620 H   0  0  0  0  0  0  0  0  0  0  0  0
   -1.0022   -4.6627   -5.0226 C   0  0  0  0  0  0  0  0  0  0  0  0
   -0.1672   -3.8872   -6.8586 H   0  0  0  0  0  0  0  0  0  0  0  0
   -1.7418   -5.1627   -3.0596 H   0  0  0  0  0  0  0  0  0  0  0  0
   -1.2668   -5.6218   -5.4549 H   0  0  0  0  0  0  0  0  0  0  0  0
    0.5890   -1.3705   -6.0889 C   0  0  0  0  0  0  0  0  0  0  0  0
    0.6576   -0.2164   -5.7150 O   0  0  0  0  0  0  0  0  0  0  0  0
    1.0394   -1.8037   -7.2775 O   0  0  0  0  0  0  0  0  0  0  0  0
    1.4074   -1.0355   -7.7472 H   0  0  0  0  0  0  0  0  0  0  0  0
   -4.5910    1.2446    0.3370 C   0  0  0  0  0  0  0  0  0  0  0  0
   -5.7518    1.5277    0.4971 O   0  0  0  0  0  0  0  0  0  0  0  0
   -3.6207    1.4317    1.2546 O   0  0  0  0  0  0  0  0  0  0  0  0
   -4.0268    1.8322    2.0439 H   0  0  0  0  0  0  0  0  0  0  0  0
  1  6  2  0  0  0  0
  1  2  1  0  0  0  0
  2  3  2  0  0  0  0
  3  4  1  0  0  0  0
  3  8  1  0  0  0  0
  4 28  1  0  0  0  0
  5 11  1  0  0  0  0
  5  4  2  0  0  0  0
  6  5  1  0  0  0  0
  7  1  1  0  0  0  0
  8  9  1  0  0  0  0
 10  6  1  0  0  0  0
 13 12  2  0  0  0  0
 14 13  1  0  0  0  0
 14 16  2  0  0  0  0
 15 14  1  0  0  0  0
 16 19  1  0  0  0  0
 17 15  2  0  0  0  0
 17 20  1  0  0  0  0
 18 16  1  0  0  0  0
 18 22  1  0  0  0  0
 20 18  2  0  0  0  0
 21 17  1  0  0  0  0
 23 20  1  0  0  0  0
 24 25  2  0  0  0  0
 24 15  1  0  0  0  0
 26 24  1  0  0  0  0
 27 26  1  0  0  0  0
 28 29  2  0  0  0  0
 28 30  1  0  0  0  0
 30 31  1  0  0  0  0
M  RAD  4   2   2   8   2   9   3  12   2
M  END
