Coordinates from ORCA-job 1f-Schema5-R6-D+-B3LYPG-6-31G_dp-scan-d49-09-n400
 OpenBabel08231810253D

 31 31  0  0  0  0  0  0  0  0999 V2000
   -4.3503   -0.3716   -3.0770 C   0  0  0  0  0  0  0  0  0  0  0  0
   -3.1776   -0.5813   -2.3049 C   0  0  0  0  0  0  0  0  0  0  0  0
   -3.3325   -0.0603   -1.0067 C   0  0  0  0  0  0  0  0  0  0  0  0
   -4.4584    0.6082   -0.4317 C   0  0  0  0  0  0  0  0  0  0  0  0
   -5.5423    0.7627   -1.2779 C   0  0  0  0  0  0  0  0  0  0  0  0
   -5.4870    0.2732   -2.5977 C   0  0  0  0  0  0  0  0  0  0  0  0
   -4.3740   -0.7348   -4.1045 H   0  0  0  0  0  0  0  0  0  0  0  0
   -2.1944   -0.2669   -0.2349 N   0  0  0  0  0  0  0  0  0  0  0  0
   -1.2350   -0.4873    0.2916 N   0  0  0  0  0  0  0  0  0  0  0  0
   -6.3535    0.4073   -3.2406 H   0  0  0  0  0  0  0  0  0  0  0  0
   -6.4246    1.2637   -0.8961 H   0  0  0  0  0  0  0  0  0  0  0  0
   -0.5145    0.6129   -4.8425 N   0  0  0  0  0  0  0  0  0  0  0  0
   -0.3294   -0.4828   -4.9162 N   0  0  0  0  0  0  0  0  0  0  0  0
   -0.2668   -1.8696   -4.8213 C   0  0  0  0  0  0  0  0  0  0  0  0
    0.5944   -2.6093   -5.6666 C   0  0  0  0  0  0  0  0  0  0  0  0
   -1.1068   -2.4292   -3.8504 C   0  0  0  0  0  0  0  0  0  0  0  0
    0.5919   -3.9881   -5.5045 C   0  0  0  0  0  0  0  0  0  0  0  0
   -1.0736   -3.8197   -3.7289 C   0  0  0  0  0  0  0  0  0  0  0  0
   -1.7704   -1.7754   -3.2269 H   0  0  0  0  0  0  0  0  0  0  0  0
   -0.2372   -4.5878   -4.5410 C   0  0  0  0  0  0  0  0  0  0  0  0
    1.2370   -4.5923   -6.1316 H   0  0  0  0  0  0  0  0  0  0  0  0
   -1.7110   -4.2985   -2.9922 H   0  0  0  0  0  0  0  0  0  0  0  0
   -0.2227   -5.6681   -4.4319 H   0  0  0  0  0  0  0  0  0  0  0  0
    1.4374   -1.8847   -6.6627 C   0  0  0  0  0  0  0  0  0  0  0  0
    1.4054   -0.6741   -6.7666 O   0  0  0  0  0  0  0  0  0  0  0  0
    2.1960   -2.7008   -7.3939 O   0  0  0  0  0  0  0  0  0  0  0  0
    2.7134   -2.1626   -8.0189 H   0  0  0  0  0  0  0  0  0  0  0  0
   -4.5758    1.1429    0.9582 C   0  0  0  0  0  0  0  0  0  0  0  0
   -5.5600    1.6992    1.3862 O   0  0  0  0  0  0  0  0  0  0  0  0
   -3.4566    0.9397    1.6929 O   0  0  0  0  0  0  0  0  0  0  0  0
   -3.6217    1.3182    2.5737 H   0  0  0  0  0  0  0  0  0  0  0  0
  1  6  2  0  0  0  0
  1  2  1  0  0  0  0
  2  3  2  0  0  0  0
  3  4  1  0  0  0  0
  3  8  1  0  0  0  0
  4 28  1  0  0  0  0
  5 11  1  0  0  0  0
  5  4  2  0  0  0  0
  6  5  1  0  0  0  0
  7  1  1  0  0  0  0
  8  9  1  0  0  0  0
 10  6  1  0  0  0  0
 13 12  1  0  0  0  0
 13 14  1  0  0  0  0
 14 16  2  0  0  0  0
 15 17  2  0  0  0  0
 15 14  1  0  0  0  0
 16 18  1  0  0  0  0
 16 19  1  0  0  0  0
 17 20  1  0  0  0  0
 18 22  1  0  0  0  0
 20 23  1  0  0  0  0
 20 18  2  0  0  0  0
 21 17  1  0  0  0  0
 24 15  1  0  0  0  0
 25 24  2  0  0  0  0
 26 24  1  0  0  0  0
 27 26  1  0  0  0  0
 28 29  2  0  0  0  0
 28 30  1  0  0  0  0
 30 31  1  0  0  0  0
M  RAD  5   2   2   8   2   9   3  12   3  13   2
M  END
