Coordinates from ORCA-job 1f-Schema5-R6-D+-B3LYPG-6-31G_dp-scan-d49-09-n400
 OpenBabel08231810253D

 31 31  0  0  0  0  0  0  0  0999 V2000
   -4.3186   -0.4935   -3.0326 C   0  0  0  0  0  0  0  0  0  0  0  0
   -3.0837   -0.4025   -2.3495 C   0  0  0  0  0  0  0  0  0  0  0  0
   -3.2227    0.2083   -1.0909 C   0  0  0  0  0  0  0  0  0  0  0  0
   -4.4117    0.7065   -0.4738 C   0  0  0  0  0  0  0  0  0  0  0  0
   -5.5669    0.5634   -1.2230 C   0  0  0  0  0  0  0  0  0  0  0  0
   -5.5198   -0.0346   -2.4966 C   0  0  0  0  0  0  0  0  0  0  0  0
   -4.3441   -0.9406   -4.0251 H   0  0  0  0  0  0  0  0  0  0  0  0
   -2.0092    0.3063   -0.4215 N   0  0  0  0  0  0  0  0  0  0  0  0
   -0.9886    0.3369    0.0283 N   0  0  0  0  0  0  0  0  0  0  0  0
   -6.4425   -0.1314   -3.0629 H   0  0  0  0  0  0  0  0  0  0  0  0
   -6.4981    0.9255   -0.8024 H   0  0  0  0  0  0  0  0  0  0  0  0
   -0.5349    0.3165   -3.9523 N   0  0  0  0  0  0  0  0  0  0  0  0
   -0.2364   -0.6665   -4.4015 N   0  0  0  0  0  0  0  0  0  0  0  0
   -0.2715   -2.0460   -4.6349 C   0  0  0  0  0  0  0  0  0  0  0  0
    0.5772   -2.6354   -5.5904 C   0  0  0  0  0  0  0  0  0  0  0  0
   -1.1915   -2.7471   -3.8531 C   0  0  0  0  0  0  0  0  0  0  0  0
    0.4748   -4.0134   -5.7544 C   0  0  0  0  0  0  0  0  0  0  0  0
   -1.2665   -4.1262   -4.0472 C   0  0  0  0  0  0  0  0  0  0  0  0
   -1.8145   -2.1825   -3.1474 H   0  0  0  0  0  0  0  0  0  0  0  0
   -0.4405   -4.7497   -4.9872 C   0  0  0  0  0  0  0  0  0  0  0  0
    1.1091   -4.5073   -6.4811 H   0  0  0  0  0  0  0  0  0  0  0  0
   -1.9696   -4.7114   -3.4635 H   0  0  0  0  0  0  0  0  0  0  0  0
   -0.5058   -5.8239   -5.1302 H   0  0  0  0  0  0  0  0  0  0  0  0
    1.5156   -1.7636   -6.3583 C   0  0  0  0  0  0  0  0  0  0  0  0
    1.5633   -0.5613   -6.1858 O   0  0  0  0  0  0  0  0  0  0  0  0
    2.2682   -2.4451   -7.2229 O   0  0  0  0  0  0  0  0  0  0  0  0
    2.8512   -1.8163   -7.6841 H   0  0  0  0  0  0  0  0  0  0  0  0
   -4.5247    1.3535    0.8693 C   0  0  0  0  0  0  0  0  0  0  0  0
   -5.5642    1.7559    1.3356 O   0  0  0  0  0  0  0  0  0  0  0  0
   -3.3350    1.4389    1.5083 O   0  0  0  0  0  0  0  0  0  0  0  0
   -3.4995    1.8693    2.3652 H   0  0  0  0  0  0  0  0  0  0  0  0
  1  6  2  0  0  0  0
  1  2  1  0  0  0  0
  2  3  2  0  0  0  0
  3  4  1  0  0  0  0
  3  8  1  0  0  0  0
  4 28  1  0  0  0  0
  5 11  1  0  0  0  0
  5  4  2  0  0  0  0
  6  5  1  0  0  0  0
  7  1  1  0  0  0  0
  8  9  1  0  0  0  0
 10  6  1  0  0  0  0
 13 12  1  0  0  0  0
 14 13  1  0  0  0  0
 14 16  2  0  0  0  0
 15 14  1  0  0  0  0
 16 19  1  0  0  0  0
 17 15  2  0  0  0  0
 17 20  1  0  0  0  0
 18 16  1  0  0  0  0
 18 22  1  0  0  0  0
 20 18  2  0  0  0  0
 21 17  1  0  0  0  0
 23 20  1  0  0  0  0
 24 25  2  0  0  0  0
 24 15  1  0  0  0  0
 26 24  1  0  0  0  0
 27 26  1  0  0  0  0
 28 29  2  0  0  0  0
 28 30  1  0  0  0  0
 30 31  1  0  0  0  0
M  RAD  5   2   2   8   2   9   3  12   3  13   2
M  END
