Coordinates from ORCA-job 1f-Schema5-R6-D+-B3LYPG-6-31G_dp-scan-d49-09-n400
 OpenBabel08231810253D

 31 31  0  0  0  0  0  0  0  0999 V2000
   -4.3282   -0.4792   -3.0428 C   0  0  0  0  0  0  0  0  0  0  0  0
   -3.0974   -0.4402   -2.3440 C   0  0  0  0  0  0  0  0  0  0  0  0
   -3.2386    0.1575   -1.0787 C   0  0  0  0  0  0  0  0  0  0  0  0
   -4.4183    0.6888   -0.4707 C   0  0  0  0  0  0  0  0  0  0  0  0
   -5.5664    0.5969   -1.2382 C   0  0  0  0  0  0  0  0  0  0  0  0
   -5.5207    0.0141   -2.5191 C   0  0  0  0  0  0  0  0  0  0  0  0
   -4.3558   -0.9143   -4.0408 H   0  0  0  0  0  0  0  0  0  0  0  0
   -2.0337    0.1994   -0.3876 N   0  0  0  0  0  0  0  0  0  0  0  0
   -1.0201    0.1826    0.0789 N   0  0  0  0  0  0  0  0  0  0  0  0
   -6.4378   -0.0432   -3.0999 H   0  0  0  0  0  0  0  0  0  0  0  0
   -6.4908    0.9854   -0.8260 H   0  0  0  0  0  0  0  0  0  0  0  0
   -0.5279    0.3834   -4.0934 N   0  0  0  0  0  0  0  0  0  0  0  0
   -0.2526   -0.6274   -4.4862 N   0  0  0  0  0  0  0  0  0  0  0  0
   -0.2698   -2.0141   -4.6645 C   0  0  0  0  0  0  0  0  0  0  0  0
    0.5807   -2.6308   -5.6024 C   0  0  0  0  0  0  0  0  0  0  0  0
   -1.1785   -2.6913   -3.8485 C   0  0  0  0  0  0  0  0  0  0  0  0
    0.4929   -4.0146   -5.7104 C   0  0  0  0  0  0  0  0  0  0  0  0
   -1.2375   -4.0781   -3.9884 C   0  0  0  0  0  0  0  0  0  0  0  0
   -1.8056   -2.1027   -3.1596 H   0  0  0  0  0  0  0  0  0  0  0  0
   -0.4102   -4.7294   -4.9079 C   0  0  0  0  0  0  0  0  0  0  0  0
    1.1285   -4.5304   -6.4205 H   0  0  0  0  0  0  0  0  0  0  0  0
   -1.9308   -4.6475   -3.3780 H   0  0  0  0  0  0  0  0  0  0  0  0
   -0.4643   -5.8093   -5.0076 H   0  0  0  0  0  0  0  0  0  0  0  0
    1.5034   -1.7771   -6.4075 C   0  0  0  0  0  0  0  0  0  0  0  0
    1.5367   -0.5690   -6.2753 O   0  0  0  0  0  0  0  0  0  0  0  0
    2.2567   -2.4784   -7.2546 O   0  0  0  0  0  0  0  0  0  0  0  0
    2.8290   -1.8596   -7.7420 H   0  0  0  0  0  0  0  0  0  0  0  0
   -4.5288    1.3198    0.8797 C   0  0  0  0  0  0  0  0  0  0  0  0
   -5.5609    1.7486    1.3393 O   0  0  0  0  0  0  0  0  0  0  0  0
   -3.3453    1.3597    1.5353 O   0  0  0  0  0  0  0  0  0  0  0  0
   -3.5087    1.7828    2.3960 H   0  0  0  0  0  0  0  0  0  0  0  0
  1  6  2  0  0  0  0
  1  2  1  0  0  0  0
  2  3  2  0  0  0  0
  3  4  1  0  0  0  0
  3  8  1  0  0  0  0
  4 28  1  0  0  0  0
  5 11  1  0  0  0  0
  5  4  2  0  0  0  0
  6  5  1  0  0  0  0
  7  1  1  0  0  0  0
  8  9  1  0  0  0  0
 10  6  1  0  0  0  0
 13 12  1  0  0  0  0
 14 13  1  0  0  0  0
 14 16  2  0  0  0  0
 15 14  1  0  0  0  0
 16 19  1  0  0  0  0
 17 15  2  0  0  0  0
 17 20  1  0  0  0  0
 18 16  1  0  0  0  0
 18 22  1  0  0  0  0
 20 18  2  0  0  0  0
 21 17  1  0  0  0  0
 23 20  1  0  0  0  0
 24 25  2  0  0  0  0
 24 15  1  0  0  0  0
 26 24  1  0  0  0  0
 27 26  1  0  0  0  0
 28 29  2  0  0  0  0
 28 30  1  0  0  0  0
 30 31  1  0  0  0  0
M  RAD  5   2   2   8   2   9   3  12   3  13   2
M  END
