Coordinates from ORCA-job 1f-Schema5-R6-D+-B3LYPG-6-31G_dp-scan-d49-09-n400
 OpenBabel08231810253D

 31 31  0  0  0  0  0  0  0  0999 V2000
   -4.4748   -0.4619   -3.0024 C   0  0  0  0  0  0  0  0  0  0  0  0
   -3.2361   -0.5380   -2.3122 C   0  0  0  0  0  0  0  0  0  0  0  0
   -3.3582   -0.0261   -1.0070 C   0  0  0  0  0  0  0  0  0  0  0  0
   -4.5078    0.5218   -0.3560 C   0  0  0  0  0  0  0  0  0  0  0  0
   -5.6580    0.5472   -1.1245 C   0  0  0  0  0  0  0  0  0  0  0  0
   -5.6401    0.0556   -2.4448 C   0  0  0  0  0  0  0  0  0  0  0  0
   -4.5268   -0.8283   -4.0274 H   0  0  0  0  0  0  0  0  0  0  0  0
   -2.1532   -0.1006   -0.3173 N   0  0  0  0  0  0  0  0  0  0  0  0
   -1.1402   -0.2100    0.1392 N   0  0  0  0  0  0  0  0  0  0  0  0
   -6.5586    0.0877   -3.0256 H   0  0  0  0  0  0  0  0  0  0  0  0
   -6.5616    0.9527   -0.6835 H   0  0  0  0  0  0  0  0  0  0  0  0
   -0.0504    0.7551   -5.1198 N   0  0  0  0  0  0  0  0  0  0  0  0
   -0.0319   -0.3582   -5.0991 N   0  0  0  0  0  0  0  0  0  0  0  0
   -0.1486   -1.7339   -4.9395 C   0  0  0  0  0  0  0  0  0  0  0  0
    0.6737   -2.6074   -5.6954 C   0  0  0  0  0  0  0  0  0  0  0  0
   -1.1102   -2.1561   -4.0104 C   0  0  0  0  0  0  0  0  0  0  0  0
    0.4977   -3.9686   -5.4878 C   0  0  0  0  0  0  0  0  0  0  0  0
   -1.2455   -3.5354   -3.8412 C   0  0  0  0  0  0  0  0  0  0  0  0
   -1.7538   -1.4514   -3.4199 H   0  0  0  0  0  0  0  0  0  0  0  0
   -0.4574   -4.4294   -4.5663 C   0  0  0  0  0  0  0  0  0  0  0  0
    1.1082   -4.6670   -6.0481 H   0  0  0  0  0  0  0  0  0  0  0  0
   -1.9822   -3.8997   -3.1317 H   0  0  0  0  0  0  0  0  0  0  0  0
   -0.5790   -5.4986   -4.4214 H   0  0  0  0  0  0  0  0  0  0  0  0
    1.6660   -2.0371   -6.6547 C   0  0  0  0  0  0  0  0  0  0  0  0
    1.7938   -0.8385   -6.8084 O   0  0  0  0  0  0  0  0  0  0  0  0
    2.3660   -2.9735   -7.2947 O   0  0  0  0  0  0  0  0  0  0  0  0
    2.9887   -2.5316   -7.8990 H   0  0  0  0  0  0  0  0  0  0  0  0
   -4.5854    1.0569    1.0361 C   0  0  0  0  0  0  0  0  0  0  0  0
   -5.5930    1.5026    1.5335 O   0  0  0  0  0  0  0  0  0  0  0  0
   -3.3995    0.9928    1.6875 O   0  0  0  0  0  0  0  0  0  0  0  0
   -3.5430    1.3617    2.5761 H   0  0  0  0  0  0  0  0  0  0  0  0
  1  6  2  0  0  0  0
  1  2  1  0  0  0  0
  2  3  2  0  0  0  0
  3  4  1  0  0  0  0
  3  8  1  0  0  0  0
  4 28  1  0  0  0  0
  5 11  1  0  0  0  0
  5  4  2  0  0  0  0
  6  5  1  0  0  0  0
  7  1  1  0  0  0  0
  8  9  1  0  0  0  0
 10  6  1  0  0  0  0
 12 13  1  0  0  0  0
 13 14  1  0  0  0  0
 14 16  2  0  0  0  0
 15 17  2  0  0  0  0
 15 14  1  0  0  0  0
 16 18  1  0  0  0  0
 16 19  1  0  0  0  0
 17 20  1  0  0  0  0
 18 22  1  0  0  0  0
 20 23  1  0  0  0  0
 20 18  2  0  0  0  0
 21 17  1  0  0  0  0
 24 15  1  0  0  0  0
 25 24  2  0  0  0  0
 26 24  1  0  0  0  0
 27 26  1  0  0  0  0
 28 29  2  0  0  0  0
 28 30  1  0  0  0  0
 30 31  1  0  0  0  0
M  RAD  5   2   2   8   2   9   3  12   3  13   2
M  END
