Coordinates from ORCA-job 1f-Schema5-R6-D+-B3LYPG-6-31G_dp-scan-d49-09-n400
 OpenBabel08231810253D

 31 31  0  0  0  0  0  0  0  0999 V2000
   -3.4871   -0.6559   -3.2166 C   0  0  0  0  0  0  0  0  0  0  0  0
   -2.4653   -0.3822   -2.3067 C   0  0  0  0  0  0  0  0  0  0  0  0
   -2.8331    0.3110   -1.1497 C   0  0  0  0  0  0  0  0  0  0  0  0
   -4.1578    0.7128   -0.8156 C   0  0  0  0  0  0  0  0  0  0  0  0
   -5.1345    0.3909   -1.7470 C   0  0  0  0  0  0  0  0  0  0  0  0
   -4.8041   -0.2806   -2.9364 C   0  0  0  0  0  0  0  0  0  0  0  0
   -3.2666   -1.1658   -4.1495 H   0  0  0  0  0  0  0  0  0  0  0  0
   -1.7668    0.6168   -0.3124 N   0  0  0  0  0  0  0  0  0  0  0  0
   -0.8430    0.8268    0.2722 N   0  0  0  0  0  0  0  0  0  0  0  0
   -5.5921   -0.5081   -3.6488 H   0  0  0  0  0  0  0  0  0  0  0  0
   -6.1568    0.6802   -1.5305 H   0  0  0  0  0  0  0  0  0  0  0  0
   -0.3471   -0.3011   -2.6226 N   0  0  0  0  0  0  0  0  0  0  0  0
    0.1025   -1.0733   -3.3689 N   0  0  0  0  0  0  0  0  0  0  0  0
   -0.2918   -2.2581   -4.0279 C   0  0  0  0  0  0  0  0  0  0  0  0
    0.1347   -2.4992   -5.3480 C   0  0  0  0  0  0  0  0  0  0  0  0
   -0.9948   -3.2136   -3.2891 C   0  0  0  0  0  0  0  0  0  0  0  0
   -0.1886   -3.7269   -5.9284 C   0  0  0  0  0  0  0  0  0  0  0  0
   -1.3009   -4.4338   -3.8928 C   0  0  0  0  0  0  0  0  0  0  0  0
   -1.2691   -3.0071   -2.2615 H   0  0  0  0  0  0  0  0  0  0  0  0
   -0.9004   -4.6886   -5.2056 C   0  0  0  0  0  0  0  0  0  0  0  0
    0.1198   -3.9202   -6.9489 H   0  0  0  0  0  0  0  0  0  0  0  0
   -1.8408   -5.1880   -3.3294 H   0  0  0  0  0  0  0  0  0  0  0  0
   -1.1365   -5.6413   -5.6678 H   0  0  0  0  0  0  0  0  0  0  0  0
    0.8516   -1.4212   -6.0893 C   0  0  0  0  0  0  0  0  0  0  0  0
    0.9534   -0.2844   -5.6740 O   0  0  0  0  0  0  0  0  0  0  0  0
    1.3565   -1.8455   -7.2574 O   0  0  0  0  0  0  0  0  0  0  0  0
    1.7937   -1.0868   -7.6812 H   0  0  0  0  0  0  0  0  0  0  0  0
   -4.5808    1.4368    0.4274 C   0  0  0  0  0  0  0  0  0  0  0  0
   -5.7230    1.7522    0.6526 O   0  0  0  0  0  0  0  0  0  0  0  0
   -3.5429    1.6847    1.2540 O   0  0  0  0  0  0  0  0  0  0  0  0
   -3.8893    2.1522    2.0345 H   0  0  0  0  0  0  0  0  0  0  0  0
  1  6  2  0  0  0  0
  1  2  1  0  0  0  0
  2  3  2  0  0  0  0
  3  4  1  0  0  0  0
  3  8  1  0  0  0  0
  4 28  1  0  0  0  0
  5 11  1  0  0  0  0
  5  4  2  0  0  0  0
  6  5  1  0  0  0  0
  7  1  1  0  0  0  0
  8  9  1  0  0  0  0
 10  6  1  0  0  0  0
 13 12  2  0  0  0  0
 14 13  1  0  0  0  0
 14 16  2  0  0  0  0
 15 14  1  0  0  0  0
 16 19  1  0  0  0  0
 17 15  2  0  0  0  0
 17 20  1  0  0  0  0
 18 22  1  0  0  0  0
 18 16  1  0  0  0  0
 20 18  2  0  0  0  0
 21 17  1  0  0  0  0
 23 20  1  0  0  0  0
 24 25  2  0  0  0  0
 24 15  1  0  0  0  0
 26 24  1  0  0  0  0
 27 26  1  0  0  0  0
 28 29  2  0  0  0  0
 28 30  1  0  0  0  0
 30 31  1  0  0  0  0
M  RAD  4   2   2   8   2   9   3  12   2
M  END
