Coordinates from ORCA-job 1f-Schema5-R6-D+-B3LYPG-6-31G_dp-scan-d49-09-n400
 OpenBabel08231810253D

 31 31  0  0  0  0  0  0  0  0999 V2000
   -4.4754   -0.4795   -2.9924 C   0  0  0  0  0  0  0  0  0  0  0  0
   -3.2334   -0.5356   -2.3064 C   0  0  0  0  0  0  0  0  0  0  0  0
   -3.3581   -0.0203   -1.0028 C   0  0  0  0  0  0  0  0  0  0  0  0
   -4.5129    0.5140   -0.3498 C   0  0  0  0  0  0  0  0  0  0  0  0
   -5.6662    0.5199   -1.1141 C   0  0  0  0  0  0  0  0  0  0  0  0
   -5.6460    0.0234   -2.4325 C   0  0  0  0  0  0  0  0  0  0  0  0
   -4.5257   -0.8500   -4.0161 H   0  0  0  0  0  0  0  0  0  0  0  0
   -2.1497   -0.0753   -0.3172 N   0  0  0  0  0  0  0  0  0  0  0  0
   -1.1336   -0.1687    0.1358 N   0  0  0  0  0  0  0  0  0  0  0  0
   -6.5671    0.0401   -3.0100 H   0  0  0  0  0  0  0  0  0  0  0  0
   -6.5738    0.9145   -0.6715 H   0  0  0  0  0  0  0  0  0  0  0  0
    0.0125    0.7658   -5.1209 N   0  0  0  0  0  0  0  0  0  0  0  0
    0.0103   -0.3477   -5.1008 N   0  0  0  0  0  0  0  0  0  0  0  0
   -0.1310   -1.7215   -4.9439 C   0  0  0  0  0  0  0  0  0  0  0  0
    0.6785   -2.6073   -5.6997 C   0  0  0  0  0  0  0  0  0  0  0  0
   -1.1021   -2.1304   -4.0180 C   0  0  0  0  0  0  0  0  0  0  0  0
    0.4792   -3.9657   -5.4959 C   0  0  0  0  0  0  0  0  0  0  0  0
   -1.2607   -3.5077   -3.8529 C   0  0  0  0  0  0  0  0  0  0  0  0
   -1.7381   -1.4205   -3.4259 H   0  0  0  0  0  0  0  0  0  0  0  0
   -0.4858   -4.4129   -4.5782 C   0  0  0  0  0  0  0  0  0  0  0  0
    1.0795   -4.6729   -6.0563 H   0  0  0  0  0  0  0  0  0  0  0  0
   -2.0055   -3.8606   -3.1460 H   0  0  0  0  0  0  0  0  0  0  0  0
   -0.6256   -5.4802   -4.4365 H   0  0  0  0  0  0  0  0  0  0  0  0
    1.6829   -2.0516   -6.6551 C   0  0  0  0  0  0  0  0  0  0  0  0
    1.8302   -0.8550   -6.8068 O   0  0  0  0  0  0  0  0  0  0  0  0
    2.3681   -2.9980   -7.2960 O   0  0  0  0  0  0  0  0  0  0  0  0
    2.9991   -2.5653   -7.8983 H   0  0  0  0  0  0  0  0  0  0  0  0
   -4.5929    1.0538    1.0404 C   0  0  0  0  0  0  0  0  0  0  0  0
   -5.6050    1.4871    1.5398 O   0  0  0  0  0  0  0  0  0  0  0  0
   -3.4037    1.0101    1.6873 O   0  0  0  0  0  0  0  0  0  0  0  0
   -3.5491    1.3806    2.5749 H   0  0  0  0  0  0  0  0  0  0  0  0
  1  6  2  0  0  0  0
  1  2  1  0  0  0  0
  2  3  2  0  0  0  0
  3  4  1  0  0  0  0
  3  8  1  0  0  0  0
  4 28  1  0  0  0  0
  5 11  1  0  0  0  0
  5  4  2  0  0  0  0
  6  5  1  0  0  0  0
  7  1  1  0  0  0  0
  8  9  1  0  0  0  0
 10  6  1  0  0  0  0
 12 13  1  0  0  0  0
 13 14  1  0  0  0  0
 14 16  2  0  0  0  0
 15 17  2  0  0  0  0
 15 14  1  0  0  0  0
 16 18  1  0  0  0  0
 16 19  1  0  0  0  0
 17 20  1  0  0  0  0
 18 22  1  0  0  0  0
 20 23  1  0  0  0  0
 20 18  2  0  0  0  0
 21 17  1  0  0  0  0
 24 15  1  0  0  0  0
 25 24  2  0  0  0  0
 26 24  1  0  0  0  0
 27 26  1  0  0  0  0
 28 29  2  0  0  0  0
 28 30  1  0  0  0  0
 30 31  1  0  0  0  0
M  RAD  5   2   2   8   2   9   3  12   3  13   2
M  END
