Coordinates from ORCA-job 1f-Schema5-R6-D+-B3LYPG-6-31G_dp-scan-d49-09-n400
 OpenBabel08231810253D

 31 31  0  0  0  0  0  0  0  0999 V2000
   -4.4744   -0.5376   -2.9584 C   0  0  0  0  0  0  0  0  0  0  0  0
   -3.2219   -0.5123   -2.2893 C   0  0  0  0  0  0  0  0  0  0  0  0
   -3.3611    0.0037   -0.9875 C   0  0  0  0  0  0  0  0  0  0  0  0
   -4.5376    0.4703   -0.3215 C   0  0  0  0  0  0  0  0  0  0  0  0
   -5.6995    0.3980   -1.0691 C   0  0  0  0  0  0  0  0  0  0  0  0
   -5.6664   -0.1058   -2.3845 C   0  0  0  0  0  0  0  0  0  0  0  0
   -4.5152   -0.9151   -3.9799 H   0  0  0  0  0  0  0  0  0  0  0  0
   -2.1417    0.0298   -0.3195 N   0  0  0  0  0  0  0  0  0  0  0  0
   -1.1151    0.0042    0.1185 N   0  0  0  0  0  0  0  0  0  0  0  0
   -6.5946   -0.1510   -2.9488 H   0  0  0  0  0  0  0  0  0  0  0  0
   -6.6238    0.7388   -0.6164 H   0  0  0  0  0  0  0  0  0  0  0  0
    0.2898    0.8077   -5.1693 N   0  0  0  0  0  0  0  0  0  0  0  0
    0.1937   -0.3014   -5.1361 N   0  0  0  0  0  0  0  0  0  0  0  0
   -0.0518   -1.6592   -4.9739 C   0  0  0  0  0  0  0  0  0  0  0  0
    0.6970   -2.6054   -5.7203 C   0  0  0  0  0  0  0  0  0  0  0  0
   -1.0571   -1.9964   -4.0553 C   0  0  0  0  0  0  0  0  0  0  0  0
    0.3988   -3.9453   -5.5142 C   0  0  0  0  0  0  0  0  0  0  0  0
   -1.3154   -3.3579   -3.8874 C   0  0  0  0  0  0  0  0  0  0  0  0
   -1.6586   -1.2621   -3.4626 H   0  0  0  0  0  0  0  0  0  0  0  0
   -0.6027   -4.3195   -4.6031 C   0  0  0  0  0  0  0  0  0  0  0  0
    0.9513   -4.6952   -6.0680 H   0  0  0  0  0  0  0  0  0  0  0  0
   -2.0901   -3.6483   -3.1841 H   0  0  0  0  0  0  0  0  0  0  0  0
   -0.8200   -5.3734   -4.4595 H   0  0  0  0  0  0  0  0  0  0  0  0
    1.7472   -2.1303   -6.6706 C   0  0  0  0  0  0  0  0  0  0  0  0
    1.9856   -0.9491   -6.8264 O   0  0  0  0  0  0  0  0  0  0  0  0
    2.3653   -3.1288   -7.3010 O   0  0  0  0  0  0  0  0  0  0  0  0
    3.0320   -2.7471   -7.8995 H   0  0  0  0  0  0  0  0  0  0  0  0
   -4.6315    1.0154    1.0657 C   0  0  0  0  0  0  0  0  0  0  0  0
   -5.6611    1.3905    1.5763 O   0  0  0  0  0  0  0  0  0  0  0  0
   -3.4332    1.0485    1.6965 O   0  0  0  0  0  0  0  0  0  0  0  0
   -3.5890    1.4167    2.5833 H   0  0  0  0  0  0  0  0  0  0  0  0
  1  6  2  0  0  0  0
  1  2  1  0  0  0  0
  2  3  2  0  0  0  0
  3  4  1  0  0  0  0
  3  8  1  0  0  0  0
  4 28  1  0  0  0  0
  5 11  1  0  0  0  0
  5  4  2  0  0  0  0
  6  5  1  0  0  0  0
  7  1  1  0  0  0  0
  8  9  1  0  0  0  0
 10  6  1  0  0  0  0
 12 13  1  0  0  0  0
 13 14  1  0  0  0  0
 14 16  2  0  0  0  0
 15 17  2  0  0  0  0
 15 14  1  0  0  0  0
 16 18  1  0  0  0  0
 16 19  1  0  0  0  0
 17 20  1  0  0  0  0
 18 22  1  0  0  0  0
 20 23  1  0  0  0  0
 20 18  2  0  0  0  0
 21 17  1  0  0  0  0
 24 15  1  0  0  0  0
 25 24  2  0  0  0  0
 26 24  1  0  0  0  0
 27 26  1  0  0  0  0
 28 29  2  0  0  0  0
 28 30  1  0  0  0  0
 30 31  1  0  0  0  0
M  RAD  5   2   2   8   2   9   3  12   3  13   2
M  END
