Coordinates from ORCA-job 1f-Schema5-R6-D+-B3LYPG-6-31G_dp-scan-d49-09-n400
 OpenBabel08231810253D

 31 32  0  0  0  0  0  0  0  0999 V2000
   -3.1672   -0.4842   -3.4147 C   0  0  0  0  0  0  0  0  0  0  0  0
   -2.2458   -0.3076   -2.3887 C   0  0  0  0  0  0  0  0  0  0  0  0
   -2.6981    0.2686   -1.1952 C   0  0  0  0  0  0  0  0  0  0  0  0
   -4.0535    0.6221   -0.9445 C   0  0  0  0  0  0  0  0  0  0  0  0
   -4.9433    0.3917   -1.9849 C   0  0  0  0  0  0  0  0  0  0  0  0
   -4.5073   -0.1461   -3.2071 C   0  0  0  0  0  0  0  0  0  0  0  0
   -2.8473   -0.8844   -4.3709 H   0  0  0  0  0  0  0  0  0  0  0  0
   -1.7103    0.5029   -0.2525 N   0  0  0  0  0  0  0  0  0  0  0  0
   -0.8506    0.6780    0.4323 N   0  0  0  0  0  0  0  0  0  0  0  0
   -5.2287   -0.2974   -4.0047 H   0  0  0  0  0  0  0  0  0  0  0  0
   -5.9840    0.6521   -1.8258 H   0  0  0  0  0  0  0  0  0  0  0  0
   -0.3629   -0.2319   -2.5631 N   0  0  0  0  0  0  0  0  0  0  0  0
    0.1628   -1.0155   -3.2920 N   0  0  0  0  0  0  0  0  0  0  0  0
   -0.3220   -2.1988   -3.9039 C   0  0  0  0  0  0  0  0  0  0  0  0
   -0.0421   -2.4545   -5.2614 C   0  0  0  0  0  0  0  0  0  0  0  0
   -0.9208   -3.1673   -3.0923 C   0  0  0  0  0  0  0  0  0  0  0  0
   -0.4009   -3.6946   -5.7945 C   0  0  0  0  0  0  0  0  0  0  0  0
   -1.2660   -4.4013   -3.6466 C   0  0  0  0  0  0  0  0  0  0  0  0
   -1.0691   -2.9706   -2.0364 H   0  0  0  0  0  0  0  0  0  0  0  0
   -1.0094   -4.6640   -4.9927 C   0  0  0  0  0  0  0  0  0  0  0  0
   -0.2025   -3.8901   -6.8419 H   0  0  0  0  0  0  0  0  0  0  0  0
   -1.7206   -5.1606   -3.0185 H   0  0  0  0  0  0  0  0  0  0  0  0
   -1.2749   -5.6257   -5.4184 H   0  0  0  0  0  0  0  0  0  0  0  0
    0.5474   -1.3660   -6.0906 C   0  0  0  0  0  0  0  0  0  0  0  0
    0.6033   -0.2084   -5.7251 O   0  0  0  0  0  0  0  0  0  0  0  0
    0.9943   -1.8011   -7.2799 O   0  0  0  0  0  0  0  0  0  0  0  0
    1.3483   -1.0312   -7.7574 H   0  0  0  0  0  0  0  0  0  0  0  0
   -4.5932    1.2141    0.3252 C   0  0  0  0  0  0  0  0  0  0  0  0
   -5.7559    1.4940    0.4767 O   0  0  0  0  0  0  0  0  0  0  0  0
   -3.6331    1.3861    1.2564 O   0  0  0  0  0  0  0  0  0  0  0  0
   -4.0476    1.7741    2.0476 H   0  0  0  0  0  0  0  0  0  0  0  0
  1  6  2  0  0  0  0
  1  2  1  0  0  0  0
  2  3  2  0  0  0  0
  3  4  1  0  0  0  0
  3  8  1  0  0  0  0
  4 28  1  0  0  0  0
  5 11  1  0  0  0  0
  5  4  2  0  0  0  0
  6  5  1  0  0  0  0
  7  1  1  0  0  0  0
  8  9  1  0  0  0  0
 10  6  1  0  0  0  0
 12  2  1  0  0  0  0
 13 12  2  0  0  0  0
 14 13  1  0  0  0  0
 14 16  2  0  0  0  0
 15 14  1  0  0  0  0
 16 19  1  0  0  0  0
 17 15  2  0  0  0  0
 17 20  1  0  0  0  0
 18 16  1  0  0  0  0
 18 22  1  0  0  0  0
 20 18  2  0  0  0  0
 21 17  1  0  0  0  0
 23 20  1  0  0  0  0
 24 25  2  0  0  0  0
 24 15  1  0  0  0  0
 26 24  1  0  0  0  0
 27 26  1  0  0  0  0
 28 29  2  0  0  0  0
 28 30  1  0  0  0  0
 30 31  1  0  0  0  0
M  RAD  2   8   2   9   3
M  END
