Coordinates from ORCA-job 1f-Schema5-R6-D+-B3LYPG-6-31G_dp-scan-d49-09-n400
 OpenBabel08231810253D

 31 31  0  0  0  0  0  0  0  0999 V2000
   -3.7558   -0.7197   -3.0569 C   0  0  0  0  0  0  0  0  0  0  0  0
   -2.6554   -0.3968   -2.2521 C   0  0  0  0  0  0  0  0  0  0  0  0
   -2.9575    0.3519   -1.1103 C   0  0  0  0  0  0  0  0  0  0  0  0
   -4.2538    0.7734   -0.6935 C   0  0  0  0  0  0  0  0  0  0  0  0
   -5.2963    0.4015   -1.5283 C   0  0  0  0  0  0  0  0  0  0  0  0
   -5.0502   -0.3346   -2.7009 C   0  0  0  0  0  0  0  0  0  0  0  0
   -3.6112   -1.2811   -3.9764 H   0  0  0  0  0  0  0  0  0  0  0  0
   -1.8326    0.6954   -0.3675 N   0  0  0  0  0  0  0  0  0  0  0  0
   -0.8663    0.9247    0.1370 N   0  0  0  0  0  0  0  0  0  0  0  0
   -5.8886   -0.6036   -3.3375 H   0  0  0  0  0  0  0  0  0  0  0  0
   -6.3013    0.7000   -1.2517 H   0  0  0  0  0  0  0  0  0  0  0  0
   -0.3300   -0.2916   -2.7655 N   0  0  0  0  0  0  0  0  0  0  0  0
    0.0431   -1.0775   -3.5124 N   0  0  0  0  0  0  0  0  0  0  0  0
   -0.2669   -2.2807   -4.1695 C   0  0  0  0  0  0  0  0  0  0  0  0
    0.2918   -2.5538   -5.4322 C   0  0  0  0  0  0  0  0  0  0  0  0
   -1.0631   -3.2000   -3.4807 C   0  0  0  0  0  0  0  0  0  0  0  0
    0.0105   -3.7912   -6.0114 C   0  0  0  0  0  0  0  0  0  0  0  0
   -1.3246   -4.4293   -4.0847 C   0  0  0  0  0  0  0  0  0  0  0  0
   -1.4518   -2.9460   -2.5016 H   0  0  0  0  0  0  0  0  0  0  0  0
   -0.7898   -4.7224   -5.3413 C   0  0  0  0  0  0  0  0  0  0  0  0
    0.4196   -4.0176   -6.9886 H   0  0  0  0  0  0  0  0  0  0  0  0
   -1.9376   -5.1598   -3.5670 H   0  0  0  0  0  0  0  0  0  0  0  0
   -0.9923   -5.6832   -5.8027 H   0  0  0  0  0  0  0  0  0  0  0  0
    1.1102   -1.5058   -6.1119 C   0  0  0  0  0  0  0  0  0  0  0  0
    1.2312   -0.3778   -5.6787 O   0  0  0  0  0  0  0  0  0  0  0  0
    1.6826   -1.9501   -7.2382 O   0  0  0  0  0  0  0  0  0  0  0  0
    2.1869   -1.2136   -7.6254 H   0  0  0  0  0  0  0  0  0  0  0  0
   -4.5831    1.5620    0.5365 C   0  0  0  0  0  0  0  0  0  0  0  0
   -5.7052    1.8912    0.8349 O   0  0  0  0  0  0  0  0  0  0  0  0
   -3.4860    1.8558    1.2677 O   0  0  0  0  0  0  0  0  0  0  0  0
   -3.7778    2.3630    2.0455 H   0  0  0  0  0  0  0  0  0  0  0  0
  1  6  2  0  0  0  0
  1  2  1  0  0  0  0
  2  3  2  0  0  0  0
  3  4  1  0  0  0  0
  3  8  1  0  0  0  0
  4 28  1  0  0  0  0
  5 11  1  0  0  0  0
  5  4  2  0  0  0  0
  6  5  1  0  0  0  0
  7  1  1  0  0  0  0
  8  9  1  0  0  0  0
 10  6  1  0  0  0  0
 13 12  2  0  0  0  0
 14 13  1  0  0  0  0
 14 16  2  0  0  0  0
 15 14  1  0  0  0  0
 16 19  1  0  0  0  0
 17 15  2  0  0  0  0
 17 20  1  0  0  0  0
 18 22  1  0  0  0  0
 18 16  1  0  0  0  0
 20 18  2  0  0  0  0
 21 17  1  0  0  0  0
 23 20  1  0  0  0  0
 24 25  2  0  0  0  0
 24 15  1  0  0  0  0
 26 24  1  0  0  0  0
 27 26  1  0  0  0  0
 28 29  2  0  0  0  0
 28 30  1  0  0  0  0
 30 31  1  0  0  0  0
M  RAD  4   2   2   8   2   9   3  12   2
M  END
