Coordinates from ORCA-job 1f-Schema5-R6-D+-B3LYPG-6-31G_dp-scan-d49-09-n400
 OpenBabel08231810253D

 31 31  0  0  0  0  0  0  0  0999 V2000
   -4.3416   -0.3993   -3.0846 C   0  0  0  0  0  0  0  0  0  0  0  0
   -3.1607   -0.5813   -2.3187 C   0  0  0  0  0  0  0  0  0  0  0  0
   -3.3053   -0.0287   -1.0323 C   0  0  0  0  0  0  0  0  0  0  0  0
   -4.4300    0.6470   -0.4637 C   0  0  0  0  0  0  0  0  0  0  0  0
   -5.5230    0.7732   -1.3031 C   0  0  0  0  0  0  0  0  0  0  0  0
   -5.4777    0.2505   -2.6102 C   0  0  0  0  0  0  0  0  0  0  0  0
   -4.3728   -0.7880   -4.1023 H   0  0  0  0  0  0  0  0  0  0  0  0
   -2.1590   -0.2090   -0.2662 N   0  0  0  0  0  0  0  0  0  0  0  0
   -1.1939   -0.4101    0.2575 N   0  0  0  0  0  0  0  0  0  0  0  0
   -6.3512    0.3629   -3.2478 H   0  0  0  0  0  0  0  0  0  0  0  0
   -6.4048    1.2783   -0.9253 H   0  0  0  0  0  0  0  0  0  0  0  0
   -0.6329    0.5294   -4.5923 N   0  0  0  0  0  0  0  0  0  0  0  0
   -0.3886   -0.5434   -4.7687 N   0  0  0  0  0  0  0  0  0  0  0  0
   -0.3008   -1.9340   -4.7569 C   0  0  0  0  0  0  0  0  0  0  0  0
    0.5732   -2.6104   -5.6372 C   0  0  0  0  0  0  0  0  0  0  0  0
   -1.1354   -2.5566   -3.8228 C   0  0  0  0  0  0  0  0  0  0  0  0
    0.5905   -3.9966   -5.5525 C   0  0  0  0  0  0  0  0  0  0  0  0
   -1.0844   -3.9509   -3.7761 C   0  0  0  0  0  0  0  0  0  0  0  0
   -1.7987   -1.9289   -3.1806 H   0  0  0  0  0  0  0  0  0  0  0  0
   -0.2335   -4.6598   -4.6272 C   0  0  0  0  0  0  0  0  0  0  0  0
    1.2464   -4.5565   -6.2090 H   0  0  0  0  0  0  0  0  0  0  0  0
   -1.7162   -4.4803   -3.0700 H   0  0  0  0  0  0  0  0  0  0  0  0
   -0.2040   -5.7443   -4.5780 H   0  0  0  0  0  0  0  0  0  0  0  0
    1.4061   -1.8125   -6.5839 C   0  0  0  0  0  0  0  0  0  0  0  0
    1.3527   -0.5982   -6.6118 O   0  0  0  0  0  0  0  0  0  0  0  0
    2.1843   -2.5673   -7.3586 O   0  0  0  0  0  0  0  0  0  0  0  0
    2.6951   -1.9823   -7.9459 H   0  0  0  0  0  0  0  0  0  0  0  0
   -4.5378    1.2160    0.9135 C   0  0  0  0  0  0  0  0  0  0  0  0
   -5.5200    1.7809    1.3347 O   0  0  0  0  0  0  0  0  0  0  0  0
   -3.4095    1.0408    1.6412 O   0  0  0  0  0  0  0  0  0  0  0  0
   -3.5673    1.4425    2.5130 H   0  0  0  0  0  0  0  0  0  0  0  0
  1  6  2  0  0  0  0
  1  2  1  0  0  0  0
  2  3  2  0  0  0  0
  3  4  1  0  0  0  0
  3  8  1  0  0  0  0
  4 28  1  0  0  0  0
  5 11  1  0  0  0  0
  5  4  2  0  0  0  0
  6  5  1  0  0  0  0
  7  1  1  0  0  0  0
  8  9  1  0  0  0  0
 10  6  1  0  0  0  0
 13 14  1  0  0  0  0
 13 12  1  0  0  0  0
 14 16  2  0  0  0  0
 15 17  2  0  0  0  0
 15 14  1  0  0  0  0
 16 18  1  0  0  0  0
 16 19  1  0  0  0  0
 17 20  1  0  0  0  0
 18 22  1  0  0  0  0
 20 23  1  0  0  0  0
 20 18  2  0  0  0  0
 21 17  1  0  0  0  0
 24 15  1  0  0  0  0
 25 24  2  0  0  0  0
 26 24  1  0  0  0  0
 27 26  1  0  0  0  0
 28 29  2  0  0  0  0
 28 30  1  0  0  0  0
 30 31  1  0  0  0  0
M  RAD  5   2   2   8   2   9   3  12   3  13   2
M  END
