Coordinates from ORCA-job 1f-Schema5-R6-D+-B3LYPG-6-31G_dp-scan-d49-09-n400
 OpenBabel08231810253D

 31 32  0  0  0  0  0  0  0  0999 V2000
   -4.4487   -0.0142   -3.6400 C   0  0  0  0  0  0  0  0  0  0  0  0
   -2.9762   -0.1923   -3.2130 C   0  0  0  0  0  0  0  0  0  0  0  0
   -2.7772    0.4428   -1.7820 C   0  0  0  0  0  0  0  0  0  0  0  0
   -3.8642    0.9398   -0.9790 C   0  0  0  0  0  0  0  0  0  0  0  0
   -5.1267    0.9590   -1.4848 C   0  0  0  0  0  0  0  0  0  0  0  0
   -5.3833    0.5051   -2.8216 C   0  0  0  0  0  0  0  0  0  0  0  0
   -4.6384   -0.3346   -4.6582 H   0  0  0  0  0  0  0  0  0  0  0  0
   -1.5043    0.4512   -1.4438 N   0  0  0  0  0  0  0  0  0  0  0  0
   -0.3813    0.4056   -1.2800 N   0  0  0  0  0  0  0  0  0  0  0  0
   -6.3965    0.5826   -3.2094 H   0  0  0  0  0  0  0  0  0  0  0  0
   -5.9297    1.3340   -0.8628 H   0  0  0  0  0  0  0  0  0  0  0  0
   -2.3211   -0.5813   -3.6919 N   0  0  0  0  0  0  0  0  0  0  0  0
   -1.3462   -0.9820   -4.3502 N   0  0  0  0  0  0  0  0  0  0  0  0
   -1.0730   -2.3457   -4.3766 C   0  0  0  0  0  0  0  0  0  0  0  0
    0.2158   -2.7224   -4.8420 C   0  0  0  0  0  0  0  0  0  0  0  0
   -2.0380   -3.3282   -4.0699 C   0  0  0  0  0  0  0  0  0  0  0  0
    0.4921   -4.0756   -5.0227 C   0  0  0  0  0  0  0  0  0  0  0  0
   -1.7348   -4.6709   -4.2457 C   0  0  0  0  0  0  0  0  0  0  0  0
   -3.0346   -3.0353   -3.7521 H   0  0  0  0  0  0  0  0  0  0  0  0
   -0.4732   -5.0439   -4.7266 C   0  0  0  0  0  0  0  0  0  0  0  0
    1.4730   -4.3700   -5.3763 H   0  0  0  0  0  0  0  0  0  0  0  0
   -2.4813   -5.4269   -4.0268 H   0  0  0  0  0  0  0  0  0  0  0  0
   -0.2394   -6.0941   -4.8693 H   0  0  0  0  0  0  0  0  0  0  0  0
    1.2913   -1.6885   -5.0027 C   0  0  0  0  0  0  0  0  0  0  0  0
    1.3086   -0.6325   -4.4080 O   0  0  0  0  0  0  0  0  0  0  0  0
    2.2476   -2.0946   -5.8540 O   0  0  0  0  0  0  0  0  0  0  0  0
    2.9344   -1.4054   -5.8752 H   0  0  0  0  0  0  0  0  0  0  0  0
   -3.6737    1.4474    0.4238 C   0  0  0  0  0  0  0  0  0  0  0  0
   -4.5753    1.8850    1.0963 O   0  0  0  0  0  0  0  0  0  0  0  0
   -2.3942    1.3572    0.8367 O   0  0  0  0  0  0  0  0  0  0  0  0
   -2.3524    1.7113    1.7422 H   0  0  0  0  0  0  0  0  0  0  0  0
  1  2  2  0  0  0  0
  1  6  1  0  0  0  0
  2  3  1  0  0  0  0
  3  8  1  0  0  0  0
  3  4  2  0  0  0  0
  4 28  1  0  0  0  0
  5  4  1  0  0  0  0
  5 11  1  0  0  0  0
  6  5  2  0  0  0  0
  7  1  1  0  0  0  0
  8  9  1  0  0  0  0
 10  6  1  0  0  0  0
 12  2  1  0  0  0  0
 13 12  1  0  0  0  0
 14 13  1  0  0  0  0
 14 16  2  0  0  0  0
 15 14  1  0  0  0  0
 16 19  1  0  0  0  0
 17 15  2  0  0  0  0
 17 20  1  0  0  0  0
 18 16  1  0  0  0  0
 18 22  1  0  0  0  0
 20 18  2  0  0  0  0
 21 17  1  0  0  0  0
 23 20  1  0  0  0  0
 24 15  1  0  0  0  0
 24 25  2  0  0  0  0
 26 24  1  0  0  0  0
 27 26  1  0  0  0  0
 28 30  1  0  0  0  0
 28 29  2  0  0  0  0
 30 31  1  0  0  0  0
M  RAD  4   8   2   9   3  12   2  13   2
M  END
