Coordinates from ORCA-job 1f-Schema5-R6-D+-B3LYPG-6-31G_dp-scan-d49-09-n400
 OpenBabel08231810253D

 31 31  0  0  0  0  0  0  0  0999 V2000
   -4.3141   -0.4155   -3.0759 C   0  0  0  0  0  0  0  0  0  0  0  0
   -3.1375   -0.5801   -2.2996 C   0  0  0  0  0  0  0  0  0  0  0  0
   -3.3001   -0.0260   -1.0161 C   0  0  0  0  0  0  0  0  0  0  0  0
   -4.4381    0.6366   -0.4588 C   0  0  0  0  0  0  0  0  0  0  0  0
   -5.5255    0.7464   -1.3077 C   0  0  0  0  0  0  0  0  0  0  0  0
   -5.4625    0.2209   -2.6130 C   0  0  0  0  0  0  0  0  0  0  0  0
   -4.3318   -0.8075   -4.0927 H   0  0  0  0  0  0  0  0  0  0  0  0
   -2.1577   -0.1893   -0.2401 N   0  0  0  0  0  0  0  0  0  0  0  0
   -1.1944   -0.3763    0.2919 N   0  0  0  0  0  0  0  0  0  0  0  0
   -6.3320    0.3204   -3.2581 H   0  0  0  0  0  0  0  0  0  0  0  0
   -6.4169    1.2411   -0.9387 H   0  0  0  0  0  0  0  0  0  0  0  0
   -0.5518    0.5551   -4.5914 N   0  0  0  0  0  0  0  0  0  0  0  0
   -0.3324   -0.5233   -4.7658 N   0  0  0  0  0  0  0  0  0  0  0  0
   -0.2733   -1.9153   -4.7558 C   0  0  0  0  0  0  0  0  0  0  0  0
    0.5731   -2.6100   -5.6488 C   0  0  0  0  0  0  0  0  0  0  0  0
   -1.1087   -2.5194   -3.8102 C   0  0  0  0  0  0  0  0  0  0  0  0
    0.5601   -3.9962   -5.5651 C   0  0  0  0  0  0  0  0  0  0  0  0
   -1.0896   -3.9146   -3.7662 C   0  0  0  0  0  0  0  0  0  0  0  0
   -1.7532   -1.8766   -3.1612 H   0  0  0  0  0  0  0  0  0  0  0  0
   -0.2662   -4.6416   -4.6290 C   0  0  0  0  0  0  0  0  0  0  0  0
    1.1940   -4.5702   -6.2309 H   0  0  0  0  0  0  0  0  0  0  0  0
   -1.7241   -4.4302   -3.0523 H   0  0  0  0  0  0  0  0  0  0  0  0
   -0.2606   -5.7265   -4.5811 H   0  0  0  0  0  0  0  0  0  0  0  0
    1.4098   -1.8299   -6.6069 C   0  0  0  0  0  0  0  0  0  0  0  0
    1.3809   -0.6147   -6.6343 O   0  0  0  0  0  0  0  0  0  0  0  0
    2.1590   -2.6008   -7.3940 O   0  0  0  0  0  0  0  0  0  0  0  0
    2.6729   -2.0266   -7.9892 H   0  0  0  0  0  0  0  0  0  0  0  0
   -4.5649    1.2076    0.9159 C   0  0  0  0  0  0  0  0  0  0  0  0
   -5.5588    1.7583    1.3282 O   0  0  0  0  0  0  0  0  0  0  0  0
   -3.4426    1.0439    1.6554 O   0  0  0  0  0  0  0  0  0  0  0  0
   -3.6141    1.4430    2.5259 H   0  0  0  0  0  0  0  0  0  0  0  0
  1  6  2  0  0  0  0
  1  2  1  0  0  0  0
  2  3  2  0  0  0  0
  3  4  1  0  0  0  0
  3  8  1  0  0  0  0
  4 28  1  0  0  0  0
  5 11  1  0  0  0  0
  5  4  2  0  0  0  0
  6  5  1  0  0  0  0
  7  1  1  0  0  0  0
  8  9  1  0  0  0  0
 10  6  1  0  0  0  0
 13 14  1  0  0  0  0
 13 12  1  0  0  0  0
 14 16  2  0  0  0  0
 15 17  2  0  0  0  0
 15 14  1  0  0  0  0
 16 18  1  0  0  0  0
 16 19  1  0  0  0  0
 17 20  1  0  0  0  0
 18 22  1  0  0  0  0
 20 23  1  0  0  0  0
 20 18  2  0  0  0  0
 21 17  1  0  0  0  0
 24 15  1  0  0  0  0
 25 24  2  0  0  0  0
 26 24  1  0  0  0  0
 27 26  1  0  0  0  0
 28 29  2  0  0  0  0
 28 30  1  0  0  0  0
 30 31  1  0  0  0  0
M  RAD  5   2   2   8   2   9   3  12   3  13   2
M  END
