Coordinates from ORCA-job 1f-Schema5-R6-D+-B3LYPG-6-31G_dp-scan-d49-09-n400
 OpenBabel08231810253D

 31 31  0  0  0  0  0  0  0  0999 V2000
   -4.3254   -0.4208   -3.0774 C   0  0  0  0  0  0  0  0  0  0  0  0
   -3.1334   -0.5505   -2.3191 C   0  0  0  0  0  0  0  0  0  0  0  0
   -3.2845    0.0148   -1.0391 C   0  0  0  0  0  0  0  0  0  0  0  0
   -4.4272    0.6590   -0.4700 C   0  0  0  0  0  0  0  0  0  0  0  0
   -5.5315    0.7340   -1.3007 C   0  0  0  0  0  0  0  0  0  0  0  0
   -5.4797    0.1947   -2.6007 C   0  0  0  0  0  0  0  0  0  0  0  0
   -4.3509   -0.8227   -4.0900 H   0  0  0  0  0  0  0  0  0  0  0  0
   -2.1258   -0.1142   -0.2816 N   0  0  0  0  0  0  0  0  0  0  0  0
   -1.1500   -0.2733    0.2365 N   0  0  0  0  0  0  0  0  0  0  0  0
   -6.3623    0.2672   -3.2314 H   0  0  0  0  0  0  0  0  0  0  0  0
   -6.4269    1.2135   -0.9218 H   0  0  0  0  0  0  0  0  0  0  0  0
   -0.5961    0.5005   -4.4505 N   0  0  0  0  0  0  0  0  0  0  0  0
   -0.3473   -0.5602   -4.6883 N   0  0  0  0  0  0  0  0  0  0  0  0
   -0.2875   -1.9531   -4.7265 C   0  0  0  0  0  0  0  0  0  0  0  0
    0.5702   -2.6153   -5.6310 C   0  0  0  0  0  0  0  0  0  0  0  0
   -1.1330   -2.5899   -3.8132 C   0  0  0  0  0  0  0  0  0  0  0  0
    0.5590   -4.0041   -5.5956 C   0  0  0  0  0  0  0  0  0  0  0  0
   -1.1126   -3.9856   -3.8150 C   0  0  0  0  0  0  0  0  0  0  0  0
   -1.7804   -1.9675   -3.1554 H   0  0  0  0  0  0  0  0  0  0  0  0
   -0.2775   -4.6816   -4.6925 C   0  0  0  0  0  0  0  0  0  0  0  0
    1.2018   -4.5544   -6.2727 H   0  0  0  0  0  0  0  0  0  0  0  0
   -1.7541   -4.5266   -3.1267 H   0  0  0  0  0  0  0  0  0  0  0  0
   -0.2710   -5.7675   -4.6812 H   0  0  0  0  0  0  0  0  0  0  0  0
    1.4170   -1.7996   -6.5498 C   0  0  0  0  0  0  0  0  0  0  0  0
    1.3865   -0.5842   -6.5332 O   0  0  0  0  0  0  0  0  0  0  0  0
    2.1792   -2.5399   -7.3535 O   0  0  0  0  0  0  0  0  0  0  0  0
    2.7003   -1.9435   -7.9202 H   0  0  0  0  0  0  0  0  0  0  0  0
   -4.5424    1.2447    0.8997 C   0  0  0  0  0  0  0  0  0  0  0  0
   -5.5414    1.7772    1.3231 O   0  0  0  0  0  0  0  0  0  0  0  0
   -3.4045    1.1133    1.6216 O   0  0  0  0  0  0  0  0  0  0  0  0
   -3.5695    1.5183    2.4906 H   0  0  0  0  0  0  0  0  0  0  0  0
  1  6  2  0  0  0  0
  1  2  1  0  0  0  0
  2  3  2  0  0  0  0
  3  4  1  0  0  0  0
  3  8  1  0  0  0  0
  4 28  1  0  0  0  0
  5 11  1  0  0  0  0
  5  4  2  0  0  0  0
  6  5  1  0  0  0  0
  7  1  1  0  0  0  0
  8  9  1  0  0  0  0
 10  6  1  0  0  0  0
 13 12  1  0  0  0  0
 14 13  1  0  0  0  0
 14 16  2  0  0  0  0
 15 17  2  0  0  0  0
 15 14  1  0  0  0  0
 16 19  1  0  0  0  0
 17 20  1  0  0  0  0
 18 16  1  0  0  0  0
 18 22  1  0  0  0  0
 20 23  1  0  0  0  0
 20 18  2  0  0  0  0
 21 17  1  0  0  0  0
 24 25  2  0  0  0  0
 24 15  1  0  0  0  0
 26 24  1  0  0  0  0
 27 26  1  0  0  0  0
 28 29  2  0  0  0  0
 28 30  1  0  0  0  0
 30 31  1  0  0  0  0
M  RAD  5   2   2   8   2   9   3  12   3  13   2
M  END
