Coordinates from ORCA-job 1f-Schema5-R6-D+-B3LYPG-6-31G_dp-scan-d49-09-n400
 OpenBabel08231810253D

 31 31  0  0  0  0  0  0  0  0999 V2000
   -3.2187   -0.5256   -3.3796 C   0  0  0  0  0  0  0  0  0  0  0  0
   -2.2809   -0.3273   -2.3718 C   0  0  0  0  0  0  0  0  0  0  0  0
   -2.7191    0.2751   -1.1867 C   0  0  0  0  0  0  0  0  0  0  0  0
   -4.0697    0.6388   -0.9244 C   0  0  0  0  0  0  0  0  0  0  0  0
   -4.9740    0.3882   -1.9474 C   0  0  0  0  0  0  0  0  0  0  0  0
   -4.5554   -0.1789   -3.1624 C   0  0  0  0  0  0  0  0  0  0  0  0
   -2.9158   -0.9507   -4.3308 H   0  0  0  0  0  0  0  0  0  0  0  0
   -1.7183    0.5258   -0.2605 N   0  0  0  0  0  0  0  0  0  0  0  0
   -0.8478    0.7097    0.4080 N   0  0  0  0  0  0  0  0  0  0  0  0
   -5.2878   -0.3470   -3.9465 H   0  0  0  0  0  0  0  0  0  0  0  0
   -6.0118    0.6549   -1.7807 H   0  0  0  0  0  0  0  0  0  0  0  0
   -0.3592   -0.2518   -2.5624 N   0  0  0  0  0  0  0  0  0  0  0  0
    0.1556   -1.0313   -3.2952 N   0  0  0  0  0  0  0  0  0  0  0  0
   -0.3161   -2.2120   -3.9203 C   0  0  0  0  0  0  0  0  0  0  0  0
   -0.0146   -2.4589   -5.2746 C   0  0  0  0  0  0  0  0  0  0  0  0
   -0.9312   -3.1820   -3.1231 C   0  0  0  0  0  0  0  0  0  0  0  0
   -0.3705   -3.6941   -5.8208 C   0  0  0  0  0  0  0  0  0  0  0  0
   -1.2726   -4.4108   -3.6909 C   0  0  0  0  0  0  0  0  0  0  0  0
   -1.0975   -2.9893   -2.0694 H   0  0  0  0  0  0  0  0  0  0  0  0
   -0.9957   -4.6656   -5.0347 C   0  0  0  0  0  0  0  0  0  0  0  0
   -0.1560   -3.8842   -6.8660 H   0  0  0  0  0  0  0  0  0  0  0  0
   -1.7406   -5.1722   -3.0753 H   0  0  0  0  0  0  0  0  0  0  0  0
   -1.2585   -5.6235   -5.4706 H   0  0  0  0  0  0  0  0  0  0  0  0
    0.5976   -1.3697   -6.0867 C   0  0  0  0  0  0  0  0  0  0  0  0
    0.6680   -0.2173   -5.7082 O   0  0  0  0  0  0  0  0  0  0  0  0
    1.0491   -1.7992   -7.2762 O   0  0  0  0  0  0  0  0  0  0  0  0
    1.4192   -1.0300   -7.7425 H   0  0  0  0  0  0  0  0  0  0  0  0
   -4.5904    1.2597    0.3391 C   0  0  0  0  0  0  0  0  0  0  0  0
   -5.7503    1.5459    0.5011 O   0  0  0  0  0  0  0  0  0  0  0  0
   -3.6172    1.4503    1.2530 O   0  0  0  0  0  0  0  0  0  0  0  0
   -4.0205    1.8559    2.0410 H   0  0  0  0  0  0  0  0  0  0  0  0
  1  6  2  0  0  0  0
  1  2  1  0  0  0  0
  2  3  2  0  0  0  0
  3  4  1  0  0  0  0
  3  8  1  0  0  0  0
  4 28  1  0  0  0  0
  5 11  1  0  0  0  0
  5  4  2  0  0  0  0
  6  5  1  0  0  0  0
  7  1  1  0  0  0  0
  8  9  1  0  0  0  0
 10  6  1  0  0  0  0
 13 12  2  0  0  0  0
 14 13  1  0  0  0  0
 14 16  2  0  0  0  0
 15 14  1  0  0  0  0
 16 19  1  0  0  0  0
 17 15  2  0  0  0  0
 17 20  1  0  0  0  0
 18 16  1  0  0  0  0
 18 22  1  0  0  0  0
 20 18  2  0  0  0  0
 21 17  1  0  0  0  0
 23 20  1  0  0  0  0
 24 25  2  0  0  0  0
 24 15  1  0  0  0  0
 26 24  1  0  0  0  0
 27 26  1  0  0  0  0
 28 29  2  0  0  0  0
 28 30  1  0  0  0  0
 30 31  1  0  0  0  0
M  RAD  4   2   2   8   2   9   3  12   2
M  END
