Coordinates from ORCA-job 1f-Schema5-R6-D+-B3LYPG-6-31G_dp-scan-d49-09-n400
 OpenBabel08231810253D

 31 31  0  0  0  0  0  0  0  0999 V2000
   -4.4805   -0.3664   -3.0651 C   0  0  0  0  0  0  0  0  0  0  0  0
   -3.2648   -0.5674   -2.3596 C   0  0  0  0  0  0  0  0  0  0  0  0
   -3.3594   -0.0684   -1.0470 C   0  0  0  0  0  0  0  0  0  0  0  0
   -4.4639    0.5722   -0.4025 C   0  0  0  0  0  0  0  0  0  0  0  0
   -5.5939    0.7192   -1.1872 C   0  0  0  0  0  0  0  0  0  0  0  0
   -5.6008    0.2500   -2.5156 C   0  0  0  0  0  0  0  0  0  0  0  0
   -4.5519   -0.7129   -4.0960 H   0  0  0  0  0  0  0  0  0  0  0  0
   -2.1783   -0.2664   -0.3409 N   0  0  0  0  0  0  0  0  0  0  0  0
   -1.1879   -0.4777    0.1291 N   0  0  0  0  0  0  0  0  0  0  0  0
   -6.5027    0.3777   -3.1094 H   0  0  0  0  0  0  0  0  0  0  0  0
   -6.4630    1.1994   -0.7517 H   0  0  0  0  0  0  0  0  0  0  0  0
   -0.4773    0.6596   -5.0865 N   0  0  0  0  0  0  0  0  0  0  0  0
   -0.3106   -0.4415   -5.0796 N   0  0  0  0  0  0  0  0  0  0  0  0
   -0.2686   -1.8213   -4.9090 C   0  0  0  0  0  0  0  0  0  0  0  0
    0.6431   -2.6067   -5.6557 C   0  0  0  0  0  0  0  0  0  0  0  0
   -1.1787   -2.3303   -3.9728 C   0  0  0  0  0  0  0  0  0  0  0  0
    0.6159   -3.9762   -5.4305 C   0  0  0  0  0  0  0  0  0  0  0  0
   -1.1638   -3.7135   -3.7833 C   0  0  0  0  0  0  0  0  0  0  0  0
   -1.8730   -1.6571   -3.4026 H   0  0  0  0  0  0  0  0  0  0  0  0
   -0.2832   -4.5249   -4.5004 C   0  0  0  0  0  0  0  0  0  0  0  0
    1.2977   -4.6127   -5.9825 H   0  0  0  0  0  0  0  0  0  0  0  0
   -1.8534   -4.1508   -3.0678 H   0  0  0  0  0  0  0  0  0  0  0  0
   -0.2876   -5.5990   -4.3414 H   0  0  0  0  0  0  0  0  0  0  0  0
    1.5643   -1.9374   -6.6211 C   0  0  0  0  0  0  0  0  0  0  0  0
    1.5569   -0.7327   -6.7818 O   0  0  0  0  0  0  0  0  0  0  0  0
    2.3621   -2.7942   -7.2576 O   0  0  0  0  0  0  0  0  0  0  0  0
    2.9314   -2.2907   -7.8663 H   0  0  0  0  0  0  0  0  0  0  0  0
   -4.5149    1.0857    0.9990 C   0  0  0  0  0  0  0  0  0  0  0  0
   -5.4830    1.6196    1.4880 O   0  0  0  0  0  0  0  0  0  0  0  0
   -3.3541    0.8916    1.6693 O   0  0  0  0  0  0  0  0  0  0  0  0
   -3.4771    1.2560    2.5628 H   0  0  0  0  0  0  0  0  0  0  0  0
  1  6  2  0  0  0  0
  1  2  1  0  0  0  0
  2  3  2  0  0  0  0
  3  4  1  0  0  0  0
  3  8  1  0  0  0  0
  4 28  1  0  0  0  0
  5 11  1  0  0  0  0
  5  4  2  0  0  0  0
  6  5  1  0  0  0  0
  7  1  1  0  0  0  0
  8  9  1  0  0  0  0
 10  6  1  0  0  0  0
 12 13  1  0  0  0  0
 13 14  1  0  0  0  0
 14 16  2  0  0  0  0
 15 17  2  0  0  0  0
 15 14  1  0  0  0  0
 16 18  1  0  0  0  0
 16 19  1  0  0  0  0
 17 20  1  0  0  0  0
 18 22  1  0  0  0  0
 20 23  1  0  0  0  0
 20 18  2  0  0  0  0
 21 17  1  0  0  0  0
 24 15  1  0  0  0  0
 25 24  2  0  0  0  0
 26 24  1  0  0  0  0
 27 26  1  0  0  0  0
 28 29  2  0  0  0  0
 28 30  1  0  0  0  0
 30 31  1  0  0  0  0
M  RAD  5   2   2   8   2   9   3  12   3  13   2
M  END
