Coordinates from ORCA-job 1f-Schema5-R6-D+-B3LYPG-6-31G_dp-scan-d49-09-n400
 OpenBabel08231810253D

 31 31  0  0  0  0  0  0  0  0999 V2000
   -3.4201   -0.6337   -3.2544 C   0  0  0  0  0  0  0  0  0  0  0  0
   -2.4190   -0.3742   -2.3194 C   0  0  0  0  0  0  0  0  0  0  0  0
   -2.8043    0.3013   -1.1574 C   0  0  0  0  0  0  0  0  0  0  0  0
   -4.1359    0.6949   -0.8427 C   0  0  0  0  0  0  0  0  0  0  0  0
   -5.0949    0.3866   -1.7972 C   0  0  0  0  0  0  0  0  0  0  0  0
   -4.7424   -0.2642   -2.9915 C   0  0  0  0  0  0  0  0  0  0  0  0
   -3.1793   -1.1270   -4.1909 H   0  0  0  0  0  0  0  0  0  0  0  0
   -1.7540    0.5969   -0.2977 N   0  0  0  0  0  0  0  0  0  0  0  0
   -0.8425    0.8027    0.3072 N   0  0  0  0  0  0  0  0  0  0  0  0
   -5.5168   -0.4803   -3.7220 H   0  0  0  0  0  0  0  0  0  0  0  0
   -6.1214    0.6711   -1.5943 H   0  0  0  0  0  0  0  0  0  0  0  0
   -0.3464   -0.2945   -2.6003 N   0  0  0  0  0  0  0  0  0  0  0  0
    0.1192   -1.0665   -3.3448 N   0  0  0  0  0  0  0  0  0  0  0  0
   -0.2964   -2.2483   -3.9991 C   0  0  0  0  0  0  0  0  0  0  0  0
    0.0975   -2.4873   -5.3299 C   0  0  0  0  0  0  0  0  0  0  0  0
   -0.9784   -3.2087   -3.2469 C   0  0  0  0  0  0  0  0  0  0  0  0
   -0.2372   -3.7144   -5.9055 C   0  0  0  0  0  0  0  0  0  0  0  0
   -1.2965   -4.4286   -3.8454 C   0  0  0  0  0  0  0  0  0  0  0  0
   -1.2246   -3.0087   -2.2108 H   0  0  0  0  0  0  0  0  0  0  0  0
   -0.9288   -4.6797   -5.1683 C   0  0  0  0  0  0  0  0  0  0  0  0
    0.0466   -3.9040   -6.9338 H   0  0  0  0  0  0  0  0  0  0  0  0
   -1.8194   -5.1856   -3.2699 H   0  0  0  0  0  0  0  0  0  0  0  0
   -1.1741   -5.6318   -5.6268 H   0  0  0  0  0  0  0  0  0  0  0  0
    0.7912   -1.4058   -6.0873 C   0  0  0  0  0  0  0  0  0  0  0  0
    0.8911   -0.2666   -5.6778 O   0  0  0  0  0  0  0  0  0  0  0  0
    1.2794   -1.8293   -7.2632 O   0  0  0  0  0  0  0  0  0  0  0  0
    1.7025   -1.0678   -7.6961 H   0  0  0  0  0  0  0  0  0  0  0  0
   -4.5834    1.3983    0.4041 C   0  0  0  0  0  0  0  0  0  0  0  0
   -5.7304    1.7073    0.6122 O   0  0  0  0  0  0  0  0  0  0  0  0
   -3.5609    1.6374    1.2516 O   0  0  0  0  0  0  0  0  0  0  0  0
   -3.9214    2.0933    2.0327 H   0  0  0  0  0  0  0  0  0  0  0  0
  1  6  2  0  0  0  0
  1  2  1  0  0  0  0
  2  3  2  0  0  0  0
  3  4  1  0  0  0  0
  3  8  1  0  0  0  0
  4 28  1  0  0  0  0
  5 11  1  0  0  0  0
  5  4  2  0  0  0  0
  6  5  1  0  0  0  0
  7  1  1  0  0  0  0
  8  9  1  0  0  0  0
 10  6  1  0  0  0  0
 13 12  2  0  0  0  0
 14 13  1  0  0  0  0
 14 16  2  0  0  0  0
 15 14  1  0  0  0  0
 16 19  1  0  0  0  0
 17 15  2  0  0  0  0
 17 20  1  0  0  0  0
 18 22  1  0  0  0  0
 18 16  1  0  0  0  0
 20 18  2  0  0  0  0
 21 17  1  0  0  0  0
 23 20  1  0  0  0  0
 24 25  2  0  0  0  0
 24 15  1  0  0  0  0
 26 24  1  0  0  0  0
 27 26  1  0  0  0  0
 28 29  2  0  0  0  0
 28 30  1  0  0  0  0
 30 31  1  0  0  0  0
M  RAD  4   2   2   8   2   9   3  12   2
M  END
