Coordinates from ORCA-job 1f-Schema5-R6-D+-B3LYPG-6-31G_dp-scan-d49-09-n400
 OpenBabel08231810253D

 31 32  0  0  0  0  0  0  0  0999 V2000
   -2.7930    0.0073   -3.6519 C   0  0  0  0  0  0  0  0  0  0  0  0
   -1.9424   -0.0506   -2.5217 C   0  0  0  0  0  0  0  0  0  0  0  0
   -2.5315    0.2644   -1.2519 C   0  0  0  0  0  0  0  0  0  0  0  0
   -3.9230    0.5335   -1.0879 C   0  0  0  0  0  0  0  0  0  0  0  0
   -4.7040    0.5327   -2.2281 C   0  0  0  0  0  0  0  0  0  0  0  0
   -4.1381    0.2892   -3.4976 C   0  0  0  0  0  0  0  0  0  0  0  0
   -2.3450   -0.1326   -4.6302 H   0  0  0  0  0  0  0  0  0  0  0  0
   -1.6567    0.3123   -0.2101 N   0  0  0  0  0  0  0  0  0  0  0  0
   -0.8619    0.3779    0.5745 N   0  0  0  0  0  0  0  0  0  0  0  0
   -4.7767    0.3223   -4.3746 H   0  0  0  0  0  0  0  0  0  0  0  0
   -5.7616    0.7440   -2.1164 H   0  0  0  0  0  0  0  0  0  0  0  0
   -0.6173   -0.1315   -2.6178 N   0  0  0  0  0  0  0  0  0  0  0  0
    0.0497   -0.8741   -3.3664 N   0  0  0  0  0  0  0  0  0  0  0  0
   -0.4510   -2.1214   -3.8264 C   0  0  0  0  0  0  0  0  0  0  0  0
   -0.2428   -2.4880   -5.1759 C   0  0  0  0  0  0  0  0  0  0  0  0
   -0.9139   -3.0698   -2.9030 C   0  0  0  0  0  0  0  0  0  0  0  0
   -0.4995   -3.7977   -5.5776 C   0  0  0  0  0  0  0  0  0  0  0  0
   -1.1626   -4.3779   -3.3224 C   0  0  0  0  0  0  0  0  0  0  0  0
   -1.0032   -2.8041   -1.8547 H   0  0  0  0  0  0  0  0  0  0  0  0
   -0.9544   -4.7439   -4.6529 C   0  0  0  0  0  0  0  0  0  0  0  0
   -0.3604   -4.0662   -6.6190 H   0  0  0  0  0  0  0  0  0  0  0  0
   -1.5037   -5.1141   -2.6017 H   0  0  0  0  0  0  0  0  0  0  0  0
   -1.1473   -5.7620   -4.9735 H   0  0  0  0  0  0  0  0  0  0  0  0
    0.0990   -1.4030   -6.1301 C   0  0  0  0  0  0  0  0  0  0  0  0
   -0.1040   -0.2258   -5.8794 O   0  0  0  0  0  0  0  0  0  0  0  0
    0.6189   -1.8424   -7.2825 O   0  0  0  0  0  0  0  0  0  0  0  0
    0.7854   -1.0684   -7.8481 H   0  0  0  0  0  0  0  0  0  0  0  0
   -4.5991    0.8253    0.2212 C   0  0  0  0  0  0  0  0  0  0  0  0
   -5.7789    1.0560    0.3115 O   0  0  0  0  0  0  0  0  0  0  0  0
   -3.7406    0.7941    1.2594 O   0  0  0  0  0  0  0  0  0  0  0  0
   -4.2413    0.9973    2.0695 H   0  0  0  0  0  0  0  0  0  0  0  0
  1  6  2  0  0  0  0
  1  2  1  0  0  0  0
  2  3  2  0  0  0  0
  3  4  1  0  0  0  0
  3  8  1  0  0  0  0
  4 28  1  0  0  0  0
  5 11  1  0  0  0  0
  5  4  2  0  0  0  0
  6  5  1  0  0  0  0
  7  1  1  0  0  0  0
  8  9  1  0  0  0  0
 10  6  1  0  0  0  0
 12  2  1  0  0  0  0
 13 12  1  0  0  0  0
 14 13  1  0  0  0  0
 14 16  2  0  0  0  0
 15 14  1  0  0  0  0
 16 19  1  0  0  0  0
 17 15  2  0  0  0  0
 17 20  1  0  0  0  0
 18 16  1  0  0  0  0
 18 22  1  0  0  0  0
 20 18  2  0  0  0  0
 21 17  1  0  0  0  0
 23 20  1  0  0  0  0
 24 25  2  0  0  0  0
 24 15  1  0  0  0  0
 26 24  1  0  0  0  0
 27 26  1  0  0  0  0
 28 29  2  0  0  0  0
 28 30  1  0  0  0  0
 30 31  1  0  0  0  0
M  RAD  4   8   2   9   3  12   2  13   2
M  END
