Coordinates from ORCA-job 1f-Schema5-R6-D+-B3LYPG-6-31G_dp-scan-d49-09-n400
 OpenBabel08231810253D

 31 31  0  0  0  0  0  0  0  0999 V2000
   -4.4764   -0.5471   -2.9527 C   0  0  0  0  0  0  0  0  0  0  0  0
   -3.2219   -0.5062   -2.2880 C   0  0  0  0  0  0  0  0  0  0  0  0
   -3.3633    0.0072   -0.9854 C   0  0  0  0  0  0  0  0  0  0  0  0
   -4.5433    0.4584   -0.3149 C   0  0  0  0  0  0  0  0  0  0  0  0
   -5.7069    0.3712   -1.0584 C   0  0  0  0  0  0  0  0  0  0  0  0
   -5.6719   -0.1313   -2.3742 C   0  0  0  0  0  0  0  0  0  0  0  0
   -4.5160   -0.9240   -3.9745 H   0  0  0  0  0  0  0  0  0  0  0  0
   -2.1419    0.0492   -0.3220 N   0  0  0  0  0  0  0  0  0  0  0  0
   -1.1134    0.0371    0.1121 N   0  0  0  0  0  0  0  0  0  0  0  0
   -6.6015   -0.1883   -2.9352 H   0  0  0  0  0  0  0  0  0  0  0  0
   -6.6339    0.6998   -0.6023 H   0  0  0  0  0  0  0  0  0  0  0  0
    0.3501    0.8164   -5.1919 N   0  0  0  0  0  0  0  0  0  0  0  0
    0.2339   -0.2905   -5.1525 N   0  0  0  0  0  0  0  0  0  0  0  0
   -0.0338   -1.6432   -4.9842 C   0  0  0  0  0  0  0  0  0  0  0  0
    0.7018   -2.6048   -5.7245 C   0  0  0  0  0  0  0  0  0  0  0  0
   -1.0462   -1.9613   -4.0666 C   0  0  0  0  0  0  0  0  0  0  0  0
    0.3825   -3.9389   -5.5129 C   0  0  0  0  0  0  0  0  0  0  0  0
   -1.3259   -3.3176   -3.8927 C   0  0  0  0  0  0  0  0  0  0  0  0
   -1.6402   -1.2200   -3.4769 H   0  0  0  0  0  0  0  0  0  0  0  0
   -0.6267   -4.2936   -4.6023 C   0  0  0  0  0  0  0  0  0  0  0  0
    0.9246   -4.6998   -6.0620 H   0  0  0  0  0  0  0  0  0  0  0  0
   -2.1067   -3.5911   -3.1894 H   0  0  0  0  0  0  0  0  0  0  0  0
   -0.8605   -5.3433   -4.4543 H   0  0  0  0  0  0  0  0  0  0  0  0
    1.7615   -2.1512   -6.6748 C   0  0  0  0  0  0  0  0  0  0  0  0
    2.0192   -0.9748   -6.8360 O   0  0  0  0  0  0  0  0  0  0  0  0
    2.3648   -3.1626   -7.2989 O   0  0  0  0  0  0  0  0  0  0  0  0
    3.0389   -2.7947   -7.8977 H   0  0  0  0  0  0  0  0  0  0  0  0
   -4.6393    1.0016    1.0728 C   0  0  0  0  0  0  0  0  0  0  0  0
   -5.6718    1.3634    1.5872 O   0  0  0  0  0  0  0  0  0  0  0  0
   -3.4395    1.0486    1.6999 O   0  0  0  0  0  0  0  0  0  0  0  0
   -3.5970    1.4142    2.5874 H   0  0  0  0  0  0  0  0  0  0  0  0
  1  6  2  0  0  0  0
  1  2  1  0  0  0  0
  2  3  2  0  0  0  0
  3  8  1  0  0  0  0
  3  4  1  0  0  0  0
  4 28  1  0  0  0  0
  5 11  1  0  0  0  0
  5  4  2  0  0  0  0
  6  5  1  0  0  0  0
  7  1  1  0  0  0  0
  8  9  1  0  0  0  0
 10  6  1  0  0  0  0
 12 13  1  0  0  0  0
 13 14  1  0  0  0  0
 14 16  2  0  0  0  0
 15 17  2  0  0  0  0
 15 14  1  0  0  0  0
 16 18  1  0  0  0  0
 16 19  1  0  0  0  0
 17 20  1  0  0  0  0
 18 22  1  0  0  0  0
 20 23  1  0  0  0  0
 20 18  2  0  0  0  0
 21 17  1  0  0  0  0
 24 15  1  0  0  0  0
 25 24  2  0  0  0  0
 26 24  1  0  0  0  0
 27 26  1  0  0  0  0
 28 29  2  0  0  0  0
 28 30  1  0  0  0  0
 30 31  1  0  0  0  0
M  RAD  5   2   2   8   2   9   3  12   3  13   2
M  END
