Coordinates from ORCA-job 1f-Schema5-R6-D+-B3LYPG-6-31G_dp-scan-d49-09-n400
 OpenBabel08231810253D

 31 31  0  0  0  0  0  0  0  0999 V2000
   -4.3288   -0.4164   -3.0801 C   0  0  0  0  0  0  0  0  0  0  0  0
   -3.1401   -0.5609   -2.3189 C   0  0  0  0  0  0  0  0  0  0  0  0
   -3.2896    0.0019   -1.0376 C   0  0  0  0  0  0  0  0  0  0  0  0
   -4.4272    0.6561   -0.4697 C   0  0  0  0  0  0  0  0  0  0  0  0
   -5.5281    0.7457   -1.3035 C   0  0  0  0  0  0  0  0  0  0  0  0
   -5.4779    0.2099   -2.6051 C   0  0  0  0  0  0  0  0  0  0  0  0
   -4.3557   -0.8155   -4.0937 H   0  0  0  0  0  0  0  0  0  0  0  0
   -2.1346   -0.1416   -0.2769 N   0  0  0  0  0  0  0  0  0  0  0  0
   -1.1620   -0.3128    0.2434 N   0  0  0  0  0  0  0  0  0  0  0  0
   -6.3577    0.2938   -3.2383 H   0  0  0  0  0  0  0  0  0  0  0  0
   -6.4196    1.2333   -0.9258 H   0  0  0  0  0  0  0  0  0  0  0  0
   -0.6083    0.5069   -4.4811 N   0  0  0  0  0  0  0  0  0  0  0  0
   -0.3595   -0.5565   -4.7048 N   0  0  0  0  0  0  0  0  0  0  0  0
   -0.2911   -1.9489   -4.7320 C   0  0  0  0  0  0  0  0  0  0  0  0
    0.5705   -2.6136   -5.6316 C   0  0  0  0  0  0  0  0  0  0  0  0
   -1.1327   -2.5832   -3.8133 C   0  0  0  0  0  0  0  0  0  0  0  0
    0.5672   -4.0019   -5.5846 C   0  0  0  0  0  0  0  0  0  0  0  0
   -1.1041   -3.9788   -3.8037 C   0  0  0  0  0  0  0  0  0  0  0  0
   -1.7838   -1.9592   -3.1592 H   0  0  0  0  0  0  0  0  0  0  0  0
   -0.2651   -4.6771   -4.6757 C   0  0  0  0  0  0  0  0  0  0  0  0
    1.2132   -4.5540   -6.2573 H   0  0  0  0  0  0  0  0  0  0  0  0
   -1.7423   -4.5178   -3.1108 H   0  0  0  0  0  0  0  0  0  0  0  0
   -0.2522   -5.7628   -4.6556 H   0  0  0  0  0  0  0  0  0  0  0  0
    1.4125   -1.8009   -6.5574 C   0  0  0  0  0  0  0  0  0  0  0  0
    1.3739   -0.5855   -6.5520 O   0  0  0  0  0  0  0  0  0  0  0  0
    2.1773   -2.5436   -7.3564 O   0  0  0  0  0  0  0  0  0  0  0  0
    2.6938   -1.9491   -7.9290 H   0  0  0  0  0  0  0  0  0  0  0  0
   -4.5406    1.2382    0.9017 C   0  0  0  0  0  0  0  0  0  0  0  0
   -5.5344    1.7819    1.3230 O   0  0  0  0  0  0  0  0  0  0  0  0
   -3.4055    1.0948    1.6257 O   0  0  0  0  0  0  0  0  0  0  0  0
   -3.5684    1.5004    2.4948 H   0  0  0  0  0  0  0  0  0  0  0  0
  1  6  2  0  0  0  0
  1  2  1  0  0  0  0
  2  3  2  0  0  0  0
  3  4  1  0  0  0  0
  3  8  1  0  0  0  0
  4 28  1  0  0  0  0
  5 11  1  0  0  0  0
  5  4  2  0  0  0  0
  6  5  1  0  0  0  0
  7  1  1  0  0  0  0
  8  9  1  0  0  0  0
 10  6  1  0  0  0  0
 13 12  1  0  0  0  0
 14 13  1  0  0  0  0
 14 16  2  0  0  0  0
 15 17  2  0  0  0  0
 15 14  1  0  0  0  0
 16 18  1  0  0  0  0
 16 19  1  0  0  0  0
 17 20  1  0  0  0  0
 18 22  1  0  0  0  0
 20 23  1  0  0  0  0
 20 18  2  0  0  0  0
 21 17  1  0  0  0  0
 24 25  2  0  0  0  0
 24 15  1  0  0  0  0
 26 24  1  0  0  0  0
 27 26  1  0  0  0  0
 28 29  2  0  0  0  0
 28 30  1  0  0  0  0
 30 31  1  0  0  0  0
M  RAD  5   2   2   8   2   9   3  12   3  13   2
M  END
