Coordinates from ORCA-job 1f-Schema5-R6-D+-B3LYPG-6-31G_dp-scan-d49-09-n400
 OpenBabel08231810253D

 31 32  0  0  0  0  0  0  0  0999 V2000
   -2.8682   -0.1235   -3.6098 C   0  0  0  0  0  0  0  0  0  0  0  0
   -2.0597   -0.1573   -2.4809 C   0  0  0  0  0  0  0  0  0  0  0  0
   -2.6101    0.2170   -1.2467 C   0  0  0  0  0  0  0  0  0  0  0  0
   -3.9851    0.5439   -1.0729 C   0  0  0  0  0  0  0  0  0  0  0  0
   -4.7712    0.5092   -2.2162 C   0  0  0  0  0  0  0  0  0  0  0  0
   -4.2216    0.1902   -3.4702 C   0  0  0  0  0  0  0  0  0  0  0  0
   -2.4333   -0.3219   -4.5845 H   0  0  0  0  0  0  0  0  0  0  0  0
   -1.7137    0.2688   -0.1992 N   0  0  0  0  0  0  0  0  0  0  0  0
   -0.9201    0.3216    0.5807 N   0  0  0  0  0  0  0  0  0  0  0  0
   -4.8633    0.2004   -4.3460 H   0  0  0  0  0  0  0  0  0  0  0  0
   -5.8221    0.7558   -2.1117 H   0  0  0  0  0  0  0  0  0  0  0  0
   -0.2928   -0.1065   -2.6086 N   0  0  0  0  0  0  0  0  0  0  0  0
    0.2364   -0.9363   -3.3085 N   0  0  0  0  0  0  0  0  0  0  0  0
   -0.3123   -2.1459   -3.8164 C   0  0  0  0  0  0  0  0  0  0  0  0
   -0.2000   -2.4611   -5.1857 C   0  0  0  0  0  0  0  0  0  0  0  0
   -0.7716   -3.0959   -2.8988 C   0  0  0  0  0  0  0  0  0  0  0  0
   -0.5611   -3.7397   -5.6154 C   0  0  0  0  0  0  0  0  0  0  0  0
   -1.1298   -4.3686   -3.3501 C   0  0  0  0  0  0  0  0  0  0  0  0
   -0.7892   -2.8594   -1.8403 H   0  0  0  0  0  0  0  0  0  0  0  0
   -1.0227   -4.6920   -4.7025 C   0  0  0  0  0  0  0  0  0  0  0  0
   -0.4894   -3.9768   -6.6710 H   0  0  0  0  0  0  0  0  0  0  0  0
   -1.4758   -5.1098   -2.6368 H   0  0  0  0  0  0  0  0  0  0  0  0
   -1.2952   -5.6832   -5.0485 H   0  0  0  0  0  0  0  0  0  0  0  0
    0.1736   -1.3761   -6.1316 C   0  0  0  0  0  0  0  0  0  0  0  0
    0.0617   -0.1955   -5.8535 O   0  0  0  0  0  0  0  0  0  0  0  0
    0.6109   -1.8297   -7.3147 O   0  0  0  0  0  0  0  0  0  0  0  0
    0.8047   -1.0564   -7.8725 H   0  0  0  0  0  0  0  0  0  0  0  0
   -4.6414    0.9217    0.2238 C   0  0  0  0  0  0  0  0  0  0  0  0
   -5.8134    1.1877    0.3126 O   0  0  0  0  0  0  0  0  0  0  0  0
   -3.7705    0.9222    1.2529 O   0  0  0  0  0  0  0  0  0  0  0  0
   -4.2548    1.1800    2.0576 H   0  0  0  0  0  0  0  0  0  0  0  0
  1  6  2  0  0  0  0
  1  2  1  0  0  0  0
  2  3  2  0  0  0  0
  3  4  1  0  0  0  0
  3  8  1  0  0  0  0
  4 28  1  0  0  0  0
  5 11  1  0  0  0  0
  5  4  2  0  0  0  0
  6  5  1  0  0  0  0
  7  1  1  0  0  0  0
  8  9  1  0  0  0  0
 10  6  1  0  0  0  0
 12  2  1  0  0  0  0
 13 12  1  0  0  0  0
 14 13  1  0  0  0  0
 14 16  2  0  0  0  0
 15 14  1  0  0  0  0
 16 19  1  0  0  0  0
 17 15  2  0  0  0  0
 17 20  1  0  0  0  0
 18 16  1  0  0  0  0
 18 22  1  0  0  0  0
 20 18  2  0  0  0  0
 21 17  1  0  0  0  0
 23 20  1  0  0  0  0
 24 25  2  0  0  0  0
 24 15  1  0  0  0  0
 26 24  1  0  0  0  0
 27 26  1  0  0  0  0
 28 29  2  0  0  0  0
 28 30  1  0  0  0  0
 30 31  1  0  0  0  0
M  RAD  4   8   2   9   3  12   2  13   2
M  END
