Coordinates from ORCA-job 1f-Schema5-R6-D+-B3LYPG-6-31G_dp-scan-d49-09-n400
 OpenBabel08231810253D

 31 31  0  0  0  0  0  0  0  0999 V2000
   -3.9220   -0.7109   -2.9978 C   0  0  0  0  0  0  0  0  0  0  0  0
   -2.7764   -0.3825   -2.2550 C   0  0  0  0  0  0  0  0  0  0  0  0
   -3.0337    0.3656   -1.1007 C   0  0  0  0  0  0  0  0  0  0  0  0
   -4.3086    0.7847   -0.6177 C   0  0  0  0  0  0  0  0  0  0  0  0
   -5.3900    0.4059   -1.3971 C   0  0  0  0  0  0  0  0  0  0  0  0
   -5.1988   -0.3328   -2.5787 C   0  0  0  0  0  0  0  0  0  0  0  0
   -3.8246   -1.2734   -3.9234 H   0  0  0  0  0  0  0  0  0  0  0  0
   -1.8754    0.7124   -0.4128 N   0  0  0  0  0  0  0  0  0  0  0  0
   -0.8881    0.9423    0.0498 N   0  0  0  0  0  0  0  0  0  0  0  0
   -6.0671   -0.6081   -3.1711 H   0  0  0  0  0  0  0  0  0  0  0  0
   -6.3813    0.7004   -1.0711 H   0  0  0  0  0  0  0  0  0  0  0  0
   -0.3426   -0.2080   -2.9388 N   0  0  0  0  0  0  0  0  0  0  0  0
   -0.0003   -1.0223   -3.6580 N   0  0  0  0  0  0  0  0  0  0  0  0
   -0.2559   -2.2560   -4.2745 C   0  0  0  0  0  0  0  0  0  0  0  0
    0.3888   -2.5871   -5.4809 C   0  0  0  0  0  0  0  0  0  0  0  0
   -1.1126   -3.1318   -3.6015 C   0  0  0  0  0  0  0  0  0  0  0  0
    0.1353   -3.8473   -6.0209 C   0  0  0  0  0  0  0  0  0  0  0  0
   -1.3444   -4.3846   -4.1670 C   0  0  0  0  0  0  0  0  0  0  0  0
   -1.5740   -2.8172   -2.6719 H   0  0  0  0  0  0  0  0  0  0  0  0
   -0.7226   -4.7388   -5.3670 C   0  0  0  0  0  0  0  0  0  0  0  0
    0.6104   -4.1236   -6.9545 H   0  0  0  0  0  0  0  0  0  0  0  0
   -2.0040   -5.0847   -3.6649 H   0  0  0  0  0  0  0  0  0  0  0  0
   -0.9033   -5.7179   -5.7981 H   0  0  0  0  0  0  0  0  0  0  0  0
    1.2728   -1.5786   -6.1395 C   0  0  0  0  0  0  0  0  0  0  0  0
    1.4019   -0.4449   -5.7241 O   0  0  0  0  0  0  0  0  0  0  0  0
    1.8923   -2.0665   -7.2205 O   0  0  0  0  0  0  0  0  0  0  0  0
    2.4407   -1.3561   -7.5968 H   0  0  0  0  0  0  0  0  0  0  0  0
   -4.5790    1.5757    0.6240 C   0  0  0  0  0  0  0  0  0  0  0  0
   -5.6859    1.8996    0.9809 O   0  0  0  0  0  0  0  0  0  0  0  0
   -3.4478    1.8807    1.2973 O   0  0  0  0  0  0  0  0  0  0  0  0
   -3.7049    2.3886    2.0867 H   0  0  0  0  0  0  0  0  0  0  0  0
  1  6  2  0  0  0  0
  1  2  1  0  0  0  0
  2  3  2  0  0  0  0
  3  4  1  0  0  0  0
  3  8  1  0  0  0  0
  4 28  1  0  0  0  0
  5 11  1  0  0  0  0
  5  4  2  0  0  0  0
  6  5  1  0  0  0  0
  7  1  1  0  0  0  0
  8  9  1  0  0  0  0
 10  6  1  0  0  0  0
 13 12  2  0  0  0  0
 14 13  1  0  0  0  0
 14 16  2  0  0  0  0
 15 14  1  0  0  0  0
 16 19  1  0  0  0  0
 17 15  2  0  0  0  0
 17 20  1  0  0  0  0
 18 22  1  0  0  0  0
 18 16  1  0  0  0  0
 20 18  2  0  0  0  0
 21 17  1  0  0  0  0
 23 20  1  0  0  0  0
 24 25  2  0  0  0  0
 24 15  1  0  0  0  0
 26 24  1  0  0  0  0
 27 26  1  0  0  0  0
 28 29  2  0  0  0  0
 28 30  1  0  0  0  0
 30 31  1  0  0  0  0
M  RAD  4   2   2   8   2   9   3  12   2
M  END
