Coordinates from ORCA-job 1f-Schema5-R6-D+-B3LYPG-6-31G_dp-scan-d49-09-n400
 OpenBabel08231810253D

 31 31  0  0  0  0  0  0  0  0999 V2000
   -4.3303   -0.4767   -3.0455 C   0  0  0  0  0  0  0  0  0  0  0  0
   -3.1018   -0.4538   -2.3413 C   0  0  0  0  0  0  0  0  0  0  0  0
   -3.2433    0.1419   -1.0749 C   0  0  0  0  0  0  0  0  0  0  0  0
   -4.4196    0.6852   -0.4709 C   0  0  0  0  0  0  0  0  0  0  0  0
   -5.5649    0.6092   -1.2443 C   0  0  0  0  0  0  0  0  0  0  0  0
   -5.5196    0.0294   -2.5266 C   0  0  0  0  0  0  0  0  0  0  0  0
   -4.3586   -0.9097   -4.0444 H   0  0  0  0  0  0  0  0  0  0  0  0
   -2.0417    0.1668   -0.3772 N   0  0  0  0  0  0  0  0  0  0  0  0
   -1.0308    0.1355    0.0945 N   0  0  0  0  0  0  0  0  0  0  0  0
   -6.4344   -0.0156   -3.1120 H   0  0  0  0  0  0  0  0  0  0  0  0
   -6.4867    1.0074   -0.8355 H   0  0  0  0  0  0  0  0  0  0  0  0
   -0.5286    0.3983   -4.1270 N   0  0  0  0  0  0  0  0  0  0  0  0
   -0.2583   -0.6187   -4.5055 N   0  0  0  0  0  0  0  0  0  0  0  0
   -0.2700   -2.0067   -4.6704 C   0  0  0  0  0  0  0  0  0  0  0  0
    0.5805   -2.6289   -5.6051 C   0  0  0  0  0  0  0  0  0  0  0  0
   -1.1737   -2.6792   -3.8450 C   0  0  0  0  0  0  0  0  0  0  0  0
    0.4983   -4.0139   -5.6994 C   0  0  0  0  0  0  0  0  0  0  0  0
   -1.2268   -4.0675   -3.9718 C   0  0  0  0  0  0  0  0  0  0  0  0
   -1.8022   -2.0861   -3.1594 H   0  0  0  0  0  0  0  0  0  0  0  0
   -0.3996   -4.7245   -4.8872 C   0  0  0  0  0  0  0  0  0  0  0  0
    1.1340   -4.5340   -6.4064 H   0  0  0  0  0  0  0  0  0  0  0  0
   -1.9161   -4.6339   -3.3538 H   0  0  0  0  0  0  0  0  0  0  0  0
   -0.4494   -5.8055   -4.9762 H   0  0  0  0  0  0  0  0  0  0  0  0
    1.4972   -1.7789   -6.4207 C   0  0  0  0  0  0  0  0  0  0  0  0
    1.5254   -0.5694   -6.2991 O   0  0  0  0  0  0  0  0  0  0  0  0
    2.2501   -2.4843   -7.2645 O   0  0  0  0  0  0  0  0  0  0  0  0
    2.8181   -1.8675   -7.7596 H   0  0  0  0  0  0  0  0  0  0  0  0
   -4.5294    1.3133    0.8809 C   0  0  0  0  0  0  0  0  0  0  0  0
   -5.5588    1.7520    1.3373 O   0  0  0  0  0  0  0  0  0  0  0  0
   -3.3486    1.3382    1.5422 O   0  0  0  0  0  0  0  0  0  0  0  0
   -3.5116    1.7603    2.4034 H   0  0  0  0  0  0  0  0  0  0  0  0
  1  6  2  0  0  0  0
  1  2  1  0  0  0  0
  2  3  2  0  0  0  0
  3  4  1  0  0  0  0
  3  8  1  0  0  0  0
  4 28  1  0  0  0  0
  5 11  1  0  0  0  0
  5  4  2  0  0  0  0
  6  5  1  0  0  0  0
  7  1  1  0  0  0  0
  8  9  1  0  0  0  0
 10  6  1  0  0  0  0
 13 12  1  0  0  0  0
 14 13  1  0  0  0  0
 14 16  2  0  0  0  0
 15 14  1  0  0  0  0
 16 19  1  0  0  0  0
 17 15  2  0  0  0  0
 17 20  1  0  0  0  0
 18 16  1  0  0  0  0
 18 22  1  0  0  0  0
 20 18  2  0  0  0  0
 21 17  1  0  0  0  0
 23 20  1  0  0  0  0
 24 25  2  0  0  0  0
 24 15  1  0  0  0  0
 26 24  1  0  0  0  0
 27 26  1  0  0  0  0
 28 29  2  0  0  0  0
 28 30  1  0  0  0  0
 30 31  1  0  0  0  0
M  RAD  5   2   2   8   2   9   3  12   3  13   2
M  END
