Coordinates from ORCA-job 1f-Schema5-R6-D+-B3LYPG-6-31G_dp-scan-d49-09-n400
 OpenBabel08231810253D

 31 31  0  0  0  0  0  0  0  0999 V2000
   -4.4800   -0.5576   -2.9453 C   0  0  0  0  0  0  0  0  0  0  0  0
   -3.2230   -0.4938   -2.2871 C   0  0  0  0  0  0  0  0  0  0  0  0
   -3.3682    0.0128   -0.9822 C   0  0  0  0  0  0  0  0  0  0  0  0
   -4.5534    0.4380   -0.3039 C   0  0  0  0  0  0  0  0  0  0  0  0
   -5.7189    0.3292   -1.0414 C   0  0  0  0  0  0  0  0  0  0  0  0
   -5.6807   -0.1684   -2.3591 C   0  0  0  0  0  0  0  0  0  0  0  0
   -4.5175   -0.9309   -3.9685 H   0  0  0  0  0  0  0  0  0  0  0  0
   -2.1441    0.0784   -0.3256 N   0  0  0  0  0  0  0  0  0  0  0  0
   -1.1131    0.0867    0.1027 N   0  0  0  0  0  0  0  0  0  0  0  0
   -6.6119   -0.2425   -2.9153 H   0  0  0  0  0  0  0  0  0  0  0  0
   -6.6500    0.6375   -0.5794 H   0  0  0  0  0  0  0  0  0  0  0  0
    0.4466    0.8286   -5.2362 N   0  0  0  0  0  0  0  0  0  0  0  0
    0.2966   -0.2737   -5.1831 N   0  0  0  0  0  0  0  0  0  0  0  0
   -0.0051   -1.6173   -5.0023 C   0  0  0  0  0  0  0  0  0  0  0  0
    0.7093   -2.6037   -5.7313 C   0  0  0  0  0  0  0  0  0  0  0  0
   -1.0275   -1.9040   -4.0850 C   0  0  0  0  0  0  0  0  0  0  0  0
    0.3579   -3.9279   -5.5079 C   0  0  0  0  0  0  0  0  0  0  0  0
   -1.3394   -3.2515   -3.8988 C   0  0  0  0  0  0  0  0  0  0  0  0
   -1.6088   -1.1510   -3.5014 H   0  0  0  0  0  0  0  0  0  0  0  0
   -0.6616   -4.2504   -4.5970 C   0  0  0  0  0  0  0  0  0  0  0  0
    0.8835   -4.7064   -6.0482 H   0  0  0  0  0  0  0  0  0  0  0  0
   -2.1284   -3.4973   -3.1945 H   0  0  0  0  0  0  0  0  0  0  0  0
   -0.9202   -5.2928   -4.4398 H   0  0  0  0  0  0  0  0  0  0  0  0
    1.7825   -2.1862   -6.6835 C   0  0  0  0  0  0  0  0  0  0  0  0
    2.0704   -1.0186   -6.8562 O   0  0  0  0  0  0  0  0  0  0  0  0
    2.3618   -3.2190   -7.2953 O   0  0  0  0  0  0  0  0  0  0  0  0
    3.0467   -2.8745   -7.8958 H   0  0  0  0  0  0  0  0  0  0  0  0
   -4.6528    0.9753    1.0858 C   0  0  0  0  0  0  0  0  0  0  0  0
   -5.6894    1.3164    1.6062 O   0  0  0  0  0  0  0  0  0  0  0  0
   -3.4511    1.0434    1.7072 O   0  0  0  0  0  0  0  0  0  0  0  0
   -3.6112    1.4039    2.5964 H   0  0  0  0  0  0  0  0  0  0  0  0
  1  6  2  0  0  0  0
  1  2  1  0  0  0  0
  2  3  2  0  0  0  0
  3  8  1  0  0  0  0
  3  4  1  0  0  0  0
  4 28  1  0  0  0  0
  5 11  1  0  0  0  0
  5  4  2  0  0  0  0
  6  5  1  0  0  0  0
  7  1  1  0  0  0  0
  8  9  1  0  0  0  0
 10  6  1  0  0  0  0
 12 13  1  0  0  0  0
 13 14  1  0  0  0  0
 14 16  2  0  0  0  0
 15 17  2  0  0  0  0
 15 14  1  0  0  0  0
 16 18  1  0  0  0  0
 16 19  1  0  0  0  0
 17 20  1  0  0  0  0
 18 22  1  0  0  0  0
 20 23  1  0  0  0  0
 20 18  2  0  0  0  0
 21 17  1  0  0  0  0
 24 15  1  0  0  0  0
 25 24  2  0  0  0  0
 26 24  1  0  0  0  0
 27 26  1  0  0  0  0
 28 29  2  0  0  0  0
 28 30  1  0  0  0  0
 30 31  1  0  0  0  0
M  RAD  5   2   2   8   2   9   3  12   3  13   2
M  END
