Coordinates from ORCA-job 1f-Schema5-R6-D+-B3LYPG-6-31G_dp-scan-d49-09-n400
 OpenBabel08231810253D

 31 31  0  0  0  0  0  0  0  0999 V2000
   -3.3974   -0.6187   -3.2722 C   0  0  0  0  0  0  0  0  0  0  0  0
   -2.4030   -0.3668   -2.3286 C   0  0  0  0  0  0  0  0  0  0  0  0
   -2.7942    0.2985   -1.1626 C   0  0  0  0  0  0  0  0  0  0  0  0
   -4.1281    0.6877   -0.8526 C   0  0  0  0  0  0  0  0  0  0  0  0
   -5.0812    0.3869   -1.8154 C   0  0  0  0  0  0  0  0  0  0  0  0
   -4.7215   -0.2527   -3.0135 C   0  0  0  0  0  0  0  0  0  0  0  0
   -3.1499   -1.1032   -4.2115 H   0  0  0  0  0  0  0  0  0  0  0  0
   -1.7491    0.5880   -0.2947 N   0  0  0  0  0  0  0  0  0  0  0  0
   -0.8418    0.7906    0.3174 N   0  0  0  0  0  0  0  0  0  0  0  0
   -5.4915   -0.4627   -3.7504 H   0  0  0  0  0  0  0  0  0  0  0  0
   -6.1092    0.6687   -1.6158 H   0  0  0  0  0  0  0  0  0  0  0  0
   -0.3493   -0.2863   -2.5979 N   0  0  0  0  0  0  0  0  0  0  0  0
    0.1224   -1.0597   -3.3399 N   0  0  0  0  0  0  0  0  0  0  0  0
   -0.2989   -2.2425   -3.9897 C   0  0  0  0  0  0  0  0  0  0  0  0
    0.0851   -2.4839   -5.3230 C   0  0  0  0  0  0  0  0  0  0  0  0
   -0.9737   -3.2031   -3.2311 C   0  0  0  0  0  0  0  0  0  0  0  0
   -0.2521   -3.7126   -5.8939 C   0  0  0  0  0  0  0  0  0  0  0  0
   -1.2944   -4.4246   -3.8248 C   0  0  0  0  0  0  0  0  0  0  0  0
   -1.2113   -3.0026   -2.1930 H   0  0  0  0  0  0  0  0  0  0  0  0
   -0.9366   -4.6778   -5.1500 C   0  0  0  0  0  0  0  0  0  0  0  0
    0.0242   -3.9035   -6.9241 H   0  0  0  0  0  0  0  0  0  0  0  0
   -1.8115   -5.1815   -3.2438 H   0  0  0  0  0  0  0  0  0  0  0  0
   -1.1838   -5.6311   -5.6049 H   0  0  0  0  0  0  0  0  0  0  0  0
    0.7703   -1.4026   -6.0880 C   0  0  0  0  0  0  0  0  0  0  0  0
    0.8673   -0.2613   -5.6837 O   0  0  0  0  0  0  0  0  0  0  0  0
    1.2531   -1.8281   -7.2656 O   0  0  0  0  0  0  0  0  0  0  0  0
    1.6702   -1.0662   -7.7036 H   0  0  0  0  0  0  0  0  0  0  0  0
   -4.5836    1.3798    0.3977 C   0  0  0  0  0  0  0  0  0  0  0  0
   -5.7326    1.6839    0.6024 O   0  0  0  0  0  0  0  0  0  0  0  0
   -3.5666    1.6112    1.2539 O   0  0  0  0  0  0  0  0  0  0  0  0
   -3.9321    2.0588    2.0375 H   0  0  0  0  0  0  0  0  0  0  0  0
  1  6  2  0  0  0  0
  1  2  1  0  0  0  0
  2  3  2  0  0  0  0
  3  4  1  0  0  0  0
  3  8  1  0  0  0  0
  4 28  1  0  0  0  0
  5 11  1  0  0  0  0
  5  4  2  0  0  0  0
  6  5  1  0  0  0  0
  7  1  1  0  0  0  0
  8  9  1  0  0  0  0
 10  6  1  0  0  0  0
 13 12  2  0  0  0  0
 14 13  1  0  0  0  0
 14 16  2  0  0  0  0
 15 14  1  0  0  0  0
 16 19  1  0  0  0  0
 17 15  2  0  0  0  0
 17 20  1  0  0  0  0
 18 22  1  0  0  0  0
 18 16  1  0  0  0  0
 20 18  2  0  0  0  0
 21 17  1  0  0  0  0
 23 20  1  0  0  0  0
 24 25  2  0  0  0  0
 24 15  1  0  0  0  0
 26 24  1  0  0  0  0
 27 26  1  0  0  0  0
 28 29  2  0  0  0  0
 28 30  1  0  0  0  0
 30 31  1  0  0  0  0
M  RAD  4   2   2   8   2   9   3  12   2
M  END
