Coordinates from ORCA-job 1f-Schema5-R6-D+-B3LYPG-6-31G_dp-scan-d49-09-n400
 OpenBabel08231810253D

 31 31  0  0  0  0  0  0  0  0999 V2000
   -4.3320   -0.4670   -3.0543 C   0  0  0  0  0  0  0  0  0  0  0  0
   -3.1114   -0.4900   -2.3346 C   0  0  0  0  0  0  0  0  0  0  0  0
   -3.2545    0.0994   -1.0650 C   0  0  0  0  0  0  0  0  0  0  0  0
   -4.4208    0.6758   -0.4722 C   0  0  0  0  0  0  0  0  0  0  0  0
   -5.5565    0.6449   -1.2625 C   0  0  0  0  0  0  0  0  0  0  0  0
   -5.5114    0.0743   -2.5491 C   0  0  0  0  0  0  0  0  0  0  0  0
   -4.3611   -0.8929   -4.0565 H   0  0  0  0  0  0  0  0  0  0  0  0
   -2.0635    0.0769   -0.3487 N   0  0  0  0  0  0  0  0  0  0  0  0
   -1.0615    0.0056    0.1375 N   0  0  0  0  0  0  0  0  0  0  0  0
   -6.4186    0.0643   -3.1479 H   0  0  0  0  0  0  0  0  0  0  0  0
   -6.4707    1.0694   -0.8633 H   0  0  0  0  0  0  0  0  0  0  0  0
   -0.5458    0.4347   -4.2211 N   0  0  0  0  0  0  0  0  0  0  0  0
   -0.2852   -0.5978   -4.5583 N   0  0  0  0  0  0  0  0  0  0  0  0
   -0.2750   -1.9887   -4.6868 C   0  0  0  0  0  0  0  0  0  0  0  0
    0.5781   -2.6234   -5.6118 C   0  0  0  0  0  0  0  0  0  0  0  0
   -1.1636   -2.6499   -3.8359 C   0  0  0  0  0  0  0  0  0  0  0  0
    0.5148   -4.0109   -5.6674 C   0  0  0  0  0  0  0  0  0  0  0  0
   -1.1972   -4.0421   -3.9254 C   0  0  0  0  0  0  0  0  0  0  0  0
   -1.7968   -2.0442   -3.1601 H   0  0  0  0  0  0  0  0  0  0  0  0
   -0.3674   -4.7119   -4.8288 C   0  0  0  0  0  0  0  0  0  0  0  0
    1.1527   -4.5413   -6.3648 H   0  0  0  0  0  0  0  0  0  0  0  0
   -1.8740   -4.6010   -3.2872 H   0  0  0  0  0  0  0  0  0  0  0  0
   -0.4022   -5.7956   -4.8882 H   0  0  0  0  0  0  0  0  0  0  0  0
    1.4759   -1.7821   -6.4564 C   0  0  0  0  0  0  0  0  0  0  0  0
    1.4875   -0.5697   -6.3638 O   0  0  0  0  0  0  0  0  0  0  0  0
    2.2314   -2.4972   -7.2891 O   0  0  0  0  0  0  0  0  0  0  0  0
    2.7867   -1.8853   -7.8042 H   0  0  0  0  0  0  0  0  0  0  0  0
   -4.5297    1.2943    0.8839 C   0  0  0  0  0  0  0  0  0  0  0  0
   -5.5507    1.7621    1.3304 O   0  0  0  0  0  0  0  0  0  0  0  0
   -3.3580    1.2763    1.5616 O   0  0  0  0  0  0  0  0  0  0  0  0
   -3.5202    1.6957    2.4243 H   0  0  0  0  0  0  0  0  0  0  0  0
  1  6  2  0  0  0  0
  1  2  1  0  0  0  0
  2  3  2  0  0  0  0
  3  4  1  0  0  0  0
  3  8  1  0  0  0  0
  4 28  1  0  0  0  0
  5 11  1  0  0  0  0
  5  4  2  0  0  0  0
  6  5  1  0  0  0  0
  7  1  1  0  0  0  0
  8  9  1  0  0  0  0
 10  6  1  0  0  0  0
 13 12  1  0  0  0  0
 14 13  1  0  0  0  0
 14 16  2  0  0  0  0
 15 14  1  0  0  0  0
 16 19  1  0  0  0  0
 17 15  2  0  0  0  0
 17 20  1  0  0  0  0
 18 16  1  0  0  0  0
 18 22  1  0  0  0  0
 20 18  2  0  0  0  0
 21 17  1  0  0  0  0
 23 20  1  0  0  0  0
 24 25  2  0  0  0  0
 24 15  1  0  0  0  0
 26 24  1  0  0  0  0
 27 26  1  0  0  0  0
 28 29  2  0  0  0  0
 28 30  1  0  0  0  0
 30 31  1  0  0  0  0
M  RAD  5   2   2   8   2   9   3  12   3  13   2
M  END
