Coordinates from ORCA-job 1f-Schema5-R6-D+-B3LYPG-6-31G_dp-scan-d49-09-n400
 OpenBabel08231810253D

 31 31  0  0  0  0  0  0  0  0999 V2000
   -4.3432   -0.3761   -3.0808 C   0  0  0  0  0  0  0  0  0  0  0  0
   -3.1728   -0.5880   -2.3056 C   0  0  0  0  0  0  0  0  0  0  0  0
   -3.3261   -0.0571   -1.0111 C   0  0  0  0  0  0  0  0  0  0  0  0
   -4.4485    0.6226   -0.4424 C   0  0  0  0  0  0  0  0  0  0  0  0
   -5.5300    0.7786   -1.2913 C   0  0  0  0  0  0  0  0  0  0  0  0
   -5.4762    0.2798   -2.6076 C   0  0  0  0  0  0  0  0  0  0  0  0
   -4.3682   -0.7465   -4.1056 H   0  0  0  0  0  0  0  0  0  0  0  0
   -2.1905   -0.2660   -0.2362 N   0  0  0  0  0  0  0  0  0  0  0  0
   -1.2335   -0.4889    0.2934 N   0  0  0  0  0  0  0  0  0  0  0  0
   -6.3407    0.4153   -3.2528 H   0  0  0  0  0  0  0  0  0  0  0  0
   -6.4096    1.2880   -0.9141 H   0  0  0  0  0  0  0  0  0  0  0  0
   -0.5714    0.5860   -4.7798 N   0  0  0  0  0  0  0  0  0  0  0  0
   -0.3618   -0.5035   -4.8773 N   0  0  0  0  0  0  0  0  0  0  0  0
   -0.2828   -1.8913   -4.8025 C   0  0  0  0  0  0  0  0  0  0  0  0
    0.5852   -2.6093   -5.6584 C   0  0  0  0  0  0  0  0  0  0  0  0
   -1.1151   -2.4727   -3.8384 C   0  0  0  0  0  0  0  0  0  0  0  0
    0.5981   -3.9903   -5.5157 C   0  0  0  0  0  0  0  0  0  0  0  0
   -1.0669   -3.8642   -3.7355 C   0  0  0  0  0  0  0  0  0  0  0  0
   -1.7813   -1.8293   -3.2088 H   0  0  0  0  0  0  0  0  0  0  0  0
   -0.2232   -4.6118   -4.5594 C   0  0  0  0  0  0  0  0  0  0  0  0
    1.2489   -4.5789   -6.1517 H   0  0  0  0  0  0  0  0  0  0  0  0
   -1.6974   -4.3608   -3.0047 H   0  0  0  0  0  0  0  0  0  0  0  0
   -0.1972   -5.6934   -4.4647 H   0  0  0  0  0  0  0  0  0  0  0  0
    1.4186   -1.8601   -6.6442 C   0  0  0  0  0  0  0  0  0  0  0  0
    1.3726   -0.6483   -6.7288 O   0  0  0  0  0  0  0  0  0  0  0  0
    2.1862   -2.6555   -7.3885 O   0  0  0  0  0  0  0  0  0  0  0  0
    2.6968   -2.1015   -8.0053 H   0  0  0  0  0  0  0  0  0  0  0  0
   -4.5646    1.1670    0.9439 C   0  0  0  0  0  0  0  0  0  0  0  0
   -5.5456    1.7331    1.3663 O   0  0  0  0  0  0  0  0  0  0  0  0
   -3.4483    0.9604    1.6820 O   0  0  0  0  0  0  0  0  0  0  0  0
   -3.6123    1.3455    2.5601 H   0  0  0  0  0  0  0  0  0  0  0  0
  1  6  2  0  0  0  0
  1  2  1  0  0  0  0
  2  3  2  0  0  0  0
  3  4  1  0  0  0  0
  3  8  1  0  0  0  0
  4 28  1  0  0  0  0
  5 11  1  0  0  0  0
  5  4  2  0  0  0  0
  6  5  1  0  0  0  0
  7  1  1  0  0  0  0
  8  9  1  0  0  0  0
 10  6  1  0  0  0  0
 13 14  1  0  0  0  0
 13 12  1  0  0  0  0
 14 16  2  0  0  0  0
 15 17  2  0  0  0  0
 15 14  1  0  0  0  0
 16 18  1  0  0  0  0
 16 19  1  0  0  0  0
 17 20  1  0  0  0  0
 18 22  1  0  0  0  0
 20 23  1  0  0  0  0
 20 18  2  0  0  0  0
 21 17  1  0  0  0  0
 24 15  1  0  0  0  0
 25 24  2  0  0  0  0
 26 24  1  0  0  0  0
 27 26  1  0  0  0  0
 28 29  2  0  0  0  0
 28 30  1  0  0  0  0
 30 31  1  0  0  0  0
M  RAD  5   2   2   8   2   9   3  12   3  13   2
M  END
