Coordinates from ORCA-job 1f-Schema5-R6-D+-B3LYPG-6-31G_dp-scan-d49-09-n400
 OpenBabel08231810253D

 31 32  0  0  0  0  0  0  0  0999 V2000
   -2.7770   -0.0530   -3.6526 C   0  0  0  0  0  0  0  0  0  0  0  0
   -1.9841   -0.1081   -2.5108 C   0  0  0  0  0  0  0  0  0  0  0  0
   -2.5592    0.2201   -1.2685 C   0  0  0  0  0  0  0  0  0  0  0  0
   -3.9436    0.5130   -1.1123 C   0  0  0  0  0  0  0  0  0  0  0  0
   -4.7111    0.4988   -2.2681 C   0  0  0  0  0  0  0  0  0  0  0  0
   -4.1361    0.2318   -3.5230 C   0  0  0  0  0  0  0  0  0  0  0  0
   -2.3146   -0.2061   -4.6230 H   0  0  0  0  0  0  0  0  0  0  0  0
   -1.6832    0.2601   -0.2084 N   0  0  0  0  0  0  0  0  0  0  0  0
   -0.9062    0.3103    0.5890 N   0  0  0  0  0  0  0  0  0  0  0  0
   -4.7637    0.2591   -4.4083 H   0  0  0  0  0  0  0  0  0  0  0  0
   -5.7682    0.7219   -2.1721 H   0  0  0  0  0  0  0  0  0  0  0  0
   -0.3549   -0.0815   -2.5993 N   0  0  0  0  0  0  0  0  0  0  0  0
    0.2149   -0.9129   -3.2948 N   0  0  0  0  0  0  0  0  0  0  0  0
   -0.3522   -2.1230   -3.7879 C   0  0  0  0  0  0  0  0  0  0  0  0
   -0.2555   -2.4523   -5.1560 C   0  0  0  0  0  0  0  0  0  0  0  0
   -0.7885   -3.0749   -2.8594 C   0  0  0  0  0  0  0  0  0  0  0  0
   -0.6031   -3.7392   -5.5716 C   0  0  0  0  0  0  0  0  0  0  0  0
   -1.1343   -4.3564   -3.2951 C   0  0  0  0  0  0  0  0  0  0  0  0
   -0.7915   -2.8339   -1.8015 H   0  0  0  0  0  0  0  0  0  0  0  0
   -1.0397   -4.6908   -4.6458 C   0  0  0  0  0  0  0  0  0  0  0  0
   -0.5429   -3.9832   -6.6265 H   0  0  0  0  0  0  0  0  0  0  0  0
   -1.4612   -5.0959   -2.5712 H   0  0  0  0  0  0  0  0  0  0  0  0
   -1.3029   -5.6884   -4.9802 H   0  0  0  0  0  0  0  0  0  0  0  0
    0.0813   -1.3692   -6.1158 C   0  0  0  0  0  0  0  0  0  0  0  0
   -0.0768   -0.1885   -5.8544 O   0  0  0  0  0  0  0  0  0  0  0  0
    0.5393   -1.8190   -7.2915 O   0  0  0  0  0  0  0  0  0  0  0  0
    0.7037   -1.0460   -7.8591 H   0  0  0  0  0  0  0  0  0  0  0  0
   -4.6288    0.8382    0.1843 C   0  0  0  0  0  0  0  0  0  0  0  0
   -5.8074    1.0773    0.2595 O   0  0  0  0  0  0  0  0  0  0  0  0
   -3.7756    0.8253    1.2275 O   0  0  0  0  0  0  0  0  0  0  0  0
   -4.2780    1.0491    2.0313 H   0  0  0  0  0  0  0  0  0  0  0  0
  1  6  2  0  0  0  0
  1  2  1  0  0  0  0
  2  3  2  0  0  0  0
  3  4  1  0  0  0  0
  3  8  1  0  0  0  0
  4 28  1  0  0  0  0
  5 11  1  0  0  0  0
  5  4  2  0  0  0  0
  6  5  1  0  0  0  0
  7  1  1  0  0  0  0
  8  9  1  0  0  0  0
 10  6  1  0  0  0  0
 12  2  1  0  0  0  0
 13 12  1  0  0  0  0
 14 13  1  0  0  0  0
 14 16  2  0  0  0  0
 15 14  1  0  0  0  0
 16 19  1  0  0  0  0
 17 15  2  0  0  0  0
 17 20  1  0  0  0  0
 18 16  1  0  0  0  0
 18 22  1  0  0  0  0
 20 18  2  0  0  0  0
 21 17  1  0  0  0  0
 23 20  1  0  0  0  0
 24 25  2  0  0  0  0
 24 15  1  0  0  0  0
 26 24  1  0  0  0  0
 27 26  1  0  0  0  0
 28 29  2  0  0  0  0
 28 30  1  0  0  0  0
 30 31  1  0  0  0  0
M  RAD  4   8   2   9   3  12   2  13   2
M  END
