Coordinates from ORCA-job 1f-Schema5-R6-D+-B3LYPG-6-31G_dp-scan-d49-09-n400
 OpenBabel08231810253D

 31 31  0  0  0  0  0  0  0  0999 V2000
   -3.7661   -0.7195   -3.0538 C   0  0  0  0  0  0  0  0  0  0  0  0
   -2.6631   -0.3961   -2.2525 C   0  0  0  0  0  0  0  0  0  0  0  0
   -2.9622    0.3526   -1.1101 C   0  0  0  0  0  0  0  0  0  0  0  0
   -4.2572    0.7744   -0.6894 C   0  0  0  0  0  0  0  0  0  0  0  0
   -5.3020    0.4022   -1.5211 C   0  0  0  0  0  0  0  0  0  0  0  0
   -5.0595   -0.3343   -2.6941 C   0  0  0  0  0  0  0  0  0  0  0  0
   -3.6242   -1.2812   -3.9735 H   0  0  0  0  0  0  0  0  0  0  0  0
   -1.8350    0.6959   -0.3704 N   0  0  0  0  0  0  0  0  0  0  0  0
   -0.8676    0.9251    0.1319 N   0  0  0  0  0  0  0  0  0  0  0  0
   -5.8999   -0.6036   -3.3279 H   0  0  0  0  0  0  0  0  0  0  0  0
   -6.3062    0.7007   -1.2416 H   0  0  0  0  0  0  0  0  0  0  0  0
   -0.3293   -0.2879   -2.7737 N   0  0  0  0  0  0  0  0  0  0  0  0
    0.0419   -1.0754   -3.5193 N   0  0  0  0  0  0  0  0  0  0  0  0
   -0.2654   -2.2800   -4.1747 C   0  0  0  0  0  0  0  0  0  0  0  0
    0.2973   -2.5556   -5.4351 C   0  0  0  0  0  0  0  0  0  0  0  0
   -1.0647   -3.1971   -3.4866 C   0  0  0  0  0  0  0  0  0  0  0  0
    0.0171   -3.7940   -6.0127 C   0  0  0  0  0  0  0  0  0  0  0  0
   -1.3249   -4.4274   -4.0890 C   0  0  0  0  0  0  0  0  0  0  0  0
   -1.4569   -2.9403   -2.5096 H   0  0  0  0  0  0  0  0  0  0  0  0
   -0.7860   -4.7233   -5.3432 C   0  0  0  0  0  0  0  0  0  0  0  0
    0.4293   -4.0227   -6.9881 H   0  0  0  0  0  0  0  0  0  0  0  0
   -1.9401   -5.1565   -3.5720 H   0  0  0  0  0  0  0  0  0  0  0  0
   -0.9876   -5.6849   -5.8034 H   0  0  0  0  0  0  0  0  0  0  0  0
    1.1189   -1.5095   -6.1138 C   0  0  0  0  0  0  0  0  0  0  0  0
    1.2416   -0.3816   -5.6806 O   0  0  0  0  0  0  0  0  0  0  0  0
    1.6940   -1.9559   -7.2378 O   0  0  0  0  0  0  0  0  0  0  0  0
    2.2012   -1.2208   -7.6241 H   0  0  0  0  0  0  0  0  0  0  0  0
   -4.5830    1.5633    0.5412 C   0  0  0  0  0  0  0  0  0  0  0  0
   -5.7042    1.8928    0.8430 O   0  0  0  0  0  0  0  0  0  0  0  0
   -3.4838    1.8578    1.2691 O   0  0  0  0  0  0  0  0  0  0  0  0
   -3.7735    2.3653    2.0474 H   0  0  0  0  0  0  0  0  0  0  0  0
  1  6  2  0  0  0  0
  1  2  1  0  0  0  0
  2  3  2  0  0  0  0
  3  4  1  0  0  0  0
  3  8  1  0  0  0  0
  4 28  1  0  0  0  0
  5 11  1  0  0  0  0
  5  4  2  0  0  0  0
  6  5  1  0  0  0  0
  7  1  1  0  0  0  0
  8  9  1  0  0  0  0
 10  6  1  0  0  0  0
 13 12  2  0  0  0  0
 14 13  1  0  0  0  0
 14 16  2  0  0  0  0
 15 14  1  0  0  0  0
 16 19  1  0  0  0  0
 17 15  2  0  0  0  0
 17 20  1  0  0  0  0
 18 22  1  0  0  0  0
 18 16  1  0  0  0  0
 20 18  2  0  0  0  0
 21 17  1  0  0  0  0
 23 20  1  0  0  0  0
 24 25  2  0  0  0  0
 24 15  1  0  0  0  0
 26 24  1  0  0  0  0
 27 26  1  0  0  0  0
 28 29  2  0  0  0  0
 28 30  1  0  0  0  0
 30 31  1  0  0  0  0
M  RAD  4   2   2   8   2   9   3  12   2
M  END
