Coordinates from ORCA-job 1f-Schema5-R6-D+-B3LYPG-6-31G_dp-scan-d49-09-n400
 OpenBabel08231810253D

 31 31  0  0  0  0  0  0  0  0999 V2000
   -4.3186   -0.4902   -3.0328 C   0  0  0  0  0  0  0  0  0  0  0  0
   -3.0841   -0.4011   -2.3483 C   0  0  0  0  0  0  0  0  0  0  0  0
   -3.2248    0.2067   -1.0885 C   0  0  0  0  0  0  0  0  0  0  0  0
   -4.4143    0.7042   -0.4715 C   0  0  0  0  0  0  0  0  0  0  0  0
   -5.5687    0.5631   -1.2223 C   0  0  0  0  0  0  0  0  0  0  0  0
   -5.5203   -0.0322   -2.4971 C   0  0  0  0  0  0  0  0  0  0  0  0
   -4.3432   -0.9352   -4.0262 H   0  0  0  0  0  0  0  0  0  0  0  0
   -2.0121    0.3023   -0.4173 N   0  0  0  0  0  0  0  0  0  0  0  0
   -0.9921    0.3310    0.0339 N   0  0  0  0  0  0  0  0  0  0  0  0
   -6.4425   -0.1275   -3.0646 H   0  0  0  0  0  0  0  0  0  0  0  0
   -6.5003    0.9247   -0.8019 H   0  0  0  0  0  0  0  0  0  0  0  0
   -0.5243    0.3255   -3.9688 N   0  0  0  0  0  0  0  0  0  0  0  0
   -0.2307   -0.6614   -4.4122 N   0  0  0  0  0  0  0  0  0  0  0  0
   -0.2687   -2.0417   -4.6393 C   0  0  0  0  0  0  0  0  0  0  0  0
    0.5786   -2.6362   -5.5931 C   0  0  0  0  0  0  0  0  0  0  0  0
   -1.1886   -2.7384   -3.8539 C   0  0  0  0  0  0  0  0  0  0  0  0
    0.4751   -4.0147   -5.7516 C   0  0  0  0  0  0  0  0  0  0  0  0
   -1.2645   -4.1182   -4.0423 C   0  0  0  0  0  0  0  0  0  0  0  0
   -1.8120   -2.1726   -3.1496 H   0  0  0  0  0  0  0  0  0  0  0  0
   -0.4402   -4.7469   -4.9803 C   0  0  0  0  0  0  0  0  0  0  0  0
    1.1083   -4.5121   -6.4769 H   0  0  0  0  0  0  0  0  0  0  0  0
   -1.9678   -4.7001   -3.4555 H   0  0  0  0  0  0  0  0  0  0  0  0
   -0.5067   -5.8218   -5.1183 H   0  0  0  0  0  0  0  0  0  0  0  0
    1.5173   -1.7685   -6.3652 C   0  0  0  0  0  0  0  0  0  0  0  0
    1.5663   -0.5656   -6.1971 O   0  0  0  0  0  0  0  0  0  0  0  0
    2.2681   -2.4538   -7.2282 O   0  0  0  0  0  0  0  0  0  0  0  0
    2.8512   -1.8273   -7.6924 H   0  0  0  0  0  0  0  0  0  0  0  0
   -4.5286    1.3483    0.8727 C   0  0  0  0  0  0  0  0  0  0  0  0
   -5.5684    1.7501    1.3390 O   0  0  0  0  0  0  0  0  0  0  0  0
   -3.3395    1.4319    1.5133 O   0  0  0  0  0  0  0  0  0  0  0  0
   -3.5050    1.8605    2.3710 H   0  0  0  0  0  0  0  0  0  0  0  0
  1  6  2  0  0  0  0
  1  2  1  0  0  0  0
  2  3  2  0  0  0  0
  3  4  1  0  0  0  0
  3  8  1  0  0  0  0
  4 28  1  0  0  0  0
  5 11  1  0  0  0  0
  5  4  2  0  0  0  0
  6  5  1  0  0  0  0
  7  1  1  0  0  0  0
  8  9  1  0  0  0  0
 10  6  1  0  0  0  0
 13 12  1  0  0  0  0
 14 13  1  0  0  0  0
 14 16  2  0  0  0  0
 15 14  1  0  0  0  0
 16 19  1  0  0  0  0
 17 15  2  0  0  0  0
 17 20  1  0  0  0  0
 18 16  1  0  0  0  0
 18 22  1  0  0  0  0
 20 18  2  0  0  0  0
 21 17  1  0  0  0  0
 23 20  1  0  0  0  0
 24 25  2  0  0  0  0
 24 15  1  0  0  0  0
 26 24  1  0  0  0  0
 27 26  1  0  0  0  0
 28 29  2  0  0  0  0
 28 30  1  0  0  0  0
 30 31  1  0  0  0  0
M  RAD  5   2   2   8   2   9   3  12   3  13   2
M  END
