Coordinates from ORCA-job 1f-Schema5-R6-D+-B3LYPG-6-31G_dp-scan-d49-09-n400
 OpenBabel08231810253D

 31 31  0  0  0  0  0  0  0  0999 V2000
   -4.2424   -0.5247   -3.0153 C   0  0  0  0  0  0  0  0  0  0  0  0
   -3.0191   -0.3363   -2.3376 C   0  0  0  0  0  0  0  0  0  0  0  0
   -3.1822    0.2985   -1.0957 C   0  0  0  0  0  0  0  0  0  0  0  0
   -4.3983    0.7328   -0.4844 C   0  0  0  0  0  0  0  0  0  0  0  0
   -5.5459    0.4923   -1.2207 C   0  0  0  0  0  0  0  0  0  0  0  0
   -5.4681   -0.1327   -2.4793 C   0  0  0  0  0  0  0  0  0  0  0  0
   -4.2419   -0.9935   -3.9977 H   0  0  0  0  0  0  0  0  0  0  0  0
   -1.9717    0.5019   -0.4448 N   0  0  0  0  0  0  0  0  0  0  0  0
   -0.9514    0.6215   -0.0106 N   0  0  0  0  0  0  0  0  0  0  0  0
   -6.3858   -0.3041   -3.0358 H   0  0  0  0  0  0  0  0  0  0  0  0
   -6.4966    0.8027   -0.8019 H   0  0  0  0  0  0  0  0  0  0  0  0
   -0.4885    0.1922   -3.6846 N   0  0  0  0  0  0  0  0  0  0  0  0
   -0.1766   -0.7460   -4.2230 N   0  0  0  0  0  0  0  0  0  0  0  0
   -0.2673   -2.1015   -4.5636 C   0  0  0  0  0  0  0  0  0  0  0  0
    0.5518   -2.6398   -5.5728 C   0  0  0  0  0  0  0  0  0  0  0  0
   -1.1954   -2.8430   -3.8296 C   0  0  0  0  0  0  0  0  0  0  0  0
    0.4090   -3.9982   -5.8446 C   0  0  0  0  0  0  0  0  0  0  0  0
   -1.3125   -4.1995   -4.1290 C   0  0  0  0  0  0  0  0  0  0  0  0
   -1.7961   -2.3317   -3.0753 H   0  0  0  0  0  0  0  0  0  0  0  0
   -0.5155   -4.7692   -5.1265 C   0  0  0  0  0  0  0  0  0  0  0  0
    1.0204   -4.4484   -6.6177 H   0  0  0  0  0  0  0  0  0  0  0  0
   -2.0241   -4.8093   -3.5822 H   0  0  0  0  0  0  0  0  0  0  0  0
   -0.6116   -5.8265   -5.3518 H   0  0  0  0  0  0  0  0  0  0  0  0
    1.5067   -1.7427   -6.2915 C   0  0  0  0  0  0  0  0  0  0  0  0
    1.5901   -0.5552   -6.0484 O   0  0  0  0  0  0  0  0  0  0  0  0
    2.2374   -2.3901   -7.2020 O   0  0  0  0  0  0  0  0  0  0  0  0
    2.8328   -1.7478   -7.6272 H   0  0  0  0  0  0  0  0  0  0  0  0
   -4.5457    1.4077    0.8420 C   0  0  0  0  0  0  0  0  0  0  0  0
   -5.6068    1.7545    1.3035 O   0  0  0  0  0  0  0  0  0  0  0  0
   -3.3602    1.5879    1.4680 O   0  0  0  0  0  0  0  0  0  0  0  0
   -3.5452    2.0307    2.3145 H   0  0  0  0  0  0  0  0  0  0  0  0
  1  6  2  0  0  0  0
  1  2  1  0  0  0  0
  2  3  2  0  0  0  0
  3  4  1  0  0  0  0
  3  8  1  0  0  0  0
  4 28  1  0  0  0  0
  5 11  1  0  0  0  0
  5  4  2  0  0  0  0
  6  5  1  0  0  0  0
  7  1  1  0  0  0  0
  8  9  1  0  0  0  0
 10  6  1  0  0  0  0
 13 12  2  0  0  0  0
 14 13  1  0  0  0  0
 14 16  2  0  0  0  0
 15 14  1  0  0  0  0
 16 19  1  0  0  0  0
 17 15  2  0  0  0  0
 17 20  1  0  0  0  0
 18 16  1  0  0  0  0
 18 22  1  0  0  0  0
 20 18  2  0  0  0  0
 21 17  1  0  0  0  0
 23 20  1  0  0  0  0
 24 25  2  0  0  0  0
 24 15  1  0  0  0  0
 26 24  1  0  0  0  0
 27 26  1  0  0  0  0
 28 29  2  0  0  0  0
 28 30  1  0  0  0  0
 30 31  1  0  0  0  0
M  RAD  4   2   2   8   2   9   3  12   2
M  END
