Coordinates from ORCA-job 1f-Schema5-R6-D+-B3LYPG-6-31G_dp-scan-d49-09-n400
 OpenBabel08231810253D

 31 32  0  0  0  0  0  0  0  0999 V2000
   -2.7583   -0.0409   -3.6584 C   0  0  0  0  0  0  0  0  0  0  0  0
   -1.9594   -0.0919   -2.5166 C   0  0  0  0  0  0  0  0  0  0  0  0
   -2.5410    0.2284   -1.2702 C   0  0  0  0  0  0  0  0  0  0  0  0
   -3.9288    0.5060   -1.1161 C   0  0  0  0  0  0  0  0  0  0  0  0
   -4.6960    0.4890   -2.2714 C   0  0  0  0  0  0  0  0  0  0  0  0
   -4.1177    0.2327   -3.5274 C   0  0  0  0  0  0  0  0  0  0  0  0
   -2.2929   -0.1858   -4.6286 H   0  0  0  0  0  0  0  0  0  0  0  0
   -1.6678    0.2765   -0.2113 N   0  0  0  0  0  0  0  0  0  0  0  0
   -0.8932    0.3366    0.5885 N   0  0  0  0  0  0  0  0  0  0  0  0
   -4.7450    0.2577   -4.4129 H   0  0  0  0  0  0  0  0  0  0  0  0
   -5.7551    0.7019   -2.1746 H   0  0  0  0  0  0  0  0  0  0  0  0
   -0.4098   -0.0812   -2.5960 N   0  0  0  0  0  0  0  0  0  0  0  0
    0.1839   -0.9016   -3.2985 N   0  0  0  0  0  0  0  0  0  0  0  0
   -0.3803   -2.1153   -3.7877 C   0  0  0  0  0  0  0  0  0  0  0  0
   -0.2667   -2.4526   -5.1532 C   0  0  0  0  0  0  0  0  0  0  0  0
   -0.8200   -3.0674   -2.8599 C   0  0  0  0  0  0  0  0  0  0  0  0
   -0.5993   -3.7438   -5.5666 C   0  0  0  0  0  0  0  0  0  0  0  0
   -1.1496   -4.3539   -3.2926 C   0  0  0  0  0  0  0  0  0  0  0  0
   -0.8357   -2.8225   -1.8028 H   0  0  0  0  0  0  0  0  0  0  0  0
   -1.0376   -4.6946   -4.6405 C   0  0  0  0  0  0  0  0  0  0  0  0
   -0.5269   -3.9922   -6.6197 H   0  0  0  0  0  0  0  0  0  0  0  0
   -1.4780   -5.0927   -2.5685 H   0  0  0  0  0  0  0  0  0  0  0  0
   -1.2892   -5.6960   -4.9725 H   0  0  0  0  0  0  0  0  0  0  0  0
    0.0702   -1.3697   -6.1123 C   0  0  0  0  0  0  0  0  0  0  0  0
   -0.0959   -0.1893   -5.8527 O   0  0  0  0  0  0  0  0  0  0  0  0
    0.5408   -1.8171   -7.2837 O   0  0  0  0  0  0  0  0  0  0  0  0
    0.7058   -1.0435   -7.8503 H   0  0  0  0  0  0  0  0  0  0  0  0
   -4.6184    0.8200    0.1810 C   0  0  0  0  0  0  0  0  0  0  0  0
   -5.7995    1.0470    0.2553 O   0  0  0  0  0  0  0  0  0  0  0  0
   -3.7670    0.8115    1.2255 O   0  0  0  0  0  0  0  0  0  0  0  0
   -4.2728    1.0274    2.0293 H   0  0  0  0  0  0  0  0  0  0  0  0
  1  6  2  0  0  0  0
  1  2  1  0  0  0  0
  2  3  2  0  0  0  0
  3  4  1  0  0  0  0
  3  8  1  0  0  0  0
  4 28  1  0  0  0  0
  5 11  1  0  0  0  0
  5  4  2  0  0  0  0
  6  5  1  0  0  0  0
  7  1  1  0  0  0  0
  8  9  1  0  0  0  0
 10  6  1  0  0  0  0
 12  2  1  0  0  0  0
 13 12  1  0  0  0  0
 14 13  1  0  0  0  0
 14 16  2  0  0  0  0
 15 14  1  0  0  0  0
 16 19  1  0  0  0  0
 17 15  2  0  0  0  0
 17 20  1  0  0  0  0
 18 16  1  0  0  0  0
 18 22  1  0  0  0  0
 20 18  2  0  0  0  0
 21 17  1  0  0  0  0
 23 20  1  0  0  0  0
 24 25  2  0  0  0  0
 24 15  1  0  0  0  0
 26 24  1  0  0  0  0
 27 26  1  0  0  0  0
 28 29  2  0  0  0  0
 28 30  1  0  0  0  0
 30 31  1  0  0  0  0
M  RAD  4   8   2   9   3  12   2  13   2
M  END
