Coordinates from ORCA-job 1f-Schema5-R6-D+-B3LYPG-6-31G_dp-scan-d49-09-n400
 OpenBabel08231810253D

 31 31  0  0  0  0  0  0  0  0999 V2000
   -3.4980   -0.6639   -3.2065 C   0  0  0  0  0  0  0  0  0  0  0  0
   -2.4732   -0.3868   -2.3006 C   0  0  0  0  0  0  0  0  0  0  0  0
   -2.8382    0.3126   -1.1464 C   0  0  0  0  0  0  0  0  0  0  0  0
   -4.1617    0.7178   -0.8111 C   0  0  0  0  0  0  0  0  0  0  0  0
   -5.1408    0.3923   -1.7386 C   0  0  0  0  0  0  0  0  0  0  0  0
   -4.8139   -0.2856   -2.9252 C   0  0  0  0  0  0  0  0  0  0  0  0
   -3.2805   -1.1788   -4.1374 H   0  0  0  0  0  0  0  0  0  0  0  0
   -1.7697    0.6211   -0.3129 N   0  0  0  0  0  0  0  0  0  0  0  0
   -0.8442    0.8326    0.2685 N   0  0  0  0  0  0  0  0  0  0  0  0
   -5.6037   -0.5159   -3.6347 H   0  0  0  0  0  0  0  0  0  0  0  0
   -6.1624    0.6840   -1.5213 H   0  0  0  0  0  0  0  0  0  0  0  0
   -0.3456   -0.3081   -2.6217 N   0  0  0  0  0  0  0  0  0  0  0  0
    0.1011   -1.0794   -3.3697 N   0  0  0  0  0  0  0  0  0  0  0  0
   -0.2905   -2.2630   -4.0320 C   0  0  0  0  0  0  0  0  0  0  0  0
    0.1396   -2.5009   -5.3515 C   0  0  0  0  0  0  0  0  0  0  0  0
   -0.9954   -3.2199   -3.2969 C   0  0  0  0  0  0  0  0  0  0  0  0
   -0.1817   -3.7275   -5.9352 C   0  0  0  0  0  0  0  0  0  0  0  0
   -1.2996   -4.4388   -3.9040 C   0  0  0  0  0  0  0  0  0  0  0  0
   -1.2727   -3.0152   -2.2697 H   0  0  0  0  0  0  0  0  0  0  0  0
   -0.8954   -4.6908   -5.2162 C   0  0  0  0  0  0  0  0  0  0  0  0
    0.1295   -3.9187   -6.9552 H   0  0  0  0  0  0  0  0  0  0  0  0
   -1.8408   -5.1943   -3.3437 H   0  0  0  0  0  0  0  0  0  0  0  0
   -1.1300   -5.6426   -5.6810 H   0  0  0  0  0  0  0  0  0  0  0  0
    0.8585   -1.4213   -6.0886 C   0  0  0  0  0  0  0  0  0  0  0  0
    0.9618   -0.2861   -5.6692 O   0  0  0  0  0  0  0  0  0  0  0  0
    1.3673   -1.8433   -7.2557 O   0  0  0  0  0  0  0  0  0  0  0  0
    1.8073   -1.0843   -7.6760 H   0  0  0  0  0  0  0  0  0  0  0  0
   -4.5808    1.4485    0.4292 C   0  0  0  0  0  0  0  0  0  0  0  0
   -5.7220    1.7673    0.6552 O   0  0  0  0  0  0  0  0  0  0  0  0
   -3.5406    1.6997    1.2518 O   0  0  0  0  0  0  0  0  0  0  0  0
   -3.8847    2.1720    2.0305 H   0  0  0  0  0  0  0  0  0  0  0  0
  1  6  2  0  0  0  0
  1  2  1  0  0  0  0
  2  3  2  0  0  0  0
  3  4  1  0  0  0  0
  3  8  1  0  0  0  0
  4 28  1  0  0  0  0
  5 11  1  0  0  0  0
  5  4  2  0  0  0  0
  6  5  1  0  0  0  0
  7  1  1  0  0  0  0
  8  9  1  0  0  0  0
 10  6  1  0  0  0  0
 13 12  2  0  0  0  0
 14 13  1  0  0  0  0
 14 16  2  0  0  0  0
 15 14  1  0  0  0  0
 16 19  1  0  0  0  0
 17 15  2  0  0  0  0
 17 20  1  0  0  0  0
 18 22  1  0  0  0  0
 18 16  1  0  0  0  0
 20 18  2  0  0  0  0
 21 17  1  0  0  0  0
 23 20  1  0  0  0  0
 24 25  2  0  0  0  0
 24 15  1  0  0  0  0
 26 24  1  0  0  0  0
 27 26  1  0  0  0  0
 28 29  2  0  0  0  0
 28 30  1  0  0  0  0
 30 31  1  0  0  0  0
M  RAD  4   2   2   8   2   9   3  12   2
M  END
