Coordinates from ORCA-job 1f-Schema5-R6-D+-B3LYPG-6-31G_dp-scan-d49-09-n400
 OpenBabel08231810253D

 31 31  0  0  0  0  0  0  0  0999 V2000
   -4.1663   -0.5789   -3.0006 C   0  0  0  0  0  0  0  0  0  0  0  0
   -2.9602   -0.3335   -2.3141 C   0  0  0  0  0  0  0  0  0  0  0  0
   -3.1487    0.3353   -1.0952 C   0  0  0  0  0  0  0  0  0  0  0  0
   -4.3830    0.7510   -0.5094 C   0  0  0  0  0  0  0  0  0  0  0  0
   -5.5157    0.4535   -1.2485 C   0  0  0  0  0  0  0  0  0  0  0  0
   -5.4079   -0.2060   -2.4869 C   0  0  0  0  0  0  0  0  0  0  0  0
   -4.1405   -1.0763   -3.9682 H   0  0  0  0  0  0  0  0  0  0  0  0
   -1.9494    0.5997   -0.4450 N   0  0  0  0  0  0  0  0  0  0  0  0
   -0.9359    0.7694   -0.0118 N   0  0  0  0  0  0  0  0  0  0  0  0
   -6.3147   -0.4207   -3.0460 H   0  0  0  0  0  0  0  0  0  0  0  0
   -6.4792    0.7477   -0.8476 H   0  0  0  0  0  0  0  0  0  0  0  0
   -0.4204    0.0835   -3.4536 N   0  0  0  0  0  0  0  0  0  0  0  0
   -0.1106   -0.8196   -4.0558 N   0  0  0  0  0  0  0  0  0  0  0  0
   -0.2545   -2.1448   -4.4867 C   0  0  0  0  0  0  0  0  0  0  0  0
    0.5201   -2.6328   -5.5550 C   0  0  0  0  0  0  0  0  0  0  0  0
   -1.1757   -2.9185   -3.7769 C   0  0  0  0  0  0  0  0  0  0  0  0
    0.3376   -3.9664   -5.9139 C   0  0  0  0  0  0  0  0  0  0  0  0
   -1.3339   -4.2484   -4.1629 C   0  0  0  0  0  0  0  0  0  0  0  0
   -1.7433   -2.4538   -2.9722 H   0  0  0  0  0  0  0  0  0  0  0  0
   -0.5811   -4.7658   -5.2210 C   0  0  0  0  0  0  0  0  0  0  0  0
    0.9140   -4.3743   -6.7357 H   0  0  0  0  0  0  0  0  0  0  0  0
   -2.0418   -4.8788   -3.6351 H   0  0  0  0  0  0  0  0  0  0  0  0
   -0.7075   -5.8032   -5.5131 H   0  0  0  0  0  0  0  0  0  0  0  0
    1.4708   -1.7113   -6.2485 C   0  0  0  0  0  0  0  0  0  0  0  0
    1.5783   -0.5390   -5.9489 O   0  0  0  0  0  0  0  0  0  0  0  0
    2.1702   -2.3209   -7.2094 O   0  0  0  0  0  0  0  0  0  0  0  0
    2.7632   -1.6644   -7.6155 H   0  0  0  0  0  0  0  0  0  0  0  0
   -4.5631    1.4610    0.7948 C   0  0  0  0  0  0  0  0  0  0  0  0
   -5.6387    1.7879    1.2364 O   0  0  0  0  0  0  0  0  0  0  0  0
   -3.3893    1.6951    1.4242 O   0  0  0  0  0  0  0  0  0  0  0  0
   -3.5937    2.1561    2.2564 H   0  0  0  0  0  0  0  0  0  0  0  0
  1  6  2  0  0  0  0
  1  2  1  0  0  0  0
  2  3  2  0  0  0  0
  3  4  1  0  0  0  0
  3  8  1  0  0  0  0
  4 28  1  0  0  0  0
  5 11  1  0  0  0  0
  5  4  2  0  0  0  0
  6  5  1  0  0  0  0
  7  1  1  0  0  0  0
  8  9  1  0  0  0  0
 10  6  1  0  0  0  0
 13 12  2  0  0  0  0
 14 13  1  0  0  0  0
 14 16  2  0  0  0  0
 15 14  1  0  0  0  0
 16 19  1  0  0  0  0
 17 15  2  0  0  0  0
 17 20  1  0  0  0  0
 18 16  1  0  0  0  0
 18 22  1  0  0  0  0
 20 18  2  0  0  0  0
 21 17  1  0  0  0  0
 23 20  1  0  0  0  0
 24 25  2  0  0  0  0
 24 15  1  0  0  0  0
 26 24  1  0  0  0  0
 27 26  1  0  0  0  0
 28 29  2  0  0  0  0
 28 30  1  0  0  0  0
 30 31  1  0  0  0  0
M  RAD  4   2   2   8   2   9   3  12   2
M  END
