Coordinates from ORCA-job p-CH3O-Ph-N2+-B3LYPG-aug-cc-pVDZ-scan-d09-49-n400
 OpenBabel09291715233D

 17 16  0  0  0  0  0  0  0  0999 V2000
   -2.3047   -0.2031    0.2657 C   0  0  0  0  0  0  0  0  0  0  0  0
   -0.9412   -0.2810   -0.1640 C   0  0  0  0  0  0  0  0  0  0  0  0
   -0.4859    0.9642   -0.0785 C   0  0  0  0  0  0  0  0  0  0  0  0
   -0.7563    2.2321    0.2424 C   0  0  0  0  0  0  0  0  0  0  0  0
   -2.1156    2.2138    0.6537 C   0  0  0  0  0  0  0  0  0  0  0  0
   -2.8816    1.0219    0.6681 C   0  0  0  0  0  0  0  0  0  0  0  0
   -2.8555   -1.1424    0.2583 H   0  0  0  0  0  0  0  0  0  0  0  0
   -0.4489   -1.1972   -0.4812 H   0  0  0  0  0  0  0  0  0  0  0  0
   -0.1314    3.1218    0.2148 H   0  0  0  0  0  0  0  0  0  0  0  0
   -2.5597    3.1622    0.9610 H   0  0  0  0  0  0  0  0  0  0  0  0
    4.0229    0.8701   -1.4700 N   0  0  0  0  0  0  0  0  0  0  0  0
    5.0778    0.8499   -1.7955 N   0  0  0  0  0  0  0  0  0  0  0  0
   -4.1431    1.1642    1.0794 O   0  0  0  0  0  0  0  0  0  0  0  0
   -5.0061    0.0085    1.1331 C   0  0  0  0  0  0  0  0  0  0  0  0
   -5.9651    0.3848    1.4952 H   0  0  0  0  0  0  0  0  0  0  0  0
   -4.6061   -0.7338    1.8373 H   0  0  0  0  0  0  0  0  0  0  0  0
   -5.1288   -0.4226    0.1300 H   0  0  0  0  0  0  0  0  0  0  0  0
  1  6  2  0  0  0  0
  2  3  2  0  0  0  0
  2  1  1  0  0  0  0
  3  4  1  0  0  0  0
  4  5  2  0  0  0  0
  5  6  1  0  0  0  0
  5 10  1  0  0  0  0
  6 13  1  0  0  0  0
  7  1  1  0  0  0  0
  8  2  1  0  0  0  0
  9  4  1  0  0  0  0
 12 11  3  0  0  0  0
 13 14  1  0  0  0  0
 14 15  1  0  0  0  0
 14 16  1  0  0  0  0
 17 14  1  0  0  0  0
M  RAD  1   3   2
M  END
