Coordinates from ORCA-job p-CH3O-Ph-N2+-B3LYPG-aug-cc-pVDZ-scan-d09-49-n400
 OpenBabel09291715233D

 17 16  0  0  0  0  0  0  0  0999 V2000
   -2.2804   -0.2036    0.2590 C   0  0  0  0  0  0  0  0  0  0  0  0
   -0.9173   -0.2823   -0.1716 C   0  0  0  0  0  0  0  0  0  0  0  0
   -0.4604    0.9622   -0.0845 C   0  0  0  0  0  0  0  0  0  0  0  0
   -0.7308    2.2309    0.2335 C   0  0  0  0  0  0  0  0  0  0  0  0
   -2.0898    2.2135    0.6454 C   0  0  0  0  0  0  0  0  0  0  0  0
   -2.8565    1.0221    0.6606 C   0  0  0  0  0  0  0  0  0  0  0  0
   -2.8314   -1.1427    0.2535 H   0  0  0  0  0  0  0  0  0  0  0  0
   -0.4257   -1.1987   -0.4895 H   0  0  0  0  0  0  0  0  0  0  0  0
   -0.1052    3.1200    0.2055 H   0  0  0  0  0  0  0  0  0  0  0  0
   -2.5329    3.1620    0.9539 H   0  0  0  0  0  0  0  0  0  0  0  0
    3.8369    0.8703   -1.4134 N   0  0  0  0  0  0  0  0  0  0  0  0
    4.8917    0.8492   -1.7392 N   0  0  0  0  0  0  0  0  0  0  0  0
   -4.1179    1.1653    1.0723 O   0  0  0  0  0  0  0  0  0  0  0  0
   -4.9819    0.0105    1.1254 C   0  0  0  0  0  0  0  0  0  0  0  0
   -5.9406    0.3874    1.4876 H   0  0  0  0  0  0  0  0  0  0  0  0
   -4.5826   -0.7326    1.8293 H   0  0  0  0  0  0  0  0  0  0  0  0
   -5.1049   -0.4202    0.1221 H   0  0  0  0  0  0  0  0  0  0  0  0
  1  6  2  0  0  0  0
  2  3  2  0  0  0  0
  2  1  1  0  0  0  0
  3  4  1  0  0  0  0
  4  5  2  0  0  0  0
  5  6  1  0  0  0  0
  5 10  1  0  0  0  0
  6 13  1  0  0  0  0
  7  1  1  0  0  0  0
  8  2  1  0  0  0  0
  9  4  1  0  0  0  0
 12 11  3  0  0  0  0
 13 14  1  0  0  0  0
 14 15  1  0  0  0  0
 14 16  1  0  0  0  0
 17 14  1  0  0  0  0
M  RAD  1   3   2
M  END
