Coordinates from ORCA-job p-CH3O-Ph-N2+-B3LYPG-aug-cc-pVDZ-scan-d09-49-n400
 OpenBabel09291715233D

 17 16  0  0  0  0  0  0  0  0999 V2000
   -2.2350   -0.2042    0.2454 C   0  0  0  0  0  0  0  0  0  0  0  0
   -0.8720   -0.2840   -0.1858 C   0  0  0  0  0  0  0  0  0  0  0  0
   -0.4157    0.9594   -0.0974 C   0  0  0  0  0  0  0  0  0  0  0  0
   -0.6826    2.2282    0.2177 C   0  0  0  0  0  0  0  0  0  0  0  0
   -2.0415    2.2133    0.6304 C   0  0  0  0  0  0  0  0  0  0  0  0
   -2.8096    1.0225    0.6465 C   0  0  0  0  0  0  0  0  0  0  0  0
   -2.7868   -1.1429    0.2415 H   0  0  0  0  0  0  0  0  0  0  0  0
   -0.3804   -1.2001   -0.5042 H   0  0  0  0  0  0  0  0  0  0  0  0
   -0.0546    3.1156    0.1886 H   0  0  0  0  0  0  0  0  0  0  0  0
   -2.4831    3.1623    0.9394 H   0  0  0  0  0  0  0  0  0  0  0  0
    3.4882    0.8701   -1.3070 N   0  0  0  0  0  0  0  0  0  0  0  0
    4.5427    0.8470   -1.6333 N   0  0  0  0  0  0  0  0  0  0  0  0
   -4.0708    1.1675    1.0586 O   0  0  0  0  0  0  0  0  0  0  0  0
   -4.9362    0.0137    1.1116 C   0  0  0  0  0  0  0  0  0  0  0  0
   -5.8944    0.3917    1.4739 H   0  0  0  0  0  0  0  0  0  0  0  0
   -4.5379   -0.7300    1.8154 H   0  0  0  0  0  0  0  0  0  0  0  0
   -5.0598   -0.4168    0.1083 H   0  0  0  0  0  0  0  0  0  0  0  0
  1  6  2  0  0  0  0
  2  3  2  0  0  0  0
  2  1  1  0  0  0  0
  3  4  1  0  0  0  0
  4  5  2  0  0  0  0
  5  6  1  0  0  0  0
  5 10  1  0  0  0  0
  6 13  1  0  0  0  0
  7  1  1  0  0  0  0
  8  2  1  0  0  0  0
  9  4  1  0  0  0  0
 12 11  3  0  0  0  0
 13 14  1  0  0  0  0
 14 15  1  0  0  0  0
 14 16  1  0  0  0  0
 17 14  1  0  0  0  0
M  RAD  1   3   2
M  END
