Coordinates from ORCA-job p-CH3O-Ph-N2+-B3LYPG-aug-cc-pVDZ-scan-d09-49-n400
 OpenBabel09291715233D

 17 17  0  0  0  0  0  0  0  0999 V2000
   -1.9941   -0.2121    0.1705 C   0  0  0  0  0  0  0  0  0  0  0  0
   -0.6611   -0.2763   -0.2488 C   0  0  0  0  0  0  0  0  0  0  0  0
   -0.0208    0.9378   -0.2217 C   0  0  0  0  0  0  0  0  0  0  0  0
   -0.4565    2.1946    0.1423 C   0  0  0  0  0  0  0  0  0  0  0  0
   -1.7855    2.2101    0.5514 C   0  0  0  0  0  0  0  0  0  0  0  0
   -2.5600    1.0218    0.5700 C   0  0  0  0  0  0  0  0  0  0  0  0
   -2.5742   -1.1309    0.1791 H   0  0  0  0  0  0  0  0  0  0  0  0
   -0.1945   -1.2066   -0.5623 H   0  0  0  0  0  0  0  0  0  0  0  0
    0.1600    3.0895    0.1181 H   0  0  0  0  0  0  0  0  0  0  0  0
   -2.2471    3.1454    0.8643 H   0  0  0  0  0  0  0  0  0  0  0  0
    1.6794    0.8770   -0.7527 N   0  0  0  0  0  0  0  0  0  0  0  0
    2.7336    0.8443   -1.0810 N   0  0  0  0  0  0  0  0  0  0  0  0
   -3.8175    1.1737    0.9824 O   0  0  0  0  0  0  0  0  0  0  0  0
   -4.6992    0.0328    1.0425 C   0  0  0  0  0  0  0  0  0  0  0  0
   -5.6503    0.4277    1.4057 H   0  0  0  0  0  0  0  0  0  0  0  0
   -4.3103   -0.7141    1.7473 H   0  0  0  0  0  0  0  0  0  0  0  0
   -4.8315   -0.4011    0.0424 H   0  0  0  0  0  0  0  0  0  0  0  0
  1  7  1  0  0  0  0
  1  6  2  0  0  0  0
  2  3  2  0  0  0  0
  2  1  1  0  0  0  0
  3  4  1  0  0  0  0
  4  5  2  0  0  0  0
  5  6  1  0  0  0  0
  5 10  1  0  0  0  0
  6 13  1  0  0  0  0
  8  2  1  0  0  0  0
  9  4  1  0  0  0  0
 11  3  1  0  0  0  0
 12 11  1  0  0  0  0
 13 14  1  0  0  0  0
 14 15  1  0  0  0  0
 14 16  1  0  0  0  0
 17 14  1  0  0  0  0
M  RAD  2  11   2  12   3
M  END
