Coordinates from ORCA-job p-CH3O-Ph-N2+-B3LYPG-aug-cc-pVDZ-scan-d09-49-n400
 OpenBabel09291715233D

 17 16  0  0  0  0  0  0  0  0999 V2000
   -2.1419   -0.2052    0.2169 C   0  0  0  0  0  0  0  0  0  0  0  0
   -0.7799   -0.2879   -0.2147 C   0  0  0  0  0  0  0  0  0  0  0  0
   -0.3171    0.9535   -0.1283 C   0  0  0  0  0  0  0  0  0  0  0  0
   -0.5839    2.2228    0.1864 C   0  0  0  0  0  0  0  0  0  0  0  0
   -1.9421    2.2124    0.5997 C   0  0  0  0  0  0  0  0  0  0  0  0
   -2.7130    1.0234    0.6171 C   0  0  0  0  0  0  0  0  0  0  0  0
   -2.6969   -1.1418    0.2146 H   0  0  0  0  0  0  0  0  0  0  0  0
   -0.2900   -1.2047   -0.5328 H   0  0  0  0  0  0  0  0  0  0  0  0
    0.0468    3.1076    0.1560 H   0  0  0  0  0  0  0  0  0  0  0  0
   -2.3821    3.1620    0.9086 H   0  0  0  0  0  0  0  0  0  0  0  0
    2.7720    0.8700   -1.0881 N   0  0  0  0  0  0  0  0  0  0  0  0
    3.8258    0.8426   -1.4151 N   0  0  0  0  0  0  0  0  0  0  0  0
   -3.9740    1.1719    1.0299 O   0  0  0  0  0  0  0  0  0  0  0  0
   -4.8419    0.0205    1.0839 C   0  0  0  0  0  0  0  0  0  0  0  0
   -5.7992    0.4008    1.4464 H   0  0  0  0  0  0  0  0  0  0  0  0
   -4.4452   -0.7240    1.7879 H   0  0  0  0  0  0  0  0  0  0  0  0
   -4.9670   -0.4106    0.0811 H   0  0  0  0  0  0  0  0  0  0  0  0
  1  6  2  0  0  0  0
  2  3  2  0  0  0  0
  2  1  1  0  0  0  0
  3  4  1  0  0  0  0
  4  5  2  0  0  0  0
  5  6  1  0  0  0  0
  5 10  1  0  0  0  0
  6 13  1  0  0  0  0
  7  1  1  0  0  0  0
  8  2  1  0  0  0  0
  9  4  1  0  0  0  0
 12 11  3  0  0  0  0
 13 14  1  0  0  0  0
 14 15  1  0  0  0  0
 14 16  1  0  0  0  0
 17 14  1  0  0  0  0
M  RAD  1   3   2
M  END
