Coordinates from ORCA-job p-CH3O-Ph-N2+-B3LYPG-aug-cc-pVDZ-scan-d09-49-n400
 OpenBabel09291715233D

 17 16  0  0  0  0  0  0  0  0999 V2000
   -2.1084   -0.2055    0.2066 C   0  0  0  0  0  0  0  0  0  0  0  0
   -0.7480   -0.2889   -0.2246 C   0  0  0  0  0  0  0  0  0  0  0  0
   -0.2753    0.9510   -0.1415 C   0  0  0  0  0  0  0  0  0  0  0  0
   -0.5496    2.2200    0.1754 C   0  0  0  0  0  0  0  0  0  0  0  0
   -1.9062    2.2116    0.5886 C   0  0  0  0  0  0  0  0  0  0  0  0
   -2.6782    1.0236    0.6065 C   0  0  0  0  0  0  0  0  0  0  0  0
   -2.6654   -1.1409    0.2052 H   0  0  0  0  0  0  0  0  0  0  0  0
   -0.2606   -1.2069   -0.5422 H   0  0  0  0  0  0  0  0  0  0  0  0
    0.0805    3.1051    0.1453 H   0  0  0  0  0  0  0  0  0  0  0  0
   -2.3465    3.1610    0.8976 H   0  0  0  0  0  0  0  0  0  0  0  0
    2.5167    0.8706   -1.0099 N   0  0  0  0  0  0  0  0  0  0  0  0
    3.5702    0.8416   -1.3372 N   0  0  0  0  0  0  0  0  0  0  0  0
   -3.9392    1.1734    1.0196 O   0  0  0  0  0  0  0  0  0  0  0  0
   -4.8082    0.0231    1.0740 C   0  0  0  0  0  0  0  0  0  0  0  0
   -5.7650    0.4045    1.4366 H   0  0  0  0  0  0  0  0  0  0  0  0
   -4.4123   -0.7217    1.7781 H   0  0  0  0  0  0  0  0  0  0  0  0
   -4.9340   -0.4084    0.0715 H   0  0  0  0  0  0  0  0  0  0  0  0
  1  6  2  0  0  0  0
  2  3  2  0  0  0  0
  2  1  1  0  0  0  0
  3  4  1  0  0  0  0
  4  5  2  0  0  0  0
  5  6  1  0  0  0  0
  5 10  1  0  0  0  0
  6 13  1  0  0  0  0
  7  1  1  0  0  0  0
  8  2  1  0  0  0  0
  9  4  1  0  0  0  0
 12 11  3  0  0  0  0
 13 14  1  0  0  0  0
 14 15  1  0  0  0  0
 14 16  1  0  0  0  0
 17 14  1  0  0  0  0
M  RAD  1   3   2
M  END
