Coordinates from ORCA-job p-CH3O-Ph-N2+-B3LYPG-aug-cc-pVDZ-scan-d09-49-n400
 OpenBabel09291715233D

 17 17  0  0  0  0  0  0  0  0999 V2000
   -1.9758   -0.2156    0.1642 C   0  0  0  0  0  0  0  0  0  0  0  0
   -0.6516   -0.2709   -0.2507 C   0  0  0  0  0  0  0  0  0  0  0  0
    0.0441    0.9349   -0.2421 C   0  0  0  0  0  0  0  0  0  0  0  0
   -0.4475    2.1872    0.1382 C   0  0  0  0  0  0  0  0  0  0  0  0
   -1.7672    2.2108    0.5460 C   0  0  0  0  0  0  0  0  0  0  0  0
   -2.5432    1.0206    0.5647 C   0  0  0  0  0  0  0  0  0  0  0  0
   -2.5600   -1.1314    0.1747 H   0  0  0  0  0  0  0  0  0  0  0  0
   -0.1903   -1.2053   -0.5634 H   0  0  0  0  0  0  0  0  0  0  0  0
    0.1648    3.0860    0.1160 H   0  0  0  0  0  0  0  0  0  0  0  0
   -2.2337    3.1430    0.8598 H   0  0  0  0  0  0  0  0  0  0  0  0
    1.5530    0.8798   -0.7135 N   0  0  0  0  0  0  0  0  0  0  0  0
    2.6119    0.8465   -1.0434 N   0  0  0  0  0  0  0  0  0  0  0  0
   -3.7963    1.1711    0.9754 O   0  0  0  0  0  0  0  0  0  0  0  0
   -4.6858    0.0334    1.0385 C   0  0  0  0  0  0  0  0  0  0  0  0
   -5.6333    0.4361    1.4021 H   0  0  0  0  0  0  0  0  0  0  0  0
   -4.2987   -0.7129    1.7443 H   0  0  0  0  0  0  0  0  0  0  0  0
   -4.8200   -0.3999    0.0389 H   0  0  0  0  0  0  0  0  0  0  0  0
  1  7  1  0  0  0  0
  1  6  2  0  0  0  0
  2  3  2  0  0  0  0
  2  1  1  0  0  0  0
  3  4  1  0  0  0  0
  4  5  2  0  0  0  0
  5  6  1  0  0  0  0
  5 10  1  0  0  0  0
  6 13  1  0  0  0  0
  8  2  1  0  0  0  0
  9  4  1  0  0  0  0
 11  3  1  0  0  0  0
 12 11  1  0  0  0  0
 13 14  1  0  0  0  0
 14 15  1  0  0  0  0
 14 16  1  0  0  0  0
 17 14  1  0  0  0  0
M  RAD  2  11   2  12   3
M  END
