Coordinates from ORCA-job p-CH3O-Ph-N2+-B3LYPG-aug-cc-pVDZ-scan-d09-49-n400
 OpenBabel09291715233D

 17 17  0  0  0  0  0  0  0  0999 V2000
   -1.9441   -0.2204    0.1537 C   0  0  0  0  0  0  0  0  0  0  0  0
   -0.6340   -0.2670   -0.2554 C   0  0  0  0  0  0  0  0  0  0  0  0
    0.1560    0.9292   -0.2773 C   0  0  0  0  0  0  0  0  0  0  0  0
   -0.4299    2.1786    0.1313 C   0  0  0  0  0  0  0  0  0  0  0  0
   -1.7356    2.2106    0.5363 C   0  0  0  0  0  0  0  0  0  0  0  0
   -2.5171    1.0187    0.5564 C   0  0  0  0  0  0  0  0  0  0  0  0
   -2.5289   -1.1362    0.1643 H   0  0  0  0  0  0  0  0  0  0  0  0
   -0.1781   -1.2064   -0.5673 H   0  0  0  0  0  0  0  0  0  0  0  0
    0.1791    3.0818    0.1109 H   0  0  0  0  0  0  0  0  0  0  0  0
   -2.2025    3.1427    0.8502 H   0  0  0  0  0  0  0  0  0  0  0  0
    1.3206    0.8870   -0.6411 N   0  0  0  0  0  0  0  0  0  0  0  0
    2.3973    0.8525   -0.9768 N   0  0  0  0  0  0  0  0  0  0  0  0
   -3.7598    1.1663    0.9634 O   0  0  0  0  0  0  0  0  0  0  0  0
   -4.6649    0.0333    1.0321 C   0  0  0  0  0  0  0  0  0  0  0  0
   -5.6054    0.4509    1.3963 H   0  0  0  0  0  0  0  0  0  0  0  0
   -4.2801   -0.7108    1.7401 H   0  0  0  0  0  0  0  0  0  0  0  0
   -4.8020   -0.3974    0.0328 H   0  0  0  0  0  0  0  0  0  0  0  0
  1  7  1  0  0  0  0
  1  6  2  0  0  0  0
  2  1  1  0  0  0  0
  3  2  2  0  0  0  0
  3  4  1  0  0  0  0
  4  5  2  0  0  0  0
  5  6  1  0  0  0  0
  5 10  1  0  0  0  0
  6 13  1  0  0  0  0
  8  2  1  0  0  0  0
  9  4  1  0  0  0  0
 11  3  1  0  0  0  0
 12 11  1  0  0  0  0
 13 14  1  0  0  0  0
 14 15  1  0  0  0  0
 14 16  1  0  0  0  0
 17 14  1  0  0  0  0
M  RAD  2  11   2  12   3
M  END
