Coordinates from ORCA-job p-CH3O-Ph-N2+-B3LYPG-aug-cc-pVDZ-scan-d09-49-n400
 OpenBabel09291715233D

 17 16  0  0  0  0  0  0  0  0999 V2000
   -2.1990   -0.2044    0.2345 C   0  0  0  0  0  0  0  0  0  0  0  0
   -0.8366   -0.2861   -0.1970 C   0  0  0  0  0  0  0  0  0  0  0  0
   -0.3754    0.9570   -0.1099 C   0  0  0  0  0  0  0  0  0  0  0  0
   -0.6446    2.2266    0.2057 C   0  0  0  0  0  0  0  0  0  0  0  0
   -2.0032    2.2127    0.6185 C   0  0  0  0  0  0  0  0  0  0  0  0
   -2.7722    1.0228    0.6351 C   0  0  0  0  0  0  0  0  0  0  0  0
   -2.7520   -1.1423    0.2313 H   0  0  0  0  0  0  0  0  0  0  0  0
   -0.3469   -1.2032   -0.5151 H   0  0  0  0  0  0  0  0  0  0  0  0
   -0.0167    3.1139    0.1766 H   0  0  0  0  0  0  0  0  0  0  0  0
   -2.4442    3.1619    0.9275 H   0  0  0  0  0  0  0  0  0  0  0  0
    3.2122    0.8701   -1.2226 N   0  0  0  0  0  0  0  0  0  0  0  0
    4.2664    0.8455   -1.5492 N   0  0  0  0  0  0  0  0  0  0  0  0
   -4.0333    1.1691    1.0475 O   0  0  0  0  0  0  0  0  0  0  0  0
   -4.8999    0.0164    1.1009 C   0  0  0  0  0  0  0  0  0  0  0  0
   -5.8577    0.3955    1.4633 H   0  0  0  0  0  0  0  0  0  0  0  0
   -4.5023   -0.7276    1.8048 H   0  0  0  0  0  0  0  0  0  0  0  0
   -5.0241   -0.4143    0.0978 H   0  0  0  0  0  0  0  0  0  0  0  0
  1  6  2  0  0  0  0
  2  3  2  0  0  0  0
  2  1  1  0  0  0  0
  3  4  1  0  0  0  0
  4  5  2  0  0  0  0
  5  6  1  0  0  0  0
  5 10  1  0  0  0  0
  6 13  1  0  0  0  0
  7  1  1  0  0  0  0
  8  2  1  0  0  0  0
  9  4  1  0  0  0  0
 12 11  3  0  0  0  0
 13 14  1  0  0  0  0
 14 15  1  0  0  0  0
 14 16  1  0  0  0  0
 17 14  1  0  0  0  0
M  RAD  1   3   2
M  END
