Coordinates from ORCA-job p-CH3O-Ph-N2+-B3LYPG-aug-cc-pVDZ-scan-d09-49-n400
 OpenBabel09291715233D

 17 16  0  0  0  0  0  0  0  0999 V2000
   -2.1880   -0.2045    0.2311 C   0  0  0  0  0  0  0  0  0  0  0  0
   -0.8257   -0.2865   -0.2004 C   0  0  0  0  0  0  0  0  0  0  0  0
   -0.3638    0.9564   -0.1136 C   0  0  0  0  0  0  0  0  0  0  0  0
   -0.6331    2.2260    0.2020 C   0  0  0  0  0  0  0  0  0  0  0  0
   -1.9915    2.2126    0.6149 C   0  0  0  0  0  0  0  0  0  0  0  0
   -2.7609    1.0229    0.6317 C   0  0  0  0  0  0  0  0  0  0  0  0
   -2.7414   -1.1422    0.2281 H   0  0  0  0  0  0  0  0  0  0  0  0
   -0.3362   -1.2037   -0.5185 H   0  0  0  0  0  0  0  0  0  0  0  0
   -0.0049    3.1130    0.1728 H   0  0  0  0  0  0  0  0  0  0  0  0
   -2.4323    3.1619    0.9239 H   0  0  0  0  0  0  0  0  0  0  0  0
    3.1279    0.8700   -1.1969 N   0  0  0  0  0  0  0  0  0  0  0  0
    4.1820    0.8448   -1.5235 N   0  0  0  0  0  0  0  0  0  0  0  0
   -4.0219    1.1696    1.0442 O   0  0  0  0  0  0  0  0  0  0  0  0
   -4.8888    0.0171    1.0976 C   0  0  0  0  0  0  0  0  0  0  0  0
   -5.8464    0.3965    1.4601 H   0  0  0  0  0  0  0  0  0  0  0  0
   -4.4913   -0.7269    1.8016 H   0  0  0  0  0  0  0  0  0  0  0  0
   -5.0132   -0.4136    0.0946 H   0  0  0  0  0  0  0  0  0  0  0  0
  1  6  2  0  0  0  0
  2  3  2  0  0  0  0
  2  1  1  0  0  0  0
  3  4  1  0  0  0  0
  4  5  2  0  0  0  0
  5  6  1  0  0  0  0
  5 10  1  0  0  0  0
  6 13  1  0  0  0  0
  7  1  1  0  0  0  0
  8  2  1  0  0  0  0
  9  4  1  0  0  0  0
 12 11  3  0  0  0  0
 13 14  1  0  0  0  0
 14 15  1  0  0  0  0
 14 16  1  0  0  0  0
 17 14  1  0  0  0  0
M  RAD  1   3   2
M  END
