Coordinates from ORCA-job p-CH3O-Ph-N2+-B3LYPG-aug-cc-pVDZ-scan-d09-49-n400
 OpenBabel09291715233D

 17 17  0  0  0  0  0  0  0  0999 V2000
   -1.9409   -0.2208    0.1526 C   0  0  0  0  0  0  0  0  0  0  0  0
   -0.6322   -0.2673   -0.2560 C   0  0  0  0  0  0  0  0  0  0  0  0
    0.1685    0.9285   -0.2813 C   0  0  0  0  0  0  0  0  0  0  0  0
   -0.4281    2.1783    0.1306 C   0  0  0  0  0  0  0  0  0  0  0  0
   -1.7323    2.2105    0.5353 C   0  0  0  0  0  0  0  0  0  0  0  0
   -2.5146    1.0185    0.5555 C   0  0  0  0  0  0  0  0  0  0  0  0
   -2.5254   -1.1368    0.1631 H   0  0  0  0  0  0  0  0  0  0  0  0
   -0.1760   -1.2066   -0.5679 H   0  0  0  0  0  0  0  0  0  0  0  0
    0.1814    3.0814    0.1101 H   0  0  0  0  0  0  0  0  0  0  0  0
   -2.1990    3.1429    0.8491 H   0  0  0  0  0  0  0  0  0  0  0  0
    1.2948    0.8879   -0.6330 N   0  0  0  0  0  0  0  0  0  0  0  0
    2.3744    0.8532   -0.9697 N   0  0  0  0  0  0  0  0  0  0  0  0
   -3.7561    1.1658    0.9622 O   0  0  0  0  0  0  0  0  0  0  0  0
   -4.6629    0.0333    1.0315 C   0  0  0  0  0  0  0  0  0  0  0  0
   -5.6026    0.4524    1.3957 H   0  0  0  0  0  0  0  0  0  0  0  0
   -4.2783   -0.7105    1.7397 H   0  0  0  0  0  0  0  0  0  0  0  0
   -4.8002   -0.3971    0.0321 H   0  0  0  0  0  0  0  0  0  0  0  0
  1  7  1  0  0  0  0
  1  6  2  0  0  0  0
  2  1  1  0  0  0  0
  3  2  2  0  0  0  0
  3  4  1  0  0  0  0
  4  5  2  0  0  0  0
  5  6  1  0  0  0  0
  5 10  1  0  0  0  0
  6 13  1  0  0  0  0
  8  2  1  0  0  0  0
  9  4  1  0  0  0  0
 11  3  1  0  0  0  0
 12 11  1  0  0  0  0
 13 14  1  0  0  0  0
 14 15  1  0  0  0  0
 14 16  1  0  0  0  0
 17 14  1  0  0  0  0
M  RAD  2  11   2  12   3
M  END
