Coordinates from ORCA-job p-CH3O-Ph-N2+-B3LYPG-aug-cc-pVDZ-scan-d09-49-n400
 OpenBabel09291715233D

 17 16  0  0  0  0  0  0  0  0999 V2000
   -2.2394   -0.2042    0.2468 C   0  0  0  0  0  0  0  0  0  0  0  0
   -0.8764   -0.2838   -0.1844 C   0  0  0  0  0  0  0  0  0  0  0  0
   -0.4203    0.9596   -0.0960 C   0  0  0  0  0  0  0  0  0  0  0  0
   -0.6872    2.2284    0.2192 C   0  0  0  0  0  0  0  0  0  0  0  0
   -2.0462    2.2134    0.6318 C   0  0  0  0  0  0  0  0  0  0  0  0
   -2.8142    1.0225    0.6479 C   0  0  0  0  0  0  0  0  0  0  0  0
   -2.7911   -1.1429    0.2427 H   0  0  0  0  0  0  0  0  0  0  0  0
   -0.3847   -1.1999   -0.5028 H   0  0  0  0  0  0  0  0  0  0  0  0
   -0.0594    3.1159    0.1902 H   0  0  0  0  0  0  0  0  0  0  0  0
   -2.4879    3.1623    0.9408 H   0  0  0  0  0  0  0  0  0  0  0  0
    3.5220    0.8702   -1.3173 N   0  0  0  0  0  0  0  0  0  0  0  0
    4.5765    0.8473   -1.6435 N   0  0  0  0  0  0  0  0  0  0  0  0
   -4.0754    1.1673    1.0600 O   0  0  0  0  0  0  0  0  0  0  0  0
   -4.9406    0.0134    1.1129 C   0  0  0  0  0  0  0  0  0  0  0  0
   -5.8989    0.3913    1.4752 H   0  0  0  0  0  0  0  0  0  0  0  0
   -4.5422   -0.7302    1.8167 H   0  0  0  0  0  0  0  0  0  0  0  0
   -5.0642   -0.4171    0.1096 H   0  0  0  0  0  0  0  0  0  0  0  0
  1  6  2  0  0  0  0
  2  3  2  0  0  0  0
  2  1  1  0  0  0  0
  3  4  1  0  0  0  0
  4  5  2  0  0  0  0
  5  6  1  0  0  0  0
  5 10  1  0  0  0  0
  6 13  1  0  0  0  0
  7  1  1  0  0  0  0
  8  2  1  0  0  0  0
  9  4  1  0  0  0  0
 12 11  3  0  0  0  0
 13 14  1  0  0  0  0
 14 15  1  0  0  0  0
 14 16  1  0  0  0  0
 17 14  1  0  0  0  0
M  RAD  1   3   2
M  END
