Coordinates from ORCA-job p-CH3O-Ph-N2+-B3LYPG-aug-cc-pVDZ-scan-d09-49-n400
 OpenBabel09291715233D

 17 16  0  0  0  0  0  0  0  0999 V2000
   -2.0342   -0.2077    0.1836 C   0  0  0  0  0  0  0  0  0  0  0  0
   -0.6856   -0.2856   -0.2430 C   0  0  0  0  0  0  0  0  0  0  0  0
   -0.1407    0.9434   -0.1840 C   0  0  0  0  0  0  0  0  0  0  0  0
   -0.4817    2.2080    0.1525 C   0  0  0  0  0  0  0  0  0  0  0  0
   -1.8268    2.2096    0.5640 C   0  0  0  0  0  0  0  0  0  0  0  0
   -2.6005    1.0232    0.5827 C   0  0  0  0  0  0  0  0  0  0  0  0
   -2.6019   -1.1355    0.1868 H   0  0  0  0  0  0  0  0  0  0  0  0
   -0.2097   -1.2098   -0.5582 H   0  0  0  0  0  0  0  0  0  0  0  0
    0.1415    3.0972    0.1252 H   0  0  0  0  0  0  0  0  0  0  0  0
   -2.2750    3.1537    0.8744 H   0  0  0  0  0  0  0  0  0  0  0  0
    1.9616    0.8737   -0.8396 N   0  0  0  0  0  0  0  0  0  0  0  0
    3.0143    0.8423   -1.1672 N   0  0  0  0  0  0  0  0  0  0  0  0
   -3.8613    1.1757    0.9961 O   0  0  0  0  0  0  0  0  0  0  0  0
   -4.7346    0.0296    1.0527 C   0  0  0  0  0  0  0  0  0  0  0  0
   -5.6895    0.4157    1.4155 H   0  0  0  0  0  0  0  0  0  0  0  0
   -4.3420   -0.7166    1.7569 H   0  0  0  0  0  0  0  0  0  0  0  0
   -4.8634   -0.4035    0.0514 H   0  0  0  0  0  0  0  0  0  0  0  0
  1  7  1  0  0  0  0
  1  6  2  0  0  0  0
  2  3  2  0  0  0  0
  2  1  1  0  0  0  0
  3  4  1  0  0  0  0
  4  5  2  0  0  0  0
  5  6  1  0  0  0  0
  5 10  1  0  0  0  0
  6 13  1  0  0  0  0
  8  2  1  0  0  0  0
  9  4  1  0  0  0  0
 12 11  3  0  0  0  0
 13 14  1  0  0  0  0
 14 15  1  0  0  0  0
 14 16  1  0  0  0  0
 17 14  1  0  0  0  0
M  RAD  1   3   2
M  END
