Coordinates from ORCA-job p-CH3O-Ph-N2+-B3LYPG-aug-cc-pVDZ-scan-d09-49-n400
 OpenBabel09291715233D

 17 17  0  0  0  0  0  0  0  0999 V2000
   -1.9233   -0.2241    0.1463 C   0  0  0  0  0  0  0  0  0  0  0  0
   -0.6245   -0.2744   -0.2603 C   0  0  0  0  0  0  0  0  0  0  0  0
    0.2499    0.9246   -0.3102 C   0  0  0  0  0  0  0  0  0  0  0  0
   -0.4195    2.1831    0.1284 C   0  0  0  0  0  0  0  0  0  0  0  0
   -1.7151    2.2105    0.5297 C   0  0  0  0  0  0  0  0  0  0  0  0
   -2.5011    1.0170    0.5504 C   0  0  0  0  0  0  0  0  0  0  0  0
   -2.5077   -1.1412    0.1575 H   0  0  0  0  0  0  0  0  0  0  0  0
   -0.1559   -1.2083   -0.5741 H   0  0  0  0  0  0  0  0  0  0  0  0
    0.2027    3.0785    0.1035 H   0  0  0  0  0  0  0  0  0  0  0  0
   -2.1816    3.1435    0.8446 H   0  0  0  0  0  0  0  0  0  0  0  0
    1.1383    0.8936   -0.5839 N   0  0  0  0  0  0  0  0  0  0  0  0
    2.2456    0.8581   -0.9267 N   0  0  0  0  0  0  0  0  0  0  0  0
   -3.7358    1.1626    0.9550 O   0  0  0  0  0  0  0  0  0  0  0  0
   -4.6528    0.0330    1.0286 C   0  0  0  0  0  0  0  0  0  0  0  0
   -5.5876    0.4616    1.3939 H   0  0  0  0  0  0  0  0  0  0  0  0
   -4.2686   -0.7093    1.7379 H   0  0  0  0  0  0  0  0  0  0  0  0
   -4.7924   -0.3953    0.0291 H   0  0  0  0  0  0  0  0  0  0  0  0
  1  7  1  0  0  0  0
  1  6  2  0  0  0  0
  2  1  1  0  0  0  0
  3  2  2  0  0  0  0
  3  4  1  0  0  0  0
  4  5  2  0  0  0  0
  5  6  1  0  0  0  0
  5 10  1  0  0  0  0
  6 13  1  0  0  0  0
  8  2  1  0  0  0  0
  9  4  1  0  0  0  0
 11  3  1  0  0  0  0
 12 11  1  0  0  0  0
 13 14  1  0  0  0  0
 14 15  1  0  0  0  0
 14 16  1  0  0  0  0
 17 14  1  0  0  0  0
M  RAD  2  11   2  12   3
M  END
