Coordinates from ORCA-job p-CH3O-Ph-N2+-B3LYPG-aug-cc-pVDZ-scan-d09-49-n400
 OpenBabel09291715233D

 17 16  0  0  0  0  0  0  0  0999 V2000
   -2.1484   -0.2051    0.2189 C   0  0  0  0  0  0  0  0  0  0  0  0
   -0.7862   -0.2877   -0.2127 C   0  0  0  0  0  0  0  0  0  0  0  0
   -0.3245    0.9540   -0.1259 C   0  0  0  0  0  0  0  0  0  0  0  0
   -0.5908    2.2232    0.1886 C   0  0  0  0  0  0  0  0  0  0  0  0
   -1.9490    2.2125    0.6019 C   0  0  0  0  0  0  0  0  0  0  0  0
   -2.7198    1.0234    0.6192 C   0  0  0  0  0  0  0  0  0  0  0  0
   -2.7032   -1.1419    0.2165 H   0  0  0  0  0  0  0  0  0  0  0  0
   -0.2961   -1.2043   -0.5309 H   0  0  0  0  0  0  0  0  0  0  0  0
    0.0399    3.1082    0.1582 H   0  0  0  0  0  0  0  0  0  0  0  0
   -2.3892    3.1621    0.9108 H   0  0  0  0  0  0  0  0  0  0  0  0
    2.8221    0.8699   -1.1034 N   0  0  0  0  0  0  0  0  0  0  0  0
    3.8759    0.8429   -1.4303 N   0  0  0  0  0  0  0  0  0  0  0  0
   -3.9808    1.1716    1.0320 O   0  0  0  0  0  0  0  0  0  0  0  0
   -4.8485    0.0200    1.0858 C   0  0  0  0  0  0  0  0  0  0  0  0
   -5.8058    0.4001    1.4483 H   0  0  0  0  0  0  0  0  0  0  0  0
   -4.4517   -0.7244    1.7898 H   0  0  0  0  0  0  0  0  0  0  0  0
   -4.9735   -0.4110    0.0829 H   0  0  0  0  0  0  0  0  0  0  0  0
  1  6  2  0  0  0  0
  2  3  2  0  0  0  0
  2  1  1  0  0  0  0
  3  4  1  0  0  0  0
  4  5  2  0  0  0  0
  5  6  1  0  0  0  0
  5 10  1  0  0  0  0
  6 13  1  0  0  0  0
  7  1  1  0  0  0  0
  8  2  1  0  0  0  0
  9  4  1  0  0  0  0
 12 11  3  0  0  0  0
 13 14  1  0  0  0  0
 14 15  1  0  0  0  0
 14 16  1  0  0  0  0
 17 14  1  0  0  0  0
M  RAD  1   3   2
M  END
