Coordinates from ORCA-job p-CH3O-Ph-N2+-B3LYPG-aug-cc-pVDZ-scan-d09-49-n400
 OpenBabel09291715233D

 17 17  0  0  0  0  0  0  0  0999 V2000
   -1.9561   -0.2189    0.1576 C   0  0  0  0  0  0  0  0  0  0  0  0
   -0.6408   -0.2674   -0.2534 C   0  0  0  0  0  0  0  0  0  0  0  0
    0.1132    0.9315   -0.2638 C   0  0  0  0  0  0  0  0  0  0  0  0
   -0.4368    2.1809    0.1338 C   0  0  0  0  0  0  0  0  0  0  0  0
   -1.7475    2.2109    0.5400 C   0  0  0  0  0  0  0  0  0  0  0  0
   -2.5266    1.0194    0.5594 C   0  0  0  0  0  0  0  0  0  0  0  0
   -2.5414   -1.1340    0.1685 H   0  0  0  0  0  0  0  0  0  0  0  0
   -0.1842   -1.2056   -0.5653 H   0  0  0  0  0  0  0  0  0  0  0  0
    0.1721    3.0833    0.1133 H   0  0  0  0  0  0  0  0  0  0  0  0
   -2.2153    3.1423    0.8540 H   0  0  0  0  0  0  0  0  0  0  0  0
    1.4116    0.8840   -0.6695 N   0  0  0  0  0  0  0  0  0  0  0  0
    2.4799    0.8500   -1.0024 N   0  0  0  0  0  0  0  0  0  0  0  0
   -3.7734    1.1681    0.9679 O   0  0  0  0  0  0  0  0  0  0  0  0
   -4.6726    0.0335    1.0345 C   0  0  0  0  0  0  0  0  0  0  0  0
   -5.6157    0.4454    1.3984 H   0  0  0  0  0  0  0  0  0  0  0  0
   -4.2871   -0.7116    1.7416 H   0  0  0  0  0  0  0  0  0  0  0  0
   -4.8087   -0.3984    0.0351 H   0  0  0  0  0  0  0  0  0  0  0  0
  1  7  1  0  0  0  0
  1  6  2  0  0  0  0
  2  1  1  0  0  0  0
  3  2  2  0  0  0  0
  3  4  1  0  0  0  0
  4  5  2  0  0  0  0
  5  6  1  0  0  0  0
  5 10  1  0  0  0  0
  6 13  1  0  0  0  0
  8  2  1  0  0  0  0
  9  4  1  0  0  0  0
 11  3  1  0  0  0  0
 12 11  1  0  0  0  0
 13 14  1  0  0  0  0
 14 15  1  0  0  0  0
 14 16  1  0  0  0  0
 17 14  1  0  0  0  0
M  RAD  2  11   2  12   3
M  END
