Coordinates from ORCA-job p-CH3O-Ph-N2+-B3LYPG-aug-cc-pVDZ-scan-d09-49-n400
 OpenBabel09291715233D

 17 16  0  0  0  0  0  0  0  0999 V2000
   -2.0491   -0.2069    0.1883 C   0  0  0  0  0  0  0  0  0  0  0  0
   -0.6969   -0.2873   -0.2399 C   0  0  0  0  0  0  0  0  0  0  0  0
   -0.1748    0.9452   -0.1733 C   0  0  0  0  0  0  0  0  0  0  0  0
   -0.4939    2.2114    0.1568 C   0  0  0  0  0  0  0  0  0  0  0  0
   -1.8427    2.2099    0.5689 C   0  0  0  0  0  0  0  0  0  0  0  0
   -2.6162    1.0235    0.5875 C   0  0  0  0  0  0  0  0  0  0  0  0
   -2.6134   -1.1372    0.1900 H   0  0  0  0  0  0  0  0  0  0  0  0
   -0.2181   -1.2098   -0.5557 H   0  0  0  0  0  0  0  0  0  0  0  0
    0.1313    3.0994    0.1287 H   0  0  0  0  0  0  0  0  0  0  0  0
   -2.2876    3.1561    0.8787 H   0  0  0  0  0  0  0  0  0  0  0  0
    2.0712    0.8728   -0.8732 N   0  0  0  0  0  0  0  0  0  0  0  0
    3.1240    0.8420   -1.2008 N   0  0  0  0  0  0  0  0  0  0  0  0
   -3.8771    1.1755    1.0010 O   0  0  0  0  0  0  0  0  0  0  0  0
   -4.7491    0.0282    1.0569 C   0  0  0  0  0  0  0  0  0  0  0  0
   -5.7046    0.4128    1.4196 H   0  0  0  0  0  0  0  0  0  0  0  0
   -4.3555   -0.7176    1.7611 H   0  0  0  0  0  0  0  0  0  0  0  0
   -4.8770   -0.4045    0.0552 H   0  0  0  0  0  0  0  0  0  0  0  0
  1  7  1  0  0  0  0
  1  6  2  0  0  0  0
  2  3  2  0  0  0  0
  2  1  1  0  0  0  0
  3  4  1  0  0  0  0
  4  5  2  0  0  0  0
  5  6  1  0  0  0  0
  5 10  1  0  0  0  0
  6 13  1  0  0  0  0
  8  2  1  0  0  0  0
  9  4  1  0  0  0  0
 12 11  3  0  0  0  0
 13 14  1  0  0  0  0
 14 15  1  0  0  0  0
 14 16  1  0  0  0  0
 17 14  1  0  0  0  0
M  RAD  1   3   2
M  END
