Coordinates from ORCA-job p-CH3O-Ph-N2+-B3LYPG-aug-cc-pVDZ-scan-d09-49-n400
 OpenBabel09291715233D

 17 17  0  0  0  0  0  0  0  0999 V2000
   -1.9246   -0.2239    0.1471 C   0  0  0  0  0  0  0  0  0  0  0  0
   -0.6251   -0.2737   -0.2592 C   0  0  0  0  0  0  0  0  0  0  0  0
    0.2448    0.9245   -0.3055 C   0  0  0  0  0  0  0  0  0  0  0  0
   -0.4203    2.1824    0.1291 C   0  0  0  0  0  0  0  0  0  0  0  0
   -1.7165    2.2104    0.5304 C   0  0  0  0  0  0  0  0  0  0  0  0
   -2.5021    1.0170    0.5514 C   0  0  0  0  0  0  0  0  0  0  0  0
   -2.5090   -1.1408    0.1575 H   0  0  0  0  0  0  0  0  0  0  0  0
   -0.1578   -1.2081   -0.5735 H   0  0  0  0  0  0  0  0  0  0  0  0
    0.2005    3.0788    0.1041 H   0  0  0  0  0  0  0  0  0  0  0  0
   -2.1830    3.1436    0.8444 H   0  0  0  0  0  0  0  0  0  0  0  0
    1.1514    0.8932   -0.5879 N   0  0  0  0  0  0  0  0  0  0  0  0
    2.2555    0.8581   -0.9330 N   0  0  0  0  0  0  0  0  0  0  0  0
   -3.7373    1.1627    0.9557 O   0  0  0  0  0  0  0  0  0  0  0  0
   -4.6539    0.0330    1.0286 C   0  0  0  0  0  0  0  0  0  0  0  0
   -5.5891    0.4612    1.3932 H   0  0  0  0  0  0  0  0  0  0  0  0
   -4.2701   -0.7093    1.7382 H   0  0  0  0  0  0  0  0  0  0  0  0
   -4.7928   -0.3956    0.0292 H   0  0  0  0  0  0  0  0  0  0  0  0
  1  7  1  0  0  0  0
  1  6  2  0  0  0  0
  2  1  1  0  0  0  0
  3  2  2  0  0  0  0
  3  4  1  0  0  0  0
  4  5  2  0  0  0  0
  5  6  1  0  0  0  0
  5 10  1  0  0  0  0
  6 13  1  0  0  0  0
  8  2  1  0  0  0  0
  9  4  1  0  0  0  0
 11  3  1  0  0  0  0
 12 11  1  0  0  0  0
 13 14  1  0  0  0  0
 14 15  1  0  0  0  0
 14 16  1  0  0  0  0
 17 14  1  0  0  0  0
M  RAD  2  11   2  12   3
M  END
