Coordinates from ORCA-job p-CH3O-Ph-N2+-B3LYPG-aug-cc-pVDZ-scan-d09-49-n400
 OpenBabel09291715233D

 17 16  0  0  0  0  0  0  0  0999 V2000
   -2.2990   -0.2034    0.2641 C   0  0  0  0  0  0  0  0  0  0  0  0
   -0.9353   -0.2809   -0.1658 C   0  0  0  0  0  0  0  0  0  0  0  0
   -0.4824    0.9638   -0.0789 C   0  0  0  0  0  0  0  0  0  0  0  0
   -0.7501    2.2315    0.2401 C   0  0  0  0  0  0  0  0  0  0  0  0
   -2.1094    2.2140    0.6517 C   0  0  0  0  0  0  0  0  0  0  0  0
   -2.8757    1.0220    0.6664 C   0  0  0  0  0  0  0  0  0  0  0  0
   -2.8496   -1.1428    0.2573 H   0  0  0  0  0  0  0  0  0  0  0  0
   -0.4420   -1.1965   -0.4835 H   0  0  0  0  0  0  0  0  0  0  0  0
   -0.1239    3.1202    0.2119 H   0  0  0  0  0  0  0  0  0  0  0  0
   -2.5530    3.1625    0.9594 H   0  0  0  0  0  0  0  0  0  0  0  0
    3.9782    0.8702   -1.4564 N   0  0  0  0  0  0  0  0  0  0  0  0
    5.0331    0.8498   -1.7820 N   0  0  0  0  0  0  0  0  0  0  0  0
   -4.1372    1.1645    1.0778 O   0  0  0  0  0  0  0  0  0  0  0  0
   -5.0004    0.0090    1.1312 C   0  0  0  0  0  0  0  0  0  0  0  0
   -5.9593    0.3853    1.4933 H   0  0  0  0  0  0  0  0  0  0  0  0
   -4.6005   -0.7336    1.8352 H   0  0  0  0  0  0  0  0  0  0  0  0
   -5.1231   -0.4220    0.1280 H   0  0  0  0  0  0  0  0  0  0  0  0
  1  6  2  0  0  0  0
  2  3  2  0  0  0  0
  2  1  1  0  0  0  0
  3  4  1  0  0  0  0
  4  5  2  0  0  0  0
  5  6  1  0  0  0  0
  5 10  1  0  0  0  0
  6 13  1  0  0  0  0
  7  1  1  0  0  0  0
  8  2  1  0  0  0  0
  9  4  1  0  0  0  0
 12 11  3  0  0  0  0
 13 14  1  0  0  0  0
 14 15  1  0  0  0  0
 14 16  1  0  0  0  0
 17 14  1  0  0  0  0
M  RAD  1   3   2
M  END
