Coordinates from ORCA-job p-CH3O-Ph-N2+-B3LYPG-aug-cc-pVDZ-scan-d09-49-n400
 OpenBabel09291715233D

 17 16  0  0  0  0  0  0  0  0999 V2000
   -2.0660   -0.2062    0.1935 C   0  0  0  0  0  0  0  0  0  0  0  0
   -0.7096   -0.2884   -0.2362 C   0  0  0  0  0  0  0  0  0  0  0  0
   -0.2123    0.9478   -0.1613 C   0  0  0  0  0  0  0  0  0  0  0  0
   -0.5081    2.2155    0.1619 C   0  0  0  0  0  0  0  0  0  0  0  0
   -1.8610    2.2108    0.5747 C   0  0  0  0  0  0  0  0  0  0  0  0
   -2.6339    1.0237    0.5930 C   0  0  0  0  0  0  0  0  0  0  0  0
   -2.6272   -1.1386    0.1939 H   0  0  0  0  0  0  0  0  0  0  0  0
   -0.2268   -1.2086   -0.5528 H   0  0  0  0  0  0  0  0  0  0  0  0
    0.1194    3.1018    0.1328 H   0  0  0  0  0  0  0  0  0  0  0  0
   -2.3038    3.1585    0.8841 H   0  0  0  0  0  0  0  0  0  0  0  0
    2.1964    0.8714   -0.9118 N   0  0  0  0  0  0  0  0  0  0  0  0
    3.2493    0.8395   -1.2395 N   0  0  0  0  0  0  0  0  0  0  0  0
   -3.8950    1.1751    1.0064 O   0  0  0  0  0  0  0  0  0  0  0  0
   -4.7656    0.0265    1.0616 C   0  0  0  0  0  0  0  0  0  0  0  0
   -5.7217    0.4096    1.4243 H   0  0  0  0  0  0  0  0  0  0  0  0
   -4.3710   -0.7190    1.7657 H   0  0  0  0  0  0  0  0  0  0  0  0
   -4.8926   -0.4057    0.0595 H   0  0  0  0  0  0  0  0  0  0  0  0
  1  7  1  0  0  0  0
  1  6  2  0  0  0  0
  2  3  2  0  0  0  0
  2  1  1  0  0  0  0
  3  4  1  0  0  0  0
  4  5  2  0  0  0  0
  5  6  1  0  0  0  0
  5 10  1  0  0  0  0
  6 13  1  0  0  0  0
  8  2  1  0  0  0  0
  9  4  1  0  0  0  0
 12 11  3  0  0  0  0
 13 14  1  0  0  0  0
 14 15  1  0  0  0  0
 14 16  1  0  0  0  0
 17 14  1  0  0  0  0
M  RAD  1   3   2
M  END
