Coordinates from ORCA-job p-CH3O-Ph-N2+-B3LYPG-aug-cc-pVDZ-scan-d09-49-n400
 OpenBabel09291715233D

 17 16  0  0  0  0  0  0  0  0999 V2000
   -2.1585   -0.2048    0.2221 C   0  0  0  0  0  0  0  0  0  0  0  0
   -0.7967   -0.2877   -0.2095 C   0  0  0  0  0  0  0  0  0  0  0  0
   -0.3318    0.9545   -0.1236 C   0  0  0  0  0  0  0  0  0  0  0  0
   -0.6019    2.2243    0.1922 C   0  0  0  0  0  0  0  0  0  0  0  0
   -1.9600    2.2122    0.6052 C   0  0  0  0  0  0  0  0  0  0  0  0
   -2.7303    1.0232    0.6224 C   0  0  0  0  0  0  0  0  0  0  0  0
   -2.7129   -1.1418    0.2195 H   0  0  0  0  0  0  0  0  0  0  0  0
   -0.3079   -1.2052   -0.5274 H   0  0  0  0  0  0  0  0  0  0  0  0
    0.0270    3.1107    0.1627 H   0  0  0  0  0  0  0  0  0  0  0  0
   -2.4004    3.1617    0.9142 H   0  0  0  0  0  0  0  0  0  0  0  0
    2.9011    0.8699   -1.1275 N   0  0  0  0  0  0  0  0  0  0  0  0
    3.9550    0.8433   -1.4544 N   0  0  0  0  0  0  0  0  0  0  0  0
   -3.9913    1.1710    1.0351 O   0  0  0  0  0  0  0  0  0  0  0  0
   -4.8589    0.0193    1.0889 C   0  0  0  0  0  0  0  0  0  0  0  0
   -5.8163    0.3993    1.4513 H   0  0  0  0  0  0  0  0  0  0  0  0
   -4.4620   -0.7250    1.7929 H   0  0  0  0  0  0  0  0  0  0  0  0
   -4.9838   -0.4117    0.0860 H   0  0  0  0  0  0  0  0  0  0  0  0
  1  6  2  0  0  0  0
  2  3  2  0  0  0  0
  2  1  1  0  0  0  0
  3  4  1  0  0  0  0
  4  5  2  0  0  0  0
  5  6  1  0  0  0  0
  5 10  1  0  0  0  0
  6 13  1  0  0  0  0
  7  1  1  0  0  0  0
  8  2  1  0  0  0  0
  9  4  1  0  0  0  0
 12 11  3  0  0  0  0
 13 14  1  0  0  0  0
 14 15  1  0  0  0  0
 14 16  1  0  0  0  0
 17 14  1  0  0  0  0
M  RAD  1   3   2
M  END
