Coordinates from ORCA-job p-CH3O-Ph-N2+-B3LYPG-aug-cc-pVDZ-scan-d09-49-n400
 OpenBabel09291715233D

 17 17  0  0  0  0  0  0  0  0999 V2000
   -1.9250   -0.2236    0.1470 C   0  0  0  0  0  0  0  0  0  0  0  0
   -0.6248   -0.2729   -0.2598 C   0  0  0  0  0  0  0  0  0  0  0  0
    0.2389    0.9252   -0.3061 C   0  0  0  0  0  0  0  0  0  0  0  0
   -0.4199    2.1818    0.1284 C   0  0  0  0  0  0  0  0  0  0  0  0
   -1.7167    2.2103    0.5303 C   0  0  0  0  0  0  0  0  0  0  0  0
   -2.5023    1.0172    0.5510 C   0  0  0  0  0  0  0  0  0  0  0  0
   -2.5092   -1.1406    0.1580 H   0  0  0  0  0  0  0  0  0  0  0  0
   -0.1588   -1.2082   -0.5732 H   0  0  0  0  0  0  0  0  0  0  0  0
    0.1996    3.0790    0.1045 H   0  0  0  0  0  0  0  0  0  0  0  0
   -2.1829    3.1434    0.8449 H   0  0  0  0  0  0  0  0  0  0  0  0
    1.1557    0.8929   -0.5895 N   0  0  0  0  0  0  0  0  0  0  0  0
    2.2585    0.8572   -0.9314 N   0  0  0  0  0  0  0  0  0  0  0  0
   -3.7378    1.1630    0.9559 O   0  0  0  0  0  0  0  0  0  0  0  0
   -4.6537    0.0331    1.0288 C   0  0  0  0  0  0  0  0  0  0  0  0
   -5.5891    0.4605    1.3936 H   0  0  0  0  0  0  0  0  0  0  0  0
   -4.2696   -0.7094    1.7381 H   0  0  0  0  0  0  0  0  0  0  0  0
   -4.7927   -0.3956    0.0293 H   0  0  0  0  0  0  0  0  0  0  0  0
  1  7  1  0  0  0  0
  1  6  2  0  0  0  0
  2  1  1  0  0  0  0
  3  2  2  0  0  0  0
  3  4  1  0  0  0  0
  4  5  2  0  0  0  0
  5  6  1  0  0  0  0
  5 10  1  0  0  0  0
  6 13  1  0  0  0  0
  8  2  1  0  0  0  0
  9  4  1  0  0  0  0
 11  3  1  0  0  0  0
 12 11  1  0  0  0  0
 13 14  1  0  0  0  0
 14 15  1  0  0  0  0
 14 16  1  0  0  0  0
 17 14  1  0  0  0  0
M  RAD  2  11   2  12   3
M  END
