Coordinates from ORCA-job p-CH3O-Ph-N2+-B3LYPG-aug-cc-pVDZ-scan-d09-49-n400
 OpenBabel09291715233D

 17 17  0  0  0  0  0  0  0  0999 V2000
   -1.9339   -0.2218    0.1503 C   0  0  0  0  0  0  0  0  0  0  0  0
   -0.6286   -0.2686   -0.2574 C   0  0  0  0  0  0  0  0  0  0  0  0
    0.1967    0.9270   -0.2906 C   0  0  0  0  0  0  0  0  0  0  0  0
   -0.4243    2.1786    0.1295 C   0  0  0  0  0  0  0  0  0  0  0  0
   -1.7255    2.2103    0.5331 C   0  0  0  0  0  0  0  0  0  0  0  0
   -2.5091    1.0180    0.5537 C   0  0  0  0  0  0  0  0  0  0  0  0
   -2.5181   -1.1383    0.1607 H   0  0  0  0  0  0  0  0  0  0  0  0
   -0.1703   -1.2073   -0.5697 H   0  0  0  0  0  0  0  0  0  0  0  0
    0.1876    3.0805    0.1082 H   0  0  0  0  0  0  0  0  0  0  0  0
   -2.1915    3.1432    0.8470 H   0  0  0  0  0  0  0  0  0  0  0  0
    1.2372    0.8900   -0.6150 N   0  0  0  0  0  0  0  0  0  0  0  0
    2.3247    0.8549   -0.9539 N   0  0  0  0  0  0  0  0  0  0  0  0
   -3.7481    1.1646    0.9595 O   0  0  0  0  0  0  0  0  0  0  0  0
   -4.6587    0.0332    1.0302 C   0  0  0  0  0  0  0  0  0  0  0  0
   -5.5967    0.4558    1.3946 H   0  0  0  0  0  0  0  0  0  0  0  0
   -4.2744   -0.7101    1.7389 H   0  0  0  0  0  0  0  0  0  0  0  0
   -4.7966   -0.3965    0.0308 H   0  0  0  0  0  0  0  0  0  0  0  0
  1  7  1  0  0  0  0
  1  6  2  0  0  0  0
  2  1  1  0  0  0  0
  3  2  2  0  0  0  0
  3  4  1  0  0  0  0
  4  5  2  0  0  0  0
  5  6  1  0  0  0  0
  5 10  1  0  0  0  0
  6 13  1  0  0  0  0
  8  2  1  0  0  0  0
  9  4  1  0  0  0  0
 11  3  1  0  0  0  0
 12 11  1  0  0  0  0
 13 14  1  0  0  0  0
 14 15  1  0  0  0  0
 14 16  1  0  0  0  0
 17 14  1  0  0  0  0
M  RAD  2  11   2  12   3
M  END
