Coordinates from ORCA-job p-CH3O-Ph-N2+-B3LYPG-aug-cc-pVDZ-scan-d09-49-n400
 OpenBabel09291715233D

 17 16  0  0  0  0  0  0  0  0999 V2000
   -2.0312   -0.2079    0.1826 C   0  0  0  0  0  0  0  0  0  0  0  0
   -0.6836   -0.2852   -0.2436 C   0  0  0  0  0  0  0  0  0  0  0  0
   -0.1333    0.9430   -0.1863 C   0  0  0  0  0  0  0  0  0  0  0  0
   -0.4795    2.2073    0.1517 C   0  0  0  0  0  0  0  0  0  0  0  0
   -1.8237    2.2096    0.5630 C   0  0  0  0  0  0  0  0  0  0  0  0
   -2.5974    1.0232    0.5818 C   0  0  0  0  0  0  0  0  0  0  0  0
   -2.5997   -1.1351    0.1862 H   0  0  0  0  0  0  0  0  0  0  0  0
   -0.2082   -1.2097   -0.5587 H   0  0  0  0  0  0  0  0  0  0  0  0
    0.1433    3.0968    0.1246 H   0  0  0  0  0  0  0  0  0  0  0  0
   -2.2727    3.1531    0.8736 H   0  0  0  0  0  0  0  0  0  0  0  0
    1.9403    0.8738   -0.8330 N   0  0  0  0  0  0  0  0  0  0  0  0
    2.9929    0.8423   -1.1607 N   0  0  0  0  0  0  0  0  0  0  0  0
   -3.8581    1.1757    0.9952 O   0  0  0  0  0  0  0  0  0  0  0  0
   -4.7318    0.0299    1.0519 C   0  0  0  0  0  0  0  0  0  0  0  0
   -5.6865    0.4163    1.4147 H   0  0  0  0  0  0  0  0  0  0  0  0
   -4.3394   -0.7164    1.7561 H   0  0  0  0  0  0  0  0  0  0  0  0
   -4.8607   -0.4033    0.0506 H   0  0  0  0  0  0  0  0  0  0  0  0
  1  7  1  0  0  0  0
  1  6  2  0  0  0  0
  2  3  2  0  0  0  0
  2  1  1  0  0  0  0
  3  4  1  0  0  0  0
  4  5  2  0  0  0  0
  5  6  1  0  0  0  0
  5 10  1  0  0  0  0
  6 13  1  0  0  0  0
  8  2  1  0  0  0  0
  9  4  1  0  0  0  0
 12 11  3  0  0  0  0
 13 14  1  0  0  0  0
 14 15  1  0  0  0  0
 14 16  1  0  0  0  0
 17 14  1  0  0  0  0
M  RAD  1   3   2
M  END
