Coordinates from ORCA-job p-CH3O-Ph-N2+-B3LYPG-aug-cc-pVDZ-scan-d09-49-n400
 OpenBabel09291715233D

 17 16  0  0  0  0  0  0  0  0999 V2000
   -2.1618   -0.2048    0.2231 C   0  0  0  0  0  0  0  0  0  0  0  0
   -0.7998   -0.2877   -0.2086 C   0  0  0  0  0  0  0  0  0  0  0  0
   -0.3355    0.9547   -0.1225 C   0  0  0  0  0  0  0  0  0  0  0  0
   -0.6053    2.2246    0.1933 C   0  0  0  0  0  0  0  0  0  0  0  0
   -1.9635    2.2122    0.6063 C   0  0  0  0  0  0  0  0  0  0  0  0
   -2.7336    1.0231    0.6234 C   0  0  0  0  0  0  0  0  0  0  0  0
   -2.7161   -1.1418    0.2205 H   0  0  0  0  0  0  0  0  0  0  0  0
   -0.3109   -1.2052   -0.5265 H   0  0  0  0  0  0  0  0  0  0  0  0
    0.0235    3.1110    0.1638 H   0  0  0  0  0  0  0  0  0  0  0  0
   -2.4040    3.1617    0.9153 H   0  0  0  0  0  0  0  0  0  0  0  0
    2.9262    0.8699   -1.1352 N   0  0  0  0  0  0  0  0  0  0  0  0
    3.9801    0.8435   -1.4620 N   0  0  0  0  0  0  0  0  0  0  0  0
   -3.9946    1.1709    1.0361 O   0  0  0  0  0  0  0  0  0  0  0  0
   -4.8622    0.0190    1.0898 C   0  0  0  0  0  0  0  0  0  0  0  0
   -5.8196    0.3991    1.4523 H   0  0  0  0  0  0  0  0  0  0  0  0
   -4.4652   -0.7252    1.7938 H   0  0  0  0  0  0  0  0  0  0  0  0
   -4.9871   -0.4119    0.0869 H   0  0  0  0  0  0  0  0  0  0  0  0
  1  6  2  0  0  0  0
  2  3  2  0  0  0  0
  2  1  1  0  0  0  0
  3  4  1  0  0  0  0
  4  5  2  0  0  0  0
  5  6  1  0  0  0  0
  5 10  1  0  0  0  0
  6 13  1  0  0  0  0
  7  1  1  0  0  0  0
  8  2  1  0  0  0  0
  9  4  1  0  0  0  0
 12 11  3  0  0  0  0
 13 14  1  0  0  0  0
 14 15  1  0  0  0  0
 14 16  1  0  0  0  0
 17 14  1  0  0  0  0
M  RAD  1   3   2
M  END
