Coordinates from ORCA-job p-CH3O-Ph-N2+-B3LYPG-aug-cc-pVDZ-scan-d09-49-n400
 OpenBabel09291715233D

 17 16  0  0  0  0  0  0  0  0999 V2000
   -2.2043   -0.2045    0.2361 C   0  0  0  0  0  0  0  0  0  0  0  0
   -0.8416   -0.2854   -0.1954 C   0  0  0  0  0  0  0  0  0  0  0  0
   -0.3834    0.9574   -0.1074 C   0  0  0  0  0  0  0  0  0  0  0  0
   -0.6500    2.2265    0.2073 C   0  0  0  0  0  0  0  0  0  0  0  0
   -2.0087    2.2129    0.6202 C   0  0  0  0  0  0  0  0  0  0  0  0
   -2.7778    1.0228    0.6368 C   0  0  0  0  0  0  0  0  0  0  0  0
   -2.7570   -1.1426    0.2327 H   0  0  0  0  0  0  0  0  0  0  0  0
   -0.3506   -1.2018   -0.5137 H   0  0  0  0  0  0  0  0  0  0  0  0
   -0.0212    3.1131    0.1779 H   0  0  0  0  0  0  0  0  0  0  0  0
   -2.4496    3.1622    0.9293 H   0  0  0  0  0  0  0  0  0  0  0  0
    3.2520    0.8701   -1.2348 N   0  0  0  0  0  0  0  0  0  0  0  0
    4.3063    0.8457   -1.5613 N   0  0  0  0  0  0  0  0  0  0  0  0
   -4.0389    1.1689    1.0492 O   0  0  0  0  0  0  0  0  0  0  0  0
   -4.9051    0.0159    1.1024 C   0  0  0  0  0  0  0  0  0  0  0  0
   -5.8630    0.3948    1.4648 H   0  0  0  0  0  0  0  0  0  0  0  0
   -4.5074   -0.7280    1.8063 H   0  0  0  0  0  0  0  0  0  0  0  0
   -5.0293   -0.4147    0.0993 H   0  0  0  0  0  0  0  0  0  0  0  0
  1  6  2  0  0  0  0
  2  3  2  0  0  0  0
  2  1  1  0  0  0  0
  3  4  1  0  0  0  0
  4  5  2  0  0  0  0
  5  6  1  0  0  0  0
  5 10  1  0  0  0  0
  6 13  1  0  0  0  0
  7  1  1  0  0  0  0
  8  2  1  0  0  0  0
  9  4  1  0  0  0  0
 12 11  3  0  0  0  0
 13 14  1  0  0  0  0
 14 15  1  0  0  0  0
 14 16  1  0  0  0  0
 17 14  1  0  0  0  0
M  RAD  1   3   2
M  END
