Coordinates from ORCA-job p-CH3O-Ph-N2+-B3LYPG-aug-cc-pVDZ-scan-d09-49-n400
 OpenBabel09291715233D

 17 16  0  0  0  0  0  0  0  0999 V2000
   -2.3136   -0.2029    0.2679 C   0  0  0  0  0  0  0  0  0  0  0  0
   -0.9499   -0.2804   -0.1612 C   0  0  0  0  0  0  0  0  0  0  0  0
   -0.4954    0.9652   -0.0769 C   0  0  0  0  0  0  0  0  0  0  0  0
   -0.7656    2.2326    0.2459 C   0  0  0  0  0  0  0  0  0  0  0  0
   -2.1250    2.2140    0.6568 C   0  0  0  0  0  0  0  0  0  0  0  0
   -2.8907    1.0218    0.6707 C   0  0  0  0  0  0  0  0  0  0  0  0
   -2.8644   -1.1421    0.2593 H   0  0  0  0  0  0  0  0  0  0  0  0
   -0.4572   -1.1966   -0.4780 H   0  0  0  0  0  0  0  0  0  0  0  0
   -0.1410    3.1225    0.2185 H   0  0  0  0  0  0  0  0  0  0  0  0
   -2.5696    3.1624    0.9633 H   0  0  0  0  0  0  0  0  0  0  0  0
    4.0905    0.8698   -1.4904 N   0  0  0  0  0  0  0  0  0  0  0  0
    5.1455    0.8499   -1.8158 N   0  0  0  0  0  0  0  0  0  0  0  0
   -4.1524    1.1638    1.0818 O   0  0  0  0  0  0  0  0  0  0  0  0
   -5.0148    0.0078    1.1361 C   0  0  0  0  0  0  0  0  0  0  0  0
   -5.9740    0.3837    1.4981 H   0  0  0  0  0  0  0  0  0  0  0  0
   -4.6144   -0.7342    1.8405 H   0  0  0  0  0  0  0  0  0  0  0  0
   -5.1375   -0.4238    0.1331 H   0  0  0  0  0  0  0  0  0  0  0  0
  1  6  2  0  0  0  0
  2  3  2  0  0  0  0
  2  1  1  0  0  0  0
  3  4  1  0  0  0  0
  4  5  2  0  0  0  0
  5  6  1  0  0  0  0
  5 10  1  0  0  0  0
  6 13  1  0  0  0  0
  7  1  1  0  0  0  0
  8  2  1  0  0  0  0
  9  4  1  0  0  0  0
 12 11  3  0  0  0  0
 13 14  1  0  0  0  0
 14 15  1  0  0  0  0
 14 16  1  0  0  0  0
 17 14  1  0  0  0  0
M  RAD  1   3   2
M  END
