Coordinates from ORCA-job p-CH3O-Ph-N2+-B3LYPG-aug-cc-pVDZ-scan-d09-49-n400
 OpenBabel09291715233D

 17 16  0  0  0  0  0  0  0  0999 V2000
   -2.3100   -0.2032    0.2670 C   0  0  0  0  0  0  0  0  0  0  0  0
   -0.9462   -0.2803   -0.1623 C   0  0  0  0  0  0  0  0  0  0  0  0
   -0.4942    0.9648   -0.0766 C   0  0  0  0  0  0  0  0  0  0  0  0
   -0.7617    2.2321    0.2443 C   0  0  0  0  0  0  0  0  0  0  0  0
   -2.1211    2.2142    0.6555 C   0  0  0  0  0  0  0  0  0  0  0  0
   -2.8871    1.0219    0.6697 C   0  0  0  0  0  0  0  0  0  0  0  0
   -2.8607   -1.1425    0.2589 H   0  0  0  0  0  0  0  0  0  0  0  0
   -0.4525   -1.1957   -0.4796 H   0  0  0  0  0  0  0  0  0  0  0  0
   -0.1358    3.1210    0.2163 H   0  0  0  0  0  0  0  0  0  0  0  0
   -2.5653    3.1627    0.9624 H   0  0  0  0  0  0  0  0  0  0  0  0
    4.0628    0.8699   -1.4821 N   0  0  0  0  0  0  0  0  0  0  0  0
    5.1177    0.8499   -1.8075 N   0  0  0  0  0  0  0  0  0  0  0  0
   -4.1488    1.1640    1.0809 O   0  0  0  0  0  0  0  0  0  0  0  0
   -5.0113    0.0080    1.1348 C   0  0  0  0  0  0  0  0  0  0  0  0
   -5.9704    0.3840    1.4969 H   0  0  0  0  0  0  0  0  0  0  0  0
   -4.6110   -0.7341    1.8391 H   0  0  0  0  0  0  0  0  0  0  0  0
   -5.1339   -0.4233    0.1318 H   0  0  0  0  0  0  0  0  0  0  0  0
  1  6  2  0  0  0  0
  2  3  2  0  0  0  0
  2  1  1  0  0  0  0
  3  4  1  0  0  0  0
  4  5  2  0  0  0  0
  5  6  1  0  0  0  0
  5 10  1  0  0  0  0
  6 13  1  0  0  0  0
  7  1  1  0  0  0  0
  8  2  1  0  0  0  0
  9  4  1  0  0  0  0
 12 11  3  0  0  0  0
 13 14  1  0  0  0  0
 14 15  1  0  0  0  0
 14 16  1  0  0  0  0
 17 14  1  0  0  0  0
M  RAD  1   3   2
M  END
