Coordinates from ORCA-job p-CH3O-Ph-N2+-B3LYPG-aug-cc-pVDZ-scan-d09-49-n400
 OpenBabel09291715233D

 17 16  0  0  0  0  0  0  0  0999 V2000
   -2.2561   -0.2039    0.2518 C   0  0  0  0  0  0  0  0  0  0  0  0
   -0.8932   -0.2835   -0.1792 C   0  0  0  0  0  0  0  0  0  0  0  0
   -0.4351    0.9606   -0.0916 C   0  0  0  0  0  0  0  0  0  0  0  0
   -0.7051    2.2297    0.2250 C   0  0  0  0  0  0  0  0  0  0  0  0
   -2.0640    2.2133    0.6373 C   0  0  0  0  0  0  0  0  0  0  0  0
   -2.8314    1.0223    0.6531 C   0  0  0  0  0  0  0  0  0  0  0  0
   -2.8076   -1.1427    0.2474 H   0  0  0  0  0  0  0  0  0  0  0  0
   -0.4023   -1.2001   -0.4973 H   0  0  0  0  0  0  0  0  0  0  0  0
   -0.0789    3.1182    0.1967 H   0  0  0  0  0  0  0  0  0  0  0  0
   -2.5064    3.1620    0.9463 H   0  0  0  0  0  0  0  0  0  0  0  0
    3.6510    0.8703   -1.3568 N   0  0  0  0  0  0  0  0  0  0  0  0
    4.7057    0.8482   -1.6828 N   0  0  0  0  0  0  0  0  0  0  0  0
   -4.0927    1.1664    1.0651 O   0  0  0  0  0  0  0  0  0  0  0  0
   -4.9576    0.0123    1.1179 C   0  0  0  0  0  0  0  0  0  0  0  0
   -5.9160    0.3899    1.4802 H   0  0  0  0  0  0  0  0  0  0  0  0
   -4.5589   -0.7312    1.8218 H   0  0  0  0  0  0  0  0  0  0  0  0
   -5.0809   -0.4182    0.1147 H   0  0  0  0  0  0  0  0  0  0  0  0
  1  6  2  0  0  0  0
  2  3  2  0  0  0  0
  2  1  1  0  0  0  0
  3  4  1  0  0  0  0
  4  5  2  0  0  0  0
  5  6  1  0  0  0  0
  5 10  1  0  0  0  0
  6 13  1  0  0  0  0
  7  1  1  0  0  0  0
  8  2  1  0  0  0  0
  9  4  1  0  0  0  0
 12 11  3  0  0  0  0
 13 14  1  0  0  0  0
 14 15  1  0  0  0  0
 14 16  1  0  0  0  0
 17 14  1  0  0  0  0
M  RAD  1   3   2
M  END
