Coordinates from ORCA-job p-CH3O-Ph-N2+-B3LYPG-aug-cc-pVDZ-scan-d09-49-n400
 OpenBabel09291715233D

 17 16  0  0  0  0  0  0  0  0999 V2000
   -2.0421   -0.2072    0.1861 C   0  0  0  0  0  0  0  0  0  0  0  0
   -0.6915   -0.2866   -0.2414 C   0  0  0  0  0  0  0  0  0  0  0  0
   -0.1594    0.9443   -0.1781 C   0  0  0  0  0  0  0  0  0  0  0  0
   -0.4880    2.2099    0.1547 C   0  0  0  0  0  0  0  0  0  0  0  0
   -1.8352    2.2097    0.5666 C   0  0  0  0  0  0  0  0  0  0  0  0
   -2.6088    1.0234    0.5853 C   0  0  0  0  0  0  0  0  0  0  0  0
   -2.6079   -1.1364    0.1884 H   0  0  0  0  0  0  0  0  0  0  0  0
   -0.2140   -1.2099   -0.5570 H   0  0  0  0  0  0  0  0  0  0  0  0
    0.1363    3.0984    0.1270 H   0  0  0  0  0  0  0  0  0  0  0  0
   -2.2815    3.1550    0.8766 H   0  0  0  0  0  0  0  0  0  0  0  0
    2.0195    0.8732   -0.8574 N   0  0  0  0  0  0  0  0  0  0  0  0
    3.0722    0.8421   -1.1849 N   0  0  0  0  0  0  0  0  0  0  0  0
   -3.8697    1.1756    0.9987 O   0  0  0  0  0  0  0  0  0  0  0  0
   -4.7422    0.0289    1.0549 C   0  0  0  0  0  0  0  0  0  0  0  0
   -5.6975    0.4141    1.4177 H   0  0  0  0  0  0  0  0  0  0  0  0
   -4.3491   -0.7172    1.7591 H   0  0  0  0  0  0  0  0  0  0  0  0
   -4.8705   -0.4040    0.0534 H   0  0  0  0  0  0  0  0  0  0  0  0
  1  7  1  0  0  0  0
  1  6  2  0  0  0  0
  2  3  2  0  0  0  0
  2  1  1  0  0  0  0
  3  4  1  0  0  0  0
  4  5  2  0  0  0  0
  5  6  1  0  0  0  0
  5 10  1  0  0  0  0
  6 13  1  0  0  0  0
  8  2  1  0  0  0  0
  9  4  1  0  0  0  0
 12 11  3  0  0  0  0
 13 14  1  0  0  0  0
 14 15  1  0  0  0  0
 14 16  1  0  0  0  0
 17 14  1  0  0  0  0
M  RAD  1   3   2
M  END
