Coordinates from ORCA-job p-CH3O-Ph-N2+-B3LYPG-aug-cc-pVDZ-scan-d09-49-n400
 OpenBabel09291715233D

 17 16  0  0  0  0  0  0  0  0999 V2000
   -2.1837   -0.2046    0.2298 C   0  0  0  0  0  0  0  0  0  0  0  0
   -0.8214   -0.2867   -0.2018 C   0  0  0  0  0  0  0  0  0  0  0  0
   -0.3591    0.9561   -0.1150 C   0  0  0  0  0  0  0  0  0  0  0  0
   -0.6284    2.2258    0.2006 C   0  0  0  0  0  0  0  0  0  0  0  0
   -1.9868    2.2125    0.6135 C   0  0  0  0  0  0  0  0  0  0  0  0
   -2.7564    1.0230    0.6303 C   0  0  0  0  0  0  0  0  0  0  0  0
   -2.7372   -1.1421    0.2268 H   0  0  0  0  0  0  0  0  0  0  0  0
   -0.3320   -1.2040   -0.5198 H   0  0  0  0  0  0  0  0  0  0  0  0
   -0.0001    3.1127    0.1713 H   0  0  0  0  0  0  0  0  0  0  0  0
   -2.4276    3.1619    0.9225 H   0  0  0  0  0  0  0  0  0  0  0  0
    3.0943    0.8700   -1.1866 N   0  0  0  0  0  0  0  0  0  0  0  0
    4.1484    0.8446   -1.5133 N   0  0  0  0  0  0  0  0  0  0  0  0
   -4.0174    1.1698    1.0428 O   0  0  0  0  0  0  0  0  0  0  0  0
   -4.8843    0.0174    1.0963 C   0  0  0  0  0  0  0  0  0  0  0  0
   -5.8420    0.3969    1.4588 H   0  0  0  0  0  0  0  0  0  0  0  0
   -4.4870   -0.7267    1.8003 H   0  0  0  0  0  0  0  0  0  0  0  0
   -5.0088   -0.4133    0.0933 H   0  0  0  0  0  0  0  0  0  0  0  0
  1  6  2  0  0  0  0
  2  3  2  0  0  0  0
  2  1  1  0  0  0  0
  3  4  1  0  0  0  0
  4  5  2  0  0  0  0
  5  6  1  0  0  0  0
  5 10  1  0  0  0  0
  6 13  1  0  0  0  0
  7  1  1  0  0  0  0
  8  2  1  0  0  0  0
  9  4  1  0  0  0  0
 12 11  3  0  0  0  0
 13 14  1  0  0  0  0
 14 15  1  0  0  0  0
 14 16  1  0  0  0  0
 17 14  1  0  0  0  0
M  RAD  1   3   2
M  END
