Coordinates from ORCA-job p-CH3O-Ph-N2+-B3LYPG-aug-cc-pVDZ-scan-d09-49-n400
 OpenBabel09291715233D

 17 16  0  0  0  0  0  0  0  0999 V2000
   -2.1052   -0.2056    0.2057 C   0  0  0  0  0  0  0  0  0  0  0  0
   -0.7450   -0.2890   -0.2255 C   0  0  0  0  0  0  0  0  0  0  0  0
   -0.2711    0.9508   -0.1428 C   0  0  0  0  0  0  0  0  0  0  0  0
   -0.5463    2.2198    0.1743 C   0  0  0  0  0  0  0  0  0  0  0  0
   -1.9028    2.2116    0.5876 C   0  0  0  0  0  0  0  0  0  0  0  0
   -2.6748    1.0236    0.6055 C   0  0  0  0  0  0  0  0  0  0  0  0
   -2.6624   -1.1407    0.2043 H   0  0  0  0  0  0  0  0  0  0  0  0
   -0.2579   -1.2071   -0.5430 H   0  0  0  0  0  0  0  0  0  0  0  0
    0.0837    3.1048    0.1442 H   0  0  0  0  0  0  0  0  0  0  0  0
   -2.3431    3.1609    0.8965 H   0  0  0  0  0  0  0  0  0  0  0  0
    2.4922    0.8707   -1.0024 N   0  0  0  0  0  0  0  0  0  0  0  0
    3.5456    0.8415   -1.3297 N   0  0  0  0  0  0  0  0  0  0  0  0
   -3.9358    1.1736    1.0186 O   0  0  0  0  0  0  0  0  0  0  0  0
   -4.8049    0.0234    1.0731 C   0  0  0  0  0  0  0  0  0  0  0  0
   -5.7617    0.4049    1.4356 H   0  0  0  0  0  0  0  0  0  0  0  0
   -4.4091   -0.7215    1.7772 H   0  0  0  0  0  0  0  0  0  0  0  0
   -4.9308   -0.4082    0.0705 H   0  0  0  0  0  0  0  0  0  0  0  0
  1  6  2  0  0  0  0
  2  3  2  0  0  0  0
  2  1  1  0  0  0  0
  3  4  1  0  0  0  0
  4  5  2  0  0  0  0
  5  6  1  0  0  0  0
  5 10  1  0  0  0  0
  6 13  1  0  0  0  0
  7  1  1  0  0  0  0
  8  2  1  0  0  0  0
  9  4  1  0  0  0  0
 12 11  3  0  0  0  0
 13 14  1  0  0  0  0
 14 15  1  0  0  0  0
 14 16  1  0  0  0  0
 17 14  1  0  0  0  0
M  RAD  1   3   2
M  END
