Coordinates from ORCA-job p-CH3O-Ph-N2+-B3LYPG-aug-cc-pVDZ-scan-d09-49-n400
 OpenBabel09291715233D

 17 16  0  0  0  0  0  0  0  0999 V2000
   -2.1441   -0.2051    0.2176 C   0  0  0  0  0  0  0  0  0  0  0  0
   -0.7823   -0.2878   -0.2139 C   0  0  0  0  0  0  0  0  0  0  0  0
   -0.3183    0.9536   -0.1279 C   0  0  0  0  0  0  0  0  0  0  0  0
   -0.5866    2.2230    0.1872 C   0  0  0  0  0  0  0  0  0  0  0  0
   -1.9445    2.2122    0.6005 C   0  0  0  0  0  0  0  0  0  0  0  0
   -2.7154    1.0234    0.6178 C   0  0  0  0  0  0  0  0  0  0  0  0
   -2.6990   -1.1417    0.2153 H   0  0  0  0  0  0  0  0  0  0  0  0
   -0.2930   -1.2049   -0.5320 H   0  0  0  0  0  0  0  0  0  0  0  0
    0.0436    3.1083    0.1571 H   0  0  0  0  0  0  0  0  0  0  0  0
   -2.3846    3.1619    0.9094 H   0  0  0  0  0  0  0  0  0  0  0  0
    2.7900    0.8700   -1.0935 N   0  0  0  0  0  0  0  0  0  0  0  0
    3.8438    0.8427   -1.4205 N   0  0  0  0  0  0  0  0  0  0  0  0
   -3.9764    1.1717    1.0306 O   0  0  0  0  0  0  0  0  0  0  0  0
   -4.8443    0.0203    1.0846 C   0  0  0  0  0  0  0  0  0  0  0  0
   -5.8015    0.4007    1.4471 H   0  0  0  0  0  0  0  0  0  0  0  0
   -4.4476   -0.7241    1.7886 H   0  0  0  0  0  0  0  0  0  0  0  0
   -4.9694   -0.4108    0.0817 H   0  0  0  0  0  0  0  0  0  0  0  0
  1  6  2  0  0  0  0
  2  3  2  0  0  0  0
  2  1  1  0  0  0  0
  3  4  1  0  0  0  0
  4  5  2  0  0  0  0
  5  6  1  0  0  0  0
  5 10  1  0  0  0  0
  6 13  1  0  0  0  0
  7  1  1  0  0  0  0
  8  2  1  0  0  0  0
  9  4  1  0  0  0  0
 12 11  3  0  0  0  0
 13 14  1  0  0  0  0
 14 15  1  0  0  0  0
 14 16  1  0  0  0  0
 17 14  1  0  0  0  0
M  RAD  1   3   2
M  END
