Coordinates from ORCA-job p-CH3O-Ph-N2+-B3LYPG-aug-cc-pVDZ-scan-d09-49-n400
 OpenBabel09291715233D

 17 16  0  0  0  0  0  0  0  0999 V2000
   -2.1386   -0.2053    0.2159 C   0  0  0  0  0  0  0  0  0  0  0  0
   -0.7767   -0.2880   -0.2157 C   0  0  0  0  0  0  0  0  0  0  0  0
   -0.3133    0.9533   -0.1295 C   0  0  0  0  0  0  0  0  0  0  0  0
   -0.5805    2.2225    0.1853 C   0  0  0  0  0  0  0  0  0  0  0  0
   -1.9386    2.2123    0.5987 C   0  0  0  0  0  0  0  0  0  0  0  0
   -2.7096    1.0235    0.6161 C   0  0  0  0  0  0  0  0  0  0  0  0
   -2.6938   -1.1417    0.2137 H   0  0  0  0  0  0  0  0  0  0  0  0
   -0.2870   -1.2048   -0.5338 H   0  0  0  0  0  0  0  0  0  0  0  0
    0.0503    3.1074    0.1549 H   0  0  0  0  0  0  0  0  0  0  0  0
   -2.3786    3.1619    0.9076 H   0  0  0  0  0  0  0  0  0  0  0  0
    2.7470    0.8700   -1.0804 N   0  0  0  0  0  0  0  0  0  0  0  0
    3.8008    0.8425   -1.4074 N   0  0  0  0  0  0  0  0  0  0  0  0
   -3.9706    1.1720    1.0289 O   0  0  0  0  0  0  0  0  0  0  0  0
   -4.8386    0.0207    1.0829 C   0  0  0  0  0  0  0  0  0  0  0  0
   -5.7958    0.4012    1.4454 H   0  0  0  0  0  0  0  0  0  0  0  0
   -4.4420   -0.7237    1.7869 H   0  0  0  0  0  0  0  0  0  0  0  0
   -4.9638   -0.4104    0.0801 H   0  0  0  0  0  0  0  0  0  0  0  0
  1  6  2  0  0  0  0
  2  3  2  0  0  0  0
  2  1  1  0  0  0  0
  3  4  1  0  0  0  0
  4  5  2  0  0  0  0
  5  6  1  0  0  0  0
  5 10  1  0  0  0  0
  6 13  1  0  0  0  0
  7  1  1  0  0  0  0
  8  2  1  0  0  0  0
  9  4  1  0  0  0  0
 12 11  3  0  0  0  0
 13 14  1  0  0  0  0
 14 15  1  0  0  0  0
 14 16  1  0  0  0  0
 17 14  1  0  0  0  0
M  RAD  1   3   2
M  END
