Coordinates from ORCA-job p-CH3O-Ph-N2+-B3LYPG-aug-cc-pVDZ-scan-d09-49-n400
 OpenBabel09291715233D

 17 16  0  0  0  0  0  0  0  0999 V2000
   -2.1670   -0.2049    0.2246 C   0  0  0  0  0  0  0  0  0  0  0  0
   -0.8048   -0.2869   -0.2069 C   0  0  0  0  0  0  0  0  0  0  0  0
   -0.3436    0.9551   -0.1199 C   0  0  0  0  0  0  0  0  0  0  0  0
   -0.6107    2.2244    0.1949 C   0  0  0  0  0  0  0  0  0  0  0  0
   -1.9690    2.2125    0.6080 C   0  0  0  0  0  0  0  0  0  0  0  0
   -2.7392    1.0232    0.6251 C   0  0  0  0  0  0  0  0  0  0  0  0
   -2.7210   -1.1421    0.2219 H   0  0  0  0  0  0  0  0  0  0  0  0
   -0.3147   -1.2037   -0.5251 H   0  0  0  0  0  0  0  0  0  0  0  0
    0.0191    3.1102    0.1650 H   0  0  0  0  0  0  0  0  0  0  0  0
   -2.4093    3.1621    0.9169 H   0  0  0  0  0  0  0  0  0  0  0  0
    2.9659    0.8699   -1.1473 N   0  0  0  0  0  0  0  0  0  0  0  0
    4.0199    0.8438   -1.4742 N   0  0  0  0  0  0  0  0  0  0  0  0
   -4.0002    1.1707    1.0377 O   0  0  0  0  0  0  0  0  0  0  0  0
   -4.8675    0.0186    1.0914 C   0  0  0  0  0  0  0  0  0  0  0  0
   -5.8250    0.3984    1.4538 H   0  0  0  0  0  0  0  0  0  0  0  0
   -4.4703   -0.7256    1.7953 H   0  0  0  0  0  0  0  0  0  0  0  0
   -4.9922   -0.4123    0.0884 H   0  0  0  0  0  0  0  0  0  0  0  0
  1  6  2  0  0  0  0
  2  3  2  0  0  0  0
  2  1  1  0  0  0  0
  3  4  1  0  0  0  0
  4  5  2  0  0  0  0
  5  6  1  0  0  0  0
  5 10  1  0  0  0  0
  6 13  1  0  0  0  0
  7  1  1  0  0  0  0
  8  2  1  0  0  0  0
  9  4  1  0  0  0  0
 12 11  3  0  0  0  0
 13 14  1  0  0  0  0
 14 15  1  0  0  0  0
 14 16  1  0  0  0  0
 17 14  1  0  0  0  0
M  RAD  1   3   2
M  END
