Coordinates from ORCA-job p-CH3O-Ph-N2+-B3LYPG-aug-cc-pVDZ-scan-d09-49-n400
 OpenBabel09291715233D

 17 16  0  0  0  0  0  0  0  0999 V2000
   -2.1648   -0.2049    0.2240 C   0  0  0  0  0  0  0  0  0  0  0  0
   -0.8026   -0.2870   -0.2076 C   0  0  0  0  0  0  0  0  0  0  0  0
   -0.3413    0.9550   -0.1206 C   0  0  0  0  0  0  0  0  0  0  0  0
   -0.6084    2.2243    0.1941 C   0  0  0  0  0  0  0  0  0  0  0  0
   -1.9667    2.2125    0.6073 C   0  0  0  0  0  0  0  0  0  0  0  0
   -2.7369    1.0232    0.6244 C   0  0  0  0  0  0  0  0  0  0  0  0
   -2.7189   -1.1421    0.2212 H   0  0  0  0  0  0  0  0  0  0  0  0
   -0.3126   -1.2038   -0.5257 H   0  0  0  0  0  0  0  0  0  0  0  0
    0.0214    3.1100    0.1642 H   0  0  0  0  0  0  0  0  0  0  0  0
   -2.4069    3.1621    0.9162 H   0  0  0  0  0  0  0  0  0  0  0  0
    2.9491    0.8699   -1.1422 N   0  0  0  0  0  0  0  0  0  0  0  0
    4.0031    0.8436   -1.4690 N   0  0  0  0  0  0  0  0  0  0  0  0
   -3.9979    1.1708    1.0370 O   0  0  0  0  0  0  0  0  0  0  0  0
   -4.8652    0.0188    1.0907 C   0  0  0  0  0  0  0  0  0  0  0  0
   -5.8227    0.3986    1.4532 H   0  0  0  0  0  0  0  0  0  0  0  0
   -4.4682   -0.7255    1.7947 H   0  0  0  0  0  0  0  0  0  0  0  0
   -4.9900   -0.4121    0.0878 H   0  0  0  0  0  0  0  0  0  0  0  0
  1  6  2  0  0  0  0
  2  3  2  0  0  0  0
  2  1  1  0  0  0  0
  3  4  1  0  0  0  0
  4  5  2  0  0  0  0
  5  6  1  0  0  0  0
  5 10  1  0  0  0  0
  6 13  1  0  0  0  0
  7  1  1  0  0  0  0
  8  2  1  0  0  0  0
  9  4  1  0  0  0  0
 12 11  3  0  0  0  0
 13 14  1  0  0  0  0
 14 15  1  0  0  0  0
 14 16  1  0  0  0  0
 17 14  1  0  0  0  0
M  RAD  1   3   2
M  END
