Coordinates from ORCA-job p-CH3O-Ph-N2+-B3LYPG-aug-cc-pVDZ-scan-d09-49-n400
 OpenBabel09291715233D

 17 16  0  0  0  0  0  0  0  0999 V2000
   -2.1278   -0.2053    0.2126 C   0  0  0  0  0  0  0  0  0  0  0  0
   -0.7666   -0.2884   -0.2189 C   0  0  0  0  0  0  0  0  0  0  0  0
   -0.2994    0.9525   -0.1339 C   0  0  0  0  0  0  0  0  0  0  0  0
   -0.5696    2.2217    0.1818 C   0  0  0  0  0  0  0  0  0  0  0  0
   -1.9271    2.2120    0.5951 C   0  0  0  0  0  0  0  0  0  0  0  0
   -2.6984    1.0235    0.6127 C   0  0  0  0  0  0  0  0  0  0  0  0
   -2.6836   -1.1414    0.2106 H   0  0  0  0  0  0  0  0  0  0  0  0
   -0.2779   -1.2058   -0.5367 H   0  0  0  0  0  0  0  0  0  0  0  0
    0.0607    3.1068    0.1516 H   0  0  0  0  0  0  0  0  0  0  0  0
   -2.3671    3.1616    0.9040 H   0  0  0  0  0  0  0  0  0  0  0  0
    2.6652    0.8702   -1.0553 N   0  0  0  0  0  0  0  0  0  0  0  0
    3.7188    0.8422   -1.3825 N   0  0  0  0  0  0  0  0  0  0  0  0
   -3.9594    1.1725    1.0256 O   0  0  0  0  0  0  0  0  0  0  0  0
   -4.8278    0.0216    1.0798 C   0  0  0  0  0  0  0  0  0  0  0  0
   -5.7849    0.4024    1.4423 H   0  0  0  0  0  0  0  0  0  0  0  0
   -4.4314   -0.7230    1.7838 H   0  0  0  0  0  0  0  0  0  0  0  0
   -4.9532   -0.4097    0.0770 H   0  0  0  0  0  0  0  0  0  0  0  0
  1  6  2  0  0  0  0
  2  3  2  0  0  0  0
  2  1  1  0  0  0  0
  3  4  1  0  0  0  0
  4  5  2  0  0  0  0
  5  6  1  0  0  0  0
  5 10  1  0  0  0  0
  6 13  1  0  0  0  0
  7  1  1  0  0  0  0
  8  2  1  0  0  0  0
  9  4  1  0  0  0  0
 12 11  3  0  0  0  0
 13 14  1  0  0  0  0
 14 15  1  0  0  0  0
 14 16  1  0  0  0  0
 17 14  1  0  0  0  0
M  RAD  1   3   2
M  END
