Coordinates from ORCA-job p-CH3O-Ph-N2+-B3LYPG-aug-cc-pVDZ-scan-d09-49-n400
 OpenBabel09291715233D

 17 16  0  0  0  0  0  0  0  0999 V2000
   -2.1911   -0.2046    0.2320 C   0  0  0  0  0  0  0  0  0  0  0  0
   -0.8286   -0.2859   -0.1995 C   0  0  0  0  0  0  0  0  0  0  0  0
   -0.3695    0.9566   -0.1118 C   0  0  0  0  0  0  0  0  0  0  0  0
   -0.6361    2.2258    0.2029 C   0  0  0  0  0  0  0  0  0  0  0  0
   -1.9947    2.2128    0.6159 C   0  0  0  0  0  0  0  0  0  0  0  0
   -2.7642    1.0229    0.6327 C   0  0  0  0  0  0  0  0  0  0  0  0
   -2.7442   -1.1425    0.2289 H   0  0  0  0  0  0  0  0  0  0  0  0
   -0.3379   -1.2025   -0.5178 H   0  0  0  0  0  0  0  0  0  0  0  0
   -0.0069    3.1122    0.1733 H   0  0  0  0  0  0  0  0  0  0  0  0
   -2.4353    3.1622    0.9249 H   0  0  0  0  0  0  0  0  0  0  0  0
    3.1509    0.8700   -1.2039 N   0  0  0  0  0  0  0  0  0  0  0  0
    4.2051    0.8449   -1.5305 N   0  0  0  0  0  0  0  0  0  0  0  0
   -4.0252    1.1695    1.0451 O   0  0  0  0  0  0  0  0  0  0  0  0
   -4.8918    0.0169    1.0985 C   0  0  0  0  0  0  0  0  0  0  0  0
   -5.8496    0.3960    1.4609 H   0  0  0  0  0  0  0  0  0  0  0  0
   -4.4943   -0.7272    1.8024 H   0  0  0  0  0  0  0  0  0  0  0  0
   -5.0162   -0.4138    0.0954 H   0  0  0  0  0  0  0  0  0  0  0  0
  1  6  2  0  0  0  0
  2  3  2  0  0  0  0
  2  1  1  0  0  0  0
  3  4  1  0  0  0  0
  4  5  2  0  0  0  0
  5  6  1  0  0  0  0
  5 10  1  0  0  0  0
  6 13  1  0  0  0  0
  7  1  1  0  0  0  0
  8  2  1  0  0  0  0
  9  4  1  0  0  0  0
 12 11  3  0  0  0  0
 13 14  1  0  0  0  0
 14 15  1  0  0  0  0
 14 16  1  0  0  0  0
 17 14  1  0  0  0  0
M  RAD  1   3   2
M  END
