Coordinates from ORCA-job p-CH3O-Ph-N2+-B3LYPG-aug-cc-pVDZ-scan-d09-49-n400
 OpenBabel09291715233D

 17 16  0  0  0  0  0  0  0  0999 V2000
   -2.3034   -0.2034    0.2653 C   0  0  0  0  0  0  0  0  0  0  0  0
   -0.9397   -0.2807   -0.1644 C   0  0  0  0  0  0  0  0  0  0  0  0
   -0.4871    0.9642   -0.0779 C   0  0  0  0  0  0  0  0  0  0  0  0
   -0.7547    2.2317    0.2418 C   0  0  0  0  0  0  0  0  0  0  0  0
   -2.1141    2.2141    0.6532 C   0  0  0  0  0  0  0  0  0  0  0  0
   -2.8803    1.0219    0.6677 C   0  0  0  0  0  0  0  0  0  0  0  0
   -2.8540   -1.1427    0.2581 H   0  0  0  0  0  0  0  0  0  0  0  0
   -0.4462   -1.1962   -0.4819 H   0  0  0  0  0  0  0  0  0  0  0  0
   -0.1286    3.1205    0.2136 H   0  0  0  0  0  0  0  0  0  0  0  0
   -2.5579    3.1626    0.9606 H   0  0  0  0  0  0  0  0  0  0  0  0
    4.0120    0.8701   -1.4667 N   0  0  0  0  0  0  0  0  0  0  0  0
    5.0669    0.8498   -1.7922 N   0  0  0  0  0  0  0  0  0  0  0  0
   -4.1418    1.1643    1.0791 O   0  0  0  0  0  0  0  0  0  0  0  0
   -5.0047    0.0086    1.1326 C   0  0  0  0  0  0  0  0  0  0  0  0
   -5.9638    0.3848    1.4947 H   0  0  0  0  0  0  0  0  0  0  0  0
   -4.6047   -0.7338    1.8367 H   0  0  0  0  0  0  0  0  0  0  0  0
   -5.1274   -0.4225    0.1295 H   0  0  0  0  0  0  0  0  0  0  0  0
  1  6  2  0  0  0  0
  2  3  2  0  0  0  0
  2  1  1  0  0  0  0
  3  4  1  0  0  0  0
  4  5  2  0  0  0  0
  5  6  1  0  0  0  0
  5 10  1  0  0  0  0
  6 13  1  0  0  0  0
  7  1  1  0  0  0  0
  8  2  1  0  0  0  0
  9  4  1  0  0  0  0
 12 11  3  0  0  0  0
 13 14  1  0  0  0  0
 14 15  1  0  0  0  0
 14 16  1  0  0  0  0
 17 14  1  0  0  0  0
M  RAD  1   3   2
M  END
