Coordinates from ORCA-job p-CH3O-Ph-N2+-B3LYPG-aug-cc-pVDZ-scan-d09-49-n400
 OpenBabel09291715233D

 17 17  0  0  0  0  0  0  0  0999 V2000
   -1.9275   -0.2230    0.1481 C   0  0  0  0  0  0  0  0  0  0  0  0
   -0.6258   -0.2714   -0.2588 C   0  0  0  0  0  0  0  0  0  0  0  0
    0.2265    0.9256   -0.3004 C   0  0  0  0  0  0  0  0  0  0  0  0
   -0.4212    2.1805    0.1288 C   0  0  0  0  0  0  0  0  0  0  0  0
   -1.7193    2.2102    0.5312 C   0  0  0  0  0  0  0  0  0  0  0  0
   -2.5043    1.0174    0.5520 C   0  0  0  0  0  0  0  0  0  0  0  0
   -2.5117   -1.1399    0.1586 H   0  0  0  0  0  0  0  0  0  0  0  0
   -0.1627   -1.2080   -0.5721 H   0  0  0  0  0  0  0  0  0  0  0  0
    0.1954    3.0796    0.1057 H   0  0  0  0  0  0  0  0  0  0  0  0
   -2.1854    3.1434    0.8453 H   0  0  0  0  0  0  0  0  0  0  0  0
    1.1810    0.8920   -0.5974 N   0  0  0  0  0  0  0  0  0  0  0  0
    2.2785    0.8567   -0.9393 N   0  0  0  0  0  0  0  0  0  0  0  0
   -3.7409    1.1634    0.9570 O   0  0  0  0  0  0  0  0  0  0  0  0
   -4.6553    0.0331    1.0291 C   0  0  0  0  0  0  0  0  0  0  0  0
   -5.5915    0.4593    1.3936 H   0  0  0  0  0  0  0  0  0  0  0  0
   -4.2714   -0.7096    1.7384 H   0  0  0  0  0  0  0  0  0  0  0  0
   -4.7939   -0.3959    0.0297 H   0  0  0  0  0  0  0  0  0  0  0  0
  1  7  1  0  0  0  0
  1  6  2  0  0  0  0
  2  1  1  0  0  0  0
  3  2  2  0  0  0  0
  3  4  1  0  0  0  0
  4  5  2  0  0  0  0
  5  6  1  0  0  0  0
  5 10  1  0  0  0  0
  6 13  1  0  0  0  0
  8  2  1  0  0  0  0
  9  4  1  0  0  0  0
 11  3  1  0  0  0  0
 12 11  1  0  0  0  0
 13 14  1  0  0  0  0
 14 15  1  0  0  0  0
 14 16  1  0  0  0  0
 17 14  1  0  0  0  0
M  RAD  2  11   2  12   3
M  END
