Coordinates from ORCA-job p-CH3O-Ph-N2+-B3LYPG-aug-cc-pVDZ-scan-d09-49-n400
 OpenBabel09291715233D

 17 16  0  0  0  0  0  0  0  0999 V2000
   -2.1043   -0.2055    0.2054 C   0  0  0  0  0  0  0  0  0  0  0  0
   -0.7444   -0.2895   -0.2258 C   0  0  0  0  0  0  0  0  0  0  0  0
   -0.2676    0.9506   -0.1439 C   0  0  0  0  0  0  0  0  0  0  0  0
   -0.5456    2.2201    0.1742 C   0  0  0  0  0  0  0  0  0  0  0  0
   -1.9020    2.2113    0.5873 C   0  0  0  0  0  0  0  0  0  0  0  0
   -2.6738    1.0236    0.6052 C   0  0  0  0  0  0  0  0  0  0  0  0
   -2.6618   -1.1405    0.2041 H   0  0  0  0  0  0  0  0  0  0  0  0
   -0.2583   -1.2082   -0.5431 H   0  0  0  0  0  0  0  0  0  0  0  0
    0.0835    3.1059    0.1445 H   0  0  0  0  0  0  0  0  0  0  0  0
   -2.3425    3.1606    0.8963 H   0  0  0  0  0  0  0  0  0  0  0  0
    2.4861    0.8707   -1.0005 N   0  0  0  0  0  0  0  0  0  0  0  0
    3.5395    0.8415   -1.3278 N   0  0  0  0  0  0  0  0  0  0  0  0
   -3.9348    1.1736    1.0183 O   0  0  0  0  0  0  0  0  0  0  0  0
   -4.8041    0.0235    1.0729 C   0  0  0  0  0  0  0  0  0  0  0  0
   -5.7608    0.4051    1.4354 H   0  0  0  0  0  0  0  0  0  0  0  0
   -4.4084   -0.7214    1.7770 H   0  0  0  0  0  0  0  0  0  0  0  0
   -4.9301   -0.4081    0.0703 H   0  0  0  0  0  0  0  0  0  0  0  0
  1  6  2  0  0  0  0
  2  3  2  0  0  0  0
  2  1  1  0  0  0  0
  3  4  1  0  0  0  0
  4  5  2  0  0  0  0
  5  6  1  0  0  0  0
  5 10  1  0  0  0  0
  6 13  1  0  0  0  0
  7  1  1  0  0  0  0
  8  2  1  0  0  0  0
  9  4  1  0  0  0  0
 12 11  3  0  0  0  0
 13 14  1  0  0  0  0
 14 15  1  0  0  0  0
 14 16  1  0  0  0  0
 17 14  1  0  0  0  0
M  RAD  1   3   2
M  END
