Coordinates from ORCA-job p-CH3O-Ph-N2+-B3LYPG-aug-cc-pVDZ-scan-d09-49-n400
 OpenBabel09291715233D

 17 16  0  0  0  0  0  0  0  0999 V2000
   -2.0628   -0.2064    0.1925 C   0  0  0  0  0  0  0  0  0  0  0  0
   -0.7066   -0.2880   -0.2371 C   0  0  0  0  0  0  0  0  0  0  0  0
   -0.2080    0.9477   -0.1627 C   0  0  0  0  0  0  0  0  0  0  0  0
   -0.5050    2.2150    0.1609 C   0  0  0  0  0  0  0  0  0  0  0  0
   -1.8576    2.2110    0.5737 C   0  0  0  0  0  0  0  0  0  0  0  0
   -2.6306    1.0238    0.5920 C   0  0  0  0  0  0  0  0  0  0  0  0
   -2.6245   -1.1385    0.1931 H   0  0  0  0  0  0  0  0  0  0  0  0
   -0.2237   -1.2081   -0.5537 H   0  0  0  0  0  0  0  0  0  0  0  0
    0.1226    3.1012    0.1317 H   0  0  0  0  0  0  0  0  0  0  0  0
   -2.3008    3.1584    0.8831 H   0  0  0  0  0  0  0  0  0  0  0  0
    2.1720    0.8712   -0.9044 N   0  0  0  0  0  0  0  0  0  0  0  0
    3.2248    0.8389   -1.2321 N   0  0  0  0  0  0  0  0  0  0  0  0
   -3.8917    1.1752    1.0054 O   0  0  0  0  0  0  0  0  0  0  0  0
   -4.7623    0.0267    1.0607 C   0  0  0  0  0  0  0  0  0  0  0  0
   -5.7184    0.4098    1.4233 H   0  0  0  0  0  0  0  0  0  0  0  0
   -4.3678   -0.7188    1.7647 H   0  0  0  0  0  0  0  0  0  0  0  0
   -4.8893   -0.4056    0.0586 H   0  0  0  0  0  0  0  0  0  0  0  0
  1  7  1  0  0  0  0
  1  6  2  0  0  0  0
  2  3  2  0  0  0  0
  2  1  1  0  0  0  0
  3  4  1  0  0  0  0
  4  5  2  0  0  0  0
  5  6  1  0  0  0  0
  5 10  1  0  0  0  0
  6 13  1  0  0  0  0
  8  2  1  0  0  0  0
  9  4  1  0  0  0  0
 12 11  3  0  0  0  0
 13 14  1  0  0  0  0
 14 15  1  0  0  0  0
 14 16  1  0  0  0  0
 17 14  1  0  0  0  0
M  RAD  1   3   2
M  END
