Coordinates from ORCA-job p-CH3O-Ph-N2+-B3LYPG-aug-cc-pVDZ-scan-d09-49-n400
 OpenBabel09291715233D

 17 16  0  0  0  0  0  0  0  0999 V2000
   -2.1367   -0.2050    0.2154 C   0  0  0  0  0  0  0  0  0  0  0  0
   -0.7753   -0.2886   -0.2162 C   0  0  0  0  0  0  0  0  0  0  0  0
   -0.3073    0.9530   -0.1313 C   0  0  0  0  0  0  0  0  0  0  0  0
   -0.5790    2.2229    0.1849 C   0  0  0  0  0  0  0  0  0  0  0  0
   -1.9367    2.2119    0.5980 C   0  0  0  0  0  0  0  0  0  0  0  0
   -2.7076    1.0234    0.6155 C   0  0  0  0  0  0  0  0  0  0  0  0
   -2.6922   -1.1413    0.2133 H   0  0  0  0  0  0  0  0  0  0  0  0
   -0.2873   -1.2065   -0.5340 H   0  0  0  0  0  0  0  0  0  0  0  0
    0.0502    3.1088    0.1552 H   0  0  0  0  0  0  0  0  0  0  0  0
   -2.3770    3.1614    0.9070 H   0  0  0  0  0  0  0  0  0  0  0  0
    2.7339    0.8701   -1.0764 N   0  0  0  0  0  0  0  0  0  0  0  0
    3.7876    0.8426   -1.4034 N   0  0  0  0  0  0  0  0  0  0  0  0
   -3.9686    1.1721    1.0283 O   0  0  0  0  0  0  0  0  0  0  0  0
   -4.8368    0.0209    1.0824 C   0  0  0  0  0  0  0  0  0  0  0  0
   -5.7940    0.4016    1.4449 H   0  0  0  0  0  0  0  0  0  0  0  0
   -4.4404   -0.7236    1.7865 H   0  0  0  0  0  0  0  0  0  0  0  0
   -4.9622   -0.4102    0.0797 H   0  0  0  0  0  0  0  0  0  0  0  0
  1  6  2  0  0  0  0
  2  3  2  0  0  0  0
  2  1  1  0  0  0  0
  3  4  1  0  0  0  0
  4  5  2  0  0  0  0
  5  6  1  0  0  0  0
  5 10  1  0  0  0  0
  6 13  1  0  0  0  0
  7  1  1  0  0  0  0
  8  2  1  0  0  0  0
  9  4  1  0  0  0  0
 12 11  3  0  0  0  0
 13 14  1  0  0  0  0
 14 15  1  0  0  0  0
 14 16  1  0  0  0  0
 17 14  1  0  0  0  0
M  RAD  1   3   2
M  END
