Coordinates from ORCA-job p-CH3O-Ph-N2+-B3LYPG-aug-cc-pVDZ-scan-d09-49-n400
 OpenBabel09291715233D

 17 16  0  0  0  0  0  0  0  0999 V2000
   -2.1191   -0.2055    0.2099 C   0  0  0  0  0  0  0  0  0  0  0  0
   -0.7579   -0.2886   -0.2215 C   0  0  0  0  0  0  0  0  0  0  0  0
   -0.2901    0.9519   -0.1368 C   0  0  0  0  0  0  0  0  0  0  0  0
   -0.5603    2.2210    0.1788 C   0  0  0  0  0  0  0  0  0  0  0  0
   -1.9177    2.2120    0.5922 C   0  0  0  0  0  0  0  0  0  0  0  0
   -2.6893    1.0236    0.6099 C   0  0  0  0  0  0  0  0  0  0  0  0
   -2.6754   -1.1413    0.2082 H   0  0  0  0  0  0  0  0  0  0  0  0
   -0.2692   -1.2059   -0.5394 H   0  0  0  0  0  0  0  0  0  0  0  0
    0.0705    3.1056    0.1484 H   0  0  0  0  0  0  0  0  0  0  0  0
   -2.3578    3.1615    0.9011 H   0  0  0  0  0  0  0  0  0  0  0  0
    2.5978    0.8704   -1.0347 N   0  0  0  0  0  0  0  0  0  0  0  0
    3.6513    0.8419   -1.3619 N   0  0  0  0  0  0  0  0  0  0  0  0
   -3.9503    1.1730    1.0229 O   0  0  0  0  0  0  0  0  0  0  0  0
   -4.8189    0.0222    1.0772 C   0  0  0  0  0  0  0  0  0  0  0  0
   -5.7759    0.4033    1.4397 H   0  0  0  0  0  0  0  0  0  0  0  0
   -4.4227   -0.7224    1.7812 H   0  0  0  0  0  0  0  0  0  0  0  0
   -4.9445   -0.4091    0.0745 H   0  0  0  0  0  0  0  0  0  0  0  0
  1  6  2  0  0  0  0
  2  3  2  0  0  0  0
  2  1  1  0  0  0  0
  3  4  1  0  0  0  0
  4  5  2  0  0  0  0
  5  6  1  0  0  0  0
  5 10  1  0  0  0  0
  6 13  1  0  0  0  0
  7  1  1  0  0  0  0
  8  2  1  0  0  0  0
  9  4  1  0  0  0  0
 12 11  3  0  0  0  0
 13 14  1  0  0  0  0
 14 15  1  0  0  0  0
 14 16  1  0  0  0  0
 17 14  1  0  0  0  0
M  RAD  1   3   2
M  END
