Coordinates from ORCA-job p-CH3O-Ph-N2+-B3LYPG-aug-cc-pVDZ-scan-d09-49-n400
 OpenBabel09291715233D

 17 17  0  0  0  0  0  0  0  0999 V2000
   -1.9767   -0.2154    0.1645 C   0  0  0  0  0  0  0  0  0  0  0  0
   -0.6521   -0.2711   -0.2506 C   0  0  0  0  0  0  0  0  0  0  0  0
    0.0409    0.9350   -0.2411 C   0  0  0  0  0  0  0  0  0  0  0  0
   -0.4480    2.1875    0.1384 C   0  0  0  0  0  0  0  0  0  0  0  0
   -1.7681    2.2108    0.5463 C   0  0  0  0  0  0  0  0  0  0  0  0
   -2.5440    1.0207    0.5650 C   0  0  0  0  0  0  0  0  0  0  0  0
   -2.5607   -1.1313    0.1749 H   0  0  0  0  0  0  0  0  0  0  0  0
   -0.1905   -1.2053   -0.5633 H   0  0  0  0  0  0  0  0  0  0  0  0
    0.1646    3.0861    0.1161 H   0  0  0  0  0  0  0  0  0  0  0  0
   -2.2345    3.1430    0.8600 H   0  0  0  0  0  0  0  0  0  0  0  0
    1.5593    0.8797   -0.7154 N   0  0  0  0  0  0  0  0  0  0  0  0
    2.6179    0.8463   -1.0453 N   0  0  0  0  0  0  0  0  0  0  0  0
   -3.7974    1.1713    0.9758 O   0  0  0  0  0  0  0  0  0  0  0  0
   -4.6864    0.0334    1.0387 C   0  0  0  0  0  0  0  0  0  0  0  0
   -5.6341    0.4356    1.4022 H   0  0  0  0  0  0  0  0  0  0  0  0
   -4.2993   -0.7130    1.7444 H   0  0  0  0  0  0  0  0  0  0  0  0
   -4.8206   -0.3999    0.0391 H   0  0  0  0  0  0  0  0  0  0  0  0
  1  7  1  0  0  0  0
  1  6  2  0  0  0  0
  2  3  2  0  0  0  0
  2  1  1  0  0  0  0
  3  4  1  0  0  0  0
  4  5  2  0  0  0  0
  5  6  1  0  0  0  0
  5 10  1  0  0  0  0
  6 13  1  0  0  0  0
  8  2  1  0  0  0  0
  9  4  1  0  0  0  0
 11  3  1  0  0  0  0
 12 11  1  0  0  0  0
 13 14  1  0  0  0  0
 14 15  1  0  0  0  0
 14 16  1  0  0  0  0
 17 14  1  0  0  0  0
M  RAD  2  11   2  12   3
M  END
