Coordinates from ORCA-job p-CH3O-Ph-N2+-B3LYPG-aug-cc-pVDZ-scan-d09-49-n400
 OpenBabel09291715233D

 17 16  0  0  0  0  0  0  0  0999 V2000
   -2.2262   -0.2043    0.2428 C   0  0  0  0  0  0  0  0  0  0  0  0
   -0.8633   -0.2843   -0.1885 C   0  0  0  0  0  0  0  0  0  0  0  0
   -0.4065    0.9589   -0.1002 C   0  0  0  0  0  0  0  0  0  0  0  0
   -0.6733    2.2278    0.2147 C   0  0  0  0  0  0  0  0  0  0  0  0
   -2.0321    2.2132    0.6275 C   0  0  0  0  0  0  0  0  0  0  0  0
   -2.8005    1.0226    0.6437 C   0  0  0  0  0  0  0  0  0  0  0  0
   -2.7782   -1.1428    0.2390 H   0  0  0  0  0  0  0  0  0  0  0  0
   -0.3718   -1.2005   -0.5069 H   0  0  0  0  0  0  0  0  0  0  0  0
   -0.0451    3.1149    0.1856 H   0  0  0  0  0  0  0  0  0  0  0  0
   -2.4736    3.1623    0.9365 H   0  0  0  0  0  0  0  0  0  0  0  0
    3.4207    0.8700   -1.2864 N   0  0  0  0  0  0  0  0  0  0  0  0
    4.4751    0.8465   -1.6127 N   0  0  0  0  0  0  0  0  0  0  0  0
   -4.0617    1.1679    1.0559 O   0  0  0  0  0  0  0  0  0  0  0  0
   -4.9273    0.0143    1.1090 C   0  0  0  0  0  0  0  0  0  0  0  0
   -5.8854    0.3926    1.4713 H   0  0  0  0  0  0  0  0  0  0  0  0
   -4.5291   -0.7294    1.8128 H   0  0  0  0  0  0  0  0  0  0  0  0
   -5.0511   -0.4162    0.1057 H   0  0  0  0  0  0  0  0  0  0  0  0
  1  6  2  0  0  0  0
  2  3  2  0  0  0  0
  2  1  1  0  0  0  0
  3  4  1  0  0  0  0
  4  5  2  0  0  0  0
  5  6  1  0  0  0  0
  5 10  1  0  0  0  0
  6 13  1  0  0  0  0
  7  1  1  0  0  0  0
  8  2  1  0  0  0  0
  9  4  1  0  0  0  0
 12 11  3  0  0  0  0
 13 14  1  0  0  0  0
 14 15  1  0  0  0  0
 14 16  1  0  0  0  0
 17 14  1  0  0  0  0
M  RAD  1   3   2
M  END
