Coordinates from ORCA-job p-CH3O-Ph-N2+-B3LYPG-aug-cc-pVDZ-scan-d09-49-n400
 OpenBabel09291715233D

 17 16  0  0  0  0  0  0  0  0999 V2000
   -2.1714   -0.2048    0.2260 C   0  0  0  0  0  0  0  0  0  0  0  0
   -0.8091   -0.2867   -0.2056 C   0  0  0  0  0  0  0  0  0  0  0  0
   -0.3484    0.9554   -0.1184 C   0  0  0  0  0  0  0  0  0  0  0  0
   -0.6153    2.2247    0.1963 C   0  0  0  0  0  0  0  0  0  0  0  0
   -1.9737    2.2126    0.6094 C   0  0  0  0  0  0  0  0  0  0  0  0
   -2.7437    1.0231    0.6265 C   0  0  0  0  0  0  0  0  0  0  0  0
   -2.7252   -1.1422    0.2231 H   0  0  0  0  0  0  0  0  0  0  0  0
   -0.3189   -1.2035   -0.5238 H   0  0  0  0  0  0  0  0  0  0  0  0
    0.0144    3.1106    0.1665 H   0  0  0  0  0  0  0  0  0  0  0  0
   -2.4140    3.1621    0.9184 H   0  0  0  0  0  0  0  0  0  0  0  0
    2.9995    0.8699   -1.1576 N   0  0  0  0  0  0  0  0  0  0  0  0
    4.0535    0.8440   -1.4844 N   0  0  0  0  0  0  0  0  0  0  0  0
   -4.0047    1.1704    1.0391 O   0  0  0  0  0  0  0  0  0  0  0  0
   -4.8719    0.0183    1.0927 C   0  0  0  0  0  0  0  0  0  0  0  0
   -5.8294    0.3980    1.4551 H   0  0  0  0  0  0  0  0  0  0  0  0
   -4.4747   -0.7259    1.7966 H   0  0  0  0  0  0  0  0  0  0  0  0
   -4.9965   -0.4125    0.0897 H   0  0  0  0  0  0  0  0  0  0  0  0
  1  6  2  0  0  0  0
  2  3  2  0  0  0  0
  2  1  1  0  0  0  0
  3  4  1  0  0  0  0
  4  5  2  0  0  0  0
  5  6  1  0  0  0  0
  5 10  1  0  0  0  0
  6 13  1  0  0  0  0
  7  1  1  0  0  0  0
  8  2  1  0  0  0  0
  9  4  1  0  0  0  0
 12 11  3  0  0  0  0
 13 14  1  0  0  0  0
 14 15  1  0  0  0  0
 14 16  1  0  0  0  0
 17 14  1  0  0  0  0
M  RAD  1   3   2
M  END
