Coordinates from ORCA-job p-CH3O-Ph-N2+-B3LYPG-aug-cc-pVDZ-scan-d09-49-n400
 OpenBabel09291715233D

 17 16  0  0  0  0  0  0  0  0999 V2000
   -2.2857   -0.2037    0.2604 C   0  0  0  0  0  0  0  0  0  0  0  0
   -0.9222   -0.2816   -0.1700 C   0  0  0  0  0  0  0  0  0  0  0  0
   -0.4685    0.9627   -0.0823 C   0  0  0  0  0  0  0  0  0  0  0  0
   -0.7361    2.2308    0.2352 C   0  0  0  0  0  0  0  0  0  0  0  0
   -2.0953    2.2139    0.6472 C   0  0  0  0  0  0  0  0  0  0  0  0
   -2.8620    1.0221    0.6623 C   0  0  0  0  0  0  0  0  0  0  0  0
   -2.8364   -1.1429    0.2547 H   0  0  0  0  0  0  0  0  0  0  0  0
   -0.4294   -1.1973   -0.4880 H   0  0  0  0  0  0  0  0  0  0  0  0
   -0.1096    3.1192    0.2068 H   0  0  0  0  0  0  0  0  0  0  0  0
   -2.5384    3.1624    0.9555 H   0  0  0  0  0  0  0  0  0  0  0  0
    3.8768    0.8703   -1.4256 N   0  0  0  0  0  0  0  0  0  0  0  0
    4.9316    0.8494   -1.7513 N   0  0  0  0  0  0  0  0  0  0  0  0
   -4.1234    1.1651    1.0739 O   0  0  0  0  0  0  0  0  0  0  0  0
   -4.9871    0.0100    1.1270 C   0  0  0  0  0  0  0  0  0  0  0  0
   -5.9459    0.3867    1.4892 H   0  0  0  0  0  0  0  0  0  0  0  0
   -4.5877   -0.7329    1.8309 H   0  0  0  0  0  0  0  0  0  0  0  0
   -5.1100   -0.4207    0.1237 H   0  0  0  0  0  0  0  0  0  0  0  0
  1  6  2  0  0  0  0
  2  3  2  0  0  0  0
  2  1  1  0  0  0  0
  3  4  1  0  0  0  0
  4  5  2  0  0  0  0
  5  6  1  0  0  0  0
  5 10  1  0  0  0  0
  6 13  1  0  0  0  0
  7  1  1  0  0  0  0
  8  2  1  0  0  0  0
  9  4  1  0  0  0  0
 12 11  3  0  0  0  0
 13 14  1  0  0  0  0
 14 15  1  0  0  0  0
 14 16  1  0  0  0  0
 17 14  1  0  0  0  0
M  RAD  1   3   2
M  END
