Coordinates from ORCA-job p-CH3O-Ph-N2+-B3LYPG-aug-cc-pVDZ-scan-d09-49-n400
 OpenBabel09291715233D

 17 17  0  0  0  0  0  0  0  0999 V2000
   -1.9858   -0.2137    0.1677 C   0  0  0  0  0  0  0  0  0  0  0  0
   -0.6568   -0.2737   -0.2497 C   0  0  0  0  0  0  0  0  0  0  0  0
    0.0084    0.9365   -0.2308 C   0  0  0  0  0  0  0  0  0  0  0  0
   -0.4524    2.1912    0.1404 C   0  0  0  0  0  0  0  0  0  0  0  0
   -1.7772    2.2105    0.5490 C   0  0  0  0  0  0  0  0  0  0  0  0
   -2.5522    1.0213    0.5676 C   0  0  0  0  0  0  0  0  0  0  0  0
   -2.5681   -1.1308    0.1773 H   0  0  0  0  0  0  0  0  0  0  0  0
   -0.1925   -1.2058   -0.5628 H   0  0  0  0  0  0  0  0  0  0  0  0
    0.1622    3.0878    0.1171 H   0  0  0  0  0  0  0  0  0  0  0  0
   -2.2414    3.1441    0.8623 H   0  0  0  0  0  0  0  0  0  0  0  0
    1.6224    0.8781   -0.7350 N   0  0  0  0  0  0  0  0  0  0  0  0
    2.6783    0.8451   -1.0640 N   0  0  0  0  0  0  0  0  0  0  0  0
   -3.8080    1.1726    0.9793 O   0  0  0  0  0  0  0  0  0  0  0  0
   -4.6929    0.0332    1.0406 C   0  0  0  0  0  0  0  0  0  0  0  0
   -5.6425    0.4313    1.4040 H   0  0  0  0  0  0  0  0  0  0  0  0
   -4.3049   -0.7136    1.7459 H   0  0  0  0  0  0  0  0  0  0  0  0
   -4.8261   -0.4006    0.0408 H   0  0  0  0  0  0  0  0  0  0  0  0
  1  7  1  0  0  0  0
  1  6  2  0  0  0  0
  2  3  2  0  0  0  0
  2  1  1  0  0  0  0
  3  4  1  0  0  0  0
  4  5  2  0  0  0  0
  5  6  1  0  0  0  0
  5 10  1  0  0  0  0
  6 13  1  0  0  0  0
  8  2  1  0  0  0  0
  9  4  1  0  0  0  0
 11  3  1  0  0  0  0
 12 11  1  0  0  0  0
 13 14  1  0  0  0  0
 14 15  1  0  0  0  0
 14 16  1  0  0  0  0
 17 14  1  0  0  0  0
M  RAD  2  11   2  12   3
M  END
