Coordinates from ORCA-job p-CH3O-Ph-N2+-B3LYPG-aug-cc-pVDZ-scan-d09-49-n400
 OpenBabel09291715233D

 17 17  0  0  0  0  0  0  0  0999 V2000
   -1.9821   -0.2144    0.1664 C   0  0  0  0  0  0  0  0  0  0  0  0
   -0.6549   -0.2727   -0.2501 C   0  0  0  0  0  0  0  0  0  0  0  0
    0.0214    0.9359   -0.2349 C   0  0  0  0  0  0  0  0  0  0  0  0
   -0.4507    2.1897    0.1396 C   0  0  0  0  0  0  0  0  0  0  0  0
   -1.7735    2.2106    0.5479 C   0  0  0  0  0  0  0  0  0  0  0  0
   -2.5489    1.0211    0.5665 C   0  0  0  0  0  0  0  0  0  0  0  0
   -2.5653   -1.1310    0.1764 H   0  0  0  0  0  0  0  0  0  0  0  0
   -0.1917   -1.2056   -0.5630 H   0  0  0  0  0  0  0  0  0  0  0  0
    0.1632    3.0871    0.1167 H   0  0  0  0  0  0  0  0  0  0  0  0
   -2.2387    3.1436    0.8614 H   0  0  0  0  0  0  0  0  0  0  0  0
    1.5972    0.8787   -0.7272 N   0  0  0  0  0  0  0  0  0  0  0  0
    2.6540    0.8456   -1.0565 N   0  0  0  0  0  0  0  0  0  0  0  0
   -3.8037    1.1721    0.9779 O   0  0  0  0  0  0  0  0  0  0  0  0
   -4.6903    0.0333    1.0399 C   0  0  0  0  0  0  0  0  0  0  0  0
   -5.6391    0.4330    1.4033 H   0  0  0  0  0  0  0  0  0  0  0  0
   -4.3026   -0.7133    1.7453 H   0  0  0  0  0  0  0  0  0  0  0  0
   -4.8238   -0.4003    0.0401 H   0  0  0  0  0  0  0  0  0  0  0  0
  1  7  1  0  0  0  0
  1  6  2  0  0  0  0
  2  3  2  0  0  0  0
  2  1  1  0  0  0  0
  3  4  1  0  0  0  0
  4  5  2  0  0  0  0
  5  6  1  0  0  0  0
  5 10  1  0  0  0  0
  6 13  1  0  0  0  0
  8  2  1  0  0  0  0
  9  4  1  0  0  0  0
 11  3  1  0  0  0  0
 12 11  1  0  0  0  0
 13 14  1  0  0  0  0
 14 15  1  0  0  0  0
 14 16  1  0  0  0  0
 17 14  1  0  0  0  0
M  RAD  2  11   2  12   3
M  END
