Coordinates from ORCA-job p-CH3O-Ph-N2+-B3LYPG-aug-cc-pVDZ-scan-d09-49-n400
 OpenBabel09291715233D

 17 16  0  0  0  0  0  0  0  0999 V2000
   -2.2196   -0.2044    0.2408 C   0  0  0  0  0  0  0  0  0  0  0  0
   -0.8568   -0.2847   -0.1906 C   0  0  0  0  0  0  0  0  0  0  0  0
   -0.3996    0.9584   -0.1024 C   0  0  0  0  0  0  0  0  0  0  0  0
   -0.6663    2.2274    0.2125 C   0  0  0  0  0  0  0  0  0  0  0  0
   -2.0251    2.2131    0.6253 C   0  0  0  0  0  0  0  0  0  0  0  0
   -2.7937    1.0227    0.6417 C   0  0  0  0  0  0  0  0  0  0  0  0
   -2.7718   -1.1427    0.2371 H   0  0  0  0  0  0  0  0  0  0  0  0
   -0.3655   -1.2009   -0.5090 H   0  0  0  0  0  0  0  0  0  0  0  0
   -0.0379    3.1144    0.1833 H   0  0  0  0  0  0  0  0  0  0  0  0
   -2.4664    3.1623    0.9343 H   0  0  0  0  0  0  0  0  0  0  0  0
    3.3701    0.8701   -1.2709 N   0  0  0  0  0  0  0  0  0  0  0  0
    4.4245    0.8463   -1.5973 N   0  0  0  0  0  0  0  0  0  0  0  0
   -4.0548    1.1682    1.0539 O   0  0  0  0  0  0  0  0  0  0  0  0
   -4.9207    0.0148    1.1070 C   0  0  0  0  0  0  0  0  0  0  0  0
   -5.8787    0.3932    1.4694 H   0  0  0  0  0  0  0  0  0  0  0  0
   -4.5226   -0.7290    1.8108 H   0  0  0  0  0  0  0  0  0  0  0  0
   -5.0445   -0.4157    0.1038 H   0  0  0  0  0  0  0  0  0  0  0  0
  1  6  2  0  0  0  0
  2  3  2  0  0  0  0
  2  1  1  0  0  0  0
  3  4  1  0  0  0  0
  4  5  2  0  0  0  0
  5  6  1  0  0  0  0
  5 10  1  0  0  0  0
  6 13  1  0  0  0  0
  7  1  1  0  0  0  0
  8  2  1  0  0  0  0
  9  4  1  0  0  0  0
 12 11  3  0  0  0  0
 13 14  1  0  0  0  0
 14 15  1  0  0  0  0
 14 16  1  0  0  0  0
 17 14  1  0  0  0  0
M  RAD  1   3   2
M  END
