Coordinates from ORCA-job p-CH3O-Ph-N2+-B3LYPG-aug-cc-pVDZ-scan-d09-49-n400
 OpenBabel09291715233D

 17 16  0  0  0  0  0  0  0  0999 V2000
   -2.2495   -0.2039    0.2499 C   0  0  0  0  0  0  0  0  0  0  0  0
   -0.8867   -0.2838   -0.1813 C   0  0  0  0  0  0  0  0  0  0  0  0
   -0.4282    0.9602   -0.0937 C   0  0  0  0  0  0  0  0  0  0  0  0
   -0.6982    2.2293    0.2228 C   0  0  0  0  0  0  0  0  0  0  0  0
   -2.0570    2.2132    0.6351 C   0  0  0  0  0  0  0  0  0  0  0  0
   -2.8246    1.0223    0.6510 C   0  0  0  0  0  0  0  0  0  0  0  0
   -2.8011   -1.1427    0.2456 H   0  0  0  0  0  0  0  0  0  0  0  0
   -0.3959   -1.2005   -0.4994 H   0  0  0  0  0  0  0  0  0  0  0  0
   -0.0717    3.1178    0.1944 H   0  0  0  0  0  0  0  0  0  0  0  0
   -2.4992    3.1619    0.9441 H   0  0  0  0  0  0  0  0  0  0  0  0
    3.6004    0.8703   -1.3413 N   0  0  0  0  0  0  0  0  0  0  0  0
    4.6550    0.8478   -1.6674 N   0  0  0  0  0  0  0  0  0  0  0  0
   -4.0858    1.1667    1.0630 O   0  0  0  0  0  0  0  0  0  0  0  0
   -4.9509    0.0127    1.1160 C   0  0  0  0  0  0  0  0  0  0  0  0
   -5.9093    0.3905    1.4783 H   0  0  0  0  0  0  0  0  0  0  0  0
   -4.5524   -0.7308    1.8198 H   0  0  0  0  0  0  0  0  0  0  0  0
   -5.0744   -0.4178    0.1127 H   0  0  0  0  0  0  0  0  0  0  0  0
  1  6  2  0  0  0  0
  2  3  2  0  0  0  0
  2  1  1  0  0  0  0
  3  4  1  0  0  0  0
  4  5  2  0  0  0  0
  5  6  1  0  0  0  0
  5 10  1  0  0  0  0
  6 13  1  0  0  0  0
  7  1  1  0  0  0  0
  8  2  1  0  0  0  0
  9  4  1  0  0  0  0
 12 11  3  0  0  0  0
 13 14  1  0  0  0  0
 14 15  1  0  0  0  0
 14 16  1  0  0  0  0
 17 14  1  0  0  0  0
M  RAD  1   3   2
M  END
