Coordinates from ORCA-job p-CH3O-Ph-N2+-B3LYPG-aug-cc-pVDZ-scan-d09-49-n400
 OpenBabel09291715233D

 17 17  0  0  0  0  0  0  0  0999 V2000
   -1.9401   -0.2209    0.1524 C   0  0  0  0  0  0  0  0  0  0  0  0
   -0.6318   -0.2674   -0.2561 C   0  0  0  0  0  0  0  0  0  0  0  0
    0.1716    0.9283   -0.2822 C   0  0  0  0  0  0  0  0  0  0  0  0
   -0.4276    2.1783    0.1305 C   0  0  0  0  0  0  0  0  0  0  0  0
   -1.7315    2.2104    0.5350 C   0  0  0  0  0  0  0  0  0  0  0  0
   -2.5139    1.0184    0.5554 C   0  0  0  0  0  0  0  0  0  0  0  0
   -2.5246   -1.1370    0.1628 H   0  0  0  0  0  0  0  0  0  0  0  0
   -0.1755   -1.2067   -0.5681 H   0  0  0  0  0  0  0  0  0  0  0  0
    0.1820    3.0813    0.1099 H   0  0  0  0  0  0  0  0  0  0  0  0
   -2.1981    3.1429    0.8489 H   0  0  0  0  0  0  0  0  0  0  0  0
    1.2884    0.8881   -0.6310 N   0  0  0  0  0  0  0  0  0  0  0  0
    2.3687    0.8534   -0.9680 N   0  0  0  0  0  0  0  0  0  0  0  0
   -3.7552    1.1657    0.9619 O   0  0  0  0  0  0  0  0  0  0  0  0
   -4.6624    0.0333    1.0313 C   0  0  0  0  0  0  0  0  0  0  0  0
   -5.6019    0.4528    1.3955 H   0  0  0  0  0  0  0  0  0  0  0  0
   -4.2778   -0.7105    1.7396 H   0  0  0  0  0  0  0  0  0  0  0  0
   -4.7998   -0.3971    0.0320 H   0  0  0  0  0  0  0  0  0  0  0  0
  1  7  1  0  0  0  0
  1  6  2  0  0  0  0
  2  1  1  0  0  0  0
  3  2  2  0  0  0  0
  3  4  1  0  0  0  0
  4  5  2  0  0  0  0
  5  6  1  0  0  0  0
  5 10  1  0  0  0  0
  6 13  1  0  0  0  0
  8  2  1  0  0  0  0
  9  4  1  0  0  0  0
 11  3  1  0  0  0  0
 12 11  1  0  0  0  0
 13 14  1  0  0  0  0
 14 15  1  0  0  0  0
 14 16  1  0  0  0  0
 17 14  1  0  0  0  0
M  RAD  2  11   2  12   3
M  END
