Coordinates from ORCA-job p-CH3O-Ph-N2+-B3LYPG-aug-cc-pVDZ-scan-d09-49-n400
 OpenBabel09291715233D

 17 16  0  0  0  0  0  0  0  0999 V2000
   -2.2253   -0.2041    0.2425 C   0  0  0  0  0  0  0  0  0  0  0  0
   -0.8627   -0.2848   -0.1888 C   0  0  0  0  0  0  0  0  0  0  0  0
   -0.4030    0.9587   -0.1013 C   0  0  0  0  0  0  0  0  0  0  0  0
   -0.6726    2.2281    0.2146 C   0  0  0  0  0  0  0  0  0  0  0  0
   -2.0313    2.2130    0.6272 C   0  0  0  0  0  0  0  0  0  0  0  0
   -2.7996    1.0226    0.6434 C   0  0  0  0  0  0  0  0  0  0  0  0
   -2.7775   -1.1425    0.2388 H   0  0  0  0  0  0  0  0  0  0  0  0
   -0.3724   -1.2017   -0.5070 H   0  0  0  0  0  0  0  0  0  0  0  0
   -0.0455    3.1160    0.1859 H   0  0  0  0  0  0  0  0  0  0  0  0
   -2.4729    3.1620    0.9362 H   0  0  0  0  0  0  0  0  0  0  0  0
    3.4146    0.8701   -1.2845 N   0  0  0  0  0  0  0  0  0  0  0  0
    4.4690    0.8465   -1.6108 N   0  0  0  0  0  0  0  0  0  0  0  0
   -4.0607    1.1679    1.0556 O   0  0  0  0  0  0  0  0  0  0  0  0
   -4.9265    0.0144    1.1087 C   0  0  0  0  0  0  0  0  0  0  0  0
   -5.8846    0.3928    1.4711 H   0  0  0  0  0  0  0  0  0  0  0  0
   -4.5284   -0.7294    1.8126 H   0  0  0  0  0  0  0  0  0  0  0  0
   -5.0503   -0.4161    0.1055 H   0  0  0  0  0  0  0  0  0  0  0  0
  1  6  2  0  0  0  0
  2  3  2  0  0  0  0
  2  1  1  0  0  0  0
  3  4  1  0  0  0  0
  4  5  2  0  0  0  0
  5  6  1  0  0  0  0
  5 10  1  0  0  0  0
  6 13  1  0  0  0  0
  7  1  1  0  0  0  0
  8  2  1  0  0  0  0
  9  4  1  0  0  0  0
 12 11  3  0  0  0  0
 13 14  1  0  0  0  0
 14 15  1  0  0  0  0
 14 16  1  0  0  0  0
 17 14  1  0  0  0  0
M  RAD  1   3   2
M  END
