Coordinates from ORCA-job p-CH3O-Ph-N2+-B3LYPG-aug-cc-pVDZ-scan-d09-49-n400
 OpenBabel09291715233D

 17 16  0  0  0  0  0  0  0  0999 V2000
   -2.0177   -0.2089    0.1783 C   0  0  0  0  0  0  0  0  0  0  0  0
   -0.6745   -0.2826   -0.2459 C   0  0  0  0  0  0  0  0  0  0  0  0
   -0.0964    0.9412   -0.1979 C   0  0  0  0  0  0  0  0  0  0  0  0
   -0.4700    2.2033    0.1480 C   0  0  0  0  0  0  0  0  0  0  0  0
   -1.8095    2.2095    0.5587 C   0  0  0  0  0  0  0  0  0  0  0  0
   -2.5834    1.0228    0.5774 C   0  0  0  0  0  0  0  0  0  0  0  0
   -2.5902   -1.1333    0.1836 H   0  0  0  0  0  0  0  0  0  0  0  0
   -0.2022   -1.2090   -0.5604 H   0  0  0  0  0  0  0  0  0  0  0  0
    0.1508    3.0944    0.1218 H   0  0  0  0  0  0  0  0  0  0  0  0
   -2.2627    3.1504    0.8700 H   0  0  0  0  0  0  0  0  0  0  0  0
    1.8431    0.8747   -0.8032 N   0  0  0  0  0  0  0  0  0  0  0  0
    2.8957    0.8427   -1.1309 N   0  0  0  0  0  0  0  0  0  0  0  0
   -3.8436    1.1754    0.9907 O   0  0  0  0  0  0  0  0  0  0  0  0
   -4.7191    0.0311    1.0483 C   0  0  0  0  0  0  0  0  0  0  0  0
   -5.6730    0.4196    1.4112 H   0  0  0  0  0  0  0  0  0  0  0  0
   -4.3278   -0.7156    1.7526 H   0  0  0  0  0  0  0  0  0  0  0  0
   -4.8491   -0.4025    0.0474 H   0  0  0  0  0  0  0  0  0  0  0  0
  1  7  1  0  0  0  0
  1  6  2  0  0  0  0
  2  3  2  0  0  0  0
  2  1  1  0  0  0  0
  3  4  1  0  0  0  0
  4  5  2  0  0  0  0
  5  6  1  0  0  0  0
  5 10  1  0  0  0  0
  6 13  1  0  0  0  0
  8  2  1  0  0  0  0
  9  4  1  0  0  0  0
 12 11  3  0  0  0  0
 13 14  1  0  0  0  0
 14 15  1  0  0  0  0
 14 16  1  0  0  0  0
 17 14  1  0  0  0  0
M  RAD  1   3   2
M  END
