Coordinates from ORCA-job p-CH3O-Ph-N2+-B3LYPG-aug-cc-pVDZ-scan-d09-49-n400
 OpenBabel09291715233D

 17 16  0  0  0  0  0  0  0  0999 V2000
   -2.0481   -0.2069    0.1880 C   0  0  0  0  0  0  0  0  0  0  0  0
   -0.6961   -0.2872   -0.2401 C   0  0  0  0  0  0  0  0  0  0  0  0
   -0.1726    0.9450   -0.1739 C   0  0  0  0  0  0  0  0  0  0  0  0
   -0.4930    2.2112    0.1565 C   0  0  0  0  0  0  0  0  0  0  0  0
   -1.8416    2.2099    0.5686 C   0  0  0  0  0  0  0  0  0  0  0  0
   -2.6151    1.0234    0.5872 C   0  0  0  0  0  0  0  0  0  0  0  0
   -2.6126   -1.1371    0.1897 H   0  0  0  0  0  0  0  0  0  0  0  0
   -0.2175   -1.2098   -0.5559 H   0  0  0  0  0  0  0  0  0  0  0  0
    0.1320    3.0992    0.1285 H   0  0  0  0  0  0  0  0  0  0  0  0
   -2.2867    3.1560    0.8784 H   0  0  0  0  0  0  0  0  0  0  0  0
    2.0638    0.8729   -0.8709 N   0  0  0  0  0  0  0  0  0  0  0  0
    3.1165    0.8420   -1.1985 N   0  0  0  0  0  0  0  0  0  0  0  0
   -3.8760    1.1755    1.0006 O   0  0  0  0  0  0  0  0  0  0  0  0
   -4.7481    0.0283    1.0566 C   0  0  0  0  0  0  0  0  0  0  0  0
   -5.7036    0.4130    1.4193 H   0  0  0  0  0  0  0  0  0  0  0  0
   -4.3546   -0.7176    1.7608 H   0  0  0  0  0  0  0  0  0  0  0  0
   -4.8761   -0.4044    0.0549 H   0  0  0  0  0  0  0  0  0  0  0  0
  1  7  1  0  0  0  0
  1  6  2  0  0  0  0
  2  3  2  0  0  0  0
  2  1  1  0  0  0  0
  3  4  1  0  0  0  0
  4  5  2  0  0  0  0
  5  6  1  0  0  0  0
  5 10  1  0  0  0  0
  6 13  1  0  0  0  0
  8  2  1  0  0  0  0
  9  4  1  0  0  0  0
 12 11  3  0  0  0  0
 13 14  1  0  0  0  0
 14 15  1  0  0  0  0
 14 16  1  0  0  0  0
 17 14  1  0  0  0  0
M  RAD  1   3   2
M  END
