Coordinates from ORCA-job p-CH3O-Ph-N2+-B3LYPG-aug-cc-pVDZ-scan-d09-49-n400
 OpenBabel09291715233D

 17 16  0  0  0  0  0  0  0  0999 V2000
   -2.2407   -0.2040    0.2472 C   0  0  0  0  0  0  0  0  0  0  0  0
   -0.8779   -0.2842   -0.1840 C   0  0  0  0  0  0  0  0  0  0  0  0
   -0.4191    0.9596   -0.0964 C   0  0  0  0  0  0  0  0  0  0  0  0
   -0.6889    2.2289    0.2198 C   0  0  0  0  0  0  0  0  0  0  0  0
   -2.0476    2.2131    0.6322 C   0  0  0  0  0  0  0  0  0  0  0  0
   -2.8155    1.0224    0.6482 C   0  0  0  0  0  0  0  0  0  0  0  0
   -2.7925   -1.1426    0.2432 H   0  0  0  0  0  0  0  0  0  0  0  0
   -0.3874   -1.2009   -0.5022 H   0  0  0  0  0  0  0  0  0  0  0  0
   -0.0621    3.1171    0.1913 H   0  0  0  0  0  0  0  0  0  0  0  0
   -2.4896    3.1620    0.9413 H   0  0  0  0  0  0  0  0  0  0  0  0
    3.5328    0.8702   -1.3206 N   0  0  0  0  0  0  0  0  0  0  0  0
    4.5873    0.8474   -1.6468 N   0  0  0  0  0  0  0  0  0  0  0  0
   -4.0767    1.1672    1.0604 O   0  0  0  0  0  0  0  0  0  0  0  0
   -4.9420    0.0133    1.1133 C   0  0  0  0  0  0  0  0  0  0  0  0
   -5.9003    0.3913    1.4757 H   0  0  0  0  0  0  0  0  0  0  0  0
   -4.5436   -0.7303    1.8172 H   0  0  0  0  0  0  0  0  0  0  0  0
   -5.0656   -0.4171    0.1101 H   0  0  0  0  0  0  0  0  0  0  0  0
  1  6  2  0  0  0  0
  2  3  2  0  0  0  0
  2  1  1  0  0  0  0
  3  4  1  0  0  0  0
  4  5  2  0  0  0  0
  5  6  1  0  0  0  0
  5 10  1  0  0  0  0
  6 13  1  0  0  0  0
  7  1  1  0  0  0  0
  8  2  1  0  0  0  0
  9  4  1  0  0  0  0
 12 11  3  0  0  0  0
 13 14  1  0  0  0  0
 14 15  1  0  0  0  0
 14 16  1  0  0  0  0
 17 14  1  0  0  0  0
M  RAD  1   3   2
M  END
