Coordinates from ORCA-job p-CH3O-Ph-N2+-B3LYPG-aug-cc-pVDZ-scan-d09-49-n400
 OpenBabel09291715233D

 17 16  0  0  0  0  0  0  0  0999 V2000
   -2.0998   -0.2058    0.2040 C   0  0  0  0  0  0  0  0  0  0  0  0
   -0.7397   -0.2890   -0.2272 C   0  0  0  0  0  0  0  0  0  0  0  0
   -0.2651    0.9504   -0.1447 C   0  0  0  0  0  0  0  0  0  0  0  0
   -0.5406    2.2192    0.1725 C   0  0  0  0  0  0  0  0  0  0  0  0
   -1.8969    2.2116    0.5858 C   0  0  0  0  0  0  0  0  0  0  0  0
   -2.6691    1.0237    0.6038 C   0  0  0  0  0  0  0  0  0  0  0  0
   -2.6575   -1.1406    0.2028 H   0  0  0  0  0  0  0  0  0  0  0  0
   -0.2525   -1.2070   -0.5447 H   0  0  0  0  0  0  0  0  0  0  0  0
    0.0898    3.1039    0.1422 H   0  0  0  0  0  0  0  0  0  0  0  0
   -2.3374    3.1609    0.8948 H   0  0  0  0  0  0  0  0  0  0  0  0
    2.4503    0.8708   -0.9895 N   0  0  0  0  0  0  0  0  0  0  0  0
    3.5036    0.8412   -1.3169 N   0  0  0  0  0  0  0  0  0  0  0  0
   -3.9302    1.1738    1.0169 O   0  0  0  0  0  0  0  0  0  0  0  0
   -4.7993    0.0238    1.0715 C   0  0  0  0  0  0  0  0  0  0  0  0
   -5.7561    0.4054    1.4340 H   0  0  0  0  0  0  0  0  0  0  0  0
   -4.4036   -0.7211    1.7755 H   0  0  0  0  0  0  0  0  0  0  0  0
   -4.9254   -0.4078    0.0690 H   0  0  0  0  0  0  0  0  0  0  0  0
  1  6  2  0  0  0  0
  2  3  2  0  0  0  0
  2  1  1  0  0  0  0
  3  4  1  0  0  0  0
  4  5  2  0  0  0  0
  5  6  1  0  0  0  0
  5 10  1  0  0  0  0
  6 13  1  0  0  0  0
  7  1  1  0  0  0  0
  8  2  1  0  0  0  0
  9  4  1  0  0  0  0
 12 11  3  0  0  0  0
 13 14  1  0  0  0  0
 14 15  1  0  0  0  0
 14 16  1  0  0  0  0
 17 14  1  0  0  0  0
M  RAD  1   3   2
M  END
