Coordinates from ORCA-job p-CH3O-Ph-N2+-B3LYPG-aug-cc-pVDZ-scan-d09-49-n400
 OpenBabel09291715233D

 17 16  0  0  0  0  0  0  0  0999 V2000
   -2.2923   -0.2036    0.2623 C   0  0  0  0  0  0  0  0  0  0  0  0
   -0.9288   -0.2813   -0.1679 C   0  0  0  0  0  0  0  0  0  0  0  0
   -0.4755    0.9632   -0.0805 C   0  0  0  0  0  0  0  0  0  0  0  0
   -0.7431    2.2311    0.2376 C   0  0  0  0  0  0  0  0  0  0  0  0
   -2.1023    2.2139    0.6494 C   0  0  0  0  0  0  0  0  0  0  0  0
   -2.8688    1.0220    0.6643 C   0  0  0  0  0  0  0  0  0  0  0  0
   -2.8430   -1.1429    0.2561 H   0  0  0  0  0  0  0  0  0  0  0  0
   -0.4357   -1.1969   -0.4858 H   0  0  0  0  0  0  0  0  0  0  0  0
   -0.1167    3.1197    0.2093 H   0  0  0  0  0  0  0  0  0  0  0  0
   -2.5457    3.1625    0.9574 H   0  0  0  0  0  0  0  0  0  0  0  0
    3.9275    0.8703   -1.4410 N   0  0  0  0  0  0  0  0  0  0  0  0
    4.9823    0.8496   -1.7667 N   0  0  0  0  0  0  0  0  0  0  0  0
   -4.1303    1.1648    1.0759 O   0  0  0  0  0  0  0  0  0  0  0  0
   -4.9938    0.0095    1.1290 C   0  0  0  0  0  0  0  0  0  0  0  0
   -5.9526    0.3860    1.4912 H   0  0  0  0  0  0  0  0  0  0  0  0
   -4.5941   -0.7333    1.8330 H   0  0  0  0  0  0  0  0  0  0  0  0
   -5.1166   -0.4213    0.1258 H   0  0  0  0  0  0  0  0  0  0  0  0
  1  6  2  0  0  0  0
  2  3  2  0  0  0  0
  2  1  1  0  0  0  0
  3  4  1  0  0  0  0
  4  5  2  0  0  0  0
  5  6  1  0  0  0  0
  5 10  1  0  0  0  0
  6 13  1  0  0  0  0
  7  1  1  0  0  0  0
  8  2  1  0  0  0  0
  9  4  1  0  0  0  0
 12 11  3  0  0  0  0
 13 14  1  0  0  0  0
 14 15  1  0  0  0  0
 14 16  1  0  0  0  0
 17 14  1  0  0  0  0
M  RAD  1   3   2
M  END
