Coordinates from ORCA-job p-CH3O-Ph-N2+-B3LYPG-aug-cc-pVDZ-scan-d09-49-n400
 OpenBabel09291715233D

 17 16  0  0  0  0  0  0  0  0999 V2000
   -2.2385   -0.2040    0.2465 C   0  0  0  0  0  0  0  0  0  0  0  0
   -0.8758   -0.2843   -0.1847 C   0  0  0  0  0  0  0  0  0  0  0  0
   -0.4168    0.9595   -0.0971 C   0  0  0  0  0  0  0  0  0  0  0  0
   -0.6865    2.2288    0.2190 C   0  0  0  0  0  0  0  0  0  0  0  0
   -2.0453    2.2131    0.6315 C   0  0  0  0  0  0  0  0  0  0  0  0
   -2.8132    1.0224    0.6475 C   0  0  0  0  0  0  0  0  0  0  0  0
   -2.7904   -1.1426    0.2426 H   0  0  0  0  0  0  0  0  0  0  0  0
   -0.3852   -1.2010   -0.5029 H   0  0  0  0  0  0  0  0  0  0  0  0
   -0.0598    3.1170    0.1905 H   0  0  0  0  0  0  0  0  0  0  0  0
   -2.4872    3.1620    0.9406 H   0  0  0  0  0  0  0  0  0  0  0  0
    3.5159    0.8702   -1.3155 N   0  0  0  0  0  0  0  0  0  0  0  0
    4.5704    0.8473   -1.6417 N   0  0  0  0  0  0  0  0  0  0  0  0
   -4.0744    1.1673    1.0597 O   0  0  0  0  0  0  0  0  0  0  0  0
   -4.9398    0.0135    1.1127 C   0  0  0  0  0  0  0  0  0  0  0  0
   -5.8980    0.3916    1.4750 H   0  0  0  0  0  0  0  0  0  0  0  0
   -4.5415   -0.7302    1.8165 H   0  0  0  0  0  0  0  0  0  0  0  0
   -5.0635   -0.4170    0.1094 H   0  0  0  0  0  0  0  0  0  0  0  0
  1  6  2  0  0  0  0
  2  3  2  0  0  0  0
  2  1  1  0  0  0  0
  3  4  1  0  0  0  0
  4  5  2  0  0  0  0
  5  6  1  0  0  0  0
  5 10  1  0  0  0  0
  6 13  1  0  0  0  0
  7  1  1  0  0  0  0
  8  2  1  0  0  0  0
  9  4  1  0  0  0  0
 12 11  3  0  0  0  0
 13 14  1  0  0  0  0
 14 15  1  0  0  0  0
 14 16  1  0  0  0  0
 17 14  1  0  0  0  0
M  RAD  1   3   2
M  END
