Coordinates from ORCA-job p-CH3O-Ph-N2+-B3LYPG-aug-cc-pVDZ-scan-d09-49-n400
 OpenBabel09291715233D

 17 16  0  0  0  0  0  0  0  0999 V2000
   -2.1946   -0.2045    0.2331 C   0  0  0  0  0  0  0  0  0  0  0  0
   -0.8323   -0.2862   -0.1984 C   0  0  0  0  0  0  0  0  0  0  0  0
   -0.3707    0.9568   -0.1114 C   0  0  0  0  0  0  0  0  0  0  0  0
   -0.6400    2.2264    0.2042 C   0  0  0  0  0  0  0  0  0  0  0  0
   -1.9985    2.2126    0.6170 C   0  0  0  0  0  0  0  0  0  0  0  0
   -2.7677    1.0228    0.6337 C   0  0  0  0  0  0  0  0  0  0  0  0
   -2.7478   -1.1423    0.2300 H   0  0  0  0  0  0  0  0  0  0  0  0
   -0.3426   -1.2034   -0.5165 H   0  0  0  0  0  0  0  0  0  0  0  0
   -0.0120    3.1136    0.1751 H   0  0  0  0  0  0  0  0  0  0  0  0
   -2.4394    3.1619    0.9261 H   0  0  0  0  0  0  0  0  0  0  0  0
    3.1785    0.8701   -1.2123 N   0  0  0  0  0  0  0  0  0  0  0  0
    4.2327    0.8452   -1.5389 N   0  0  0  0  0  0  0  0  0  0  0  0
   -4.0288    1.1693    1.0462 O   0  0  0  0  0  0  0  0  0  0  0  0
   -4.8954    0.0167    1.0996 C   0  0  0  0  0  0  0  0  0  0  0  0
   -5.8532    0.3958    1.4620 H   0  0  0  0  0  0  0  0  0  0  0  0
   -4.4979   -0.7274    1.8035 H   0  0  0  0  0  0  0  0  0  0  0  0
   -5.0198   -0.4140    0.0965 H   0  0  0  0  0  0  0  0  0  0  0  0
  1  6  2  0  0  0  0
  2  3  2  0  0  0  0
  2  1  1  0  0  0  0
  3  4  1  0  0  0  0
  4  5  2  0  0  0  0
  5  6  1  0  0  0  0
  5 10  1  0  0  0  0
  6 13  1  0  0  0  0
  7  1  1  0  0  0  0
  8  2  1  0  0  0  0
  9  4  1  0  0  0  0
 12 11  3  0  0  0  0
 13 14  1  0  0  0  0
 14 15  1  0  0  0  0
 14 16  1  0  0  0  0
 17 14  1  0  0  0  0
M  RAD  1   3   2
M  END
