Coordinates from ORCA-job p-CH3O-Ph-N2+-B3LYPG-aug-cc-pVDZ-scan-d09-49-n400
 OpenBabel09291715233D

 17 16  0  0  0  0  0  0  0  0999 V2000
   -2.2438   -0.2041    0.2481 C   0  0  0  0  0  0  0  0  0  0  0  0
   -0.8808   -0.2836   -0.1831 C   0  0  0  0  0  0  0  0  0  0  0  0
   -0.4248    0.9599   -0.0946 C   0  0  0  0  0  0  0  0  0  0  0  0
   -0.6919    2.2287    0.2207 C   0  0  0  0  0  0  0  0  0  0  0  0
   -2.0508    2.2134    0.6333 C   0  0  0  0  0  0  0  0  0  0  0  0
   -2.8187    1.0224    0.6492 C   0  0  0  0  0  0  0  0  0  0  0  0
   -2.7954   -1.1429    0.2440 H   0  0  0  0  0  0  0  0  0  0  0  0
   -0.3890   -1.1996   -0.5014 H   0  0  0  0  0  0  0  0  0  0  0  0
   -0.0642    3.1162    0.1917 H   0  0  0  0  0  0  0  0  0  0  0  0
   -2.4927    3.1623    0.9423 H   0  0  0  0  0  0  0  0  0  0  0  0
    3.5558    0.8702   -1.3277 N   0  0  0  0  0  0  0  0  0  0  0  0
    4.6103    0.8475   -1.6538 N   0  0  0  0  0  0  0  0  0  0  0  0
   -4.0799    1.1671    1.0613 O   0  0  0  0  0  0  0  0  0  0  0  0
   -4.9451    0.0131    1.1142 C   0  0  0  0  0  0  0  0  0  0  0  0
   -5.9034    0.3909    1.4765 H   0  0  0  0  0  0  0  0  0  0  0  0
   -4.5466   -0.7305    1.8180 H   0  0  0  0  0  0  0  0  0  0  0  0
   -5.0685   -0.4174    0.1109 H   0  0  0  0  0  0  0  0  0  0  0  0
  1  6  2  0  0  0  0
  2  3  2  0  0  0  0
  2  1  1  0  0  0  0
  3  4  1  0  0  0  0
  4  5  2  0  0  0  0
  5  6  1  0  0  0  0
  5 10  1  0  0  0  0
  6 13  1  0  0  0  0
  7  1  1  0  0  0  0
  8  2  1  0  0  0  0
  9  4  1  0  0  0  0
 12 11  3  0  0  0  0
 13 14  1  0  0  0  0
 14 15  1  0  0  0  0
 14 16  1  0  0  0  0
 17 14  1  0  0  0  0
M  RAD  1   3   2
M  END
