Coordinates from ORCA-job p-CH3O-Ph-N2+-B3LYPG-aug-cc-pVDZ-scan-d09-49-n400
 OpenBabel09291715233D

 17 16  0  0  0  0  0  0  0  0999 V2000
   -2.1474   -0.2050    0.2186 C   0  0  0  0  0  0  0  0  0  0  0  0
   -0.7855   -0.2877   -0.2129 C   0  0  0  0  0  0  0  0  0  0  0  0
   -0.3220    0.9539   -0.1267 C   0  0  0  0  0  0  0  0  0  0  0  0
   -0.5900    2.2232    0.1883 C   0  0  0  0  0  0  0  0  0  0  0  0
   -1.9480    2.2123    0.6015 C   0  0  0  0  0  0  0  0  0  0  0  0
   -2.7188    1.0234    0.6189 C   0  0  0  0  0  0  0  0  0  0  0  0
   -2.7021   -1.1418    0.2162 H   0  0  0  0  0  0  0  0  0  0  0  0
   -0.2960   -1.2048   -0.5310 H   0  0  0  0  0  0  0  0  0  0  0  0
    0.0401    3.1086    0.1582 H   0  0  0  0  0  0  0  0  0  0  0  0
   -2.3881    3.1619    0.9105 H   0  0  0  0  0  0  0  0  0  0  0  0
    2.8150    0.8700   -1.1012 N   0  0  0  0  0  0  0  0  0  0  0  0
    3.8688    0.8429   -1.4282 N   0  0  0  0  0  0  0  0  0  0  0  0
   -3.9798    1.1716    1.0316 O   0  0  0  0  0  0  0  0  0  0  0  0
   -4.8476    0.0201    1.0855 C   0  0  0  0  0  0  0  0  0  0  0  0
   -5.8049    0.4003    1.4480 H   0  0  0  0  0  0  0  0  0  0  0  0
   -4.4508   -0.7243    1.7896 H   0  0  0  0  0  0  0  0  0  0  0  0
   -4.9726   -0.4110    0.0827 H   0  0  0  0  0  0  0  0  0  0  0  0
  1  6  2  0  0  0  0
  2  3  2  0  0  0  0
  2  1  1  0  0  0  0
  3  4  1  0  0  0  0
  4  5  2  0  0  0  0
  5  6  1  0  0  0  0
  5 10  1  0  0  0  0
  6 13  1  0  0  0  0
  7  1  1  0  0  0  0
  8  2  1  0  0  0  0
  9  4  1  0  0  0  0
 12 11  3  0  0  0  0
 13 14  1  0  0  0  0
 14 15  1  0  0  0  0
 14 16  1  0  0  0  0
 17 14  1  0  0  0  0
M  RAD  1   3   2
M  END
