Coordinates from ORCA-job p-CH3O-Ph-N2+-B3LYPG-aug-cc-pVDZ-scan-d09-49-n400
 OpenBabel09291715233D

 17 16  0  0  0  0  0  0  0  0999 V2000
   -2.0501   -0.2069    0.1886 C   0  0  0  0  0  0  0  0  0  0  0  0
   -0.6977   -0.2874   -0.2397 C   0  0  0  0  0  0  0  0  0  0  0  0
   -0.1769    0.9453   -0.1726 C   0  0  0  0  0  0  0  0  0  0  0  0
   -0.4947    2.2116    0.1571 C   0  0  0  0  0  0  0  0  0  0  0  0
   -1.8438    2.2099    0.5692 C   0  0  0  0  0  0  0  0  0  0  0  0
   -2.6172    1.0235    0.5879 C   0  0  0  0  0  0  0  0  0  0  0  0
   -2.6142   -1.1373    0.1902 H   0  0  0  0  0  0  0  0  0  0  0  0
   -0.2187   -1.2098   -0.5555 H   0  0  0  0  0  0  0  0  0  0  0  0
    0.1305    3.0995    0.1290 H   0  0  0  0  0  0  0  0  0  0  0  0
   -2.2885    3.1562    0.8790 H   0  0  0  0  0  0  0  0  0  0  0  0
    2.0787    0.8728   -0.8755 N   0  0  0  0  0  0  0  0  0  0  0  0
    3.1315    0.8420   -1.2031 N   0  0  0  0  0  0  0  0  0  0  0  0
   -3.8782    1.1755    1.0013 O   0  0  0  0  0  0  0  0  0  0  0  0
   -4.7501    0.0281    1.0572 C   0  0  0  0  0  0  0  0  0  0  0  0
   -5.7056    0.4127    1.4199 H   0  0  0  0  0  0  0  0  0  0  0  0
   -4.3565   -0.7177    1.7614 H   0  0  0  0  0  0  0  0  0  0  0  0
   -4.8780   -0.4045    0.0555 H   0  0  0  0  0  0  0  0  0  0  0  0
  1  7  1  0  0  0  0
  1  6  2  0  0  0  0
  2  3  2  0  0  0  0
  2  1  1  0  0  0  0
  3  4  1  0  0  0  0
  4  5  2  0  0  0  0
  5  6  1  0  0  0  0
  5 10  1  0  0  0  0
  6 13  1  0  0  0  0
  8  2  1  0  0  0  0
  9  4  1  0  0  0  0
 12 11  3  0  0  0  0
 13 14  1  0  0  0  0
 14 15  1  0  0  0  0
 14 16  1  0  0  0  0
 17 14  1  0  0  0  0
M  RAD  1   3   2
M  END
