Coordinates from ORCA-job p-CH3O-Ph-N2+-B3LYPG-aug-cc-pVDZ-scan-d09-49-n400
 OpenBabel09291715233D

 17 16  0  0  0  0  0  0  0  0999 V2000
   -2.2724   -0.2038    0.2566 C   0  0  0  0  0  0  0  0  0  0  0  0
   -0.9091   -0.2823   -0.1741 C   0  0  0  0  0  0  0  0  0  0  0  0
   -0.4547    0.9618   -0.0859 C   0  0  0  0  0  0  0  0  0  0  0  0
   -0.7222    2.2301    0.2305 C   0  0  0  0  0  0  0  0  0  0  0  0
   -2.0813    2.2137    0.6427 C   0  0  0  0  0  0  0  0  0  0  0  0
   -2.8483    1.0222    0.6582 C   0  0  0  0  0  0  0  0  0  0  0  0
   -2.8234   -1.1430    0.2516 H   0  0  0  0  0  0  0  0  0  0  0  0
   -0.4167   -1.1980   -0.4923 H   0  0  0  0  0  0  0  0  0  0  0  0
   -0.0952    3.1183    0.2020 H   0  0  0  0  0  0  0  0  0  0  0  0
   -2.5239    3.1624    0.9514 H   0  0  0  0  0  0  0  0  0  0  0  0
    3.7754    0.8703   -1.3947 N   0  0  0  0  0  0  0  0  0  0  0  0
    4.8301    0.8488   -1.7206 N   0  0  0  0  0  0  0  0  0  0  0  0
   -4.1097    1.1657    1.0700 O   0  0  0  0  0  0  0  0  0  0  0  0
   -4.9739    0.0110    1.1229 C   0  0  0  0  0  0  0  0  0  0  0  0
   -5.9325    0.3881    1.4851 H   0  0  0  0  0  0  0  0  0  0  0  0
   -4.5748   -0.7322    1.8267 H   0  0  0  0  0  0  0  0  0  0  0  0
   -5.0969   -0.4195    0.1196 H   0  0  0  0  0  0  0  0  0  0  0  0
  1  6  2  0  0  0  0
  2  3  2  0  0  0  0
  2  1  1  0  0  0  0
  3  4  1  0  0  0  0
  4  5  2  0  0  0  0
  5  6  1  0  0  0  0
  5 10  1  0  0  0  0
  6 13  1  0  0  0  0
  7  1  1  0  0  0  0
  8  2  1  0  0  0  0
  9  4  1  0  0  0  0
 12 11  3  0  0  0  0
 13 14  1  0  0  0  0
 14 15  1  0  0  0  0
 14 16  1  0  0  0  0
 17 14  1  0  0  0  0
M  RAD  1   3   2
M  END
