Coordinates from ORCA-job p-CH3O-Ph-N2+-B3LYPG-aug-cc-pVDZ-scan-d09-49-n400
 OpenBabel09291715233D

 17 16  0  0  0  0  0  0  0  0999 V2000
   -2.0638   -0.2065    0.1928 C   0  0  0  0  0  0  0  0  0  0  0  0
   -0.7073   -0.2882   -0.2369 C   0  0  0  0  0  0  0  0  0  0  0  0
   -0.2103    0.9477   -0.1619 C   0  0  0  0  0  0  0  0  0  0  0  0
   -0.5058    2.2152    0.1611 C   0  0  0  0  0  0  0  0  0  0  0  0
   -1.8587    2.2111    0.5740 C   0  0  0  0  0  0  0  0  0  0  0  0
   -2.6316    1.0238    0.5923 C   0  0  0  0  0  0  0  0  0  0  0  0
   -2.6254   -1.1386    0.1934 H   0  0  0  0  0  0  0  0  0  0  0  0
   -0.2241   -1.2081   -0.5536 H   0  0  0  0  0  0  0  0  0  0  0  0
    0.1222    3.1012    0.1318 H   0  0  0  0  0  0  0  0  0  0  0  0
   -2.3018    3.1585    0.8835 H   0  0  0  0  0  0  0  0  0  0  0  0
    2.1792    0.8712   -0.9066 N   0  0  0  0  0  0  0  0  0  0  0  0
    3.2321    0.8390   -1.2343 N   0  0  0  0  0  0  0  0  0  0  0  0
   -3.8927    1.1752    1.0057 O   0  0  0  0  0  0  0  0  0  0  0  0
   -4.7632    0.0266    1.0609 C   0  0  0  0  0  0  0  0  0  0  0  0
   -5.7194    0.4097    1.4236 H   0  0  0  0  0  0  0  0  0  0  0  0
   -4.3687   -0.7189    1.7650 H   0  0  0  0  0  0  0  0  0  0  0  0
   -4.8902   -0.4056    0.0589 H   0  0  0  0  0  0  0  0  0  0  0  0
  1  7  1  0  0  0  0
  1  6  2  0  0  0  0
  2  3  2  0  0  0  0
  2  1  1  0  0  0  0
  3  4  1  0  0  0  0
  4  5  2  0  0  0  0
  5  6  1  0  0  0  0
  5 10  1  0  0  0  0
  6 13  1  0  0  0  0
  8  2  1  0  0  0  0
  9  4  1  0  0  0  0
 12 11  3  0  0  0  0
 13 14  1  0  0  0  0
 14 15  1  0  0  0  0
 14 16  1  0  0  0  0
 17 14  1  0  0  0  0
M  RAD  1   3   2
M  END
