Coordinates from ORCA-job p-CH3O-Ph-N2+-B3LYPG-aug-cc-pVDZ-scan-d09-49-n400
 OpenBabel09291715233D

 17 16  0  0  0  0  0  0  0  0999 V2000
   -2.2363   -0.2041    0.2459 C   0  0  0  0  0  0  0  0  0  0  0  0
   -0.8736   -0.2844   -0.1854 C   0  0  0  0  0  0  0  0  0  0  0  0
   -0.4145    0.9594   -0.0978 C   0  0  0  0  0  0  0  0  0  0  0  0
   -0.6842    2.2287    0.2183 C   0  0  0  0  0  0  0  0  0  0  0  0
   -2.0430    2.2131    0.6308 C   0  0  0  0  0  0  0  0  0  0  0  0
   -2.8109    1.0225    0.6469 C   0  0  0  0  0  0  0  0  0  0  0  0
   -2.7882   -1.1426    0.2420 H   0  0  0  0  0  0  0  0  0  0  0  0
   -0.3831   -1.2012   -0.5036 H   0  0  0  0  0  0  0  0  0  0  0  0
   -0.0574    3.1168    0.1897 H   0  0  0  0  0  0  0  0  0  0  0  0
   -2.4848    3.1620    0.9398 H   0  0  0  0  0  0  0  0  0  0  0  0
    3.4990    0.8702   -1.3103 N   0  0  0  0  0  0  0  0  0  0  0  0
    4.5535    0.8471   -1.6365 N   0  0  0  0  0  0  0  0  0  0  0  0
   -4.0721    1.1674    1.0590 O   0  0  0  0  0  0  0  0  0  0  0  0
   -4.9376    0.0137    1.1120 C   0  0  0  0  0  0  0  0  0  0  0  0
   -5.8958    0.3918    1.4744 H   0  0  0  0  0  0  0  0  0  0  0  0
   -4.5393   -0.7300    1.8158 H   0  0  0  0  0  0  0  0  0  0  0  0
   -5.0613   -0.4168    0.1088 H   0  0  0  0  0  0  0  0  0  0  0  0
  1  6  2  0  0  0  0
  2  3  2  0  0  0  0
  2  1  1  0  0  0  0
  3  4  1  0  0  0  0
  4  5  2  0  0  0  0
  5  6  1  0  0  0  0
  5 10  1  0  0  0  0
  6 13  1  0  0  0  0
  7  1  1  0  0  0  0
  8  2  1  0  0  0  0
  9  4  1  0  0  0  0
 12 11  3  0  0  0  0
 13 14  1  0  0  0  0
 14 15  1  0  0  0  0
 14 16  1  0  0  0  0
 17 14  1  0  0  0  0
M  RAD  1   3   2
M  END
