Coordinates from ORCA-job p-CH3O-Ph-N2+-B3LYPG-aug-cc-pVDZ-scan-d09-49-n400
 OpenBabel09291715233D

 17 16  0  0  0  0  0  0  0  0999 V2000
   -2.1354   -0.2053    0.2149 C   0  0  0  0  0  0  0  0  0  0  0  0
   -0.7736   -0.2881   -0.2167 C   0  0  0  0  0  0  0  0  0  0  0  0
   -0.3096    0.9531   -0.1307 C   0  0  0  0  0  0  0  0  0  0  0  0
   -0.5771    2.2223    0.1842 C   0  0  0  0  0  0  0  0  0  0  0  0
   -1.9351    2.2123    0.5976 C   0  0  0  0  0  0  0  0  0  0  0  0
   -2.7062    1.0235    0.6151 C   0  0  0  0  0  0  0  0  0  0  0  0
   -2.6908   -1.1417    0.2128 H   0  0  0  0  0  0  0  0  0  0  0  0
   -0.2839   -1.2050   -0.5347 H   0  0  0  0  0  0  0  0  0  0  0  0
    0.0537    3.1071    0.1538 H   0  0  0  0  0  0  0  0  0  0  0  0
   -2.3751    3.1619    0.9065 H   0  0  0  0  0  0  0  0  0  0  0  0
    2.7220    0.8701   -1.0728 N   0  0  0  0  0  0  0  0  0  0  0  0
    3.7757    0.8424   -1.3998 N   0  0  0  0  0  0  0  0  0  0  0  0
   -3.9672    1.1722    1.0279 O   0  0  0  0  0  0  0  0  0  0  0  0
   -4.8353    0.0210    1.0820 C   0  0  0  0  0  0  0  0  0  0  0  0
   -5.7925    0.4015    1.4445 H   0  0  0  0  0  0  0  0  0  0  0  0
   -4.4387   -0.7235    1.7860 H   0  0  0  0  0  0  0  0  0  0  0  0
   -4.9605   -0.4102    0.0792 H   0  0  0  0  0  0  0  0  0  0  0  0
  1  6  2  0  0  0  0
  2  3  2  0  0  0  0
  2  1  1  0  0  0  0
  3  4  1  0  0  0  0
  4  5  2  0  0  0  0
  5  6  1  0  0  0  0
  5 10  1  0  0  0  0
  6 13  1  0  0  0  0
  7  1  1  0  0  0  0
  8  2  1  0  0  0  0
  9  4  1  0  0  0  0
 12 11  3  0  0  0  0
 13 14  1  0  0  0  0
 14 15  1  0  0  0  0
 14 16  1  0  0  0  0
 17 14  1  0  0  0  0
M  RAD  1   3   2
M  END
