Coordinates from ORCA-job p-CH3O-Ph-N2+-B3LYPG-aug-cc-pVDZ-scan-d09-49-n400
 OpenBabel09291715233D

 17 17  0  0  0  0  0  0  0  0999 V2000
   -1.9331   -0.2219    0.1501 C   0  0  0  0  0  0  0  0  0  0  0  0
   -0.6280   -0.2689   -0.2574 C   0  0  0  0  0  0  0  0  0  0  0  0
    0.1999    0.9267   -0.2906 C   0  0  0  0  0  0  0  0  0  0  0  0
   -0.4236    2.1787    0.1295 C   0  0  0  0  0  0  0  0  0  0  0  0
   -1.7246    2.2102    0.5329 C   0  0  0  0  0  0  0  0  0  0  0  0
   -2.5083    1.0179    0.5537 C   0  0  0  0  0  0  0  0  0  0  0  0
   -2.5173   -1.1384    0.1603 H   0  0  0  0  0  0  0  0  0  0  0  0
   -0.1696   -1.2075   -0.5701 H   0  0  0  0  0  0  0  0  0  0  0  0
    0.1883    3.0806    0.1078 H   0  0  0  0  0  0  0  0  0  0  0  0
   -2.1908    3.1432    0.8466 H   0  0  0  0  0  0  0  0  0  0  0  0
    1.2305    0.8902   -0.6129 N   0  0  0  0  0  0  0  0  0  0  0  0
    2.3186    0.8552   -0.9529 N   0  0  0  0  0  0  0  0  0  0  0  0
   -3.7472    1.1646    0.9592 O   0  0  0  0  0  0  0  0  0  0  0  0
   -4.6581    0.0333    1.0299 C   0  0  0  0  0  0  0  0  0  0  0  0
   -5.5960    0.4562    1.3941 H   0  0  0  0  0  0  0  0  0  0  0  0
   -4.2740   -0.7100    1.7388 H   0  0  0  0  0  0  0  0  0  0  0  0
   -4.7960   -0.3965    0.0306 H   0  0  0  0  0  0  0  0  0  0  0  0
  1  7  1  0  0  0  0
  1  6  2  0  0  0  0
  2  1  1  0  0  0  0
  3  2  2  0  0  0  0
  3  4  1  0  0  0  0
  4  5  2  0  0  0  0
  5  6  1  0  0  0  0
  5 10  1  0  0  0  0
  6 13  1  0  0  0  0
  8  2  1  0  0  0  0
  9  4  1  0  0  0  0
 11  3  1  0  0  0  0
 12 11  1  0  0  0  0
 13 14  1  0  0  0  0
 14 15  1  0  0  0  0
 14 16  1  0  0  0  0
 17 14  1  0  0  0  0
M  RAD  2  11   2  12   3
M  END
