Coordinates from ORCA-job p-CH3O-Ph-N2+-B3LYPG-aug-cc-pVDZ-scan-d09-49-n400
 OpenBabel09291715233D

 17 16  0  0  0  0  0  0  0  0999 V2000
   -2.1692   -0.2048    0.2253 C   0  0  0  0  0  0  0  0  0  0  0  0
   -0.8070   -0.2868   -0.2062 C   0  0  0  0  0  0  0  0  0  0  0  0
   -0.3460    0.9553   -0.1191 C   0  0  0  0  0  0  0  0  0  0  0  0
   -0.6130    2.2245    0.1956 C   0  0  0  0  0  0  0  0  0  0  0  0
   -1.9713    2.2126    0.6087 C   0  0  0  0  0  0  0  0  0  0  0  0
   -2.7415    1.0231    0.6258 C   0  0  0  0  0  0  0  0  0  0  0  0
   -2.7231   -1.1422    0.2225 H   0  0  0  0  0  0  0  0  0  0  0  0
   -0.3168   -1.2036   -0.5244 H   0  0  0  0  0  0  0  0  0  0  0  0
    0.0167    3.1104    0.1657 H   0  0  0  0  0  0  0  0  0  0  0  0
   -2.4116    3.1621    0.9177 H   0  0  0  0  0  0  0  0  0  0  0  0
    2.9827    0.8699   -1.1525 N   0  0  0  0  0  0  0  0  0  0  0  0
    4.0367    0.8439   -1.4793 N   0  0  0  0  0  0  0  0  0  0  0  0
   -4.0025    1.1706    1.0384 O   0  0  0  0  0  0  0  0  0  0  0  0
   -4.8697    0.0184    1.0920 C   0  0  0  0  0  0  0  0  0  0  0  0
   -5.8272    0.3982    1.4545 H   0  0  0  0  0  0  0  0  0  0  0  0
   -4.4725   -0.7258    1.7960 H   0  0  0  0  0  0  0  0  0  0  0  0
   -4.9944   -0.4124    0.0890 H   0  0  0  0  0  0  0  0  0  0  0  0
  1  6  2  0  0  0  0
  2  3  2  0  0  0  0
  2  1  1  0  0  0  0
  3  4  1  0  0  0  0
  4  5  2  0  0  0  0
  5  6  1  0  0  0  0
  5 10  1  0  0  0  0
  6 13  1  0  0  0  0
  7  1  1  0  0  0  0
  8  2  1  0  0  0  0
  9  4  1  0  0  0  0
 12 11  3  0  0  0  0
 13 14  1  0  0  0  0
 14 15  1  0  0  0  0
 14 16  1  0  0  0  0
 17 14  1  0  0  0  0
M  RAD  1   3   2
M  END
