Coordinates from ORCA-job p-CH3O-Ph-N2+-B3LYPG-aug-cc-pVDZ-scan-d09-49-n400
 OpenBabel09291715233D

 17 16  0  0  0  0  0  0  0  0999 V2000
   -2.2583   -0.2039    0.2525 C   0  0  0  0  0  0  0  0  0  0  0  0
   -0.8954   -0.2834   -0.1785 C   0  0  0  0  0  0  0  0  0  0  0  0
   -0.4374    0.9607   -0.0909 C   0  0  0  0  0  0  0  0  0  0  0  0
   -0.7075    2.2298    0.2258 C   0  0  0  0  0  0  0  0  0  0  0  0
   -2.0664    2.2133    0.6380 C   0  0  0  0  0  0  0  0  0  0  0  0
   -2.8337    1.0222    0.6537 C   0  0  0  0  0  0  0  0  0  0  0  0
   -2.8097   -1.1427    0.2480 H   0  0  0  0  0  0  0  0  0  0  0  0
   -0.4045   -1.2000   -0.4966 H   0  0  0  0  0  0  0  0  0  0  0  0
   -0.0813    3.1184    0.1975 H   0  0  0  0  0  0  0  0  0  0  0  0
   -2.5088    3.1620    0.9470 H   0  0  0  0  0  0  0  0  0  0  0  0
    3.6679    0.8703   -1.3619 N   0  0  0  0  0  0  0  0  0  0  0  0
    4.7226    0.8483   -1.6879 N   0  0  0  0  0  0  0  0  0  0  0  0
   -4.0950    1.1663    1.0657 O   0  0  0  0  0  0  0  0  0  0  0  0
   -4.9598    0.0121    1.1186 C   0  0  0  0  0  0  0  0  0  0  0  0
   -5.9182    0.3897    1.4809 H   0  0  0  0  0  0  0  0  0  0  0  0
   -4.5611   -0.7313    1.8225 H   0  0  0  0  0  0  0  0  0  0  0  0
   -5.0831   -0.4184    0.1153 H   0  0  0  0  0  0  0  0  0  0  0  0
  1  6  2  0  0  0  0
  2  3  2  0  0  0  0
  2  1  1  0  0  0  0
  3  4  1  0  0  0  0
  4  5  2  0  0  0  0
  5  6  1  0  0  0  0
  5 10  1  0  0  0  0
  6 13  1  0  0  0  0
  7  1  1  0  0  0  0
  8  2  1  0  0  0  0
  9  4  1  0  0  0  0
 12 11  3  0  0  0  0
 13 14  1  0  0  0  0
 14 15  1  0  0  0  0
 14 16  1  0  0  0  0
 17 14  1  0  0  0  0
M  RAD  1   3   2
M  END
