Coordinates from ORCA-job p-CH3O-Ph-N2+-B3LYPG-aug-cc-pVDZ-scan-d09-49-n400
 OpenBabel09291715233D

 17 16  0  0  0  0  0  0  0  0999 V2000
   -2.0838   -0.2060    0.1990 C   0  0  0  0  0  0  0  0  0  0  0  0
   -0.7250   -0.2890   -0.2316 C   0  0  0  0  0  0  0  0  0  0  0  0
   -0.2423    0.9492   -0.1519 C   0  0  0  0  0  0  0  0  0  0  0  0
   -0.5248    2.2176    0.1674 C   0  0  0  0  0  0  0  0  0  0  0  0
   -1.8799    2.2113    0.5805 C   0  0  0  0  0  0  0  0  0  0  0  0
   -2.6525    1.0238    0.5987 C   0  0  0  0  0  0  0  0  0  0  0  0
   -2.6429   -1.1399    0.1985 H   0  0  0  0  0  0  0  0  0  0  0  0
   -0.2395   -1.2077   -0.5488 H   0  0  0  0  0  0  0  0  0  0  0  0
    0.1048    3.1027    0.1374 H   0  0  0  0  0  0  0  0  0  0  0  0
   -2.3211    3.1600    0.8896 H   0  0  0  0  0  0  0  0  0  0  0  0
    2.3293    0.8711   -0.9525 N   0  0  0  0  0  0  0  0  0  0  0  0
    3.3825    0.8404   -1.2801 N   0  0  0  0  0  0  0  0  0  0  0  0
   -3.9135    1.1745    1.0119 O   0  0  0  0  0  0  0  0  0  0  0  0
   -4.7833    0.0250    1.0668 C   0  0  0  0  0  0  0  0  0  0  0  0
   -5.7398    0.4072    1.4294 H   0  0  0  0  0  0  0  0  0  0  0  0
   -4.3880   -0.7201    1.7709 H   0  0  0  0  0  0  0  0  0  0  0  0
   -4.9097   -0.4068    0.0644 H   0  0  0  0  0  0  0  0  0  0  0  0
  1  6  2  0  0  0  0
  2  3  2  0  0  0  0
  2  1  1  0  0  0  0
  3  4  1  0  0  0  0
  4  5  2  0  0  0  0
  5  6  1  0  0  0  0
  5 10  1  0  0  0  0
  6 13  1  0  0  0  0
  7  1  1  0  0  0  0
  8  2  1  0  0  0  0
  9  4  1  0  0  0  0
 12 11  3  0  0  0  0
 13 14  1  0  0  0  0
 14 15  1  0  0  0  0
 14 16  1  0  0  0  0
 17 14  1  0  0  0  0
M  RAD  1   3   2
M  END
