Coordinates from ORCA-job p-CH3O-Ph-N2+-B3LYPG-aug-cc-pVDZ-scan-d09-49-n400
 OpenBabel09291715233D

 17 17  0  0  0  0  0  0  0  0999 V2000
   -1.9785   -0.2151    0.1652 C   0  0  0  0  0  0  0  0  0  0  0  0
   -0.6531   -0.2716   -0.2504 C   0  0  0  0  0  0  0  0  0  0  0  0
    0.0344    0.9353   -0.2390 C   0  0  0  0  0  0  0  0  0  0  0  0
   -0.4489    2.1882    0.1388 C   0  0  0  0  0  0  0  0  0  0  0  0
   -1.7699    2.2107    0.5468 C   0  0  0  0  0  0  0  0  0  0  0  0
   -2.5456    1.0208    0.5655 C   0  0  0  0  0  0  0  0  0  0  0  0
   -2.5623   -1.1312    0.1754 H   0  0  0  0  0  0  0  0  0  0  0  0
   -0.1909   -1.2054   -0.5632 H   0  0  0  0  0  0  0  0  0  0  0  0
    0.1641    3.0864    0.1163 H   0  0  0  0  0  0  0  0  0  0  0  0
   -2.2359    3.1432    0.8605 H   0  0  0  0  0  0  0  0  0  0  0  0
    1.5719    0.8793   -0.7194 N   0  0  0  0  0  0  0  0  0  0  0  0
    2.6299    0.8461   -1.0490 N   0  0  0  0  0  0  0  0  0  0  0  0
   -3.7995    1.1715    0.9765 O   0  0  0  0  0  0  0  0  0  0  0  0
   -4.6877    0.0334    1.0391 C   0  0  0  0  0  0  0  0  0  0  0  0
   -5.6358    0.4348    1.4026 H   0  0  0  0  0  0  0  0  0  0  0  0
   -4.3004   -0.7131    1.7447 H   0  0  0  0  0  0  0  0  0  0  0  0
   -4.8216   -0.4001    0.0394 H   0  0  0  0  0  0  0  0  0  0  0  0
  1  7  1  0  0  0  0
  1  6  2  0  0  0  0
  2  3  2  0  0  0  0
  2  1  1  0  0  0  0
  3  4  1  0  0  0  0
  4  5  2  0  0  0  0
  5  6  1  0  0  0  0
  5 10  1  0  0  0  0
  6 13  1  0  0  0  0
  8  2  1  0  0  0  0
  9  4  1  0  0  0  0
 11  3  1  0  0  0  0
 12 11  1  0  0  0  0
 13 14  1  0  0  0  0
 14 15  1  0  0  0  0
 14 16  1  0  0  0  0
 17 14  1  0  0  0  0
M  RAD  2  11   2  12   3
M  END
