Coordinates from ORCA-job p-CH3O-Ph-N2+-B3LYPG-aug-cc-pVDZ-scan-d09-49-n400
 OpenBabel09291715233D

 17 16  0  0  0  0  0  0  0  0999 V2000
   -2.3056   -0.2033    0.2659 C   0  0  0  0  0  0  0  0  0  0  0  0
   -0.9419   -0.2806   -0.1637 C   0  0  0  0  0  0  0  0  0  0  0  0
   -0.4895    0.9644   -0.0775 C   0  0  0  0  0  0  0  0  0  0  0  0
   -0.7570    2.2318    0.2426 C   0  0  0  0  0  0  0  0  0  0  0  0
   -2.1164    2.2141    0.6540 C   0  0  0  0  0  0  0  0  0  0  0  0
   -2.8825    1.0219    0.6684 C   0  0  0  0  0  0  0  0  0  0  0  0
   -2.8562   -1.1426    0.2584 H   0  0  0  0  0  0  0  0  0  0  0  0
   -0.4483   -1.1960   -0.4811 H   0  0  0  0  0  0  0  0  0  0  0  0
   -0.1310    3.1207    0.2145 H   0  0  0  0  0  0  0  0  0  0  0  0
   -2.5604    3.1626    0.9612 H   0  0  0  0  0  0  0  0  0  0  0  0
    4.0289    0.8700   -1.4718 N   0  0  0  0  0  0  0  0  0  0  0  0
    5.0838    0.8499   -1.7973 N   0  0  0  0  0  0  0  0  0  0  0  0
   -4.1441    1.1642    1.0797 O   0  0  0  0  0  0  0  0  0  0  0  0
   -5.0069    0.0084    1.1333 C   0  0  0  0  0  0  0  0  0  0  0  0
   -5.9660    0.3845    1.4954 H   0  0  0  0  0  0  0  0  0  0  0  0
   -4.6068   -0.7339    1.8375 H   0  0  0  0  0  0  0  0  0  0  0  0
   -5.1296   -0.4228    0.1302 H   0  0  0  0  0  0  0  0  0  0  0  0
  1  6  2  0  0  0  0
  2  3  2  0  0  0  0
  2  1  1  0  0  0  0
  3  4  1  0  0  0  0
  4  5  2  0  0  0  0
  5  6  1  0  0  0  0
  5 10  1  0  0  0  0
  6 13  1  0  0  0  0
  7  1  1  0  0  0  0
  8  2  1  0  0  0  0
  9  4  1  0  0  0  0
 12 11  3  0  0  0  0
 13 14  1  0  0  0  0
 14 15  1  0  0  0  0
 14 16  1  0  0  0  0
 17 14  1  0  0  0  0
M  RAD  1   3   2
M  END
