Coordinates from ORCA-job p-CH3O-Ph-N2+-B3LYPG-aug-cc-pVDZ-scan-d09-49-n400
 OpenBabel09291715233D

 17 16  0  0  0  0  0  0  0  0999 V2000
   -2.0371   -0.2075    0.1845 C   0  0  0  0  0  0  0  0  0  0  0  0
   -0.6878   -0.2860   -0.2425 C   0  0  0  0  0  0  0  0  0  0  0  0
   -0.1479    0.9437   -0.1818 C   0  0  0  0  0  0  0  0  0  0  0  0
   -0.4840    2.2087    0.1533 C   0  0  0  0  0  0  0  0  0  0  0  0
   -1.8299    2.2096    0.5650 C   0  0  0  0  0  0  0  0  0  0  0  0
   -2.6036    1.0233    0.5837 C   0  0  0  0  0  0  0  0  0  0  0  0
   -2.6041   -1.1359    0.1874 H   0  0  0  0  0  0  0  0  0  0  0  0
   -0.2113   -1.2098   -0.5578 H   0  0  0  0  0  0  0  0  0  0  0  0
    0.1396    3.0977    0.1259 H   0  0  0  0  0  0  0  0  0  0  0  0
   -2.2774    3.1542    0.8752 H   0  0  0  0  0  0  0  0  0  0  0  0
    1.9832    0.8735   -0.8462 N   0  0  0  0  0  0  0  0  0  0  0  0
    3.0358    0.8422   -1.1738 N   0  0  0  0  0  0  0  0  0  0  0  0
   -3.8644    1.1756    0.9971 O   0  0  0  0  0  0  0  0  0  0  0  0
   -4.7375    0.0294    1.0536 C   0  0  0  0  0  0  0  0  0  0  0  0
   -5.6925    0.4151    1.4163 H   0  0  0  0  0  0  0  0  0  0  0  0
   -4.3446   -0.7168    1.7577 H   0  0  0  0  0  0  0  0  0  0  0  0
   -4.8660   -0.4037    0.0521 H   0  0  0  0  0  0  0  0  0  0  0  0
  1  7  1  0  0  0  0
  1  6  2  0  0  0  0
  2  3  2  0  0  0  0
  2  1  1  0  0  0  0
  3  4  1  0  0  0  0
  4  5  2  0  0  0  0
  5  6  1  0  0  0  0
  5 10  1  0  0  0  0
  6 13  1  0  0  0  0
  8  2  1  0  0  0  0
  9  4  1  0  0  0  0
 12 11  3  0  0  0  0
 13 14  1  0  0  0  0
 14 15  1  0  0  0  0
 14 16  1  0  0  0  0
 17 14  1  0  0  0  0
M  RAD  1   3   2
M  END
