Coordinates from ORCA-job p-CH3O-Ph-N2+-B3LYPG-aug-cc-pVDZ-scan-d09-49-n400
 OpenBabel09291715233D

 17 16  0  0  0  0  0  0  0  0999 V2000
   -2.3012   -0.2034    0.2647 C   0  0  0  0  0  0  0  0  0  0  0  0
   -0.9375   -0.2808   -0.1651 C   0  0  0  0  0  0  0  0  0  0  0  0
   -0.4848    0.9640   -0.0784 C   0  0  0  0  0  0  0  0  0  0  0  0
   -0.7524    2.2316    0.2409 C   0  0  0  0  0  0  0  0  0  0  0  0
   -2.1117    2.2140    0.6525 C   0  0  0  0  0  0  0  0  0  0  0  0
   -2.8780    1.0220    0.6670 C   0  0  0  0  0  0  0  0  0  0  0  0
   -2.8518   -1.1428    0.2577 H   0  0  0  0  0  0  0  0  0  0  0  0
   -0.4441   -1.1963   -0.4827 H   0  0  0  0  0  0  0  0  0  0  0  0
   -0.1263    3.1203    0.2128 H   0  0  0  0  0  0  0  0  0  0  0  0
   -2.5555    3.1625    0.9600 H   0  0  0  0  0  0  0  0  0  0  0  0
    3.9951    0.8702   -1.4616 N   0  0  0  0  0  0  0  0  0  0  0  0
    5.0500    0.8498   -1.7871 N   0  0  0  0  0  0  0  0  0  0  0  0
   -4.1395    1.1644    1.0784 O   0  0  0  0  0  0  0  0  0  0  0  0
   -5.0026    0.0088    1.1319 C   0  0  0  0  0  0  0  0  0  0  0  0
   -5.9616    0.3851    1.4940 H   0  0  0  0  0  0  0  0  0  0  0  0
   -4.6026   -0.7337    1.8360 H   0  0  0  0  0  0  0  0  0  0  0  0
   -5.1252   -0.4222    0.1287 H   0  0  0  0  0  0  0  0  0  0  0  0
  1  6  2  0  0  0  0
  2  3  2  0  0  0  0
  2  1  1  0  0  0  0
  3  4  1  0  0  0  0
  4  5  2  0  0  0  0
  5  6  1  0  0  0  0
  5 10  1  0  0  0  0
  6 13  1  0  0  0  0
  7  1  1  0  0  0  0
  8  2  1  0  0  0  0
  9  4  1  0  0  0  0
 12 11  3  0  0  0  0
 13 14  1  0  0  0  0
 14 15  1  0  0  0  0
 14 16  1  0  0  0  0
 17 14  1  0  0  0  0
M  RAD  1   3   2
M  END
