Coordinates from ORCA-job p-CH3O-Ph-N2+-B3LYPG-aug-cc-pVDZ-scan-d09-49-n400
 OpenBabel09291715233D

 17 16  0  0  0  0  0  0  0  0999 V2000
   -2.2034   -0.2044    0.2358 C   0  0  0  0  0  0  0  0  0  0  0  0
   -0.8410   -0.2859   -0.1956 C   0  0  0  0  0  0  0  0  0  0  0  0
   -0.3800    0.9573   -0.1085 C   0  0  0  0  0  0  0  0  0  0  0  0
   -0.6493    2.2269    0.2072 C   0  0  0  0  0  0  0  0  0  0  0  0
   -2.0078    2.2127    0.6199 C   0  0  0  0  0  0  0  0  0  0  0  0
   -2.7768    1.0228    0.6365 C   0  0  0  0  0  0  0  0  0  0  0  0
   -2.7563   -1.1424    0.2325 H   0  0  0  0  0  0  0  0  0  0  0  0
   -0.3512   -1.2030   -0.5137 H   0  0  0  0  0  0  0  0  0  0  0  0
   -0.0215    3.1142    0.1782 H   0  0  0  0  0  0  0  0  0  0  0  0
   -2.4489    3.1619    0.9290 H   0  0  0  0  0  0  0  0  0  0  0  0
    3.2459    0.8702   -1.2330 N   0  0  0  0  0  0  0  0  0  0  0  0
    4.3002    0.8457   -1.5594 N   0  0  0  0  0  0  0  0  0  0  0  0
   -4.0379    1.1689    1.0489 O   0  0  0  0  0  0  0  0  0  0  0  0
   -4.9043    0.0160    1.1022 C   0  0  0  0  0  0  0  0  0  0  0  0
   -5.8621    0.3950    1.4646 H   0  0  0  0  0  0  0  0  0  0  0  0
   -4.5066   -0.7279    1.8061 H   0  0  0  0  0  0  0  0  0  0  0  0
   -5.0285   -0.4146    0.0991 H   0  0  0  0  0  0  0  0  0  0  0  0
  1  6  2  0  0  0  0
  2  3  2  0  0  0  0
  2  1  1  0  0  0  0
  3  4  1  0  0  0  0
  4  5  2  0  0  0  0
  5  6  1  0  0  0  0
  5 10  1  0  0  0  0
  6 13  1  0  0  0  0
  7  1  1  0  0  0  0
  8  2  1  0  0  0  0
  9  4  1  0  0  0  0
 12 11  3  0  0  0  0
 13 14  1  0  0  0  0
 14 15  1  0  0  0  0
 14 16  1  0  0  0  0
 17 14  1  0  0  0  0
M  RAD  1   3   2
M  END
