Coordinates from ORCA-job p-CH3O-Ph-N2+-B3LYPG-aug-cc-pVDZ-scan-d09-49-n400
 OpenBabel09291715233D

 17 16  0  0  0  0  0  0  0  0999 V2000
   -2.0573   -0.2063    0.1909 C   0  0  0  0  0  0  0  0  0  0  0  0
   -0.7018   -0.2875   -0.2385 C   0  0  0  0  0  0  0  0  0  0  0  0
   -0.1986    0.9476   -0.1655 C   0  0  0  0  0  0  0  0  0  0  0  0
   -0.5002    2.2147    0.1593 C   0  0  0  0  0  0  0  0  0  0  0  0
   -1.8521    2.2111    0.5720 C   0  0  0  0  0  0  0  0  0  0  0  0
   -2.6250    1.0239    0.5903 C   0  0  0  0  0  0  0  0  0  0  0  0
   -2.6198   -1.1378    0.1918 H   0  0  0  0  0  0  0  0  0  0  0  0
   -0.2204   -1.2083   -0.5547 H   0  0  0  0  0  0  0  0  0  0  0  0
    0.1256    3.1021    0.1309 H   0  0  0  0  0  0  0  0  0  0  0  0
   -2.2964    3.1578    0.8817 H   0  0  0  0  0  0  0  0  0  0  0  0
    2.1333    0.8703   -0.8927 N   0  0  0  0  0  0  0  0  0  0  0  0
    3.1860    0.8373   -1.2206 N   0  0  0  0  0  0  0  0  0  0  0  0
   -3.8862    1.1752    1.0037 O   0  0  0  0  0  0  0  0  0  0  0  0
   -4.7569    0.0270    1.0591 C   0  0  0  0  0  0  0  0  0  0  0  0
   -5.7130    0.4103    1.4217 H   0  0  0  0  0  0  0  0  0  0  0  0
   -4.3626   -0.7186    1.7631 H   0  0  0  0  0  0  0  0  0  0  0  0
   -4.8841   -0.4054    0.0571 H   0  0  0  0  0  0  0  0  0  0  0  0
  1  7  1  0  0  0  0
  1  6  2  0  0  0  0
  2  3  2  0  0  0  0
  2  1  1  0  0  0  0
  3  4  1  0  0  0  0
  4  5  2  0  0  0  0
  5  6  1  0  0  0  0
  5 10  1  0  0  0  0
  6 13  1  0  0  0  0
  8  2  1  0  0  0  0
  9  4  1  0  0  0  0
 12 11  3  0  0  0  0
 13 14  1  0  0  0  0
 14 15  1  0  0  0  0
 14 16  1  0  0  0  0
 17 14  1  0  0  0  0
M  RAD  1   3   2
M  END
