Coordinates from ORCA-job p-CH3O-Ph-N2+-B3LYPG-aug-cc-pVDZ-scan-d09-49-n400
 OpenBabel09291715233D

 17 17  0  0  0  0  0  0  0  0999 V2000
   -1.9587   -0.2185    0.1585 C   0  0  0  0  0  0  0  0  0  0  0  0
   -0.6423   -0.2677   -0.2530 C   0  0  0  0  0  0  0  0  0  0  0  0
    0.1040    0.9320   -0.2609 C   0  0  0  0  0  0  0  0  0  0  0  0
   -0.4383    2.1815    0.1344 C   0  0  0  0  0  0  0  0  0  0  0  0
   -1.7502    2.2110    0.5408 C   0  0  0  0  0  0  0  0  0  0  0  0
   -2.5288    1.0195    0.5601 C   0  0  0  0  0  0  0  0  0  0  0  0
   -2.5441   -1.1336    0.1694 H   0  0  0  0  0  0  0  0  0  0  0  0
   -0.1852   -1.2055   -0.5649 H   0  0  0  0  0  0  0  0  0  0  0  0
    0.1708    3.0836    0.1138 H   0  0  0  0  0  0  0  0  0  0  0  0
   -2.2180    3.1423    0.8549 H   0  0  0  0  0  0  0  0  0  0  0  0
    1.4311    0.8834   -0.6756 N   0  0  0  0  0  0  0  0  0  0  0  0
    2.4979    0.8495   -1.0080 N   0  0  0  0  0  0  0  0  0  0  0  0
   -3.7765    1.1685    0.9689 O   0  0  0  0  0  0  0  0  0  0  0  0
   -4.6743    0.0335    1.0350 C   0  0  0  0  0  0  0  0  0  0  0  0
   -5.6181    0.4442    1.3989 H   0  0  0  0  0  0  0  0  0  0  0  0
   -4.2886   -0.7117    1.7419 H   0  0  0  0  0  0  0  0  0  0  0  0
   -4.8102   -0.3986    0.0357 H   0  0  0  0  0  0  0  0  0  0  0  0
  1  7  1  0  0  0  0
  1  6  2  0  0  0  0
  2  1  1  0  0  0  0
  3  2  2  0  0  0  0
  3  4  1  0  0  0  0
  4  5  2  0  0  0  0
  5  6  1  0  0  0  0
  5 10  1  0  0  0  0
  6 13  1  0  0  0  0
  8  2  1  0  0  0  0
  9  4  1  0  0  0  0
 11  3  1  0  0  0  0
 12 11  1  0  0  0  0
 13 14  1  0  0  0  0
 14 15  1  0  0  0  0
 14 16  1  0  0  0  0
 17 14  1  0  0  0  0
M  RAD  2  11   2  12   3
M  END
