Coordinates from ORCA-job p-CH3O-Ph-N2+-B3LYPG-aug-cc-pVDZ-scan-d09-49-n400
 OpenBabel09291715233D

 17 17  0  0  0  0  0  0  0  0999 V2000
   -1.9694   -0.2167    0.1621 C   0  0  0  0  0  0  0  0  0  0  0  0
   -0.6482   -0.2694   -0.2515 C   0  0  0  0  0  0  0  0  0  0  0  0
    0.0666    0.9338   -0.2491 C   0  0  0  0  0  0  0  0  0  0  0  0
   -0.4442    2.1848    0.1368 C   0  0  0  0  0  0  0  0  0  0  0  0
   -1.7609    2.2110    0.5441 C   0  0  0  0  0  0  0  0  0  0  0  0
   -2.5377    1.0202    0.5630 C   0  0  0  0  0  0  0  0  0  0  0  0
   -2.5543   -1.1321    0.1728 H   0  0  0  0  0  0  0  0  0  0  0  0
   -0.1887   -1.2052   -0.5638 H   0  0  0  0  0  0  0  0  0  0  0  0
    0.1667    3.0850    0.1153 H   0  0  0  0  0  0  0  0  0  0  0  0
   -2.2283    3.1426    0.8581 H   0  0  0  0  0  0  0  0  0  0  0  0
    1.5084    0.8810   -0.6996 N   0  0  0  0  0  0  0  0  0  0  0  0
    2.5699    0.8475   -1.0304 N   0  0  0  0  0  0  0  0  0  0  0  0
   -3.7889    1.1701    0.9730 O   0  0  0  0  0  0  0  0  0  0  0  0
   -4.6815    0.0335    1.0372 C   0  0  0  0  0  0  0  0  0  0  0  0
   -5.6276    0.4391    1.4009 H   0  0  0  0  0  0  0  0  0  0  0  0
   -4.2950   -0.7125    1.7434 H   0  0  0  0  0  0  0  0  0  0  0  0
   -4.8163   -0.3994    0.0377 H   0  0  0  0  0  0  0  0  0  0  0  0
  1  7  1  0  0  0  0
  1  6  2  0  0  0  0
  2  3  2  0  0  0  0
  2  1  1  0  0  0  0
  3  4  1  0  0  0  0
  4  5  2  0  0  0  0
  5  6  1  0  0  0  0
  5 10  1  0  0  0  0
  6 13  1  0  0  0  0
  8  2  1  0  0  0  0
  9  4  1  0  0  0  0
 11  3  1  0  0  0  0
 12 11  1  0  0  0  0
 13 14  1  0  0  0  0
 14 15  1  0  0  0  0
 14 16  1  0  0  0  0
 17 14  1  0  0  0  0
M  RAD  2  11   2  12   3
M  END
