Coordinates from ORCA-job p-CH3O-Ph-N2+-B3LYPG-aug-cc-pVDZ-scan-d09-49-n400
 OpenBabel09291715233D

 17 17  0  0  0  0  0  0  0  0999 V2000
   -1.9803   -0.2147    0.1658 C   0  0  0  0  0  0  0  0  0  0  0  0
   -0.6540   -0.2721   -0.2503 C   0  0  0  0  0  0  0  0  0  0  0  0
    0.0279    0.9356   -0.2370 C   0  0  0  0  0  0  0  0  0  0  0  0
   -0.4498    2.1889    0.1392 C   0  0  0  0  0  0  0  0  0  0  0  0
   -1.7717    2.2107    0.5473 C   0  0  0  0  0  0  0  0  0  0  0  0
   -2.5472    1.0209    0.5660 C   0  0  0  0  0  0  0  0  0  0  0  0
   -2.5638   -1.1311    0.1759 H   0  0  0  0  0  0  0  0  0  0  0  0
   -0.1913   -1.2055   -0.5631 H   0  0  0  0  0  0  0  0  0  0  0  0
    0.1636    3.0868    0.1165 H   0  0  0  0  0  0  0  0  0  0  0  0
   -2.2374    3.1434    0.8610 H   0  0  0  0  0  0  0  0  0  0  0  0
    1.5846    0.8790   -0.7233 N   0  0  0  0  0  0  0  0  0  0  0  0
    2.6420    0.8458   -1.0527 N   0  0  0  0  0  0  0  0  0  0  0  0
   -3.8016    1.1718    0.9772 O   0  0  0  0  0  0  0  0  0  0  0  0
   -4.6890    0.0333    1.0395 C   0  0  0  0  0  0  0  0  0  0  0  0
   -5.6374    0.4339    1.4029 H   0  0  0  0  0  0  0  0  0  0  0  0
   -4.3015   -0.7132    1.7450 H   0  0  0  0  0  0  0  0  0  0  0  0
   -4.8227   -0.4002    0.0398 H   0  0  0  0  0  0  0  0  0  0  0  0
  1  7  1  0  0  0  0
  1  6  2  0  0  0  0
  2  3  2  0  0  0  0
  2  1  1  0  0  0  0
  3  4  1  0  0  0  0
  4  5  2  0  0  0  0
  5  6  1  0  0  0  0
  5 10  1  0  0  0  0
  6 13  1  0  0  0  0
  8  2  1  0  0  0  0
  9  4  1  0  0  0  0
 11  3  1  0  0  0  0
 12 11  1  0  0  0  0
 13 14  1  0  0  0  0
 14 15  1  0  0  0  0
 14 16  1  0  0  0  0
 17 14  1  0  0  0  0
M  RAD  2  11   2  12   3
M  END
