Coordinates from ORCA-job p-CH3O-Ph-N2+-B3LYPG-aug-cc-pVDZ-scan-d09-49-n400
 OpenBabel09291715233D

 17 17  0  0  0  0  0  0  0  0999 V2000
   -1.9685   -0.2169    0.1618 C   0  0  0  0  0  0  0  0  0  0  0  0
   -0.6477   -0.2692   -0.2516 C   0  0  0  0  0  0  0  0  0  0  0  0
    0.0697    0.9337   -0.2501 C   0  0  0  0  0  0  0  0  0  0  0  0
   -0.4438    2.1845    0.1366 C   0  0  0  0  0  0  0  0  0  0  0  0
   -1.7600    2.2110    0.5438 C   0  0  0  0  0  0  0  0  0  0  0  0
   -2.5370    1.0201    0.5627 C   0  0  0  0  0  0  0  0  0  0  0  0
   -2.5535   -1.1322    0.1726 H   0  0  0  0  0  0  0  0  0  0  0  0
   -0.1884   -1.2052   -0.5639 H   0  0  0  0  0  0  0  0  0  0  0  0
    0.1670    3.0849    0.1152 H   0  0  0  0  0  0  0  0  0  0  0  0
   -2.2275    3.1425    0.8578 H   0  0  0  0  0  0  0  0  0  0  0  0
    1.5020    0.8812   -0.6977 N   0  0  0  0  0  0  0  0  0  0  0  0
    2.5639    0.8476   -1.0286 N   0  0  0  0  0  0  0  0  0  0  0  0
   -3.7879    1.1700    0.9726 O   0  0  0  0  0  0  0  0  0  0  0  0
   -4.6809    0.0335    1.0370 C   0  0  0  0  0  0  0  0  0  0  0  0
   -5.6268    0.4395    1.4007 H   0  0  0  0  0  0  0  0  0  0  0  0
   -4.2944   -0.7124    1.7432 H   0  0  0  0  0  0  0  0  0  0  0  0
   -4.8158   -0.3993    0.0376 H   0  0  0  0  0  0  0  0  0  0  0  0
  1  7  1  0  0  0  0
  1  6  2  0  0  0  0
  2  3  2  0  0  0  0
  2  1  1  0  0  0  0
  3  4  1  0  0  0  0
  4  5  2  0  0  0  0
  5  6  1  0  0  0  0
  5 10  1  0  0  0  0
  6 13  1  0  0  0  0
  8  2  1  0  0  0  0
  9  4  1  0  0  0  0
 11  3  1  0  0  0  0
 12 11  1  0  0  0  0
 13 14  1  0  0  0  0
 14 15  1  0  0  0  0
 14 16  1  0  0  0  0
 17 14  1  0  0  0  0
M  RAD  2  11   2  12   3
M  END
