Coordinates from ORCA-job p-CH3O-Ph-N2+-B3LYPG-aug-cc-pVDZ-scan-d09-49-n400
 OpenBabel09291715233D

 17 16  0  0  0  0  0  0  0  0999 V2000
   -2.3225   -0.2027    0.2699 C   0  0  0  0  0  0  0  0  0  0  0  0
   -0.9586   -0.2799   -0.1584 C   0  0  0  0  0  0  0  0  0  0  0  0
   -0.5049    0.9662   -0.0758 C   0  0  0  0  0  0  0  0  0  0  0  0
   -0.7748    2.2331    0.2496 C   0  0  0  0  0  0  0  0  0  0  0  0
   -2.1343    2.2141    0.6600 C   0  0  0  0  0  0  0  0  0  0  0  0
   -2.8999    1.0218    0.6733 C   0  0  0  0  0  0  0  0  0  0  0  0
   -2.8735   -1.1418    0.2598 H   0  0  0  0  0  0  0  0  0  0  0  0
   -0.4654   -1.1960   -0.4746 H   0  0  0  0  0  0  0  0  0  0  0  0
   -0.1505    3.1232    0.2224 H   0  0  0  0  0  0  0  0  0  0  0  0
   -2.5796    3.1625    0.9654 H   0  0  0  0  0  0  0  0  0  0  0  0
    4.1582    0.8695   -1.5108 N   0  0  0  0  0  0  0  0  0  0  0  0
    5.2133    0.8499   -1.8361 N   0  0  0  0  0  0  0  0  0  0  0  0
   -4.1617    1.1634    1.0842 O   0  0  0  0  0  0  0  0  0  0  0  0
   -5.0235    0.0069    1.1392 C   0  0  0  0  0  0  0  0  0  0  0  0
   -5.9828    0.3826    1.5012 H   0  0  0  0  0  0  0  0  0  0  0  0
   -4.6226   -0.7344    1.8439 H   0  0  0  0  0  0  0  0  0  0  0  0
   -5.1462   -0.4252    0.1365 H   0  0  0  0  0  0  0  0  0  0  0  0
  1  6  2  0  0  0  0
  2  3  2  0  0  0  0
  2  1  1  0  0  0  0
  3  4  1  0  0  0  0
  4  5  2  0  0  0  0
  5  6  1  0  0  0  0
  5 10  1  0  0  0  0
  6 13  1  0  0  0  0
  7  1  1  0  0  0  0
  8  2  1  0  0  0  0
  9  4  1  0  0  0  0
 12 11  3  0  0  0  0
 13 14  1  0  0  0  0
 14 15  1  0  0  0  0
 14 16  1  0  0  0  0
 17 14  1  0  0  0  0
M  RAD  1   3   2
M  END
