Coordinates from ORCA-job p-CH3O-Ph-N2+-B3LYPG-aug-cc-pVDZ-scan-d09-49-n400
 OpenBabel09291715233D

 17 16  0  0  0  0  0  0  0  0999 V2000
   -2.1604   -0.2050    0.2226 C   0  0  0  0  0  0  0  0  0  0  0  0
   -0.7980   -0.2872   -0.2090 C   0  0  0  0  0  0  0  0  0  0  0  0
   -0.3378    0.9548   -0.1217 C   0  0  0  0  0  0  0  0  0  0  0  0
   -0.6034    2.2240    0.1926 C   0  0  0  0  0  0  0  0  0  0  0  0
   -1.9619    2.2126    0.6058 C   0  0  0  0  0  0  0  0  0  0  0  0
   -2.7323    1.0233    0.6230 C   0  0  0  0  0  0  0  0  0  0  0  0
   -2.7146   -1.1421    0.2200 H   0  0  0  0  0  0  0  0  0  0  0  0
   -0.3075   -1.2036   -0.5273 H   0  0  0  0  0  0  0  0  0  0  0  0
    0.0270    3.1093    0.1624 H   0  0  0  0  0  0  0  0  0  0  0  0
   -2.4021    3.1622    0.9148 H   0  0  0  0  0  0  0  0  0  0  0  0
    2.9143    0.8699   -1.1316 N   0  0  0  0  0  0  0  0  0  0  0  0
    3.9682    0.8433   -1.4584 N   0  0  0  0  0  0  0  0  0  0  0  0
   -3.9933    1.1710    1.0357 O   0  0  0  0  0  0  0  0  0  0  0  0
   -4.8607    0.0191    1.0894 C   0  0  0  0  0  0  0  0  0  0  0  0
   -5.8181    0.3989    1.4518 H   0  0  0  0  0  0  0  0  0  0  0  0
   -4.4636   -0.7252    1.7933 H   0  0  0  0  0  0  0  0  0  0  0  0
   -4.9854   -0.4118    0.0864 H   0  0  0  0  0  0  0  0  0  0  0  0
  1  6  2  0  0  0  0
  2  3  2  0  0  0  0
  2  1  1  0  0  0  0
  3  4  1  0  0  0  0
  4  5  2  0  0  0  0
  5  6  1  0  0  0  0
  5 10  1  0  0  0  0
  6 13  1  0  0  0  0
  7  1  1  0  0  0  0
  8  2  1  0  0  0  0
  9  4  1  0  0  0  0
 12 11  3  0  0  0  0
 13 14  1  0  0  0  0
 14 15  1  0  0  0  0
 14 16  1  0  0  0  0
 17 14  1  0  0  0  0
M  RAD  1   3   2
M  END
