Coordinates from ORCA-job p-CH3O-Ph-N2+-B3LYPG-aug-cc-pVDZ-scan-d09-49-n400
 OpenBabel09291715233D

 17 17  0  0  0  0  0  0  0  0999 V2000
   -1.9739   -0.2159    0.1636 C   0  0  0  0  0  0  0  0  0  0  0  0
   -0.6507   -0.2704   -0.2510 C   0  0  0  0  0  0  0  0  0  0  0  0
    0.0506    0.9346   -0.2441 C   0  0  0  0  0  0  0  0  0  0  0  0
   -0.4466    2.1865    0.1378 C   0  0  0  0  0  0  0  0  0  0  0  0
   -1.7654    2.2109    0.5455 C   0  0  0  0  0  0  0  0  0  0  0  0
   -2.5416    1.0205    0.5642 C   0  0  0  0  0  0  0  0  0  0  0  0
   -2.5584   -1.1316    0.1742 H   0  0  0  0  0  0  0  0  0  0  0  0
   -0.1898   -1.2052   -0.5635 H   0  0  0  0  0  0  0  0  0  0  0  0
    0.1653    3.0857    0.1158 H   0  0  0  0  0  0  0  0  0  0  0  0
   -2.2322    3.1428    0.8593 H   0  0  0  0  0  0  0  0  0  0  0  0
    1.5403    0.8802   -0.7095 N   0  0  0  0  0  0  0  0  0  0  0  0
    2.5999    0.8467   -1.0397 N   0  0  0  0  0  0  0  0  0  0  0  0
   -3.7942    1.1708    0.9747 O   0  0  0  0  0  0  0  0  0  0  0  0
   -4.6845    0.0335    1.0381 C   0  0  0  0  0  0  0  0  0  0  0  0
   -5.6317    0.4369    1.4017 H   0  0  0  0  0  0  0  0  0  0  0  0
   -4.2976   -0.7128    1.7440 H   0  0  0  0  0  0  0  0  0  0  0  0
   -4.8190   -0.3997    0.0386 H   0  0  0  0  0  0  0  0  0  0  0  0
  1  7  1  0  0  0  0
  1  6  2  0  0  0  0
  2  3  2  0  0  0  0
  2  1  1  0  0  0  0
  3  4  1  0  0  0  0
  4  5  2  0  0  0  0
  5  6  1  0  0  0  0
  5 10  1  0  0  0  0
  6 13  1  0  0  0  0
  8  2  1  0  0  0  0
  9  4  1  0  0  0  0
 11  3  1  0  0  0  0
 12 11  1  0  0  0  0
 13 14  1  0  0  0  0
 14 15  1  0  0  0  0
 14 16  1  0  0  0  0
 17 14  1  0  0  0  0
M  RAD  2  11   2  12   3
M  END
