Coordinates from ORCA-job p-CH3O-Ph-N2+-B3LYPG-aug-cc-pVDZ-scan-d09-49-n400
 OpenBabel09291715233D

 17 16  0  0  0  0  0  0  0  0999 V2000
   -2.1237   -0.2052    0.2114 C   0  0  0  0  0  0  0  0  0  0  0  0
   -0.7628   -0.2891   -0.2201 C   0  0  0  0  0  0  0  0  0  0  0  0
   -0.2920    0.9521   -0.1362 C   0  0  0  0  0  0  0  0  0  0  0  0
   -0.5655    2.2219    0.1806 C   0  0  0  0  0  0  0  0  0  0  0  0
   -1.9228    2.2117    0.5937 C   0  0  0  0  0  0  0  0  0  0  0  0
   -2.6940    1.0235    0.6113 C   0  0  0  0  0  0  0  0  0  0  0  0
   -2.6799   -1.1411    0.2096 H   0  0  0  0  0  0  0  0  0  0  0  0
   -0.2754   -1.2072   -0.5377 H   0  0  0  0  0  0  0  0  0  0  0  0
    0.0638    3.1076    0.1508 H   0  0  0  0  0  0  0  0  0  0  0  0
   -2.3631    3.1611    0.9027 H   0  0  0  0  0  0  0  0  0  0  0  0
    2.6342    0.8703   -1.0458 N   0  0  0  0  0  0  0  0  0  0  0  0
    3.6878    0.8421   -1.3730 N   0  0  0  0  0  0  0  0  0  0  0  0
   -3.9550    1.1727    1.0243 O   0  0  0  0  0  0  0  0  0  0  0  0
   -4.8237    0.0219    1.0786 C   0  0  0  0  0  0  0  0  0  0  0  0
   -5.7806    0.4030    1.4411 H   0  0  0  0  0  0  0  0  0  0  0  0
   -4.4275   -0.7227    1.7827 H   0  0  0  0  0  0  0  0  0  0  0  0
   -4.9493   -0.4094    0.0759 H   0  0  0  0  0  0  0  0  0  0  0  0
  1  6  2  0  0  0  0
  2  3  2  0  0  0  0
  2  1  1  0  0  0  0
  3  4  1  0  0  0  0
  4  5  2  0  0  0  0
  5  6  1  0  0  0  0
  5 10  1  0  0  0  0
  6 13  1  0  0  0  0
  7  1  1  0  0  0  0
  8  2  1  0  0  0  0
  9  4  1  0  0  0  0
 12 11  3  0  0  0  0
 13 14  1  0  0  0  0
 14 15  1  0  0  0  0
 14 16  1  0  0  0  0
 17 14  1  0  0  0  0
M  RAD  1   3   2
M  END
