Coordinates from ORCA-job p-CH3O-Ph-N2+-B3LYPG-aug-cc-pVDZ-scan-d09-49-n400
 OpenBabel09291715233D

 17 16  0  0  0  0  0  0  0  0999 V2000
   -2.0860   -0.2058    0.1997 C   0  0  0  0  0  0  0  0  0  0  0  0
   -0.7272   -0.2890   -0.2310 C   0  0  0  0  0  0  0  0  0  0  0  0
   -0.2443    0.9493   -0.1512 C   0  0  0  0  0  0  0  0  0  0  0  0
   -0.5272    2.2178    0.1682 C   0  0  0  0  0  0  0  0  0  0  0  0
   -1.8823    2.2112    0.5812 C   0  0  0  0  0  0  0  0  0  0  0  0
   -2.6548    1.0237    0.5994 C   0  0  0  0  0  0  0  0  0  0  0  0
   -2.6448   -1.1399    0.1991 H   0  0  0  0  0  0  0  0  0  0  0  0
   -0.2419   -1.2080   -0.5481 H   0  0  0  0  0  0  0  0  0  0  0  0
    0.1020    3.1032    0.1384 H   0  0  0  0  0  0  0  0  0  0  0  0
   -2.3234    3.1600    0.8903 H   0  0  0  0  0  0  0  0  0  0  0  0
    2.3464    0.8711   -0.9577 N   0  0  0  0  0  0  0  0  0  0  0  0
    3.3996    0.8406   -1.2853 N   0  0  0  0  0  0  0  0  0  0  0  0
   -3.9158    1.1744    1.0126 O   0  0  0  0  0  0  0  0  0  0  0  0
   -4.7856    0.0249    1.0674 C   0  0  0  0  0  0  0  0  0  0  0  0
   -5.7421    0.4071    1.4300 H   0  0  0  0  0  0  0  0  0  0  0  0
   -4.3903   -0.7202    1.7715 H   0  0  0  0  0  0  0  0  0  0  0  0
   -4.9120   -0.4069    0.0651 H   0  0  0  0  0  0  0  0  0  0  0  0
  1  6  2  0  0  0  0
  2  3  2  0  0  0  0
  2  1  1  0  0  0  0
  3  4  1  0  0  0  0
  4  5  2  0  0  0  0
  5  6  1  0  0  0  0
  5 10  1  0  0  0  0
  6 13  1  0  0  0  0
  7  1  1  0  0  0  0
  8  2  1  0  0  0  0
  9  4  1  0  0  0  0
 12 11  3  0  0  0  0
 13 14  1  0  0  0  0
 14 15  1  0  0  0  0
 14 16  1  0  0  0  0
 17 14  1  0  0  0  0
M  RAD  1   3   2
M  END
