Coordinates from ORCA-job p-CH3O-Ph-N2+-B3LYPG-aug-cc-pVDZ-scan-d09-49-n400
 OpenBabel09291715233D

 17 16  0  0  0  0  0  0  0  0999 V2000
   -2.3145   -0.2031    0.2681 C   0  0  0  0  0  0  0  0  0  0  0  0
   -0.9505   -0.2800   -0.1609 C   0  0  0  0  0  0  0  0  0  0  0  0
   -0.4989    0.9653   -0.0759 C   0  0  0  0  0  0  0  0  0  0  0  0
   -0.7663    2.2323    0.2461 C   0  0  0  0  0  0  0  0  0  0  0  0
   -2.1258    2.2142    0.6571 C   0  0  0  0  0  0  0  0  0  0  0  0
   -2.8917    1.0219    0.6710 C   0  0  0  0  0  0  0  0  0  0  0  0
   -2.8651   -1.1424    0.2594 H   0  0  0  0  0  0  0  0  0  0  0  0
   -0.4566   -1.1954   -0.4779 H   0  0  0  0  0  0  0  0  0  0  0  0
   -0.1406    3.1214    0.2182 H   0  0  0  0  0  0  0  0  0  0  0  0
   -2.5703    3.1628    0.9635 H   0  0  0  0  0  0  0  0  0  0  0  0
    4.0966    0.8698   -1.4923 N   0  0  0  0  0  0  0  0  0  0  0  0
    5.1515    0.8499   -1.8176 N   0  0  0  0  0  0  0  0  0  0  0  0
   -4.1534    1.1638    1.0821 O   0  0  0  0  0  0  0  0  0  0  0  0
   -5.0157    0.0076    1.1363 C   0  0  0  0  0  0  0  0  0  0  0  0
   -5.9749    0.3835    1.4984 H   0  0  0  0  0  0  0  0  0  0  0  0
   -4.6151   -0.7343    1.8407 H   0  0  0  0  0  0  0  0  0  0  0  0
   -5.1382   -0.4239    0.1334 H   0  0  0  0  0  0  0  0  0  0  0  0
  1  6  2  0  0  0  0
  2  3  2  0  0  0  0
  2  1  1  0  0  0  0
  3  4  1  0  0  0  0
  4  5  2  0  0  0  0
  5  6  1  0  0  0  0
  5 10  1  0  0  0  0
  6 13  1  0  0  0  0
  7  1  1  0  0  0  0
  8  2  1  0  0  0  0
  9  4  1  0  0  0  0
 12 11  3  0  0  0  0
 13 14  1  0  0  0  0
 14 15  1  0  0  0  0
 14 16  1  0  0  0  0
 17 14  1  0  0  0  0
M  RAD  1   3   2
M  END
