Coordinates from ORCA-job p-CH3O-Ph-N2+-B3LYPG-aug-cc-pVDZ-scan-d09-49-n400
 OpenBabel09291715233D

 17 17  0  0  0  0  0  0  0  0999 V2000
   -1.9517   -0.2194    0.1562 C   0  0  0  0  0  0  0  0  0  0  0  0
   -0.6383   -0.2671   -0.2541 C   0  0  0  0  0  0  0  0  0  0  0  0
    0.1284    0.9307   -0.2686 C   0  0  0  0  0  0  0  0  0  0  0  0
   -0.4343    2.1799    0.1328 C   0  0  0  0  0  0  0  0  0  0  0  0
   -1.7432    2.2108    0.5386 C   0  0  0  0  0  0  0  0  0  0  0  0
   -2.5231    1.0191    0.5583 C   0  0  0  0  0  0  0  0  0  0  0  0
   -2.5369   -1.1348    0.1670 H   0  0  0  0  0  0  0  0  0  0  0  0
   -0.1822   -1.2059   -0.5659 H   0  0  0  0  0  0  0  0  0  0  0  0
    0.1743    3.0828    0.1125 H   0  0  0  0  0  0  0  0  0  0  0  0
   -2.2108    3.1424    0.8527 H   0  0  0  0  0  0  0  0  0  0  0  0
    1.3790    0.8850   -0.6593 N   0  0  0  0  0  0  0  0  0  0  0  0
    2.4500    0.8509   -0.9932 N   0  0  0  0  0  0  0  0  0  0  0  0
   -3.7685    1.1674    0.9662 O   0  0  0  0  0  0  0  0  0  0  0  0
   -4.6698    0.0335    1.0336 C   0  0  0  0  0  0  0  0  0  0  0  0
   -5.6119    0.4474    1.3976 H   0  0  0  0  0  0  0  0  0  0  0  0
   -4.2845   -0.7113    1.7410 H   0  0  0  0  0  0  0  0  0  0  0  0
   -4.8062   -0.3980    0.0343 H   0  0  0  0  0  0  0  0  0  0  0  0
  1  7  1  0  0  0  0
  1  6  2  0  0  0  0
  2  1  1  0  0  0  0
  3  2  2  0  0  0  0
  3  4  1  0  0  0  0
  4  5  2  0  0  0  0
  5  6  1  0  0  0  0
  5 10  1  0  0  0  0
  6 13  1  0  0  0  0
  8  2  1  0  0  0  0
  9  4  1  0  0  0  0
 11  3  1  0  0  0  0
 12 11  1  0  0  0  0
 13 14  1  0  0  0  0
 14 15  1  0  0  0  0
 14 16  1  0  0  0  0
 17 14  1  0  0  0  0
M  RAD  2  11   2  12   3
M  END
