Coordinates from ORCA-job p-CH3O-Ph-N2+-B3LYPG-aug-cc-pVDZ-scan-d09-49-n400
 OpenBabel09291715233D

 17 17  0  0  0  0  0  0  0  0999 V2000
   -1.9578   -0.2186    0.1582 C   0  0  0  0  0  0  0  0  0  0  0  0
   -0.6417   -0.2676   -0.2531 C   0  0  0  0  0  0  0  0  0  0  0  0
    0.1070    0.9318   -0.2619 C   0  0  0  0  0  0  0  0  0  0  0  0
   -0.4378    2.1813    0.1342 C   0  0  0  0  0  0  0  0  0  0  0  0
   -1.7493    2.2110    0.5405 C   0  0  0  0  0  0  0  0  0  0  0  0
   -2.5281    1.0195    0.5599 C   0  0  0  0  0  0  0  0  0  0  0  0
   -2.5432   -1.1337    0.1691 H   0  0  0  0  0  0  0  0  0  0  0  0
   -0.1849   -1.2055   -0.5651 H   0  0  0  0  0  0  0  0  0  0  0  0
    0.1712    3.0835    0.1136 H   0  0  0  0  0  0  0  0  0  0  0  0
   -2.2171    3.1423    0.8546 H   0  0  0  0  0  0  0  0  0  0  0  0
    1.4246    0.8836   -0.6735 N   0  0  0  0  0  0  0  0  0  0  0  0
    2.4919    0.8497   -1.0062 N   0  0  0  0  0  0  0  0  0  0  0  0
   -3.7755    1.1683    0.9685 O   0  0  0  0  0  0  0  0  0  0  0  0
   -4.6737    0.0335    1.0348 C   0  0  0  0  0  0  0  0  0  0  0  0
   -5.6173    0.4446    1.3987 H   0  0  0  0  0  0  0  0  0  0  0  0
   -4.2881   -0.7117    1.7418 H   0  0  0  0  0  0  0  0  0  0  0  0
   -4.8097   -0.3985    0.0355 H   0  0  0  0  0  0  0  0  0  0  0  0
  1  7  1  0  0  0  0
  1  6  2  0  0  0  0
  2  1  1  0  0  0  0
  3  2  2  0  0  0  0
  3  4  1  0  0  0  0
  4  5  2  0  0  0  0
  5  6  1  0  0  0  0
  5 10  1  0  0  0  0
  6 13  1  0  0  0  0
  8  2  1  0  0  0  0
  9  4  1  0  0  0  0
 11  3  1  0  0  0  0
 12 11  1  0  0  0  0
 13 14  1  0  0  0  0
 14 15  1  0  0  0  0
 14 16  1  0  0  0  0
 17 14  1  0  0  0  0
M  RAD  2  11   2  12   3
M  END
