Coordinates from ORCA-job p-CH3O-Ph-N2+-B3LYPG-aug-cc-pVDZ-scan-d09-49-n400
 OpenBabel09291715233D

 17 16  0  0  0  0  0  0  0  0999 V2000
   -2.0196   -0.2088    0.1789 C   0  0  0  0  0  0  0  0  0  0  0  0
   -0.6757   -0.2830   -0.2456 C   0  0  0  0  0  0  0  0  0  0  0  0
   -0.1019    0.9415   -0.1962 C   0  0  0  0  0  0  0  0  0  0  0  0
   -0.4713    2.2039    0.1485 C   0  0  0  0  0  0  0  0  0  0  0  0
   -1.8115    2.2095    0.5593 C   0  0  0  0  0  0  0  0  0  0  0  0
   -2.5853    1.0229    0.5780 C   0  0  0  0  0  0  0  0  0  0  0  0
   -2.5915   -1.1335    0.1840 H   0  0  0  0  0  0  0  0  0  0  0  0
   -0.2030   -1.2091   -0.5602 H   0  0  0  0  0  0  0  0  0  0  0  0
    0.1498    3.0948    0.1222 H   0  0  0  0  0  0  0  0  0  0  0  0
   -2.2640    3.1508    0.8705 H   0  0  0  0  0  0  0  0  0  0  0  0
    1.8568    0.8746   -0.8074 N   0  0  0  0  0  0  0  0  0  0  0  0
    2.9093    0.8427   -1.1351 N   0  0  0  0  0  0  0  0  0  0  0  0
   -3.8456    1.1755    0.9913 O   0  0  0  0  0  0  0  0  0  0  0  0
   -4.7209    0.0310    1.0488 C   0  0  0  0  0  0  0  0  0  0  0  0
   -5.6749    0.4191    1.4117 H   0  0  0  0  0  0  0  0  0  0  0  0
   -4.3294   -0.7157    1.7531 H   0  0  0  0  0  0  0  0  0  0  0  0
   -4.8507   -0.4026    0.0478 H   0  0  0  0  0  0  0  0  0  0  0  0
  1  7  1  0  0  0  0
  1  6  2  0  0  0  0
  2  3  2  0  0  0  0
  2  1  1  0  0  0  0
  3  4  1  0  0  0  0
  4  5  2  0  0  0  0
  5  6  1  0  0  0  0
  5 10  1  0  0  0  0
  6 13  1  0  0  0  0
  8  2  1  0  0  0  0
  9  4  1  0  0  0  0
 12 11  3  0  0  0  0
 13 14  1  0  0  0  0
 14 15  1  0  0  0  0
 14 16  1  0  0  0  0
 17 14  1  0  0  0  0
M  RAD  1   3   2
M  END
