Coordinates from ORCA-job p-CH3O-Ph-N2+-B3LYPG-aug-cc-pVDZ-scan-d09-49-n400
 OpenBabel09291715233D

 17 16  0  0  0  0  0  0  0  0999 V2000
   -2.0670   -0.2063    0.1938 C   0  0  0  0  0  0  0  0  0  0  0  0
   -0.7102   -0.2884   -0.2360 C   0  0  0  0  0  0  0  0  0  0  0  0
   -0.2150    0.9479   -0.1605 C   0  0  0  0  0  0  0  0  0  0  0  0
   -0.5088    2.2155    0.1621 C   0  0  0  0  0  0  0  0  0  0  0  0
   -1.8620    2.2110    0.5750 C   0  0  0  0  0  0  0  0  0  0  0  0
   -2.6349    1.0238    0.5933 C   0  0  0  0  0  0  0  0  0  0  0  0
   -2.6281   -1.1388    0.1942 H   0  0  0  0  0  0  0  0  0  0  0  0
   -0.2269   -1.2083   -0.5527 H   0  0  0  0  0  0  0  0  0  0  0  0
    0.1192    3.1014    0.1328 H   0  0  0  0  0  0  0  0  0  0  0  0
   -2.3047    3.1587    0.8844 H   0  0  0  0  0  0  0  0  0  0  0  0
    2.2032    0.8713   -0.9139 N   0  0  0  0  0  0  0  0  0  0  0  0
    3.2562    0.8395   -1.2416 N   0  0  0  0  0  0  0  0  0  0  0  0
   -3.8960    1.1751    1.0067 O   0  0  0  0  0  0  0  0  0  0  0  0
   -4.7665    0.0264    1.0619 C   0  0  0  0  0  0  0  0  0  0  0  0
   -5.7227    0.4094    1.4245 H   0  0  0  0  0  0  0  0  0  0  0  0
   -4.3718   -0.7190    1.7660 H   0  0  0  0  0  0  0  0  0  0  0  0
   -4.8934   -0.4058    0.0598 H   0  0  0  0  0  0  0  0  0  0  0  0
  1  7  1  0  0  0  0
  1  6  2  0  0  0  0
  2  3  2  0  0  0  0
  2  1  1  0  0  0  0
  3  4  1  0  0  0  0
  4  5  2  0  0  0  0
  5  6  1  0  0  0  0
  5 10  1  0  0  0  0
  6 13  1  0  0  0  0
  8  2  1  0  0  0  0
  9  4  1  0  0  0  0
 12 11  3  0  0  0  0
 13 14  1  0  0  0  0
 14 15  1  0  0  0  0
 14 16  1  0  0  0  0
 17 14  1  0  0  0  0
M  RAD  1   3   2
M  END
