Coordinates from ORCA-job p-CH3O-Ph-N2+-B3LYPG-aug-cc-pVDZ-scan-d09-49-n400
 OpenBabel09291715233D

 17 16  0  0  0  0  0  0  0  0999 V2000
   -2.0680   -0.2064    0.1941 C   0  0  0  0  0  0  0  0  0  0  0  0
   -0.7110   -0.2885   -0.2358 C   0  0  0  0  0  0  0  0  0  0  0  0
   -0.2174    0.9480   -0.1597 C   0  0  0  0  0  0  0  0  0  0  0  0
   -0.5096    2.2157    0.1624 C   0  0  0  0  0  0  0  0  0  0  0  0
   -1.8631    2.2111    0.5754 C   0  0  0  0  0  0  0  0  0  0  0  0
   -2.6359    1.0238    0.5936 C   0  0  0  0  0  0  0  0  0  0  0  0
   -2.6291   -1.1389    0.1945 H   0  0  0  0  0  0  0  0  0  0  0  0
   -0.2271   -1.2081   -0.5526 H   0  0  0  0  0  0  0  0  0  0  0  0
    0.1188    3.1013    0.1329 H   0  0  0  0  0  0  0  0  0  0  0  0
   -2.3057    3.1589    0.8847 H   0  0  0  0  0  0  0  0  0  0  0  0
    2.2104    0.8713   -0.9161 N   0  0  0  0  0  0  0  0  0  0  0  0
    3.2633    0.8396   -1.2438 N   0  0  0  0  0  0  0  0  0  0  0  0
   -3.8970    1.1750    1.0070 O   0  0  0  0  0  0  0  0  0  0  0  0
   -4.7674    0.0263    1.0622 C   0  0  0  0  0  0  0  0  0  0  0  0
   -5.7236    0.4092    1.4248 H   0  0  0  0  0  0  0  0  0  0  0  0
   -4.3727   -0.7191    1.7662 H   0  0  0  0  0  0  0  0  0  0  0  0
   -4.8943   -0.4059    0.0600 H   0  0  0  0  0  0  0  0  0  0  0  0
  1  7  1  0  0  0  0
  1  6  2  0  0  0  0
  2  3  2  0  0  0  0
  2  1  1  0  0  0  0
  3  4  1  0  0  0  0
  4  5  2  0  0  0  0
  5  6  1  0  0  0  0
  5 10  1  0  0  0  0
  6 13  1  0  0  0  0
  8  2  1  0  0  0  0
  9  4  1  0  0  0  0
 12 11  3  0  0  0  0
 13 14  1  0  0  0  0
 14 15  1  0  0  0  0
 14 16  1  0  0  0  0
 17 14  1  0  0  0  0
M  RAD  1   3   2
M  END
