Coordinates from ORCA-job p-CH3O-Ph-N2+-B3LYPG-aug-cc-pVDZ-scan-d09-49-n400
 OpenBabel09291715233D

 17 17  0  0  0  0  0  0  0  0999 V2000
   -2.0034   -0.2107    0.1736 C   0  0  0  0  0  0  0  0  0  0  0  0
   -0.6661   -0.2790   -0.2478 C   0  0  0  0  0  0  0  0  0  0  0  0
   -0.0523    0.9392   -0.2118 C   0  0  0  0  0  0  0  0  0  0  0  0
   -0.4614    2.1983    0.1445 C   0  0  0  0  0  0  0  0  0  0  0  0
   -1.7949    2.2098    0.5543 C   0  0  0  0  0  0  0  0  0  0  0  0
   -2.5690    1.0223    0.5729 C   0  0  0  0  0  0  0  0  0  0  0  0
   -2.5806   -1.1316    0.1810 H   0  0  0  0  0  0  0  0  0  0  0  0
   -0.1971   -1.2076   -0.5617 H   0  0  0  0  0  0  0  0  0  0  0  0
    0.1569    3.0915    0.1194 H   0  0  0  0  0  0  0  0  0  0  0  0
   -2.2532    3.1473    0.8665 H   0  0  0  0  0  0  0  0  0  0  0  0
    1.7436    0.8759   -0.7725 N   0  0  0  0  0  0  0  0  0  0  0  0
    2.7967    0.8435   -1.1005 N   0  0  0  0  0  0  0  0  0  0  0  0
   -3.8280    1.1746    0.9858 O   0  0  0  0  0  0  0  0  0  0  0  0
   -4.7067    0.0323    1.0447 C   0  0  0  0  0  0  0  0  0  0  0  0
   -5.6592    0.4241    1.4078 H   0  0  0  0  0  0  0  0  0  0  0  0
   -4.3168   -0.7147    1.7492 H   0  0  0  0  0  0  0  0  0  0  0  0
   -4.8380   -0.4017    0.0443 H   0  0  0  0  0  0  0  0  0  0  0  0
  1  7  1  0  0  0  0
  1  6  2  0  0  0  0
  2  3  2  0  0  0  0
  2  1  1  0  0  0  0
  3  4  1  0  0  0  0
  4  5  2  0  0  0  0
  5  6  1  0  0  0  0
  5 10  1  0  0  0  0
  6 13  1  0  0  0  0
  8  2  1  0  0  0  0
  9  4  1  0  0  0  0
 11  3  1  0  0  0  0
 12 11  1  0  0  0  0
 13 14  1  0  0  0  0
 14 15  1  0  0  0  0
 14 16  1  0  0  0  0
 17 14  1  0  0  0  0
M  RAD  2  11   2  12   3
M  END
