Coordinates from ORCA-job p-CH3O-Ph-N2+-B3LYPG-aug-cc-pVDZ-scan-d09-49-n400
 OpenBabel09291715233D

 17 17  0  0  0  0  0  0  0  0999 V2000
   -1.9322   -0.2220    0.1497 C   0  0  0  0  0  0  0  0  0  0  0  0
   -0.6273   -0.2691   -0.2579 C   0  0  0  0  0  0  0  0  0  0  0  0
    0.2019    0.9267   -0.2923 C   0  0  0  0  0  0  0  0  0  0  0  0
   -0.4229    2.1788    0.1291 C   0  0  0  0  0  0  0  0  0  0  0  0
   -1.7237    2.2102    0.5326 C   0  0  0  0  0  0  0  0  0  0  0  0
   -2.5076    1.0179    0.5532 C   0  0  0  0  0  0  0  0  0  0  0  0
   -2.5164   -1.1386    0.1602 H   0  0  0  0  0  0  0  0  0  0  0  0
   -0.1687   -1.2076   -0.5703 H   0  0  0  0  0  0  0  0  0  0  0  0
    0.1893    3.0804    0.1076 H   0  0  0  0  0  0  0  0  0  0  0  0
   -2.1898    3.1432    0.8465 H   0  0  0  0  0  0  0  0  0  0  0  0
    1.2233    0.8904   -0.6107 N   0  0  0  0  0  0  0  0  0  0  0  0
    2.3124    0.8552   -0.9501 N   0  0  0  0  0  0  0  0  0  0  0  0
   -3.7463    1.1645    0.9589 O   0  0  0  0  0  0  0  0  0  0  0  0
   -4.6575    0.0333    1.0298 C   0  0  0  0  0  0  0  0  0  0  0  0
   -5.5952    0.4565    1.3942 H   0  0  0  0  0  0  0  0  0  0  0  0
   -4.2733   -0.7099    1.7387 H   0  0  0  0  0  0  0  0  0  0  0  0
   -4.7956   -0.3964    0.0305 H   0  0  0  0  0  0  0  0  0  0  0  0
  1  7  1  0  0  0  0
  1  6  2  0  0  0  0
  2  1  1  0  0  0  0
  3  2  2  0  0  0  0
  3  4  1  0  0  0  0
  4  5  2  0  0  0  0
  5  6  1  0  0  0  0
  5 10  1  0  0  0  0
  6 13  1  0  0  0  0
  8  2  1  0  0  0  0
  9  4  1  0  0  0  0
 11  3  1  0  0  0  0
 12 11  1  0  0  0  0
 13 14  1  0  0  0  0
 14 15  1  0  0  0  0
 14 16  1  0  0  0  0
 17 14  1  0  0  0  0
M  RAD  2  11   2  12   3
M  END
