Coordinates from ORCA-job p-CH3O-Ph-N2+-B3LYPG-aug-cc-pVDZ-scan-d09-49-n400
 OpenBabel09291715233D

 17 17  0  0  0  0  0  0  0  0999 V2000
   -1.9923   -0.2125    0.1699 C   0  0  0  0  0  0  0  0  0  0  0  0
   -0.6601   -0.2757   -0.2490 C   0  0  0  0  0  0  0  0  0  0  0  0
   -0.0144    0.9375   -0.2237 C   0  0  0  0  0  0  0  0  0  0  0  0
   -0.4556    2.1938    0.1419 C   0  0  0  0  0  0  0  0  0  0  0  0
   -1.7836    2.2102    0.5509 C   0  0  0  0  0  0  0  0  0  0  0  0
   -2.5582    1.0217    0.5695 C   0  0  0  0  0  0  0  0  0  0  0  0
   -2.5729   -1.1309    0.1787 H   0  0  0  0  0  0  0  0  0  0  0  0
   -0.1940   -1.2064   -0.5624 H   0  0  0  0  0  0  0  0  0  0  0  0
    0.1605    3.0891    0.1179 H   0  0  0  0  0  0  0  0  0  0  0  0
   -2.2459    3.1451    0.8639 H   0  0  0  0  0  0  0  0  0  0  0  0
    1.6667    0.8772   -0.7487 N   0  0  0  0  0  0  0  0  0  0  0  0
    2.7212    0.8444   -1.0772 N   0  0  0  0  0  0  0  0  0  0  0  0
   -3.8154    1.1735    0.9817 O   0  0  0  0  0  0  0  0  0  0  0  0
   -4.6978    0.0329    1.0421 C   0  0  0  0  0  0  0  0  0  0  0  0
   -5.6485    0.4285    1.4053 H   0  0  0  0  0  0  0  0  0  0  0  0
   -4.3090   -0.7140    1.7470 H   0  0  0  0  0  0  0  0  0  0  0  0
   -4.8302   -0.4010    0.0420 H   0  0  0  0  0  0  0  0  0  0  0  0
  1  7  1  0  0  0  0
  1  6  2  0  0  0  0
  2  3  2  0  0  0  0
  2  1  1  0  0  0  0
  3  4  1  0  0  0  0
  4  5  2  0  0  0  0
  5  6  1  0  0  0  0
  5 10  1  0  0  0  0
  6 13  1  0  0  0  0
  8  2  1  0  0  0  0
  9  4  1  0  0  0  0
 11  3  1  0  0  0  0
 12 11  1  0  0  0  0
 13 14  1  0  0  0  0
 14 15  1  0  0  0  0
 14 16  1  0  0  0  0
 17 14  1  0  0  0  0
M  RAD  2  11   2  12   3
M  END
