Coordinates from ORCA-job p-CH3O-Ph-N2+-B3LYPG-aug-cc-pVDZ-scan-d09-49-n400
 OpenBabel09291715233D

 17 17  0  0  0  0  0  0  0  0999 V2000
   -1.9776   -0.2152    0.1649 C   0  0  0  0  0  0  0  0  0  0  0  0
   -0.6526   -0.2714   -0.2505 C   0  0  0  0  0  0  0  0  0  0  0  0
    0.0377    0.9352   -0.2400 C   0  0  0  0  0  0  0  0  0  0  0  0
   -0.4484    2.1879    0.1386 C   0  0  0  0  0  0  0  0  0  0  0  0
   -1.7690    2.2108    0.5465 C   0  0  0  0  0  0  0  0  0  0  0  0
   -2.5448    1.0207    0.5652 C   0  0  0  0  0  0  0  0  0  0  0  0
   -2.5615   -1.1313    0.1752 H   0  0  0  0  0  0  0  0  0  0  0  0
   -0.1907   -1.2053   -0.5633 H   0  0  0  0  0  0  0  0  0  0  0  0
    0.1643    3.0863    0.1162 H   0  0  0  0  0  0  0  0  0  0  0  0
   -2.2352    3.1431    0.8603 H   0  0  0  0  0  0  0  0  0  0  0  0
    1.5656    0.8795   -0.7174 N   0  0  0  0  0  0  0  0  0  0  0  0
    2.6239    0.8462   -1.0471 N   0  0  0  0  0  0  0  0  0  0  0  0
   -3.7984    1.1714    0.9761 O   0  0  0  0  0  0  0  0  0  0  0  0
   -4.6870    0.0334    1.0389 C   0  0  0  0  0  0  0  0  0  0  0  0
   -5.6349    0.4352    1.4024 H   0  0  0  0  0  0  0  0  0  0  0  0
   -4.2998   -0.7130    1.7446 H   0  0  0  0  0  0  0  0  0  0  0  0
   -4.8211   -0.4000    0.0393 H   0  0  0  0  0  0  0  0  0  0  0  0
  1  7  1  0  0  0  0
  1  6  2  0  0  0  0
  2  3  2  0  0  0  0
  2  1  1  0  0  0  0
  3  4  1  0  0  0  0
  4  5  2  0  0  0  0
  5  6  1  0  0  0  0
  5 10  1  0  0  0  0
  6 13  1  0  0  0  0
  8  2  1  0  0  0  0
  9  4  1  0  0  0  0
 11  3  1  0  0  0  0
 12 11  1  0  0  0  0
 13 14  1  0  0  0  0
 14 15  1  0  0  0  0
 14 16  1  0  0  0  0
 17 14  1  0  0  0  0
M  RAD  2  11   2  12   3
M  END
