Coordinates from ORCA-job p-CH3O-Ph-N2+-B3LYPG-aug-cc-pVDZ-scan-d09-49-n400
 OpenBabel09291715233D

 17 16  0  0  0  0  0  0  0  0999 V2000
   -2.0722   -0.2063    0.1954 C   0  0  0  0  0  0  0  0  0  0  0  0
   -0.7146   -0.2887   -0.2348 C   0  0  0  0  0  0  0  0  0  0  0  0
   -0.2245    0.9483   -0.1575 C   0  0  0  0  0  0  0  0  0  0  0  0
   -0.5135    2.2162    0.1637 C   0  0  0  0  0  0  0  0  0  0  0  0
   -1.8675    2.2112    0.5767 C   0  0  0  0  0  0  0  0  0  0  0  0
   -2.6403    1.0238    0.5950 C   0  0  0  0  0  0  0  0  0  0  0  0
   -2.6327   -1.1392    0.1955 H   0  0  0  0  0  0  0  0  0  0  0  0
   -0.2302   -1.2080   -0.5517 H   0  0  0  0  0  0  0  0  0  0  0  0
    0.1154    3.1016    0.1340 H   0  0  0  0  0  0  0  0  0  0  0  0
   -2.3097    3.1592    0.8860 H   0  0  0  0  0  0  0  0  0  0  0  0
    2.2417    0.8713   -0.9256 N   0  0  0  0  0  0  0  0  0  0  0  0
    3.2947    0.8399   -1.2533 N   0  0  0  0  0  0  0  0  0  0  0  0
   -3.9014    1.1749    1.0083 O   0  0  0  0  0  0  0  0  0  0  0  0
   -4.7716    0.0260    1.0634 C   0  0  0  0  0  0  0  0  0  0  0  0
   -5.7279    0.4087    1.4260 H   0  0  0  0  0  0  0  0  0  0  0  0
   -4.3767   -0.7193    1.7675 H   0  0  0  0  0  0  0  0  0  0  0  0
   -4.8983   -0.4061    0.0612 H   0  0  0  0  0  0  0  0  0  0  0  0
  1  7  1  0  0  0  0
  1  6  2  0  0  0  0
  2  3  2  0  0  0  0
  2  1  1  0  0  0  0
  3  4  1  0  0  0  0
  4  5  2  0  0  0  0
  5  6  1  0  0  0  0
  5 10  1  0  0  0  0
  6 13  1  0  0  0  0
  8  2  1  0  0  0  0
  9  4  1  0  0  0  0
 12 11  3  0  0  0  0
 13 14  1  0  0  0  0
 14 15  1  0  0  0  0
 14 16  1  0  0  0  0
 17 14  1  0  0  0  0
M  RAD  1   3   2
M  END
