Coordinates from ORCA-job p-CH3O-Ph-N2+-B3LYPG-aug-cc-pVDZ-scan-d09-49-n400
 OpenBabel09291715233D

 17 16  0  0  0  0  0  0  0  0999 V2000
   -2.0352   -0.2076    0.1839 C   0  0  0  0  0  0  0  0  0  0  0  0
   -0.6864   -0.2858   -0.2429 C   0  0  0  0  0  0  0  0  0  0  0  0
   -0.1431    0.9435   -0.1833 C   0  0  0  0  0  0  0  0  0  0  0  0
   -0.4825    2.2083    0.1527 C   0  0  0  0  0  0  0  0  0  0  0  0
   -1.8278    2.2096    0.5643 C   0  0  0  0  0  0  0  0  0  0  0  0
   -2.6015    1.0232    0.5830 C   0  0  0  0  0  0  0  0  0  0  0  0
   -2.6026   -1.1356    0.1870 H   0  0  0  0  0  0  0  0  0  0  0  0
   -0.2102   -1.2098   -0.5581 H   0  0  0  0  0  0  0  0  0  0  0  0
    0.1409    3.0974    0.1254 H   0  0  0  0  0  0  0  0  0  0  0  0
   -2.2758    3.1539    0.8746 H   0  0  0  0  0  0  0  0  0  0  0  0
    1.9688    0.8736   -0.8418 N   0  0  0  0  0  0  0  0  0  0  0  0
    3.0214    0.8423   -1.1694 N   0  0  0  0  0  0  0  0  0  0  0  0
   -3.8623    1.1757    0.9965 O   0  0  0  0  0  0  0  0  0  0  0  0
   -4.7356    0.0295    1.0530 C   0  0  0  0  0  0  0  0  0  0  0  0
   -5.6905    0.4155    1.4158 H   0  0  0  0  0  0  0  0  0  0  0  0
   -4.3429   -0.7167    1.7572 H   0  0  0  0  0  0  0  0  0  0  0  0
   -4.8643   -0.4036    0.0516 H   0  0  0  0  0  0  0  0  0  0  0  0
  1  7  1  0  0  0  0
  1  6  2  0  0  0  0
  2  3  2  0  0  0  0
  2  1  1  0  0  0  0
  3  4  1  0  0  0  0
  4  5  2  0  0  0  0
  5  6  1  0  0  0  0
  5 10  1  0  0  0  0
  6 13  1  0  0  0  0
  8  2  1  0  0  0  0
  9  4  1  0  0  0  0
 12 11  3  0  0  0  0
 13 14  1  0  0  0  0
 14 15  1  0  0  0  0
 14 16  1  0  0  0  0
 17 14  1  0  0  0  0
M  RAD  1   3   2
M  END
