Coordinates from ORCA-job p-CH3O-Ph-N2+-B3LYPG-aug-cc-pVDZ-scan-d09-49-n400
 OpenBabel09291715233D

 17 17  0  0  0  0  0  0  0  0999 V2000
   -2.0043   -0.2105    0.1739 C   0  0  0  0  0  0  0  0  0  0  0  0
   -0.6666   -0.2793   -0.2477 C   0  0  0  0  0  0  0  0  0  0  0  0
   -0.0553    0.9393   -0.2108 C   0  0  0  0  0  0  0  0  0  0  0  0
   -0.4619    2.1986    0.1447 C   0  0  0  0  0  0  0  0  0  0  0  0
   -1.7959    2.2097    0.5546 C   0  0  0  0  0  0  0  0  0  0  0  0
   -2.5699    1.0223    0.5732 C   0  0  0  0  0  0  0  0  0  0  0  0
   -2.5812   -1.1317    0.1811 H   0  0  0  0  0  0  0  0  0  0  0  0
   -0.1974   -1.2077   -0.5616 H   0  0  0  0  0  0  0  0  0  0  0  0
    0.1565    3.0917    0.1196 H   0  0  0  0  0  0  0  0  0  0  0  0
   -2.2538    3.1475    0.8667 H   0  0  0  0  0  0  0  0  0  0  0  0
    1.7501    0.8759   -0.7745 N   0  0  0  0  0  0  0  0  0  0  0  0
    2.8032    0.8435   -1.1025 N   0  0  0  0  0  0  0  0  0  0  0  0
   -3.8290    1.1747    0.9861 O   0  0  0  0  0  0  0  0  0  0  0  0
   -4.7076    0.0322    1.0449 C   0  0  0  0  0  0  0  0  0  0  0  0
   -5.6601    0.4238    1.4080 H   0  0  0  0  0  0  0  0  0  0  0  0
   -4.3176   -0.7147    1.7495 H   0  0  0  0  0  0  0  0  0  0  0  0
   -4.8388   -0.4017    0.0445 H   0  0  0  0  0  0  0  0  0  0  0  0
  1  7  1  0  0  0  0
  1  6  2  0  0  0  0
  2  3  2  0  0  0  0
  2  1  1  0  0  0  0
  3  4  1  0  0  0  0
  4  5  2  0  0  0  0
  5  6  1  0  0  0  0
  5 10  1  0  0  0  0
  6 13  1  0  0  0  0
  8  2  1  0  0  0  0
  9  4  1  0  0  0  0
 11  3  1  0  0  0  0
 12 11  1  0  0  0  0
 13 14  1  0  0  0  0
 14 15  1  0  0  0  0
 14 16  1  0  0  0  0
 17 14  1  0  0  0  0
M  RAD  2  11   2  12   3
M  END
