Coordinates from ORCA-job p-CH3O-Ph-N2+-B3LYPG-aug-cc-pVDZ-scan-d09-49-n400
 OpenBabel09291715233D

 17 16  0  0  0  0  0  0  0  0999 V2000
   -2.2144   -0.2043    0.2392 C   0  0  0  0  0  0  0  0  0  0  0  0
   -0.8518   -0.2854   -0.1922 C   0  0  0  0  0  0  0  0  0  0  0  0
   -0.3915    0.9580   -0.1049 C   0  0  0  0  0  0  0  0  0  0  0  0
   -0.6609    2.2275    0.2109 C   0  0  0  0  0  0  0  0  0  0  0  0
   -2.0196    2.2128    0.6235 C   0  0  0  0  0  0  0  0  0  0  0  0
   -2.7882    1.0227    0.6400 C   0  0  0  0  0  0  0  0  0  0  0  0
   -2.7669   -1.1424    0.2357 H   0  0  0  0  0  0  0  0  0  0  0  0
   -0.3618   -1.2024   -0.5104 H   0  0  0  0  0  0  0  0  0  0  0  0
   -0.0335    3.1151    0.1820 H   0  0  0  0  0  0  0  0  0  0  0  0
   -2.4609    3.1619    0.9326 H   0  0  0  0  0  0  0  0  0  0  0  0
    3.3302    0.8701   -1.2588 N   0  0  0  0  0  0  0  0  0  0  0  0
    4.3846    0.8461   -1.5852 N   0  0  0  0  0  0  0  0  0  0  0  0
   -4.0493    1.1684    1.0523 O   0  0  0  0  0  0  0  0  0  0  0  0
   -4.9154    0.0152    1.1054 C   0  0  0  0  0  0  0  0  0  0  0  0
   -5.8734    0.3939    1.4678 H   0  0  0  0  0  0  0  0  0  0  0  0
   -4.5175   -0.7286    1.8093 H   0  0  0  0  0  0  0  0  0  0  0  0
   -5.0394   -0.4153    0.1023 H   0  0  0  0  0  0  0  0  0  0  0  0
  1  6  2  0  0  0  0
  2  3  2  0  0  0  0
  2  1  1  0  0  0  0
  3  4  1  0  0  0  0
  4  5  2  0  0  0  0
  5  6  1  0  0  0  0
  5 10  1  0  0  0  0
  6 13  1  0  0  0  0
  7  1  1  0  0  0  0
  8  2  1  0  0  0  0
  9  4  1  0  0  0  0
 12 11  3  0  0  0  0
 13 14  1  0  0  0  0
 14 15  1  0  0  0  0
 14 16  1  0  0  0  0
 17 14  1  0  0  0  0
M  RAD  1   3   2
M  END
