Coordinates from ORCA-job p-CH3O-Ph-N2+-B3LYPG-aug-cc-pVDZ-scan-d09-49-n400
 OpenBabel09291715233D

 17 16  0  0  0  0  0  0  0  0999 V2000
   -2.1408   -0.2051    0.2166 C   0  0  0  0  0  0  0  0  0  0  0  0
   -0.7792   -0.2880   -0.2149 C   0  0  0  0  0  0  0  0  0  0  0  0
   -0.3146    0.9534   -0.1291 C   0  0  0  0  0  0  0  0  0  0  0  0
   -0.5832    2.2227    0.1862 C   0  0  0  0  0  0  0  0  0  0  0  0
   -1.9410    2.2122    0.5994 C   0  0  0  0  0  0  0  0  0  0  0  0
   -2.7120    1.0234    0.6168 C   0  0  0  0  0  0  0  0  0  0  0  0
   -2.6959   -1.1417    0.2143 H   0  0  0  0  0  0  0  0  0  0  0  0
   -0.2899   -1.2051   -0.5329 H   0  0  0  0  0  0  0  0  0  0  0  0
    0.0470    3.1080    0.1560 H   0  0  0  0  0  0  0  0  0  0  0  0
   -2.3811    3.1618    0.9083 H   0  0  0  0  0  0  0  0  0  0  0  0
    2.7650    0.8700   -1.0859 N   0  0  0  0  0  0  0  0  0  0  0  0
    3.8187    0.8426   -1.4129 N   0  0  0  0  0  0  0  0  0  0  0  0
   -3.9730    1.1719    1.0296 O   0  0  0  0  0  0  0  0  0  0  0  0
   -4.8410    0.0206    1.0836 C   0  0  0  0  0  0  0  0  0  0  0  0
   -5.7982    0.4010    1.4461 H   0  0  0  0  0  0  0  0  0  0  0  0
   -4.4443   -0.7239    1.7876 H   0  0  0  0  0  0  0  0  0  0  0  0
   -4.9662   -0.4105    0.0808 H   0  0  0  0  0  0  0  0  0  0  0  0
  1  6  2  0  0  0  0
  2  3  2  0  0  0  0
  2  1  1  0  0  0  0
  3  4  1  0  0  0  0
  4  5  2  0  0  0  0
  5  6  1  0  0  0  0
  5 10  1  0  0  0  0
  6 13  1  0  0  0  0
  7  1  1  0  0  0  0
  8  2  1  0  0  0  0
  9  4  1  0  0  0  0
 12 11  3  0  0  0  0
 13 14  1  0  0  0  0
 14 15  1  0  0  0  0
 14 16  1  0  0  0  0
 17 14  1  0  0  0  0
M  RAD  1   3   2
M  END
