Coordinates from ORCA-job p-CH3O-Ph-N2+-B3LYPG-aug-cc-pVDZ-scan-d09-49-n400
 OpenBabel09291715233D

 17 16  0  0  0  0  0  0  0  0999 V2000
   -2.1224   -0.2055    0.2109 C   0  0  0  0  0  0  0  0  0  0  0  0
   -0.7610   -0.2886   -0.2206 C   0  0  0  0  0  0  0  0  0  0  0  0
   -0.2941    0.9521   -0.1356 C   0  0  0  0  0  0  0  0  0  0  0  0
   -0.5636    2.2212    0.1799 C   0  0  0  0  0  0  0  0  0  0  0  0
   -1.9211    2.2120    0.5933 C   0  0  0  0  0  0  0  0  0  0  0  0
   -2.6927    1.0236    0.6110 C   0  0  0  0  0  0  0  0  0  0  0  0
   -2.6785   -1.1414    0.2091 H   0  0  0  0  0  0  0  0  0  0  0  0
   -0.2721   -1.2057   -0.5385 H   0  0  0  0  0  0  0  0  0  0  0  0
    0.0672    3.1059    0.1495 H   0  0  0  0  0  0  0  0  0  0  0  0
   -2.3612    3.1616    0.9022 H   0  0  0  0  0  0  0  0  0  0  0  0
    2.6225    0.8703   -1.0423 N   0  0  0  0  0  0  0  0  0  0  0  0
    3.6761    0.8420   -1.3695 N   0  0  0  0  0  0  0  0  0  0  0  0
   -3.9537    1.1728    1.0239 O   0  0  0  0  0  0  0  0  0  0  0  0
   -4.8222    0.0220    1.0781 C   0  0  0  0  0  0  0  0  0  0  0  0
   -5.7792    0.4029    1.4406 H   0  0  0  0  0  0  0  0  0  0  0  0
   -4.4259   -0.7226    1.7822 H   0  0  0  0  0  0  0  0  0  0  0  0
   -4.9477   -0.4093    0.0754 H   0  0  0  0  0  0  0  0  0  0  0  0
  1  6  2  0  0  0  0
  2  3  2  0  0  0  0
  2  1  1  0  0  0  0
  3  4  1  0  0  0  0
  4  5  2  0  0  0  0
  5  6  1  0  0  0  0
  5 10  1  0  0  0  0
  6 13  1  0  0  0  0
  7  1  1  0  0  0  0
  8  2  1  0  0  0  0
  9  4  1  0  0  0  0
 12 11  3  0  0  0  0
 13 14  1  0  0  0  0
 14 15  1  0  0  0  0
 14 16  1  0  0  0  0
 17 14  1  0  0  0  0
M  RAD  1   3   2
M  END
