Coordinates from ORCA-job p-CH3O-Ph-N2+-B3LYPG-aug-cc-pVDZ-scan-d09-49-n400
 OpenBabel09291715233D

 17 17  0  0  0  0  0  0  0  0999 V2000
   -1.9886   -0.2131    0.1686 C   0  0  0  0  0  0  0  0  0  0  0  0
   -0.6582   -0.2746   -0.2494 C   0  0  0  0  0  0  0  0  0  0  0  0
   -0.0014    0.9369   -0.2278 C   0  0  0  0  0  0  0  0  0  0  0  0
   -0.4538    2.1923    0.1410 C   0  0  0  0  0  0  0  0  0  0  0  0
   -1.7799    2.2103    0.5498 C   0  0  0  0  0  0  0  0  0  0  0  0
   -2.5547    1.0215    0.5684 C   0  0  0  0  0  0  0  0  0  0  0  0
   -2.5702   -1.1308    0.1779 H   0  0  0  0  0  0  0  0  0  0  0  0
   -0.1931   -1.2061   -0.5626 H   0  0  0  0  0  0  0  0  0  0  0  0
    0.1615    3.0883    0.1175 H   0  0  0  0  0  0  0  0  0  0  0  0
   -2.2434    3.1445    0.8630 H   0  0  0  0  0  0  0  0  0  0  0  0
    1.6414    0.8777   -0.7409 N   0  0  0  0  0  0  0  0  0  0  0  0
    2.6966    0.8448   -1.0696 N   0  0  0  0  0  0  0  0  0  0  0  0
   -3.8112    1.1730    0.9803 O   0  0  0  0  0  0  0  0  0  0  0  0
   -4.6950    0.0331    1.0413 C   0  0  0  0  0  0  0  0  0  0  0  0
   -5.6451    0.4301    1.4046 H   0  0  0  0  0  0  0  0  0  0  0  0
   -4.3066   -0.7137    1.7463 H   0  0  0  0  0  0  0  0  0  0  0  0
   -4.8278   -0.4008    0.0413 H   0  0  0  0  0  0  0  0  0  0  0  0
  1  7  1  0  0  0  0
  1  6  2  0  0  0  0
  2  3  2  0  0  0  0
  2  1  1  0  0  0  0
  3  4  1  0  0  0  0
  4  5  2  0  0  0  0
  5  6  1  0  0  0  0
  5 10  1  0  0  0  0
  6 13  1  0  0  0  0
  8  2  1  0  0  0  0
  9  4  1  0  0  0  0
 11  3  1  0  0  0  0
 12 11  1  0  0  0  0
 13 14  1  0  0  0  0
 14 15  1  0  0  0  0
 14 16  1  0  0  0  0
 17 14  1  0  0  0  0
M  RAD  2  11   2  12   3
M  END
