Coordinates from ORCA-job p-CH3O-Ph-N2+-B3LYPG-aug-cc-pVDZ-scan-d09-49-n400
 OpenBabel09291715233D

 17 17  0  0  0  0  0  0  0  0999 V2000
   -1.9932   -0.2123    0.1702 C   0  0  0  0  0  0  0  0  0  0  0  0
   -0.6606   -0.2760   -0.2489 C   0  0  0  0  0  0  0  0  0  0  0  0
   -0.0176    0.9376   -0.2227 C   0  0  0  0  0  0  0  0  0  0  0  0
   -0.4560    2.1942    0.1421 C   0  0  0  0  0  0  0  0  0  0  0  0
   -1.7845    2.2101    0.5512 C   0  0  0  0  0  0  0  0  0  0  0  0
   -2.5591    1.0218    0.5698 C   0  0  0  0  0  0  0  0  0  0  0  0
   -2.5736   -1.1309    0.1789 H   0  0  0  0  0  0  0  0  0  0  0  0
   -0.1943   -1.2065   -0.5624 H   0  0  0  0  0  0  0  0  0  0  0  0
    0.1602    3.0893    0.1180 H   0  0  0  0  0  0  0  0  0  0  0  0
   -2.2465    3.1453    0.8641 H   0  0  0  0  0  0  0  0  0  0  0  0
    1.6730    0.8771   -0.7507 N   0  0  0  0  0  0  0  0  0  0  0  0
    2.7274    0.8444   -1.0791 N   0  0  0  0  0  0  0  0  0  0  0  0
   -3.8165    1.1736    0.9821 O   0  0  0  0  0  0  0  0  0  0  0  0
   -4.6985    0.0329    1.0423 C   0  0  0  0  0  0  0  0  0  0  0  0
   -5.6494    0.4281    1.4055 H   0  0  0  0  0  0  0  0  0  0  0  0
   -4.3096   -0.7140    1.7472 H   0  0  0  0  0  0  0  0  0  0  0  0
   -4.8308   -0.4011    0.0422 H   0  0  0  0  0  0  0  0  0  0  0  0
  1  7  1  0  0  0  0
  1  6  2  0  0  0  0
  2  3  2  0  0  0  0
  2  1  1  0  0  0  0
  3  4  1  0  0  0  0
  4  5  2  0  0  0  0
  5  6  1  0  0  0  0
  5 10  1  0  0  0  0
  6 13  1  0  0  0  0
  8  2  1  0  0  0  0
  9  4  1  0  0  0  0
 11  3  1  0  0  0  0
 12 11  1  0  0  0  0
 13 14  1  0  0  0  0
 14 15  1  0  0  0  0
 14 16  1  0  0  0  0
 17 14  1  0  0  0  0
M  RAD  2  11   2  12   3
M  END
