Coordinates from ORCA-job p-CH3O-Ph-N2+-B3LYPG-aug-cc-pVDZ-scan-d09-49-n400
 OpenBabel09291715233D

 17 16  0  0  0  0  0  0  0  0999 V2000
   -2.0543   -0.2063    0.1900 C   0  0  0  0  0  0  0  0  0  0  0  0
   -0.6996   -0.2870   -0.2390 C   0  0  0  0  0  0  0  0  0  0  0  0
   -0.1915    0.9472   -0.1678 C   0  0  0  0  0  0  0  0  0  0  0  0
   -0.4981    2.2140    0.1586 C   0  0  0  0  0  0  0  0  0  0  0  0
   -1.8491    2.2111    0.5711 C   0  0  0  0  0  0  0  0  0  0  0  0
   -2.6220    1.0239    0.5894 C   0  0  0  0  0  0  0  0  0  0  0  0
   -2.6172   -1.1374    0.1911 H   0  0  0  0  0  0  0  0  0  0  0  0
   -0.2196   -1.2087   -0.5550 H   0  0  0  0  0  0  0  0  0  0  0  0
    0.1278    3.1013    0.1301 H   0  0  0  0  0  0  0  0  0  0  0  0
   -2.2936    3.1576    0.8808 H   0  0  0  0  0  0  0  0  0  0  0  0
    2.1117    0.8706   -0.8860 N   0  0  0  0  0  0  0  0  0  0  0  0
    3.1644    0.8377   -1.2139 N   0  0  0  0  0  0  0  0  0  0  0  0
   -3.8831    1.1753    1.0028 O   0  0  0  0  0  0  0  0  0  0  0  0
   -4.7541    0.0272    1.0582 C   0  0  0  0  0  0  0  0  0  0  0  0
   -5.7100    0.4107    1.4209 H   0  0  0  0  0  0  0  0  0  0  0  0
   -4.3599   -0.7185    1.7623 H   0  0  0  0  0  0  0  0  0  0  0  0
   -4.8814   -0.4053    0.0563 H   0  0  0  0  0  0  0  0  0  0  0  0
  1  7  1  0  0  0  0
  1  6  2  0  0  0  0
  2  3  2  0  0  0  0
  2  1  1  0  0  0  0
  3  4  1  0  0  0  0
  4  5  2  0  0  0  0
  5  6  1  0  0  0  0
  5 10  1  0  0  0  0
  6 13  1  0  0  0  0
  8  2  1  0  0  0  0
  9  4  1  0  0  0  0
 12 11  3  0  0  0  0
 13 14  1  0  0  0  0
 14 15  1  0  0  0  0
 14 16  1  0  0  0  0
 17 14  1  0  0  0  0
M  RAD  1   3   2
M  END
