Coordinates from ORCA-job p-CH3O-Ph-N2+-B3LYPG-aug-cc-pVDZ-scan-d09-49-n400
 OpenBabel09291715233D

 17 16  0  0  0  0  0  0  0  0999 V2000
   -2.2328   -0.2042    0.2448 C   0  0  0  0  0  0  0  0  0  0  0  0
   -0.8698   -0.2841   -0.1865 C   0  0  0  0  0  0  0  0  0  0  0  0
   -0.4134    0.9592   -0.0981 C   0  0  0  0  0  0  0  0  0  0  0  0
   -0.6803    2.2281    0.2170 C   0  0  0  0  0  0  0  0  0  0  0  0
   -2.0391    2.2133    0.6296 C   0  0  0  0  0  0  0  0  0  0  0  0
   -2.8074    1.0225    0.6458 C   0  0  0  0  0  0  0  0  0  0  0  0
   -2.7847   -1.1428    0.2409 H   0  0  0  0  0  0  0  0  0  0  0  0
   -0.3783   -1.2002   -0.5049 H   0  0  0  0  0  0  0  0  0  0  0  0
   -0.0523    3.1154    0.1879 H   0  0  0  0  0  0  0  0  0  0  0  0
   -2.4807    3.1623    0.9387 H   0  0  0  0  0  0  0  0  0  0  0  0
    3.4713    0.8701   -1.3018 N   0  0  0  0  0  0  0  0  0  0  0  0
    4.5258    0.8469   -1.6281 N   0  0  0  0  0  0  0  0  0  0  0  0
   -4.0685    1.1676    1.0580 O   0  0  0  0  0  0  0  0  0  0  0  0
   -4.9340    0.0139    1.1109 C   0  0  0  0  0  0  0  0  0  0  0  0
   -5.8922    0.3919    1.4733 H   0  0  0  0  0  0  0  0  0  0  0  0
   -4.5357   -0.7298    1.8148 H   0  0  0  0  0  0  0  0  0  0  0  0
   -5.0576   -0.4166    0.1077 H   0  0  0  0  0  0  0  0  0  0  0  0
  1  6  2  0  0  0  0
  2  3  2  0  0  0  0
  2  1  1  0  0  0  0
  3  4  1  0  0  0  0
  4  5  2  0  0  0  0
  5  6  1  0  0  0  0
  5 10  1  0  0  0  0
  6 13  1  0  0  0  0
  7  1  1  0  0  0  0
  8  2  1  0  0  0  0
  9  4  1  0  0  0  0
 12 11  3  0  0  0  0
 13 14  1  0  0  0  0
 14 15  1  0  0  0  0
 14 16  1  0  0  0  0
 17 14  1  0  0  0  0
M  RAD  1   3   2
M  END
