Coordinates from ORCA-job p-CH3O-Ph-N2+-B3LYPG-aug-cc-pVDZ-scan-d09-49-n400
 OpenBabel09291715233D

 17 16  0  0  0  0  0  0  0  0999 V2000
   -2.0411   -0.2073    0.1858 C   0  0  0  0  0  0  0  0  0  0  0  0
   -0.6907   -0.2865   -0.2417 C   0  0  0  0  0  0  0  0  0  0  0  0
   -0.1571    0.9442   -0.1788 C   0  0  0  0  0  0  0  0  0  0  0  0
   -0.4872    2.2097    0.1545 C   0  0  0  0  0  0  0  0  0  0  0  0
   -1.8341    2.2097    0.5663 C   0  0  0  0  0  0  0  0  0  0  0  0
   -2.6078    1.0233    0.5849 C   0  0  0  0  0  0  0  0  0  0  0  0
   -2.6071   -1.1363    0.1882 H   0  0  0  0  0  0  0  0  0  0  0  0
   -0.2134   -1.2099   -0.5571 H   0  0  0  0  0  0  0  0  0  0  0  0
    0.1370    3.0983    0.1268 H   0  0  0  0  0  0  0  0  0  0  0  0
   -2.2807    3.1549    0.8763 H   0  0  0  0  0  0  0  0  0  0  0  0
    2.0122    0.8733   -0.8551 N   0  0  0  0  0  0  0  0  0  0  0  0
    3.0649    0.8421   -1.1827 N   0  0  0  0  0  0  0  0  0  0  0  0
   -3.8686    1.1756    0.9984 O   0  0  0  0  0  0  0  0  0  0  0  0
   -4.7413    0.0290    1.0547 C   0  0  0  0  0  0  0  0  0  0  0  0
   -5.6965    0.4143    1.4174 H   0  0  0  0  0  0  0  0  0  0  0  0
   -4.3482   -0.7171    1.7588 H   0  0  0  0  0  0  0  0  0  0  0  0
   -4.8696   -0.4040    0.0531 H   0  0  0  0  0  0  0  0  0  0  0  0
  1  7  1  0  0  0  0
  1  6  2  0  0  0  0
  2  3  2  0  0  0  0
  2  1  1  0  0  0  0
  3  4  1  0  0  0  0
  4  5  2  0  0  0  0
  5  6  1  0  0  0  0
  5 10  1  0  0  0  0
  6 13  1  0  0  0  0
  8  2  1  0  0  0  0
  9  4  1  0  0  0  0
 12 11  3  0  0  0  0
 13 14  1  0  0  0  0
 14 15  1  0  0  0  0
 14 16  1  0  0  0  0
 17 14  1  0  0  0  0
M  RAD  1   3   2
M  END
