Coordinates from ORCA-job p-CH3O-Ph-N2+-B3LYPG-aug-cc-pVDZ-scan-d09-49-n400
 OpenBabel09291715233D

 17 16  0  0  0  0  0  0  0  0999 V2000
   -2.0702   -0.2061    0.1948 C   0  0  0  0  0  0  0  0  0  0  0  0
   -0.7132   -0.2887   -0.2352 C   0  0  0  0  0  0  0  0  0  0  0  0
   -0.2194    0.9480   -0.1591 C   0  0  0  0  0  0  0  0  0  0  0  0
   -0.5120    2.2160    0.1632 C   0  0  0  0  0  0  0  0  0  0  0  0
   -1.8654    2.2109    0.5760 C   0  0  0  0  0  0  0  0  0  0  0  0
   -2.6383    1.0237    0.5944 C   0  0  0  0  0  0  0  0  0  0  0  0
   -2.6309   -1.1389    0.1950 H   0  0  0  0  0  0  0  0  0  0  0  0
   -0.2299   -1.2086   -0.5519 H   0  0  0  0  0  0  0  0  0  0  0  0
    0.1160    3.1020    0.1339 H   0  0  0  0  0  0  0  0  0  0  0  0
   -2.3078    3.1588    0.8853 H   0  0  0  0  0  0  0  0  0  0  0  0
    2.2276    0.8714   -0.9213 N   0  0  0  0  0  0  0  0  0  0  0  0
    3.2806    0.8398   -1.2490 N   0  0  0  0  0  0  0  0  0  0  0  0
   -3.8994    1.1749    1.0077 O   0  0  0  0  0  0  0  0  0  0  0  0
   -4.7697    0.0262    1.0628 C   0  0  0  0  0  0  0  0  0  0  0  0
   -5.7260    0.4090    1.4255 H   0  0  0  0  0  0  0  0  0  0  0  0
   -4.3750   -0.7192    1.7669 H   0  0  0  0  0  0  0  0  0  0  0  0
   -4.8966   -0.4060    0.0607 H   0  0  0  0  0  0  0  0  0  0  0  0
  1  7  1  0  0  0  0
  1  6  2  0  0  0  0
  2  3  2  0  0  0  0
  2  1  1  0  0  0  0
  3  4  1  0  0  0  0
  4  5  2  0  0  0  0
  5  6  1  0  0  0  0
  5 10  1  0  0  0  0
  6 13  1  0  0  0  0
  8  2  1  0  0  0  0
  9  4  1  0  0  0  0
 12 11  3  0  0  0  0
 13 14  1  0  0  0  0
 14 15  1  0  0  0  0
 14 16  1  0  0  0  0
 17 14  1  0  0  0  0
M  RAD  1   3   2
M  END
