Coordinates from ORCA-job p-CH3O-Ph-N2+-B3LYPG-aug-cc-pVDZ-scan-d09-49-n400
 OpenBabel09291715233D

 17 16  0  0  0  0  0  0  0  0999 V2000
   -2.2959   -0.2033    0.2633 C   0  0  0  0  0  0  0  0  0  0  0  0
   -0.9325   -0.2815   -0.1668 C   0  0  0  0  0  0  0  0  0  0  0  0
   -0.4766    0.9634   -0.0805 C   0  0  0  0  0  0  0  0  0  0  0  0
   -0.7470    2.2317    0.2391 C   0  0  0  0  0  0  0  0  0  0  0  0
   -2.1062    2.2137    0.6506 C   0  0  0  0  0  0  0  0  0  0  0  0
   -2.8724    1.0219    0.6654 C   0  0  0  0  0  0  0  0  0  0  0  0
   -2.8467   -1.1426    0.2568 H   0  0  0  0  0  0  0  0  0  0  0  0
   -0.4405   -1.1978   -0.4843 H   0  0  0  0  0  0  0  0  0  0  0  0
   -0.1219    3.1211    0.2113 H   0  0  0  0  0  0  0  0  0  0  0  0
   -2.5499    3.1621    0.9585 H   0  0  0  0  0  0  0  0  0  0  0  0
    3.9553    0.8703   -1.4494 N   0  0  0  0  0  0  0  0  0  0  0  0
    5.0101    0.8498   -1.7751 N   0  0  0  0  0  0  0  0  0  0  0  0
   -4.1339    1.1646    1.0769 O   0  0  0  0  0  0  0  0  0  0  0  0
   -4.9974    0.0093    1.1302 C   0  0  0  0  0  0  0  0  0  0  0  0
   -5.9562    0.3858    1.4924 H   0  0  0  0  0  0  0  0  0  0  0  0
   -4.5977   -0.7334    1.8343 H   0  0  0  0  0  0  0  0  0  0  0  0
   -5.1202   -0.4216    0.1270 H   0  0  0  0  0  0  0  0  0  0  0  0
  1  6  2  0  0  0  0
  2  3  2  0  0  0  0
  2  1  1  0  0  0  0
  3  4  1  0  0  0  0
  4  5  2  0  0  0  0
  5  6  1  0  0  0  0
  5 10  1  0  0  0  0
  6 13  1  0  0  0  0
  7  1  1  0  0  0  0
  8  2  1  0  0  0  0
  9  4  1  0  0  0  0
 12 11  3  0  0  0  0
 13 14  1  0  0  0  0
 14 15  1  0  0  0  0
 14 16  1  0  0  0  0
 17 14  1  0  0  0  0
M  RAD  1   3   2
M  END
