Coordinates from ORCA-job p-CH3O-Ph-N2+-B3LYPG-aug-cc-pVDZ-scan-d09-49-n400
 OpenBabel09291715233D

 17 16  0  0  0  0  0  0  0  0999 V2000
   -2.2429   -0.2040    0.2479 C   0  0  0  0  0  0  0  0  0  0  0  0
   -0.8801   -0.2841   -0.1833 C   0  0  0  0  0  0  0  0  0  0  0  0
   -0.4213    0.9598   -0.0957 C   0  0  0  0  0  0  0  0  0  0  0  0
   -0.6912    2.2290    0.2205 C   0  0  0  0  0  0  0  0  0  0  0  0
   -2.0500    2.2131    0.6330 C   0  0  0  0  0  0  0  0  0  0  0  0
   -2.8178    1.0224    0.6489 C   0  0  0  0  0  0  0  0  0  0  0  0
   -2.7947   -1.1426    0.2438 H   0  0  0  0  0  0  0  0  0  0  0  0
   -0.3895   -1.2008   -0.5015 H   0  0  0  0  0  0  0  0  0  0  0  0
   -0.0646    3.1173    0.1921 H   0  0  0  0  0  0  0  0  0  0  0  0
   -2.4920    3.1620    0.9420 H   0  0  0  0  0  0  0  0  0  0  0  0
    3.5497    0.8702   -1.3258 N   0  0  0  0  0  0  0  0  0  0  0  0
    4.6042    0.8475   -1.6520 N   0  0  0  0  0  0  0  0  0  0  0  0
   -4.0790    1.1671    1.0610 O   0  0  0  0  0  0  0  0  0  0  0  0
   -4.9442    0.0132    1.1140 C   0  0  0  0  0  0  0  0  0  0  0  0
   -5.9025    0.3911    1.4763 H   0  0  0  0  0  0  0  0  0  0  0  0
   -4.5458   -0.7304    1.8178 H   0  0  0  0  0  0  0  0  0  0  0  0
   -5.0678   -0.4173    0.1107 H   0  0  0  0  0  0  0  0  0  0  0  0
  1  6  2  0  0  0  0
  2  3  2  0  0  0  0
  2  1  1  0  0  0  0
  3  4  1  0  0  0  0
  4  5  2  0  0  0  0
  5  6  1  0  0  0  0
  5 10  1  0  0  0  0
  6 13  1  0  0  0  0
  7  1  1  0  0  0  0
  8  2  1  0  0  0  0
  9  4  1  0  0  0  0
 12 11  3  0  0  0  0
 13 14  1  0  0  0  0
 14 15  1  0  0  0  0
 14 16  1  0  0  0  0
 17 14  1  0  0  0  0
M  RAD  1   3   2
M  END
