Coordinates from ORCA-job p-CH3O-Ph-N2+-B3LYPG-aug-cc-pVDZ-scan-d09-49-n400
 OpenBabel09291715233D

 17 16  0  0  0  0  0  0  0  0999 V2000
   -2.1867   -0.2047    0.2307 C   0  0  0  0  0  0  0  0  0  0  0  0
   -0.8242   -0.2861   -0.2008 C   0  0  0  0  0  0  0  0  0  0  0  0
   -0.3649    0.9564   -0.1132 C   0  0  0  0  0  0  0  0  0  0  0  0
   -0.6314    2.2256    0.2015 C   0  0  0  0  0  0  0  0  0  0  0  0
   -1.9900    2.2128    0.6145 C   0  0  0  0  0  0  0  0  0  0  0  0
   -2.7596    1.0230    0.6313 C   0  0  0  0  0  0  0  0  0  0  0  0
   -2.7400   -1.1424    0.2276 H   0  0  0  0  0  0  0  0  0  0  0  0
   -0.3336   -1.2027   -0.5191 H   0  0  0  0  0  0  0  0  0  0  0  0
   -0.0022    3.1118    0.1718 H   0  0  0  0  0  0  0  0  0  0  0  0
   -2.4306    3.1622    0.9235 H   0  0  0  0  0  0  0  0  0  0  0  0
    3.1172    0.8700   -1.1936 N   0  0  0  0  0  0  0  0  0  0  0  0
    4.1713    0.8447   -1.5203 N   0  0  0  0  0  0  0  0  0  0  0  0
   -4.0206    1.1697    1.0438 O   0  0  0  0  0  0  0  0  0  0  0  0
   -4.8874    0.0172    1.0972 C   0  0  0  0  0  0  0  0  0  0  0  0
   -5.8451    0.3965    1.4596 H   0  0  0  0  0  0  0  0  0  0  0  0
   -4.4899   -0.7269    1.8011 H   0  0  0  0  0  0  0  0  0  0  0  0
   -5.0118   -0.4135    0.0941 H   0  0  0  0  0  0  0  0  0  0  0  0
  1  6  2  0  0  0  0
  2  3  2  0  0  0  0
  2  1  1  0  0  0  0
  3  4  1  0  0  0  0
  4  5  2  0  0  0  0
  5  6  1  0  0  0  0
  5 10  1  0  0  0  0
  6 13  1  0  0  0  0
  7  1  1  0  0  0  0
  8  2  1  0  0  0  0
  9  4  1  0  0  0  0
 12 11  3  0  0  0  0
 13 14  1  0  0  0  0
 14 15  1  0  0  0  0
 14 16  1  0  0  0  0
 17 14  1  0  0  0  0
M  RAD  1   3   2
M  END
