Coordinates from ORCA-job p-CH3O-Ph-N2+-B3LYPG-aug-cc-pVDZ-scan-d09-49-n400
 OpenBabel09291715233D

 17 16  0  0  0  0  0  0  0  0999 V2000
   -2.3025   -0.2032    0.2651 C   0  0  0  0  0  0  0  0  0  0  0  0
   -0.9390   -0.2811   -0.1647 C   0  0  0  0  0  0  0  0  0  0  0  0
   -0.4836    0.9640   -0.0790 C   0  0  0  0  0  0  0  0  0  0  0  0
   -0.7540    2.2320    0.2416 C   0  0  0  0  0  0  0  0  0  0  0  0
   -2.1132    2.2138    0.6529 C   0  0  0  0  0  0  0  0  0  0  0  0
   -2.8793    1.0219    0.6674 C   0  0  0  0  0  0  0  0  0  0  0  0
   -2.8533   -1.1424    0.2580 H   0  0  0  0  0  0  0  0  0  0  0  0
   -0.4468   -1.1974   -0.4820 H   0  0  0  0  0  0  0  0  0  0  0  0
   -0.1290    3.1216    0.2139 H   0  0  0  0  0  0  0  0  0  0  0  0
   -2.5572    3.1622    0.9604 H   0  0  0  0  0  0  0  0  0  0  0  0
    4.0060    0.8702   -1.4649 N   0  0  0  0  0  0  0  0  0  0  0  0
    5.0609    0.8499   -1.7904 N   0  0  0  0  0  0  0  0  0  0  0  0
   -4.1408    1.1643    1.0788 O   0  0  0  0  0  0  0  0  0  0  0  0
   -5.0039    0.0087    1.1323 C   0  0  0  0  0  0  0  0  0  0  0  0
   -5.9629    0.3850    1.4945 H   0  0  0  0  0  0  0  0  0  0  0  0
   -4.6040   -0.7337    1.8365 H   0  0  0  0  0  0  0  0  0  0  0  0
   -5.1267   -0.4224    0.1292 H   0  0  0  0  0  0  0  0  0  0  0  0
  1  6  2  0  0  0  0
  2  3  2  0  0  0  0
  2  1  1  0  0  0  0
  3  4  1  0  0  0  0
  4  5  2  0  0  0  0
  5  6  1  0  0  0  0
  5 10  1  0  0  0  0
  6 13  1  0  0  0  0
  7  1  1  0  0  0  0
  8  2  1  0  0  0  0
  9  4  1  0  0  0  0
 12 11  3  0  0  0  0
 13 14  1  0  0  0  0
 14 15  1  0  0  0  0
 14 16  1  0  0  0  0
 17 14  1  0  0  0  0
M  RAD  1   3   2
M  END
