Coordinates from ORCA-job p-CH3O-Ph-N2+-B3LYPG-aug-cc-pVDZ-scan-d09-49-n400
 OpenBabel09291715233D

 17 17  0  0  0  0  0  0  0  0999 V2000
   -1.9280   -0.2227    0.1480 C   0  0  0  0  0  0  0  0  0  0  0  0
   -0.6257   -0.2708   -0.2592 C   0  0  0  0  0  0  0  0  0  0  0  0
    0.2211    0.9261   -0.3006 C   0  0  0  0  0  0  0  0  0  0  0  0
   -0.4210    2.1800    0.1283 C   0  0  0  0  0  0  0  0  0  0  0  0
   -1.7196    2.2102    0.5311 C   0  0  0  0  0  0  0  0  0  0  0  0
   -2.5045    1.0176    0.5517 C   0  0  0  0  0  0  0  0  0  0  0  0
   -2.5120   -1.1397    0.1590 H   0  0  0  0  0  0  0  0  0  0  0  0
   -0.1636   -1.2080   -0.5717 H   0  0  0  0  0  0  0  0  0  0  0  0
    0.1947    3.0797    0.1061 H   0  0  0  0  0  0  0  0  0  0  0  0
   -2.1855    3.1432    0.8458 H   0  0  0  0  0  0  0  0  0  0  0  0
    1.1857    0.8918   -0.5990 N   0  0  0  0  0  0  0  0  0  0  0  0
    2.2819    0.8561   -0.9384 N   0  0  0  0  0  0  0  0  0  0  0  0
   -3.7414    1.1637    0.9572 O   0  0  0  0  0  0  0  0  0  0  0  0
   -4.6551    0.0332    1.0293 C   0  0  0  0  0  0  0  0  0  0  0  0
   -5.5915    0.4586    1.3940 H   0  0  0  0  0  0  0  0  0  0  0  0
   -4.2709   -0.7096    1.7383 H   0  0  0  0  0  0  0  0  0  0  0  0
   -4.7938   -0.3960    0.0299 H   0  0  0  0  0  0  0  0  0  0  0  0
  1  7  1  0  0  0  0
  1  6  2  0  0  0  0
  2  1  1  0  0  0  0
  3  2  2  0  0  0  0
  3  4  1  0  0  0  0
  4  5  2  0  0  0  0
  5  6  1  0  0  0  0
  5 10  1  0  0  0  0
  6 13  1  0  0  0  0
  8  2  1  0  0  0  0
  9  4  1  0  0  0  0
 11  3  1  0  0  0  0
 12 11  1  0  0  0  0
 13 14  1  0  0  0  0
 14 15  1  0  0  0  0
 14 16  1  0  0  0  0
 17 14  1  0  0  0  0
M  RAD  2  11   2  12   3
M  END
