Coordinates from ORCA-job p-CH3O-Ph-N2+-B3LYPG-aug-cc-pVDZ-scan-d09-49-n400
 OpenBabel09291715233D

 17 16  0  0  0  0  0  0  0  0999 V2000
   -2.0988   -0.2057    0.2037 C   0  0  0  0  0  0  0  0  0  0  0  0
   -0.7390   -0.2890   -0.2274 C   0  0  0  0  0  0  0  0  0  0  0  0
   -0.2625    0.9503   -0.1455 C   0  0  0  0  0  0  0  0  0  0  0  0
   -0.5398    2.2191    0.1723 C   0  0  0  0  0  0  0  0  0  0  0  0
   -1.8959    2.2114    0.5855 C   0  0  0  0  0  0  0  0  0  0  0  0
   -2.6681    1.0237    0.6035 C   0  0  0  0  0  0  0  0  0  0  0  0
   -2.6565   -1.1405    0.2025 H   0  0  0  0  0  0  0  0  0  0  0  0
   -0.2524   -1.2074   -0.5448 H   0  0  0  0  0  0  0  0  0  0  0  0
    0.0900    3.1043    0.1422 H   0  0  0  0  0  0  0  0  0  0  0  0
   -2.3364    3.1606    0.8944 H   0  0  0  0  0  0  0  0  0  0  0  0
    2.4433    0.8708   -0.9874 N   0  0  0  0  0  0  0  0  0  0  0  0
    3.4966    0.8412   -1.3148 N   0  0  0  0  0  0  0  0  0  0  0  0
   -3.9291    1.1738    1.0166 O   0  0  0  0  0  0  0  0  0  0  0  0
   -4.7984    0.0239    1.0712 C   0  0  0  0  0  0  0  0  0  0  0  0
   -5.7551    0.4056    1.4338 H   0  0  0  0  0  0  0  0  0  0  0  0
   -4.4028   -0.7211    1.7753 H   0  0  0  0  0  0  0  0  0  0  0  0
   -4.9245   -0.4077    0.0687 H   0  0  0  0  0  0  0  0  0  0  0  0
  1  6  2  0  0  0  0
  2  3  2  0  0  0  0
  2  1  1  0  0  0  0
  3  4  1  0  0  0  0
  4  5  2  0  0  0  0
  5  6  1  0  0  0  0
  5 10  1  0  0  0  0
  6 13  1  0  0  0  0
  7  1  1  0  0  0  0
  8  2  1  0  0  0  0
  9  4  1  0  0  0  0
 12 11  3  0  0  0  0
 13 14  1  0  0  0  0
 14 15  1  0  0  0  0
 14 16  1  0  0  0  0
 17 14  1  0  0  0  0
M  RAD  1   3   2
M  END
