Coordinates from ORCA-job p-CH3O-Ph-N2+-B3LYPG-aug-cc-pVDZ-scan-d09-49-n400
 OpenBabel09291715233D

 17 16  0  0  0  0  0  0  0  0999 V2000
   -2.1640   -0.2047    0.2237 C   0  0  0  0  0  0  0  0  0  0  0  0
   -0.8020   -0.2875   -0.2079 C   0  0  0  0  0  0  0  0  0  0  0  0
   -0.3378    0.9549   -0.1217 C   0  0  0  0  0  0  0  0  0  0  0  0
   -0.6077    2.2246    0.1940 C   0  0  0  0  0  0  0  0  0  0  0  0
   -1.9658    2.2123    0.6070 C   0  0  0  0  0  0  0  0  0  0  0  0
   -2.7359    1.0232    0.6241 C   0  0  0  0  0  0  0  0  0  0  0  0
   -2.7182   -1.1419    0.2211 H   0  0  0  0  0  0  0  0  0  0  0  0
   -0.3131   -1.2050   -0.5258 H   0  0  0  0  0  0  0  0  0  0  0  0
    0.0211    3.1111    0.1645 H   0  0  0  0  0  0  0  0  0  0  0  0
   -2.4063    3.1618    0.9160 H   0  0  0  0  0  0  0  0  0  0  0  0
    2.9430    0.8699   -1.1403 N   0  0  0  0  0  0  0  0  0  0  0  0
    3.9969    0.8436   -1.4672 N   0  0  0  0  0  0  0  0  0  0  0  0
   -3.9969    1.1708    1.0367 O   0  0  0  0  0  0  0  0  0  0  0  0
   -4.8644    0.0189    1.0905 C   0  0  0  0  0  0  0  0  0  0  0  0
   -5.8218    0.3988    1.4530 H   0  0  0  0  0  0  0  0  0  0  0  0
   -4.4674   -0.7254    1.7945 H   0  0  0  0  0  0  0  0  0  0  0  0
   -4.9892   -0.4120    0.0876 H   0  0  0  0  0  0  0  0  0  0  0  0
  1  6  2  0  0  0  0
  2  3  2  0  0  0  0
  2  1  1  0  0  0  0
  3  4  1  0  0  0  0
  4  5  2  0  0  0  0
  5  6  1  0  0  0  0
  5 10  1  0  0  0  0
  6 13  1  0  0  0  0
  7  1  1  0  0  0  0
  8  2  1  0  0  0  0
  9  4  1  0  0  0  0
 12 11  3  0  0  0  0
 13 14  1  0  0  0  0
 14 15  1  0  0  0  0
 14 16  1  0  0  0  0
 17 14  1  0  0  0  0
M  RAD  1   3   2
M  END
