Coordinates from ORCA-job p-CH3O-Ph-N2+-B3LYPG-aug-cc-pVDZ-scan-d09-49-n400
 OpenBabel09291715233D

 17 16  0  0  0  0  0  0  0  0999 V2000
   -2.1451   -0.2052    0.2179 C   0  0  0  0  0  0  0  0  0  0  0  0
   -0.7830   -0.2878   -0.2137 C   0  0  0  0  0  0  0  0  0  0  0  0
   -0.3208    0.9538   -0.1271 C   0  0  0  0  0  0  0  0  0  0  0  0
   -0.5873    2.2230    0.1875 C   0  0  0  0  0  0  0  0  0  0  0  0
   -1.9455    2.2124    0.6008 C   0  0  0  0  0  0  0  0  0  0  0  0
   -2.7164    1.0234    0.6182 C   0  0  0  0  0  0  0  0  0  0  0  0
   -2.7000   -1.1419    0.2156 H   0  0  0  0  0  0  0  0  0  0  0  0
   -0.2930   -1.2045   -0.5319 H   0  0  0  0  0  0  0  0  0  0  0  0
    0.0434    3.1079    0.1571 H   0  0  0  0  0  0  0  0  0  0  0  0
   -2.3856    3.1620    0.9097 H   0  0  0  0  0  0  0  0  0  0  0  0
    2.7971    0.8700   -1.0957 N   0  0  0  0  0  0  0  0  0  0  0  0
    3.8508    0.8427   -1.4227 N   0  0  0  0  0  0  0  0  0  0  0  0
   -3.9774    1.1717    1.0309 O   0  0  0  0  0  0  0  0  0  0  0  0
   -4.8452    0.0202    1.0849 C   0  0  0  0  0  0  0  0  0  0  0  0
   -5.8025    0.4005    1.4473 H   0  0  0  0  0  0  0  0  0  0  0  0
   -4.4484   -0.7242    1.7889 H   0  0  0  0  0  0  0  0  0  0  0  0
   -4.9703   -0.4108    0.0820 H   0  0  0  0  0  0  0  0  0  0  0  0
  1  6  2  0  0  0  0
  2  3  2  0  0  0  0
  2  1  1  0  0  0  0
  3  4  1  0  0  0  0
  4  5  2  0  0  0  0
  5  6  1  0  0  0  0
  5 10  1  0  0  0  0
  6 13  1  0  0  0  0
  7  1  1  0  0  0  0
  8  2  1  0  0  0  0
  9  4  1  0  0  0  0
 12 11  3  0  0  0  0
 13 14  1  0  0  0  0
 14 15  1  0  0  0  0
 14 16  1  0  0  0  0
 17 14  1  0  0  0  0
M  RAD  1   3   2
M  END
