Coordinates from ORCA-job p-CH3O-Ph-N2+-B3LYPG-aug-cc-pVDZ-scan-d09-49-n400
 OpenBabel09291715233D

 17 17  0  0  0  0  0  0  0  0999 V2000
   -1.9362   -0.2214    0.1511 C   0  0  0  0  0  0  0  0  0  0  0  0
   -0.6298   -0.2679   -0.2568 C   0  0  0  0  0  0  0  0  0  0  0  0
    0.1876    0.9274   -0.2870 C   0  0  0  0  0  0  0  0  0  0  0  0
   -0.4256    2.1782    0.1299 C   0  0  0  0  0  0  0  0  0  0  0  0
   -1.7277    2.2103    0.5339 C   0  0  0  0  0  0  0  0  0  0  0  0
   -2.5110    1.0181    0.5545 C   0  0  0  0  0  0  0  0  0  0  0  0
   -2.5204   -1.1378    0.1614 H   0  0  0  0  0  0  0  0  0  0  0  0
   -0.1722   -1.2068   -0.5692 H   0  0  0  0  0  0  0  0  0  0  0  0
    0.1855    3.0806    0.1087 H   0  0  0  0  0  0  0  0  0  0  0  0
   -2.1939    3.1431    0.8476 H   0  0  0  0  0  0  0  0  0  0  0  0
    1.2565    0.8893   -0.6210 N   0  0  0  0  0  0  0  0  0  0  0  0
    2.3410    0.8544   -0.9596 N   0  0  0  0  0  0  0  0  0  0  0  0
   -3.7508    1.1650    0.9604 O   0  0  0  0  0  0  0  0  0  0  0  0
   -4.6602    0.0332    1.0306 C   0  0  0  0  0  0  0  0  0  0  0  0
   -5.5987    0.4547    1.3948 H   0  0  0  0  0  0  0  0  0  0  0  0
   -4.2758   -0.7102    1.7392 H   0  0  0  0  0  0  0  0  0  0  0  0
   -4.7978   -0.3967    0.0312 H   0  0  0  0  0  0  0  0  0  0  0  0
  1  7  1  0  0  0  0
  1  6  2  0  0  0  0
  2  1  1  0  0  0  0
  3  2  2  0  0  0  0
  3  4  1  0  0  0  0
  4  5  2  0  0  0  0
  5  6  1  0  0  0  0
  5 10  1  0  0  0  0
  6 13  1  0  0  0  0
  8  2  1  0  0  0  0
  9  4  1  0  0  0  0
 11  3  1  0  0  0  0
 12 11  1  0  0  0  0
 13 14  1  0  0  0  0
 14 15  1  0  0  0  0
 14 16  1  0  0  0  0
 17 14  1  0  0  0  0
M  RAD  2  11   2  12   3
M  END
