Coordinates from ORCA-job p-CH3O-Ph-N2+-B3LYPG-aug-cc-pVDZ-scan-d09-49-n400
 OpenBabel09291715233D

 17 17  0  0  0  0  0  0  0  0999 V2000
   -2.0025   -0.2108    0.1733 C   0  0  0  0  0  0  0  0  0  0  0  0
   -0.6656   -0.2788   -0.2479 C   0  0  0  0  0  0  0  0  0  0  0  0
   -0.0492    0.9390   -0.2128 C   0  0  0  0  0  0  0  0  0  0  0  0
   -0.4609    2.1979    0.1442 C   0  0  0  0  0  0  0  0  0  0  0  0
   -1.7939    2.2098    0.5540 C   0  0  0  0  0  0  0  0  0  0  0  0
   -2.5681    1.0223    0.5726 C   0  0  0  0  0  0  0  0  0  0  0  0
   -2.5800   -1.1315    0.1808 H   0  0  0  0  0  0  0  0  0  0  0  0
   -0.1968   -1.2075   -0.5618 H   0  0  0  0  0  0  0  0  0  0  0  0
    0.1572    3.0913    0.1193 H   0  0  0  0  0  0  0  0  0  0  0  0
   -2.2525    3.1471    0.8663 H   0  0  0  0  0  0  0  0  0  0  0  0
    1.7371    0.8760   -0.7705 N   0  0  0  0  0  0  0  0  0  0  0  0
    2.7903    0.8436   -1.0985 N   0  0  0  0  0  0  0  0  0  0  0  0
   -3.8270    1.1745    0.9855 O   0  0  0  0  0  0  0  0  0  0  0  0
   -4.7060    0.0323    1.0445 C   0  0  0  0  0  0  0  0  0  0  0  0
   -5.6583    0.4244    1.4076 H   0  0  0  0  0  0  0  0  0  0  0  0
   -4.3161   -0.7146    1.7490 H   0  0  0  0  0  0  0  0  0  0  0  0
   -4.8373   -0.4016    0.0441 H   0  0  0  0  0  0  0  0  0  0  0  0
  1  7  1  0  0  0  0
  1  6  2  0  0  0  0
  2  3  2  0  0  0  0
  2  1  1  0  0  0  0
  3  4  1  0  0  0  0
  4  5  2  0  0  0  0
  5  6  1  0  0  0  0
  5 10  1  0  0  0  0
  6 13  1  0  0  0  0
  8  2  1  0  0  0  0
  9  4  1  0  0  0  0
 11  3  1  0  0  0  0
 12 11  1  0  0  0  0
 13 14  1  0  0  0  0
 14 15  1  0  0  0  0
 14 16  1  0  0  0  0
 17 14  1  0  0  0  0
M  RAD  2  11   2  12   3
M  END
