Coordinates from ORCA-job p-CH3O-Ph-N2+-B3LYPG-aug-cc-pVDZ-scan-d09-49-n400
 OpenBabel09291715233D

 17 16  0  0  0  0  0  0  0  0999 V2000
   -2.1108   -0.2054    0.2074 C   0  0  0  0  0  0  0  0  0  0  0  0
   -0.7504   -0.2894   -0.2240 C   0  0  0  0  0  0  0  0  0  0  0  0
   -0.2760    0.9511   -0.1413 C   0  0  0  0  0  0  0  0  0  0  0  0
   -0.5521    2.2207    0.1763 C   0  0  0  0  0  0  0  0  0  0  0  0
   -1.9089    2.2115    0.5894 C   0  0  0  0  0  0  0  0  0  0  0  0
   -2.6805    1.0235    0.6072 C   0  0  0  0  0  0  0  0  0  0  0  0
   -2.6678   -1.1407    0.2059 H   0  0  0  0  0  0  0  0  0  0  0  0
   -0.2639   -1.2079   -0.5414 H   0  0  0  0  0  0  0  0  0  0  0  0
    0.0771    3.1065    0.1466 H   0  0  0  0  0  0  0  0  0  0  0  0
   -2.3493    3.1608    0.8984 H   0  0  0  0  0  0  0  0  0  0  0  0
    2.5352    0.8706   -1.0155 N   0  0  0  0  0  0  0  0  0  0  0  0
    3.5887    0.8418   -1.3428 N   0  0  0  0  0  0  0  0  0  0  0  0
   -3.9416    1.1733    1.0203 O   0  0  0  0  0  0  0  0  0  0  0  0
   -4.8106    0.0230    1.0748 C   0  0  0  0  0  0  0  0  0  0  0  0
   -5.7674    0.4044    1.4373 H   0  0  0  0  0  0  0  0  0  0  0  0
   -4.4147   -0.7218    1.7789 H   0  0  0  0  0  0  0  0  0  0  0  0
   -4.9365   -0.4085    0.0722 H   0  0  0  0  0  0  0  0  0  0  0  0
  1  6  2  0  0  0  0
  2  3  2  0  0  0  0
  2  1  1  0  0  0  0
  3  4  1  0  0  0  0
  4  5  2  0  0  0  0
  5  6  1  0  0  0  0
  5 10  1  0  0  0  0
  6 13  1  0  0  0  0
  7  1  1  0  0  0  0
  8  2  1  0  0  0  0
  9  4  1  0  0  0  0
 12 11  3  0  0  0  0
 13 14  1  0  0  0  0
 14 15  1  0  0  0  0
 14 16  1  0  0  0  0
 17 14  1  0  0  0  0
M  RAD  1   3   2
M  END
