Coordinates from ORCA-job p-CH3O-Ph-N2+-B3LYPG-aug-cc-pVDZ-scan-d09-49-n400
 OpenBabel09291715233D

 17 16  0  0  0  0  0  0  0  0999 V2000
   -2.3070   -0.2031    0.2662 C   0  0  0  0  0  0  0  0  0  0  0  0
   -0.9434   -0.2809   -0.1633 C   0  0  0  0  0  0  0  0  0  0  0  0
   -0.4883    0.9645   -0.0781 C   0  0  0  0  0  0  0  0  0  0  0  0
   -0.7586    2.2323    0.2433 C   0  0  0  0  0  0  0  0  0  0  0  0
   -2.1179    2.2139    0.6544 C   0  0  0  0  0  0  0  0  0  0  0  0
   -2.8838    1.0219    0.6687 C   0  0  0  0  0  0  0  0  0  0  0  0
   -2.8577   -1.1423    0.2586 H   0  0  0  0  0  0  0  0  0  0  0  0
   -0.4510   -1.1971   -0.4804 H   0  0  0  0  0  0  0  0  0  0  0  0
   -0.1338    3.1219    0.2157 H   0  0  0  0  0  0  0  0  0  0  0  0
   -2.5622    3.1623    0.9616 H   0  0  0  0  0  0  0  0  0  0  0  0
    4.0398    0.8700   -1.4751 N   0  0  0  0  0  0  0  0  0  0  0  0
    5.0947    0.8499   -1.8006 N   0  0  0  0  0  0  0  0  0  0  0  0
   -4.1455    1.1641    1.0800 O   0  0  0  0  0  0  0  0  0  0  0  0
   -5.0083    0.0083    1.1338 C   0  0  0  0  0  0  0  0  0  0  0  0
   -5.9673    0.3845    1.4959 H   0  0  0  0  0  0  0  0  0  0  0  0
   -4.6082   -0.7339    1.8381 H   0  0  0  0  0  0  0  0  0  0  0  0
   -5.1310   -0.4229    0.1308 H   0  0  0  0  0  0  0  0  0  0  0  0
  1  6  2  0  0  0  0
  2  3  2  0  0  0  0
  2  1  1  0  0  0  0
  3  4  1  0  0  0  0
  4  5  2  0  0  0  0
  5  6  1  0  0  0  0
  5 10  1  0  0  0  0
  6 13  1  0  0  0  0
  7  1  1  0  0  0  0
  8  2  1  0  0  0  0
  9  4  1  0  0  0  0
 12 11  3  0  0  0  0
 13 14  1  0  0  0  0
 14 15  1  0  0  0  0
 14 16  1  0  0  0  0
 17 14  1  0  0  0  0
M  RAD  1   3   2
M  END
