Coordinates from ORCA-job p-CH3O-Ph-N2+-B3LYPG-aug-cc-pVDZ-scan-d09-49-n400
 OpenBabel09291715233D

 17 16  0  0  0  0  0  0  0  0999 V2000
   -2.2539   -0.2039    0.2512 C   0  0  0  0  0  0  0  0  0  0  0  0
   -0.8910   -0.2836   -0.1799 C   0  0  0  0  0  0  0  0  0  0  0  0
   -0.4328    0.9605   -0.0923 C   0  0  0  0  0  0  0  0  0  0  0  0
   -0.7028    2.2295    0.2243 C   0  0  0  0  0  0  0  0  0  0  0  0
   -2.0617    2.2133    0.6366 C   0  0  0  0  0  0  0  0  0  0  0  0
   -2.8291    1.0223    0.6524 C   0  0  0  0  0  0  0  0  0  0  0  0
   -2.8054   -1.1427    0.2468 H   0  0  0  0  0  0  0  0  0  0  0  0
   -0.4002   -1.2002   -0.4980 H   0  0  0  0  0  0  0  0  0  0  0  0
   -0.0765    3.1181    0.1959 H   0  0  0  0  0  0  0  0  0  0  0  0
   -2.5040    3.1620    0.9455 H   0  0  0  0  0  0  0  0  0  0  0  0
    3.6341    0.8703   -1.3516 N   0  0  0  0  0  0  0  0  0  0  0  0
    4.6887    0.8481   -1.6776 N   0  0  0  0  0  0  0  0  0  0  0  0
   -4.0904    1.1665    1.0644 O   0  0  0  0  0  0  0  0  0  0  0  0
   -4.9553    0.0124    1.1173 C   0  0  0  0  0  0  0  0  0  0  0  0
   -5.9137    0.3901    1.4796 H   0  0  0  0  0  0  0  0  0  0  0  0
   -4.5567   -0.7311    1.8211 H   0  0  0  0  0  0  0  0  0  0  0  0
   -5.0787   -0.4181    0.1140 H   0  0  0  0  0  0  0  0  0  0  0  0
  1  6  2  0  0  0  0
  2  3  2  0  0  0  0
  2  1  1  0  0  0  0
  3  4  1  0  0  0  0
  4  5  2  0  0  0  0
  5  6  1  0  0  0  0
  5 10  1  0  0  0  0
  6 13  1  0  0  0  0
  7  1  1  0  0  0  0
  8  2  1  0  0  0  0
  9  4  1  0  0  0  0
 12 11  3  0  0  0  0
 13 14  1  0  0  0  0
 14 15  1  0  0  0  0
 14 16  1  0  0  0  0
 17 14  1  0  0  0  0
M  RAD  1   3   2
M  END
