Coordinates from ORCA-job p-CH3O-Ph-N2+-B3LYPG-aug-cc-pVDZ-scan-d09-49-n400
 OpenBabel09291715233D

 17 17  0  0  0  0  0  0  0  0999 V2000
   -1.9667   -0.2172    0.1612 C   0  0  0  0  0  0  0  0  0  0  0  0
   -0.6468   -0.2689   -0.2519 C   0  0  0  0  0  0  0  0  0  0  0  0
    0.0760    0.9334   -0.2521 C   0  0  0  0  0  0  0  0  0  0  0  0
   -0.4428    2.1839    0.1362 C   0  0  0  0  0  0  0  0  0  0  0  0
   -1.7582    2.2110    0.5433 C   0  0  0  0  0  0  0  0  0  0  0  0
   -2.5355    1.0200    0.5622 C   0  0  0  0  0  0  0  0  0  0  0  0
   -2.5518   -1.1324    0.1720 H   0  0  0  0  0  0  0  0  0  0  0  0
   -0.1879   -1.2052   -0.5641 H   0  0  0  0  0  0  0  0  0  0  0  0
    0.1676    3.0847    0.1149 H   0  0  0  0  0  0  0  0  0  0  0  0
   -2.2258    3.1425    0.8573 H   0  0  0  0  0  0  0  0  0  0  0  0
    1.4892    0.8816   -0.6937 N   0  0  0  0  0  0  0  0  0  0  0  0
    2.5519    0.8479   -1.0248 N   0  0  0  0  0  0  0  0  0  0  0  0
   -3.7858    1.1697    0.9720 O   0  0  0  0  0  0  0  0  0  0  0  0
   -4.6796    0.0335    1.0366 C   0  0  0  0  0  0  0  0  0  0  0  0
   -5.6252    0.4404    1.4004 H   0  0  0  0  0  0  0  0  0  0  0  0
   -4.2934   -0.7123    1.7430 H   0  0  0  0  0  0  0  0  0  0  0  0
   -4.8148   -0.3992    0.0372 H   0  0  0  0  0  0  0  0  0  0  0  0
  1  7  1  0  0  0  0
  1  6  2  0  0  0  0
  2  1  1  0  0  0  0
  3  2  2  0  0  0  0
  3  4  1  0  0  0  0
  4  5  2  0  0  0  0
  5  6  1  0  0  0  0
  5 10  1  0  0  0  0
  6 13  1  0  0  0  0
  8  2  1  0  0  0  0
  9  4  1  0  0  0  0
 11  3  1  0  0  0  0
 12 11  1  0  0  0  0
 13 14  1  0  0  0  0
 14 15  1  0  0  0  0
 14 16  1  0  0  0  0
 17 14  1  0  0  0  0
M  RAD  2  11   2  12   3
M  END
