Coordinates from ORCA-job p-CH3O-Ph-N2+-B3LYPG-aug-cc-pVDZ-scan-d09-49-n400
 OpenBabel09291715233D

 17 17  0  0  0  0  0  0  0  0999 V2000
   -1.9988   -0.2114    0.1721 C   0  0  0  0  0  0  0  0  0  0  0  0
   -0.6636   -0.2777   -0.2483 C   0  0  0  0  0  0  0  0  0  0  0  0
   -0.0367    0.9385   -0.2167 C   0  0  0  0  0  0  0  0  0  0  0  0
   -0.4589    2.1964    0.1434 C   0  0  0  0  0  0  0  0  0  0  0  0
   -1.7902    2.2099    0.5529 C   0  0  0  0  0  0  0  0  0  0  0  0
   -2.5644    1.0221    0.5715 C   0  0  0  0  0  0  0  0  0  0  0  0
   -2.5775   -1.1312    0.1801 H   0  0  0  0  0  0  0  0  0  0  0  0
   -0.1957   -1.2071   -0.5620 H   0  0  0  0  0  0  0  0  0  0  0  0
    0.1585    3.0905    0.1188 H   0  0  0  0  0  0  0  0  0  0  0  0
   -2.2501    3.1463    0.8654 H   0  0  0  0  0  0  0  0  0  0  0  0
    1.7113    0.8764   -0.7625 N   0  0  0  0  0  0  0  0  0  0  0  0
    2.7649    0.8439   -1.0907 N   0  0  0  0  0  0  0  0  0  0  0  0
   -3.8228    1.1742    0.9841 O   0  0  0  0  0  0  0  0  0  0  0  0
   -4.7029    0.0326    1.0436 C   0  0  0  0  0  0  0  0  0  0  0  0
   -5.6547    0.4258    1.4067 H   0  0  0  0  0  0  0  0  0  0  0  0
   -4.3135   -0.7144    1.7483 H   0  0  0  0  0  0  0  0  0  0  0  0
   -4.8346   -0.4014    0.0433 H   0  0  0  0  0  0  0  0  0  0  0  0
  1  7  1  0  0  0  0
  1  6  2  0  0  0  0
  2  3  2  0  0  0  0
  2  1  1  0  0  0  0
  3  4  1  0  0  0  0
  4  5  2  0  0  0  0
  5  6  1  0  0  0  0
  5 10  1  0  0  0  0
  6 13  1  0  0  0  0
  8  2  1  0  0  0  0
  9  4  1  0  0  0  0
 11  3  1  0  0  0  0
 12 11  1  0  0  0  0
 13 14  1  0  0  0  0
 14 15  1  0  0  0  0
 14 16  1  0  0  0  0
 17 14  1  0  0  0  0
M  RAD  2  11   2  12   3
M  END
