Coordinates from ORCA-job p-CH3O-Ph-N2+-B3LYPG-aug-cc-pVDZ-scan-d09-49-n400
 OpenBabel09291715233D

 17 16  0  0  0  0  0  0  0  0999 V2000
   -2.1094   -0.2056    0.2069 C   0  0  0  0  0  0  0  0  0  0  0  0
   -0.7487   -0.2889   -0.2244 C   0  0  0  0  0  0  0  0  0  0  0  0
   -0.2779    0.9511   -0.1407 C   0  0  0  0  0  0  0  0  0  0  0  0
   -0.5503    2.2201    0.1756 C   0  0  0  0  0  0  0  0  0  0  0  0
   -1.9073    2.2118    0.5890 C   0  0  0  0  0  0  0  0  0  0  0  0
   -2.6792    1.0237    0.6069 C   0  0  0  0  0  0  0  0  0  0  0  0
   -2.6664   -1.1410    0.2055 H   0  0  0  0  0  0  0  0  0  0  0  0
   -0.2607   -1.2064   -0.5421 H   0  0  0  0  0  0  0  0  0  0  0  0
    0.0803    3.1047    0.1453 H   0  0  0  0  0  0  0  0  0  0  0  0
   -2.3475    3.1612    0.8979 H   0  0  0  0  0  0  0  0  0  0  0  0
    2.5237    0.8706   -1.0120 N   0  0  0  0  0  0  0  0  0  0  0  0
    3.5772    0.8416   -1.3393 N   0  0  0  0  0  0  0  0  0  0  0  0
   -3.9402    1.1734    1.0199 O   0  0  0  0  0  0  0  0  0  0  0  0
   -4.8091    0.0230    1.0743 C   0  0  0  0  0  0  0  0  0  0  0  0
   -5.7660    0.4043    1.4368 H   0  0  0  0  0  0  0  0  0  0  0  0
   -4.4131   -0.7218    1.7784 H   0  0  0  0  0  0  0  0  0  0  0  0
   -4.9349   -0.4084    0.0717 H   0  0  0  0  0  0  0  0  0  0  0  0
  1  6  2  0  0  0  0
  2  3  2  0  0  0  0
  2  1  1  0  0  0  0
  3  4  1  0  0  0  0
  4  5  2  0  0  0  0
  5  6  1  0  0  0  0
  5 10  1  0  0  0  0
  6 13  1  0  0  0  0
  7  1  1  0  0  0  0
  8  2  1  0  0  0  0
  9  4  1  0  0  0  0
 12 11  3  0  0  0  0
 13 14  1  0  0  0  0
 14 15  1  0  0  0  0
 14 16  1  0  0  0  0
 17 14  1  0  0  0  0
M  RAD  1   3   2
M  END
