Coordinates from ORCA-job p-CH3O-Ph-N2+-B3LYPG-aug-cc-pVDZ-scan-d09-49-n400
 OpenBabel09291715233D

 17 17  0  0  0  0  0  0  0  0999 V2000
   -1.9309   -0.2223    0.1494 C   0  0  0  0  0  0  0  0  0  0  0  0
   -0.6272   -0.2696   -0.2578 C   0  0  0  0  0  0  0  0  0  0  0  0
    0.2102    0.9263   -0.2942 C   0  0  0  0  0  0  0  0  0  0  0  0
   -0.4228    2.1791    0.1293 C   0  0  0  0  0  0  0  0  0  0  0  0
   -1.7226    2.2101    0.5323 C   0  0  0  0  0  0  0  0  0  0  0  0
   -2.5069    1.0177    0.5531 C   0  0  0  0  0  0  0  0  0  0  0  0
   -2.5150   -1.1390    0.1596 H   0  0  0  0  0  0  0  0  0  0  0  0
   -0.1670   -1.2074   -0.5708 H   0  0  0  0  0  0  0  0  0  0  0  0
    0.1909    3.0800    0.1070 H   0  0  0  0  0  0  0  0  0  0  0  0
   -2.1886    3.1433    0.8460 H   0  0  0  0  0  0  0  0  0  0  0  0
    1.2122    0.8909   -0.6072 N   0  0  0  0  0  0  0  0  0  0  0  0
    2.3036    0.8559   -0.9481 N   0  0  0  0  0  0  0  0  0  0  0  0
   -3.7449    1.1640    0.9584 O   0  0  0  0  0  0  0  0  0  0  0  0
   -4.6573    0.0332    1.0297 C   0  0  0  0  0  0  0  0  0  0  0  0
   -5.5945    0.4575    1.3940 H   0  0  0  0  0  0  0  0  0  0  0  0
   -4.2733   -0.7098    1.7387 H   0  0  0  0  0  0  0  0  0  0  0  0
   -4.7954   -0.3963    0.0303 H   0  0  0  0  0  0  0  0  0  0  0  0
  1  7  1  0  0  0  0
  1  6  2  0  0  0  0
  2  1  1  0  0  0  0
  3  2  2  0  0  0  0
  3  4  1  0  0  0  0
  4  5  2  0  0  0  0
  5  6  1  0  0  0  0
  5 10  1  0  0  0  0
  6 13  1  0  0  0  0
  8  2  1  0  0  0  0
  9  4  1  0  0  0  0
 11  3  1  0  0  0  0
 12 11  1  0  0  0  0
 13 14  1  0  0  0  0
 14 15  1  0  0  0  0
 14 16  1  0  0  0  0
 17 14  1  0  0  0  0
M  RAD  2  11   2  12   3
M  END
