Coordinates from ORCA-job p-CH3O-Ph-N2+-B3LYPG-aug-cc-pVDZ-scan-d09-49-n400
 OpenBabel09291715233D

 17 17  0  0  0  0  0  0  0  0999 V2000
   -1.9302   -0.2224    0.1491 C   0  0  0  0  0  0  0  0  0  0  0  0
   -0.6268   -0.2699   -0.2581 C   0  0  0  0  0  0  0  0  0  0  0  0
    0.2130    0.9262   -0.2954 C   0  0  0  0  0  0  0  0  0  0  0  0
   -0.4223    2.1793    0.1291 C   0  0  0  0  0  0  0  0  0  0  0  0
   -1.7219    2.2102    0.5320 C   0  0  0  0  0  0  0  0  0  0  0  0
   -2.5063    1.0176    0.5528 C   0  0  0  0  0  0  0  0  0  0  0  0
   -2.5143   -1.1392    0.1594 H   0  0  0  0  0  0  0  0  0  0  0  0
   -0.1663   -1.2077   -0.5710 H   0  0  0  0  0  0  0  0  0  0  0  0
    0.1917    3.0800    0.1068 H   0  0  0  0  0  0  0  0  0  0  0  0
   -2.1879    3.1433    0.8459 H   0  0  0  0  0  0  0  0  0  0  0  0
    1.2056    0.8911   -0.6051 N   0  0  0  0  0  0  0  0  0  0  0  0
    2.2981    0.8560   -0.9460 N   0  0  0  0  0  0  0  0  0  0  0  0
   -3.7440    1.1639    0.9581 O   0  0  0  0  0  0  0  0  0  0  0  0
   -4.6567    0.0332    1.0295 C   0  0  0  0  0  0  0  0  0  0  0  0
   -5.5937    0.4578    1.3939 H   0  0  0  0  0  0  0  0  0  0  0  0
   -4.2727   -0.7098    1.7386 H   0  0  0  0  0  0  0  0  0  0  0  0
   -4.7949   -0.3962    0.0302 H   0  0  0  0  0  0  0  0  0  0  0  0
  1  7  1  0  0  0  0
  1  6  2  0  0  0  0
  2  1  1  0  0  0  0
  3  2  2  0  0  0  0
  3  4  1  0  0  0  0
  4  5  2  0  0  0  0
  5  6  1  0  0  0  0
  5 10  1  0  0  0  0
  6 13  1  0  0  0  0
  8  2  1  0  0  0  0
  9  4  1  0  0  0  0
 11  3  1  0  0  0  0
 12 11  1  0  0  0  0
 13 14  1  0  0  0  0
 14 15  1  0  0  0  0
 14 16  1  0  0  0  0
 17 14  1  0  0  0  0
M  RAD  2  11   2  12   3
M  END
