Coordinates from ORCA-job p-CH3O-Ph-N2+-B3LYPG-aug-cc-pVDZ-scan-d09-49-n400
 OpenBabel09291715233D

 17 16  0  0  0  0  0  0  0  0999 V2000
   -2.0735   -0.2060    0.1959 C   0  0  0  0  0  0  0  0  0  0  0  0
   -0.7163   -0.2893   -0.2344 C   0  0  0  0  0  0  0  0  0  0  0  0
   -0.2229    0.9482   -0.1580 C   0  0  0  0  0  0  0  0  0  0  0  0
   -0.5153    2.2169    0.1643 C   0  0  0  0  0  0  0  0  0  0  0  0
   -1.8691    2.2108    0.5771 C   0  0  0  0  0  0  0  0  0  0  0  0
   -2.6416    1.0237    0.5954 C   0  0  0  0  0  0  0  0  0  0  0  0
   -2.6339   -1.1389    0.1959 H   0  0  0  0  0  0  0  0  0  0  0  0
   -0.2334   -1.2096   -0.5510 H   0  0  0  0  0  0  0  0  0  0  0  0
    0.1122    3.1033    0.1353 H   0  0  0  0  0  0  0  0  0  0  0  0
   -2.3113    3.1588    0.8864 H   0  0  0  0  0  0  0  0  0  0  0  0
    2.2530    0.8714   -0.9291 N   0  0  0  0  0  0  0  0  0  0  0  0
    3.3060    0.8401   -1.2567 N   0  0  0  0  0  0  0  0  0  0  0  0
   -3.9027    1.1748    1.0087 O   0  0  0  0  0  0  0  0  0  0  0  0
   -4.7731    0.0259    1.0638 C   0  0  0  0  0  0  0  0  0  0  0  0
   -5.7294    0.4088    1.4264 H   0  0  0  0  0  0  0  0  0  0  0  0
   -4.3783   -0.7194    1.7679 H   0  0  0  0  0  0  0  0  0  0  0  0
   -4.8999   -0.4061    0.0616 H   0  0  0  0  0  0  0  0  0  0  0  0
  1  7  1  0  0  0  0
  1  6  2  0  0  0  0
  2  3  2  0  0  0  0
  2  1  1  0  0  0  0
  3  4  1  0  0  0  0
  4  5  2  0  0  0  0
  5  6  1  0  0  0  0
  5 10  1  0  0  0  0
  6 13  1  0  0  0  0
  8  2  1  0  0  0  0
  9  4  1  0  0  0  0
 12 11  3  0  0  0  0
 13 14  1  0  0  0  0
 14 15  1  0  0  0  0
 14 16  1  0  0  0  0
 17 14  1  0  0  0  0
M  RAD  1   3   2
M  END
