Coordinates from ORCA-job p-CH3O-Ph-N2+-B3LYPG-aug-cc-pVDZ-scan-d09-49-n400
 OpenBabel09291715233D

 17 16  0  0  0  0  0  0  0  0999 V2000
   -2.2130   -0.2044    0.2388 C   0  0  0  0  0  0  0  0  0  0  0  0
   -0.8503   -0.2850   -0.1926 C   0  0  0  0  0  0  0  0  0  0  0  0
   -0.3927    0.9580   -0.1045 C   0  0  0  0  0  0  0  0  0  0  0  0
   -0.6593    2.2270    0.2103 C   0  0  0  0  0  0  0  0  0  0  0  0
   -2.0181    2.2131    0.6231 C   0  0  0  0  0  0  0  0  0  0  0  0
   -2.7869    1.0227    0.6396 C   0  0  0  0  0  0  0  0  0  0  0  0
   -2.7655   -1.1427    0.2352 H   0  0  0  0  0  0  0  0  0  0  0  0
   -0.3591   -1.2013   -0.5110 H   0  0  0  0  0  0  0  0  0  0  0  0
   -0.0307    3.1139    0.1809 H   0  0  0  0  0  0  0  0  0  0  0  0
   -2.4592    3.1623    0.9322 H   0  0  0  0  0  0  0  0  0  0  0  0
    3.3195    0.8701   -1.2555 N   0  0  0  0  0  0  0  0  0  0  0  0
    4.3738    0.8460   -1.5819 N   0  0  0  0  0  0  0  0  0  0  0  0
   -4.0480    1.1685    1.0519 O   0  0  0  0  0  0  0  0  0  0  0  0
   -4.9140    0.0153    1.1050 C   0  0  0  0  0  0  0  0  0  0  0  0
   -5.8720    0.3939    1.4674 H   0  0  0  0  0  0  0  0  0  0  0  0
   -4.5161   -0.7286    1.8089 H   0  0  0  0  0  0  0  0  0  0  0  0
   -5.0380   -0.4153    0.1018 H   0  0  0  0  0  0  0  0  0  0  0  0
  1  6  2  0  0  0  0
  2  3  2  0  0  0  0
  2  1  1  0  0  0  0
  3  4  1  0  0  0  0
  4  5  2  0  0  0  0
  5  6  1  0  0  0  0
  5 10  1  0  0  0  0
  6 13  1  0  0  0  0
  7  1  1  0  0  0  0
  8  2  1  0  0  0  0
  9  4  1  0  0  0  0
 12 11  3  0  0  0  0
 13 14  1  0  0  0  0
 14 15  1  0  0  0  0
 14 16  1  0  0  0  0
 17 14  1  0  0  0  0
M  RAD  1   3   2
M  END
