Coordinates from ORCA-job p-CH3O-Ph-N2+-B3LYPG-aug-cc-pVDZ-scan-d09-49-n400
 OpenBabel09291715233D

 17 16  0  0  0  0  0  0  0  0999 V2000
   -2.1465   -0.2049    0.2184 C   0  0  0  0  0  0  0  0  0  0  0  0
   -0.7848   -0.2883   -0.2132 C   0  0  0  0  0  0  0  0  0  0  0  0
   -0.3186    0.9537   -0.1278 C   0  0  0  0  0  0  0  0  0  0  0  0
   -0.5893    2.2236    0.1882 C   0  0  0  0  0  0  0  0  0  0  0  0
   -1.9472    2.2120    0.6012 C   0  0  0  0  0  0  0  0  0  0  0  0
   -2.7177    1.0233    0.6186 C   0  0  0  0  0  0  0  0  0  0  0  0
   -2.7015   -1.1415    0.2161 H   0  0  0  0  0  0  0  0  0  0  0  0
   -0.2964   -1.2060   -0.5311 H   0  0  0  0  0  0  0  0  0  0  0  0
    0.0399    3.1097    0.1585 H   0  0  0  0  0  0  0  0  0  0  0  0
   -2.3875    3.1615    0.9102 H   0  0  0  0  0  0  0  0  0  0  0  0
    2.8089    0.8700   -1.0993 N   0  0  0  0  0  0  0  0  0  0  0  0
    3.8627    0.8429   -1.4263 N   0  0  0  0  0  0  0  0  0  0  0  0
   -3.9788    1.1716    1.0313 O   0  0  0  0  0  0  0  0  0  0  0  0
   -4.8467    0.0202    1.0853 C   0  0  0  0  0  0  0  0  0  0  0  0
   -5.8040    0.4006    1.4478 H   0  0  0  0  0  0  0  0  0  0  0  0
   -4.4501   -0.7242    1.7893 H   0  0  0  0  0  0  0  0  0  0  0  0
   -4.9719   -0.4109    0.0825 H   0  0  0  0  0  0  0  0  0  0  0  0
  1  6  2  0  0  0  0
  2  3  2  0  0  0  0
  2  1  1  0  0  0  0
  3  4  1  0  0  0  0
  4  5  2  0  0  0  0
  5  6  1  0  0  0  0
  5 10  1  0  0  0  0
  6 13  1  0  0  0  0
  7  1  1  0  0  0  0
  8  2  1  0  0  0  0
  9  4  1  0  0  0  0
 12 11  3  0  0  0  0
 13 14  1  0  0  0  0
 14 15  1  0  0  0  0
 14 16  1  0  0  0  0
 17 14  1  0  0  0  0
M  RAD  1   3   2
M  END
