Coordinates from ORCA-job p-CH3O-Ph-N2+-B3LYPG-aug-cc-pVDZ-scan-d09-49-n400
 OpenBabel09291715233D

 17 16  0  0  0  0  0  0  0  0999 V2000
   -2.0110   -0.2097    0.1761 C   0  0  0  0  0  0  0  0  0  0  0  0
   -0.6704   -0.2810   -0.2468 C   0  0  0  0  0  0  0  0  0  0  0  0
   -0.0763    0.9402   -0.2042 C   0  0  0  0  0  0  0  0  0  0  0  0
   -0.4658    2.2010    0.1463 C   0  0  0  0  0  0  0  0  0  0  0  0
   -1.8026    2.2096    0.5566 C   0  0  0  0  0  0  0  0  0  0  0  0
   -2.5766    1.0226    0.5753 C   0  0  0  0  0  0  0  0  0  0  0  0
   -2.5857   -1.1324    0.1824 H   0  0  0  0  0  0  0  0  0  0  0  0
   -0.1996   -1.2084   -0.5611 H   0  0  0  0  0  0  0  0  0  0  0  0
    0.1539    3.0931    0.1207 H   0  0  0  0  0  0  0  0  0  0  0  0
   -2.2581    3.1489    0.8683 H   0  0  0  0  0  0  0  0  0  0  0  0
    1.7962    0.8753   -0.7887 N   0  0  0  0  0  0  0  0  0  0  0  0
    2.8489    0.8431   -1.1165 N   0  0  0  0  0  0  0  0  0  0  0  0
   -3.8363    1.1751    0.9884 O   0  0  0  0  0  0  0  0  0  0  0  0
   -4.7132    0.0317    1.0466 C   0  0  0  0  0  0  0  0  0  0  0  0
   -5.6665    0.4216    1.4096 H   0  0  0  0  0  0  0  0  0  0  0  0
   -4.3226   -0.7152    1.7510 H   0  0  0  0  0  0  0  0  0  0  0  0
   -4.8438   -0.4021    0.0459 H   0  0  0  0  0  0  0  0  0  0  0  0
  1  7  1  0  0  0  0
  1  6  2  0  0  0  0
  2  3  2  0  0  0  0
  2  1  1  0  0  0  0
  3  4  1  0  0  0  0
  4  5  2  0  0  0  0
  5  6  1  0  0  0  0
  5 10  1  0  0  0  0
  6 13  1  0  0  0  0
  8  2  1  0  0  0  0
  9  4  1  0  0  0  0
 12 11  3  0  0  0  0
 13 14  1  0  0  0  0
 14 15  1  0  0  0  0
 14 16  1  0  0  0  0
 17 14  1  0  0  0  0
M  RAD  1   3   2
M  END
