Coordinates from ORCA-job p-CH3O-Ph-N2+-B3LYPG-aug-cc-pVDZ-scan-d09-49-n400
 OpenBabel09291715233D

 17 16  0  0  0  0  0  0  0  0999 V2000
   -2.0381   -0.2074    0.1848 C   0  0  0  0  0  0  0  0  0  0  0  0
   -0.6885   -0.2862   -0.2423 C   0  0  0  0  0  0  0  0  0  0  0  0
   -0.1502    0.9438   -0.1810 C   0  0  0  0  0  0  0  0  0  0  0  0
   -0.4848    2.2090    0.1536 C   0  0  0  0  0  0  0  0  0  0  0  0
   -1.8310    2.2097    0.5653 C   0  0  0  0  0  0  0  0  0  0  0  0
   -2.6046    1.0233    0.5840 C   0  0  0  0  0  0  0  0  0  0  0  0
   -2.6048   -1.1360    0.1876 H   0  0  0  0  0  0  0  0  0  0  0  0
   -0.2118   -1.2098   -0.5576 H   0  0  0  0  0  0  0  0  0  0  0  0
    0.1389    3.0978    0.1261 H   0  0  0  0  0  0  0  0  0  0  0  0
   -2.2782    3.1544    0.8755 H   0  0  0  0  0  0  0  0  0  0  0  0
    1.9904    0.8734   -0.8484 N   0  0  0  0  0  0  0  0  0  0  0  0
    3.0431    0.8422   -1.1760 N   0  0  0  0  0  0  0  0  0  0  0  0
   -3.8655    1.1756    0.9974 O   0  0  0  0  0  0  0  0  0  0  0  0
   -4.7384    0.0293    1.0538 C   0  0  0  0  0  0  0  0  0  0  0  0
   -5.6935    0.4149    1.4166 H   0  0  0  0  0  0  0  0  0  0  0  0
   -4.3455   -0.7169    1.7580 H   0  0  0  0  0  0  0  0  0  0  0  0
   -4.8669   -0.4038    0.0524 H   0  0  0  0  0  0  0  0  0  0  0  0
  1  7  1  0  0  0  0
  1  6  2  0  0  0  0
  2  3  2  0  0  0  0
  2  1  1  0  0  0  0
  3  4  1  0  0  0  0
  4  5  2  0  0  0  0
  5  6  1  0  0  0  0
  5 10  1  0  0  0  0
  6 13  1  0  0  0  0
  8  2  1  0  0  0  0
  9  4  1  0  0  0  0
 12 11  3  0  0  0  0
 13 14  1  0  0  0  0
 14 15  1  0  0  0  0
 14 16  1  0  0  0  0
 17 14  1  0  0  0  0
M  RAD  1   3   2
M  END
