Coordinates from ORCA-job p-CH3O-Ph-N2+-B3LYPG-aug-cc-pVDZ-scan-d09-49-n400
 OpenBabel09291715233D

 17 16  0  0  0  0  0  0  0  0999 V2000
   -2.1321   -0.2053    0.2139 C   0  0  0  0  0  0  0  0  0  0  0  0
   -0.7704   -0.2882   -0.2177 C   0  0  0  0  0  0  0  0  0  0  0  0
   -0.3057    0.9528   -0.1319 C   0  0  0  0  0  0  0  0  0  0  0  0
   -0.5737    2.2220    0.1831 C   0  0  0  0  0  0  0  0  0  0  0  0
   -1.9316    2.2122    0.5965 C   0  0  0  0  0  0  0  0  0  0  0  0
   -2.7029    1.0235    0.6140 C   0  0  0  0  0  0  0  0  0  0  0  0
   -2.6877   -1.1416    0.2118 H   0  0  0  0  0  0  0  0  0  0  0  0
   -0.2810   -1.2052   -0.5357 H   0  0  0  0  0  0  0  0  0  0  0  0
    0.0571    3.1068    0.1527 H   0  0  0  0  0  0  0  0  0  0  0  0
   -2.3716    3.1618    0.9054 H   0  0  0  0  0  0  0  0  0  0  0  0
    2.6971    0.8701   -1.0651 N   0  0  0  0  0  0  0  0  0  0  0  0
    3.7508    0.8423   -1.3922 N   0  0  0  0  0  0  0  0  0  0  0  0
   -3.9638    1.1724    1.0269 O   0  0  0  0  0  0  0  0  0  0  0  0
   -4.8320    0.0212    1.0810 C   0  0  0  0  0  0  0  0  0  0  0  0
   -5.7892    0.4018    1.4435 H   0  0  0  0  0  0  0  0  0  0  0  0
   -4.4355   -0.7233    1.7850 H   0  0  0  0  0  0  0  0  0  0  0  0
   -4.9573   -0.4100    0.0782 H   0  0  0  0  0  0  0  0  0  0  0  0
  1  6  2  0  0  0  0
  2  3  2  0  0  0  0
  2  1  1  0  0  0  0
  3  4  1  0  0  0  0
  4  5  2  0  0  0  0
  5  6  1  0  0  0  0
  5 10  1  0  0  0  0
  6 13  1  0  0  0  0
  7  1  1  0  0  0  0
  8  2  1  0  0  0  0
  9  4  1  0  0  0  0
 12 11  3  0  0  0  0
 13 14  1  0  0  0  0
 14 15  1  0  0  0  0
 14 16  1  0  0  0  0
 17 14  1  0  0  0  0
M  RAD  1   3   2
M  END
