Coordinates from ORCA-job p-CH3O-Ph-N2+-B3LYPG-aug-cc-pVDZ-scan-d09-49-n400
 OpenBabel09291715233D

 17 16  0  0  0  0  0  0  0  0999 V2000
   -2.3212   -0.2029    0.2696 C   0  0  0  0  0  0  0  0  0  0  0  0
   -0.9571   -0.2795   -0.1589 C   0  0  0  0  0  0  0  0  0  0  0  0
   -0.5061    0.9661   -0.0750 C   0  0  0  0  0  0  0  0  0  0  0  0
   -0.7732    2.2327    0.2489 C   0  0  0  0  0  0  0  0  0  0  0  0
   -2.1328    2.2143    0.6595 C   0  0  0  0  0  0  0  0  0  0  0  0
   -2.8986    1.0219    0.6730 C   0  0  0  0  0  0  0  0  0  0  0  0
   -2.8720   -1.1421    0.2598 H   0  0  0  0  0  0  0  0  0  0  0  0
   -0.4627   -1.1949   -0.4754 H   0  0  0  0  0  0  0  0  0  0  0  0
   -0.1477    3.1219    0.2211 H   0  0  0  0  0  0  0  0  0  0  0  0
   -2.5778    3.1629    0.9651 H   0  0  0  0  0  0  0  0  0  0  0  0
    4.1473    0.8695   -1.5076 N   0  0  0  0  0  0  0  0  0  0  0  0
    5.2024    0.8498   -1.8328 N   0  0  0  0  0  0  0  0  0  0  0  0
   -4.1603    1.1635    1.0839 O   0  0  0  0  0  0  0  0  0  0  0  0
   -5.0222    0.0070    1.1387 C   0  0  0  0  0  0  0  0  0  0  0  0
   -5.9815    0.3826    1.5007 H   0  0  0  0  0  0  0  0  0  0  0  0
   -4.6213   -0.7345    1.8433 H   0  0  0  0  0  0  0  0  0  0  0  0
   -5.1447   -0.4249    0.1359 H   0  0  0  0  0  0  0  0  0  0  0  0
  1  6  2  0  0  0  0
  2  3  2  0  0  0  0
  2  1  1  0  0  0  0
  3  4  1  0  0  0  0
  4  5  2  0  0  0  0
  5  6  1  0  0  0  0
  5 10  1  0  0  0  0
  6 13  1  0  0  0  0
  7  1  1  0  0  0  0
  8  2  1  0  0  0  0
  9  4  1  0  0  0  0
 12 11  3  0  0  0  0
 13 14  1  0  0  0  0
 14 15  1  0  0  0  0
 14 16  1  0  0  0  0
 17 14  1  0  0  0  0
M  RAD  1   3   2
M  END
