Coordinates from ORCA-job p-CH3O-Ph-N2+-B3LYPG-aug-cc-pVDZ-scan-d09-49-n400
 OpenBabel09291715233D

 17 17  0  0  0  0  0  0  0  0999 V2000
   -1.9267   -0.2231    0.1480 C   0  0  0  0  0  0  0  0  0  0  0  0
   -0.6251   -0.2718   -0.2587 C   0  0  0  0  0  0  0  0  0  0  0  0
    0.2293    0.9251   -0.2997 C   0  0  0  0  0  0  0  0  0  0  0  0
   -0.4204    2.1806    0.1289 C   0  0  0  0  0  0  0  0  0  0  0  0
   -1.7184    2.2102    0.5311 C   0  0  0  0  0  0  0  0  0  0  0  0
   -2.5034    1.0173    0.5521 C   0  0  0  0  0  0  0  0  0  0  0  0
   -2.5110   -1.1399    0.1581 H   0  0  0  0  0  0  0  0  0  0  0  0
   -0.1618   -1.2081   -0.5724 H   0  0  0  0  0  0  0  0  0  0  0  0
    0.1964    3.0796    0.1053 H   0  0  0  0  0  0  0  0  0  0  0  0
   -2.1847    3.1434    0.8447 H   0  0  0  0  0  0  0  0  0  0  0  0
    1.1739    0.8922   -0.5951 N   0  0  0  0  0  0  0  0  0  0  0  0
    2.2718    0.8571   -0.9389 N   0  0  0  0  0  0  0  0  0  0  0  0
   -3.7399    1.1634    0.9568 O   0  0  0  0  0  0  0  0  0  0  0  0
   -4.6546    0.0332    1.0288 C   0  0  0  0  0  0  0  0  0  0  0  0
   -5.5908    0.4595    1.3931 H   0  0  0  0  0  0  0  0  0  0  0  0
   -4.2709   -0.7095    1.7382 H   0  0  0  0  0  0  0  0  0  0  0  0
   -4.7930   -0.3959    0.0294 H   0  0  0  0  0  0  0  0  0  0  0  0
  1  7  1  0  0  0  0
  1  6  2  0  0  0  0
  2  1  1  0  0  0  0
  3  2  2  0  0  0  0
  3  4  1  0  0  0  0
  4  5  2  0  0  0  0
  5  6  1  0  0  0  0
  5 10  1  0  0  0  0
  6 13  1  0  0  0  0
  8  2  1  0  0  0  0
  9  4  1  0  0  0  0
 11  3  1  0  0  0  0
 12 11  1  0  0  0  0
 13 14  1  0  0  0  0
 14 15  1  0  0  0  0
 14 16  1  0  0  0  0
 17 14  1  0  0  0  0
M  RAD  2  11   2  12   3
M  END
