Coordinates from ORCA-job p-CH3O-Ph-N2+-B3LYPG-aug-cc-pVDZ-scan-d09-49-n400
 OpenBabel09291715233D

 17 16  0  0  0  0  0  0  0  0999 V2000
   -2.1727   -0.2047    0.2264 C   0  0  0  0  0  0  0  0  0  0  0  0
   -0.8106   -0.2871   -0.2052 C   0  0  0  0  0  0  0  0  0  0  0  0
   -0.3473    0.9554   -0.1187 C   0  0  0  0  0  0  0  0  0  0  0  0
   -0.6169    2.2252    0.1969 C   0  0  0  0  0  0  0  0  0  0  0  0
   -1.9751    2.2124    0.6099 C   0  0  0  0  0  0  0  0  0  0  0  0
   -2.7450    1.0231    0.6268 C   0  0  0  0  0  0  0  0  0  0  0  0
   -2.7266   -1.1420    0.2236 H   0  0  0  0  0  0  0  0  0  0  0  0
   -0.3215   -1.2045   -0.5232 H   0  0  0  0  0  0  0  0  0  0  0  0
    0.0117    3.1118    0.1675 H   0  0  0  0  0  0  0  0  0  0  0  0
   -2.4157    3.1618    0.9189 H   0  0  0  0  0  0  0  0  0  0  0  0
    3.0102    0.8700   -1.1609 N   0  0  0  0  0  0  0  0  0  0  0  0
    4.0642    0.8441   -1.4876 N   0  0  0  0  0  0  0  0  0  0  0  0
   -4.0060    1.1704    1.0394 O   0  0  0  0  0  0  0  0  0  0  0  0
   -4.8733    0.0182    1.0931 C   0  0  0  0  0  0  0  0  0  0  0  0
   -5.8308    0.3980    1.4555 H   0  0  0  0  0  0  0  0  0  0  0  0
   -4.4761   -0.7260    1.7971 H   0  0  0  0  0  0  0  0  0  0  0  0
   -4.9980   -0.4126    0.0901 H   0  0  0  0  0  0  0  0  0  0  0  0
  1  6  2  0  0  0  0
  2  3  2  0  0  0  0
  2  1  1  0  0  0  0
  3  4  1  0  0  0  0
  4  5  2  0  0  0  0
  5  6  1  0  0  0  0
  5 10  1  0  0  0  0
  6 13  1  0  0  0  0
  7  1  1  0  0  0  0
  8  2  1  0  0  0  0
  9  4  1  0  0  0  0
 12 11  3  0  0  0  0
 13 14  1  0  0  0  0
 14 15  1  0  0  0  0
 14 16  1  0  0  0  0
 17 14  1  0  0  0  0
M  RAD  1   3   2
M  END
