Coordinates from ORCA-job p-CH3O-Ph-N2+-B3LYPG-aug-cc-pVDZ-scan-d09-49-n400
 OpenBabel09291715233D

 17 17  0  0  0  0  0  0  0  0999 V2000
   -1.9475   -0.2200    0.1548 C   0  0  0  0  0  0  0  0  0  0  0  0
   -0.6359   -0.2670   -0.2548 C   0  0  0  0  0  0  0  0  0  0  0  0
    0.1437    0.9298   -0.2734 C   0  0  0  0  0  0  0  0  0  0  0  0
   -0.4318    2.1791    0.1319 C   0  0  0  0  0  0  0  0  0  0  0  0
   -1.7389    2.2107    0.5373 C   0  0  0  0  0  0  0  0  0  0  0  0
   -2.5197    1.0189    0.5572 C   0  0  0  0  0  0  0  0  0  0  0  0
   -2.5325   -1.1355    0.1655 H   0  0  0  0  0  0  0  0  0  0  0  0
   -0.1801   -1.2062   -0.5666 H   0  0  0  0  0  0  0  0  0  0  0  0
    0.1769    3.0823    0.1117 H   0  0  0  0  0  0  0  0  0  0  0  0
   -2.2061    3.1426    0.8513 H   0  0  0  0  0  0  0  0  0  0  0  0
    1.3465    0.8861   -0.6492 N   0  0  0  0  0  0  0  0  0  0  0  0
    2.4206    0.8518   -0.9840 N   0  0  0  0  0  0  0  0  0  0  0  0
   -3.7636    1.1668    0.9646 O   0  0  0  0  0  0  0  0  0  0  0  0
   -4.6670    0.0334    1.0328 C   0  0  0  0  0  0  0  0  0  0  0  0
   -5.6082    0.4493    1.3968 H   0  0  0  0  0  0  0  0  0  0  0  0
   -4.2820   -0.7110    1.7405 H   0  0  0  0  0  0  0  0  0  0  0  0
   -4.8038   -0.3977    0.0334 H   0  0  0  0  0  0  0  0  0  0  0  0
  1  7  1  0  0  0  0
  1  6  2  0  0  0  0
  2  1  1  0  0  0  0
  3  2  2  0  0  0  0
  3  4  1  0  0  0  0
  4  5  2  0  0  0  0
  5  6  1  0  0  0  0
  5 10  1  0  0  0  0
  6 13  1  0  0  0  0
  8  2  1  0  0  0  0
  9  4  1  0  0  0  0
 11  3  1  0  0  0  0
 12 11  1  0  0  0  0
 13 14  1  0  0  0  0
 14 15  1  0  0  0  0
 14 16  1  0  0  0  0
 17 14  1  0  0  0  0
M  RAD  2  11   2  12   3
M  END
