Coordinates from ORCA-job p-CH3O-Ph-N2+-B3LYPG-aug-cc-pVDZ-scan-d09-49-n400
 OpenBabel09291715233D

 17 16  0  0  0  0  0  0  0  0999 V2000
   -2.2914   -0.2034    0.2621 C   0  0  0  0  0  0  0  0  0  0  0  0
   -0.9282   -0.2818   -0.1682 C   0  0  0  0  0  0  0  0  0  0  0  0
   -0.4719    0.9631   -0.0816 C   0  0  0  0  0  0  0  0  0  0  0  0
   -0.7424    2.2314    0.2374 C   0  0  0  0  0  0  0  0  0  0  0  0
   -2.1015    2.2137    0.6491 C   0  0  0  0  0  0  0  0  0  0  0  0
   -2.8679    1.0220    0.6640 C   0  0  0  0  0  0  0  0  0  0  0  0
   -2.8423   -1.1426    0.2560 H   0  0  0  0  0  0  0  0  0  0  0  0
   -0.4363   -1.1981   -0.4858 H   0  0  0  0  0  0  0  0  0  0  0  0
   -0.1171    3.1208    0.2096 H   0  0  0  0  0  0  0  0  0  0  0  0
   -2.5450    3.1621    0.9572 H   0  0  0  0  0  0  0  0  0  0  0  0
    3.9214    0.8703   -1.4392 N   0  0  0  0  0  0  0  0  0  0  0  0
    4.9763    0.8496   -1.7648 N   0  0  0  0  0  0  0  0  0  0  0  0
   -4.1293    1.1648    1.0756 O   0  0  0  0  0  0  0  0  0  0  0  0
   -4.9929    0.0096    1.1288 C   0  0  0  0  0  0  0  0  0  0  0  0
   -5.9518    0.3863    1.4910 H   0  0  0  0  0  0  0  0  0  0  0  0
   -4.5934   -0.7332    1.8328 H   0  0  0  0  0  0  0  0  0  0  0  0
   -5.1158   -0.4212    0.1256 H   0  0  0  0  0  0  0  0  0  0  0  0
  1  6  2  0  0  0  0
  2  3  2  0  0  0  0
  2  1  1  0  0  0  0
  3  4  1  0  0  0  0
  4  5  2  0  0  0  0
  5  6  1  0  0  0  0
  5 10  1  0  0  0  0
  6 13  1  0  0  0  0
  7  1  1  0  0  0  0
  8  2  1  0  0  0  0
  9  4  1  0  0  0  0
 12 11  3  0  0  0  0
 13 14  1  0  0  0  0
 14 15  1  0  0  0  0
 14 16  1  0  0  0  0
 17 14  1  0  0  0  0
M  RAD  1   3   2
M  END
