Coordinates from ORCA-job p-CH3O-Ph-N2+-B3LYPG-aug-cc-pVDZ-scan-d09-49-n400
 OpenBabel09291715233D

 17 16  0  0  0  0  0  0  0  0999 V2000
   -2.1149   -0.2054    0.2086 C   0  0  0  0  0  0  0  0  0  0  0  0
   -0.7542   -0.2888   -0.2227 C   0  0  0  0  0  0  0  0  0  0  0  0
   -0.2835    0.9515   -0.1389 C   0  0  0  0  0  0  0  0  0  0  0  0
   -0.5562    2.2206    0.1775 C   0  0  0  0  0  0  0  0  0  0  0  0
   -1.9132    2.2117    0.5908 C   0  0  0  0  0  0  0  0  0  0  0  0
   -2.6849    1.0236    0.6086 C   0  0  0  0  0  0  0  0  0  0  0  0
   -2.6714   -1.1411    0.2070 H   0  0  0  0  0  0  0  0  0  0  0  0
   -0.2663   -1.2065   -0.5404 H   0  0  0  0  0  0  0  0  0  0  0  0
    0.0740    3.1057    0.1474 H   0  0  0  0  0  0  0  0  0  0  0  0
   -2.3533    3.1612    0.8997 H   0  0  0  0  0  0  0  0  0  0  0  0
    2.5660    0.8705   -1.0250 N   0  0  0  0  0  0  0  0  0  0  0  0
    3.6195    0.8418   -1.3522 N   0  0  0  0  0  0  0  0  0  0  0  0
   -3.9459    1.1731    1.0216 O   0  0  0  0  0  0  0  0  0  0  0  0
   -4.8147    0.0226    1.0759 C   0  0  0  0  0  0  0  0  0  0  0  0
   -5.7716    0.4038    1.4385 H   0  0  0  0  0  0  0  0  0  0  0  0
   -4.4186   -0.7221    1.7800 H   0  0  0  0  0  0  0  0  0  0  0  0
   -4.9404   -0.4088    0.0733 H   0  0  0  0  0  0  0  0  0  0  0  0
  1  6  2  0  0  0  0
  2  3  2  0  0  0  0
  2  1  1  0  0  0  0
  3  4  1  0  0  0  0
  4  5  2  0  0  0  0
  5  6  1  0  0  0  0
  5 10  1  0  0  0  0
  6 13  1  0  0  0  0
  7  1  1  0  0  0  0
  8  2  1  0  0  0  0
  9  4  1  0  0  0  0
 12 11  3  0  0  0  0
 13 14  1  0  0  0  0
 14 15  1  0  0  0  0
 14 16  1  0  0  0  0
 17 14  1  0  0  0  0
M  RAD  1   3   2
M  END
