Coordinates from ORCA-job p-CH3O-Ph-N2+-B3LYPG-aug-cc-pVDZ-scan-d09-49-n400
 OpenBabel09291715233D

 17 16  0  0  0  0  0  0  0  0999 V2000
   -2.0892   -0.2058    0.2007 C   0  0  0  0  0  0  0  0  0  0  0  0
   -0.7301   -0.2890   -0.2301 C   0  0  0  0  0  0  0  0  0  0  0  0
   -0.2490    0.9496   -0.1498 C   0  0  0  0  0  0  0  0  0  0  0  0
   -0.5303    2.2182    0.1692 C   0  0  0  0  0  0  0  0  0  0  0  0
   -1.8857    2.2113    0.5823 C   0  0  0  0  0  0  0  0  0  0  0  0
   -2.6581    1.0237    0.6004 C   0  0  0  0  0  0  0  0  0  0  0  0
   -2.6477   -1.1400    0.1999 H   0  0  0  0  0  0  0  0  0  0  0  0
   -0.2445   -1.2078   -0.5473 H   0  0  0  0  0  0  0  0  0  0  0  0
    0.0991    3.1035    0.1393 H   0  0  0  0  0  0  0  0  0  0  0  0
   -2.3266    3.1602    0.8913 H   0  0  0  0  0  0  0  0  0  0  0  0
    2.3705    0.8710   -0.9651 N   0  0  0  0  0  0  0  0  0  0  0  0
    3.4237    0.8406   -1.2926 N   0  0  0  0  0  0  0  0  0  0  0  0
   -3.9192    1.1742    1.0136 O   0  0  0  0  0  0  0  0  0  0  0  0
   -4.7887    0.0246    1.0684 C   0  0  0  0  0  0  0  0  0  0  0  0
   -5.7453    0.4067    1.4309 H   0  0  0  0  0  0  0  0  0  0  0  0
   -4.3934   -0.7205    1.7725 H   0  0  0  0  0  0  0  0  0  0  0  0
   -4.9151   -0.4072    0.0660 H   0  0  0  0  0  0  0  0  0  0  0  0
  1  6  2  0  0  0  0
  2  3  2  0  0  0  0
  2  1  1  0  0  0  0
  3  4  1  0  0  0  0
  4  5  2  0  0  0  0
  5  6  1  0  0  0  0
  5 10  1  0  0  0  0
  6 13  1  0  0  0  0
  7  1  1  0  0  0  0
  8  2  1  0  0  0  0
  9  4  1  0  0  0  0
 12 11  3  0  0  0  0
 13 14  1  0  0  0  0
 14 15  1  0  0  0  0
 14 16  1  0  0  0  0
 17 14  1  0  0  0  0
M  RAD  1   3   2
M  END
