Coordinates from ORCA-job p-CH3O-Ph-N2+-B3LYPG-aug-cc-pVDZ-scan-d09-49-n400
 OpenBabel09291715233D

 17 17  0  0  0  0  0  0  0  0999 V2000
   -1.9458   -0.2202    0.1542 C   0  0  0  0  0  0  0  0  0  0  0  0
   -0.6349   -0.2670   -0.2551 C   0  0  0  0  0  0  0  0  0  0  0  0
    0.1499    0.9295   -0.2754 C   0  0  0  0  0  0  0  0  0  0  0  0
   -0.4309    2.1789    0.1316 C   0  0  0  0  0  0  0  0  0  0  0  0
   -1.7372    2.2106    0.5368 C   0  0  0  0  0  0  0  0  0  0  0  0
   -2.5184    1.0188    0.5568 C   0  0  0  0  0  0  0  0  0  0  0  0
   -2.5307   -1.1359    0.1649 H   0  0  0  0  0  0  0  0  0  0  0  0
   -0.1791   -1.2063   -0.5669 H   0  0  0  0  0  0  0  0  0  0  0  0
    0.1779    3.0820    0.1113 H   0  0  0  0  0  0  0  0  0  0  0  0
   -2.2043    3.1426    0.8507 H   0  0  0  0  0  0  0  0  0  0  0  0
    1.3336    0.8866   -0.6451 N   0  0  0  0  0  0  0  0  0  0  0  0
    2.4089    0.8521   -0.9804 N   0  0  0  0  0  0  0  0  0  0  0  0
   -3.7617    1.1665    0.9640 O   0  0  0  0  0  0  0  0  0  0  0  0
   -4.6660    0.0334    1.0324 C   0  0  0  0  0  0  0  0  0  0  0  0
   -5.6068    0.4501    1.3965 H   0  0  0  0  0  0  0  0  0  0  0  0
   -4.2810   -0.7109    1.7403 H   0  0  0  0  0  0  0  0  0  0  0  0
   -4.8029   -0.3975    0.0331 H   0  0  0  0  0  0  0  0  0  0  0  0
  1  7  1  0  0  0  0
  1  6  2  0  0  0  0
  2  1  1  0  0  0  0
  3  2  2  0  0  0  0
  3  4  1  0  0  0  0
  4  5  2  0  0  0  0
  5  6  1  0  0  0  0
  5 10  1  0  0  0  0
  6 13  1  0  0  0  0
  8  2  1  0  0  0  0
  9  4  1  0  0  0  0
 11  3  1  0  0  0  0
 12 11  1  0  0  0  0
 13 14  1  0  0  0  0
 14 15  1  0  0  0  0
 14 16  1  0  0  0  0
 17 14  1  0  0  0  0
M  RAD  2  11   2  12   3
M  END
