Coordinates from ORCA-job p-CH3O-Ph-N2+-B3LYPG-aug-cc-pVDZ-scan-d09-49-n400
 OpenBabel09291715233D

 17 16  0  0  0  0  0  0  0  0999 V2000
   -2.1173   -0.2053    0.2094 C   0  0  0  0  0  0  0  0  0  0  0  0
   -0.7566   -0.2892   -0.2220 C   0  0  0  0  0  0  0  0  0  0  0  0
   -0.2841    0.9516   -0.1387 C   0  0  0  0  0  0  0  0  0  0  0  0
   -0.5588    2.2213    0.1785 C   0  0  0  0  0  0  0  0  0  0  0  0
   -1.9158    2.2116    0.5916 C   0  0  0  0  0  0  0  0  0  0  0  0
   -2.6873    1.0235    0.6093 C   0  0  0  0  0  0  0  0  0  0  0  0
   -2.6738   -1.1409    0.2077 H   0  0  0  0  0  0  0  0  0  0  0  0
   -0.2696   -1.2076   -0.5396 H   0  0  0  0  0  0  0  0  0  0  0  0
    0.0705    3.1071    0.1487 H   0  0  0  0  0  0  0  0  0  0  0  0
   -2.3562    3.1610    0.9005 H   0  0  0  0  0  0  0  0  0  0  0  0
    2.5846    0.8705   -1.0307 N   0  0  0  0  0  0  0  0  0  0  0  0
    3.6382    0.8420   -1.3579 N   0  0  0  0  0  0  0  0  0  0  0  0
   -3.9483    1.1730    1.0223 O   0  0  0  0  0  0  0  0  0  0  0  0
   -4.8171    0.0224    1.0767 C   0  0  0  0  0  0  0  0  0  0  0  0
   -5.7740    0.4037    1.4392 H   0  0  0  0  0  0  0  0  0  0  0  0
   -4.4211   -0.7223    1.7808 H   0  0  0  0  0  0  0  0  0  0  0  0
   -4.9429   -0.4089    0.0740 H   0  0  0  0  0  0  0  0  0  0  0  0
  1  6  2  0  0  0  0
  2  3  2  0  0  0  0
  2  1  1  0  0  0  0
  3  4  1  0  0  0  0
  4  5  2  0  0  0  0
  5  6  1  0  0  0  0
  5 10  1  0  0  0  0
  6 13  1  0  0  0  0
  7  1  1  0  0  0  0
  8  2  1  0  0  0  0
  9  4  1  0  0  0  0
 12 11  3  0  0  0  0
 13 14  1  0  0  0  0
 14 15  1  0  0  0  0
 14 16  1  0  0  0  0
 17 14  1  0  0  0  0
M  RAD  1   3   2
M  END
