Coordinates from ORCA-job p-CH3O-Ph-N2+-B3LYPG-aug-cc-pVDZ-scan-d09-49-n400
 OpenBabel09291715233D

 17 16  0  0  0  0  0  0  0  0999 V2000
   -2.3181   -0.2028    0.2689 C   0  0  0  0  0  0  0  0  0  0  0  0
   -0.9543   -0.2801   -0.1598 C   0  0  0  0  0  0  0  0  0  0  0  0
   -0.5001    0.9657   -0.0762 C   0  0  0  0  0  0  0  0  0  0  0  0
   -0.7702    2.2329    0.2477 C   0  0  0  0  0  0  0  0  0  0  0  0
   -2.1296    2.2140    0.6584 C   0  0  0  0  0  0  0  0  0  0  0  0
   -2.8953    1.0218    0.6720 C   0  0  0  0  0  0  0  0  0  0  0  0
   -2.8689   -1.1420    0.2596 H   0  0  0  0  0  0  0  0  0  0  0  0
   -0.4613   -1.1963   -0.4763 H   0  0  0  0  0  0  0  0  0  0  0  0
   -0.1458    3.1228    0.2204 H   0  0  0  0  0  0  0  0  0  0  0  0
   -2.5746    3.1625    0.9644 H   0  0  0  0  0  0  0  0  0  0  0  0
    4.1244    0.8697   -1.5007 N   0  0  0  0  0  0  0  0  0  0  0  0
    5.1794    0.8499   -1.8259 N   0  0  0  0  0  0  0  0  0  0  0  0
   -4.1570    1.1636    1.0830 O   0  0  0  0  0  0  0  0  0  0  0  0
   -5.0192    0.0073    1.1376 C   0  0  0  0  0  0  0  0  0  0  0  0
   -5.9784    0.3832    1.4997 H   0  0  0  0  0  0  0  0  0  0  0  0
   -4.6185   -0.7343    1.8421 H   0  0  0  0  0  0  0  0  0  0  0  0
   -5.1418   -0.4245    0.1348 H   0  0  0  0  0  0  0  0  0  0  0  0
  1  6  2  0  0  0  0
  2  3  2  0  0  0  0
  2  1  1  0  0  0  0
  3  4  1  0  0  0  0
  4  5  2  0  0  0  0
  5  6  1  0  0  0  0
  5 10  1  0  0  0  0
  6 13  1  0  0  0  0
  7  1  1  0  0  0  0
  8  2  1  0  0  0  0
  9  4  1  0  0  0  0
 12 11  3  0  0  0  0
 13 14  1  0  0  0  0
 14 15  1  0  0  0  0
 14 16  1  0  0  0  0
 17 14  1  0  0  0  0
M  RAD  1   3   2
M  END
