Coordinates from ORCA-job p-CH3O-Ph-N2+-B3LYPG-aug-cc-pVDZ-scan-d09-49-n400
 OpenBabel09291715233D

 17 16  0  0  0  0  0  0  0  0999 V2000
   -2.0225   -0.2085    0.1798 C   0  0  0  0  0  0  0  0  0  0  0  0
   -0.6776   -0.2836   -0.2451 C   0  0  0  0  0  0  0  0  0  0  0  0
   -0.1101    0.9418   -0.1936 C   0  0  0  0  0  0  0  0  0  0  0  0
   -0.4732    2.2048    0.1493 C   0  0  0  0  0  0  0  0  0  0  0  0
   -1.8145    2.2095    0.5602 C   0  0  0  0  0  0  0  0  0  0  0  0
   -2.5883    1.0230    0.5789 C   0  0  0  0  0  0  0  0  0  0  0  0
   -2.5935   -1.1339    0.1845 H   0  0  0  0  0  0  0  0  0  0  0  0
   -0.2042   -1.2093   -0.5598 H   0  0  0  0  0  0  0  0  0  0  0  0
    0.1483    3.0953    0.1228 H   0  0  0  0  0  0  0  0  0  0  0  0
   -2.2661    3.1514    0.8712 H   0  0  0  0  0  0  0  0  0  0  0  0
    1.8773    0.8744   -0.8137 N   0  0  0  0  0  0  0  0  0  0  0  0
    2.9299    0.8426   -1.1414 N   0  0  0  0  0  0  0  0  0  0  0  0
   -3.8488    1.1756    0.9923 O   0  0  0  0  0  0  0  0  0  0  0  0
   -4.7236    0.0307    1.0495 C   0  0  0  0  0  0  0  0  0  0  0  0
   -5.6778    0.4184    1.4124 H   0  0  0  0  0  0  0  0  0  0  0  0
   -4.3318   -0.7159    1.7538 H   0  0  0  0  0  0  0  0  0  0  0  0
   -4.8531   -0.4028    0.0485 H   0  0  0  0  0  0  0  0  0  0  0  0
  1  7  1  0  0  0  0
  1  6  2  0  0  0  0
  2  3  2  0  0  0  0
  2  1  1  0  0  0  0
  3  4  1  0  0  0  0
  4  5  2  0  0  0  0
  5  6  1  0  0  0  0
  5 10  1  0  0  0  0
  6 13  1  0  0  0  0
  8  2  1  0  0  0  0
  9  4  1  0  0  0  0
 12 11  3  0  0  0  0
 13 14  1  0  0  0  0
 14 15  1  0  0  0  0
 14 16  1  0  0  0  0
 17 14  1  0  0  0  0
M  RAD  1   3   2
M  END
