Coordinates from ORCA-job p-CH3O-Ph-N2+-B3LYPG-aug-cc-pVDZ-scan-d09-49-n400
 OpenBabel09291715233D

 17 16  0  0  0  0  0  0  0  0999 V2000
   -2.1116   -0.2055    0.2076 C   0  0  0  0  0  0  0  0  0  0  0  0
   -0.7511   -0.2889   -0.2237 C   0  0  0  0  0  0  0  0  0  0  0  0
   -0.2794    0.9513   -0.1402 C   0  0  0  0  0  0  0  0  0  0  0  0
   -0.5529    2.2203    0.1765 C   0  0  0  0  0  0  0  0  0  0  0  0
   -1.9097    2.2117    0.5897 C   0  0  0  0  0  0  0  0  0  0  0  0
   -2.6815    1.0236    0.6076 C   0  0  0  0  0  0  0  0  0  0  0  0
   -2.6684   -1.1410    0.2061 H   0  0  0  0  0  0  0  0  0  0  0  0
   -0.2635   -1.2067   -0.5413 H   0  0  0  0  0  0  0  0  0  0  0  0
    0.0773    3.1054    0.1463 H   0  0  0  0  0  0  0  0  0  0  0  0
   -2.3499    3.1611    0.8986 H   0  0  0  0  0  0  0  0  0  0  0  0
    2.5413    0.8705   -1.0174 N   0  0  0  0  0  0  0  0  0  0  0  0
    3.5948    0.8417   -1.3447 N   0  0  0  0  0  0  0  0  0  0  0  0
   -3.9426    1.1733    1.0206 O   0  0  0  0  0  0  0  0  0  0  0  0
   -4.8114    0.0228    1.0750 C   0  0  0  0  0  0  0  0  0  0  0  0
   -5.7683    0.4042    1.4375 H   0  0  0  0  0  0  0  0  0  0  0  0
   -4.4155   -0.7219    1.7791 H   0  0  0  0  0  0  0  0  0  0  0  0
   -4.9372   -0.4086    0.0724 H   0  0  0  0  0  0  0  0  0  0  0  0
  1  6  2  0  0  0  0
  2  3  2  0  0  0  0
  2  1  1  0  0  0  0
  3  4  1  0  0  0  0
  4  5  2  0  0  0  0
  5  6  1  0  0  0  0
  5 10  1  0  0  0  0
  6 13  1  0  0  0  0
  7  1  1  0  0  0  0
  8  2  1  0  0  0  0
  9  4  1  0  0  0  0
 12 11  3  0  0  0  0
 13 14  1  0  0  0  0
 14 15  1  0  0  0  0
 14 16  1  0  0  0  0
 17 14  1  0  0  0  0
M  RAD  1   3   2
M  END
