Coordinates from ORCA-job p-CH3O-Ph-N2+-B3LYPG-aug-cc-pVDZ-scan-d09-49-n400
 OpenBabel09291715233D

 17 17  0  0  0  0  0  0  0  0999 V2000
   -1.9969   -0.2117    0.1714 C   0  0  0  0  0  0  0  0  0  0  0  0
   -0.6626   -0.2771   -0.2485 C   0  0  0  0  0  0  0  0  0  0  0  0
   -0.0304    0.9382   -0.2187 C   0  0  0  0  0  0  0  0  0  0  0  0
   -0.4579    2.1957    0.1429 C   0  0  0  0  0  0  0  0  0  0  0  0
   -1.7883    2.2100    0.5523 C   0  0  0  0  0  0  0  0  0  0  0  0
   -2.5626    1.0220    0.5709 C   0  0  0  0  0  0  0  0  0  0  0  0
   -2.5762   -1.1311    0.1797 H   0  0  0  0  0  0  0  0  0  0  0  0
   -0.1952   -1.2069   -0.5621 H   0  0  0  0  0  0  0  0  0  0  0  0
    0.1591    3.0900    0.1185 H   0  0  0  0  0  0  0  0  0  0  0  0
   -2.2489    3.1460    0.8650 H   0  0  0  0  0  0  0  0  0  0  0  0
    1.6985    0.8767   -0.7586 N   0  0  0  0  0  0  0  0  0  0  0  0
    2.7523    0.8440   -1.0868 N   0  0  0  0  0  0  0  0  0  0  0  0
   -3.8207    1.1740    0.9834 O   0  0  0  0  0  0  0  0  0  0  0  0
   -4.7014    0.0327    1.0431 C   0  0  0  0  0  0  0  0  0  0  0  0
   -5.6529    0.4266    1.4063 H   0  0  0  0  0  0  0  0  0  0  0  0
   -4.3122   -0.7143    1.7479 H   0  0  0  0  0  0  0  0  0  0  0  0
   -4.8334   -0.4013    0.0430 H   0  0  0  0  0  0  0  0  0  0  0  0
  1  7  1  0  0  0  0
  1  6  2  0  0  0  0
  2  3  2  0  0  0  0
  2  1  1  0  0  0  0
  3  4  1  0  0  0  0
  4  5  2  0  0  0  0
  5  6  1  0  0  0  0
  5 10  1  0  0  0  0
  6 13  1  0  0  0  0
  8  2  1  0  0  0  0
  9  4  1  0  0  0  0
 11  3  1  0  0  0  0
 12 11  1  0  0  0  0
 13 14  1  0  0  0  0
 14 15  1  0  0  0  0
 14 16  1  0  0  0  0
 17 14  1  0  0  0  0
M  RAD  2  11   2  12   3
M  END
