Coordinates from ORCA-job p-CH3O-Ph-N2+-B3LYPG-aug-cc-pVDZ-scan-d09-49-n400
 OpenBabel09291715233D

 17 16  0  0  0  0  0  0  0  0999 V2000
   -2.0947   -0.2056    0.2024 C   0  0  0  0  0  0  0  0  0  0  0  0
   -0.7354   -0.2896   -0.2286 C   0  0  0  0  0  0  0  0  0  0  0  0
   -0.2546    0.9499   -0.1480 C   0  0  0  0  0  0  0  0  0  0  0  0
   -0.5359    2.2192    0.1711 C   0  0  0  0  0  0  0  0  0  0  0  0
   -1.8917    2.2112    0.5841 C   0  0  0  0  0  0  0  0  0  0  0  0
   -2.6638    1.0236    0.6021 C   0  0  0  0  0  0  0  0  0  0  0  0
   -2.6529   -1.1401    0.2015 H   0  0  0  0  0  0  0  0  0  0  0  0
   -0.2501   -1.2087   -0.5457 H   0  0  0  0  0  0  0  0  0  0  0  0
    0.0928    3.1051    0.1415 H   0  0  0  0  0  0  0  0  0  0  0  0
   -2.3326    3.1601    0.8932 H   0  0  0  0  0  0  0  0  0  0  0  0
    2.4129    0.8709   -0.9781 N   0  0  0  0  0  0  0  0  0  0  0  0
    3.4662    0.8411   -1.3055 N   0  0  0  0  0  0  0  0  0  0  0  0
   -3.9248    1.1740    1.0153 O   0  0  0  0  0  0  0  0  0  0  0  0
   -4.7944    0.0242    1.0700 C   0  0  0  0  0  0  0  0  0  0  0  0
   -5.7510    0.4062    1.4326 H   0  0  0  0  0  0  0  0  0  0  0  0
   -4.3989   -0.7208    1.7741 H   0  0  0  0  0  0  0  0  0  0  0  0
   -4.9206   -0.4075    0.0676 H   0  0  0  0  0  0  0  0  0  0  0  0
  1  6  2  0  0  0  0
  2  3  2  0  0  0  0
  2  1  1  0  0  0  0
  3  4  1  0  0  0  0
  4  5  2  0  0  0  0
  5  6  1  0  0  0  0
  5 10  1  0  0  0  0
  6 13  1  0  0  0  0
  7  1  1  0  0  0  0
  8  2  1  0  0  0  0
  9  4  1  0  0  0  0
 12 11  3  0  0  0  0
 13 14  1  0  0  0  0
 14 15  1  0  0  0  0
 14 16  1  0  0  0  0
 17 14  1  0  0  0  0
M  RAD  1   3   2
M  END
