Coordinates from ORCA-job p-CH3O-Ph-N2+-B3LYPG-aug-cc-pVDZ-scan-d09-49-n400
 OpenBabel09291715233D

 17 17  0  0  0  0  0  0  0  0999 V2000
   -2.0062   -0.2103    0.1746 C   0  0  0  0  0  0  0  0  0  0  0  0
   -0.6677   -0.2798   -0.2475 C   0  0  0  0  0  0  0  0  0  0  0  0
   -0.0614    0.9396   -0.2089 C   0  0  0  0  0  0  0  0  0  0  0  0
   -0.4630    2.1993    0.1451 C   0  0  0  0  0  0  0  0  0  0  0  0
   -1.7978    2.2097    0.5551 C   0  0  0  0  0  0  0  0  0  0  0  0
   -2.5718    1.0224    0.5738 C   0  0  0  0  0  0  0  0  0  0  0  0
   -2.5825   -1.1319    0.1815 H   0  0  0  0  0  0  0  0  0  0  0  0
   -0.1980   -1.2079   -0.5615 H   0  0  0  0  0  0  0  0  0  0  0  0
    0.1558    3.0921    0.1199 H   0  0  0  0  0  0  0  0  0  0  0  0
   -2.2550    3.1479    0.8672 H   0  0  0  0  0  0  0  0  0  0  0  0
    1.7632    0.8757   -0.7785 N   0  0  0  0  0  0  0  0  0  0  0  0
    2.8161    0.8433   -1.1065 N   0  0  0  0  0  0  0  0  0  0  0  0
   -3.8311    1.1748    0.9868 O   0  0  0  0  0  0  0  0  0  0  0  0
   -4.7091    0.0321    1.0454 C   0  0  0  0  0  0  0  0  0  0  0  0
   -5.6619    0.4231    1.4084 H   0  0  0  0  0  0  0  0  0  0  0  0
   -4.3189   -0.7149    1.7499 H   0  0  0  0  0  0  0  0  0  0  0  0
   -4.8401   -0.4018    0.0449 H   0  0  0  0  0  0  0  0  0  0  0  0
  1  7  1  0  0  0  0
  1  6  2  0  0  0  0
  2  3  2  0  0  0  0
  2  1  1  0  0  0  0
  3  4  1  0  0  0  0
  4  5  2  0  0  0  0
  5  6  1  0  0  0  0
  5 10  1  0  0  0  0
  6 13  1  0  0  0  0
  8  2  1  0  0  0  0
  9  4  1  0  0  0  0
 11  3  1  0  0  0  0
 12 11  1  0  0  0  0
 13 14  1  0  0  0  0
 14 15  1  0  0  0  0
 14 16  1  0  0  0  0
 17 14  1  0  0  0  0
M  RAD  2  11   2  12   3
M  END
