Coordinates from ORCA-job p-CH3O-Ph-N2+-B3LYPG-aug-cc-pVDZ-scan-d09-49-n400
 OpenBabel09291715233D

 17 17  0  0  0  0  0  0  0  0999 V2000
   -2.0016   -0.2109    0.1730 C   0  0  0  0  0  0  0  0  0  0  0  0
   -0.6651   -0.2785   -0.2480 C   0  0  0  0  0  0  0  0  0  0  0  0
   -0.0461    0.9389   -0.2137 C   0  0  0  0  0  0  0  0  0  0  0  0
   -0.4604    2.1975    0.1440 C   0  0  0  0  0  0  0  0  0  0  0  0
   -1.7930    2.2098    0.5537 C   0  0  0  0  0  0  0  0  0  0  0  0
   -2.5672    1.0222    0.5723 C   0  0  0  0  0  0  0  0  0  0  0  0
   -2.5794   -1.1314    0.1806 H   0  0  0  0  0  0  0  0  0  0  0  0
   -0.1965   -1.2074   -0.5618 H   0  0  0  0  0  0  0  0  0  0  0  0
    0.1576    3.0911    0.1192 H   0  0  0  0  0  0  0  0  0  0  0  0
   -2.2519    3.1469    0.8661 H   0  0  0  0  0  0  0  0  0  0  0  0
    1.7307    0.8761   -0.7685 N   0  0  0  0  0  0  0  0  0  0  0  0
    2.7839    0.8437   -1.0966 N   0  0  0  0  0  0  0  0  0  0  0  0
   -3.8259    1.1745    0.9851 O   0  0  0  0  0  0  0  0  0  0  0  0
   -4.7052    0.0324    1.0442 C   0  0  0  0  0  0  0  0  0  0  0  0
   -5.6574    0.4248    1.4074 H   0  0  0  0  0  0  0  0  0  0  0  0
   -4.3155   -0.7146    1.7488 H   0  0  0  0  0  0  0  0  0  0  0  0
   -4.8367   -0.4016    0.0439 H   0  0  0  0  0  0  0  0  0  0  0  0
  1  7  1  0  0  0  0
  1  6  2  0  0  0  0
  2  3  2  0  0  0  0
  2  1  1  0  0  0  0
  3  4  1  0  0  0  0
  4  5  2  0  0  0  0
  5  6  1  0  0  0  0
  5 10  1  0  0  0  0
  6 13  1  0  0  0  0
  8  2  1  0  0  0  0
  9  4  1  0  0  0  0
 11  3  1  0  0  0  0
 12 11  1  0  0  0  0
 13 14  1  0  0  0  0
 14 15  1  0  0  0  0
 14 16  1  0  0  0  0
 17 14  1  0  0  0  0
M  RAD  2  11   2  12   3
M  END
