Coordinates from ORCA-job p-CH3O-Ph-N2+-B3LYPG-aug-cc-pVDZ-scan-d09-49-n400
 OpenBabel09291715233D

 17 16  0  0  0  0  0  0  0  0999 V2000
   -2.2231   -0.2042    0.2419 C   0  0  0  0  0  0  0  0  0  0  0  0
   -0.8605   -0.2849   -0.1895 C   0  0  0  0  0  0  0  0  0  0  0  0
   -0.4007    0.9586   -0.1020 C   0  0  0  0  0  0  0  0  0  0  0  0
   -0.6702    2.2280    0.2138 C   0  0  0  0  0  0  0  0  0  0  0  0
   -2.0290    2.2130    0.6264 C   0  0  0  0  0  0  0  0  0  0  0  0
   -2.7973    1.0226    0.6427 C   0  0  0  0  0  0  0  0  0  0  0  0
   -2.7754   -1.1425    0.2382 H   0  0  0  0  0  0  0  0  0  0  0  0
   -0.3703   -1.2018   -0.5077 H   0  0  0  0  0  0  0  0  0  0  0  0
   -0.0431    3.1159    0.1851 H   0  0  0  0  0  0  0  0  0  0  0  0
   -2.4705    3.1620    0.9355 H   0  0  0  0  0  0  0  0  0  0  0  0
    3.3977    0.8700   -1.2794 N   0  0  0  0  0  0  0  0  0  0  0  0
    4.4521    0.8464   -1.6057 N   0  0  0  0  0  0  0  0  0  0  0  0
   -4.0584    1.1680    1.0550 O   0  0  0  0  0  0  0  0  0  0  0  0
   -4.9243    0.0146    1.1081 C   0  0  0  0  0  0  0  0  0  0  0  0
   -5.8823    0.3930    1.4704 H   0  0  0  0  0  0  0  0  0  0  0  0
   -4.5262   -0.7292    1.8119 H   0  0  0  0  0  0  0  0  0  0  0  0
   -5.0481   -0.4160    0.1049 H   0  0  0  0  0  0  0  0  0  0  0  0
  1  6  2  0  0  0  0
  2  3  2  0  0  0  0
  2  1  1  0  0  0  0
  3  4  1  0  0  0  0
  4  5  2  0  0  0  0
  5  6  1  0  0  0  0
  5 10  1  0  0  0  0
  6 13  1  0  0  0  0
  7  1  1  0  0  0  0
  8  2  1  0  0  0  0
  9  4  1  0  0  0  0
 12 11  3  0  0  0  0
 13 14  1  0  0  0  0
 14 15  1  0  0  0  0
 14 16  1  0  0  0  0
 17 14  1  0  0  0  0
M  RAD  1   3   2
M  END
