25
Coordinates from ORCA-job p-CH3O-Ph-N2-X-OTf-B3LYPG-6-31G_dp-scan-d09-49-n400
  C   -2.33116479103268     -0.68056125723219     -4.92868532661249
  C   -1.21012355066947     -0.30042146874453     -5.63683055513688
  C   -1.23636521949220      0.94783667173236     -6.29152096682456
  C   -2.35413641740954      1.80241916373062     -6.23847642506937
  C   -3.46926703854321      1.40507166240200     -5.52239250411560
  C   -3.46519326147187      0.15700577684851     -4.86235831898662
  H   -2.36029518893026     -1.62888711814628     -4.40479320038539
  H   -0.30559065559597     -0.89751755549214     -5.69211272803148
  H   -2.33761962476120      2.75563192689435     -6.75509634658706
  H   -4.33122498182260      2.05810539072778     -5.47895061829186
  N   -0.16200861172401      1.37666894977455     -7.04064977650739
  N   0.61209804762447      1.83706562214565     -7.71162552902653
  S   2.71177906653251     -0.43419260131725     -7.02338575436712
  C   3.89242049054728      0.77815793967612     -6.25974611633318
  O   2.26540038474020      0.27390585178129     -8.26288467741128
  O   1.62540592285148     -0.50227342085322     -6.00179562061363
  O   3.49282986979450     -1.65488583007122     -7.23225544689974
  F   4.92999757367012      1.01304723442696     -7.07099202621687
  F   3.26293894800090      1.95123964558738     -6.03150884760490
  F   4.35903838367126      0.32280153497720     -5.08934109290752
  O   -4.49298345154284     -0.31857805702909     -4.14445813307430
  C   -5.68327980664393      0.46219859641633     -4.00823567807422
  H   -6.35417412940048     -0.13344576046520     -3.38987223066698
  H   -6.14918897303552      0.64488368662988     -4.98261461980287
  H   -5.47499298535672      1.41492341560015     -3.50941746045243
