25
Coordinates from ORCA-job p-CH3O-Ph-N2-X-OTf-B3LYPG-6-31G_dp-scan-d09-49-n400
  C   -2.12452929070411     -0.63167901966092     -5.26945030308736
  C   -1.14327274744136     -0.10180446576834     -6.07954752450121
  C   -1.37915669536148      1.17689583547965     -6.63559038287149
  C   -2.55498408885673      1.90732944606438     -6.38541204170943
  C   -3.51978419123802      1.36186534421619     -5.55847288179872
  C   -3.30834181931111      0.08563150643759     -4.99289816855114
  H   -1.99571406944677     -1.60802094410455     -4.81720615698868
  H   -0.21738069777741     -0.63657602152623     -6.27838444516151
  H   -2.69442267215539      2.88590780593211     -6.83077386667271
  H   -4.42342656164504      1.92175768916417     -5.35699548337008
  N   -0.44869076025203      1.75041415864632     -7.46494355141917
  N   0.31767548468495      2.18792642820399     -8.15571974771654
  S   2.29344408721085      0.25651138344966     -6.63402753874875
  C   4.05113773582241      0.22573527223459     -6.03597394500527
  O   2.37333531540383      0.89964815524884     -7.97898132712988
  O   1.56804475685983      1.08510500012701     -5.63602402748176
  O   1.87754752091435     -1.16579332825724     -6.65451765056515
  F   4.81656693093513     -0.49591887472949     -6.86559560178222
  F   4.54602950406747      1.46986308751229     -5.97014416424372
  F   4.11284892164078     -0.32027712121745     -4.81306043883798
  O   -4.17785374658169     -0.53031524728550     -4.18064171601829
  C   -5.39861378487077      0.12224540191204     -3.82190433539033
  H   -5.91165981230099     -0.56694946381891     -3.15173238721317
  H   -6.02145115430143      0.30652921148990     -4.70393852600163
  H   -5.20304816529515      1.06416876024996     -3.29806378773401
