20
Coordinates from ORCA-job p-NO2-Ph-N2-X-BF4-B3LYPG-6-31G_dp-scan-d09-49-n400
  C   -0.90691310246438      0.68375701022124      1.34843206489734
  C   0.41716659951290      0.84725780610379      0.94983240009398
  C   0.62650008554013      1.51633479192833     -0.26346954576822
  C   -0.40060171067197      2.01793392924226     -1.08393177822825
  C   -1.70862551429320      1.83724423261113     -0.66337508323241
  C   -1.93154846922724      1.17678259515130      0.54601964608214
  H   -1.14529382261200      0.16830852015782      2.27022582282621
  H   1.24344121933386      0.44122956009524      1.52642113431604
  H   -0.17240483426370      2.52125948004207     -2.01625868365978
  H   -2.54832576194342      2.19271546022099     -1.24585040513461
  N   -3.33682604358826      0.99052753207659      0.99035066160322
  O   -3.51287251355080      0.41908662658809      2.05930838302157
  O   -4.21468900917853      1.42750395279047      0.25225616583554
  N   1.92227585542266      1.75102362526764     -0.71420855795963
  N   2.91077268226772      2.03821943850666     -1.12647391203446
  B   3.23487216263897     -0.61899965257172      0.76686735428124
  F   2.52056099288329     -0.64089443827677     -0.47329726879972
  F   4.42245751013613     -1.28834762417718      0.67336018829055
  F   3.43556078518902      0.77041544881904      1.06896442600392
  F   2.38749288886883     -1.13265829479702      1.76772698756539
