20
Coordinates from ORCA-job p-NO2-Ph-N2-X-BF4-B3LYPG-6-31G_dp-scan-d09-49-n400
  C   -1.15323478311384      0.97395933969403      1.70839199928391
  C   0.20545548972277      1.24914318040053      1.60594198615318
  C   0.68811804776675      1.62059043097555      0.34664587464172
  C   -0.10025126111438      1.70155610879340     -0.80758757835055
  C   -1.45310208386894      1.42023083152168     -0.68341935791401
  C   -1.95131466645458      1.06882840977853      0.57046652476948
  H   -1.59629761201687      0.67644871085245      2.65004258883718
  H   0.86501912294959      1.15455984999328      2.45801620709744
  H   0.34745944894780      1.94282415642932     -1.76304315212267
  H   -2.11893725398532      1.45725820798603     -1.53599931389047
  N   -3.39905041371171      0.77421077825723      0.69571477963925
  O   -3.81162949317134      0.46335072639899      1.80804093168912
  O   -4.07742282930528      0.86810819297458     -0.32205032960697
  N   2.03201873974908      1.97485673912096      0.21398110785870
  N   3.06075383607176      2.37192289132564      0.08174799842514
  B   3.16532481786902     -0.56352689256888     -0.08501364075762
  F   2.12671334031997     -0.19521681179867     -0.99920447920771
  F   3.42827370770742     -1.90235486739591     -0.13302929746423
  F   4.28872058326041      0.23147366420941     -0.39166764129538
  F   2.69638326237765     -0.16952364694823      1.21492479221451
