20
Coordinates from ORCA-job p-NO2-Ph-N2-X-BF4-B3LYPG-6-31G_dp-scan-d09-49-n400
  C   -1.13883052912642      0.77814565720191      1.57122348143517
  C   0.22394871274927      1.00022775768869      1.40642763719983
  C   0.63374023779383      1.55359907037652      0.18621335350453
  C   -0.24263751687481      1.88409234035592     -0.85786338312974
  C   -1.59676615168122      1.64230342373692     -0.67406376425748
  C   -2.01633762212531      1.09838727123310      0.53799155574480
  H   -1.52612235010482      0.35032799670009      2.48722104560781
  H   0.93000667778174      0.73957562383505      2.18279795080212
  H   0.13474708607178      2.29969870668336     -1.78456740340662
  H   -2.32268888066869      1.86750952544985     -1.44459689579805
  N   -3.46543996912974      0.85137126115433      0.73445446181962
  O   -3.81001642749411      0.37763181979374      1.81137007324843
  O   -4.21088824542538      1.14386766276686     -0.19512109544647
  N   1.97474052966798      1.87840668970584     -0.03748484953153
  N   2.98371693779263      2.28149579706316     -0.26801216840771
  B   3.36758985845450     -0.56628422128335      0.19467041631950
  F   2.19405422164848     -0.50463324136423     -0.62238522257707
  F   3.73571782208270     -1.85590666516645      0.45235666892493
  F   4.37761480772735      0.17263629618275     -0.45643734168003
  F   3.01685080086022      0.12624722788583      1.40870547962798
