20
Coordinates from ORCA-job p-NO2-Ph-N2-X-BF4-B3LYPG-6-31G_dp-scan-d09-49-n400
  C   -1.04645427237653      0.59239750753738      1.33961247039358
  C   0.29499462127828      0.77285948717481      1.01613495823078
  C   0.56878308657076      1.51922592863779     -0.13792553538342
  C   -0.41037068163407      2.07575026684943     -0.97742932767348
  C   -1.73965058815869      1.86727913924484     -0.64073496343810
  C   -2.02656141829684      1.13502444549124      0.51225190300773
  H   -1.33769956600667      0.03095433977524      2.21845245171360
  H   1.11905721008323      0.36778680766150      1.60117687301542
  H   -0.13259622562946      2.63904064348609     -1.86086902873533
  H   -2.54800088695065      2.25891396027770     -1.24390400693133
  N   -3.45287861065551      0.92952471202877      0.87146477654476
  O   -3.68529489273503      0.29722618732381      1.89491510555634
  O   -4.29158872332786      1.41222789467612      0.11662371844999
  N   1.89611698800629      1.77038865466873     -0.47697762425025
  N   2.93489140387096      2.05278261830177     -0.76234705738897
  B   3.44510107439696     -0.55778779091678      0.64175284327482
  F   2.32687631908813     -0.67921744990725     -0.23974835930829
  F   4.04618426787504     -1.76395154061726      0.85949359701444
  F   4.33219652145388      0.38207992498741      0.05306763305430
  F   2.94989437314775      0.01619426331859      1.84788957285343
