20
Coordinates from ORCA-job p-NO2-Ph-N2-X-BF4-B3LYPG-6-31G_dp-scan-d09-49-n400
  C   -1.05938223075414      0.57134380804859      1.34485260300927
  C   0.28609802227240      0.75663716993606      1.04253116207582
  C   0.57687409934085      1.51673388249851     -0.09785545384246
  C   -0.39060919884353      2.09038091691136     -0.93942251764698
  C   -1.72450138140888      1.87987886206693     -0.62295009025091
  C   -2.02780907959574      1.12709361922142      0.51231688201823
  H   -1.36327530014212     -0.00468104080311      2.20989105662350
  H   1.10472848931053      0.35068595871978      1.63015504785773
  H   -0.10046476917072      2.66675925775604     -1.81040135552776
  H   -2.52405042750877      2.28377910200371     -1.22971617433594
  N   -3.45901621625652      0.91230147992699      0.84497558223590
  O   -3.70639858021937      0.25448759503395      1.84868839642563
  O   -4.28678920495154      1.41250511541969      0.08942004272742
  N   1.90764716555517      1.75978484296568     -0.43063151808781
  N   2.93978571032379      2.04094076835034     -0.73909691439150
  B   3.44017002638117     -0.53969540412966      0.60639635854144
  F   2.28172325905614     -0.73339856696386     -0.20437565901058
  F   3.99618199521381     -1.72574221105266      0.98873415501959
  F   4.33775280930837      0.26346634297968     -0.14006384248823
  F   3.01433481208904      0.23543850111049      1.72945223904765
