20
Coordinates from ORCA-job p-NO2-Ph-N2-X-BF4-B3LYPG-6-31G_dp-scan-d09-49-n400
  C   -0.90089708805277      0.69361924383997      1.35486226328342
  C   0.42265430153995      0.86242992291749      0.95693587611416
  C   0.62995474820016      1.52430217158956     -0.26054305617967
  C   -0.39818924435877      2.01490999377502     -1.08611072046782
  C   -1.70571531507158      1.82951041942274     -0.66604699372053
  C   -1.92683536809029      1.17563584236760      0.54740521572265
  H   -1.13781994819238      0.18262182917953      2.27948186520388
  H   1.25215267718829      0.46629564915611      1.53535527068247
  H   -0.17129712902026      2.51318365009420     -2.02144151176893
  H   -2.54659821458603      2.17637969516026     -1.25199393678011
  N   -3.33178830733415      0.98444836847995      0.99062277929119
  O   -3.50646496896963      0.41895887220181      2.06296094823879
  O   -4.21086433042211      1.41117032486076      0.24797426196043
  N   1.92606237026294      1.76163224437605     -0.70782964496812
  N   2.91492710791556      2.04975554874426     -1.11857691440093
  B   3.22118347338597     -0.62707643505937      0.75987291511246
  F   2.51834875910926     -0.63511992745246     -0.48656775131122
  F   4.41031577849550     -1.29406695651206      0.67028135947769
  F   3.41832547578549      0.76038947561609      1.07820953583093
  F   2.36554522221486     -1.15027993275757      1.74804823867932
