Coordinates from ORCA-job p-CH3O-Ph-N2-Cl-B3LYPG-aug-cc-pVDZ-scan-d09-49-n400
 OpenBabel11081710393D

 18 17  0  0  0  0  0  0  0  0999 V2000
   -1.3147   -1.7046   -1.5111 C   0  0  0  0  0  0  0  0  0  0  0  0
    0.0204   -1.3561   -1.6119 C   0  0  0  0  0  0  0  0  0  0  0  0
    0.5031   -0.2502   -0.8889 C   0  0  0  0  0  0  0  0  0  0  0  0
   -0.3412    0.5090   -0.0657 C   0  0  0  0  0  0  0  0  0  0  0  0
   -1.6842    0.1532    0.0318 C   0  0  0  0  0  0  0  0  0  0  0  0
   -2.1775   -0.9516   -0.6876 C   0  0  0  0  0  0  0  0  0  0  0  0
   -1.7194   -2.5546   -2.0575 H   0  0  0  0  0  0  0  0  0  0  0  0
    0.7026   -1.9246   -2.2421 H   0  0  0  0  0  0  0  0  0  0  0  0
    0.0667    1.3579    0.4789 H   0  0  0  0  0  0  0  0  0  0  0  0
   -2.3359    0.7434    0.6704 H   0  0  0  0  0  0  0  0  0  0  0  0
    1.8747    0.0453   -1.0409 N   0  0  0  0  0  0  0  0  0  0  0  0
    2.7293    0.7681   -0.7184 N   0  0  0  0  0  0  0  0  0  0  0  0
    2.2387    2.3799    0.6659 Cl  0  0  0  0  0  0  0  0  0  0  0  0
   -3.4625   -1.3710   -0.6556 O   0  0  0  0  0  0  0  0  0  0  0  0
   -4.4018   -0.6599    0.1566 C   0  0  0  0  0  0  0  0  0  0  0  0
   -5.3553   -1.1773    0.0205 H   0  0  0  0  0  0  0  0  0  0  0  0
   -4.4965    0.3842   -0.1747 H   0  0  0  0  0  0  0  0  0  0  0  0
   -4.1101   -0.6940    1.2161 H   0  0  0  0  0  0  0  0  0  0  0  0
  1  6  1  0  0  0  0
  2  1  2  0  0  0  0
  2  3  1  0  0  0  0
  3  4  2  0  0  0  0
  4  5  1  0  0  0  0
  4  9  1  0  0  0  0
  5 10  1  0  0  0  0
  6 14  1  0  0  0  0
  6  5  2  0  0  0  0
  7  1  1  0  0  0  0
  8  2  1  0  0  0  0
 11  3  1  0  0  0  0
 11 12  2  0  0  0  0
 14 15  1  0  0  0  0
 15 18  1  0  0  0  0
 16 15  1  0  0  0  0
 17 15  1  0  0  0  0
M  RAD  2  12   2  13   2
M  END
