Coordinates from ORCA-job p-CH3O-Ph-N2-Cl-B3LYPG-aug-cc-pVDZ-scan-d09-49-n400
 OpenBabel11081710393D

 18 16  0  0  0  0  0  0  0  0999 V2000
   -1.4140   -1.7305   -1.5035 C   0  0  0  0  0  0  0  0  0  0  0  0
   -0.0464   -1.4489   -1.6655 C   0  0  0  0  0  0  0  0  0  0  0  0
    0.2528   -0.3474   -0.8951 C   0  0  0  0  0  0  0  0  0  0  0  0
   -0.4054    0.4027   -0.1308 C   0  0  0  0  0  0  0  0  0  0  0  0
   -1.7774    0.1633    0.0652 C   0  0  0  0  0  0  0  0  0  0  0  0
   -2.2586   -0.9513   -0.6648 C   0  0  0  0  0  0  0  0  0  0  0  0
   -1.8585   -2.5733   -2.0329 H   0  0  0  0  0  0  0  0  0  0  0  0
    0.6186   -2.0283   -2.2994 H   0  0  0  0  0  0  0  0  0  0  0  0
    0.2391    1.9029    0.8523 H   0  0  0  0  0  0  0  0  0  0  0  0
   -2.4119    0.7661    0.7087 H   0  0  0  0  0  0  0  0  0  0  0  0
    3.2626   -0.2465   -1.6532 N   0  0  0  0  0  0  0  0  0  0  0  0
    4.2217    0.2812   -1.5092 N   0  0  0  0  0  0  0  0  0  0  0  0
    0.5326    2.9684    1.5964 Cl  0  0  0  0  0  0  0  0  0  0  0  0
   -3.5571   -1.3717   -0.6295 O   0  0  0  0  0  0  0  0  0  0  0  0
   -4.4776   -0.6500    0.1857 C   0  0  0  0  0  0  0  0  0  0  0  0
   -5.4403   -1.1547    0.0623 H   0  0  0  0  0  0  0  0  0  0  0  0
   -4.5650    0.3960   -0.1451 H   0  0  0  0  0  0  0  0  0  0  0  0
   -4.1786   -0.6808    1.2445 H   0  0  0  0  0  0  0  0  0  0  0  0
  1  6  1  0  0  0  0
  2  1  2  0  0  0  0
  2  3  1  0  0  0  0
  3  4  2  0  0  0  0
  4  5  1  0  0  0  0
  5 10  1  0  0  0  0
  6 14  1  0  0  0  0
  6  5  2  0  0  0  0
  7  1  1  0  0  0  0
  8  2  1  0  0  0  0
  9 13  1  0  0  0  0
 11 12  3  0  0  0  0
 14 15  1  0  0  0  0
 15 18  1  0  0  0  0
 16 15  1  0  0  0  0
 17 15  1  0  0  0  0
M  RAD  2   3   2   4   2
M  END
