Coordinates from ORCA-job p-CH3O-Ph-N2-Cl-B3LYPG-aug-cc-pVDZ-scan-d09-49-n400
 OpenBabel11081710393D

 18 18  0  0  0  0  0  0  0  0999 V2000
   -1.3237   -1.7083   -1.5114 C   0  0  0  0  0  0  0  0  0  0  0  0
    0.0141   -1.3617   -1.6145 C   0  0  0  0  0  0  0  0  0  0  0  0
    0.4795   -0.2592   -0.8892 C   0  0  0  0  0  0  0  0  0  0  0  0
   -0.3448    0.5065   -0.0665 C   0  0  0  0  0  0  0  0  0  0  0  0
   -1.6905    0.1500    0.0311 C   0  0  0  0  0  0  0  0  0  0  0  0
   -2.1843   -0.9541   -0.6876 C   0  0  0  0  0  0  0  0  0  0  0  0
   -1.7296   -2.5580   -2.0573 H   0  0  0  0  0  0  0  0  0  0  0  0
    0.6978   -1.9286   -2.2439 H   0  0  0  0  0  0  0  0  0  0  0  0
    0.0671    1.3544    0.4762 H   0  0  0  0  0  0  0  0  0  0  0  0
   -2.3410    0.7412    0.6701 H   0  0  0  0  0  0  0  0  0  0  0  0
    1.9495    0.0495   -1.0583 N   0  0  0  0  0  0  0  0  0  0  0  0
    2.7694    0.7955   -0.7083 N   0  0  0  0  0  0  0  0  0  0  0  0
    2.2308    2.3867    0.6730 Cl  0  0  0  0  0  0  0  0  0  0  0  0
   -3.4716   -1.3729   -0.6546 O   0  0  0  0  0  0  0  0  0  0  0  0
   -4.4075   -0.6599    0.1582 C   0  0  0  0  0  0  0  0  0  0  0  0
   -5.3627   -1.1749    0.0244 H   0  0  0  0  0  0  0  0  0  0  0  0
   -4.5011    0.3845   -0.1729 H   0  0  0  0  0  0  0  0  0  0  0  0
   -4.1147   -0.6935    1.2176 H   0  0  0  0  0  0  0  0  0  0  0  0
  1  6  1  0  0  0  0
  2  1  2  0  0  0  0
  2  3  1  0  0  0  0
  3  4  2  0  0  0  0
  4  5  1  0  0  0  0
  4  9  1  0  0  0  0
  5 10  1  0  0  0  0
  6 14  1  0  0  0  0
  6  5  2  0  0  0  0
  7  1  1  0  0  0  0
  8  2  1  0  0  0  0
 11  3  1  0  0  0  0
 11 12  2  0  0  0  0
 12 13  1  0  0  0  0
 14 15  1  0  0  0  0
 15 18  1  0  0  0  0
 16 15  1  0  0  0  0
 17 15  1  0  0  0  0
M  END
