Coordinates from ORCA-job p-CH3O-Ph-N2-Cl-B3LYPG-aug-cc-pVDZ-scan-d09-49-n400
 OpenBabel11081710393D

 18 16  0  0  0  0  0  0  0  0999 V2000
   -1.3715   -1.6149   -1.4259 C   0  0  0  0  0  0  0  0  0  0  0  0
   -0.0162   -1.2538   -1.5232 C   0  0  0  0  0  0  0  0  0  0  0  0
    0.1866   -0.1488   -0.7233 C   0  0  0  0  0  0  0  0  0  0  0  0
   -0.5562    0.5405    0.0174 C   0  0  0  0  0  0  0  0  0  0  0  0
   -1.9181    0.2265    0.1530 C   0  0  0  0  0  0  0  0  0  0  0  0
   -2.2982   -0.9018   -0.6156 C   0  0  0  0  0  0  0  0  0  0  0  0
   -1.7426   -2.4726   -1.9873 H   0  0  0  0  0  0  0  0  0  0  0  0
    0.7024   -1.7889   -2.1377 H   0  0  0  0  0  0  0  0  0  0  0  0
   -0.0262    2.0878    1.0689 H   0  0  0  0  0  0  0  0  0  0  0  0
   -2.6142    0.7806    0.7760 H   0  0  0  0  0  0  0  0  0  0  0  0
    3.9370   -0.7063   -2.1968 N   0  0  0  0  0  0  0  0  0  0  0  0
    4.9514   -0.2739   -2.1403 N   0  0  0  0  0  0  0  0  0  0  0  0
    0.1473    3.1513    1.8446 Cl  0  0  0  0  0  0  0  0  0  0  0  0
   -3.5698   -1.3983   -0.6464 O   0  0  0  0  0  0  0  0  0  0  0  0
   -4.5671   -0.7463    0.1364 C   0  0  0  0  0  0  0  0  0  0  0  0
   -5.4916   -1.3043   -0.0386 H   0  0  0  0  0  0  0  0  0  0  0  0
   -4.7016    0.2985   -0.1824 H   0  0  0  0  0  0  0  0  0  0  0  0
   -4.3147   -0.7782    1.2072 H   0  0  0  0  0  0  0  0  0  0  0  0
  1  6  1  0  0  0  0
  2  1  2  0  0  0  0
  2  3  1  0  0  0  0
  3  4  2  0  0  0  0
  4  5  1  0  0  0  0
  5 10  1  0  0  0  0
  6  5  2  0  0  0  0
  7  1  1  0  0  0  0
  8  2  1  0  0  0  0
  9 13  1  0  0  0  0
 11 12  3  0  0  0  0
 14  6  1  0  0  0  0
 14 15  1  0  0  0  0
 15 18  1  0  0  0  0
 16 15  1  0  0  0  0
 17 15  1  0  0  0  0
M  RAD  2   3   2   4   2
M  END
