Coordinates from ORCA-job p-CH3O-Ph-N2-Cl-B3LYPG-aug-cc-pVDZ-scan-d09-49-n400
 OpenBabel11081710393D

 18 16  0  0  0  0  0  0  0  0999 V2000
   -1.3929   -1.7851   -1.5516 C   0  0  0  0  0  0  0  0  0  0  0  0
   -0.0263   -1.5275   -1.7318 C   0  0  0  0  0  0  0  0  0  0  0  0
    0.3429   -0.4410   -0.9923 C   0  0  0  0  0  0  0  0  0  0  0  0
   -0.2449    0.4092   -0.1701 C   0  0  0  0  0  0  0  0  0  0  0  0
   -1.6226    0.1194   -0.0117 C   0  0  0  0  0  0  0  0  0  0  0  0
   -2.1820   -0.9724   -0.7024 C   0  0  0  0  0  0  0  0  0  0  0  0
   -1.8602   -2.6216   -2.0700 H   0  0  0  0  0  0  0  0  0  0  0  0
    0.6201   -2.1214   -2.3717 H   0  0  0  0  0  0  0  0  0  0  0  0
    0.2811    1.2910    0.3671 H   0  0  0  0  0  0  0  0  0  0  0  0
   -2.2113    0.7555    0.6449 H   0  0  0  0  0  0  0  0  0  0  0  0
    2.3595    0.1015   -1.1324 N   0  0  0  0  0  0  0  0  0  0  0  0
    2.9338    0.9259   -0.6538 N   0  0  0  0  0  0  0  0  0  0  0  0
    1.3613    2.6298    1.1048 Cl  0  0  0  0  0  0  0  0  0  0  0  0
   -3.4878   -1.3357   -0.6210 O   0  0  0  0  0  0  0  0  0  0  0  0
   -4.3567   -0.5677    0.2156 C   0  0  0  0  0  0  0  0  0  0  0  0
   -5.3401   -1.0370    0.1253 H   0  0  0  0  0  0  0  0  0  0  0  0
   -4.4118    0.4760   -0.1267 H   0  0  0  0  0  0  0  0  0  0  0  0
   -4.0254   -0.6017    1.2639 H   0  0  0  0  0  0  0  0  0  0  0  0
  1  6  1  0  0  0  0
  2  1  2  0  0  0  0
  2  3  1  0  0  0  0
  3  4  2  0  0  0  0
  4  5  1  0  0  0  0
  4  9  1  0  0  0  0
  5 10  1  0  0  0  0
  6 14  1  0  0  0  0
  6  5  2  0  0  0  0
  7  1  1  0  0  0  0
  8  2  1  0  0  0  0
 11 12  3  0  0  0  0
 14 15  1  0  0  0  0
 15 18  1  0  0  0  0
 16 15  1  0  0  0  0
 17 15  1  0  0  0  0
M  RAD  2   3   2  13   2
M  END
