Coordinates from ORCA-job p-CH3O-Ph-N2-Cl-B3LYPG-aug-cc-pVDZ-scan-d09-49-n400
 OpenBabel11081710393D

 18 17  0  0  0  0  0  0  0  0999 V2000
   -1.1389   -1.6783   -1.2091 C   0  0  0  0  0  0  0  0  0  0  0  0
    0.1261   -1.1826   -1.3879 C   0  0  0  0  0  0  0  0  0  0  0  0
    0.5015    0.1828   -0.9703 C   0  0  0  0  0  0  0  0  0  0  0  0
   -0.5972    0.9304   -0.3468 C   0  0  0  0  0  0  0  0  0  0  0  0
   -1.8595    0.3991   -0.1821 C   0  0  0  0  0  0  0  0  0  0  0  0
   -2.1560   -0.9081   -0.6075 C   0  0  0  0  0  0  0  0  0  0  0  0
   -1.3707   -2.6936   -1.5297 H   0  0  0  0  0  0  0  0  0  0  0  0
    0.9211   -1.7737   -1.8399 H   0  0  0  0  0  0  0  0  0  0  0  0
   -0.3532    1.9373   -0.0114 H   0  0  0  0  0  0  0  0  0  0  0  0
   -2.6142    1.0222    0.2922 H   0  0  0  0  0  0  0  0  0  0  0  0
    1.3883    0.5362   -1.0735 N   0  0  0  0  0  0  0  0  0  0  0  0
    2.4894    0.9141   -1.0813 N   0  0  0  0  0  0  0  0  0  0  0  0
    3.3206    0.1813    1.0201 Cl  0  0  0  0  0  0  0  0  0  0  0  0
   -3.3616   -1.5080   -0.4880 O   0  0  0  0  0  0  0  0  0  0  0  0
   -4.4286   -0.7879    0.1351 C   0  0  0  0  0  0  0  0  0  0  0  0
   -5.2848   -1.4676    0.1265 H   0  0  0  0  0  0  0  0  0  0  0  0
   -4.6729    0.1216   -0.4329 H   0  0  0  0  0  0  0  0  0  0  0  0
   -4.1728   -0.5280    1.1725 H   0  0  0  0  0  0  0  0  0  0  0  0
  1  6  1  0  0  0  0
  2  1  2  0  0  0  0
  2  3  1  0  0  0  0
  3  4  2  0  0  0  0
  4  5  1  0  0  0  0
  4  9  1  0  0  0  0
  5 10  1  0  0  0  0
  6 14  1  0  0  0  0
  6  5  2  0  0  0  0
  7  1  1  0  0  0  0
  8  2  1  0  0  0  0
 11  3  1  0  0  0  0
 12 11  1  0  0  0  0
 14 15  1  0  0  0  0
 15 18  1  0  0  0  0
 16 15  1  0  0  0  0
 17 15  1  0  0  0  0
M  RAD  3  11   2  12   3  13   2
M  END
