Coordinates from ORCA-job p-CH3O-Ph-N2-Cl-B3LYPG-aug-cc-pVDZ-scan-d09-49-n400
 OpenBabel11081710393D

 18 16  0  0  0  0  0  0  0  0999 V2000
   -1.4193   -1.6967   -1.4757 C   0  0  0  0  0  0  0  0  0  0  0  0
   -0.0545   -1.3907   -1.6182 C   0  0  0  0  0  0  0  0  0  0  0  0
    0.2176   -0.2871   -0.8387 C   0  0  0  0  0  0  0  0  0  0  0  0
   -0.4718    0.4407   -0.0830 C   0  0  0  0  0  0  0  0  0  0  0  0
   -1.8405    0.1823    0.0973 C   0  0  0  0  0  0  0  0  0  0  0  0
   -2.2901   -0.9377   -0.6455 C   0  0  0  0  0  0  0  0  0  0  0  0
   -1.8414   -2.5446   -2.0153 H   0  0  0  0  0  0  0  0  0  0  0  0
    0.6238   -1.9598   -2.2477 H   0  0  0  0  0  0  0  0  0  0  0  0
    0.1464    1.9703    0.9303 H   0  0  0  0  0  0  0  0  0  0  0  0
   -2.4939    0.7707    0.7350 H   0  0  0  0  0  0  0  0  0  0  0  0
    3.6366   -0.4073   -1.8820 N   0  0  0  0  0  0  0  0  0  0  0  0
    4.5844    0.1359   -1.7222 N   0  0  0  0  0  0  0  0  0  0  0  0
    0.3932    3.0346    1.6864 Cl  0  0  0  0  0  0  0  0  0  0  0  0
   -3.5811   -1.3819   -0.6306 O   0  0  0  0  0  0  0  0  0  0  0  0
   -4.5260   -0.6813    0.1749 C   0  0  0  0  0  0  0  0  0  0  0  0
   -5.4775   -1.2029    0.0354 H   0  0  0  0  0  0  0  0  0  0  0  0
   -4.6279    0.3647   -0.1520 H   0  0  0  0  0  0  0  0  0  0  0  0
   -4.2415   -0.7121    1.2377 H   0  0  0  0  0  0  0  0  0  0  0  0
  1  6  1  0  0  0  0
  2  1  2  0  0  0  0
  2  3  1  0  0  0  0
  3  4  2  0  0  0  0
  4  5  1  0  0  0  0
  5 10  1  0  0  0  0
  6 14  1  0  0  0  0
  6  5  2  0  0  0  0
  7  1  1  0  0  0  0
  8  2  1  0  0  0  0
  9 13  1  0  0  0  0
 11 12  3  0  0  0  0
 14 15  1  0  0  0  0
 15 18  1  0  0  0  0
 16 15  1  0  0  0  0
 17 15  1  0  0  0  0
M  RAD  2   3   2   4   2
M  END
