Coordinates from ORCA-job p-CH3O-Ph-N2-Cl-B3LYPG-aug-cc-pVDZ-scan-d09-49-n400
 OpenBabel11081710393D

 18 16  0  0  0  0  0  0  0  0999 V2000
   -1.4049   -1.6709   -1.4598 C   0  0  0  0  0  0  0  0  0  0  0  0
   -0.0427   -1.3470   -1.5877 C   0  0  0  0  0  0  0  0  0  0  0  0
    0.2070   -0.2428   -0.8015 C   0  0  0  0  0  0  0  0  0  0  0  0
   -0.4997    0.4730   -0.0503 C   0  0  0  0  0  0  0  0  0  0  0  0
   -1.8665    0.1965    0.1156 C   0  0  0  0  0  0  0  0  0  0  0  0
   -2.2940   -0.9265   -0.6357 C   0  0  0  0  0  0  0  0  0  0  0  0
   -1.8107   -2.5222   -2.0066 H   0  0  0  0  0  0  0  0  0  0  0  0
    0.6474   -1.9064   -2.2130 H   0  0  0  0  0  0  0  0  0  0  0  0
    0.0904    2.0093    0.9760 H   0  0  0  0  0  0  0  0  0  0  0  0
   -2.5340    0.7741    0.7487 H   0  0  0  0  0  0  0  0  0  0  0  0
    3.7420   -0.5032   -1.9855 N   0  0  0  0  0  0  0  0  0  0  0  0
    4.7144    0.0045   -1.8598 N   0  0  0  0  0  0  0  0  0  0  0  0
    0.3129    3.0737    1.7388 Cl  0  0  0  0  0  0  0  0  0  0  0  0
   -3.5792   -1.3875   -0.6355 O   0  0  0  0  0  0  0  0  0  0  0  0
   -4.5412   -0.7023    0.1630 C   0  0  0  0  0  0  0  0  0  0  0  0
   -5.4843   -1.2357    0.0121 H   0  0  0  0  0  0  0  0  0  0  0  0
   -4.6535    0.3435   -0.1612 H   0  0  0  0  0  0  0  0  0  0  0  0
   -4.2669   -0.7332    1.2285 H   0  0  0  0  0  0  0  0  0  0  0  0
  1  6  1  0  0  0  0
  2  1  2  0  0  0  0
  2  3  1  0  0  0  0
  3  4  2  0  0  0  0
  4  5  1  0  0  0  0
  5 10  1  0  0  0  0
  6 14  1  0  0  0  0
  6  5  2  0  0  0  0
  7  1  1  0  0  0  0
  8  2  1  0  0  0  0
  9 13  1  0  0  0  0
 11 12  3  0  0  0  0
 14 15  1  0  0  0  0
 15 18  1  0  0  0  0
 16 15  1  0  0  0  0
 17 15  1  0  0  0  0
M  RAD  2   3   2   4   2
M  END
