Coordinates from ORCA-job p-CH3O-Ph-N2-Cl-B3LYPG-aug-cc-pVDZ-scan-d09-49-n400
 OpenBabel11081710393D

 18 18  0  0  0  0  0  0  0  0999 V2000
   -1.3293   -1.7109   -1.5119 C   0  0  0  0  0  0  0  0  0  0  0  0
    0.0105   -1.3662   -1.6170 C   0  0  0  0  0  0  0  0  0  0  0  0
    0.4644   -0.2656   -0.8900 C   0  0  0  0  0  0  0  0  0  0  0  0
   -0.3465    0.5050   -0.0672 C   0  0  0  0  0  0  0  0  0  0  0  0
   -1.6941    0.1482    0.0307 C   0  0  0  0  0  0  0  0  0  0  0  0
   -2.1883   -0.9556   -0.6877 C   0  0  0  0  0  0  0  0  0  0  0  0
   -1.7363   -2.5604   -2.0574 H   0  0  0  0  0  0  0  0  0  0  0  0
    0.6948   -1.9323   -2.2459 H   0  0  0  0  0  0  0  0  0  0  0  0
    0.0691    1.3521    0.4739 H   0  0  0  0  0  0  0  0  0  0  0  0
   -2.3436    0.7400    0.6700 H   0  0  0  0  0  0  0  0  0  0  0  0
    1.9932    0.0525   -1.0681 N   0  0  0  0  0  0  0  0  0  0  0  0
    2.7923    0.8105   -0.7030 N   0  0  0  0  0  0  0  0  0  0  0  0
    2.2250    2.3945    0.6807 Cl  0  0  0  0  0  0  0  0  0  0  0  0
   -3.4769   -1.3740   -0.6540 O   0  0  0  0  0  0  0  0  0  0  0  0
   -4.4106   -0.6596    0.1593 C   0  0  0  0  0  0  0  0  0  0  0  0
   -5.3669   -1.1732    0.0268 H   0  0  0  0  0  0  0  0  0  0  0  0
   -4.5034    0.3850   -0.1719 H   0  0  0  0  0  0  0  0  0  0  0  0
   -4.1171   -0.6930    1.2186 H   0  0  0  0  0  0  0  0  0  0  0  0
  1  6  1  0  0  0  0
  2  1  2  0  0  0  0
  2  3  1  0  0  0  0
  3  4  2  0  0  0  0
  4  5  1  0  0  0  0
  4  9  1  0  0  0  0
  5 10  1  0  0  0  0
  6 14  1  0  0  0  0
  6  5  2  0  0  0  0
  7  1  1  0  0  0  0
  8  2  1  0  0  0  0
 11  3  1  0  0  0  0
 11 12  2  0  0  0  0
 12 13  1  0  0  0  0
 14 15  1  0  0  0  0
 15 18  1  0  0  0  0
 16 15  1  0  0  0  0
 17 15  1  0  0  0  0
M  END
