Coordinates from ORCA-job p-CH3O-Ph-N2-Cl-B3LYPG-aug-cc-pVDZ-scan-d09-49-n400
 OpenBabel11081710393D

 18 16  0  0  0  0  0  0  0  0999 V2000
   -1.2982   -1.5111   -1.3657 C   0  0  0  0  0  0  0  0  0  0  0  0
    0.0401   -1.0830   -1.4065 C   0  0  0  0  0  0  0  0  0  0  0  0
    0.1611    0.0202   -0.5856 C   0  0  0  0  0  0  0  0  0  0  0  0
   -0.6470    0.6571    0.1328 C   0  0  0  0  0  0  0  0  0  0  0  0
   -1.9955    0.2775    0.2140 C   0  0  0  0  0  0  0  0  0  0  0  0
   -2.2895   -0.8567   -0.5829 C   0  0  0  0  0  0  0  0  0  0  0  0
   -1.6048   -2.3778   -1.9518 H   0  0  0  0  0  0  0  0  0  0  0  0
    0.8047   -1.5757   -2.0010 H   0  0  0  0  0  0  0  0  0  0  0  0
   -0.2299    2.2203    1.2279 H   0  0  0  0  0  0  0  0  0  0  0  0
   -2.7408    0.7882    0.8170 H   0  0  0  0  0  0  0  0  0  0  0  0
    4.1801   -1.0642   -2.5413 N   0  0  0  0  0  0  0  0  0  0  0  0
    5.2428   -0.7718   -2.6070 N   0  0  0  0  0  0  0  0  0  0  0  0
   -0.1435    3.2783    2.0236 Cl  0  0  0  0  0  0  0  0  0  0  0  0
   -3.5327   -1.4147   -0.6692 O   0  0  0  0  0  0  0  0  0  0  0  0
   -4.5902   -0.8240    0.0826 C   0  0  0  0  0  0  0  0  0  0  0  0
   -5.4786   -1.4240   -0.1351 H   0  0  0  0  0  0  0  0  0  0  0  0
   -4.7641    0.2176   -0.2278 H   0  0  0  0  0  0  0  0  0  0  0  0
   -4.3775   -0.8591    1.1619 H   0  0  0  0  0  0  0  0  0  0  0  0
  1  6  1  0  0  0  0
  2  1  2  0  0  0  0
  2  3  1  0  0  0  0
  3  4  2  0  0  0  0
  4  5  1  0  0  0  0
  5 10  1  0  0  0  0
  6  5  2  0  0  0  0
  7  1  1  0  0  0  0
  8  2  1  0  0  0  0
  9 13  1  0  0  0  0
 12 11  3  0  0  0  0
 14  6  1  0  0  0  0
 14 15  1  0  0  0  0
 15 18  1  0  0  0  0
 16 15  1  0  0  0  0
 17 15  1  0  0  0  0
M  RAD  2   3   2   4   2
M  END
