Coordinates from ORCA-job p-CH3O-Ph-N2-Cl-B3LYPG-aug-cc-pVDZ-scan-d09-49-n400
 OpenBabel11081710393D

 18 16  0  0  0  0  0  0  0  0999 V2000
   -1.4031   -1.6676   -1.4578 C   0  0  0  0  0  0  0  0  0  0  0  0
   -0.0412   -1.3414   -1.5838 C   0  0  0  0  0  0  0  0  0  0  0  0
    0.2058   -0.2371   -0.7968 C   0  0  0  0  0  0  0  0  0  0  0  0
   -0.5031    0.4771   -0.0462 C   0  0  0  0  0  0  0  0  0  0  0  0
   -1.8697    0.1983    0.1178 C   0  0  0  0  0  0  0  0  0  0  0  0
   -2.2944   -0.9250   -0.6345 C   0  0  0  0  0  0  0  0  0  0  0  0
   -1.8067   -2.5193   -2.0055 H   0  0  0  0  0  0  0  0  0  0  0  0
    0.6506   -1.8994   -2.2086 H   0  0  0  0  0  0  0  0  0  0  0  0
    0.0834    2.0142    0.9817 H   0  0  0  0  0  0  0  0  0  0  0  0
   -2.5389    0.7745    0.7504 H   0  0  0  0  0  0  0  0  0  0  0  0
    3.7546   -0.5154   -1.9985 N   0  0  0  0  0  0  0  0  0  0  0  0
    4.7298   -0.0122   -1.8768 N   0  0  0  0  0  0  0  0  0  0  0  0
    0.3028    3.0785    1.7453 Cl  0  0  0  0  0  0  0  0  0  0  0  0
   -3.5788   -1.3882   -0.6362 O   0  0  0  0  0  0  0  0  0  0  0  0
   -4.5429   -0.7049    0.1615 C   0  0  0  0  0  0  0  0  0  0  0  0
   -5.4849   -1.2398    0.0091 H   0  0  0  0  0  0  0  0  0  0  0  0
   -4.6566    0.3408   -0.1624 H   0  0  0  0  0  0  0  0  0  0  0  0
   -4.2700   -0.7359    1.2273 H   0  0  0  0  0  0  0  0  0  0  0  0
  1  6  1  0  0  0  0
  2  1  2  0  0  0  0
  2  3  1  0  0  0  0
  3  4  2  0  0  0  0
  4  5  1  0  0  0  0
  5 10  1  0  0  0  0
  6  5  2  0  0  0  0
  7  1  1  0  0  0  0
  8  2  1  0  0  0  0
  9 13  1  0  0  0  0
 11 12  3  0  0  0  0
 14  6  1  0  0  0  0
 14 15  1  0  0  0  0
 15 18  1  0  0  0  0
 16 15  1  0  0  0  0
 17 15  1  0  0  0  0
M  RAD  2   3   2   4   2
M  END
