Coordinates from ORCA-job p-CH3O-Ph-N2-Cl-B3LYPG-aug-cc-pVDZ-scan-d09-49-n400
 OpenBabel11081710393D

 18 17  0  0  0  0  0  0  0  0999 V2000
   -1.2979   -1.6979   -1.5107 C   0  0  0  0  0  0  0  0  0  0  0  0
    0.0305   -1.3482   -1.6084 C   0  0  0  0  0  0  0  0  0  0  0  0
    0.5550   -0.2311   -0.8877 C   0  0  0  0  0  0  0  0  0  0  0  0
   -0.3387    0.5155   -0.0603 C   0  0  0  0  0  0  0  0  0  0  0  0
   -1.6746    0.1603    0.0354 C   0  0  0  0  0  0  0  0  0  0  0  0
   -2.1657   -0.9462   -0.6865 C   0  0  0  0  0  0  0  0  0  0  0  0
   -1.7015   -2.5480   -2.0580 H   0  0  0  0  0  0  0  0  0  0  0  0
    0.7097   -1.9201   -2.2407 H   0  0  0  0  0  0  0  0  0  0  0  0
    0.0664    1.3664    0.4869 H   0  0  0  0  0  0  0  0  0  0  0  0
   -2.3297    0.7481    0.6733 H   0  0  0  0  0  0  0  0  0  0  0  0
    1.7280    0.0483   -0.9973 N   0  0  0  0  0  0  0  0  0  0  0  0
    2.6666    0.6994   -0.7550 N   0  0  0  0  0  0  0  0  0  0  0  0
    2.2644    2.3807    0.6569 Cl  0  0  0  0  0  0  0  0  0  0  0  0
   -3.4440   -1.3669   -0.6575 O   0  0  0  0  0  0  0  0  0  0  0  0
   -4.3935   -0.6616    0.1526 C   0  0  0  0  0  0  0  0  0  0  0  0
   -5.3422   -1.1855    0.0095 H   0  0  0  0  0  0  0  0  0  0  0  0
   -4.4910    0.3815   -0.1790 H   0  0  0  0  0  0  0  0  0  0  0  0
   -4.1051   -0.6973    1.2124 H   0  0  0  0  0  0  0  0  0  0  0  0
  1  6  1  0  0  0  0
  2  1  2  0  0  0  0
  2  3  1  0  0  0  0
  3  4  2  0  0  0  0
  4  5  1  0  0  0  0
  4  9  1  0  0  0  0
  5 10  1  0  0  0  0
  6 14  1  0  0  0  0
  6  5  2  0  0  0  0
  7  1  1  0  0  0  0
  8  2  1  0  0  0  0
 11  3  1  0  0  0  0
 11 12  2  0  0  0  0
 14 15  1  0  0  0  0
 15 18  1  0  0  0  0
 16 15  1  0  0  0  0
 17 15  1  0  0  0  0
M  RAD  2  12   2  13   2
M  END
