Coordinates from ORCA-job p-CH3O-Ph-N2-Cl-B3LYPG-aug-cc-pVDZ-scan-d09-49-n400
 OpenBabel11081710393D

 18 16  0  0  0  0  0  0  0  0999 V2000
   -1.4024   -1.7557   -1.5261 C   0  0  0  0  0  0  0  0  0  0  0  0
   -0.0323   -1.4920   -1.7029 C   0  0  0  0  0  0  0  0  0  0  0  0
    0.2795   -0.3947   -0.9394 C   0  0  0  0  0  0  0  0  0  0  0  0
   -0.3404    0.3826   -0.1648 C   0  0  0  0  0  0  0  0  0  0  0  0
   -1.7160    0.1484    0.0363 C   0  0  0  0  0  0  0  0  0  0  0  0
   -2.2250   -0.9607   -0.6814 C   0  0  0  0  0  0  0  0  0  0  0  0
   -1.8629   -2.5946   -2.0480 H   0  0  0  0  0  0  0  0  0  0  0  0
    0.6182   -2.0827   -2.3415 H   0  0  0  0  0  0  0  0  0  0  0  0
    0.3205    1.8043    0.7523 H   0  0  0  0  0  0  0  0  0  0  0  0
   -2.3353    0.7627    0.6845 H   0  0  0  0  0  0  0  0  0  0  0  0
    2.8995   -0.1271   -1.4598 N   0  0  0  0  0  0  0  0  0  0  0  0
    3.8148    0.4570   -1.2598 N   0  0  0  0  0  0  0  0  0  0  0  0
    0.6971    2.8738    1.4785 Cl  0  0  0  0  0  0  0  0  0  0  0  0
   -3.5289   -1.3611   -0.6291 O   0  0  0  0  0  0  0  0  0  0  0  0
   -4.4286   -0.6218    0.1940 C   0  0  0  0  0  0  0  0  0  0  0  0
   -5.4002   -1.1123    0.0842 H   0  0  0  0  0  0  0  0  0  0  0  0
   -4.5038    0.4240   -0.1403 H   0  0  0  0  0  0  0  0  0  0  0  0
   -4.1174   -0.6527    1.2492 H   0  0  0  0  0  0  0  0  0  0  0  0
  1  6  1  0  0  0  0
  2  1  2  0  0  0  0
  2  3  1  0  0  0  0
  3  4  2  0  0  0  0
  4  5  1  0  0  0  0
  5 10  1  0  0  0  0
  6 14  1  0  0  0  0
  6  5  2  0  0  0  0
  7  1  1  0  0  0  0
  8  2  1  0  0  0  0
  9 13  1  0  0  0  0
 11 12  3  0  0  0  0
 14 15  1  0  0  0  0
 15 18  1  0  0  0  0
 16 15  1  0  0  0  0
 17 15  1  0  0  0  0
M  RAD  2   3   2   4   2
M  END
