Coordinates from ORCA-job p-CH3O-Ph-N2-Cl-B3LYPG-aug-cc-pVDZ-scan-d09-49-n400
 OpenBabel11081710393D

 18 16  0  0  0  0  0  0  0  0999 V2000
   -1.4221   -1.7227   -1.4951 C   0  0  0  0  0  0  0  0  0  0  0  0
   -0.0551   -1.4350   -1.6523 C   0  0  0  0  0  0  0  0  0  0  0  0
    0.2366   -0.3328   -0.8793 C   0  0  0  0  0  0  0  0  0  0  0  0
   -0.4298    0.4110   -0.1176 C   0  0  0  0  0  0  0  0  0  0  0  0
   -1.8009    0.1677    0.0751 C   0  0  0  0  0  0  0  0  0  0  0  0
   -2.2735   -0.9485   -0.6584 C   0  0  0  0  0  0  0  0  0  0  0  0
   -1.8612   -2.5668   -2.0271 H   0  0  0  0  0  0  0  0  0  0  0  0
    0.6144   -2.0109   -2.2847 H   0  0  0  0  0  0  0  0  0  0  0  0
    0.2134    1.9245    0.8762 H   0  0  0  0  0  0  0  0  0  0  0  0
   -2.4404    0.7667    0.7171 H   0  0  0  0  0  0  0  0  0  0  0  0
    3.4113   -0.2867   -1.7258 N   0  0  0  0  0  0  0  0  0  0  0  0
    4.3664    0.2469   -1.5759 N   0  0  0  0  0  0  0  0  0  0  0  0
    0.4921    2.9892    1.6237 Cl  0  0  0  0  0  0  0  0  0  0  0  0
   -3.5702   -1.3753   -0.6286 O   0  0  0  0  0  0  0  0  0  0  0  0
   -4.4972   -0.6592    0.1841 C   0  0  0  0  0  0  0  0  0  0  0  0
   -5.4569   -1.1683    0.0564 H   0  0  0  0  0  0  0  0  0  0  0  0
   -4.5884    0.3869   -0.1457 H   0  0  0  0  0  0  0  0  0  0  0  0
   -4.2020   -0.6899    1.2439 H   0  0  0  0  0  0  0  0  0  0  0  0
  1  6  1  0  0  0  0
  2  1  2  0  0  0  0
  2  3  1  0  0  0  0
  3  4  2  0  0  0  0
  4  5  1  0  0  0  0
  5 10  1  0  0  0  0
  6 14  1  0  0  0  0
  6  5  2  0  0  0  0
  7  1  1  0  0  0  0
  8  2  1  0  0  0  0
  9 13  1  0  0  0  0
 11 12  3  0  0  0  0
 14 15  1  0  0  0  0
 15 18  1  0  0  0  0
 16 15  1  0  0  0  0
 17 15  1  0  0  0  0
M  RAD  2   3   2   4   2
M  END
