Coordinates from ORCA-job p-CH3O-Ph-N2-Cl-B3LYPG-aug-cc-pVDZ-scan-d09-49-n400
 OpenBabel11081710393D

 18 17  0  0  0  0  0  0  0  0999 V2000
   -1.3012   -1.6994   -1.5107 C   0  0  0  0  0  0  0  0  0  0  0  0
    0.0286   -1.3496   -1.6091 C   0  0  0  0  0  0  0  0  0  0  0  0
    0.5441   -0.2352   -0.8886 C   0  0  0  0  0  0  0  0  0  0  0  0
   -0.3385    0.5140   -0.0625 C   0  0  0  0  0  0  0  0  0  0  0  0
   -1.6760    0.1590    0.0340 C   0  0  0  0  0  0  0  0  0  0  0  0
   -2.1677   -0.9473   -0.6869 C   0  0  0  0  0  0  0  0  0  0  0  0
   -1.7049   -2.5497   -2.0575 H   0  0  0  0  0  0  0  0  0  0  0  0
    0.7083   -1.9211   -2.2409 H   0  0  0  0  0  0  0  0  0  0  0  0
    0.0668    1.3646    0.4841 H   0  0  0  0  0  0  0  0  0  0  0  0
   -2.3303    0.7475    0.6720 H   0  0  0  0  0  0  0  0  0  0  0  0
    1.7570    0.0470   -1.0070 N   0  0  0  0  0  0  0  0  0  0  0  0
    2.6773    0.7153   -0.7453 N   0  0  0  0  0  0  0  0  0  0  0  0
    2.2565    2.3779    0.6598 Cl  0  0  0  0  0  0  0  0  0  0  0  0
   -3.4476   -1.3676   -0.6570 O   0  0  0  0  0  0  0  0  0  0  0  0
   -4.3946   -0.6609    0.1538 C   0  0  0  0  0  0  0  0  0  0  0  0
   -5.3444   -1.1835    0.0126 H   0  0  0  0  0  0  0  0  0  0  0  0
   -4.4917    0.3823   -0.1779 H   0  0  0  0  0  0  0  0  0  0  0  0
   -4.1052   -0.6961    1.2134 H   0  0  0  0  0  0  0  0  0  0  0  0
  1  6  1  0  0  0  0
  2  1  2  0  0  0  0
  2  3  1  0  0  0  0
  3  4  2  0  0  0  0
  4  5  1  0  0  0  0
  4  9  1  0  0  0  0
  5 10  1  0  0  0  0
  6 14  1  0  0  0  0
  6  5  2  0  0  0  0
  7  1  1  0  0  0  0
  8  2  1  0  0  0  0
 11  3  1  0  0  0  0
 11 12  2  0  0  0  0
 14 15  1  0  0  0  0
 15 18  1  0  0  0  0
 16 15  1  0  0  0  0
 17 15  1  0  0  0  0
M  RAD  2  12   2  13   2
M  END
