Coordinates from ORCA-job p-CH3O-Ph-N2-Cl-B3LYPG-aug-cc-pVDZ-scan-d09-49-n400
 OpenBabel11081710393D

 18 16  0  0  0  0  0  0  0  0999 V2000
   -1.4061   -1.7492   -1.5201 C   0  0  0  0  0  0  0  0  0  0  0  0
   -0.0362   -1.4815   -1.6937 C   0  0  0  0  0  0  0  0  0  0  0  0
    0.2714   -0.3833   -0.9282 C   0  0  0  0  0  0  0  0  0  0  0  0
   -0.3582    0.3868   -0.1565 C   0  0  0  0  0  0  0  0  0  0  0  0
   -1.7327    0.1524    0.0442 C   0  0  0  0  0  0  0  0  0  0  0  0
   -2.2344   -0.9584   -0.6770 C   0  0  0  0  0  0  0  0  0  0  0  0
   -1.8627   -2.5891   -2.0439 H   0  0  0  0  0  0  0  0  0  0  0  0
    0.6163   -2.0706   -2.3316 H   0  0  0  0  0  0  0  0  0  0  0  0
    0.2961    1.8351    0.7834 H   0  0  0  0  0  0  0  0  0  0  0  0
   -2.3558    0.7638    0.6912 H   0  0  0  0  0  0  0  0  0  0  0  0
    3.0051   -0.1601   -1.5147 N   0  0  0  0  0  0  0  0  0  0  0  0
    3.9342    0.4075   -1.3312 N   0  0  0  0  0  0  0  0  0  0  0  0
    0.6447    2.9035    1.5155 Cl  0  0  0  0  0  0  0  0  0  0  0  0
   -3.5370   -1.3640   -0.6290 O   0  0  0  0  0  0  0  0  0  0  0  0
   -4.4421   -0.6292    0.1921 C   0  0  0  0  0  0  0  0  0  0  0  0
   -5.4115   -1.1233    0.0788 H   0  0  0  0  0  0  0  0  0  0  0  0
   -4.5205    0.4167   -0.1413 H   0  0  0  0  0  0  0  0  0  0  0  0
   -4.1340   -0.6600    1.2482 H   0  0  0  0  0  0  0  0  0  0  0  0
  1  6  1  0  0  0  0
  2  1  2  0  0  0  0
  2  3  1  0  0  0  0
  3  4  2  0  0  0  0
  4  5  1  0  0  0  0
  5 10  1  0  0  0  0
  6 14  1  0  0  0  0
  6  5  2  0  0  0  0
  7  1  1  0  0  0  0
  8  2  1  0  0  0  0
  9 13  1  0  0  0  0
 11 12  3  0  0  0  0
 14 15  1  0  0  0  0
 15 18  1  0  0  0  0
 16 15  1  0  0  0  0
 17 15  1  0  0  0  0
M  RAD  2   3   2   4   2
M  END
