Coordinates from ORCA-job p-CH3O-Ph-N2-Cl-B3LYPG-aug-cc-pVDZ-scan-d09-49-n400
 OpenBabel11081710393D

 18 16  0  0  0  0  0  0  0  0999 V2000
   -1.2775   -1.4847   -1.3509 C   0  0  0  0  0  0  0  0  0  0  0  0
    0.0556   -1.0400   -1.3774 C   0  0  0  0  0  0  0  0  0  0  0  0
    0.1560    0.0621   -0.5516 C   0  0  0  0  0  0  0  0  0  0  0  0
   -0.6679    0.6853    0.1605 C   0  0  0  0  0  0  0  0  0  0  0  0
   -2.0124    0.2897    0.2281 C   0  0  0  0  0  0  0  0  0  0  0  0
   -2.2845   -0.8454   -0.5755 C   0  0  0  0  0  0  0  0  0  0  0  0
   -1.5678   -2.3530   -1.9428 H   0  0  0  0  0  0  0  0  0  0  0  0
    0.8316   -1.5215   -1.9663 H   0  0  0  0  0  0  0  0  0  0  0  0
   -0.2786    2.2528    1.2665 H   0  0  0  0  0  0  0  0  0  0  0  0
   -2.7695    0.7890    0.8256 H   0  0  0  0  0  0  0  0  0  0  0  0
    4.2210   -1.1511   -2.6199 N   0  0  0  0  0  0  0  0  0  0  0  0
    5.2911   -0.8964   -2.7171 N   0  0  0  0  0  0  0  0  0  0  0  0
   -0.2145    3.3085    2.0667 Cl  0  0  0  0  0  0  0  0  0  0  0  0
   -3.5197   -1.4184   -0.6756 O   0  0  0  0  0  0  0  0  0  0  0  0
   -4.5917   -0.8435    0.0679 C   0  0  0  0  0  0  0  0  0  0  0  0
   -5.4704   -1.4537   -0.1605 H   0  0  0  0  0  0  0  0  0  0  0  0
   -4.7755    0.1969   -0.2407 H   0  0  0  0  0  0  0  0  0  0  0  0
   -4.3890   -0.8797    1.1491 H   0  0  0  0  0  0  0  0  0  0  0  0
  1  6  1  0  0  0  0
  2  1  2  0  0  0  0
  2  3  1  0  0  0  0
  3  4  2  0  0  0  0
  4  5  1  0  0  0  0
  5 10  1  0  0  0  0
  6  5  2  0  0  0  0
  7  1  1  0  0  0  0
  8  2  1  0  0  0  0
  9 13  1  0  0  0  0
 12 11  3  0  0  0  0
 14  6  1  0  0  0  0
 14 15  1  0  0  0  0
 15 18  1  0  0  0  0
 16 15  1  0  0  0  0
 17 15  1  0  0  0  0
M  RAD  2   3   2   4   2
M  END
