Coordinates from ORCA-job p-CH3O-Ph-N2-Cl-B3LYPG-aug-cc-pVDZ-scan-d09-49-n400
 OpenBabel11081710393D

 18 17  0  0  0  0  0  0  0  0999 V2000
   -1.3370   -1.7150   -1.5129 C   0  0  0  0  0  0  0  0  0  0  0  0
    0.0053   -1.3738   -1.6214 C   0  0  0  0  0  0  0  0  0  0  0  0
    0.4450   -0.2754   -0.8922 C   0  0  0  0  0  0  0  0  0  0  0  0
   -0.3480    0.5022   -0.0690 C   0  0  0  0  0  0  0  0  0  0  0  0
   -1.6979    0.1457    0.0298 C   0  0  0  0  0  0  0  0  0  0  0  0
   -2.1933   -0.9577   -0.6879 C   0  0  0  0  0  0  0  0  0  0  0  0
   -1.7460   -2.5642   -2.0576 H   0  0  0  0  0  0  0  0  0  0  0  0
    0.6901   -1.9391   -2.2499 H   0  0  0  0  0  0  0  0  0  0  0  0
    0.0743    1.3483    0.4695 H   0  0  0  0  0  0  0  0  0  0  0  0
   -2.3456    0.7389    0.6697 H   0  0  0  0  0  0  0  0  0  0  0  0
    2.0519    0.0584   -1.0798 N   0  0  0  0  0  0  0  0  0  0  0  0
    2.8237    0.8301   -0.6966 N   0  0  0  0  0  0  0  0  0  0  0  0
    2.2092    2.4071    0.6948 Cl  0  0  0  0  0  0  0  0  0  0  0  0
   -3.4834   -1.3748   -0.6528 O   0  0  0  0  0  0  0  0  0  0  0  0
   -4.4143   -0.6584    0.1613 C   0  0  0  0  0  0  0  0  0  0  0  0
   -5.3719   -1.1700    0.0307 H   0  0  0  0  0  0  0  0  0  0  0  0
   -4.5058    0.3864   -0.1701 H   0  0  0  0  0  0  0  0  0  0  0  0
   -4.1195   -0.6916    1.2204 H   0  0  0  0  0  0  0  0  0  0  0  0
  1  6  1  0  0  0  0
  2  1  2  0  0  0  0
  2  3  1  0  0  0  0
  3  4  2  0  0  0  0
  4  5  1  0  0  0  0
  4  9  1  0  0  0  0
  5 10  1  0  0  0  0
  6 14  1  0  0  0  0
  6  5  2  0  0  0  0
  7  1  1  0  0  0  0
  8  2  1  0  0  0  0
 11  3  1  0  0  0  0
 11 12  2  0  0  0  0
 14 15  1  0  0  0  0
 15 18  1  0  0  0  0
 16 15  1  0  0  0  0
 17 15  1  0  0  0  0
M  RAD  2  12   2  13   2
M  END
