Coordinates from ORCA-job p-CH3O-Ph-N2-Cl-B3LYPG-aug-cc-pVDZ-scan-d09-49-n400
 OpenBabel11081710393D

 18 16  0  0  0  0  0  0  0  0999 V2000
   -1.2469   -1.4461   -1.3295 C   0  0  0  0  0  0  0  0  0  0  0  0
    0.0782   -0.9778   -1.3354 C   0  0  0  0  0  0  0  0  0  0  0  0
    0.1482    0.1220   -0.5030 C   0  0  0  0  0  0  0  0  0  0  0  0
   -0.6972    0.7261    0.2002 C   0  0  0  0  0  0  0  0  0  0  0  0
   -2.0352    0.3068    0.2477 C   0  0  0  0  0  0  0  0  0  0  0  0
   -2.2757   -0.8288   -0.5650 C   0  0  0  0  0  0  0  0  0  0  0  0
   -1.5135   -2.3165   -1.9294 H   0  0  0  0  0  0  0  0  0  0  0  0
    0.8705   -1.4428   -1.9160 H   0  0  0  0  0  0  0  0  0  0  0  0
   -0.3488    2.2969    1.3202 H   0  0  0  0  0  0  0  0  0  0  0  0
   -2.8092    0.7897    0.8371 H   0  0  0  0  0  0  0  0  0  0  0  0
    4.2718   -1.2746   -2.7296 N   0  0  0  0  0  0  0  0  0  0  0  0
    5.3484   -1.0744   -2.8712 N   0  0  0  0  0  0  0  0  0  0  0  0
   -0.3158    3.3492    2.1263 Cl  0  0  0  0  0  0  0  0  0  0  0  0
   -3.4991   -1.4233   -0.6851 O   0  0  0  0  0  0  0  0  0  0  0  0
   -4.5913   -0.8712    0.0462 C   0  0  0  0  0  0  0  0  0  0  0  0
   -5.4557   -1.4959   -0.1972 H   0  0  0  0  0  0  0  0  0  0  0  0
   -4.7894    0.1672   -0.2600 H   0  0  0  0  0  0  0  0  0  0  0  0
   -4.4029   -0.9093    1.1299 H   0  0  0  0  0  0  0  0  0  0  0  0
  1  6  1  0  0  0  0
  2  1  2  0  0  0  0
  2  3  1  0  0  0  0
  3  4  2  0  0  0  0
  4  5  1  0  0  0  0
  5 10  1  0  0  0  0
  6  5  2  0  0  0  0
  7  1  1  0  0  0  0
  8  2  1  0  0  0  0
  9 13  1  0  0  0  0
 12 11  3  0  0  0  0
 14  6  1  0  0  0  0
 14 15  1  0  0  0  0
 15 18  1  0  0  0  0
 16 15  1  0  0  0  0
 17 15  1  0  0  0  0
M  RAD  2   3   2   4   2
M  END
