Coordinates from ORCA-job p-CH3O-Ph-N2-Cl-B3LYPG-aug-cc-pVDZ-scan-d09-49-n400
 OpenBabel11081710393D

 18 16  0  0  0  0  0  0  0  0999 V2000
   -1.3287   -1.5517   -1.3888 C   0  0  0  0  0  0  0  0  0  0  0  0
    0.0168   -1.1491   -1.4513 C   0  0  0  0  0  0  0  0  0  0  0  0
    0.1680   -0.0450   -0.6380 C   0  0  0  0  0  0  0  0  0  0  0  0
   -0.6138    0.6139    0.0901 C   0  0  0  0  0  0  0  0  0  0  0  0
   -1.9682    0.2583    0.1915 C   0  0  0  0  0  0  0  0  0  0  0  0
   -2.2955   -0.8742   -0.5948 C   0  0  0  0  0  0  0  0  0  0  0  0
   -1.6605   -2.4153   -1.9655 H   0  0  0  0  0  0  0  0  0  0  0  0
    0.7649   -1.6575   -2.0534 H   0  0  0  0  0  0  0  0  0  0  0  0
   -0.1527    2.1699    1.1674 H   0  0  0  0  0  0  0  0  0  0  0  0
   -2.6951    0.7857    0.8024 H   0  0  0  0  0  0  0  0  0  0  0  0
    4.1048   -0.9283   -2.4152 N   0  0  0  0  0  0  0  0  0  0  0  0
    5.1525   -0.5804   -2.4333 N   0  0  0  0  0  0  0  0  0  0  0  0
   -0.0319    3.2308    1.9559 Cl  0  0  0  0  0  0  0  0  0  0  0  0
   -3.5503   -1.4087   -0.6598 O   0  0  0  0  0  0  0  0  0  0  0  0
   -4.5851   -0.7942    0.1043 C   0  0  0  0  0  0  0  0  0  0  0  0
   -5.4878   -1.3784   -0.0970 H   0  0  0  0  0  0  0  0  0  0  0  0
   -4.7439    0.2489   -0.2091 H   0  0  0  0  0  0  0  0  0  0  0  0
   -4.3571   -0.8278    1.1806 H   0  0  0  0  0  0  0  0  0  0  0  0
  1  6  1  0  0  0  0
  2  1  2  0  0  0  0
  2  3  1  0  0  0  0
  3  4  2  0  0  0  0
  4  5  1  0  0  0  0
  5 10  1  0  0  0  0
  6  5  2  0  0  0  0
  7  1  1  0  0  0  0
  8  2  1  0  0  0  0
  9 13  1  0  0  0  0
 12 11  3  0  0  0  0
 14  6  1  0  0  0  0
 14 15  1  0  0  0  0
 15 18  1  0  0  0  0
 16 15  1  0  0  0  0
 17 15  1  0  0  0  0
M  RAD  2   3   2   4   2
M  END
