Coordinates from ORCA-job p-CH3O-Ph-N2-Cl-B3LYPG-aug-cc-pVDZ-scan-d09-49-n400
 OpenBabel11081710393D

 18 17  0  0  0  0  0  0  0  0999 V2000
   -1.1466   -1.6813   -1.2120 C   0  0  0  0  0  0  0  0  0  0  0  0
    0.1193   -1.1803   -1.3911 C   0  0  0  0  0  0  0  0  0  0  0  0
    0.4726    0.1715   -0.9721 C   0  0  0  0  0  0  0  0  0  0  0  0
   -0.6003    0.9264   -0.3524 C   0  0  0  0  0  0  0  0  0  0  0  0
   -1.8663    0.3986   -0.1836 C   0  0  0  0  0  0  0  0  0  0  0  0
   -2.1612   -0.9091   -0.6092 C   0  0  0  0  0  0  0  0  0  0  0  0
   -1.3801   -2.6964   -1.5307 H   0  0  0  0  0  0  0  0  0  0  0  0
    0.9094   -1.7772   -1.8442 H   0  0  0  0  0  0  0  0  0  0  0  0
   -0.3613    1.9337   -0.0147 H   0  0  0  0  0  0  0  0  0  0  0  0
   -2.6209    1.0203    0.2920 H   0  0  0  0  0  0  0  0  0  0  0  0
    1.4319    0.5567   -1.0894 N   0  0  0  0  0  0  0  0  0  0  0  0
    2.5287    0.9191   -1.0695 N   0  0  0  0  0  0  0  0  0  0  0  0
    3.3548    0.1923    1.0389 Cl  0  0  0  0  0  0  0  0  0  0  0  0
   -3.3662   -1.5086   -0.4874 O   0  0  0  0  0  0  0  0  0  0  0  0
   -4.4332   -0.7893    0.1374 C   0  0  0  0  0  0  0  0  0  0  0  0
   -5.2887   -1.4698    0.1294 H   0  0  0  0  0  0  0  0  0  0  0  0
   -4.6789    0.1202   -0.4301 H   0  0  0  0  0  0  0  0  0  0  0  0
   -4.1763   -0.5297    1.1745 H   0  0  0  0  0  0  0  0  0  0  0  0
  1  6  1  0  0  0  0
  2  1  2  0  0  0  0
  2  3  1  0  0  0  0
  3  4  2  0  0  0  0
  4  5  1  0  0  0  0
  4  9  1  0  0  0  0
  5 10  1  0  0  0  0
  6 14  1  0  0  0  0
  6  5  2  0  0  0  0
  7  1  1  0  0  0  0
  8  2  1  0  0  0  0
 11 12  1  0  0  0  0
 11  3  1  0  0  0  0
 14 15  1  0  0  0  0
 15 18  1  0  0  0  0
 16 15  1  0  0  0  0
 17 15  1  0  0  0  0
M  RAD  3  11   2  12   3  13   2
M  END
