Coordinates from ORCA-job p-CH3O-Ph-N2-Cl-B3LYPG-aug-cc-pVDZ-scan-d09-49-n400
 OpenBabel11081710393D

 18 16  0  0  0  0  0  0  0  0999 V2000
   -1.4264   -1.7094   -1.4836 C   0  0  0  0  0  0  0  0  0  0  0  0
   -0.0607   -1.4121   -1.6330 C   0  0  0  0  0  0  0  0  0  0  0  0
    0.2217   -0.3088   -0.8566 C   0  0  0  0  0  0  0  0  0  0  0  0
   -0.4578    0.4259   -0.0983 C   0  0  0  0  0  0  0  0  0  0  0  0
   -1.8275    0.1750    0.0881 C   0  0  0  0  0  0  0  0  0  0  0  0
   -2.2881   -0.9432   -0.6503 C   0  0  0  0  0  0  0  0  0  0  0  0
   -1.8566   -2.5555   -2.0196 H   0  0  0  0  0  0  0  0  0  0  0  0
    0.6148   -1.9833   -2.2634 H   0  0  0  0  0  0  0  0  0  0  0  0
    0.1730    1.9499    0.9072 H   0  0  0  0  0  0  0  0  0  0  0  0
   -2.4743    0.7685    0.7279 H   0  0  0  0  0  0  0  0  0  0  0  0
    3.5806   -0.3559   -1.8267 N   0  0  0  0  0  0  0  0  0  0  0  0
    4.5226    0.1954   -1.6590 N   0  0  0  0  0  0  0  0  0  0  0  0
    0.4328    3.0143    1.6597 Cl  0  0  0  0  0  0  0  0  0  0  0  0
   -3.5819   -1.3791   -0.6283 O   0  0  0  0  0  0  0  0  0  0  0  0
   -4.5182   -0.6711    0.1807 C   0  0  0  0  0  0  0  0  0  0  0  0
   -5.4737   -1.1868    0.0468 H   0  0  0  0  0  0  0  0  0  0  0  0
   -4.6151    0.3750   -0.1476 H   0  0  0  0  0  0  0  0  0  0  0  0
   -4.2287   -0.7018    1.2421 H   0  0  0  0  0  0  0  0  0  0  0  0
  1  6  1  0  0  0  0
  2  1  2  0  0  0  0
  2  3  1  0  0  0  0
  3  4  2  0  0  0  0
  4  5  1  0  0  0  0
  5 10  1  0  0  0  0
  6 14  1  0  0  0  0
  6  5  2  0  0  0  0
  7  1  1  0  0  0  0
  8  2  1  0  0  0  0
  9 13  1  0  0  0  0
 11 12  3  0  0  0  0
 14 15  1  0  0  0  0
 15 18  1  0  0  0  0
 16 15  1  0  0  0  0
 17 15  1  0  0  0  0
M  RAD  2   3   2   4   2
M  END
