Coordinates from ORCA-job p-CH3O-Ph-N2-Cl-B3LYPG-aug-cc-pVDZ-scan-d09-49-n400
 OpenBabel11081710393D

 18 17  0  0  0  0  0  0  0  0999 V2000
   -1.3662   -1.7381   -1.5224 C   0  0  0  0  0  0  0  0  0  0  0  0
   -0.0139   -1.4178   -1.6502 C   0  0  0  0  0  0  0  0  0  0  0  0
    0.3830   -0.3255   -0.9143 C   0  0  0  0  0  0  0  0  0  0  0  0
   -0.3399    0.4826   -0.0874 C   0  0  0  0  0  0  0  0  0  0  0  0
   -1.6987    0.1343    0.0206 C   0  0  0  0  0  0  0  0  0  0  0  0
   -2.2062   -0.9672   -0.6916 C   0  0  0  0  0  0  0  0  0  0  0  0
   -1.7885   -2.5851   -2.0610 H   0  0  0  0  0  0  0  0  0  0  0  0
    0.6657   -1.9864   -2.2797 H   0  0  0  0  0  0  0  0  0  0  0  0
    0.1166    1.3256    0.4388 H   0  0  0  0  0  0  0  0  0  0  0  0
   -2.3345    0.7367    0.6641 H   0  0  0  0  0  0  0  0  0  0  0  0
    2.2197    0.0898   -1.1033 N   0  0  0  0  0  0  0  0  0  0  0  0
    2.9052    0.8924   -0.6713 N   0  0  0  0  0  0  0  0  0  0  0  0
    2.1119    2.4999    0.7973 Cl  0  0  0  0  0  0  0  0  0  0  0  0
   -3.5011   -1.3735   -0.6463 O   0  0  0  0  0  0  0  0  0  0  0  0
   -4.4179   -0.6452    0.1727 C   0  0  0  0  0  0  0  0  0  0  0  0
   -5.3818   -1.1472    0.0517 H   0  0  0  0  0  0  0  0  0  0  0  0
   -4.5017    0.3996   -0.1612 H   0  0  0  0  0  0  0  0  0  0  0  0
   -4.1151   -0.6779    1.2297 H   0  0  0  0  0  0  0  0  0  0  0  0
  1  6  1  0  0  0  0
  2  1  2  0  0  0  0
  2  3  1  0  0  0  0
  3  4  2  0  0  0  0
  4  5  1  0  0  0  0
  4  9  1  0  0  0  0
  5 10  1  0  0  0  0
  6 14  1  0  0  0  0
  6  5  2  0  0  0  0
  7  1  1  0  0  0  0
  8  2  1  0  0  0  0
 11  3  1  0  0  0  0
 11 12  2  0  0  0  0
 14 15  1  0  0  0  0
 15 18  1  0  0  0  0
 16 15  1  0  0  0  0
 17 15  1  0  0  0  0
M  RAD  2  12   2  13   2
M  END
