Coordinates from ORCA-job p-CH3O-Ph-N2-Cl-B3LYPG-aug-cc-pVDZ-scan-d09-49-n400
 OpenBabel11081710393D

 18 16  0  0  0  0  0  0  0  0999 V2000
   -1.4233   -1.7037   -1.4800 C   0  0  0  0  0  0  0  0  0  0  0  0
   -0.0583   -1.4021   -1.6260 C   0  0  0  0  0  0  0  0  0  0  0  0
    0.2206   -0.2986   -0.8484 C   0  0  0  0  0  0  0  0  0  0  0  0
   -0.4645    0.4323   -0.0916 C   0  0  0  0  0  0  0  0  0  0  0  0
   -1.8336    0.1783    0.0923 C   0  0  0  0  0  0  0  0  0  0  0  0
   -2.2892   -0.9408   -0.6481 C   0  0  0  0  0  0  0  0  0  0  0  0
   -1.8497   -2.5506   -2.0177 H   0  0  0  0  0  0  0  0  0  0  0  0
    0.6195   -1.9715   -2.2557 H   0  0  0  0  0  0  0  0  0  0  0  0
    0.1603    1.9597    0.9182 H   0  0  0  0  0  0  0  0  0  0  0  0
   -2.4835    0.7695    0.7311 H   0  0  0  0  0  0  0  0  0  0  0  0
    3.6097   -0.3829   -1.8557 N   0  0  0  0  0  0  0  0  0  0  0  0
    4.5506    0.1696   -1.6866 N   0  0  0  0  0  0  0  0  0  0  0  0
    0.4133    3.0240    1.6726 Cl  0  0  0  0  0  0  0  0  0  0  0  0
   -3.5818   -1.3803   -0.6293 O   0  0  0  0  0  0  0  0  0  0  0  0
   -4.5220   -0.6757    0.1782 C   0  0  0  0  0  0  0  0  0  0  0  0
   -5.4756   -1.1940    0.0418 H   0  0  0  0  0  0  0  0  0  0  0  0
   -4.6211    0.3704   -0.1495 H   0  0  0  0  0  0  0  0  0  0  0  0
   -4.2347   -0.7064    1.2402 H   0  0  0  0  0  0  0  0  0  0  0  0
  1  6  1  0  0  0  0
  2  1  2  0  0  0  0
  2  3  1  0  0  0  0
  3  4  2  0  0  0  0
  4  5  1  0  0  0  0
  5 10  1  0  0  0  0
  6 14  1  0  0  0  0
  6  5  2  0  0  0  0
  7  1  1  0  0  0  0
  8  2  1  0  0  0  0
  9 13  1  0  0  0  0
 11 12  3  0  0  0  0
 14 15  1  0  0  0  0
 15 18  1  0  0  0  0
 16 15  1  0  0  0  0
 17 15  1  0  0  0  0
M  RAD  2   3   2   4   2
M  END
