Coordinates from ORCA-job p-CH3O-Ph-N2-Cl-B3LYPG-aug-cc-pVDZ-scan-d09-49-n400
 OpenBabel11081710393D

 18 18  0  0  0  0  0  0  0  0999 V2000
   -1.3156   -1.7051   -1.5111 C   0  0  0  0  0  0  0  0  0  0  0  0
    0.0197   -1.3568   -1.6122 C   0  0  0  0  0  0  0  0  0  0  0  0
    0.5016   -0.2511   -0.8891 C   0  0  0  0  0  0  0  0  0  0  0  0
   -0.3414    0.5087   -0.0659 C   0  0  0  0  0  0  0  0  0  0  0  0
   -1.6846    0.1529    0.0316 C   0  0  0  0  0  0  0  0  0  0  0  0
   -2.1780   -0.9518   -0.6876 C   0  0  0  0  0  0  0  0  0  0  0  0
   -1.7206   -2.5550   -2.0574 H   0  0  0  0  0  0  0  0  0  0  0  0
    0.7018   -1.9253   -2.2424 H   0  0  0  0  0  0  0  0  0  0  0  0
    0.0667    1.3575    0.4787 H   0  0  0  0  0  0  0  0  0  0  0  0
   -2.3362    0.7433    0.6703 H   0  0  0  0  0  0  0  0  0  0  0  0
    1.8830    0.0461   -1.0426 N   0  0  0  0  0  0  0  0  0  0  0  0
    2.7341    0.7716   -0.7171 N   0  0  0  0  0  0  0  0  0  0  0  0
    2.2347    2.3788    0.6662 Cl  0  0  0  0  0  0  0  0  0  0  0  0
   -3.4633   -1.3710   -0.6554 O   0  0  0  0  0  0  0  0  0  0  0  0
   -4.4022   -0.6597    0.1569 C   0  0  0  0  0  0  0  0  0  0  0  0
   -5.3560   -1.1768    0.0210 H   0  0  0  0  0  0  0  0  0  0  0  0
   -4.4968    0.3844   -0.1744 H   0  0  0  0  0  0  0  0  0  0  0  0
   -4.1104   -0.6937    1.2164 H   0  0  0  0  0  0  0  0  0  0  0  0
  1  6  1  0  0  0  0
  2  1  2  0  0  0  0
  2  3  1  0  0  0  0
  3  4  2  0  0  0  0
  4  5  1  0  0  0  0
  4  9  1  0  0  0  0
  5 10  1  0  0  0  0
  6 14  1  0  0  0  0
  6  5  2  0  0  0  0
  7  1  1  0  0  0  0
  8  2  1  0  0  0  0
 11  3  1  0  0  0  0
 11 12  2  0  0  0  0
 12 13  1  0  0  0  0
 14 15  1  0  0  0  0
 15 18  1  0  0  0  0
 16 15  1  0  0  0  0
 17 15  1  0  0  0  0
M  END
