Coordinates from ORCA-job p-CH3O-Ph-N2-Cl-B3LYPG-aug-cc-pVDZ-scan-d09-49-n400
 OpenBabel11081710393D

 18 16  0  0  0  0  0  0  0  0999 V2000
   -1.4235   -1.7207   -1.4932 C   0  0  0  0  0  0  0  0  0  0  0  0
   -0.0568   -1.4316   -1.6492 C   0  0  0  0  0  0  0  0  0  0  0  0
    0.2333   -0.3292   -0.8756 C   0  0  0  0  0  0  0  0  0  0  0  0
   -0.4349    0.4133   -0.1144 C   0  0  0  0  0  0  0  0  0  0  0  0
   -1.8059    0.1688    0.0773 C   0  0  0  0  0  0  0  0  0  0  0  0
   -2.2766   -0.9477   -0.6570 C   0  0  0  0  0  0  0  0  0  0  0  0
   -1.8614   -2.5651   -2.0257 H   0  0  0  0  0  0  0  0  0  0  0  0
    0.6138   -2.0067   -2.2813 H   0  0  0  0  0  0  0  0  0  0  0  0
    0.2070    1.9290    0.8815 H   0  0  0  0  0  0  0  0  0  0  0  0
   -2.4466    0.7669    0.7190 H   0  0  0  0  0  0  0  0  0  0  0  0
    3.4440   -0.2977   -1.7434 N   0  0  0  0  0  0  0  0  0  0  0  0
    4.3963    0.2397   -1.5897 N   0  0  0  0  0  0  0  0  0  0  0  0
    0.4829    2.9935    1.6296 Cl  0  0  0  0  0  0  0  0  0  0  0  0
   -3.5728   -1.3760   -0.6284 O   0  0  0  0  0  0  0  0  0  0  0  0
   -4.5013   -0.6612    0.1837 C   0  0  0  0  0  0  0  0  0  0  0  0
   -5.4604   -1.1714    0.0550 H   0  0  0  0  0  0  0  0  0  0  0  0
   -4.5934    0.3849   -0.1458 H   0  0  0  0  0  0  0  0  0  0  0  0
   -4.2070   -0.6919    1.2438 H   0  0  0  0  0  0  0  0  0  0  0  0
  1  6  1  0  0  0  0
  2  1  2  0  0  0  0
  2  3  1  0  0  0  0
  3  4  2  0  0  0  0
  4  5  1  0  0  0  0
  5 10  1  0  0  0  0
  6 14  1  0  0  0  0
  6  5  2  0  0  0  0
  7  1  1  0  0  0  0
  8  2  1  0  0  0  0
  9 13  1  0  0  0  0
 11 12  3  0  0  0  0
 14 15  1  0  0  0  0
 15 18  1  0  0  0  0
 16 15  1  0  0  0  0
 17 15  1  0  0  0  0
M  RAD  2   3   2   4   2
M  END
