Coordinates from ORCA-job p-CH3O-Ph-N2-Cl-B3LYPG-aug-cc-pVDZ-scan-d09-49-n400
 OpenBabel11081710393D

 18 16  0  0  0  0  0  0  0  0999 V2000
   -1.3961   -1.7794   -1.5464 C   0  0  0  0  0  0  0  0  0  0  0  0
   -0.0266   -1.5324   -1.7357 C   0  0  0  0  0  0  0  0  0  0  0  0
    0.3192   -0.4436   -0.9880 C   0  0  0  0  0  0  0  0  0  0  0  0
   -0.2414    0.3964   -0.1812 C   0  0  0  0  0  0  0  0  0  0  0  0
   -1.6247    0.1307   -0.0025 C   0  0  0  0  0  0  0  0  0  0  0  0
   -2.1832   -0.9624   -0.6943 C   0  0  0  0  0  0  0  0  0  0  0  0
   -1.8709   -2.6141   -2.0613 H   0  0  0  0  0  0  0  0  0  0  0  0
    0.6146   -2.1300   -2.3772 H   0  0  0  0  0  0  0  0  0  0  0  0
    0.2713    1.3817    0.4399 H   0  0  0  0  0  0  0  0  0  0  0  0
   -2.2059    0.7722    0.6563 H   0  0  0  0  0  0  0  0  0  0  0  0
    2.5362    0.0514   -1.2205 N   0  0  0  0  0  0  0  0  0  0  0  0
    3.2897    0.7778   -0.8659 N   0  0  0  0  0  0  0  0  0  0  0  0
    0.8747    2.6539    1.2582 Cl  0  0  0  0  0  0  0  0  0  0  0  0
   -3.4911   -1.3261   -0.6126 O   0  0  0  0  0  0  0  0  0  0  0  0
   -4.3560   -0.5559    0.2248 C   0  0  0  0  0  0  0  0  0  0  0  0
   -5.3412   -1.0224    0.1371 H   0  0  0  0  0  0  0  0  0  0  0  0
   -4.4091    0.4882   -0.1174 H   0  0  0  0  0  0  0  0  0  0  0  0
   -4.0227   -0.5890    1.2725 H   0  0  0  0  0  0  0  0  0  0  0  0
  1  6  1  0  0  0  0
  2  1  2  0  0  0  0
  2  3  1  0  0  0  0
  3  4  2  0  0  0  0
  4  5  1  0  0  0  0
  4  9  1  0  0  0  0
  5 10  1  0  0  0  0
  6 14  1  0  0  0  0
  6  5  2  0  0  0  0
  7  1  1  0  0  0  0
  8  2  1  0  0  0  0
 11 12  3  0  0  0  0
 14 15  1  0  0  0  0
 15 18  1  0  0  0  0
 16 15  1  0  0  0  0
 17 15  1  0  0  0  0
M  RAD  2   3   2  13   2
M  END
