Coordinates from ORCA-job p-CH3O-Ph-N2-Cl-B3LYPG-aug-cc-pVDZ-scan-d09-49-n400
 OpenBabel11081710393D

 18 17  0  0  0  0  0  0  0  0999 V2000
   -1.3130   -1.7041   -1.5111 C   0  0  0  0  0  0  0  0  0  0  0  0
    0.0212   -1.3554   -1.6115 C   0  0  0  0  0  0  0  0  0  0  0  0
    0.5098   -0.2483   -0.8893 C   0  0  0  0  0  0  0  0  0  0  0  0
   -0.3406    0.5092   -0.0657 C   0  0  0  0  0  0  0  0  0  0  0  0
   -1.6828    0.1540    0.0319 C   0  0  0  0  0  0  0  0  0  0  0  0
   -2.1761   -0.9510   -0.6875 C   0  0  0  0  0  0  0  0  0  0  0  0
   -1.7177   -2.5541   -2.0574 H   0  0  0  0  0  0  0  0  0  0  0  0
    0.7028   -1.9245   -2.2421 H   0  0  0  0  0  0  0  0  0  0  0  0
    0.0665    1.3585    0.4793 H   0  0  0  0  0  0  0  0  0  0  0  0
   -2.3346    0.7441    0.6705 H   0  0  0  0  0  0  0  0  0  0  0  0
    1.8614    0.0464   -1.0365 N   0  0  0  0  0  0  0  0  0  0  0  0
    2.7245    0.7630   -0.7212 N   0  0  0  0  0  0  0  0  0  0  0  0
    2.2351    2.3763    0.6644 Cl  0  0  0  0  0  0  0  0  0  0  0  0
   -3.4605   -1.3702   -0.6555 O   0  0  0  0  0  0  0  0  0  0  0  0
   -4.4007   -0.6596    0.1566 C   0  0  0  0  0  0  0  0  0  0  0  0
   -5.3538   -1.1776    0.0199 H   0  0  0  0  0  0  0  0  0  0  0  0
   -4.4956    0.3843   -0.1748 H   0  0  0  0  0  0  0  0  0  0  0  0
   -4.1092   -0.6938    1.2160 H   0  0  0  0  0  0  0  0  0  0  0  0
  1  6  1  0  0  0  0
  2  1  2  0  0  0  0
  2  3  1  0  0  0  0
  3  4  2  0  0  0  0
  4  5  1  0  0  0  0
  4  9  1  0  0  0  0
  5 10  1  0  0  0  0
  6 14  1  0  0  0  0
  6  5  2  0  0  0  0
  7  1  1  0  0  0  0
  8  2  1  0  0  0  0
 11  3  1  0  0  0  0
 11 12  2  0  0  0  0
 14 15  1  0  0  0  0
 15 18  1  0  0  0  0
 16 15  1  0  0  0  0
 17 15  1  0  0  0  0
M  RAD  2  12   2  13   2
M  END
