Coordinates from ORCA-job p-CH3O-Ph-N2-Cl-B3LYPG-aug-cc-pVDZ-scan-d09-49-n400
 OpenBabel11081710393D

 18 16  0  0  0  0  0  0  0  0999 V2000
   -1.3893   -1.7737   -1.5437 C   0  0  0  0  0  0  0  0  0  0  0  0
   -0.0264   -1.4948   -1.7064 C   0  0  0  0  0  0  0  0  0  0  0  0
    0.3516   -0.4076   -0.9690 C   0  0  0  0  0  0  0  0  0  0  0  0
   -0.2813    0.4348   -0.1402 C   0  0  0  0  0  0  0  0  0  0  0  0
   -1.6523    0.1203   -0.0028 C   0  0  0  0  0  0  0  0  0  0  0  0
   -2.1948   -0.9748   -0.7006 C   0  0  0  0  0  0  0  0  0  0  0  0
   -1.8411   -2.6140   -2.0692 H   0  0  0  0  0  0  0  0  0  0  0  0
    0.6317   -2.0798   -2.3427 H   0  0  0  0  0  0  0  0  0  0  0  0
    0.2304    1.2855    0.3768 H   0  0  0  0  0  0  0  0  0  0  0  0
   -2.2584    0.7442    0.6492 H   0  0  0  0  0  0  0  0  0  0  0  0
    2.3112    0.1147   -1.1090 N   0  0  0  0  0  0  0  0  0  0  0  0
    2.8910    0.9462   -0.6257 N   0  0  0  0  0  0  0  0  0  0  0  0
    1.7112    2.6071    0.9902 Cl  0  0  0  0  0  0  0  0  0  0  0  0
   -3.4971   -1.3520   -0.6310 O   0  0  0  0  0  0  0  0  0  0  0  0
   -4.3824   -0.5973    0.1999 C   0  0  0  0  0  0  0  0  0  0  0  0
   -5.3594   -1.0778    0.0990 H   0  0  0  0  0  0  0  0  0  0  0  0
   -4.4473    0.4469   -0.1397 H   0  0  0  0  0  0  0  0  0  0  0  0
   -4.0608   -0.6309    1.2512 H   0  0  0  0  0  0  0  0  0  0  0  0
  1  6  1  0  0  0  0
  2  1  2  0  0  0  0
  2  3  1  0  0  0  0
  3  4  2  0  0  0  0
  4  5  1  0  0  0  0
  4  9  1  0  0  0  0
  5 10  1  0  0  0  0
  6 14  1  0  0  0  0
  6  5  2  0  0  0  0
  7  1  1  0  0  0  0
  8  2  1  0  0  0  0
 11 12  3  0  0  0  0
 14 15  1  0  0  0  0
 15 18  1  0  0  0  0
 16 15  1  0  0  0  0
 17 15  1  0  0  0  0
M  RAD  2   3   2  13   2
M  END
