Coordinates from ORCA-job p-CH3O-Ph-N2-Cl-B3LYPG-aug-cc-pVDZ-scan-d09-49-n400
 OpenBabel11081710393D

 18 16  0  0  0  0  0  0  0  0999 V2000
   -1.2542   -1.4553   -1.3345 C   0  0  0  0  0  0  0  0  0  0  0  0
    0.0729   -0.9926   -1.3453 C   0  0  0  0  0  0  0  0  0  0  0  0
    0.1501    0.1079   -0.5145 C   0  0  0  0  0  0  0  0  0  0  0  0
   -0.6903    0.7165    0.1908 C   0  0  0  0  0  0  0  0  0  0  0  0
   -2.0299    0.3028    0.2431 C   0  0  0  0  0  0  0  0  0  0  0  0
   -2.2779   -0.8327   -0.5675 C   0  0  0  0  0  0  0  0  0  0  0  0
   -1.5264   -2.3252   -1.9326 H   0  0  0  0  0  0  0  0  0  0  0  0
    0.8613   -1.4615   -1.9280 H   0  0  0  0  0  0  0  0  0  0  0  0
   -0.3322    2.2867    1.3077 H   0  0  0  0  0  0  0  0  0  0  0  0
   -2.8000    0.7896    0.8345 H   0  0  0  0  0  0  0  0  0  0  0  0
    4.2606   -1.2455   -2.7040 N   0  0  0  0  0  0  0  0  0  0  0  0
    5.3360   -1.0324   -2.8352 N   0  0  0  0  0  0  0  0  0  0  0  0
   -0.2919    3.3398    2.1124 Cl  0  0  0  0  0  0  0  0  0  0  0  0
   -3.5041   -1.4222   -0.6828 O   0  0  0  0  0  0  0  0  0  0  0  0
   -4.5916   -0.8647    0.0513 C   0  0  0  0  0  0  0  0  0  0  0  0
   -5.4594   -1.4860   -0.1885 H   0  0  0  0  0  0  0  0  0  0  0  0
   -4.7863    0.1742   -0.2554 H   0  0  0  0  0  0  0  0  0  0  0  0
   -4.3999   -0.9023    1.1345 H   0  0  0  0  0  0  0  0  0  0  0  0
  1  6  1  0  0  0  0
  2  1  2  0  0  0  0
  2  3  1  0  0  0  0
  3  4  2  0  0  0  0
  4  5  1  0  0  0  0
  5 10  1  0  0  0  0
  6  5  2  0  0  0  0
  7  1  1  0  0  0  0
  8  2  1  0  0  0  0
  9 13  1  0  0  0  0
 12 11  3  0  0  0  0
 14  6  1  0  0  0  0
 14 15  1  0  0  0  0
 15 18  1  0  0  0  0
 16 15  1  0  0  0  0
 17 15  1  0  0  0  0
M  RAD  2   3   2   4   2
M  END
