Coordinates from ORCA-job p-CH3O-Ph-N2-Cl-B3LYPG-aug-cc-pVDZ-scan-d09-49-n400
 OpenBabel11081710393D

 18 16  0  0  0  0  0  0  0  0999 V2000
   -1.3772   -1.7510   -1.5294 C   0  0  0  0  0  0  0  0  0  0  0  0
   -0.0208   -1.4441   -1.6687 C   0  0  0  0  0  0  0  0  0  0  0  0
    0.3668   -0.3540   -0.9319 C   0  0  0  0  0  0  0  0  0  0  0  0
   -0.3252    0.4672   -0.1032 C   0  0  0  0  0  0  0  0  0  0  0  0
   -1.6881    0.1286    0.0133 C   0  0  0  0  0  0  0  0  0  0  0  0
   -2.2062   -0.9710   -0.6946 C   0  0  0  0  0  0  0  0  0  0  0  0
   -1.8089   -2.5959   -2.0639 H   0  0  0  0  0  0  0  0  0  0  0  0
    0.6525   -2.0176   -2.3002 H   0  0  0  0  0  0  0  0  0  0  0  0
    0.1521    1.3095    0.4168 H   0  0  0  0  0  0  0  0  0  0  0  0
   -2.3149    0.7377    0.6595 H   0  0  0  0  0  0  0  0  0  0  0  0
    2.2673    0.1041   -1.1053 N   0  0  0  0  0  0  0  0  0  0  0  0
    2.9139    0.9187   -0.6533 N   0  0  0  0  0  0  0  0  0  0  0  0
    2.0090    2.5444    0.8597 Cl  0  0  0  0  0  0  0  0  0  0  0  0
   -3.5036   -1.3684   -0.6417 O   0  0  0  0  0  0  0  0  0  0  0  0
   -4.4107   -0.6318    0.1810 C   0  0  0  0  0  0  0  0  0  0  0  0
   -5.3787   -1.1272    0.0662 H   0  0  0  0  0  0  0  0  0  0  0  0
   -4.4886    0.4128   -0.1546 H   0  0  0  0  0  0  0  0  0  0  0  0
   -4.1021   -0.6648    1.2363 H   0  0  0  0  0  0  0  0  0  0  0  0
  1  6  1  0  0  0  0
  2  1  2  0  0  0  0
  2  3  1  0  0  0  0
  3  4  2  0  0  0  0
  4  5  1  0  0  0  0
  4  9  1  0  0  0  0
  5 10  1  0  0  0  0
  6 14  1  0  0  0  0
  6  5  2  0  0  0  0
  7  1  1  0  0  0  0
  8  2  1  0  0  0  0
 11 12  3  0  0  0  0
 14 15  1  0  0  0  0
 15 18  1  0  0  0  0
 16 15  1  0  0  0  0
 17 15  1  0  0  0  0
M  RAD  2   3   2  13   2
M  END
