Coordinates from ORCA-job p-CH3O-Ph-N2-Cl-B3LYPG-aug-cc-pVDZ-scan-d09-49-n400
 OpenBabel11081710393D

 18 16  0  0  0  0  0  0  0  0999 V2000
   -1.2947   -1.5067   -1.3633 C   0  0  0  0  0  0  0  0  0  0  0  0
    0.0427   -1.0759   -1.4017 C   0  0  0  0  0  0  0  0  0  0  0  0
    0.1603    0.0272   -0.5799 C   0  0  0  0  0  0  0  0  0  0  0  0
   -0.6505    0.6618    0.1374 C   0  0  0  0  0  0  0  0  0  0  0  0
   -1.9984    0.2796    0.2163 C   0  0  0  0  0  0  0  0  0  0  0  0
   -2.2887   -0.8548   -0.5816 C   0  0  0  0  0  0  0  0  0  0  0  0
   -1.5986   -2.3736   -1.9503 H   0  0  0  0  0  0  0  0  0  0  0  0
    0.8092   -1.5667   -1.9952 H   0  0  0  0  0  0  0  0  0  0  0  0
   -0.2380    2.2259    1.2344 H   0  0  0  0  0  0  0  0  0  0  0  0
   -2.7456    0.7884    0.8184 H   0  0  0  0  0  0  0  0  0  0  0  0
    4.1872   -1.0788   -2.5545 N   0  0  0  0  0  0  0  0  0  0  0  0
    5.2513   -0.7927   -2.6255 N   0  0  0  0  0  0  0  0  0  0  0  0
   -0.1554    3.2835    2.0309 Cl  0  0  0  0  0  0  0  0  0  0  0  0
   -3.5306   -1.4153   -0.6703 O   0  0  0  0  0  0  0  0  0  0  0  0
   -4.5905   -0.8272    0.0802 C   0  0  0  0  0  0  0  0  0  0  0  0
   -5.4773   -1.4290   -0.1393 H   0  0  0  0  0  0  0  0  0  0  0  0
   -4.7661    0.2141   -0.2299 H   0  0  0  0  0  0  0  0  0  0  0  0
   -4.3795   -0.8625    1.1598 H   0  0  0  0  0  0  0  0  0  0  0  0
  1  6  1  0  0  0  0
  2  1  2  0  0  0  0
  2  3  1  0  0  0  0
  3  4  2  0  0  0  0
  4  5  1  0  0  0  0
  5 10  1  0  0  0  0
  6  5  2  0  0  0  0
  7  1  1  0  0  0  0
  8  2  1  0  0  0  0
  9 13  1  0  0  0  0
 12 11  3  0  0  0  0
 14  6  1  0  0  0  0
 14 15  1  0  0  0  0
 15 18  1  0  0  0  0
 16 15  1  0  0  0  0
 17 15  1  0  0  0  0
M  RAD  2   3   2   4   2
M  END
