Coordinates from ORCA-job p-CH3O-Ph-N2-Cl-B3LYPG-aug-cc-pVDZ-scan-d09-49-n400
 OpenBabel11081710393D

 18 16  0  0  0  0  0  0  0  0999 V2000
   -1.4011   -1.7855   -1.5497 C   0  0  0  0  0  0  0  0  0  0  0  0
   -0.0319   -1.5384   -1.7388 C   0  0  0  0  0  0  0  0  0  0  0  0
    0.3210   -0.4511   -0.9942 C   0  0  0  0  0  0  0  0  0  0  0  0
   -0.2398    0.3951   -0.1825 C   0  0  0  0  0  0  0  0  0  0  0  0
   -1.6225    0.1242   -0.0081 C   0  0  0  0  0  0  0  0  0  0  0  0
   -2.1853   -0.9674   -0.6976 C   0  0  0  0  0  0  0  0  0  0  0  0
   -1.8755   -2.6203   -2.0648 H   0  0  0  0  0  0  0  0  0  0  0  0
    0.6092   -2.1362   -2.3803 H   0  0  0  0  0  0  0  0  0  0  0  0
    0.2767    1.3370    0.4039 H   0  0  0  0  0  0  0  0  0  0  0  0
   -2.2022    0.7666    0.6510 H   0  0  0  0  0  0  0  0  0  0  0  0
    2.5124    0.0796   -1.1920 N   0  0  0  0  0  0  0  0  0  0  0  0
    3.1906    0.8511   -0.7822 N   0  0  0  0  0  0  0  0  0  0  0  0
    1.0038    2.6437    1.2145 Cl  0  0  0  0  0  0  0  0  0  0  0  0
   -3.4932   -1.3273   -0.6130 O   0  0  0  0  0  0  0  0  0  0  0  0
   -4.3557   -0.5548    0.2255 C   0  0  0  0  0  0  0  0  0  0  0  0
   -5.3417   -1.0197    0.1392 H   0  0  0  0  0  0  0  0  0  0  0  0
   -4.4073    0.4890   -0.1175 H   0  0  0  0  0  0  0  0  0  0  0  0
   -4.0209   -0.5884    1.2727 H   0  0  0  0  0  0  0  0  0  0  0  0
  1  6  1  0  0  0  0
  2  1  2  0  0  0  0
  2  3  1  0  0  0  0
  3  4  2  0  0  0  0
  4  5  1  0  0  0  0
  4  9  1  0  0  0  0
  5 10  1  0  0  0  0
  6 14  1  0  0  0  0
  6  5  2  0  0  0  0
  7  1  1  0  0  0  0
  8  2  1  0  0  0  0
 11 12  3  0  0  0  0
 14 15  1  0  0  0  0
 15 18  1  0  0  0  0
 16 15  1  0  0  0  0
 17 15  1  0  0  0  0
M  RAD  2   3   2  13   2
M  END
