Coordinates from ORCA-job p-CH3O-Ph-N2-Cl-B3LYPG-aug-cc-pVDZ-scan-d09-49-n400
 OpenBabel11081710393D

 18 18  0  0  0  0  0  0  0  0999 V2000
   -1.3264   -1.7095   -1.5116 C   0  0  0  0  0  0  0  0  0  0  0  0
    0.0124   -1.3639   -1.6157 C   0  0  0  0  0  0  0  0  0  0  0  0
    0.4721   -0.2624   -0.8896 C   0  0  0  0  0  0  0  0  0  0  0  0
   -0.3455    0.5057   -0.0669 C   0  0  0  0  0  0  0  0  0  0  0  0
   -1.6922    0.1491    0.0309 C   0  0  0  0  0  0  0  0  0  0  0  0
   -2.1862   -0.9549   -0.6877 C   0  0  0  0  0  0  0  0  0  0  0  0
   -1.7329   -2.5592   -2.0573 H   0  0  0  0  0  0  0  0  0  0  0  0
    0.6963   -1.9304   -2.2449 H   0  0  0  0  0  0  0  0  0  0  0  0
    0.0681    1.3532    0.4750 H   0  0  0  0  0  0  0  0  0  0  0  0
   -2.3422    0.7407    0.6700 H   0  0  0  0  0  0  0  0  0  0  0  0
    1.9716    0.0509   -1.0633 N   0  0  0  0  0  0  0  0  0  0  0  0
    2.7808    0.8032   -0.7055 N   0  0  0  0  0  0  0  0  0  0  0  0
    2.2264    2.3897    0.6766 Cl  0  0  0  0  0  0  0  0  0  0  0  0
   -3.4742   -1.3734   -0.6542 O   0  0  0  0  0  0  0  0  0  0  0  0
   -4.4089   -0.6596    0.1588 C   0  0  0  0  0  0  0  0  0  0  0  0
   -5.3647   -1.1739    0.0257 H   0  0  0  0  0  0  0  0  0  0  0  0
   -4.5021    0.3849   -0.1723 H   0  0  0  0  0  0  0  0  0  0  0  0
   -4.1158   -0.6931    1.2182 H   0  0  0  0  0  0  0  0  0  0  0  0
  1  6  1  0  0  0  0
  2  1  2  0  0  0  0
  2  3  1  0  0  0  0
  3  4  2  0  0  0  0
  4  5  1  0  0  0  0
  4  9  1  0  0  0  0
  5 10  1  0  0  0  0
  6 14  1  0  0  0  0
  6  5  2  0  0  0  0
  7  1  1  0  0  0  0
  8  2  1  0  0  0  0
 11  3  1  0  0  0  0
 11 12  2  0  0  0  0
 12 13  1  0  0  0  0
 14 15  1  0  0  0  0
 15 18  1  0  0  0  0
 16 15  1  0  0  0  0
 17 15  1  0  0  0  0
M  END
