Coordinates from ORCA-job p-CH3O-Ph-N2-Cl-B3LYPG-aug-cc-pVDZ-scan-d09-49-n400
 OpenBabel11081710393D

 18 16  0  0  0  0  0  0  0  0999 V2000
   -1.3588   -1.5952   -1.4142 C   0  0  0  0  0  0  0  0  0  0  0  0
   -0.0063   -1.2210   -1.5006 C   0  0  0  0  0  0  0  0  0  0  0  0
    0.1803   -0.1161   -0.6964 C   0  0  0  0  0  0  0  0  0  0  0  0
   -0.5749    0.5637    0.0405 C   0  0  0  0  0  0  0  0  0  0  0  0
   -1.9346    0.2366    0.1654 C   0  0  0  0  0  0  0  0  0  0  0  0
   -2.2982   -0.8932   -0.6089 C   0  0  0  0  0  0  0  0  0  0  0  0
   -1.7176   -2.4549   -1.9805 H   0  0  0  0  0  0  0  0  0  0  0  0
    0.7217   -1.7478   -2.1113 H   0  0  0  0  0  0  0  0  0  0  0  0
   -0.0663    2.1141    1.1003 H   0  0  0  0  0  0  0  0  0  0  0  0
   -2.6405    0.7824    0.7847 H   0  0  0  0  0  0  0  0  0  0  0  0
    3.9954   -0.7761   -2.2670 N   0  0  0  0  0  0  0  0  0  0  0  0
    5.0218   -0.3705   -2.2344 N   0  0  0  0  0  0  0  0  0  0  0  0
    0.0906    3.1769    1.8801 Cl  0  0  0  0  0  0  0  0  0  0  0  0
   -3.5647   -1.4017   -0.6504 O   0  0  0  0  0  0  0  0  0  0  0  0
   -4.5740   -0.7614    0.1267 C   0  0  0  0  0  0  0  0  0  0  0  0
   -5.4918   -1.3278   -0.0567 H   0  0  0  0  0  0  0  0  0  0  0  0
   -4.7161    0.2830   -0.1904 H   0  0  0  0  0  0  0  0  0  0  0  0
   -4.3292   -0.7937    1.1992 H   0  0  0  0  0  0  0  0  0  0  0  0
  1  6  1  0  0  0  0
  2  1  2  0  0  0  0
  2  3  1  0  0  0  0
  3  4  2  0  0  0  0
  4  5  1  0  0  0  0
  5 10  1  0  0  0  0
  6  5  2  0  0  0  0
  7  1  1  0  0  0  0
  8  2  1  0  0  0  0
  9 13  1  0  0  0  0
 11 12  3  0  0  0  0
 14  6  1  0  0  0  0
 14 15  1  0  0  0  0
 15 18  1  0  0  0  0
 16 15  1  0  0  0  0
 17 15  1  0  0  0  0
M  RAD  2   3   2   4   2
M  END
