Coordinates from ORCA-job p-CH3O-Ph-N2-Cl-B3LYPG-aug-cc-pVDZ-scan-d09-49-n400
 OpenBabel11081710393D

 18 17  0  0  0  0  0  0  0  0999 V2000
   -1.1505   -1.6829   -1.2135 C   0  0  0  0  0  0  0  0  0  0  0  0
    0.1159   -1.1794   -1.3933 C   0  0  0  0  0  0  0  0  0  0  0  0
    0.4585    0.1660   -0.9731 C   0  0  0  0  0  0  0  0  0  0  0  0
   -0.6019    0.9244   -0.3552 C   0  0  0  0  0  0  0  0  0  0  0  0
   -1.8697    0.3980   -0.1844 C   0  0  0  0  0  0  0  0  0  0  0  0
   -2.1638   -0.9099   -0.6099 C   0  0  0  0  0  0  0  0  0  0  0  0
   -1.3848   -2.6979   -1.5315 H   0  0  0  0  0  0  0  0  0  0  0  0
    0.9041   -1.7781   -1.8473 H   0  0  0  0  0  0  0  0  0  0  0  0
   -0.3644    1.9318   -0.0169 H   0  0  0  0  0  0  0  0  0  0  0  0
   -2.6241    1.0190    0.2919 H   0  0  0  0  0  0  0  0  0  0  0  0
    1.4539    0.5672   -1.0982 N   0  0  0  0  0  0  0  0  0  0  0  0
    2.5498    0.9199   -1.0597 N   0  0  0  0  0  0  0  0  0  0  0  0
    3.3668    0.1993    1.0461 Cl  0  0  0  0  0  0  0  0  0  0  0  0
   -3.3687   -1.5093   -0.4869 O   0  0  0  0  0  0  0  0  0  0  0  0
   -4.4351   -0.7899    0.1388 C   0  0  0  0  0  0  0  0  0  0  0  0
   -5.2907   -1.4704    0.1317 H   0  0  0  0  0  0  0  0  0  0  0  0
   -4.6813    0.1195   -0.4285 H   0  0  0  0  0  0  0  0  0  0  0  0
   -4.1774   -0.5302    1.1757 H   0  0  0  0  0  0  0  0  0  0  0  0
  1  6  1  0  0  0  0
  2  1  2  0  0  0  0
  2  3  1  0  0  0  0
  3  4  2  0  0  0  0
  4  5  1  0  0  0  0
  4  9  1  0  0  0  0
  5 10  1  0  0  0  0
  6 14  1  0  0  0  0
  6  5  2  0  0  0  0
  7  1  1  0  0  0  0
  8  2  1  0  0  0  0
 11 12  1  0  0  0  0
 11  3  1  0  0  0  0
 14 15  1  0  0  0  0
 15 18  1  0  0  0  0
 16 15  1  0  0  0  0
 17 15  1  0  0  0  0
M  RAD  3  11   2  12   3  13   2
M  END
