Coordinates from ORCA-job p-CH3O-Ph-N2-Cl-B3LYPG-aug-cc-pVDZ-scan-d09-49-n400
 OpenBabel11081710393D

 18 16  0  0  0  0  0  0  0  0999 V2000
   -1.3971   -1.7794   -1.5461 C   0  0  0  0  0  0  0  0  0  0  0  0
   -0.0276   -1.5322   -1.7353 C   0  0  0  0  0  0  0  0  0  0  0  0
    0.3177   -0.4434   -0.9875 C   0  0  0  0  0  0  0  0  0  0  0  0
   -0.2428    0.3962   -0.1809 C   0  0  0  0  0  0  0  0  0  0  0  0
   -1.6261    0.1306   -0.0021 C   0  0  0  0  0  0  0  0  0  0  0  0
   -2.1844   -0.9625   -0.6941 C   0  0  0  0  0  0  0  0  0  0  0  0
   -1.8717   -2.6142   -2.0611 H   0  0  0  0  0  0  0  0  0  0  0  0
    0.6139   -2.1296   -2.3767 H   0  0  0  0  0  0  0  0  0  0  0  0
    0.2701    1.3807    0.4395 H   0  0  0  0  0  0  0  0  0  0  0  0
   -2.2075    0.7720    0.6566 H   0  0  0  0  0  0  0  0  0  0  0  0
    2.5444    0.0541   -1.2207 N   0  0  0  0  0  0  0  0  0  0  0  0
    3.2989    0.7799   -0.8670 N   0  0  0  0  0  0  0  0  0  0  0  0
    0.8755    2.6516    1.2562 Cl  0  0  0  0  0  0  0  0  0  0  0  0
   -3.4923   -1.3263   -0.6124 O   0  0  0  0  0  0  0  0  0  0  0  0
   -4.3573   -0.5562    0.2249 C   0  0  0  0  0  0  0  0  0  0  0  0
   -5.3425   -1.0227    0.1372 H   0  0  0  0  0  0  0  0  0  0  0  0
   -4.4105    0.4879   -0.1172 H   0  0  0  0  0  0  0  0  0  0  0  0
   -4.0241   -0.5893    1.2727 H   0  0  0  0  0  0  0  0  0  0  0  0
  1  6  1  0  0  0  0
  2  1  2  0  0  0  0
  2  3  1  0  0  0  0
  3  4  2  0  0  0  0
  4  5  1  0  0  0  0
  4  9  1  0  0  0  0
  5 10  1  0  0  0  0
  6 14  1  0  0  0  0
  6  5  2  0  0  0  0
  7  1  1  0  0  0  0
  8  2  1  0  0  0  0
 11 12  3  0  0  0  0
 14 15  1  0  0  0  0
 15 18  1  0  0  0  0
 16 15  1  0  0  0  0
 17 15  1  0  0  0  0
M  RAD  2   3   2  13   2
M  END
