Coordinates from ORCA-job p-CH3O-Ph-N2-Cl-B3LYPG-aug-cc-pVDZ-scan-d09-49-n400
 OpenBabel11081710393D

 18 16  0  0  0  0  0  0  0  0999 V2000
   -1.3693   -1.6114   -1.4238 C   0  0  0  0  0  0  0  0  0  0  0  0
   -0.0145   -1.2479   -1.5191 C   0  0  0  0  0  0  0  0  0  0  0  0
    0.1854   -0.1429   -0.7185 C   0  0  0  0  0  0  0  0  0  0  0  0
   -0.5596    0.5447    0.0216 C   0  0  0  0  0  0  0  0  0  0  0  0
   -1.9211    0.2283    0.1552 C   0  0  0  0  0  0  0  0  0  0  0  0
   -2.2983   -0.9003   -0.6143 C   0  0  0  0  0  0  0  0  0  0  0  0
   -1.7382   -2.4695   -1.9860 H   0  0  0  0  0  0  0  0  0  0  0  0
    0.7059   -1.7815   -2.1330 H   0  0  0  0  0  0  0  0  0  0  0  0
   -0.0334    2.0926    1.0746 H   0  0  0  0  0  0  0  0  0  0  0  0
   -2.6190    0.7809    0.7776 H   0  0  0  0  0  0  0  0  0  0  0  0
    3.9479   -0.7188   -2.2095 N   0  0  0  0  0  0  0  0  0  0  0  0
    4.9646   -0.2913   -2.1574 N   0  0  0  0  0  0  0  0  0  0  0  0
    0.1371    3.1559    1.8511 Cl  0  0  0  0  0  0  0  0  0  0  0  0
   -3.5690   -1.3989   -0.6471 O   0  0  0  0  0  0  0  0  0  0  0  0
   -4.5685   -0.7490    0.1346 C   0  0  0  0  0  0  0  0  0  0  0  0
   -5.4917   -1.3086   -0.0419 H   0  0  0  0  0  0  0  0  0  0  0  0
   -4.7043    0.2957   -0.1838 H   0  0  0  0  0  0  0  0  0  0  0  0
   -4.3175   -0.7810    1.2058 H   0  0  0  0  0  0  0  0  0  0  0  0
  1  6  1  0  0  0  0
  2  1  2  0  0  0  0
  2  3  1  0  0  0  0
  3  4  2  0  0  0  0
  4  5  1  0  0  0  0
  5 10  1  0  0  0  0
  6  5  2  0  0  0  0
  7  1  1  0  0  0  0
  8  2  1  0  0  0  0
  9 13  1  0  0  0  0
 11 12  3  0  0  0  0
 14  6  1  0  0  0  0
 14 15  1  0  0  0  0
 15 18  1  0  0  0  0
 16 15  1  0  0  0  0
 17 15  1  0  0  0  0
M  RAD  2   3   2   4   2
M  END
