Coordinates from ORCA-job p-CH3O-Ph-N2-Cl-B3LYPG-aug-cc-pVDZ-scan-d09-49-n400
 OpenBabel11081710393D

 18 16  0  0  0  0  0  0  0  0999 V2000
   -1.4031   -1.7547   -1.5252 C   0  0  0  0  0  0  0  0  0  0  0  0
   -0.0330   -1.4906   -1.7016 C   0  0  0  0  0  0  0  0  0  0  0  0
    0.2782   -0.3931   -0.9378 C   0  0  0  0  0  0  0  0  0  0  0  0
   -0.3432    0.3831   -0.1636 C   0  0  0  0  0  0  0  0  0  0  0  0
   -1.7186    0.1490    0.0375 C   0  0  0  0  0  0  0  0  0  0  0  0
   -2.2265   -0.9604   -0.6807 C   0  0  0  0  0  0  0  0  0  0  0  0
   -1.8631   -2.5938   -2.0473 H   0  0  0  0  0  0  0  0  0  0  0  0
    0.6177   -2.0811   -2.3401 H   0  0  0  0  0  0  0  0  0  0  0  0
    0.3163    1.8094    0.7575 H   0  0  0  0  0  0  0  0  0  0  0  0
   -2.3384    0.7629    0.6855 H   0  0  0  0  0  0  0  0  0  0  0  0
    2.9172   -0.1323   -1.4687 N   0  0  0  0  0  0  0  0  0  0  0  0
    3.8347    0.4493   -1.2713 N   0  0  0  0  0  0  0  0  0  0  0  0
    0.6879    2.8787    1.4848 Cl  0  0  0  0  0  0  0  0  0  0  0  0
   -3.5302   -1.3616   -0.6290 O   0  0  0  0  0  0  0  0  0  0  0  0
   -4.4307   -0.6229    0.1938 C   0  0  0  0  0  0  0  0  0  0  0  0
   -5.4020   -1.1139    0.0835 H   0  0  0  0  0  0  0  0  0  0  0  0
   -4.5064    0.4229   -0.1404 H   0  0  0  0  0  0  0  0  0  0  0  0
   -4.1200   -0.6538    1.2491 H   0  0  0  0  0  0  0  0  0  0  0  0
  1  6  1  0  0  0  0
  2  1  2  0  0  0  0
  2  3  1  0  0  0  0
  3  4  2  0  0  0  0
  4  5  1  0  0  0  0
  5 10  1  0  0  0  0
  6 14  1  0  0  0  0
  6  5  2  0  0  0  0
  7  1  1  0  0  0  0
  8  2  1  0  0  0  0
  9 13  1  0  0  0  0
 11 12  3  0  0  0  0
 14 15  1  0  0  0  0
 15 18  1  0  0  0  0
 16 15  1  0  0  0  0
 17 15  1  0  0  0  0
M  RAD  2   3   2   4   2
M  END
