Coordinates from ORCA-job p-CH3O-Ph-N2-Cl-B3LYPG-aug-cc-pVDZ-scan-d09-49-n400
 OpenBabel11081710393D

 18 16  0  0  0  0  0  0  0  0999 V2000
   -1.2450   -1.4438   -1.3282 C   0  0  0  0  0  0  0  0  0  0  0  0
    0.0796   -0.9741   -1.3329 C   0  0  0  0  0  0  0  0  0  0  0  0
    0.1478    0.1255   -0.5001 C   0  0  0  0  0  0  0  0  0  0  0  0
   -0.6989    0.7285    0.2025 C   0  0  0  0  0  0  0  0  0  0  0  0
   -2.0365    0.3078    0.2488 C   0  0  0  0  0  0  0  0  0  0  0  0
   -2.2752   -0.8278   -0.5644 C   0  0  0  0  0  0  0  0  0  0  0  0
   -1.5102   -2.3143   -1.9287 H   0  0  0  0  0  0  0  0  0  0  0  0
    0.8728   -1.4382   -1.9130 H   0  0  0  0  0  0  0  0  0  0  0  0
   -0.3530    2.2995    1.3234 H   0  0  0  0  0  0  0  0  0  0  0  0
   -2.8115    0.7897    0.8377 H   0  0  0  0  0  0  0  0  0  0  0  0
    4.2745   -1.2819   -2.7360 N   0  0  0  0  0  0  0  0  0  0  0  0
    5.3514   -1.0849   -2.8802 N   0  0  0  0  0  0  0  0  0  0  0  0
   -0.3218    3.3515    2.1298 Cl  0  0  0  0  0  0  0  0  0  0  0  0
   -3.4978   -1.4235   -0.6857 O   0  0  0  0  0  0  0  0  0  0  0  0
   -4.5912   -0.8729    0.0449 C   0  0  0  0  0  0  0  0  0  0  0  0
   -5.4547   -1.4984   -0.1994 H   0  0  0  0  0  0  0  0  0  0  0  0
   -4.7901    0.1655   -0.2611 H   0  0  0  0  0  0  0  0  0  0  0  0
   -4.4036   -0.9110    1.1287 H   0  0  0  0  0  0  0  0  0  0  0  0
  1  6  1  0  0  0  0
  2  1  2  0  0  0  0
  2  3  1  0  0  0  0
  3  4  2  0  0  0  0
  4  5  1  0  0  0  0
  5 10  1  0  0  0  0
  6  5  2  0  0  0  0
  7  1  1  0  0  0  0
  8  2  1  0  0  0  0
  9 13  1  0  0  0  0
 12 11  3  0  0  0  0
 14  6  1  0  0  0  0
 14 15  1  0  0  0  0
 15 18  1  0  0  0  0
 16 15  1  0  0  0  0
 17 15  1  0  0  0  0
M  RAD  2   3   2   4   2
M  END
