Coordinates from ORCA-job p-CH3O-Ph-N2-Cl-B3LYPG-aug-cc-pVDZ-scan-d09-49-n400
 OpenBabel11081710393D

 18 16  0  0  0  0  0  0  0  0999 V2000
   -1.4251   -1.7181   -1.4907 C   0  0  0  0  0  0  0  0  0  0  0  0
   -0.0587   -1.4270   -1.6451 C   0  0  0  0  0  0  0  0  0  0  0  0
    0.2293   -0.3244   -0.8708 C   0  0  0  0  0  0  0  0  0  0  0  0
   -0.4415    0.4164   -0.1103 C   0  0  0  0  0  0  0  0  0  0  0  0
   -1.8122    0.1703    0.0802 C   0  0  0  0  0  0  0  0  0  0  0  0
   -2.2804   -0.9467   -0.6551 C   0  0  0  0  0  0  0  0  0  0  0  0
   -1.8612   -2.5629   -2.0241 H   0  0  0  0  0  0  0  0  0  0  0  0
    0.6133   -2.0010   -2.2767 H   0  0  0  0  0  0  0  0  0  0  0  0
    0.1985    1.9348    0.8883 H   0  0  0  0  0  0  0  0  0  0  0  0
   -2.4545    0.7672    0.7214 H   0  0  0  0  0  0  0  0  0  0  0  0
    3.4846   -0.3122   -1.7660 N   0  0  0  0  0  0  0  0  0  0  0  0
    4.4336    0.2298   -1.6077 N   0  0  0  0  0  0  0  0  0  0  0  0
    0.4707    2.9992    1.6374 Cl  0  0  0  0  0  0  0  0  0  0  0  0
   -3.5759   -1.3769   -0.6282 O   0  0  0  0  0  0  0  0  0  0  0  0
   -4.5064   -0.6638    0.1831 C   0  0  0  0  0  0  0  0  0  0  0  0
   -5.4646   -1.1754    0.0530 H   0  0  0  0  0  0  0  0  0  0  0  0
   -4.5997    0.3823   -0.1461 H   0  0  0  0  0  0  0  0  0  0  0  0
   -4.2134   -0.6945    1.2435 H   0  0  0  0  0  0  0  0  0  0  0  0
  1  6  1  0  0  0  0
  2  1  2  0  0  0  0
  2  3  1  0  0  0  0
  3  4  2  0  0  0  0
  4  5  1  0  0  0  0
  5 10  1  0  0  0  0
  6 14  1  0  0  0  0
  6  5  2  0  0  0  0
  7  1  1  0  0  0  0
  8  2  1  0  0  0  0
  9 13  1  0  0  0  0
 11 12  3  0  0  0  0
 14 15  1  0  0  0  0
 15 18  1  0  0  0  0
 16 15  1  0  0  0  0
 17 15  1  0  0  0  0
M  RAD  2   3   2   4   2
M  END
