Coordinates from ORCA-job p-CH3O-Ph-N2-Cl-B3LYPG-aug-cc-pVDZ-scan-d09-49-n400
 OpenBabel11081710393D

 18 16  0  0  0  0  0  0  0  0999 V2000
   -1.4183   -1.6950   -1.4747 C   0  0  0  0  0  0  0  0  0  0  0  0
   -0.0537   -1.3880   -1.6163 C   0  0  0  0  0  0  0  0  0  0  0  0
    0.2169   -0.2844   -0.8364 C   0  0  0  0  0  0  0  0  0  0  0  0
   -0.4735    0.4428   -0.0809 C   0  0  0  0  0  0  0  0  0  0  0  0
   -1.8421    0.1832    0.0985 C   0  0  0  0  0  0  0  0  0  0  0  0
   -2.2904   -0.9370   -0.6449 C   0  0  0  0  0  0  0  0  0  0  0  0
   -1.8395   -2.5432   -2.0148 H   0  0  0  0  0  0  0  0  0  0  0  0
    0.6251   -1.9566   -2.2456 H   0  0  0  0  0  0  0  0  0  0  0  0
    0.1429    1.9728    0.9332 H   0  0  0  0  0  0  0  0  0  0  0  0
   -2.4965    0.7709    0.7359 H   0  0  0  0  0  0  0  0  0  0  0  0
    3.6434   -0.4133   -1.8885 N   0  0  0  0  0  0  0  0  0  0  0  0
    4.5929    0.1276   -1.7309 N   0  0  0  0  0  0  0  0  0  0  0  0
    0.3882    3.0371    1.6897 Cl  0  0  0  0  0  0  0  0  0  0  0  0
   -3.5810   -1.3823   -0.6310 O   0  0  0  0  0  0  0  0  0  0  0  0
   -4.5270   -0.6827    0.1742 C   0  0  0  0  0  0  0  0  0  0  0  0
   -5.4779   -1.2050    0.0339 H   0  0  0  0  0  0  0  0  0  0  0  0
   -4.6296    0.3633   -0.1525 H   0  0  0  0  0  0  0  0  0  0  0  0
   -4.2431   -0.7134    1.2371 H   0  0  0  0  0  0  0  0  0  0  0  0
  1  6  1  0  0  0  0
  2  1  2  0  0  0  0
  2  3  1  0  0  0  0
  3  4  2  0  0  0  0
  4  5  1  0  0  0  0
  5 10  1  0  0  0  0
  6 14  1  0  0  0  0
  6  5  2  0  0  0  0
  7  1  1  0  0  0  0
  8  2  1  0  0  0  0
  9 13  1  0  0  0  0
 11 12  3  0  0  0  0
 14 15  1  0  0  0  0
 15 18  1  0  0  0  0
 16 15  1  0  0  0  0
 17 15  1  0  0  0  0
M  RAD  2   3   2   4   2
M  END
