Coordinates from ORCA-job p-CH3O-Ph-N2-Cl-B3LYPG-aug-cc-pVDZ-scan-d09-49-n400
 OpenBabel11081710393D

 18 17  0  0  0  0  0  0  0  0999 V2000
   -1.1441   -1.6805   -1.2116 C   0  0  0  0  0  0  0  0  0  0  0  0
    0.1216   -1.1801   -1.3911 C   0  0  0  0  0  0  0  0  0  0  0  0
    0.4781    0.1740   -0.9723 C   0  0  0  0  0  0  0  0  0  0  0  0
   -0.5989    0.9278   -0.3520 C   0  0  0  0  0  0  0  0  0  0  0  0
   -1.8642    0.3993   -0.1836 C   0  0  0  0  0  0  0  0  0  0  0  0
   -2.1591   -0.9085   -0.6090 C   0  0  0  0  0  0  0  0  0  0  0  0
   -1.3774   -2.6957   -1.5304 H   0  0  0  0  0  0  0  0  0  0  0  0
    0.9121   -1.7764   -1.8440 H   0  0  0  0  0  0  0  0  0  0  0  0
   -0.3596    1.9351   -0.0147 H   0  0  0  0  0  0  0  0  0  0  0  0
   -2.6189    1.0209    0.2918 H   0  0  0  0  0  0  0  0  0  0  0  0
    1.4191    0.5514   -1.0865 N   0  0  0  0  0  0  0  0  0  0  0  0
    2.5166    0.9166   -1.0714 N   0  0  0  0  0  0  0  0  0  0  0  0
    3.3439    0.1883    1.0373 Cl  0  0  0  0  0  0  0  0  0  0  0  0
   -3.3640   -1.5082   -0.4873 O   0  0  0  0  0  0  0  0  0  0  0  0
   -4.4311   -0.7889    0.1373 C   0  0  0  0  0  0  0  0  0  0  0  0
   -5.2865   -1.4695    0.1294 H   0  0  0  0  0  0  0  0  0  0  0  0
   -4.6768    0.1205   -0.4303 H   0  0  0  0  0  0  0  0  0  0  0  0
   -4.1743   -0.5291    1.1744 H   0  0  0  0  0  0  0  0  0  0  0  0
  1  6  1  0  0  0  0
  2  1  2  0  0  0  0
  2  3  1  0  0  0  0
  3  4  2  0  0  0  0
  4  5  1  0  0  0  0
  4  9  1  0  0  0  0
  5 10  1  0  0  0  0
  6 14  1  0  0  0  0
  6  5  2  0  0  0  0
  7  1  1  0  0  0  0
  8  2  1  0  0  0  0
 11 12  1  0  0  0  0
 11  3  1  0  0  0  0
 14 15  1  0  0  0  0
 15 18  1  0  0  0  0
 16 15  1  0  0  0  0
 17 15  1  0  0  0  0
M  RAD  3  11   2  12   3  13   2
M  END
