Coordinates from ORCA-job p-CH3O-Ph-N2-Cl-B3LYPG-aug-cc-pVDZ-scan-d09-49-n400
 OpenBabel11081710393D

 18 16  0  0  0  0  0  0  0  0999 V2000
   -1.4250   -1.7066   -1.4818 C   0  0  0  0  0  0  0  0  0  0  0  0
   -0.0596   -1.4072   -1.6295 C   0  0  0  0  0  0  0  0  0  0  0  0
    0.2212   -0.3038   -0.8526 C   0  0  0  0  0  0  0  0  0  0  0  0
   -0.4612    0.4290   -0.0950 C   0  0  0  0  0  0  0  0  0  0  0  0
   -1.8306    0.1766    0.0902 C   0  0  0  0  0  0  0  0  0  0  0  0
   -2.2887   -0.9420   -0.6492 C   0  0  0  0  0  0  0  0  0  0  0  0
   -1.8532   -2.5531   -2.0187 H   0  0  0  0  0  0  0  0  0  0  0  0
    0.6170   -1.9776   -2.2596 H   0  0  0  0  0  0  0  0  0  0  0  0
    0.1666    1.9546    0.9125 H   0  0  0  0  0  0  0  0  0  0  0  0
   -2.4788    0.7690    0.7295 H   0  0  0  0  0  0  0  0  0  0  0  0
    3.5954   -0.3691   -1.8410 N   0  0  0  0  0  0  0  0  0  0  0  0
    4.5368    0.1829   -1.6726 N   0  0  0  0  0  0  0  0  0  0  0  0
    0.4231    3.0189    1.6659 Cl  0  0  0  0  0  0  0  0  0  0  0  0
   -3.5819   -1.3797   -0.6287 O   0  0  0  0  0  0  0  0  0  0  0  0
   -4.5201   -0.6733    0.1795 C   0  0  0  0  0  0  0  0  0  0  0  0
   -5.4747   -1.1902    0.0444 H   0  0  0  0  0  0  0  0  0  0  0  0
   -4.6181    0.3727   -0.1485 H   0  0  0  0  0  0  0  0  0  0  0  0
   -4.2316   -0.7040    1.2412 H   0  0  0  0  0  0  0  0  0  0  0  0
  1  6  1  0  0  0  0
  2  1  2  0  0  0  0
  2  3  1  0  0  0  0
  3  4  2  0  0  0  0
  4  5  1  0  0  0  0
  5 10  1  0  0  0  0
  6 14  1  0  0  0  0
  6  5  2  0  0  0  0
  7  1  1  0  0  0  0
  8  2  1  0  0  0  0
  9 13  1  0  0  0  0
 11 12  3  0  0  0  0
 14 15  1  0  0  0  0
 15 18  1  0  0  0  0
 16 15  1  0  0  0  0
 17 15  1  0  0  0  0
M  RAD  2   3   2   4   2
M  END
