Coordinates from ORCA-job p-CH3O-Ph-N2-Cl-B3LYPG-aug-cc-pVDZ-scan-d09-49-n400
 OpenBabel11081710393D

 18 17  0  0  0  0  0  0  0  0999 V2000
   -1.3403   -1.7167   -1.5133 C   0  0  0  0  0  0  0  0  0  0  0  0
    0.0030   -1.3767   -1.6231 C   0  0  0  0  0  0  0  0  0  0  0  0
    0.4369   -0.2791   -0.8928 C   0  0  0  0  0  0  0  0  0  0  0  0
   -0.3494    0.5011   -0.0695 C   0  0  0  0  0  0  0  0  0  0  0  0
   -1.7001    0.1445    0.0295 C   0  0  0  0  0  0  0  0  0  0  0  0
   -2.1958   -0.9588   -0.6880 C   0  0  0  0  0  0  0  0  0  0  0  0
   -1.7499   -2.5659   -2.0577 H   0  0  0  0  0  0  0  0  0  0  0  0
    0.6880   -1.9418   -2.2514 H   0  0  0  0  0  0  0  0  0  0  0  0
    0.0755    1.3468    0.4679 H   0  0  0  0  0  0  0  0  0  0  0  0
   -2.3473    0.7382    0.6696 H   0  0  0  0  0  0  0  0  0  0  0  0
    2.0730    0.0612   -1.0836 N   0  0  0  0  0  0  0  0  0  0  0  0
    2.8364    0.8366   -0.6951 N   0  0  0  0  0  0  0  0  0  0  0  0
    2.2121    2.4166    0.7015 Cl  0  0  0  0  0  0  0  0  0  0  0  0
   -3.4863   -1.3756   -0.6525 O   0  0  0  0  0  0  0  0  0  0  0  0
   -4.4163   -0.6585    0.1617 C   0  0  0  0  0  0  0  0  0  0  0  0
   -5.3743   -1.1695    0.0318 H   0  0  0  0  0  0  0  0  0  0  0  0
   -4.5074    0.3863   -0.1697 H   0  0  0  0  0  0  0  0  0  0  0  0
   -4.1211   -0.6916    1.2208 H   0  0  0  0  0  0  0  0  0  0  0  0
  1  6  1  0  0  0  0
  2  1  2  0  0  0  0
  2  3  1  0  0  0  0
  3  4  2  0  0  0  0
  4  5  1  0  0  0  0
  4  9  1  0  0  0  0
  5 10  1  0  0  0  0
  6 14  1  0  0  0  0
  6  5  2  0  0  0  0
  7  1  1  0  0  0  0
  8  2  1  0  0  0  0
 11  3  1  0  0  0  0
 11 12  2  0  0  0  0
 14 15  1  0  0  0  0
 15 18  1  0  0  0  0
 16 15  1  0  0  0  0
 17 15  1  0  0  0  0
M  RAD  2  12   2  13   2
M  END
