Coordinates from ORCA-job p-CH3O-Ph-N2-Cl-B3LYPG-aug-cc-pVDZ-scan-d09-49-n400
 OpenBabel11081710393D

 18 16  0  0  0  0  0  0  0  0999 V2000
   -1.4005   -1.7856   -1.5499 C   0  0  0  0  0  0  0  0  0  0  0  0
   -0.0314   -1.5382   -1.7387 C   0  0  0  0  0  0  0  0  0  0  0  0
    0.3223   -0.4509   -0.9944 C   0  0  0  0  0  0  0  0  0  0  0  0
   -0.2394    0.3955   -0.1823 C   0  0  0  0  0  0  0  0  0  0  0  0
   -1.6219    0.1240   -0.0084 C   0  0  0  0  0  0  0  0  0  0  0  0
   -2.1848   -0.9676   -0.6979 C   0  0  0  0  0  0  0  0  0  0  0  0
   -1.8748   -2.6204   -2.0650 H   0  0  0  0  0  0  0  0  0  0  0  0
    0.6098   -2.1359   -2.3803 H   0  0  0  0  0  0  0  0  0  0  0  0
    0.2779    1.3348    0.4019 H   0  0  0  0  0  0  0  0  0  0  0  0
   -2.2018    0.7663    0.6506 H   0  0  0  0  0  0  0  0  0  0  0  0
    2.5035    0.0801   -1.1892 N   0  0  0  0  0  0  0  0  0  0  0  0
    3.1779    0.8537   -0.7767 N   0  0  0  0  0  0  0  0  0  0  0  0
    1.0157    2.6433    1.2110 Cl  0  0  0  0  0  0  0  0  0  0  0  0
   -3.4926   -1.3274   -0.6132 O   0  0  0  0  0  0  0  0  0  0  0  0
   -4.3551   -0.5550    0.2252 C   0  0  0  0  0  0  0  0  0  0  0  0
   -5.3411   -1.0199    0.1389 H   0  0  0  0  0  0  0  0  0  0  0  0
   -4.4068    0.4888   -0.1178 H   0  0  0  0  0  0  0  0  0  0  0  0
   -4.0204   -0.5886    1.2724 H   0  0  0  0  0  0  0  0  0  0  0  0
  1  6  1  0  0  0  0
  2  1  2  0  0  0  0
  2  3  1  0  0  0  0
  3  4  2  0  0  0  0
  4  5  1  0  0  0  0
  4  9  1  0  0  0  0
  5 10  1  0  0  0  0
  6 14  1  0  0  0  0
  6  5  2  0  0  0  0
  7  1  1  0  0  0  0
  8  2  1  0  0  0  0
 11 12  3  0  0  0  0
 14 15  1  0  0  0  0
 15 18  1  0  0  0  0
 16 15  1  0  0  0  0
 17 15  1  0  0  0  0
M  RAD  2   3   2  13   2
M  END
