Coordinates from ORCA-job p-CH3O-Ph-N2-Cl-B3LYPG-aug-cc-pVDZ-scan-d09-49-n400
 OpenBabel11081710393D

 18 16  0  0  0  0  0  0  0  0999 V2000
   -1.3489   -1.5805   -1.4055 C   0  0  0  0  0  0  0  0  0  0  0  0
    0.0013   -1.1965   -1.4838 C   0  0  0  0  0  0  0  0  0  0  0  0
    0.1759   -0.0918   -0.6764 C   0  0  0  0  0  0  0  0  0  0  0  0
   -0.5884    0.5809    0.0575 C   0  0  0  0  0  0  0  0  0  0  0  0
   -1.9464    0.2441    0.1744 C   0  0  0  0  0  0  0  0  0  0  0  0
   -2.2977   -0.8867   -0.6040 C   0  0  0  0  0  0  0  0  0  0  0  0
   -1.6985   -2.4415   -1.9754 H   0  0  0  0  0  0  0  0  0  0  0  0
    0.7363   -1.7171   -2.0916 H   0  0  0  0  0  0  0  0  0  0  0  0
   -0.0959    2.1334    1.1234 H   0  0  0  0  0  0  0  0  0  0  0  0
   -2.6596    0.7837    0.7910 H   0  0  0  0  0  0  0  0  0  0  0  0
    4.0354   -0.8281   -2.3184 N   0  0  0  0  0  0  0  0  0  0  0  0
    5.0698   -0.4423   -2.3033 N   0  0  0  0  0  0  0  0  0  0  0  0
    0.0486    3.1956    1.9063 Cl  0  0  0  0  0  0  0  0  0  0  0  0
   -3.5603   -1.4042   -0.6535 O   0  0  0  0  0  0  0  0  0  0  0  0
   -4.5784   -0.7726    0.1192 C   0  0  0  0  0  0  0  0  0  0  0  0
   -5.4911   -1.3451   -0.0703 H   0  0  0  0  0  0  0  0  0  0  0  0
   -4.7262    0.2713   -0.1966 H   0  0  0  0  0  0  0  0  0  0  0  0
   -4.3393   -0.8053    1.1930 H   0  0  0  0  0  0  0  0  0  0  0  0
  1  6  1  0  0  0  0
  2  1  2  0  0  0  0
  2  3  1  0  0  0  0
  3  4  2  0  0  0  0
  4  5  1  0  0  0  0
  5 10  1  0  0  0  0
  6  5  2  0  0  0  0
  7  1  1  0  0  0  0
  8  2  1  0  0  0  0
  9 13  1  0  0  0  0
 11 12  3  0  0  0  0
 14  6  1  0  0  0  0
 14 15  1  0  0  0  0
 15 18  1  0  0  0  0
 16 15  1  0  0  0  0
 17 15  1  0  0  0  0
M  RAD  2   3   2   4   2
M  END
