Coordinates from ORCA-job p-CH3O-Ph-N2-Cl-B3LYPG-aug-cc-pVDZ-scan-d09-49-n400
 OpenBabel11081710393D

 18 16  0  0  0  0  0  0  0  0999 V2000
   -1.3995   -1.7585   -1.5291 C   0  0  0  0  0  0  0  0  0  0  0  0
   -0.0295   -1.4963   -1.7070 C   0  0  0  0  0  0  0  0  0  0  0  0
    0.2847   -0.3994   -0.9444 C   0  0  0  0  0  0  0  0  0  0  0  0
   -0.3313    0.3811   -0.1685 C   0  0  0  0  0  0  0  0  0  0  0  0
   -1.7073    0.1466    0.0325 C   0  0  0  0  0  0  0  0  0  0  0  0
   -2.2196   -0.9618   -0.6837 C   0  0  0  0  0  0  0  0  0  0  0  0
   -1.8616   -2.5970   -2.0501 H   0  0  0  0  0  0  0  0  0  0  0  0
    0.6208   -2.0872   -2.3457 H   0  0  0  0  0  0  0  0  0  0  0  0
    0.3356    1.7873    0.7347 H   0  0  0  0  0  0  0  0  0  0  0  0
   -2.3249    0.7622    0.6812 H   0  0  0  0  0  0  0  0  0  0  0  0
    2.8373   -0.1105   -1.4295 N   0  0  0  0  0  0  0  0  0  0  0  0
    3.7456    0.4818   -1.2214 N   0  0  0  0  0  0  0  0  0  0  0  0
    0.7299    2.8572    1.4568 Cl  0  0  0  0  0  0  0  0  0  0  0  0
   -3.5240   -1.3599   -0.6294 O   0  0  0  0  0  0  0  0  0  0  0  0
   -4.4214   -0.6186    0.1945 C   0  0  0  0  0  0  0  0  0  0  0  0
   -5.3940   -1.1075    0.0862 H   0  0  0  0  0  0  0  0  0  0  0  0
   -4.4953    0.4271   -0.1402 H   0  0  0  0  0  0  0  0  0  0  0  0
   -4.1088   -0.6495    1.2493 H   0  0  0  0  0  0  0  0  0  0  0  0
  1  6  1  0  0  0  0
  2  1  2  0  0  0  0
  2  3  1  0  0  0  0
  3  4  2  0  0  0  0
  4  5  1  0  0  0  0
  5 10  1  0  0  0  0
  6 14  1  0  0  0  0
  6  5  2  0  0  0  0
  7  1  1  0  0  0  0
  8  2  1  0  0  0  0
  9 13  1  0  0  0  0
 11 12  3  0  0  0  0
 14 15  1  0  0  0  0
 15 18  1  0  0  0  0
 16 15  1  0  0  0  0
 17 15  1  0  0  0  0
M  RAD  2   3   2   4   2
M  END
