Coordinates from ORCA-job p-CH3O-Ph-N2-Cl-B3LYPG-aug-cc-pVDZ-scan-d09-49-n400
 OpenBabel11081710393D

 18 16  0  0  0  0  0  0  0  0999 V2000
   -1.3329   -1.5575   -1.3922 C   0  0  0  0  0  0  0  0  0  0  0  0
    0.0136   -1.1587   -1.4579 C   0  0  0  0  0  0  0  0  0  0  0  0
    0.1695   -0.0544   -0.6457 C   0  0  0  0  0  0  0  0  0  0  0  0
   -0.6087    0.6073    0.0835 C   0  0  0  0  0  0  0  0  0  0  0  0
   -1.9639    0.2554    0.1881 C   0  0  0  0  0  0  0  0  0  0  0  0
   -2.2960   -0.8767   -0.5966 C   0  0  0  0  0  0  0  0  0  0  0  0
   -1.6683   -2.4207   -1.9676 H   0  0  0  0  0  0  0  0  0  0  0  0
    0.7591   -1.6696   -2.0611 H   0  0  0  0  0  0  0  0  0  0  0  0
   -0.1412    2.1626    1.1586 H   0  0  0  0  0  0  0  0  0  0  0  0
   -2.6880    0.7853    0.8001 H   0  0  0  0  0  0  0  0  0  0  0  0
    4.0914   -0.9080   -2.3958 N   0  0  0  0  0  0  0  0  0  0  0  0
    5.1367   -0.5525   -2.4073 N   0  0  0  0  0  0  0  0  0  0  0  0
   -0.0157    3.2238    1.9459 Cl  0  0  0  0  0  0  0  0  0  0  0  0
   -3.5524   -1.4078   -0.6585 O   0  0  0  0  0  0  0  0  0  0  0  0
   -4.5839   -0.7898    0.1074 C   0  0  0  0  0  0  0  0  0  0  0  0
   -5.4886   -1.3717   -0.0916 H   0  0  0  0  0  0  0  0  0  0  0  0
   -4.7405    0.2534   -0.2065 H   0  0  0  0  0  0  0  0  0  0  0  0
   -4.3537   -0.8232    1.1831 H   0  0  0  0  0  0  0  0  0  0  0  0
  1  6  1  0  0  0  0
  2  1  2  0  0  0  0
  2  3  1  0  0  0  0
  3  4  2  0  0  0  0
  4  5  1  0  0  0  0
  5 10  1  0  0  0  0
  6  5  2  0  0  0  0
  7  1  1  0  0  0  0
  8  2  1  0  0  0  0
  9 13  1  0  0  0  0
 12 11  3  0  0  0  0
 14  6  1  0  0  0  0
 14 15  1  0  0  0  0
 15 18  1  0  0  0  0
 16 15  1  0  0  0  0
 17 15  1  0  0  0  0
M  RAD  2   3   2   4   2
M  END
