Coordinates from ORCA-job p-CH3O-Ph-N2-Cl-B3LYPG-aug-cc-pVDZ-scan-d09-49-n400
 OpenBabel11081710393D

 18 17  0  0  0  0  0  0  0  0999 V2000
   -1.1533   -1.6835   -1.2218 C   0  0  0  0  0  0  0  0  0  0  0  0
    0.1126   -1.1746   -1.4121 C   0  0  0  0  0  0  0  0  0  0  0  0
    0.4407    0.1604   -0.9899 C   0  0  0  0  0  0  0  0  0  0  0  0
   -0.5989    0.9252   -0.3727 C   0  0  0  0  0  0  0  0  0  0  0  0
   -1.8685    0.3989   -0.1911 C   0  0  0  0  0  0  0  0  0  0  0  0
   -2.1614   -0.9100   -0.6120 C   0  0  0  0  0  0  0  0  0  0  0  0
   -1.3901   -2.6991   -1.5356 H   0  0  0  0  0  0  0  0  0  0  0  0
    0.8948   -1.7754   -1.8732 H   0  0  0  0  0  0  0  0  0  0  0  0
   -0.3643    1.9342   -0.0376 H   0  0  0  0  0  0  0  0  0  0  0  0
   -2.6215    1.0187    0.2886 H   0  0  0  0  0  0  0  0  0  0  0  0
    1.4877    0.5883   -1.1367 N   0  0  0  0  0  0  0  0  0  0  0  0
    2.5881    0.9022   -1.0138 N   0  0  0  0  0  0  0  0  0  0  0  0
    3.2895    0.2032    1.0908 Cl  0  0  0  0  0  0  0  0  0  0  0  0
   -3.3657   -1.5116   -0.4788 O   0  0  0  0  0  0  0  0  0  0  0  0
   -4.4277   -0.7922    0.1533 C   0  0  0  0  0  0  0  0  0  0  0  0
   -5.2827   -1.4736    0.1544 H   0  0  0  0  0  0  0  0  0  0  0  0
   -4.6798    0.1159   -0.4137 H   0  0  0  0  0  0  0  0  0  0  0  0
   -4.1628   -0.5297    1.1878 H   0  0  0  0  0  0  0  0  0  0  0  0
  1  6  1  0  0  0  0
  2  1  2  0  0  0  0
  2  3  1  0  0  0  0
  3  4  2  0  0  0  0
  4  5  1  0  0  0  0
  4  9  1  0  0  0  0
  5 10  1  0  0  0  0
  6 14  1  0  0  0  0
  6  5  2  0  0  0  0
  7  1  1  0  0  0  0
  8  2  1  0  0  0  0
 11 12  1  0  0  0  0
 11  3  1  0  0  0  0
 14 15  1  0  0  0  0
 15 16  1  0  0  0  0
 15 18  1  0  0  0  0
 17 15  1  0  0  0  0
M  RAD  3  11   2  12   3  13   2
M  END
