Coordinates from ORCA-job p-CH3O-Ph-N2-Cl-B3LYPG-aug-cc-pVDZ-scan-d09-49-n400
 OpenBabel11081710393D

 18 17  0  0  0  0  0  0  0  0999 V2000
   -1.2987   -1.6984   -1.5107 C   0  0  0  0  0  0  0  0  0  0  0  0
    0.0300   -1.3488   -1.6088 C   0  0  0  0  0  0  0  0  0  0  0  0
    0.5528   -0.2321   -0.8883 C   0  0  0  0  0  0  0  0  0  0  0  0
   -0.3385    0.5152   -0.0611 C   0  0  0  0  0  0  0  0  0  0  0  0
   -1.6747    0.1601    0.0350 C   0  0  0  0  0  0  0  0  0  0  0  0
   -2.1660   -0.9464   -0.6866 C   0  0  0  0  0  0  0  0  0  0  0  0
   -1.7025   -2.5486   -2.0578 H   0  0  0  0  0  0  0  0  0  0  0  0
    0.7092   -1.9208   -2.2410 H   0  0  0  0  0  0  0  0  0  0  0  0
    0.0669    1.3660    0.4859 H   0  0  0  0  0  0  0  0  0  0  0  0
   -2.3296    0.7481    0.6729 H   0  0  0  0  0  0  0  0  0  0  0  0
    1.7357    0.0485   -0.9994 N   0  0  0  0  0  0  0  0  0  0  0  0
    2.6700    0.7035   -0.7525 N   0  0  0  0  0  0  0  0  0  0  0  0
    2.2589    2.3787    0.6579 Cl  0  0  0  0  0  0  0  0  0  0  0  0
   -3.4447   -1.3669   -0.6573 O   0  0  0  0  0  0  0  0  0  0  0  0
   -4.3936   -0.6612    0.1531 C   0  0  0  0  0  0  0  0  0  0  0  0
   -5.3425   -1.1848    0.0105 H   0  0  0  0  0  0  0  0  0  0  0  0
   -4.4910    0.3819   -0.1786 H   0  0  0  0  0  0  0  0  0  0  0  0
   -4.1049   -0.6968    1.2128 H   0  0  0  0  0  0  0  0  0  0  0  0
  1  6  1  0  0  0  0
  2  1  2  0  0  0  0
  2  3  1  0  0  0  0
  3  4  2  0  0  0  0
  4  5  1  0  0  0  0
  4  9  1  0  0  0  0
  5 10  1  0  0  0  0
  6 14  1  0  0  0  0
  6  5  2  0  0  0  0
  7  1  1  0  0  0  0
  8  2  1  0  0  0  0
 11  3  1  0  0  0  0
 11 12  2  0  0  0  0
 14 15  1  0  0  0  0
 15 18  1  0  0  0  0
 16 15  1  0  0  0  0
 17 15  1  0  0  0  0
M  RAD  2  12   2  13   2
M  END
