Coordinates from ORCA-job p-CH3O-Ph-N2-Cl-B3LYPG-aug-cc-pVDZ-scan-d09-49-n400
 OpenBabel11081710393D

 18 16  0  0  0  0  0  0  0  0999 V2000
   -1.3780   -1.6253   -1.4321 C   0  0  0  0  0  0  0  0  0  0  0  0
   -0.0212   -1.2711   -1.5351 C   0  0  0  0  0  0  0  0  0  0  0  0
    0.1901   -0.1661   -0.7376 C   0  0  0  0  0  0  0  0  0  0  0  0
   -0.5461    0.5281    0.0051 C   0  0  0  0  0  0  0  0  0  0  0  0
   -1.9089    0.2210    0.1463 C   0  0  0  0  0  0  0  0  0  0  0  0
   -2.2978   -0.9064   -0.6192 C   0  0  0  0  0  0  0  0  0  0  0  0
   -1.7555   -2.4819   -1.9908 H   0  0  0  0  0  0  0  0  0  0  0  0
    0.6924   -1.8106   -2.1516 H   0  0  0  0  0  0  0  0  0  0  0  0
   -0.0048    2.0738    1.0521 H   0  0  0  0  0  0  0  0  0  0  0  0
   -2.5998    0.7796    0.7712 H   0  0  0  0  0  0  0  0  0  0  0  0
    3.9035   -0.6692   -2.1588 N   0  0  0  0  0  0  0  0  0  0  0  0
    4.9109   -0.2226   -2.0895 N   0  0  0  0  0  0  0  0  0  0  0  0
    0.1775    3.1374    1.8256 Cl  0  0  0  0  0  0  0  0  0  0  0  0
   -3.5720   -1.3964   -0.6444 O   0  0  0  0  0  0  0  0  0  0  0  0
   -4.5629   -0.7383    0.1414 C   0  0  0  0  0  0  0  0  0  0  0  0
   -5.4909   -1.2918   -0.0292 H   0  0  0  0  0  0  0  0  0  0  0  0
   -4.6934    0.3068   -0.1784 H   0  0  0  0  0  0  0  0  0  0  0  0
   -4.3065   -0.7699    1.2112 H   0  0  0  0  0  0  0  0  0  0  0  0
  1  6  1  0  0  0  0
  2  1  2  0  0  0  0
  2  3  1  0  0  0  0
  3  4  2  0  0  0  0
  4  5  1  0  0  0  0
  5 10  1  0  0  0  0
  6  5  2  0  0  0  0
  7  1  1  0  0  0  0
  8  2  1  0  0  0  0
  9 13  1  0  0  0  0
 11 12  3  0  0  0  0
 14  6  1  0  0  0  0
 14 15  1  0  0  0  0
 15 18  1  0  0  0  0
 16 15  1  0  0  0  0
 17 15  1  0  0  0  0
M  RAD  2   3   2   4   2
M  END
