Coordinates from ORCA-job p-CH3O-Ph-N2-Cl-B3LYPG-aug-cc-pVDZ-scan-d09-49-n400
 OpenBabel11081710393D

 18 16  0  0  0  0  0  0  0  0999 V2000
   -1.3659   -1.6061   -1.4206 C   0  0  0  0  0  0  0  0  0  0  0  0
   -0.0118   -1.2391   -1.5130 C   0  0  0  0  0  0  0  0  0  0  0  0
    0.1837   -0.1341   -0.7112 C   0  0  0  0  0  0  0  0  0  0  0  0
   -0.5647    0.5510    0.0278 C   0  0  0  0  0  0  0  0  0  0  0  0
   -1.9256    0.2310    0.1586 C   0  0  0  0  0  0  0  0  0  0  0  0
   -2.2983   -0.8979   -0.6125 C   0  0  0  0  0  0  0  0  0  0  0  0
   -1.7315   -2.4647   -1.9842 H   0  0  0  0  0  0  0  0  0  0  0  0
    0.7110   -1.7704   -2.1258 H   0  0  0  0  0  0  0  0  0  0  0  0
   -0.0443    2.0997    1.0831 H   0  0  0  0  0  0  0  0  0  0  0  0
   -2.6262    0.7814    0.7800 H   0  0  0  0  0  0  0  0  0  0  0  0
    3.9641   -0.7377   -2.2286 N   0  0  0  0  0  0  0  0  0  0  0  0
    4.9840   -0.3175   -2.1830 N   0  0  0  0  0  0  0  0  0  0  0  0
    0.1217    3.1629    1.8607 Cl  0  0  0  0  0  0  0  0  0  0  0  0
   -3.5676   -1.3998   -0.6482 O   0  0  0  0  0  0  0  0  0  0  0  0
   -4.5704   -0.7531    0.1320 C   0  0  0  0  0  0  0  0  0  0  0  0
   -5.4918   -1.3149   -0.0467 H   0  0  0  0  0  0  0  0  0  0  0  0
   -4.7083    0.2915   -0.1860 H   0  0  0  0  0  0  0  0  0  0  0  0
   -4.3214   -0.7852    1.2036 H   0  0  0  0  0  0  0  0  0  0  0  0
  1  6  1  0  0  0  0
  2  1  2  0  0  0  0
  2  3  1  0  0  0  0
  3  4  2  0  0  0  0
  4  5  1  0  0  0  0
  5 10  1  0  0  0  0
  6  5  2  0  0  0  0
  7  1  1  0  0  0  0
  8  2  1  0  0  0  0
  9 13  1  0  0  0  0
 11 12  3  0  0  0  0
 14  6  1  0  0  0  0
 14 15  1  0  0  0  0
 15 18  1  0  0  0  0
 16 15  1  0  0  0  0
 17 15  1  0  0  0  0
M  RAD  2   3   2   4   2
M  END
