Coordinates from ORCA-job p-CH3O-Ph-N2-Cl-B3LYPG-aug-cc-pVDZ-scan-d09-49-n400
 OpenBabel11081710393D

 18 16  0  0  0  0  0  0  0  0999 V2000
   -1.3217   -1.5419   -1.3831 C   0  0  0  0  0  0  0  0  0  0  0  0
    0.0222   -1.1330   -1.4403 C   0  0  0  0  0  0  0  0  0  0  0  0
    0.1654   -0.0291   -0.6250 C   0  0  0  0  0  0  0  0  0  0  0  0
   -0.6222    0.6250    0.1010 C   0  0  0  0  0  0  0  0  0  0  0  0
   -1.9753    0.2631    0.1972 C   0  0  0  0  0  0  0  0  0  0  0  0
   -2.2945   -0.8699   -0.5918 C   0  0  0  0  0  0  0  0  0  0  0  0
   -1.6473   -2.4063   -1.9621 H   0  0  0  0  0  0  0  0  0  0  0  0
    0.7747   -1.6372   -2.0403 H   0  0  0  0  0  0  0  0  0  0  0  0
   -0.1718    2.1821    1.1822 H   0  0  0  0  0  0  0  0  0  0  0  0
   -2.7068    0.7863    0.8061 H   0  0  0  0  0  0  0  0  0  0  0  0
    4.1265   -0.9621   -2.4474 N   0  0  0  0  0  0  0  0  0  0  0  0
    5.1781   -0.6270   -2.4766 N   0  0  0  0  0  0  0  0  0  0  0  0
   -0.0591    3.2425    1.9725 Cl  0  0  0  0  0  0  0  0  0  0  0  0
   -3.5465   -1.4102   -0.6620 O   0  0  0  0  0  0  0  0  0  0  0  0
   -4.5869   -0.8015    0.0992 C   0  0  0  0  0  0  0  0  0  0  0  0
   -5.4861   -1.3896   -0.1062 H   0  0  0  0  0  0  0  0  0  0  0  0
   -4.7494    0.2412   -0.2135 H   0  0  0  0  0  0  0  0  0  0  0  0
   -4.3627   -0.8354    1.1762 H   0  0  0  0  0  0  0  0  0  0  0  0
  1  6  1  0  0  0  0
  2  1  2  0  0  0  0
  2  3  1  0  0  0  0
  3  4  2  0  0  0  0
  4  5  1  0  0  0  0
  5 10  1  0  0  0  0
  6  5  2  0  0  0  0
  7  1  1  0  0  0  0
  8  2  1  0  0  0  0
  9 13  1  0  0  0  0
 12 11  3  0  0  0  0
 14  6  1  0  0  0  0
 14 15  1  0  0  0  0
 15 18  1  0  0  0  0
 16 15  1  0  0  0  0
 17 15  1  0  0  0  0
M  RAD  2   3   2   4   2
M  END
