Coordinates from ORCA-job p-CH3O-Ph-N2-Cl-B3LYPG-aug-cc-pVDZ-scan-d09-49-n400
 OpenBabel11081710393D

 18 16  0  0  0  0  0  0  0  0999 V2000
   -1.4066   -1.7479   -1.5190 C   0  0  0  0  0  0  0  0  0  0  0  0
   -0.0367   -1.4793   -1.6919 C   0  0  0  0  0  0  0  0  0  0  0  0
    0.2701   -0.3809   -0.9260 C   0  0  0  0  0  0  0  0  0  0  0  0
   -0.3613    0.3879   -0.1548 C   0  0  0  0  0  0  0  0  0  0  0  0
   -1.7357    0.1532    0.0456 C   0  0  0  0  0  0  0  0  0  0  0  0
   -2.2360   -0.9579   -0.6761 C   0  0  0  0  0  0  0  0  0  0  0  0
   -1.8623   -2.5880   -2.0431 H   0  0  0  0  0  0  0  0  0  0  0  0
    0.6163   -2.0680   -2.3296 H   0  0  0  0  0  0  0  0  0  0  0  0
    0.2921    1.8400    0.7884 H   0  0  0  0  0  0  0  0  0  0  0  0
   -2.3596    0.7640    0.6924 H   0  0  0  0  0  0  0  0  0  0  0  0
    3.0225   -0.1661   -1.5242 N   0  0  0  0  0  0  0  0  0  0  0  0
    3.9540    0.3985   -1.3437 N   0  0  0  0  0  0  0  0  0  0  0  0
    0.6365    2.9083    1.5214 Cl  0  0  0  0  0  0  0  0  0  0  0  0
   -3.5383   -1.3645   -0.6291 O   0  0  0  0  0  0  0  0  0  0  0  0
   -4.4445   -0.6306    0.1916 C   0  0  0  0  0  0  0  0  0  0  0  0
   -5.4134   -1.1255    0.0776 H   0  0  0  0  0  0  0  0  0  0  0  0
   -4.5235    0.4153   -0.1416 H   0  0  0  0  0  0  0  0  0  0  0  0
   -4.1371   -0.6614    1.2479 H   0  0  0  0  0  0  0  0  0  0  0  0
  1  6  1  0  0  0  0
  2  1  2  0  0  0  0
  2  3  1  0  0  0  0
  3  4  2  0  0  0  0
  4  5  1  0  0  0  0
  5 10  1  0  0  0  0
  6 14  1  0  0  0  0
  6  5  2  0  0  0  0
  7  1  1  0  0  0  0
  8  2  1  0  0  0  0
  9 13  1  0  0  0  0
 11 12  3  0  0  0  0
 14 15  1  0  0  0  0
 15 18  1  0  0  0  0
 16 15  1  0  0  0  0
 17 15  1  0  0  0  0
M  RAD  2   3   2   4   2
M  END
