Coordinates from ORCA-job p-CH3O-Ph-N2-Cl-B3LYPG-aug-cc-pVDZ-scan-d09-49-n400
 OpenBabel11081710393D

 18 16  0  0  0  0  0  0  0  0999 V2000
   -1.4089   -1.7846   -1.5468 C   0  0  0  0  0  0  0  0  0  0  0  0
   -0.0384   -1.5408   -1.7389 C   0  0  0  0  0  0  0  0  0  0  0  0
    0.3022   -0.4524   -0.9900 C   0  0  0  0  0  0  0  0  0  0  0  0
   -0.2478    0.3893   -0.1848 C   0  0  0  0  0  0  0  0  0  0  0  0
   -1.6331    0.1275   -0.0026 C   0  0  0  0  0  0  0  0  0  0  0  0
   -2.1935   -0.9653   -0.6937 C   0  0  0  0  0  0  0  0  0  0  0  0
   -1.8860   -2.6188   -2.0607 H   0  0  0  0  0  0  0  0  0  0  0  0
    0.6022   -2.1389   -2.3806 H   0  0  0  0  0  0  0  0  0  0  0  0
    0.2650    1.3861    0.4452 H   0  0  0  0  0  0  0  0  0  0  0  0
   -2.2128    0.7700    0.6565 H   0  0  0  0  0  0  0  0  0  0  0  0
    2.6246    0.0780   -1.2245 N   0  0  0  0  0  0  0  0  0  0  0  0
    3.3830    0.8006   -0.8744 N   0  0  0  0  0  0  0  0  0  0  0  0
    0.8443    2.6454    1.2601 Cl  0  0  0  0  0  0  0  0  0  0  0  0
   -3.5023   -1.3267   -0.6099 O   0  0  0  0  0  0  0  0  0  0  0  0
   -4.3646   -0.5547    0.2281 C   0  0  0  0  0  0  0  0  0  0  0  0
   -5.3507   -1.0195    0.1420 H   0  0  0  0  0  0  0  0  0  0  0  0
   -4.4164    0.4894   -0.1144 H   0  0  0  0  0  0  0  0  0  0  0  0
   -4.0300   -0.5879    1.2755 H   0  0  0  0  0  0  0  0  0  0  0  0
  1  6  1  0  0  0  0
  2  1  2  0  0  0  0
  2  3  1  0  0  0  0
  3  4  2  0  0  0  0
  4  5  1  0  0  0  0
  4  9  1  0  0  0  0
  5 10  1  0  0  0  0
  6 14  1  0  0  0  0
  6  5  2  0  0  0  0
  7  1  1  0  0  0  0
  8  2  1  0  0  0  0
 11 12  3  0  0  0  0
 14 15  1  0  0  0  0
 15 18  1  0  0  0  0
 16 15  1  0  0  0  0
 17 15  1  0  0  0  0
M  RAD  2   3   2  13   2
M  END
