Coordinates from ORCA-job p-CH3O-Ph-N2-Cl-B3LYPG-aug-cc-pVDZ-scan-d09-49-n400
 OpenBabel11081710393D

 18 17  0  0  0  0  0  0  0  0999 V2000
   -1.1361   -1.6769   -1.2071 C   0  0  0  0  0  0  0  0  0  0  0  0
    0.1288   -1.1848   -1.3854 C   0  0  0  0  0  0  0  0  0  0  0  0
    0.5183    0.1887   -0.9681 C   0  0  0  0  0  0  0  0  0  0  0  0
   -0.5963    0.9316   -0.3423 C   0  0  0  0  0  0  0  0  0  0  0  0
   -1.8567    0.3981   -0.1808 C   0  0  0  0  0  0  0  0  0  0  0  0
   -2.1546   -0.9083   -0.6064 C   0  0  0  0  0  0  0  0  0  0  0  0
   -1.3668   -2.6922   -1.5294 H   0  0  0  0  0  0  0  0  0  0  0  0
    0.9271   -1.7717   -1.8370 H   0  0  0  0  0  0  0  0  0  0  0  0
   -0.3483    1.9379   -0.0085 H   0  0  0  0  0  0  0  0  0  0  0  0
   -2.6112    1.0224    0.2927 H   0  0  0  0  0  0  0  0  0  0  0  0
    1.3689    0.5260   -1.0641 N   0  0  0  0  0  0  0  0  0  0  0  0
    2.4744    0.9107   -1.0829 N   0  0  0  0  0  0  0  0  0  0  0  0
    3.3067    0.1815    1.0013 Cl  0  0  0  0  0  0  0  0  0  0  0  0
   -3.3613   -1.5084   -0.4887 O   0  0  0  0  0  0  0  0  0  0  0  0
   -4.4277   -0.7873    0.1330 C   0  0  0  0  0  0  0  0  0  0  0  0
   -5.2851   -1.4656    0.1239 H   0  0  0  0  0  0  0  0  0  0  0  0
   -4.6706    0.1227   -0.4351 H   0  0  0  0  0  0  0  0  0  0  0  0
   -4.1729   -0.5272    1.1708 H   0  0  0  0  0  0  0  0  0  0  0  0
  1  6  1  0  0  0  0
  2  1  2  0  0  0  0
  2  3  1  0  0  0  0
  3  4  2  0  0  0  0
  4  5  1  0  0  0  0
  4  9  1  0  0  0  0
  5 10  1  0  0  0  0
  6 14  1  0  0  0  0
  6  5  2  0  0  0  0
  7  1  1  0  0  0  0
  8  2  1  0  0  0  0
 11  3  1  0  0  0  0
 12 11  1  0  0  0  0
 14 15  1  0  0  0  0
 15 18  1  0  0  0  0
 16 15  1  0  0  0  0
 17 15  1  0  0  0  0
M  RAD  3  11   2  12   3  13   2
M  END
