Coordinates from ORCA-job p-CH3O-Ph-N2-Cl-B3LYPG-aug-cc-pVDZ-scan-d09-49-n400
 OpenBabel11081710393D

 18 16  0  0  0  0  0  0  0  0999 V2000
   -1.3539   -1.5879   -1.4099 C   0  0  0  0  0  0  0  0  0  0  0  0
   -0.0025   -1.2088   -1.4923 C   0  0  0  0  0  0  0  0  0  0  0  0
    0.1781   -0.1040   -0.6864 C   0  0  0  0  0  0  0  0  0  0  0  0
   -0.5816    0.5723    0.0490 C   0  0  0  0  0  0  0  0  0  0  0  0
   -1.9405    0.2403    0.1699 C   0  0  0  0  0  0  0  0  0  0  0  0
   -2.2980   -0.8900   -0.6064 C   0  0  0  0  0  0  0  0  0  0  0  0
   -1.7081   -2.4483   -1.9780 H   0  0  0  0  0  0  0  0  0  0  0  0
    0.7289   -1.7325   -2.1015 H   0  0  0  0  0  0  0  0  0  0  0  0
   -0.0811    2.1237    1.1118 H   0  0  0  0  0  0  0  0  0  0  0  0
   -2.6500    0.7831    0.7878 H   0  0  0  0  0  0  0  0  0  0  0  0
    4.0156   -0.8020   -2.2927 N   0  0  0  0  0  0  0  0  0  0  0  0
    5.0461   -0.4063   -2.2688 N   0  0  0  0  0  0  0  0  0  0  0  0
    0.0697    3.1862    1.8932 Cl  0  0  0  0  0  0  0  0  0  0  0  0
   -3.5626   -1.4029   -0.6520 O   0  0  0  0  0  0  0  0  0  0  0  0
   -4.5763   -0.7670    0.1230 C   0  0  0  0  0  0  0  0  0  0  0  0
   -5.4915   -1.3364   -0.0634 H   0  0  0  0  0  0  0  0  0  0  0  0
   -4.7212    0.2772   -0.1934 H   0  0  0  0  0  0  0  0  0  0  0  0
   -4.3344   -0.7995    1.1962 H   0  0  0  0  0  0  0  0  0  0  0  0
  1  6  1  0  0  0  0
  2  1  2  0  0  0  0
  2  3  1  0  0  0  0
  3  4  2  0  0  0  0
  4  5  1  0  0  0  0
  5 10  1  0  0  0  0
  6  5  2  0  0  0  0
  7  1  1  0  0  0  0
  8  2  1  0  0  0  0
  9 13  1  0  0  0  0
 11 12  3  0  0  0  0
 14  6  1  0  0  0  0
 14 15  1  0  0  0  0
 15 18  1  0  0  0  0
 16 15  1  0  0  0  0
 17 15  1  0  0  0  0
M  RAD  2   3   2   4   2
M  END
