Coordinates from ORCA-job p-CH3O-Ph-N2-Cl-B3LYPG-aug-cc-pVDZ-scan-d09-49-n400
 OpenBabel11081710393D

 18 16  0  0  0  0  0  0  0  0999 V2000
   -1.4134   -1.7309   -1.5039 C   0  0  0  0  0  0  0  0  0  0  0  0
   -0.0458   -1.4494   -1.6661 C   0  0  0  0  0  0  0  0  0  0  0  0
    0.2535   -0.3480   -0.8958 C   0  0  0  0  0  0  0  0  0  0  0  0
   -0.4040    0.4026   -0.1313 C   0  0  0  0  0  0  0  0  0  0  0  0
   -1.7760    0.1631    0.0647 C   0  0  0  0  0  0  0  0  0  0  0  0
   -2.2577   -0.9514   -0.6651 C   0  0  0  0  0  0  0  0  0  0  0  0
   -1.8581   -2.5736   -2.0332 H   0  0  0  0  0  0  0  0  0  0  0  0
    0.6191   -2.0289   -2.3000 H   0  0  0  0  0  0  0  0  0  0  0  0
    0.2403    1.9014    0.8508 H   0  0  0  0  0  0  0  0  0  0  0  0
   -2.4104    0.7661    0.7083 H   0  0  0  0  0  0  0  0  0  0  0  0
    3.2540   -0.2448   -1.6496 N   0  0  0  0  0  0  0  0  0  0  0  0
    4.2130    0.2830   -1.5054 N   0  0  0  0  0  0  0  0  0  0  0  0
    0.5351    2.9671    1.5946 Cl  0  0  0  0  0  0  0  0  0  0  0  0
   -3.5563   -1.3715   -0.6296 O   0  0  0  0  0  0  0  0  0  0  0  0
   -4.4765   -0.6496    0.1857 C   0  0  0  0  0  0  0  0  0  0  0  0
   -5.4393   -1.1541    0.0625 H   0  0  0  0  0  0  0  0  0  0  0  0
   -4.5637    0.3965   -0.1451 H   0  0  0  0  0  0  0  0  0  0  0  0
   -4.1773   -0.6803    1.2445 H   0  0  0  0  0  0  0  0  0  0  0  0
  1  6  1  0  0  0  0
  2  1  2  0  0  0  0
  2  3  1  0  0  0  0
  3  4  2  0  0  0  0
  4  5  1  0  0  0  0
  5 10  1  0  0  0  0
  6 14  1  0  0  0  0
  6  5  2  0  0  0  0
  7  1  1  0  0  0  0
  8  2  1  0  0  0  0
  9 13  1  0  0  0  0
 11 12  3  0  0  0  0
 14 15  1  0  0  0  0
 15 18  1  0  0  0  0
 16 15  1  0  0  0  0
 17 15  1  0  0  0  0
M  RAD  2   3   2   4   2
M  END
