Coordinates from ORCA-job p-CH3O-Ph-N2-Cl-B3LYPG-aug-cc-pVDZ-scan-d09-49-n400
 OpenBabel11081710393D

 18 17  0  0  0  0  0  0  0  0999 V2000
   -1.3321   -1.7123   -1.5122 C   0  0  0  0  0  0  0  0  0  0  0  0
    0.0086   -1.3689   -1.6185 C   0  0  0  0  0  0  0  0  0  0  0  0
    0.4569   -0.2691   -0.8906 C   0  0  0  0  0  0  0  0  0  0  0  0
   -0.3472    0.5041   -0.0677 C   0  0  0  0  0  0  0  0  0  0  0  0
   -1.6957    0.1472    0.0304 C   0  0  0  0  0  0  0  0  0  0  0  0
   -2.1902   -0.9564   -0.6878 C   0  0  0  0  0  0  0  0  0  0  0  0
   -1.7399   -2.5618   -2.0574 H   0  0  0  0  0  0  0  0  0  0  0  0
    0.6932   -1.9346   -2.2473 H   0  0  0  0  0  0  0  0  0  0  0  0
    0.0707    1.3508    0.4725 H   0  0  0  0  0  0  0  0  0  0  0  0
   -2.3446    0.7395    0.6699 H   0  0  0  0  0  0  0  0  0  0  0  0
    2.0151    0.0544   -1.0727 N   0  0  0  0  0  0  0  0  0  0  0  0
    2.8040    0.8178   -0.7006 N   0  0  0  0  0  0  0  0  0  0  0  0
    2.2208    2.3993    0.6856 Cl  0  0  0  0  0  0  0  0  0  0  0  0
   -3.4794   -1.3744   -0.6536 O   0  0  0  0  0  0  0  0  0  0  0  0
   -4.4121   -0.6593    0.1599 C   0  0  0  0  0  0  0  0  0  0  0  0
   -5.3688   -1.1722    0.0282 H   0  0  0  0  0  0  0  0  0  0  0  0
   -4.5045    0.3854   -0.1713 H   0  0  0  0  0  0  0  0  0  0  0  0
   -4.1181   -0.6926    1.2192 H   0  0  0  0  0  0  0  0  0  0  0  0
  1  6  1  0  0  0  0
  2  1  2  0  0  0  0
  2  3  1  0  0  0  0
  3  4  2  0  0  0  0
  4  5  1  0  0  0  0
  4  9  1  0  0  0  0
  5 10  1  0  0  0  0
  6 14  1  0  0  0  0
  6  5  2  0  0  0  0
  7  1  1  0  0  0  0
  8  2  1  0  0  0  0
 11  3  1  0  0  0  0
 11 12  2  0  0  0  0
 14 15  1  0  0  0  0
 15 18  1  0  0  0  0
 16 15  1  0  0  0  0
 17 15  1  0  0  0  0
M  RAD  2  12   2  13   2
M  END
