Coordinates from ORCA-job p-CH3O-Ph-N2-Cl-B3LYPG-aug-cc-pVDZ-scan-d09-49-n400
 OpenBabel11081710393D

 18 16  0  0  0  0  0  0  0  0999 V2000
   -1.3745   -1.7492   -1.5287 C   0  0  0  0  0  0  0  0  0  0  0  0
   -0.0183   -1.4410   -1.6670 C   0  0  0  0  0  0  0  0  0  0  0  0
    0.3694   -0.3508   -0.9301 C   0  0  0  0  0  0  0  0  0  0  0  0
   -0.3250    0.4696   -0.1014 C   0  0  0  0  0  0  0  0  0  0  0  0
   -1.6876    0.1297    0.0141 C   0  0  0  0  0  0  0  0  0  0  0  0
   -2.2046   -0.9701   -0.6943 C   0  0  0  0  0  0  0  0  0  0  0  0
   -1.8052   -2.5943   -2.0637 H   0  0  0  0  0  0  0  0  0  0  0  0
    0.6556   -2.0140   -2.2983 H   0  0  0  0  0  0  0  0  0  0  0  0
    0.1500    1.3119    0.4192 H   0  0  0  0  0  0  0  0  0  0  0  0
   -2.3153    0.7381    0.6600 H   0  0  0  0  0  0  0  0  0  0  0  0
    2.2511    0.0990   -1.1047 N   0  0  0  0  0  0  0  0  0  0  0  0
    2.9036    0.9115   -0.6560 N   0  0  0  0  0  0  0  0  0  0  0  0
    2.0169    2.5407    0.8547 Cl  0  0  0  0  0  0  0  0  0  0  0  0
   -3.5017   -1.3684   -0.6423 O   0  0  0  0  0  0  0  0  0  0  0  0
   -4.4098   -0.6328    0.1800 C   0  0  0  0  0  0  0  0  0  0  0  0
   -5.3775   -1.1289    0.0646 H   0  0  0  0  0  0  0  0  0  0  0  0
   -4.4885    0.4118   -0.1554 H   0  0  0  0  0  0  0  0  0  0  0  0
   -4.1019   -0.6658    1.2355 H   0  0  0  0  0  0  0  0  0  0  0  0
  1  6  1  0  0  0  0
  2  1  2  0  0  0  0
  2  3  1  0  0  0  0
  3  4  2  0  0  0  0
  4  5  1  0  0  0  0
  4  9  1  0  0  0  0
  5 10  1  0  0  0  0
  6 14  1  0  0  0  0
  6  5  2  0  0  0  0
  7  1  1  0  0  0  0
  8  2  1  0  0  0  0
 11 12  3  0  0  0  0
 14 15  1  0  0  0  0
 15 18  1  0  0  0  0
 16 15  1  0  0  0  0
 17 15  1  0  0  0  0
M  RAD  2   3   2  13   2
M  END
