Coordinates from ORCA-job p-CH3O-Ph-N2-Cl-B3LYPG-aug-cc-pVDZ-scan-d09-49-n400
 OpenBabel11081710393D

 18 16  0  0  0  0  0  0  0  0999 V2000
   -1.3155   -1.5335   -1.3783 C   0  0  0  0  0  0  0  0  0  0  0  0
    0.0269   -1.1194   -1.4310 C   0  0  0  0  0  0  0  0  0  0  0  0
    0.1639   -0.0157   -0.6141 C   0  0  0  0  0  0  0  0  0  0  0  0
   -0.6290    0.6341    0.1099 C   0  0  0  0  0  0  0  0  0  0  0  0
   -1.9809    0.2670    0.2018 C   0  0  0  0  0  0  0  0  0  0  0  0
   -2.2933   -0.8663   -0.5893 C   0  0  0  0  0  0  0  0  0  0  0  0
   -1.6360   -2.3985   -1.9593 H   0  0  0  0  0  0  0  0  0  0  0  0
    0.7828   -1.6204   -2.0296 H   0  0  0  0  0  0  0  0  0  0  0  0
   -0.1880    2.1922    1.1945 H   0  0  0  0  0  0  0  0  0  0  0  0
   -2.7163    0.7869    0.8091 H   0  0  0  0  0  0  0  0  0  0  0  0
    4.1430   -0.9903   -2.4738 N   0  0  0  0  0  0  0  0  0  0  0  0
    5.1978   -0.6662   -2.5125 N   0  0  0  0  0  0  0  0  0  0  0  0
   -0.0823    3.2520    1.9863 Cl  0  0  0  0  0  0  0  0  0  0  0  0
   -3.5430   -1.4114   -0.6638 O   0  0  0  0  0  0  0  0  0  0  0  0
   -4.5881   -0.8075    0.0948 C   0  0  0  0  0  0  0  0  0  0  0  0
   -5.4844   -1.3989   -0.1140 H   0  0  0  0  0  0  0  0  0  0  0  0
   -4.7537    0.2349   -0.2172 H   0  0  0  0  0  0  0  0  0  0  0  0
   -4.3670   -0.8418    1.1725 H   0  0  0  0  0  0  0  0  0  0  0  0
  1  6  1  0  0  0  0
  2  1  2  0  0  0  0
  2  3  1  0  0  0  0
  3  4  2  0  0  0  0
  4  5  1  0  0  0  0
  5 10  1  0  0  0  0
  6  5  2  0  0  0  0
  7  1  1  0  0  0  0
  8  2  1  0  0  0  0
  9 13  1  0  0  0  0
 12 11  3  0  0  0  0
 14  6  1  0  0  0  0
 14 15  1  0  0  0  0
 15 18  1  0  0  0  0
 16 15  1  0  0  0  0
 17 15  1  0  0  0  0
M  RAD  2   3   2   4   2
M  END
