Coordinates from ORCA-job p-CH3O-Ph-N2-Cl-B3LYPG-aug-cc-pVDZ-scan-d09-49-n400
 OpenBabel11081710393D

 18 16  0  0  0  0  0  0  0  0999 V2000
   -1.4051   -1.7826   -1.5463 C   0  0  0  0  0  0  0  0  0  0  0  0
   -0.0350   -1.5372   -1.7371 C   0  0  0  0  0  0  0  0  0  0  0  0
    0.3065   -0.4486   -0.9883 C   0  0  0  0  0  0  0  0  0  0  0  0
   -0.2471    0.3922   -0.1828 C   0  0  0  0  0  0  0  0  0  0  0  0
   -1.6318    0.1287   -0.0020 C   0  0  0  0  0  0  0  0  0  0  0  0
   -2.1910   -0.9643   -0.6937 C   0  0  0  0  0  0  0  0  0  0  0  0
   -1.8809   -2.6171   -2.0608 H   0  0  0  0  0  0  0  0  0  0  0  0
    0.6063   -2.1347   -2.3785 H   0  0  0  0  0  0  0  0  0  0  0  0
    0.2660    1.3835    0.4428 H   0  0  0  0  0  0  0  0  0  0  0  0
   -2.2125    0.7705    0.6568 H   0  0  0  0  0  0  0  0  0  0  0  0
    2.6004    0.0705   -1.2236 N   0  0  0  0  0  0  0  0  0  0  0  0
    3.3588    0.7932   -0.8735 N   0  0  0  0  0  0  0  0  0  0  0  0
    0.8577    2.6474    1.2579 Cl  0  0  0  0  0  0  0  0  0  0  0  0
   -3.4994   -1.3268   -0.6108 O   0  0  0  0  0  0  0  0  0  0  0  0
   -4.3630   -0.5557    0.2269 C   0  0  0  0  0  0  0  0  0  0  0  0
   -5.3487   -1.0213    0.1400 H   0  0  0  0  0  0  0  0  0  0  0  0
   -4.4155    0.4884   -0.1155 H   0  0  0  0  0  0  0  0  0  0  0  0
   -4.0291   -0.5889    1.2745 H   0  0  0  0  0  0  0  0  0  0  0  0
  1  6  1  0  0  0  0
  2  1  2  0  0  0  0
  2  3  1  0  0  0  0
  3  4  2  0  0  0  0
  4  5  1  0  0  0  0
  4  9  1  0  0  0  0
  5 10  1  0  0  0  0
  6 14  1  0  0  0  0
  6  5  2  0  0  0  0
  7  1  1  0  0  0  0
  8  2  1  0  0  0  0
 11 12  3  0  0  0  0
 14 15  1  0  0  0  0
 15 18  1  0  0  0  0
 16 15  1  0  0  0  0
 17 15  1  0  0  0  0
M  RAD  2   3   2  13   2
M  END
