Coordinates from ORCA-job p-CH3O-Ph-N2-Cl-B3LYPG-aug-cc-pVDZ-scan-d09-49-n400
 OpenBabel11081710393D

 18 16  0  0  0  0  0  0  0  0999 V2000
   -1.4158   -1.7873   -1.5470 C   0  0  0  0  0  0  0  0  0  0  0  0
   -0.0446   -1.5462   -1.7414 C   0  0  0  0  0  0  0  0  0  0  0  0
    0.2947   -0.4578   -0.9922 C   0  0  0  0  0  0  0  0  0  0  0  0
   -0.2509    0.3840   -0.1881 C   0  0  0  0  0  0  0  0  0  0  0  0
   -1.6370    0.1260   -0.0027 C   0  0  0  0  0  0  0  0  0  0  0  0
   -2.1986   -0.9666   -0.6933 C   0  0  0  0  0  0  0  0  0  0  0  0
   -1.8947   -2.6210   -2.0600 H   0  0  0  0  0  0  0  0  0  0  0  0
    0.5944   -2.1455   -2.3835 H   0  0  0  0  0  0  0  0  0  0  0  0
    0.2624    1.3943    0.4522 H   0  0  0  0  0  0  0  0  0  0  0  0
   -2.2153    0.7694    0.6568 H   0  0  0  0  0  0  0  0  0  0  0  0
    2.6750    0.0896   -1.2295 N   0  0  0  0  0  0  0  0  0  0  0  0
    3.4360    0.8101   -0.8817 N   0  0  0  0  0  0  0  0  0  0  0  0
    0.8156    2.6421    1.2655 Cl  0  0  0  0  0  0  0  0  0  0  0  0
   -3.5080   -1.3268   -0.6084 O   0  0  0  0  0  0  0  0  0  0  0  0
   -4.3686   -0.5536    0.2300 C   0  0  0  0  0  0  0  0  0  0  0  0
   -5.3554   -1.0173    0.1450 H   0  0  0  0  0  0  0  0  0  0  0  0
   -4.4196    0.4904   -0.1127 H   0  0  0  0  0  0  0  0  0  0  0  0
   -4.0332   -0.5868    1.2772 H   0  0  0  0  0  0  0  0  0  0  0  0
  1  6  1  0  0  0  0
  2  1  2  0  0  0  0
  2  3  1  0  0  0  0
  3  4  2  0  0  0  0
  4  5  1  0  0  0  0
  4  9  1  0  0  0  0
  5 10  1  0  0  0  0
  6 14  1  0  0  0  0
  6  5  2  0  0  0  0
  7  1  1  0  0  0  0
  8  2  1  0  0  0  0
 11 12  3  0  0  0  0
 14 15  1  0  0  0  0
 15 18  1  0  0  0  0
 16 15  1  0  0  0  0
 17 15  1  0  0  0  0
M  RAD  2   3   2  13   2
M  END
