Coordinates from ORCA-job p-CH3O-Ph-N2-Cl-B3LYPG-aug-cc-pVDZ-scan-d09-49-n400
 OpenBabel11081710393D

 18 16  0  0  0  0  0  0  0  0999 V2000
   -1.3119   -1.5289   -1.3757 C   0  0  0  0  0  0  0  0  0  0  0  0
    0.0296   -1.1119   -1.4260 C   0  0  0  0  0  0  0  0  0  0  0  0
    0.1636   -0.0083   -0.6083 C   0  0  0  0  0  0  0  0  0  0  0  0
   -0.6327    0.6387    0.1145 C   0  0  0  0  0  0  0  0  0  0  0  0
   -1.9839    0.2692    0.2043 C   0  0  0  0  0  0  0  0  0  0  0  0
   -2.2926   -0.8643   -0.5879 C   0  0  0  0  0  0  0  0  0  0  0  0
   -1.6295   -2.3942   -1.9577 H   0  0  0  0  0  0  0  0  0  0  0  0
    0.7870   -1.6115   -2.0238 H   0  0  0  0  0  0  0  0  0  0  0  0
   -0.1968    2.1977    1.2012 H   0  0  0  0  0  0  0  0  0  0  0  0
   -2.7212    0.7872    0.8108 H   0  0  0  0  0  0  0  0  0  0  0  0
    4.1506   -1.0054   -2.4876 N   0  0  0  0  0  0  0  0  0  0  0  0
    5.2072   -0.6877   -2.5318 N   0  0  0  0  0  0  0  0  0  0  0  0
   -0.0951    3.2572    1.9938 Cl  0  0  0  0  0  0  0  0  0  0  0  0
   -3.5409   -1.4120   -0.6649 O   0  0  0  0  0  0  0  0  0  0  0  0
   -4.5886   -0.8108    0.0924 C   0  0  0  0  0  0  0  0  0  0  0  0
   -5.4833   -1.4040   -0.1182 H   0  0  0  0  0  0  0  0  0  0  0  0
   -4.7558    0.2314   -0.2193 H   0  0  0  0  0  0  0  0  0  0  0  0
   -4.3692   -0.8452    1.1704 H   0  0  0  0  0  0  0  0  0  0  0  0
  1  6  1  0  0  0  0
  2  1  2  0  0  0  0
  2  3  1  0  0  0  0
  3  4  2  0  0  0  0
  4  5  1  0  0  0  0
  5 10  1  0  0  0  0
  6  5  2  0  0  0  0
  7  1  1  0  0  0  0
  8  2  1  0  0  0  0
  9 13  1  0  0  0  0
 12 11  3  0  0  0  0
 14  6  1  0  0  0  0
 14 15  1  0  0  0  0
 15 18  1  0  0  0  0
 16 15  1  0  0  0  0
 17 15  1  0  0  0  0
M  RAD  2   3   2   4   2
M  END
