Coordinates from ORCA-job p-CH3O-Ph-N2-Cl-B3LYPG-aug-cc-pVDZ-scan-d09-49-n400
 OpenBabel11081710393D

 18 16  0  0  0  0  0  0  0  0999 V2000
   -1.3551   -1.5897   -1.4110 C   0  0  0  0  0  0  0  0  0  0  0  0
   -0.0035   -1.2119   -1.4944 C   0  0  0  0  0  0  0  0  0  0  0  0
    0.1786   -0.1071   -0.6889 C   0  0  0  0  0  0  0  0  0  0  0  0
   -0.5800    0.5702    0.0469 C   0  0  0  0  0  0  0  0  0  0  0  0
   -1.9391    0.2394    0.1688 C   0  0  0  0  0  0  0  0  0  0  0  0
   -2.2981   -0.8908   -0.6070 C   0  0  0  0  0  0  0  0  0  0  0  0
   -1.7105   -2.4500   -1.9786 H   0  0  0  0  0  0  0  0  0  0  0  0
    0.7271   -1.7364   -2.1040 H   0  0  0  0  0  0  0  0  0  0  0  0
   -0.0773    2.1213    1.1089 H   0  0  0  0  0  0  0  0  0  0  0  0
   -2.6477    0.7829    0.7871 H   0  0  0  0  0  0  0  0  0  0  0  0
    4.0106   -0.7955   -2.2862 N   0  0  0  0  0  0  0  0  0  0  0  0
    5.0401   -0.3973   -2.2602 N   0  0  0  0  0  0  0  0  0  0  0  0
    0.0749    3.1839    1.8899 Cl  0  0  0  0  0  0  0  0  0  0  0  0
   -3.5631   -1.4026   -0.6516 O   0  0  0  0  0  0  0  0  0  0  0  0
   -4.5757   -0.7656    0.1239 C   0  0  0  0  0  0  0  0  0  0  0  0
   -5.4916   -1.3343   -0.0617 H   0  0  0  0  0  0  0  0  0  0  0  0
   -4.7200    0.2786   -0.1927 H   0  0  0  0  0  0  0  0  0  0  0  0
   -4.3331   -0.7981    1.1969 H   0  0  0  0  0  0  0  0  0  0  0  0
  1  6  1  0  0  0  0
  2  1  2  0  0  0  0
  2  3  1  0  0  0  0
  3  4  2  0  0  0  0
  4  5  1  0  0  0  0
  5 10  1  0  0  0  0
  6  5  2  0  0  0  0
  7  1  1  0  0  0  0
  8  2  1  0  0  0  0
  9 13  1  0  0  0  0
 11 12  3  0  0  0  0
 14  6  1  0  0  0  0
 14 15  1  0  0  0  0
 15 18  1  0  0  0  0
 16 15  1  0  0  0  0
 17 15  1  0  0  0  0
M  RAD  2   3   2   4   2
M  END
