Coordinates from ORCA-job p-CH3O-Ph-N2-Cl-B3LYPG-aug-cc-pVDZ-scan-d09-49-n400
 OpenBabel11081710393D

 18 16  0  0  0  0  0  0  0  0999 V2000
   -1.4258   -1.7080   -1.4827 C   0  0  0  0  0  0  0  0  0  0  0  0
   -0.0602   -1.4098   -1.6313 C   0  0  0  0  0  0  0  0  0  0  0  0
    0.2215   -0.3064   -0.8547 C   0  0  0  0  0  0  0  0  0  0  0  0
   -0.4595    0.4273   -0.0968 C   0  0  0  0  0  0  0  0  0  0  0  0
   -1.8290    0.1758    0.0891 C   0  0  0  0  0  0  0  0  0  0  0  0
   -2.2885   -0.9427   -0.6498 C   0  0  0  0  0  0  0  0  0  0  0  0
   -1.8551   -2.5543   -2.0191 H   0  0  0  0  0  0  0  0  0  0  0  0
    0.6158   -1.9806   -2.2616 H   0  0  0  0  0  0  0  0  0  0  0  0
    0.1700    1.9521    0.9097 H   0  0  0  0  0  0  0  0  0  0  0  0
   -2.4765    0.7688    0.7287 H   0  0  0  0  0  0  0  0  0  0  0  0
    3.5881   -0.3621   -1.8336 N   0  0  0  0  0  0  0  0  0  0  0  0
    4.5297    0.1896   -1.6654 N   0  0  0  0  0  0  0  0  0  0  0  0
    0.4283    3.0164    1.6625 Cl  0  0  0  0  0  0  0  0  0  0  0  0
   -3.5819   -1.3794   -0.6285 O   0  0  0  0  0  0  0  0  0  0  0  0
   -4.5192   -0.6721    0.1801 C   0  0  0  0  0  0  0  0  0  0  0  0
   -5.4742   -1.1884    0.0457 H   0  0  0  0  0  0  0  0  0  0  0  0
   -4.6166    0.3739   -0.1480 H   0  0  0  0  0  0  0  0  0  0  0  0
   -4.2302   -0.7029    1.2417 H   0  0  0  0  0  0  0  0  0  0  0  0
  1  6  1  0  0  0  0
  2  1  2  0  0  0  0
  2  3  1  0  0  0  0
  3  4  2  0  0  0  0
  4  5  1  0  0  0  0
  5 10  1  0  0  0  0
  6 14  1  0  0  0  0
  6  5  2  0  0  0  0
  7  1  1  0  0  0  0
  8  2  1  0  0  0  0
  9 13  1  0  0  0  0
 11 12  3  0  0  0  0
 14 15  1  0  0  0  0
 15 18  1  0  0  0  0
 16 15  1  0  0  0  0
 17 15  1  0  0  0  0
M  RAD  2   3   2   4   2
M  END
