Coordinates from ORCA-job p-CH3O-Ph-N2-Cl-B3LYPG-aug-cc-pVDZ-scan-d09-49-n400
 OpenBabel11081710393D

 18 16  0  0  0  0  0  0  0  0999 V2000
   -1.4064   -1.7833   -1.5465 C   0  0  0  0  0  0  0  0  0  0  0  0
   -0.0362   -1.5385   -1.7378 C   0  0  0  0  0  0  0  0  0  0  0  0
    0.3050   -0.4500   -0.9890 C   0  0  0  0  0  0  0  0  0  0  0  0
   -0.2472    0.3912   -0.1835 C   0  0  0  0  0  0  0  0  0  0  0  0
   -1.6322    0.1282   -0.0023 C   0  0  0  0  0  0  0  0  0  0  0  0
   -2.1918   -0.9647   -0.6937 C   0  0  0  0  0  0  0  0  0  0  0  0
   -1.8827   -2.6177   -2.0608 H   0  0  0  0  0  0  0  0  0  0  0  0
    0.6049   -2.1362   -2.3792 H   0  0  0  0  0  0  0  0  0  0  0  0
    0.2657    1.3843    0.4435 H   0  0  0  0  0  0  0  0  0  0  0  0
   -2.2125    0.7703    0.6567 H   0  0  0  0  0  0  0  0  0  0  0  0
    2.6083    0.0732   -1.2237 N   0  0  0  0  0  0  0  0  0  0  0  0
    3.3666    0.7960   -0.8735 N   0  0  0  0  0  0  0  0  0  0  0  0
    0.8534    2.6467    1.2585 Cl  0  0  0  0  0  0  0  0  0  0  0  0
   -3.5004   -1.3267   -0.6105 O   0  0  0  0  0  0  0  0  0  0  0  0
   -4.3635   -0.5553    0.2273 C   0  0  0  0  0  0  0  0  0  0  0  0
   -5.3493   -1.0206    0.1407 H   0  0  0  0  0  0  0  0  0  0  0  0
   -4.4157    0.4888   -0.1151 H   0  0  0  0  0  0  0  0  0  0  0  0
   -4.0293   -0.5885    1.2748 H   0  0  0  0  0  0  0  0  0  0  0  0
  1  6  1  0  0  0  0
  2  1  2  0  0  0  0
  2  3  1  0  0  0  0
  3  4  2  0  0  0  0
  4  5  1  0  0  0  0
  4  9  1  0  0  0  0
  5 10  1  0  0  0  0
  6 14  1  0  0  0  0
  6  5  2  0  0  0  0
  7  1  1  0  0  0  0
  8  2  1  0  0  0  0
 11 12  3  0  0  0  0
 14 15  1  0  0  0  0
 15 18  1  0  0  0  0
 16 15  1  0  0  0  0
 17 15  1  0  0  0  0
M  RAD  2   3   2  13   2
M  END
