Coordinates from ORCA-job p-CH3O-Ph-N2-Cl-B3LYPG-aug-cc-pVDZ-scan-d09-49-n400
 OpenBabel11081710393D

 18 16  0  0  0  0  0  0  0  0999 V2000
   -1.3636   -1.6025   -1.4185 C   0  0  0  0  0  0  0  0  0  0  0  0
   -0.0100   -1.2331   -1.5089 C   0  0  0  0  0  0  0  0  0  0  0  0
    0.1825   -0.1281   -0.7063 C   0  0  0  0  0  0  0  0  0  0  0  0
   -0.5681    0.5552    0.0320 C   0  0  0  0  0  0  0  0  0  0  0  0
   -1.9286    0.2329    0.1608 C   0  0  0  0  0  0  0  0  0  0  0  0
   -2.2983   -0.8964   -0.6113 C   0  0  0  0  0  0  0  0  0  0  0  0
   -1.7269   -2.4615   -1.9830 H   0  0  0  0  0  0  0  0  0  0  0  0
    0.7146   -1.7629   -2.1210 H   0  0  0  0  0  0  0  0  0  0  0  0
   -0.0516    2.1045    1.0888 H   0  0  0  0  0  0  0  0  0  0  0  0
   -2.6309    0.7818    0.7815 H   0  0  0  0  0  0  0  0  0  0  0  0
    3.9746   -0.7505   -2.2414 N   0  0  0  0  0  0  0  0  0  0  0  0
    4.9968   -0.3351   -2.2001 N   0  0  0  0  0  0  0  0  0  0  0  0
    0.1113    3.1675    1.8672 Cl  0  0  0  0  0  0  0  0  0  0  0  0
   -3.5667   -1.4004   -0.6489 O   0  0  0  0  0  0  0  0  0  0  0  0
   -4.5716   -0.7558    0.1303 C   0  0  0  0  0  0  0  0  0  0  0  0
   -5.4919   -1.3192   -0.0500 H   0  0  0  0  0  0  0  0  0  0  0  0
   -4.7109    0.2887   -0.1874 H   0  0  0  0  0  0  0  0  0  0  0  0
   -4.3241   -0.7880    1.2022 H   0  0  0  0  0  0  0  0  0  0  0  0
  1  6  1  0  0  0  0
  2  1  2  0  0  0  0
  2  3  1  0  0  0  0
  3  4  2  0  0  0  0
  4  5  1  0  0  0  0
  5 10  1  0  0  0  0
  6  5  2  0  0  0  0
  7  1  1  0  0  0  0
  8  2  1  0  0  0  0
  9 13  1  0  0  0  0
 11 12  3  0  0  0  0
 14  6  1  0  0  0  0
 14 15  1  0  0  0  0
 15 18  1  0  0  0  0
 16 15  1  0  0  0  0
 17 15  1  0  0  0  0
M  RAD  2   3   2   4   2
M  END
