Coordinates from ORCA-job p-CH3O-Ph-N2-Cl-B3LYPG-aug-cc-pVDZ-scan-d09-49-n400
 OpenBabel11081710393D

 18 17  0  0  0  0  0  0  0  0999 V2000
   -1.1527   -1.6837   -1.2157 C   0  0  0  0  0  0  0  0  0  0  0  0
    0.1139   -1.1780   -1.3980 C   0  0  0  0  0  0  0  0  0  0  0  0
    0.4484    0.1623   -0.9767 C   0  0  0  0  0  0  0  0  0  0  0  0
   -0.6021    0.9241   -0.3599 C   0  0  0  0  0  0  0  0  0  0  0  0
   -1.8711    0.3980   -0.1860 C   0  0  0  0  0  0  0  0  0  0  0  0
   -2.1643   -0.9101   -0.6105 C   0  0  0  0  0  0  0  0  0  0  0  0
   -1.3881   -2.6988   -1.5324 H   0  0  0  0  0  0  0  0  0  0  0  0
    0.8999   -1.7782   -1.8538 H   0  0  0  0  0  0  0  0  0  0  0  0
   -0.3663    1.9320   -0.0221 H   0  0  0  0  0  0  0  0  0  0  0  0
   -2.6254    1.0183    0.2912 H   0  0  0  0  0  0  0  0  0  0  0  0
    1.4702    0.5763   -1.1099 N   0  0  0  0  0  0  0  0  0  0  0  0
    2.5673    0.9161   -1.0448 N   0  0  0  0  0  0  0  0  0  0  0  0
    3.3584    0.2029    1.0569 Cl  0  0  0  0  0  0  0  0  0  0  0  0
   -3.3692   -1.5101   -0.4850 O   0  0  0  0  0  0  0  0  0  0  0  0
   -4.4346   -0.7907    0.1422 C   0  0  0  0  0  0  0  0  0  0  0  0
   -5.2900   -1.4716    0.1370 H   0  0  0  0  0  0  0  0  0  0  0  0
   -4.6823    0.1183   -0.4250 H   0  0  0  0  0  0  0  0  0  0  0  0
   -4.1752   -0.5303    1.1786 H   0  0  0  0  0  0  0  0  0  0  0  0
  1  6  1  0  0  0  0
  2  1  2  0  0  0  0
  2  3  1  0  0  0  0
  3  4  2  0  0  0  0
  4  5  1  0  0  0  0
  4  9  1  0  0  0  0
  5 10  1  0  0  0  0
  6 14  1  0  0  0  0
  6  5  2  0  0  0  0
  7  1  1  0  0  0  0
  8  2  1  0  0  0  0
 11 12  1  0  0  0  0
 11  3  1  0  0  0  0
 14 15  1  0  0  0  0
 15 18  1  0  0  0  0
 16 15  1  0  0  0  0
 17 15  1  0  0  0  0
M  RAD  3  11   2  12   3  13   2
M  END
