Coordinates from ORCA-job p-CH3O-Ph-N2-Cl-B3LYPG-aug-cc-pVDZ-scan-d09-49-n400
 OpenBabel11081710393D

 18 16  0  0  0  0  0  0  0  0999 V2000
   -1.3450   -1.5748   -1.4022 C   0  0  0  0  0  0  0  0  0  0  0  0
    0.0043   -1.1872   -1.4774 C   0  0  0  0  0  0  0  0  0  0  0  0
    0.1743   -0.0825   -0.6688 C   0  0  0  0  0  0  0  0  0  0  0  0
   -0.5935    0.5875    0.0640 C   0  0  0  0  0  0  0  0  0  0  0  0
   -1.9508    0.2469    0.1778 C   0  0  0  0  0  0  0  0  0  0  0  0
   -2.2974   -0.8843   -0.6022 C   0  0  0  0  0  0  0  0  0  0  0  0
   -1.6911   -2.4364   -1.9735 H   0  0  0  0  0  0  0  0  0  0  0  0
    0.7419   -1.7053   -2.0841 H   0  0  0  0  0  0  0  0  0  0  0  0
   -0.1072    2.1406    1.1321 H   0  0  0  0  0  0  0  0  0  0  0  0
   -2.6667    0.7841    0.7933 H   0  0  0  0  0  0  0  0  0  0  0  0
    4.0498   -0.8479   -2.3377 N   0  0  0  0  0  0  0  0  0  0  0  0
    5.0871   -0.4696   -2.3292 N   0  0  0  0  0  0  0  0  0  0  0  0
    0.0327    3.2026    1.9161 Cl  0  0  0  0  0  0  0  0  0  0  0  0
   -3.5585   -1.4051   -0.6547 O   0  0  0  0  0  0  0  0  0  0  0  0
   -4.5799   -0.7769    0.1163 C   0  0  0  0  0  0  0  0  0  0  0  0
   -5.4906   -1.3517   -0.0755 H   0  0  0  0  0  0  0  0  0  0  0  0
   -4.7298    0.2669   -0.1990 H   0  0  0  0  0  0  0  0  0  0  0  0
   -4.3430   -0.8098    1.1906 H   0  0  0  0  0  0  0  0  0  0  0  0
  1  6  1  0  0  0  0
  2  1  2  0  0  0  0
  2  3  1  0  0  0  0
  3  4  2  0  0  0  0
  4  5  1  0  0  0  0
  5 10  1  0  0  0  0
  6  5  2  0  0  0  0
  7  1  1  0  0  0  0
  8  2  1  0  0  0  0
  9 13  1  0  0  0  0
 11 12  3  0  0  0  0
 14  6  1  0  0  0  0
 14 15  1  0  0  0  0
 15 18  1  0  0  0  0
 16 15  1  0  0  0  0
 17 15  1  0  0  0  0
M  RAD  2   3   2   4   2
M  END
