Coordinates from ORCA-job p-CH3O-Ph-N2-Cl-B3LYPG-aug-cc-pVDZ-scan-d09-49-n400
 OpenBabel11081710393D

 18 16  0  0  0  0  0  0  0  0999 V2000
   -1.3968   -1.7622   -1.5327 C   0  0  0  0  0  0  0  0  0  0  0  0
   -0.0279   -1.5006   -1.7108 C   0  0  0  0  0  0  0  0  0  0  0  0
    0.2922   -0.4036   -0.9497 C   0  0  0  0  0  0  0  0  0  0  0  0
   -0.3223    0.3789   -0.1727 C   0  0  0  0  0  0  0  0  0  0  0  0
   -1.6985    0.1436    0.0277 C   0  0  0  0  0  0  0  0  0  0  0  0
   -2.2144   -0.9635   -0.6865 C   0  0  0  0  0  0  0  0  0  0  0  0
   -1.8608   -2.6000   -2.0529 H   0  0  0  0  0  0  0  0  0  0  0  0
    0.6256   -2.0892   -2.3486 H   0  0  0  0  0  0  0  0  0  0  0  0
    0.3566    1.7723    0.7169 H   0  0  0  0  0  0  0  0  0  0  0  0
   -2.3141    0.7606    0.6770 H   0  0  0  0  0  0  0  0  0  0  0  0
    2.7672   -0.0931   -1.3964 N   0  0  0  0  0  0  0  0  0  0  0  0
    3.6686    0.5070   -1.1804 N   0  0  0  0  0  0  0  0  0  0  0  0
    0.7691    2.8418    1.4340 Cl  0  0  0  0  0  0  0  0  0  0  0  0
   -3.5193   -1.3592   -0.6302 O   0  0  0  0  0  0  0  0  0  0  0  0
   -4.4142   -0.6158    0.1948 C   0  0  0  0  0  0  0  0  0  0  0  0
   -5.3878   -1.1030    0.0880 H   0  0  0  0  0  0  0  0  0  0  0  0
   -4.4865    0.4299   -0.1404 H   0  0  0  0  0  0  0  0  0  0  0  0
   -4.1001   -0.6468    1.2490 H   0  0  0  0  0  0  0  0  0  0  0  0
  1  6  1  0  0  0  0
  2  1  2  0  0  0  0
  2  3  1  0  0  0  0
  3  4  2  0  0  0  0
  4  5  1  0  0  0  0
  5 10  1  0  0  0  0
  6 14  1  0  0  0  0
  6  5  2  0  0  0  0
  7  1  1  0  0  0  0
  8  2  1  0  0  0  0
  9 13  1  0  0  0  0
 11 12  3  0  0  0  0
 14 15  1  0  0  0  0
 15 18  1  0  0  0  0
 16 15  1  0  0  0  0
 17 15  1  0  0  0  0
M  RAD  2   3   2   4   2
M  END
