Coordinates from ORCA-job p-CH3O-Ph-N2-Cl-B3LYPG-aug-cc-pVDZ-scan-d09-49-n400
 OpenBabel11081710393D

 18 17  0  0  0  0  0  0  0  0999 V2000
   -1.1367   -1.6772   -1.2076 C   0  0  0  0  0  0  0  0  0  0  0  0
    0.1282   -1.1842   -1.3862 C   0  0  0  0  0  0  0  0  0  0  0  0
    0.5140    0.1872   -0.9689 C   0  0  0  0  0  0  0  0  0  0  0  0
   -0.5965    0.9315   -0.3436 C   0  0  0  0  0  0  0  0  0  0  0  0
   -1.8573    0.3985   -0.1812 C   0  0  0  0  0  0  0  0  0  0  0  0
   -2.1548   -0.9082   -0.6067 C   0  0  0  0  0  0  0  0  0  0  0  0
   -1.3677   -2.6925   -1.5294 H   0  0  0  0  0  0  0  0  0  0  0  0
    0.9255   -1.7723   -1.8380 H   0  0  0  0  0  0  0  0  0  0  0  0
   -0.3497    1.9380   -0.0095 H   0  0  0  0  0  0  0  0  0  0  0  0
   -2.6119    1.0224    0.2925 H   0  0  0  0  0  0  0  0  0  0  0  0
    1.3736    0.5286   -1.0668 N   0  0  0  0  0  0  0  0  0  0  0  0
    2.4779    0.9117   -1.0829 N   0  0  0  0  0  0  0  0  0  0  0  0
    3.3089    0.1806    1.0072 Cl  0  0  0  0  0  0  0  0  0  0  0  0
   -3.3611   -1.5083   -0.4884 O   0  0  0  0  0  0  0  0  0  0  0  0
   -4.4277   -0.7875    0.1337 C   0  0  0  0  0  0  0  0  0  0  0  0
   -5.2847   -1.4663    0.1248 H   0  0  0  0  0  0  0  0  0  0  0  0
   -4.6711    0.1224   -0.4344 H   0  0  0  0  0  0  0  0  0  0  0  0
   -4.1726   -0.5274    1.1714 H   0  0  0  0  0  0  0  0  0  0  0  0
  1  6  1  0  0  0  0
  2  1  2  0  0  0  0
  2  3  1  0  0  0  0
  3  4  2  0  0  0  0
  4  5  1  0  0  0  0
  4  9  1  0  0  0  0
  5 10  1  0  0  0  0
  6 14  1  0  0  0  0
  6  5  2  0  0  0  0
  7  1  1  0  0  0  0
  8  2  1  0  0  0  0
 11  3  1  0  0  0  0
 12 11  1  0  0  0  0
 14 15  1  0  0  0  0
 15 18  1  0  0  0  0
 16 15  1  0  0  0  0
 17 15  1  0  0  0  0
M  RAD  3  11   2  12   3  13   2
M  END
