Coordinates from ORCA-job p-CH3O-Ph-N2-Cl-B3LYPG-aug-cc-pVDZ-scan-d09-49-n400
 OpenBabel11081710393D

 18 16  0  0  0  0  0  0  0  0999 V2000
   -1.3905   -1.7743   -1.5439 C   0  0  0  0  0  0  0  0  0  0  0  0
   -0.0276   -1.4959   -1.7070 C   0  0  0  0  0  0  0  0  0  0  0  0
    0.3506   -0.4089   -0.9697 C   0  0  0  0  0  0  0  0  0  0  0  0
   -0.2817    0.4337   -0.1410 C   0  0  0  0  0  0  0  0  0  0  0  0
   -1.6528    0.1199   -0.0030 C   0  0  0  0  0  0  0  0  0  0  0  0
   -2.1956   -0.9751   -0.7006 C   0  0  0  0  0  0  0  0  0  0  0  0
   -1.8428   -2.6145   -2.0692 H   0  0  0  0  0  0  0  0  0  0  0  0
    0.6302   -2.0812   -2.3434 H   0  0  0  0  0  0  0  0  0  0  0  0
    0.2310    1.2844    0.3758 H   0  0  0  0  0  0  0  0  0  0  0  0
   -2.2585    0.7441    0.6491 H   0  0  0  0  0  0  0  0  0  0  0  0
    2.3195    0.1173   -1.1093 N   0  0  0  0  0  0  0  0  0  0  0  0
    2.8971    0.9493   -0.6250 N   0  0  0  0  0  0  0  0  0  0  0  0
    1.7073    2.6080    0.9920 Cl  0  0  0  0  0  0  0  0  0  0  0  0
   -3.4979   -1.3520   -0.6308 O   0  0  0  0  0  0  0  0  0  0  0  0
   -4.3829   -0.5970    0.2002 C   0  0  0  0  0  0  0  0  0  0  0  0
   -5.3601   -1.0772    0.0996 H   0  0  0  0  0  0  0  0  0  0  0  0
   -4.4476    0.4472   -0.1393 H   0  0  0  0  0  0  0  0  0  0  0  0
   -4.0612   -0.6306    1.2515 H   0  0  0  0  0  0  0  0  0  0  0  0
  1  6  1  0  0  0  0
  2  1  2  0  0  0  0
  2  3  1  0  0  0  0
  3  4  2  0  0  0  0
  4  5  1  0  0  0  0
  4  9  1  0  0  0  0
  5 10  1  0  0  0  0
  6 14  1  0  0  0  0
  6  5  2  0  0  0  0
  7  1  1  0  0  0  0
  8  2  1  0  0  0  0
 11 12  3  0  0  0  0
 14 15  1  0  0  0  0
 15 18  1  0  0  0  0
 16 15  1  0  0  0  0
 17 15  1  0  0  0  0
M  RAD  2   3   2  13   2
M  END
