Coordinates from ORCA-job p-CH3O-Ph-N2-Cl-B3LYPG-aug-cc-pVDZ-scan-d09-49-n400
 OpenBabel11081710393D

 18 16  0  0  0  0  0  0  0  0999 V2000
   -1.3987   -1.7592   -1.5299 C   0  0  0  0  0  0  0  0  0  0  0  0
   -0.0288   -1.4974   -1.7081 C   0  0  0  0  0  0  0  0  0  0  0  0
    0.2863   -0.4005   -0.9458 C   0  0  0  0  0  0  0  0  0  0  0  0
   -0.3290    0.3807   -0.1695 C   0  0  0  0  0  0  0  0  0  0  0  0
   -1.7050    0.1461    0.0315 C   0  0  0  0  0  0  0  0  0  0  0  0
   -2.2181   -0.9620   -0.6844 C   0  0  0  0  0  0  0  0  0  0  0  0
   -1.8612   -2.5976   -2.0507 H   0  0  0  0  0  0  0  0  0  0  0  0
    0.6218   -2.0881   -2.3466 H   0  0  0  0  0  0  0  0  0  0  0  0
    0.3403    1.7828    0.7299 H   0  0  0  0  0  0  0  0  0  0  0  0
   -2.3222    0.7620    0.6803 H   0  0  0  0  0  0  0  0  0  0  0  0
    2.8195   -0.1061   -1.4212 N   0  0  0  0  0  0  0  0  0  0  0  0
    3.7260    0.4883   -1.2110 N   0  0  0  0  0  0  0  0  0  0  0  0
    0.7394    2.8528    1.4508 Cl  0  0  0  0  0  0  0  0  0  0  0  0
   -3.5226   -1.3596   -0.6296 O   0  0  0  0  0  0  0  0  0  0  0  0
   -4.4195   -0.6179    0.1946 C   0  0  0  0  0  0  0  0  0  0  0  0
   -5.3923   -1.1064    0.0866 H   0  0  0  0  0  0  0  0  0  0  0  0
   -4.4930    0.4279   -0.1403 H   0  0  0  0  0  0  0  0  0  0  0  0
   -4.1065   -0.6487    1.2492 H   0  0  0  0  0  0  0  0  0  0  0  0
  1  6  1  0  0  0  0
  2  1  2  0  0  0  0
  2  3  1  0  0  0  0
  3  4  2  0  0  0  0
  4  5  1  0  0  0  0
  5 10  1  0  0  0  0
  6 14  1  0  0  0  0
  6  5  2  0  0  0  0
  7  1  1  0  0  0  0
  8  2  1  0  0  0  0
  9 13  1  0  0  0  0
 11 12  3  0  0  0  0
 14 15  1  0  0  0  0
 15 18  1  0  0  0  0
 16 15  1  0  0  0  0
 17 15  1  0  0  0  0
M  RAD  2   3   2   4   2
M  END
