Coordinates from ORCA-job p-CH3O-Ph-N2-Cl-B3LYPG-aug-cc-pVDZ-scan-d09-49-n400
 OpenBabel11081710393D

 18 16  0  0  0  0  0  0  0  0999 V2000
   -1.3726   -1.6167   -1.4270 C   0  0  0  0  0  0  0  0  0  0  0  0
   -0.0170   -1.2567   -1.5252 C   0  0  0  0  0  0  0  0  0  0  0  0
    0.1871   -0.1517   -0.7257 C   0  0  0  0  0  0  0  0  0  0  0  0
   -0.5545    0.5384    0.0154 C   0  0  0  0  0  0  0  0  0  0  0  0
   -1.9166    0.2255    0.1518 C   0  0  0  0  0  0  0  0  0  0  0  0
   -2.2981   -0.9026   -0.6162 C   0  0  0  0  0  0  0  0  0  0  0  0
   -1.7448   -2.4742   -1.9879 H   0  0  0  0  0  0  0  0  0  0  0  0
    0.7007   -1.7926   -2.1400 H   0  0  0  0  0  0  0  0  0  0  0  0
   -0.0226    2.0855    1.0661 H   0  0  0  0  0  0  0  0  0  0  0  0
   -2.6118    0.7804    0.7752 H   0  0  0  0  0  0  0  0  0  0  0  0
    3.9315   -0.7000   -2.1904 N   0  0  0  0  0  0  0  0  0  0  0  0
    4.9448   -0.2653   -2.1318 N   0  0  0  0  0  0  0  0  0  0  0  0
    0.1523    3.1489    1.8414 Cl  0  0  0  0  0  0  0  0  0  0  0  0
   -3.5702   -1.3980   -0.6461 O   0  0  0  0  0  0  0  0  0  0  0  0
   -4.5664   -0.7449    0.1372 C   0  0  0  0  0  0  0  0  0  0  0  0
   -5.4915   -1.3022   -0.0371 H   0  0  0  0  0  0  0  0  0  0  0  0
   -4.7002    0.2999   -0.1817 H   0  0  0  0  0  0  0  0  0  0  0  0
   -4.3134   -0.7768    1.2079 H   0  0  0  0  0  0  0  0  0  0  0  0
  1  6  1  0  0  0  0
  2  1  2  0  0  0  0
  2  3  1  0  0  0  0
  3  4  2  0  0  0  0
  4  5  1  0  0  0  0
  5 10  1  0  0  0  0
  6  5  2  0  0  0  0
  7  1  1  0  0  0  0
  8  2  1  0  0  0  0
  9 13  1  0  0  0  0
 11 12  3  0  0  0  0
 14  6  1  0  0  0  0
 14 15  1  0  0  0  0
 15 18  1  0  0  0  0
 16 15  1  0  0  0  0
 17 15  1  0  0  0  0
M  RAD  2   3   2   4   2
M  END
