Coordinates from ORCA-job p-CH3O-Ph-N2-Cl-B3LYPG-aug-cc-pVDZ-scan-d09-49-n400
 OpenBabel11081710393D

 18 16  0  0  0  0  0  0  0  0999 V2000
   -1.3682   -1.6096   -1.4228 C   0  0  0  0  0  0  0  0  0  0  0  0
   -0.0136   -1.2450   -1.5171 C   0  0  0  0  0  0  0  0  0  0  0  0
    0.1848   -0.1400   -0.7160 C   0  0  0  0  0  0  0  0  0  0  0  0
   -0.5613    0.5468    0.0237 C   0  0  0  0  0  0  0  0  0  0  0  0
   -1.9226    0.2292    0.1563 C   0  0  0  0  0  0  0  0  0  0  0  0
   -2.2983   -0.8995   -0.6137 C   0  0  0  0  0  0  0  0  0  0  0  0
   -1.7360   -2.4679   -1.9854 H   0  0  0  0  0  0  0  0  0  0  0  0
    0.7076   -1.7779   -2.1306 H   0  0  0  0  0  0  0  0  0  0  0  0
   -0.0370    2.0949    1.0774 H   0  0  0  0  0  0  0  0  0  0  0  0
   -2.6214    0.7811    0.7784 H   0  0  0  0  0  0  0  0  0  0  0  0
    3.9533   -0.7251   -2.2158 N   0  0  0  0  0  0  0  0  0  0  0  0
    4.9711   -0.3000   -2.1659 N   0  0  0  0  0  0  0  0  0  0  0  0
    0.1319    3.1582    1.8543 Cl  0  0  0  0  0  0  0  0  0  0  0  0
   -3.5685   -1.3992   -0.6475 O   0  0  0  0  0  0  0  0  0  0  0  0
   -4.5691   -0.7504    0.1338 C   0  0  0  0  0  0  0  0  0  0  0  0
   -5.4918   -1.3107   -0.0435 H   0  0  0  0  0  0  0  0  0  0  0  0
   -4.7057    0.2943   -0.1845 H   0  0  0  0  0  0  0  0  0  0  0  0
   -4.3188   -0.7824    1.2051 H   0  0  0  0  0  0  0  0  0  0  0  0
  1  6  1  0  0  0  0
  2  1  2  0  0  0  0
  2  3  1  0  0  0  0
  3  4  2  0  0  0  0
  4  5  1  0  0  0  0
  5 10  1  0  0  0  0
  6  5  2  0  0  0  0
  7  1  1  0  0  0  0
  8  2  1  0  0  0  0
  9 13  1  0  0  0  0
 11 12  3  0  0  0  0
 14  6  1  0  0  0  0
 14 15  1  0  0  0  0
 15 18  1  0  0  0  0
 16 15  1  0  0  0  0
 17 15  1  0  0  0  0
M  RAD  2   3   2   4   2
M  END
