Coordinates from ORCA-job p-CH3O-Ph-N2-Cl-B3LYPG-aug-cc-pVDZ-scan-d09-49-n400
 OpenBabel11081710393D

 18 16  0  0  0  0  0  0  0  0999 V2000
   -1.4087   -1.6774   -1.4638 C   0  0  0  0  0  0  0  0  0  0  0  0
   -0.0457   -1.3580   -1.5954 C   0  0  0  0  0  0  0  0  0  0  0  0
    0.2095   -0.2540   -0.8108 C   0  0  0  0  0  0  0  0  0  0  0  0
   -0.4927    0.4649   -0.0585 C   0  0  0  0  0  0  0  0  0  0  0  0
   -1.8601    0.1930    0.1110 C   0  0  0  0  0  0  0  0  0  0  0  0
   -2.2932   -0.9293   -0.6382 C   0  0  0  0  0  0  0  0  0  0  0  0
   -1.8185   -2.5279   -2.0088 H   0  0  0  0  0  0  0  0  0  0  0  0
    0.6411   -1.9202   -2.2219 H   0  0  0  0  0  0  0  0  0  0  0  0
    0.1046    1.9996    0.9646 H   0  0  0  0  0  0  0  0  0  0  0  0
   -2.5240    0.7733    0.7453 H   0  0  0  0  0  0  0  0  0  0  0  0
    3.7164   -0.4788   -1.9595 N   0  0  0  0  0  0  0  0  0  0  0  0
    4.6829    0.0377   -1.8254 N   0  0  0  0  0  0  0  0  0  0  0  0
    0.3331    3.0640    1.7257 Cl  0  0  0  0  0  0  0  0  0  0  0  0
   -3.5799   -1.3861   -0.6343 O   0  0  0  0  0  0  0  0  0  0  0  0
   -4.5375   -0.6970    0.1661 C   0  0  0  0  0  0  0  0  0  0  0  0
   -5.4828   -1.2274    0.0180 H   0  0  0  0  0  0  0  0  0  0  0  0
   -4.6473    0.3488   -0.1588 H   0  0  0  0  0  0  0  0  0  0  0  0
   -4.2607   -0.7279    1.2308 H   0  0  0  0  0  0  0  0  0  0  0  0
  1  6  1  0  0  0  0
  2  1  2  0  0  0  0
  2  3  1  0  0  0  0
  3  4  2  0  0  0  0
  4  5  1  0  0  0  0
  5 10  1  0  0  0  0
  6 14  1  0  0  0  0
  6  5  2  0  0  0  0
  7  1  1  0  0  0  0
  8  2  1  0  0  0  0
  9 13  1  0  0  0  0
 11 12  3  0  0  0  0
 14 15  1  0  0  0  0
 15 18  1  0  0  0  0
 16 15  1  0  0  0  0
 17 15  1  0  0  0  0
M  RAD  2   3   2   4   2
M  END
