Coordinates from ORCA-job p-CH3O-Ph-N2-Cl-B3LYPG-aug-cc-pVDZ-scan-d09-49-n400
 OpenBabel11081710393D

 18 16  0  0  0  0  0  0  0  0999 V2000
   -1.2878   -1.4979   -1.3583 C   0  0  0  0  0  0  0  0  0  0  0  0
    0.0479   -1.0615   -1.3920 C   0  0  0  0  0  0  0  0  0  0  0  0
    0.1586    0.0412   -0.5686 C   0  0  0  0  0  0  0  0  0  0  0  0
   -0.6575    0.6712    0.1466 C   0  0  0  0  0  0  0  0  0  0  0  0
   -2.0040    0.2836    0.2211 C   0  0  0  0  0  0  0  0  0  0  0  0
   -2.2870   -0.8510   -0.5792 C   0  0  0  0  0  0  0  0  0  0  0  0
   -1.5863   -2.3654   -1.9473 H   0  0  0  0  0  0  0  0  0  0  0  0
    0.8182   -1.5486   -1.9837 H   0  0  0  0  0  0  0  0  0  0  0  0
   -0.2543    2.2368    1.2474 H   0  0  0  0  0  0  0  0  0  0  0  0
   -2.7553    0.7887    0.8213 H   0  0  0  0  0  0  0  0  0  0  0  0
    4.2010   -1.1078   -2.5808 N   0  0  0  0  0  0  0  0  0  0  0  0
    5.2676   -0.8344   -2.6624 N   0  0  0  0  0  0  0  0  0  0  0  0
   -0.1791    3.2937    2.0454 Cl  0  0  0  0  0  0  0  0  0  0  0  0
   -3.5263   -1.4166   -0.6724 O   0  0  0  0  0  0  0  0  0  0  0  0
   -4.5911   -0.8338    0.0753 C   0  0  0  0  0  0  0  0  0  0  0  0
   -5.4746   -1.4390   -0.1478 H   0  0  0  0  0  0  0  0  0  0  0  0
   -4.7700    0.2072   -0.2342 H   0  0  0  0  0  0  0  0  0  0  0  0
   -4.3834   -0.8694    1.1555 H   0  0  0  0  0  0  0  0  0  0  0  0
  1  6  1  0  0  0  0
  2  1  2  0  0  0  0
  2  3  1  0  0  0  0
  3  4  2  0  0  0  0
  4  5  1  0  0  0  0
  5 10  1  0  0  0  0
  6  5  2  0  0  0  0
  7  1  1  0  0  0  0
  8  2  1  0  0  0  0
  9 13  1  0  0  0  0
 12 11  3  0  0  0  0
 14  6  1  0  0  0  0
 14 15  1  0  0  0  0
 15 18  1  0  0  0  0
 16 15  1  0  0  0  0
 17 15  1  0  0  0  0
M  RAD  2   3   2   4   2
M  END
