Coordinates from ORCA-job p-CH3O-Ph-N2-Cl-B3LYPG-aug-cc-pVDZ-scan-d09-49-n400
 OpenBabel11081710393D

 18 17  0  0  0  0  0  0  0  0999 V2000
   -1.3433   -1.7188   -1.5141 C   0  0  0  0  0  0  0  0  0  0  0  0
    0.0011   -1.3809   -1.6258 C   0  0  0  0  0  0  0  0  0  0  0  0
    0.4299   -0.2841   -0.8947 C   0  0  0  0  0  0  0  0  0  0  0  0
   -0.3487    0.4994   -0.0709 C   0  0  0  0  0  0  0  0  0  0  0  0
   -1.7004    0.1436    0.0288 C   0  0  0  0  0  0  0  0  0  0  0  0
   -2.1972   -0.9595   -0.6882 C   0  0  0  0  0  0  0  0  0  0  0  0
   -1.7543   -2.5677   -2.0579 H   0  0  0  0  0  0  0  0  0  0  0  0
    0.6858   -1.9461   -2.2541 H   0  0  0  0  0  0  0  0  0  0  0  0
    0.0798    1.3446    0.4651 H   0  0  0  0  0  0  0  0  0  0  0  0
   -2.3464    0.7381    0.6693 H   0  0  0  0  0  0  0  0  0  0  0  0
    2.0951    0.0640   -1.0875 N   0  0  0  0  0  0  0  0  0  0  0  0
    2.8469    0.8445   -0.6919 N   0  0  0  0  0  0  0  0  0  0  0  0
    2.1971    2.4219    0.7097 Cl  0  0  0  0  0  0  0  0  0  0  0  0
   -3.4883   -1.3753   -0.6517 O   0  0  0  0  0  0  0  0  0  0  0  0
   -4.4168   -0.6571    0.1630 C   0  0  0  0  0  0  0  0  0  0  0  0
   -5.3756   -1.1671    0.0340 H   0  0  0  0  0  0  0  0  0  0  0  0
   -4.5072    0.3878   -0.1686 H   0  0  0  0  0  0  0  0  0  0  0  0
   -4.1209   -0.6901    1.2218 H   0  0  0  0  0  0  0  0  0  0  0  0
  1  6  1  0  0  0  0
  2  1  2  0  0  0  0
  2  3  1  0  0  0  0
  3  4  2  0  0  0  0
  4  5  1  0  0  0  0
  4  9  1  0  0  0  0
  5 10  1  0  0  0  0
  6 14  1  0  0  0  0
  6  5  2  0  0  0  0
  7  1  1  0  0  0  0
  8  2  1  0  0  0  0
 11  3  1  0  0  0  0
 11 12  2  0  0  0  0
 14 15  1  0  0  0  0
 15 18  1  0  0  0  0
 16 15  1  0  0  0  0
 17 15  1  0  0  0  0
M  RAD  2  12   2  13   2
M  END
