Coordinates from ORCA-job p-CH3O-Ph-N2-Cl-B3LYPG-aug-cc-pVDZ-scan-d09-49-n400
 OpenBabel11081710393D

 18 17  0  0  0  0  0  0  0  0999 V2000
   -1.1436   -1.6802   -1.2109 C   0  0  0  0  0  0  0  0  0  0  0  0
    0.1219   -1.1810   -1.3899 C   0  0  0  0  0  0  0  0  0  0  0  0
    0.4832    0.1758   -0.9715 C   0  0  0  0  0  0  0  0  0  0  0  0
   -0.5991    0.9280   -0.3504 C   0  0  0  0  0  0  0  0  0  0  0  0
   -1.8638    0.3990   -0.1831 C   0  0  0  0  0  0  0  0  0  0  0  0
   -2.1591   -0.9086   -0.6086 C   0  0  0  0  0  0  0  0  0  0  0  0
   -1.3765   -2.6954   -1.5302 H   0  0  0  0  0  0  0  0  0  0  0  0
    0.9136   -1.7762   -1.8426 H   0  0  0  0  0  0  0  0  0  0  0  0
   -0.3587    1.9352   -0.0134 H   0  0  0  0  0  0  0  0  0  0  0  0
   -2.6184    1.0210    0.2920 H   0  0  0  0  0  0  0  0  0  0  0  0
    1.4153    0.5490   -1.0834 N   0  0  0  0  0  0  0  0  0  0  0  0
    2.5133    0.9177   -1.0750 N   0  0  0  0  0  0  0  0  0  0  0  0
    3.3425    0.1873    1.0331 Cl  0  0  0  0  0  0  0  0  0  0  0  0
   -3.3642   -1.5082   -0.4876 O   0  0  0  0  0  0  0  0  0  0  0  0
   -4.4313   -0.7887    0.1365 C   0  0  0  0  0  0  0  0  0  0  0  0
   -5.2870   -1.4691    0.1283 H   0  0  0  0  0  0  0  0  0  0  0  0
   -4.6766    0.1207   -0.4311 H   0  0  0  0  0  0  0  0  0  0  0  0
   -4.1749   -0.5290    1.1738 H   0  0  0  0  0  0  0  0  0  0  0  0
  1  6  1  0  0  0  0
  2  1  2  0  0  0  0
  2  3  1  0  0  0  0
  3  4  2  0  0  0  0
  4  5  1  0  0  0  0
  4  9  1  0  0  0  0
  5 10  1  0  0  0  0
  6 14  1  0  0  0  0
  6  5  2  0  0  0  0
  7  1  1  0  0  0  0
  8  2  1  0  0  0  0
 11 12  1  0  0  0  0
 11  3  1  0  0  0  0
 14 15  1  0  0  0  0
 15 18  1  0  0  0  0
 16 15  1  0  0  0  0
 17 15  1  0  0  0  0
M  RAD  3  11   2  12   3  13   2
M  END
