Coordinates from ORCA-job p-CH3O-Ph-N2-Cl-B3LYPG-aug-cc-pVDZ-scan-d09-49-n400
 OpenBabel11081710393D

 18 16  0  0  0  0  0  0  0  0999 V2000
   -1.3737   -1.6184   -1.4280 C   0  0  0  0  0  0  0  0  0  0  0  0
   -0.0179   -1.2596   -1.5272 C   0  0  0  0  0  0  0  0  0  0  0  0
    0.1877   -0.1546   -0.7281 C   0  0  0  0  0  0  0  0  0  0  0  0
   -0.5528    0.5364    0.0133 C   0  0  0  0  0  0  0  0  0  0  0  0
   -1.9150    0.2246    0.1507 C   0  0  0  0  0  0  0  0  0  0  0  0
   -2.2981   -0.9034   -0.6168 C   0  0  0  0  0  0  0  0  0  0  0  0
   -1.7470   -2.4758   -1.9885 H   0  0  0  0  0  0  0  0  0  0  0  0
    0.6990   -1.7962   -2.1424 H   0  0  0  0  0  0  0  0  0  0  0  0
   -0.0190    2.0831    1.0633 H   0  0  0  0  0  0  0  0  0  0  0  0
   -2.6094    0.7802    0.7744 H   0  0  0  0  0  0  0  0  0  0  0  0
    3.9260   -0.6938   -2.1841 N   0  0  0  0  0  0  0  0  0  0  0  0
    4.9381   -0.2567   -2.1233 N   0  0  0  0  0  0  0  0  0  0  0  0
    0.1574    3.1466    1.8383 Cl  0  0  0  0  0  0  0  0  0  0  0  0
   -3.5706   -1.3976   -0.6457 O   0  0  0  0  0  0  0  0  0  0  0  0
   -4.5658   -0.7436    0.1381 C   0  0  0  0  0  0  0  0  0  0  0  0
   -5.4914   -1.3001   -0.0355 H   0  0  0  0  0  0  0  0  0  0  0  0
   -4.6989    0.3013   -0.1811 H   0  0  0  0  0  0  0  0  0  0  0  0
   -4.3120   -0.7754    1.2086 H   0  0  0  0  0  0  0  0  0  0  0  0
  1  6  1  0  0  0  0
  2  1  2  0  0  0  0
  2  3  1  0  0  0  0
  3  4  2  0  0  0  0
  4  5  1  0  0  0  0
  5 10  1  0  0  0  0
  6  5  2  0  0  0  0
  7  1  1  0  0  0  0
  8  2  1  0  0  0  0
  9 13  1  0  0  0  0
 11 12  3  0  0  0  0
 14  6  1  0  0  0  0
 14 15  1  0  0  0  0
 15 18  1  0  0  0  0
 16 15  1  0  0  0  0
 17 15  1  0  0  0  0
M  RAD  2   3   2   4   2
M  END
