Coordinates from ORCA-job p-CH3O-Ph-N2-Cl-B3LYPG-aug-cc-pVDZ-scan-d09-49-n400
 OpenBabel11081710393D

 18 18  0  0  0  0  0  0  0  0999 V2000
   -1.3181   -1.7060   -1.5112 C   0  0  0  0  0  0  0  0  0  0  0  0
    0.0182   -1.3582   -1.6129 C   0  0  0  0  0  0  0  0  0  0  0  0
    0.4932   -0.2539   -0.8889 C   0  0  0  0  0  0  0  0  0  0  0  0
   -0.3423    0.5081   -0.0661 C   0  0  0  0  0  0  0  0  0  0  0  0
   -1.6865    0.1519    0.0314 C   0  0  0  0  0  0  0  0  0  0  0  0
   -2.1800   -0.9526   -0.6876 C   0  0  0  0  0  0  0  0  0  0  0  0
   -1.7233   -2.5559   -2.0574 H   0  0  0  0  0  0  0  0  0  0  0  0
    0.7010   -1.9260   -2.2427 H   0  0  0  0  0  0  0  0  0  0  0  0
    0.0670    1.3565    0.4778 H   0  0  0  0  0  0  0  0  0  0  0  0
   -2.3378    0.7425    0.6703 H   0  0  0  0  0  0  0  0  0  0  0  0
    1.9043    0.0461   -1.0485 N   0  0  0  0  0  0  0  0  0  0  0  0
    2.7438    0.7794   -0.7137 N   0  0  0  0  0  0  0  0  0  0  0  0
    2.2348    2.3822    0.6685 Cl  0  0  0  0  0  0  0  0  0  0  0  0
   -3.4661   -1.3717   -0.6552 O   0  0  0  0  0  0  0  0  0  0  0  0
   -4.4038   -0.6598    0.1573 C   0  0  0  0  0  0  0  0  0  0  0  0
   -5.3581   -1.1761    0.0222 H   0  0  0  0  0  0  0  0  0  0  0  0
   -4.4980    0.3844   -0.1739 H   0  0  0  0  0  0  0  0  0  0  0  0
   -4.1117   -0.6937    1.2167 H   0  0  0  0  0  0  0  0  0  0  0  0
  1  6  1  0  0  0  0
  2  1  2  0  0  0  0
  2  3  1  0  0  0  0
  3  4  2  0  0  0  0
  4  5  1  0  0  0  0
  4  9  1  0  0  0  0
  5 10  1  0  0  0  0
  6 14  1  0  0  0  0
  6  5  2  0  0  0  0
  7  1  1  0  0  0  0
  8  2  1  0  0  0  0
 11  3  1  0  0  0  0
 11 12  2  0  0  0  0
 12 13  1  0  0  0  0
 14 15  1  0  0  0  0
 15 18  1  0  0  0  0
 16 15  1  0  0  0  0
 17 15  1  0  0  0  0
M  END
