Coordinates from ORCA-job p-CH3O-Ph-N2-Cl-B3LYPG-aug-cc-pVDZ-scan-d09-49-n400
 OpenBabel11081710393D

 18 17  0  0  0  0  0  0  0  0999 V2000
   -1.3054   -1.7011   -1.5108 C   0  0  0  0  0  0  0  0  0  0  0  0
    0.0261   -1.3514   -1.6098 C   0  0  0  0  0  0  0  0  0  0  0  0
    0.5308   -0.2400   -0.8888 C   0  0  0  0  0  0  0  0  0  0  0  0
   -0.3391    0.5122   -0.0640 C   0  0  0  0  0  0  0  0  0  0  0  0
   -1.6784    0.1571    0.0330 C   0  0  0  0  0  0  0  0  0  0  0  0
   -2.1707   -0.9488   -0.6872 C   0  0  0  0  0  0  0  0  0  0  0  0
   -1.7093   -2.5514   -2.0575 H   0  0  0  0  0  0  0  0  0  0  0  0
    0.7065   -1.9219   -2.2411 H   0  0  0  0  0  0  0  0  0  0  0  0
    0.0665    1.3623    0.4821 H   0  0  0  0  0  0  0  0  0  0  0  0
   -2.3318    0.7462    0.6712 H   0  0  0  0  0  0  0  0  0  0  0  0
    1.7934    0.0459   -1.0182 N   0  0  0  0  0  0  0  0  0  0  0  0
    2.6925    0.7332   -0.7355 N   0  0  0  0  0  0  0  0  0  0  0  0
    2.2516    2.3779    0.6618 Cl  0  0  0  0  0  0  0  0  0  0  0  0
   -3.4524   -1.3688   -0.6565 O   0  0  0  0  0  0  0  0  0  0  0  0
   -4.3967   -0.6605    0.1548 C   0  0  0  0  0  0  0  0  0  0  0  0
   -5.3477   -1.1813    0.0154 H   0  0  0  0  0  0  0  0  0  0  0  0
   -4.4930    0.3829   -0.1769 H   0  0  0  0  0  0  0  0  0  0  0  0
   -4.1064   -0.6952    1.2143 H   0  0  0  0  0  0  0  0  0  0  0  0
  1  6  1  0  0  0  0
  2  1  2  0  0  0  0
  2  3  1  0  0  0  0
  3  4  2  0  0  0  0
  4  5  1  0  0  0  0
  4  9  1  0  0  0  0
  5 10  1  0  0  0  0
  6 14  1  0  0  0  0
  6  5  2  0  0  0  0
  7  1  1  0  0  0  0
  8  2  1  0  0  0  0
 11  3  1  0  0  0  0
 11 12  2  0  0  0  0
 14 15  1  0  0  0  0
 15 18  1  0  0  0  0
 16 15  1  0  0  0  0
 17 15  1  0  0  0  0
M  RAD  2  12   2  13   2
M  END
