Coordinates from ORCA-job p-CH3O-Ph-N2-Cl-B3LYPG-aug-cc-pVDZ-scan-d09-49-n400
 OpenBabel11081710393D

 18 16  0  0  0  0  0  0  0  0999 V2000
   -1.4072   -1.7458   -1.5172 C   0  0  0  0  0  0  0  0  0  0  0  0
   -0.0374   -1.4759   -1.6890 C   0  0  0  0  0  0  0  0  0  0  0  0
    0.2681   -0.3772   -0.9225 C   0  0  0  0  0  0  0  0  0  0  0  0
   -0.3662    0.3896   -0.1521 C   0  0  0  0  0  0  0  0  0  0  0  0
   -1.7402    0.1544    0.0479 C   0  0  0  0  0  0  0  0  0  0  0  0
   -2.2384   -0.9571   -0.6749 C   0  0  0  0  0  0  0  0  0  0  0  0
   -1.8616   -2.5862   -2.0420 H   0  0  0  0  0  0  0  0  0  0  0  0
    0.6165   -2.0638   -2.3264 H   0  0  0  0  0  0  0  0  0  0  0  0
    0.2860    1.8474    0.7959 H   0  0  0  0  0  0  0  0  0  0  0  0
   -2.3653    0.7643    0.6943 H   0  0  0  0  0  0  0  0  0  0  0  0
    3.0484   -0.1752   -1.5384 N   0  0  0  0  0  0  0  0  0  0  0  0
    3.9836    0.3847   -1.3627 N   0  0  0  0  0  0  0  0  0  0  0  0
    0.6245    2.9154    1.5301 Cl  0  0  0  0  0  0  0  0  0  0  0  0
   -3.5403   -1.3653   -0.6292 O   0  0  0  0  0  0  0  0  0  0  0  0
   -4.4480   -0.6328    0.1909 C   0  0  0  0  0  0  0  0  0  0  0  0
   -5.4163   -1.1288    0.0758 H   0  0  0  0  0  0  0  0  0  0  0  0
   -4.5280    0.4131   -0.1420 H   0  0  0  0  0  0  0  0  0  0  0  0
   -4.1416   -0.6636    1.2475 H   0  0  0  0  0  0  0  0  0  0  0  0
  1  6  1  0  0  0  0
  2  1  2  0  0  0  0
  2  3  1  0  0  0  0
  3  4  2  0  0  0  0
  4  5  1  0  0  0  0
  5 10  1  0  0  0  0
  6 14  1  0  0  0  0
  6  5  2  0  0  0  0
  7  1  1  0  0  0  0
  8  2  1  0  0  0  0
  9 13  1  0  0  0  0
 11 12  3  0  0  0  0
 14 15  1  0  0  0  0
 15 18  1  0  0  0  0
 16 15  1  0  0  0  0
 17 15  1  0  0  0  0
M  RAD  2   3   2   4   2
M  END
