Coordinates from ORCA-job p-CH3O-Ph-N2-Cl-B3LYPG-aug-cc-pVDZ-scan-d09-49-n400
 OpenBabel11081710393D

 18 16  0  0  0  0  0  0  0  0999 V2000
   -1.3999   -1.7856   -1.5501 C   0  0  0  0  0  0  0  0  0  0  0  0
   -0.0309   -1.5379   -1.7387 C   0  0  0  0  0  0  0  0  0  0  0  0
    0.3236   -0.4506   -0.9946 C   0  0  0  0  0  0  0  0  0  0  0  0
   -0.2390    0.3959   -0.1821 C   0  0  0  0  0  0  0  0  0  0  0  0
   -1.6213    0.1239   -0.0086 C   0  0  0  0  0  0  0  0  0  0  0  0
   -2.1842   -0.9677   -0.6981 C   0  0  0  0  0  0  0  0  0  0  0  0
   -1.8741   -2.6204   -2.0653 H   0  0  0  0  0  0  0  0  0  0  0  0
    0.6104   -2.1356   -2.3802 H   0  0  0  0  0  0  0  0  0  0  0  0
    0.2791    1.3328    0.4000 H   0  0  0  0  0  0  0  0  0  0  0  0
   -2.2014    0.7660    0.6503 H   0  0  0  0  0  0  0  0  0  0  0  0
    2.4947    0.0805   -1.1864 N   0  0  0  0  0  0  0  0  0  0  0  0
    3.1654    0.8561   -0.7714 N   0  0  0  0  0  0  0  0  0  0  0  0
    1.0275    2.6429    1.2074 Cl  0  0  0  0  0  0  0  0  0  0  0  0
   -3.4919   -1.3275   -0.6135 O   0  0  0  0  0  0  0  0  0  0  0  0
   -4.3546   -0.5552    0.2249 C   0  0  0  0  0  0  0  0  0  0  0  0
   -5.3405   -1.0202    0.1385 H   0  0  0  0  0  0  0  0  0  0  0  0
   -4.4063    0.4886   -0.1181 H   0  0  0  0  0  0  0  0  0  0  0  0
   -4.0199   -0.5888    1.2721 H   0  0  0  0  0  0  0  0  0  0  0  0
  1  6  1  0  0  0  0
  2  1  2  0  0  0  0
  2  3  1  0  0  0  0
  3  4  2  0  0  0  0
  4  5  1  0  0  0  0
  4  9  1  0  0  0  0
  5 10  1  0  0  0  0
  6 14  1  0  0  0  0
  6  5  2  0  0  0  0
  7  1  1  0  0  0  0
  8  2  1  0  0  0  0
 11 12  3  0  0  0  0
 14 15  1  0  0  0  0
 15 18  1  0  0  0  0
 16 15  1  0  0  0  0
 17 15  1  0  0  0  0
M  RAD  2   3   2  13   2
M  END
