Coordinates from ORCA-job p-CH3O-Ph-N2-Cl-B3LYPG-aug-cc-pVDZ-scan-d09-49-n400
 OpenBabel11081710393D

 18 16  0  0  0  0  0  0  0  0999 V2000
   -1.3941   -1.7825   -1.5492 C   0  0  0  0  0  0  0  0  0  0  0  0
   -0.0290   -1.5174   -1.7232 C   0  0  0  0  0  0  0  0  0  0  0  0
    0.3452   -0.4310   -0.9852 C   0  0  0  0  0  0  0  0  0  0  0  0
   -0.2598    0.4174   -0.1596 C   0  0  0  0  0  0  0  0  0  0  0  0
   -1.6348    0.1183   -0.0092 C   0  0  0  0  0  0  0  0  0  0  0  0
   -2.1886   -0.9745   -0.7022 C   0  0  0  0  0  0  0  0  0  0  0  0
   -1.8562   -2.6202   -2.0700 H   0  0  0  0  0  0  0  0  0  0  0  0
    0.6213   -2.1084   -2.3620 H   0  0  0  0  0  0  0  0  0  0  0  0
    0.2639    1.2823    0.3652 H   0  0  0  0  0  0  0  0  0  0  0  0
   -2.2299    0.7499    0.6457 H   0  0  0  0  0  0  0  0  0  0  0  0
    2.3512    0.1135   -1.1208 N   0  0  0  0  0  0  0  0  0  0  0  0
    2.9159    0.9448   -0.6342 N   0  0  0  0  0  0  0  0  0  0  0  0
    1.5076    2.6266    1.0618 Cl  0  0  0  0  0  0  0  0  0  0  0  0
   -3.4932   -1.3424   -0.6248 O   0  0  0  0  0  0  0  0  0  0  0  0
   -4.3678   -0.5790    0.2099 C   0  0  0  0  0  0  0  0  0  0  0  0
   -5.3490   -1.0522    0.1159 H   0  0  0  0  0  0  0  0  0  0  0  0
   -4.4263    0.4649   -0.1314 H   0  0  0  0  0  0  0  0  0  0  0  0
   -4.0399   -0.6129    1.2592 H   0  0  0  0  0  0  0  0  0  0  0  0
  1  6  1  0  0  0  0
  2  1  2  0  0  0  0
  2  3  1  0  0  0  0
  3  4  2  0  0  0  0
  4  5  1  0  0  0  0
  4  9  1  0  0  0  0
  5 10  1  0  0  0  0
  6 14  1  0  0  0  0
  6  5  2  0  0  0  0
  7  1  1  0  0  0  0
  8  2  1  0  0  0  0
 11 12  3  0  0  0  0
 14 15  1  0  0  0  0
 15 18  1  0  0  0  0
 16 15  1  0  0  0  0
 17 15  1  0  0  0  0
M  RAD  2   3   2  13   2
M  END
