Coordinates from ORCA-job p-CH3O-Ph-N2-Cl-B3LYPG-aug-cc-pVDZ-scan-d09-49-n400
 OpenBabel11081710393D

 18 16  0  0  0  0  0  0  0  0999 V2000
   -1.4059   -1.6725   -1.4608 C   0  0  0  0  0  0  0  0  0  0  0  0
   -0.0435   -1.3498   -1.5896 C   0  0  0  0  0  0  0  0  0  0  0  0
    0.2076   -0.2456   -0.8038 C   0  0  0  0  0  0  0  0  0  0  0  0
   -0.4979    0.4710   -0.0523 C   0  0  0  0  0  0  0  0  0  0  0  0
   -1.8649    0.1956    0.1144 C   0  0  0  0  0  0  0  0  0  0  0  0
   -2.2938   -0.9272   -0.6363 C   0  0  0  0  0  0  0  0  0  0  0  0
   -1.8126   -2.5236   -2.0072 H   0  0  0  0  0  0  0  0  0  0  0  0
    0.6458   -1.9099   -2.2153 H   0  0  0  0  0  0  0  0  0  0  0  0
    0.0940    2.0069    0.9731 H   0  0  0  0  0  0  0  0  0  0  0  0
   -2.5315    0.7739    0.7478 H   0  0  0  0  0  0  0  0  0  0  0  0
    3.7356   -0.4971   -1.9790 N   0  0  0  0  0  0  0  0  0  0  0  0
    4.7066    0.0128   -1.8512 N   0  0  0  0  0  0  0  0  0  0  0  0
    0.3180    3.0712    1.7355 Cl  0  0  0  0  0  0  0  0  0  0  0  0
   -3.5794   -1.3871   -0.6352 O   0  0  0  0  0  0  0  0  0  0  0  0
   -4.5403   -0.7010    0.1638 C   0  0  0  0  0  0  0  0  0  0  0  0
   -5.4839   -1.2336    0.0136 H   0  0  0  0  0  0  0  0  0  0  0  0
   -4.6520    0.3448   -0.1606 H   0  0  0  0  0  0  0  0  0  0  0  0
   -4.2654   -0.7319    1.2291 H   0  0  0  0  0  0  0  0  0  0  0  0
  1  6  1  0  0  0  0
  2  1  2  0  0  0  0
  2  3  1  0  0  0  0
  3  4  2  0  0  0  0
  4  5  1  0  0  0  0
  5 10  1  0  0  0  0
  6 14  1  0  0  0  0
  6  5  2  0  0  0  0
  7  1  1  0  0  0  0
  8  2  1  0  0  0  0
  9 13  1  0  0  0  0
 11 12  3  0  0  0  0
 14 15  1  0  0  0  0
 15 18  1  0  0  0  0
 16 15  1  0  0  0  0
 17 15  1  0  0  0  0
M  RAD  2   3   2   4   2
M  END
