Coordinates from ORCA-job p-CH3O-Ph-N2-Cl-B3LYPG-aug-cc-pVDZ-scan-d09-49-n400
 OpenBabel11081710393D

 18 16  0  0  0  0  0  0  0  0999 V2000
   -1.3931   -1.7819   -1.5490 C   0  0  0  0  0  0  0  0  0  0  0  0
   -0.0281   -1.5163   -1.7227 C   0  0  0  0  0  0  0  0  0  0  0  0
    0.3467   -0.4297   -0.9848 C   0  0  0  0  0  0  0  0  0  0  0  0
   -0.2601    0.4183   -0.1589 C   0  0  0  0  0  0  0  0  0  0  0  0
   -1.6349    0.1186   -0.0089 C   0  0  0  0  0  0  0  0  0  0  0  0
   -2.1882   -0.9742   -0.7021 C   0  0  0  0  0  0  0  0  0  0  0  0
   -1.8549   -2.6197   -2.0700 H   0  0  0  0  0  0  0  0  0  0  0  0
    0.6223   -2.1071   -2.3614 H   0  0  0  0  0  0  0  0  0  0  0  0
    0.2639    1.2823    0.3651 H   0  0  0  0  0  0  0  0  0  0  0  0
   -2.2305    0.7499    0.6458 H   0  0  0  0  0  0  0  0  0  0  0  0
    2.3429    0.1123   -1.1196 N   0  0  0  0  0  0  0  0  0  0  0  0
    2.9083    0.9436   -0.6322 N   0  0  0  0  0  0  0  0  0  0  0  0
    1.5179    2.6260    1.0582 Cl  0  0  0  0  0  0  0  0  0  0  0  0
   -3.4926   -1.3427   -0.6251 O   0  0  0  0  0  0  0  0  0  0  0  0
   -4.3677   -0.5797    0.2094 C   0  0  0  0  0  0  0  0  0  0  0  0
   -5.3488   -1.0533    0.1151 H   0  0  0  0  0  0  0  0  0  0  0  0
   -4.4266    0.4642   -0.1319 H   0  0  0  0  0  0  0  0  0  0  0  0
   -4.0401   -0.6136    1.2588 H   0  0  0  0  0  0  0  0  0  0  0  0
  1  6  1  0  0  0  0
  2  1  2  0  0  0  0
  2  3  1  0  0  0  0
  3  4  2  0  0  0  0
  4  5  1  0  0  0  0
  4  9  1  0  0  0  0
  5 10  1  0  0  0  0
  6 14  1  0  0  0  0
  6  5  2  0  0  0  0
  7  1  1  0  0  0  0
  8  2  1  0  0  0  0
 11 12  3  0  0  0  0
 14 15  1  0  0  0  0
 15 18  1  0  0  0  0
 16 15  1  0  0  0  0
 17 15  1  0  0  0  0
M  RAD  2   3   2  13   2
M  END
