Coordinates from ORCA-job p-CH3O-Ph-N2-Cl-B3LYPG-aug-cc-pVDZ-scan-d09-49-n400
 OpenBabel11081710393D

 18 16  0  0  0  0  0  0  0  0999 V2000
   -1.2739   -1.4802   -1.3484 C   0  0  0  0  0  0  0  0  0  0  0  0
    0.0583   -1.0327   -1.3725 C   0  0  0  0  0  0  0  0  0  0  0  0
    0.1551    0.0692   -0.5459 C   0  0  0  0  0  0  0  0  0  0  0  0
   -0.6714    0.6901    0.1652 C   0  0  0  0  0  0  0  0  0  0  0  0
   -2.0151    0.2917    0.2304 C   0  0  0  0  0  0  0  0  0  0  0  0
   -2.2835   -0.8434   -0.5742 C   0  0  0  0  0  0  0  0  0  0  0  0
   -1.5614   -2.3487   -1.9412 H   0  0  0  0  0  0  0  0  0  0  0  0
    0.8362   -1.5123   -1.9604 H   0  0  0  0  0  0  0  0  0  0  0  0
   -0.2868    2.2581    1.2730 H   0  0  0  0  0  0  0  0  0  0  0  0
   -2.7743    0.7891    0.8270 H   0  0  0  0  0  0  0  0  0  0  0  0
    4.2273   -1.1656   -2.6330 N   0  0  0  0  0  0  0  0  0  0  0  0
    5.2984   -0.9175   -2.7355 N   0  0  0  0  0  0  0  0  0  0  0  0
   -0.2264    3.3135    2.0738 Cl  0  0  0  0  0  0  0  0  0  0  0  0
   -3.5174   -1.4190   -0.6768 O   0  0  0  0  0  0  0  0  0  0  0  0
   -4.5918   -0.8468    0.0653 C   0  0  0  0  0  0  0  0  0  0  0  0
   -5.4688   -1.4587   -0.1648 H   0  0  0  0  0  0  0  0  0  0  0  0
   -4.7773    0.1934   -0.2430 H   0  0  0  0  0  0  0  0  0  0  0  0
   -4.3907   -0.8832    1.1468 H   0  0  0  0  0  0  0  0  0  0  0  0
  1  6  1  0  0  0  0
  2  1  2  0  0  0  0
  2  3  1  0  0  0  0
  3  4  2  0  0  0  0
  4  5  1  0  0  0  0
  5 10  1  0  0  0  0
  6  5  2  0  0  0  0
  7  1  1  0  0  0  0
  8  2  1  0  0  0  0
  9 13  1  0  0  0  0
 12 11  3  0  0  0  0
 14  6  1  0  0  0  0
 14 15  1  0  0  0  0
 15 18  1  0  0  0  0
 16 15  1  0  0  0  0
 17 15  1  0  0  0  0
M  RAD  2   3   2   4   2
M  END
