Coordinates from ORCA-job p-CH3O-Ph-N2-Cl-B3LYPG-aug-cc-pVDZ-scan-d09-49-n400
 OpenBabel11081710393D

 18 16  0  0  0  0  0  0  0  0999 V2000
   -1.3991   -1.7796   -1.5457 C   0  0  0  0  0  0  0  0  0  0  0  0
   -0.0295   -1.5323   -1.7348 C   0  0  0  0  0  0  0  0  0  0  0  0
    0.3148   -0.4436   -0.9868 C   0  0  0  0  0  0  0  0  0  0  0  0
   -0.2453    0.3958   -0.1805 C   0  0  0  0  0  0  0  0  0  0  0  0
   -1.6287    0.1305   -0.0015 C   0  0  0  0  0  0  0  0  0  0  0  0
   -2.1866   -0.9628   -0.6937 C   0  0  0  0  0  0  0  0  0  0  0  0
   -1.8734   -2.6145   -2.0608 H   0  0  0  0  0  0  0  0  0  0  0  0
    0.6123   -2.1296   -2.3762 H   0  0  0  0  0  0  0  0  0  0  0  0
    0.2682    1.3809    0.4402 H   0  0  0  0  0  0  0  0  0  0  0  0
   -2.2103    0.7717    0.6571 H   0  0  0  0  0  0  0  0  0  0  0  0
    2.5610    0.0578   -1.2224 N   0  0  0  0  0  0  0  0  0  0  0  0
    3.3181    0.7818   -0.8710 N   0  0  0  0  0  0  0  0  0  0  0  0
    0.8738    2.6506    1.2559 Cl  0  0  0  0  0  0  0  0  0  0  0  0
   -3.4945   -1.3267   -0.6121 O   0  0  0  0  0  0  0  0  0  0  0  0
   -4.3597   -0.5568    0.2251 C   0  0  0  0  0  0  0  0  0  0  0  0
   -5.3448   -1.0235    0.1372 H   0  0  0  0  0  0  0  0  0  0  0  0
   -4.4130    0.4873   -0.1170 H   0  0  0  0  0  0  0  0  0  0  0  0
   -4.0266   -0.5899    1.2730 H   0  0  0  0  0  0  0  0  0  0  0  0
  1  6  1  0  0  0  0
  2  1  2  0  0  0  0
  2  3  1  0  0  0  0
  3  4  2  0  0  0  0
  4  5  1  0  0  0  0
  4  9  1  0  0  0  0
  5 10  1  0  0  0  0
  6 14  1  0  0  0  0
  6  5  2  0  0  0  0
  7  1  1  0  0  0  0
  8  2  1  0  0  0  0
 11 12  3  0  0  0  0
 14 15  1  0  0  0  0
 15 18  1  0  0  0  0
 16 15  1  0  0  0  0
 17 15  1  0  0  0  0
M  RAD  2   3   2  13   2
M  END
