Coordinates from ORCA-job p-CH3O-Ph-N2-Cl-B3LYPG-aug-cc-pVDZ-scan-d09-49-n400
 OpenBabel11081710393D

 18 17  0  0  0  0  0  0  0  0999 V2000
   -1.3493   -1.7238   -1.5162 C   0  0  0  0  0  0  0  0  0  0  0  0
   -0.0026   -1.3906   -1.6323 C   0  0  0  0  0  0  0  0  0  0  0  0
    0.4159   -0.2950   -0.8995 C   0  0  0  0  0  0  0  0  0  0  0  0
   -0.3467    0.4956   -0.0747 C   0  0  0  0  0  0  0  0  0  0  0  0
   -1.7005    0.1412    0.0269 C   0  0  0  0  0  0  0  0  0  0  0  0
   -2.1995   -0.9615   -0.6890 C   0  0  0  0  0  0  0  0  0  0  0  0
   -1.7635   -2.5722   -2.0586 H   0  0  0  0  0  0  0  0  0  0  0  0
    0.6811   -1.9564   -2.2608 H   0  0  0  0  0  0  0  0  0  0  0  0
    0.0903    1.3398    0.4580 H   0  0  0  0  0  0  0  0  0  0  0  0
   -2.3441    0.7377    0.6680 H   0  0  0  0  0  0  0  0  0  0  0  0
    2.1289    0.0701   -1.0926 N   0  0  0  0  0  0  0  0  0  0  0  0
    2.8616    0.8575   -0.6859 N   0  0  0  0  0  0  0  0  0  0  0  0
    2.1775    2.4428    0.7325 Cl  0  0  0  0  0  0  0  0  0  0  0  0
   -3.4919   -1.3751   -0.6504 O   0  0  0  0  0  0  0  0  0  0  0  0
   -4.4173   -0.6543    0.1653 C   0  0  0  0  0  0  0  0  0  0  0  0
   -5.3774   -1.1622    0.0384 H   0  0  0  0  0  0  0  0  0  0  0  0
   -4.5061    0.3906   -0.1668 H   0  0  0  0  0  0  0  0  0  0  0  0
   -4.1197   -0.6872    1.2238 H   0  0  0  0  0  0  0  0  0  0  0  0
  1  6  1  0  0  0  0
  2  1  2  0  0  0  0
  2  3  1  0  0  0  0
  3  4  2  0  0  0  0
  4  5  1  0  0  0  0
  4  9  1  0  0  0  0
  5 10  1  0  0  0  0
  6 14  1  0  0  0  0
  6  5  2  0  0  0  0
  7  1  1  0  0  0  0
  8  2  1  0  0  0  0
 11  3  1  0  0  0  0
 11 12  2  0  0  0  0
 14 15  1  0  0  0  0
 15 18  1  0  0  0  0
 16 15  1  0  0  0  0
 17 15  1  0  0  0  0
M  RAD  2  12   2  13   2
M  END
