Coordinates from ORCA-job p-CH3O-Ph-N2-Cl-B3LYPG-aug-cc-pVDZ-scan-d09-49-n400
 OpenBabel11081710393D

 18 16  0  0  0  0  0  0  0  0999 V2000
   -1.3949   -1.7858   -1.5519 C   0  0  0  0  0  0  0  0  0  0  0  0
   -0.0271   -1.5350   -1.7381 C   0  0  0  0  0  0  0  0  0  0  0  0
    0.3351   -0.4480   -0.9967 C   0  0  0  0  0  0  0  0  0  0  0  0
   -0.2371    0.4007   -0.1799 C   0  0  0  0  0  0  0  0  0  0  0  0
   -1.6173    0.1220   -0.0116 C   0  0  0  0  0  0  0  0  0  0  0  0
   -2.1799   -0.9693   -0.7007 C   0  0  0  0  0  0  0  0  0  0  0  0
   -1.8673   -2.6211   -2.0678 H   0  0  0  0  0  0  0  0  0  0  0  0
    0.6154   -2.1318   -2.3794 H   0  0  0  0  0  0  0  0  0  0  0  0
    0.2873    1.3113    0.3796 H   0  0  0  0  0  0  0  0  0  0  0  0
   -2.2001    0.7622    0.6466 H   0  0  0  0  0  0  0  0  0  0  0  0
    2.4139    0.0886   -1.1596 N   0  0  0  0  0  0  0  0  0  0  0  0
    3.0343    0.8857   -0.7050 N   0  0  0  0  0  0  0  0  0  0  0  0
    1.1693    2.6391    1.1628 Cl  0  0  0  0  0  0  0  0  0  0  0  0
   -3.4868   -1.3300   -0.6165 O   0  0  0  0  0  0  0  0  0  0  0  0
   -4.3511   -0.5588    0.2218 C   0  0  0  0  0  0  0  0  0  0  0  0
   -5.3363   -1.0251    0.1345 H   0  0  0  0  0  0  0  0  0  0  0  0
   -4.4039    0.4849   -0.1211 H   0  0  0  0  0  0  0  0  0  0  0  0
   -4.0170   -0.5926    1.2691 H   0  0  0  0  0  0  0  0  0  0  0  0
  1  6  1  0  0  0  0
  2  1  2  0  0  0  0
  2  3  1  0  0  0  0
  3  4  2  0  0  0  0
  4  5  1  0  0  0  0
  4  9  1  0  0  0  0
  5 10  1  0  0  0  0
  6 14  1  0  0  0  0
  6  5  2  0  0  0  0
  7  1  1  0  0  0  0
  8  2  1  0  0  0  0
 11 12  3  0  0  0  0
 14 15  1  0  0  0  0
 15 18  1  0  0  0  0
 16 15  1  0  0  0  0
 17 15  1  0  0  0  0
M  RAD  2   3   2  13   2
M  END
