Coordinates from ORCA-job p-CH3O-Ph-N2-Cl-B3LYPG-aug-cc-pVDZ-scan-d09-49-n400
 OpenBabel11081710393D

 18 17  0  0  0  0  0  0  0  0999 V2000
   -1.3028   -1.7001   -1.5108 C   0  0  0  0  0  0  0  0  0  0  0  0
    0.0276   -1.3503   -1.6094 C   0  0  0  0  0  0  0  0  0  0  0  0
    0.5389   -0.2371   -0.8888 C   0  0  0  0  0  0  0  0  0  0  0  0
   -0.3386    0.5133   -0.0633 C   0  0  0  0  0  0  0  0  0  0  0  0
   -1.6768    0.1583    0.0335 C   0  0  0  0  0  0  0  0  0  0  0  0
   -2.1688   -0.9479   -0.6871 C   0  0  0  0  0  0  0  0  0  0  0  0
   -1.7066   -2.5504   -2.0575 H   0  0  0  0  0  0  0  0  0  0  0  0
    0.7076   -1.9214   -2.2410 H   0  0  0  0  0  0  0  0  0  0  0  0
    0.0667    1.3637    0.4832 H   0  0  0  0  0  0  0  0  0  0  0  0
   -2.3307    0.7470    0.6716 H   0  0  0  0  0  0  0  0  0  0  0  0
    1.7717    0.0464   -1.0117 N   0  0  0  0  0  0  0  0  0  0  0  0
    2.6832    0.7229   -0.7410 N   0  0  0  0  0  0  0  0  0  0  0  0
    2.2534    2.3770    0.6605 Cl  0  0  0  0  0  0  0  0  0  0  0  0
   -3.4495   -1.3680   -0.6568 O   0  0  0  0  0  0  0  0  0  0  0  0
   -4.3954   -0.6607    0.1542 C   0  0  0  0  0  0  0  0  0  0  0  0
   -5.3456   -1.1825    0.0139 H   0  0  0  0  0  0  0  0  0  0  0  0
   -4.4921    0.3826   -0.1775 H   0  0  0  0  0  0  0  0  0  0  0  0
   -4.1055   -0.6956    1.2138 H   0  0  0  0  0  0  0  0  0  0  0  0
  1  6  1  0  0  0  0
  2  1  2  0  0  0  0
  2  3  1  0  0  0  0
  3  4  2  0  0  0  0
  4  5  1  0  0  0  0
  4  9  1  0  0  0  0
  5 10  1  0  0  0  0
  6 14  1  0  0  0  0
  6  5  2  0  0  0  0
  7  1  1  0  0  0  0
  8  2  1  0  0  0  0
 11  3  1  0  0  0  0
 11 12  2  0  0  0  0
 14 15  1  0  0  0  0
 15 18  1  0  0  0  0
 16 15  1  0  0  0  0
 17 15  1  0  0  0  0
M  RAD  2  12   2  13   2
M  END
