Coordinates from ORCA-job p-CH3O-Ph-N2-Cl-B3LYPG-aug-cc-pVDZ-scan-d09-49-n400
 OpenBabel11081710393D

 18 16  0  0  0  0  0  0  0  0999 V2000
   -1.4259   -1.7164   -1.4891 C   0  0  0  0  0  0  0  0  0  0  0  0
   -0.0596   -1.4240   -1.6425 C   0  0  0  0  0  0  0  0  0  0  0  0
    0.2271   -0.3213   -0.8678 C   0  0  0  0  0  0  0  0  0  0  0  0
   -0.4454    0.4183   -0.1077 C   0  0  0  0  0  0  0  0  0  0  0  0
   -1.8159    0.1713    0.0820 C   0  0  0  0  0  0  0  0  0  0  0  0
   -2.2825   -0.9460   -0.6540 C   0  0  0  0  0  0  0  0  0  0  0  0
   -1.8609   -2.5614   -2.0230 H   0  0  0  0  0  0  0  0  0  0  0  0
    0.6132   -1.9974   -2.2739 H   0  0  0  0  0  0  0  0  0  0  0  0
    0.1929    1.9378    0.8922 H   0  0  0  0  0  0  0  0  0  0  0  0
   -2.4592    0.7675    0.7229 H   0  0  0  0  0  0  0  0  0  0  0  0
    3.5089   -0.3213   -1.7798 N   0  0  0  0  0  0  0  0  0  0  0  0
    4.4560    0.2234   -1.6188 N   0  0  0  0  0  0  0  0  0  0  0  0
    0.4624    3.0022    1.6420 Cl  0  0  0  0  0  0  0  0  0  0  0  0
   -3.5776   -1.3774   -0.6281 O   0  0  0  0  0  0  0  0  0  0  0  0
   -4.5094   -0.6653    0.1827 C   0  0  0  0  0  0  0  0  0  0  0  0
   -5.4670   -1.1778    0.0519 H   0  0  0  0  0  0  0  0  0  0  0  0
   -4.6034    0.3808   -0.1463 H   0  0  0  0  0  0  0  0  0  0  0  0
   -4.2170   -0.6960    1.2433 H   0  0  0  0  0  0  0  0  0  0  0  0
  1  6  1  0  0  0  0
  2  1  2  0  0  0  0
  2  3  1  0  0  0  0
  3  4  2  0  0  0  0
  4  5  1  0  0  0  0
  5 10  1  0  0  0  0
  6 14  1  0  0  0  0
  6  5  2  0  0  0  0
  7  1  1  0  0  0  0
  8  2  1  0  0  0  0
  9 13  1  0  0  0  0
 11 12  3  0  0  0  0
 14 15  1  0  0  0  0
 15 18  1  0  0  0  0
 16 15  1  0  0  0  0
 17 15  1  0  0  0  0
M  RAD  2   3   2   4   2
M  END
