Coordinates from ORCA-job p-CH3O-Ph-N2-Cl-B3LYPG-aug-cc-pVDZ-scan-d09-49-n400
 OpenBabel11081710393D

 18 17  0  0  0  0  0  0  0  0999 V2000
   -1.3615   -1.7328   -1.5195 C   0  0  0  0  0  0  0  0  0  0  0  0
   -0.0113   -1.4069   -1.6425 C   0  0  0  0  0  0  0  0  0  0  0  0
    0.3914   -0.3135   -0.9075 C   0  0  0  0  0  0  0  0  0  0  0  0
   -0.3456    0.4882   -0.0815 C   0  0  0  0  0  0  0  0  0  0  0  0
   -1.7026    0.1366    0.0234 C   0  0  0  0  0  0  0  0  0  0  0  0
   -2.2060   -0.9655   -0.6903 C   0  0  0  0  0  0  0  0  0  0  0  0
   -1.7800   -2.5805   -2.0597 H   0  0  0  0  0  0  0  0  0  0  0  0
    0.6707   -1.9738   -2.2713 H   0  0  0  0  0  0  0  0  0  0  0  0
    0.1023    1.3319    0.4475 H   0  0  0  0  0  0  0  0  0  0  0  0
   -2.3418    0.7365    0.6658 H   0  0  0  0  0  0  0  0  0  0  0  0
    2.2004    0.0842   -1.1024 N   0  0  0  0  0  0  0  0  0  0  0  0
    2.9016    0.8819   -0.6785 N   0  0  0  0  0  0  0  0  0  0  0  0
    2.1483    2.4791    0.7715 Cl  0  0  0  0  0  0  0  0  0  0  0  0
   -3.4999   -1.3752   -0.6480 O   0  0  0  0  0  0  0  0  0  0  0  0
   -4.4204   -0.6502    0.1695 C   0  0  0  0  0  0  0  0  0  0  0  0
   -5.3827   -1.1548    0.0461 H   0  0  0  0  0  0  0  0  0  0  0  0
   -4.5065    0.3946   -0.1638 H   0  0  0  0  0  0  0  0  0  0  0  0
   -4.1199   -0.6828    1.2271 H   0  0  0  0  0  0  0  0  0  0  0  0
  1  6  1  0  0  0  0
  2  1  2  0  0  0  0
  2  3  1  0  0  0  0
  3  4  2  0  0  0  0
  4  5  1  0  0  0  0
  4  9  1  0  0  0  0
  5 10  1  0  0  0  0
  6 14  1  0  0  0  0
  6  5  2  0  0  0  0
  7  1  1  0  0  0  0
  8  2  1  0  0  0  0
 11  3  1  0  0  0  0
 11 12  2  0  0  0  0
 14 15  1  0  0  0  0
 15 18  1  0  0  0  0
 16 15  1  0  0  0  0
 17 15  1  0  0  0  0
M  RAD  2  12   2  13   2
M  END
