Coordinates from ORCA-job p-CH3O-Ph-N2-Cl-B3LYPG-aug-cc-pVDZ-scan-d09-49-n400
 OpenBabel11081710393D

 18 16  0  0  0  0  0  0  0  0999 V2000
   -1.4245   -1.7192   -1.4917 C   0  0  0  0  0  0  0  0  0  0  0  0
   -0.0579   -1.4289   -1.6468 C   0  0  0  0  0  0  0  0  0  0  0  0
    0.2309   -0.3263   -0.8728 C   0  0  0  0  0  0  0  0  0  0  0  0
   -0.4389    0.4151   -0.1120 C   0  0  0  0  0  0  0  0  0  0  0  0
   -1.8097    0.1697    0.0790 C   0  0  0  0  0  0  0  0  0  0  0  0
   -2.2789   -0.9471   -0.6559 C   0  0  0  0  0  0  0  0  0  0  0  0
   -1.8613   -2.5638   -2.0247 H   0  0  0  0  0  0  0  0  0  0  0  0
    0.6134   -2.0033   -2.2786 H   0  0  0  0  0  0  0  0  0  0  0  0
    0.2019    1.9324    0.8855 H   0  0  0  0  0  0  0  0  0  0  0  0
   -2.4513    0.7671    0.7204 H   0  0  0  0  0  0  0  0  0  0  0  0
    3.4684   -0.3063   -1.7569 N   0  0  0  0  0  0  0  0  0  0  0  0
    4.4187    0.2339   -1.6004 N   0  0  0  0  0  0  0  0  0  0  0  0
    0.4757    2.9969    1.6343 Cl  0  0  0  0  0  0  0  0  0  0  0  0
   -3.5747   -1.3765   -0.6283 O   0  0  0  0  0  0  0  0  0  0  0  0
   -4.5044   -0.6627    0.1833 C   0  0  0  0  0  0  0  0  0  0  0  0
   -5.4629   -1.1738    0.0538 H   0  0  0  0  0  0  0  0  0  0  0  0
   -4.5972    0.3834   -0.1460 H   0  0  0  0  0  0  0  0  0  0  0  0
   -4.2108   -0.6934    1.2436 H   0  0  0  0  0  0  0  0  0  0  0  0
  1  6  1  0  0  0  0
  2  1  2  0  0  0  0
  2  3  1  0  0  0  0
  3  4  2  0  0  0  0
  4  5  1  0  0  0  0
  5 10  1  0  0  0  0
  6 14  1  0  0  0  0
  6  5  2  0  0  0  0
  7  1  1  0  0  0  0
  8  2  1  0  0  0  0
  9 13  1  0  0  0  0
 11 12  3  0  0  0  0
 14 15  1  0  0  0  0
 15 18  1  0  0  0  0
 16 15  1  0  0  0  0
 17 15  1  0  0  0  0
M  RAD  2   3   2   4   2
M  END
