Coordinates from ORCA-job p-CH3O-Ph-N2-Cl-B3LYPG-aug-cc-pVDZ-scan-d09-49-n400
 OpenBabel11081710393D

 18 16  0  0  0  0  0  0  0  0999 V2000
   -1.3723   -1.7449   -1.5260 C   0  0  0  0  0  0  0  0  0  0  0  0
   -0.0178   -1.4315   -1.6598 C   0  0  0  0  0  0  0  0  0  0  0  0
    0.3735   -0.3404   -0.9232 C   0  0  0  0  0  0  0  0  0  0  0  0
   -0.3329    0.4748   -0.0953 C   0  0  0  0  0  0  0  0  0  0  0  0
   -1.6939    0.1312    0.0169 C   0  0  0  0  0  0  0  0  0  0  0  0
   -2.2067   -0.9693   -0.6931 C   0  0  0  0  0  0  0  0  0  0  0  0
   -1.7994   -2.5908   -2.0625 H   0  0  0  0  0  0  0  0  0  0  0  0
    0.6587   -2.0025   -2.2902 H   0  0  0  0  0  0  0  0  0  0  0  0
    0.1345    1.3172    0.4275 H   0  0  0  0  0  0  0  0  0  0  0  0
   -2.3251    0.7371    0.6618 H   0  0  0  0  0  0  0  0  0  0  0  0
    2.2470    0.0976   -1.1047 N   0  0  0  0  0  0  0  0  0  0  0  0
    2.9119    0.9066   -0.6621 N   0  0  0  0  0  0  0  0  0  0  0  0
    2.0619    2.5241    0.8296 Cl  0  0  0  0  0  0  0  0  0  0  0  0
   -3.5029   -1.3711   -0.6440 O   0  0  0  0  0  0  0  0  0  0  0  0
   -4.4147   -0.6386    0.1769 C   0  0  0  0  0  0  0  0  0  0  0  0
   -5.3808   -1.1373    0.0591 H   0  0  0  0  0  0  0  0  0  0  0  0
   -4.4956    0.4061   -0.1579 H   0  0  0  0  0  0  0  0  0  0  0  0
   -4.1090   -0.6715    1.2330 H   0  0  0  0  0  0  0  0  0  0  0  0
  1  6  1  0  0  0  0
  2  1  2  0  0  0  0
  2  3  1  0  0  0  0
  3  4  2  0  0  0  0
  4  5  1  0  0  0  0
  4  9  1  0  0  0  0
  5 10  1  0  0  0  0
  6 14  1  0  0  0  0
  6  5  2  0  0  0  0
  7  1  1  0  0  0  0
  8  2  1  0  0  0  0
 11 12  3  0  0  0  0
 14 15  1  0  0  0  0
 15 18  1  0  0  0  0
 16 15  1  0  0  0  0
 17 15  1  0  0  0  0
M  RAD  2   3   2  13   2
M  END
