Coordinates from ORCA-job p-CH3O-Ph-N2-Cl-B3LYPG-aug-cc-pVDZ-scan-d09-49-n400
 OpenBabel11081710393D

 18 16  0  0  0  0  0  0  0  0999 V2000
   -1.4038   -1.7817   -1.5460 C   0  0  0  0  0  0  0  0  0  0  0  0
   -0.0338   -1.5358   -1.7363 C   0  0  0  0  0  0  0  0  0  0  0  0
    0.3081   -0.4471   -0.9876 C   0  0  0  0  0  0  0  0  0  0  0  0
   -0.2471    0.3932   -0.1821 C   0  0  0  0  0  0  0  0  0  0  0  0
   -1.6315    0.1292   -0.0018 C   0  0  0  0  0  0  0  0  0  0  0  0
   -2.1902   -0.9640   -0.6936 C   0  0  0  0  0  0  0  0  0  0  0  0
   -1.8790   -2.6164   -2.0608 H   0  0  0  0  0  0  0  0  0  0  0  0
    0.6078   -2.1331   -2.3776 H   0  0  0  0  0  0  0  0  0  0  0  0
    0.2662    1.3829    0.4423 H   0  0  0  0  0  0  0  0  0  0  0  0
   -2.2125    0.7708    0.6570 H   0  0  0  0  0  0  0  0  0  0  0  0
    2.5926    0.0675   -1.2237 N   0  0  0  0  0  0  0  0  0  0  0  0
    3.3514    0.7900   -0.8739 N   0  0  0  0  0  0  0  0  0  0  0  0
    0.8616    2.6482    1.2574 Cl  0  0  0  0  0  0  0  0  0  0  0  0
   -3.4985   -1.3268   -0.6111 O   0  0  0  0  0  0  0  0  0  0  0  0
   -4.3626   -0.5561    0.2264 C   0  0  0  0  0  0  0  0  0  0  0  0
   -5.3480   -1.0221    0.1392 H   0  0  0  0  0  0  0  0  0  0  0  0
   -4.4153    0.4880   -0.1159 H   0  0  0  0  0  0  0  0  0  0  0  0
   -4.0289   -0.5893    1.2741 H   0  0  0  0  0  0  0  0  0  0  0  0
  1  6  1  0  0  0  0
  2  1  2  0  0  0  0
  2  3  1  0  0  0  0
  3  4  2  0  0  0  0
  4  5  1  0  0  0  0
  4  9  1  0  0  0  0
  5 10  1  0  0  0  0
  6 14  1  0  0  0  0
  6  5  2  0  0  0  0
  7  1  1  0  0  0  0
  8  2  1  0  0  0  0
 11 12  3  0  0  0  0
 14 15  1  0  0  0  0
 15 18  1  0  0  0  0
 16 15  1  0  0  0  0
 17 15  1  0  0  0  0
M  RAD  2   3   2  13   2
M  END
