Coordinates from ORCA-job p-CH3O-Ph-N2-Cl-B3LYPG-aug-cc-pVDZ-scan-d09-49-n400
 OpenBabel11081710393D

 18 16  0  0  0  0  0  0  0  0999 V2000
   -1.4271   -1.7134   -1.4865 C   0  0  0  0  0  0  0  0  0  0  0  0
   -0.0611   -1.4189   -1.6382 C   0  0  0  0  0  0  0  0  0  0  0  0
    0.2233   -0.3160   -0.8626 C   0  0  0  0  0  0  0  0  0  0  0  0
   -0.4519    0.4218   -0.1032 C   0  0  0  0  0  0  0  0  0  0  0  0
   -1.8222    0.1729    0.0850 C   0  0  0  0  0  0  0  0  0  0  0  0
   -2.2859   -0.9447   -0.6521 C   0  0  0  0  0  0  0  0  0  0  0  0
   -1.8602   -2.5589   -2.0212 H   0  0  0  0  0  0  0  0  0  0  0  0
    0.6132   -1.9911   -2.2690 H   0  0  0  0  0  0  0  0  0  0  0  0
    0.1835    1.9436    0.8993 H   0  0  0  0  0  0  0  0  0  0  0  0
   -2.4670    0.7679    0.7254 H   0  0  0  0  0  0  0  0  0  0  0  0
    3.5492   -0.3371   -1.8033 N   0  0  0  0  0  0  0  0  0  0  0  0
    4.4930    0.2119   -1.6380 N   0  0  0  0  0  0  0  0  0  0  0  0
    0.4485    3.0079    1.6503 Cl  0  0  0  0  0  0  0  0  0  0  0  0
   -3.5805   -1.3782   -0.6280 O   0  0  0  0  0  0  0  0  0  0  0  0
   -4.5143   -0.6680    0.1820 C   0  0  0  0  0  0  0  0  0  0  0  0
   -5.4710   -1.1819    0.0498 H   0  0  0  0  0  0  0  0  0  0  0  0
   -4.6097    0.3781   -0.1467 H   0  0  0  0  0  0  0  0  0  0  0  0
   -4.2233   -0.6987    1.2430 H   0  0  0  0  0  0  0  0  0  0  0  0
  1  6  1  0  0  0  0
  2  1  2  0  0  0  0
  2  3  1  0  0  0  0
  3  4  2  0  0  0  0
  4  5  1  0  0  0  0
  5 10  1  0  0  0  0
  6 14  1  0  0  0  0
  6  5  2  0  0  0  0
  7  1  1  0  0  0  0
  8  2  1  0  0  0  0
  9 13  1  0  0  0  0
 11 12  3  0  0  0  0
 14 15  1  0  0  0  0
 15 18  1  0  0  0  0
 16 15  1  0  0  0  0
 17 15  1  0  0  0  0
M  RAD  2   3   2   4   2
M  END
