Coordinates from ORCA-job p-CH3O-Ph-N2-Cl-B3LYPG-aug-cc-pVDZ-scan-d09-49-n400
 OpenBabel11081710393D

 18 17  0  0  0  0  0  0  0  0999 V2000
   -1.3531   -1.7257   -1.5168 C   0  0  0  0  0  0  0  0  0  0  0  0
   -0.0055   -1.3939   -1.6340 C   0  0  0  0  0  0  0  0  0  0  0  0
    0.4087   -0.2992   -0.9003 C   0  0  0  0  0  0  0  0  0  0  0  0
   -0.3482    0.4935   -0.0753 C   0  0  0  0  0  0  0  0  0  0  0  0
   -1.7027    0.1397    0.0267 C   0  0  0  0  0  0  0  0  0  0  0  0
   -2.2024   -0.9627   -0.6892 C   0  0  0  0  0  0  0  0  0  0  0  0
   -1.7679   -2.5738   -2.0592 H   0  0  0  0  0  0  0  0  0  0  0  0
    0.6781   -1.9596   -2.2625 H   0  0  0  0  0  0  0  0  0  0  0  0
    0.0916    1.3372    0.4567 H   0  0  0  0  0  0  0  0  0  0  0  0
   -2.3456    0.7366    0.6682 H   0  0  0  0  0  0  0  0  0  0  0  0
    2.1508    0.0741   -1.0949 N   0  0  0  0  0  0  0  0  0  0  0  0
    2.8766    0.8641   -0.6850 N   0  0  0  0  0  0  0  0  0  0  0  0
    2.1807    2.4553    0.7390 Cl  0  0  0  0  0  0  0  0  0  0  0  0
   -3.4951   -1.3757   -0.6503 O   0  0  0  0  0  0  0  0  0  0  0  0
   -4.4197   -0.6543    0.1658 C   0  0  0  0  0  0  0  0  0  0  0  0
   -5.3802   -1.1616    0.0393 H   0  0  0  0  0  0  0  0  0  0  0  0
   -4.5079    0.3906   -0.1663 H   0  0  0  0  0  0  0  0  0  0  0  0
   -4.1217   -0.6874    1.2241 H   0  0  0  0  0  0  0  0  0  0  0  0
  1  6  1  0  0  0  0
  2  1  2  0  0  0  0
  2  3  1  0  0  0  0
  3  4  2  0  0  0  0
  4  5  1  0  0  0  0
  4  9  1  0  0  0  0
  5 10  1  0  0  0  0
  6 14  1  0  0  0  0
  6  5  2  0  0  0  0
  7  1  1  0  0  0  0
  8  2  1  0  0  0  0
 11  3  1  0  0  0  0
 11 12  2  0  0  0  0
 14 15  1  0  0  0  0
 15 18  1  0  0  0  0
 16 15  1  0  0  0  0
 17 15  1  0  0  0  0
M  RAD  2  12   2  13   2
M  END
