Coordinates from ORCA-job p-CH3O-Ph-N2-Cl-B3LYPG-aug-cc-pVDZ-scan-d09-49-n400
 OpenBabel11081710393D

 18 16  0  0  0  0  0  0  0  0999 V2000
   -1.3102   -1.5266   -1.3744 C   0  0  0  0  0  0  0  0  0  0  0  0
    0.0310   -1.1083   -1.4236 C   0  0  0  0  0  0  0  0  0  0  0  0
    0.1634   -0.0047   -0.6054 C   0  0  0  0  0  0  0  0  0  0  0  0
   -0.6345    0.6410    0.1168 C   0  0  0  0  0  0  0  0  0  0  0  0
   -1.9854    0.2702    0.2055 C   0  0  0  0  0  0  0  0  0  0  0  0
   -2.2922   -0.8633   -0.5873 C   0  0  0  0  0  0  0  0  0  0  0  0
   -1.6264   -2.3922   -1.9570 H   0  0  0  0  0  0  0  0  0  0  0  0
    0.7892   -1.6071   -2.0210 H   0  0  0  0  0  0  0  0  0  0  0  0
   -0.2011    2.2005    1.2045 H   0  0  0  0  0  0  0  0  0  0  0  0
   -2.7236    0.7874    0.8116 H   0  0  0  0  0  0  0  0  0  0  0  0
    4.1544   -1.0128   -2.4944 N   0  0  0  0  0  0  0  0  0  0  0  0
    5.2118   -0.6983   -2.5413 N   0  0  0  0  0  0  0  0  0  0  0  0
   -0.1013    3.2598    1.9976 Cl  0  0  0  0  0  0  0  0  0  0  0  0
   -3.5399   -1.4124   -0.6654 O   0  0  0  0  0  0  0  0  0  0  0  0
   -4.5888   -0.8125    0.0912 C   0  0  0  0  0  0  0  0  0  0  0  0
   -5.4827   -1.4065   -0.1203 H   0  0  0  0  0  0  0  0  0  0  0  0
   -4.7569    0.2297   -0.2204 H   0  0  0  0  0  0  0  0  0  0  0  0
   -4.3702   -0.8469    1.1693 H   0  0  0  0  0  0  0  0  0  0  0  0
  1  6  1  0  0  0  0
  2  1  2  0  0  0  0
  2  3  1  0  0  0  0
  3  4  2  0  0  0  0
  4  5  1  0  0  0  0
  5 10  1  0  0  0  0
  6  5  2  0  0  0  0
  7  1  1  0  0  0  0
  8  2  1  0  0  0  0
  9 13  1  0  0  0  0
 12 11  3  0  0  0  0
 14  6  1  0  0  0  0
 14 15  1  0  0  0  0
 15 18  1  0  0  0  0
 16 15  1  0  0  0  0
 17 15  1  0  0  0  0
M  RAD  2   3   2   4   2
M  END
