Coordinates from ORCA-job p-CH3O-Ph-N2-Cl-B3LYPG-aug-cc-pVDZ-scan-d09-49-n400
 OpenBabel11081710393D

 18 16  0  0  0  0  0  0  0  0999 V2000
   -1.3862   -1.7660   -1.5385 C   0  0  0  0  0  0  0  0  0  0  0  0
   -0.0256   -1.4768   -1.6927 C   0  0  0  0  0  0  0  0  0  0  0  0
    0.3561   -0.3888   -0.9557 C   0  0  0  0  0  0  0  0  0  0  0  0
   -0.2993    0.4466   -0.1262 C   0  0  0  0  0  0  0  0  0  0  0  0
   -1.6672    0.1228    0.0032 C   0  0  0  0  0  0  0  0  0  0  0  0
   -2.2005   -0.9741   -0.6985 C   0  0  0  0  0  0  0  0  0  0  0  0
   -1.8307   -2.6080   -2.0674 H   0  0  0  0  0  0  0  0  0  0  0  0
    0.6381   -2.0575   -2.3273 H   0  0  0  0  0  0  0  0  0  0  0  0
    0.2021    1.2915    0.3892 H   0  0  0  0  0  0  0  0  0  0  0  0
   -2.2813    0.7410    0.6529 H   0  0  0  0  0  0  0  0  0  0  0  0
    2.2990    0.1149   -1.1055 N   0  0  0  0  0  0  0  0  0  0  0  0
    2.9011    0.9416   -0.6319 N   0  0  0  0  0  0  0  0  0  0  0  0
    1.8371    2.5880    0.9407 Cl  0  0  0  0  0  0  0  0  0  0  0  0
   -3.5009   -1.3589   -0.6352 O   0  0  0  0  0  0  0  0  0  0  0  0
   -4.3946   -0.6110    0.1926 C   0  0  0  0  0  0  0  0  0  0  0  0
   -5.3682   -1.0972    0.0865 H   0  0  0  0  0  0  0  0  0  0  0  0
   -4.4644    0.4333   -0.1454 H   0  0  0  0  0  0  0  0  0  0  0  0
   -4.0779   -0.6444    1.2455 H   0  0  0  0  0  0  0  0  0  0  0  0
  1  6  1  0  0  0  0
  2  1  2  0  0  0  0
  2  3  1  0  0  0  0
  3  4  2  0  0  0  0
  4  5  1  0  0  0  0
  4  9  1  0  0  0  0
  5 10  1  0  0  0  0
  6 14  1  0  0  0  0
  6  5  2  0  0  0  0
  7  1  1  0  0  0  0
  8  2  1  0  0  0  0
 11 12  3  0  0  0  0
 14 15  1  0  0  0  0
 15 18  1  0  0  0  0
 16 15  1  0  0  0  0
 17 15  1  0  0  0  0
M  RAD  2   3   2  13   2
M  END
