Coordinates from ORCA-job p-CH3O-Ph-N2-Cl-B3LYPG-aug-cc-pVDZ-scan-d09-49-n400
 OpenBabel11081710393D

 18 17  0  0  0  0  0  0  0  0999 V2000
   -1.1494   -1.6825   -1.2133 C   0  0  0  0  0  0  0  0  0  0  0  0
    0.1168   -1.1795   -1.3931 C   0  0  0  0  0  0  0  0  0  0  0  0
    0.4618    0.1673   -0.9731 C   0  0  0  0  0  0  0  0  0  0  0  0
   -0.6014    0.9251   -0.3548 C   0  0  0  0  0  0  0  0  0  0  0  0
   -1.8688    0.3982   -0.1843 C   0  0  0  0  0  0  0  0  0  0  0  0
   -2.1629   -0.9096   -0.6098 C   0  0  0  0  0  0  0  0  0  0  0  0
   -1.3836   -2.6975   -1.5313 H   0  0  0  0  0  0  0  0  0  0  0  0
    0.9053   -1.7780   -1.8469 H   0  0  0  0  0  0  0  0  0  0  0  0
   -0.3638    1.9325   -0.0166 H   0  0  0  0  0  0  0  0  0  0  0  0
   -2.6233    1.0193    0.2919 H   0  0  0  0  0  0  0  0  0  0  0  0
    1.4481    0.5646   -1.0964 N   0  0  0  0  0  0  0  0  0  0  0  0
    2.5443    0.9192   -1.0615 N   0  0  0  0  0  0  0  0  0  0  0  0
    3.3628    0.1974    1.0449 Cl  0  0  0  0  0  0  0  0  0  0  0  0
   -3.3678   -1.5091   -0.4869 O   0  0  0  0  0  0  0  0  0  0  0  0
   -4.4344   -0.7897    0.1386 C   0  0  0  0  0  0  0  0  0  0  0  0
   -5.2899   -1.4703    0.1314 H   0  0  0  0  0  0  0  0  0  0  0  0
   -4.6805    0.1197   -0.4287 H   0  0  0  0  0  0  0  0  0  0  0  0
   -4.1768   -0.5300    1.1756 H   0  0  0  0  0  0  0  0  0  0  0  0
  1  6  1  0  0  0  0
  2  1  2  0  0  0  0
  2  3  1  0  0  0  0
  3  4  2  0  0  0  0
  4  5  1  0  0  0  0
  4  9  1  0  0  0  0
  5 10  1  0  0  0  0
  6 14  1  0  0  0  0
  6  5  2  0  0  0  0
  7  1  1  0  0  0  0
  8  2  1  0  0  0  0
 11 12  1  0  0  0  0
 11  3  1  0  0  0  0
 14 15  1  0  0  0  0
 15 18  1  0  0  0  0
 16 15  1  0  0  0  0
 17 15  1  0  0  0  0
M  RAD  3  11   2  12   3  13   2
M  END
