Coordinates from ORCA-job p-CH3O-Ph-N2-Cl-B3LYPG-aug-cc-pVDZ-scan-d09-49-n400
 OpenBabel11081710393D

 18 16  0  0  0  0  0  0  0  0999 V2000
   -1.3810   -1.6304   -1.4352 C   0  0  0  0  0  0  0  0  0  0  0  0
   -0.0235   -1.2796   -1.5410 C   0  0  0  0  0  0  0  0  0  0  0  0
    0.1920   -0.1746   -0.7447 C   0  0  0  0  0  0  0  0  0  0  0  0
   -0.5410    0.5220   -0.0010 C   0  0  0  0  0  0  0  0  0  0  0  0
   -1.9044    0.2184    0.1429 C   0  0  0  0  0  0  0  0  0  0  0  0
   -2.2975   -0.9086   -0.6210 C   0  0  0  0  0  0  0  0  0  0  0  0
   -1.7617   -2.4864   -1.9926 H   0  0  0  0  0  0  0  0  0  0  0  0
    0.6875   -1.8213   -2.1585 H   0  0  0  0  0  0  0  0  0  0  0  0
    0.0057    2.0668    1.0439 H   0  0  0  0  0  0  0  0  0  0  0  0
   -2.5927    0.7790    0.7688 H   0  0  0  0  0  0  0  0  0  0  0  0
    3.8863   -0.6511   -2.1400 N   0  0  0  0  0  0  0  0  0  0  0  0
    4.8901   -0.1975   -2.0643 N   0  0  0  0  0  0  0  0  0  0  0  0
    0.1924    3.1306    1.8162 Cl  0  0  0  0  0  0  0  0  0  0  0  0
   -3.5730   -1.3955   -0.6434 O   0  0  0  0  0  0  0  0  0  0  0  0
   -4.5607   -0.7343    0.1438 C   0  0  0  0  0  0  0  0  0  0  0  0
   -5.4904   -1.2857   -0.0247 H   0  0  0  0  0  0  0  0  0  0  0  0
   -4.6892    0.3108   -0.1764 H   0  0  0  0  0  0  0  0  0  0  0  0
   -4.3024   -0.7659    1.2132 H   0  0  0  0  0  0  0  0  0  0  0  0
  1  6  1  0  0  0  0
  2  1  2  0  0  0  0
  2  3  1  0  0  0  0
  3  4  2  0  0  0  0
  4  5  1  0  0  0  0
  5 10  1  0  0  0  0
  6  5  2  0  0  0  0
  7  1  1  0  0  0  0
  8  2  1  0  0  0  0
  9 13  1  0  0  0  0
 11 12  3  0  0  0  0
 14  6  1  0  0  0  0
 14 15  1  0  0  0  0
 15 18  1  0  0  0  0
 16 15  1  0  0  0  0
 17 15  1  0  0  0  0
M  RAD  2   3   2   4   2
M  END
