Coordinates from ORCA-job p-CH3O-Ph-N2-Cl-B3LYPG-aug-cc-pVDZ-scan-d09-49-n400
 OpenBabel11081710393D

 18 16  0  0  0  0  0  0  0  0999 V2000
   -1.4232   -1.7212   -1.4937 C   0  0  0  0  0  0  0  0  0  0  0  0
   -0.0564   -1.4325   -1.6500 C   0  0  0  0  0  0  0  0  0  0  0  0
    0.2341   -0.3301   -0.8766 C   0  0  0  0  0  0  0  0  0  0  0  0
   -0.4336    0.4127   -0.1152 C   0  0  0  0  0  0  0  0  0  0  0  0
   -1.8046    0.1685    0.0768 C   0  0  0  0  0  0  0  0  0  0  0  0
   -2.2758   -0.9479   -0.6573 C   0  0  0  0  0  0  0  0  0  0  0  0
   -1.8613   -2.5655   -2.0261 H   0  0  0  0  0  0  0  0  0  0  0  0
    0.6139   -2.0077   -2.2822 H   0  0  0  0  0  0  0  0  0  0  0  0
    0.2086    1.9279    0.8802 H   0  0  0  0  0  0  0  0  0  0  0  0
   -2.4451    0.7669    0.7185 H   0  0  0  0  0  0  0  0  0  0  0  0
    3.4358   -0.2949   -1.7390 N   0  0  0  0  0  0  0  0  0  0  0  0
    4.3889    0.2415   -1.5862 N   0  0  0  0  0  0  0  0  0  0  0  0
    0.4852    2.9924    1.6281 Cl  0  0  0  0  0  0  0  0  0  0  0  0
   -3.5721   -1.3758   -0.6285 O   0  0  0  0  0  0  0  0  0  0  0  0
   -4.5003   -0.6607    0.1838 C   0  0  0  0  0  0  0  0  0  0  0  0
   -5.4595   -1.1706    0.0553 H   0  0  0  0  0  0  0  0  0  0  0  0
   -4.5922    0.3854   -0.1458 H   0  0  0  0  0  0  0  0  0  0  0  0
   -4.2058   -0.6914    1.2438 H   0  0  0  0  0  0  0  0  0  0  0  0
  1  6  1  0  0  0  0
  2  1  2  0  0  0  0
  2  3  1  0  0  0  0
  3  4  2  0  0  0  0
  4  5  1  0  0  0  0
  5 10  1  0  0  0  0
  6 14  1  0  0  0  0
  6  5  2  0  0  0  0
  7  1  1  0  0  0  0
  8  2  1  0  0  0  0
  9 13  1  0  0  0  0
 11 12  3  0  0  0  0
 14 15  1  0  0  0  0
 15 18  1  0  0  0  0
 16 15  1  0  0  0  0
 17 15  1  0  0  0  0
M  RAD  2   3   2   4   2
M  END
