Coordinates from ORCA-job p-CH3O-Ph-N2-Cl-B3LYPG-aug-cc-pVDZ-scan-d09-49-n400
 OpenBabel11081710393D

 18 17  0  0  0  0  0  0  0  0999 V2000
   -1.1545   -1.6840   -1.2221 C   0  0  0  0  0  0  0  0  0  0  0  0
    0.1114   -1.1749   -1.4123 C   0  0  0  0  0  0  0  0  0  0  0  0
    0.4379    0.1590   -0.9899 C   0  0  0  0  0  0  0  0  0  0  0  0
   -0.5995    0.9242   -0.3728 C   0  0  0  0  0  0  0  0  0  0  0  0
   -1.8694    0.3984   -0.1910 C   0  0  0  0  0  0  0  0  0  0  0  0
   -2.1625   -0.9104   -0.6121 C   0  0  0  0  0  0  0  0  0  0  0  0
   -1.3912   -2.6995   -1.5361 H   0  0  0  0  0  0  0  0  0  0  0  0
    0.8938   -1.7754   -1.8734 H   0  0  0  0  0  0  0  0  0  0  0  0
   -0.3641    1.9330   -0.0374 H   0  0  0  0  0  0  0  0  0  0  0  0
   -2.6220    1.0183    0.2890 H   0  0  0  0  0  0  0  0  0  0  0  0
    1.4940    0.5906   -1.1385 N   0  0  0  0  0  0  0  0  0  0  0  0
    2.5937    0.9034   -1.0134 N   0  0  0  0  0  0  0  0  0  0  0  0
    3.2920    0.2061    1.0924 Cl  0  0  0  0  0  0  0  0  0  0  0  0
   -3.3668   -1.5118   -0.4790 O   0  0  0  0  0  0  0  0  0  0  0  0
   -4.4285   -0.7923    0.1535 C   0  0  0  0  0  0  0  0  0  0  0  0
   -5.2837   -1.4735    0.1546 H   0  0  0  0  0  0  0  0  0  0  0  0
   -4.6806    0.1160   -0.4133 H   0  0  0  0  0  0  0  0  0  0  0  0
   -4.1634   -0.5300    1.1879 H   0  0  0  0  0  0  0  0  0  0  0  0
  1  6  1  0  0  0  0
  2  1  2  0  0  0  0
  2  3  1  0  0  0  0
  3  4  2  0  0  0  0
  4  5  1  0  0  0  0
  4  9  1  0  0  0  0
  5 10  1  0  0  0  0
  6 14  1  0  0  0  0
  6  5  2  0  0  0  0
  7  1  1  0  0  0  0
  8  2  1  0  0  0  0
 11 12  1  0  0  0  0
 11  3  1  0  0  0  0
 14 15  1  0  0  0  0
 15 16  1  0  0  0  0
 15 18  1  0  0  0  0
 17 15  1  0  0  0  0
M  RAD  3  11   2  12   3  13   2
M  END
