Coordinates from ORCA-job p-CH3O-Ph-N2-Cl-B3LYPG-aug-cc-pVDZ-scan-d09-49-n400
 OpenBabel11081710393D

 18 16  0  0  0  0  0  0  0  0999 V2000
   -1.4200   -1.7887   -1.5469 C   0  0  0  0  0  0  0  0  0  0  0  0
   -0.0485   -1.5490   -1.7425 C   0  0  0  0  0  0  0  0  0  0  0  0
    0.2902   -0.4605   -0.9931 C   0  0  0  0  0  0  0  0  0  0  0  0
   -0.2538    0.3806   -0.1899 C   0  0  0  0  0  0  0  0  0  0  0  0
   -1.6402    0.1254   -0.0023 C   0  0  0  0  0  0  0  0  0  0  0  0
   -2.2021   -0.9674   -0.6929 C   0  0  0  0  0  0  0  0  0  0  0  0
   -1.9000   -2.6221   -2.0594 H   0  0  0  0  0  0  0  0  0  0  0  0
    0.5895   -2.1490   -2.3849 H   0  0  0  0  0  0  0  0  0  0  0  0
    0.2607    1.4016    0.4583 H   0  0  0  0  0  0  0  0  0  0  0  0
   -2.2180    0.7691    0.6572 H   0  0  0  0  0  0  0  0  0  0  0  0
    2.7093    0.0959   -1.2342 N   0  0  0  0  0  0  0  0  0  0  0  0
    3.4734    0.8142   -0.8888 N   0  0  0  0  0  0  0  0  0  0  0  0
    0.7971    2.6404    1.2693 Cl  0  0  0  0  0  0  0  0  0  0  0  0
   -3.5118   -1.3271   -0.6076 O   0  0  0  0  0  0  0  0  0  0  0  0
   -4.3718   -0.5535    0.2310 C   0  0  0  0  0  0  0  0  0  0  0  0
   -5.3588   -1.0167    0.1464 H   0  0  0  0  0  0  0  0  0  0  0  0
   -4.4225    0.4906   -0.1118 H   0  0  0  0  0  0  0  0  0  0  0  0
   -4.0361   -0.5866    1.2781 H   0  0  0  0  0  0  0  0  0  0  0  0
  1  6  1  0  0  0  0
  2  1  2  0  0  0  0
  2  3  1  0  0  0  0
  3  4  2  0  0  0  0
  4  5  1  0  0  0  0
  4  9  1  0  0  0  0
  5 10  1  0  0  0  0
  6 14  1  0  0  0  0
  6  5  2  0  0  0  0
  7  1  1  0  0  0  0
  8  2  1  0  0  0  0
 11 12  3  0  0  0  0
 14 15  1  0  0  0  0
 15 18  1  0  0  0  0
 16 15  1  0  0  0  0
 17 15  1  0  0  0  0
M  RAD  2   3   2  13   2
M  END
