Coordinates from ORCA-job p-CH3O-Ph-N2-Cl-B3LYPG-aug-cc-pVDZ-scan-d09-49-n400
 OpenBabel11081710393D

 18 16  0  0  0  0  0  0  0  0999 V2000
   -1.3016   -1.5155   -1.3682 C   0  0  0  0  0  0  0  0  0  0  0  0
    0.0375   -1.0902   -1.4114 C   0  0  0  0  0  0  0  0  0  0  0  0
    0.1618    0.0131   -0.5912 C   0  0  0  0  0  0  0  0  0  0  0  0
   -0.6434    0.6525    0.1282 C   0  0  0  0  0  0  0  0  0  0  0  0
   -1.9927    0.2755    0.2116 C   0  0  0  0  0  0  0  0  0  0  0  0
   -2.2903   -0.8586   -0.5841 C   0  0  0  0  0  0  0  0  0  0  0  0
   -1.6109   -2.3819   -1.9533 H   0  0  0  0  0  0  0  0  0  0  0  0
    0.8002   -1.5848   -2.0067 H   0  0  0  0  0  0  0  0  0  0  0  0
   -0.2218    2.2147    1.2212 H   0  0  0  0  0  0  0  0  0  0  0  0
   -2.7359    0.7880    0.8154 H   0  0  0  0  0  0  0  0  0  0  0  0
    4.1729   -1.0496   -2.5279 N   0  0  0  0  0  0  0  0  0  0  0  0
    5.2342   -0.7509   -2.5883 N   0  0  0  0  0  0  0  0  0  0  0  0
   -0.1316    3.2731    2.0162 Cl  0  0  0  0  0  0  0  0  0  0  0  0
   -3.5348   -1.4140   -0.6681 O   0  0  0  0  0  0  0  0  0  0  0  0
   -4.5898   -0.8207    0.0851 C   0  0  0  0  0  0  0  0  0  0  0  0
   -5.4798   -1.4190   -0.1309 H   0  0  0  0  0  0  0  0  0  0  0  0
   -4.7621    0.2210   -0.2257 H   0  0  0  0  0  0  0  0  0  0  0  0
   -4.3754   -0.8556    1.1641 H   0  0  0  0  0  0  0  0  0  0  0  0
  1  6  1  0  0  0  0
  2  1  2  0  0  0  0
  2  3  1  0  0  0  0
  3  4  2  0  0  0  0
  4  5  1  0  0  0  0
  5 10  1  0  0  0  0
  6  5  2  0  0  0  0
  7  1  1  0  0  0  0
  8  2  1  0  0  0  0
  9 13  1  0  0  0  0
 12 11  3  0  0  0  0
 14  6  1  0  0  0  0
 14 15  1  0  0  0  0
 15 18  1  0  0  0  0
 16 15  1  0  0  0  0
 17 15  1  0  0  0  0
M  RAD  2   3   2   4   2
M  END
