Coordinates from ORCA-job p-CH3O-Ph-N2-Cl-B3LYPG-aug-cc-pVDZ-scan-d09-49-n400
 OpenBabel11081710393D

 18 16  0  0  0  0  0  0  0  0999 V2000
   -1.4127   -1.7311   -1.5043 C   0  0  0  0  0  0  0  0  0  0  0  0
   -0.0451   -1.4499   -1.6666 C   0  0  0  0  0  0  0  0  0  0  0  0
    0.2542   -0.3485   -0.8964 C   0  0  0  0  0  0  0  0  0  0  0  0
   -0.4027    0.4026   -0.1317 C   0  0  0  0  0  0  0  0  0  0  0  0
   -1.7748    0.1630    0.0642 C   0  0  0  0  0  0  0  0  0  0  0  0
   -2.2567   -0.9515   -0.6654 C   0  0  0  0  0  0  0  0  0  0  0  0
   -1.8576   -2.5738   -2.0336 H   0  0  0  0  0  0  0  0  0  0  0  0
    0.6197   -2.0295   -2.3006 H   0  0  0  0  0  0  0  0  0  0  0  0
    0.2414    1.8999    0.8493 H   0  0  0  0  0  0  0  0  0  0  0  0
   -2.4090    0.7660    0.7078 H   0  0  0  0  0  0  0  0  0  0  0  0
    3.2454   -0.2433   -1.6460 N   0  0  0  0  0  0  0  0  0  0  0  0
    4.2042    0.2846   -1.5016 N   0  0  0  0  0  0  0  0  0  0  0  0
    0.5378    2.9657    1.5928 Cl  0  0  0  0  0  0  0  0  0  0  0  0
   -3.5554   -1.3714   -0.6297 O   0  0  0  0  0  0  0  0  0  0  0  0
   -4.4754   -0.6492    0.1858 C   0  0  0  0  0  0  0  0  0  0  0  0
   -5.4383   -1.1535    0.0627 H   0  0  0  0  0  0  0  0  0  0  0  0
   -4.5624    0.3969   -0.1451 H   0  0  0  0  0  0  0  0  0  0  0  0
   -4.1761   -0.6799    1.2444 H   0  0  0  0  0  0  0  0  0  0  0  0
  1  6  1  0  0  0  0
  2  1  2  0  0  0  0
  2  3  1  0  0  0  0
  3  4  2  0  0  0  0
  4  5  1  0  0  0  0
  5 10  1  0  0  0  0
  6 14  1  0  0  0  0
  6  5  2  0  0  0  0
  7  1  1  0  0  0  0
  8  2  1  0  0  0  0
  9 13  1  0  0  0  0
 11 12  3  0  0  0  0
 14 15  1  0  0  0  0
 15 18  1  0  0  0  0
 16 15  1  0  0  0  0
 17 15  1  0  0  0  0
M  RAD  2   3   2   4   2
M  END
