Coordinates from ORCA-job p-CH3O-Ph-N2-Cl-B3LYPG-aug-cc-pVDZ-scan-d09-49-n400
 OpenBabel11081710393D

 18 16  0  0  0  0  0  0  0  0999 V2000
   -1.4175   -1.6934   -1.4737 C   0  0  0  0  0  0  0  0  0  0  0  0
   -0.0529   -1.3852   -1.6144 C   0  0  0  0  0  0  0  0  0  0  0  0
    0.2162   -0.2816   -0.8340 C   0  0  0  0  0  0  0  0  0  0  0  0
   -0.4753    0.4448   -0.0788 C   0  0  0  0  0  0  0  0  0  0  0  0
   -1.8438    0.1841    0.0996 C   0  0  0  0  0  0  0  0  0  0  0  0
   -2.2907   -0.9363   -0.6442 C   0  0  0  0  0  0  0  0  0  0  0  0
   -1.8376   -2.5418   -2.0142 H   0  0  0  0  0  0  0  0  0  0  0  0
    0.6264   -1.9534   -2.2436 H   0  0  0  0  0  0  0  0  0  0  0  0
    0.1395    1.9753    0.9361 H   0  0  0  0  0  0  0  0  0  0  0  0
   -2.4990    0.7711    0.7367 H   0  0  0  0  0  0  0  0  0  0  0  0
    3.6501   -0.4192   -1.8950 N   0  0  0  0  0  0  0  0  0  0  0  0
    4.6012    0.1195   -1.7396 N   0  0  0  0  0  0  0  0  0  0  0  0
    0.3832    3.0396    1.6930 Cl  0  0  0  0  0  0  0  0  0  0  0  0
   -3.5810   -1.3826   -0.6313 O   0  0  0  0  0  0  0  0  0  0  0  0
   -4.5280   -0.6840    0.1734 C   0  0  0  0  0  0  0  0  0  0  0  0
   -5.4784   -1.2070    0.0325 H   0  0  0  0  0  0  0  0  0  0  0  0
   -4.6312    0.3620   -0.1531 H   0  0  0  0  0  0  0  0  0  0  0  0
   -4.2448   -0.7148    1.2365 H   0  0  0  0  0  0  0  0  0  0  0  0
  1  6  1  0  0  0  0
  2  1  2  0  0  0  0
  2  3  1  0  0  0  0
  3  4  2  0  0  0  0
  4  5  1  0  0  0  0
  5 10  1  0  0  0  0
  6 14  1  0  0  0  0
  6  5  2  0  0  0  0
  7  1  1  0  0  0  0
  8  2  1  0  0  0  0
  9 13  1  0  0  0  0
 11 12  3  0  0  0  0
 14 15  1  0  0  0  0
 15 18  1  0  0  0  0
 16 15  1  0  0  0  0
 17 15  1  0  0  0  0
M  RAD  2   3   2   4   2
M  END
