Coordinates from ORCA-job p-CH3O-Ph-N2-Cl-B3LYPG-aug-cc-pVDZ-scan-d09-49-n400
 OpenBabel11081710393D

 18 17  0  0  0  0  0  0  0  0999 V2000
   -1.3079   -1.7021   -1.5109 C   0  0  0  0  0  0  0  0  0  0  0  0
    0.0245   -1.3527   -1.6104 C   0  0  0  0  0  0  0  0  0  0  0  0
    0.5242   -0.2428   -0.8891 C   0  0  0  0  0  0  0  0  0  0  0  0
   -0.3393    0.5111   -0.0648 C   0  0  0  0  0  0  0  0  0  0  0  0
   -1.6796    0.1560    0.0325 C   0  0  0  0  0  0  0  0  0  0  0  0
   -2.1724   -0.9495   -0.6873 C   0  0  0  0  0  0  0  0  0  0  0  0
   -1.7121   -2.5523   -2.0575 H   0  0  0  0  0  0  0  0  0  0  0  0
    0.7052   -1.9229   -2.2415 H   0  0  0  0  0  0  0  0  0  0  0  0
    0.0665    1.3610    0.4811 H   0  0  0  0  0  0  0  0  0  0  0  0
   -2.3324    0.7455    0.6709 H   0  0  0  0  0  0  0  0  0  0  0  0
    1.8165    0.0458   -1.0247 N   0  0  0  0  0  0  0  0  0  0  0  0
    2.7029    0.7441   -0.7299 N   0  0  0  0  0  0  0  0  0  0  0  0
    2.2436    2.3758    0.6622 Cl  0  0  0  0  0  0  0  0  0  0  0  0
   -3.4550   -1.3692   -0.6561 O   0  0  0  0  0  0  0  0  0  0  0  0
   -4.3978   -0.6600    0.1555 C   0  0  0  0  0  0  0  0  0  0  0  0
   -5.3496   -1.1798    0.0171 H   0  0  0  0  0  0  0  0  0  0  0  0
   -4.4936    0.3836   -0.1761 H   0  0  0  0  0  0  0  0  0  0  0  0
   -4.1071   -0.6945    1.2150 H   0  0  0  0  0  0  0  0  0  0  0  0
  1  6  1  0  0  0  0
  2  1  2  0  0  0  0
  2  3  1  0  0  0  0
  3  4  2  0  0  0  0
  4  5  1  0  0  0  0
  4  9  1  0  0  0  0
  5 10  1  0  0  0  0
  6 14  1  0  0  0  0
  6  5  2  0  0  0  0
  7  1  1  0  0  0  0
  8  2  1  0  0  0  0
 11  3  1  0  0  0  0
 11 12  2  0  0  0  0
 14 15  1  0  0  0  0
 15 18  1  0  0  0  0
 16 15  1  0  0  0  0
 17 15  1  0  0  0  0
M  RAD  2  12   2  13   2
M  END
