Coordinates from ORCA-job p-CH3O-Ph-N2-Cl-B3LYPG-aug-cc-pVDZ-scan-d09-49-n400
 OpenBabel11081710393D

 18 16  0  0  0  0  0  0  0  0999 V2000
   -1.3612   -1.5989   -1.4164 C   0  0  0  0  0  0  0  0  0  0  0  0
   -0.0082   -1.2271   -1.5048 C   0  0  0  0  0  0  0  0  0  0  0  0
    0.1814   -0.1221   -0.7013 C   0  0  0  0  0  0  0  0  0  0  0  0
   -0.5715    0.5595    0.0363 C   0  0  0  0  0  0  0  0  0  0  0  0
   -1.9316    0.2347    0.1631 C   0  0  0  0  0  0  0  0  0  0  0  0
   -2.2983   -0.8948   -0.6101 C   0  0  0  0  0  0  0  0  0  0  0  0
   -1.7223   -2.4582   -1.9818 H   0  0  0  0  0  0  0  0  0  0  0  0
    0.7181   -1.7554   -2.1162 H   0  0  0  0  0  0  0  0  0  0  0  0
   -0.0589    2.1093    1.0945 H   0  0  0  0  0  0  0  0  0  0  0  0
   -2.6357    0.7821    0.7831 H   0  0  0  0  0  0  0  0  0  0  0  0
    3.9851   -0.7632   -2.2542 N   0  0  0  0  0  0  0  0  0  0  0  0
    5.0094   -0.3527   -2.2172 N   0  0  0  0  0  0  0  0  0  0  0  0
    0.1010    3.1722    1.8737 Cl  0  0  0  0  0  0  0  0  0  0  0  0
   -3.5657   -1.4011   -0.6497 O   0  0  0  0  0  0  0  0  0  0  0  0
   -4.5728   -0.7586    0.1285 C   0  0  0  0  0  0  0  0  0  0  0  0
   -5.4918   -1.3235   -0.0533 H   0  0  0  0  0  0  0  0  0  0  0  0
   -4.7136    0.2858   -0.1889 H   0  0  0  0  0  0  0  0  0  0  0  0
   -4.3267   -0.7909    1.2007 H   0  0  0  0  0  0  0  0  0  0  0  0
  1  6  1  0  0  0  0
  2  1  2  0  0  0  0
  2  3  1  0  0  0  0
  3  4  2  0  0  0  0
  4  5  1  0  0  0  0
  5 10  1  0  0  0  0
  6  5  2  0  0  0  0
  7  1  1  0  0  0  0
  8  2  1  0  0  0  0
  9 13  1  0  0  0  0
 11 12  3  0  0  0  0
 14  6  1  0  0  0  0
 14 15  1  0  0  0  0
 15 18  1  0  0  0  0
 16 15  1  0  0  0  0
 17 15  1  0  0  0  0
M  RAD  2   3   2   4   2
M  END
