Coordinates from ORCA-job p-CH3O-Ph-N2-Cl-B3LYPG-aug-cc-pVDZ-scan-d09-49-n400
 OpenBabel11081710393D

 18 16  0  0  0  0  0  0  0  0999 V2000
   -1.4224   -1.7222   -1.4946 C   0  0  0  0  0  0  0  0  0  0  0  0
   -0.0556   -1.4342   -1.6515 C   0  0  0  0  0  0  0  0  0  0  0  0
    0.2358   -0.3319   -0.8784 C   0  0  0  0  0  0  0  0  0  0  0  0
   -0.4311    0.4116   -0.1168 C   0  0  0  0  0  0  0  0  0  0  0  0
   -1.8021    0.1680    0.0756 C   0  0  0  0  0  0  0  0  0  0  0  0
   -2.2743   -0.9483   -0.6581 C   0  0  0  0  0  0  0  0  0  0  0  0
   -1.8613   -2.5663   -2.0267 H   0  0  0  0  0  0  0  0  0  0  0  0
    0.6142   -2.0099   -2.2839 H   0  0  0  0  0  0  0  0  0  0  0  0
    0.2118    1.9257    0.8776 H   0  0  0  0  0  0  0  0  0  0  0  0
   -2.4420    0.7668    0.7176 H   0  0  0  0  0  0  0  0  0  0  0  0
    3.4195   -0.2894   -1.7302 N   0  0  0  0  0  0  0  0  0  0  0  0
    4.3740    0.2451   -1.5794 N   0  0  0  0  0  0  0  0  0  0  0  0
    0.4898    2.9903    1.6252 Cl  0  0  0  0  0  0  0  0  0  0  0  0
   -3.5708   -1.3755   -0.6285 O   0  0  0  0  0  0  0  0  0  0  0  0
   -4.4982   -0.6597    0.1840 C   0  0  0  0  0  0  0  0  0  0  0  0
   -5.4578   -1.1691    0.0560 H   0  0  0  0  0  0  0  0  0  0  0  0
   -4.5897    0.3864   -0.1457 H   0  0  0  0  0  0  0  0  0  0  0  0
   -4.2033   -0.6904    1.2439 H   0  0  0  0  0  0  0  0  0  0  0  0
  1  6  1  0  0  0  0
  2  1  2  0  0  0  0
  2  3  1  0  0  0  0
  3  4  2  0  0  0  0
  4  5  1  0  0  0  0
  5 10  1  0  0  0  0
  6 14  1  0  0  0  0
  6  5  2  0  0  0  0
  7  1  1  0  0  0  0
  8  2  1  0  0  0  0
  9 13  1  0  0  0  0
 11 12  3  0  0  0  0
 14 15  1  0  0  0  0
 15 18  1  0  0  0  0
 16 15  1  0  0  0  0
 17 15  1  0  0  0  0
M  RAD  2   3   2   4   2
M  END
