Coordinates from ORCA-job p-CH3O-Ph-N2-Cl-B3LYPG-aug-cc-pVDZ-scan-d09-49-n400
 OpenBabel11081710393D

 18 16  0  0  0  0  0  0  0  0999 V2000
   -1.4084   -1.7391   -1.5116 C   0  0  0  0  0  0  0  0  0  0  0  0
   -0.0391   -1.4644   -1.6796 C   0  0  0  0  0  0  0  0  0  0  0  0
    0.2620   -0.3648   -0.9113 C   0  0  0  0  0  0  0  0  0  0  0  0
   -0.3809    0.3958   -0.1431 C   0  0  0  0  0  0  0  0  0  0  0  0
   -1.7541    0.1584    0.0548 C   0  0  0  0  0  0  0  0  0  0  0  0
   -2.2453   -0.9545   -0.6709 C   0  0  0  0  0  0  0  0  0  0  0  0
   -1.8586   -2.5805   -2.0385 H   0  0  0  0  0  0  0  0  0  0  0  0
    0.6178   -2.0500   -2.3161 H   0  0  0  0  0  0  0  0  0  0  0  0
    0.2672    1.8688    0.8179 H   0  0  0  0  0  0  0  0  0  0  0  0
   -2.3832    0.7653    0.7001 H   0  0  0  0  0  0  0  0  0  0  0  0
    3.1252   -0.2037   -1.5819 N   0  0  0  0  0  0  0  0  0  0  0  0
    4.0717    0.3414   -1.4207 N   0  0  0  0  0  0  0  0  0  0  0  0
    0.5892    2.9361    1.5558 Cl  0  0  0  0  0  0  0  0  0  0  0  0
   -3.5458   -1.3679   -0.6296 O   0  0  0  0  0  0  0  0  0  0  0  0
   -4.4589   -0.6398    0.1884 C   0  0  0  0  0  0  0  0  0  0  0  0
   -5.4248   -1.1395    0.0698 H   0  0  0  0  0  0  0  0  0  0  0  0
   -4.5419    0.4062   -0.1436 H   0  0  0  0  0  0  0  0  0  0  0  0
   -4.1556   -0.6706    1.2460 H   0  0  0  0  0  0  0  0  0  0  0  0
  1  6  1  0  0  0  0
  2  1  2  0  0  0  0
  2  3  1  0  0  0  0
  3  4  2  0  0  0  0
  4  5  1  0  0  0  0
  5 10  1  0  0  0  0
  6 14  1  0  0  0  0
  6  5  2  0  0  0  0
  7  1  1  0  0  0  0
  8  2  1  0  0  0  0
  9 13  1  0  0  0  0
 11 12  3  0  0  0  0
 14 15  1  0  0  0  0
 15 18  1  0  0  0  0
 16 15  1  0  0  0  0
 17 15  1  0  0  0  0
M  RAD  2   3   2   4   2
M  END
