Coordinates from ORCA-job p-CH3O-Ph-N2-Cl-B3LYPG-aug-cc-pVDZ-scan-d09-49-n400
 OpenBabel11081710393D

 18 17  0  0  0  0  0  0  0  0999 V2000
   -1.1568   -1.6851   -1.2231 C   0  0  0  0  0  0  0  0  0  0  0  0
    0.1095   -1.1754   -1.4134 C   0  0  0  0  0  0  0  0  0  0  0  0
    0.4319    0.1559   -0.9903 C   0  0  0  0  0  0  0  0  0  0  0  0
   -0.6002    0.9228   -0.3733 C   0  0  0  0  0  0  0  0  0  0  0  0
   -1.8708    0.3976   -0.1909 C   0  0  0  0  0  0  0  0  0  0  0  0
   -2.1641   -0.9111   -0.6124 C   0  0  0  0  0  0  0  0  0  0  0  0
   -1.3937   -2.7004   -1.5371 H   0  0  0  0  0  0  0  0  0  0  0  0
    0.8919   -1.7757   -1.8750 H   0  0  0  0  0  0  0  0  0  0  0  0
   -0.3638    1.9312   -0.0375 H   0  0  0  0  0  0  0  0  0  0  0  0
   -2.6230    1.0175    0.2897 H   0  0  0  0  0  0  0  0  0  0  0  0
    1.5061    0.5954   -1.1431 N   0  0  0  0  0  0  0  0  0  0  0  0
    2.6047    0.9047   -1.0107 N   0  0  0  0  0  0  0  0  0  0  0  0
    3.2941    0.2118    1.0962 Cl  0  0  0  0  0  0  0  0  0  0  0  0
   -3.3685   -1.5121   -0.4789 O   0  0  0  0  0  0  0  0  0  0  0  0
   -4.4297   -0.7924    0.1541 C   0  0  0  0  0  0  0  0  0  0  0  0
   -5.2851   -1.4733    0.1555 H   0  0  0  0  0  0  0  0  0  0  0  0
   -4.6817    0.1161   -0.4123 H   0  0  0  0  0  0  0  0  0  0  0  0
   -4.1641   -0.5304    1.1885 H   0  0  0  0  0  0  0  0  0  0  0  0
  1  6  1  0  0  0  0
  2  1  2  0  0  0  0
  2  3  1  0  0  0  0
  3  4  2  0  0  0  0
  4  5  1  0  0  0  0
  4  9  1  0  0  0  0
  5 10  1  0  0  0  0
  6 14  1  0  0  0  0
  6  5  2  0  0  0  0
  7  1  1  0  0  0  0
  8  2  1  0  0  0  0
 11 12  1  0  0  0  0
 11  3  1  0  0  0  0
 14 15  1  0  0  0  0
 15 16  1  0  0  0  0
 15 18  1  0  0  0  0
 17 15  1  0  0  0  0
M  RAD  3  11   2  12   3  13   2
M  END
