Coordinates from ORCA-job p-CH3O-Ph-N2-Cl-B3LYPG-aug-cc-pVDZ-scan-d09-49-n400
 OpenBabel11081710393D

 18 17  0  0  0  0  0  0  0  0999 V2000
   -1.3649   -1.7373   -1.5221 C   0  0  0  0  0  0  0  0  0  0  0  0
   -0.0128   -1.4163   -1.6494 C   0  0  0  0  0  0  0  0  0  0  0  0
    0.3846   -0.3238   -0.9135 C   0  0  0  0  0  0  0  0  0  0  0  0
   -0.3397    0.4836   -0.0866 C   0  0  0  0  0  0  0  0  0  0  0  0
   -1.6984    0.1347    0.0209 C   0  0  0  0  0  0  0  0  0  0  0  0
   -2.2054   -0.9668   -0.6915 C   0  0  0  0  0  0  0  0  0  0  0  0
   -1.7868   -2.5843   -2.0609 H   0  0  0  0  0  0  0  0  0  0  0  0
    0.6671   -1.9847   -2.2788 H   0  0  0  0  0  0  0  0  0  0  0  0
    0.1155    1.3268    0.4400 H   0  0  0  0  0  0  0  0  0  0  0  0
   -2.3346    0.7369    0.6642 H   0  0  0  0  0  0  0  0  0  0  0  0
    2.2118    0.0878   -1.1027 N   0  0  0  0  0  0  0  0  0  0  0  0
    2.9003    0.8893   -0.6723 N   0  0  0  0  0  0  0  0  0  0  0  0
    2.1152    2.4973    0.7944 Cl  0  0  0  0  0  0  0  0  0  0  0  0
   -3.5002   -1.3735   -0.6465 O   0  0  0  0  0  0  0  0  0  0  0  0
   -4.4174   -0.6456    0.1722 C   0  0  0  0  0  0  0  0  0  0  0  0
   -5.3812   -1.1479    0.0509 H   0  0  0  0  0  0  0  0  0  0  0  0
   -4.5015    0.3992   -0.1616 H   0  0  0  0  0  0  0  0  0  0  0  0
   -4.1149   -0.6783    1.2293 H   0  0  0  0  0  0  0  0  0  0  0  0
  1  6  1  0  0  0  0
  2  1  2  0  0  0  0
  2  3  1  0  0  0  0
  3  4  2  0  0  0  0
  4  5  1  0  0  0  0
  4  9  1  0  0  0  0
  5 10  1  0  0  0  0
  6 14  1  0  0  0  0
  6  5  2  0  0  0  0
  7  1  1  0  0  0  0
  8  2  1  0  0  0  0
 11  3  1  0  0  0  0
 11 12  2  0  0  0  0
 14 15  1  0  0  0  0
 15 18  1  0  0  0  0
 16 15  1  0  0  0  0
 17 15  1  0  0  0  0
M  RAD  2  12   2  13   2
M  END
