Coordinates from ORCA-job p-CH3O-Ph-N2-Cl-B3LYPG-aug-cc-pVDZ-scan-d09-49-n400
 OpenBabel11081710393D

 18 17  0  0  0  0  0  0  0  0999 V2000
   -1.3674   -1.7390   -1.5227 C   0  0  0  0  0  0  0  0  0  0  0  0
   -0.0149   -1.4194   -1.6512 C   0  0  0  0  0  0  0  0  0  0  0  0
    0.3811   -0.3273   -0.9152 C   0  0  0  0  0  0  0  0  0  0  0  0
   -0.3398    0.4816   -0.0882 C   0  0  0  0  0  0  0  0  0  0  0  0
   -1.6989    0.1338    0.0203 C   0  0  0  0  0  0  0  0  0  0  0  0
   -2.2069   -0.9676   -0.6917 C   0  0  0  0  0  0  0  0  0  0  0  0
   -1.7902   -2.5858   -2.0612 H   0  0  0  0  0  0  0  0  0  0  0  0
    0.6645   -1.9882   -2.2807 H   0  0  0  0  0  0  0  0  0  0  0  0
    0.1179    1.3246    0.4377 H   0  0  0  0  0  0  0  0  0  0  0  0
   -2.3341    0.7366    0.6639 H   0  0  0  0  0  0  0  0  0  0  0  0
    2.2273    0.0915   -1.1041 N   0  0  0  0  0  0  0  0  0  0  0  0
    2.9097    0.8951   -0.6704 N   0  0  0  0  0  0  0  0  0  0  0  0
    2.1077    2.5030    0.8008 Cl  0  0  0  0  0  0  0  0  0  0  0  0
   -3.5020   -1.3734   -0.6460 O   0  0  0  0  0  0  0  0  0  0  0  0
   -4.4182   -0.6447    0.1731 C   0  0  0  0  0  0  0  0  0  0  0  0
   -5.3823   -1.1463    0.0525 H   0  0  0  0  0  0  0  0  0  0  0  0
   -4.5017    0.4001   -0.1609 H   0  0  0  0  0  0  0  0  0  0  0  0
   -4.1151   -0.6774    1.2301 H   0  0  0  0  0  0  0  0  0  0  0  0
  1  6  1  0  0  0  0
  2  1  2  0  0  0  0
  2  3  1  0  0  0  0
  3  4  2  0  0  0  0
  4  5  1  0  0  0  0
  4  9  1  0  0  0  0
  5 10  1  0  0  0  0
  6 14  1  0  0  0  0
  6  5  2  0  0  0  0
  7  1  1  0  0  0  0
  8  2  1  0  0  0  0
 11  3  1  0  0  0  0
 11 12  2  0  0  0  0
 14 15  1  0  0  0  0
 15 18  1  0  0  0  0
 16 15  1  0  0  0  0
 17 15  1  0  0  0  0
M  RAD  2  12   2  13   2
M  END
