Coordinates from ORCA-job p-CH3O-Ph-N2-Cl-B3LYPG-aug-cc-pVDZ-scan-d09-49-n400
 OpenBabel11081710393D

 18 16  0  0  0  0  0  0  0  0999 V2000
   -1.3992   -1.6610   -1.4538 C   0  0  0  0  0  0  0  0  0  0  0  0
   -0.0381   -1.3302   -1.5760 C   0  0  0  0  0  0  0  0  0  0  0  0
    0.2033   -0.2258   -0.7873 C   0  0  0  0  0  0  0  0  0  0  0  0
   -0.5100    0.4852   -0.0380 C   0  0  0  0  0  0  0  0  0  0  0  0
   -1.8761    0.2019    0.1224 C   0  0  0  0  0  0  0  0  0  0  0  0
   -2.2951   -0.9221   -0.6321 C   0  0  0  0  0  0  0  0  0  0  0  0
   -1.7986   -2.5135   -2.0033 H   0  0  0  0  0  0  0  0  0  0  0  0
    0.6571   -1.8854   -2.1996 H   0  0  0  0  0  0  0  0  0  0  0  0
    0.0692    2.0239    0.9931 H   0  0  0  0  0  0  0  0  0  0  0  0
   -2.5488    0.7753    0.7537 H   0  0  0  0  0  0  0  0  0  0  0  0
    3.7795   -0.5402   -2.0246 N   0  0  0  0  0  0  0  0  0  0  0  0
    4.7600   -0.0456   -1.9110 N   0  0  0  0  0  0  0  0  0  0  0  0
    0.2826    3.0882    1.7584 Cl  0  0  0  0  0  0  0  0  0  0  0  0
   -3.5780   -1.3895   -0.6374 O   0  0  0  0  0  0  0  0  0  0  0  0
   -4.5464   -0.7102    0.1584 C   0  0  0  0  0  0  0  0  0  0  0  0
   -5.4862   -1.2481    0.0031 H   0  0  0  0  0  0  0  0  0  0  0  0
   -4.6627    0.3354   -0.1648 H   0  0  0  0  0  0  0  0  0  0  0  0
   -4.2760   -0.7413    1.2248 H   0  0  0  0  0  0  0  0  0  0  0  0
  1  6  1  0  0  0  0
  2  1  2  0  0  0  0
  2  3  1  0  0  0  0
  3  4  2  0  0  0  0
  4  5  1  0  0  0  0
  5 10  1  0  0  0  0
  6  5  2  0  0  0  0
  7  1  1  0  0  0  0
  8  2  1  0  0  0  0
  9 13  1  0  0  0  0
 11 12  3  0  0  0  0
 14  6  1  0  0  0  0
 14 15  1  0  0  0  0
 15 18  1  0  0  0  0
 16 15  1  0  0  0  0
 17 15  1  0  0  0  0
M  RAD  2   3   2   4   2
M  END
