Coordinates from ORCA-job p-CH3O-Ph-N2-Cl-B3LYPG-aug-cc-pVDZ-scan-d09-49-n400
 OpenBabel11081710393D

 18 16  0  0  0  0  0  0  0  0999 V2000
   -1.4242   -1.7197   -1.4922 C   0  0  0  0  0  0  0  0  0  0  0  0
   -0.0576   -1.4298   -1.6476 C   0  0  0  0  0  0  0  0  0  0  0  0
    0.2317   -0.3273   -0.8737 C   0  0  0  0  0  0  0  0  0  0  0  0
   -0.4375    0.4145   -0.1128 C   0  0  0  0  0  0  0  0  0  0  0  0
   -1.8084    0.1694    0.0785 C   0  0  0  0  0  0  0  0  0  0  0  0
   -2.2781   -0.9473   -0.6563 C   0  0  0  0  0  0  0  0  0  0  0  0
   -1.8614   -2.5643   -2.0251 H   0  0  0  0  0  0  0  0  0  0  0  0
    0.6135   -2.0045   -2.2795 H   0  0  0  0  0  0  0  0  0  0  0  0
    0.2036    1.9313    0.8842 H   0  0  0  0  0  0  0  0  0  0  0  0
   -2.4497    0.7670    0.7199 H   0  0  0  0  0  0  0  0  0  0  0  0
    3.4603   -0.3034   -1.7524 N   0  0  0  0  0  0  0  0  0  0  0  0
    4.4112    0.2359   -1.5968 N   0  0  0  0  0  0  0  0  0  0  0  0
    0.4781    2.9958    1.6327 Cl  0  0  0  0  0  0  0  0  0  0  0  0
   -3.5740   -1.3764   -0.6283 O   0  0  0  0  0  0  0  0  0  0  0  0
   -4.5033   -0.6622    0.1834 C   0  0  0  0  0  0  0  0  0  0  0  0
   -5.4621   -1.1730    0.0542 H   0  0  0  0  0  0  0  0  0  0  0  0
   -4.5959    0.3839   -0.1459 H   0  0  0  0  0  0  0  0  0  0  0  0
   -4.2096   -0.6929    1.2437 H   0  0  0  0  0  0  0  0  0  0  0  0
  1  6  1  0  0  0  0
  2  1  2  0  0  0  0
  2  3  1  0  0  0  0
  3  4  2  0  0  0  0
  4  5  1  0  0  0  0
  5 10  1  0  0  0  0
  6 14  1  0  0  0  0
  6  5  2  0  0  0  0
  7  1  1  0  0  0  0
  8  2  1  0  0  0  0
  9 13  1  0  0  0  0
 11 12  3  0  0  0  0
 14 15  1  0  0  0  0
 15 18  1  0  0  0  0
 16 15  1  0  0  0  0
 17 15  1  0  0  0  0
M  RAD  2   3   2   4   2
M  END
