Coordinates from ORCA-job p-CH3O-Ph-N2-Cl-B3LYPG-aug-cc-pVDZ-scan-d09-49-n400
 OpenBabel11081710393D

 18 16  0  0  0  0  0  0  0  0999 V2000
   -1.4183   -1.7265   -1.4992 C   0  0  0  0  0  0  0  0  0  0  0  0
   -0.0511   -1.4419   -1.6588 C   0  0  0  0  0  0  0  0  0  0  0  0
    0.2454   -0.3399   -0.8872 C   0  0  0  0  0  0  0  0  0  0  0  0
   -0.4183    0.4063   -0.1245 C   0  0  0  0  0  0  0  0  0  0  0  0
   -1.7896    0.1655    0.0702 C   0  0  0  0  0  0  0  0  0  0  0  0
   -2.2665   -0.9500   -0.6615 C   0  0  0  0  0  0  0  0  0  0  0  0
   -1.8601   -2.5700   -2.0299 H   0  0  0  0  0  0  0  0  0  0  0  0
    0.6159   -2.0198   -2.2921 H   0  0  0  0  0  0  0  0  0  0  0  0
    0.2262    1.9147    0.8651 H   0  0  0  0  0  0  0  0  0  0  0  0
   -2.4266    0.7664    0.7130 H   0  0  0  0  0  0  0  0  0  0  0  0
    3.3383   -0.2638   -1.6877 N   0  0  0  0  0  0  0  0  0  0  0  0
    4.2996    0.2606   -1.5468 N   0  0  0  0  0  0  0  0  0  0  0  0
    0.5105    2.9797    1.6112 Cl  0  0  0  0  0  0  0  0  0  0  0  0
   -3.5640   -1.3736   -0.6290 O   0  0  0  0  0  0  0  0  0  0  0  0
   -4.4878   -0.6548    0.1849 C   0  0  0  0  0  0  0  0  0  0  0  0
   -5.4490   -1.1618    0.0593 H   0  0  0  0  0  0  0  0  0  0  0  0
   -4.5772    0.3913   -0.1454 H   0  0  0  0  0  0  0  0  0  0  0  0
   -4.1908   -0.6855    1.2442 H   0  0  0  0  0  0  0  0  0  0  0  0
  1  6  1  0  0  0  0
  2  1  2  0  0  0  0
  2  3  1  0  0  0  0
  3  4  2  0  0  0  0
  4  5  1  0  0  0  0
  5 10  1  0  0  0  0
  6 14  1  0  0  0  0
  6  5  2  0  0  0  0
  7  1  1  0  0  0  0
  8  2  1  0  0  0  0
  9 13  1  0  0  0  0
 11 12  3  0  0  0  0
 14 15  1  0  0  0  0
 15 18  1  0  0  0  0
 16 15  1  0  0  0  0
 17 15  1  0  0  0  0
M  RAD  2   3   2   4   2
M  END
