Coordinates from ORCA-job p-CH3O-Ph-N2-Cl-B3LYPG-aug-cc-pVDZ-scan-d09-49-n400
 OpenBabel11081710393D

 18 16  0  0  0  0  0  0  0  0999 V2000
   -1.3273   -1.5497   -1.3876 C   0  0  0  0  0  0  0  0  0  0  0  0
    0.0179   -1.1459   -1.4491 C   0  0  0  0  0  0  0  0  0  0  0  0
    0.1674   -0.0418   -0.6354 C   0  0  0  0  0  0  0  0  0  0  0  0
   -0.6155    0.6161    0.0922 C   0  0  0  0  0  0  0  0  0  0  0  0
   -1.9696    0.2593    0.1926 C   0  0  0  0  0  0  0  0  0  0  0  0
   -2.2953   -0.8733   -0.5942 C   0  0  0  0  0  0  0  0  0  0  0  0
   -1.6579   -2.4135   -1.9649 H   0  0  0  0  0  0  0  0  0  0  0  0
    0.7669   -1.6534   -2.0508 H   0  0  0  0  0  0  0  0  0  0  0  0
   -0.1565    2.1724    1.1704 H   0  0  0  0  0  0  0  0  0  0  0  0
   -2.6975    0.7859    0.8032 H   0  0  0  0  0  0  0  0  0  0  0  0
    4.1092   -0.9350   -2.4216 N   0  0  0  0  0  0  0  0  0  0  0  0
    5.1577   -0.5897   -2.4420 N   0  0  0  0  0  0  0  0  0  0  0  0
   -0.0373    3.2331    1.9592 Cl  0  0  0  0  0  0  0  0  0  0  0  0
   -3.5495   -1.4090   -0.6602 O   0  0  0  0  0  0  0  0  0  0  0  0
   -4.5855   -0.7956    0.1033 C   0  0  0  0  0  0  0  0  0  0  0  0
   -5.4875   -1.3806   -0.0989 H   0  0  0  0  0  0  0  0  0  0  0  0
   -4.7450    0.2473   -0.2100 H   0  0  0  0  0  0  0  0  0  0  0  0
   -4.3582   -0.8293    1.1797 H   0  0  0  0  0  0  0  0  0  0  0  0
  1  6  1  0  0  0  0
  2  1  2  0  0  0  0
  2  3  1  0  0  0  0
  3  4  2  0  0  0  0
  4  5  1  0  0  0  0
  5 10  1  0  0  0  0
  6  5  2  0  0  0  0
  7  1  1  0  0  0  0
  8  2  1  0  0  0  0
  9 13  1  0  0  0  0
 12 11  3  0  0  0  0
 14  6  1  0  0  0  0
 14 15  1  0  0  0  0
 15 18  1  0  0  0  0
 16 15  1  0  0  0  0
 17 15  1  0  0  0  0
M  RAD  2   3   2   4   2
M  END
