Coordinates from ORCA-job p-CH3O-Ph-N2-Cl-B3LYPG-aug-cc-pVDZ-scan-d09-49-n400
 OpenBabel11081710393D

 18 16  0  0  0  0  0  0  0  0999 V2000
   -1.4042   -1.7533   -1.5238 C   0  0  0  0  0  0  0  0  0  0  0  0
   -0.0341   -1.4882   -1.6995 C   0  0  0  0  0  0  0  0  0  0  0  0
    0.2761   -0.3905   -0.9352 C   0  0  0  0  0  0  0  0  0  0  0  0
   -0.3475    0.3840   -0.1617 C   0  0  0  0  0  0  0  0  0  0  0  0
   -1.7226    0.1499    0.0394 C   0  0  0  0  0  0  0  0  0  0  0  0
   -2.2289   -0.9599   -0.6797 C   0  0  0  0  0  0  0  0  0  0  0  0
   -1.8632   -2.5926   -2.0464 H   0  0  0  0  0  0  0  0  0  0  0  0
    0.6171   -2.0784   -2.3378 H   0  0  0  0  0  0  0  0  0  0  0  0
    0.3102    1.8173    0.7655 H   0  0  0  0  0  0  0  0  0  0  0  0
   -2.3434    0.7631    0.6871 H   0  0  0  0  0  0  0  0  0  0  0  0
    2.9437   -0.1404   -1.4823 N   0  0  0  0  0  0  0  0  0  0  0  0
    3.8646    0.4372   -1.2889 N   0  0  0  0  0  0  0  0  0  0  0  0
    0.6744    2.8864    1.4943 Cl  0  0  0  0  0  0  0  0  0  0  0  0
   -3.5323   -1.3622   -0.6290 O   0  0  0  0  0  0  0  0  0  0  0  0
   -4.4340   -0.6246    0.1934 C   0  0  0  0  0  0  0  0  0  0  0  0
   -5.4048   -1.1165    0.0822 H   0  0  0  0  0  0  0  0  0  0  0  0
   -4.5104    0.4212   -0.1406 H   0  0  0  0  0  0  0  0  0  0  0  0
   -4.1240   -0.6555    1.2489 H   0  0  0  0  0  0  0  0  0  0  0  0
  1  6  1  0  0  0  0
  2  1  2  0  0  0  0
  2  3  1  0  0  0  0
  3  4  2  0  0  0  0
  4  5  1  0  0  0  0
  5 10  1  0  0  0  0
  6 14  1  0  0  0  0
  6  5  2  0  0  0  0
  7  1  1  0  0  0  0
  8  2  1  0  0  0  0
  9 13  1  0  0  0  0
 11 12  3  0  0  0  0
 14 15  1  0  0  0  0
 15 18  1  0  0  0  0
 16 15  1  0  0  0  0
 17 15  1  0  0  0  0
M  RAD  2   3   2   4   2
M  END
