Coordinates from ORCA-job p-CH3O-Ph-N2-Cl-B3LYPG-aug-cc-pVDZ-scan-d09-49-n400
 OpenBabel11081710393D

 18 16  0  0  0  0  0  0  0  0999 V2000
   -1.4038   -1.7538   -1.5243 C   0  0  0  0  0  0  0  0  0  0  0  0
   -0.0337   -1.4890   -1.7002 C   0  0  0  0  0  0  0  0  0  0  0  0
    0.2768   -0.3914   -0.9361 C   0  0  0  0  0  0  0  0  0  0  0  0
   -0.3461    0.3837   -0.1624 C   0  0  0  0  0  0  0  0  0  0  0  0
   -1.7213    0.1496    0.0388 C   0  0  0  0  0  0  0  0  0  0  0  0
   -2.2281   -0.9601   -0.6800 C   0  0  0  0  0  0  0  0  0  0  0  0
   -1.8632   -2.5930   -2.0467 H   0  0  0  0  0  0  0  0  0  0  0  0
    0.6172   -2.0793   -2.3386 H   0  0  0  0  0  0  0  0  0  0  0  0
    0.3122    1.8147    0.7629 H   0  0  0  0  0  0  0  0  0  0  0  0
   -2.3417    0.7630    0.6866 H   0  0  0  0  0  0  0  0  0  0  0  0
    2.9349   -0.1377   -1.4778 N   0  0  0  0  0  0  0  0  0  0  0  0
    3.8546    0.4413   -1.2830 N   0  0  0  0  0  0  0  0  0  0  0  0
    0.6788    2.8839    1.4912 Cl  0  0  0  0  0  0  0  0  0  0  0  0
   -3.5316   -1.3620   -0.6290 O   0  0  0  0  0  0  0  0  0  0  0  0
   -4.4329   -0.6240    0.1935 C   0  0  0  0  0  0  0  0  0  0  0  0
   -5.4039   -1.1156    0.0827 H   0  0  0  0  0  0  0  0  0  0  0  0
   -4.5091    0.4218   -0.1405 H   0  0  0  0  0  0  0  0  0  0  0  0
   -4.1226   -0.6549    1.2490 H   0  0  0  0  0  0  0  0  0  0  0  0
  1  6  1  0  0  0  0
  2  1  2  0  0  0  0
  2  3  1  0  0  0  0
  3  4  2  0  0  0  0
  4  5  1  0  0  0  0
  5 10  1  0  0  0  0
  6 14  1  0  0  0  0
  6  5  2  0  0  0  0
  7  1  1  0  0  0  0
  8  2  1  0  0  0  0
  9 13  1  0  0  0  0
 11 12  3  0  0  0  0
 14 15  1  0  0  0  0
 15 18  1  0  0  0  0
 16 15  1  0  0  0  0
 17 15  1  0  0  0  0
M  RAD  2   3   2   4   2
M  END
