Coordinates from ORCA-job p-CH3O-Ph-N2-Cl-B3LYPG-aug-cc-pVDZ-scan-d09-49-n400
 OpenBabel11081710393D

 18 16  0  0  0  0  0  0  0  0999 V2000
   -1.3424   -1.5710   -1.4000 C   0  0  0  0  0  0  0  0  0  0  0  0
    0.0064   -1.1809   -1.4731 C   0  0  0  0  0  0  0  0  0  0  0  0
    0.1732   -0.0763   -0.6637 C   0  0  0  0  0  0  0  0  0  0  0  0
   -0.5969    0.5918    0.0683 C   0  0  0  0  0  0  0  0  0  0  0  0
   -1.9538    0.2488    0.1801 C   0  0  0  0  0  0  0  0  0  0  0  0
   -2.2971   -0.8826   -0.6009 C   0  0  0  0  0  0  0  0  0  0  0  0
   -1.6861   -2.4330   -1.9722 H   0  0  0  0  0  0  0  0  0  0  0  0
    0.7457   -1.6974   -2.0790 H   0  0  0  0  0  0  0  0  0  0  0  0
   -0.1147    2.1455    1.1380 H   0  0  0  0  0  0  0  0  0  0  0  0
   -2.6715    0.7844    0.7948 H   0  0  0  0  0  0  0  0  0  0  0  0
    4.0593   -0.8612   -2.3506 N   0  0  0  0  0  0  0  0  0  0  0  0
    5.0984   -0.4879   -2.3465 N   0  0  0  0  0  0  0  0  0  0  0  0
    0.0220    3.2073    1.9227 Cl  0  0  0  0  0  0  0  0  0  0  0  0
   -3.5572   -1.4057   -0.6556 O   0  0  0  0  0  0  0  0  0  0  0  0
   -4.5808   -0.7797    0.1144 C   0  0  0  0  0  0  0  0  0  0  0  0
   -5.4903   -1.3561   -0.0791 H   0  0  0  0  0  0  0  0  0  0  0  0
   -4.7323    0.2639   -0.2006 H   0  0  0  0  0  0  0  0  0  0  0  0
   -4.3454   -0.8127    1.1890 H   0  0  0  0  0  0  0  0  0  0  0  0
  1  6  1  0  0  0  0
  2  1  2  0  0  0  0
  2  3  1  0  0  0  0
  3  4  2  0  0  0  0
  4  5  1  0  0  0  0
  5 10  1  0  0  0  0
  6  5  2  0  0  0  0
  7  1  1  0  0  0  0
  8  2  1  0  0  0  0
  9 13  1  0  0  0  0
 11 12  3  0  0  0  0
 14  6  1  0  0  0  0
 14 15  1  0  0  0  0
 15 18  1  0  0  0  0
 16 15  1  0  0  0  0
 17 15  1  0  0  0  0
M  RAD  2   3   2   4   2
M  END
