Coordinates from ORCA-job p-CH3O-Ph-N2-Cl-B3LYPG-aug-cc-pVDZ-scan-d09-49-n400
 OpenBabel11081710393D

 18 16  0  0  0  0  0  0  0  0999 V2000
   -1.3343   -1.5595   -1.3933 C   0  0  0  0  0  0  0  0  0  0  0  0
    0.0126   -1.1619   -1.4601 C   0  0  0  0  0  0  0  0  0  0  0  0
    0.1700   -0.0576   -0.6483 C   0  0  0  0  0  0  0  0  0  0  0  0
   -0.6070    0.6050    0.0813 C   0  0  0  0  0  0  0  0  0  0  0  0
   -1.9624    0.2545    0.1869 C   0  0  0  0  0  0  0  0  0  0  0  0
   -2.2962   -0.8776   -0.5973 C   0  0  0  0  0  0  0  0  0  0  0  0
   -1.6708   -2.4224   -1.9682 H   0  0  0  0  0  0  0  0  0  0  0  0
    0.7572   -1.6736   -2.0637 H   0  0  0  0  0  0  0  0  0  0  0  0
   -0.1374    2.1602    1.1556 H   0  0  0  0  0  0  0  0  0  0  0  0
   -2.6857    0.7852    0.7994 H   0  0  0  0  0  0  0  0  0  0  0  0
    4.0869   -0.9013   -2.3893 N   0  0  0  0  0  0  0  0  0  0  0  0
    5.1314   -0.5432   -2.3986 N   0  0  0  0  0  0  0  0  0  0  0  0
   -0.0103    3.2214    1.9426 Cl  0  0  0  0  0  0  0  0  0  0  0  0
   -3.5531   -1.4075   -0.6581 O   0  0  0  0  0  0  0  0  0  0  0  0
   -4.5835   -0.7884    0.1084 C   0  0  0  0  0  0  0  0  0  0  0  0
   -5.4889   -1.3695   -0.0898 H   0  0  0  0  0  0  0  0  0  0  0  0
   -4.7393    0.2549   -0.2057 H   0  0  0  0  0  0  0  0  0  0  0  0
   -4.3525   -0.8217    1.1840 H   0  0  0  0  0  0  0  0  0  0  0  0
  1  6  1  0  0  0  0
  2  1  2  0  0  0  0
  2  3  1  0  0  0  0
  3  4  2  0  0  0  0
  4  5  1  0  0  0  0
  5 10  1  0  0  0  0
  6  5  2  0  0  0  0
  7  1  1  0  0  0  0
  8  2  1  0  0  0  0
  9 13  1  0  0  0  0
 12 11  3  0  0  0  0
 14  6  1  0  0  0  0
 14 15  1  0  0  0  0
 15 18  1  0  0  0  0
 16 15  1  0  0  0  0
 17 15  1  0  0  0  0
M  RAD  2   3   2   4   2
M  END
