Coordinates from ORCA-job p-CH3O-Ph-N2-Cl-B3LYPG-aug-cc-pVDZ-scan-d09-49-n400
 OpenBabel11081710393D

 18 17  0  0  0  0  0  0  0  0999 V2000
   -1.3004   -1.6992   -1.5108 C   0  0  0  0  0  0  0  0  0  0  0  0
    0.0291   -1.3495   -1.6092 C   0  0  0  0  0  0  0  0  0  0  0  0
    0.5473   -0.2342   -0.8887 C   0  0  0  0  0  0  0  0  0  0  0  0
   -0.3384    0.5144   -0.0621 C   0  0  0  0  0  0  0  0  0  0  0  0
   -1.6755    0.1594    0.0343 C   0  0  0  0  0  0  0  0  0  0  0  0
   -2.1671   -0.9470   -0.6868 C   0  0  0  0  0  0  0  0  0  0  0  0
   -1.7043   -2.5494   -2.0576 H   0  0  0  0  0  0  0  0  0  0  0  0
    0.7084   -1.9212   -2.2411 H   0  0  0  0  0  0  0  0  0  0  0  0
    0.0670    1.3651    0.4846 H   0  0  0  0  0  0  0  0  0  0  0  0
   -2.3299    0.7477    0.6722 H   0  0  0  0  0  0  0  0  0  0  0  0
    1.7502    0.0478   -1.0044 N   0  0  0  0  0  0  0  0  0  0  0  0
    2.6753    0.7116   -0.7476 N   0  0  0  0  0  0  0  0  0  0  0  0
    2.2555    2.3775    0.6593 Cl  0  0  0  0  0  0  0  0  0  0  0  0
   -3.4466   -1.3673   -0.6571 O   0  0  0  0  0  0  0  0  0  0  0  0
   -4.3942   -0.6609    0.1537 C   0  0  0  0  0  0  0  0  0  0  0  0
   -5.3437   -1.1838    0.0121 H   0  0  0  0  0  0  0  0  0  0  0  0
   -4.4914    0.3823   -0.1781 H   0  0  0  0  0  0  0  0  0  0  0  0
   -4.1049   -0.6962    1.2133 H   0  0  0  0  0  0  0  0  0  0  0  0
  1  6  1  0  0  0  0
  2  1  2  0  0  0  0
  2  3  1  0  0  0  0
  3  4  2  0  0  0  0
  4  5  1  0  0  0  0
  4  9  1  0  0  0  0
  5 10  1  0  0  0  0
  6 14  1  0  0  0  0
  6  5  2  0  0  0  0
  7  1  1  0  0  0  0
  8  2  1  0  0  0  0
 11  3  1  0  0  0  0
 11 12  2  0  0  0  0
 14 15  1  0  0  0  0
 15 18  1  0  0  0  0
 16 15  1  0  0  0  0
 17 15  1  0  0  0  0
M  RAD  2  12   2  13   2
M  END
