Coordinates from ORCA-job p-CH3O-Ph-N2-Cl-B3LYPG-aug-cc-pVDZ-scan-d09-49-n400
 OpenBabel11081710393D

 18 17  0  0  0  0  0  0  0  0999 V2000
   -1.3361   -1.7144   -1.5127 C   0  0  0  0  0  0  0  0  0  0  0  0
    0.0058   -1.3724   -1.6205 C   0  0  0  0  0  0  0  0  0  0  0  0
    0.4471   -0.2737   -0.8915 C   0  0  0  0  0  0  0  0  0  0  0  0
   -0.3485    0.5027   -0.0684 C   0  0  0  0  0  0  0  0  0  0  0  0
   -1.6981    0.1459    0.0300 C   0  0  0  0  0  0  0  0  0  0  0  0
   -2.1931   -0.9576   -0.6879 C   0  0  0  0  0  0  0  0  0  0  0  0
   -1.7447   -2.5637   -2.0575 H   0  0  0  0  0  0  0  0  0  0  0  0
    0.6907   -1.9377   -2.2490 H   0  0  0  0  0  0  0  0  0  0  0  0
    0.0726    1.3489    0.4705 H   0  0  0  0  0  0  0  0  0  0  0  0
   -2.3462    0.7389    0.6698 H   0  0  0  0  0  0  0  0  0  0  0  0
    2.0443    0.0577   -1.0783 N   0  0  0  0  0  0  0  0  0  0  0  0
    2.8206    0.8272   -0.6980 N   0  0  0  0  0  0  0  0  0  0  0  0
    2.2172    2.4069    0.6925 Cl  0  0  0  0  0  0  0  0  0  0  0  0
   -3.4829   -1.3751   -0.6531 O   0  0  0  0  0  0  0  0  0  0  0  0
   -4.4143   -0.6591    0.1607 C   0  0  0  0  0  0  0  0  0  0  0  0
   -5.3717   -1.1711    0.0298 H   0  0  0  0  0  0  0  0  0  0  0  0
   -4.5061    0.3857   -0.1706 H   0  0  0  0  0  0  0  0  0  0  0  0
   -4.1198   -0.6922    1.2199 H   0  0  0  0  0  0  0  0  0  0  0  0
  1  6  1  0  0  0  0
  2  1  2  0  0  0  0
  2  3  1  0  0  0  0
  3  4  2  0  0  0  0
  4  5  1  0  0  0  0
  4  9  1  0  0  0  0
  5 10  1  0  0  0  0
  6 14  1  0  0  0  0
  6  5  2  0  0  0  0
  7  1  1  0  0  0  0
  8  2  1  0  0  0  0
 11  3  1  0  0  0  0
 11 12  2  0  0  0  0
 14 15  1  0  0  0  0
 15 18  1  0  0  0  0
 16 15  1  0  0  0  0
 17 15  1  0  0  0  0
M  RAD  2  12   2  13   2
M  END
