Coordinates from ORCA-job p-CH3O-Ph-N2-Cl-B3LYPG-aug-cc-pVDZ-scan-d09-49-n400
 OpenBabel11081710393D

 18 17  0  0  0  0  0  0  0  0999 V2000
   -1.3341   -1.7133   -1.5124 C   0  0  0  0  0  0  0  0  0  0  0  0
    0.0072   -1.3705   -1.6194 C   0  0  0  0  0  0  0  0  0  0  0  0
    0.4521   -0.2713   -0.8910 C   0  0  0  0  0  0  0  0  0  0  0  0
   -0.3480    0.5034   -0.0680 C   0  0  0  0  0  0  0  0  0  0  0  0
   -1.6969    0.1466    0.0302 C   0  0  0  0  0  0  0  0  0  0  0  0
   -2.1917   -0.9570   -0.6878 C   0  0  0  0  0  0  0  0  0  0  0  0
   -1.7422   -2.5627   -2.0574 H   0  0  0  0  0  0  0  0  0  0  0  0
    0.6920   -1.9360   -2.2480 H   0  0  0  0  0  0  0  0  0  0  0  0
    0.0714    1.3499    0.4715 H   0  0  0  0  0  0  0  0  0  0  0  0
   -2.3455    0.7392    0.6699 H   0  0  0  0  0  0  0  0  0  0  0  0
    2.0298    0.0561   -1.0755 N   0  0  0  0  0  0  0  0  0  0  0  0
    2.8125    0.8225   -0.6993 N   0  0  0  0  0  0  0  0  0  0  0  0
    2.2193    2.4028    0.6887 Cl  0  0  0  0  0  0  0  0  0  0  0  0
   -3.4812   -1.3748   -0.6533 O   0  0  0  0  0  0  0  0  0  0  0  0
   -4.4133   -0.6592    0.1603 C   0  0  0  0  0  0  0  0  0  0  0  0
   -5.3703   -1.1717    0.0289 H   0  0  0  0  0  0  0  0  0  0  0  0
   -4.5054    0.3855   -0.1709 H   0  0  0  0  0  0  0  0  0  0  0  0
   -4.1191   -0.6925    1.2195 H   0  0  0  0  0  0  0  0  0  0  0  0
  1  6  1  0  0  0  0
  2  1  2  0  0  0  0
  2  3  1  0  0  0  0
  3  4  2  0  0  0  0
  4  5  1  0  0  0  0
  4  9  1  0  0  0  0
  5 10  1  0  0  0  0
  6 14  1  0  0  0  0
  6  5  2  0  0  0  0
  7  1  1  0  0  0  0
  8  2  1  0  0  0  0
 11  3  1  0  0  0  0
 11 12  2  0  0  0  0
 14 15  1  0  0  0  0
 15 18  1  0  0  0  0
 16 15  1  0  0  0  0
 17 15  1  0  0  0  0
M  RAD  2  12   2  13   2
M  END
