Coordinates from ORCA-job p-CH3O-Ph-N2-Cl-B3LYPG-aug-cc-pVDZ-scan-d09-49-n400
 OpenBabel11081710393D

 18 16  0  0  0  0  0  0  0  0999 V2000
   -1.3897   -1.6455   -1.4445 C   0  0  0  0  0  0  0  0  0  0  0  0
   -0.0305   -1.3042   -1.5580 C   0  0  0  0  0  0  0  0  0  0  0  0
    0.1980   -0.1995   -0.7655 C   0  0  0  0  0  0  0  0  0  0  0  0
   -0.5256    0.5041   -0.0191 C   0  0  0  0  0  0  0  0  0  0  0  0
   -1.8903    0.2103    0.1328 C   0  0  0  0  0  0  0  0  0  0  0  0
   -2.2962   -0.9153   -0.6265 C   0  0  0  0  0  0  0  0  0  0  0  0
   -1.7794   -2.4999   -1.9981 H   0  0  0  0  0  0  0  0  0  0  0  0
    0.6724   -1.8529   -2.1787 H   0  0  0  0  0  0  0  0  0  0  0  0
    0.0367    2.0462    1.0193 H   0  0  0  0  0  0  0  0  0  0  0  0
   -2.5711    0.7771    0.7614 H   0  0  0  0  0  0  0  0  0  0  0  0
    3.8334   -0.5975   -2.0839 N   0  0  0  0  0  0  0  0  0  0  0  0
    4.8258   -0.1230   -1.9890 N   0  0  0  0  0  0  0  0  0  0  0  0
    0.2361    3.1102    1.7883 Cl  0  0  0  0  0  0  0  0  0  0  0  0
   -3.5754   -1.3926   -0.6405 O   0  0  0  0  0  0  0  0  0  0  0  0
   -4.5537   -0.7225    0.1509 C   0  0  0  0  0  0  0  0  0  0  0  0
   -5.4884   -1.2672   -0.0111 H   0  0  0  0  0  0  0  0  0  0  0  0
   -4.6761    0.3229   -0.1707 H   0  0  0  0  0  0  0  0  0  0  0  0
   -4.2894   -0.7538    1.2189 H   0  0  0  0  0  0  0  0  0  0  0  0
  1  6  1  0  0  0  0
  2  1  2  0  0  0  0
  2  3  1  0  0  0  0
  3  4  2  0  0  0  0
  4  5  1  0  0  0  0
  5 10  1  0  0  0  0
  6  5  2  0  0  0  0
  7  1  1  0  0  0  0
  8  2  1  0  0  0  0
  9 13  1  0  0  0  0
 11 12  3  0  0  0  0
 14  6  1  0  0  0  0
 14 15  1  0  0  0  0
 15 18  1  0  0  0  0
 16 15  1  0  0  0  0
 17 15  1  0  0  0  0
M  RAD  2   3   2   4   2
M  END
