Coordinates from ORCA-job p-CH3O-Ph-N2-Cl-B3LYPG-aug-cc-pVDZ-scan-d09-49-n400
 OpenBabel11081710393D

 18 16  0  0  0  0  0  0  0  0999 V2000
   -1.4187   -1.7262   -1.4988 C   0  0  0  0  0  0  0  0  0  0  0  0
   -0.0515   -1.4412   -1.6581 C   0  0  0  0  0  0  0  0  0  0  0  0
    0.2438   -0.3392   -0.8863 C   0  0  0  0  0  0  0  0  0  0  0  0
   -0.4196    0.4066   -0.1239 C   0  0  0  0  0  0  0  0  0  0  0  0
   -1.7909    0.1657    0.0708 C   0  0  0  0  0  0  0  0  0  0  0  0
   -2.2673   -0.9498   -0.6612 C   0  0  0  0  0  0  0  0  0  0  0  0
   -1.8602   -2.5697   -2.0297 H   0  0  0  0  0  0  0  0  0  0  0  0
    0.6159   -2.0187   -2.2912 H   0  0  0  0  0  0  0  0  0  0  0  0
    0.2252    1.9158    0.8662 H   0  0  0  0  0  0  0  0  0  0  0  0
   -2.4281    0.7665    0.7135 H   0  0  0  0  0  0  0  0  0  0  0  0
    3.3459   -0.2661   -1.6916 N   0  0  0  0  0  0  0  0  0  0  0  0
    4.3066    0.2594   -1.5496 N   0  0  0  0  0  0  0  0  0  0  0  0
    0.5091    2.9807    1.6124 Cl  0  0  0  0  0  0  0  0  0  0  0  0
   -3.5647   -1.3738   -0.6290 O   0  0  0  0  0  0  0  0  0  0  0  0
   -4.4888   -0.6552    0.1848 C   0  0  0  0  0  0  0  0  0  0  0  0
   -5.4499   -1.1624    0.0590 H   0  0  0  0  0  0  0  0  0  0  0  0
   -4.5784    0.3908   -0.1454 H   0  0  0  0  0  0  0  0  0  0  0  0
   -4.1920   -0.6860    1.2442 H   0  0  0  0  0  0  0  0  0  0  0  0
  1  6  1  0  0  0  0
  2  1  2  0  0  0  0
  2  3  1  0  0  0  0
  3  4  2  0  0  0  0
  4  5  1  0  0  0  0
  5 10  1  0  0  0  0
  6 14  1  0  0  0  0
  6  5  2  0  0  0  0
  7  1  1  0  0  0  0
  8  2  1  0  0  0  0
  9 13  1  0  0  0  0
 11 12  3  0  0  0  0
 14 15  1  0  0  0  0
 15 18  1  0  0  0  0
 16 15  1  0  0  0  0
 17 15  1  0  0  0  0
M  RAD  2   3   2   4   2
M  END
