Coordinates from ORCA-job p-CH3O-Ph-N2-Cl-B3LYPG-aug-cc-pVDZ-scan-d09-49-n400
 OpenBabel11081710393D

 18 17  0  0  0  0  0  0  0  0999 V2000
   -1.2970   -1.6974   -1.5104 C   0  0  0  0  0  0  0  0  0  0  0  0
    0.0308   -1.3479   -1.6084 C   0  0  0  0  0  0  0  0  0  0  0  0
    0.5596   -0.2293   -0.8882 C   0  0  0  0  0  0  0  0  0  0  0  0
   -0.3387    0.5159   -0.0600 C   0  0  0  0  0  0  0  0  0  0  0  0
   -1.6740    0.1607    0.0360 C   0  0  0  0  0  0  0  0  0  0  0  0
   -2.1651   -0.9458   -0.6862 C   0  0  0  0  0  0  0  0  0  0  0  0
   -1.7004   -2.5477   -2.0578 H   0  0  0  0  0  0  0  0  0  0  0  0
    0.7093   -1.9206   -2.2409 H   0  0  0  0  0  0  0  0  0  0  0  0
    0.0650    1.3671    0.4880 H   0  0  0  0  0  0  0  0  0  0  0  0
   -2.3289    0.7480    0.6745 H   0  0  0  0  0  0  0  0  0  0  0  0
    1.7227    0.0493   -0.9947 N   0  0  0  0  0  0  0  0  0  0  0  0
    2.6661    0.6960   -0.7569 N   0  0  0  0  0  0  0  0  0  0  0  0
    2.2612    2.3785    0.6542 Cl  0  0  0  0  0  0  0  0  0  0  0  0
   -3.4431   -1.3666   -0.6576 O   0  0  0  0  0  0  0  0  0  0  0  0
   -4.3931   -0.6616    0.1523 C   0  0  0  0  0  0  0  0  0  0  0  0
   -5.3419   -1.1850    0.0082 H   0  0  0  0  0  0  0  0  0  0  0  0
   -4.4901    0.3818   -0.1785 H   0  0  0  0  0  0  0  0  0  0  0  0
   -4.1058   -0.6982    1.2123 H   0  0  0  0  0  0  0  0  0  0  0  0
  1  6  1  0  0  0  0
  2  1  2  0  0  0  0
  2  3  1  0  0  0  0
  3  4  2  0  0  0  0
  4  5  1  0  0  0  0
  4  9  1  0  0  0  0
  5 10  1  0  0  0  0
  6 14  1  0  0  0  0
  6  5  2  0  0  0  0
  7  1  1  0  0  0  0
  8  2  1  0  0  0  0
 11  3  1  0  0  0  0
 11 12  2  0  0  0  0
 14 15  1  0  0  0  0
 15 18  1  0  0  0  0
 16 15  1  0  0  0  0
 17 15  1  0  0  0  0
M  RAD  2  12   2  13   2
M  END
