Coordinates from ORCA-job p-CH3O-Ph-N2-Cl-B3LYPG-aug-cc-pVDZ-scan-d09-49-n400
 OpenBabel11081710393D

 18 16  0  0  0  0  0  0  0  0999 V2000
   -1.3937   -1.7854   -1.5519 C   0  0  0  0  0  0  0  0  0  0  0  0
   -0.0264   -1.5334   -1.7368 C   0  0  0  0  0  0  0  0  0  0  0  0
    0.3380   -0.4465   -0.9960 C   0  0  0  0  0  0  0  0  0  0  0  0
   -0.2380    0.4023   -0.1780 C   0  0  0  0  0  0  0  0  0  0  0  0
   -1.6175    0.1216   -0.0117 C   0  0  0  0  0  0  0  0  0  0  0  0
   -2.1795   -0.9697   -0.7011 C   0  0  0  0  0  0  0  0  0  0  0  0
   -1.8653   -2.6209   -2.0681 H   0  0  0  0  0  0  0  0  0  0  0  0
    0.6168   -2.1297   -2.3779 H   0  0  0  0  0  0  0  0  0  0  0  0
    0.2874    1.3055    0.3756 H   0  0  0  0  0  0  0  0  0  0  0  0
   -2.2015    0.7609    0.6461 H   0  0  0  0  0  0  0  0  0  0  0  0
    2.3965    0.0901   -1.1529 N   0  0  0  0  0  0  0  0  0  0  0  0
    3.0049    0.8945   -0.6925 N   0  0  0  0  0  0  0  0  0  0  0  0
    1.2114    2.6374    1.1507 Cl  0  0  0  0  0  0  0  0  0  0  0  0
   -3.4862   -1.3310   -0.6175 O   0  0  0  0  0  0  0  0  0  0  0  0
   -4.3514   -0.5604    0.2203 C   0  0  0  0  0  0  0  0  0  0  0  0
   -5.3363   -1.0273    0.1325 H   0  0  0  0  0  0  0  0  0  0  0  0
   -4.4047    0.4833   -0.1224 H   0  0  0  0  0  0  0  0  0  0  0  0
   -4.0179   -0.5942    1.2679 H   0  0  0  0  0  0  0  0  0  0  0  0
  1  6  1  0  0  0  0
  2  1  2  0  0  0  0
  2  3  1  0  0  0  0
  3  4  2  0  0  0  0
  4  5  1  0  0  0  0
  4  9  1  0  0  0  0
  5 10  1  0  0  0  0
  6 14  1  0  0  0  0
  6  5  2  0  0  0  0
  7  1  1  0  0  0  0
  8  2  1  0  0  0  0
 11 12  3  0  0  0  0
 14 15  1  0  0  0  0
 15 18  1  0  0  0  0
 16 15  1  0  0  0  0
 17 15  1  0  0  0  0
M  RAD  2   3   2  13   2
M  END
