Coordinates from ORCA-job p-CH3O-Ph-N2-Cl-B3LYPG-aug-cc-pVDZ-scan-d09-49-n400
 OpenBabel11081710393D

 18 17  0  0  0  0  0  0  0  0999 V2000
   -1.3112   -1.7033   -1.5110 C   0  0  0  0  0  0  0  0  0  0  0  0
    0.0225   -1.3542   -1.6110 C   0  0  0  0  0  0  0  0  0  0  0  0
    0.5136   -0.2465   -0.8889 C   0  0  0  0  0  0  0  0  0  0  0  0
   -0.3401    0.5100   -0.0653 C   0  0  0  0  0  0  0  0  0  0  0  0
   -1.6818    0.1546    0.0321 C   0  0  0  0  0  0  0  0  0  0  0  0
   -2.1748   -0.9506   -0.6875 C   0  0  0  0  0  0  0  0  0  0  0  0
   -1.7156   -2.5534   -2.0575 H   0  0  0  0  0  0  0  0  0  0  0  0
    0.7040   -1.9235   -2.2417 H   0  0  0  0  0  0  0  0  0  0  0  0
    0.0665    1.3594    0.4800 H   0  0  0  0  0  0  0  0  0  0  0  0
   -2.3340    0.7445    0.6706 H   0  0  0  0  0  0  0  0  0  0  0  0
    1.8457    0.0451   -1.0331 N   0  0  0  0  0  0  0  0  0  0  0  0
    2.7156    0.7566   -0.7236 N   0  0  0  0  0  0  0  0  0  0  0  0
    2.2405    2.3770    0.6636 Cl  0  0  0  0  0  0  0  0  0  0  0  0
   -3.4587   -1.3700   -0.6558 O   0  0  0  0  0  0  0  0  0  0  0  0
   -4.3997   -0.6599    0.1561 C   0  0  0  0  0  0  0  0  0  0  0  0
   -5.3524   -1.1784    0.0189 H   0  0  0  0  0  0  0  0  0  0  0  0
   -4.4949    0.3840   -0.1753 H   0  0  0  0  0  0  0  0  0  0  0  0
   -4.1085   -0.6942    1.2156 H   0  0  0  0  0  0  0  0  0  0  0  0
  1  6  1  0  0  0  0
  2  1  2  0  0  0  0
  2  3  1  0  0  0  0
  3  4  2  0  0  0  0
  4  5  1  0  0  0  0
  4  9  1  0  0  0  0
  5 10  1  0  0  0  0
  6 14  1  0  0  0  0
  6  5  2  0  0  0  0
  7  1  1  0  0  0  0
  8  2  1  0  0  0  0
 11  3  1  0  0  0  0
 11 12  2  0  0  0  0
 14 15  1  0  0  0  0
 15 18  1  0  0  0  0
 16 15  1  0  0  0  0
 17 15  1  0  0  0  0
M  RAD  2  12   2  13   2
M  END
