Coordinates from ORCA-job p-CH3O-Ph-N2-Cl-B3LYPG-aug-cc-pVDZ-scan-d09-49-n400
 OpenBabel11081710393D

 18 18  0  0  0  0  0  0  0  0999 V2000
   -1.3191   -1.7065   -1.5113 C   0  0  0  0  0  0  0  0  0  0  0  0
    0.0174   -1.3590   -1.6133 C   0  0  0  0  0  0  0  0  0  0  0  0
    0.4916   -0.2548   -0.8892 C   0  0  0  0  0  0  0  0  0  0  0  0
   -0.3425    0.5077   -0.0662 C   0  0  0  0  0  0  0  0  0  0  0  0
   -1.6870    0.1516    0.0313 C   0  0  0  0  0  0  0  0  0  0  0  0
   -2.1806   -0.9528   -0.6876 C   0  0  0  0  0  0  0  0  0  0  0  0
   -1.7245   -2.5563   -2.0574 H   0  0  0  0  0  0  0  0  0  0  0  0
    0.7002   -1.9267   -2.2431 H   0  0  0  0  0  0  0  0  0  0  0  0
    0.0671    1.3561    0.4776 H   0  0  0  0  0  0  0  0  0  0  0  0
   -2.3380    0.7423    0.6702 H   0  0  0  0  0  0  0  0  0  0  0  0
    1.9125    0.0469   -1.0501 N   0  0  0  0  0  0  0  0  0  0  0  0
    2.7486    0.7827   -0.7125 N   0  0  0  0  0  0  0  0  0  0  0  0
    2.2313    2.3815    0.6690 Cl  0  0  0  0  0  0  0  0  0  0  0  0
   -3.4669   -1.3718   -0.6550 O   0  0  0  0  0  0  0  0  0  0  0  0
   -4.4043   -0.6596    0.1575 C   0  0  0  0  0  0  0  0  0  0  0  0
   -5.3588   -1.1756    0.0227 H   0  0  0  0  0  0  0  0  0  0  0  0
   -4.4984    0.3847   -0.1736 H   0  0  0  0  0  0  0  0  0  0  0  0
   -4.1120   -0.6934    1.2170 H   0  0  0  0  0  0  0  0  0  0  0  0
  1  6  1  0  0  0  0
  2  1  2  0  0  0  0
  2  3  1  0  0  0  0
  3  4  2  0  0  0  0
  4  5  1  0  0  0  0
  4  9  1  0  0  0  0
  5 10  1  0  0  0  0
  6 14  1  0  0  0  0
  6  5  2  0  0  0  0
  7  1  1  0  0  0  0
  8  2  1  0  0  0  0
 11  3  1  0  0  0  0
 11 12  2  0  0  0  0
 12 13  1  0  0  0  0
 14 15  1  0  0  0  0
 15 18  1  0  0  0  0
 16 15  1  0  0  0  0
 17 15  1  0  0  0  0
M  END
