Coordinates from ORCA-job p-CH3O-Ph-N2-Cl-B3LYPG-aug-cc-pVDZ-scan-d09-49-n400
 OpenBabel11081710393D

 18 18  0  0  0  0  0  0  0  0999 V2000
   -1.3210   -1.7071   -1.5113 C   0  0  0  0  0  0  0  0  0  0  0  0
    0.0159   -1.3599   -1.6136 C   0  0  0  0  0  0  0  0  0  0  0  0
    0.4873   -0.2564   -0.8892 C   0  0  0  0  0  0  0  0  0  0  0  0
   -0.3437    0.5071   -0.0664 C   0  0  0  0  0  0  0  0  0  0  0  0
   -1.6885    0.1510    0.0313 C   0  0  0  0  0  0  0  0  0  0  0  0
   -2.1823   -0.9533   -0.6876 C   0  0  0  0  0  0  0  0  0  0  0  0
   -1.7265   -2.5569   -2.0574 H   0  0  0  0  0  0  0  0  0  0  0  0
    0.6990   -1.9274   -2.2433 H   0  0  0  0  0  0  0  0  0  0  0  0
    0.0667    1.3553    0.4770 H   0  0  0  0  0  0  0  0  0  0  0  0
   -2.3393    0.7419    0.6702 H   0  0  0  0  0  0  0  0  0  0  0  0
    1.9277    0.0485   -1.0530 N   0  0  0  0  0  0  0  0  0  0  0  0
    2.7582    0.7879   -0.7111 N   0  0  0  0  0  0  0  0  0  0  0  0
    2.2309    2.3829    0.6701 Cl  0  0  0  0  0  0  0  0  0  0  0  0
   -3.4689   -1.3722   -0.6548 O   0  0  0  0  0  0  0  0  0  0  0  0
   -4.4057   -0.6597    0.1578 C   0  0  0  0  0  0  0  0  0  0  0  0
   -5.3605   -1.1755    0.0233 H   0  0  0  0  0  0  0  0  0  0  0  0
   -4.4996    0.3846   -0.1734 H   0  0  0  0  0  0  0  0  0  0  0  0
   -4.1133   -0.6935    1.2173 H   0  0  0  0  0  0  0  0  0  0  0  0
  1  6  1  0  0  0  0
  2  1  2  0  0  0  0
  2  3  1  0  0  0  0
  3  4  2  0  0  0  0
  4  5  1  0  0  0  0
  4  9  1  0  0  0  0
  5 10  1  0  0  0  0
  6 14  1  0  0  0  0
  6  5  2  0  0  0  0
  7  1  1  0  0  0  0
  8  2  1  0  0  0  0
 11  3  1  0  0  0  0
 11 12  2  0  0  0  0
 12 13  1  0  0  0  0
 14 15  1  0  0  0  0
 15 18  1  0  0  0  0
 16 15  1  0  0  0  0
 17 15  1  0  0  0  0
M  END
