Coordinates from ORCA-job p-CH3O-Ph-N2-Cl-B3LYPG-aug-cc-pVDZ-scan-d09-49-n400
 OpenBabel11081710393D

 18 16  0  0  0  0  0  0  0  0999 V2000
   -1.3050   -1.5200   -1.3707 C   0  0  0  0  0  0  0  0  0  0  0  0
    0.0349   -1.0974   -1.4162 C   0  0  0  0  0  0  0  0  0  0  0  0
    0.1625    0.0060   -0.5969 C   0  0  0  0  0  0  0  0  0  0  0  0
   -0.6399    0.6478    0.1236 C   0  0  0  0  0  0  0  0  0  0  0  0
   -1.9898    0.2734    0.2092 C   0  0  0  0  0  0  0  0  0  0  0  0
   -2.2911   -0.8605   -0.5854 C   0  0  0  0  0  0  0  0  0  0  0  0
   -1.6171   -2.3860   -1.9548 H   0  0  0  0  0  0  0  0  0  0  0  0
    0.7958   -1.5937   -2.0125 H   0  0  0  0  0  0  0  0  0  0  0  0
   -0.2135    2.2090    1.2146 H   0  0  0  0  0  0  0  0  0  0  0  0
   -2.7310    0.7878    0.8139 H   0  0  0  0  0  0  0  0  0  0  0  0
    4.1656   -1.0349   -2.5146 N   0  0  0  0  0  0  0  0  0  0  0  0
    5.2254   -0.7298   -2.5696 N   0  0  0  0  0  0  0  0  0  0  0  0
   -0.1195    3.2678    2.0088 Cl  0  0  0  0  0  0  0  0  0  0  0  0
   -3.5369   -1.4133   -0.6670 O   0  0  0  0  0  0  0  0  0  0  0  0
   -4.5895   -0.8174    0.0875 C   0  0  0  0  0  0  0  0  0  0  0  0
   -5.4810   -1.4140   -0.1266 H   0  0  0  0  0  0  0  0  0  0  0  0
   -4.7600    0.2245   -0.2235 H   0  0  0  0  0  0  0  0  0  0  0  0
   -4.3734   -0.8521    1.1662 H   0  0  0  0  0  0  0  0  0  0  0  0
  1  6  1  0  0  0  0
  2  1  2  0  0  0  0
  2  3  1  0  0  0  0
  3  4  2  0  0  0  0
  4  5  1  0  0  0  0
  5 10  1  0  0  0  0
  6  5  2  0  0  0  0
  7  1  1  0  0  0  0
  8  2  1  0  0  0  0
  9 13  1  0  0  0  0
 12 11  3  0  0  0  0
 14  6  1  0  0  0  0
 14 15  1  0  0  0  0
 15 18  1  0  0  0  0
 16 15  1  0  0  0  0
 17 15  1  0  0  0  0
M  RAD  2   3   2   4   2
M  END
