Coordinates from ORCA-job p-CH3O-Ph-N2-Cl-B3LYPG-aug-cc-pVDZ-scan-d09-49-n400
 OpenBabel11081710393D

 18 16  0  0  0  0  0  0  0  0999 V2000
   -1.3463   -1.5767   -1.4033 C   0  0  0  0  0  0  0  0  0  0  0  0
    0.0033   -1.1903   -1.4795 C   0  0  0  0  0  0  0  0  0  0  0  0
    0.1748   -0.0856   -0.6713 C   0  0  0  0  0  0  0  0  0  0  0  0
   -0.5918    0.5853    0.0618 C   0  0  0  0  0  0  0  0  0  0  0  0
   -1.9494    0.2459    0.1767 C   0  0  0  0  0  0  0  0  0  0  0  0
   -2.2975   -0.8851   -0.6028 C   0  0  0  0  0  0  0  0  0  0  0  0
   -1.6936   -2.4381   -1.9741 H   0  0  0  0  0  0  0  0  0  0  0  0
    0.7400   -1.7092   -2.0866 H   0  0  0  0  0  0  0  0  0  0  0  0
   -0.1034    2.1382    1.1292 H   0  0  0  0  0  0  0  0  0  0  0  0
   -2.6643    0.7840    0.7925 H   0  0  0  0  0  0  0  0  0  0  0  0
    4.0450   -0.8413   -2.3313 N   0  0  0  0  0  0  0  0  0  0  0  0
    5.0814   -0.4605   -2.3206 N   0  0  0  0  0  0  0  0  0  0  0  0
    0.0380    3.2003    1.9128 Cl  0  0  0  0  0  0  0  0  0  0  0  0
   -3.5591   -1.4048   -0.6543 O   0  0  0  0  0  0  0  0  0  0  0  0
   -4.5794   -0.7755    0.1173 C   0  0  0  0  0  0  0  0  0  0  0  0
   -5.4908   -1.3495   -0.0738 H   0  0  0  0  0  0  0  0  0  0  0  0
   -4.7286    0.2684   -0.1982 H   0  0  0  0  0  0  0  0  0  0  0  0
   -4.3418   -0.8083    1.1914 H   0  0  0  0  0  0  0  0  0  0  0  0
  1  6  1  0  0  0  0
  2  1  2  0  0  0  0
  2  3  1  0  0  0  0
  3  4  2  0  0  0  0
  4  5  1  0  0  0  0
  5 10  1  0  0  0  0
  6  5  2  0  0  0  0
  7  1  1  0  0  0  0
  8  2  1  0  0  0  0
  9 13  1  0  0  0  0
 11 12  3  0  0  0  0
 14  6  1  0  0  0  0
 14 15  1  0  0  0  0
 15 18  1  0  0  0  0
 16 15  1  0  0  0  0
 17 15  1  0  0  0  0
M  RAD  2   3   2   4   2
M  END
