Coordinates from ORCA-job p-CH3O-Ph-N2-Cl-B3LYPG-aug-cc-pVDZ-scan-d09-49-n400
 OpenBabel11081710393D

 18 16  0  0  0  0  0  0  0  0999 V2000
   -1.3972   -1.6576   -1.4518 C   0  0  0  0  0  0  0  0  0  0  0  0
   -0.0365   -1.3246   -1.5721 C   0  0  0  0  0  0  0  0  0  0  0  0
    0.2021   -0.2201   -0.7826 C   0  0  0  0  0  0  0  0  0  0  0  0
   -0.5135    0.4894   -0.0339 C   0  0  0  0  0  0  0  0  0  0  0  0
   -1.8792    0.2038    0.1247 C   0  0  0  0  0  0  0  0  0  0  0  0
   -2.2954   -0.9206   -0.6309 C   0  0  0  0  0  0  0  0  0  0  0  0
   -1.7945   -2.5106   -2.0022 H   0  0  0  0  0  0  0  0  0  0  0  0
    0.6604   -1.8783   -2.1950 H   0  0  0  0  0  0  0  0  0  0  0  0
    0.0621    2.0288    0.9989 H   0  0  0  0  0  0  0  0  0  0  0  0
   -2.5537    0.7757    0.7554 H   0  0  0  0  0  0  0  0  0  0  0  0
    3.7918   -0.5528   -2.0377 N   0  0  0  0  0  0  0  0  0  0  0  0
    4.7749   -0.0624   -1.9281 N   0  0  0  0  0  0  0  0  0  0  0  0
    0.2724    3.0930    1.7650 Cl  0  0  0  0  0  0  0  0  0  0  0  0
   -3.5775   -1.3902   -0.6381 O   0  0  0  0  0  0  0  0  0  0  0  0
   -4.5480   -0.7129    0.1568 C   0  0  0  0  0  0  0  0  0  0  0  0
   -5.4868   -1.2523    0.0000 H   0  0  0  0  0  0  0  0  0  0  0  0
   -4.6657    0.3327   -0.1661 H   0  0  0  0  0  0  0  0  0  0  0  0
   -4.2790   -0.7440    1.2235 H   0  0  0  0  0  0  0  0  0  0  0  0
  1  6  1  0  0  0  0
  2  1  2  0  0  0  0
  2  3  1  0  0  0  0
  3  4  2  0  0  0  0
  4  5  1  0  0  0  0
  5 10  1  0  0  0  0
  6  5  2  0  0  0  0
  7  1  1  0  0  0  0
  8  2  1  0  0  0  0
  9 13  1  0  0  0  0
 11 12  3  0  0  0  0
 14  6  1  0  0  0  0
 14 15  1  0  0  0  0
 15 18  1  0  0  0  0
 16 15  1  0  0  0  0
 17 15  1  0  0  0  0
M  RAD  2   3   2   4   2
M  END
