Coordinates from ORCA-job p-CH3O-Ph-N2-Cl-B3LYPG-aug-cc-pVDZ-scan-d09-49-n400
 OpenBabel11081710393D

 18 18  0  0  0  0  0  0  0  0999 V2000
   -1.3174   -1.7057   -1.5111 C   0  0  0  0  0  0  0  0  0  0  0  0
    0.0182   -1.3577   -1.6125 C   0  0  0  0  0  0  0  0  0  0  0  0
    0.4973   -0.2527   -0.8891 C   0  0  0  0  0  0  0  0  0  0  0  0
   -0.3425    0.5080   -0.0661 C   0  0  0  0  0  0  0  0  0  0  0  0
   -1.6861    0.1523    0.0316 C   0  0  0  0  0  0  0  0  0  0  0  0
   -2.1797   -0.9524   -0.6875 C   0  0  0  0  0  0  0  0  0  0  0  0
   -1.7225   -2.5556   -2.0574 H   0  0  0  0  0  0  0  0  0  0  0  0
    0.7007   -1.9259   -2.2426 H   0  0  0  0  0  0  0  0  0  0  0  0
    0.0663    1.3567    0.4781 H   0  0  0  0  0  0  0  0  0  0  0  0
   -2.3374    0.7428    0.6704 H   0  0  0  0  0  0  0  0  0  0  0  0
    1.8983    0.0476   -1.0456 N   0  0  0  0  0  0  0  0  0  0  0  0
    2.7435    0.7769   -0.7156 N   0  0  0  0  0  0  0  0  0  0  0  0
    2.2340    2.3799    0.6671 Cl  0  0  0  0  0  0  0  0  0  0  0  0
   -3.4652   -1.3714   -0.6552 O   0  0  0  0  0  0  0  0  0  0  0  0
   -4.4036   -0.6598    0.1572 C   0  0  0  0  0  0  0  0  0  0  0  0
   -5.3576   -1.1765    0.0217 H   0  0  0  0  0  0  0  0  0  0  0  0
   -4.4980    0.3843   -0.1741 H   0  0  0  0  0  0  0  0  0  0  0  0
   -4.1116   -0.6938    1.2167 H   0  0  0  0  0  0  0  0  0  0  0  0
  1  6  1  0  0  0  0
  2  1  2  0  0  0  0
  2  3  1  0  0  0  0
  3  4  2  0  0  0  0
  4  5  1  0  0  0  0
  4  9  1  0  0  0  0
  5 10  1  0  0  0  0
  6 14  1  0  0  0  0
  6  5  2  0  0  0  0
  7  1  1  0  0  0  0
  8  2  1  0  0  0  0
 11  3  1  0  0  0  0
 11 12  2  0  0  0  0
 12 13  1  0  0  0  0
 14 15  1  0  0  0  0
 15 18  1  0  0  0  0
 16 15  1  0  0  0  0
 17 15  1  0  0  0  0
M  END
