Coordinates from ORCA-job p-CH3O-Ph-N2-Cl-B3LYPG-aug-cc-pVDZ-scan-d09-49-n400
 OpenBabel11081710393D

 18 16  0  0  0  0  0  0  0  0999 V2000
   -1.4020   -1.7561   -1.5266 C   0  0  0  0  0  0  0  0  0  0  0  0
   -0.0319   -1.4927   -1.7036 C   0  0  0  0  0  0  0  0  0  0  0  0
    0.2802   -0.3955   -0.9402 C   0  0  0  0  0  0  0  0  0  0  0  0
   -0.3391    0.3824   -0.1654 C   0  0  0  0  0  0  0  0  0  0  0  0
   -1.7147    0.1481    0.0358 C   0  0  0  0  0  0  0  0  0  0  0  0
   -2.2242   -0.9609   -0.6818 C   0  0  0  0  0  0  0  0  0  0  0  0
   -1.8627   -2.5950   -2.0483 H   0  0  0  0  0  0  0  0  0  0  0  0
    0.6185   -2.0835   -2.3422 H   0  0  0  0  0  0  0  0  0  0  0  0
    0.3226    1.8017    0.7497 H   0  0  0  0  0  0  0  0  0  0  0  0
   -2.3337    0.7626    0.6840 H   0  0  0  0  0  0  0  0  0  0  0  0
    2.8906   -0.1246   -1.4553 N   0  0  0  0  0  0  0  0  0  0  0  0
    3.8048    0.4608   -1.2541 N   0  0  0  0  0  0  0  0  0  0  0  0
    0.7018    2.8713    1.4753 Cl  0  0  0  0  0  0  0  0  0  0  0  0
   -3.5282   -1.3609   -0.6291 O   0  0  0  0  0  0  0  0  0  0  0  0
   -4.4275   -0.6213    0.1941 C   0  0  0  0  0  0  0  0  0  0  0  0
   -5.3993   -1.1116    0.0845 H   0  0  0  0  0  0  0  0  0  0  0  0
   -4.5025    0.4245   -0.1403 H   0  0  0  0  0  0  0  0  0  0  0  0
   -4.1161   -0.6522    1.2492 H   0  0  0  0  0  0  0  0  0  0  0  0
  1  6  1  0  0  0  0
  2  1  2  0  0  0  0
  2  3  1  0  0  0  0
  3  4  2  0  0  0  0
  4  5  1  0  0  0  0
  5 10  1  0  0  0  0
  6 14  1  0  0  0  0
  6  5  2  0  0  0  0
  7  1  1  0  0  0  0
  8  2  1  0  0  0  0
  9 13  1  0  0  0  0
 11 12  3  0  0  0  0
 14 15  1  0  0  0  0
 15 18  1  0  0  0  0
 16 15  1  0  0  0  0
 17 15  1  0  0  0  0
M  RAD  2   3   2   4   2
M  END
