Coordinates from ORCA-job p-CH3O-Ph-N2-Cl-B3LYPG-aug-cc-pVDZ-scan-d09-49-n400
 OpenBabel11081710393D

 18 16  0  0  0  0  0  0  0  0999 V2000
   -1.4083   -1.7399   -1.5123 C   0  0  0  0  0  0  0  0  0  0  0  0
   -0.0390   -1.4657   -1.6807 C   0  0  0  0  0  0  0  0  0  0  0  0
    0.2627   -0.3663   -0.9126 C   0  0  0  0  0  0  0  0  0  0  0  0
   -0.3793    0.3950   -0.1442 C   0  0  0  0  0  0  0  0  0  0  0  0
   -1.7526    0.1579    0.0540 C   0  0  0  0  0  0  0  0  0  0  0  0
   -2.2445   -0.9548   -0.6714 C   0  0  0  0  0  0  0  0  0  0  0  0
   -1.8590   -2.5812   -2.0389 H   0  0  0  0  0  0  0  0  0  0  0  0
    0.6176   -2.0516   -2.3173 H   0  0  0  0  0  0  0  0  0  0  0  0
    0.2694    1.8665    0.8155 H   0  0  0  0  0  0  0  0  0  0  0  0
   -2.3812    0.7652    0.6995 H   0  0  0  0  0  0  0  0  0  0  0  0
    3.1167   -0.2005   -1.5770 N   0  0  0  0  0  0  0  0  0  0  0  0
    4.0620    0.3463   -1.4142 N   0  0  0  0  0  0  0  0  0  0  0  0
    0.5931    2.9338    1.5530 Cl  0  0  0  0  0  0  0  0  0  0  0  0
   -3.5452   -1.3676   -0.6296 O   0  0  0  0  0  0  0  0  0  0  0  0
   -4.4577   -0.6390    0.1887 C   0  0  0  0  0  0  0  0  0  0  0  0
   -5.4239   -1.1383    0.0705 H   0  0  0  0  0  0  0  0  0  0  0  0
   -4.5404    0.4070   -0.1434 H   0  0  0  0  0  0  0  0  0  0  0  0
   -4.1540   -0.6698    1.2461 H   0  0  0  0  0  0  0  0  0  0  0  0
  1  6  1  0  0  0  0
  2  1  2  0  0  0  0
  2  3  1  0  0  0  0
  3  4  2  0  0  0  0
  4  5  1  0  0  0  0
  5 10  1  0  0  0  0
  6 14  1  0  0  0  0
  6  5  2  0  0  0  0
  7  1  1  0  0  0  0
  8  2  1  0  0  0  0
  9 13  1  0  0  0  0
 11 12  3  0  0  0  0
 14 15  1  0  0  0  0
 15 18  1  0  0  0  0
 16 15  1  0  0  0  0
 17 15  1  0  0  0  0
M  RAD  2   3   2   4   2
M  END
