Coordinates from ORCA-job p-CH3O-Ph-N2-Cl-B3LYPG-aug-cc-pVDZ-scan-d09-49-n400
 OpenBabel11081710393D

 18 16  0  0  0  0  0  0  0  0999 V2000
   -1.2561   -1.4576   -1.3358 C   0  0  0  0  0  0  0  0  0  0  0  0
    0.0715   -0.9963   -1.3479 C   0  0  0  0  0  0  0  0  0  0  0  0
    0.1505    0.1043   -0.5174 C   0  0  0  0  0  0  0  0  0  0  0  0
   -0.6886    0.7140    0.1885 C   0  0  0  0  0  0  0  0  0  0  0  0
   -2.0286    0.3018    0.2419 C   0  0  0  0  0  0  0  0  0  0  0  0
   -2.2785   -0.8337   -0.5681 C   0  0  0  0  0  0  0  0  0  0  0  0
   -1.5297   -2.3274   -1.9334 H   0  0  0  0  0  0  0  0  0  0  0  0
    0.8589   -1.4663   -1.9310 H   0  0  0  0  0  0  0  0  0  0  0  0
   -0.3280    2.2841    1.3045 H   0  0  0  0  0  0  0  0  0  0  0  0
   -2.7976    0.7896    0.8338 H   0  0  0  0  0  0  0  0  0  0  0  0
    4.2578   -1.2381   -2.6975 N   0  0  0  0  0  0  0  0  0  0  0  0
    5.3329   -1.0217   -2.8261 N   0  0  0  0  0  0  0  0  0  0  0  0
   -0.2858    3.3374    2.1089 Cl  0  0  0  0  0  0  0  0  0  0  0  0
   -3.5054   -1.4219   -0.6823 O   0  0  0  0  0  0  0  0  0  0  0  0
   -4.5917   -0.8630    0.0527 C   0  0  0  0  0  0  0  0  0  0  0  0
   -5.4604   -1.4834   -0.1863 H   0  0  0  0  0  0  0  0  0  0  0  0
   -4.7856    0.1760   -0.2542 H   0  0  0  0  0  0  0  0  0  0  0  0
   -4.3991   -0.9005    1.1357 H   0  0  0  0  0  0  0  0  0  0  0  0
  1  6  1  0  0  0  0
  2  1  2  0  0  0  0
  2  3  1  0  0  0  0
  3  4  2  0  0  0  0
  4  5  1  0  0  0  0
  5 10  1  0  0  0  0
  6  5  2  0  0  0  0
  7  1  1  0  0  0  0
  8  2  1  0  0  0  0
  9 13  1  0  0  0  0
 12 11  3  0  0  0  0
 14  6  1  0  0  0  0
 14 15  1  0  0  0  0
 15 18  1  0  0  0  0
 16 15  1  0  0  0  0
 17 15  1  0  0  0  0
M  RAD  2   3   2   4   2
M  END
