Coordinates from ORCA-job p-CH3O-Ph-N2-Cl-B3LYPG-aug-cc-pVDZ-scan-d09-49-n400
 OpenBabel11081710393D

 18 16  0  0  0  0  0  0  0  0999 V2000
   -1.4161   -1.7290   -1.5016 C   0  0  0  0  0  0  0  0  0  0  0  0
   -0.0487   -1.4462   -1.6628 C   0  0  0  0  0  0  0  0  0  0  0  0
    0.2496   -0.3444   -0.8919 C   0  0  0  0  0  0  0  0  0  0  0  0
   -0.4111    0.4039   -0.1284 C   0  0  0  0  0  0  0  0  0  0  0  0
   -1.7827    0.1642    0.0673 C   0  0  0  0  0  0  0  0  0  0  0  0
   -2.2622   -0.9508   -0.6634 C   0  0  0  0  0  0  0  0  0  0  0  0
   -1.8596   -2.5720   -2.0316 H   0  0  0  0  0  0  0  0  0  0  0  0
    0.6171   -2.0250   -2.2964 H   0  0  0  0  0  0  0  0  0  0  0  0
    0.2338    1.9082    0.8579 H   0  0  0  0  0  0  0  0  0  0  0  0
   -2.4182    0.7662    0.7106 H   0  0  0  0  0  0  0  0  0  0  0  0
    3.2966   -0.2536   -1.6682 N   0  0  0  0  0  0  0  0  0  0  0  0
    4.2564    0.2730   -1.5252 N   0  0  0  0  0  0  0  0  0  0  0  0
    0.5228    2.9735    1.6030 Cl  0  0  0  0  0  0  0  0  0  0  0  0
   -3.5603   -1.3725   -0.6292 O   0  0  0  0  0  0  0  0  0  0  0  0
   -4.4821   -0.6520    0.1854 C   0  0  0  0  0  0  0  0  0  0  0  0
   -5.4442   -1.1576    0.0611 H   0  0  0  0  0  0  0  0  0  0  0  0
   -4.5703    0.3941   -0.1451 H   0  0  0  0  0  0  0  0  0  0  0  0
   -4.1840   -0.6827    1.2445 H   0  0  0  0  0  0  0  0  0  0  0  0
  1  6  1  0  0  0  0
  2  1  2  0  0  0  0
  2  3  1  0  0  0  0
  3  4  2  0  0  0  0
  4  5  1  0  0  0  0
  5 10  1  0  0  0  0
  6 14  1  0  0  0  0
  6  5  2  0  0  0  0
  7  1  1  0  0  0  0
  8  2  1  0  0  0  0
  9 13  1  0  0  0  0
 11 12  3  0  0  0  0
 14 15  1  0  0  0  0
 15 18  1  0  0  0  0
 16 15  1  0  0  0  0
 17 15  1  0  0  0  0
M  RAD  2   3   2   4   2
M  END
