Coordinates from ORCA-job p-CH3O-Ph-N2-Cl-B3LYPG-aug-cc-pVDZ-scan-d09-49-n400
 OpenBabel11081710393D

 18 16  0  0  0  0  0  0  0  0999 V2000
   -1.4048   -1.7522   -1.5228 C   0  0  0  0  0  0  0  0  0  0  0  0
   -0.0347   -1.4865   -1.6979 C   0  0  0  0  0  0  0  0  0  0  0  0
    0.2748   -0.3886   -0.9333 C   0  0  0  0  0  0  0  0  0  0  0  0
   -0.3505    0.3847   -0.1603 C   0  0  0  0  0  0  0  0  0  0  0  0
   -1.7254    0.1505    0.0407 C   0  0  0  0  0  0  0  0  0  0  0  0
   -2.2305   -0.9595   -0.6789 C   0  0  0  0  0  0  0  0  0  0  0  0
   -1.8632   -2.5916   -2.0457 H   0  0  0  0  0  0  0  0  0  0  0  0
    0.6167   -2.0764   -2.3362 H   0  0  0  0  0  0  0  0  0  0  0  0
    0.3062    1.8225    0.7707 H   0  0  0  0  0  0  0  0  0  0  0  0
   -2.3468    0.7633    0.6882 H   0  0  0  0  0  0  0  0  0  0  0  0
    2.9613   -0.1459   -1.4915 N   0  0  0  0  0  0  0  0  0  0  0  0
    3.8845    0.4289   -1.3008 N   0  0  0  0  0  0  0  0  0  0  0  0
    0.6656    2.8914    1.5005 Cl  0  0  0  0  0  0  0  0  0  0  0  0
   -3.5337   -1.3627   -0.6290 O   0  0  0  0  0  0  0  0  0  0  0  0
   -4.4363   -0.6259    0.1931 C   0  0  0  0  0  0  0  0  0  0  0  0
   -5.4067   -1.1183    0.0813 H   0  0  0  0  0  0  0  0  0  0  0  0
   -4.5132    0.4200   -0.1407 H   0  0  0  0  0  0  0  0  0  0  0  0
   -4.1268   -0.6567    1.2487 H   0  0  0  0  0  0  0  0  0  0  0  0
  1  6  1  0  0  0  0
  2  1  2  0  0  0  0
  2  3  1  0  0  0  0
  3  4  2  0  0  0  0
  4  5  1  0  0  0  0
  5 10  1  0  0  0  0
  6 14  1  0  0  0  0
  6  5  2  0  0  0  0
  7  1  1  0  0  0  0
  8  2  1  0  0  0  0
  9 13  1  0  0  0  0
 11 12  3  0  0  0  0
 14 15  1  0  0  0  0
 15 18  1  0  0  0  0
 16 15  1  0  0  0  0
 17 15  1  0  0  0  0
M  RAD  2   3   2   4   2
M  END
