Coordinates from ORCA-job p-CH3O-Ph-N2-Cl-B3LYPG-aug-cc-pVDZ-scan-d09-49-n400
 OpenBabel11081710393D

 18 16  0  0  0  0  0  0  0  0999 V2000
   -1.3514   -1.5842   -1.4077 C   0  0  0  0  0  0  0  0  0  0  0  0
   -0.0006   -1.2027   -1.4880 C   0  0  0  0  0  0  0  0  0  0  0  0
    0.1770   -0.0979   -0.6814 C   0  0  0  0  0  0  0  0  0  0  0  0
   -0.5850    0.5766    0.0533 C   0  0  0  0  0  0  0  0  0  0  0  0
   -1.9435    0.2422    0.1722 C   0  0  0  0  0  0  0  0  0  0  0  0
   -2.2979   -0.8884   -0.6052 C   0  0  0  0  0  0  0  0  0  0  0  0
   -1.7033   -2.4449   -1.9767 H   0  0  0  0  0  0  0  0  0  0  0  0
    0.7326   -1.7248   -2.0966 H   0  0  0  0  0  0  0  0  0  0  0  0
   -0.0885    2.1285    1.1176 H   0  0  0  0  0  0  0  0  0  0  0  0
   -2.6548    0.7834    0.7894 H   0  0  0  0  0  0  0  0  0  0  0  0
    4.0256   -0.8150   -2.3055 N   0  0  0  0  0  0  0  0  0  0  0  0
    5.0580   -0.4243   -2.2860 N   0  0  0  0  0  0  0  0  0  0  0  0
    0.0591    3.1909    1.8997 Cl  0  0  0  0  0  0  0  0  0  0  0  0
   -3.5615   -1.4035   -0.6528 O   0  0  0  0  0  0  0  0  0  0  0  0
   -4.5773   -0.7698    0.1211 C   0  0  0  0  0  0  0  0  0  0  0  0
   -5.4913   -1.3408   -0.0669 H   0  0  0  0  0  0  0  0  0  0  0  0
   -4.7237    0.2742   -0.1950 H   0  0  0  0  0  0  0  0  0  0  0  0
   -4.3369   -0.8024    1.1946 H   0  0  0  0  0  0  0  0  0  0  0  0
  1  6  1  0  0  0  0
  2  1  2  0  0  0  0
  2  3  1  0  0  0  0
  3  4  2  0  0  0  0
  4  5  1  0  0  0  0
  5 10  1  0  0  0  0
  6  5  2  0  0  0  0
  7  1  1  0  0  0  0
  8  2  1  0  0  0  0
  9 13  1  0  0  0  0
 11 12  3  0  0  0  0
 14  6  1  0  0  0  0
 14 15  1  0  0  0  0
 15 18  1  0  0  0  0
 16 15  1  0  0  0  0
 17 15  1  0  0  0  0
M  RAD  2   3   2   4   2
M  END
