Coordinates from ORCA-job p-CH3O-Ph-N2-Cl-B3LYPG-aug-cc-pVDZ-scan-d09-49-n400
 OpenBabel11081710393D

 18 16  0  0  0  0  0  0  0  0999 V2000
   -1.2669   -1.4713   -1.3434 C   0  0  0  0  0  0  0  0  0  0  0  0
    0.0635   -1.0183   -1.3627 C   0  0  0  0  0  0  0  0  0  0  0  0
    0.1533    0.0831   -0.5346 C   0  0  0  0  0  0  0  0  0  0  0  0
   -0.6783    0.6996    0.1744 C   0  0  0  0  0  0  0  0  0  0  0  0
   -2.0205    0.2957    0.2350 C   0  0  0  0  0  0  0  0  0  0  0  0
   -2.2816   -0.8396   -0.5718 C   0  0  0  0  0  0  0  0  0  0  0  0
   -1.5489   -2.3403   -1.9381 H   0  0  0  0  0  0  0  0  0  0  0  0
    0.8452   -1.4941   -1.9488 H   0  0  0  0  0  0  0  0  0  0  0  0
   -0.3031    2.2685    1.2855 H   0  0  0  0  0  0  0  0  0  0  0  0
   -2.7836    0.7894    0.8297 H   0  0  0  0  0  0  0  0  0  0  0  0
    4.2400   -1.1944   -2.6588 N   0  0  0  0  0  0  0  0  0  0  0  0
    5.3128   -0.9588   -2.7716 N   0  0  0  0  0  0  0  0  0  0  0  0
   -0.2500    3.3231    2.0878 Cl  0  0  0  0  0  0  0  0  0  0  0  0
   -3.5128   -1.4202   -0.6789 O   0  0  0  0  0  0  0  0  0  0  0  0
   -4.5919   -0.8532    0.0604 C   0  0  0  0  0  0  0  0  0  0  0  0
   -5.4657   -1.4685   -0.1733 H   0  0  0  0  0  0  0  0  0  0  0  0
   -4.7807    0.1865   -0.2474 H   0  0  0  0  0  0  0  0  0  0  0  0
   -4.3942   -0.8900    1.1425 H   0  0  0  0  0  0  0  0  0  0  0  0
  1  6  1  0  0  0  0
  2  1  2  0  0  0  0
  2  3  1  0  0  0  0
  3  4  2  0  0  0  0
  4  5  1  0  0  0  0
  5 10  1  0  0  0  0
  6  5  2  0  0  0  0
  7  1  1  0  0  0  0
  8  2  1  0  0  0  0
  9 13  1  0  0  0  0
 12 11  3  0  0  0  0
 14  6  1  0  0  0  0
 14 15  1  0  0  0  0
 15 18  1  0  0  0  0
 16 15  1  0  0  0  0
 17 15  1  0  0  0  0
M  RAD  2   3   2   4   2
M  END
