Coordinates from ORCA-job p-CH3O-Ph-N2-Cl-B3LYPG-aug-cc-pVDZ-scan-d09-49-n400
 OpenBabel11081710393D

 18 16  0  0  0  0  0  0  0  0999 V2000
   -1.3576   -1.5934   -1.4131 C   0  0  0  0  0  0  0  0  0  0  0  0
   -0.0054   -1.2180   -1.4985 C   0  0  0  0  0  0  0  0  0  0  0  0
    0.1797   -0.1131   -0.6939 C   0  0  0  0  0  0  0  0  0  0  0  0
   -0.5766    0.5659    0.0426 C   0  0  0  0  0  0  0  0  0  0  0  0
   -1.9361    0.2375    0.1665 C   0  0  0  0  0  0  0  0  0  0  0  0
   -2.2982   -0.8924   -0.6083 C   0  0  0  0  0  0  0  0  0  0  0  0
   -1.7153   -2.4533   -1.9799 H   0  0  0  0  0  0  0  0  0  0  0  0
    0.7235   -1.7440   -2.1089 H   0  0  0  0  0  0  0  0  0  0  0  0
   -0.0700    2.1165    1.1031 H   0  0  0  0  0  0  0  0  0  0  0  0
   -2.6429    0.7826    0.7855 H   0  0  0  0  0  0  0  0  0  0  0  0
    4.0005   -0.7825   -2.2734 N   0  0  0  0  0  0  0  0  0  0  0  0
    5.0279   -0.3794   -2.2430 N   0  0  0  0  0  0  0  0  0  0  0  0
    0.0854    3.1792    1.8834 Cl  0  0  0  0  0  0  0  0  0  0  0  0
   -3.5642   -1.4020   -0.6508 O   0  0  0  0  0  0  0  0  0  0  0  0
   -4.5746   -0.7628    0.1257 C   0  0  0  0  0  0  0  0  0  0  0  0
   -5.4917   -1.3299   -0.0583 H   0  0  0  0  0  0  0  0  0  0  0  0
   -4.7174    0.2815   -0.1911 H   0  0  0  0  0  0  0  0  0  0  0  0
   -4.3305   -0.7952    1.1985 H   0  0  0  0  0  0  0  0  0  0  0  0
  1  6  1  0  0  0  0
  2  1  2  0  0  0  0
  2  3  1  0  0  0  0
  3  4  2  0  0  0  0
  4  5  1  0  0  0  0
  5 10  1  0  0  0  0
  6  5  2  0  0  0  0
  7  1  1  0  0  0  0
  8  2  1  0  0  0  0
  9 13  1  0  0  0  0
 11 12  3  0  0  0  0
 14  6  1  0  0  0  0
 14 15  1  0  0  0  0
 15 18  1  0  0  0  0
 16 15  1  0  0  0  0
 17 15  1  0  0  0  0
M  RAD  2   3   2   4   2
M  END
