Coordinates from ORCA-job p-CH3O-Ph-N2-Cl-B3LYPG-aug-cc-pVDZ-scan-d09-49-n400
 OpenBabel11081710393D

 18 17  0  0  0  0  0  0  0  0999 V2000
   -1.1690   -1.6980   -1.2989 C   0  0  0  0  0  0  0  0  0  0  0  0
    0.0930   -1.1998   -1.5350 C   0  0  0  0  0  0  0  0  0  0  0  0
    0.4694    0.1037   -1.0820 C   0  0  0  0  0  0  0  0  0  0  0  0
   -0.5256    0.8718   -0.4120 C   0  0  0  0  0  0  0  0  0  0  0  0
   -1.8027    0.3767   -0.2043 C   0  0  0  0  0  0  0  0  0  0  0  0
   -2.1385   -0.9186   -0.6354 C   0  0  0  0  0  0  0  0  0  0  0  0
   -1.4318   -2.7032   -1.6247 H   0  0  0  0  0  0  0  0  0  0  0  0
    0.8462   -1.7986   -2.0463 H   0  0  0  0  0  0  0  0  0  0  0  0
   -0.2457    1.8632   -0.0591 H   0  0  0  0  0  0  0  0  0  0  0  0
   -2.5217    1.0070    0.3125 H   0  0  0  0  0  0  0  0  0  0  0  0
    1.5567    0.5300   -1.2557 N   0  0  0  0  0  0  0  0  0  0  0  0
    2.6080    0.8557   -0.8984 N   0  0  0  0  0  0  0  0  0  0  0  0
    2.6190    0.4960    1.3684 Cl  0  0  0  0  0  0  0  0  0  0  0  0
   -3.3483   -1.4972   -0.4686 O   0  0  0  0  0  0  0  0  0  0  0  0
   -4.3659   -0.7716    0.2273 C   0  0  0  0  0  0  0  0  0  0  0  0
   -5.2339   -1.4360    0.2526 H   0  0  0  0  0  0  0  0  0  0  0  0
   -4.6244    0.1538   -0.3079 H   0  0  0  0  0  0  0  0  0  0  0  0
   -4.0482   -0.5378    1.2535 H   0  0  0  0  0  0  0  0  0  0  0  0
  1  6  1  0  0  0  0
  2  1  2  0  0  0  0
  2  3  1  0  0  0  0
  3  4  2  0  0  0  0
  4  5  1  0  0  0  0
  4  9  1  0  0  0  0
  5 10  1  0  0  0  0
  6 14  1  0  0  0  0
  6  5  2  0  0  0  0
  7  1  1  0  0  0  0
  8  2  1  0  0  0  0
 11  3  1  0  0  0  0
 11 12  2  0  0  0  0
 14 15  1  0  0  0  0
 15 16  1  0  0  0  0
 15 18  1  0  0  0  0
 17 15  1  0  0  0  0
M  RAD  2  12   2  13   2
M  END
