Coordinates from ORCA-job p-CH3O-Ph-N2-Cl-B3LYPG-aug-cc-pVDZ-scan-d09-49-n400
 OpenBabel11081710393D

 18 16  0  0  0  0  0  0  0  0999 V2000
   -1.4016   -1.7565   -1.5270 C   0  0  0  0  0  0  0  0  0  0  0  0
   -0.0315   -1.4934   -1.7042 C   0  0  0  0  0  0  0  0  0  0  0  0
    0.2809   -0.3962   -0.9409 C   0  0  0  0  0  0  0  0  0  0  0  0
   -0.3377    0.3821   -0.1659 C   0  0  0  0  0  0  0  0  0  0  0  0
   -1.7134    0.1478    0.0352 C   0  0  0  0  0  0  0  0  0  0  0  0
   -2.2234   -0.9611   -0.6821 C   0  0  0  0  0  0  0  0  0  0  0  0
   -1.8626   -2.5953   -2.0486 H   0  0  0  0  0  0  0  0  0  0  0  0
    0.6188   -2.0842   -2.3428 H   0  0  0  0  0  0  0  0  0  0  0  0
    0.3247    1.7992    0.7471 H   0  0  0  0  0  0  0  0  0  0  0  0
   -2.3322    0.7626    0.6835 H   0  0  0  0  0  0  0  0  0  0  0  0
    2.8817   -0.1221   -1.4509 N   0  0  0  0  0  0  0  0  0  0  0  0
    3.7949    0.4645   -1.2485 N   0  0  0  0  0  0  0  0  0  0  0  0
    0.7064    2.8689    1.4722 Cl  0  0  0  0  0  0  0  0  0  0  0  0
   -3.5275   -1.3608   -0.6291 O   0  0  0  0  0  0  0  0  0  0  0  0
   -4.4265   -0.6208    0.1942 C   0  0  0  0  0  0  0  0  0  0  0  0
   -5.3984   -1.1108    0.0849 H   0  0  0  0  0  0  0  0  0  0  0  0
   -4.5013    0.4250   -0.1402 H   0  0  0  0  0  0  0  0  0  0  0  0
   -4.1148   -0.6517    1.2493 H   0  0  0  0  0  0  0  0  0  0  0  0
  1  6  1  0  0  0  0
  2  1  2  0  0  0  0
  2  3  1  0  0  0  0
  3  4  2  0  0  0  0
  4  5  1  0  0  0  0
  5 10  1  0  0  0  0
  6 14  1  0  0  0  0
  6  5  2  0  0  0  0
  7  1  1  0  0  0  0
  8  2  1  0  0  0  0
  9 13  1  0  0  0  0
 11 12  3  0  0  0  0
 14 15  1  0  0  0  0
 15 18  1  0  0  0  0
 16 15  1  0  0  0  0
 17 15  1  0  0  0  0
M  RAD  2   3   2   4   2
M  END
