Coordinates from ORCA-job p-CH3O-Ph-N2-Cl-B3LYPG-aug-cc-pVDZ-scan-d09-49-n400
 OpenBabel11081710393D

 18 17  0  0  0  0  0  0  0  0999 V2000
   -1.1538   -1.6841   -1.2160 C   0  0  0  0  0  0  0  0  0  0  0  0
    0.1129   -1.1780   -1.3983 C   0  0  0  0  0  0  0  0  0  0  0  0
    0.4454    0.1611   -0.9768 C   0  0  0  0  0  0  0  0  0  0  0  0
   -0.6026    0.9235   -0.3604 C   0  0  0  0  0  0  0  0  0  0  0  0
   -1.8720    0.3977   -0.1861 C   0  0  0  0  0  0  0  0  0  0  0  0
   -2.1652   -0.9104   -0.6107 C   0  0  0  0  0  0  0  0  0  0  0  0
   -1.3892   -2.6992   -1.5327 H   0  0  0  0  0  0  0  0  0  0  0  0
    0.8988   -1.7781   -1.8543 H   0  0  0  0  0  0  0  0  0  0  0  0
   -0.3666    1.9313   -0.0225 H   0  0  0  0  0  0  0  0  0  0  0  0
   -2.6261    1.0180    0.2913 H   0  0  0  0  0  0  0  0  0  0  0  0
    1.4762    0.5790   -1.1121 N   0  0  0  0  0  0  0  0  0  0  0  0
    2.5730    0.9168   -1.0430 N   0  0  0  0  0  0  0  0  0  0  0  0
    3.3607    0.2048    1.0583 Cl  0  0  0  0  0  0  0  0  0  0  0  0
   -3.3701   -1.5104   -0.4849 O   0  0  0  0  0  0  0  0  0  0  0  0
   -4.4353   -0.7909    0.1425 C   0  0  0  0  0  0  0  0  0  0  0  0
   -5.2907   -1.4716    0.1375 H   0  0  0  0  0  0  0  0  0  0  0  0
   -4.6830    0.1182   -0.4247 H   0  0  0  0  0  0  0  0  0  0  0  0
   -4.1757   -0.5305    1.1788 H   0  0  0  0  0  0  0  0  0  0  0  0
  1  6  1  0  0  0  0
  2  1  2  0  0  0  0
  2  3  1  0  0  0  0
  3  4  2  0  0  0  0
  4  5  1  0  0  0  0
  4  9  1  0  0  0  0
  5 10  1  0  0  0  0
  6 14  1  0  0  0  0
  6  5  2  0  0  0  0
  7  1  1  0  0  0  0
  8  2  1  0  0  0  0
 11 12  1  0  0  0  0
 11  3  1  0  0  0  0
 14 15  1  0  0  0  0
 15 18  1  0  0  0  0
 16 15  1  0  0  0  0
 17 15  1  0  0  0  0
M  RAD  3  11   2  12   3  13   2
M  END
