Coordinates from ORCA-job p-CH3O-Ph-N2-Cl-B3LYPG-aug-cc-pVDZ-scan-d09-49-n400
 OpenBabel11081710393D

 18 16  0  0  0  0  0  0  0  0999 V2000
   -1.4166   -1.7285   -1.5012 C   0  0  0  0  0  0  0  0  0  0  0  0
   -0.0492   -1.4454   -1.6620 C   0  0  0  0  0  0  0  0  0  0  0  0
    0.2487   -0.3436   -0.8910 C   0  0  0  0  0  0  0  0  0  0  0  0
   -0.4125    0.4043   -0.1277 C   0  0  0  0  0  0  0  0  0  0  0  0
   -1.7841    0.1644    0.0679 C   0  0  0  0  0  0  0  0  0  0  0  0
   -2.2630   -0.9507   -0.6630 C   0  0  0  0  0  0  0  0  0  0  0  0
   -1.8598   -2.5716   -2.0313 H   0  0  0  0  0  0  0  0  0  0  0  0
    0.6168   -2.0241   -2.2956 H   0  0  0  0  0  0  0  0  0  0  0  0
    0.2324    1.9095    0.8593 H   0  0  0  0  0  0  0  0  0  0  0  0
   -2.4199    0.7663    0.7110 H   0  0  0  0  0  0  0  0  0  0  0  0
    3.3050   -0.2555   -1.6720 N   0  0  0  0  0  0  0  0  0  0  0  0
    4.2650    0.2707   -1.5293 N   0  0  0  0  0  0  0  0  0  0  0  0
    0.5203    2.9747    1.6046 Cl  0  0  0  0  0  0  0  0  0  0  0  0
   -3.5611   -1.3728   -0.6292 O   0  0  0  0  0  0  0  0  0  0  0  0
   -4.4833   -0.6525    0.1854 C   0  0  0  0  0  0  0  0  0  0  0  0
   -5.4452   -1.1584    0.0608 H   0  0  0  0  0  0  0  0  0  0  0  0
   -4.5717    0.3936   -0.1452 H   0  0  0  0  0  0  0  0  0  0  0  0
   -4.1853   -0.6833    1.2444 H   0  0  0  0  0  0  0  0  0  0  0  0
  1  6  1  0  0  0  0
  2  1  2  0  0  0  0
  2  3  1  0  0  0  0
  3  4  2  0  0  0  0
  4  5  1  0  0  0  0
  5 10  1  0  0  0  0
  6 14  1  0  0  0  0
  6  5  2  0  0  0  0
  7  1  1  0  0  0  0
  8  2  1  0  0  0  0
  9 13  1  0  0  0  0
 11 12  3  0  0  0  0
 14 15  1  0  0  0  0
 15 18  1  0  0  0  0
 16 15  1  0  0  0  0
 17 15  1  0  0  0  0
M  RAD  2   3   2   4   2
M  END
