Coordinates from ORCA-job p-CH3O-Ph-N2-Cl-B3LYPG-aug-cc-pVDZ-scan-d09-49-n400
 OpenBabel11081710393D

 18 16  0  0  0  0  0  0  0  0999 V2000
   -1.3971   -1.7853   -1.5506 C   0  0  0  0  0  0  0  0  0  0  0  0
   -0.0286   -1.5367   -1.7384 C   0  0  0  0  0  0  0  0  0  0  0  0
    0.3288   -0.4494   -0.9951 C   0  0  0  0  0  0  0  0  0  0  0  0
   -0.2375    0.3974   -0.1814 C   0  0  0  0  0  0  0  0  0  0  0  0
   -1.6190    0.1237   -0.0094 C   0  0  0  0  0  0  0  0  0  0  0  0
   -2.1818   -0.9678   -0.6989 C   0  0  0  0  0  0  0  0  0  0  0  0
   -1.8709   -2.6202   -2.0660 H   0  0  0  0  0  0  0  0  0  0  0  0
    0.6130   -2.1342   -2.3799 H   0  0  0  0  0  0  0  0  0  0  0  0
    0.2839    1.3264    0.3937 H   0  0  0  0  0  0  0  0  0  0  0  0
   -2.2000    0.7652    0.6493 H   0  0  0  0  0  0  0  0  0  0  0  0
    2.4596    0.0812   -1.1762 N   0  0  0  0  0  0  0  0  0  0  0  0
    3.1179    0.8636   -0.7521 N   0  0  0  0  0  0  0  0  0  0  0  0
    1.0711    2.6412    1.1938 Cl  0  0  0  0  0  0  0  0  0  0  0  0
   -3.4892   -1.3281   -0.6147 O   0  0  0  0  0  0  0  0  0  0  0  0
   -4.3526   -0.5561    0.2236 C   0  0  0  0  0  0  0  0  0  0  0  0
   -5.3382   -1.0216    0.1368 H   0  0  0  0  0  0  0  0  0  0  0  0
   -4.4046    0.4877   -0.1193 H   0  0  0  0  0  0  0  0  0  0  0  0
   -4.0182   -0.5898    1.2709 H   0  0  0  0  0  0  0  0  0  0  0  0
  1  6  1  0  0  0  0
  2  1  2  0  0  0  0
  2  3  1  0  0  0  0
  3  4  2  0  0  0  0
  4  5  1  0  0  0  0
  4  9  1  0  0  0  0
  5 10  1  0  0  0  0
  6 14  1  0  0  0  0
  6  5  2  0  0  0  0
  7  1  1  0  0  0  0
  8  2  1  0  0  0  0
 11 12  3  0  0  0  0
 14 15  1  0  0  0  0
 15 18  1  0  0  0  0
 16 15  1  0  0  0  0
 17 15  1  0  0  0  0
M  RAD  2   3   2  13   2
M  END
