Coordinates from ORCA-job p-CH3O-Ph-N2-Cl-B3LYPG-aug-cc-pVDZ-scan-d09-49-n400
 OpenBabel11081710393D

 18 17  0  0  0  0  0  0  0  0999 V2000
   -1.3382   -1.7155   -1.5130 C   0  0  0  0  0  0  0  0  0  0  0  0
    0.0044   -1.3745   -1.6217 C   0  0  0  0  0  0  0  0  0  0  0  0
    0.4420   -0.2763   -0.8921 C   0  0  0  0  0  0  0  0  0  0  0  0
   -0.3490    0.5020   -0.0689 C   0  0  0  0  0  0  0  0  0  0  0  0
   -1.6991    0.1452    0.0298 C   0  0  0  0  0  0  0  0  0  0  0  0
   -2.1944   -0.9582   -0.6879 C   0  0  0  0  0  0  0  0  0  0  0  0
   -1.7472   -2.5647   -2.0576 H   0  0  0  0  0  0  0  0  0  0  0  0
    0.6894   -1.9396   -2.2501 H   0  0  0  0  0  0  0  0  0  0  0  0
    0.0739    1.3479    0.4693 H   0  0  0  0  0  0  0  0  0  0  0  0
   -2.3468    0.7385    0.6697 H   0  0  0  0  0  0  0  0  0  0  0  0
    2.0587    0.0594   -1.0810 N   0  0  0  0  0  0  0  0  0  0  0  0
    2.8285    0.8319   -0.6965 N   0  0  0  0  0  0  0  0  0  0  0  0
    2.2148    2.4115    0.6968 Cl  0  0  0  0  0  0  0  0  0  0  0  0
   -3.4846   -1.3753   -0.6528 O   0  0  0  0  0  0  0  0  0  0  0  0
   -4.4154   -0.6588    0.1612 C   0  0  0  0  0  0  0  0  0  0  0  0
   -5.3730   -1.1703    0.0308 H   0  0  0  0  0  0  0  0  0  0  0  0
   -4.5068    0.3860   -0.1701 H   0  0  0  0  0  0  0  0  0  0  0  0
   -4.1205   -0.6920    1.2203 H   0  0  0  0  0  0  0  0  0  0  0  0
  1  6  1  0  0  0  0
  2  1  2  0  0  0  0
  2  3  1  0  0  0  0
  3  4  2  0  0  0  0
  4  5  1  0  0  0  0
  4  9  1  0  0  0  0
  5 10  1  0  0  0  0
  6 14  1  0  0  0  0
  6  5  2  0  0  0  0
  7  1  1  0  0  0  0
  8  2  1  0  0  0  0
 11  3  1  0  0  0  0
 11 12  2  0  0  0  0
 14 15  1  0  0  0  0
 15 18  1  0  0  0  0
 16 15  1  0  0  0  0
 17 15  1  0  0  0  0
M  RAD  2  12   2  13   2
M  END
