Coordinates from ORCA-job p-CH3O-Ph-N2-Cl-B3LYPG-aug-cc-pVDZ-scan-d09-49-n400
 OpenBabel11081710393D

 18 16  0  0  0  0  0  0  0  0999 V2000
   -1.4222   -1.7018   -1.4789 C   0  0  0  0  0  0  0  0  0  0  0  0
   -0.0572   -1.3992   -1.6240 C   0  0  0  0  0  0  0  0  0  0  0  0
    0.2198   -0.2957   -0.8459 C   0  0  0  0  0  0  0  0  0  0  0  0
   -0.4664    0.4344   -0.0894 C   0  0  0  0  0  0  0  0  0  0  0  0
   -1.8354    0.1793    0.0936 C   0  0  0  0  0  0  0  0  0  0  0  0
   -2.2894   -0.9399   -0.6474 C   0  0  0  0  0  0  0  0  0  0  0  0
   -1.8475   -2.5490   -2.0171 H   0  0  0  0  0  0  0  0  0  0  0  0
    0.6205   -1.9688   -2.2538 H   0  0  0  0  0  0  0  0  0  0  0  0
    0.1569    1.9625    0.9213 H   0  0  0  0  0  0  0  0  0  0  0  0
   -2.4861    0.7699    0.7322 H   0  0  0  0  0  0  0  0  0  0  0  0
    3.6164   -0.3891   -1.8623 N   0  0  0  0  0  0  0  0  0  0  0  0
    4.5590    0.1610   -1.6956 N   0  0  0  0  0  0  0  0  0  0  0  0
    0.4083    3.0267    1.6761 Cl  0  0  0  0  0  0  0  0  0  0  0  0
   -3.5815   -1.3807   -0.6296 O   0  0  0  0  0  0  0  0  0  0  0  0
   -4.5230   -0.6771    0.1773 C   0  0  0  0  0  0  0  0  0  0  0  0
   -5.4761   -1.1963    0.0401 H   0  0  0  0  0  0  0  0  0  0  0  0
   -4.6229    0.3689   -0.1501 H   0  0  0  0  0  0  0  0  0  0  0  0
   -4.2364   -0.7079    1.2395 H   0  0  0  0  0  0  0  0  0  0  0  0
  1  6  1  0  0  0  0
  2  1  2  0  0  0  0
  2  3  1  0  0  0  0
  3  4  2  0  0  0  0
  4  5  1  0  0  0  0
  5 10  1  0  0  0  0
  6 14  1  0  0  0  0
  6  5  2  0  0  0  0
  7  1  1  0  0  0  0
  8  2  1  0  0  0  0
  9 13  1  0  0  0  0
 11 12  3  0  0  0  0
 14 15  1  0  0  0  0
 15 18  1  0  0  0  0
 16 15  1  0  0  0  0
 17 15  1  0  0  0  0
M  RAD  2   3   2   4   2
M  END
