Coordinates from ORCA-job p-CH3O-Ph-N2-Cl-B3LYPG-aug-cc-pVDZ-scan-d09-49-n400
 OpenBabel11081710393D

 18 16  0  0  0  0  0  0  0  0999 V2000
   -1.3794   -1.7558   -1.5325 C   0  0  0  0  0  0  0  0  0  0  0  0
   -0.0213   -1.4549   -1.6770 C   0  0  0  0  0  0  0  0  0  0  0  0
    0.3628   -0.3658   -0.9398 C   0  0  0  0  0  0  0  0  0  0  0  0
   -0.3155    0.4611   -0.1105 C   0  0  0  0  0  0  0  0  0  0  0  0
   -1.6803    0.1268    0.0099 C   0  0  0  0  0  0  0  0  0  0  0  0
   -2.2034   -0.9719   -0.6960 C   0  0  0  0  0  0  0  0  0  0  0  0
   -1.8152   -2.5999   -2.0653 H   0  0  0  0  0  0  0  0  0  0  0  0
    0.6490   -2.0307   -2.3094 H   0  0  0  0  0  0  0  0  0  0  0  0
    0.1694    1.3040    0.4078 H   0  0  0  0  0  0  0  0  0  0  0  0
   -2.3028    0.7390    0.6573 H   0  0  0  0  0  0  0  0  0  0  0  0
    2.2713    0.1050   -1.1056 N   0  0  0  0  0  0  0  0  0  0  0  0
    2.9036    0.9233   -0.6468 N   0  0  0  0  0  0  0  0  0  0  0  0
    1.9519    2.5615    0.8886 Cl  0  0  0  0  0  0  0  0  0  0  0  0
   -3.5018   -1.3650   -0.6397 O   0  0  0  0  0  0  0  0  0  0  0  0
   -4.4044   -0.6247    0.1848 C   0  0  0  0  0  0  0  0  0  0  0  0
   -5.3744   -1.1170    0.0729 H   0  0  0  0  0  0  0  0  0  0  0  0
   -4.4797    0.4198   -0.1517 H   0  0  0  0  0  0  0  0  0  0  0  0
   -4.0932   -0.6578    1.2393 H   0  0  0  0  0  0  0  0  0  0  0  0
  1  6  1  0  0  0  0
  2  1  2  0  0  0  0
  2  3  1  0  0  0  0
  3  4  2  0  0  0  0
  4  5  1  0  0  0  0
  4  9  1  0  0  0  0
  5 10  1  0  0  0  0
  6 14  1  0  0  0  0
  6  5  2  0  0  0  0
  7  1  1  0  0  0  0
  8  2  1  0  0  0  0
 11 12  3  0  0  0  0
 14 15  1  0  0  0  0
 15 18  1  0  0  0  0
 16 15  1  0  0  0  0
 17 15  1  0  0  0  0
M  RAD  2   3   2  13   2
M  END
