Coordinates from ORCA-job p-CH3O-Ph-N2-Cl-B3LYPG-aug-cc-pVDZ-scan-d09-49-n400
 OpenBabel11081710393D

 18 16  0  0  0  0  0  0  0  0999 V2000
   -1.4059   -1.7498   -1.5207 C   0  0  0  0  0  0  0  0  0  0  0  0
   -0.0359   -1.4826   -1.6946 C   0  0  0  0  0  0  0  0  0  0  0  0
    0.2721   -0.3844   -0.9293 C   0  0  0  0  0  0  0  0  0  0  0  0
   -0.3566    0.3863   -0.1573 C   0  0  0  0  0  0  0  0  0  0  0  0
   -1.7312    0.1520    0.0434 C   0  0  0  0  0  0  0  0  0  0  0  0
   -2.2336   -0.9586   -0.6774 C   0  0  0  0  0  0  0  0  0  0  0  0
   -1.8629   -2.5896   -2.0443 H   0  0  0  0  0  0  0  0  0  0  0  0
    0.6164   -2.0718   -2.3326 H   0  0  0  0  0  0  0  0  0  0  0  0
    0.2981    1.8326    0.7808 H   0  0  0  0  0  0  0  0  0  0  0  0
   -2.3540    0.7637    0.6906 H   0  0  0  0  0  0  0  0  0  0  0  0
    2.9964   -0.1572   -1.5100 N   0  0  0  0  0  0  0  0  0  0  0  0
    3.9242    0.4119   -1.3250 N   0  0  0  0  0  0  0  0  0  0  0  0
    0.6488    2.9011    1.5125 Cl  0  0  0  0  0  0  0  0  0  0  0  0
   -3.5364   -1.3637   -0.6290 O   0  0  0  0  0  0  0  0  0  0  0  0
   -4.4409   -0.6285    0.1923 C   0  0  0  0  0  0  0  0  0  0  0  0
   -5.4105   -1.1223    0.0793 H   0  0  0  0  0  0  0  0  0  0  0  0
   -4.5190    0.4174   -0.1412 H   0  0  0  0  0  0  0  0  0  0  0  0
   -4.1326   -0.6593    1.2483 H   0  0  0  0  0  0  0  0  0  0  0  0
  1  6  1  0  0  0  0
  2  1  2  0  0  0  0
  2  3  1  0  0  0  0
  3  4  2  0  0  0  0
  4  5  1  0  0  0  0
  5 10  1  0  0  0  0
  6 14  1  0  0  0  0
  6  5  2  0  0  0  0
  7  1  1  0  0  0  0
  8  2  1  0  0  0  0
  9 13  1  0  0  0  0
 11 12  3  0  0  0  0
 14 15  1  0  0  0  0
 15 18  1  0  0  0  0
 16 15  1  0  0  0  0
 17 15  1  0  0  0  0
M  RAD  2   3   2   4   2
M  END
