Coordinates from ORCA-job p-CH3O-Ph-N2-Cl-B3LYPG-aug-cc-pVDZ-scan-d09-49-n400
 OpenBabel11081710393D

 18 17  0  0  0  0  0  0  0  0999 V2000
   -1.3047   -1.7009   -1.5108 C   0  0  0  0  0  0  0  0  0  0  0  0
    0.0263   -1.3513   -1.6098 C   0  0  0  0  0  0  0  0  0  0  0  0
    0.5349   -0.2389   -0.8891 C   0  0  0  0  0  0  0  0  0  0  0  0
   -0.3391    0.5124   -0.0639 C   0  0  0  0  0  0  0  0  0  0  0  0
   -1.6778    0.1576    0.0332 C   0  0  0  0  0  0  0  0  0  0  0  0
   -2.1702   -0.9484   -0.6871 C   0  0  0  0  0  0  0  0  0  0  0  0
   -1.7087   -2.5511   -2.0574 H   0  0  0  0  0  0  0  0  0  0  0  0
    0.7063   -1.9222   -2.2413 H   0  0  0  0  0  0  0  0  0  0  0  0
    0.0665    1.3627    0.4824 H   0  0  0  0  0  0  0  0  0  0  0  0
   -2.3313    0.7466    0.6714 H   0  0  0  0  0  0  0  0  0  0  0  0
    1.7874    0.0476   -1.0152 N   0  0  0  0  0  0  0  0  0  0  0  0
    2.6921    0.7299   -0.7380 N   0  0  0  0  0  0  0  0  0  0  0  0
    2.2487    2.3760    0.6611 Cl  0  0  0  0  0  0  0  0  0  0  0  0
   -3.4513   -1.3683   -0.6564 O   0  0  0  0  0  0  0  0  0  0  0  0
   -4.3964   -0.6604    0.1547 C   0  0  0  0  0  0  0  0  0  0  0  0
   -5.3471   -1.1817    0.0149 H   0  0  0  0  0  0  0  0  0  0  0  0
   -4.4929    0.3830   -0.1770 H   0  0  0  0  0  0  0  0  0  0  0  0
   -4.1063   -0.6952    1.2143 H   0  0  0  0  0  0  0  0  0  0  0  0
  1  6  1  0  0  0  0
  2  1  2  0  0  0  0
  2  3  1  0  0  0  0
  3  4  2  0  0  0  0
  4  5  1  0  0  0  0
  4  9  1  0  0  0  0
  5 10  1  0  0  0  0
  6 14  1  0  0  0  0
  6  5  2  0  0  0  0
  7  1  1  0  0  0  0
  8  2  1  0  0  0  0
 11  3  1  0  0  0  0
 11 12  2  0  0  0  0
 14 15  1  0  0  0  0
 15 18  1  0  0  0  0
 16 15  1  0  0  0  0
 17 15  1  0  0  0  0
M  RAD  2  12   2  13   2
M  END
