Coordinates from ORCA-job p-CH3O-Ph-N2-Cl-B3LYPG-aug-cc-pVDZ-scan-d09-49-n400
 OpenBabel11081710393D

 18 16  0  0  0  0  0  0  0  0999 V2000
   -1.4017   -1.7855   -1.5495 C   0  0  0  0  0  0  0  0  0  0  0  0
   -0.0324   -1.5385   -1.7388 C   0  0  0  0  0  0  0  0  0  0  0  0
    0.3197   -0.4512   -0.9940 C   0  0  0  0  0  0  0  0  0  0  0  0
   -0.2403    0.3948   -0.1826 C   0  0  0  0  0  0  0  0  0  0  0  0
   -1.6231    0.1243   -0.0078 C   0  0  0  0  0  0  0  0  0  0  0  0
   -2.1859   -0.9673   -0.6974 C   0  0  0  0  0  0  0  0  0  0  0  0
   -1.8762   -2.6203   -2.0646 H   0  0  0  0  0  0  0  0  0  0  0  0
    0.6087   -2.1364   -2.3804 H   0  0  0  0  0  0  0  0  0  0  0  0
    0.2755    1.3392    0.4060 H   0  0  0  0  0  0  0  0  0  0  0  0
   -2.2027    0.7669    0.6513 H   0  0  0  0  0  0  0  0  0  0  0  0
    2.5213    0.0790   -1.1950 N   0  0  0  0  0  0  0  0  0  0  0  0
    3.2035    0.8483   -0.7880 N   0  0  0  0  0  0  0  0  0  0  0  0
    0.9918    2.6442    1.2183 Cl  0  0  0  0  0  0  0  0  0  0  0  0
   -3.4939   -1.3272   -0.6127 O   0  0  0  0  0  0  0  0  0  0  0  0
   -4.3562   -0.5546    0.2258 C   0  0  0  0  0  0  0  0  0  0  0  0
   -5.3422   -1.0195    0.1396 H   0  0  0  0  0  0  0  0  0  0  0  0
   -4.4078    0.4892   -0.1172 H   0  0  0  0  0  0  0  0  0  0  0  0
   -4.0214   -0.5882    1.2729 H   0  0  0  0  0  0  0  0  0  0  0  0
  1  6  1  0  0  0  0
  2  1  2  0  0  0  0
  2  3  1  0  0  0  0
  3  4  2  0  0  0  0
  4  5  1  0  0  0  0
  4  9  1  0  0  0  0
  5 10  1  0  0  0  0
  6 14  1  0  0  0  0
  6  5  2  0  0  0  0
  7  1  1  0  0  0  0
  8  2  1  0  0  0  0
 11 12  3  0  0  0  0
 14 15  1  0  0  0  0
 15 18  1  0  0  0  0
 16 15  1  0  0  0  0
 17 15  1  0  0  0  0
M  RAD  2   3   2  13   2
M  END
