Coordinates from ORCA-job p-CH3O-Ph-N2-Cl-B3LYPG-aug-cc-pVDZ-scan-d09-49-n400
 OpenBabel11081710393D

 18 16  0  0  0  0  0  0  0  0999 V2000
   -1.4122   -1.6838   -1.4678 C   0  0  0  0  0  0  0  0  0  0  0  0
   -0.0486   -1.3689   -1.6030 C   0  0  0  0  0  0  0  0  0  0  0  0
    0.2121   -0.2651   -0.8201 C   0  0  0  0  0  0  0  0  0  0  0  0
   -0.4858    0.4569   -0.0666 C   0  0  0  0  0  0  0  0  0  0  0  0
   -1.8536    0.1894    0.1065 C   0  0  0  0  0  0  0  0  0  0  0  0
   -2.2922   -0.9321   -0.6406 C   0  0  0  0  0  0  0  0  0  0  0  0
   -1.8262   -2.5335   -2.0110 H   0  0  0  0  0  0  0  0  0  0  0  0
    0.6350   -1.9337   -2.2307 H   0  0  0  0  0  0  0  0  0  0  0  0
    0.1186    1.9899    0.9532 H   0  0  0  0  0  0  0  0  0  0  0  0
   -2.5141    0.7724    0.7419 H   0  0  0  0  0  0  0  0  0  0  0  0
    3.6902   -0.4548   -1.9337 N   0  0  0  0  0  0  0  0  0  0  0  0
    4.6507    0.0705   -1.7912 N   0  0  0  0  0  0  0  0  0  0  0  0
    0.3532    3.0543    1.7127 Cl  0  0  0  0  0  0  0  0  0  0  0  0
   -3.5804   -1.3847   -0.6331 O   0  0  0  0  0  0  0  0  0  0  0  0
   -4.5338   -0.6918    0.1690 C   0  0  0  0  0  0  0  0  0  0  0  0
   -5.4811   -1.2193    0.0238 H   0  0  0  0  0  0  0  0  0  0  0  0
   -4.6409    0.3541   -0.1565 H   0  0  0  0  0  0  0  0  0  0  0  0
   -4.2544   -0.7226    1.2331 H   0  0  0  0  0  0  0  0  0  0  0  0
  1  6  1  0  0  0  0
  2  1  2  0  0  0  0
  2  3  1  0  0  0  0
  3  4  2  0  0  0  0
  4  5  1  0  0  0  0
  5 10  1  0  0  0  0
  6 14  1  0  0  0  0
  6  5  2  0  0  0  0
  7  1  1  0  0  0  0
  8  2  1  0  0  0  0
  9 13  1  0  0  0  0
 11 12  3  0  0  0  0
 14 15  1  0  0  0  0
 15 18  1  0  0  0  0
 16 15  1  0  0  0  0
 17 15  1  0  0  0  0
M  RAD  2   3   2   4   2
M  END
