Coordinates from ORCA-job p-CH3O-Ph-N2-Cl-B3LYPG-aug-cc-pVDZ-scan-d09-49-n400
 OpenBabel11081710393D

 18 16  0  0  0  0  0  0  0  0999 V2000
   -1.2896   -1.5001   -1.3596 C   0  0  0  0  0  0  0  0  0  0  0  0
    0.0466   -1.0651   -1.3944 C   0  0  0  0  0  0  0  0  0  0  0  0
    0.1591    0.0377   -0.5714 C   0  0  0  0  0  0  0  0  0  0  0  0
   -0.6558    0.6688    0.1443 C   0  0  0  0  0  0  0  0  0  0  0  0
   -2.0026    0.2826    0.2199 C   0  0  0  0  0  0  0  0  0  0  0  0
   -2.2875   -0.8520   -0.5798 C   0  0  0  0  0  0  0  0  0  0  0  0
   -1.5894   -2.3675   -1.9481 H   0  0  0  0  0  0  0  0  0  0  0  0
    0.8159   -1.5532   -1.9866 H   0  0  0  0  0  0  0  0  0  0  0  0
   -0.2502    2.2341    1.2442 H   0  0  0  0  0  0  0  0  0  0  0  0
   -2.7528    0.7886    0.8206 H   0  0  0  0  0  0  0  0  0  0  0  0
    4.1976   -1.1005   -2.5743 N   0  0  0  0  0  0  0  0  0  0  0  0
    5.2636   -0.8239   -2.6531 N   0  0  0  0  0  0  0  0  0  0  0  0
   -0.1732    3.2912    2.0418 Cl  0  0  0  0  0  0  0  0  0  0  0  0
   -3.5274   -1.4163   -0.6719 O   0  0  0  0  0  0  0  0  0  0  0  0
   -4.5910   -0.8321    0.0765 C   0  0  0  0  0  0  0  0  0  0  0  0
   -5.4753   -1.4365   -0.1457 H   0  0  0  0  0  0  0  0  0  0  0  0
   -4.7690    0.2089   -0.2331 H   0  0  0  0  0  0  0  0  0  0  0  0
   -4.3824   -0.8677    1.1566 H   0  0  0  0  0  0  0  0  0  0  0  0
  1  6  1  0  0  0  0
  2  1  2  0  0  0  0
  2  3  1  0  0  0  0
  3  4  2  0  0  0  0
  4  5  1  0  0  0  0
  5 10  1  0  0  0  0
  6  5  2  0  0  0  0
  7  1  1  0  0  0  0
  8  2  1  0  0  0  0
  9 13  1  0  0  0  0
 12 11  3  0  0  0  0
 14  6  1  0  0  0  0
 14 15  1  0  0  0  0
 15 18  1  0  0  0  0
 16 15  1  0  0  0  0
 17 15  1  0  0  0  0
M  RAD  2   3   2   4   2
M  END
