4-HOOC-Ph+-UB3LYP-aug-cc-pVDZ-Singlet.log
 OpenBabel05291812263D
Gaussian home/ubuntu/g09/g09 #p Temperature=298.15 opt=(maxcycles=1024) SCF=(max
 14 14  0  0  0  0  0  0  0  0999 V2000
   -1.9472    1.3091   -0.0003 C   0  0  0  0  0  0  0  0  0  0  0  0
   -2.3446    0.0402    0.0003 C   0  0  0  0  0  0  0  0  0  0  0  0
   -2.0102   -1.2469    0.0002 C   0  0  0  0  0  0  0  0  0  0  0  0
   -0.5785   -1.2198    0.0000 C   0  0  0  0  0  0  0  0  0  0  0  0
    0.1419   -0.0175   -0.0001 C   0  0  0  0  0  0  0  0  0  0  0  0
   -0.5161    1.2201   -0.0001 C   0  0  0  0  0  0  0  0  0  0  0  0
   -2.5123    2.2389   -0.0011 H   0  0  0  0  0  0  0  0  0  0  0  0
   -2.6146   -2.1516    0.0008 H   0  0  0  0  0  0  0  0  0  0  0  0
   -0.0626   -2.1837    0.0004 H   0  0  0  0  0  0  0  0  0  0  0  0
    0.0281    2.1662   -0.0005 H   0  0  0  0  0  0  0  0  0  0  0  0
    1.6474   -0.1239   -0.0001 C   0  0  0  0  0  0  0  0  0  0  0  0
    2.2195   -1.1850   -0.0005 O   0  0  0  0  0  0  0  0  0  0  0  0
    2.2314    1.0846    0.0006 O   0  0  0  0  0  0  0  0  0  0  0  0
    3.1976    0.9650    0.0006 H   0  0  0  0  0  0  0  0  0  0  0  0
  1  6  2  0  0  0  0
  1  2  1  0  0  0  0
  3  2  2  0  0  0  0
  3  8  1  0  0  0  0
  4  3  1  0  0  0  0
  4  9  1  0  0  0  0
  5 11  1  0  0  0  0
  5  4  2  0  0  0  0
  6  5  1  0  0  0  0
  7  1  1  0  0  0  0
 10  6  1  0  0  0  0
 11 13  1  0  0  0  0
 12 11  2  0  0  0  0
 13 14  1  0  0  0  0
M  RAD  1   2   2
M  END
