25
Coordinates from ORCA-job p-CH3O-Ph-N2-X-OTf-B3LYPG-6-31G_dp-scan-d09-49-n400
  C   -3.09362810000161     -1.55290771134722     -5.57410493533083
  C   -1.76116356671203     -1.35450628106511     -5.88227752956196
  C   -1.24444274911897     -0.04936787293504     -5.89396326349228
  C   -2.05887812090545      1.05541262135190     -5.60275728854175
  C   -3.39681224113899      0.85481613545664     -5.29679613136010
  C   -3.92266675267364     -0.45242263324975     -5.27916405990145
  H   -3.52712874650725     -2.54641394537119     -5.55471600189710
  H   -1.10692391760438     -2.18707000662581     -6.11533657884549
  H   -1.64046390607666      2.05625964928549     -5.62094724252874
  H   -4.02251384049412      1.70994652405660     -5.07421072521438
  N   0.11193806430230      0.10792807247903     -6.21097220866366
  N   0.84560220076934      1.00302371468840     -6.29389404359038
  S   3.49171902040366      1.29988958113684     -7.31042205867228
  C   4.19361641753791      1.92483918956906     -5.70558000007179
  O   4.59559495685034      0.63961987341121     -8.00135715231882
  O   2.81448524819113      2.44737259983013     -7.91093912038176
  O   2.48599462751034      0.22480711972278     -6.79101850408910
  F   3.20989091201445      2.41087777195172     -4.93190804092882
  F   4.80869102003999      0.93888813460192     -5.04493392647743
  F   5.07337223468822      2.90159804482089     -5.94653246401990
  O   -5.20378095245891     -0.75215851285006     -4.99285137037970
  C   -6.11768380712863      0.30296355074923     -4.69303432642074
  H   -7.07352215217142     -0.18228692006569     -4.49842704162255
  H   -6.22311227926569      0.98942897833992     -5.54103018568815
  H   -5.80388357004994      0.85966232205811     -3.80282580000083
