25
Coordinates from ORCA-job p-CH3O-Ph-N2-X-OTf-B3LYPG-6-31G_dp-scan-d09-49-n400
  C   -2.15227651286367     -1.18110880474651     -5.38009980111694
  C   -0.88117585288441     -0.63427004088043     -5.39537615638955
  C   -0.73654835905105      0.75946415470128     -5.45698633264380
  C   -1.85640574116920      1.59400722439223     -5.51226993116662
  C   -3.13410681355286      1.04322814837972     -5.48991099945090
  C   -3.28743175973947     -0.35074345247579     -5.42608970074359
  H   -2.29929402104398     -2.25444000119881     -5.32876759641348
  H   -0.00667885092711     -1.27130011077676     -5.36012185191418
  H   -1.72046570883357      2.66891222229477     -5.56905449387773
  H   -3.99368002105168      1.70009070964213     -5.53060055966173
  N   0.56464271835306      1.35653216535803     -5.45294823473547
  N   0.84779315559552      2.29383002750013     -4.66501402227156
  S   1.75824636783880      1.03660570545706     -6.93173563708162
  C   3.50231426384590      0.70401331312669     -6.22651042369585
  O   1.29591909237793     -0.28649615138819     -7.35038593323923
  O   1.73918148867326      2.16054720859081     -7.85585563812890
  O   2.27071966061718      2.86335034416552     -5.13035677509809
  F   3.39205744523462      0.29573529710213     -4.97016599132490
  F   3.99527812056018     -0.28424386476960     -6.97477571161563
  F   4.27195522796625      1.76272165655075     -6.33597933821212
  O   -4.47956240774277     -0.99137501122809     -5.40596544808814
  C   -5.67456141118890     -0.21849796459959     -5.44775106328686
  H   -6.49400738940243     -0.93684391759543     -5.42333148945532
  H   -5.73713983771549      0.37208446119267     -6.36955039448524
  H   -5.75047285389609      0.44839668120530     -4.58039647590260
