25
Coordinates from ORCA-job p-CH3O-Ph-N2-X-OTf-B3LYPG-6-31G_dp-scan-d09-49-n400
  C   -1.86485045936978     -0.70287372281823     -5.61524549540574
  C   -0.79530145565393      0.15582832335472     -5.75375714021939
  C   -1.06561934626662      1.53961360680750     -5.68779949756201
  C   -2.36499752806129      2.05423660353485     -5.48802962299960
  C   -3.42012831049077      1.17311180394086     -5.36067410788587
  C   -3.17622820985522     -0.21799977894632     -5.42416543060275
  H   -1.71003841544825     -1.77485437825305     -5.66562093380766
  H   0.20847117744643     -0.23256405667698     -5.92554724696742
  H   -2.52883944621855      3.12572426993659     -5.44390986134298
  H   -4.41944002550093      1.56181532780271     -5.21452814402734
  N   -0.06877824231138      2.48103680513957     -5.79043027847915
  N   0.58982350520544      3.38295968695185     -5.79446107257170
  S   2.46896605502784      0.17151382367938     -7.16184602310149
  C   3.32482400053129      0.78836482910984     -5.63005697884289
  O   3.52400839942898      0.06685905708114     -8.17173145877757
  O   1.46560277856406      1.26400331453342     -7.37757203981315
  O   1.84615268279849     -1.09696389923574     -6.69763335300540
  F   2.39669840201297      1.04012458941981     -4.66325999359228
  F   4.19186080274090     -0.10249961785295     -5.13974496612368
  F   3.97739178592172      1.93744745799484     -5.86015782326814
  O   -4.12827516279531     -1.15147769023146     -5.31340393288472
  C   -5.49246190382455     -0.76016828875553     -5.13196129562133
  H   -6.05748689744065     -1.68953682570756     -5.07805595783970
  H   -5.84698704552033     -0.16471158632613     -5.98033076430098
  H   -5.62006714092048     -0.19878965448311     -4.20007658095713
