25
Coordinates from ORCA-job p-CH3O-Ph-N2-X-OTf-B3LYPG-6-31G_dp-scan-d09-49-n400
  C   -1.99535305207487     -0.81035638785272     -5.32773092803559
  C   -0.87581654034047     -0.01157491173326     -5.25412781677914
  C   -1.08158597332115      1.38531562344741     -5.23758026591238
  C   -2.35734039213939      1.97865025195890     -5.30052377541334
  C   -3.46360827136749      1.15528803337122     -5.38432988742352
  C   -3.28898598383233     -0.24769695206352     -5.39860721037439
  H   -1.90025836798705     -1.89033465913521     -5.35093580583820
  H   0.14282358644618     -0.41356410404955     -5.23579410242285
  H   -2.46502543764536      3.05803795831583     -5.29221390662990
  H   -4.44952831506692      1.59761375996282     -5.44183172259775
  N   -0.00604082288815      2.22903268155197     -5.13874835616262
  N   0.80080000258593      2.98442886378675     -4.98764259106731
  S   2.28824343555066      0.08003855394330     -6.85047510857402
  C   3.72628286923915      1.11949826524120     -6.29894459404483
  O   2.78177879559147     -0.64927561736526     -8.02234177178928
  O   1.23463546703886      1.10665600942376     -7.11196352028414
  O   1.99262262002015     -0.73345754007135     -5.63558270171663
  F   3.36318326689995      1.89052905200404     -5.24127372582687
  F   4.76055336104468      0.36235494650505     -5.91532934267061
  F   4.13608595478197      1.94050968856517     -7.27559469719524
  O   -4.29505140656508     -1.12635113641221     -5.47696056457006
  C   -5.64382062582916     -0.66001541128071     -5.57822437114852
  H   -6.25818737205577     -1.55711172173835     -5.63981353972190
  H   -5.78391024648935     -0.05638546139882     -6.48116096430303
  H   -5.92819655159643     -0.08162978497646     -4.69226872949792
