25
Coordinates from ORCA-job p-CH3O-Ph-N2-X-OTf-B3LYPG-6-31G_dp-scan-d09-49-n400
  C   -2.01429197992529     -0.83526084215403     -5.28191234457624
  C   -0.88420326992493     -0.05494469044049     -5.18137288186179
  C   -1.06549671185761      1.34517555680538     -5.17604783874549
  C   -2.32777501624223      1.96004270585529     -5.27754918534610
  C   -3.44573049735958      1.15516758734390     -5.38814130904423
  C   -3.29555782738951     -0.25031965543327     -5.39103358489618
  H   -1.93816550949595     -1.91686081775631     -5.29770642428603
  H   0.12860408911627     -0.46576146553749     -5.13310212983682
  H   -2.41687640709949      3.04112424402325     -5.27783141174673
  H   -4.42172654652164      1.61427529197755     -5.47533708315810
  N   0.02263691425064      2.16976782739187     -5.05196928970906
  N   0.83464145840003      2.91359732398284     -4.87385407295232
  S   2.26200820052810      0.07924359802808     -6.78520149531693
  C   3.73105038304925      1.15665421164872     -6.42155599302267
  O   2.68528323981152     -0.76895057433276     -7.90403653212453
  O   1.19497886530208      1.08022449730879     -7.08785920956936
  O   2.03430152954847     -0.60578190434869     -5.47911409803918
  F   3.43907185096034      2.01338707547937     -5.41112954351697
  F   4.79086509207907      0.42965911110556     -6.04809723977428
  F   4.07104834117992      1.89026116904132     -7.49030667427830
  O   -4.31427118695606     -1.11213907784075     -5.49279033329788
  C   -5.65124522629201     -0.62274541485447     -5.63386317589076
  H   -6.27974003044782     -1.50928624755688     -5.70550385372058
  H   -5.75622324134367     -0.02377418741120     -6.54459365283669
  H   -5.94888651336993     -0.03255532232556     -4.76009064245279
