25
Coordinates from ORCA-job p-CH3O-Ph-N2-X-OTf-B3LYPG-6-31G_dp-scan-d09-49-n400
  C   -2.00606681789425     -0.82451092674260     -5.29769377578411
  C   -0.88055280601710     -0.03623266098672     -5.20714070004344
  C   -1.07239563341518      1.36256580930742     -5.19842226567196
  C   -2.34034244054153      1.96836246714687     -5.28636192441009
  C   -3.45323134704925      1.15549156212342     -5.38708629755227
  C   -3.29257797597559     -0.24901015423784     -5.39343149640822
  H   -1.92185452516141     -1.90548365548169     -5.31572823950904
  H   0.13505667528716     -0.44280015850724     -5.16978774649244
  H   -2.43737539808659      3.04877024865921     -5.28406733658665
  H   -4.43345101930976      1.60740970995219     -5.46396291128601
  N   0.01070124788801      2.19476331790598     -5.08388171897655
  N   0.82141818503560      2.94257145766992     -4.91679133212752
  S   2.27078336894097      0.07829562424231     -6.81196541438567
  C   3.73009503270497      1.14151346023344     -6.37410536787279
  O   2.71897797037483     -0.72212386379406     -7.95574601846218
  O   1.20942557099638      1.09089585404240     -7.09535018720559
  O   2.01757009640131     -0.66052594874165     -5.54061297411905
  F   3.41234732864025      1.96207097763122     -5.34066918966232
  F   4.78069072150712      0.40176657728727     -6.00022640547508
  F   4.09627861388427      1.91356679620158     -7.40641948599683
  O   -4.30584955686805     -1.11805960991396     -5.48650005208056
  C   -5.64776181272267     -0.63853242060350     -5.61393791356523
  H   -6.27014393145657     -1.52965363681223     -5.68181484072598
  H   -5.76572861174081     -0.03827688565616     -6.52224072412815
  H   -5.94171293542210     -0.05263394092557     -4.73605568147229
