25
Coordinates from ORCA-job p-CH3O-Ph-N2-X-OTf-B3LYPG-6-31G_dp-scan-d09-49-n400
  C   -2.01292159137196     -0.82539292771065     -5.33221531778737
  C   -0.88553962265811     -0.03809648654249     -5.25481028897613
  C   -1.07704137914358      1.36062414520591     -5.23123881152796
  C   -2.34673127825668      1.96655137177854     -5.29265158068778
  C   -3.46134324635316      1.15470945261571     -5.38152036090601
  C   -3.30089339552124     -0.24962126922613     -5.40154352357069
  H   -1.92905251502845     -1.90620626662138     -5.35969061413977
  H   0.12969100460683     -0.44690209734656     -5.23587239456993
  H   -2.44390817925627      3.04688156926467     -5.27868488952570
  H   -4.44262230121379      1.60735459241830     -5.43810600277985
  N   0.00521756946231      2.19548760687873     -5.12230869031721
  N   0.81042566064970      2.94883170594483     -4.95332988393503
  S   2.29474986979957      0.07601375918566     -6.80642218499565
  C   3.74319030408089      1.14469146613629     -6.34627060904578
  O   2.76278513877297     -0.72087000676717     -7.94469686150460
  O   1.23320242913546      1.08455933445015     -7.10465775041569
  O   2.02501361243416     -0.66507364376935     -5.53980127308435
  F   3.40678362724917      1.96419244752250     -5.31800293891746
  F   4.79031854630868      0.40849848267016     -5.95625557844161
  F   4.12243166402998      1.91788054230120     -7.37296307267162
  O   -4.31552954372666     -1.11813249403451     -5.48437661804711
  C   -5.65948396861098     -0.63787633386371     -5.58421634446957
  H   -6.28290423615505     -1.52849904624865     -5.64899924866520
  H   -5.79333463057542     -0.02970554420390     -6.48504752000861
  H   -5.93820353865836     -0.05970036003813     -4.69631764100937
