25
Coordinates from ORCA-job p-CH3O-Ph-N2-X-OTf-B3LYPG-6-31G_dp-scan-d09-49-n400
  C   -3.09972081184320     -1.61483748760673     -5.54868508225788
  C   -1.76491971590075     -1.53287015413465     -5.90419569731343
  C   -1.13870156931377     -0.27970278626013     -5.98859348042580
  C   -1.85936888483415      0.89308291536337     -5.71752667853894
  C   -3.19893559305399      0.81432779966416     -5.36261492231811
  C   -3.82812034579743     -0.44275795563533     -5.27521869003050
  H   -3.60844960281673     -2.56958663697182     -5.47573071163963
  H   -1.18624379738601     -2.42381059550939     -6.12187499151215
  H   -1.36852444812710      1.85788958389970     -5.78963742432807
  H   -3.74595028558746      1.72613275904746     -5.15731256161982
  N   0.22597328827562     -0.29213905054281     -6.36148675648404
  N   0.85418762254011      0.71851893433876     -6.44390569908370
  S   3.32584161710810      1.45812636367947     -7.28344273868388
  C   3.87649027221902      1.99482900578039     -5.58561907080547
  O   4.49866735007577      0.91363012735350     -7.94972237842777
  O   2.56057559305497      2.56572712441373     -7.83637533396273
  O   2.39084793776779      0.21287814763656     -6.90431282259407
  F   2.81482008005566      2.34388530437533     -4.85016832178038
  F   4.52368282421344      1.00194603736672     -4.97537928318049
  F   4.69053413059066      3.04495565641031     -5.70820628743042
  O   -5.12332693061870     -0.62541572397325     -4.93866450236070
  C   -5.93260338106198      0.51305193430530     -4.65521869345011
  H   -6.92016066625415      0.12129001064214     -4.41257708956663
  H   -6.00786196860165      1.17566318138170     -5.52556640211053
  H   -5.54443271470407      1.07538550497551     -3.79796438009476
