25
Coordinates from ORCA-job p-CH3O-Ph-N2-X-OTf-B3LYPG-6-31G_dp-scan-d09-49-n400
  C   -2.02006226348062     -0.83454571591913     -5.31557699138097
  C   -0.88871621315718     -0.05425729209087     -5.22771373974486
  C   -1.07112673800203      1.34566373881153     -5.20764758837472
  C   -2.33592422893862      1.95969476216896     -5.28279325984676
  C   -3.45491763902388      1.15489014980261     -5.38196210260292
  C   -3.30351655262298     -0.25036581323393     -5.39867301461371
  H   -1.94319740869803     -1.91592367294621     -5.34102519515532
  H   0.12440869634456     -0.46626630665020     -5.19779901365264
  H   -2.42621258766636      3.04064085043996     -5.27129003282750
  H   -4.43258417393357      1.61383735527629     -5.44915419336677
  N   0.01586680709943      2.17308352361776     -5.08925870460102
  N   0.82479347189375      2.92051940382874     -4.91229751241900
  S   2.28510984602381      0.07603513177437     -6.78065370664750
  C   3.74501434351801      1.15792993690277     -6.39407778794037
  O   2.72798331562800     -0.76946905579931     -7.89392579111172
  O   1.21910345576656      1.07354704462889     -7.09867071006443
  O   2.03934765410857     -0.61093462564011     -5.47875792625922
  F   3.43518009021735      2.01311979400049     -5.38770594810740
  F   4.80103283676480      0.43375564724150     -6.00494918968612
  F   4.09902027025813      1.89323058467117     -7.45705997982386
  O   -4.32289020421993     -1.11245650389834     -5.49070335387232
  C   -5.66256147390557     -0.62348164526649     -5.60492358726264
  H   -6.29122717048196     -1.51008991640994     -5.67409515707633
  H   -5.78339154406704     -0.01635471847001     -6.50827870397886
  H   -5.94623258942522     -0.04160265684051     -4.72100680958308
