25
Coordinates from ORCA-job p-CH3O-Ph-N2-X-OTf-B3LYPG-6-31G_dp-scan-d09-49-n400
  C   -2.06508205338490     -0.91302726459594     -5.21074213935195
  C   -0.90954597696750     -0.18514498137487     -5.03996132224380
  C   -1.02158216701400      1.22231787591881     -5.03452733296523
  C   -2.24422945221194      1.89417833296540     -5.20772252397656
  C   -3.39135086819310      1.14321256996192     -5.38826451823192
  C   -3.30889610372495     -0.26678197633136     -5.39043887999710
  H   -2.03953639745589     -1.99680186707908     -5.22998521605820
  H   0.07774063570486     -0.62813223200121     -4.92771879926970
  H   -2.28209487240531      2.97813086757648     -5.20735455009082
  H   -4.33754975093194      1.64850661410609     -5.53009107989453
  N   0.09873518358299      1.98716654974690     -4.84094615116985
  N   0.96680858284112      2.64860730173662     -4.61678720063153
  S   2.21316307392752      0.14999116161651     -6.59271290126975
  C   3.70328814738612      1.25147399473560     -6.71827790447524
  O   2.55311646555941     -1.04702150901653     -7.37076140228291
  O   1.11656356252048      1.00373960278259     -7.13125353309522
  O   2.08426366503337     -0.04165930304663     -5.11337475665378
  F   3.48420444881038      2.40228173450878     -6.04172630427163
  F   4.78748953129456      0.66508841396298     -6.19517140687945
  F   3.96324307360218      1.56785707238716     -7.99413723553643
  O   -4.35950839367231     -1.07992938835766     -5.55508552341416
  C   -5.66166379620215     -0.52642909522327     -5.76738078678520
  H   -6.32788783673259     -1.38157624092512     -5.87260076739558
  H   -5.68896730256405      0.07449120199418     -6.68242110525298
  H   -5.97642139880238      0.07966056395165     -4.91055665880655
