25
Coordinates from ORCA-job p-CH3O-Ph-N2-X-OTf-B3LYPG-6-31G_dp-scan-d09-49-n400
  C   -2.02479361363061     -0.84119924556713     -5.30310318789888
  C   -0.89069456697097     -0.06593087939167     -5.20787738006654
  C   -1.06647032443154      1.33481708675150     -5.19068797469510
  C   -2.32759614855762      1.95462876204125     -5.27614441714476
  C   -3.44966754068865      1.15488159697563     -5.38254730994593
  C   -3.30485081808853     -0.25100269203632     -5.39641359973384
  H   -1.95297985342288     -1.92295842777203     -5.32681165567978
  H   0.12076098344346     -0.48029734003549     -5.16988962177874
  H   -2.41288241361781      3.03599272024589     -5.26681310621264
  H   -4.42462351175605      1.61833377206771     -5.45760110334206
  N   0.02390227398539      2.15682331946657     -5.06553359051508
  N   0.83559724832496      2.89957285772809     -4.88188695736907
  S   2.27753269875157      0.07752330578826     -6.76292131677892
  C   3.74465561986896      1.16672745465065     -6.42796224120323
  O   2.70379529895225     -0.80195023111069     -7.85633313290666
  O   1.20862781089436      1.06689715398868     -7.09572627492254
  O   2.04781342366543     -0.56998805423536     -5.43784087058817
  F   3.45243606221242      2.04871220468285     -5.44023855548745
  F   4.80578048081441      0.45093003583781     -6.03681621074404
  F   4.08252703688580      1.87220594612941     -7.51612445612608
  O   -4.32755750976363     -1.10848918638452     -5.49489261107311
  C   -5.66399323074205     -0.61329516493490     -5.61978844816761
  H   -6.29639635181731     -1.49701138624109     -5.69195483957242
  H   -5.77532825380513     -0.00727465389856     -6.52509355559246
  H   -5.95129480050625     -0.02844895474651     -4.73899758245495
