25
Coordinates from ORCA-job p-CH3O-Ph-N2-X-OTf-B3LYPG-6-31G_dp-scan-d09-49-n400
  C   -2.11333738904287     -0.89261142763192     -5.30684159988131
  C   -0.97040806532184     -0.15814056749374     -5.08202270270103
  C   -1.10029125445524      1.24353362385412     -4.96217998119633
  C   -2.33481646315153      1.89862224041617     -5.06692734317600
  C   -3.47360371947484      1.14698209556812     -5.30468729546033
  C   -3.36825466587426     -0.25445616428551     -5.42646085838619
  H   -2.06996335543159     -1.97087114694703     -5.41188630970259
  H   0.01104806836615     -0.60945953451321     -4.99239122304204
  H   -2.38956732843423      2.97750417874520     -4.97047061334902
  H   -4.42977597231372      1.64540683040697     -5.39628372540781
  N   0.03319513799125      1.98731609475425     -4.73371899105511
  N   1.11622261839628      2.27050867287185     -4.59772328911914
  S   2.33996996833480      0.19815357569072     -6.49639691992064
  C   3.80798039207845      1.27714447547082     -6.85527195689380
  O   2.72535626220548     -1.14673266912442     -6.93619801758505
  O   1.21843928518970      0.85932031186125     -7.19895093000102
  O   2.20754453867382      0.32700880743547     -4.99122412081694
  F   3.57007761339996      2.53493776876953     -6.43724414971875
  F   4.89870240094560      0.82305149940373     -6.22719029421190
  F   4.05376477221557      1.31136092998602     -8.17142127682980
  O   -4.40691934492269     -1.07195429457337     -5.65294807386379
  C   -5.71829174533803     -0.52404438552656     -5.80659999412828
  H   -6.37320832897612     -1.37738378400033     -5.97787550064837
  H   -5.76464163374773      0.15188591864886     -6.66735801104930
  H   -6.03492179131237      0.00311695021301     -4.89972682185548
