25
Coordinates from ORCA-job p-CH3O-Ph-N2-X-OTf-B3LYPG-6-31G_dp-scan-d09-49-n400
  C   -1.88964041698810     -0.57285926402403     -6.26120670504416
  C   -0.91920831128423      0.33849113823337     -6.62011009259070
  C   -1.14982997145526      1.69320436560811     -6.30098479863127
  C   -2.31779966787022      2.13110066557777     -5.63895697985384
  C   -3.27319404740912      1.19942408348484     -5.28601998813491
  C   -3.06504178295570     -0.16505303344282     -5.59649021161990
  H   -1.74994258684727     -1.62648073733340     -6.47443980473101
  H   0.00301766064894      0.02142784869106     -7.10008792868614
  H   -2.45544361059298      3.18194150422598     -5.40818475629895
  H   -4.16898879988533      1.52797960716702     -4.77569596417438
  N   -0.24811918984041      2.67400718053723     -6.63571993570618
  N   0.34762328612267      3.59320024790181     -6.85503970387477
  S   2.60810496440464      0.21955882024683     -6.89605811345592
  C   2.86226225919024      0.48499308394120     -5.07427854539261
  O   3.95625274318789      0.16006530202205     -7.46485664219188
  O   1.80635978994208      1.43586451751231     -7.26005372052042
  O   1.78784961688487     -1.01603773397256     -6.94379969211723
  F   1.66164905185767      0.66458953907076     -4.46626043107553
  F   3.46048860107922     -0.56450724602029     -4.49930294084646
  F   3.60097528926101      1.57955420300268     -4.83837514888150
  O   -3.92919351836721     -1.14161423404447     -5.29624407528942
  C   -5.14074137331452     -0.83301777661033     -4.60043047780246
  H   -5.65293996316941     -1.78557373646225     -4.47121169822219
  H   -5.77010006138757     -0.15501388875680     -5.18720637030094
  H   -4.93009996121183     -0.39504445655606     -3.61898527455730
