25
Coordinates from ORCA-job p-CH3O-Ph-N2-X-OTf-B3LYPG-6-31G_dp-scan-d09-49-n400
  C   -2.07131092890050     -1.13478617815420     -5.07806952376476
  C   -0.80723400465900     -0.57188542389096     -5.13416756084611
  C   -0.66265528571723      0.78374409817977     -5.45495038239710
  C   -1.78366216671121      1.56644729839330     -5.72711304694397
  C   -3.06005502212650      1.00849059014444     -5.66470274444007
  C   -3.20703776154427     -0.34803967929322     -5.34163363795580
  H   -2.21283750415889     -2.18064031833201     -4.82907287933907
  H   0.07446821496854     -1.16924179509659     -4.92855132377945
  H   -1.65768009280720      2.61390961045809     -5.98091268154988
  H   -3.92125668034990      1.63080749494289     -5.87175256074193
  N   0.64596148054456      1.36815406155682     -5.49590588720483
  N   1.04275604210235      2.16857061680245     -4.46164105560538
  S   1.61036611833556      1.26907400024828     -6.99396266770463
  C   3.26857064479671      0.56908744954919     -6.39187713318216
  O   0.98167608907760      0.20229557884925     -7.76255005700581
  O   1.83951921008772      2.59915221657804     -7.53924544207548
  O   2.14786393134236      2.64710094904947     -4.58704471580195
  F   3.07958342220143     -0.09982547958987     -5.25336512910743
  F   3.69459722131847     -0.26806057699428     -7.33518621569551
  F   4.15012589995610      1.53730283190193     -6.21976356955013
  O   -4.39725662269124     -0.99410915372217     -5.25626751881818
  C   -5.59003823572293     -0.26435151785971     -5.51789010682052
  H   -6.40800151776928     -0.97409770542442     -5.39012270633753
  H   -5.60529104667925      0.12578517536971     -6.54265625570423
  H   -5.71687140489396      0.56531585633378     -4.81159519762818
