Coordinates from ORCA-job 1g-Schema5-R9-P1+-B3LYPG-6-31G_dp-scan-d49-09-n400
 OpenBabel08231810273D

 42 45  0  0  1  0  0  0  0  0999 V2000
   -2.0393    0.8400   -1.1230 C   0  0  0  0  0  0  0  0  0  0  0  0
   -0.9129    0.2427   -0.5879 C   0  0  0  0  0  0  0  0  0  0  0  0
   -0.4054    0.4697    0.7414 C   0  0  0  0  0  0  0  0  0  0  0  0
   -1.1960    1.3456    1.5575 C   0  0  0  0  0  0  0  0  0  0  0  0
   -2.3206    1.9526    1.0391 C   0  0  0  0  0  0  0  0  0  0  0  0
   -2.7447    1.7136   -0.2940 C   0  0  0  0  0  0  0  0  0  0  0  0
   -2.3749    0.6514   -2.1355 H   0  0  0  0  0  0  0  0  0  0  0  0
   -2.9080    2.6219    1.6570 H   0  0  0  0  0  0  0  0  0  0  0  0
   -0.9049    1.5006    2.5912 H   0  0  0  0  0  0  0  0  0  0  0  0
   -0.0591   -0.7032   -1.1951 N   0  0  0  0  0  0  0  0  0  0  0  0
   -0.4450   -1.3188   -2.2385 N   0  0  0  0  0  0  0  0  0  0  0  0
    0.1457   -2.3946   -2.8473 C   0  0  0  0  0  0  0  0  0  0  0  0
   -0.6622   -2.8919   -3.9055 C   0  0  0  0  0  0  0  0  0  0  0  0
    1.3641   -3.0610   -2.5366 C   0  0  0  0  0  0  0  0  0  0  0  0
   -0.2954   -4.0281   -4.6083 C   0  0  0  0  0  0  0  0  0  0  0  0
   -1.5802   -2.3618   -4.1327 H   0  0  0  0  0  0  0  0  0  0  0  0
    1.7140   -4.1971   -3.2384 C   0  0  0  0  0  0  0  0  0  0  0  0
    2.0458   -2.6857   -1.7893 H   0  0  0  0  0  0  0  0  0  0  0  0
    0.8929   -4.6885   -4.2710 C   0  0  0  0  0  0  0  0  0  0  0  0
   -0.9169   -4.4066   -5.4108 H   0  0  0  0  0  0  0  0  0  0  0  0
    2.6361   -4.7253   -3.0218 H   0  0  0  0  0  0  0  0  0  0  0  0
    0.5581   -0.0820    0.9552 C   0  0  1  0  0  0  0  0  0  0  0  0
    1.1075   -0.8636   -0.2579 C   0  0  2  0  0  0  0  0  0  0  0  0
    1.5218   -0.0092    1.9346 C   0  0  0  0  0  0  0  0  0  0  0  0
    2.4396   -0.1372   -0.6372 C   0  0  0  0  0  0  0  0  0  0  0  0
    1.2758   -1.9290   -0.0784 H   0  0  0  0  0  0  0  0  0  0  0  0
    2.8368    0.0402    1.7824 C   0  0  0  0  0  0  0  0  0  0  0  0
    3.2401    0.2833    0.3739 C   0  0  0  0  0  0  0  0  0  0  0  0
    3.5862   -0.1638    2.5420 H   0  0  0  0  0  0  0  0  0  0  0  0
    4.2045    0.7252    0.1437 H   0  0  0  0  0  0  0  0  0  0  0  0
    1.3560   -5.9237   -4.9856 C   0  0  0  0  0  0  0  0  0  0  0  0
    2.3812   -6.5057   -4.7078 O   0  0  0  0  0  0  0  0  0  0  0  0
    0.5072   -6.3036   -5.9565 O   0  0  0  0  0  0  0  0  0  0  0  0
    0.8744   -7.1052   -6.3672 H   0  0  0  0  0  0  0  0  0  0  0  0
   -3.9632    2.3608   -0.8737 C   0  0  0  0  0  0  0  0  0  0  0  0
   -4.3463    2.1637   -2.0067 O   0  0  0  0  0  0  0  0  0  0  0  0
   -4.5769    3.1785    0.0010 O   0  0  0  0  0  0  0  0  0  0  0  0
   -5.3520    3.5556   -0.4492 H   0  0  0  0  0  0  0  0  0  0  0  0
    2.8180    0.0675   -2.0551 C   0  0  0  0  0  0  0  0  0  0  0  0
    2.1250   -0.2613   -3.0010 O   0  0  0  0  0  0  0  0  0  0  0  0
    4.0058    0.6824   -2.1955 O   0  0  0  0  0  0  0  0  0  0  0  0
    4.1569    0.8024   -3.1485 H   0  0  0  0  0  0  0  0  0  0  0  0
  1  2  2  0  0  0  0
  1  6  1  0  0  0  0
  2  3  1  0  0  0  0
  3  4  2  0  0  0  0
  4  9  1  0  0  0  0
  5  4  1  0  0  0  0
  5  8  1  0  0  0  0
  6  5  2  0  0  0  0
  7  1  1  0  0  0  0
 10  2  1  0  0  0  0
 10 23  1  0  0  0  0
 11 10  1  0  0  0  0
 12 14  1  0  0  0  0
 12 11  1  0  0  0  0
 13 12  2  0  0  0  0
 14 18  1  0  0  0  0
 15 19  2  0  0  0  0
 15 13  1  0  0  0  0
 16 13  1  0  0  0  0
 17 21  1  0  0  0  0
 17 14  2  0  0  0  0
 19 17  1  0  0  0  0
 20 15  1  0  0  0  0
 22  3  1  6  0  0  0
 22 24  1  0  0  0  0
 23 26  1  1  0  0  0
 23 22  1  0  0  0  0
 25 23  1  0  0  0  0
 25 28  2  0  0  0  0
 27 24  2  0  0  0  0
 27 29  1  0  0  0  0
 28 27  1  0  0  0  0
 30 28  1  0  0  0  0
 31 32  2  0  0  0  0
 31 19  1  0  0  0  0
 33 31  1  0  0  0  0
 34 33  1  0  0  0  0
 35  6  1  0  0  0  0
 35 37  1  0  0  0  0
 36 35  2  0  0  0  0
 38 37  1  0  0  0  0
 39 25  1  0  0  0  0
 40 39  2  0  0  0  0
 41 39  1  0  0  0  0
 42 41  1  0  0  0  0
M  RAD  3  11   2  22   2  24   2
M  END
