Coordinates from ORCA-job 1g-Schema5-R9-P1+-B3LYPG-6-31G_dp-scan-d49-09-n400
 OpenBabel08231810273D

 42 43  0  0  0  0  0  0  0  0999 V2000
   -3.0216    0.4255   -1.2331 C   0  0  0  0  0  0  0  0  0  0  0  0
   -1.6636    0.1782   -0.8291 C   0  0  0  0  0  0  0  0  0  0  0  0
   -1.5326    1.0219    0.1908 C   0  0  0  0  0  0  0  0  0  0  0  0
   -2.1631    1.9514    0.9277 C   0  0  0  0  0  0  0  0  0  0  0  0
   -3.4839    2.1142    0.4483 C   0  0  0  0  0  0  0  0  0  0  0  0
   -3.8947    1.3320   -0.6459 C   0  0  0  0  0  0  0  0  0  0  0  0
   -3.2994   -0.2037   -2.0886 H   0  0  0  0  0  0  0  0  0  0  0  0
   -4.1442    2.8291    0.9274 H   0  0  0  0  0  0  0  0  0  0  0  0
   -1.7425    2.5010    1.7626 H   0  0  0  0  0  0  0  0  0  0  0  0
   -0.8193   -0.7590   -1.4658 N   0  0  0  0  0  0  0  0  0  0  0  0
   -1.3429   -1.3605   -2.4308 N   0  0  0  0  0  0  0  0  0  0  0  0
   -0.5894   -2.2995   -3.1245 C   0  0  0  0  0  0  0  0  0  0  0  0
   -1.2579   -2.9217   -4.2001 C   0  0  0  0  0  0  0  0  0  0  0  0
    0.7491   -2.6286   -2.8099 C   0  0  0  0  0  0  0  0  0  0  0  0
   -0.5931   -3.8713   -4.9636 C   0  0  0  0  0  0  0  0  0  0  0  0
   -2.2844   -2.6429   -4.4119 H   0  0  0  0  0  0  0  0  0  0  0  0
    1.3996   -3.5746   -3.5798 C   0  0  0  0  0  0  0  0  0  0  0  0
    1.2675   -2.1560   -1.9842 H   0  0  0  0  0  0  0  0  0  0  0  0
    0.7362   -4.1975   -4.6542 C   0  0  0  0  0  0  0  0  0  0  0  0
   -1.0888   -4.3588   -5.7939 H   0  0  0  0  0  0  0  0  0  0  0  0
    2.4262   -3.8458   -3.3633 H   0  0  0  0  0  0  0  0  0  0  0  0
    2.3704    0.9688    1.5032 C   0  0  0  0  0  0  0  0  0  0  0  0
    2.5381   -0.0965    0.6318 C   0  0  0  0  0  0  0  0  0  0  0  0
    3.3272    1.5721    2.0418 C   0  0  0  0  0  0  0  0  0  0  0  0
    3.9072   -0.4082    0.4261 C   0  0  0  0  0  0  0  0  0  0  0  0
    1.7647   -0.6680    0.1327 H   0  0  0  0  0  0  0  0  0  0  0  0
    4.6895    1.3866    1.9411 C   0  0  0  0  0  0  0  0  0  0  0  0
    4.9436    0.3103    1.0637 C   0  0  0  0  0  0  0  0  0  0  0  0
    5.4773    1.9411    2.4356 H   0  0  0  0  0  0  0  0  0  0  0  0
    5.9726    0.0229    0.8749 H   0  0  0  0  0  0  0  0  0  0  0  0
    1.5078   -5.2123   -5.4444 C   0  0  0  0  0  0  0  0  0  0  0  0
    2.6609   -5.5037   -5.2138 O   0  0  0  0  0  0  0  0  0  0  0  0
    0.7771   -5.7607   -6.4339 O   0  0  0  0  0  0  0  0  0  0  0  0
    1.3485   -6.4012   -6.8909 H   0  0  0  0  0  0  0  0  0  0  0  0
   -5.2725    1.4233   -1.2404 C   0  0  0  0  0  0  0  0  0  0  0  0
   -5.6289    0.7540   -2.1820 O   0  0  0  0  0  0  0  0  0  0  0  0
   -6.0319    2.3271   -0.6023 O   0  0  0  0  0  0  0  0  0  0  0  0
   -6.9045    2.3424   -1.0330 H   0  0  0  0  0  0  0  0  0  0  0  0
    4.2047   -1.5367   -0.4999 C   0  0  0  0  0  0  0  0  0  0  0  0
    3.3580   -2.1590   -1.1199 O   0  0  0  0  0  0  0  0  0  0  0  0
    5.5173   -1.8190   -0.5949 O   0  0  0  0  0  0  0  0  0  0  0  0
    5.6054   -2.5659   -1.2108 H   0  0  0  0  0  0  0  0  0  0  0  0
  1  2  2  0  0  0  0
  1  6  1  0  0  0  0
  2  3  1  0  0  0  0
  3  4  2  0  0  0  0
  4  9  1  0  0  0  0
  5  8  1  0  0  0  0
  5  4  1  0  0  0  0
  6  5  2  0  0  0  0
  7  1  1  0  0  0  0
 10  2  1  0  0  0  0
 11 10  1  0  0  0  0
 12 14  1  0  0  0  0
 12 11  1  0  0  0  0
 13 12  2  0  0  0  0
 14 18  1  0  0  0  0
 15 19  2  0  0  0  0
 15 13  1  0  0  0  0
 16 13  1  0  0  0  0
 17 21  1  0  0  0  0
 17 14  2  0  0  0  0
 19 17  1  0  0  0  0
 20 15  1  0  0  0  0
 22 24  2  0  0  0  0
 23 22  1  0  0  0  0
 25 23  2  0  0  0  0
 25 28  1  0  0  0  0
 26 23  1  0  0  0  0
 27 24  1  0  0  0  0
 27 29  1  0  0  0  0
 28 27  2  0  0  0  0
 30 28  1  0  0  0  0
 31 32  2  0  0  0  0
 31 19  1  0  0  0  0
 33 31  1  0  0  0  0
 34 33  1  0  0  0  0
 35  6  1  0  0  0  0
 35 37  1  0  0  0  0
 36 35  2  0  0  0  0
 38 37  1  0  0  0  0
 39 25  1  0  0  0  0
 40 39  2  0  0  0  0
 41 39  1  0  0  0  0
 42 41  1  0  0  0  0
M  RAD  5   3   2  10   2  11   2  22   2  24   2
M  END
