Coordinates from ORCA-job 1g-Schema5-R9-P1+-B3LYPG-6-31G_dp-scan-d49-09-n400
 OpenBabel08231810273D

 42 46  0  0  1  0  0  0  0  0999 V2000
   -1.9711    0.6482   -1.0968 C   0  0  0  0  0  0  0  0  0  0  0  0
   -0.6780    0.1909   -0.9028 C   0  0  0  0  0  0  0  0  0  0  0  0
    0.2094    0.6716    0.1040 C   0  0  1  0  0  0  0  0  0  0  0  0
   -0.2324    1.7680    0.8683 C   0  0  0  0  0  0  0  0  0  0  0  0
   -1.5333    2.2309    0.7034 C   0  0  0  0  0  0  0  0  0  0  0  0
   -2.4009    1.6903   -0.2733 C   0  0  1  0  0  0  0  0  0  0  0  0
   -2.6363    0.2235   -1.8405 H   0  0  0  0  0  0  0  0  0  0  0  0
   -1.8908    3.0519    1.3151 H   0  0  0  0  0  0  0  0  0  0  0  0
    0.4297    2.2357    1.5893 H   0  0  0  0  0  0  0  0  0  0  0  0
   -0.0487   -0.9197   -1.4899 N   0  0  0  0  0  0  0  0  0  0  0  0
   -0.4829   -1.5052   -2.5202 N   0  0  0  0  0  0  0  0  0  0  0  0
    0.0288   -2.6976   -2.9996 C   0  0  0  0  0  0  0  0  0  0  0  0
   -0.1597   -2.8785   -4.3888 C   0  0  0  0  0  0  0  0  0  0  0  0
    0.5998   -3.7348   -2.2201 C   0  0  0  0  0  0  0  0  0  0  0  0
    0.3037   -4.0307   -5.0080 C   0  0  0  0  0  0  0  0  0  0  0  0
   -0.6428   -2.0887   -4.9533 H   0  0  0  0  0  0  0  0  0  0  0  0
    1.0191   -4.8959   -2.8451 C   0  0  0  0  0  0  0  0  0  0  0  0
    0.6278   -3.6701   -1.1382 H   0  0  0  0  0  0  0  0  0  0  0  0
    0.8967   -5.0409   -4.2383 C   0  0  0  0  0  0  0  0  0  0  0  0
    0.1897   -4.1639   -6.0772 H   0  0  0  0  0  0  0  0  0  0  0  0
    1.4342   -5.7206   -2.2757 H   0  0  0  0  0  0  0  0  0  0  0  0
    0.7257   -1.0573    0.7961 C   0  0  1  0  0  0  0  0  0  0  0  0
    1.1841   -1.1380   -0.6115 C   0  0  2  0  0  0  0  0  0  0  0  0
    1.5636   -1.0438    1.7521 C   0  0  0  0  0  0  0  0  0  0  0  0
    1.7021    0.3557   -0.3951 C   0  0  2  0  0  0  0  0  0  0  0  0
    1.8466   -1.9132   -0.9793 H   0  0  0  0  0  0  0  0  0  0  0  0
    2.6093   -0.1012    1.8704 C   0  0  0  0  0  0  0  0  0  0  0  0
    2.7284    0.5722    0.6800 C   0  0  0  0  0  0  0  0  0  0  0  0
    3.2949    0.0084    2.7027 H   0  0  0  0  0  0  0  0  0  0  0  0
    3.5190    1.2924    0.4948 H   0  0  0  0  0  0  0  0  0  0  0  0
    1.3910   -6.3225   -4.8405 C   0  0  0  0  0  0  0  0  0  0  0  0
    1.9054   -7.2061   -4.1910 O   0  0  0  0  0  0  0  0  0  0  0  0
    1.2000   -6.3723   -6.1708 O   0  0  0  0  0  0  0  0  0  0  0  0
    1.5425   -7.2279   -6.4815 H   0  0  0  0  0  0  0  0  0  0  0  0
   -3.7921    2.1940   -0.4808 C   0  0  0  0  0  0  0  0  0  0  0  0
   -4.5457    1.7481   -1.3190 O   0  0  0  0  0  0  0  0  0  0  0  0
   -4.1106    3.1924    0.3651 O   0  0  0  0  0  0  0  0  0  0  0  0
   -5.0241    3.4587    0.1651 H   0  0  0  0  0  0  0  0  0  0  0  0
    2.0399    1.0609   -1.7139 C   0  0  0  0  0  0  0  0  0  0  0  0
    2.0009    0.5043   -2.7867 O   0  0  0  0  0  0  0  0  0  0  0  0
    2.3709    2.3429   -1.5195 O   0  0  0  0  0  0  0  0  0  0  0  0
    2.5757    2.7387   -2.3860 H   0  0  0  0  0  0  0  0  0  0  0  0
  1  2  2  0  0  0  0
  1  6  1  0  0  0  0
  3  2  1  6  0  0  0
  3 22  1  0  0  0  0
  3  4  1  0  0  0  0
  4  9  1  0  0  0  0
  5  4  2  0  0  0  0
  5  8  1  0  0  0  0
  6 35  1  6  0  0  0
  6  5  1  0  0  0  0
  7  1  1  0  0  0  0
 10  2  1  0  0  0  0
 10 23  1  0  0  0  0
 11 10  1  0  0  0  0
 12 11  1  0  0  0  0
 12 14  2  0  0  0  0
 13 12  1  0  0  0  0
 14 18  1  0  0  0  0
 15 13  2  0  0  0  0
 15 19  1  0  0  0  0
 16 13  1  0  0  0  0
 17 21  1  0  0  0  0
 17 14  1  0  0  0  0
 19 17  2  0  0  0  0
 20 15  1  0  0  0  0
 22 24  1  1  0  0  0
 23 26  1  6  0  0  0
 23 25  1  0  0  0  0
 23 22  1  0  0  0  0
 24 27  2  0  0  0  0
 25 39  1  6  0  0  0
 25  3  1  0  0  0  0
 25 28  1  0  0  0  0
 27 29  1  0  0  0  0
 28 27  1  0  0  0  0
 30 28  1  0  0  0  0
 31 19  1  0  0  0  0
 31 32  2  0  0  0  0
 33 31  1  0  0  0  0
 34 33  1  0  0  0  0
 35 37  1  0  0  0  0
 36 35  2  0  0  0  0
 38 37  1  0  0  0  0
 39 41  1  0  0  0  0
 40 39  2  0  0  0  0
 42 41  1  0  0  0  0
M  RAD  5   6   2  11   2  22   2  24   2  28   2
M  END
