Coordinates from ORCA-job 1g-Schema5-R9-P1+-B3LYPG-6-31G_dp-scan-d49-09-n400
 OpenBabel08231810273D

 42 45  0  0  1  0  0  0  0  0999 V2000
   -1.8975    0.7083   -1.3489 C   0  0  0  0  0  0  0  0  0  0  0  0
   -0.5818    0.3720   -1.0477 C   0  0  0  0  0  0  0  0  0  0  0  0
    0.2280    1.1636   -0.2243 C   0  0  0  0  0  0  0  0  0  0  0  0
   -0.2699    2.3367    0.3246 C   0  0  0  0  0  0  0  0  0  0  0  0
   -1.5920    2.6921    0.0355 C   0  0  0  0  0  0  0  0  0  0  0  0
   -2.3980    1.8853   -0.7877 C   0  0  0  0  0  0  0  0  0  0  0  0
   -2.5236    0.1005   -1.9915 H   0  0  0  0  0  0  0  0  0  0  0  0
   -2.0085    3.6038    0.4472 H   0  0  0  0  0  0  0  0  0  0  0  0
    0.3493    2.9650    0.9553 H   0  0  0  0  0  0  0  0  0  0  0  0
    0.1104   -0.7708   -1.5565 N   0  0  0  0  0  0  0  0  0  0  0  0
   -0.5471   -1.6651   -2.1641 N   0  0  0  0  0  0  0  0  0  0  0  0
   -0.0089   -2.7522   -2.8183 C   0  0  0  0  0  0  0  0  0  0  0  0
   -0.9591   -3.7851   -3.0247 C   0  0  0  0  0  0  0  0  0  0  0  0
    1.3009   -2.8842   -3.3528 C   0  0  0  0  0  0  0  0  0  0  0  0
   -0.5929   -4.9554   -3.6685 C   0  0  0  0  0  0  0  0  0  0  0  0
   -1.9649   -3.6400   -2.6470 H   0  0  0  0  0  0  0  0  0  0  0  0
    1.6391   -4.0425   -4.0321 C   0  0  0  0  0  0  0  0  0  0  0  0
    2.0154   -2.0754   -3.3041 H   0  0  0  0  0  0  0  0  0  0  0  0
    0.7104   -5.0864   -4.1733 C   0  0  0  0  0  0  0  0  0  0  0  0
   -1.3074   -5.7584   -3.8040 H   0  0  0  0  0  0  0  0  0  0  0  0
    2.6239   -4.1645   -4.4688 H   0  0  0  0  0  0  0  0  0  0  0  0
    2.1921   -2.0118   -0.7245 C   0  0  0  0  0  0  0  0  0  0  0  0
    1.5915   -0.7013   -1.1945 C   0  0  2  0  0  0  0  0  0  0  0  0
    2.4357   -2.0666    0.4794 C   0  0  0  0  0  0  0  0  0  0  0  0
    1.6103    0.4626   -0.0702 C   0  0  2  0  0  0  0  0  0  0  0  0
    2.1046   -0.2859   -2.0693 H   0  0  0  0  0  0  0  0  0  0  0  0
    2.3247   -1.2723    1.6581 C   0  0  0  0  0  0  0  0  0  0  0  0
    1.8668   -0.0315    1.3560 C   0  0  0  0  0  0  0  0  0  0  0  0
    2.5300   -1.5992    2.6698 H   0  0  0  0  0  0  0  0  0  0  0  0
    1.7017    0.6898    2.1502 H   0  0  0  0  0  0  0  0  0  0  0  0
    1.1654   -6.3169   -4.9023 C   0  0  0  0  0  0  0  0  0  0  0  0
    2.2799   -6.4438   -5.3588 O   0  0  0  0  0  0  0  0  0  0  0  0
    0.2014   -7.2513   -4.9828 O   0  0  0  0  0  0  0  0  0  0  0  0
    0.5725   -8.0115   -5.4627 H   0  0  0  0  0  0  0  0  0  0  0  0
   -3.8168    2.2421   -1.1172 C   0  0  0  0  0  0  0  0  0  0  0  0
   -4.5279    1.5612   -1.8224 O   0  0  0  0  0  0  0  0  0  0  0  0
   -4.2017    3.3973   -0.5451 O   0  0  0  0  0  0  0  0  0  0  0  0
   -5.1242    3.5577   -0.8079 H   0  0  0  0  0  0  0  0  0  0  0  0
    2.7172    1.4694   -0.4772 C   0  0  0  0  0  0  0  0  0  0  0  0
    3.2747    1.4704   -1.5481 O   0  0  0  0  0  0  0  0  0  0  0  0
    2.9422    2.3617    0.4989 O   0  0  0  0  0  0  0  0  0  0  0  0
    3.6238    2.9833    0.1850 H   0  0  0  0  0  0  0  0  0  0  0  0
  1  2  2  0  0  0  0
  1  6  1  0  0  0  0
  2  3  1  0  0  0  0
  3 25  1  0  0  0  0
  3  4  2  0  0  0  0
  4  9  1  0  0  0  0
  5  4  1  0  0  0  0
  5  8  1  0  0  0  0
  6  5  2  0  0  0  0
  7  1  1  0  0  0  0
 10 23  1  0  0  0  0
 10  2  1  0  0  0  0
 11 10  1  0  0  0  0
 12 11  1  0  0  0  0
 13 12  1  0  0  0  0
 13 16  1  0  0  0  0
 14 18  1  0  0  0  0
 14 12  2  0  0  0  0
 15 13  2  0  0  0  0
 17 14  1  0  0  0  0
 19 17  2  0  0  0  0
 19 15  1  0  0  0  0
 20 15  1  0  0  0  0
 21 17  1  0  0  0  0
 22 24  2  0  0  0  0
 23 26  1  6  0  0  0
 23 22  1  0  0  0  0
 23 25  1  0  0  0  0
 24 27  1  0  0  0  0
 25 39  1  6  0  0  0
 25 28  1  0  0  0  0
 27 29  1  0  0  0  0
 28 27  2  0  0  0  0
 28 30  1  0  0  0  0
 31 19  1  0  0  0  0
 32 31  2  0  0  0  0
 33 31  1  0  0  0  0
 34 33  1  0  0  0  0
 35  6  1  0  0  0  0
 35 37  1  0  0  0  0
 36 35  2  0  0  0  0
 38 37  1  0  0  0  0
 39 41  1  0  0  0  0
 40 39  2  0  0  0  0
 42 41  1  0  0  0  0
M  RAD  3  11   2  22   2  24   2
M  END
