Coordinates from ORCA-job 1g-Schema5-R9-P1+-B3LYPG-6-31G_dp-scan-d49-09-n400
 OpenBabel08231810273D

 42 43  0  0  0  0  0  0  0  0999 V2000
   -3.2301    0.4381   -1.2866 C   0  0  0  0  0  0  0  0  0  0  0  0
   -1.8854    0.2164   -0.8250 C   0  0  0  0  0  0  0  0  0  0  0  0
   -1.8215    1.0506    0.2083 C   0  0  0  0  0  0  0  0  0  0  0  0
   -2.5067    1.9564    0.9262 C   0  0  0  0  0  0  0  0  0  0  0  0
   -3.8077    2.0961    0.3889 C   0  0  0  0  0  0  0  0  0  0  0  0
   -4.1500    1.3173   -0.7310 C   0  0  0  0  0  0  0  0  0  0  0  0
   -3.4538   -0.1902   -2.1589 H   0  0  0  0  0  0  0  0  0  0  0  0
   -4.5050    2.7908    0.8448 H   0  0  0  0  0  0  0  0  0  0  0  0
   -2.1391    2.5053    1.7863 H   0  0  0  0  0  0  0  0  0  0  0  0
   -0.9950   -0.6937   -1.4357 N   0  0  0  0  0  0  0  0  0  0  0  0
   -1.4674   -1.3102   -2.4170 N   0  0  0  0  0  0  0  0  0  0  0  0
   -0.6622   -2.2248   -3.0836 C   0  0  0  0  0  0  0  0  0  0  0  0
   -1.2763   -2.8817   -4.1711 C   0  0  0  0  0  0  0  0  0  0  0  0
    0.6776   -2.5012   -2.7275 C   0  0  0  0  0  0  0  0  0  0  0  0
   -0.5558   -3.8155   -4.9027 C   0  0  0  0  0  0  0  0  0  0  0  0
   -2.3056   -2.6430   -4.4157 H   0  0  0  0  0  0  0  0  0  0  0  0
    1.3838   -3.4322   -3.4654 C   0  0  0  0  0  0  0  0  0  0  0  0
    1.1560   -1.9993   -1.8955 H   0  0  0  0  0  0  0  0  0  0  0  0
    0.7747   -4.0908   -4.5501 C   0  0  0  0  0  0  0  0  0  0  0  0
   -1.0091   -4.3300   -5.7410 H   0  0  0  0  0  0  0  0  0  0  0  0
    2.4120   -3.6601   -3.2119 H   0  0  0  0  0  0  0  0  0  0  0  0
    2.8593    1.0265    1.6233 C   0  0  0  0  0  0  0  0  0  0  0  0
    2.8327   -0.0325    0.7346 C   0  0  0  0  0  0  0  0  0  0  0  0
    3.9059    1.5265    2.0941 C   0  0  0  0  0  0  0  0  0  0  0  0
    4.1408   -0.4843    0.4159 C   0  0  0  0  0  0  0  0  0  0  0  0
    1.9632   -0.5109    0.2987 H   0  0  0  0  0  0  0  0  0  0  0  0
    5.2275    1.1933    1.8755 C   0  0  0  0  0  0  0  0  0  0  0  0
    5.2958    0.1115    0.9724 C   0  0  0  0  0  0  0  0  0  0  0  0
    6.1083    1.6544    2.3051 H   0  0  0  0  0  0  0  0  0  0  0  0
    6.2695   -0.2774    0.6946 H   0  0  0  0  0  0  0  0  0  0  0  0
    1.6047   -5.0868   -5.3043 C   0  0  0  0  0  0  0  0  0  0  0  0
    2.7611   -5.3321   -5.0382 O   0  0  0  0  0  0  0  0  0  0  0  0
    0.9226   -5.6750   -6.3054 O   0  0  0  0  0  0  0  0  0  0  0  0
    1.5293   -6.3002   -6.7374 H   0  0  0  0  0  0  0  0  0  0  0  0
   -5.5016    1.3828   -1.3863 C   0  0  0  0  0  0  0  0  0  0  0  0
   -5.7993    0.7150   -2.3491 O   0  0  0  0  0  0  0  0  0  0  0  0
   -6.3114    2.2583   -0.7715 O   0  0  0  0  0  0  0  0  0  0  0  0
   -7.1648    2.2568   -1.2394 H   0  0  0  0  0  0  0  0  0  0  0  0
    4.2447   -1.6201   -0.5401 C   0  0  0  0  0  0  0  0  0  0  0  0
    3.2914   -2.1429   -1.0958 O   0  0  0  0  0  0  0  0  0  0  0  0
    5.5086   -2.0351   -0.7455 O   0  0  0  0  0  0  0  0  0  0  0  0
    5.4678   -2.7755   -1.3740 H   0  0  0  0  0  0  0  0  0  0  0  0
  1  2  2  0  0  0  0
  1  6  1  0  0  0  0
  2  3  1  0  0  0  0
  3  4  2  0  0  0  0
  4  9  1  0  0  0  0
  5  8  1  0  0  0  0
  5  4  1  0  0  0  0
  6  5  2  0  0  0  0
  7  1  1  0  0  0  0
 10  2  1  0  0  0  0
 11 10  1  0  0  0  0
 12 14  1  0  0  0  0
 12 11  1  0  0  0  0
 13 12  2  0  0  0  0
 14 18  1  0  0  0  0
 15 19  2  0  0  0  0
 15 13  1  0  0  0  0
 16 13  1  0  0  0  0
 17 21  1  0  0  0  0
 17 14  2  0  0  0  0
 19 17  1  0  0  0  0
 20 15  1  0  0  0  0
 22 24  2  0  0  0  0
 23 22  1  0  0  0  0
 25 23  2  0  0  0  0
 25 28  1  0  0  0  0
 26 23  1  0  0  0  0
 27 24  1  0  0  0  0
 27 29  1  0  0  0  0
 28 27  2  0  0  0  0
 30 28  1  0  0  0  0
 31 32  2  0  0  0  0
 31 19  1  0  0  0  0
 33 31  1  0  0  0  0
 34 33  1  0  0  0  0
 35 37  1  0  0  0  0
 35  6  1  0  0  0  0
 36 35  2  0  0  0  0
 38 37  1  0  0  0  0
 39 25  1  0  0  0  0
 40 39  2  0  0  0  0
 41 39  1  0  0  0  0
 42 41  1  0  0  0  0
M  RAD  5   3   2  10   2  11   2  22   2  24   2
M  END
