Coordinates from ORCA-job 1g-Schema5-R9-P1+-B3LYPG-6-31G_dp-scan-d49-09-n400
 OpenBabel08231810273D

 42 43  0  0  0  0  0  0  0  0999 V2000
   -3.2044    0.4363   -1.2790 C   0  0  0  0  0  0  0  0  0  0  0  0
   -1.8586    0.2084   -0.8238 C   0  0  0  0  0  0  0  0  0  0  0  0
   -1.7859    1.0418    0.2098 C   0  0  0  0  0  0  0  0  0  0  0  0
   -2.4636    1.9502    0.9313 C   0  0  0  0  0  0  0  0  0  0  0  0
   -3.7664    2.0960    0.4001 C   0  0  0  0  0  0  0  0  0  0  0  0
   -4.1177    1.3194   -0.7185 C   0  0  0  0  0  0  0  0  0  0  0  0
   -3.4353   -0.1904   -2.1506 H   0  0  0  0  0  0  0  0  0  0  0  0
   -4.4584    2.7938    0.8596 H   0  0  0  0  0  0  0  0  0  0  0  0
   -2.0894    2.4972    1.7898 H   0  0  0  0  0  0  0  0  0  0  0  0
   -0.9749   -0.7050   -1.4389 N   0  0  0  0  0  0  0  0  0  0  0  0
   -1.4538   -1.3188   -2.4188 N   0  0  0  0  0  0  0  0  0  0  0  0
   -0.6544   -2.2359   -3.0892 C   0  0  0  0  0  0  0  0  0  0  0  0
   -1.2741   -2.8895   -4.1754 C   0  0  0  0  0  0  0  0  0  0  0  0
    0.6856   -2.5170   -2.7376 C   0  0  0  0  0  0  0  0  0  0  0  0
   -0.5585   -3.8247   -4.9102 C   0  0  0  0  0  0  0  0  0  0  0  0
   -2.3033   -2.6475   -4.4167 H   0  0  0  0  0  0  0  0  0  0  0  0
    1.3869   -3.4492   -3.4786 C   0  0  0  0  0  0  0  0  0  0  0  0
    1.1667   -2.0168   -1.9062 H   0  0  0  0  0  0  0  0  0  0  0  0
    0.7723   -4.1046   -4.5622 C   0  0  0  0  0  0  0  0  0  0  0  0
   -1.0159   -4.3370   -5.7476 H   0  0  0  0  0  0  0  0  0  0  0  0
    2.4153   -3.6805   -3.2285 H   0  0  0  0  0  0  0  0  0  0  0  0
    2.7959    1.0238    1.6056 C   0  0  0  0  0  0  0  0  0  0  0  0
    2.7924   -0.0372    0.7185 C   0  0  0  0  0  0  0  0  0  0  0  0
    3.8321    1.5359    2.0864 C   0  0  0  0  0  0  0  0  0  0  0  0
    4.1091   -0.4742    0.4149 C   0  0  0  0  0  0  0  0  0  0  0  0
    1.9337   -0.5267    0.2735 H   0  0  0  0  0  0  0  0  0  0  0  0
    5.1599    1.2184    1.8833 C   0  0  0  0  0  0  0  0  0  0  0  0
    5.2508    0.1360    0.9830 C   0  0  0  0  0  0  0  0  0  0  0  0
    6.0304    1.6905    2.3219 H   0  0  0  0  0  0  0  0  0  0  0  0
    6.2321   -0.2420    0.7167 H   0  0  0  0  0  0  0  0  0  0  0  0
    1.5967   -5.1022   -5.3204 C   0  0  0  0  0  0  0  0  0  0  0  0
    2.7529   -5.3519   -5.0579 O   0  0  0  0  0  0  0  0  0  0  0  0
    0.9094   -5.6872   -6.3198 O   0  0  0  0  0  0  0  0  0  0  0  0
    1.5127   -6.3140   -6.7543 H   0  0  0  0  0  0  0  0  0  0  0  0
   -5.4721    1.3913   -1.3672 C   0  0  0  0  0  0  0  0  0  0  0  0
   -5.7764    0.7277   -2.3308 O   0  0  0  0  0  0  0  0  0  0  0  0
   -6.2734    2.2735   -0.7508 O   0  0  0  0  0  0  0  0  0  0  0  0
   -7.1280    2.2785   -1.2165 H   0  0  0  0  0  0  0  0  0  0  0  0
    4.2362   -1.6101   -0.5385 C   0  0  0  0  0  0  0  0  0  0  0  0
    3.2944   -2.1453   -1.1017 O   0  0  0  0  0  0  0  0  0  0  0  0
    5.5070   -2.0092   -0.7320 O   0  0  0  0  0  0  0  0  0  0  0  0
    5.4813   -2.7510   -1.3596 H   0  0  0  0  0  0  0  0  0  0  0  0
  1  2  2  0  0  0  0
  1  6  1  0  0  0  0
  2  3  1  0  0  0  0
  3  4  2  0  0  0  0
  4  9  1  0  0  0  0
  5  8  1  0  0  0  0
  5  4  1  0  0  0  0
  6  5  2  0  0  0  0
  7  1  1  0  0  0  0
 10  2  1  0  0  0  0
 11 10  1  0  0  0  0
 12 14  1  0  0  0  0
 12 11  1  0  0  0  0
 13 12  2  0  0  0  0
 14 18  1  0  0  0  0
 15 19  2  0  0  0  0
 15 13  1  0  0  0  0
 16 13  1  0  0  0  0
 17 21  1  0  0  0  0
 17 14  2  0  0  0  0
 19 17  1  0  0  0  0
 20 15  1  0  0  0  0
 22 24  2  0  0  0  0
 23 22  1  0  0  0  0
 25 23  2  0  0  0  0
 25 28  1  0  0  0  0
 26 23  1  0  0  0  0
 27 24  1  0  0  0  0
 27 29  1  0  0  0  0
 28 27  2  0  0  0  0
 30 28  1  0  0  0  0
 31 32  2  0  0  0  0
 31 19  1  0  0  0  0
 33 31  1  0  0  0  0
 34 33  1  0  0  0  0
 35 37  1  0  0  0  0
 35  6  1  0  0  0  0
 36 35  2  0  0  0  0
 38 37  1  0  0  0  0
 39 25  1  0  0  0  0
 40 39  2  0  0  0  0
 41 39  1  0  0  0  0
 42 41  1  0  0  0  0
M  RAD  5   3   2  10   2  11   2  22   2  24   2
M  END
