Coordinates from ORCA-job 1g-Schema5-R9-P1+-B3LYPG-6-31G_dp-scan-d49-09-n400
 OpenBabel08231810273D

 42 43  0  0  0  0  0  0  0  0999 V2000
   -3.0084    0.4253   -1.2301 C   0  0  0  0  0  0  0  0  0  0  0  0
   -1.6489    0.1778   -0.8312 C   0  0  0  0  0  0  0  0  0  0  0  0
   -1.5124    1.0237    0.1864 C   0  0  0  0  0  0  0  0  0  0  0  0
   -2.1391    1.9554    0.9236 C   0  0  0  0  0  0  0  0  0  0  0  0
   -3.4617    2.1181    0.4496 C   0  0  0  0  0  0  0  0  0  0  0  0
   -3.8780    1.3340   -0.6411 C   0  0  0  0  0  0  0  0  0  0  0  0
   -3.2906   -0.2052   -2.0833 H   0  0  0  0  0  0  0  0  0  0  0  0
   -4.1195    2.8346    0.9301 H   0  0  0  0  0  0  0  0  0  0  0  0
   -1.7143    2.5066    1.7555 H   0  0  0  0  0  0  0  0  0  0  0  0
   -0.8077   -0.7616   -1.4691 N   0  0  0  0  0  0  0  0  0  0  0  0
   -1.3350   -1.3630   -2.4321 N   0  0  0  0  0  0  0  0  0  0  0  0
   -0.5848   -2.3040   -3.1269 C   0  0  0  0  0  0  0  0  0  0  0  0
   -1.2565   -2.9239   -4.2019 C   0  0  0  0  0  0  0  0  0  0  0  0
    0.7533   -2.6367   -2.8145 C   0  0  0  0  0  0  0  0  0  0  0  0
   -0.5950   -3.8745   -4.9672 C   0  0  0  0  0  0  0  0  0  0  0  0
   -2.2826   -2.6426   -4.4119 H   0  0  0  0  0  0  0  0  0  0  0  0
    1.4005   -3.5835   -3.5863 C   0  0  0  0  0  0  0  0  0  0  0  0
    1.2735   -2.1661   -1.9889 H   0  0  0  0  0  0  0  0  0  0  0  0
    0.7341   -4.2038   -4.6602 C   0  0  0  0  0  0  0  0  0  0  0  0
   -1.0932   -4.3602   -5.7971 H   0  0  0  0  0  0  0  0  0  0  0  0
    2.4267   -3.8575   -3.3717 H   0  0  0  0  0  0  0  0  0  0  0  0
    2.3380    0.9589    1.4971 C   0  0  0  0  0  0  0  0  0  0  0  0
    2.5196   -0.1052    0.6266 C   0  0  0  0  0  0  0  0  0  0  0  0
    3.2881    1.5699    2.0393 C   0  0  0  0  0  0  0  0  0  0  0  0
    3.8921   -0.4051    0.4270 C   0  0  0  0  0  0  0  0  0  0  0  0
    1.7534   -0.6830    0.1237 H   0  0  0  0  0  0  0  0  0  0  0  0
    4.6523    1.3966    1.9451 C   0  0  0  0  0  0  0  0  0  0  0  0
    4.9195    0.3224    1.0691 C   0  0  0  0  0  0  0  0  0  0  0  0
    5.4330    1.9577    2.4436 H   0  0  0  0  0  0  0  0  0  0  0  0
    5.9517    0.0435    0.8854 H   0  0  0  0  0  0  0  0  0  0  0  0
    1.5020   -5.2197   -5.4525 C   0  0  0  0  0  0  0  0  0  0  0  0
    2.6549   -5.5140   -5.2240 O   0  0  0  0  0  0  0  0  0  0  0  0
    0.7687   -5.7653   -6.4416 O   0  0  0  0  0  0  0  0  0  0  0  0
    1.3380   -6.4066   -6.9000 H   0  0  0  0  0  0  0  0  0  0  0  0
   -5.2582    1.4255   -1.2299 C   0  0  0  0  0  0  0  0  0  0  0  0
   -5.6202    0.7530   -2.1670 O   0  0  0  0  0  0  0  0  0  0  0  0
   -6.0148    2.3295   -0.5888 O   0  0  0  0  0  0  0  0  0  0  0  0
   -6.8898    2.3434   -1.0145 H   0  0  0  0  0  0  0  0  0  0  0  0
    4.2030   -1.5314   -0.4975 C   0  0  0  0  0  0  0  0  0  0  0  0
    3.3639   -2.1608   -1.1206 O   0  0  0  0  0  0  0  0  0  0  0  0
    5.5182   -1.8026   -0.5869 O   0  0  0  0  0  0  0  0  0  0  0  0
    5.6154   -2.5490   -1.2021 H   0  0  0  0  0  0  0  0  0  0  0  0
  1  2  2  0  0  0  0
  1  6  1  0  0  0  0
  2  3  1  0  0  0  0
  3  4  2  0  0  0  0
  4  9  1  0  0  0  0
  5  4  1  0  0  0  0
  5  8  1  0  0  0  0
  6  5  2  0  0  0  0
  7  1  1  0  0  0  0
 10  2  1  0  0  0  0
 11 10  1  0  0  0  0
 12 14  1  0  0  0  0
 12 11  1  0  0  0  0
 13 12  2  0  0  0  0
 14 18  1  0  0  0  0
 15 19  2  0  0  0  0
 15 13  1  0  0  0  0
 16 13  1  0  0  0  0
 17 21  1  0  0  0  0
 17 14  2  0  0  0  0
 19 17  1  0  0  0  0
 20 15  1  0  0  0  0
 22 24  2  0  0  0  0
 23 22  1  0  0  0  0
 25 23  2  0  0  0  0
 25 28  1  0  0  0  0
 26 23  1  0  0  0  0
 27 24  1  0  0  0  0
 27 29  1  0  0  0  0
 28 27  2  0  0  0  0
 30 28  1  0  0  0  0
 31 32  2  0  0  0  0
 31 19  1  0  0  0  0
 33 31  1  0  0  0  0
 34 33  1  0  0  0  0
 35  6  1  0  0  0  0
 35 37  1  0  0  0  0
 36 35  2  0  0  0  0
 38 37  1  0  0  0  0
 39 25  1  0  0  0  0
 40 39  2  0  0  0  0
 41 39  1  0  0  0  0
 42 41  1  0  0  0  0
M  RAD  5   3   2  10   2  11   2  22   2  24   2
M  END
