Coordinates from ORCA-job 1g-Schema5-R9-P1+-B3LYPG-6-31G_dp-scan-d49-09-n400
 OpenBabel08231810273D

 42 45  0  0  1  0  0  0  0  0999 V2000
   -1.9839    0.5882   -1.0773 C   0  0  0  0  0  0  0  0  0  0  0  0
   -0.6470    0.2442   -0.9380 C   0  0  0  0  0  0  0  0  0  0  0  0
    0.2526    0.9283   -0.1118 C   0  0  0  0  0  0  0  0  0  0  0  0
   -0.2007    2.0293    0.6040 C   0  0  0  0  0  0  0  0  0  0  0  0
   -1.5482    2.3935    0.4977 C   0  0  0  0  0  0  0  0  0  0  0  0
   -2.4297    1.6888   -0.3410 C   0  0  0  0  0  0  0  0  0  0  0  0
   -2.6696    0.0309   -1.7052 H   0  0  0  0  0  0  0  0  0  0  0  0
   -1.9250    3.2402    1.0599 H   0  0  0  0  0  0  0  0  0  0  0  0
    0.4734    2.5998    1.2334 H   0  0  0  0  0  0  0  0  0  0  0  0
    0.0102   -0.8707   -1.5075 N   0  0  0  0  0  0  0  0  0  0  0  0
   -0.4875   -1.5195   -2.4652 N   0  0  0  0  0  0  0  0  0  0  0  0
    0.0291   -2.7027   -2.9659 C   0  0  0  0  0  0  0  0  0  0  0  0
   -0.3681   -2.9581   -4.2991 C   0  0  0  0  0  0  0  0  0  0  0  0
    0.7945   -3.6640   -2.2577 C   0  0  0  0  0  0  0  0  0  0  0  0
    0.0614   -4.1071   -4.9468 C   0  0  0  0  0  0  0  0  0  0  0  0
   -0.9919   -2.2268   -4.8015 H   0  0  0  0  0  0  0  0  0  0  0  0
    1.1794   -4.8256   -2.9043 C   0  0  0  0  0  0  0  0  0  0  0  0
    1.0139   -3.5459   -1.2039 H   0  0  0  0  0  0  0  0  0  0  0  0
    0.8376   -5.0436   -4.2502 C   0  0  0  0  0  0  0  0  0  0  0  0
   -0.2172   -4.2956   -5.9762 H   0  0  0  0  0  0  0  0  0  0  0  0
    1.7430   -5.5933   -2.3848 H   0  0  0  0  0  0  0  0  0  0  0  0
    0.9951   -1.5904    0.6149 C   0  0  0  0  0  0  0  0  0  0  0  0
    1.2930   -1.0660   -0.7145 C   0  0  2  0  0  0  0  0  0  0  0  0
    1.6516   -1.3699    1.6312 C   0  0  0  0  0  0  0  0  0  0  0  0
    1.6797    0.4282   -0.3107 C   0  0  2  0  0  0  0  0  0  0  0  0
    2.0179   -1.5985   -1.3284 H   0  0  0  0  0  0  0  0  0  0  0  0
    2.4740   -0.2518    1.9881 C   0  0  0  0  0  0  0  0  0  0  0  0
    2.5331    0.6121    0.9449 C   0  0  0  0  0  0  0  0  0  0  0  0
    3.0605   -0.1487    2.8927 H   0  0  0  0  0  0  0  0  0  0  0  0
    3.1795    1.4836    0.9704 H   0  0  0  0  0  0  0  0  0  0  0  0
    1.3110   -6.3198   -4.8806 C   0  0  0  0  0  0  0  0  0  0  0  0
    1.9791   -7.1423   -4.2942 O   0  0  0  0  0  0  0  0  0  0  0  0
    0.9111   -6.4398   -6.1591 O   0  0  0  0  0  0  0  0  0  0  0  0
    1.2529   -7.2873   -6.4920 H   0  0  0  0  0  0  0  0  0  0  0  0
   -3.8750    2.0607   -0.4825 C   0  0  0  0  0  0  0  0  0  0  0  0
   -4.6484    1.4629   -1.1975 O   0  0  0  0  0  0  0  0  0  0  0  0
   -4.2072    3.1254    0.2696 O   0  0  0  0  0  0  0  0  0  0  0  0
   -5.1522    3.3015    0.1218 H   0  0  0  0  0  0  0  0  0  0  0  0
    2.2762    1.1226   -1.5518 C   0  0  0  0  0  0  0  0  0  0  0  0
    2.2654    0.6156   -2.6499 O   0  0  0  0  0  0  0  0  0  0  0  0
    2.7624    2.3369   -1.2710 O   0  0  0  0  0  0  0  0  0  0  0  0
    3.1034    2.7255   -2.0968 H   0  0  0  0  0  0  0  0  0  0  0  0
  1  2  2  0  0  0  0
  1  6  1  0  0  0  0
  2  3  1  0  0  0  0
  3  4  2  0  0  0  0
  4  9  1  0  0  0  0
  5  4  1  0  0  0  0
  5  8  1  0  0  0  0
  6  5  2  0  0  0  0
  7  1  1  0  0  0  0
 10  2  1  0  0  0  0
 10 23  1  0  0  0  0
 11 10  1  0  0  0  0
 12 11  1  0  0  0  0
 12 14  2  0  0  0  0
 13 12  1  0  0  0  0
 14 18  1  0  0  0  0
 15 13  2  0  0  0  0
 15 19  1  0  0  0  0
 16 13  1  0  0  0  0
 17 21  1  0  0  0  0
 17 14  1  0  0  0  0
 19 17  2  0  0  0  0
 20 15  1  0  0  0  0
 22 24  1  0  0  0  0
 23 26  1  6  0  0  0
 23 25  1  0  0  0  0
 23 22  1  0  0  0  0
 24 27  2  0  0  0  0
 25 39  1  6  0  0  0
 25  3  1  0  0  0  0
 25 28  1  0  0  0  0
 27 29  1  0  0  0  0
 28 30  1  0  0  0  0
 28 27  1  0  0  0  0
 31 32  2  0  0  0  0
 31 19  1  0  0  0  0
 33 31  1  0  0  0  0
 34 33  1  0  0  0  0
 35  6  1  0  0  0  0
 35 37  1  0  0  0  0
 36 35  2  0  0  0  0
 38 37  1  0  0  0  0
 39 41  1  0  0  0  0
 40 39  2  0  0  0  0
 42 41  1  0  0  0  0
M  RAD  4  11   2  22   3  24   2  28   2
M  END
