Coordinates from ORCA-job 1g-Schema5-R9-P1+-B3LYPG-6-31G_dp-scan-d49-09-n400
 OpenBabel08231810273D

 42 45  0  0  1  0  0  0  0  0999 V2000
   -1.9678    0.5445   -1.0869 C   0  0  0  0  0  0  0  0  0  0  0  0
   -0.6261    0.2294   -0.9056 C   0  0  0  0  0  0  0  0  0  0  0  0
    0.2515    1.0046   -0.1430 C   0  0  0  0  0  0  0  0  0  0  0  0
   -0.2250    2.1592    0.4698 C   0  0  0  0  0  0  0  0  0  0  0  0
   -1.5727    2.4962    0.3138 C   0  0  0  0  0  0  0  0  0  0  0  0
   -2.4367    1.6999   -0.4606 C   0  0  0  0  0  0  0  0  0  0  0  0
   -2.6370   -0.0738   -1.6735 H   0  0  0  0  0  0  0  0  0  0  0  0
   -1.9659    3.3867    0.7902 H   0  0  0  0  0  0  0  0  0  0  0  0
    0.4332    2.7931    1.0532 H   0  0  0  0  0  0  0  0  0  0  0  0
    0.0478   -0.8994   -1.4292 N   0  0  0  0  0  0  0  0  0  0  0  0
   -0.4901   -1.6118   -2.3216 N   0  0  0  0  0  0  0  0  0  0  0  0
    0.0292   -2.7680   -2.8691 C   0  0  0  0  0  0  0  0  0  0  0  0
   -0.6277   -3.1186   -4.0761 C   0  0  0  0  0  0  0  0  0  0  0  0
    1.0468   -3.6149   -2.3527 C   0  0  0  0  0  0  0  0  0  0  0  0
   -0.2398   -4.2419   -4.7890 C   0  0  0  0  0  0  0  0  0  0  0  0
   -1.4260   -2.4751   -4.4294 H   0  0  0  0  0  0  0  0  0  0  0  0
    1.3998   -4.7505   -3.0596 C   0  0  0  0  0  0  0  0  0  0  0  0
    1.5027   -3.4345   -1.3895 H   0  0  0  0  0  0  0  0  0  0  0  0
    0.7781   -5.0607   -4.2815 C   0  0  0  0  0  0  0  0  0  0  0  0
   -0.7261   -4.4990   -5.7220 H   0  0  0  0  0  0  0  0  0  0  0  0
    2.1598   -5.4268   -2.6827 H   0  0  0  0  0  0  0  0  0  0  0  0
    1.3464   -1.8629    0.4468 C   0  0  0  0  0  0  0  0  0  0  0  0
    1.4028   -1.0213   -0.7499 C   0  0  2  0  0  0  0  0  0  0  0  0
    1.9166   -1.6088    1.5013 C   0  0  0  0  0  0  0  0  0  0  0  0
    1.6757    0.4616   -0.2070 C   0  0  2  0  0  0  0  0  0  0  0  0
    2.1182   -1.3240   -1.5174 H   0  0  0  0  0  0  0  0  0  0  0  0
    2.4837   -0.4131    2.0486 C   0  0  0  0  0  0  0  0  0  0  0  0
    2.3885    0.5902    1.1440 C   0  0  0  0  0  0  0  0  0  0  0  0
    2.9889   -0.3170    3.0011 H   0  0  0  0  0  0  0  0  0  0  0  0
    2.8234    1.5618    1.3549 H   0  0  0  0  0  0  0  0  0  0  0  0
    1.2351   -6.3032   -4.9884 C   0  0  0  0  0  0  0  0  0  0  0  0
    2.1097   -7.0245   -4.5635 O   0  0  0  0  0  0  0  0  0  0  0  0
    0.5647   -6.5165   -6.1343 O   0  0  0  0  0  0  0  0  0  0  0  0
    0.9127   -7.3354   -6.5272 H   0  0  0  0  0  0  0  0  0  0  0  0
   -3.8854    2.0358   -0.6503 C   0  0  0  0  0  0  0  0  0  0  0  0
   -4.6436    1.3622   -1.3123 O   0  0  0  0  0  0  0  0  0  0  0  0
   -4.2391    3.1635   -0.0077 O   0  0  0  0  0  0  0  0  0  0  0  0
   -5.1844    3.3121   -0.1814 H   0  0  0  0  0  0  0  0  0  0  0  0
    2.4187    1.2319   -1.3250 C   0  0  0  0  0  0  0  0  0  0  0  0
    2.5758    0.7910   -2.4392 O   0  0  0  0  0  0  0  0  0  0  0  0
    2.8192    2.4430   -0.9173 O   0  0  0  0  0  0  0  0  0  0  0  0
    3.2538    2.8861   -1.6680 H   0  0  0  0  0  0  0  0  0  0  0  0
  1  2  2  0  0  0  0
  1  6  1  0  0  0  0
  2  3  1  0  0  0  0
  3  4  2  0  0  0  0
  4  9  1  0  0  0  0
  5  4  1  0  0  0  0
  5  8  1  0  0  0  0
  6  5  2  0  0  0  0
  7  1  1  0  0  0  0
 10  2  1  0  0  0  0
 10 23  1  0  0  0  0
 11 10  1  0  0  0  0
 12 14  1  0  0  0  0
 12 11  1  0  0  0  0
 13 12  2  0  0  0  0
 14 18  1  0  0  0  0
 15 19  2  0  0  0  0
 15 13  1  0  0  0  0
 16 13  1  0  0  0  0
 17 21  1  0  0  0  0
 17 14  2  0  0  0  0
 19 17  1  0  0  0  0
 20 15  1  0  0  0  0
 22 24  1  0  0  0  0
 23 26  1  6  0  0  0
 23 25  1  0  0  0  0
 23 22  1  0  0  0  0
 24 27  2  0  0  0  0
 25 39  1  6  0  0  0
 25  3  1  0  0  0  0
 25 28  1  0  0  0  0
 27 29  1  0  0  0  0
 28 30  1  0  0  0  0
 28 27  1  0  0  0  0
 31 32  2  0  0  0  0
 31 19  1  0  0  0  0
 33 31  1  0  0  0  0
 34 33  1  0  0  0  0
 35  6  1  0  0  0  0
 35 37  1  0  0  0  0
 36 35  2  0  0  0  0
 38 37  1  0  0  0  0
 39 41  1  0  0  0  0
 40 39  2  0  0  0  0
 42 41  1  0  0  0  0
M  RAD  4  11   2  22   3  24   2  28   2
M  END
