Coordinates from ORCA-job 1g-Schema5-R9-P1+-B3LYPG-6-31G_dp-scan-d49-09-n400
 OpenBabel08231810273D

 42 45  0  0  1  0  0  0  0  0999 V2000
   -2.0128    0.8430   -1.1375 C   0  0  0  0  0  0  0  0  0  0  0  0
   -0.9039    0.2475   -0.5572 C   0  0  0  0  0  0  0  0  0  0  0  0
   -0.4971    0.4814    0.7749 C   0  0  0  0  0  0  0  0  0  0  0  0
   -1.2629    1.3511    1.5679 C   0  0  0  0  0  0  0  0  0  0  0  0
   -2.3779    1.9629    1.0052 C   0  0  0  0  0  0  0  0  0  0  0  0
   -2.7506    1.7169   -0.3346 C   0  0  0  0  0  0  0  0  0  0  0  0
   -2.3096    0.6575   -2.1624 H   0  0  0  0  0  0  0  0  0  0  0  0
   -2.9809    2.6413    1.5976 H   0  0  0  0  0  0  0  0  0  0  0  0
   -0.9908    1.5295    2.6025 H   0  0  0  0  0  0  0  0  0  0  0  0
   -0.0322   -0.7074   -1.1551 N   0  0  0  0  0  0  0  0  0  0  0  0
   -0.4315   -1.3340   -2.1812 N   0  0  0  0  0  0  0  0  0  0  0  0
    0.1537   -2.4013   -2.8148 C   0  0  0  0  0  0  0  0  0  0  0  0
   -0.7066   -2.9289   -3.8152 C   0  0  0  0  0  0  0  0  0  0  0  0
    1.4096   -3.0287   -2.5823 C   0  0  0  0  0  0  0  0  0  0  0  0
   -0.3560   -4.0620   -4.5319 C   0  0  0  0  0  0  0  0  0  0  0  0
   -1.6515   -2.4257   -3.9861 H   0  0  0  0  0  0  0  0  0  0  0  0
    1.7454   -4.1591   -3.3006 C   0  0  0  0  0  0  0  0  0  0  0  0
    2.1318   -2.6229   -1.8919 H   0  0  0  0  0  0  0  0  0  0  0  0
    0.8708   -4.6846   -4.2700 C   0  0  0  0  0  0  0  0  0  0  0  0
   -1.0187   -4.4650   -5.2882 H   0  0  0  0  0  0  0  0  0  0  0  0
    2.6962   -4.6569   -3.1452 H   0  0  0  0  0  0  0  0  0  0  0  0
    0.6531   -0.2355    1.0410 C   0  0  1  0  0  0  0  0  0  0  0  0
    1.1471   -0.9003   -0.2382 C   0  0  2  0  0  0  0  0  0  0  0  0
    1.6077   -0.1491    1.9756 C   0  0  0  0  0  0  0  0  0  0  0  0
    2.4630   -0.1117   -0.5992 C   0  0  0  0  0  0  0  0  0  0  0  0
    1.3517   -1.9715   -0.1684 H   0  0  0  0  0  0  0  0  0  0  0  0
    2.9218   -0.0511    1.8169 C   0  0  0  0  0  0  0  0  0  0  0  0
    3.2777    0.2821    0.4125 C   0  0  0  0  0  0  0  0  0  0  0  0
    3.6935   -0.3017    2.5383 H   0  0  0  0  0  0  0  0  0  0  0  0
    4.2313    0.7436    0.1767 H   0  0  0  0  0  0  0  0  0  0  0  0
    1.3205   -5.9141   -5.0041 C   0  0  0  0  0  0  0  0  0  0  0  0
    2.3782   -6.4637   -4.7901 O   0  0  0  0  0  0  0  0  0  0  0  0
    0.4203   -6.3270   -5.9128 O   0  0  0  0  0  0  0  0  0  0  0  0
    0.7816   -7.1221   -6.3409 H   0  0  0  0  0  0  0  0  0  0  0  0
   -3.9458    2.3648   -0.9639 C   0  0  0  0  0  0  0  0  0  0  0  0
   -4.2886    2.1610   -2.1082 O   0  0  0  0  0  0  0  0  0  0  0  0
   -4.5888    3.1906   -0.1184 O   0  0  0  0  0  0  0  0  0  0  0  0
   -5.3461    3.5653   -0.5999 H   0  0  0  0  0  0  0  0  0  0  0  0
    2.8113    0.1433   -2.0161 C   0  0  0  0  0  0  0  0  0  0  0  0
    2.1281   -0.2130   -2.9599 O   0  0  0  0  0  0  0  0  0  0  0  0
    3.9563    0.8333   -2.1596 O   0  0  0  0  0  0  0  0  0  0  0  0
    4.0911    0.9731   -3.1124 H   0  0  0  0  0  0  0  0  0  0  0  0
  1  2  2  0  0  0  0
  1  6  1  0  0  0  0
  2  3  1  0  0  0  0
  3  4  2  0  0  0  0
  4  9  1  0  0  0  0
  5  4  1  0  0  0  0
  5  8  1  0  0  0  0
  6  5  2  0  0  0  0
  7  1  1  0  0  0  0
 10  2  1  0  0  0  0
 10 23  1  0  0  0  0
 11 10  1  0  0  0  0
 12 14  1  0  0  0  0
 12 11  1  0  0  0  0
 13 12  2  0  0  0  0
 14 18  1  0  0  0  0
 15 19  2  0  0  0  0
 15 13  1  0  0  0  0
 16 13  1  0  0  0  0
 17 21  1  0  0  0  0
 17 14  2  0  0  0  0
 19 17  1  0  0  0  0
 20 15  1  0  0  0  0
 22  3  1  6  0  0  0
 22 24  1  0  0  0  0
 23 26  1  1  0  0  0
 23 22  1  0  0  0  0
 25 23  1  0  0  0  0
 25 28  2  0  0  0  0
 27 24  1  0  0  0  0
 27 29  1  0  0  0  0
 28 27  1  0  0  0  0
 30 28  1  0  0  0  0
 31 32  2  0  0  0  0
 31 19  1  0  0  0  0
 33 31  1  0  0  0  0
 34 33  1  0  0  0  0
 35  6  1  0  0  0  0
 35 37  1  0  0  0  0
 36 35  2  0  0  0  0
 38 37  1  0  0  0  0
 39 25  1  0  0  0  0
 40 39  2  0  0  0  0
 41 39  1  0  0  0  0
 42 41  1  0  0  0  0
M  RAD  4  11   2  22   2  24   3  27   2
M  END
