Coordinates from ORCA-job 1g-Schema5-R9-P1+-B3LYPG-6-31G_dp-scan-d49-09-n400
 OpenBabel08231810273D

 42 45  0  0  1  0  0  0  0  0999 V2000
   -1.8970    0.6497   -1.3058 C   0  0  0  0  0  0  0  0  0  0  0  0
   -0.5701    0.3273   -1.0363 C   0  0  0  0  0  0  0  0  0  0  0  0
    0.2497    1.0971   -0.2070 C   0  0  0  0  0  0  0  0  0  0  0  0
   -0.2684    2.2479    0.3808 C   0  0  0  0  0  0  0  0  0  0  0  0
   -1.5991    2.5919    0.1300 C   0  0  0  0  0  0  0  0  0  0  0  0
   -2.4087    1.7989   -0.7043 C   0  0  0  0  0  0  0  0  0  0  0  0
   -2.5211    0.0451   -1.9529 H   0  0  0  0  0  0  0  0  0  0  0  0
   -2.0207    3.4839    0.5783 H   0  0  0  0  0  0  0  0  0  0  0  0
    0.3502    2.8748    1.0128 H   0  0  0  0  0  0  0  0  0  0  0  0
    0.1309   -0.7865   -1.5638 N   0  0  0  0  0  0  0  0  0  0  0  0
   -0.4819   -1.6306   -2.2774 N   0  0  0  0  0  0  0  0  0  0  0  0
    0.0521   -2.7428   -2.8916 C   0  0  0  0  0  0  0  0  0  0  0  0
   -0.9667   -3.5938   -3.3961 C   0  0  0  0  0  0  0  0  0  0  0  0
    1.4157   -3.0873   -3.1042 C   0  0  0  0  0  0  0  0  0  0  0  0
   -0.6470   -4.7766   -4.0421 C   0  0  0  0  0  0  0  0  0  0  0  0
   -1.9983   -3.2947   -3.2480 H   0  0  0  0  0  0  0  0  0  0  0  0
    1.7197   -4.2596   -3.7738 C   0  0  0  0  0  0  0  0  0  0  0  0
    2.2257   -2.4466   -2.7928 H   0  0  0  0  0  0  0  0  0  0  0  0
    0.7013   -5.1129   -4.2314 C   0  0  0  0  0  0  0  0  0  0  0  0
   -1.4256   -5.4331   -4.4110 H   0  0  0  0  0  0  0  0  0  0  0  0
    2.7501   -4.5422   -3.9591 H   0  0  0  0  0  0  0  0  0  0  0  0
    1.9128   -1.9879   -0.3186 C   0  0  0  0  0  0  0  0  0  0  0  0
    1.5739   -0.7757   -1.0715 C   0  0  2  0  0  0  0  0  0  0  0  0
    2.2698   -1.9955    0.8515 C   0  0  0  0  0  0  0  0  0  0  0  0
    1.6495    0.4946   -0.0893 C   0  0  2  0  0  0  0  0  0  0  0  0
    2.2017   -0.5634   -1.9433 H   0  0  0  0  0  0  0  0  0  0  0  0
    2.3357   -0.9996    1.8783 C   0  0  0  0  0  0  0  0  0  0  0  0
    2.0123    0.2154    1.3761 C   0  0  0  0  0  0  0  0  0  0  0  0
    2.6144   -1.1603    2.9121 H   0  0  0  0  0  0  0  0  0  0  0  0
    2.0291    1.0882    2.0211 H   0  0  0  0  0  0  0  0  0  0  0  0
    1.1225   -6.3709   -4.9338 C   0  0  0  0  0  0  0  0  0  0  0  0
    2.2813   -6.6754   -5.1093 O   0  0  0  0  0  0  0  0  0  0  0  0
    0.0735   -7.1099   -5.3351 O   0  0  0  0  0  0  0  0  0  0  0  0
    0.4267   -7.9028   -5.7740 H   0  0  0  0  0  0  0  0  0  0  0  0
   -3.8391    2.1398   -0.9969 C   0  0  0  0  0  0  0  0  0  0  0  0
   -4.5522    1.4667   -1.7077 O   0  0  0  0  0  0  0  0  0  0  0  0
   -4.2331    3.2698   -0.3822 O   0  0  0  0  0  0  0  0  0  0  0  0
   -5.1634    3.4211   -0.6218 H   0  0  0  0  0  0  0  0  0  0  0  0
    2.6745    1.4873   -0.7014 C   0  0  0  0  0  0  0  0  0  0  0  0
    3.1772    1.3535   -1.7914 O   0  0  0  0  0  0  0  0  0  0  0  0
    2.9010    2.5233    0.1180 O   0  0  0  0  0  0  0  0  0  0  0  0
    3.5305    3.1225   -0.3221 H   0  0  0  0  0  0  0  0  0  0  0  0
  1  2  2  0  0  0  0
  1  6  1  0  0  0  0
  2  3  1  0  0  0  0
  3 25  1  0  0  0  0
  3  4  2  0  0  0  0
  4  9  1  0  0  0  0
  5  4  1  0  0  0  0
  5  8  1  0  0  0  0
  6  5  2  0  0  0  0
  7  1  1  0  0  0  0
 10 23  1  0  0  0  0
 10  2  1  0  0  0  0
 11 10  1  0  0  0  0
 12 11  1  0  0  0  0
 13 16  1  0  0  0  0
 13 12  2  0  0  0  0
 14 12  1  0  0  0  0
 14 18  1  0  0  0  0
 15 13  1  0  0  0  0
 17 14  2  0  0  0  0
 19 15  2  0  0  0  0
 19 17  1  0  0  0  0
 20 15  1  0  0  0  0
 21 17  1  0  0  0  0
 22 24  2  0  0  0  0
 23 26  1  6  0  0  0
 23 22  1  0  0  0  0
 23 25  1  0  0  0  0
 24 27  1  0  0  0  0
 25 39  1  6  0  0  0
 25 28  1  0  0  0  0
 27 29  1  0  0  0  0
 28 27  2  0  0  0  0
 28 30  1  0  0  0  0
 31 19  1  0  0  0  0
 32 31  2  0  0  0  0
 33 31  1  0  0  0  0
 34 33  1  0  0  0  0
 35  6  1  0  0  0  0
 35 37  1  0  0  0  0
 36 35  2  0  0  0  0
 38 37  1  0  0  0  0
 39 41  1  0  0  0  0
 40 39  2  0  0  0  0
 42 41  1  0  0  0  0
M  RAD  3  11   2  22   2  24   2
M  END
