Coordinates from ORCA-job 1g-Schema5-R9-P1+-B3LYPG-6-31G_dp-scan-d49-09-n400
 OpenBabel08231810273D

 42 45  0  0  1  0  0  0  0  0999 V2000
   -1.9661    0.5406   -1.0888 C   0  0  0  0  0  0  0  0  0  0  0  0
   -0.6242    0.2281   -0.9030 C   0  0  0  0  0  0  0  0  0  0  0  0
    0.2517    1.0126   -0.1482 C   0  0  0  0  0  0  0  0  0  0  0  0
   -0.2263    2.1736    0.4515 C   0  0  0  0  0  0  0  0  0  0  0  0
   -1.5739    2.5081    0.2902 C   0  0  0  0  0  0  0  0  0  0  0  0
   -2.4367    1.7021   -0.4757 C   0  0  0  0  0  0  0  0  0  0  0  0
   -2.6340   -0.0842   -1.6700 H   0  0  0  0  0  0  0  0  0  0  0  0
   -1.9680    3.4036    0.7562 H   0  0  0  0  0  0  0  0  0  0  0  0
    0.4307    2.8143    1.0286 H   0  0  0  0  0  0  0  0  0  0  0  0
    0.0504   -0.9036   -1.4202 N   0  0  0  0  0  0  0  0  0  0  0  0
   -0.4924   -1.6237   -2.3036 N   0  0  0  0  0  0  0  0  0  0  0  0
    0.0281   -2.7757   -2.8575 C   0  0  0  0  0  0  0  0  0  0  0  0
   -0.6600   -3.1430   -4.0425 C   0  0  0  0  0  0  0  0  0  0  0  0
    1.0768   -3.6026   -2.3713 C   0  0  0  0  0  0  0  0  0  0  0  0
   -0.2766   -4.2631   -4.7625 C   0  0  0  0  0  0  0  0  0  0  0  0
   -1.4794   -2.5142   -4.3733 H   0  0  0  0  0  0  0  0  0  0  0  0
    1.4267   -4.7349   -3.0848 C   0  0  0  0  0  0  0  0  0  0  0  0
    1.5623   -3.4095   -1.4252 H   0  0  0  0  0  0  0  0  0  0  0  0
    0.7712   -5.0619   -4.2845 C   0  0  0  0  0  0  0  0  0  0  0  0
   -0.7879   -4.5326   -5.6784 H   0  0  0  0  0  0  0  0  0  0  0  0
    2.2110   -5.3954   -2.7306 H   0  0  0  0  0  0  0  0  0  0  0  0
    1.3876   -1.8867    0.4220 C   0  0  0  0  0  0  0  0  0  0  0  0
    1.4137   -1.0159   -0.7556 C   0  0  2  0  0  0  0  0  0  0  0  0
    1.9471   -1.6333    1.4822 C   0  0  0  0  0  0  0  0  0  0  0  0
    1.6750    0.4639   -0.1959 C   0  0  2  0  0  0  0  0  0  0  0  0
    2.1242   -1.2920   -1.5379 H   0  0  0  0  0  0  0  0  0  0  0  0
    2.4822   -0.4342    2.0533 C   0  0  0  0  0  0  0  0  0  0  0  0
    2.3685    0.5825    1.1663 C   0  0  0  0  0  0  0  0  0  0  0  0
    2.9754   -0.3415    3.0124 H   0  0  0  0  0  0  0  0  0  0  0  0
    2.7763    1.5606    1.4005 H   0  0  0  0  0  0  0  0  0  0  0  0
    1.2272   -6.2994   -5.0010 C   0  0  0  0  0  0  0  0  0  0  0  0
    2.1275   -7.0034   -4.6014 O   0  0  0  0  0  0  0  0  0  0  0  0
    0.5258   -6.5282   -6.1250 O   0  0  0  0  0  0  0  0  0  0  0  0
    0.8759   -7.3421   -6.5262 H   0  0  0  0  0  0  0  0  0  0  0  0
   -3.8856    2.0345   -0.6703 C   0  0  0  0  0  0  0  0  0  0  0  0
   -4.6426    1.3531   -1.3256 O   0  0  0  0  0  0  0  0  0  0  0  0
   -4.2409    3.1687   -0.0402 O   0  0  0  0  0  0  0  0  0  0  0  0
   -5.1862    3.3146   -0.2163 H   0  0  0  0  0  0  0  0  0  0  0  0
    2.4390    1.2429   -1.2945 C   0  0  0  0  0  0  0  0  0  0  0  0
    2.6217    0.8103   -2.4080 O   0  0  0  0  0  0  0  0  0  0  0  0
    2.8232    2.4542   -0.8717 O   0  0  0  0  0  0  0  0  0  0  0  0
    3.2709    2.9040   -1.6107 H   0  0  0  0  0  0  0  0  0  0  0  0
  1  2  2  0  0  0  0
  1  6  1  0  0  0  0
  2  3  1  0  0  0  0
  3  4  2  0  0  0  0
  4  9  1  0  0  0  0
  5  4  1  0  0  0  0
  5  8  1  0  0  0  0
  6  5  2  0  0  0  0
  7  1  1  0  0  0  0
 10  2  1  0  0  0  0
 10 23  1  0  0  0  0
 11 10  1  0  0  0  0
 12 14  1  0  0  0  0
 12 11  1  0  0  0  0
 13 12  2  0  0  0  0
 14 18  1  0  0  0  0
 15 19  2  0  0  0  0
 15 13  1  0  0  0  0
 16 13  1  0  0  0  0
 17 21  1  0  0  0  0
 17 14  2  0  0  0  0
 19 17  1  0  0  0  0
 20 15  1  0  0  0  0
 22 24  1  0  0  0  0
 23 26  1  6  0  0  0
 23 25  1  0  0  0  0
 23 22  1  0  0  0  0
 24 27  2  0  0  0  0
 25 39  1  6  0  0  0
 25  3  1  0  0  0  0
 25 28  1  0  0  0  0
 27 29  1  0  0  0  0
 28 30  1  0  0  0  0
 28 27  1  0  0  0  0
 31 32  2  0  0  0  0
 31 19  1  0  0  0  0
 33 31  1  0  0  0  0
 34 33  1  0  0  0  0
 35  6  1  0  0  0  0
 35 37  1  0  0  0  0
 36 35  2  0  0  0  0
 38 37  1  0  0  0  0
 39 41  1  0  0  0  0
 40 39  2  0  0  0  0
 42 41  1  0  0  0  0
M  RAD  4  11   2  22   3  24   2  28   2
M  END
