Coordinates from ORCA-job 1g-Schema5-R9-P1+-B3LYPG-6-31G_dp-scan-d49-09-n400
 OpenBabel08231810273D

 42 45  0  0  1  0  0  0  0  0999 V2000
   -1.9989    0.8433   -1.1412 C   0  0  0  0  0  0  0  0  0  0  0  0
   -0.9017    0.2449   -0.5389 C   0  0  0  0  0  0  0  0  0  0  0  0
   -0.5356    0.4851    0.7951 C   0  0  0  0  0  0  0  0  0  0  0  0
   -1.2985    1.3535    1.5779 C   0  0  0  0  0  0  0  0  0  0  0  0
   -2.4037    1.9687    0.9916 C   0  0  0  0  0  0  0  0  0  0  0  0
   -2.7500    1.7202   -0.3531 C   0  0  0  0  0  0  0  0  0  0  0  0
   -2.2767    0.6588   -2.1716 H   0  0  0  0  0  0  0  0  0  0  0  0
   -3.0150    2.6510    1.5708 H   0  0  0  0  0  0  0  0  0  0  0  0
   -1.0412    1.5357    2.6153 H   0  0  0  0  0  0  0  0  0  0  0  0
   -0.0246   -0.7157   -1.1293 N   0  0  0  0  0  0  0  0  0  0  0  0
   -0.4285   -1.3437   -2.1516 N   0  0  0  0  0  0  0  0  0  0  0  0
    0.1548   -2.4059   -2.7971 C   0  0  0  0  0  0  0  0  0  0  0  0
   -0.7256   -2.9463   -3.7729 C   0  0  0  0  0  0  0  0  0  0  0  0
    1.4260   -3.0144   -2.6007 C   0  0  0  0  0  0  0  0  0  0  0  0
   -0.3801   -4.0759   -4.4976 C   0  0  0  0  0  0  0  0  0  0  0  0
   -1.6815   -2.4560   -3.9182 H   0  0  0  0  0  0  0  0  0  0  0  0
    1.7576   -4.1401   -3.3287 C   0  0  0  0  0  0  0  0  0  0  0  0
    2.1632   -2.5954   -1.9348 H   0  0  0  0  0  0  0  0  0  0  0  0
    0.8626   -4.6802   -4.2709 C   0  0  0  0  0  0  0  0  0  0  0  0
   -1.0587   -4.4894   -5.2340 H   0  0  0  0  0  0  0  0  0  0  0  0
    2.7203   -4.6228   -3.2018 H   0  0  0  0  0  0  0  0  0  0  0  0
    0.6947   -0.3079    1.0817 C   0  0  1  0  0  0  0  0  0  0  0  0
    1.1639   -0.9216   -0.2249 C   0  0  2  0  0  0  0  0  0  0  0  0
    1.6534   -0.2091    1.9962 C   0  0  0  0  0  0  0  0  0  0  0  0
    2.4687   -0.1079   -0.5831 C   0  0  0  0  0  0  0  0  0  0  0  0
    1.3818   -1.9918   -0.1982 H   0  0  0  0  0  0  0  0  0  0  0  0
    2.9644   -0.0812    1.8293 C   0  0  0  0  0  0  0  0  0  0  0  0
    3.2921    0.2795    0.4246 C   0  0  0  0  0  0  0  0  0  0  0  0
    3.7502   -0.3298    2.5357 H   0  0  0  0  0  0  0  0  0  0  0  0
    4.2385    0.7522    0.1819 H   0  0  0  0  0  0  0  0  0  0  0  0
    1.3088   -5.9040   -5.0169 C   0  0  0  0  0  0  0  0  0  0  0  0
    2.3805   -6.4375   -4.8333 O   0  0  0  0  0  0  0  0  0  0  0  0
    0.3887   -6.3315   -5.8983 O   0  0  0  0  0  0  0  0  0  0  0  0
    0.7491   -7.1217   -6.3361 H   0  0  0  0  0  0  0  0  0  0  0  0
   -3.9313    2.3702   -1.0069 C   0  0  0  0  0  0  0  0  0  0  0  0
   -4.2531    2.1648   -2.1569 O   0  0  0  0  0  0  0  0  0  0  0  0
   -4.5884    3.1995   -0.1758 O   0  0  0  0  0  0  0  0  0  0  0  0
   -5.3356    3.5744   -0.6726 H   0  0  0  0  0  0  0  0  0  0  0  0
    2.8004    0.1657   -2.0005 C   0  0  0  0  0  0  0  0  0  0  0  0
    2.1183   -0.2008   -2.9414 O   0  0  0  0  0  0  0  0  0  0  0  0
    3.9275    0.8835   -2.1484 O   0  0  0  0  0  0  0  0  0  0  0  0
    4.0526    1.0306   -3.1014 H   0  0  0  0  0  0  0  0  0  0  0  0
  1  2  2  0  0  0  0
  1  6  1  0  0  0  0
  2  3  1  0  0  0  0
  3  4  2  0  0  0  0
  4  9  1  0  0  0  0
  5  8  1  0  0  0  0
  5  4  1  0  0  0  0
  6  5  2  0  0  0  0
  7  1  1  0  0  0  0
 10  2  1  0  0  0  0
 10 23  1  0  0  0  0
 11 10  1  0  0  0  0
 12 14  1  0  0  0  0
 12 11  1  0  0  0  0
 13 12  2  0  0  0  0
 14 18  1  0  0  0  0
 15 19  2  0  0  0  0
 15 13  1  0  0  0  0
 16 13  1  0  0  0  0
 17 21  1  0  0  0  0
 17 14  2  0  0  0  0
 19 17  1  0  0  0  0
 20 15  1  0  0  0  0
 22  3  1  6  0  0  0
 22 24  1  0  0  0  0
 23 26  1  1  0  0  0
 23 22  1  0  0  0  0
 25 23  1  0  0  0  0
 25 28  2  0  0  0  0
 27 24  1  0  0  0  0
 27 29  1  0  0  0  0
 28 27  1  0  0  0  0
 30 28  1  0  0  0  0
 31 32  2  0  0  0  0
 31 19  1  0  0  0  0
 33 31  1  0  0  0  0
 34 33  1  0  0  0  0
 35  6  1  0  0  0  0
 35 37  1  0  0  0  0
 36 35  2  0  0  0  0
 38 37  1  0  0  0  0
 39 25  1  0  0  0  0
 40 39  2  0  0  0  0
 41 39  1  0  0  0  0
 42 41  1  0  0  0  0
M  RAD  4  11   2  22   2  24   3  27   2
M  END
