Coordinates from ORCA-job 1g-Schema5-R9-P1+-B3LYPG-6-31G_dp-scan-d49-09-n400
 OpenBabel08231810273D

 42 45  0  0  1  0  0  0  0  0999 V2000
   -1.9507    0.5281   -1.1101 C   0  0  0  0  0  0  0  0  0  0  0  0
   -0.6079    0.2293   -0.9037 C   0  0  0  0  0  0  0  0  0  0  0  0
    0.2545    1.0433   -0.1652 C   0  0  0  0  0  0  0  0  0  0  0  0
   -0.2374    2.2192    0.3940 C   0  0  0  0  0  0  0  0  0  0  0  0
   -1.5848    2.5402    0.2096 C   0  0  0  0  0  0  0  0  0  0  0  0
   -2.4354    1.7035   -0.5369 C   0  0  0  0  0  0  0  0  0  0  0  0
   -2.6080   -0.1168   -1.6809 H   0  0  0  0  0  0  0  0  0  0  0  0
   -1.9884    3.4478    0.6428 H   0  0  0  0  0  0  0  0  0  0  0  0
    0.4099    2.8826    0.9561 H   0  0  0  0  0  0  0  0  0  0  0  0
    0.0767   -0.9066   -1.4017 N   0  0  0  0  0  0  0  0  0  0  0  0
   -0.4828   -1.6600   -2.2471 N   0  0  0  0  0  0  0  0  0  0  0  0
    0.0371   -2.7992   -2.8242 C   0  0  0  0  0  0  0  0  0  0  0  0
   -0.7676   -3.2377   -3.9092 C   0  0  0  0  0  0  0  0  0  0  0  0
    1.1927   -3.5471   -2.4667 C   0  0  0  0  0  0  0  0  0  0  0  0
   -0.4131   -4.3538   -4.6489 C   0  0  0  0  0  0  0  0  0  0  0  0
   -1.6572   -2.6649   -4.1468 H   0  0  0  0  0  0  0  0  0  0  0  0
    1.5198   -4.6733   -3.2002 C   0  0  0  0  0  0  0  0  0  0  0  0
    1.7919   -3.2978   -1.6031 H   0  0  0  0  0  0  0  0  0  0  0  0
    0.7358   -5.0746   -4.2956 C   0  0  0  0  0  0  0  0  0  0  0  0
   -1.0199   -4.6773   -5.4859 H   0  0  0  0  0  0  0  0  0  0  0  0
    2.3873   -5.2714   -2.9426 H   0  0  0  0  0  0  0  0  0  0  0  0
    1.5562   -1.9479    0.3059 C   0  0  0  0  0  0  0  0  0  0  0  0
    1.4683   -0.9759   -0.7899 C   0  0  2  0  0  0  0  0  0  0  0  0
    2.0696   -1.7124    1.3924 C   0  0  0  0  0  0  0  0  0  0  0  0
    1.6769    0.4849   -0.1536 C   0  0  2  0  0  0  0  0  0  0  0  0
    2.1595   -1.1406   -1.6210 H   0  0  0  0  0  0  0  0  0  0  0  0
    2.4742   -0.5150    2.0644 C   0  0  0  0  0  0  0  0  0  0  0  0
    2.2893    0.5518    1.2516 C   0  0  0  0  0  0  0  0  0  0  0  0
    2.9157   -0.4467    3.0502 H   0  0  0  0  0  0  0  0  0  0  0  0
    2.5874    1.5421    1.5805 H   0  0  0  0  0  0  0  0  0  0  0  0
    1.1745   -6.3011   -5.0416 C   0  0  0  0  0  0  0  0  0  0  0  0
    2.1599   -6.9396   -4.7462 O   0  0  0  0  0  0  0  0  0  0  0  0
    0.3530   -6.6006   -6.0629 O   0  0  0  0  0  0  0  0  0  0  0  0
    0.7005   -7.4020   -6.4909 H   0  0  0  0  0  0  0  0  0  0  0  0
   -3.8847    2.0192   -0.7553 C   0  0  0  0  0  0  0  0  0  0  0  0
   -4.6308    1.3128   -1.3965 O   0  0  0  0  0  0  0  0  0  0  0  0
   -4.2539    3.1696   -0.1636 O   0  0  0  0  0  0  0  0  0  0  0  0
   -5.1983    3.3034   -0.3534 H   0  0  0  0  0  0  0  0  0  0  0  0
    2.5186    1.3103   -1.1612 C   0  0  0  0  0  0  0  0  0  0  0  0
    2.8068    0.9219   -2.2681 O   0  0  0  0  0  0  0  0  0  0  0  0
    2.8458    2.5110   -0.6648 O   0  0  0  0  0  0  0  0  0  0  0  0
    3.3482    2.9922   -1.3466 H   0  0  0  0  0  0  0  0  0  0  0  0
  1  2  2  0  0  0  0
  1  6  1  0  0  0  0
  2  3  1  0  0  0  0
  3 25  1  0  0  0  0
  3  4  2  0  0  0  0
  4  9  1  0  0  0  0
  5  4  1  0  0  0  0
  5  8  1  0  0  0  0
  6  5  2  0  0  0  0
  7  1  1  0  0  0  0
 10  2  1  0  0  0  0
 10 23  1  0  0  0  0
 11 10  1  0  0  0  0
 12 14  1  0  0  0  0
 12 11  1  0  0  0  0
 13 12  2  0  0  0  0
 14 18  1  0  0  0  0
 15 19  2  0  0  0  0
 15 13  1  0  0  0  0
 16 13  1  0  0  0  0
 17 21  1  0  0  0  0
 17 14  2  0  0  0  0
 19 17  1  0  0  0  0
 20 15  1  0  0  0  0
 22 24  2  0  0  0  0
 23 26  1  6  0  0  0
 23 25  1  0  0  0  0
 23 22  1  0  0  0  0
 24 27  1  0  0  0  0
 25 39  1  6  0  0  0
 25 28  1  0  0  0  0
 27 29  1  0  0  0  0
 28 30  1  0  0  0  0
 28 27  2  0  0  0  0
 31 32  2  0  0  0  0
 31 19  1  0  0  0  0
 33 31  1  0  0  0  0
 34 33  1  0  0  0  0
 35  6  1  0  0  0  0
 35 37  1  0  0  0  0
 36 35  2  0  0  0  0
 38 37  1  0  0  0  0
 39 41  1  0  0  0  0
 40 39  2  0  0  0  0
 42 41  1  0  0  0  0
M  RAD  3  11   2  22   2  24   2
M  END
