Coordinates from ORCA-job 1g-Schema5-R9-P1+-B3LYPG-6-31G_dp-scan-d49-09-n400
 OpenBabel08231810273D

 42 45  0  0  1  0  0  0  0  0999 V2000
   -1.8883    0.7105   -1.3534 C   0  0  0  0  0  0  0  0  0  0  0  0
   -0.5748    0.3798   -1.0379 C   0  0  0  0  0  0  0  0  0  0  0  0
    0.2216    1.1867   -0.2142 C   0  0  0  0  0  0  0  0  0  0  0  0
   -0.2793    2.3626    0.3210 C   0  0  0  0  0  0  0  0  0  0  0  0
   -1.6005    2.7102    0.0156 C   0  0  0  0  0  0  0  0  0  0  0  0
   -2.3958    1.8925   -0.8069 C   0  0  0  0  0  0  0  0  0  0  0  0
   -2.5089    0.0969   -1.9956 H   0  0  0  0  0  0  0  0  0  0  0  0
   -2.0241    3.6244    0.4142 H   0  0  0  0  0  0  0  0  0  0  0  0
    0.3334    2.9968    0.9521 H   0  0  0  0  0  0  0  0  0  0  0  0
    0.1219   -0.7717   -1.5381 N   0  0  0  0  0  0  0  0  0  0  0  0
   -0.5448   -1.6718   -2.1285 N   0  0  0  0  0  0  0  0  0  0  0  0
   -0.0134   -2.7550   -2.7929 C   0  0  0  0  0  0  0  0  0  0  0  0
   -0.9502   -3.8074   -2.9595 C   0  0  0  0  0  0  0  0  0  0  0  0
    1.2767   -2.8608   -3.3786 C   0  0  0  0  0  0  0  0  0  0  0  0
   -0.5840   -4.9724   -3.6118 C   0  0  0  0  0  0  0  0  0  0  0  0
   -1.9438   -3.6814   -2.5444 H   0  0  0  0  0  0  0  0  0  0  0  0
    1.6124   -4.0141   -4.0680 C   0  0  0  0  0  0  0  0  0  0  0  0
    1.9714   -2.0336   -3.3629 H   0  0  0  0  0  0  0  0  0  0  0  0
    0.7015   -5.0779   -4.1674 C   0  0  0  0  0  0  0  0  0  0  0  0
   -1.2856   -5.7913   -3.7164 H   0  0  0  0  0  0  0  0  0  0  0  0
    2.5811   -4.1166   -4.5438 H   0  0  0  0  0  0  0  0  0  0  0  0
    2.2668   -2.0442   -0.7935 C   0  0  0  0  0  0  0  0  0  0  0  0
    1.6068   -0.6996   -1.1944 C   0  0  2  0  0  0  0  0  0  0  0  0
    2.4718   -2.0592    0.4235 C   0  0  0  0  0  0  0  0  0  0  0  0
    1.6093    0.4626   -0.0560 C   0  0  2  0  0  0  0  0  0  0  0  0
    2.1054   -0.2592   -2.0651 H   0  0  0  0  0  0  0  0  0  0  0  0
    2.3398   -1.3037    1.6216 C   0  0  0  0  0  0  0  0  0  0  0  0
    1.8567   -0.0630    1.3584 C   0  0  0  0  0  0  0  0  0  0  0  0
    2.5368   -1.6637    2.6237 H   0  0  0  0  0  0  0  0  0  0  0  0
    1.6638    0.6248    2.1757 H   0  0  0  0  0  0  0  0  0  0  0  0
    1.1528   -6.3018   -4.9097 C   0  0  0  0  0  0  0  0  0  0  0  0
    2.2508   -6.4081   -5.4094 O   0  0  0  0  0  0  0  0  0  0  0  0
    0.2058   -7.2562   -4.9491 O   0  0  0  0  0  0  0  0  0  0  0  0
    0.5737   -8.0106   -5.4407 H   0  0  0  0  0  0  0  0  0  0  0  0
   -3.8124    2.2428   -1.1528 C   0  0  0  0  0  0  0  0  0  0  0  0
   -4.5157    1.5532   -1.8576 O   0  0  0  0  0  0  0  0  0  0  0  0
   -4.2057    3.4022   -0.5950 O   0  0  0  0  0  0  0  0  0  0  0  0
   -5.1262    3.5574   -0.8677 H   0  0  0  0  0  0  0  0  0  0  0  0
    2.7241    1.4684   -0.4376 C   0  0  0  0  0  0  0  0  0  0  0  0
    3.2977    1.4792   -1.5000 O   0  0  0  0  0  0  0  0  0  0  0  0
    2.9365    2.3503    0.5515 O   0  0  0  0  0  0  0  0  0  0  0  0
    3.6243    2.9730    0.2544 H   0  0  0  0  0  0  0  0  0  0  0  0
  1  2  2  0  0  0  0
  1  6  1  0  0  0  0
  2  3  1  0  0  0  0
  3 25  1  0  0  0  0
  3  4  2  0  0  0  0
  4  9  1  0  0  0  0
  5  4  1  0  0  0  0
  5  8  1  0  0  0  0
  6  5  2  0  0  0  0
  7  1  1  0  0  0  0
 10 23  1  0  0  0  0
 10  2  1  0  0  0  0
 11 10  1  0  0  0  0
 12 11  1  0  0  0  0
 13 12  1  0  0  0  0
 13 16  1  0  0  0  0
 14 18  1  0  0  0  0
 14 12  2  0  0  0  0
 15 13  2  0  0  0  0
 17 14  1  0  0  0  0
 19 17  2  0  0  0  0
 19 15  1  0  0  0  0
 20 15  1  0  0  0  0
 21 17  1  0  0  0  0
 22 24  2  0  0  0  0
 23 26  1  6  0  0  0
 23 22  1  0  0  0  0
 23 25  1  0  0  0  0
 24 27  1  0  0  0  0
 25 39  1  6  0  0  0
 25 28  1  0  0  0  0
 27 29  1  0  0  0  0
 28 27  2  0  0  0  0
 28 30  1  0  0  0  0
 31 19  1  0  0  0  0
 32 31  2  0  0  0  0
 33 31  1  0  0  0  0
 34 33  1  0  0  0  0
 35  6  1  0  0  0  0
 35 37  1  0  0  0  0
 36 35  2  0  0  0  0
 38 37  1  0  0  0  0
 39 41  1  0  0  0  0
 40 39  2  0  0  0  0
 42 41  1  0  0  0  0
M  RAD  3  11   2  22   2  24   2
M  END
