Coordinates from ORCA-job 1g-Schema5-R9-P1+-B3LYPG-6-31G_dp-scan-d49-09-n400
 OpenBabel08231810273D

 42 45  0  0  1  0  0  0  0  0999 V2000
   -1.9782    0.6356   -1.0905 C   0  0  0  0  0  0  0  0  0  0  0  0
   -0.6662    0.2224   -0.9340 C   0  0  0  0  0  0  0  0  0  0  0  0
    0.2332    0.7567    0.0193 C   0  0  0  0  0  0  0  0  0  0  0  0
   -0.2037    1.8429    0.7817 C   0  0  0  0  0  0  0  0  0  0  0  0
   -1.5288    2.2667    0.6612 C   0  0  0  0  0  0  0  0  0  0  0  0
   -2.4093    1.6833   -0.2712 C   0  0  0  0  0  0  0  0  0  0  0  0
   -2.6590    0.1719   -1.7957 H   0  0  0  0  0  0  0  0  0  0  0  0
   -1.8886    3.0857    1.2741 H   0  0  0  0  0  0  0  0  0  0  0  0
    0.4721    2.3428    1.4673 H   0  0  0  0  0  0  0  0  0  0  0  0
   -0.0322   -0.8955   -1.5151 N   0  0  0  0  0  0  0  0  0  0  0  0
   -0.4770   -1.4927   -2.5304 N   0  0  0  0  0  0  0  0  0  0  0  0
    0.0327   -2.6884   -3.0088 C   0  0  0  0  0  0  0  0  0  0  0  0
   -0.1775   -2.8792   -4.3929 C   0  0  0  0  0  0  0  0  0  0  0  0
    0.6188   -3.7175   -2.2306 C   0  0  0  0  0  0  0  0  0  0  0  0
    0.2787   -4.0349   -5.0113 C   0  0  0  0  0  0  0  0  0  0  0  0
   -0.6725   -2.0952   -4.9553 H   0  0  0  0  0  0  0  0  0  0  0  0
    1.0295   -4.8829   -2.8538 C   0  0  0  0  0  0  0  0  0  0  0  0
    0.6678   -3.6441   -1.1501 H   0  0  0  0  0  0  0  0  0  0  0  0
    0.8853   -5.0384   -4.2436 C   0  0  0  0  0  0  0  0  0  0  0  0
    0.1480   -4.1761   -6.0775 H   0  0  0  0  0  0  0  0  0  0  0  0
    1.4560   -5.7021   -2.2850 H   0  0  0  0  0  0  0  0  0  0  0  0
    0.7248   -1.1335    0.7715 C   0  0  0  0  0  0  0  0  0  0  0  0
    1.1913   -1.1173   -0.6264 C   0  0  2  0  0  0  0  0  0  0  0  0
    1.5156   -1.0704    1.7457 C   0  0  0  0  0  0  0  0  0  0  0  0
    1.6960    0.3744   -0.3843 C   0  0  2  0  0  0  0  0  0  0  0  0
    1.8658   -1.8703   -1.0201 H   0  0  0  0  0  0  0  0  0  0  0  0
    2.5419   -0.0985    1.9098 C   0  0  0  0  0  0  0  0  0  0  0  0
    2.6864    0.5899    0.7403 C   0  0  0  0  0  0  0  0  0  0  0  0
    3.1998    0.0081    2.7644 H   0  0  0  0  0  0  0  0  0  0  0  0
    3.4766    1.3180    0.5875 H   0  0  0  0  0  0  0  0  0  0  0  0
    1.3727   -6.3234   -4.8444 C   0  0  0  0  0  0  0  0  0  0  0  0
    1.8976   -7.2019   -4.1965 O   0  0  0  0  0  0  0  0  0  0  0  0
    1.1623   -6.3824   -6.1714 O   0  0  0  0  0  0  0  0  0  0  0  0
    1.5014   -7.2396   -6.4813 H   0  0  0  0  0  0  0  0  0  0  0  0
   -3.8248    2.1383   -0.4364 C   0  0  0  0  0  0  0  0  0  0  0  0
   -4.5925    1.6502   -1.2368 O   0  0  0  0  0  0  0  0  0  0  0  0
   -4.1444    3.1417    0.4020 O   0  0  0  0  0  0  0  0  0  0  0  0
   -5.0729    3.3753    0.2322 H   0  0  0  0  0  0  0  0  0  0  0  0
    2.1160    1.0485   -1.6994 C   0  0  0  0  0  0  0  0  0  0  0  0
    2.0821    0.4814   -2.7672 O   0  0  0  0  0  0  0  0  0  0  0  0
    2.5072    2.3138   -1.5097 O   0  0  0  0  0  0  0  0  0  0  0  0
    2.7575    2.6874   -2.3741 H   0  0  0  0  0  0  0  0  0  0  0  0
  1  2  2  0  0  0  0
  1  6  1  0  0  0  0
  2  3  1  0  0  0  0
  3  4  2  0  0  0  0
  4  9  1  0  0  0  0
  5  4  1  0  0  0  0
  5  8  1  0  0  0  0
  6  5  2  0  0  0  0
  7  1  1  0  0  0  0
 10  2  1  0  0  0  0
 10 23  1  0  0  0  0
 11 10  1  0  0  0  0
 12 11  1  0  0  0  0
 12 14  2  0  0  0  0
 13 12  1  0  0  0  0
 14 18  1  0  0  0  0
 15 13  2  0  0  0  0
 15 19  1  0  0  0  0
 16 13  1  0  0  0  0
 17 21  1  0  0  0  0
 17 14  1  0  0  0  0
 19 17  2  0  0  0  0
 20 15  1  0  0  0  0
 22 24  1  0  0  0  0
 23 26  1  6  0  0  0
 23 25  1  0  0  0  0
 23 22  1  0  0  0  0
 24 27  2  0  0  0  0
 25 39  1  6  0  0  0
 25  3  1  0  0  0  0
 25 28  1  0  0  0  0
 27 29  1  0  0  0  0
 28 27  1  0  0  0  0
 30 28  1  0  0  0  0
 31 19  1  0  0  0  0
 31 32  2  0  0  0  0
 33 31  1  0  0  0  0
 34 33  1  0  0  0  0
 35  6  1  0  0  0  0
 35 37  1  0  0  0  0
 36 35  2  0  0  0  0
 38 37  1  0  0  0  0
 39 41  1  0  0  0  0
 40 39  2  0  0  0  0
 42 41  1  0  0  0  0
M  RAD  4  11   2  22   3  24   2  28   2
M  END
