Coordinates from ORCA-job 1g-Schema5-R9-P1+-B3LYPG-6-31G_dp-scan-d49-09-n400
 OpenBabel08231810273D

 42 46  0  0  1  0  0  0  0  0999 V2000
   -1.9665    0.6568   -1.0965 C   0  0  0  0  0  0  0  0  0  0  0  0
   -0.7045    0.1397   -0.8441 C   0  0  0  0  0  0  0  0  0  0  0  0
    0.1625    0.5781    0.2083 C   0  0  1  0  0  0  0  0  0  0  0  0
   -0.2862    1.6783    0.9784 C   0  0  0  0  0  0  0  0  0  0  0  0
   -1.5491    2.1981    0.7463 C   0  0  0  0  0  0  0  0  0  0  0  0
   -2.3917    1.7058   -0.2837 C   0  0  1  0  0  0  0  0  0  0  0  0
   -2.6074    0.2736   -1.8828 H   0  0  0  0  0  0  0  0  0  0  0  0
   -1.9058    3.0236    1.3524 H   0  0  0  0  0  0  0  0  0  0  0  0
    0.3482    2.0981    1.7521 H   0  0  0  0  0  0  0  0  0  0  0  0
   -0.0737   -0.9585   -1.4408 N   0  0  0  0  0  0  0  0  0  0  0  0
   -0.5028   -1.5343   -2.4827 N   0  0  0  0  0  0  0  0  0  0  0  0
    0.0192   -2.7152   -2.9732 C   0  0  0  0  0  0  0  0  0  0  0  0
   -0.1637   -2.8847   -4.3654 C   0  0  0  0  0  0  0  0  0  0  0  0
    0.5969   -3.7565   -2.2028 C   0  0  0  0  0  0  0  0  0  0  0  0
    0.3116   -4.0265   -4.9942 C   0  0  0  0  0  0  0  0  0  0  0  0
   -0.6509   -2.0929   -4.9235 H   0  0  0  0  0  0  0  0  0  0  0  0
    1.0294   -4.9069   -2.8380 C   0  0  0  0  0  0  0  0  0  0  0  0
    0.6176   -3.7029   -1.1200 H   0  0  0  0  0  0  0  0  0  0  0  0
    0.9122   -5.0391   -4.2330 C   0  0  0  0  0  0  0  0  0  0  0  0
    0.2017   -4.1501   -6.0649 H   0  0  0  0  0  0  0  0  0  0  0  0
    1.4495   -5.7339   -2.2756 H   0  0  0  0  0  0  0  0  0  0  0  0
    0.7595   -1.0183    0.8244 C   0  0  1  0  0  0  0  0  0  0  0  0
    1.1829   -1.1617   -0.5944 C   0  0  2  0  0  0  0  0  0  0  0  0
    1.6412   -1.0309    1.7596 C   0  0  0  0  0  0  0  0  0  0  0  0
    1.7169    0.3320   -0.4099 C   0  0  2  0  0  0  0  0  0  0  0  0
    1.8372   -1.9451   -0.9583 H   0  0  0  0  0  0  0  0  0  0  0  0
    2.6927   -0.1105    1.8224 C   0  0  0  0  0  0  0  0  0  0  0  0
    2.7661    0.5583    0.6108 C   0  0  0  0  0  0  0  0  0  0  0  0
    3.4110    0.0115    2.6250 H   0  0  0  0  0  0  0  0  0  0  0  0
    3.5382    1.2917    0.4009 H   0  0  0  0  0  0  0  0  0  0  0  0
    1.4192   -6.3100   -4.8465 C   0  0  0  0  0  0  0  0  0  0  0  0
    1.9405   -7.1952   -4.2045 O   0  0  0  0  0  0  0  0  0  0  0  0
    1.2309   -6.3490   -6.1775 O   0  0  0  0  0  0  0  0  0  0  0  0
    1.5817   -7.1985   -6.4956 H   0  0  0  0  0  0  0  0  0  0  0  0
   -3.7456    2.2731   -0.5535 C   0  0  0  0  0  0  0  0  0  0  0  0
   -4.4757    1.8727   -1.4346 O   0  0  0  0  0  0  0  0  0  0  0  0
   -4.0630    3.2744    0.2905 O   0  0  0  0  0  0  0  0  0  0  0  0
   -4.9534    3.5815    0.0491 H   0  0  0  0  0  0  0  0  0  0  0  0
    1.9514    1.0668   -1.7282 C   0  0  0  0  0  0  0  0  0  0  0  0
    1.8724    0.5272   -2.8076 O   0  0  0  0  0  0  0  0  0  0  0  0
    2.2462    2.3572   -1.5283 O   0  0  0  0  0  0  0  0  0  0  0  0
    2.3927    2.7729   -2.3971 H   0  0  0  0  0  0  0  0  0  0  0  0
  1  2  2  0  0  0  0
  1  6  1  0  0  0  0
  3  2  1  6  0  0  0
  3 22  1  0  0  0  0
  3  4  1  0  0  0  0
  4  9  1  0  0  0  0
  5  4  2  0  0  0  0
  5  8  1  0  0  0  0
  6 35  1  6  0  0  0
  6  5  1  0  0  0  0
  7  1  1  0  0  0  0
 10  2  1  0  0  0  0
 10 23  1  0  0  0  0
 11 10  1  0  0  0  0
 12 11  1  0  0  0  0
 12 14  2  0  0  0  0
 13 12  1  0  0  0  0
 14 18  1  0  0  0  0
 15 13  2  0  0  0  0
 15 19  1  0  0  0  0
 16 13  1  0  0  0  0
 17 21  1  0  0  0  0
 17 14  1  0  0  0  0
 19 17  2  0  0  0  0
 20 15  1  0  0  0  0
 22 24  1  1  0  0  0
 23 26  1  6  0  0  0
 23 25  1  0  0  0  0
 23 22  1  0  0  0  0
 24 27  2  0  0  0  0
 25 39  1  6  0  0  0
 25  3  1  0  0  0  0
 25 28  1  0  0  0  0
 27 29  1  0  0  0  0
 28 27  1  0  0  0  0
 30 28  1  0  0  0  0
 31 19  1  0  0  0  0
 31 32  2  0  0  0  0
 33 31  1  0  0  0  0
 34 33  1  0  0  0  0
 35 37  1  0  0  0  0
 36 35  2  0  0  0  0
 38 37  1  0  0  0  0
 39 41  1  0  0  0  0
 40 39  2  0  0  0  0
 42 41  1  0  0  0  0
M  RAD  5   6   2  11   2  22   2  24   2  28   2
M  END
