Coordinates from ORCA-job 1g-Schema5-R9-P1+-B3LYPG-6-31G_dp-scan-d49-09-n400
 OpenBabel08231810273D

 42 45  0  0  1  0  0  0  0  0999 V2000
   -1.9915    0.8429   -1.1433 C   0  0  0  0  0  0  0  0  0  0  0  0
   -0.8989    0.2428   -0.5332 C   0  0  0  0  0  0  0  0  0  0  0  0
   -0.5480    0.4844    0.8018 C   0  0  0  0  0  0  0  0  0  0  0  0
   -1.3102    1.3518    1.5813 C   0  0  0  0  0  0  0  0  0  0  0  0
   -2.4112    1.9688    0.9864 C   0  0  0  0  0  0  0  0  0  0  0  0
   -2.7475    1.7204   -0.3603 C   0  0  0  0  0  0  0  0  0  0  0  0
   -2.2621    0.6594   -2.1758 H   0  0  0  0  0  0  0  0  0  0  0  0
   -3.0257    2.6521    1.5611 H   0  0  0  0  0  0  0  0  0  0  0  0
   -1.0589    1.5343    2.6200 H   0  0  0  0  0  0  0  0  0  0  0  0
   -0.0206   -0.7193   -1.1216 N   0  0  0  0  0  0  0  0  0  0  0  0
   -0.4264   -1.3480   -2.1422 N   0  0  0  0  0  0  0  0  0  0  0  0
    0.1550   -2.4095   -2.7910 C   0  0  0  0  0  0  0  0  0  0  0  0
   -0.7314   -2.9525   -3.7598 C   0  0  0  0  0  0  0  0  0  0  0  0
    1.4296   -3.0142   -2.6048 C   0  0  0  0  0  0  0  0  0  0  0  0
   -0.3887   -4.0815   -4.4869 C   0  0  0  0  0  0  0  0  0  0  0  0
   -1.6897   -2.4647   -3.8979 H   0  0  0  0  0  0  0  0  0  0  0  0
    1.7588   -4.1386   -3.3359 C   0  0  0  0  0  0  0  0  0  0  0  0
    2.1712   -2.5925   -1.9456 H   0  0  0  0  0  0  0  0  0  0  0  0
    0.8578   -4.6818   -4.2705 C   0  0  0  0  0  0  0  0  0  0  0  0
   -1.0721   -4.4971   -5.2176 H   0  0  0  0  0  0  0  0  0  0  0  0
    2.7242   -4.6181   -3.2171 H   0  0  0  0  0  0  0  0  0  0  0  0
    0.7102   -0.3383    1.0951 C   0  0  1  0  0  0  0  0  0  0  0  0
    1.1714   -0.9284   -0.2227 C   0  0  2  0  0  0  0  0  0  0  0  0
    1.6702   -0.2359    2.0027 C   0  0  0  0  0  0  0  0  0  0  0  0
    2.4703   -0.1019   -0.5776 C   0  0  0  0  0  0  0  0  0  0  0  0
    1.3959   -1.9975   -0.2138 H   0  0  0  0  0  0  0  0  0  0  0  0
    2.9796   -0.0936    1.8331 C   0  0  0  0  0  0  0  0  0  0  0  0
    3.2963    0.2812    0.4295 C   0  0  0  0  0  0  0  0  0  0  0  0
    3.7710   -0.3406    2.5335 H   0  0  0  0  0  0  0  0  0  0  0  0
    4.2391    0.7605    0.1859 H   0  0  0  0  0  0  0  0  0  0  0  0
    1.3016   -5.9044   -5.0200 C   0  0  0  0  0  0  0  0  0  0  0  0
    2.3764   -6.4344   -4.8450 O   0  0  0  0  0  0  0  0  0  0  0  0
    0.3756   -6.3348   -5.8937 O   0  0  0  0  0  0  0  0  0  0  0  0
    0.7349   -7.1240   -6.3343 H   0  0  0  0  0  0  0  0  0  0  0  0
   -3.9233    2.3716   -1.0229 C   0  0  0  0  0  0  0  0  0  0  0  0
   -4.2371    2.1665   -2.1752 O   0  0  0  0  0  0  0  0  0  0  0  0
   -4.5857    3.2018   -0.1967 O   0  0  0  0  0  0  0  0  0  0  0  0
   -5.3289    3.5772   -0.6990 H   0  0  0  0  0  0  0  0  0  0  0  0
    2.7948    0.1851   -1.9941 C   0  0  0  0  0  0  0  0  0  0  0  0
    2.1133   -0.1814   -2.9354 O   0  0  0  0  0  0  0  0  0  0  0  0
    3.9147    0.9143   -2.1406 O   0  0  0  0  0  0  0  0  0  0  0  0
    4.0357    1.0686   -3.0930 H   0  0  0  0  0  0  0  0  0  0  0  0
  1  2  2  0  0  0  0
  1  6  1  0  0  0  0
  2  3  1  0  0  0  0
  3  4  2  0  0  0  0
  4  9  1  0  0  0  0
  5  8  1  0  0  0  0
  5  4  1  0  0  0  0
  6  5  2  0  0  0  0
  7  1  1  0  0  0  0
 10  2  1  0  0  0  0
 10 23  1  0  0  0  0
 11 10  1  0  0  0  0
 12 14  1  0  0  0  0
 12 11  1  0  0  0  0
 13 12  2  0  0  0  0
 14 18  1  0  0  0  0
 15 19  2  0  0  0  0
 15 13  1  0  0  0  0
 16 13  1  0  0  0  0
 17 21  1  0  0  0  0
 17 14  2  0  0  0  0
 19 17  1  0  0  0  0
 20 15  1  0  0  0  0
 22  3  1  6  0  0  0
 22 24  1  0  0  0  0
 23 26  1  1  0  0  0
 23 22  1  0  0  0  0
 25 23  1  0  0  0  0
 25 28  2  0  0  0  0
 27 24  1  0  0  0  0
 27 29  1  0  0  0  0
 28 27  1  0  0  0  0
 30 28  1  0  0  0  0
 31 32  2  0  0  0  0
 31 19  1  0  0  0  0
 33 31  1  0  0  0  0
 34 33  1  0  0  0  0
 35  6  1  0  0  0  0
 35 37  1  0  0  0  0
 36 35  2  0  0  0  0
 38 37  1  0  0  0  0
 39 25  1  0  0  0  0
 40 39  2  0  0  0  0
 41 39  1  0  0  0  0
 42 41  1  0  0  0  0
M  RAD  4  11   2  22   2  24   3  27   2
M  END
