Coordinates from ORCA-job 1g-Schema5-R9-P1+-B3LYPG-6-31G_dp-scan-d49-09-n400
 OpenBabel08231810273D

 42 43  0  0  0  0  0  0  0  0999 V2000
   -3.0296    0.4257   -1.2350 C   0  0  0  0  0  0  0  0  0  0  0  0
   -1.6724    0.1784   -0.8281 C   0  0  0  0  0  0  0  0  0  0  0  0
   -1.5445    1.0208    0.1932 C   0  0  0  0  0  0  0  0  0  0  0  0
   -2.1771    1.9490    0.9298 C   0  0  0  0  0  0  0  0  0  0  0  0
   -3.4967    2.1121    0.4473 C   0  0  0  0  0  0  0  0  0  0  0  0
   -3.9046    1.3311   -0.6489 C   0  0  0  0  0  0  0  0  0  0  0  0
   -3.3050   -0.2028   -2.0919 H   0  0  0  0  0  0  0  0  0  0  0  0
   -4.1585    2.8262    0.9258 H   0  0  0  0  0  0  0  0  0  0  0  0
   -1.7588    2.4977    1.7665 H   0  0  0  0  0  0  0  0  0  0  0  0
   -0.8265   -0.7576   -1.4642 N   0  0  0  0  0  0  0  0  0  0  0  0
   -1.3480   -1.3592   -2.4302 N   0  0  0  0  0  0  0  0  0  0  0  0
   -0.5924   -2.2970   -3.1232 C   0  0  0  0  0  0  0  0  0  0  0  0
   -1.2589   -2.9208   -4.1993 C   0  0  0  0  0  0  0  0  0  0  0  0
    0.7463   -2.6237   -2.8072 C   0  0  0  0  0  0  0  0  0  0  0  0
   -0.5918   -3.8697   -4.9615 C   0  0  0  0  0  0  0  0  0  0  0  0
   -2.2856   -2.6438   -4.4121 H   0  0  0  0  0  0  0  0  0  0  0  0
    1.3991   -3.5691   -3.5759 C   0  0  0  0  0  0  0  0  0  0  0  0
    1.2632   -2.1496   -1.9815 H   0  0  0  0  0  0  0  0  0  0  0  0
    0.7378   -4.1936   -4.6506 C   0  0  0  0  0  0  0  0  0  0  0  0
   -1.0859   -4.3585   -5.7921 H   0  0  0  0  0  0  0  0  0  0  0  0
    2.4259   -3.8383   -3.3582 H   0  0  0  0  0  0  0  0  0  0  0  0
    2.3899    0.9750    1.5069 C   0  0  0  0  0  0  0  0  0  0  0  0
    2.5490   -0.0910    0.6350 C   0  0  0  0  0  0  0  0  0  0  0  0
    3.3508    1.5736    2.0432 C   0  0  0  0  0  0  0  0  0  0  0  0
    3.9159   -0.4101    0.4256 C   0  0  0  0  0  0  0  0  0  0  0  0
    1.7711   -0.6584    0.1381 H   0  0  0  0  0  0  0  0  0  0  0  0
    4.7119    1.3804    1.9385 C   0  0  0  0  0  0  0  0  0  0  0  0
    4.9579    0.3029    1.0605 C   0  0  0  0  0  0  0  0  0  0  0  0
    5.5040    1.9307    2.4307 H   0  0  0  0  0  0  0  0  0  0  0  0
    5.9848    0.0101    0.8686 H   0  0  0  0  0  0  0  0  0  0  0  0
    1.5117   -5.2076   -5.4394 C   0  0  0  0  0  0  0  0  0  0  0  0
    2.6651   -5.4971   -5.2075 O   0  0  0  0  0  0  0  0  0  0  0  0
    0.7829   -5.7579   -6.4292 O   0  0  0  0  0  0  0  0  0  0  0  0
    1.3558   -6.3978   -6.8852 H   0  0  0  0  0  0  0  0  0  0  0  0
   -5.2810    1.4224   -1.2465 C   0  0  0  0  0  0  0  0  0  0  0  0
   -5.6345    0.7547   -2.1903 O   0  0  0  0  0  0  0  0  0  0  0  0
   -6.0421    2.3256   -0.6097 O   0  0  0  0  0  0  0  0  0  0  0  0
   -6.9134    2.3416   -1.0429 H   0  0  0  0  0  0  0  0  0  0  0  0
    4.2052   -1.5399   -0.5013 C   0  0  0  0  0  0  0  0  0  0  0  0
    3.3537   -2.1578   -1.1193 O   0  0  0  0  0  0  0  0  0  0  0  0
    5.5160   -1.8292   -0.5997 O   0  0  0  0  0  0  0  0  0  0  0  0
    5.5985   -2.5764   -1.2160 H   0  0  0  0  0  0  0  0  0  0  0  0
  1  2  2  0  0  0  0
  1  6  1  0  0  0  0
  2  3  1  0  0  0  0
  3  4  2  0  0  0  0
  4  9  1  0  0  0  0
  5  8  1  0  0  0  0
  5  4  1  0  0  0  0
  6  5  2  0  0  0  0
  7  1  1  0  0  0  0
 10  2  1  0  0  0  0
 11 10  1  0  0  0  0
 12 14  1  0  0  0  0
 12 11  1  0  0  0  0
 13 12  2  0  0  0  0
 14 18  1  0  0  0  0
 15 19  2  0  0  0  0
 15 13  1  0  0  0  0
 16 13  1  0  0  0  0
 17 21  1  0  0  0  0
 17 14  2  0  0  0  0
 19 17  1  0  0  0  0
 20 15  1  0  0  0  0
 22 24  2  0  0  0  0
 23 22  1  0  0  0  0
 25 23  2  0  0  0  0
 25 28  1  0  0  0  0
 26 23  1  0  0  0  0
 27 24  1  0  0  0  0
 27 29  1  0  0  0  0
 28 27  2  0  0  0  0
 30 28  1  0  0  0  0
 31 32  2  0  0  0  0
 31 19  1  0  0  0  0
 33 31  1  0  0  0  0
 34 33  1  0  0  0  0
 35  6  1  0  0  0  0
 35 37  1  0  0  0  0
 36 35  2  0  0  0  0
 38 37  1  0  0  0  0
 39 25  1  0  0  0  0
 40 39  2  0  0  0  0
 41 39  1  0  0  0  0
 42 41  1  0  0  0  0
M  RAD  5   3   2  10   2  11   2  22   2  24   2
M  END
