Coordinates from ORCA-job 1g-Schema5-R9-P1+-B3LYPG-6-31G_dp-scan-d49-09-n400
 OpenBabel08231810273D

 42 45  0  0  1  0  0  0  0  0999 V2000
   -1.9522    0.8378   -1.1472 C   0  0  0  0  0  0  0  0  0  0  0  0
   -0.8904    0.2246   -0.4905 C   0  0  0  0  0  0  0  0  0  0  0  0
   -0.6189    0.4827    0.8473 C   0  0  0  0  0  0  0  0  0  0  0  0
   -1.3804    1.3540    1.6035 C   0  0  0  0  0  0  0  0  0  0  0  0
   -2.4503    1.9826    0.9558 C   0  0  0  0  0  0  0  0  0  0  0  0
   -2.7303    1.7284   -0.4010 C   0  0  0  0  0  0  0  0  0  0  0  0
   -2.1815    0.6544   -2.1898 H   0  0  0  0  0  0  0  0  0  0  0  0
   -3.0791    2.6780    1.5001 H   0  0  0  0  0  0  0  0  0  0  0  0
   -1.1656    1.5401    2.6494 H   0  0  0  0  0  0  0  0  0  0  0  0
   -0.0097   -0.7517   -1.0648 N   0  0  0  0  0  0  0  0  0  0  0  0
   -0.4259   -1.3790   -2.0804 N   0  0  0  0  0  0  0  0  0  0  0  0
    0.1511   -2.4284   -2.7549 C   0  0  0  0  0  0  0  0  0  0  0  0
   -0.7716   -2.9999   -3.6720 C   0  0  0  0  0  0  0  0  0  0  0  0
    1.4539   -2.9899   -2.6455 C   0  0  0  0  0  0  0  0  0  0  0  0
   -0.4371   -4.1212   -4.4152 C   0  0  0  0  0  0  0  0  0  0  0  0
   -1.7503   -2.5416   -3.7568 H   0  0  0  0  0  0  0  0  0  0  0  0
    1.7766   -4.1030   -3.3971 C   0  0  0  0  0  0  0  0  0  0  0  0
    2.2209   -2.5379   -2.0375 H   0  0  0  0  0  0  0  0  0  0  0  0
    0.8392   -4.6796   -4.2736 C   0  0  0  0  0  0  0  0  0  0  0  0
   -1.1490   -4.5606   -5.1035 H   0  0  0  0  0  0  0  0  0  0  0  0
    2.7639   -4.5478   -3.3383 H   0  0  0  0  0  0  0  0  0  0  0  0
    0.8014   -0.5256    1.1740 C   0  0  1  0  0  0  0  0  0  0  0  0
    1.2067   -0.9823   -0.2007 C   0  0  2  0  0  0  0  0  0  0  0  0
    1.7727   -0.3986    2.0435 C   0  0  0  0  0  0  0  0  0  0  0  0
    2.4670   -0.0883   -0.5417 C   0  0  0  0  0  0  0  0  0  0  0  0
    1.4630   -2.0401   -0.2891 H   0  0  0  0  0  0  0  0  0  0  0  0
    3.0666   -0.1578    1.8561 C   0  0  0  0  0  0  0  0  0  0  0  0
    3.3108    0.2802    0.4572 C   0  0  0  0  0  0  0  0  0  0  0  0
    3.8923   -0.3663    2.5281 H   0  0  0  0  0  0  0  0  0  0  0  0
    4.2298    0.7984    0.2021 H   0  0  0  0  0  0  0  0  0  0  0  0
    1.2774   -5.8892   -5.0473 C   0  0  0  0  0  0  0  0  0  0  0  0
    2.3771   -6.3840   -4.9354 O   0  0  0  0  0  0  0  0  0  0  0  0
    0.3160   -6.3517   -5.8645 O   0  0  0  0  0  0  0  0  0  0  0  0
    0.6741   -7.1301   -6.3250 H   0  0  0  0  0  0  0  0  0  0  0  0
   -3.8689    2.3897   -1.1172 C   0  0  0  0  0  0  0  0  0  0  0  0
   -4.1365    2.1813   -2.2804 O   0  0  0  0  0  0  0  0  0  0  0  0
   -4.5559    3.2330   -0.3250 O   0  0  0  0  0  0  0  0  0  0  0  0
   -5.2728    3.6132   -0.8609 H   0  0  0  0  0  0  0  0  0  0  0  0
    2.7476    0.2581   -1.9541 C   0  0  0  0  0  0  0  0  0  0  0  0
    2.0688   -0.1206   -2.8930 O   0  0  0  0  0  0  0  0  0  0  0  0
    3.8216    1.0532   -2.1007 O   0  0  0  0  0  0  0  0  0  0  0  0
    3.9173    1.2362   -3.0509 H   0  0  0  0  0  0  0  0  0  0  0  0
  1  2  2  0  0  0  0
  1  6  1  0  0  0  0
  2  3  1  0  0  0  0
  3  4  2  0  0  0  0
  4  9  1  0  0  0  0
  5  8  1  0  0  0  0
  5  4  1  0  0  0  0
  6  5  2  0  0  0  0
  7  1  1  0  0  0  0
 10  2  1  0  0  0  0
 10 23  1  0  0  0  0
 11 10  1  0  0  0  0
 12 14  1  0  0  0  0
 12 11  1  0  0  0  0
 13 12  2  0  0  0  0
 14 18  1  0  0  0  0
 15 19  2  0  0  0  0
 15 13  1  0  0  0  0
 16 13  1  0  0  0  0
 17 21  1  0  0  0  0
 17 14  2  0  0  0  0
 19 17  1  0  0  0  0
 20 15  1  0  0  0  0
 22  3  1  6  0  0  0
 22 24  1  0  0  0  0
 23 26  1  1  0  0  0
 23 22  1  0  0  0  0
 25 23  1  0  0  0  0
 25 28  2  0  0  0  0
 27 24  1  0  0  0  0
 27 29  1  0  0  0  0
 28 27  1  0  0  0  0
 30 28  1  0  0  0  0
 31 32  2  0  0  0  0
 31 19  1  0  0  0  0
 33 31  1  0  0  0  0
 34 33  1  0  0  0  0
 35  6  1  0  0  0  0
 35 37  1  0  0  0  0
 36 35  2  0  0  0  0
 38 37  1  0  0  0  0
 39 25  1  0  0  0  0
 40 39  2  0  0  0  0
 41 39  1  0  0  0  0
 42 41  1  0  0  0  0
M  RAD  4  11   2  22   2  24   3  27   2
M  END
