Coordinates from ORCA-job 1g-Schema5-R9-P1+-B3LYPG-6-31G_dp-scan-d49-09-n400
 OpenBabel08231810273D

 42 43  0  0  0  0  0  0  0  0999 V2000
   -3.0371    0.4267   -1.2374 C   0  0  0  0  0  0  0  0  0  0  0  0
   -1.6808    0.1800   -0.8270 C   0  0  0  0  0  0  0  0  0  0  0  0
   -1.5567    1.0214    0.1954 C   0  0  0  0  0  0  0  0  0  0  0  0
   -2.1922    1.9483    0.9313 C   0  0  0  0  0  0  0  0  0  0  0  0
   -3.5106    2.1108    0.4454 C   0  0  0  0  0  0  0  0  0  0  0  0
   -3.9146    1.3307   -0.6529 C   0  0  0  0  0  0  0  0  0  0  0  0
   -3.3095   -0.2012   -2.0957 H   0  0  0  0  0  0  0  0  0  0  0  0
   -4.1742    2.8239    0.9227 H   0  0  0  0  0  0  0  0  0  0  0  0
   -1.7767    2.4964    1.7699 H   0  0  0  0  0  0  0  0  0  0  0  0
   -0.8325   -0.7547   -1.4621 N   0  0  0  0  0  0  0  0  0  0  0  0
   -1.3515   -1.3564   -2.4293 N   0  0  0  0  0  0  0  0  0  0  0  0
   -0.5942   -2.2932   -3.1214 C   0  0  0  0  0  0  0  0  0  0  0  0
   -1.2593   -2.9179   -4.1978 C   0  0  0  0  0  0  0  0  0  0  0  0
    0.7447   -2.6185   -2.8042 C   0  0  0  0  0  0  0  0  0  0  0  0
   -0.5909   -3.8668   -4.9590 C   0  0  0  0  0  0  0  0  0  0  0  0
   -2.2860   -2.6419   -4.4116 H   0  0  0  0  0  0  0  0  0  0  0  0
    1.3985   -3.5640   -3.5720 C   0  0  0  0  0  0  0  0  0  0  0  0
    1.2612   -2.1438   -1.9786 H   0  0  0  0  0  0  0  0  0  0  0  0
    0.7386   -4.1896   -4.6467 C   0  0  0  0  0  0  0  0  0  0  0  0
   -1.0840   -4.3564   -5.7897 H   0  0  0  0  0  0  0  0  0  0  0  0
    2.4254   -3.8323   -3.3533 H   0  0  0  0  0  0  0  0  0  0  0  0
    2.4090    0.9793    1.5104 C   0  0  0  0  0  0  0  0  0  0  0  0
    2.5607   -0.0872    0.6380 C   0  0  0  0  0  0  0  0  0  0  0  0
    3.3737    1.5734    2.0446 C   0  0  0  0  0  0  0  0  0  0  0  0
    3.9256   -0.4127    0.4252 C   0  0  0  0  0  0  0  0  0  0  0  0
    1.7789   -0.6511    0.1430 H   0  0  0  0  0  0  0  0  0  0  0  0
    4.7336    1.3737    1.9365 C   0  0  0  0  0  0  0  0  0  0  0  0
    4.9725    0.2953    1.0577 C   0  0  0  0  0  0  0  0  0  0  0  0
    5.5296    1.9203    2.4267 H   0  0  0  0  0  0  0  0  0  0  0  0
    5.9975   -0.0022    0.8631 H   0  0  0  0  0  0  0  0  0  0  0  0
    1.5139   -5.2036   -5.4343 C   0  0  0  0  0  0  0  0  0  0  0  0
    2.6674   -5.4920   -5.2013 O   0  0  0  0  0  0  0  0  0  0  0  0
    0.7863   -5.7550   -6.4243 O   0  0  0  0  0  0  0  0  0  0  0  0
    1.3600   -6.3947   -6.8795 H   0  0  0  0  0  0  0  0  0  0  0  0
   -5.2893    1.4215   -1.2545 C   0  0  0  0  0  0  0  0  0  0  0  0
   -5.6402    0.7529   -2.1986 O   0  0  0  0  0  0  0  0  0  0  0  0
   -6.0539    2.3213   -0.6171 O   0  0  0  0  0  0  0  0  0  0  0  0
   -6.9247    2.3356   -1.0516 H   0  0  0  0  0  0  0  0  0  0  0  0
    4.2076   -1.5435   -0.5027 C   0  0  0  0  0  0  0  0  0  0  0  0
    3.3521   -2.1576   -1.1191 O   0  0  0  0  0  0  0  0  0  0  0  0
    5.5168   -1.8385   -0.6043 O   0  0  0  0  0  0  0  0  0  0  0  0
    5.5946   -2.5860   -1.2209 H   0  0  0  0  0  0  0  0  0  0  0  0
  1  2  2  0  0  0  0
  1  6  1  0  0  0  0
  2  3  1  0  0  0  0
  3  4  2  0  0  0  0
  4  9  1  0  0  0  0
  5  8  1  0  0  0  0
  5  4  1  0  0  0  0
  6  5  2  0  0  0  0
  7  1  1  0  0  0  0
 10  2  1  0  0  0  0
 11 10  1  0  0  0  0
 12 14  1  0  0  0  0
 12 11  1  0  0  0  0
 13 12  2  0  0  0  0
 14 18  1  0  0  0  0
 15 19  2  0  0  0  0
 15 13  1  0  0  0  0
 16 13  1  0  0  0  0
 17 21  1  0  0  0  0
 17 14  2  0  0  0  0
 19 17  1  0  0  0  0
 20 15  1  0  0  0  0
 22 24  2  0  0  0  0
 23 22  1  0  0  0  0
 25 23  2  0  0  0  0
 25 28  1  0  0  0  0
 26 23  1  0  0  0  0
 27 24  1  0  0  0  0
 27 29  1  0  0  0  0
 28 27  2  0  0  0  0
 30 28  1  0  0  0  0
 31 32  2  0  0  0  0
 31 19  1  0  0  0  0
 33 31  1  0  0  0  0
 34 33  1  0  0  0  0
 35  6  1  0  0  0  0
 35 37  1  0  0  0  0
 36 35  2  0  0  0  0
 38 37  1  0  0  0  0
 39 25  1  0  0  0  0
 40 39  2  0  0  0  0
 41 39  1  0  0  0  0
 42 41  1  0  0  0  0
M  RAD  5   3   2  10   2  11   2  22   2  24   2
M  END
