Coordinates from ORCA-job 1g-Schema5-R9-P1+-B3LYPG-6-31G_dp-scan-d49-09-n400
 OpenBabel08231810273D

 42 45  0  0  1  0  0  0  0  0999 V2000
   -2.0331    0.8405   -1.1273 C   0  0  0  0  0  0  0  0  0  0  0  0
   -0.9099    0.2457   -0.5804 C   0  0  0  0  0  0  0  0  0  0  0  0
   -0.4312    0.4748    0.7488 C   0  0  0  0  0  0  0  0  0  0  0  0
   -1.2109    1.3501    1.5577 C   0  0  0  0  0  0  0  0  0  0  0  0
   -2.3351    1.9573    1.0285 C   0  0  0  0  0  0  0  0  0  0  0  0
   -2.7473    1.7143   -0.3050 C   0  0  0  0  0  0  0  0  0  0  0  0
   -2.3594    0.6515   -2.1426 H   0  0  0  0  0  0  0  0  0  0  0  0
   -2.9255    2.6302    1.6395 H   0  0  0  0  0  0  0  0  0  0  0  0
   -0.9221    1.5158    2.5902 H   0  0  0  0  0  0  0  0  0  0  0  0
   -0.0508   -0.7030   -1.1858 N   0  0  0  0  0  0  0  0  0  0  0  0
   -0.4412   -1.3231   -2.2229 N   0  0  0  0  0  0  0  0  0  0  0  0
    0.1482   -2.3965   -2.8388 C   0  0  0  0  0  0  0  0  0  0  0  0
   -0.6754   -2.9027   -3.8804 C   0  0  0  0  0  0  0  0  0  0  0  0
    1.3781   -3.0516   -2.5502 C   0  0  0  0  0  0  0  0  0  0  0  0
   -0.3132   -4.0381   -4.5872 C   0  0  0  0  0  0  0  0  0  0  0  0
   -1.6018   -2.3805   -4.0915 H   0  0  0  0  0  0  0  0  0  0  0  0
    1.7239   -4.1863   -3.2565 C   0  0  0  0  0  0  0  0  0  0  0  0
    2.0720   -2.6675   -1.8190 H   0  0  0  0  0  0  0  0  0  0  0  0
    0.8868   -4.6876   -4.2711 C   0  0  0  0  0  0  0  0  0  0  0  0
   -0.9470   -4.4237   -5.3766 H   0  0  0  0  0  0  0  0  0  0  0  0
    2.6547   -4.7059   -3.0571 H   0  0  0  0  0  0  0  0  0  0  0  0
    0.5849   -0.1224    0.9783 C   0  0  1  0  0  0  0  0  0  0  0  0
    1.1178   -0.8730   -0.2527 C   0  0  2  0  0  0  0  0  0  0  0  0
    1.5423   -0.0477    1.9459 C   0  0  0  0  0  0  0  0  0  0  0  0
    2.4470   -0.1290   -0.6257 C   0  0  0  0  0  0  0  0  0  0  0  0
    1.2968   -1.9413   -0.1047 H   0  0  0  0  0  0  0  0  0  0  0  0
    2.8579    0.0123    1.7937 C   0  0  0  0  0  0  0  0  0  0  0  0
    3.2504    0.2835    0.3868 C   0  0  0  0  0  0  0  0  0  0  0  0
    3.6119   -0.2120    2.5427 H   0  0  0  0  0  0  0  0  0  0  0  0
    4.2125    0.7299    0.1561 H   0  0  0  0  0  0  0  0  0  0  0  0
    1.3460   -5.9215   -4.9910 C   0  0  0  0  0  0  0  0  0  0  0  0
    2.3809   -6.4943   -4.7309 O   0  0  0  0  0  0  0  0  0  0  0  0
    0.4821   -6.3107   -5.9445 O   0  0  0  0  0  0  0  0  0  0  0  0
    0.8475   -7.1106   -6.3600 H   0  0  0  0  0  0  0  0  0  0  0  0
   -3.9611    2.3601   -0.8974 C   0  0  0  0  0  0  0  0  0  0  0  0
   -4.3351    2.1590   -2.0325 O   0  0  0  0  0  0  0  0  0  0  0  0
   -4.5818    3.1813   -0.0309 O   0  0  0  0  0  0  0  0  0  0  0  0
   -5.3532    3.5564   -0.4891 H   0  0  0  0  0  0  0  0  0  0  0  0
    2.8185    0.0887   -2.0432 C   0  0  0  0  0  0  0  0  0  0  0  0
    2.1296   -0.2505   -2.9887 O   0  0  0  0  0  0  0  0  0  0  0  0
    3.9935    0.7272   -2.1843 O   0  0  0  0  0  0  0  0  0  0  0  0
    4.1411    0.8516   -3.1373 H   0  0  0  0  0  0  0  0  0  0  0  0
  1  2  2  0  0  0  0
  1  6  1  0  0  0  0
  2  3  1  0  0  0  0
  3  4  2  0  0  0  0
  4  9  1  0  0  0  0
  5  4  1  0  0  0  0
  5  8  1  0  0  0  0
  6  5  2  0  0  0  0
  7  1  1  0  0  0  0
 10  2  1  0  0  0  0
 10 23  1  0  0  0  0
 11 10  1  0  0  0  0
 12 14  1  0  0  0  0
 12 11  1  0  0  0  0
 13 12  2  0  0  0  0
 14 18  1  0  0  0  0
 15 19  2  0  0  0  0
 15 13  1  0  0  0  0
 16 13  1  0  0  0  0
 17 21  1  0  0  0  0
 17 14  2  0  0  0  0
 19 17  1  0  0  0  0
 20 15  1  0  0  0  0
 22  3  1  6  0  0  0
 22 24  1  0  0  0  0
 23 26  1  1  0  0  0
 23 22  1  0  0  0  0
 25 23  1  0  0  0  0
 25 28  2  0  0  0  0
 27 24  2  0  0  0  0
 27 29  1  0  0  0  0
 28 27  1  0  0  0  0
 30 28  1  0  0  0  0
 31 32  2  0  0  0  0
 31 19  1  0  0  0  0
 33 31  1  0  0  0  0
 34 33  1  0  0  0  0
 35  6  1  0  0  0  0
 35 37  1  0  0  0  0
 36 35  2  0  0  0  0
 38 37  1  0  0  0  0
 39 25  1  0  0  0  0
 40 39  2  0  0  0  0
 41 39  1  0  0  0  0
 42 41  1  0  0  0  0
M  RAD  3  11   2  22   2  24   2
M  END
