Coordinates from ORCA-job 1g-Schema5-R9-P1+-B3LYPG-6-31G_dp-scan-d49-09-n400
 OpenBabel08231810273D

 42 43  0  0  0  0  0  0  0  0999 V2000
   -3.1553    0.4340   -1.2662 C   0  0  0  0  0  0  0  0  0  0  0  0
   -1.8074    0.1980   -0.8218 C   0  0  0  0  0  0  0  0  0  0  0  0
   -1.7213    1.0315    0.2106 C   0  0  0  0  0  0  0  0  0  0  0  0
   -2.3871    1.9445    0.9372 C   0  0  0  0  0  0  0  0  0  0  0  0
   -3.6933    2.0980    0.4166 C   0  0  0  0  0  0  0  0  0  0  0  0
   -4.0585    1.3231   -0.6987 C   0  0  0  0  0  0  0  0  0  0  0  0
   -3.3971   -0.1912   -2.1358 H   0  0  0  0  0  0  0  0  0  0  0  0
   -4.3772    2.8003    0.8814 H   0  0  0  0  0  0  0  0  0  0  0  0
   -2.0019    2.4897    1.7921 H   0  0  0  0  0  0  0  0  0  0  0  0
   -0.9339   -0.7211   -1.4432 N   0  0  0  0  0  0  0  0  0  0  0  0
   -1.4240   -1.3302   -2.4206 N   0  0  0  0  0  0  0  0  0  0  0  0
   -0.6366   -2.2526   -3.0981 C   0  0  0  0  0  0  0  0  0  0  0  0
   -1.2694   -2.8982   -4.1815 C   0  0  0  0  0  0  0  0  0  0  0  0
    0.7034   -2.5460   -2.7565 C   0  0  0  0  0  0  0  0  0  0  0  0
   -0.5670   -3.8374   -4.9239 C   0  0  0  0  0  0  0  0  0  0  0  0
   -2.2982   -2.6468   -4.4149 H   0  0  0  0  0  0  0  0  0  0  0  0
    1.3915   -3.4822   -3.5051 C   0  0  0  0  0  0  0  0  0  0  0  0
    1.1948   -2.0523   -1.9270 H   0  0  0  0  0  0  0  0  0  0  0  0
    0.7637   -4.1294   -4.5861 C   0  0  0  0  0  0  0  0  0  0  0  0
   -1.0347   -4.3434   -5.7594 H   0  0  0  0  0  0  0  0  0  0  0  0
    2.4197   -3.7237   -3.2639 H   0  0  0  0  0  0  0  0  0  0  0  0
    2.6823    1.0183    1.5720 C   0  0  0  0  0  0  0  0  0  0  0  0
    2.7225   -0.0469    0.6897 C   0  0  0  0  0  0  0  0  0  0  0  0
    3.6985    1.5533    2.0705 C   0  0  0  0  0  0  0  0  0  0  0  0
    4.0544   -0.4559    0.4156 C   0  0  0  0  0  0  0  0  0  0  0  0
    1.8846   -0.5572    0.2286 H   0  0  0  0  0  0  0  0  0  0  0  0
    5.0371    1.2656    1.8978 C   0  0  0  0  0  0  0  0  0  0  0  0
    5.1703    0.1815    1.0045 C   0  0  0  0  0  0  0  0  0  0  0  0
    5.8873    1.7587    2.3527 H   0  0  0  0  0  0  0  0  0  0  0  0
    6.1650   -0.1762    0.7610 H   0  0  0  0  0  0  0  0  0  0  0  0
    1.5741   -5.1318   -5.3530 C   0  0  0  0  0  0  0  0  0  0  0  0
    2.7299   -5.3923   -5.0992 O   0  0  0  0  0  0  0  0  0  0  0  0
    0.8751   -5.7074   -6.3498 O   0  0  0  0  0  0  0  0  0  0  0  0
    1.4701   -6.3379   -6.7904 H   0  0  0  0  0  0  0  0  0  0  0  0
   -5.4176    1.4033   -1.3366 C   0  0  0  0  0  0  0  0  0  0  0  0
   -5.7342    0.7400   -2.2963 O   0  0  0  0  0  0  0  0  0  0  0  0
   -6.2088    2.2899   -0.7135 O   0  0  0  0  0  0  0  0  0  0  0  0
   -7.0674    2.2991   -1.1717 H   0  0  0  0  0  0  0  0  0  0  0  0
    4.2261   -1.5930   -0.5298 C   0  0  0  0  0  0  0  0  0  0  0  0
    3.3080   -2.1514   -1.1092 O   0  0  0  0  0  0  0  0  0  0  0  0
    5.5092   -1.9641   -0.6955 O   0  0  0  0  0  0  0  0  0  0  0  0
    5.5129   -2.7093   -1.3197 H   0  0  0  0  0  0  0  0  0  0  0  0
  1  2  2  0  0  0  0
  1  6  1  0  0  0  0
  2  3  1  0  0  0  0
  3  4  2  0  0  0  0
  4  9  1  0  0  0  0
  5  8  1  0  0  0  0
  5  4  1  0  0  0  0
  6  5  2  0  0  0  0
  7  1  1  0  0  0  0
 10  2  1  0  0  0  0
 11 10  1  0  0  0  0
 12 14  1  0  0  0  0
 12 11  1  0  0  0  0
 13 12  2  0  0  0  0
 14 18  1  0  0  0  0
 15 19  2  0  0  0  0
 15 13  1  0  0  0  0
 16 13  1  0  0  0  0
 17 21  1  0  0  0  0
 17 14  2  0  0  0  0
 19 17  1  0  0  0  0
 20 15  1  0  0  0  0
 22 24  2  0  0  0  0
 23 22  1  0  0  0  0
 25 23  2  0  0  0  0
 25 28  1  0  0  0  0
 26 23  1  0  0  0  0
 27 24  1  0  0  0  0
 27 29  1  0  0  0  0
 28 27  2  0  0  0  0
 30 28  1  0  0  0  0
 31 32  2  0  0  0  0
 31 19  1  0  0  0  0
 33 31  1  0  0  0  0
 34 33  1  0  0  0  0
 35 37  1  0  0  0  0
 35  6  1  0  0  0  0
 36 35  2  0  0  0  0
 38 37  1  0  0  0  0
 39 25  1  0  0  0  0
 40 39  2  0  0  0  0
 41 39  1  0  0  0  0
 42 41  1  0  0  0  0
M  RAD  5   3   2  10   2  11   2  22   2  24   2
M  END
