Coordinates from ORCA-job 1g-Schema5-R9-P1+-B3LYPG-6-31G_dp-scan-d49-09-n400
 OpenBabel08231810273D

 42 45  0  0  1  0  0  0  0  0999 V2000
   -2.0517    0.8425   -1.1129 C   0  0  0  0  0  0  0  0  0  0  0  0
   -0.9263    0.2289   -0.6013 C   0  0  0  0  0  0  0  0  0  0  0  0
   -0.3428    0.4483    0.7341 C   0  0  0  0  0  0  0  0  0  0  0  0
   -1.1855    1.3118    1.5718 C   0  0  0  0  0  0  0  0  0  0  0  0
   -2.3041    1.9221    1.0738 C   0  0  0  0  0  0  0  0  0  0  0  0
   -2.7413    1.7105   -0.2674 C   0  0  0  0  0  0  0  0  0  0  0  0
   -2.3988    0.6671   -2.1244 H   0  0  0  0  0  0  0  0  0  0  0  0
   -2.8940    2.5711    1.7111 H   0  0  0  0  0  0  0  0  0  0  0  0
   -0.9049    1.4126    2.6157 H   0  0  0  0  0  0  0  0  0  0  0  0
   -0.0803   -0.7024   -1.2109 N   0  0  0  0  0  0  0  0  0  0  0  0
   -0.4486   -1.2987   -2.2788 N   0  0  0  0  0  0  0  0  0  0  0  0
    0.1434   -2.3818   -2.8686 C   0  0  0  0  0  0  0  0  0  0  0  0
   -0.6230   -2.8570   -3.9676 C   0  0  0  0  0  0  0  0  0  0  0  0
    1.3300   -3.0780   -2.5035 C   0  0  0  0  0  0  0  0  0  0  0  0
   -0.2482   -3.9986   -4.6566 C   0  0  0  0  0  0  0  0  0  0  0  0
   -1.5170   -2.3055   -4.2360 H   0  0  0  0  0  0  0  0  0  0  0  0
    1.6870   -4.2201   -3.1911 C   0  0  0  0  0  0  0  0  0  0  0  0
    1.9816   -2.7228   -1.7195 H   0  0  0  0  0  0  0  0  0  0  0  0
    0.9068   -4.6887   -4.2656 C   0  0  0  0  0  0  0  0  0  0  0  0
   -0.8382   -4.3597   -5.4902 H   0  0  0  0  0  0  0  0  0  0  0  0
    2.5848   -4.7706   -2.9319 H   0  0  0  0  0  0  0  0  0  0  0  0
    0.4860    0.0158    0.9034 C   0  0  1  0  0  0  0  0  0  0  0  0
    1.0885   -0.8380   -0.2720 C   0  0  2  0  0  0  0  0  0  0  0  0
    1.4908    0.0810    1.9024 C   0  0  0  0  0  0  0  0  0  0  0  0
    2.4244   -0.1620   -0.6730 C   0  0  0  0  0  0  0  0  0  0  0  0
    1.2260   -1.8907   -0.0080 H   0  0  0  0  0  0  0  0  0  0  0  0
    2.8009    0.1192    1.7432 C   0  0  0  0  0  0  0  0  0  0  0  0
    3.2247    0.2734    0.3297 C   0  0  0  0  0  0  0  0  0  0  0  0
    3.5431    0.0002    2.5282 H   0  0  0  0  0  0  0  0  0  0  0  0
    4.1969    0.6970    0.0979 H   0  0  0  0  0  0  0  0  0  0  0  0
    1.3758   -5.9299   -4.9635 C   0  0  0  0  0  0  0  0  0  0  0  0
    2.3739   -6.5363   -4.6415 O   0  0  0  0  0  0  0  0  0  0  0  0
    0.5658   -6.2875   -5.9758 O   0  0  0  0  0  0  0  0  0  0  0  0
    0.9352   -7.0953   -6.3718 H   0  0  0  0  0  0  0  0  0  0  0  0
   -3.9619    2.3710   -0.8230 C   0  0  0  0  0  0  0  0  0  0  0  0
   -4.3525    2.2002   -1.9580 O   0  0  0  0  0  0  0  0  0  0  0  0
   -4.5667    3.1711    0.0741 O   0  0  0  0  0  0  0  0  0  0  0  0
   -5.3438    3.5610   -0.3617 H   0  0  0  0  0  0  0  0  0  0  0  0
    2.8137    0.0166   -2.0929 C   0  0  0  0  0  0  0  0  0  0  0  0
    2.0983   -0.2563   -3.0389 O   0  0  0  0  0  0  0  0  0  0  0  0
    4.0430    0.5448   -2.2318 O   0  0  0  0  0  0  0  0  0  0  0  0
    4.1984    0.6646   -3.1841 H   0  0  0  0  0  0  0  0  0  0  0  0
  1  2  2  0  0  0  0
  1  6  1  0  0  0  0
  2  3  1  0  0  0  0
  3  4  2  0  0  0  0
  4  9  1  0  0  0  0
  5  4  1  0  0  0  0
  5  8  1  0  0  0  0
  6  5  2  0  0  0  0
  7  1  1  0  0  0  0
 10  2  1  0  0  0  0
 10 23  1  0  0  0  0
 11 10  1  0  0  0  0
 12 14  1  0  0  0  0
 12 11  1  0  0  0  0
 13 12  2  0  0  0  0
 14 18  1  0  0  0  0
 15 19  2  0  0  0  0
 15 13  1  0  0  0  0
 16 13  1  0  0  0  0
 17 21  1  0  0  0  0
 17 14  2  0  0  0  0
 19 17  1  0  0  0  0
 20 15  1  0  0  0  0
 22  3  1  6  0  0  0
 22 24  1  0  0  0  0
 23 26  1  1  0  0  0
 23 22  1  0  0  0  0
 25 23  1  0  0  0  0
 25 28  2  0  0  0  0
 27 24  2  0  0  0  0
 27 29  1  0  0  0  0
 28 27  1  0  0  0  0
 30 28  1  0  0  0  0
 31 32  2  0  0  0  0
 31 19  1  0  0  0  0
 33 31  1  0  0  0  0
 34 33  1  0  0  0  0
 35  6  1  0  0  0  0
 35 37  1  0  0  0  0
 36 35  2  0  0  0  0
 38 37  1  0  0  0  0
 39 25  1  0  0  0  0
 40 39  2  0  0  0  0
 41 39  1  0  0  0  0
 42 41  1  0  0  0  0
M  RAD  3  11   2  22   2  24   2
M  END
