Coordinates from ORCA-job 1g-Schema5-R9-P1+-B3LYPG-6-31G_dp-scan-d49-09-n400
 OpenBabel08231810273D

 42 45  0  0  1  0  0  0  0  0999 V2000
   -1.9844    0.8420   -1.1444 C   0  0  0  0  0  0  0  0  0  0  0  0
   -0.8973    0.2404   -0.5245 C   0  0  0  0  0  0  0  0  0  0  0  0
   -0.5637    0.4857    0.8112 C   0  0  0  0  0  0  0  0  0  0  0  0
   -1.3259    1.3533    1.5858 C   0  0  0  0  0  0  0  0  0  0  0  0
   -2.4214    1.9717    0.9799 C   0  0  0  0  0  0  0  0  0  0  0  0
   -2.7459    1.7215   -0.3690 C   0  0  0  0  0  0  0  0  0  0  0  0
   -2.2464    0.6582   -2.1791 H   0  0  0  0  0  0  0  0  0  0  0  0
   -3.0396    2.6570    1.5482 H   0  0  0  0  0  0  0  0  0  0  0  0
   -1.0818    1.5372    2.6259 H   0  0  0  0  0  0  0  0  0  0  0  0
   -0.0175   -0.7244   -1.1094 N   0  0  0  0  0  0  0  0  0  0  0  0
   -0.4253   -1.3533   -2.1288 N   0  0  0  0  0  0  0  0  0  0  0  0
    0.1549   -2.4125   -2.7828 C   0  0  0  0  0  0  0  0  0  0  0  0
   -0.7394   -2.9605   -3.7415 C   0  0  0  0  0  0  0  0  0  0  0  0
    1.4353   -3.0095   -2.6120 C   0  0  0  0  0  0  0  0  0  0  0  0
   -0.3989   -4.0879   -4.4723 C   0  0  0  0  0  0  0  0  0  0  0  0
   -1.7018   -2.4780   -3.8688 H   0  0  0  0  0  0  0  0  0  0  0  0
    1.7626   -4.1318   -3.3474 C   0  0  0  0  0  0  0  0  0  0  0  0
    2.1826   -2.5827   -1.9627 H   0  0  0  0  0  0  0  0  0  0  0  0
    0.8536   -4.6807   -4.2708 C   0  0  0  0  0  0  0  0  0  0  0  0
   -1.0885   -4.5075   -5.1948 H   0  0  0  0  0  0  0  0  0  0  0  0
    2.7325   -4.6050   -3.2406 H   0  0  0  0  0  0  0  0  0  0  0  0
    0.7298   -0.3732    1.1127 C   0  0  1  0  0  0  0  0  0  0  0  0
    1.1794   -0.9383   -0.2171 C   0  0  2  0  0  0  0  0  0  0  0  0
    1.6923   -0.2663    2.0120 C   0  0  0  0  0  0  0  0  0  0  0  0
    2.4719   -0.0997   -0.5706 C   0  0  0  0  0  0  0  0  0  0  0  0
    1.4097   -2.0060   -0.2271 H   0  0  0  0  0  0  0  0  0  0  0  0
    2.9995   -0.1081    1.8377 C   0  0  0  0  0  0  0  0  0  0  0  0
    3.3022    0.2797    0.4347 C   0  0  0  0  0  0  0  0  0  0  0  0
    3.7979   -0.3511    2.5314 H   0  0  0  0  0  0  0  0  0  0  0  0
    4.2409    0.7656    0.1882 H   0  0  0  0  0  0  0  0  0  0  0  0
    1.2958   -5.9006   -5.0256 C   0  0  0  0  0  0  0  0  0  0  0  0
    2.3757   -6.4243   -4.8633 O   0  0  0  0  0  0  0  0  0  0  0  0
    0.3621   -6.3366   -5.8883 O   0  0  0  0  0  0  0  0  0  0  0  0
    0.7209   -7.1237   -6.3332 H   0  0  0  0  0  0  0  0  0  0  0  0
   -3.9150    2.3736   -1.0428 C   0  0  0  0  0  0  0  0  0  0  0  0
   -4.2190    2.1674   -2.1975 O   0  0  0  0  0  0  0  0  0  0  0  0
   -4.5833    3.2061   -0.2237 O   0  0  0  0  0  0  0  0  0  0  0  0
   -5.3216    3.5818   -0.7331 H   0  0  0  0  0  0  0  0  0  0  0  0
    2.7875    0.1989   -1.9866 C   0  0  0  0  0  0  0  0  0  0  0  0
    2.1054   -0.1690   -2.9271 O   0  0  0  0  0  0  0  0  0  0  0  0
    3.8991    0.9405   -2.1340 O   0  0  0  0  0  0  0  0  0  0  0  0
    4.0146    1.1008   -3.0861 H   0  0  0  0  0  0  0  0  0  0  0  0
  1  2  2  0  0  0  0
  1  6  1  0  0  0  0
  2  3  1  0  0  0  0
  3  4  2  0  0  0  0
  4  9  1  0  0  0  0
  5  8  1  0  0  0  0
  5  4  1  0  0  0  0
  6  5  2  0  0  0  0
  7  1  1  0  0  0  0
 10  2  1  0  0  0  0
 10 23  1  0  0  0  0
 11 10  1  0  0  0  0
 12 14  1  0  0  0  0
 12 11  1  0  0  0  0
 13 12  2  0  0  0  0
 14 18  1  0  0  0  0
 15 19  2  0  0  0  0
 15 13  1  0  0  0  0
 16 13  1  0  0  0  0
 17 21  1  0  0  0  0
 17 14  2  0  0  0  0
 19 17  1  0  0  0  0
 20 15  1  0  0  0  0
 22  3  1  6  0  0  0
 22 24  1  0  0  0  0
 23 26  1  1  0  0  0
 23 22  1  0  0  0  0
 25 23  1  0  0  0  0
 25 28  2  0  0  0  0
 27 24  1  0  0  0  0
 27 29  1  0  0  0  0
 28 27  1  0  0  0  0
 30 28  1  0  0  0  0
 31 32  2  0  0  0  0
 31 19  1  0  0  0  0
 33 31  1  0  0  0  0
 34 33  1  0  0  0  0
 35  6  1  0  0  0  0
 35 37  1  0  0  0  0
 36 35  2  0  0  0  0
 38 37  1  0  0  0  0
 39 25  1  0  0  0  0
 40 39  2  0  0  0  0
 41 39  1  0  0  0  0
 42 41  1  0  0  0  0
M  RAD  4  11   2  22   2  24   3  27   2
M  END
