Coordinates from ORCA-job 1g-Schema5-R9-P1+-B3LYPG-6-31G_dp-scan-d49-09-n400
 OpenBabel08231810273D

 42 45  0  0  1  0  0  0  0  0999 V2000
   -1.9733    0.6442   -1.0953 C   0  0  0  0  0  0  0  0  0  0  0  0
   -0.6728    0.2035   -0.9157 C   0  0  0  0  0  0  0  0  0  0  0  0
    0.2190    0.7015    0.0738 C   0  0  0  0  0  0  0  0  0  0  0  0
   -0.2208    1.7945    0.8371 C   0  0  0  0  0  0  0  0  0  0  0  0
   -1.5311    2.2426    0.6893 C   0  0  0  0  0  0  0  0  0  0  0  0
   -2.4039    1.6871   -0.2716 C   0  0  0  0  0  0  0  0  0  0  0  0
   -2.6445    0.2060   -1.8255 H   0  0  0  0  0  0  0  0  0  0  0  0
   -1.8895    3.0624    1.3021 H   0  0  0  0  0  0  0  0  0  0  0  0
    0.4471    2.2744    1.5446 H   0  0  0  0  0  0  0  0  0  0  0  0
   -0.0422   -0.9102   -1.5004 N   0  0  0  0  0  0  0  0  0  0  0  0
   -0.4795   -1.4996   -2.5257 N   0  0  0  0  0  0  0  0  0  0  0  0
    0.0309   -2.6937   -3.0041 C   0  0  0  0  0  0  0  0  0  0  0  0
   -0.1638   -2.8779   -4.3917 C   0  0  0  0  0  0  0  0  0  0  0  0
    0.6052   -3.7287   -2.2243 C   0  0  0  0  0  0  0  0  0  0  0  0
    0.2968   -4.0319   -5.0101 C   0  0  0  0  0  0  0  0  0  0  0  0
   -0.6497   -2.0897   -4.9561 H   0  0  0  0  0  0  0  0  0  0  0  0
    1.0211   -4.8917   -2.8481 C   0  0  0  0  0  0  0  0  0  0  0  0
    0.6393   -3.6609   -1.1428 H   0  0  0  0  0  0  0  0  0  0  0  0
    0.8926   -5.0403   -4.2403 C   0  0  0  0  0  0  0  0  0  0  0  0
    0.1780   -4.1677   -6.0784 H   0  0  0  0  0  0  0  0  0  0  0  0
    1.4387   -5.7148   -2.2784 H   0  0  0  0  0  0  0  0  0  0  0  0
    0.7216   -1.0784    0.7882 C   0  0  0  0  0  0  0  0  0  0  0  0
    1.1858   -1.1306   -0.6160 C   0  0  2  0  0  0  0  0  0  0  0  0
    1.5437   -1.0502    1.7507 C   0  0  0  0  0  0  0  0  0  0  0  0
    1.7001    0.3622   -0.3913 C   0  0  2  0  0  0  0  0  0  0  0  0
    1.8516   -1.9005   -0.9896 H   0  0  0  0  0  0  0  0  0  0  0  0
    2.5847   -0.0988    1.8849 C   0  0  0  0  0  0  0  0  0  0  0  0
    2.7149    0.5780    0.7012 C   0  0  0  0  0  0  0  0  0  0  0  0
    3.2602    0.0093    2.7254 H   0  0  0  0  0  0  0  0  0  0  0  0
    3.5075    1.2986    0.5261 H   0  0  0  0  0  0  0  0  0  0  0  0
    1.3839   -6.3235   -4.8414 C   0  0  0  0  0  0  0  0  0  0  0  0
    1.9005   -7.2058   -4.1918 O   0  0  0  0  0  0  0  0  0  0  0  0
    1.1876   -6.3765   -6.1708 O   0  0  0  0  0  0  0  0  0  0  0  0
    1.5285   -7.2330   -6.4808 H   0  0  0  0  0  0  0  0  0  0  0  0
   -3.8045    2.1728   -0.4631 C   0  0  0  0  0  0  0  0  0  0  0  0
   -4.5634    1.7125   -1.2884 O   0  0  0  0  0  0  0  0  0  0  0  0
   -4.1233    3.1723    0.3810 O   0  0  0  0  0  0  0  0  0  0  0  0
   -5.0426    3.4269    0.1920 H   0  0  0  0  0  0  0  0  0  0  0  0
    2.0674    1.0562   -1.7095 C   0  0  0  0  0  0  0  0  0  0  0  0
    2.0307    0.4953   -2.7803 O   0  0  0  0  0  0  0  0  0  0  0  0
    2.4180    2.3333   -1.5178 O   0  0  0  0  0  0  0  0  0  0  0  0
    2.6386    2.7213   -2.3839 H   0  0  0  0  0  0  0  0  0  0  0  0
  1  2  2  0  0  0  0
  1  6  1  0  0  0  0
  2  3  1  0  0  0  0
  3  4  2  0  0  0  0
  4  9  1  0  0  0  0
  5  4  1  0  0  0  0
  5  8  1  0  0  0  0
  6  5  2  0  0  0  0
  7  1  1  0  0  0  0
 10  2  1  0  0  0  0
 10 23  1  0  0  0  0
 11 10  1  0  0  0  0
 12 11  1  0  0  0  0
 12 14  2  0  0  0  0
 13 12  1  0  0  0  0
 14 18  1  0  0  0  0
 15 13  2  0  0  0  0
 15 19  1  0  0  0  0
 16 13  1  0  0  0  0
 17 21  1  0  0  0  0
 17 14  1  0  0  0  0
 19 17  2  0  0  0  0
 20 15  1  0  0  0  0
 22 24  1  0  0  0  0
 23 26  1  6  0  0  0
 23 25  1  0  0  0  0
 23 22  1  0  0  0  0
 24 27  2  0  0  0  0
 25 39  1  6  0  0  0
 25  3  1  0  0  0  0
 25 28  1  0  0  0  0
 27 29  1  0  0  0  0
 28 27  1  0  0  0  0
 30 28  1  0  0  0  0
 31 19  1  0  0  0  0
 31 32  2  0  0  0  0
 33 31  1  0  0  0  0
 34 33  1  0  0  0  0
 35  6  1  0  0  0  0
 35 37  1  0  0  0  0
 36 35  2  0  0  0  0
 38 37  1  0  0  0  0
 39 41  1  0  0  0  0
 40 39  2  0  0  0  0
 42 41  1  0  0  0  0
M  RAD  4  11   2  22   3  24   2  28   2
M  END
