Coordinates from ORCA-job 1g-Schema5-R9-P1+-B3LYPG-6-31G_dp-scan-d49-09-n400
 OpenBabel08231810273D

 42 45  0  0  1  0  0  0  0  0999 V2000
   -1.9852    0.6115   -1.0804 C   0  0  0  0  0  0  0  0  0  0  0  0
   -0.6549    0.2461   -0.9516 C   0  0  0  0  0  0  0  0  0  0  0  0
    0.2517    0.8682   -0.0790 C   0  0  0  0  0  0  0  0  0  0  0  0
   -0.1898    1.9487    0.6742 C   0  0  0  0  0  0  0  0  0  0  0  0
   -1.5338    2.3315    0.5828 C   0  0  0  0  0  0  0  0  0  0  0  0
   -2.4210    1.6817   -0.2927 C   0  0  0  0  0  0  0  0  0  0  0  0
   -2.6756    0.0926   -1.7357 H   0  0  0  0  0  0  0  0  0  0  0  0
   -1.9012    3.1576    1.1812 H   0  0  0  0  0  0  0  0  0  0  0  0
    0.4909    2.4866    1.3250 H   0  0  0  0  0  0  0  0  0  0  0  0
   -0.0087   -0.8701   -1.5311 N   0  0  0  0  0  0  0  0  0  0  0  0
   -0.4812   -1.4912   -2.5175 N   0  0  0  0  0  0  0  0  0  0  0  0
    0.0312   -2.6846   -3.0019 C   0  0  0  0  0  0  0  0  0  0  0  0
   -0.2512   -2.9035   -4.3689 C   0  0  0  0  0  0  0  0  0  0  0  0
    0.6838   -3.6867   -2.2414 C   0  0  0  0  0  0  0  0  0  0  0  0
    0.1934   -4.0603   -4.9935 C   0  0  0  0  0  0  0  0  0  0  0  0
   -0.7948   -2.1403   -4.9149 H   0  0  0  0  0  0  0  0  0  0  0  0
    1.0819   -4.8547   -2.8683 C   0  0  0  0  0  0  0  0  0  0  0  0
    0.7992   -3.5919   -1.1679 H   0  0  0  0  0  0  0  0  0  0  0  0
    0.8624   -5.0379   -4.2446 C   0  0  0  0  0  0  0  0  0  0  0  0
    0.0060   -4.2227   -6.0480 H   0  0  0  0  0  0  0  0  0  0  0  0
    1.5592   -5.6538   -2.3114 H   0  0  0  0  0  0  0  0  0  0  0  0
    0.8249   -1.3658    0.6983 C   0  0  0  0  0  0  0  0  0  0  0  0
    1.2347   -1.0870   -0.6771 C   0  0  2  0  0  0  0  0  0  0  0  0
    1.5363   -1.2035    1.6976 C   0  0  0  0  0  0  0  0  0  0  0  0
    1.6868    0.4066   -0.3576 C   0  0  2  0  0  0  0  0  0  0  0  0
    1.9415   -1.7435   -1.1785 H   0  0  0  0  0  0  0  0  0  0  0  0
    2.4773   -0.1556    1.9558 C   0  0  0  0  0  0  0  0  0  0  0  0
    2.6049    0.6116    0.8428 C   0  0  0  0  0  0  0  0  0  0  0  0
    3.0955   -0.0512    2.8393 H   0  0  0  0  0  0  0  0  0  0  0  0
    3.3431    1.4042    0.7742 H   0  0  0  0  0  0  0  0  0  0  0  0
    1.3423   -6.3232   -4.8510 C   0  0  0  0  0  0  0  0  0  0  0  0
    1.9188   -7.1809   -4.2196 O   0  0  0  0  0  0  0  0  0  0  0  0
    1.0611   -6.4081   -6.1635 O   0  0  0  0  0  0  0  0  0  0  0  0
    1.3996   -7.2639   -6.4781 H   0  0  0  0  0  0  0  0  0  0  0  0
   -3.8595    2.0800   -0.4232 C   0  0  0  0  0  0  0  0  0  0  0  0
   -4.6365    1.5296   -1.1718 O   0  0  0  0  0  0  0  0  0  0  0  0
   -4.1831    3.1087    0.3812 O   0  0  0  0  0  0  0  0  0  0  0  0
   -5.1249    3.3039    0.2376 H   0  0  0  0  0  0  0  0  0  0  0  0
    2.2140    1.0697   -1.6432 C   0  0  0  0  0  0  0  0  0  0  0  0
    2.1796    0.5212   -2.7209 O   0  0  0  0  0  0  0  0  0  0  0  0
    2.6828    2.3027   -1.4219 O   0  0  0  0  0  0  0  0  0  0  0  0
    2.9884    2.6685   -2.2716 H   0  0  0  0  0  0  0  0  0  0  0  0
  1  2  2  0  0  0  0
  1  6  1  0  0  0  0
  2  3  1  0  0  0  0
  3  4  2  0  0  0  0
  4  9  1  0  0  0  0
  5  4  1  0  0  0  0
  5  8  1  0  0  0  0
  6  5  2  0  0  0  0
  7  1  1  0  0  0  0
 10  2  1  0  0  0  0
 10 23  1  0  0  0  0
 11 10  1  0  0  0  0
 12 11  1  0  0  0  0
 12 14  2  0  0  0  0
 13 12  1  0  0  0  0
 14 18  1  0  0  0  0
 15 13  2  0  0  0  0
 15 19  1  0  0  0  0
 16 13  1  0  0  0  0
 17 21  1  0  0  0  0
 17 14  1  0  0  0  0
 19 17  2  0  0  0  0
 20 15  1  0  0  0  0
 22 24  1  0  0  0  0
 23 26  1  6  0  0  0
 23 25  1  0  0  0  0
 23 22  1  0  0  0  0
 24 27  2  0  0  0  0
 25 39  1  6  0  0  0
 25  3  1  0  0  0  0
 25 28  1  0  0  0  0
 27 29  1  0  0  0  0
 28 27  1  0  0  0  0
 30 28  1  0  0  0  0
 31 19  1  0  0  0  0
 31 32  2  0  0  0  0
 33 31  1  0  0  0  0
 34 33  1  0  0  0  0
 35  6  1  0  0  0  0
 35 37  1  0  0  0  0
 36 35  2  0  0  0  0
 38 37  1  0  0  0  0
 39 41  1  0  0  0  0
 40 39  2  0  0  0  0
 42 41  1  0  0  0  0
M  RAD  4  11   2  22   3  24   2  28   2
M  END
