Coordinates from ORCA-job 1g-Schema5-R9-P1+-B3LYPG-6-31G_dp-scan-d49-09-n400
 OpenBabel08231810273D

 42 43  0  0  0  0  0  0  0  0999 V2000
   -3.0321    0.4262   -1.2359 C   0  0  0  0  0  0  0  0  0  0  0  0
   -1.6752    0.1789   -0.8278 C   0  0  0  0  0  0  0  0  0  0  0  0
   -1.5485    1.0210    0.1939 C   0  0  0  0  0  0  0  0  0  0  0  0
   -2.1820    1.9488    0.9302 C   0  0  0  0  0  0  0  0  0  0  0  0
   -3.5012    2.1118    0.4466 C   0  0  0  0  0  0  0  0  0  0  0  0
   -3.9078    1.3312   -0.6503 C   0  0  0  0  0  0  0  0  0  0  0  0
   -3.3065   -0.2021   -2.0933 H   0  0  0  0  0  0  0  0  0  0  0  0
   -4.1636    2.8256    0.9246 H   0  0  0  0  0  0  0  0  0  0  0  0
   -1.7647    2.4973    1.7676 H   0  0  0  0  0  0  0  0  0  0  0  0
   -0.8285   -0.7567   -1.4636 N   0  0  0  0  0  0  0  0  0  0  0  0
   -1.3493   -1.3583   -2.4300 N   0  0  0  0  0  0  0  0  0  0  0  0
   -0.5931   -2.2957   -3.1227 C   0  0  0  0  0  0  0  0  0  0  0  0
   -1.2590   -2.9199   -4.1989 C   0  0  0  0  0  0  0  0  0  0  0  0
    0.7457   -2.6220   -2.8062 C   0  0  0  0  0  0  0  0  0  0  0  0
   -0.5914   -3.8688   -4.9608 C   0  0  0  0  0  0  0  0  0  0  0  0
   -2.2857   -2.6432   -4.4121 H   0  0  0  0  0  0  0  0  0  0  0  0
    1.3989   -3.5674   -3.5745 C   0  0  0  0  0  0  0  0  0  0  0  0
    1.2624   -2.1477   -1.9805 H   0  0  0  0  0  0  0  0  0  0  0  0
    0.7381   -4.1923   -4.6493 C   0  0  0  0  0  0  0  0  0  0  0  0
   -1.0851   -4.3578   -5.7914 H   0  0  0  0  0  0  0  0  0  0  0  0
    2.4257   -3.8363   -3.3564 H   0  0  0  0  0  0  0  0  0  0  0  0
    2.3962    0.9764    1.5081 C   0  0  0  0  0  0  0  0  0  0  0  0
    2.5529   -0.0897    0.6361 C   0  0  0  0  0  0  0  0  0  0  0  0
    3.3585    1.5735    2.0437 C   0  0  0  0  0  0  0  0  0  0  0  0
    3.9191   -0.4110    0.4255 C   0  0  0  0  0  0  0  0  0  0  0  0
    1.7736   -0.6560    0.1399 H   0  0  0  0  0  0  0  0  0  0  0  0
    4.7191    1.3782    1.9378 C   0  0  0  0  0  0  0  0  0  0  0  0
    4.9628    0.3003    1.0595 C   0  0  0  0  0  0  0  0  0  0  0  0
    5.5126    1.9273    2.4293 H   0  0  0  0  0  0  0  0  0  0  0  0
    5.9890    0.0060    0.8667 H   0  0  0  0  0  0  0  0  0  0  0  0
    1.5126   -5.2063   -5.4377 C   0  0  0  0  0  0  0  0  0  0  0  0
    2.6660   -5.4954   -5.2053 O   0  0  0  0  0  0  0  0  0  0  0  0
    0.7842   -5.7569   -6.4276 O   0  0  0  0  0  0  0  0  0  0  0  0
    1.3574   -6.3967   -6.8834 H   0  0  0  0  0  0  0  0  0  0  0  0
   -5.2836    1.4225   -1.2493 C   0  0  0  0  0  0  0  0  0  0  0  0
   -5.6365    0.7540   -2.1929 O   0  0  0  0  0  0  0  0  0  0  0  0
   -6.0461    2.3240   -0.6119 O   0  0  0  0  0  0  0  0  0  0  0  0
   -6.9174    2.3391   -1.0452 H   0  0  0  0  0  0  0  0  0  0  0  0
    4.2059   -1.5411   -0.5017 C   0  0  0  0  0  0  0  0  0  0  0  0
    3.3530   -2.1577   -1.1192 O   0  0  0  0  0  0  0  0  0  0  0  0
    5.5161   -1.8324   -0.6012 O   0  0  0  0  0  0  0  0  0  0  0  0
    5.5970   -2.5797   -1.2176 H   0  0  0  0  0  0  0  0  0  0  0  0
  1  2  2  0  0  0  0
  1  6  1  0  0  0  0
  2  3  1  0  0  0  0
  3  4  2  0  0  0  0
  4  9  1  0  0  0  0
  5  8  1  0  0  0  0
  5  4  1  0  0  0  0
  6  5  2  0  0  0  0
  7  1  1  0  0  0  0
 10  2  1  0  0  0  0
 11 10  1  0  0  0  0
 12 14  1  0  0  0  0
 12 11  1  0  0  0  0
 13 12  2  0  0  0  0
 14 18  1  0  0  0  0
 15 19  2  0  0  0  0
 15 13  1  0  0  0  0
 16 13  1  0  0  0  0
 17 21  1  0  0  0  0
 17 14  2  0  0  0  0
 19 17  1  0  0  0  0
 20 15  1  0  0  0  0
 22 24  2  0  0  0  0
 23 22  1  0  0  0  0
 25 23  2  0  0  0  0
 25 28  1  0  0  0  0
 26 23  1  0  0  0  0
 27 24  1  0  0  0  0
 27 29  1  0  0  0  0
 28 27  2  0  0  0  0
 30 28  1  0  0  0  0
 31 32  2  0  0  0  0
 31 19  1  0  0  0  0
 33 31  1  0  0  0  0
 34 33  1  0  0  0  0
 35  6  1  0  0  0  0
 35 37  1  0  0  0  0
 36 35  2  0  0  0  0
 38 37  1  0  0  0  0
 39 25  1  0  0  0  0
 40 39  2  0  0  0  0
 41 39  1  0  0  0  0
 42 41  1  0  0  0  0
M  RAD  5   3   2  10   2  11   2  22   2  24   2
M  END
