Coordinates from ORCA-job 1g-Schema5-R9-P1+-B3LYPG-6-31G_dp-scan-d49-09-n400
 OpenBabel08231810273D

 42 45  0  0  1  0  0  0  0  0999 V2000
   -1.9851    0.6076   -1.0796 C   0  0  0  0  0  0  0  0  0  0  0  0
   -0.6533    0.2467   -0.9507 C   0  0  0  0  0  0  0  0  0  0  0  0
    0.2528    0.8799   -0.0870 C   0  0  0  0  0  0  0  0  0  0  0  0
   -0.1904    1.9624    0.6619 C   0  0  0  0  0  0  0  0  0  0  0  0
   -1.5356    2.3415    0.5698 C   0  0  0  0  0  0  0  0  0  0  0  0
   -2.4222    1.6824   -0.2992 C   0  0  0  0  0  0  0  0  0  0  0  0
   -2.6753    0.0820   -1.7296 H   0  0  0  0  0  0  0  0  0  0  0  0
   -1.9045    3.1703    1.1635 H   0  0  0  0  0  0  0  0  0  0  0  0
    0.4895    2.5055    1.3092 H   0  0  0  0  0  0  0  0  0  0  0  0
   -0.0052   -0.8688   -1.5295 N   0  0  0  0  0  0  0  0  0  0  0  0
   -0.4819   -1.4940   -2.5115 N   0  0  0  0  0  0  0  0  0  0  0  0
    0.0312   -2.6861   -2.9979 C   0  0  0  0  0  0  0  0  0  0  0  0
   -0.2677   -2.9106   -4.3606 C   0  0  0  0  0  0  0  0  0  0  0  0
    0.6997   -3.6824   -2.2433 C   0  0  0  0  0  0  0  0  0  0  0  0
    0.1746   -4.0668   -4.9878 C   0  0  0  0  0  0  0  0  0  0  0  0
   -0.8227   -2.1518   -4.9015 H   0  0  0  0  0  0  0  0  0  0  0  0
    1.0956   -4.8500   -2.8724 C   0  0  0  0  0  0  0  0  0  0  0  0
    0.8301   -3.5839   -1.1721 H   0  0  0  0  0  0  0  0  0  0  0  0
    0.8585   -5.0386   -4.2450 C   0  0  0  0  0  0  0  0  0  0  0  0
   -0.0259   -4.2331   -6.0393 H   0  0  0  0  0  0  0  0  0  0  0  0
    1.5849   -5.6448   -2.3196 H   0  0  0  0  0  0  0  0  0  0  0  0
    0.8494   -1.4044    0.6852 C   0  0  0  0  0  0  0  0  0  0  0  0
    1.2439   -1.0834   -0.6844 C   0  0  2  0  0  0  0  0  0  0  0  0
    1.5504   -1.2302    1.6876 C   0  0  0  0  0  0  0  0  0  0  0  0
    1.6858    0.4105   -0.3509 C   0  0  2  0  0  0  0  0  0  0  0  0
    1.9551   -1.7206   -1.2050 H   0  0  0  0  0  0  0  0  0  0  0  0
    2.4737   -0.1700    1.9618 C   0  0  0  0  0  0  0  0  0  0  0  0
    2.5929    0.6128    0.8594 C   0  0  0  0  0  0  0  0  0  0  0  0
    3.0864   -0.0658    2.8491 H   0  0  0  0  0  0  0  0  0  0  0  0
    3.3180    1.4185    0.8057 H   0  0  0  0  0  0  0  0  0  0  0  0
    1.3370   -6.3232   -4.8541 C   0  0  0  0  0  0  0  0  0  0  0  0
    1.9262   -7.1761   -4.2279 O   0  0  0  0  0  0  0  0  0  0  0  0
    1.0392   -6.4132   -6.1626 O   0  0  0  0  0  0  0  0  0  0  0  0
    1.3778   -7.2682   -6.4791 H   0  0  0  0  0  0  0  0  0  0  0  0
   -3.8625    2.0752   -0.4294 C   0  0  0  0  0  0  0  0  0  0  0  0
   -4.6394    1.5168   -1.1721 O   0  0  0  0  0  0  0  0  0  0  0  0
   -4.1871    3.1095    0.3673 O   0  0  0  0  0  0  0  0  0  0  0  0
   -5.1298    3.3011    0.2242 H   0  0  0  0  0  0  0  0  0  0  0  0
    2.2258    1.0768   -1.6300 C   0  0  0  0  0  0  0  0  0  0  0  0
    2.1906    0.5355   -2.7113 O   0  0  0  0  0  0  0  0  0  0  0  0
    2.6993    2.3066   -1.4007 O   0  0  0  0  0  0  0  0  0  0  0  0
    3.0096    2.6754   -2.2474 H   0  0  0  0  0  0  0  0  0  0  0  0
  1  2  2  0  0  0  0
  1  6  1  0  0  0  0
  2  3  1  0  0  0  0
  3  4  2  0  0  0  0
  4  9  1  0  0  0  0
  5  4  1  0  0  0  0
  5  8  1  0  0  0  0
  6  5  2  0  0  0  0
  7  1  1  0  0  0  0
 10  2  1  0  0  0  0
 10 23  1  0  0  0  0
 11 10  1  0  0  0  0
 12 11  1  0  0  0  0
 12 14  2  0  0  0  0
 13 12  1  0  0  0  0
 14 18  1  0  0  0  0
 15 13  2  0  0  0  0
 15 19  1  0  0  0  0
 16 13  1  0  0  0  0
 17 21  1  0  0  0  0
 17 14  1  0  0  0  0
 19 17  2  0  0  0  0
 20 15  1  0  0  0  0
 22 24  1  0  0  0  0
 23 26  1  6  0  0  0
 23 25  1  0  0  0  0
 23 22  1  0  0  0  0
 24 27  2  0  0  0  0
 25 39  1  6  0  0  0
 25  3  1  0  0  0  0
 25 28  1  0  0  0  0
 27 29  1  0  0  0  0
 28 27  1  0  0  0  0
 30 28  1  0  0  0  0
 31 19  1  0  0  0  0
 31 32  2  0  0  0  0
 33 31  1  0  0  0  0
 34 33  1  0  0  0  0
 35  6  1  0  0  0  0
 35 37  1  0  0  0  0
 36 35  2  0  0  0  0
 38 37  1  0  0  0  0
 39 41  1  0  0  0  0
 40 39  2  0  0  0  0
 42 41  1  0  0  0  0
M  RAD  4  11   2  22   3  24   2  28   2
M  END
