Coordinates from ORCA-job 1g-Schema5-R9-P1+-B3LYPG-6-31G_dp-scan-d49-09-n400
 OpenBabel08231810273D

 42 45  0  0  1  0  0  0  0  0999 V2000
   -1.9541    0.5295   -1.1048 C   0  0  0  0  0  0  0  0  0  0  0  0
   -0.6113    0.2283   -0.9021 C   0  0  0  0  0  0  0  0  0  0  0  0
    0.2538    1.0382   -0.1623 C   0  0  0  0  0  0  0  0  0  0  0  0
   -0.2352    2.2124    0.4028 C   0  0  0  0  0  0  0  0  0  0  0  0
   -1.5827    2.5357    0.2224 C   0  0  0  0  0  0  0  0  0  0  0  0
   -2.4359    1.7034   -0.5261 C   0  0  0  0  0  0  0  0  0  0  0  0
   -2.6135   -0.1127   -1.6763 H   0  0  0  0  0  0  0  0  0  0  0  0
   -1.9844    3.4420    0.6603 H   0  0  0  0  0  0  0  0  0  0  0  0
    0.4141    2.8724    0.9664 H   0  0  0  0  0  0  0  0  0  0  0  0
    0.0710   -0.9076   -1.4027 N   0  0  0  0  0  0  0  0  0  0  0  0
   -0.4858   -1.6551   -2.2547 N   0  0  0  0  0  0  0  0  0  0  0  0
    0.0342   -2.7964   -2.8279 C   0  0  0  0  0  0  0  0  0  0  0  0
   -0.7504   -3.2209   -3.9325 C   0  0  0  0  0  0  0  0  0  0  0  0
    1.1722   -3.5592   -2.4464 C   0  0  0  0  0  0  0  0  0  0  0  0
   -0.3901   -4.3367   -4.6702 C   0  0  0  0  0  0  0  0  0  0  0  0
   -1.6286   -2.6380   -4.1872 H   0  0  0  0  0  0  0  0  0  0  0  0
    1.5040   -4.6855   -3.1777 C   0  0  0  0  0  0  0  0  0  0  0  0
    1.7516   -3.3215   -1.5661 H   0  0  0  0  0  0  0  0  0  0  0  0
    0.7422   -5.0718   -4.2939 C   0  0  0  0  0  0  0  0  0  0  0  0
   -0.9805   -4.6493   -5.5229 H   0  0  0  0  0  0  0  0  0  0  0  0
    2.3578   -5.2952   -2.9021 H   0  0  0  0  0  0  0  0  0  0  0  0
    1.5267   -1.9401    0.3292 C   0  0  0  0  0  0  0  0  0  0  0  0
    1.4582   -0.9847   -0.7821 C   0  0  2  0  0  0  0  0  0  0  0  0
    2.0484   -1.6996    1.4107 C   0  0  0  0  0  0  0  0  0  0  0  0
    1.6764    0.4806   -0.1608 C   0  0  2  0  0  0  0  0  0  0  0  0
    2.1529   -1.1698   -1.6058 H   0  0  0  0  0  0  0  0  0  0  0  0
    2.4764   -0.4997    2.0637 C   0  0  0  0  0  0  0  0  0  0  0  0
    2.3038    0.5585    1.2370 C   0  0  0  0  0  0  0  0  0  0  0  0
    2.9275   -0.4255    3.0448 H   0  0  0  0  0  0  0  0  0  0  0  0
    2.6218    1.5482    1.5485 H   0  0  0  0  0  0  0  0  0  0  0  0
    1.1851   -6.2991   -5.0363 C   0  0  0  0  0  0  0  0  0  0  0  0
    2.1565   -6.9496   -4.7218 O   0  0  0  0  0  0  0  0  0  0  0  0
    0.3847   -6.5840   -6.0783 O   0  0  0  0  0  0  0  0  0  0  0  0
    0.7334   -7.3868   -6.5026 H   0  0  0  0  0  0  0  0  0  0  0  0
   -3.8851    2.0220   -0.7403 C   0  0  0  0  0  0  0  0  0  0  0  0
   -4.6335    1.3192   -1.3828 O   0  0  0  0  0  0  0  0  0  0  0  0
   -4.2516    3.1705   -0.1432 O   0  0  0  0  0  0  0  0  0  0  0  0
   -5.1962    3.3064   -0.3306 H   0  0  0  0  0  0  0  0  0  0  0  0
    2.5046    1.2969   -1.1863 C   0  0  0  0  0  0  0  0  0  0  0  0
    2.7747    0.8992   -2.2945 O   0  0  0  0  0  0  0  0  0  0  0  0
    2.8417    2.5006   -0.7042 O   0  0  0  0  0  0  0  0  0  0  0  0
    3.3346    2.9756   -1.3971 H   0  0  0  0  0  0  0  0  0  0  0  0
  1  2  2  0  0  0  0
  1  6  1  0  0  0  0
  2  3  1  0  0  0  0
  3 25  1  0  0  0  0
  3  4  2  0  0  0  0
  4  9  1  0  0  0  0
  5  4  1  0  0  0  0
  5  8  1  0  0  0  0
  6  5  2  0  0  0  0
  7  1  1  0  0  0  0
 10  2  1  0  0  0  0
 10 23  1  0  0  0  0
 11 10  1  0  0  0  0
 12 14  1  0  0  0  0
 12 11  1  0  0  0  0
 13 12  2  0  0  0  0
 14 18  1  0  0  0  0
 15 19  2  0  0  0  0
 15 13  1  0  0  0  0
 16 13  1  0  0  0  0
 17 21  1  0  0  0  0
 17 14  2  0  0  0  0
 19 17  1  0  0  0  0
 20 15  1  0  0  0  0
 22 24  2  0  0  0  0
 23 26  1  6  0  0  0
 23 25  1  0  0  0  0
 23 22  1  0  0  0  0
 24 27  1  0  0  0  0
 25 39  1  6  0  0  0
 25 28  1  0  0  0  0
 27 29  1  0  0  0  0
 28 30  1  0  0  0  0
 28 27  2  0  0  0  0
 31 32  2  0  0  0  0
 31 19  1  0  0  0  0
 33 31  1  0  0  0  0
 34 33  1  0  0  0  0
 35  6  1  0  0  0  0
 35 37  1  0  0  0  0
 36 35  2  0  0  0  0
 38 37  1  0  0  0  0
 39 41  1  0  0  0  0
 40 39  2  0  0  0  0
 42 41  1  0  0  0  0
M  RAD  3  11   2  22   2  24   2
M  END
