Coordinates from ORCA-job 1g-Schema5-R9-P1+-B3LYPG-6-31G_dp-scan-d49-09-n400
 OpenBabel08231810273D

 42 45  0  0  1  0  0  0  0  0999 V2000
   -1.9803    0.5734   -1.0779 C   0  0  0  0  0  0  0  0  0  0  0  0
   -0.6415    0.2387   -0.9247 C   0  0  0  0  0  0  0  0  0  0  0  0
    0.2514    0.9563   -0.1219 C   0  0  0  0  0  0  0  0  0  0  0  0
   -0.2093    2.0764    0.5601 C   0  0  0  0  0  0  0  0  0  0  0  0
   -1.5569    2.4321    0.4371 C   0  0  0  0  0  0  0  0  0  0  0  0
   -2.4331    1.6947   -0.3795 C   0  0  0  0  0  0  0  0  0  0  0  0
   -2.6610   -0.0058   -1.6911 H   0  0  0  0  0  0  0  0  0  0  0  0
   -1.9390    3.2949    0.9704 H   0  0  0  0  0  0  0  0  0  0  0  0
    0.4598    2.6686    1.1746 H   0  0  0  0  0  0  0  0  0  0  0  0
    0.0213   -0.8804   -1.4798 N   0  0  0  0  0  0  0  0  0  0  0  0
   -0.4907   -1.5497   -2.4170 N   0  0  0  0  0  0  0  0  0  0  0  0
    0.0275   -2.7241   -2.9324 C   0  0  0  0  0  0  0  0  0  0  0  0
   -0.4584   -3.0074   -4.2316 C   0  0  0  0  0  0  0  0  0  0  0  0
    0.8808   -3.6515   -2.2794 C   0  0  0  0  0  0  0  0  0  0  0  0
   -0.0402   -4.1469   -4.9022 C   0  0  0  0  0  0  0  0  0  0  0  0
   -1.1440   -2.3030   -4.6899 H   0  0  0  0  0  0  0  0  0  0  0  0
    1.2571   -4.8038   -2.9467 C   0  0  0  0  0  0  0  0  0  0  0  0
    1.1799   -3.5165   -1.2483 H   0  0  0  0  0  0  0  0  0  0  0  0
    0.8206   -5.0479   -4.2605 C   0  0  0  0  0  0  0  0  0  0  0  0
   -0.3893   -4.3550   -5.9060 H   0  0  0  0  0  0  0  0  0  0  0  0
    1.8888   -5.5445   -2.4679 H   0  0  0  0  0  0  0  0  0  0  0  0
    1.1067   -1.7004    0.5678 C   0  0  0  0  0  0  0  0  0  0  0  0
    1.3283   -1.0549   -0.7237 C   0  0  2  0  0  0  0  0  0  0  0  0
    1.7353   -1.4600    1.5946 C   0  0  0  0  0  0  0  0  0  0  0  0
    1.6767    0.4381   -0.2747 C   0  0  2  0  0  0  0  0  0  0  0  0
    2.0556   -1.5126   -1.3943 H   0  0  0  0  0  0  0  0  0  0  0  0
    2.4778   -0.3074    2.0117 C   0  0  0  0  0  0  0  0  0  0  0  0
    2.4877    0.6079    1.0125 C   0  0  0  0  0  0  0  0  0  0  0  0
    3.0415   -0.2038    2.9304 H   0  0  0  0  0  0  0  0  0  0  0  0
    3.0688    1.5205    1.0970 H   0  0  0  0  0  0  0  0  0  0  0  0
    1.2912   -6.3125   -4.9164 C   0  0  0  0  0  0  0  0  0  0  0  0
    2.0322   -7.1041   -4.3772 O   0  0  0  0  0  0  0  0  0  0  0  0
    0.7997   -6.4590   -6.1596 O   0  0  0  0  0  0  0  0  0  0  0  0
    1.1457   -7.2967   -6.5122 H   0  0  0  0  0  0  0  0  0  0  0  0
   -3.8798    2.0549   -0.5369 C   0  0  0  0  0  0  0  0  0  0  0  0
   -4.6489    1.4296   -1.2329 O   0  0  0  0  0  0  0  0  0  0  0  0
   -4.2184    3.1436    0.1769 O   0  0  0  0  0  0  0  0  0  0  0  0
   -5.1637    3.3106    0.0207 H   0  0  0  0  0  0  0  0  0  0  0  0
    2.3177    1.1542   -1.4827 C   0  0  0  0  0  0  0  0  0  0  0  0
    2.3452    0.6690   -2.5901 O   0  0  0  0  0  0  0  0  0  0  0  0
    2.7899    2.3649   -1.1632 O   0  0  0  0  0  0  0  0  0  0  0  0
    3.1566    2.7697   -1.9698 H   0  0  0  0  0  0  0  0  0  0  0  0
  1  2  2  0  0  0  0
  1  6  1  0  0  0  0
  2  3  1  0  0  0  0
  3  4  2  0  0  0  0
  4  9  1  0  0  0  0
  5  4  1  0  0  0  0
  5  8  1  0  0  0  0
  6  5  2  0  0  0  0
  7  1  1  0  0  0  0
 10  2  1  0  0  0  0
 10 23  1  0  0  0  0
 11 10  1  0  0  0  0
 12 11  1  0  0  0  0
 12 14  1  0  0  0  0
 13 12  2  0  0  0  0
 14 18  1  0  0  0  0
 15 19  2  0  0  0  0
 15 13  1  0  0  0  0
 16 13  1  0  0  0  0
 17 21  1  0  0  0  0
 17 14  2  0  0  0  0
 19 17  1  0  0  0  0
 20 15  1  0  0  0  0
 22 24  1  0  0  0  0
 23 26  1  6  0  0  0
 23 25  1  0  0  0  0
 23 22  1  0  0  0  0
 24 27  2  0  0  0  0
 25 39  1  6  0  0  0
 25  3  1  0  0  0  0
 25 28  1  0  0  0  0
 27 29  1  0  0  0  0
 28 30  1  0  0  0  0
 28 27  1  0  0  0  0
 31 32  2  0  0  0  0
 31 19  1  0  0  0  0
 33 31  1  0  0  0  0
 34 33  1  0  0  0  0
 35  6  1  0  0  0  0
 35 37  1  0  0  0  0
 36 35  2  0  0  0  0
 38 37  1  0  0  0  0
 39 41  1  0  0  0  0
 40 39  2  0  0  0  0
 42 41  1  0  0  0  0
M  RAD  4  11   2  22   3  24   2  28   2
M  END
