Coordinates from ORCA-job 1g-Schema5-R9-P1+-B3LYPG-6-31G_dp-scan-d49-09-n400
 OpenBabel08231810273D

 42 45  0  0  1  0  0  0  0  0999 V2000
   -2.0281    0.8410   -1.1303 C   0  0  0  0  0  0  0  0  0  0  0  0
   -0.9081    0.2470   -0.5745 C   0  0  0  0  0  0  0  0  0  0  0  0
   -0.4497    0.4775    0.7552 C   0  0  0  0  0  0  0  0  0  0  0  0
   -1.2240    1.3515    1.5593 C   0  0  0  0  0  0  0  0  0  0  0  0
   -2.3466    1.9596    1.0214 C   0  0  0  0  0  0  0  0  0  0  0  0
   -2.7488    1.7148   -0.3133 C   0  0  0  0  0  0  0  0  0  0  0  0
   -2.3467    0.6524   -2.1482 H   0  0  0  0  0  0  0  0  0  0  0  0
   -2.9401    2.6344    1.6273 H   0  0  0  0  0  0  0  0  0  0  0  0
   -0.9385    1.5226    2.5918 H   0  0  0  0  0  0  0  0  0  0  0  0
   -0.0451   -0.7035   -1.1781 N   0  0  0  0  0  0  0  0  0  0  0  0
   -0.4382   -1.3261   -2.2114 N   0  0  0  0  0  0  0  0  0  0  0  0
    0.1501   -2.3977   -2.8325 C   0  0  0  0  0  0  0  0  0  0  0  0
   -0.6847   -2.9104   -3.8619 C   0  0  0  0  0  0  0  0  0  0  0  0
    1.3880   -3.0448   -2.5602 C   0  0  0  0  0  0  0  0  0  0  0  0
   -0.3259   -4.0452   -4.5715 C   0  0  0  0  0  0  0  0  0  0  0  0
   -1.6167   -2.3938   -4.0612 H   0  0  0  0  0  0  0  0  0  0  0  0
    1.7308   -4.1784   -3.2698 C   0  0  0  0  0  0  0  0  0  0  0  0
    2.0906   -2.6542   -1.8410 H   0  0  0  0  0  0  0  0  0  0  0  0
    0.8822   -4.6869   -4.2711 C   0  0  0  0  0  0  0  0  0  0  0  0
   -0.9685   -4.4360   -5.3512 H   0  0  0  0  0  0  0  0  0  0  0  0
    2.6676   -4.6917   -3.0832 H   0  0  0  0  0  0  0  0  0  0  0  0
    0.6040   -0.1523    0.9955 C   0  0  1  0  0  0  0  0  0  0  0  0
    1.1259   -0.8799   -0.2486 C   0  0  2  0  0  0  0  0  0  0  0  0
    1.5589   -0.0753    1.9542 C   0  0  0  0  0  0  0  0  0  0  0  0
    2.4522   -0.1236   -0.6177 C   0  0  0  0  0  0  0  0  0  0  0  0
    1.3122   -1.9496   -0.1226 H   0  0  0  0  0  0  0  0  0  0  0  0
    2.8745   -0.0065    1.8012 C   0  0  0  0  0  0  0  0  0  0  0  0
    3.2583    0.2833    0.3953 C   0  0  0  0  0  0  0  0  0  0  0  0
    3.6326   -0.2418    2.5426 H   0  0  0  0  0  0  0  0  0  0  0  0
    4.2185    0.7333    0.1638 H   0  0  0  0  0  0  0  0  0  0  0  0
    1.3384   -5.9198   -4.9950 C   0  0  0  0  0  0  0  0  0  0  0  0
    2.3802   -6.4859   -4.7480 O   0  0  0  0  0  0  0  0  0  0  0  0
    0.4635   -6.3160   -5.9354 O   0  0  0  0  0  0  0  0  0  0  0  0
    0.8276   -7.1147   -6.3543 H   0  0  0  0  0  0  0  0  0  0  0  0
   -3.9581    2.3606   -0.9156 C   0  0  0  0  0  0  0  0  0  0  0  0
   -4.3244    2.1577   -2.0528 O   0  0  0  0  0  0  0  0  0  0  0  0
   -4.5848    3.1833   -0.0550 O   0  0  0  0  0  0  0  0  0  0  0  0
   -5.3529    3.5577   -0.5194 H   0  0  0  0  0  0  0  0  0  0  0  0
    2.8181    0.1042   -2.0350 C   0  0  0  0  0  0  0  0  0  0  0  0
    2.1312   -0.2402   -2.9802 O   0  0  0  0  0  0  0  0  0  0  0  0
    3.9846    0.7579   -2.1764 O   0  0  0  0  0  0  0  0  0  0  0  0
    4.1291    0.8865   -3.1294 H   0  0  0  0  0  0  0  0  0  0  0  0
  1  2  2  0  0  0  0
  1  6  1  0  0  0  0
  2  3  1  0  0  0  0
  3  4  2  0  0  0  0
  4  9  1  0  0  0  0
  5  4  1  0  0  0  0
  5  8  1  0  0  0  0
  6  5  2  0  0  0  0
  7  1  1  0  0  0  0
 10  2  1  0  0  0  0
 10 23  1  0  0  0  0
 11 10  1  0  0  0  0
 12 14  1  0  0  0  0
 12 11  1  0  0  0  0
 13 12  2  0  0  0  0
 14 18  1  0  0  0  0
 15 19  2  0  0  0  0
 15 13  1  0  0  0  0
 16 13  1  0  0  0  0
 17 21  1  0  0  0  0
 17 14  2  0  0  0  0
 19 17  1  0  0  0  0
 20 15  1  0  0  0  0
 22  3  1  6  0  0  0
 22 24  1  0  0  0  0
 23 26  1  1  0  0  0
 23 22  1  0  0  0  0
 25 23  1  0  0  0  0
 25 28  2  0  0  0  0
 27 24  2  0  0  0  0
 27 29  1  0  0  0  0
 28 27  1  0  0  0  0
 30 28  1  0  0  0  0
 31 32  2  0  0  0  0
 31 19  1  0  0  0  0
 33 31  1  0  0  0  0
 34 33  1  0  0  0  0
 35  6  1  0  0  0  0
 35 37  1  0  0  0  0
 36 35  2  0  0  0  0
 38 37  1  0  0  0  0
 39 25  1  0  0  0  0
 40 39  2  0  0  0  0
 41 39  1  0  0  0  0
 42 41  1  0  0  0  0
M  RAD  3  11   2  22   2  24   2
M  END
