Coordinates from ORCA-job 1g-Schema5-R9-P1+-B3LYPG-6-31G_dp-scan-d49-09-n400
 OpenBabel08231810273D

 42 45  0  0  1  0  0  0  0  0999 V2000
   -1.9850    0.6123   -1.0805 C   0  0  0  0  0  0  0  0  0  0  0  0
   -0.6551    0.2459   -0.9517 C   0  0  0  0  0  0  0  0  0  0  0  0
    0.2516    0.8655   -0.0771 C   0  0  0  0  0  0  0  0  0  0  0  0
   -0.1894    1.9457    0.6769 C   0  0  0  0  0  0  0  0  0  0  0  0
   -1.5332    2.3295    0.5854 C   0  0  0  0  0  0  0  0  0  0  0  0
   -2.4204    1.6817   -0.2915 C   0  0  0  0  0  0  0  0  0  0  0  0
   -2.6755    0.0950   -1.7370 H   0  0  0  0  0  0  0  0  0  0  0  0
   -1.9002    3.1552    1.1847 H   0  0  0  0  0  0  0  0  0  0  0  0
    0.4914    2.4825    1.3285 H   0  0  0  0  0  0  0  0  0  0  0  0
   -0.0093   -0.8705   -1.5313 N   0  0  0  0  0  0  0  0  0  0  0  0
   -0.4810   -1.4908   -2.5186 N   0  0  0  0  0  0  0  0  0  0  0  0
    0.0313   -2.6844   -3.0027 C   0  0  0  0  0  0  0  0  0  0  0  0
   -0.2484   -2.9025   -4.3703 C   0  0  0  0  0  0  0  0  0  0  0  0
    0.6814   -3.6872   -2.2411 C   0  0  0  0  0  0  0  0  0  0  0  0
    0.1967   -4.0594   -4.9944 C   0  0  0  0  0  0  0  0  0  0  0  0
   -0.7902   -2.1386   -4.9172 H   0  0  0  0  0  0  0  0  0  0  0  0
    1.0800   -4.8553   -2.8677 C   0  0  0  0  0  0  0  0  0  0  0  0
    0.7944   -3.5930   -1.1674 H   0  0  0  0  0  0  0  0  0  0  0  0
    0.8633   -5.0378   -4.2445 C   0  0  0  0  0  0  0  0  0  0  0  0
    0.0114   -4.2211   -6.0494 H   0  0  0  0  0  0  0  0  0  0  0  0
    1.5554   -5.6551   -2.3101 H   0  0  0  0  0  0  0  0  0  0  0  0
    0.8201   -1.3585    0.7009 C   0  0  0  0  0  0  0  0  0  0  0  0
    1.2329   -1.0881   -0.6755 C   0  0  2  0  0  0  0  0  0  0  0  0
    1.5335   -1.1987    1.6996 C   0  0  0  0  0  0  0  0  0  0  0  0
    1.6871    0.4053   -0.3586 C   0  0  2  0  0  0  0  0  0  0  0  0
    1.9387   -1.7483   -1.1732 H   0  0  0  0  0  0  0  0  0  0  0  0
    2.4780   -0.1535    1.9549 C   0  0  0  0  0  0  0  0  0  0  0  0
    2.6074    0.6107    0.8398 C   0  0  0  0  0  0  0  0  0  0  0  0
    3.0973   -0.0491    2.8377 H   0  0  0  0  0  0  0  0  0  0  0  0
    3.3481    1.4007    0.7684 H   0  0  0  0  0  0  0  0  0  0  0  0
    1.3435   -6.3231   -4.8505 C   0  0  0  0  0  0  0  0  0  0  0  0
    1.9182   -7.1815   -4.2182 O   0  0  0  0  0  0  0  0  0  0  0  0
    1.0652   -6.4072   -6.1636 O   0  0  0  0  0  0  0  0  0  0  0  0
    1.4037   -7.2632   -6.4779 H   0  0  0  0  0  0  0  0  0  0  0  0
   -3.8585    2.0813   -0.4222 C   0  0  0  0  0  0  0  0  0  0  0  0
   -4.6354    1.5331   -1.1726 O   0  0  0  0  0  0  0  0  0  0  0  0
   -4.1816    3.1094    0.3831 O   0  0  0  0  0  0  0  0  0  0  0  0
   -5.1231    3.3060    0.2389 H   0  0  0  0  0  0  0  0  0  0  0  0
    2.2119    1.0678   -1.6454 C   0  0  0  0  0  0  0  0  0  0  0  0
    2.1758    0.5189   -2.7228 O   0  0  0  0  0  0  0  0  0  0  0  0
    2.6773    2.3026   -1.4261 O   0  0  0  0  0  0  0  0  0  0  0  0
    2.9802    2.6684   -2.2768 H   0  0  0  0  0  0  0  0  0  0  0  0
  1  2  2  0  0  0  0
  1  6  1  0  0  0  0
  2  3  1  0  0  0  0
  3  4  2  0  0  0  0
  4  9  1  0  0  0  0
  5  4  1  0  0  0  0
  5  8  1  0  0  0  0
  6  5  2  0  0  0  0
  7  1  1  0  0  0  0
 10  2  1  0  0  0  0
 10 23  1  0  0  0  0
 11 10  1  0  0  0  0
 12 11  1  0  0  0  0
 12 14  2  0  0  0  0
 13 12  1  0  0  0  0
 14 18  1  0  0  0  0
 15 13  2  0  0  0  0
 15 19  1  0  0  0  0
 16 13  1  0  0  0  0
 17 21  1  0  0  0  0
 17 14  1  0  0  0  0
 19 17  2  0  0  0  0
 20 15  1  0  0  0  0
 22 24  1  0  0  0  0
 23 26  1  6  0  0  0
 23 25  1  0  0  0  0
 23 22  1  0  0  0  0
 24 27  2  0  0  0  0
 25 39  1  6  0  0  0
 25  3  1  0  0  0  0
 25 28  1  0  0  0  0
 27 29  1  0  0  0  0
 28 27  1  0  0  0  0
 30 28  1  0  0  0  0
 31 19  1  0  0  0  0
 31 32  2  0  0  0  0
 33 31  1  0  0  0  0
 34 33  1  0  0  0  0
 35  6  1  0  0  0  0
 35 37  1  0  0  0  0
 36 35  2  0  0  0  0
 38 37  1  0  0  0  0
 39 41  1  0  0  0  0
 40 39  2  0  0  0  0
 42 41  1  0  0  0  0
M  RAD  4  11   2  22   3  24   2  28   2
M  END
