Coordinates from ORCA-job 1g-Schema5-R9-P1+-B3LYPG-6-31G_dp-scan-d49-09-n400
 OpenBabel08231810273D

 42 43  0  0  0  0  0  0  0  0999 V2000
   -3.0782    0.4292   -1.2469 C   0  0  0  0  0  0  0  0  0  0  0  0
   -1.7252    0.1854   -0.8233 C   0  0  0  0  0  0  0  0  0  0  0  0
   -1.6160    1.0227    0.2040 C   0  0  0  0  0  0  0  0  0  0  0  0
   -2.2629    1.9438    0.9372 C   0  0  0  0  0  0  0  0  0  0  0  0
   -3.5764    2.1041    0.4376 C   0  0  0  0  0  0  0  0  0  0  0  0
   -3.9655    1.3272   -0.6683 C   0  0  0  0  0  0  0  0  0  0  0  0
   -3.3387   -0.1969   -2.1104 H   0  0  0  0  0  0  0  0  0  0  0  0
   -4.2477    2.8130    0.9106 H   0  0  0  0  0  0  0  0  0  0  0  0
   -1.8591    2.4898    1.7829 H   0  0  0  0  0  0  0  0  0  0  0  0
   -0.8676   -0.7432   -1.4540 N   0  0  0  0  0  0  0  0  0  0  0  0
   -1.3759   -1.3471   -2.4254 N   0  0  0  0  0  0  0  0  0  0  0  0
   -0.6080   -2.2784   -3.1130 C   0  0  0  0  0  0  0  0  0  0  0  0
   -1.2627   -2.9107   -4.1914 C   0  0  0  0  0  0  0  0  0  0  0  0
    0.7317   -2.5924   -2.7882 C   0  0  0  0  0  0  0  0  0  0  0  0
   -0.5829   -3.8563   -4.9464 C   0  0  0  0  0  0  0  0  0  0  0  0
   -2.2905   -2.6435   -4.4113 H   0  0  0  0  0  0  0  0  0  0  0  0
    1.3971   -3.5348   -3.5498 C   0  0  0  0  0  0  0  0  0  0  0  0
    1.2402   -2.1107   -1.9617 H   0  0  0  0  0  0  0  0  0  0  0  0
    0.7474   -4.1683   -4.6261 C   0  0  0  0  0  0  0  0  0  0  0  0
   -1.0678   -4.3520   -5.7783 H   0  0  0  0  0  0  0  0  0  0  0  0
    2.4248   -3.7937   -3.3241 H   0  0  0  0  0  0  0  0  0  0  0  0
    2.5059    1.0018    1.5254 C   0  0  0  0  0  0  0  0  0  0  0  0
    2.6170   -0.0671    0.6513 C   0  0  0  0  0  0  0  0  0  0  0  0
    3.4893    1.5736    2.0491 C   0  0  0  0  0  0  0  0  0  0  0  0
    3.9708   -0.4269    0.4212 C   0  0  0  0  0  0  0  0  0  0  0  0
    1.8146   -0.6112    0.1670 H   0  0  0  0  0  0  0  0  0  0  0  0
    4.8423    1.3380    1.9222 C   0  0  0  0  0  0  0  0  0  0  0  0
    5.0431    0.2546    1.0404 C   0  0  0  0  0  0  0  0  0  0  0  0
    5.6584    1.8646    2.4013 H   0  0  0  0  0  0  0  0  0  0  0  0
    6.0577   -0.0678    0.8316 H   0  0  0  0  0  0  0  0  0  0  0  0
    1.5344   -5.1785   -5.4070 C   0  0  0  0  0  0  0  0  0  0  0  0
    2.6890   -5.4571   -5.1676 O   0  0  0  0  0  0  0  0  0  0  0  0
    0.8159   -5.7385   -6.3989 O   0  0  0  0  0  0  0  0  0  0  0  0
    1.3968   -6.3751   -6.8494 H   0  0  0  0  0  0  0  0  0  0  0  0
   -5.3340    1.4151   -1.2844 C   0  0  0  0  0  0  0  0  0  0  0  0
   -5.6714    0.7498   -2.2358 O   0  0  0  0  0  0  0  0  0  0  0  0
   -6.1086    2.3100   -0.6524 O   0  0  0  0  0  0  0  0  0  0  0  0
   -6.9744    2.3235   -1.0967 H   0  0  0  0  0  0  0  0  0  0  0  0
    4.2133   -1.5629   -0.5109 C   0  0  0  0  0  0  0  0  0  0  0  0
    3.3351   -2.1565   -1.1157 O   0  0  0  0  0  0  0  0  0  0  0  0
    5.5136   -1.8886   -0.6316 O   0  0  0  0  0  0  0  0  0  0  0  0
    5.5647   -2.6370   -1.2499 H   0  0  0  0  0  0  0  0  0  0  0  0
  1  2  2  0  0  0  0
  1  6  1  0  0  0  0
  2  3  1  0  0  0  0
  3  4  2  0  0  0  0
  4  9  1  0  0  0  0
  5  8  1  0  0  0  0
  5  4  1  0  0  0  0
  6  5  2  0  0  0  0
  7  1  1  0  0  0  0
 10  2  1  0  0  0  0
 11 10  1  0  0  0  0
 12 14  1  0  0  0  0
 12 11  1  0  0  0  0
 13 12  2  0  0  0  0
 14 18  1  0  0  0  0
 15 19  2  0  0  0  0
 15 13  1  0  0  0  0
 16 13  1  0  0  0  0
 17 21  1  0  0  0  0
 17 14  2  0  0  0  0
 19 17  1  0  0  0  0
 20 15  1  0  0  0  0
 22 24  2  0  0  0  0
 23 22  1  0  0  0  0
 25 23  2  0  0  0  0
 25 28  1  0  0  0  0
 26 23  1  0  0  0  0
 27 24  1  0  0  0  0
 27 29  1  0  0  0  0
 28 27  2  0  0  0  0
 30 28  1  0  0  0  0
 31 32  2  0  0  0  0
 31 19  1  0  0  0  0
 33 31  1  0  0  0  0
 34 33  1  0  0  0  0
 35  6  1  0  0  0  0
 35 37  1  0  0  0  0
 36 35  2  0  0  0  0
 38 37  1  0  0  0  0
 39 25  1  0  0  0  0
 40 39  2  0  0  0  0
 41 39  1  0  0  0  0
 42 41  1  0  0  0  0
M  RAD  5   3   2  10   2  11   2  22   2  24   2
M  END
