Coordinates from ORCA-job 1g-Schema5-R9-P1+-B3LYPG-6-31G_dp-scan-d49-09-n400
 OpenBabel08231810273D

 42 43  0  0  0  0  0  0  0  0999 V2000
   -3.0112    0.4249   -1.2303 C   0  0  0  0  0  0  0  0  0  0  0  0
   -1.6520    0.1776   -0.8304 C   0  0  0  0  0  0  0  0  0  0  0  0
   -1.5166    1.0229    0.1877 C   0  0  0  0  0  0  0  0  0  0  0  0
   -2.1442    1.9541    0.9250 C   0  0  0  0  0  0  0  0  0  0  0  0
   -3.4665    2.1167    0.4499 C   0  0  0  0  0  0  0  0  0  0  0  0
   -3.8816    1.3330   -0.6416 C   0  0  0  0  0  0  0  0  0  0  0  0
   -3.2925   -0.2054   -2.0839 H   0  0  0  0  0  0  0  0  0  0  0  0
   -4.1248    2.8328    0.9301 H   0  0  0  0  0  0  0  0  0  0  0  0
   -1.7203    2.5049    1.7575 H   0  0  0  0  0  0  0  0  0  0  0  0
   -0.8101   -0.7613   -1.4681 N   0  0  0  0  0  0  0  0  0  0  0  0
   -1.3366   -1.3627   -2.4316 N   0  0  0  0  0  0  0  0  0  0  0  0
   -0.5857   -2.3032   -3.1263 C   0  0  0  0  0  0  0  0  0  0  0  0
   -1.2568   -2.9236   -4.2013 C   0  0  0  0  0  0  0  0  0  0  0  0
    0.7526   -2.6351   -2.8135 C   0  0  0  0  0  0  0  0  0  0  0  0
   -0.5947   -3.8738   -4.9664 C   0  0  0  0  0  0  0  0  0  0  0  0
   -2.2830   -2.6428   -4.4116 H   0  0  0  0  0  0  0  0  0  0  0  0
    1.4003   -3.5817   -3.5851 C   0  0  0  0  0  0  0  0  0  0  0  0
    1.2725   -2.1642   -1.9879 H   0  0  0  0  0  0  0  0  0  0  0  0
    0.7344   -4.2026   -4.6590 C   0  0  0  0  0  0  0  0  0  0  0  0
   -1.0925   -4.3599   -5.7963 H   0  0  0  0  0  0  0  0  0  0  0  0
    2.4267   -3.8552   -3.3703 H   0  0  0  0  0  0  0  0  0  0  0  0
    2.3445    0.9608    1.4983 C   0  0  0  0  0  0  0  0  0  0  0  0
    2.5234   -0.1036    0.6276 C   0  0  0  0  0  0  0  0  0  0  0  0
    3.2958    1.5703    2.0398 C   0  0  0  0  0  0  0  0  0  0  0  0
    3.8953   -0.4056    0.4267 C   0  0  0  0  0  0  0  0  0  0  0  0
    1.7558   -0.6802    0.1254 H   0  0  0  0  0  0  0  0  0  0  0  0
    4.6596    1.3948    1.9443 C   0  0  0  0  0  0  0  0  0  0  0  0
    4.9243    0.3202    1.0679 C   0  0  0  0  0  0  0  0  0  0  0  0
    5.4417    1.9547    2.4419 H   0  0  0  0  0  0  0  0  0  0  0  0
    5.9560    0.0398    0.8831 H   0  0  0  0  0  0  0  0  0  0  0  0
    1.5031   -5.2181   -5.4511 C   0  0  0  0  0  0  0  0  0  0  0  0
    2.6560   -5.5120   -5.2221 O   0  0  0  0  0  0  0  0  0  0  0  0
    0.7701   -5.7645   -6.4400 O   0  0  0  0  0  0  0  0  0  0  0  0
    1.3398   -6.4057   -6.8982 H   0  0  0  0  0  0  0  0  0  0  0  0
   -5.2614    1.4242   -1.2313 C   0  0  0  0  0  0  0  0  0  0  0  0
   -5.6215    0.7541   -2.1709 O   0  0  0  0  0  0  0  0  0  0  0  0
   -6.0178    2.3301   -0.5926 O   0  0  0  0  0  0  0  0  0  0  0  0
   -6.8916    2.3457   -1.0207 H   0  0  0  0  0  0  0  0  0  0  0  0
    4.2036   -1.5323   -0.4982 C   0  0  0  0  0  0  0  0  0  0  0  0
    3.3631   -2.1603   -1.1206 O   0  0  0  0  0  0  0  0  0  0  0  0
    5.5184   -1.8054   -0.5887 O   0  0  0  0  0  0  0  0  0  0  0  0
    5.6138   -2.5519   -1.2041 H   0  0  0  0  0  0  0  0  0  0  0  0
  1  2  2  0  0  0  0
  1  6  1  0  0  0  0
  2  3  1  0  0  0  0
  3  4  2  0  0  0  0
  4  9  1  0  0  0  0
  5  4  1  0  0  0  0
  5  8  1  0  0  0  0
  6  5  2  0  0  0  0
  7  1  1  0  0  0  0
 10  2  1  0  0  0  0
 11 10  1  0  0  0  0
 12 14  1  0  0  0  0
 12 11  1  0  0  0  0
 13 12  2  0  0  0  0
 14 18  1  0  0  0  0
 15 19  2  0  0  0  0
 15 13  1  0  0  0  0
 16 13  1  0  0  0  0
 17 21  1  0  0  0  0
 17 14  2  0  0  0  0
 19 17  1  0  0  0  0
 20 15  1  0  0  0  0
 22 24  2  0  0  0  0
 23 22  1  0  0  0  0
 25 23  2  0  0  0  0
 25 28  1  0  0  0  0
 26 23  1  0  0  0  0
 27 24  1  0  0  0  0
 27 29  1  0  0  0  0
 28 27  2  0  0  0  0
 30 28  1  0  0  0  0
 31 32  2  0  0  0  0
 31 19  1  0  0  0  0
 33 31  1  0  0  0  0
 34 33  1  0  0  0  0
 35  6  1  0  0  0  0
 35 37  1  0  0  0  0
 36 35  2  0  0  0  0
 38 37  1  0  0  0  0
 39 25  1  0  0  0  0
 40 39  2  0  0  0  0
 41 39  1  0  0  0  0
 42 41  1  0  0  0  0
M  RAD  5   3   2  10   2  11   2  22   2  24   2
M  END
