Coordinates from ORCA-job 1g-Schema5-R9-P1+-B3LYPG-6-31G_dp-scan-d49-09-n400
 OpenBabel08231810273D

 42 45  0  0  1  0  0  0  0  0999 V2000
   -2.0225    0.8421   -1.1333 C   0  0  0  0  0  0  0  0  0  0  0  0
   -0.9066    0.2476   -0.5683 C   0  0  0  0  0  0  0  0  0  0  0  0
   -0.4684    0.4787    0.7622 C   0  0  0  0  0  0  0  0  0  0  0  0
   -1.2383    1.3509    1.5623 C   0  0  0  0  0  0  0  0  0  0  0  0
   -2.3585    1.9606    1.0154 C   0  0  0  0  0  0  0  0  0  0  0  0
   -2.7497    1.7157   -0.3211 C   0  0  0  0  0  0  0  0  0  0  0  0
   -2.3329    0.6551   -2.1539 H   0  0  0  0  0  0  0  0  0  0  0  0
   -2.9553    2.6368    1.6164 H   0  0  0  0  0  0  0  0  0  0  0  0
   -0.9573    1.5253    2.5953 H   0  0  0  0  0  0  0  0  0  0  0  0
   -0.0400   -0.7044   -1.1703 N   0  0  0  0  0  0  0  0  0  0  0  0
   -0.4357   -1.3289   -2.2005 N   0  0  0  0  0  0  0  0  0  0  0  0
    0.1516   -2.3989   -2.8262 C   0  0  0  0  0  0  0  0  0  0  0  0
   -0.6931   -2.9176   -3.8443 C   0  0  0  0  0  0  0  0  0  0  0  0
    1.3966   -3.0382   -2.5688 C   0  0  0  0  0  0  0  0  0  0  0  0
   -0.3374   -4.0520   -4.5563 C   0  0  0  0  0  0  0  0  0  0  0  0
   -1.6302   -2.4062   -4.0330 H   0  0  0  0  0  0  0  0  0  0  0  0
    1.7368   -4.1709   -3.2814 C   0  0  0  0  0  0  0  0  0  0  0  0
    2.1069   -2.6415   -1.8608 H   0  0  0  0  0  0  0  0  0  0  0  0
    0.8781   -4.6862   -4.2704 C   0  0  0  0  0  0  0  0  0  0  0  0
   -0.9879   -4.4477   -5.3270 H   0  0  0  0  0  0  0  0  0  0  0  0
    2.6792   -4.6782   -3.1065 H   0  0  0  0  0  0  0  0  0  0  0  0
    0.6226   -0.1844    1.0126 C   0  0  1  0  0  0  0  0  0  0  0  0
    1.1338   -0.8877   -0.2453 C   0  0  2  0  0  0  0  0  0  0  0  0
    1.5766   -0.1042    1.9619 C   0  0  0  0  0  0  0  0  0  0  0  0
    2.4564   -0.1186   -0.6108 C   0  0  0  0  0  0  0  0  0  0  0  0
    1.3275   -1.9584   -0.1418 H   0  0  0  0  0  0  0  0  0  0  0  0
    2.8919   -0.0247    1.8073 C   0  0  0  0  0  0  0  0  0  0  0  0
    3.2655    0.2830    0.4021 C   0  0  0  0  0  0  0  0  0  0  0  0
    3.6548   -0.2679    2.5409 H   0  0  0  0  0  0  0  0  0  0  0  0
    4.2234    0.7372    0.1693 H   0  0  0  0  0  0  0  0  0  0  0  0
    1.3318   -5.9181   -4.9976 C   0  0  0  0  0  0  0  0  0  0  0  0
    2.3798   -6.4779   -4.7629 O   0  0  0  0  0  0  0  0  0  0  0  0
    0.4470   -6.3210   -5.9259 O   0  0  0  0  0  0  0  0  0  0  0  0
    0.8101   -7.1185   -6.3480 H   0  0  0  0  0  0  0  0  0  0  0  0
   -3.9538    2.3625   -0.9334 C   0  0  0  0  0  0  0  0  0  0  0  0
   -4.3112    2.1597   -2.0735 O   0  0  0  0  0  0  0  0  0  0  0  0
   -4.5863    3.1867   -0.0784 O   0  0  0  0  0  0  0  0  0  0  0  0
   -5.3502    3.5615   -0.5493 H   0  0  0  0  0  0  0  0  0  0  0  0
    2.8159    0.1195   -2.0279 C   0  0  0  0  0  0  0  0  0  0  0  0
    2.1307   -0.2303   -2.9725 O   0  0  0  0  0  0  0  0  0  0  0  0
    3.9734    0.7887   -2.1701 O   0  0  0  0  0  0  0  0  0  0  0  0
    4.1142    0.9215   -3.1231 H   0  0  0  0  0  0  0  0  0  0  0  0
  1  2  2  0  0  0  0
  1  6  1  0  0  0  0
  2  3  1  0  0  0  0
  3  4  2  0  0  0  0
  4  9  1  0  0  0  0
  5  4  1  0  0  0  0
  5  8  1  0  0  0  0
  6  5  2  0  0  0  0
  7  1  1  0  0  0  0
 10  2  1  0  0  0  0
 10 23  1  0  0  0  0
 11 10  1  0  0  0  0
 12 14  1  0  0  0  0
 12 11  1  0  0  0  0
 13 12  2  0  0  0  0
 14 18  1  0  0  0  0
 15 19  2  0  0  0  0
 15 13  1  0  0  0  0
 16 13  1  0  0  0  0
 17 21  1  0  0  0  0
 17 14  2  0  0  0  0
 19 17  1  0  0  0  0
 20 15  1  0  0  0  0
 22  3  1  6  0  0  0
 22 24  1  0  0  0  0
 23 26  1  1  0  0  0
 23 22  1  0  0  0  0
 25 23  1  0  0  0  0
 25 28  2  0  0  0  0
 27 24  1  0  0  0  0
 27 29  1  0  0  0  0
 28 27  1  0  0  0  0
 30 28  1  0  0  0  0
 31 32  2  0  0  0  0
 31 19  1  0  0  0  0
 33 31  1  0  0  0  0
 34 33  1  0  0  0  0
 35  6  1  0  0  0  0
 35 37  1  0  0  0  0
 36 35  2  0  0  0  0
 38 37  1  0  0  0  0
 39 25  1  0  0  0  0
 40 39  2  0  0  0  0
 41 39  1  0  0  0  0
 42 41  1  0  0  0  0
M  RAD  4  11   2  22   2  24   3  27   2
M  END
