Coordinates from ORCA-job 1g-Schema5-R9-P1+-B3LYPG-6-31G_dp-scan-d49-09-n400
 OpenBabel08231810273D

 42 45  0  0  1  0  0  0  0  0999 V2000
   -1.9845    0.6168   -1.0818 C   0  0  0  0  0  0  0  0  0  0  0  0
   -0.6568    0.2442   -0.9515 C   0  0  0  0  0  0  0  0  0  0  0  0
    0.2500    0.8499   -0.0653 C   0  0  0  0  0  0  0  0  0  0  0  0
   -0.1892    1.9289    0.6925 C   0  0  0  0  0  0  0  0  0  0  0  0
   -1.5312    2.3180    0.6001 C   0  0  0  0  0  0  0  0  0  0  0  0
   -2.4185    1.6813   -0.2851 C   0  0  0  0  0  0  0  0  0  0  0  0
   -2.6748    0.1080   -1.7452 H   0  0  0  0  0  0  0  0  0  0  0  0
   -1.8965    3.1411    1.2039 H   0  0  0  0  0  0  0  0  0  0  0  0
    0.4921    2.4596    1.3486 H   0  0  0  0  0  0  0  0  0  0  0  0
   -0.0134   -0.8732   -1.5316 N   0  0  0  0  0  0  0  0  0  0  0  0
   -0.4799   -1.4888   -2.5241 N   0  0  0  0  0  0  0  0  0  0  0  0
    0.0316   -2.6835   -3.0063 C   0  0  0  0  0  0  0  0  0  0  0  0
   -0.2313   -2.8957   -4.3781 C   0  0  0  0  0  0  0  0  0  0  0  0
    0.6656   -3.6923   -2.2393 C   0  0  0  0  0  0  0  0  0  0  0  0
    0.2163   -4.0530   -4.9998 C   0  0  0  0  0  0  0  0  0  0  0  0
   -0.7616   -2.1272   -4.9297 H   0  0  0  0  0  0  0  0  0  0  0  0
    1.0667   -4.8604   -2.8641 C   0  0  0  0  0  0  0  0  0  0  0  0
    0.7634   -3.6022   -1.1636 H   0  0  0  0  0  0  0  0  0  0  0  0
    0.8678   -5.0372   -4.2443 C   0  0  0  0  0  0  0  0  0  0  0  0
    0.0444   -4.2104   -6.0578 H   0  0  0  0  0  0  0  0  0  0  0  0
    1.5299   -5.6648   -2.3027 H   0  0  0  0  0  0  0  0  0  0  0  0
    0.7941   -1.3136    0.7158 C   0  0  0  0  0  0  0  0  0  0  0  0
    1.2227   -1.0929   -0.6661 C   0  0  2  0  0  0  0  0  0  0  0  0
    1.5203   -1.1693    1.7107 C   0  0  0  0  0  0  0  0  0  0  0  0
    1.6885    0.3999   -0.3651 C   0  0  2  0  0  0  0  0  0  0  0  0
    1.9229   -1.7744   -1.1417 H   0  0  0  0  0  0  0  0  0  0  0  0
    2.4843   -0.1387    1.9479 C   0  0  0  0  0  0  0  0  0  0  0  0
    2.6218    0.6081    0.8212 C   0  0  0  0  0  0  0  0  0  0  0  0
    3.1100   -0.0343    2.8262 H   0  0  0  0  0  0  0  0  0  0  0  0
    3.3762    1.3832    0.7330 H   0  0  0  0  0  0  0  0  0  0  0  0
    1.3496   -6.3231   -4.8480 C   0  0  0  0  0  0  0  0  0  0  0  0
    1.9116   -7.1862   -4.2109 O   0  0  0  0  0  0  0  0  0  0  0  0
    1.0882   -6.4017   -6.1650 O   0  0  0  0  0  0  0  0  0  0  0  0
    1.4267   -7.2583   -6.4774 H   0  0  0  0  0  0  0  0  0  0  0  0
   -3.8540    2.0885   -0.4179 C   0  0  0  0  0  0  0  0  0  0  0  0
   -4.6304    1.5504   -1.1762 O   0  0  0  0  0  0  0  0  0  0  0  0
   -4.1758    3.1110    0.3952 O   0  0  0  0  0  0  0  0  0  0  0  0
   -5.1158    3.3128    0.2489 H   0  0  0  0  0  0  0  0  0  0  0  0
    2.1976    1.0602   -1.6588 C   0  0  0  0  0  0  0  0  0  0  0  0
    2.1610    0.5049   -2.7329 O   0  0  0  0  0  0  0  0  0  0  0  0
    2.6524    2.3004   -1.4484 O   0  0  0  0  0  0  0  0  0  0  0  0
    2.9474    2.6647   -2.3025 H   0  0  0  0  0  0  0  0  0  0  0  0
  1  2  2  0  0  0  0
  1  6  1  0  0  0  0
  2  3  1  0  0  0  0
  3  4  2  0  0  0  0
  4  9  1  0  0  0  0
  5  4  1  0  0  0  0
  5  8  1  0  0  0  0
  6  5  2  0  0  0  0
  7  1  1  0  0  0  0
 10  2  1  0  0  0  0
 10 23  1  0  0  0  0
 11 10  1  0  0  0  0
 12 11  1  0  0  0  0
 12 14  2  0  0  0  0
 13 12  1  0  0  0  0
 14 18  1  0  0  0  0
 15 13  2  0  0  0  0
 15 19  1  0  0  0  0
 16 13  1  0  0  0  0
 17 21  1  0  0  0  0
 17 14  1  0  0  0  0
 19 17  2  0  0  0  0
 20 15  1  0  0  0  0
 22 24  1  0  0  0  0
 23 26  1  6  0  0  0
 23 25  1  0  0  0  0
 23 22  1  0  0  0  0
 24 27  2  0  0  0  0
 25 39  1  6  0  0  0
 25  3  1  0  0  0  0
 25 28  1  0  0  0  0
 27 29  1  0  0  0  0
 28 27  1  0  0  0  0
 30 28  1  0  0  0  0
 31 19  1  0  0  0  0
 31 32  2  0  0  0  0
 33 31  1  0  0  0  0
 34 33  1  0  0  0  0
 35  6  1  0  0  0  0
 35 37  1  0  0  0  0
 36 35  2  0  0  0  0
 38 37  1  0  0  0  0
 39 41  1  0  0  0  0
 40 39  2  0  0  0  0
 42 41  1  0  0  0  0
M  RAD  4  11   2  22   3  24   2  28   2
M  END
