Coordinates from ORCA-job 1g-Schema5-R9-P1+-B3LYPG-6-31G_dp-scan-d49-09-n400
 OpenBabel08231810273D

 42 45  0  0  1  0  0  0  0  0999 V2000
   -1.9738    0.8412   -1.1451 C   0  0  0  0  0  0  0  0  0  0  0  0
   -0.8957    0.2354   -0.5118 C   0  0  0  0  0  0  0  0  0  0  0  0
   -0.5854    0.4851    0.8247 C   0  0  0  0  0  0  0  0  0  0  0  0
   -1.3465    1.3536    1.5930 C   0  0  0  0  0  0  0  0  0  0  0  0
   -2.4333    1.9757    0.9720 C   0  0  0  0  0  0  0  0  0  0  0  0
   -2.7417    1.7243   -0.3798 C   0  0  0  0  0  0  0  0  0  0  0  0
   -2.2241    0.6579   -2.1828 H   0  0  0  0  0  0  0  0  0  0  0  0
   -3.0556    2.6645    1.5318 H   0  0  0  0  0  0  0  0  0  0  0  0
   -1.1127    1.5383    2.6353 H   0  0  0  0  0  0  0  0  0  0  0  0
   -0.0155   -0.7336   -1.0929 N   0  0  0  0  0  0  0  0  0  0  0  0
   -0.4263   -1.3620   -2.1107 N   0  0  0  0  0  0  0  0  0  0  0  0
    0.1531   -2.4178   -2.7716 C   0  0  0  0  0  0  0  0  0  0  0  0
   -0.7505   -2.9733   -3.7171 C   0  0  0  0  0  0  0  0  0  0  0  0
    1.4414   -3.0029   -2.6208 C   0  0  0  0  0  0  0  0  0  0  0  0
   -0.4115   -4.0983   -4.4524 C   0  0  0  0  0  0  0  0  0  0  0  0
   -1.7186   -2.4990   -3.8304 H   0  0  0  0  0  0  0  0  0  0  0  0
    1.7679   -4.1216   -3.3621 C   0  0  0  0  0  0  0  0  0  0  0  0
    2.1952   -2.5680   -1.9844 H   0  0  0  0  0  0  0  0  0  0  0  0
    0.8495   -4.6794   -4.2707 C   0  0  0  0  0  0  0  0  0  0  0  0
   -1.1085   -4.5243   -5.1640 H   0  0  0  0  0  0  0  0  0  0  0  0
    2.7440   -4.5852   -3.2711 H   0  0  0  0  0  0  0  0  0  0  0  0
    0.7558   -0.4276    1.1360 C   0  0  1  0  0  0  0  0  0  0  0  0
    1.1885   -0.9543   -0.2112 C   0  0  2  0  0  0  0  0  0  0  0  0
    1.7222   -0.3131    2.0232 C   0  0  0  0  0  0  0  0  0  0  0  0
    2.4703   -0.0967   -0.5618 C   0  0  0  0  0  0  0  0  0  0  0  0
    1.4278   -2.0193   -0.2498 H   0  0  0  0  0  0  0  0  0  0  0  0
    3.0254   -0.1275    1.8426 C   0  0  0  0  0  0  0  0  0  0  0  0
    3.3065    0.2785    0.4404 C   0  0  0  0  0  0  0  0  0  0  0  0
    3.8343   -0.3609    2.5272 H   0  0  0  0  0  0  0  0  0  0  0  0
    4.2386    0.7748    0.1897 H   0  0  0  0  0  0  0  0  0  0  0  0
    1.2911   -5.8954   -5.0323 C   0  0  0  0  0  0  0  0  0  0  0  0
    2.3781   -6.4092   -4.8865 O   0  0  0  0  0  0  0  0  0  0  0  0
    0.3483   -6.3398   -5.8806 O   0  0  0  0  0  0  0  0  0  0  0  0
    0.7074   -7.1236   -6.3311 H   0  0  0  0  0  0  0  0  0  0  0  0
   -3.9002    2.3796   -1.0689 C   0  0  0  0  0  0  0  0  0  0  0  0
   -4.1903    2.1739   -2.2272 O   0  0  0  0  0  0  0  0  0  0  0  0
   -4.5746    3.2169   -0.2597 O   0  0  0  0  0  0  0  0  0  0  0  0
   -5.3047    3.5950   -0.7790 H   0  0  0  0  0  0  0  0  0  0  0  0
    2.7727    0.2179   -1.9772 C   0  0  0  0  0  0  0  0  0  0  0  0
    2.0908   -0.1543   -2.9163 O   0  0  0  0  0  0  0  0  0  0  0  0
    3.8710    0.9788   -2.1259 O   0  0  0  0  0  0  0  0  0  0  0  0
    3.9787    1.1466   -3.0777 H   0  0  0  0  0  0  0  0  0  0  0  0
  1  2  2  0  0  0  0
  1  6  1  0  0  0  0
  2  3  1  0  0  0  0
  3  4  2  0  0  0  0
  4  9  1  0  0  0  0
  5  8  1  0  0  0  0
  5  4  1  0  0  0  0
  6  5  2  0  0  0  0
  7  1  1  0  0  0  0
 10  2  1  0  0  0  0
 10 23  1  0  0  0  0
 11 10  1  0  0  0  0
 12 14  1  0  0  0  0
 12 11  1  0  0  0  0
 13 12  2  0  0  0  0
 14 18  1  0  0  0  0
 15 19  2  0  0  0  0
 15 13  1  0  0  0  0
 16 13  1  0  0  0  0
 17 21  1  0  0  0  0
 17 14  2  0  0  0  0
 19 17  1  0  0  0  0
 20 15  1  0  0  0  0
 22  3  1  6  0  0  0
 22 24  1  0  0  0  0
 23 26  1  1  0  0  0
 23 22  1  0  0  0  0
 25 23  1  0  0  0  0
 25 28  2  0  0  0  0
 27 24  1  0  0  0  0
 27 29  1  0  0  0  0
 28 27  1  0  0  0  0
 30 28  1  0  0  0  0
 31 32  2  0  0  0  0
 31 19  1  0  0  0  0
 33 31  1  0  0  0  0
 34 33  1  0  0  0  0
 35  6  1  0  0  0  0
 35 37  1  0  0  0  0
 36 35  2  0  0  0  0
 38 37  1  0  0  0  0
 39 25  1  0  0  0  0
 40 39  2  0  0  0  0
 41 39  1  0  0  0  0
 42 41  1  0  0  0  0
M  RAD  4  11   2  22   2  24   3  27   2
M  END
