Coordinates from ORCA-job 1g-Schema5-R9-P1+-B3LYPG-6-31G_dp-scan-d49-09-n400
 OpenBabel08231810273D

 42 45  0  0  1  0  0  0  0  0999 V2000
   -1.9550    0.5295   -1.1027 C   0  0  0  0  0  0  0  0  0  0  0  0
   -0.6121    0.2278   -0.9015 C   0  0  0  0  0  0  0  0  0  0  0  0
    0.2538    1.0361   -0.1609 C   0  0  0  0  0  0  0  0  0  0  0  0
   -0.2346    2.2093    0.4068 C   0  0  0  0  0  0  0  0  0  0  0  0
   -1.5823    2.5330    0.2282 C   0  0  0  0  0  0  0  0  0  0  0  0
   -2.4361    1.7024   -0.5214 C   0  0  0  0  0  0  0  0  0  0  0  0
   -2.6150   -0.1117   -1.6747 H   0  0  0  0  0  0  0  0  0  0  0  0
   -1.9835    3.4385    0.6682 H   0  0  0  0  0  0  0  0  0  0  0  0
    0.4152    2.8682    0.9713 H   0  0  0  0  0  0  0  0  0  0  0  0
    0.0698   -0.9077   -1.4032 N   0  0  0  0  0  0  0  0  0  0  0  0
   -0.4856   -1.6529   -2.2582 N   0  0  0  0  0  0  0  0  0  0  0  0
    0.0339   -2.7955   -2.8296 C   0  0  0  0  0  0  0  0  0  0  0  0
   -0.7412   -3.2123   -3.9438 C   0  0  0  0  0  0  0  0  0  0  0  0
    1.1622   -3.5668   -2.4369 C   0  0  0  0  0  0  0  0  0  0  0  0
   -0.3791   -4.3281   -4.6806 C   0  0  0  0  0  0  0  0  0  0  0  0
   -1.6130   -2.6234   -4.2066 H   0  0  0  0  0  0  0  0  0  0  0  0
    1.4953   -4.6932   -3.1674 C   0  0  0  0  0  0  0  0  0  0  0  0
    1.7319   -3.3358   -1.5485 H   0  0  0  0  0  0  0  0  0  0  0  0
    0.7442   -5.0713   -4.2937 C   0  0  0  0  0  0  0  0  0  0  0  0
   -0.9617   -4.6347   -5.5409 H   0  0  0  0  0  0  0  0  0  0  0  0
    2.3416   -5.3095   -2.8834 H   0  0  0  0  0  0  0  0  0  0  0  0
    1.5145   -1.9347    0.3402 C   0  0  0  0  0  0  0  0  0  0  0  0
    1.4548   -0.9875   -0.7782 C   0  0  2  0  0  0  0  0  0  0  0  0
    2.0398   -1.6917    1.4195 C   0  0  0  0  0  0  0  0  0  0  0  0
    1.6767    0.4799   -0.1638 C   0  0  2  0  0  0  0  0  0  0  0  0
    2.1514   -1.1815   -1.5982 H   0  0  0  0  0  0  0  0  0  0  0  0
    2.4778   -0.4908    2.0639 C   0  0  0  0  0  0  0  0  0  0  0  0
    2.3106    0.5631    1.2307 C   0  0  0  0  0  0  0  0  0  0  0  0
    2.9331   -0.4137    3.0429 H   0  0  0  0  0  0  0  0  0  0  0  0
    2.6369    1.5526    1.5342 H   0  0  0  0  0  0  0  0  0  0  0  0
    1.1879   -6.2991   -5.0346 C   0  0  0  0  0  0  0  0  0  0  0  0
    2.1517   -6.9566   -4.7111 O   0  0  0  0  0  0  0  0  0  0  0  0
    0.3975   -6.5762   -6.0863 O   0  0  0  0  0  0  0  0  0  0  0  0
    0.7460   -7.3800   -6.5089 H   0  0  0  0  0  0  0  0  0  0  0  0
   -3.8855    2.0216   -0.7338 C   0  0  0  0  0  0  0  0  0  0  0  0
   -4.6345    1.3201   -1.3770 O   0  0  0  0  0  0  0  0  0  0  0  0
   -4.2513    3.1690   -0.1341 O   0  0  0  0  0  0  0  0  0  0  0  0
   -5.1961    3.3053   -0.3203 H   0  0  0  0  0  0  0  0  0  0  0  0
    2.4985    1.2924   -1.1972 C   0  0  0  0  0  0  0  0  0  0  0  0
    2.7610    0.8904   -2.3058 O   0  0  0  0  0  0  0  0  0  0  0  0
    2.8407    2.4970   -0.7210 O   0  0  0  0  0  0  0  0  0  0  0  0
    3.3298    2.9691   -1.4187 H   0  0  0  0  0  0  0  0  0  0  0  0
  1  2  2  0  0  0  0
  1  6  1  0  0  0  0
  2  3  1  0  0  0  0
  3  4  2  0  0  0  0
  4  9  1  0  0  0  0
  5  4  1  0  0  0  0
  5  8  1  0  0  0  0
  6  5  2  0  0  0  0
  7  1  1  0  0  0  0
 10  2  1  0  0  0  0
 10 23  1  0  0  0  0
 11 10  1  0  0  0  0
 12 14  1  0  0  0  0
 12 11  1  0  0  0  0
 13 12  2  0  0  0  0
 14 18  1  0  0  0  0
 15 19  2  0  0  0  0
 15 13  1  0  0  0  0
 16 13  1  0  0  0  0
 17 21  1  0  0  0  0
 17 14  2  0  0  0  0
 19 17  1  0  0  0  0
 20 15  1  0  0  0  0
 22 24  2  0  0  0  0
 23 26  1  6  0  0  0
 23 25  1  0  0  0  0
 23 22  1  0  0  0  0
 24 27  1  0  0  0  0
 25 39  1  6  0  0  0
 25  3  1  0  0  0  0
 25 28  1  0  0  0  0
 27 29  1  0  0  0  0
 28 30  1  0  0  0  0
 28 27  2  0  0  0  0
 31 32  2  0  0  0  0
 31 19  1  0  0  0  0
 33 31  1  0  0  0  0
 34 33  1  0  0  0  0
 35  6  1  0  0  0  0
 35 37  1  0  0  0  0
 36 35  2  0  0  0  0
 38 37  1  0  0  0  0
 39 41  1  0  0  0  0
 40 39  2  0  0  0  0
 42 41  1  0  0  0  0
M  RAD  3  11   2  22   2  24   2
M  END
