Coordinates from ORCA-job 1g-Schema5-R9-P1+-B3LYPG-6-31G_dp-scan-d49-09-n400
 OpenBabel08231810273D

 42 45  0  0  1  0  0  0  0  0999 V2000
   -1.9820    0.8425   -1.1447 C   0  0  0  0  0  0  0  0  0  0  0  0
   -0.8968    0.2392   -0.5229 C   0  0  0  0  0  0  0  0  0  0  0  0
   -0.5670    0.4841    0.8132 C   0  0  0  0  0  0  0  0  0  0  0  0
   -1.3285    1.3517    1.5872 C   0  0  0  0  0  0  0  0  0  0  0  0
   -2.4223    1.9717    0.9791 C   0  0  0  0  0  0  0  0  0  0  0  0
   -2.7441    1.7225   -0.3704 C   0  0  0  0  0  0  0  0  0  0  0  0
   -2.2420    0.6597   -2.1801 H   0  0  0  0  0  0  0  0  0  0  0  0
   -3.0408    2.6576    1.5465 H   0  0  0  0  0  0  0  0  0  0  0  0
   -1.0862    1.5349    2.6279 H   0  0  0  0  0  0  0  0  0  0  0  0
   -0.0174   -0.7264   -1.1075 N   0  0  0  0  0  0  0  0  0  0  0  0
   -0.4258   -1.3552   -2.1265 N   0  0  0  0  0  0  0  0  0  0  0  0
    0.1544   -2.4140   -2.7814 C   0  0  0  0  0  0  0  0  0  0  0  0
   -0.7412   -2.9631   -3.7382 C   0  0  0  0  0  0  0  0  0  0  0  0
    1.4359   -3.0091   -2.6133 C   0  0  0  0  0  0  0  0  0  0  0  0
   -0.4008   -4.0902   -4.4695 C   0  0  0  0  0  0  0  0  0  0  0  0
   -1.7044   -2.4819   -3.8636 H   0  0  0  0  0  0  0  0  0  0  0  0
    1.7634   -4.1308   -3.3496 C   0  0  0  0  0  0  0  0  0  0  0  0
    2.1841   -2.5809   -1.9658 H   0  0  0  0  0  0  0  0  0  0  0  0
    0.8531   -4.6811   -4.2708 C   0  0  0  0  0  0  0  0  0  0  0  0
   -1.0914   -4.5109   -5.1905 H   0  0  0  0  0  0  0  0  0  0  0  0
    2.7342   -4.6025   -3.2450 H   0  0  0  0  0  0  0  0  0  0  0  0
    0.7328   -0.3834    1.1160 C   0  0  1  0  0  0  0  0  0  0  0  0
    1.1804   -0.9416   -0.2168 C   0  0  2  0  0  0  0  0  0  0  0  0
    1.6957   -0.2739    2.0133 C   0  0  0  0  0  0  0  0  0  0  0  0
    2.4706   -0.0986   -0.5692 C   0  0  0  0  0  0  0  0  0  0  0  0
    1.4130   -2.0087   -0.2324 H   0  0  0  0  0  0  0  0  0  0  0  0
    3.0021   -0.1091    1.8388 C   0  0  0  0  0  0  0  0  0  0  0  0
    3.3011    0.2814    0.4358 C   0  0  0  0  0  0  0  0  0  0  0  0
    3.8023   -0.3489    2.5316 H   0  0  0  0  0  0  0  0  0  0  0  0
    4.2384    0.7696    0.1886 H   0  0  0  0  0  0  0  0  0  0  0  0
    1.2954   -5.9005   -5.0265 C   0  0  0  0  0  0  0  0  0  0  0  0
    2.3764   -6.4226   -4.8666 O   0  0  0  0  0  0  0  0  0  0  0  0
    0.3605   -6.3378   -5.8873 O   0  0  0  0  0  0  0  0  0  0  0  0
    0.7194   -7.1244   -6.3329 H   0  0  0  0  0  0  0  0  0  0  0  0
   -3.9110    2.3763   -1.0464 C   0  0  0  0  0  0  0  0  0  0  0  0
   -4.2131    2.1707   -2.2017 O   0  0  0  0  0  0  0  0  0  0  0  0
   -4.5804    3.2087   -0.2281 O   0  0  0  0  0  0  0  0  0  0  0  0
   -5.3174    3.5851   -0.7388 H   0  0  0  0  0  0  0  0  0  0  0  0
    2.7847    0.2018   -1.9852 C   0  0  0  0  0  0  0  0  0  0  0  0
    2.1036   -0.1686   -2.9255 O   0  0  0  0  0  0  0  0  0  0  0  0
    3.8929    0.9483   -2.1328 O   0  0  0  0  0  0  0  0  0  0  0  0
    4.0075    1.1090   -3.0849 H   0  0  0  0  0  0  0  0  0  0  0  0
  1  2  2  0  0  0  0
  1  6  1  0  0  0  0
  2  3  1  0  0  0  0
  3  4  2  0  0  0  0
  4  9  1  0  0  0  0
  5  8  1  0  0  0  0
  5  4  1  0  0  0  0
  6  5  2  0  0  0  0
  7  1  1  0  0  0  0
 10  2  1  0  0  0  0
 10 23  1  0  0  0  0
 11 10  1  0  0  0  0
 12 14  1  0  0  0  0
 12 11  1  0  0  0  0
 13 12  2  0  0  0  0
 14 18  1  0  0  0  0
 15 19  2  0  0  0  0
 15 13  1  0  0  0  0
 16 13  1  0  0  0  0
 17 21  1  0  0  0  0
 17 14  2  0  0  0  0
 19 17  1  0  0  0  0
 20 15  1  0  0  0  0
 22  3  1  6  0  0  0
 22 24  1  0  0  0  0
 23 26  1  1  0  0  0
 23 22  1  0  0  0  0
 25 23  1  0  0  0  0
 25 28  2  0  0  0  0
 27 24  1  0  0  0  0
 27 29  1  0  0  0  0
 28 27  1  0  0  0  0
 30 28  1  0  0  0  0
 31 32  2  0  0  0  0
 31 19  1  0  0  0  0
 33 31  1  0  0  0  0
 34 33  1  0  0  0  0
 35  6  1  0  0  0  0
 35 37  1  0  0  0  0
 36 35  2  0  0  0  0
 38 37  1  0  0  0  0
 39 25  1  0  0  0  0
 40 39  2  0  0  0  0
 41 39  1  0  0  0  0
 42 41  1  0  0  0  0
M  RAD  4  11   2  22   2  24   3  27   2
M  END
