Coordinates from ORCA-job 1g-Schema5-R9-P1+-B3LYPG-6-31G_dp-scan-d49-09-n400
 OpenBabel08231810273D

 42 45  0  0  1  0  0  0  0  0999 V2000
   -1.9364    0.5302   -1.1366 C   0  0  0  0  0  0  0  0  0  0  0  0
   -0.5941    0.2376   -0.9161 C   0  0  0  0  0  0  0  0  0  0  0  0
    0.2570    1.0602   -0.1743 C   0  0  0  0  0  0  0  0  0  0  0  0
   -0.2451    2.2381    0.3721 C   0  0  0  0  0  0  0  0  0  0  0  0
   -1.5916    2.5526    0.1724 C   0  0  0  0  0  0  0  0  0  0  0  0
   -2.4318    1.7066   -0.5754 C   0  0  0  0  0  0  0  0  0  0  0  0
   -2.5851   -0.1201   -1.7110 H   0  0  0  0  0  0  0  0  0  0  0  0
   -2.0026    3.4621    0.5946 H   0  0  0  0  0  0  0  0  0  0  0  0
    0.3945    2.9083    0.9347 H   0  0  0  0  0  0  0  0  0  0  0  0
    0.0986   -0.8964   -1.4093 N   0  0  0  0  0  0  0  0  0  0  0  0
   -0.4697   -1.6701   -2.2303 N   0  0  0  0  0  0  0  0  0  0  0  0
    0.0494   -2.8026   -2.8196 C   0  0  0  0  0  0  0  0  0  0  0  0
   -0.8263   -3.3020   -3.8210 C   0  0  0  0  0  0  0  0  0  0  0  0
    1.2676   -3.4890   -2.5563 C   0  0  0  0  0  0  0  0  0  0  0  0
   -0.4931   -4.4240   -4.5613 C   0  0  0  0  0  0  0  0  0  0  0  0
   -1.7560   -2.7711   -3.9925 H   0  0  0  0  0  0  0  0  0  0  0  0
    1.5782   -4.6180   -3.2924 C   0  0  0  0  0  0  0  0  0  0  0  0
    1.9385   -3.1865   -1.7661 H   0  0  0  0  0  0  0  0  0  0  0  0
    0.7144   -5.0852   -4.2981 C   0  0  0  0  0  0  0  0  0  0  0  0
   -1.1584   -4.7955   -5.3315 H   0  0  0  0  0  0  0  0  0  0  0  0
    2.4945   -5.1674   -3.1065 H   0  0  0  0  0  0  0  0  0  0  0  0
    1.6505   -1.9679    0.2156 C   0  0  0  0  0  0  0  0  0  0  0  0
    1.5029   -0.9413   -0.8240 C   0  0  2  0  0  0  0  0  0  0  0  0
    2.1309   -1.7592    1.3221 C   0  0  0  0  0  0  0  0  0  0  0  0
    1.6785    0.4987   -0.1300 C   0  0  2  0  0  0  0  0  0  0  0  0
    2.1841   -1.0350   -1.6751 H   0  0  0  0  0  0  0  0  0  0  0  0
    2.4577   -0.5779    2.0616 C   0  0  0  0  0  0  0  0  0  0  0  0
    2.2373    0.5190    1.2994 C   0  0  0  0  0  0  0  0  0  0  0  0
    2.8641   -0.5369    3.0639 H   0  0  0  0  0  0  0  0  0  0  0  0
    2.4705    1.5044    1.6896 H   0  0  0  0  0  0  0  0  0  0  0  0
    1.1383   -6.3122   -5.0523 C   0  0  0  0  0  0  0  0  0  0  0  0
    2.1748   -6.8987   -4.8341 O   0  0  0  0  0  0  0  0  0  0  0  0
    0.2414   -6.6755   -5.9854 O   0  0  0  0  0  0  0  0  0  0  0  0
    0.5846   -7.4726   -6.4247 H   0  0  0  0  0  0  0  0  0  0  0  0
   -3.8802    2.0145   -0.8098 C   0  0  0  0  0  0  0  0  0  0  0  0
   -4.6174    1.3005   -1.4529 O   0  0  0  0  0  0  0  0  0  0  0  0
   -4.2599    3.1675   -0.2297 O   0  0  0  0  0  0  0  0  0  0  0  0
   -5.2030    3.2961   -0.4296 H   0  0  0  0  0  0  0  0  0  0  0  0
    2.5656    1.3582   -1.0690 C   0  0  0  0  0  0  0  0  0  0  0  0
    2.9183    1.0058   -2.1692 O   0  0  0  0  0  0  0  0  0  0  0  0
    2.8560    2.5457   -0.5201 O   0  0  0  0  0  0  0  0  0  0  0  0
    3.3917    3.0498   -1.1586 H   0  0  0  0  0  0  0  0  0  0  0  0
  1  2  2  0  0  0  0
  1  6  1  0  0  0  0
  2  3  1  0  0  0  0
  3 25  1  0  0  0  0
  3  4  2  0  0  0  0
  4  9  1  0  0  0  0
  5  4  1  0  0  0  0
  5  8  1  0  0  0  0
  6  5  2  0  0  0  0
  7  1  1  0  0  0  0
 10  2  1  0  0  0  0
 10 23  1  0  0  0  0
 11 10  1  0  0  0  0
 12 14  1  0  0  0  0
 12 11  1  0  0  0  0
 13 12  2  0  0  0  0
 14 18  1  0  0  0  0
 15 19  2  0  0  0  0
 15 13  1  0  0  0  0
 16 13  1  0  0  0  0
 17 21  1  0  0  0  0
 17 14  2  0  0  0  0
 19 17  1  0  0  0  0
 20 15  1  0  0  0  0
 22 24  2  0  0  0  0
 23 26  1  6  0  0  0
 23 25  1  0  0  0  0
 23 22  1  0  0  0  0
 24 27  1  0  0  0  0
 25 39  1  6  0  0  0
 25 28  1  0  0  0  0
 27 29  1  0  0  0  0
 28 30  1  0  0  0  0
 28 27  2  0  0  0  0
 31 32  2  0  0  0  0
 31 19  1  0  0  0  0
 33 31  1  0  0  0  0
 34 33  1  0  0  0  0
 35  6  1  0  0  0  0
 35 37  1  0  0  0  0
 36 35  2  0  0  0  0
 38 37  1  0  0  0  0
 39 41  1  0  0  0  0
 40 39  2  0  0  0  0
 42 41  1  0  0  0  0
M  RAD  3  11   2  22   2  24   2
M  END
