Coordinates from ORCA-job 1g-Schema5-R9-P1+-B3LYPG-6-31G_dp-scan-d49-09-n400
 OpenBabel08231810273D

 42 45  0  0  1  0  0  0  0  0999 V2000
   -1.8994    0.6674   -1.3199 C   0  0  0  0  0  0  0  0  0  0  0  0
   -0.5752    0.3382   -1.0456 C   0  0  0  0  0  0  0  0  0  0  0  0
    0.2459    1.1067   -0.2160 C   0  0  0  0  0  0  0  0  0  0  0  0
   -0.2660    2.2622    0.3668 C   0  0  0  0  0  0  0  0  0  0  0  0
   -1.5942    2.6131    0.1106 C   0  0  0  0  0  0  0  0  0  0  0  0
   -2.4059    1.8216   -0.7230 C   0  0  0  0  0  0  0  0  0  0  0  0
   -2.5252    0.0655   -1.9679 H   0  0  0  0  0  0  0  0  0  0  0  0
   -2.0119    3.5093    0.5540 H   0  0  0  0  0  0  0  0  0  0  0  0
    0.3550    2.8866    0.9994 H   0  0  0  0  0  0  0  0  0  0  0  0
    0.1220   -0.7797   -1.5726 N   0  0  0  0  0  0  0  0  0  0  0  0
   -0.5011   -1.6367   -2.2618 N   0  0  0  0  0  0  0  0  0  0  0  0
    0.0370   -2.7423   -2.8849 C   0  0  0  0  0  0  0  0  0  0  0  0
   -0.9727   -3.6473   -3.3054 C   0  0  0  0  0  0  0  0  0  0  0  0
    1.3977   -3.0269   -3.1840 C   0  0  0  0  0  0  0  0  0  0  0  0
   -0.6403   -4.8304   -3.9447 C   0  0  0  0  0  0  0  0  0  0  0  0
   -2.0053   -3.3910   -3.0966 H   0  0  0  0  0  0  0  0  0  0  0  0
    1.7119   -4.1984   -3.8508 C   0  0  0  0  0  0  0  0  0  0  0  0
    2.1924   -2.3355   -2.9497 H   0  0  0  0  0  0  0  0  0  0  0  0
    0.7069   -5.1091   -4.2178 C   0  0  0  0  0  0  0  0  0  0  0  0
   -1.4097   -5.5305   -4.2469 H   0  0  0  0  0  0  0  0  0  0  0  0
    2.7392   -4.4351   -4.1045 H   0  0  0  0  0  0  0  0  0  0  0  0
    1.9671   -1.9880   -0.4135 C   0  0  0  0  0  0  0  0  0  0  0  0
    1.5752   -0.7537   -1.1095 C   0  0  2  0  0  0  0  0  0  0  0  0
    2.3010   -2.0244    0.7631 C   0  0  0  0  0  0  0  0  0  0  0  0
    1.6390    0.4860   -0.0874 C   0  0  2  0  0  0  0  0  0  0  0  0
    2.1788   -0.4896   -1.9848 H   0  0  0  0  0  0  0  0  0  0  0  0
    2.3205   -1.0713    1.8309 C   0  0  0  0  0  0  0  0  0  0  0  0
    1.9696    0.1546    1.3745 C   0  0  0  0  0  0  0  0  0  0  0  0
    2.5773   -1.2697    2.8639 H   0  0  0  0  0  0  0  0  0  0  0  0
    1.9413    0.9978    2.0575 H   0  0  0  0  0  0  0  0  0  0  0  0
    1.1390   -6.3628   -4.9210 C   0  0  0  0  0  0  0  0  0  0  0  0
    2.2962   -6.6162   -5.1728 O   0  0  0  0  0  0  0  0  0  0  0  0
    0.1019   -7.1606   -5.2308 O   0  0  0  0  0  0  0  0  0  0  0  0
    0.4620   -7.9459   -5.6775 H   0  0  0  0  0  0  0  0  0  0  0  0
   -3.8333    2.1703   -1.0211 C   0  0  0  0  0  0  0  0  0  0  0  0
   -4.5480    1.4996   -1.7326 O   0  0  0  0  0  0  0  0  0  0  0  0
   -4.2220    3.3054   -0.4124 O   0  0  0  0  0  0  0  0  0  0  0  0
   -5.1504    3.4620   -0.6561 H   0  0  0  0  0  0  0  0  0  0  0  0
    2.6873    1.4863   -0.6453 C   0  0  0  0  0  0  0  0  0  0  0  0
    3.2024    1.3896   -1.7333 O   0  0  0  0  0  0  0  0  0  0  0  0
    2.9193    2.4836    0.2196 O   0  0  0  0  0  0  0  0  0  0  0  0
    3.5639    3.0902   -0.1874 H   0  0  0  0  0  0  0  0  0  0  0  0
  1  2  2  0  0  0  0
  1  6  1  0  0  0  0
  2  3  1  0  0  0  0
  3 25  1  0  0  0  0
  3  4  2  0  0  0  0
  4  9  1  0  0  0  0
  5  4  1  0  0  0  0
  5  8  1  0  0  0  0
  6  5  2  0  0  0  0
  7  1  1  0  0  0  0
 10 23  1  0  0  0  0
 10  2  1  0  0  0  0
 11 10  1  0  0  0  0
 12 11  1  0  0  0  0
 13 16  1  0  0  0  0
 13 12  2  0  0  0  0
 14 18  1  0  0  0  0
 14 12  1  0  0  0  0
 15 13  1  0  0  0  0
 17 14  2  0  0  0  0
 19 15  2  0  0  0  0
 19 17  1  0  0  0  0
 20 15  1  0  0  0  0
 21 17  1  0  0  0  0
 22 24  2  0  0  0  0
 23 26  1  6  0  0  0
 23 22  1  0  0  0  0
 23 25  1  0  0  0  0
 24 27  1  0  0  0  0
 25 39  1  6  0  0  0
 25 28  1  0  0  0  0
 27 29  1  0  0  0  0
 28 27  2  0  0  0  0
 28 30  1  0  0  0  0
 31 19  1  0  0  0  0
 32 31  2  0  0  0  0
 33 31  1  0  0  0  0
 34 33  1  0  0  0  0
 35  6  1  0  0  0  0
 35 37  1  0  0  0  0
 36 35  2  0  0  0  0
 38 37  1  0  0  0  0
 39 41  1  0  0  0  0
 40 39  2  0  0  0  0
 42 41  1  0  0  0  0
M  RAD  3  11   2  22   2  24   2
M  END
