Coordinates from ORCA-job 1g-Schema5-R9-P1+-B3LYPG-6-31G_dp-scan-d49-09-n400
 OpenBabel08231810273D

 42 43  0  0  0  0  0  0  0  0999 V2000
   -3.2229    0.4373   -1.2842 C   0  0  0  0  0  0  0  0  0  0  0  0
   -1.8778    0.2135   -0.8249 C   0  0  0  0  0  0  0  0  0  0  0  0
   -1.8106    1.0474    0.2085 C   0  0  0  0  0  0  0  0  0  0  0  0
   -2.4932    1.9540    0.9277 C   0  0  0  0  0  0  0  0  0  0  0  0
   -3.7948    2.0959    0.3926 C   0  0  0  0  0  0  0  0  0  0  0  0
   -4.1405    1.3179   -0.7267 C   0  0  0  0  0  0  0  0  0  0  0  0
   -3.4493   -0.1905   -2.1562 H   0  0  0  0  0  0  0  0  0  0  0  0
   -4.4902    2.7917    0.8499 H   0  0  0  0  0  0  0  0  0  0  0  0
   -2.1232    2.5023    1.7873 H   0  0  0  0  0  0  0  0  0  0  0  0
   -0.9898   -0.6977   -1.4372 N   0  0  0  0  0  0  0  0  0  0  0  0
   -1.4643   -1.3135   -2.4180 N   0  0  0  0  0  0  0  0  0  0  0  0
   -0.6606   -2.2287   -3.0856 C   0  0  0  0  0  0  0  0  0  0  0  0
   -1.2758   -2.8850   -4.1728 C   0  0  0  0  0  0  0  0  0  0  0  0
    0.6793   -2.5059   -2.7305 C   0  0  0  0  0  0  0  0  0  0  0  0
   -0.5559   -3.8189   -4.9051 C   0  0  0  0  0  0  0  0  0  0  0  0
   -2.3051   -2.6459   -4.4167 H   0  0  0  0  0  0  0  0  0  0  0  0
    1.3849   -3.4368   -3.4691 C   0  0  0  0  0  0  0  0  0  0  0  0
    1.1577   -2.0040   -1.8986 H   0  0  0  0  0  0  0  0  0  0  0  0
    0.7747   -4.0949   -4.5536 C   0  0  0  0  0  0  0  0  0  0  0  0
   -1.0100   -4.3331   -5.7432 H   0  0  0  0  0  0  0  0  0  0  0  0
    2.4132   -3.6650   -3.2161 H   0  0  0  0  0  0  0  0  0  0  0  0
    2.8403    1.0259    1.6181 C   0  0  0  0  0  0  0  0  0  0  0  0
    2.8203   -0.0337    0.7299 C   0  0  0  0  0  0  0  0  0  0  0  0
    3.8840    1.5294    2.0918 C   0  0  0  0  0  0  0  0  0  0  0  0
    4.1308   -0.4813    0.4154 C   0  0  0  0  0  0  0  0  0  0  0  0
    1.9538   -0.5152    0.2914 H   0  0  0  0  0  0  0  0  0  0  0  0
    5.2074    1.2005    1.8775 C   0  0  0  0  0  0  0  0  0  0  0  0
    5.2821    0.1186    0.9752 C   0  0  0  0  0  0  0  0  0  0  0  0
    6.0853    1.6648    2.3097 H   0  0  0  0  0  0  0  0  0  0  0  0
    6.2580   -0.2672    0.7006 H   0  0  0  0  0  0  0  0  0  0  0  0
    1.6037   -5.0909   -5.3088 C   0  0  0  0  0  0  0  0  0  0  0  0
    2.7601   -5.3370   -5.0434 O   0  0  0  0  0  0  0  0  0  0  0  0
    0.9205   -5.6787   -6.3093 O   0  0  0  0  0  0  0  0  0  0  0  0
    1.5266   -6.3042   -6.7419 H   0  0  0  0  0  0  0  0  0  0  0  0
   -5.4932    1.3856   -1.3795 C   0  0  0  0  0  0  0  0  0  0  0  0
   -5.7929    0.7200   -2.3432 O   0  0  0  0  0  0  0  0  0  0  0  0
   -6.2995    2.2644   -0.7648 O   0  0  0  0  0  0  0  0  0  0  0  0
   -7.1530    2.2659   -1.2324 H   0  0  0  0  0  0  0  0  0  0  0  0
    4.2412   -1.6170   -0.5400 C   0  0  0  0  0  0  0  0  0  0  0  0
    3.2908   -2.1432   -1.0976 O   0  0  0  0  0  0  0  0  0  0  0  0
    5.5070   -2.0276   -0.7424 O   0  0  0  0  0  0  0  0  0  0  0  0
    5.4702   -2.7683   -1.3708 H   0  0  0  0  0  0  0  0  0  0  0  0
  1  2  2  0  0  0  0
  1  6  1  0  0  0  0
  2  3  1  0  0  0  0
  3  4  2  0  0  0  0
  4  9  1  0  0  0  0
  5  8  1  0  0  0  0
  5  4  1  0  0  0  0
  6  5  2  0  0  0  0
  7  1  1  0  0  0  0
 10  2  1  0  0  0  0
 11 10  1  0  0  0  0
 12 14  1  0  0  0  0
 12 11  1  0  0  0  0
 13 12  2  0  0  0  0
 14 18  1  0  0  0  0
 15 19  2  0  0  0  0
 15 13  1  0  0  0  0
 16 13  1  0  0  0  0
 17 21  1  0  0  0  0
 17 14  2  0  0  0  0
 19 17  1  0  0  0  0
 20 15  1  0  0  0  0
 22 24  2  0  0  0  0
 23 22  1  0  0  0  0
 25 23  2  0  0  0  0
 25 28  1  0  0  0  0
 26 23  1  0  0  0  0
 27 24  1  0  0  0  0
 27 29  1  0  0  0  0
 28 27  2  0  0  0  0
 30 28  1  0  0  0  0
 31 32  2  0  0  0  0
 31 19  1  0  0  0  0
 33 31  1  0  0  0  0
 34 33  1  0  0  0  0
 35 37  1  0  0  0  0
 35  6  1  0  0  0  0
 36 35  2  0  0  0  0
 38 37  1  0  0  0  0
 39 25  1  0  0  0  0
 40 39  2  0  0  0  0
 41 39  1  0  0  0  0
 42 41  1  0  0  0  0
M  RAD  5   3   2  10   2  11   2  22   2  24   2
M  END
