Coordinates from ORCA-job 1g-Schema5-R9-P1+-B3LYPG-6-31G_dp-scan-d49-09-n400
 OpenBabel08231810273D

 42 45  0  0  1  0  0  0  0  0999 V2000
   -1.9751    0.5611   -1.0813 C   0  0  0  0  0  0  0  0  0  0  0  0
   -0.6351    0.2344   -0.9155 C   0  0  0  0  0  0  0  0  0  0  0  0
    0.2509    0.9768   -0.1290 C   0  0  0  0  0  0  0  0  0  0  0  0
   -0.2168    2.1115    0.5247 C   0  0  0  0  0  0  0  0  0  0  0  0
   -1.5643    2.4597    0.3868 C   0  0  0  0  0  0  0  0  0  0  0  0
   -2.4349    1.6973   -0.4132 C   0  0  0  0  0  0  0  0  0  0  0  0
   -2.6507   -0.0347   -1.6840 H   0  0  0  0  0  0  0  0  0  0  0  0
   -1.9515    3.3344    0.8965 H   0  0  0  0  0  0  0  0  0  0  0  0
    0.4474    2.7210    1.1272 H   0  0  0  0  0  0  0  0  0  0  0  0
    0.0328   -0.8883   -1.4579 N   0  0  0  0  0  0  0  0  0  0  0  0
   -0.4899   -1.5752   -2.3774 N   0  0  0  0  0  0  0  0  0  0  0  0
    0.0290   -2.7421   -2.9059 C   0  0  0  0  0  0  0  0  0  0  0  0
   -0.5310   -3.0521   -4.1698 C   0  0  0  0  0  0  0  0  0  0  0  0
    0.9538   -3.6378   -2.3065 C   0  0  0  0  0  0  0  0  0  0  0  0
   -0.1254   -4.1846   -4.8589 C   0  0  0  0  0  0  0  0  0  0  0  0
   -1.2662   -2.3720   -4.5863 H   0  0  0  0  0  0  0  0  0  0  0  0
    1.3205   -4.7831   -2.9908 C   0  0  0  0  0  0  0  0  0  0  0  0
    1.3204   -3.4855   -1.3005 H   0  0  0  0  0  0  0  0  0  0  0  0
    0.8039   -5.0529   -4.2699 C   0  0  0  0  0  0  0  0  0  0  0  0
   -0.5338   -4.4119   -5.8357 H   0  0  0  0  0  0  0  0  0  0  0  0
    2.0079   -5.4984   -2.5517 H   0  0  0  0  0  0  0  0  0  0  0  0
    1.2042   -1.7761    0.5225 C   0  0  0  0  0  0  0  0  0  0  0  0
    1.3597   -1.0424   -0.7325 C   0  0  2  0  0  0  0  0  0  0  0  0
    1.8093   -1.5267    1.5599 C   0  0  0  0  0  0  0  0  0  0  0  0
    1.6760    0.4476   -0.2446 C   0  0  2  0  0  0  0  0  0  0  0  0
    2.0852   -1.4361   -1.4456 H   0  0  0  0  0  0  0  0  0  0  0  0
    2.4812   -0.3517    2.0298 C   0  0  0  0  0  0  0  0  0  0  0  0
    2.4483    0.6027    1.0690 C   0  0  0  0  0  0  0  0  0  0  0  0
    3.0226   -0.2495    2.9618 H   0  0  0  0  0  0  0  0  0  0  0  0
    2.9710    1.5440    1.2048 H   0  0  0  0  0  0  0  0  0  0  0  0
    1.2687   -6.3087   -4.9471 C   0  0  0  0  0  0  0  0  0  0  0  0
    2.0683   -7.0722   -4.4532 O   0  0  0  0  0  0  0  0  0  0  0  0
    0.6988   -6.4819   -6.1527 O   0  0  0  0  0  0  0  0  0  0  0  0
    1.0456   -7.3122   -6.5220 H   0  0  0  0  0  0  0  0  0  0  0  0
   -3.8824    2.0478   -0.5854 C   0  0  0  0  0  0  0  0  0  0  0  0
   -4.6466    1.4020   -1.2679 O   0  0  0  0  0  0  0  0  0  0  0  0
   -4.2274    3.1541    0.0976 O   0  0  0  0  0  0  0  0  0  0  0  0
   -5.1725    3.3139   -0.0670 H   0  0  0  0  0  0  0  0  0  0  0  0
    2.3566    1.1859   -1.4192 C   0  0  0  0  0  0  0  0  0  0  0  0
    2.4295    0.7197   -2.5324 O   0  0  0  0  0  0  0  0  0  0  0  0
    2.8048    2.3960   -1.0637 O   0  0  0  0  0  0  0  0  0  0  0  0
    3.1965    2.8168   -1.8501 H   0  0  0  0  0  0  0  0  0  0  0  0
  1  2  2  0  0  0  0
  1  6  1  0  0  0  0
  2  3  1  0  0  0  0
  3  4  2  0  0  0  0
  4  9  1  0  0  0  0
  5  4  1  0  0  0  0
  5  8  1  0  0  0  0
  6  5  2  0  0  0  0
  7  1  1  0  0  0  0
 10  2  1  0  0  0  0
 10 23  1  0  0  0  0
 11 10  1  0  0  0  0
 12 11  1  0  0  0  0
 12 14  1  0  0  0  0
 13 12  2  0  0  0  0
 14 18  1  0  0  0  0
 15 19  2  0  0  0  0
 15 13  1  0  0  0  0
 16 13  1  0  0  0  0
 17 21  1  0  0  0  0
 17 14  2  0  0  0  0
 19 17  1  0  0  0  0
 20 15  1  0  0  0  0
 22 24  1  0  0  0  0
 23 26  1  6  0  0  0
 23 25  1  0  0  0  0
 23 22  1  0  0  0  0
 24 27  2  0  0  0  0
 25 39  1  6  0  0  0
 25  3  1  0  0  0  0
 25 28  1  0  0  0  0
 27 29  1  0  0  0  0
 28 30  1  0  0  0  0
 28 27  1  0  0  0  0
 31 32  2  0  0  0  0
 31 19  1  0  0  0  0
 33 31  1  0  0  0  0
 34 33  1  0  0  0  0
 35  6  1  0  0  0  0
 35 37  1  0  0  0  0
 36 35  2  0  0  0  0
 38 37  1  0  0  0  0
 39 41  1  0  0  0  0
 40 39  2  0  0  0  0
 42 41  1  0  0  0  0
M  RAD  4  11   2  22   3  24   2  28   2
M  END
