Coordinates from ORCA-job 1g-Schema5-R9-P1+-B3LYPG-6-31G_dp-scan-d49-09-n400
 OpenBabel08231810273D

 42 43  0  0  0  0  0  0  0  0999 V2000
   -3.0995    0.4306   -1.2524 C   0  0  0  0  0  0  0  0  0  0  0  0
   -1.7485    0.1882   -0.8215 C   0  0  0  0  0  0  0  0  0  0  0  0
   -1.6473    1.0232    0.2083 C   0  0  0  0  0  0  0  0  0  0  0  0
   -2.3002    1.9414    0.9399 C   0  0  0  0  0  0  0  0  0  0  0  0
   -3.6110    2.1006    0.4328 C   0  0  0  0  0  0  0  0  0  0  0  0
   -3.9919    1.3256   -0.6772 C   0  0  0  0  0  0  0  0  0  0  0  0
   -3.3536   -0.1943   -2.1188 H   0  0  0  0  0  0  0  0  0  0  0  0
   -4.2863    2.8072    0.9035 H   0  0  0  0  0  0  0  0  0  0  0  0
   -1.9025    2.4861    1.7894 H   0  0  0  0  0  0  0  0  0  0  0  0
   -0.8858   -0.7374   -1.4497 N   0  0  0  0  0  0  0  0  0  0  0  0
   -1.3884   -1.3418   -2.4237 N   0  0  0  0  0  0  0  0  0  0  0  0
   -0.6153   -2.2703   -3.1088 C   0  0  0  0  0  0  0  0  0  0  0  0
   -1.2646   -2.9057   -4.1887 C   0  0  0  0  0  0  0  0  0  0  0  0
    0.7244   -2.5794   -2.7796 C   0  0  0  0  0  0  0  0  0  0  0  0
   -0.5795   -3.8502   -4.9404 C   0  0  0  0  0  0  0  0  0  0  0  0
   -2.2925   -2.6420   -4.4121 H   0  0  0  0  0  0  0  0  0  0  0  0
    1.3949   -3.5208   -3.5378 C   0  0  0  0  0  0  0  0  0  0  0  0
    1.2296   -2.0950   -1.9528 H   0  0  0  0  0  0  0  0  0  0  0  0
    0.7507   -4.1577   -4.6154 C   0  0  0  0  0  0  0  0  0  0  0  0
   -1.0602   -4.3482   -5.7734 H   0  0  0  0  0  0  0  0  0  0  0  0
    2.4227   -3.7759   -3.3084 H   0  0  0  0  0  0  0  0  0  0  0  0
    2.5564    1.0091    1.5374 C   0  0  0  0  0  0  0  0  0  0  0  0
    2.6475   -0.0595    0.6614 C   0  0  0  0  0  0  0  0  0  0  0  0
    3.5493    1.5705    2.0542 C   0  0  0  0  0  0  0  0  0  0  0  0
    3.9954   -0.4340    0.4197 C   0  0  0  0  0  0  0  0  0  0  0  0
    1.8348   -0.5942    0.1834 H   0  0  0  0  0  0  0  0  0  0  0  0
    4.8985    1.3196    1.9152 C   0  0  0  0  0  0  0  0  0  0  0  0
    5.0802    0.2351    1.0306 C   0  0  0  0  0  0  0  0  0  0  0  0
    5.7244    1.8369    2.3875 H   0  0  0  0  0  0  0  0  0  0  0  0
    6.0894   -0.0978    0.8126 H   0  0  0  0  0  0  0  0  0  0  0  0
    1.5434   -5.1665   -5.3924 C   0  0  0  0  0  0  0  0  0  0  0  0
    2.6981   -5.4410   -5.1489 O   0  0  0  0  0  0  0  0  0  0  0  0
    0.8299   -5.7302   -6.3857 O   0  0  0  0  0  0  0  0  0  0  0  0
    1.4142   -6.3655   -6.8335 H   0  0  0  0  0  0  0  0  0  0  0  0
   -5.3570    1.4122   -1.3012 C   0  0  0  0  0  0  0  0  0  0  0  0
   -5.6873    0.7484   -2.2561 O   0  0  0  0  0  0  0  0  0  0  0  0
   -6.1372    2.3039   -0.6715 O   0  0  0  0  0  0  0  0  0  0  0  0
   -7.0004    2.3166   -1.1208 H   0  0  0  0  0  0  0  0  0  0  0  0
    4.2184   -1.5715   -0.5153 C   0  0  0  0  0  0  0  0  0  0  0  0
    3.3296   -2.1558   -1.1139 O   0  0  0  0  0  0  0  0  0  0  0  0
    5.5143   -1.9107   -0.6467 O   0  0  0  0  0  0  0  0  0  0  0  0
    5.5525   -2.6589   -1.2661 H   0  0  0  0  0  0  0  0  0  0  0  0
  1  2  2  0  0  0  0
  1  6  1  0  0  0  0
  2  3  1  0  0  0  0
  3  4  2  0  0  0  0
  4  9  1  0  0  0  0
  5  8  1  0  0  0  0
  5  4  1  0  0  0  0
  6  5  2  0  0  0  0
  7  1  1  0  0  0  0
 10  2  1  0  0  0  0
 11 10  1  0  0  0  0
 12 14  1  0  0  0  0
 12 11  1  0  0  0  0
 13 12  2  0  0  0  0
 14 18  1  0  0  0  0
 15 19  2  0  0  0  0
 15 13  1  0  0  0  0
 16 13  1  0  0  0  0
 17 21  1  0  0  0  0
 17 14  2  0  0  0  0
 19 17  1  0  0  0  0
 20 15  1  0  0  0  0
 22 24  2  0  0  0  0
 23 22  1  0  0  0  0
 25 23  2  0  0  0  0
 25 28  1  0  0  0  0
 26 23  1  0  0  0  0
 27 24  1  0  0  0  0
 27 29  1  0  0  0  0
 28 27  2  0  0  0  0
 30 28  1  0  0  0  0
 31 32  2  0  0  0  0
 31 19  1  0  0  0  0
 33 31  1  0  0  0  0
 34 33  1  0  0  0  0
 35  6  1  0  0  0  0
 35 37  1  0  0  0  0
 36 35  2  0  0  0  0
 38 37  1  0  0  0  0
 39 25  1  0  0  0  0
 40 39  2  0  0  0  0
 41 39  1  0  0  0  0
 42 41  1  0  0  0  0
M  RAD  5   3   2  10   2  11   2  22   2  24   2
M  END
