Coordinates from ORCA-job 1g-Schema5-R9-P1+-B3LYPG-6-31G_dp-scan-d49-09-n400
 OpenBabel08231810273D

 42 45  0  0  1  0  0  0  0  0999 V2000
   -2.0296    0.8418   -1.1295 C   0  0  0  0  0  0  0  0  0  0  0  0
   -0.9090    0.2470   -0.5758 C   0  0  0  0  0  0  0  0  0  0  0  0
   -0.4463    0.4768    0.7536 C   0  0  0  0  0  0  0  0  0  0  0  0
   -1.2205    1.3513    1.5590 C   0  0  0  0  0  0  0  0  0  0  0  0
   -2.3435    1.9598    1.0233 C   0  0  0  0  0  0  0  0  0  0  0  0
   -2.7483    1.7157   -0.3109 C   0  0  0  0  0  0  0  0  0  0  0  0
   -2.3501    0.6535   -2.1468 H   0  0  0  0  0  0  0  0  0  0  0  0
   -2.9358    2.6345    1.6305 H   0  0  0  0  0  0  0  0  0  0  0  0
   -0.9338    1.5214    2.5913 H   0  0  0  0  0  0  0  0  0  0  0  0
   -0.0473   -0.7032   -1.1803 N   0  0  0  0  0  0  0  0  0  0  0  0
   -0.4400   -1.3251   -2.2143 N   0  0  0  0  0  0  0  0  0  0  0  0
    0.1491   -2.3971   -2.8338 C   0  0  0  0  0  0  0  0  0  0  0  0
   -0.6822   -2.9084   -3.8667 C   0  0  0  0  0  0  0  0  0  0  0  0
    1.3849   -3.0457   -2.5566 C   0  0  0  0  0  0  0  0  0  0  0  0
   -0.3219   -4.0433   -4.5753 C   0  0  0  0  0  0  0  0  0  0  0  0
   -1.6129   -2.3907   -4.0696 H   0  0  0  0  0  0  0  0  0  0  0  0
    1.7293   -4.1795   -3.2651 C   0  0  0  0  0  0  0  0  0  0  0  0
    2.0848   -2.6564   -1.8338 H   0  0  0  0  0  0  0  0  0  0  0  0
    0.8843   -4.6865   -4.2703 C   0  0  0  0  0  0  0  0  0  0  0  0
   -0.9617   -4.4331   -5.3578 H   0  0  0  0  0  0  0  0  0  0  0  0
    2.6648   -4.6940   -3.0747 H   0  0  0  0  0  0  0  0  0  0  0  0
    0.5996   -0.1472    0.9915 C   0  0  1  0  0  0  0  0  0  0  0  0
    1.1230   -0.8791   -0.2504 C   0  0  2  0  0  0  0  0  0  0  0  0
    1.5551   -0.0708    1.9514 C   0  0  0  0  0  0  0  0  0  0  0  0
    2.4501   -0.1258   -0.6205 C   0  0  0  0  0  0  0  0  0  0  0  0
    1.3076   -1.9488   -0.1206 H   0  0  0  0  0  0  0  0  0  0  0  0
    2.8708   -0.0041    1.7985 C   0  0  0  0  0  0  0  0  0  0  0  0
    3.2560    0.2821    0.3922 C   0  0  0  0  0  0  0  0  0  0  0  0
    3.6281   -0.2378    2.5410 H   0  0  0  0  0  0  0  0  0  0  0  0
    4.2168    0.7308    0.1606 H   0  0  0  0  0  0  0  0  0  0  0  0
    1.3421   -5.9195   -4.9927 C   0  0  0  0  0  0  0  0  0  0  0  0
    2.3822   -6.4870   -4.7418 O   0  0  0  0  0  0  0  0  0  0  0  0
    0.4706   -6.3144   -5.9369 O   0  0  0  0  0  0  0  0  0  0  0  0
    0.8355   -7.1133   -6.3547 H   0  0  0  0  0  0  0  0  0  0  0  0
   -3.9583    2.3623   -0.9108 C   0  0  0  0  0  0  0  0  0  0  0  0
   -4.3273    2.1592   -2.0472 O   0  0  0  0  0  0  0  0  0  0  0  0
   -4.5839    3.1839   -0.0483 O   0  0  0  0  0  0  0  0  0  0  0  0
   -5.3531    3.5582   -0.5108 H   0  0  0  0  0  0  0  0  0  0  0  0
    2.8170    0.0991   -2.0380 C   0  0  0  0  0  0  0  0  0  0  0  0
    2.1293   -0.2446   -2.9828 O   0  0  0  0  0  0  0  0  0  0  0  0
    3.9846    0.7506   -2.1800 O   0  0  0  0  0  0  0  0  0  0  0  0
    4.1293    0.8781   -3.1331 H   0  0  0  0  0  0  0  0  0  0  0  0
  1  2  2  0  0  0  0
  1  6  1  0  0  0  0
  2  3  1  0  0  0  0
  3  4  2  0  0  0  0
  4  9  1  0  0  0  0
  5  4  1  0  0  0  0
  5  8  1  0  0  0  0
  6  5  2  0  0  0  0
  7  1  1  0  0  0  0
 10  2  1  0  0  0  0
 10 23  1  0  0  0  0
 11 10  1  0  0  0  0
 12 14  1  0  0  0  0
 12 11  1  0  0  0  0
 13 12  2  0  0  0  0
 14 18  1  0  0  0  0
 15 19  2  0  0  0  0
 15 13  1  0  0  0  0
 16 13  1  0  0  0  0
 17 21  1  0  0  0  0
 17 14  2  0  0  0  0
 19 17  1  0  0  0  0
 20 15  1  0  0  0  0
 22  3  1  6  0  0  0
 22 24  1  0  0  0  0
 23 26  1  1  0  0  0
 23 22  1  0  0  0  0
 25 23  1  0  0  0  0
 25 28  2  0  0  0  0
 27 24  2  0  0  0  0
 27 29  1  0  0  0  0
 28 27  1  0  0  0  0
 30 28  1  0  0  0  0
 31 32  2  0  0  0  0
 31 19  1  0  0  0  0
 33 31  1  0  0  0  0
 34 33  1  0  0  0  0
 35  6  1  0  0  0  0
 35 37  1  0  0  0  0
 36 35  2  0  0  0  0
 38 37  1  0  0  0  0
 39 25  1  0  0  0  0
 40 39  2  0  0  0  0
 41 39  1  0  0  0  0
 42 41  1  0  0  0  0
M  RAD  3  11   2  22   2  24   2
M  END
