Coordinates from ORCA-job 1g-Schema5-R9-P1+-B3LYPG-6-31G_dp-scan-d49-09-n400
 OpenBabel08231810273D

 42 45  0  0  1  0  0  0  0  0999 V2000
   -1.9833    0.5835   -1.0769 C   0  0  0  0  0  0  0  0  0  0  0  0
   -0.6457    0.2426   -0.9337 C   0  0  0  0  0  0  0  0  0  0  0  0
    0.2521    0.9376   -0.1154 C   0  0  0  0  0  0  0  0  0  0  0  0
   -0.2034    2.0445    0.5903 C   0  0  0  0  0  0  0  0  0  0  0  0
   -1.5510    2.4059    0.4793 C   0  0  0  0  0  0  0  0  0  0  0  0
   -2.4311    1.6908   -0.3522 C   0  0  0  0  0  0  0  0  0  0  0  0
   -2.6677    0.0192   -1.6999 H   0  0  0  0  0  0  0  0  0  0  0  0
   -1.9294    3.2577    1.0327 H   0  0  0  0  0  0  0  0  0  0  0  0
    0.4693    2.6217    1.2150 H   0  0  0  0  0  0  0  0  0  0  0  0
    0.0132   -0.8734   -1.4993 N   0  0  0  0  0  0  0  0  0  0  0  0
   -0.4891   -1.5282   -2.4508 N   0  0  0  0  0  0  0  0  0  0  0  0
    0.0281   -2.7088   -2.9559 C   0  0  0  0  0  0  0  0  0  0  0  0
   -0.3955   -2.9723   -4.2797 C   0  0  0  0  0  0  0  0  0  0  0  0
    0.8199   -3.6604   -2.2629 C   0  0  0  0  0  0  0  0  0  0  0  0
    0.0310   -4.1186   -4.9341 C   0  0  0  0  0  0  0  0  0  0  0  0
   -1.0379   -2.2488   -4.7698 H   0  0  0  0  0  0  0  0  0  0  0  0
    1.2024   -4.8194   -2.9154 C   0  0  0  0  0  0  0  0  0  0  0  0
    1.0629   -3.5373   -1.2151 H   0  0  0  0  0  0  0  0  0  0  0  0
    0.8325   -5.0448   -4.2527 C   0  0  0  0  0  0  0  0  0  0  0  0
   -0.2686   -4.3127   -5.9565 H   0  0  0  0  0  0  0  0  0  0  0  0
    1.7863   -5.5793   -2.4071 H   0  0  0  0  0  0  0  0  0  0  0  0
    1.0301   -1.6280    0.5998 C   0  0  0  0  0  0  0  0  0  0  0  0
    1.3038   -1.0627   -0.7182 C   0  0  2  0  0  0  0  0  0  0  0  0
    1.6784   -1.4003    1.6188 C   0  0  0  0  0  0  0  0  0  0  0  0
    1.6784    0.4312   -0.2998 C   0  0  2  0  0  0  0  0  0  0  0  0
    2.0300   -1.5715   -1.3512 H   0  0  0  0  0  0  0  0  0  0  0  0
    2.4759   -0.2704    1.9947 C   0  0  0  0  0  0  0  0  0  0  0  0
    2.5192    0.6107    0.9655 C   0  0  0  0  0  0  0  0  0  0  0  0
    3.0560   -0.1673    2.9033 H   0  0  0  0  0  0  0  0  0  0  0  0
    3.1455    1.4960    1.0095 H   0  0  0  0  0  0  0  0  0  0  0  0
    1.3053   -6.3178   -4.8904 C   0  0  0  0  0  0  0  0  0  0  0  0
    1.9954   -7.1312   -4.3172 O   0  0  0  0  0  0  0  0  0  0  0  0
    0.8789   -6.4449   -6.1595 O   0  0  0  0  0  0  0  0  0  0  0  0
    1.2225   -7.2895   -6.4982 H   0  0  0  0  0  0  0  0  0  0  0  0
   -3.8770    2.0588   -0.4980 C   0  0  0  0  0  0  0  0  0  0  0  0
   -4.6491    1.4527   -1.2074 O   0  0  0  0  0  0  0  0  0  0  0  0
   -4.2108    3.1317    0.2415 O   0  0  0  0  0  0  0  0  0  0  0  0
   -5.1558    3.3053    0.0911 H   0  0  0  0  0  0  0  0  0  0  0  0
    2.2883    1.1323   -1.5312 C   0  0  0  0  0  0  0  0  0  0  0  0
    2.2875    0.6324   -2.6326 O   0  0  0  0  0  0  0  0  0  0  0  0
    2.7717    2.3450   -1.2385 O   0  0  0  0  0  0  0  0  0  0  0  0
    3.1201    2.7387   -2.0587 H   0  0  0  0  0  0  0  0  0  0  0  0
  1  2  2  0  0  0  0
  1  6  1  0  0  0  0
  2  3  1  0  0  0  0
  3  4  2  0  0  0  0
  4  9  1  0  0  0  0
  5  4  1  0  0  0  0
  5  8  1  0  0  0  0
  6  5  2  0  0  0  0
  7  1  1  0  0  0  0
 10  2  1  0  0  0  0
 10 23  1  0  0  0  0
 11 10  1  0  0  0  0
 12 11  1  0  0  0  0
 12 14  2  0  0  0  0
 13 12  1  0  0  0  0
 14 18  1  0  0  0  0
 15 13  2  0  0  0  0
 15 19  1  0  0  0  0
 16 13  1  0  0  0  0
 17 21  1  0  0  0  0
 17 14  1  0  0  0  0
 19 17  2  0  0  0  0
 20 15  1  0  0  0  0
 22 24  1  0  0  0  0
 23 26  1  6  0  0  0
 23 25  1  0  0  0  0
 23 22  1  0  0  0  0
 24 27  2  0  0  0  0
 25 39  1  6  0  0  0
 25  3  1  0  0  0  0
 25 28  1  0  0  0  0
 27 29  1  0  0  0  0
 28 30  1  0  0  0  0
 28 27  1  0  0  0  0
 31 32  2  0  0  0  0
 31 19  1  0  0  0  0
 33 31  1  0  0  0  0
 34 33  1  0  0  0  0
 35  6  1  0  0  0  0
 35 37  1  0  0  0  0
 36 35  2  0  0  0  0
 38 37  1  0  0  0  0
 39 41  1  0  0  0  0
 40 39  2  0  0  0  0
 42 41  1  0  0  0  0
M  RAD  4  11   2  22   3  24   2  28   2
M  END
