Coordinates from ORCA-job 1g-Schema5-R9-P1+-B3LYPG-6-31G_dp-scan-d49-09-n400
 OpenBabel08231810273D

 42 45  0  0  1  0  0  0  0  0999 V2000
   -2.0328    0.8403   -1.1277 C   0  0  0  0  0  0  0  0  0  0  0  0
   -0.9091    0.2453   -0.5824 C   0  0  0  0  0  0  0  0  0  0  0  0
   -0.4269    0.4732    0.7473 C   0  0  0  0  0  0  0  0  0  0  0  0
   -1.2094    1.3475    1.5576 C   0  0  0  0  0  0  0  0  0  0  0  0
   -2.3335    1.9547    1.0298 C   0  0  0  0  0  0  0  0  0  0  0  0
   -2.7465    1.7131   -0.3041 C   0  0  0  0  0  0  0  0  0  0  0  0
   -2.3599    0.6519   -2.1429 H   0  0  0  0  0  0  0  0  0  0  0  0
   -2.9242    2.6263    1.6420 H   0  0  0  0  0  0  0  0  0  0  0  0
   -0.9211    1.5108    2.5907 H   0  0  0  0  0  0  0  0  0  0  0  0
   -0.0502   -0.7026   -1.1881 N   0  0  0  0  0  0  0  0  0  0  0  0
   -0.4401   -1.3224   -2.2258 N   0  0  0  0  0  0  0  0  0  0  0  0
    0.1485   -2.3969   -2.8404 C   0  0  0  0  0  0  0  0  0  0  0  0
   -0.6731   -2.9009   -3.8847 C   0  0  0  0  0  0  0  0  0  0  0  0
    1.3757   -3.0555   -2.5480 C   0  0  0  0  0  0  0  0  0  0  0  0
   -0.3115   -4.0369   -4.5907 C   0  0  0  0  0  0  0  0  0  0  0  0
   -1.5975   -2.3763   -4.0985 H   0  0  0  0  0  0  0  0  0  0  0  0
    1.7208   -4.1909   -3.2534 C   0  0  0  0  0  0  0  0  0  0  0  0
    2.0681   -2.6736   -1.8142 H   0  0  0  0  0  0  0  0  0  0  0  0
    0.8858   -4.6896   -4.2710 C   0  0  0  0  0  0  0  0  0  0  0  0
   -0.9438   -4.4207   -5.3822 H   0  0  0  0  0  0  0  0  0  0  0  0
    2.6496   -4.7130   -3.0511 H   0  0  0  0  0  0  0  0  0  0  0  0
    0.5820   -0.1170    0.9746 C   0  0  1  0  0  0  0  0  0  0  0  0
    1.1184   -0.8708   -0.2542 C   0  0  2  0  0  0  0  0  0  0  0  0
    1.5399   -0.0430    1.9446 C   0  0  0  0  0  0  0  0  0  0  0  0
    2.4474   -0.1274   -0.6269 C   0  0  0  0  0  0  0  0  0  0  0  0
    1.2970   -1.9386   -0.1023 H   0  0  0  0  0  0  0  0  0  0  0  0
    2.8554    0.0164    1.7930 C   0  0  0  0  0  0  0  0  0  0  0  0
    3.2497    0.2857    0.3862 C   0  0  0  0  0  0  0  0  0  0  0  0
    3.6086   -0.2053    2.5435 H   0  0  0  0  0  0  0  0  0  0  0  0
    4.2117    0.7328    0.1564 H   0  0  0  0  0  0  0  0  0  0  0  0
    1.3441   -5.9244   -4.9899 C   0  0  0  0  0  0  0  0  0  0  0  0
    2.3767   -6.5000   -4.7267 O   0  0  0  0  0  0  0  0  0  0  0  0
    0.4821   -6.3111   -5.9462 O   0  0  0  0  0  0  0  0  0  0  0  0
    0.8468   -7.1119   -6.3608 H   0  0  0  0  0  0  0  0  0  0  0  0
   -3.9609    2.3591   -0.8949 C   0  0  0  0  0  0  0  0  0  0  0  0
   -4.3352    2.1597   -2.0302 O   0  0  0  0  0  0  0  0  0  0  0  0
   -4.5813    3.1790   -0.0270 O   0  0  0  0  0  0  0  0  0  0  0  0
   -5.3530    3.5547   -0.4843 H   0  0  0  0  0  0  0  0  0  0  0  0
    2.8200    0.0915   -2.0440 C   0  0  0  0  0  0  0  0  0  0  0  0
    2.1308   -0.2445   -2.9904 O   0  0  0  0  0  0  0  0  0  0  0  0
    3.9962    0.7280   -2.1834 O   0  0  0  0  0  0  0  0  0  0  0  0
    4.1443    0.8540   -3.1362 H   0  0  0  0  0  0  0  0  0  0  0  0
  1  2  2  0  0  0  0
  1  6  1  0  0  0  0
  2  3  1  0  0  0  0
  3  4  2  0  0  0  0
  4  9  1  0  0  0  0
  5  4  1  0  0  0  0
  5  8  1  0  0  0  0
  6  5  2  0  0  0  0
  7  1  1  0  0  0  0
 10  2  1  0  0  0  0
 10 23  1  0  0  0  0
 11 10  1  0  0  0  0
 12 14  1  0  0  0  0
 12 11  1  0  0  0  0
 13 12  2  0  0  0  0
 14 18  1  0  0  0  0
 15 19  2  0  0  0  0
 15 13  1  0  0  0  0
 16 13  1  0  0  0  0
 17 21  1  0  0  0  0
 17 14  2  0  0  0  0
 19 17  1  0  0  0  0
 20 15  1  0  0  0  0
 22  3  1  6  0  0  0
 22 24  1  0  0  0  0
 23 26  1  1  0  0  0
 23 22  1  0  0  0  0
 25 23  1  0  0  0  0
 25 28  2  0  0  0  0
 27 24  2  0  0  0  0
 27 29  1  0  0  0  0
 28 27  1  0  0  0  0
 30 28  1  0  0  0  0
 31 32  2  0  0  0  0
 31 19  1  0  0  0  0
 33 31  1  0  0  0  0
 34 33  1  0  0  0  0
 35  6  1  0  0  0  0
 35 37  1  0  0  0  0
 36 35  2  0  0  0  0
 38 37  1  0  0  0  0
 39 25  1  0  0  0  0
 40 39  2  0  0  0  0
 41 39  1  0  0  0  0
 42 41  1  0  0  0  0
M  RAD  3  11   2  22   2  24   2
M  END
