Coordinates from ORCA-job 1g-Schema5-R9-P1+-B3LYPG-6-31G_dp-scan-d49-09-n400
 OpenBabel08231810273D

 42 45  0  0  1  0  0  0  0  0999 V2000
   -2.0081    0.8433   -1.1388 C   0  0  0  0  0  0  0  0  0  0  0  0
   -0.9035    0.2467   -0.5504 C   0  0  0  0  0  0  0  0  0  0  0  0
   -0.5117    0.4828    0.7824 C   0  0  0  0  0  0  0  0  0  0  0  0
   -1.2761    1.3521    1.5716 C   0  0  0  0  0  0  0  0  0  0  0  0
   -2.3877    1.9652    1.0004 C   0  0  0  0  0  0  0  0  0  0  0  0
   -2.7507    1.7183   -0.3412 C   0  0  0  0  0  0  0  0  0  0  0  0
   -2.2980    0.6583   -2.1658 H   0  0  0  0  0  0  0  0  0  0  0  0
   -2.9936    2.6452    1.5880 H   0  0  0  0  0  0  0  0  0  0  0  0
   -1.0094    1.5321    2.6072 H   0  0  0  0  0  0  0  0  0  0  0  0
   -0.0296   -0.7104   -1.1454 N   0  0  0  0  0  0  0  0  0  0  0  0
   -0.4306   -1.3377   -2.1700 N   0  0  0  0  0  0  0  0  0  0  0  0
    0.1542   -2.4027   -2.8084 C   0  0  0  0  0  0  0  0  0  0  0  0
   -0.7142   -2.9359   -3.7987 C   0  0  0  0  0  0  0  0  0  0  0  0
    1.4167   -3.0221   -2.5903 C   0  0  0  0  0  0  0  0  0  0  0  0
   -0.3653   -4.0677   -4.5184 C   0  0  0  0  0  0  0  0  0  0  0  0
   -1.6638   -2.4383   -3.9594 H   0  0  0  0  0  0  0  0  0  0  0  0
    1.7511   -4.1507   -3.3123 C   0  0  0  0  0  0  0  0  0  0  0  0
    2.1451   -2.6105   -1.9100 H   0  0  0  0  0  0  0  0  0  0  0  0
    0.8682   -4.6826   -4.2706 C   0  0  0  0  0  0  0  0  0  0  0  0
   -1.0345   -4.4752   -5.2667 H   0  0  0  0  0  0  0  0  0  0  0  0
    2.7070   -4.6422   -3.1683 H   0  0  0  0  0  0  0  0  0  0  0  0
    0.6678   -0.2614    1.0563 C   0  0  1  0  0  0  0  0  0  0  0  0
    1.1528   -0.9085   -0.2326 C   0  0  2  0  0  0  0  0  0  0  0  0
    1.6238   -0.1697    1.9834 C   0  0  0  0  0  0  0  0  0  0  0  0
    2.4651   -0.1113   -0.5929 C   0  0  0  0  0  0  0  0  0  0  0  0
    1.3622   -1.9796   -0.1785 H   0  0  0  0  0  0  0  0  0  0  0  0
    2.9369   -0.0614    1.8220 C   0  0  0  0  0  0  0  0  0  0  0  0
    3.2828    0.2810    0.4172 C   0  0  0  0  0  0  0  0  0  0  0  0
    3.7136   -0.3114    2.5381 H   0  0  0  0  0  0  0  0  0  0  0  0
    4.2340    0.7461    0.1786 H   0  0  0  0  0  0  0  0  0  0  0  0
    1.3168   -5.9099   -5.0092 C   0  0  0  0  0  0  0  0  0  0  0  0
    2.3807   -6.4523   -4.8077 O   0  0  0  0  0  0  0  0  0  0  0  0
    0.4087   -6.3287   -5.9072 O   0  0  0  0  0  0  0  0  0  0  0  0
    0.7701   -7.1216   -6.3394 H   0  0  0  0  0  0  0  0  0  0  0  0
   -3.9408    2.3671   -0.9795 C   0  0  0  0  0  0  0  0  0  0  0  0
   -4.2757    2.1631   -2.1261 O   0  0  0  0  0  0  0  0  0  0  0  0
   -4.5887    3.1948   -0.1395 O   0  0  0  0  0  0  0  0  0  0  0  0
   -5.3420    3.5699   -0.6268 H   0  0  0  0  0  0  0  0  0  0  0  0
    2.8079    0.1486   -2.0103 C   0  0  0  0  0  0  0  0  0  0  0  0
    2.1252   -0.2129   -2.9526 O   0  0  0  0  0  0  0  0  0  0  0  0
    3.9457    0.8497   -2.1561 O   0  0  0  0  0  0  0  0  0  0  0  0
    4.0770    0.9911   -3.1091 H   0  0  0  0  0  0  0  0  0  0  0  0
  1  2  2  0  0  0  0
  1  6  1  0  0  0  0
  2  3  1  0  0  0  0
  3  4  2  0  0  0  0
  4  9  1  0  0  0  0
  5  4  1  0  0  0  0
  5  8  1  0  0  0  0
  6  5  2  0  0  0  0
  7  1  1  0  0  0  0
 10  2  1  0  0  0  0
 10 23  1  0  0  0  0
 11 10  1  0  0  0  0
 12 14  1  0  0  0  0
 12 11  1  0  0  0  0
 13 12  2  0  0  0  0
 14 18  1  0  0  0  0
 15 19  2  0  0  0  0
 15 13  1  0  0  0  0
 16 13  1  0  0  0  0
 17 21  1  0  0  0  0
 17 14  2  0  0  0  0
 19 17  1  0  0  0  0
 20 15  1  0  0  0  0
 22  3  1  6  0  0  0
 22 24  1  0  0  0  0
 23 26  1  1  0  0  0
 23 22  1  0  0  0  0
 25 23  1  0  0  0  0
 25 28  2  0  0  0  0
 27 24  1  0  0  0  0
 27 29  1  0  0  0  0
 28 27  1  0  0  0  0
 30 28  1  0  0  0  0
 31 32  2  0  0  0  0
 31 19  1  0  0  0  0
 33 31  1  0  0  0  0
 34 33  1  0  0  0  0
 35  6  1  0  0  0  0
 35 37  1  0  0  0  0
 36 35  2  0  0  0  0
 38 37  1  0  0  0  0
 39 25  1  0  0  0  0
 40 39  2  0  0  0  0
 41 39  1  0  0  0  0
 42 41  1  0  0  0  0
M  RAD  4  11   2  22   2  24   3  27   2
M  END
