Coordinates from ORCA-job 1g-Schema5-R9-P1+-B3LYPG-6-31G_dp-scan-d49-09-n400
 OpenBabel08231810273D

 42 45  0  0  1  0  0  0  0  0999 V2000
   -1.9014    0.6775   -1.3267 C   0  0  0  0  0  0  0  0  0  0  0  0
   -0.5786    0.3451   -1.0501 C   0  0  0  0  0  0  0  0  0  0  0  0
    0.2433    1.1148   -0.2218 C   0  0  0  0  0  0  0  0  0  0  0  0
   -0.2645    2.2737    0.3567 C   0  0  0  0  0  0  0  0  0  0  0  0
   -1.5914    2.6277    0.0974 C   0  0  0  0  0  0  0  0  0  0  0  0
   -2.4047    1.8355   -0.7339 C   0  0  0  0  0  0  0  0  0  0  0  0
   -2.5287    0.0760   -1.9737 H   0  0  0  0  0  0  0  0  0  0  0  0
   -2.0070    3.5268    0.5369 H   0  0  0  0  0  0  0  0  0  0  0  0
    0.3581    2.8973    0.9885 H   0  0  0  0  0  0  0  0  0  0  0  0
    0.1163   -0.7761   -1.5757 N   0  0  0  0  0  0  0  0  0  0  0  0
   -0.5132   -1.6410   -2.2493 N   0  0  0  0  0  0  0  0  0  0  0  0
    0.0268   -2.7432   -2.8768 C   0  0  0  0  0  0  0  0  0  0  0  0
   -0.9743   -3.6756   -3.2546 C   0  0  0  0  0  0  0  0  0  0  0  0
    1.3831   -2.9964   -3.2199 C   0  0  0  0  0  0  0  0  0  0  0  0
   -0.6337   -4.8578   -3.8913 C   0  0  0  0  0  0  0  0  0  0  0  0
   -2.0055   -3.4419   -3.0146 H   0  0  0  0  0  0  0  0  0  0  0  0
    1.7039   -4.1667   -3.8859 C   0  0  0  0  0  0  0  0  0  0  0  0
    2.1657   -2.2794   -3.0240 H   0  0  0  0  0  0  0  0  0  0  0  0
    0.7102   -5.1064   -4.2073 C   0  0  0  0  0  0  0  0  0  0  0  0
   -1.3950   -5.5801   -4.1601 H   0  0  0  0  0  0  0  0  0  0  0  0
    2.7273   -4.3798   -4.1740 H   0  0  0  0  0  0  0  0  0  0  0  0
    2.0050   -1.9875   -0.4764 C   0  0  0  0  0  0  0  0  0  0  0  0
    1.5758   -0.7400   -1.1332 C   0  0  2  0  0  0  0  0  0  0  0  0
    2.3250   -2.0384    0.7040 C   0  0  0  0  0  0  0  0  0  0  0  0
    1.6324    0.4809   -0.0876 C   0  0  2  0  0  0  0  0  0  0  0  0
    2.1618   -0.4434   -2.0102 H   0  0  0  0  0  0  0  0  0  0  0  0
    2.3161   -1.1144    1.7964 C   0  0  0  0  0  0  0  0  0  0  0  0
    1.9456    0.1167    1.3698 C   0  0  0  0  0  0  0  0  0  0  0  0
    2.5614   -1.3372    2.8273 H   0  0  0  0  0  0  0  0  0  0  0  0
    1.8895    0.9391    2.0761 H   0  0  0  0  0  0  0  0  0  0  0  0
    1.1491   -6.3573   -4.9114 C   0  0  0  0  0  0  0  0  0  0  0  0
    2.3031   -6.5862   -5.1984 O   0  0  0  0  0  0  0  0  0  0  0  0
    0.1218   -7.1828   -5.1786 O   0  0  0  0  0  0  0  0  0  0  0  0
    0.4860   -7.9643   -5.6288 H   0  0  0  0  0  0  0  0  0  0  0  0
   -3.8307    2.1878   -1.0348 C   0  0  0  0  0  0  0  0  0  0  0  0
   -4.5470    1.5164   -1.7440 O   0  0  0  0  0  0  0  0  0  0  0  0
   -4.2167    3.3256   -0.4295 O   0  0  0  0  0  0  0  0  0  0  0  0
   -5.1446    3.4839   -0.6741 H   0  0  0  0  0  0  0  0  0  0  0  0
    2.6941    1.4845   -0.6131 C   0  0  0  0  0  0  0  0  0  0  0  0
    3.2167    1.4100   -1.6992 O   0  0  0  0  0  0  0  0  0  0  0  0
    2.9277    2.4584    0.2778 O   0  0  0  0  0  0  0  0  0  0  0  0
    3.5808    3.0691   -0.1092 H   0  0  0  0  0  0  0  0  0  0  0  0
  1  2  2  0  0  0  0
  1  6  1  0  0  0  0
  2  3  1  0  0  0  0
  3 25  1  0  0  0  0
  3  4  2  0  0  0  0
  4  9  1  0  0  0  0
  5  4  1  0  0  0  0
  5  8  1  0  0  0  0
  6  5  2  0  0  0  0
  7  1  1  0  0  0  0
 10 23  1  0  0  0  0
 10  2  1  0  0  0  0
 11 10  1  0  0  0  0
 12 11  1  0  0  0  0
 13 16  1  0  0  0  0
 13 12  2  0  0  0  0
 14 18  1  0  0  0  0
 14 12  1  0  0  0  0
 15 13  1  0  0  0  0
 17 14  2  0  0  0  0
 19 15  2  0  0  0  0
 19 17  1  0  0  0  0
 20 15  1  0  0  0  0
 21 17  1  0  0  0  0
 22 24  2  0  0  0  0
 23 26  1  6  0  0  0
 23 22  1  0  0  0  0
 23 25  1  0  0  0  0
 24 27  1  0  0  0  0
 25 39  1  6  0  0  0
 25 28  1  0  0  0  0
 27 29  1  0  0  0  0
 28 27  2  0  0  0  0
 28 30  1  0  0  0  0
 31 19  1  0  0  0  0
 32 31  2  0  0  0  0
 33 31  1  0  0  0  0
 34 33  1  0  0  0  0
 35  6  1  0  0  0  0
 35 37  1  0  0  0  0
 36 35  2  0  0  0  0
 38 37  1  0  0  0  0
 39 41  1  0  0  0  0
 40 39  2  0  0  0  0
 42 41  1  0  0  0  0
M  RAD  3  11   2  22   2  24   2
M  END
