Coordinates from ORCA-job 1g-Schema5-R9-P1+-B3LYPG-6-31G_dp-scan-d49-09-n400
 OpenBabel08231810273D

 42 45  0  0  1  0  0  0  0  0999 V2000
   -1.9853    0.5986   -1.0779 C   0  0  0  0  0  0  0  0  0  0  0  0
   -0.6506    0.2465   -0.9464 C   0  0  0  0  0  0  0  0  0  0  0  0
    0.2532    0.9036   -0.1009 C   0  0  0  0  0  0  0  0  0  0  0  0
   -0.1945    1.9928    0.6354 C   0  0  0  0  0  0  0  0  0  0  0  0
   -1.5413    2.3642    0.5391 C   0  0  0  0  0  0  0  0  0  0  0  0
   -2.4261    1.6843   -0.3158 C   0  0  0  0  0  0  0  0  0  0  0  0
   -2.6740    0.0582   -1.7173 H   0  0  0  0  0  0  0  0  0  0  0  0
   -1.9138    3.2002    1.1202 H   0  0  0  0  0  0  0  0  0  0  0  0
    0.4831    2.5480    1.2748 H   0  0  0  0  0  0  0  0  0  0  0  0
    0.0019   -0.8679   -1.5224 N   0  0  0  0  0  0  0  0  0  0  0  0
   -0.4843   -1.5029   -2.4939 N   0  0  0  0  0  0  0  0  0  0  0  0
    0.0303   -2.6916   -2.9859 C   0  0  0  0  0  0  0  0  0  0  0  0
   -0.3080   -2.9285   -4.3378 C   0  0  0  0  0  0  0  0  0  0  0  0
    0.7372   -3.6743   -2.2480 C   0  0  0  0  0  0  0  0  0  0  0  0
    0.1289   -4.0824   -4.9725 C   0  0  0  0  0  0  0  0  0  0  0  0
   -0.8903   -2.1804   -4.8645 H   0  0  0  0  0  0  0  0  0  0  0  0
    1.1282   -4.8402   -2.8834 C   0  0  0  0  0  0  0  0  0  0  0  0
    0.9033   -3.5678   -1.1828 H   0  0  0  0  0  0  0  0  0  0  0  0
    0.8492   -5.0406   -4.2464 C   0  0  0  0  0  0  0  0  0  0  0  0
   -0.1030   -4.2577   -6.0159 H   0  0  0  0  0  0  0  0  0  0  0  0
    1.6468   -5.6245   -2.3425 H   0  0  0  0  0  0  0  0  0  0  0  0
    0.9113   -1.4895    0.6542 C   0  0  0  0  0  0  0  0  0  0  0  0
    1.2656   -1.0748   -0.6999 C   0  0  2  0  0  0  0  0  0  0  0  0
    1.5913   -1.2916    1.6629 C   0  0  0  0  0  0  0  0  0  0  0  0
    1.6829    0.4197   -0.3349 C   0  0  2  0  0  0  0  0  0  0  0  0
    1.9847   -1.6662   -1.2634 H   0  0  0  0  0  0  0  0  0  0  0  0
    2.4715   -0.2042    1.9732 C   0  0  0  0  0  0  0  0  0  0  0  0
    2.5661    0.6148    0.8961 C   0  0  0  0  0  0  0  0  0  0  0  0
    3.0727   -0.1003    2.8682 H   0  0  0  0  0  0  0  0  0  0  0  0
    3.2582    1.4506    0.8768 H   0  0  0  0  0  0  0  0  0  0  0  0
    1.3249   -6.3226   -4.8632 C   0  0  0  0  0  0  0  0  0  0  0  0
    1.9450   -7.1640   -4.2513 O   0  0  0  0  0  0  0  0  0  0  0  0
    0.9864   -6.4245   -6.1609 O   0  0  0  0  0  0  0  0  0  0  0  0
    1.3258   -7.2770   -6.4833 H   0  0  0  0  0  0  0  0  0  0  0  0
   -3.8694    2.0664   -0.4487 C   0  0  0  0  0  0  0  0  0  0  0  0
   -4.6454    1.4895   -1.1780 O   0  0  0  0  0  0  0  0  0  0  0  0
   -4.1974    3.1132    0.3299 O   0  0  0  0  0  0  0  0  0  0  0  0
   -5.1417    3.2968    0.1867 H   0  0  0  0  0  0  0  0  0  0  0  0
    2.2482    1.0970   -1.5983 C   0  0  0  0  0  0  0  0  0  0  0  0
    2.2216    0.5699   -2.6868 O   0  0  0  0  0  0  0  0  0  0  0  0
    2.7353    2.3171   -1.3467 O   0  0  0  0  0  0  0  0  0  0  0  0
    3.0608    2.6927   -2.1846 H   0  0  0  0  0  0  0  0  0  0  0  0
  1  2  2  0  0  0  0
  1  6  1  0  0  0  0
  2  3  1  0  0  0  0
  3  4  2  0  0  0  0
  4  9  1  0  0  0  0
  5  4  1  0  0  0  0
  5  8  1  0  0  0  0
  6  5  2  0  0  0  0
  7  1  1  0  0  0  0
 10  2  1  0  0  0  0
 10 23  1  0  0  0  0
 11 10  1  0  0  0  0
 12 11  1  0  0  0  0
 12 14  2  0  0  0  0
 13 12  1  0  0  0  0
 14 18  1  0  0  0  0
 15 13  2  0  0  0  0
 15 19  1  0  0  0  0
 16 13  1  0  0  0  0
 17 21  1  0  0  0  0
 17 14  1  0  0  0  0
 19 17  2  0  0  0  0
 20 15  1  0  0  0  0
 22 24  1  0  0  0  0
 23 26  1  6  0  0  0
 23 25  1  0  0  0  0
 23 22  1  0  0  0  0
 24 27  2  0  0  0  0
 25 39  1  6  0  0  0
 25  3  1  0  0  0  0
 25 28  1  0  0  0  0
 27 29  1  0  0  0  0
 28 27  1  0  0  0  0
 30 28  1  0  0  0  0
 31 32  2  0  0  0  0
 31 19  1  0  0  0  0
 33 31  1  0  0  0  0
 34 33  1  0  0  0  0
 35  6  1  0  0  0  0
 35 37  1  0  0  0  0
 36 35  2  0  0  0  0
 38 37  1  0  0  0  0
 39 41  1  0  0  0  0
 40 39  2  0  0  0  0
 42 41  1  0  0  0  0
M  RAD  4  11   2  22   3  24   2  28   2
M  END
