Coordinates from ORCA-job 1g-Schema5-R9-P1+-B3LYPG-6-31G_dp-scan-d49-09-n400
 OpenBabel08231810273D

 42 45  0  0  1  0  0  0  0  0999 V2000
   -1.9008    0.6742   -1.3245 C   0  0  0  0  0  0  0  0  0  0  0  0
   -0.5775    0.3428   -1.0486 C   0  0  0  0  0  0  0  0  0  0  0  0
    0.2441    1.1120   -0.2199 C   0  0  0  0  0  0  0  0  0  0  0  0
   -0.2650    2.2698    0.3601 C   0  0  0  0  0  0  0  0  0  0  0  0
   -1.5923    2.6229    0.1017 C   0  0  0  0  0  0  0  0  0  0  0  0
   -2.4051    1.8310   -0.7304 C   0  0  0  0  0  0  0  0  0  0  0  0
   -2.5275    0.0726   -1.9720 H   0  0  0  0  0  0  0  0  0  0  0  0
   -2.0086    3.5211    0.5425 H   0  0  0  0  0  0  0  0  0  0  0  0
    0.3571    2.8937    0.9921 H   0  0  0  0  0  0  0  0  0  0  0  0
    0.1182   -0.7773   -1.5747 N   0  0  0  0  0  0  0  0  0  0  0  0
   -0.5093   -1.6397   -2.2533 N   0  0  0  0  0  0  0  0  0  0  0  0
    0.0301   -2.7428   -2.8798 C   0  0  0  0  0  0  0  0  0  0  0  0
   -0.9738   -3.6674   -3.2697 C   0  0  0  0  0  0  0  0  0  0  0  0
    1.3878   -3.0052   -3.2106 C   0  0  0  0  0  0  0  0  0  0  0  0
   -0.6359   -4.8499   -3.9072 C   0  0  0  0  0  0  0  0  0  0  0  0
   -2.0055   -3.4271   -3.0384 H   0  0  0  0  0  0  0  0  0  0  0  0
    1.7065   -4.1759   -3.8768 C   0  0  0  0  0  0  0  0  0  0  0  0
    2.1743   -2.2955   -3.0040 H   0  0  0  0  0  0  0  0  0  0  0  0
    0.7091   -5.1072   -4.2111 C   0  0  0  0  0  0  0  0  0  0  0  0
   -1.3998   -5.5658   -4.1853 H   0  0  0  0  0  0  0  0  0  0  0  0
    2.7311   -4.3958   -4.1553 H   0  0  0  0  0  0  0  0  0  0  0  0
    1.9927   -1.9877   -0.4557 C   0  0  0  0  0  0  0  0  0  0  0  0
    1.5757   -0.7444   -1.1254 C   0  0  2  0  0  0  0  0  0  0  0  0
    2.3170   -2.0342    0.7235 C   0  0  0  0  0  0  0  0  0  0  0  0
    1.6345    0.4825   -0.0872 C   0  0  2  0  0  0  0  0  0  0  0  0
    2.1675   -0.4581   -2.0020 H   0  0  0  0  0  0  0  0  0  0  0  0
    2.3170   -1.1008    1.8082 C   0  0  0  0  0  0  0  0  0  0  0  0
    1.9529    0.1288    1.3718 C   0  0  0  0  0  0  0  0  0  0  0  0
    2.5657   -1.3157    2.8398 H   0  0  0  0  0  0  0  0  0  0  0  0
    1.9055    0.9580    2.0707 H   0  0  0  0  0  0  0  0  0  0  0  0
    1.1458   -6.3590   -4.9149 C   0  0  0  0  0  0  0  0  0  0  0  0
    2.3008   -6.5950   -5.1920 O   0  0  0  0  0  0  0  0  0  0  0  0
    0.1154   -7.1767   -5.1938 O   0  0  0  0  0  0  0  0  0  0  0  0
    0.4782   -7.9594   -5.6430 H   0  0  0  0  0  0  0  0  0  0  0  0
   -3.8315    2.1821   -1.0304 C   0  0  0  0  0  0  0  0  0  0  0  0
   -4.5470    1.5115   -1.7411 O   0  0  0  0  0  0  0  0  0  0  0  0
   -4.2181    3.3196   -0.4248 O   0  0  0  0  0  0  0  0  0  0  0  0
   -5.1459    3.4777   -0.6697 H   0  0  0  0  0  0  0  0  0  0  0  0
    2.6921    1.4851   -0.6228 C   0  0  0  0  0  0  0  0  0  0  0  0
    3.2124    1.4037   -1.7096 O   0  0  0  0  0  0  0  0  0  0  0  0
    2.9254    2.4663    0.2601 O   0  0  0  0  0  0  0  0  0  0  0  0
    3.5760    3.0757   -0.1332 H   0  0  0  0  0  0  0  0  0  0  0  0
  1  2  2  0  0  0  0
  1  6  1  0  0  0  0
  2  3  1  0  0  0  0
  3 25  1  0  0  0  0
  3  4  2  0  0  0  0
  4  9  1  0  0  0  0
  5  4  1  0  0  0  0
  5  8  1  0  0  0  0
  6  5  2  0  0  0  0
  7  1  1  0  0  0  0
 10 23  1  0  0  0  0
 10  2  1  0  0  0  0
 11 10  1  0  0  0  0
 12 11  1  0  0  0  0
 13 16  1  0  0  0  0
 13 12  2  0  0  0  0
 14 18  1  0  0  0  0
 14 12  1  0  0  0  0
 15 13  1  0  0  0  0
 17 14  2  0  0  0  0
 19 15  2  0  0  0  0
 19 17  1  0  0  0  0
 20 15  1  0  0  0  0
 21 17  1  0  0  0  0
 22 24  2  0  0  0  0
 23 26  1  6  0  0  0
 23 22  1  0  0  0  0
 23 25  1  0  0  0  0
 24 27  1  0  0  0  0
 25 39  1  6  0  0  0
 25 28  1  0  0  0  0
 27 29  1  0  0  0  0
 28 27  2  0  0  0  0
 28 30  1  0  0  0  0
 31 19  1  0  0  0  0
 32 31  2  0  0  0  0
 33 31  1  0  0  0  0
 34 33  1  0  0  0  0
 35  6  1  0  0  0  0
 35 37  1  0  0  0  0
 36 35  2  0  0  0  0
 38 37  1  0  0  0  0
 39 41  1  0  0  0  0
 40 39  2  0  0  0  0
 42 41  1  0  0  0  0
M  RAD  3  11   2  22   2  24   2
M  END
