Coordinates from ORCA-job 1g-Schema5-R9-P1+-B3LYPG-6-31G_dp-scan-d49-09-n400
 OpenBabel08231810273D

 42 45  0  0  1  0  0  0  0  0999 V2000
   -1.9692    0.5467   -1.0866 C   0  0  0  0  0  0  0  0  0  0  0  0
   -0.6278    0.2297   -0.9064 C   0  0  0  0  0  0  0  0  0  0  0  0
    0.2510    1.0019   -0.1419 C   0  0  0  0  0  0  0  0  0  0  0  0
   -0.2241    2.1552    0.4741 C   0  0  0  0  0  0  0  0  0  0  0  0
   -1.5716    2.4940    0.3194 C   0  0  0  0  0  0  0  0  0  0  0  0
   -2.4366    1.7009   -0.4571 C   0  0  0  0  0  0  0  0  0  0  0  0
   -2.6393   -0.0695   -1.6745 H   0  0  0  0  0  0  0  0  0  0  0  0
   -1.9637    3.3836    0.7985 H   0  0  0  0  0  0  0  0  0  0  0  0
    0.4350    2.7867    1.0592 H   0  0  0  0  0  0  0  0  0  0  0  0
    0.0449   -0.8988   -1.4317 N   0  0  0  0  0  0  0  0  0  0  0  0
   -0.4919   -1.6087   -2.3264 N   0  0  0  0  0  0  0  0  0  0  0  0
    0.0286   -2.7649   -2.8727 C   0  0  0  0  0  0  0  0  0  0  0  0
   -0.6232   -3.1153   -4.0824 C   0  0  0  0  0  0  0  0  0  0  0  0
    1.0429   -3.6124   -2.3512 C   0  0  0  0  0  0  0  0  0  0  0  0
   -0.2330   -4.2391   -4.7932 C   0  0  0  0  0  0  0  0  0  0  0  0
   -1.4195   -2.4712   -4.4396 H   0  0  0  0  0  0  0  0  0  0  0  0
    1.3980   -4.7488   -3.0558 C   0  0  0  0  0  0  0  0  0  0  0  0
    1.4946   -3.4316   -1.3860 H   0  0  0  0  0  0  0  0  0  0  0  0
    0.7817   -5.0588   -4.2805 C   0  0  0  0  0  0  0  0  0  0  0  0
   -0.7151   -4.4961   -5.7283 H   0  0  0  0  0  0  0  0  0  0  0  0
    2.1553   -5.4258   -2.6749 H   0  0  0  0  0  0  0  0  0  0  0  0
    1.3335   -1.8586    0.4517 C   0  0  0  0  0  0  0  0  0  0  0  0
    1.3978   -1.0241   -0.7491 C   0  0  2  0  0  0  0  0  0  0  0  0
    1.9064   -1.6052    1.5051 C   0  0  0  0  0  0  0  0  0  0  0  0
    1.6748    0.4589   -0.2097 C   0  0  2  0  0  0  0  0  0  0  0  0
    2.1139   -1.3338   -1.5130 H   0  0  0  0  0  0  0  0  0  0  0  0
    2.4821   -0.4112    2.0469 C   0  0  0  0  0  0  0  0  0  0  0  0
    2.3922    0.5890    1.1385 C   0  0  0  0  0  0  0  0  0  0  0  0
    2.9903   -0.3150    2.9979 H   0  0  0  0  0  0  0  0  0  0  0  0
    2.8347    1.5584    1.3439 H   0  0  0  0  0  0  0  0  0  0  0  0
    1.2405   -6.3022   -4.9847 C   0  0  0  0  0  0  0  0  0  0  0  0
    2.1120   -7.0246   -4.5551 O   0  0  0  0  0  0  0  0  0  0  0  0
    0.5744   -6.5160   -6.1330 O   0  0  0  0  0  0  0  0  0  0  0  0
    0.9229   -7.3358   -6.5235 H   0  0  0  0  0  0  0  0  0  0  0  0
   -3.8850    2.0391   -0.6456 C   0  0  0  0  0  0  0  0  0  0  0  0
   -4.6441    1.3679   -1.3090 O   0  0  0  0  0  0  0  0  0  0  0  0
   -4.2372    3.1653    0.0004 O   0  0  0  0  0  0  0  0  0  0  0  0
   -5.1825    3.3153   -0.1725 H   0  0  0  0  0  0  0  0  0  0  0  0
    2.4135    1.2264   -1.3321 C   0  0  0  0  0  0  0  0  0  0  0  0
    2.5638    0.7836   -2.4465 O   0  0  0  0  0  0  0  0  0  0  0  0
    2.8184    2.4372   -0.9281 O   0  0  0  0  0  0  0  0  0  0  0  0
    3.2500    2.8785   -1.6817 H   0  0  0  0  0  0  0  0  0  0  0  0
  1  2  2  0  0  0  0
  1  6  1  0  0  0  0
  2  3  1  0  0  0  0
  3  4  2  0  0  0  0
  4  9  1  0  0  0  0
  5  4  1  0  0  0  0
  5  8  1  0  0  0  0
  6  5  2  0  0  0  0
  7  1  1  0  0  0  0
 10  2  1  0  0  0  0
 10 23  1  0  0  0  0
 11 10  1  0  0  0  0
 12 14  1  0  0  0  0
 12 11  1  0  0  0  0
 13 12  2  0  0  0  0
 14 18  1  0  0  0  0
 15 19  2  0  0  0  0
 15 13  1  0  0  0  0
 16 13  1  0  0  0  0
 17 21  1  0  0  0  0
 17 14  2  0  0  0  0
 19 17  1  0  0  0  0
 20 15  1  0  0  0  0
 22 24  1  0  0  0  0
 23 26  1  6  0  0  0
 23 25  1  0  0  0  0
 23 22  1  0  0  0  0
 24 27  2  0  0  0  0
 25 39  1  6  0  0  0
 25  3  1  0  0  0  0
 25 28  1  0  0  0  0
 27 29  1  0  0  0  0
 28 30  1  0  0  0  0
 28 27  1  0  0  0  0
 31 32  2  0  0  0  0
 31 19  1  0  0  0  0
 33 31  1  0  0  0  0
 34 33  1  0  0  0  0
 35  6  1  0  0  0  0
 35 37  1  0  0  0  0
 36 35  2  0  0  0  0
 38 37  1  0  0  0  0
 39 41  1  0  0  0  0
 40 39  2  0  0  0  0
 42 41  1  0  0  0  0
M  RAD  4  11   2  22   3  24   2  28   2
M  END
