Coordinates from ORCA-job 1g-Schema5-R9-P1+-B3LYPG-6-31G_dp-scan-d49-09-n400
 OpenBabel08231810273D

 42 45  0  0  1  0  0  0  0  0999 V2000
   -1.9843    0.6183   -1.0823 C   0  0  0  0  0  0  0  0  0  0  0  0
   -0.6574    0.2434   -0.9512 C   0  0  0  0  0  0  0  0  0  0  0  0
    0.2494    0.8444   -0.0609 C   0  0  0  0  0  0  0  0  0  0  0  0
   -0.1893    1.9232    0.6979 C   0  0  0  0  0  0  0  0  0  0  0  0
   -1.5306    2.3142    0.6048 C   0  0  0  0  0  0  0  0  0  0  0  0
   -2.4178    1.6813   -0.2833 C   0  0  0  0  0  0  0  0  0  0  0  0
   -2.6743    0.1124   -1.7481 H   0  0  0  0  0  0  0  0  0  0  0  0
   -1.8954    3.1366    1.2100 H   0  0  0  0  0  0  0  0  0  0  0  0
    0.4920    2.4518    1.3556 H   0  0  0  0  0  0  0  0  0  0  0  0
   -0.0148   -0.8742   -1.5313 N   0  0  0  0  0  0  0  0  0  0  0  0
   -0.4796   -1.4883   -2.5256 N   0  0  0  0  0  0  0  0  0  0  0  0
    0.0317   -2.6834   -3.0072 C   0  0  0  0  0  0  0  0  0  0  0  0
   -0.2261   -2.8937   -4.3802 C   0  0  0  0  0  0  0  0  0  0  0  0
    0.6609   -3.6940   -2.2387 C   0  0  0  0  0  0  0  0  0  0  0  0
    0.2223   -4.0511   -5.0014 C   0  0  0  0  0  0  0  0  0  0  0  0
   -0.7528   -2.1238   -4.9332 H   0  0  0  0  0  0  0  0  0  0  0  0
    1.0628   -4.8621   -2.8630 C   0  0  0  0  0  0  0  0  0  0  0  0
    0.7540   -3.6052   -1.1625 H   0  0  0  0  0  0  0  0  0  0  0  0
    0.8693   -5.0371   -4.2443 C   0  0  0  0  0  0  0  0  0  0  0  0
    0.0544   -4.2071   -6.0602 H   0  0  0  0  0  0  0  0  0  0  0  0
    1.5222   -5.6678   -2.3006 H   0  0  0  0  0  0  0  0  0  0  0  0
    0.7862   -1.2989    0.7206 C   0  0  0  0  0  0  0  0  0  0  0  0
    1.2195   -1.0945   -0.6629 C   0  0  2  0  0  0  0  0  0  0  0  0
    1.5168   -1.1600    1.7141 C   0  0  0  0  0  0  0  0  0  0  0  0
    1.6890    0.3981   -0.3670 C   0  0  2  0  0  0  0  0  0  0  0  0
    1.9178   -1.7827   -1.1314 H   0  0  0  0  0  0  0  0  0  0  0  0
    2.4868   -0.1343    1.9455 C   0  0  0  0  0  0  0  0  0  0  0  0
    2.6265    0.6070    0.8151 C   0  0  0  0  0  0  0  0  0  0  0  0
    3.1147   -0.0298    2.8223 H   0  0  0  0  0  0  0  0  0  0  0  0
    3.3851    1.3775    0.7215 H   0  0  0  0  0  0  0  0  0  0  0  0
    1.3515   -6.3231   -4.8474 C   0  0  0  0  0  0  0  0  0  0  0  0
    1.9098   -7.1877   -4.2089 O   0  0  0  0  0  0  0  0  0  0  0  0
    1.0952   -6.4000   -6.1655 O   0  0  0  0  0  0  0  0  0  0  0  0
    1.4337   -7.2568   -6.4774 H   0  0  0  0  0  0  0  0  0  0  0  0
   -3.8523    2.0912   -0.4172 C   0  0  0  0  0  0  0  0  0  0  0  0
   -4.6285    1.5565   -1.1781 O   0  0  0  0  0  0  0  0  0  0  0  0
   -4.1738    3.1118    0.3984 O   0  0  0  0  0  0  0  0  0  0  0  0
   -5.1133    3.3156    0.2512 H   0  0  0  0  0  0  0  0  0  0  0  0
    2.1926    1.0579   -1.6628 C   0  0  0  0  0  0  0  0  0  0  0  0
    2.1560    0.5009   -2.7360 O   0  0  0  0  0  0  0  0  0  0  0  0
    2.6436    2.3000   -1.4551 O   0  0  0  0  0  0  0  0  0  0  0  0
    2.9358    2.6641   -2.3103 H   0  0  0  0  0  0  0  0  0  0  0  0
  1  2  2  0  0  0  0
  1  6  1  0  0  0  0
  2  3  1  0  0  0  0
  3  4  2  0  0  0  0
  4  9  1  0  0  0  0
  5  4  1  0  0  0  0
  5  8  1  0  0  0  0
  6  5  2  0  0  0  0
  7  1  1  0  0  0  0
 10  2  1  0  0  0  0
 10 23  1  0  0  0  0
 11 10  1  0  0  0  0
 12 11  1  0  0  0  0
 12 14  2  0  0  0  0
 13 12  1  0  0  0  0
 14 18  1  0  0  0  0
 15 13  2  0  0  0  0
 15 19  1  0  0  0  0
 16 13  1  0  0  0  0
 17 21  1  0  0  0  0
 17 14  1  0  0  0  0
 19 17  2  0  0  0  0
 20 15  1  0  0  0  0
 22 24  1  0  0  0  0
 23 26  1  6  0  0  0
 23 25  1  0  0  0  0
 23 22  1  0  0  0  0
 24 27  2  0  0  0  0
 25 39  1  6  0  0  0
 25  3  1  0  0  0  0
 25 28  1  0  0  0  0
 27 29  1  0  0  0  0
 28 27  1  0  0  0  0
 30 28  1  0  0  0  0
 31 19  1  0  0  0  0
 31 32  2  0  0  0  0
 33 31  1  0  0  0  0
 34 33  1  0  0  0  0
 35  6  1  0  0  0  0
 35 37  1  0  0  0  0
 36 35  2  0  0  0  0
 38 37  1  0  0  0  0
 39 41  1  0  0  0  0
 40 39  2  0  0  0  0
 42 41  1  0  0  0  0
M  RAD  4  11   2  22   3  24   2  28   2
M  END
