Coordinates from ORCA-job 1g-Schema5-R9-P1+-B3LYPG-6-31G_dp-scan-d49-09-n400
 OpenBabel08231810273D

 42 45  0  0  1  0  0  0  0  0999 V2000
   -1.9575    0.8389   -1.1468 C   0  0  0  0  0  0  0  0  0  0  0  0
   -0.8916    0.2276   -0.4958 C   0  0  0  0  0  0  0  0  0  0  0  0
   -0.6108    0.4835    0.8418 C   0  0  0  0  0  0  0  0  0  0  0  0
   -1.3721    1.3541    1.6010 C   0  0  0  0  0  0  0  0  0  0  0  0
   -2.4464    1.9810    0.9598 C   0  0  0  0  0  0  0  0  0  0  0  0
   -2.7332    1.7276   -0.3958 C   0  0  0  0  0  0  0  0  0  0  0  0
   -2.1920    0.6556   -2.1883 H   0  0  0  0  0  0  0  0  0  0  0  0
   -3.0736    2.6747    1.5079 H   0  0  0  0  0  0  0  0  0  0  0  0
   -1.1526    1.5398    2.6460 H   0  0  0  0  0  0  0  0  0  0  0  0
   -0.0110   -0.7469   -1.0716 N   0  0  0  0  0  0  0  0  0  0  0  0
   -0.4258   -1.3746   -2.0878 N   0  0  0  0  0  0  0  0  0  0  0  0
    0.1517   -2.4256   -2.7588 C   0  0  0  0  0  0  0  0  0  0  0  0
   -0.7661   -2.9927   -3.6834 C   0  0  0  0  0  0  0  0  0  0  0  0
    1.4509   -2.9935   -2.6386 C   0  0  0  0  0  0  0  0  0  0  0  0
   -0.4306   -4.1148   -4.4248 C   0  0  0  0  0  0  0  0  0  0  0  0
   -1.7421   -2.5300   -3.7756 H   0  0  0  0  0  0  0  0  0  0  0  0
    1.7745   -4.1080   -3.3877 C   0  0  0  0  0  0  0  0  0  0  0  0
    2.2146   -2.5463   -2.0231 H   0  0  0  0  0  0  0  0  0  0  0  0
    0.8418   -4.6795   -4.2728 C   0  0  0  0  0  0  0  0  0  0  0  0
   -1.1388   -4.5506   -5.1192 H   0  0  0  0  0  0  0  0  0  0  0  0
    2.7589   -4.5579   -3.3206 H   0  0  0  0  0  0  0  0  0  0  0  0
    0.7901   -0.5004    1.1650 C   0  0  1  0  0  0  0  0  0  0  0  0
    1.2022   -0.9752   -0.2030 C   0  0  2  0  0  0  0  0  0  0  0  0
    1.7602   -0.3764    2.0387 C   0  0  0  0  0  0  0  0  0  0  0  0
    2.4682   -0.0907   -0.5469 C   0  0  0  0  0  0  0  0  0  0  0  0
    1.4541   -2.0351   -0.2787 H   0  0  0  0  0  0  0  0  0  0  0  0
    3.0567   -0.1502    1.8526 C   0  0  0  0  0  0  0  0  0  0  0  0
    3.3103    0.2796    0.4527 C   0  0  0  0  0  0  0  0  0  0  0  0
    3.8784   -0.3657    2.5275 H   0  0  0  0  0  0  0  0  0  0  0  0
    4.2327    0.7919    0.1984 H   0  0  0  0  0  0  0  0  0  0  0  0
    1.2807   -5.8907   -5.0435 C   0  0  0  0  0  0  0  0  0  0  0  0
    2.3771   -6.3906   -4.9227 O   0  0  0  0  0  0  0  0  0  0  0  0
    0.3240   -6.3480   -5.8691 O   0  0  0  0  0  0  0  0  0  0  0  0
    0.6823   -7.1278   -6.3271 H   0  0  0  0  0  0  0  0  0  0  0  0
   -3.8768    2.3874   -1.1054 C   0  0  0  0  0  0  0  0  0  0  0  0
   -4.1505    2.1790   -2.2672 O   0  0  0  0  0  0  0  0  0  0  0  0
   -4.5615    3.2283   -0.3087 O   0  0  0  0  0  0  0  0  0  0  0  0
   -5.2821    3.6074   -0.8404 H   0  0  0  0  0  0  0  0  0  0  0  0
    2.7544    0.2471   -1.9603 C   0  0  0  0  0  0  0  0  0  0  0  0
    2.0743   -0.1295   -2.8990 O   0  0  0  0  0  0  0  0  0  0  0  0
    3.8342    1.0343   -2.1077 O   0  0  0  0  0  0  0  0  0  0  0  0
    3.9326    1.2137   -3.0583 H   0  0  0  0  0  0  0  0  0  0  0  0
  1  2  2  0  0  0  0
  1  6  1  0  0  0  0
  2  3  1  0  0  0  0
  3  4  2  0  0  0  0
  4  9  1  0  0  0  0
  5  8  1  0  0  0  0
  5  4  1  0  0  0  0
  6  5  2  0  0  0  0
  7  1  1  0  0  0  0
 10  2  1  0  0  0  0
 10 23  1  0  0  0  0
 11 10  1  0  0  0  0
 12 14  1  0  0  0  0
 12 11  1  0  0  0  0
 13 12  2  0  0  0  0
 14 18  1  0  0  0  0
 15 19  2  0  0  0  0
 15 13  1  0  0  0  0
 16 13  1  0  0  0  0
 17 21  1  0  0  0  0
 17 14  2  0  0  0  0
 19 17  1  0  0  0  0
 20 15  1  0  0  0  0
 22  3  1  6  0  0  0
 22 24  1  0  0  0  0
 23 26  1  1  0  0  0
 23 22  1  0  0  0  0
 25 23  1  0  0  0  0
 25 28  2  0  0  0  0
 27 24  1  0  0  0  0
 27 29  1  0  0  0  0
 28 27  1  0  0  0  0
 30 28  1  0  0  0  0
 31 32  2  0  0  0  0
 31 19  1  0  0  0  0
 33 31  1  0  0  0  0
 34 33  1  0  0  0  0
 35  6  1  0  0  0  0
 35 37  1  0  0  0  0
 36 35  2  0  0  0  0
 38 37  1  0  0  0  0
 39 25  1  0  0  0  0
 40 39  2  0  0  0  0
 41 39  1  0  0  0  0
 42 41  1  0  0  0  0
M  RAD  4  11   2  22   2  24   3  27   2
M  END
