Coordinates from ORCA-job 1g-Schema5-R9-P1+-B3LYPG-6-31G_dp-scan-d49-09-n400
 OpenBabel08231810273D

 42 45  0  0  1  0  0  0  0  0999 V2000
   -1.9821    0.6265   -1.0854 C   0  0  0  0  0  0  0  0  0  0  0  0
   -0.6611    0.2360   -0.9460 C   0  0  0  0  0  0  0  0  0  0  0  0
    0.2437    0.8072   -0.0285 C   0  0  0  0  0  0  0  0  0  0  0  0
   -0.1927    1.8877    0.7333 C   0  0  0  0  0  0  0  0  0  0  0  0
   -1.5282    2.2921    0.6318 C   0  0  0  0  0  0  0  0  0  0  0  0
   -2.4138    1.6816   -0.2750 C   0  0  0  0  0  0  0  0  0  0  0  0
   -2.6695    0.1391   -1.7677 H   0  0  0  0  0  0  0  0  0  0  0  0
   -1.8902    3.1119    1.2422 H   0  0  0  0  0  0  0  0  0  0  0  0
    0.4876    2.4040    1.4018 H   0  0  0  0  0  0  0  0  0  0  0  0
   -0.0229   -0.8830   -1.5259 N   0  0  0  0  0  0  0  0  0  0  0  0
   -0.4776   -1.4887   -2.5304 N   0  0  0  0  0  0  0  0  0  0  0  0
    0.0326   -2.6846   -3.0099 C   0  0  0  0  0  0  0  0  0  0  0  0
   -0.1992   -2.8846   -4.3890 C   0  0  0  0  0  0  0  0  0  0  0  0
    0.6377   -3.7052   -2.2353 C   0  0  0  0  0  0  0  0  0  0  0  0
    0.2532   -4.0414   -5.0083 C   0  0  0  0  0  0  0  0  0  0  0  0
   -0.7084   -2.1070   -4.9477 H   0  0  0  0  0  0  0  0  0  0  0  0
    1.0439   -4.8723   -2.8585 C   0  0  0  0  0  0  0  0  0  0  0  0
    0.7070   -3.6243   -1.1565 H   0  0  0  0  0  0  0  0  0  0  0  0
    0.8775   -5.0370   -4.2447 C   0  0  0  0  0  0  0  0  0  0  0  0
    0.1057   -4.1896   -6.0713 H   0  0  0  0  0  0  0  0  0  0  0  0
    1.4850   -5.6853   -2.2920 H   0  0  0  0  0  0  0  0  0  0  0  0
    0.7477   -1.2142    0.7479 C   0  0  0  0  0  0  0  0  0  0  0  0
    1.2030   -1.1050   -0.6434 C   0  0  2  0  0  0  0  0  0  0  0  0
    1.5058   -1.1098    1.7329 C   0  0  0  0  0  0  0  0  0  0  0  0
    1.6922    0.3866   -0.3763 C   0  0  2  0  0  0  0  0  0  0  0  0
    1.8895   -1.8290   -1.0718 H   0  0  0  0  0  0  0  0  0  0  0  0
    2.5073   -0.1117    1.9308 C   0  0  0  0  0  0  0  0  0  0  0  0
    2.6550    0.5999    0.7799 C   0  0  0  0  0  0  0  0  0  0  0  0
    3.1487   -0.0063    2.7978 H   0  0  0  0  0  0  0  0  0  0  0  0
    3.4335    1.3459    0.6559 H   0  0  0  0  0  0  0  0  0  0  0  0
    1.3623   -6.3228   -4.8460 C   0  0  0  0  0  0  0  0  0  0  0  0
    1.9018   -7.1951   -4.2017 O   0  0  0  0  0  0  0  0  0  0  0  0
    1.1315   -6.3901   -6.1692 O   0  0  0  0  0  0  0  0  0  0  0  0
    1.4701   -7.2474   -6.4797 H   0  0  0  0  0  0  0  0  0  0  0  0
   -3.8409    2.1103   -0.4197 C   0  0  0  0  0  0  0  0  0  0  0  0
   -4.6144    1.5967   -1.1979 O   0  0  0  0  0  0  0  0  0  0  0  0
   -4.1608    3.1220    0.4079 O   0  0  0  0  0  0  0  0  0  0  0  0
   -5.0961    3.3384    0.2525 H   0  0  0  0  0  0  0  0  0  0  0  0
    2.1600    1.0480   -1.6834 C   0  0  0  0  0  0  0  0  0  0  0  0
    2.1228    0.4829   -2.7523 O   0  0  0  0  0  0  0  0  0  0  0  0
    2.5845    2.3016   -1.4887 O   0  0  0  0  0  0  0  0  0  0  0  0
    2.8578    2.6670   -2.3496 H   0  0  0  0  0  0  0  0  0  0  0  0
  1  2  2  0  0  0  0
  1  6  1  0  0  0  0
  2  3  1  0  0  0  0
  3  4  2  0  0  0  0
  4  9  1  0  0  0  0
  5  4  1  0  0  0  0
  5  8  1  0  0  0  0
  6  5  2  0  0  0  0
  7  1  1  0  0  0  0
 10  2  1  0  0  0  0
 10 23  1  0  0  0  0
 11 10  1  0  0  0  0
 12 11  1  0  0  0  0
 12 14  2  0  0  0  0
 13 12  1  0  0  0  0
 14 18  1  0  0  0  0
 15 13  2  0  0  0  0
 15 19  1  0  0  0  0
 16 13  1  0  0  0  0
 17 21  1  0  0  0  0
 17 14  1  0  0  0  0
 19 17  2  0  0  0  0
 20 15  1  0  0  0  0
 22 24  1  0  0  0  0
 23 26  1  6  0  0  0
 23 25  1  0  0  0  0
 23 22  1  0  0  0  0
 24 27  2  0  0  0  0
 25 39  1  6  0  0  0
 25  3  1  0  0  0  0
 25 28  1  0  0  0  0
 27 29  1  0  0  0  0
 28 27  1  0  0  0  0
 30 28  1  0  0  0  0
 31 19  1  0  0  0  0
 31 32  2  0  0  0  0
 33 31  1  0  0  0  0
 34 33  1  0  0  0  0
 35  6  1  0  0  0  0
 35 37  1  0  0  0  0
 36 35  2  0  0  0  0
 38 37  1  0  0  0  0
 39 41  1  0  0  0  0
 40 39  2  0  0  0  0
 42 41  1  0  0  0  0
M  RAD  4  11   2  22   3  24   2  28   2
M  END
