Coordinates from ORCA-job 1g-Schema5-R9-P1+-B3LYPG-6-31G_dp-scan-d49-09-n400
 OpenBabel08231810273D

 42 45  0  0  1  0  0  0  0  0999 V2000
   -1.9855    0.6019   -1.0784 C   0  0  0  0  0  0  0  0  0  0  0  0
   -0.6518    0.2469   -0.9484 C   0  0  0  0  0  0  0  0  0  0  0  0
    0.2531    0.8954   -0.0966 C   0  0  0  0  0  0  0  0  0  0  0  0
   -0.1929    1.9819    0.6448 C   0  0  0  0  0  0  0  0  0  0  0  0
   -1.5393    2.3559    0.5505 C   0  0  0  0  0  0  0  0  0  0  0  0
   -2.4249    1.6835   -0.3094 C   0  0  0  0  0  0  0  0  0  0  0  0
   -2.6749    0.0668   -1.7215 H   0  0  0  0  0  0  0  0  0  0  0  0
   -1.9104    3.1890    1.1366 H   0  0  0  0  0  0  0  0  0  0  0  0
    0.4856    2.5325    1.2871 H   0  0  0  0  0  0  0  0  0  0  0  0
   -0.0009   -0.8678   -1.5256 N   0  0  0  0  0  0  0  0  0  0  0  0
   -0.4836   -1.4991   -2.5010 N   0  0  0  0  0  0  0  0  0  0  0  0
    0.0305   -2.6892   -2.9908 C   0  0  0  0  0  0  0  0  0  0  0  0
   -0.2927   -2.9214   -4.3470 C   0  0  0  0  0  0  0  0  0  0  0  0
    0.7228   -3.6769   -2.2462 C   0  0  0  0  0  0  0  0  0  0  0  0
    0.1463   -4.0763   -4.9786 C   0  0  0  0  0  0  0  0  0  0  0  0
   -0.8646   -2.1693   -4.8794 H   0  0  0  0  0  0  0  0  0  0  0  0
    1.1157   -4.8436   -2.8789 C   0  0  0  0  0  0  0  0  0  0  0  0
    0.8752   -3.5734   -1.1785 H   0  0  0  0  0  0  0  0  0  0  0  0
    0.8527   -5.0397   -4.2457 C   0  0  0  0  0  0  0  0  0  0  0  0
   -0.0735   -4.2484   -6.0252 H   0  0  0  0  0  0  0  0  0  0  0  0
    1.6231   -5.6319   -2.3332 H   0  0  0  0  0  0  0  0  0  0  0  0
    0.8875   -1.4583    0.6656 C   0  0  0  0  0  0  0  0  0  0  0  0
    1.2573   -1.0778   -0.6947 C   0  0  2  0  0  0  0  0  0  0  0  0
    1.5751   -1.2687    1.6720 C   0  0  0  0  0  0  0  0  0  0  0  0
    1.6838    0.4165   -0.3413 C   0  0  2  0  0  0  0  0  0  0  0  0
    1.9738   -1.6863   -1.2424 H   0  0  0  0  0  0  0  0  0  0  0  0
    2.4715   -0.1912    1.9689 C   0  0  0  0  0  0  0  0  0  0  0  0
    2.5757    0.6145    0.8823 C   0  0  0  0  0  0  0  0  0  0  0  0
    3.0770   -0.0871    2.8611 H   0  0  0  0  0  0  0  0  0  0  0  0
    3.2804    1.4393    0.8502 H   0  0  0  0  0  0  0  0  0  0  0  0
    1.3295   -6.3228   -4.8593 C   0  0  0  0  0  0  0  0  0  0  0  0
    1.9376   -7.1686   -4.2417 O   0  0  0  0  0  0  0  0  0  0  0  0
    1.0066   -6.4203   -6.1613 O   0  0  0  0  0  0  0  0  0  0  0  0
    1.3457   -7.2738   -6.4813 H   0  0  0  0  0  0  0  0  0  0  0  0
   -3.8672    2.0693   -0.4406 C   0  0  0  0  0  0  0  0  0  0  0  0
   -4.6438    1.4988   -1.1745 O   0  0  0  0  0  0  0  0  0  0  0  0
   -4.1940    3.1111    0.3451 O   0  0  0  0  0  0  0  0  0  0  0  0
   -5.1378    3.2972    0.2025 H   0  0  0  0  0  0  0  0  0  0  0  0
    2.2400    1.0893   -1.6106 C   0  0  0  0  0  0  0  0  0  0  0  0
    2.2107    0.5564   -2.6963 O   0  0  0  0  0  0  0  0  0  0  0  0
    2.7245    2.3121   -1.3672 O   0  0  0  0  0  0  0  0  0  0  0  0
    3.0455    2.6845   -2.2083 H   0  0  0  0  0  0  0  0  0  0  0  0
  1  2  2  0  0  0  0
  1  6  1  0  0  0  0
  2  3  1  0  0  0  0
  3  4  2  0  0  0  0
  4  9  1  0  0  0  0
  5  4  1  0  0  0  0
  5  8  1  0  0  0  0
  6  5  2  0  0  0  0
  7  1  1  0  0  0  0
 10  2  1  0  0  0  0
 10 23  1  0  0  0  0
 11 10  1  0  0  0  0
 12 11  1  0  0  0  0
 12 14  2  0  0  0  0
 13 12  1  0  0  0  0
 14 18  1  0  0  0  0
 15 13  2  0  0  0  0
 15 19  1  0  0  0  0
 16 13  1  0  0  0  0
 17 21  1  0  0  0  0
 17 14  1  0  0  0  0
 19 17  2  0  0  0  0
 20 15  1  0  0  0  0
 22 24  1  0  0  0  0
 23 26  1  6  0  0  0
 23 25  1  0  0  0  0
 23 22  1  0  0  0  0
 24 27  2  0  0  0  0
 25 39  1  6  0  0  0
 25  3  1  0  0  0  0
 25 28  1  0  0  0  0
 27 29  1  0  0  0  0
 28 27  1  0  0  0  0
 30 28  1  0  0  0  0
 31 19  1  0  0  0  0
 31 32  2  0  0  0  0
 33 31  1  0  0  0  0
 34 33  1  0  0  0  0
 35  6  1  0  0  0  0
 35 37  1  0  0  0  0
 36 35  2  0  0  0  0
 38 37  1  0  0  0  0
 39 41  1  0  0  0  0
 40 39  2  0  0  0  0
 42 41  1  0  0  0  0
M  RAD  4  11   2  22   3  24   2  28   2
M  END
