Coordinates from ORCA-job 1g-Schema5-R9-P1+-B3LYPG-6-31G_dp-scan-d49-09-n400
 OpenBabel08231810273D

 42 43  0  0  0  0  0  0  0  0999 V2000
   -3.0631    0.4284   -1.2432 C   0  0  0  0  0  0  0  0  0  0  0  0
   -1.7086    0.1817   -0.8261 C   0  0  0  0  0  0  0  0  0  0  0  0
   -1.5916    1.0202    0.1995 C   0  0  0  0  0  0  0  0  0  0  0  0
   -2.2323    1.9441    0.9347 C   0  0  0  0  0  0  0  0  0  0  0  0
   -3.5481    2.1070    0.4416 C   0  0  0  0  0  0  0  0  0  0  0  0
   -3.9449    1.3296   -0.6612 C   0  0  0  0  0  0  0  0  0  0  0  0
   -3.3298   -0.1979   -2.1046 H   0  0  0  0  0  0  0  0  0  0  0  0
   -4.2151    2.8182    0.9171 H   0  0  0  0  0  0  0  0  0  0  0  0
   -1.8226    2.4903    1.7773 H   0  0  0  0  0  0  0  0  0  0  0  0
   -0.8563   -0.7496   -1.4595 N   0  0  0  0  0  0  0  0  0  0  0  0
   -1.3697   -1.3528   -2.4288 N   0  0  0  0  0  0  0  0  0  0  0  0
   -0.6051   -2.2858   -3.1180 C   0  0  0  0  0  0  0  0  0  0  0  0
   -1.2618   -2.9168   -4.1958 C   0  0  0  0  0  0  0  0  0  0  0  0
    0.7345   -2.6017   -2.7949 C   0  0  0  0  0  0  0  0  0  0  0  0
   -0.5838   -3.8628   -4.9520 C   0  0  0  0  0  0  0  0  0  0  0  0
   -2.2895   -2.6482   -4.4145 H   0  0  0  0  0  0  0  0  0  0  0  0
    1.3982   -3.5442   -3.5576 C   0  0  0  0  0  0  0  0  0  0  0  0
    1.2435   -2.1209   -1.9684 H   0  0  0  0  0  0  0  0  0  0  0  0
    0.7466   -4.1764   -4.6336 C   0  0  0  0  0  0  0  0  0  0  0  0
   -1.0701   -4.3575   -5.7837 H   0  0  0  0  0  0  0  0  0  0  0  0
    2.4259   -3.8041   -3.3330 H   0  0  0  0  0  0  0  0  0  0  0  0
    2.4682    0.9968    1.5175 C   0  0  0  0  0  0  0  0  0  0  0  0
    2.5929   -0.0718    0.6446 C   0  0  0  0  0  0  0  0  0  0  0  0
    3.4450    1.5759    2.0457 C   0  0  0  0  0  0  0  0  0  0  0  0
    3.9506   -0.4214    0.4219 C   0  0  0  0  0  0  0  0  0  0  0  0
    1.7974   -0.6222    0.1561 H   0  0  0  0  0  0  0  0  0  0  0  0
    4.8005    1.3510    1.9265 C   0  0  0  0  0  0  0  0  0  0  0  0
    5.0143    0.2685    1.0464 C   0  0  0  0  0  0  0  0  0  0  0  0
    5.6098    1.8840    2.4099 H   0  0  0  0  0  0  0  0  0  0  0  0
    6.0324   -0.0463    0.8436 H   0  0  0  0  0  0  0  0  0  0  0  0
    1.5317   -5.1869   -5.4161 C   0  0  0  0  0  0  0  0  0  0  0  0
    2.6863   -5.4668   -5.1783 O   0  0  0  0  0  0  0  0  0  0  0  0
    0.8115   -5.7453   -6.4077 O   0  0  0  0  0  0  0  0  0  0  0  0
    1.3912   -6.3821   -6.8594 H   0  0  0  0  0  0  0  0  0  0  0  0
   -5.3164    1.4205   -1.2704 C   0  0  0  0  0  0  0  0  0  0  0  0
   -5.6611    0.7536   -2.2180 O   0  0  0  0  0  0  0  0  0  0  0  0
   -6.0859    2.3171   -0.6344 O   0  0  0  0  0  0  0  0  0  0  0  0
   -6.9543    2.3312   -1.0733 H   0  0  0  0  0  0  0  0  0  0  0  0
    4.2061   -1.5562   -0.5083 C   0  0  0  0  0  0  0  0  0  0  0  0
    3.3350   -2.1561   -1.1170 O   0  0  0  0  0  0  0  0  0  0  0  0
    5.5093   -1.8726   -0.6222 O   0  0  0  0  0  0  0  0  0  0  0  0
    5.5690   -2.6209   -1.2398 H   0  0  0  0  0  0  0  0  0  0  0  0
  1  2  2  0  0  0  0
  1  6  1  0  0  0  0
  2  3  1  0  0  0  0
  3  4  2  0  0  0  0
  4  9  1  0  0  0  0
  5  8  1  0  0  0  0
  5  4  1  0  0  0  0
  6  5  2  0  0  0  0
  7  1  1  0  0  0  0
 10  2  1  0  0  0  0
 11 10  1  0  0  0  0
 12 14  1  0  0  0  0
 12 11  1  0  0  0  0
 13 12  2  0  0  0  0
 14 18  1  0  0  0  0
 15 19  2  0  0  0  0
 15 13  1  0  0  0  0
 16 13  1  0  0  0  0
 17 21  1  0  0  0  0
 17 14  2  0  0  0  0
 19 17  1  0  0  0  0
 20 15  1  0  0  0  0
 22 24  2  0  0  0  0
 23 22  1  0  0  0  0
 25 23  2  0  0  0  0
 25 28  1  0  0  0  0
 26 23  1  0  0  0  0
 27 24  1  0  0  0  0
 27 29  1  0  0  0  0
 28 27  2  0  0  0  0
 30 28  1  0  0  0  0
 31 32  2  0  0  0  0
 31 19  1  0  0  0  0
 33 31  1  0  0  0  0
 34 33  1  0  0  0  0
 35  6  1  0  0  0  0
 35 37  1  0  0  0  0
 36 35  2  0  0  0  0
 38 37  1  0  0  0  0
 39 25  1  0  0  0  0
 40 39  2  0  0  0  0
 41 39  1  0  0  0  0
 42 41  1  0  0  0  0
M  RAD  5   3   2  10   2  11   2  22   2  24   2
M  END
