Coordinates from ORCA-job 1g-Schema5-R9-P1+-B3LYPG-6-31G_dp-scan-d49-09-n400
 OpenBabel08231810273D

 42 45  0  0  1  0  0  0  0  0999 V2000
   -1.8949    0.7094   -1.3506 C   0  0  0  0  0  0  0  0  0  0  0  0
   -0.5800    0.3746   -1.0450 C   0  0  0  0  0  0  0  0  0  0  0  0
    0.2260    1.1709   -0.2217 C   0  0  0  0  0  0  0  0  0  0  0  0
   -0.2725    2.3451    0.3228 C   0  0  0  0  0  0  0  0  0  0  0  0
   -1.5943    2.6984    0.0287 C   0  0  0  0  0  0  0  0  0  0  0  0
   -2.3972    1.8882   -0.7941 C   0  0  0  0  0  0  0  0  0  0  0  0
   -2.5194    0.0998   -1.9929 H   0  0  0  0  0  0  0  0  0  0  0  0
   -2.0128    3.6110    0.4361 H   0  0  0  0  0  0  0  0  0  0  0  0
    0.3447    2.9751    0.9536 H   0  0  0  0  0  0  0  0  0  0  0  0
    0.1135   -0.7710   -1.5510 N   0  0  0  0  0  0  0  0  0  0  0  0
   -0.5468   -1.6674   -2.1528 N   0  0  0  0  0  0  0  0  0  0  0  0
   -0.0106   -2.7532   -2.8102 C   0  0  0  0  0  0  0  0  0  0  0  0
   -0.9564   -3.7927   -3.0035 C   0  0  0  0  0  0  0  0  0  0  0  0
    1.2932   -2.8765   -3.3614 C   0  0  0  0  0  0  0  0  0  0  0  0
   -0.5900   -4.9613   -3.6498 C   0  0  0  0  0  0  0  0  0  0  0  0
   -1.9585   -3.6539   -2.6137 H   0  0  0  0  0  0  0  0  0  0  0  0
    1.6308   -4.0333   -4.0437 C   0  0  0  0  0  0  0  0  0  0  0  0
    2.0015   -2.0617   -3.3235 H   0  0  0  0  0  0  0  0  0  0  0  0
    0.7079   -5.0839   -4.1711 C   0  0  0  0  0  0  0  0  0  0  0  0
   -1.3003   -5.7697   -3.7751 H   0  0  0  0  0  0  0  0  0  0  0  0
    2.6107   -4.1488   -4.4931 H   0  0  0  0  0  0  0  0  0  0  0  0
    2.2161   -2.0200   -0.7475 C   0  0  0  0  0  0  0  0  0  0  0  0
    1.5961   -0.7000   -1.1956 C   0  0  2  0  0  0  0  0  0  0  0  0
    2.4484   -2.0647    0.4604 C   0  0  0  0  0  0  0  0  0  0  0  0
    1.6096    0.4623   -0.0660 C   0  0  2  0  0  0  0  0  0  0  0  0
    2.1033   -0.2753   -2.0693 H   0  0  0  0  0  0  0  0  0  0  0  0
    2.3296   -1.2834    1.6459 C   0  0  0  0  0  0  0  0  0  0  0  0
    1.8627   -0.0428    1.3564 C   0  0  0  0  0  0  0  0  0  0  0  0
    2.5320   -1.6210    2.6546 H   0  0  0  0  0  0  0  0  0  0  0  0
    1.6878    0.6676    2.1583 H   0  0  0  0  0  0  0  0  0  0  0  0
    1.1620   -6.3123   -4.9041 C   0  0  0  0  0  0  0  0  0  0  0  0
    2.2713   -6.4322   -5.3750 O   0  0  0  0  0  0  0  0  0  0  0  0
    0.2035   -7.2536   -4.9708 O   0  0  0  0  0  0  0  0  0  0  0  0
    0.5738   -8.0119   -5.4545 H   0  0  0  0  0  0  0  0  0  0  0  0
   -3.8153    2.2433   -1.1288 C   0  0  0  0  0  0  0  0  0  0  0  0
   -4.5245    1.5592   -1.8329 O   0  0  0  0  0  0  0  0  0  0  0  0
   -4.2029    3.3995   -0.5604 O   0  0  0  0  0  0  0  0  0  0  0  0
   -5.1250    3.5581   -0.8257 H   0  0  0  0  0  0  0  0  0  0  0  0
    2.7192    1.4691   -0.4641 C   0  0  0  0  0  0  0  0  0  0  0  0
    3.2806    1.4751   -1.5329 O   0  0  0  0  0  0  0  0  0  0  0  0
    2.9416    2.3562    0.5176 O   0  0  0  0  0  0  0  0  0  0  0  0
    3.6251    2.9785    0.2094 H   0  0  0  0  0  0  0  0  0  0  0  0
  1  2  2  0  0  0  0
  1  6  1  0  0  0  0
  2  3  1  0  0  0  0
  3 25  1  0  0  0  0
  3  4  2  0  0  0  0
  4  9  1  0  0  0  0
  5  4  1  0  0  0  0
  5  8  1  0  0  0  0
  6  5  2  0  0  0  0
  7  1  1  0  0  0  0
 10 23  1  0  0  0  0
 10  2  1  0  0  0  0
 11 10  1  0  0  0  0
 12 11  1  0  0  0  0
 13 12  1  0  0  0  0
 13 16  1  0  0  0  0
 14 18  1  0  0  0  0
 14 12  2  0  0  0  0
 15 13  2  0  0  0  0
 17 14  1  0  0  0  0
 19 17  2  0  0  0  0
 19 15  1  0  0  0  0
 20 15  1  0  0  0  0
 21 17  1  0  0  0  0
 22 24  2  0  0  0  0
 23 26  1  6  0  0  0
 23 22  1  0  0  0  0
 23 25  1  0  0  0  0
 24 27  1  0  0  0  0
 25 39  1  6  0  0  0
 25 28  1  0  0  0  0
 27 29  1  0  0  0  0
 28 27  2  0  0  0  0
 28 30  1  0  0  0  0
 31 19  1  0  0  0  0
 32 31  2  0  0  0  0
 33 31  1  0  0  0  0
 34 33  1  0  0  0  0
 35  6  1  0  0  0  0
 35 37  1  0  0  0  0
 36 35  2  0  0  0  0
 38 37  1  0  0  0  0
 39 41  1  0  0  0  0
 40 39  2  0  0  0  0
 42 41  1  0  0  0  0
M  RAD  3  11   2  22   2  24   2
M  END
