Coordinates from ORCA-job 1g-Schema5-R9-P1+-B3LYPG-6-31G_dp-scan-d49-09-n400
 OpenBabel08231810273D

 42 43  0  0  0  0  0  0  0  0999 V2000
   -3.1529    0.4341   -1.2658 C   0  0  0  0  0  0  0  0  0  0  0  0
   -1.8047    0.1972   -0.8224 C   0  0  0  0  0  0  0  0  0  0  0  0
   -1.7174    1.0305    0.2101 C   0  0  0  0  0  0  0  0  0  0  0  0
   -2.3820    1.9439    0.9373 C   0  0  0  0  0  0  0  0  0  0  0  0
   -3.6885    2.0983    0.4177 C   0  0  0  0  0  0  0  0  0  0  0  0
   -4.0550    1.3237   -0.6975 C   0  0  0  0  0  0  0  0  0  0  0  0
   -3.3957   -0.1908   -2.1354 H   0  0  0  0  0  0  0  0  0  0  0  0
   -4.3716    2.8009    0.8830 H   0  0  0  0  0  0  0  0  0  0  0  0
   -1.9958    2.4887    1.7919 H   0  0  0  0  0  0  0  0  0  0  0  0
   -0.9322   -0.7224   -1.4445 N   0  0  0  0  0  0  0  0  0  0  0  0
   -1.4231   -1.3311   -2.4218 N   0  0  0  0  0  0  0  0  0  0  0  0
   -0.6362   -2.2537   -3.0994 C   0  0  0  0  0  0  0  0  0  0  0  0
   -1.2692   -2.8992   -4.1829 C   0  0  0  0  0  0  0  0  0  0  0  0
    0.7038   -2.5475   -2.7579 C   0  0  0  0  0  0  0  0  0  0  0  0
   -0.5671   -3.8386   -4.9252 C   0  0  0  0  0  0  0  0  0  0  0  0
   -2.2980   -2.6475   -4.4162 H   0  0  0  0  0  0  0  0  0  0  0  0
    1.3916   -3.4838   -3.5065 C   0  0  0  0  0  0  0  0  0  0  0  0
    1.1951   -2.0538   -1.9285 H   0  0  0  0  0  0  0  0  0  0  0  0
    0.7636   -4.1309   -4.5875 C   0  0  0  0  0  0  0  0  0  0  0  0
   -1.0348   -4.3445   -5.7607 H   0  0  0  0  0  0  0  0  0  0  0  0
    2.4198   -3.7255   -3.2652 H   0  0  0  0  0  0  0  0  0  0  0  0
    2.6761    1.0186    1.5702 C   0  0  0  0  0  0  0  0  0  0  0  0
    2.7184   -0.0469    0.6883 C   0  0  0  0  0  0  0  0  0  0  0  0
    3.6914    1.5546    2.0696 C   0  0  0  0  0  0  0  0  0  0  0  0
    4.0509   -0.4548    0.4157 C   0  0  0  0  0  0  0  0  0  0  0  0
    1.8814   -0.5580    0.2265 H   0  0  0  0  0  0  0  0  0  0  0  0
    5.0304    1.2681    1.8984 C   0  0  0  0  0  0  0  0  0  0  0  0
    5.1655    0.1839    1.0056 C   0  0  0  0  0  0  0  0  0  0  0  0
    5.8797    1.7621    2.3540 H   0  0  0  0  0  0  0  0  0  0  0  0
    6.1608   -0.1730    0.7633 H   0  0  0  0  0  0  0  0  0  0  0  0
    1.5738   -5.1336   -5.3543 C   0  0  0  0  0  0  0  0  0  0  0  0
    2.7295   -5.3943   -5.1006 O   0  0  0  0  0  0  0  0  0  0  0  0
    0.8747   -5.7089   -6.3512 O   0  0  0  0  0  0  0  0  0  0  0  0
    1.4696   -6.3394   -6.7919 H   0  0  0  0  0  0  0  0  0  0  0  0
   -5.4144    1.4051   -1.3345 C   0  0  0  0  0  0  0  0  0  0  0  0
   -5.7327    0.7412   -2.2934 O   0  0  0  0  0  0  0  0  0  0  0  0
   -6.2052    2.2910   -0.7099 O   0  0  0  0  0  0  0  0  0  0  0  0
   -7.0644    2.3001   -1.1668 H   0  0  0  0  0  0  0  0  0  0  0  0
    4.2246   -1.5920   -0.5292 C   0  0  0  0  0  0  0  0  0  0  0  0
    3.3077   -2.1514   -1.1094 O   0  0  0  0  0  0  0  0  0  0  0  0
    5.5083   -1.9620   -0.6934 O   0  0  0  0  0  0  0  0  0  0  0  0
    5.5133   -2.7074   -1.3173 H   0  0  0  0  0  0  0  0  0  0  0  0
  1  2  2  0  0  0  0
  1  6  1  0  0  0  0
  2  3  1  0  0  0  0
  3  4  2  0  0  0  0
  4  9  1  0  0  0  0
  5  8  1  0  0  0  0
  5  4  1  0  0  0  0
  6  5  2  0  0  0  0
  7  1  1  0  0  0  0
 10  2  1  0  0  0  0
 11 10  1  0  0  0  0
 12 14  1  0  0  0  0
 12 11  1  0  0  0  0
 13 12  2  0  0  0  0
 14 18  1  0  0  0  0
 15 19  2  0  0  0  0
 15 13  1  0  0  0  0
 16 13  1  0  0  0  0
 17 21  1  0  0  0  0
 17 14  2  0  0  0  0
 19 17  1  0  0  0  0
 20 15  1  0  0  0  0
 22 24  2  0  0  0  0
 23 22  1  0  0  0  0
 25 23  2  0  0  0  0
 25 28  1  0  0  0  0
 26 23  1  0  0  0  0
 27 24  1  0  0  0  0
 27 29  1  0  0  0  0
 28 27  2  0  0  0  0
 30 28  1  0  0  0  0
 31 32  2  0  0  0  0
 31 19  1  0  0  0  0
 33 31  1  0  0  0  0
 34 33  1  0  0  0  0
 35 37  1  0  0  0  0
 35  6  1  0  0  0  0
 36 35  2  0  0  0  0
 38 37  1  0  0  0  0
 39 25  1  0  0  0  0
 40 39  2  0  0  0  0
 41 39  1  0  0  0  0
 42 41  1  0  0  0  0
M  RAD  5   3   2  10   2  11   2  22   2  24   2
M  END
