Coordinates from ORCA-job 1g-Schema5-R9-P1+-B3LYPG-6-31G_dp-scan-d49-09-n400
 OpenBabel08231810273D

 42 43  0  0  0  0  0  0  0  0999 V2000
   -3.0004    0.4249   -1.2280 C   0  0  0  0  0  0  0  0  0  0  0  0
   -1.6403    0.1776   -0.8317 C   0  0  0  0  0  0  0  0  0  0  0  0
   -1.5007    1.0246    0.1845 C   0  0  0  0  0  0  0  0  0  0  0  0
   -2.1254    1.9576    0.9219 C   0  0  0  0  0  0  0  0  0  0  0  0
   -3.4492    2.1200    0.4508 C   0  0  0  0  0  0  0  0  0  0  0  0
   -3.8683    1.3347   -0.6380 C   0  0  0  0  0  0  0  0  0  0  0  0
   -3.2850   -0.2063   -2.0797 H   0  0  0  0  0  0  0  0  0  0  0  0
   -4.1056    2.8373    0.9319 H   0  0  0  0  0  0  0  0  0  0  0  0
   -1.6985    2.5096    1.7521 H   0  0  0  0  0  0  0  0  0  0  0  0
   -0.8006   -0.7631   -1.4701 N   0  0  0  0  0  0  0  0  0  0  0  0
   -1.3299   -1.3643   -2.4322 N   0  0  0  0  0  0  0  0  0  0  0  0
   -0.5817   -2.3065   -3.1277 C   0  0  0  0  0  0  0  0  0  0  0  0
   -1.2553   -2.9248   -4.2024 C   0  0  0  0  0  0  0  0  0  0  0  0
    0.7562   -2.6417   -2.8167 C   0  0  0  0  0  0  0  0  0  0  0  0
   -0.5962   -3.8759   -4.9690 C   0  0  0  0  0  0  0  0  0  0  0  0
   -2.2811   -2.6415   -4.4112 H   0  0  0  0  0  0  0  0  0  0  0  0
    1.4009   -3.5891   -3.5898 C   0  0  0  0  0  0  0  0  0  0  0  0
    1.2781   -2.1729   -1.9911 H   0  0  0  0  0  0  0  0  0  0  0  0
    0.7325   -4.2076   -4.6635 C   0  0  0  0  0  0  0  0  0  0  0  0
   -1.0961   -4.3603   -5.7987 H   0  0  0  0  0  0  0  0  0  0  0  0
    2.4269   -3.8651   -3.3765 H   0  0  0  0  0  0  0  0  0  0  0  0
    2.3180    0.9506    1.4945 C   0  0  0  0  0  0  0  0  0  0  0  0
    2.5087   -0.1124    0.6240 C   0  0  0  0  0  0  0  0  0  0  0  0
    3.2638    1.5668    2.0383 C   0  0  0  0  0  0  0  0  0  0  0  0
    3.8834   -0.4035    0.4272 C   0  0  0  0  0  0  0  0  0  0  0  0
    1.7473   -0.6946    0.1192 H   0  0  0  0  0  0  0  0  0  0  0  0
    4.6292    1.4026    1.9472 C   0  0  0  0  0  0  0  0  0  0  0  0
    4.9048    0.3302    1.0714 C   0  0  0  0  0  0  0  0  0  0  0  0
    5.4052    1.9683    2.4477 H   0  0  0  0  0  0  0  0  0  0  0  0
    5.9392    0.0577    0.8901 H   0  0  0  0  0  0  0  0  0  0  0  0
    1.4981   -5.2242   -5.4571 C   0  0  0  0  0  0  0  0  0  0  0  0
    2.6506   -5.5207   -5.2298 O   0  0  0  0  0  0  0  0  0  0  0  0
    0.7629   -5.7680   -6.4459 O   0  0  0  0  0  0  0  0  0  0  0  0
    1.3308   -6.4099   -6.9053 H   0  0  0  0  0  0  0  0  0  0  0  0
   -5.2499    1.4261   -1.2235 C   0  0  0  0  0  0  0  0  0  0  0  0
   -5.6141    0.7533   -2.1596 O   0  0  0  0  0  0  0  0  0  0  0  0
   -6.0042    2.3322   -0.5825 O   0  0  0  0  0  0  0  0  0  0  0  0
   -6.8799    2.3465   -1.0069 H   0  0  0  0  0  0  0  0  0  0  0  0
    4.2030   -1.5278   -0.4969 C   0  0  0  0  0  0  0  0  0  0  0  0
    3.3690   -2.1620   -1.1218 O   0  0  0  0  0  0  0  0  0  0  0  0
    5.5200   -1.7910   -0.5835 O   0  0  0  0  0  0  0  0  0  0  0  0
    5.6231   -2.5366   -1.1986 H   0  0  0  0  0  0  0  0  0  0  0  0
  1  2  2  0  0  0  0
  1  6  1  0  0  0  0
  2  3  1  0  0  0  0
  3  4  2  0  0  0  0
  4  9  1  0  0  0  0
  5  4  1  0  0  0  0
  5  8  1  0  0  0  0
  6  5  2  0  0  0  0
  7  1  1  0  0  0  0
 10  2  1  0  0  0  0
 11 10  1  0  0  0  0
 12 14  1  0  0  0  0
 12 11  1  0  0  0  0
 13 12  2  0  0  0  0
 14 18  1  0  0  0  0
 15 19  2  0  0  0  0
 15 13  1  0  0  0  0
 16 13  1  0  0  0  0
 17 21  1  0  0  0  0
 17 14  2  0  0  0  0
 19 17  1  0  0  0  0
 20 15  1  0  0  0  0
 22 24  2  0  0  0  0
 23 22  1  0  0  0  0
 25 23  2  0  0  0  0
 25 28  1  0  0  0  0
 26 23  1  0  0  0  0
 27 24  1  0  0  0  0
 27 29  1  0  0  0  0
 28 27  2  0  0  0  0
 30 28  1  0  0  0  0
 31 32  2  0  0  0  0
 31 19  1  0  0  0  0
 33 31  1  0  0  0  0
 34 33  1  0  0  0  0
 35  6  1  0  0  0  0
 35 37  1  0  0  0  0
 36 35  2  0  0  0  0
 38 37  1  0  0  0  0
 39 25  1  0  0  0  0
 40 39  2  0  0  0  0
 41 39  1  0  0  0  0
 42 41  1  0  0  0  0
M  RAD  5   3   2  10   2  11   2  22   2  24   2
M  END
