Coordinates from ORCA-job 1g-Schema5-R9-P1+-B3LYPG-6-31G_dp-scan-d49-09-n400
 OpenBabel08231810273D

 42 45  0  0  1  0  0  0  0  0999 V2000
   -1.9833    0.5844   -1.0770 C   0  0  0  0  0  0  0  0  0  0  0  0
   -0.6458    0.2430   -0.9346 C   0  0  0  0  0  0  0  0  0  0  0  0
    0.2522    0.9358   -0.1147 C   0  0  0  0  0  0  0  0  0  0  0  0
   -0.2029    2.0414    0.5932 C   0  0  0  0  0  0  0  0  0  0  0  0
   -1.5505    2.4033    0.4831 C   0  0  0  0  0  0  0  0  0  0  0  0
   -2.4308    1.6902   -0.3499 C   0  0  0  0  0  0  0  0  0  0  0  0
   -2.6679    0.0215   -1.7010 H   0  0  0  0  0  0  0  0  0  0  0  0
   -1.9287    3.2540    1.0384 H   0  0  0  0  0  0  0  0  0  0  0  0
    0.4700    2.6173    1.2189 H   0  0  0  0  0  0  0  0  0  0  0  0
    0.0128   -0.8728   -1.5010 N   0  0  0  0  0  0  0  0  0  0  0  0
   -0.4885   -1.5264   -2.4538 N   0  0  0  0  0  0  0  0  0  0  0  0
    0.0285   -2.7075   -2.9579 C   0  0  0  0  0  0  0  0  0  0  0  0
   -0.3895   -2.9692   -4.2839 C   0  0  0  0  0  0  0  0  0  0  0  0
    0.8145   -3.6614   -2.2617 C   0  0  0  0  0  0  0  0  0  0  0  0
    0.0376   -4.1160   -4.9369 C   0  0  0  0  0  0  0  0  0  0  0  0
   -1.0278   -2.2438   -4.7767 H   0  0  0  0  0  0  0  0  0  0  0  0
    1.1974   -4.8209   -2.9130 C   0  0  0  0  0  0  0  0  0  0  0  0
    1.0524   -3.5396   -1.2125 H   0  0  0  0  0  0  0  0  0  0  0  0
    0.8335   -5.0446   -4.2522 C   0  0  0  0  0  0  0  0  0  0  0  0
   -0.2575   -4.3088   -5.9609 H   0  0  0  0  0  0  0  0  0  0  0  0
    1.7769   -5.5826   -2.4023 H   0  0  0  0  0  0  0  0  0  0  0  0
    1.0232   -1.6204    0.6028 C   0  0  0  0  0  0  0  0  0  0  0  0
    1.3019   -1.0632   -0.7175 C   0  0  2  0  0  0  0  0  0  0  0  0
    1.6731   -1.3940    1.6213 C   0  0  0  0  0  0  0  0  0  0  0  0
    1.6787    0.4308   -0.3021 C   0  0  2  0  0  0  0  0  0  0  0  0
    2.0278   -1.5767   -1.3467 H   0  0  0  0  0  0  0  0  0  0  0  0
    2.4756   -0.2664    1.9933 C   0  0  0  0  0  0  0  0  0  0  0  0
    2.5221    0.6112    0.9613 C   0  0  0  0  0  0  0  0  0  0  0  0
    3.0571   -0.1633    2.9012 H   0  0  0  0  0  0  0  0  0  0  0  0
    3.1525    1.4938    1.0016 H   0  0  0  0  0  0  0  0  0  0  0  0
    1.3064   -6.3182   -4.8885 C   0  0  0  0  0  0  0  0  0  0  0  0
    1.9913   -7.1340   -4.3122 O   0  0  0  0  0  0  0  0  0  0  0  0
    0.8852   -6.4440   -6.1595 O   0  0  0  0  0  0  0  0  0  0  0  0
    1.2279   -7.2894   -6.4968 H   0  0  0  0  0  0  0  0  0  0  0  0
   -3.8767    2.0590   -0.4948 C   0  0  0  0  0  0  0  0  0  0  0  0
   -4.6490    1.4544   -1.2054 O   0  0  0  0  0  0  0  0  0  0  0  0
   -4.2103    3.1301    0.2473 O   0  0  0  0  0  0  0  0  0  0  0  0
   -5.1553    3.3041    0.0975 H   0  0  0  0  0  0  0  0  0  0  0  0
    2.2858    1.1307   -1.5354 C   0  0  0  0  0  0  0  0  0  0  0  0
    2.2830    0.6293   -2.6361 O   0  0  0  0  0  0  0  0  0  0  0  0
    2.7699    2.3436   -1.2451 O   0  0  0  0  0  0  0  0  0  0  0  0
    3.1168    2.7363   -2.0664 H   0  0  0  0  0  0  0  0  0  0  0  0
  1  2  2  0  0  0  0
  1  6  1  0  0  0  0
  2  3  1  0  0  0  0
  3  4  2  0  0  0  0
  4  9  1  0  0  0  0
  5  4  1  0  0  0  0
  5  8  1  0  0  0  0
  6  5  2  0  0  0  0
  7  1  1  0  0  0  0
 10  2  1  0  0  0  0
 10 23  1  0  0  0  0
 11 10  1  0  0  0  0
 12 11  1  0  0  0  0
 12 14  2  0  0  0  0
 13 12  1  0  0  0  0
 14 18  1  0  0  0  0
 15 13  2  0  0  0  0
 15 19  1  0  0  0  0
 16 13  1  0  0  0  0
 17 21  1  0  0  0  0
 17 14  1  0  0  0  0
 19 17  2  0  0  0  0
 20 15  1  0  0  0  0
 22 24  1  0  0  0  0
 23 26  1  6  0  0  0
 23 25  1  0  0  0  0
 23 22  1  0  0  0  0
 24 27  2  0  0  0  0
 25 39  1  6  0  0  0
 25  3  1  0  0  0  0
 25 28  1  0  0  0  0
 27 29  1  0  0  0  0
 28 30  1  0  0  0  0
 28 27  1  0  0  0  0
 31 32  2  0  0  0  0
 31 19  1  0  0  0  0
 33 31  1  0  0  0  0
 34 33  1  0  0  0  0
 35  6  1  0  0  0  0
 35 37  1  0  0  0  0
 36 35  2  0  0  0  0
 38 37  1  0  0  0  0
 39 41  1  0  0  0  0
 40 39  2  0  0  0  0
 42 41  1  0  0  0  0
M  RAD  4  11   2  22   3  24   2  28   2
M  END
