Coordinates from ORCA-job 1g-Schema5-R9-P1+-B3LYPG-6-31G_dp-scan-d49-09-n400
 OpenBabel08231810273D

 42 45  0  0  1  0  0  0  0  0999 V2000
   -1.9696    0.8409   -1.1459 C   0  0  0  0  0  0  0  0  0  0  0  0
   -0.8943    0.2337   -0.5085 C   0  0  0  0  0  0  0  0  0  0  0  0
   -0.5910    0.4844    0.8285 C   0  0  0  0  0  0  0  0  0  0  0  0
   -1.3524    1.3532    1.5947 C   0  0  0  0  0  0  0  0  0  0  0  0
   -2.4362    1.9766    0.9690 C   0  0  0  0  0  0  0  0  0  0  0  0
   -2.7394    1.7251   -0.3838 C   0  0  0  0  0  0  0  0  0  0  0  0
   -2.2160    0.6579   -2.1846 H   0  0  0  0  0  0  0  0  0  0  0  0
   -3.0598    2.6663    1.5262 H   0  0  0  0  0  0  0  0  0  0  0  0
   -1.1220    1.5379    2.6377 H   0  0  0  0  0  0  0  0  0  0  0  0
   -0.0138   -0.7365   -1.0883 N   0  0  0  0  0  0  0  0  0  0  0  0
   -0.4256   -1.3648   -2.1057 N   0  0  0  0  0  0  0  0  0  0  0  0
    0.1532   -2.4197   -2.7689 C   0  0  0  0  0  0  0  0  0  0  0  0
   -0.7542   -2.9778   -3.7093 C   0  0  0  0  0  0  0  0  0  0  0  0
    1.4440   -3.0011   -2.6255 C   0  0  0  0  0  0  0  0  0  0  0  0
   -0.4165   -4.1022   -4.4460 C   0  0  0  0  0  0  0  0  0  0  0  0
   -1.7242   -2.5059   -3.8175 H   0  0  0  0  0  0  0  0  0  0  0  0
    1.7693   -4.1190   -3.3687 C   0  0  0  0  0  0  0  0  0  0  0  0
    2.2005   -2.5635   -1.9943 H   0  0  0  0  0  0  0  0  0  0  0  0
    0.8472   -4.6798   -4.2715 C   0  0  0  0  0  0  0  0  0  0  0  0
   -1.1164   -4.5303   -5.1535 H   0  0  0  0  0  0  0  0  0  0  0  0
    2.7473   -4.5797   -3.2834 H   0  0  0  0  0  0  0  0  0  0  0  0
    0.7634   -0.4440    1.1427 C   0  0  1  0  0  0  0  0  0  0  0  0
    1.1921   -0.9589   -0.2092 C   0  0  2  0  0  0  0  0  0  0  0  0
    1.7304   -0.3269    2.0271 C   0  0  0  0  0  0  0  0  0  0  0  0
    2.4702   -0.0946   -0.5579 C   0  0  0  0  0  0  0  0  0  0  0  0
    1.4347   -2.0227   -0.2564 H   0  0  0  0  0  0  0  0  0  0  0  0
    3.0322   -0.1317    1.8457 C   0  0  0  0  0  0  0  0  0  0  0  0
    3.3073    0.2799    0.4440 C   0  0  0  0  0  0  0  0  0  0  0  0
    3.8439   -0.3607    2.5283 H   0  0  0  0  0  0  0  0  0  0  0  0
    4.2371    0.7802    0.1927 H   0  0  0  0  0  0  0  0  0  0  0  0
    1.2876   -5.8948   -5.0352 C   0  0  0  0  0  0  0  0  0  0  0  0
    2.3767   -6.4058   -4.8955 O   0  0  0  0  0  0  0  0  0  0  0  0
    0.3412   -6.3422   -5.8780 O   0  0  0  0  0  0  0  0  0  0  0  0
    0.6997   -7.1252   -6.3302 H   0  0  0  0  0  0  0  0  0  0  0  0
   -3.8944    2.3816   -1.0777 C   0  0  0  0  0  0  0  0  0  0  0  0
   -4.1812    2.1746   -2.2366 O   0  0  0  0  0  0  0  0  0  0  0  0
   -4.5722    3.2183   -0.2708 O   0  0  0  0  0  0  0  0  0  0  0  0
   -5.3007    3.5959   -0.7927 H   0  0  0  0  0  0  0  0  0  0  0  0
    2.7694    0.2255   -1.9728 C   0  0  0  0  0  0  0  0  0  0  0  0
    2.0887   -0.1484   -2.9120 O   0  0  0  0  0  0  0  0  0  0  0  0
    3.8635    0.9924   -2.1209 O   0  0  0  0  0  0  0  0  0  0  0  0
    3.9697    1.1625   -3.0724 H   0  0  0  0  0  0  0  0  0  0  0  0
  1  2  2  0  0  0  0
  1  6  1  0  0  0  0
  2  3  1  0  0  0  0
  3  4  2  0  0  0  0
  4  9  1  0  0  0  0
  5  8  1  0  0  0  0
  5  4  1  0  0  0  0
  6  5  2  0  0  0  0
  7  1  1  0  0  0  0
 10  2  1  0  0  0  0
 10 23  1  0  0  0  0
 11 10  1  0  0  0  0
 12 14  1  0  0  0  0
 12 11  1  0  0  0  0
 13 12  2  0  0  0  0
 14 18  1  0  0  0  0
 15 19  2  0  0  0  0
 15 13  1  0  0  0  0
 16 13  1  0  0  0  0
 17 21  1  0  0  0  0
 17 14  2  0  0  0  0
 19 17  1  0  0  0  0
 20 15  1  0  0  0  0
 22  3  1  6  0  0  0
 22 24  1  0  0  0  0
 23 26  1  1  0  0  0
 23 22  1  0  0  0  0
 25 23  1  0  0  0  0
 25 28  2  0  0  0  0
 27 24  1  0  0  0  0
 27 29  1  0  0  0  0
 28 27  1  0  0  0  0
 30 28  1  0  0  0  0
 31 32  2  0  0  0  0
 31 19  1  0  0  0  0
 33 31  1  0  0  0  0
 34 33  1  0  0  0  0
 35  6  1  0  0  0  0
 35 37  1  0  0  0  0
 36 35  2  0  0  0  0
 38 37  1  0  0  0  0
 39 25  1  0  0  0  0
 40 39  2  0  0  0  0
 41 39  1  0  0  0  0
 42 41  1  0  0  0  0
M  RAD  4  11   2  22   2  24   3  27   2
M  END
