Coordinates from ORCA-job 1g-Schema5-R9-P1+-B3LYPG-6-31G_dp-scan-d49-09-n400
 OpenBabel08231810273D

 42 43  0  0  0  0  0  0  0  0999 V2000
   -3.1176    0.4318   -1.2565 C   0  0  0  0  0  0  0  0  0  0  0  0
   -1.7673    0.1901   -0.8226 C   0  0  0  0  0  0  0  0  0  0  0  0
   -1.6690    1.0244    0.2081 C   0  0  0  0  0  0  0  0  0  0  0  0
   -2.3245    1.9415    0.9388 C   0  0  0  0  0  0  0  0  0  0  0  0
   -3.6342    2.1003    0.4287 C   0  0  0  0  0  0  0  0  0  0  0  0
   -4.0120    1.3258   -0.6828 C   0  0  0  0  0  0  0  0  0  0  0  0
   -3.3692   -0.1929   -2.1237 H   0  0  0  0  0  0  0  0  0  0  0  0
   -4.3111    2.8062    0.8981 H   0  0  0  0  0  0  0  0  0  0  0  0
   -1.9295    2.4860    1.7897 H   0  0  0  0  0  0  0  0  0  0  0  0
   -0.9026   -0.7339   -1.4494 N   0  0  0  0  0  0  0  0  0  0  0  0
   -1.4020   -1.3398   -2.4242 N   0  0  0  0  0  0  0  0  0  0  0  0
   -0.6238   -2.2662   -3.1066 C   0  0  0  0  0  0  0  0  0  0  0  0
   -1.2663   -2.9061   -4.1879 C   0  0  0  0  0  0  0  0  0  0  0  0
    0.7161   -2.5686   -2.7725 C   0  0  0  0  0  0  0  0  0  0  0  0
   -0.5736   -3.8481   -4.9357 C   0  0  0  0  0  0  0  0  0  0  0  0
   -2.2947   -2.6478   -4.4154 H   0  0  0  0  0  0  0  0  0  0  0  0
    1.3945   -3.5074   -3.5266 C   0  0  0  0  0  0  0  0  0  0  0  0
    1.2147   -2.0798   -1.9444 H   0  0  0  0  0  0  0  0  0  0  0  0
    0.7571   -4.1488   -4.6056 C   0  0  0  0  0  0  0  0  0  0  0  0
   -1.0487   -4.3497   -5.7697 H   0  0  0  0  0  0  0  0  0  0  0  0
    2.4226   -3.7563   -3.2920 H   0  0  0  0  0  0  0  0  0  0  0  0
    2.5945    1.0133    1.5472 C   0  0  0  0  0  0  0  0  0  0  0  0
    2.6686   -0.0544    0.6692 C   0  0  0  0  0  0  0  0  0  0  0  0
    3.5951    1.5658    2.0586 C   0  0  0  0  0  0  0  0  0  0  0  0
    4.0113   -0.4412    0.4174 C   0  0  0  0  0  0  0  0  0  0  0  0
    1.8473   -0.5807    0.1965 H   0  0  0  0  0  0  0  0  0  0  0  0
    4.9410    1.3018    1.9089 C   0  0  0  0  0  0  0  0  0  0  0  0
    5.1066    0.2171    1.0216 C   0  0  0  0  0  0  0  0  0  0  0  0
    5.7751    1.8108    2.3757 H   0  0  0  0  0  0  0  0  0  0  0  0
    6.1110   -0.1246    0.7956 H   0  0  0  0  0  0  0  0  0  0  0  0
    1.5574   -5.1546   -5.3786 C   0  0  0  0  0  0  0  0  0  0  0  0
    2.7128   -5.4229   -5.1311 O   0  0  0  0  0  0  0  0  0  0  0  0
    0.8499   -5.7234   -6.3733 O   0  0  0  0  0  0  0  0  0  0  0  0
    1.4389   -6.3565   -6.8183 H   0  0  0  0  0  0  0  0  0  0  0  0
   -5.3756    1.4118   -1.3100 C   0  0  0  0  0  0  0  0  0  0  0  0
   -5.7034    0.7482   -2.2659 O   0  0  0  0  0  0  0  0  0  0  0  0
   -6.1580    2.3024   -0.6813 O   0  0  0  0  0  0  0  0  0  0  0  0
   -7.0202    2.3147   -1.1324 H   0  0  0  0  0  0  0  0  0  0  0  0
    4.2169   -1.5787   -0.5211 C   0  0  0  0  0  0  0  0  0  0  0  0
    3.3178   -2.1541   -1.1130 O   0  0  0  0  0  0  0  0  0  0  0  0
    5.5086   -1.9288   -0.6646 O   0  0  0  0  0  0  0  0  0  0  0  0
    5.5349   -2.6761   -1.2857 H   0  0  0  0  0  0  0  0  0  0  0  0
  1  2  2  0  0  0  0
  1  6  1  0  0  0  0
  2  3  1  0  0  0  0
  3  4  2  0  0  0  0
  4  9  1  0  0  0  0
  5  8  1  0  0  0  0
  5  4  1  0  0  0  0
  6  5  2  0  0  0  0
  7  1  1  0  0  0  0
 10  2  1  0  0  0  0
 11 10  1  0  0  0  0
 12 14  1  0  0  0  0
 12 11  1  0  0  0  0
 13 12  2  0  0  0  0
 14 18  1  0  0  0  0
 15 19  2  0  0  0  0
 15 13  1  0  0  0  0
 16 13  1  0  0  0  0
 17 21  1  0  0  0  0
 17 14  2  0  0  0  0
 19 17  1  0  0  0  0
 20 15  1  0  0  0  0
 22 24  2  0  0  0  0
 23 22  1  0  0  0  0
 25 23  2  0  0  0  0
 25 28  1  0  0  0  0
 26 23  1  0  0  0  0
 27 24  1  0  0  0  0
 27 29  1  0  0  0  0
 28 27  2  0  0  0  0
 30 28  1  0  0  0  0
 31 32  2  0  0  0  0
 31 19  1  0  0  0  0
 33 31  1  0  0  0  0
 34 33  1  0  0  0  0
 35  6  1  0  0  0  0
 35 37  1  0  0  0  0
 36 35  2  0  0  0  0
 38 37  1  0  0  0  0
 39 25  1  0  0  0  0
 40 39  2  0  0  0  0
 41 39  1  0  0  0  0
 42 41  1  0  0  0  0
M  RAD  5   3   2  10   2  11   2  22   2  24   2
M  END
