Coordinates from ORCA-job 1g-Schema5-R9-P1+-B3LYPG-6-31G_dp-scan-d49-09-n400
 OpenBabel08231810273D

 42 45  0  0  1  0  0  0  0  0999 V2000
   -1.9011    0.7037   -1.3451 C   0  0  0  0  0  0  0  0  0  0  0  0
   -0.5838    0.3658   -1.0521 C   0  0  0  0  0  0  0  0  0  0  0  0
    0.2325    1.1488   -0.2282 C   0  0  0  0  0  0  0  0  0  0  0  0
   -0.2656    2.3191    0.3294 C   0  0  0  0  0  0  0  0  0  0  0  0
   -1.5885    2.6773    0.0502 C   0  0  0  0  0  0  0  0  0  0  0  0
   -2.3994    1.8764   -0.7743 C   0  0  0  0  0  0  0  0  0  0  0  0
   -2.5293    0.0991   -1.9885 H   0  0  0  0  0  0  0  0  0  0  0  0
   -2.0023    3.5865    0.4702 H   0  0  0  0  0  0  0  0  0  0  0  0
    0.3565    2.9447    0.9600 H   0  0  0  0  0  0  0  0  0  0  0  0
    0.1072   -0.7710   -1.5663 N   0  0  0  0  0  0  0  0  0  0  0  0
   -0.5436   -1.6596   -2.1883 N   0  0  0  0  0  0  0  0  0  0  0  0
   -0.0029   -2.7500   -2.8355 C   0  0  0  0  0  0  0  0  0  0  0  0
   -0.9646   -3.7648   -3.0756 C   0  0  0  0  0  0  0  0  0  0  0  0
    1.3204   -2.9051   -3.3297 C   0  0  0  0  0  0  0  0  0  0  0  0
   -0.6015   -4.9385   -3.7152 C   0  0  0  0  0  0  0  0  0  0  0  0
   -1.9784   -3.6027   -2.7272 H   0  0  0  0  0  0  0  0  0  0  0  0
    1.6575   -4.0667   -4.0037 C   0  0  0  0  0  0  0  0  0  0  0  0
    2.0505   -2.1128   -3.2530 H   0  0  0  0  0  0  0  0  0  0  0  0
    0.7138   -5.0920   -4.1801 C   0  0  0  0  0  0  0  0  0  0  0  0
   -1.3267   -5.7269   -3.8769 H   0  0  0  0  0  0  0  0  0  0  0  0
    2.6532   -4.2059   -4.4094 H   0  0  0  0  0  0  0  0  0  0  0  0
    2.1403   -1.9992   -0.6671 C   0  0  0  0  0  0  0  0  0  0  0  0
    1.5839   -0.7070   -1.1864 C   0  0  2  0  0  0  0  0  0  0  0  0
    2.4050   -2.0656    0.5295 C   0  0  0  0  0  0  0  0  0  0  0  0
    1.6135    0.4654   -0.0774 C   0  0  2  0  0  0  0  0  0  0  0  0
    2.1134   -0.3165   -2.0627 H   0  0  0  0  0  0  0  0  0  0  0  0
    2.3150   -1.2402    1.6904 C   0  0  0  0  0  0  0  0  0  0  0  0
    1.8794    0.0002    1.3581 C   0  0  0  0  0  0  0  0  0  0  0  0
    2.5277   -1.5421    2.7083 H   0  0  0  0  0  0  0  0  0  0  0  0
    1.7388    0.7478    2.1327 H   0  0  0  0  0  0  0  0  0  0  0  0
    1.1681   -6.3274   -4.9012 C   0  0  0  0  0  0  0  0  0  0  0  0
    2.2943   -6.4736   -5.3219 O   0  0  0  0  0  0  0  0  0  0  0  0
    0.1890   -7.2418   -5.0192 O   0  0  0  0  0  0  0  0  0  0  0  0
    0.5606   -8.0066   -5.4914 H   0  0  0  0  0  0  0  0  0  0  0  0
   -3.8199    2.2350   -1.0941 C   0  0  0  0  0  0  0  0  0  0  0  0
   -4.5347    1.5582   -1.7995 O   0  0  0  0  0  0  0  0  0  0  0  0
   -4.2022    3.3859   -0.5117 O   0  0  0  0  0  0  0  0  0  0  0  0
   -5.1263    3.5476   -0.7680 H   0  0  0  0  0  0  0  0  0  0  0  0
    2.7126    1.4718   -0.5085 C   0  0  0  0  0  0  0  0  0  0  0  0
    3.2626    1.4572   -1.5833 O   0  0  0  0  0  0  0  0  0  0  0  0
    2.9435    2.3788    0.4522 O   0  0  0  0  0  0  0  0  0  0  0  0
    3.6208    2.9974    0.1237 H   0  0  0  0  0  0  0  0  0  0  0  0
  1  2  2  0  0  0  0
  1  6  1  0  0  0  0
  2  3  1  0  0  0  0
  3 25  1  0  0  0  0
  3  4  2  0  0  0  0
  4  9  1  0  0  0  0
  5  4  1  0  0  0  0
  5  8  1  0  0  0  0
  6  5  2  0  0  0  0
  7  1  1  0  0  0  0
 10 23  1  0  0  0  0
 10  2  1  0  0  0  0
 11 10  1  0  0  0  0
 12 11  1  0  0  0  0
 13 12  1  0  0  0  0
 13 16  1  0  0  0  0
 14 18  1  0  0  0  0
 14 12  2  0  0  0  0
 15 13  2  0  0  0  0
 17 14  1  0  0  0  0
 19 17  2  0  0  0  0
 19 15  1  0  0  0  0
 20 15  1  0  0  0  0
 21 17  1  0  0  0  0
 22 24  2  0  0  0  0
 23 26  1  6  0  0  0
 23 22  1  0  0  0  0
 23 25  1  0  0  0  0
 24 27  1  0  0  0  0
 25 39  1  6  0  0  0
 25 28  1  0  0  0  0
 27 29  1  0  0  0  0
 28 27  2  0  0  0  0
 28 30  1  0  0  0  0
 31 19  1  0  0  0  0
 32 31  2  0  0  0  0
 33 31  1  0  0  0  0
 34 33  1  0  0  0  0
 35  6  1  0  0  0  0
 35 37  1  0  0  0  0
 36 35  2  0  0  0  0
 38 37  1  0  0  0  0
 39 41  1  0  0  0  0
 40 39  2  0  0  0  0
 42 41  1  0  0  0  0
M  RAD  3  11   2  22   2  24   2
M  END
