Coordinates from ORCA-job 1g-Schema5-R9-P1+-B3LYPG-6-31G_dp-scan-d49-09-n400
 OpenBabel08231810273D

 42 45  0  0  1  0  0  0  0  0999 V2000
   -1.9834    0.5861   -1.0771 C   0  0  0  0  0  0  0  0  0  0  0  0
   -0.6462    0.2434   -0.9361 C   0  0  0  0  0  0  0  0  0  0  0  0
    0.2525    0.9317   -0.1127 C   0  0  0  0  0  0  0  0  0  0  0  0
   -0.2020    2.0350    0.5992 C   0  0  0  0  0  0  0  0  0  0  0  0
   -1.5495    2.3979    0.4910 C   0  0  0  0  0  0  0  0  0  0  0  0
   -2.4303    1.6890   -0.3451 C   0  0  0  0  0  0  0  0  0  0  0  0
   -2.6684    0.0260   -1.7032 H   0  0  0  0  0  0  0  0  0  0  0  0
   -1.9271    3.2466    1.0499 H   0  0  0  0  0  0  0  0  0  0  0  0
    0.4714    2.6083    1.2267 H   0  0  0  0  0  0  0  0  0  0  0  0
    0.0122   -0.8717   -1.5043 N   0  0  0  0  0  0  0  0  0  0  0  0
   -0.4872   -1.5231   -2.4595 N   0  0  0  0  0  0  0  0  0  0  0  0
    0.0296   -2.7052   -2.9619 C   0  0  0  0  0  0  0  0  0  0  0  0
   -0.3784   -2.9636   -4.2915 C   0  0  0  0  0  0  0  0  0  0  0  0
    0.8057   -3.6629   -2.2601 C   0  0  0  0  0  0  0  0  0  0  0  0
    0.0498   -4.1114   -4.9422 C   0  0  0  0  0  0  0  0  0  0  0  0
   -1.0097   -2.2353   -4.7888 H   0  0  0  0  0  0  0  0  0  0  0  0
    1.1895   -4.8233   -2.9094 C   0  0  0  0  0  0  0  0  0  0  0  0
    1.0347   -3.5432   -1.2086 H   0  0  0  0  0  0  0  0  0  0  0  0
    0.8362   -5.0439   -4.2519 C   0  0  0  0  0  0  0  0  0  0  0  0
   -0.2374   -4.3019   -5.9689 H   0  0  0  0  0  0  0  0  0  0  0  0
    1.7614   -5.5880   -2.3946 H   0  0  0  0  0  0  0  0  0  0  0  0
    1.0095   -1.6056    0.6096 C   0  0  0  0  0  0  0  0  0  0  0  0
    1.2981   -1.0648   -0.7156 C   0  0  2  0  0  0  0  0  0  0  0  0
    1.6618   -1.3816    1.6273 C   0  0  0  0  0  0  0  0  0  0  0  0
    1.6795    0.4296   -0.3062 C   0  0  2  0  0  0  0  0  0  0  0  0
    2.0238   -1.5876   -1.3373 H   0  0  0  0  0  0  0  0  0  0  0  0
    2.4745   -0.2586    1.9917 C   0  0  0  0  0  0  0  0  0  0  0  0
    2.5278    0.6119    0.9536 C   0  0  0  0  0  0  0  0  0  0  0  0
    3.0580   -0.1552    2.8981 H   0  0  0  0  0  0  0  0  0  0  0  0
    3.1660    1.4891    0.9864 H   0  0  0  0  0  0  0  0  0  0  0  0
    1.3095   -6.3186   -4.8857 C   0  0  0  0  0  0  0  0  0  0  0  0
    1.9841   -7.1390   -4.3038 O   0  0  0  0  0  0  0  0  0  0  0  0
    0.8957   -6.4429   -6.1593 O   0  0  0  0  0  0  0  0  0  0  0  0
    1.2361   -7.2903   -6.4939 H   0  0  0  0  0  0  0  0  0  0  0  0
   -3.8759    2.0591   -0.4882 C   0  0  0  0  0  0  0  0  0  0  0  0
   -4.6482    1.4591   -1.2026 O   0  0  0  0  0  0  0  0  0  0  0  0
   -4.2085    3.1281    0.2575 O   0  0  0  0  0  0  0  0  0  0  0  0
   -5.1532    3.3041    0.1074 H   0  0  0  0  0  0  0  0  0  0  0  0
    2.2812    1.1269   -1.5435 C   0  0  0  0  0  0  0  0  0  0  0  0
    2.2734    0.6232   -2.6431 O   0  0  0  0  0  0  0  0  0  0  0  0
    2.7650    2.3412   -1.2583 O   0  0  0  0  0  0  0  0  0  0  0  0
    3.1079    2.7322   -2.0820 H   0  0  0  0  0  0  0  0  0  0  0  0
  1  2  2  0  0  0  0
  1  6  1  0  0  0  0
  2  3  1  0  0  0  0
  3  4  2  0  0  0  0
  4  9  1  0  0  0  0
  5  4  1  0  0  0  0
  5  8  1  0  0  0  0
  6  5  2  0  0  0  0
  7  1  1  0  0  0  0
 10  2  1  0  0  0  0
 10 23  1  0  0  0  0
 11 10  1  0  0  0  0
 12 11  1  0  0  0  0
 12 14  2  0  0  0  0
 13 12  1  0  0  0  0
 14 18  1  0  0  0  0
 15 13  2  0  0  0  0
 15 19  1  0  0  0  0
 16 13  1  0  0  0  0
 17 21  1  0  0  0  0
 17 14  1  0  0  0  0
 19 17  2  0  0  0  0
 20 15  1  0  0  0  0
 22 24  1  0  0  0  0
 23 26  1  6  0  0  0
 23 25  1  0  0  0  0
 23 22  1  0  0  0  0
 24 27  2  0  0  0  0
 25 39  1  6  0  0  0
 25  3  1  0  0  0  0
 25 28  1  0  0  0  0
 27 29  1  0  0  0  0
 28 30  1  0  0  0  0
 28 27  1  0  0  0  0
 31 32  2  0  0  0  0
 31 19  1  0  0  0  0
 33 31  1  0  0  0  0
 34 33  1  0  0  0  0
 35  6  1  0  0  0  0
 35 37  1  0  0  0  0
 36 35  2  0  0  0  0
 38 37  1  0  0  0  0
 39 41  1  0  0  0  0
 40 39  2  0  0  0  0
 42 41  1  0  0  0  0
M  RAD  4  11   2  22   3  24   2  28   2
M  END
