Coordinates from ORCA-job 1g-Schema5-R9-P1+-B3LYPG-6-31G_dp-scan-d49-09-n400
 OpenBabel08231810273D

 42 45  0  0  1  0  0  0  0  0999 V2000
   -1.9836    0.5854   -1.0770 C   0  0  0  0  0  0  0  0  0  0  0  0
   -0.6463    0.2433   -0.9355 C   0  0  0  0  0  0  0  0  0  0  0  0
    0.2523    0.9339   -0.1139 C   0  0  0  0  0  0  0  0  0  0  0  0
   -0.2023    2.0383    0.5960 C   0  0  0  0  0  0  0  0  0  0  0  0
   -1.5499    2.4008    0.4870 C   0  0  0  0  0  0  0  0  0  0  0  0
   -2.4306    1.6899   -0.3475 C   0  0  0  0  0  0  0  0  0  0  0  0
   -2.6685    0.0240   -1.7020 H   0  0  0  0  0  0  0  0  0  0  0  0
   -1.9277    3.2505    1.0441 H   0  0  0  0  0  0  0  0  0  0  0  0
    0.4709    2.6127    1.2227 H   0  0  0  0  0  0  0  0  0  0  0  0
    0.0119   -0.8722   -1.5028 N   0  0  0  0  0  0  0  0  0  0  0  0
   -0.4885   -1.5244   -2.4569 N   0  0  0  0  0  0  0  0  0  0  0  0
    0.0286   -2.7061   -2.9602 C   0  0  0  0  0  0  0  0  0  0  0  0
   -0.3840   -2.9662   -4.2880 C   0  0  0  0  0  0  0  0  0  0  0  0
    0.8094   -3.6617   -2.2607 C   0  0  0  0  0  0  0  0  0  0  0  0
    0.0439   -4.1136   -4.9395 C   0  0  0  0  0  0  0  0  0  0  0  0
   -1.0186   -2.2395   -4.7834 H   0  0  0  0  0  0  0  0  0  0  0  0
    1.1930   -4.8218   -2.9106 C   0  0  0  0  0  0  0  0  0  0  0  0
    1.0425   -3.5406   -1.2103 H   0  0  0  0  0  0  0  0  0  0  0  0
    0.8348   -5.0441   -4.2516 C   0  0  0  0  0  0  0  0  0  0  0  0
   -0.2469   -4.3055   -5.9650 H   0  0  0  0  0  0  0  0  0  0  0  0
    1.7684   -5.5849   -2.3975 H   0  0  0  0  0  0  0  0  0  0  0  0
    1.0157   -1.6131    0.6059 C   0  0  0  0  0  0  0  0  0  0  0  0
    1.2994   -1.0641   -0.7168 C   0  0  2  0  0  0  0  0  0  0  0  0
    1.6676   -1.3884    1.6236 C   0  0  0  0  0  0  0  0  0  0  0  0
    1.6789    0.4300   -0.3043 C   0  0  2  0  0  0  0  0  0  0  0  0
    2.0250   -1.5826   -1.3421 H   0  0  0  0  0  0  0  0  0  0  0  0
    2.4754   -0.2632    1.9918 C   0  0  0  0  0  0  0  0  0  0  0  0
    2.5250    0.6111    0.9570 C   0  0  0  0  0  0  0  0  0  0  0  0
    3.0583   -0.1602    2.8987 H   0  0  0  0  0  0  0  0  0  0  0  0
    3.1596    1.4908    0.9934 H   0  0  0  0  0  0  0  0  0  0  0  0
    1.3080   -6.3184   -4.8862 C   0  0  0  0  0  0  0  0  0  0  0  0
    1.9885   -7.1359   -4.3071 O   0  0  0  0  0  0  0  0  0  0  0  0
    0.8921   -6.4430   -6.1591 O   0  0  0  0  0  0  0  0  0  0  0  0
    1.2345   -7.2891   -6.4951 H   0  0  0  0  0  0  0  0  0  0  0  0
   -3.8763    2.0595   -0.4914 C   0  0  0  0  0  0  0  0  0  0  0  0
   -4.6489    1.4570   -1.2033 O   0  0  0  0  0  0  0  0  0  0  0  0
   -4.2094    3.1292    0.2531 O   0  0  0  0  0  0  0  0  0  0  0  0
   -5.1543    3.3040    0.1036 H   0  0  0  0  0  0  0  0  0  0  0  0
    2.2831    1.1284   -1.5397 C   0  0  0  0  0  0  0  0  0  0  0  0
    2.2778    0.6257   -2.6398 O   0  0  0  0  0  0  0  0  0  0  0  0
    2.7677    2.3417   -1.2520 O   0  0  0  0  0  0  0  0  0  0  0  0
    3.1128    2.7334   -2.0745 H   0  0  0  0  0  0  0  0  0  0  0  0
  1  2  2  0  0  0  0
  1  6  1  0  0  0  0
  2  3  1  0  0  0  0
  3  4  2  0  0  0  0
  4  9  1  0  0  0  0
  5  4  1  0  0  0  0
  5  8  1  0  0  0  0
  6  5  2  0  0  0  0
  7  1  1  0  0  0  0
 10  2  1  0  0  0  0
 10 23  1  0  0  0  0
 11 10  1  0  0  0  0
 12 11  1  0  0  0  0
 12 14  2  0  0  0  0
 13 12  1  0  0  0  0
 14 18  1  0  0  0  0
 15 13  2  0  0  0  0
 15 19  1  0  0  0  0
 16 13  1  0  0  0  0
 17 21  1  0  0  0  0
 17 14  1  0  0  0  0
 19 17  2  0  0  0  0
 20 15  1  0  0  0  0
 22 24  1  0  0  0  0
 23 26  1  6  0  0  0
 23 25  1  0  0  0  0
 23 22  1  0  0  0  0
 24 27  2  0  0  0  0
 25 39  1  6  0  0  0
 25  3  1  0  0  0  0
 25 28  1  0  0  0  0
 27 29  1  0  0  0  0
 28 30  1  0  0  0  0
 28 27  1  0  0  0  0
 31 32  2  0  0  0  0
 31 19  1  0  0  0  0
 33 31  1  0  0  0  0
 34 33  1  0  0  0  0
 35  6  1  0  0  0  0
 35 37  1  0  0  0  0
 36 35  2  0  0  0  0
 38 37  1  0  0  0  0
 39 41  1  0  0  0  0
 40 39  2  0  0  0  0
 42 41  1  0  0  0  0
M  RAD  4  11   2  22   3  24   2  28   2
M  END
