Coordinates from ORCA-job 1g-Schema5-R9-P1+-B3LYPG-6-31G_dp-scan-d49-09-n400
 OpenBabel08231810273D

 42 46  0  0  1  0  0  0  0  0999 V2000
   -1.9713    0.6473   -1.0965 C   0  0  0  0  0  0  0  0  0  0  0  0
   -0.6765    0.1938   -0.9059 C   0  0  0  0  0  0  0  0  0  0  0  0
    0.2120    0.6780    0.0973 C   0  0  1  0  0  0  0  0  0  0  0  0
   -0.2294    1.7736    0.8614 C   0  0  0  0  0  0  0  0  0  0  0  0
   -1.5324    2.2332    0.7005 C   0  0  0  0  0  0  0  0  0  0  0  0
   -2.4013    1.6894   -0.2727 C   0  0  1  0  0  0  0  0  0  0  0  0
   -2.6379    0.2197   -1.8372 H   0  0  0  0  0  0  0  0  0  0  0  0
   -1.8902    3.0538    1.3126 H   0  0  0  0  0  0  0  0  0  0  0  0
    0.4341    2.2441    1.5794 H   0  0  0  0  0  0  0  0  0  0  0  0
   -0.0470   -0.9176   -1.4924 N   0  0  0  0  0  0  0  0  0  0  0  0
   -0.4820   -1.5040   -2.5216 N   0  0  0  0  0  0  0  0  0  0  0  0
    0.0295   -2.6968   -3.0007 C   0  0  0  0  0  0  0  0  0  0  0  0
   -0.1603   -2.8783   -4.3896 C   0  0  0  0  0  0  0  0  0  0  0  0
    0.6010   -3.7336   -2.2211 C   0  0  0  0  0  0  0  0  0  0  0  0
    0.3025   -4.0310   -5.0086 C   0  0  0  0  0  0  0  0  0  0  0  0
   -0.6439   -2.0888   -4.9541 H   0  0  0  0  0  0  0  0  0  0  0  0
    1.0195   -4.8951   -2.8458 C   0  0  0  0  0  0  0  0  0  0  0  0
    0.6302   -3.6682   -1.1392 H   0  0  0  0  0  0  0  0  0  0  0  0
    0.8960   -5.0409   -4.2388 C   0  0  0  0  0  0  0  0  0  0  0  0
    0.1876   -4.1647   -6.0776 H   0  0  0  0  0  0  0  0  0  0  0  0
    1.4350   -5.7195   -2.2763 H   0  0  0  0  0  0  0  0  0  0  0  0
    0.7244   -1.0613    0.7943 C   0  0  1  0  0  0  0  0  0  0  0  0
    1.1846   -1.1364   -0.6125 C   0  0  2  0  0  0  0  0  0  0  0  0
    1.5587   -1.0448    1.7518 C   0  0  0  0  0  0  0  0  0  0  0  0
    1.7019    0.3570   -0.3941 C   0  0  2  0  0  0  0  0  0  0  0  0
    1.8477   -1.9107   -0.9812 H   0  0  0  0  0  0  0  0  0  0  0  0
    2.6037   -0.1007    1.8738 C   0  0  0  0  0  0  0  0  0  0  0  0
    2.7257    0.5733    0.6850 C   0  0  0  0  0  0  0  0  0  0  0  0
    3.2869    0.0084    2.7081 H   0  0  0  0  0  0  0  0  0  0  0  0
    3.5170    1.2933    0.5019 H   0  0  0  0  0  0  0  0  0  0  0  0
    1.3896   -6.3228   -4.8407 C   0  0  0  0  0  0  0  0  0  0  0  0
    1.9040   -7.2063   -4.1911 O   0  0  0  0  0  0  0  0  0  0  0  0
    1.1972   -6.3734   -6.1708 O   0  0  0  0  0  0  0  0  0  0  0  0
    1.5391   -7.2294   -6.4813 H   0  0  0  0  0  0  0  0  0  0  0  0
   -3.7947    2.1888   -0.4763 C   0  0  0  0  0  0  0  0  0  0  0  0
   -4.5492    1.7407   -1.3125 O   0  0  0  0  0  0  0  0  0  0  0  0
   -4.1128    3.1883    0.3684 O   0  0  0  0  0  0  0  0  0  0  0  0
   -5.0274    3.4526    0.1703 H   0  0  0  0  0  0  0  0  0  0  0  0
    2.0467    1.0597   -1.7128 C   0  0  0  0  0  0  0  0  0  0  0  0
    2.0066    0.5026   -2.7853 O   0  0  0  0  0  0  0  0  0  0  0  0
    2.3791    2.3415   -1.5193 O   0  0  0  0  0  0  0  0  0  0  0  0
    2.5856    2.7360   -2.3859 H   0  0  0  0  0  0  0  0  0  0  0  0
  1  2  2  0  0  0  0
  1  6  1  0  0  0  0
  3  2  1  6  0  0  0
  3 22  1  0  0  0  0
  3  4  1  0  0  0  0
  4  9  1  0  0  0  0
  5  4  2  0  0  0  0
  5  8  1  0  0  0  0
  6 35  1  6  0  0  0
  6  5  1  0  0  0  0
  7  1  1  0  0  0  0
 10  2  1  0  0  0  0
 10 23  1  0  0  0  0
 11 10  1  0  0  0  0
 12 11  1  0  0  0  0
 12 14  2  0  0  0  0
 13 12  1  0  0  0  0
 14 18  1  0  0  0  0
 15 13  2  0  0  0  0
 15 19  1  0  0  0  0
 16 13  1  0  0  0  0
 17 21  1  0  0  0  0
 17 14  1  0  0  0  0
 19 17  2  0  0  0  0
 20 15  1  0  0  0  0
 22 24  1  1  0  0  0
 23 26  1  6  0  0  0
 23 25  1  0  0  0  0
 23 22  1  0  0  0  0
 24 27  2  0  0  0  0
 25 39  1  6  0  0  0
 25  3  1  0  0  0  0
 25 28  1  0  0  0  0
 27 29  1  0  0  0  0
 28 27  1  0  0  0  0
 30 28  1  0  0  0  0
 31 19  1  0  0  0  0
 31 32  2  0  0  0  0
 33 31  1  0  0  0  0
 34 33  1  0  0  0  0
 35 37  1  0  0  0  0
 36 35  2  0  0  0  0
 38 37  1  0  0  0  0
 39 41  1  0  0  0  0
 40 39  2  0  0  0  0
 42 41  1  0  0  0  0
M  RAD  5   6   2  11   2  22   2  24   2  28   2
M  END
