Coordinates from ORCA-job 1g-Schema5-R9-P1+-B3LYPG-6-31G_dp-scan-d49-09-n400
 OpenBabel08231810273D

 42 45  0  0  1  0  0  0  0  0999 V2000
   -1.9840    0.6197   -1.0828 C   0  0  0  0  0  0  0  0  0  0  0  0
   -0.6580    0.2425   -0.9508 C   0  0  0  0  0  0  0  0  0  0  0  0
    0.2486    0.8387   -0.0562 C   0  0  0  0  0  0  0  0  0  0  0  0
   -0.1895    1.9174    0.7034 C   0  0  0  0  0  0  0  0  0  0  0  0
   -1.5300    2.3105    0.6095 C   0  0  0  0  0  0  0  0  0  0  0  0
   -2.4171    1.6812   -0.2816 C   0  0  0  0  0  0  0  0  0  0  0  0
   -2.6738    0.1168   -1.7511 H   0  0  0  0  0  0  0  0  0  0  0  0
   -1.8943    3.1323    1.2158 H   0  0  0  0  0  0  0  0  0  0  0  0
    0.4918    2.4441    1.3627 H   0  0  0  0  0  0  0  0  0  0  0  0
   -0.0161   -0.8754   -1.5309 N   0  0  0  0  0  0  0  0  0  0  0  0
   -0.4793   -1.4881   -2.5268 N   0  0  0  0  0  0  0  0  0  0  0  0
    0.0318   -2.6834   -3.0080 C   0  0  0  0  0  0  0  0  0  0  0  0
   -0.2211   -2.8919   -4.3822 C   0  0  0  0  0  0  0  0  0  0  0  0
    0.6564   -3.6958   -2.2381 C   0  0  0  0  0  0  0  0  0  0  0  0
    0.2280   -4.0492   -5.0028 C   0  0  0  0  0  0  0  0  0  0  0  0
   -0.7445   -2.1206   -4.9363 H   0  0  0  0  0  0  0  0  0  0  0  0
    1.0591   -4.8638   -2.8621 C   0  0  0  0  0  0  0  0  0  0  0  0
    0.7450   -3.6084   -1.1614 H   0  0  0  0  0  0  0  0  0  0  0  0
    0.8707   -5.0370   -4.2443 C   0  0  0  0  0  0  0  0  0  0  0  0
    0.0640   -4.2039   -6.0624 H   0  0  0  0  0  0  0  0  0  0  0  0
    1.5150   -5.6709   -2.2988 H   0  0  0  0  0  0  0  0  0  0  0  0
    0.7787   -1.2843    0.7253 C   0  0  0  0  0  0  0  0  0  0  0  0
    1.2165   -1.0962   -0.6597 C   0  0  2  0  0  0  0  0  0  0  0  0
    1.5137   -1.1509    1.7175 C   0  0  0  0  0  0  0  0  0  0  0  0
    1.6896    0.3962   -0.3688 C   0  0  2  0  0  0  0  0  0  0  0  0
    1.9128   -1.7909   -1.1211 H   0  0  0  0  0  0  0  0  0  0  0  0
    2.4896   -0.1299    1.9432 C   0  0  0  0  0  0  0  0  0  0  0  0
    2.6313    0.6060    0.8092 C   0  0  0  0  0  0  0  0  0  0  0  0
    3.1197   -0.0254    2.8184 H   0  0  0  0  0  0  0  0  0  0  0  0
    3.3938    1.3719    0.7103 H   0  0  0  0  0  0  0  0  0  0  0  0
    1.3534   -6.3230   -4.8470 C   0  0  0  0  0  0  0  0  0  0  0  0
    1.9081   -7.1891   -4.2072 O   0  0  0  0  0  0  0  0  0  0  0  0
    1.1020   -6.3983   -6.1660 O   0  0  0  0  0  0  0  0  0  0  0  0
    1.4405   -7.2552   -6.4776 H   0  0  0  0  0  0  0  0  0  0  0  0
   -3.8506    2.0940   -0.4167 C   0  0  0  0  0  0  0  0  0  0  0  0
   -4.6265    1.5627   -1.1804 O   0  0  0  0  0  0  0  0  0  0  0  0
   -4.1717    3.1129    0.4011 O   0  0  0  0  0  0  0  0  0  0  0  0
   -5.1106    3.3186    0.2528 H   0  0  0  0  0  0  0  0  0  0  0  0
    2.1876    1.0559   -1.6667 C   0  0  0  0  0  0  0  0  0  0  0  0
    2.1508    0.4971   -2.7390 O   0  0  0  0  0  0  0  0  0  0  0  0
    2.6345    2.2999   -1.4615 O   0  0  0  0  0  0  0  0  0  0  0  0
    2.9237    2.6638   -2.3177 H   0  0  0  0  0  0  0  0  0  0  0  0
  1  2  2  0  0  0  0
  1  6  1  0  0  0  0
  2  3  1  0  0  0  0
  3  4  2  0  0  0  0
  4  9  1  0  0  0  0
  5  4  1  0  0  0  0
  5  8  1  0  0  0  0
  6  5  2  0  0  0  0
  7  1  1  0  0  0  0
 10  2  1  0  0  0  0
 10 23  1  0  0  0  0
 11 10  1  0  0  0  0
 12 11  1  0  0  0  0
 12 14  2  0  0  0  0
 13 12  1  0  0  0  0
 14 18  1  0  0  0  0
 15 13  2  0  0  0  0
 15 19  1  0  0  0  0
 16 13  1  0  0  0  0
 17 21  1  0  0  0  0
 17 14  1  0  0  0  0
 19 17  2  0  0  0  0
 20 15  1  0  0  0  0
 22 24  1  0  0  0  0
 23 26  1  6  0  0  0
 23 25  1  0  0  0  0
 23 22  1  0  0  0  0
 24 27  2  0  0  0  0
 25 39  1  6  0  0  0
 25  3  1  0  0  0  0
 25 28  1  0  0  0  0
 27 29  1  0  0  0  0
 28 27  1  0  0  0  0
 30 28  1  0  0  0  0
 31 19  1  0  0  0  0
 31 32  2  0  0  0  0
 33 31  1  0  0  0  0
 34 33  1  0  0  0  0
 35  6  1  0  0  0  0
 35 37  1  0  0  0  0
 36 35  2  0  0  0  0
 38 37  1  0  0  0  0
 39 41  1  0  0  0  0
 40 39  2  0  0  0  0
 42 41  1  0  0  0  0
M  RAD  4  11   2  22   3  24   2  28   2
M  END
