Coordinates from ORCA-job 1g-Schema5-R9-P1+-B3LYPG-6-31G_dp-scan-d49-09-n400
 OpenBabel08231810273D

 42 43  0  0  0  0  0  0  0  0999 V2000
   -3.1152    0.4313   -1.2556 C   0  0  0  0  0  0  0  0  0  0  0  0
   -1.7646    0.1892   -0.8227 C   0  0  0  0  0  0  0  0  0  0  0  0
   -1.6652    1.0236    0.2078 C   0  0  0  0  0  0  0  0  0  0  0  0
   -2.3197    1.9411    0.9390 C   0  0  0  0  0  0  0  0  0  0  0  0
   -3.6298    2.1002    0.4298 C   0  0  0  0  0  0  0  0  0  0  0  0
   -4.0088    1.3257   -0.6812 C   0  0  0  0  0  0  0  0  0  0  0  0
   -3.3678   -0.1934   -2.1225 H   0  0  0  0  0  0  0  0  0  0  0  0
   -4.3060    2.8064    0.8997 H   0  0  0  0  0  0  0  0  0  0  0  0
   -1.9239    2.4855    1.7894 H   0  0  0  0  0  0  0  0  0  0  0  0
   -0.9007   -0.7351   -1.4501 N   0  0  0  0  0  0  0  0  0  0  0  0
   -1.4010   -1.3409   -2.4245 N   0  0  0  0  0  0  0  0  0  0  0  0
   -0.6233   -2.2675   -3.1073 C   0  0  0  0  0  0  0  0  0  0  0  0
   -1.2661   -2.9072   -4.1885 C   0  0  0  0  0  0  0  0  0  0  0  0
    0.7167   -2.5701   -2.7736 C   0  0  0  0  0  0  0  0  0  0  0  0
   -0.5737   -3.8492   -4.9366 C   0  0  0  0  0  0  0  0  0  0  0  0
   -2.2946   -2.6487   -4.4157 H   0  0  0  0  0  0  0  0  0  0  0  0
    1.3948   -3.5090   -3.5280 C   0  0  0  0  0  0  0  0  0  0  0  0
    1.2154   -2.0815   -1.9455 H   0  0  0  0  0  0  0  0  0  0  0  0
    0.7570   -4.1501   -4.6069 C   0  0  0  0  0  0  0  0  0  0  0  0
   -1.0492   -4.3506   -5.7705 H   0  0  0  0  0  0  0  0  0  0  0  0
    2.4229   -3.7580   -3.2937 H   0  0  0  0  0  0  0  0  0  0  0  0
    2.5882    1.0128    1.5456 C   0  0  0  0  0  0  0  0  0  0  0  0
    2.6646   -0.0550    0.6679 C   0  0  0  0  0  0  0  0  0  0  0  0
    3.5877    1.5666    2.0578 C   0  0  0  0  0  0  0  0  0  0  0  0
    4.0080   -0.4401    0.4174 C   0  0  0  0  0  0  0  0  0  0  0  0
    1.8444   -0.5823    0.1944 H   0  0  0  0  0  0  0  0  0  0  0  0
    4.9341    1.3042    1.9095 C   0  0  0  0  0  0  0  0  0  0  0  0
    5.1019    0.2196    1.0225 C   0  0  0  0  0  0  0  0  0  0  0  0
    5.7671    1.8143    2.3771 H   0  0  0  0  0  0  0  0  0  0  0  0
    6.1070   -0.1209    0.7976 H   0  0  0  0  0  0  0  0  0  0  0  0
    1.5569   -5.1559   -5.3803 C   0  0  0  0  0  0  0  0  0  0  0  0
    2.7122   -5.4245   -5.1331 O   0  0  0  0  0  0  0  0  0  0  0  0
    0.8490   -5.7246   -6.3748 O   0  0  0  0  0  0  0  0  0  0  0  0
    1.4376   -6.3578   -6.8200 H   0  0  0  0  0  0  0  0  0  0  0  0
   -5.3729    1.4121   -1.3072 C   0  0  0  0  0  0  0  0  0  0  0  0
   -5.7013    0.7496   -2.2637 O   0  0  0  0  0  0  0  0  0  0  0  0
   -6.1538    2.3043   -0.6792 O   0  0  0  0  0  0  0  0  0  0  0  0
   -7.0160    2.3178   -1.1303 H   0  0  0  0  0  0  0  0  0  0  0  0
    4.2159   -1.5776   -0.5208 C   0  0  0  0  0  0  0  0  0  0  0  0
    3.3178   -2.1541   -1.1133 O   0  0  0  0  0  0  0  0  0  0  0  0
    5.5081   -1.9261   -0.6631 O   0  0  0  0  0  0  0  0  0  0  0  0
    5.5358   -2.6735   -1.2840 H   0  0  0  0  0  0  0  0  0  0  0  0
  1  2  2  0  0  0  0
  1  6  1  0  0  0  0
  2  3  1  0  0  0  0
  3  4  2  0  0  0  0
  4  9  1  0  0  0  0
  5  8  1  0  0  0  0
  5  4  1  0  0  0  0
  6  5  2  0  0  0  0
  7  1  1  0  0  0  0
 10  2  1  0  0  0  0
 11 10  1  0  0  0  0
 12 14  1  0  0  0  0
 12 11  1  0  0  0  0
 13 12  2  0  0  0  0
 14 18  1  0  0  0  0
 15 19  2  0  0  0  0
 15 13  1  0  0  0  0
 16 13  1  0  0  0  0
 17 21  1  0  0  0  0
 17 14  2  0  0  0  0
 19 17  1  0  0  0  0
 20 15  1  0  0  0  0
 22 24  2  0  0  0  0
 23 22  1  0  0  0  0
 25 23  2  0  0  0  0
 25 28  1  0  0  0  0
 26 23  1  0  0  0  0
 27 24  1  0  0  0  0
 27 29  1  0  0  0  0
 28 27  2  0  0  0  0
 30 28  1  0  0  0  0
 31 32  2  0  0  0  0
 31 19  1  0  0  0  0
 33 31  1  0  0  0  0
 34 33  1  0  0  0  0
 35  6  1  0  0  0  0
 35 37  1  0  0  0  0
 36 35  2  0  0  0  0
 38 37  1  0  0  0  0
 39 25  1  0  0  0  0
 40 39  2  0  0  0  0
 41 39  1  0  0  0  0
 42 41  1  0  0  0  0
M  RAD  5   3   2  10   2  11   2  22   2  24   2
M  END
