Coordinates from ORCA-job 1g-Schema5-R9-P1+-B3LYPG-6-31G_dp-scan-d49-09-n400
 OpenBabel08231810273D

 42 45  0  0  1  0  0  0  0  0999 V2000
   -1.9825    0.6258   -1.0853 C   0  0  0  0  0  0  0  0  0  0  0  0
   -0.6609    0.2369   -0.9468 C   0  0  0  0  0  0  0  0  0  0  0  0
    0.2441    0.8109   -0.0318 C   0  0  0  0  0  0  0  0  0  0  0  0
   -0.1926    1.8909    0.7299 C   0  0  0  0  0  0  0  0  0  0  0  0
   -1.5287    2.2938    0.6295 C   0  0  0  0  0  0  0  0  0  0  0  0
   -2.4144    1.6813   -0.2756 C   0  0  0  0  0  0  0  0  0  0  0  0
   -2.6701    0.1366   -1.7660 H   0  0  0  0  0  0  0  0  0  0  0  0
   -1.8910    3.1137    1.2397 H   0  0  0  0  0  0  0  0  0  0  0  0
    0.4879    2.4084    1.3975 H   0  0  0  0  0  0  0  0  0  0  0  0
   -0.0222   -0.8819   -1.5268 N   0  0  0  0  0  0  0  0  0  0  0  0
   -0.4778   -1.4884   -2.5303 N   0  0  0  0  0  0  0  0  0  0  0  0
    0.0324   -2.6845   -3.0098 C   0  0  0  0  0  0  0  0  0  0  0  0
   -0.2012   -2.8851   -4.3886 C   0  0  0  0  0  0  0  0  0  0  0  0
    0.6390   -3.7044   -2.2355 C   0  0  0  0  0  0  0  0  0  0  0  0
    0.2508   -4.0421   -5.0079 C   0  0  0  0  0  0  0  0  0  0  0  0
   -0.7116   -2.1081   -4.9469 H   0  0  0  0  0  0  0  0  0  0  0  0
    1.0448   -4.8716   -2.8588 C   0  0  0  0  0  0  0  0  0  0  0  0
    0.7099   -3.6229   -1.1570 H   0  0  0  0  0  0  0  0  0  0  0  0
    0.8766   -5.0370   -4.2446 C   0  0  0  0  0  0  0  0  0  0  0  0
    0.1019   -4.1909   -6.0706 H   0  0  0  0  0  0  0  0  0  0  0  0
    1.4871   -5.6842   -2.2925 H   0  0  0  0  0  0  0  0  0  0  0  0
    0.7505   -1.2207    0.7455 C   0  0  0  0  0  0  0  0  0  0  0  0
    1.2044   -1.1037   -0.6453 C   0  0  2  0  0  0  0  0  0  0  0  0
    1.5062   -1.1133    1.7312 C   0  0  0  0  0  0  0  0  0  0  0  0
    1.6918    0.3881   -0.3758 C   0  0  2  0  0  0  0  0  0  0  0  0
    1.8919   -1.8249   -1.0768 H   0  0  0  0  0  0  0  0  0  0  0  0
    2.5053   -0.1128    1.9319 C   0  0  0  0  0  0  0  0  0  0  0  0
    2.6525    0.6011    0.7826 C   0  0  0  0  0  0  0  0  0  0  0  0
    3.1455   -0.0075    2.7997 H   0  0  0  0  0  0  0  0  0  0  0  0
    3.4295    1.3490    0.6610 H   0  0  0  0  0  0  0  0  0  0  0  0
    1.3611   -6.3230   -4.8460 C   0  0  0  0  0  0  0  0  0  0  0  0
    1.9017   -7.1948   -4.2020 O   0  0  0  0  0  0  0  0  0  0  0  0
    1.1285   -6.3910   -6.1689 O   0  0  0  0  0  0  0  0  0  0  0  0
    1.4670   -7.2483   -6.4794 H   0  0  0  0  0  0  0  0  0  0  0  0
   -3.8423    2.1081   -0.4191 C   0  0  0  0  0  0  0  0  0  0  0  0
   -4.6163    1.5922   -1.1954 O   0  0  0  0  0  0  0  0  0  0  0  0
   -4.1627    3.1199    0.4082 O   0  0  0  0  0  0  0  0  0  0  0  0
   -5.0985    3.3347    0.2540 H   0  0  0  0  0  0  0  0  0  0  0  0
    2.1627    1.0494   -1.6820 C   0  0  0  0  0  0  0  0  0  0  0  0
    2.1283    0.4841   -2.7508 O   0  0  0  0  0  0  0  0  0  0  0  0
    2.5920    2.3011   -1.4857 O   0  0  0  0  0  0  0  0  0  0  0  0
    2.8690    2.6657   -2.3457 H   0  0  0  0  0  0  0  0  0  0  0  0
  1  2  2  0  0  0  0
  1  6  1  0  0  0  0
  2  3  1  0  0  0  0
  3  4  2  0  0  0  0
  4  9  1  0  0  0  0
  5  4  1  0  0  0  0
  5  8  1  0  0  0  0
  6  5  2  0  0  0  0
  7  1  1  0  0  0  0
 10  2  1  0  0  0  0
 10 23  1  0  0  0  0
 11 10  1  0  0  0  0
 12 11  1  0  0  0  0
 12 14  2  0  0  0  0
 13 12  1  0  0  0  0
 14 18  1  0  0  0  0
 15 13  2  0  0  0  0
 15 19  1  0  0  0  0
 16 13  1  0  0  0  0
 17 21  1  0  0  0  0
 17 14  1  0  0  0  0
 19 17  2  0  0  0  0
 20 15  1  0  0  0  0
 22 24  1  0  0  0  0
 23 26  1  6  0  0  0
 23 25  1  0  0  0  0
 23 22  1  0  0  0  0
 24 27  2  0  0  0  0
 25 39  1  6  0  0  0
 25  3  1  0  0  0  0
 25 28  1  0  0  0  0
 27 29  1  0  0  0  0
 28 27  1  0  0  0  0
 30 28  1  0  0  0  0
 31 19  1  0  0  0  0
 31 32  2  0  0  0  0
 33 31  1  0  0  0  0
 34 33  1  0  0  0  0
 35  6  1  0  0  0  0
 35 37  1  0  0  0  0
 36 35  2  0  0  0  0
 38 37  1  0  0  0  0
 39 41  1  0  0  0  0
 40 39  2  0  0  0  0
 42 41  1  0  0  0  0
M  RAD  4  11   2  22   3  24   2  28   2
M  END
