Coordinates from ORCA-job 1g-Schema5-R9-P1+-B3LYPG-6-31G_dp-scan-d49-09-n400
 OpenBabel08231810273D

 42 45  0  0  1  0  0  0  0  0999 V2000
   -1.9841    0.5890   -1.0771 C   0  0  0  0  0  0  0  0  0  0  0  0
   -0.6474    0.2444   -0.9387 C   0  0  0  0  0  0  0  0  0  0  0  0
    0.2527    0.9264   -0.1110 C   0  0  0  0  0  0  0  0  0  0  0  0
   -0.2002    2.0263    0.6067 C   0  0  0  0  0  0  0  0  0  0  0  0
   -1.5477    2.3910    0.5014 C   0  0  0  0  0  0  0  0  0  0  0  0
   -2.4295    1.6883   -0.3386 C   0  0  0  0  0  0  0  0  0  0  0  0
   -2.6701    0.0331   -1.7059 H   0  0  0  0  0  0  0  0  0  0  0  0
   -1.9241    3.2368    1.0654 H   0  0  0  0  0  0  0  0  0  0  0  0
    0.4742    2.5954    1.2370 H   0  0  0  0  0  0  0  0  0  0  0  0
    0.0095   -0.8704   -1.5089 N   0  0  0  0  0  0  0  0  0  0  0  0
   -0.4873   -1.5178   -2.4679 N   0  0  0  0  0  0  0  0  0  0  0  0
    0.0292   -2.7015   -2.9678 C   0  0  0  0  0  0  0  0  0  0  0  0
   -0.3627   -2.9553   -4.3028 C   0  0  0  0  0  0  0  0  0  0  0  0
    0.7893   -3.6648   -2.2567 C   0  0  0  0  0  0  0  0  0  0  0  0
    0.0675   -4.1048   -4.9492 C   0  0  0  0  0  0  0  0  0  0  0  0
   -0.9827   -2.2225   -4.8076 H   0  0  0  0  0  0  0  0  0  0  0  0
    1.1748   -4.8268   -2.9021 C   0  0  0  0  0  0  0  0  0  0  0  0
    1.0039   -3.5476   -1.2017 H   0  0  0  0  0  0  0  0  0  0  0  0
    0.8386   -5.0433   -4.2497 C   0  0  0  0  0  0  0  0  0  0  0  0
   -0.2069   -4.2922   -5.9800 H   0  0  0  0  0  0  0  0  0  0  0  0
    1.7343   -5.5960   -2.3805 H   0  0  0  0  0  0  0  0  0  0  0  0
    0.9882   -1.5829    0.6181 C   0  0  0  0  0  0  0  0  0  0  0  0
    1.2908   -1.0668   -0.7135 C   0  0  2  0  0  0  0  0  0  0  0  0
    1.6469   -1.3641    1.6335 C   0  0  0  0  0  0  0  0  0  0  0  0
    1.6799    0.4275   -0.3128 C   0  0  2  0  0  0  0  0  0  0  0  0
    2.0153   -1.6041   -1.3236 H   0  0  0  0  0  0  0  0  0  0  0  0
    2.4741   -0.2483    1.9866 C   0  0  0  0  0  0  0  0  0  0  0  0
    2.5360    0.6122    0.9407 C   0  0  0  0  0  0  0  0  0  0  0  0
    3.0620   -0.1452    2.8904 H   0  0  0  0  0  0  0  0  0  0  0  0
    3.1862    1.4809    0.9626 H   0  0  0  0  0  0  0  0  0  0  0  0
    1.3122   -6.3201   -4.8787 C   0  0  0  0  0  0  0  0  0  0  0  0
    1.9760   -7.1443   -4.2899 O   0  0  0  0  0  0  0  0  0  0  0  0
    0.9179   -6.4385   -6.1591 O   0  0  0  0  0  0  0  0  0  0  0  0
    1.2596   -7.2864   -6.4910 H   0  0  0  0  0  0  0  0  0  0  0  0
   -3.8747    2.0610   -0.4791 C   0  0  0  0  0  0  0  0  0  0  0  0
   -4.6482    1.4653   -1.1958 O   0  0  0  0  0  0  0  0  0  0  0  0
   -4.2064    3.1246    0.2747 O   0  0  0  0  0  0  0  0  0  0  0  0
   -5.1512    3.3017    0.1270 H   0  0  0  0  0  0  0  0  0  0  0  0
    2.2737    1.1205   -1.5559 C   0  0  0  0  0  0  0  0  0  0  0  0
    2.2607    0.6120   -2.6533 O   0  0  0  0  0  0  0  0  0  0  0  0
    2.7600    2.3353   -1.2777 O   0  0  0  0  0  0  0  0  0  0  0  0
    3.0993    2.7229   -2.1046 H   0  0  0  0  0  0  0  0  0  0  0  0
  1  2  2  0  0  0  0
  1  6  1  0  0  0  0
  2  3  1  0  0  0  0
  3  4  2  0  0  0  0
  4  9  1  0  0  0  0
  5  4  1  0  0  0  0
  5  8  1  0  0  0  0
  6  5  2  0  0  0  0
  7  1  1  0  0  0  0
 10  2  1  0  0  0  0
 10 23  1  0  0  0  0
 11 10  1  0  0  0  0
 12 11  1  0  0  0  0
 12 14  2  0  0  0  0
 13 12  1  0  0  0  0
 14 18  1  0  0  0  0
 15 13  2  0  0  0  0
 15 19  1  0  0  0  0
 16 13  1  0  0  0  0
 17 21  1  0  0  0  0
 17 14  1  0  0  0  0
 19 17  2  0  0  0  0
 20 15  1  0  0  0  0
 22 24  1  0  0  0  0
 23 26  1  6  0  0  0
 23 25  1  0  0  0  0
 23 22  1  0  0  0  0
 24 27  2  0  0  0  0
 25 39  1  6  0  0  0
 25  3  1  0  0  0  0
 25 28  1  0  0  0  0
 27 29  1  0  0  0  0
 28 30  1  0  0  0  0
 28 27  1  0  0  0  0
 31 32  2  0  0  0  0
 31 19  1  0  0  0  0
 33 31  1  0  0  0  0
 34 33  1  0  0  0  0
 35  6  1  0  0  0  0
 35 37  1  0  0  0  0
 36 35  2  0  0  0  0
 38 37  1  0  0  0  0
 39 41  1  0  0  0  0
 40 39  2  0  0  0  0
 42 41  1  0  0  0  0
M  RAD  4  11   2  22   3  24   2  28   2
M  END
