Coordinates from ORCA-job 1g-Schema5-R9-P1+-B3LYPG-6-31G_dp-scan-d49-09-n400
 OpenBabel08231810273D

 42 45  0  0  1  0  0  0  0  0999 V2000
   -1.9805    0.6306   -1.0875 C   0  0  0  0  0  0  0  0  0  0  0  0
   -0.6632    0.2305   -0.9413 C   0  0  0  0  0  0  0  0  0  0  0  0
    0.2396    0.7854   -0.0082 C   0  0  0  0  0  0  0  0  0  0  0  0
   -0.1966    1.8682    0.7540 C   0  0  0  0  0  0  0  0  0  0  0  0
   -1.5280    2.2807    0.6451 C   0  0  0  0  0  0  0  0  0  0  0  0
   -2.4116    1.6822   -0.2726 C   0  0  0  0  0  0  0  0  0  0  0  0
   -2.6653    0.1534   -1.7795 H   0  0  0  0  0  0  0  0  0  0  0  0
   -1.8888    3.1000    1.2570 H   0  0  0  0  0  0  0  0  0  0  0  0
    0.4822    2.3775    1.4294 H   0  0  0  0  0  0  0  0  0  0  0  0
   -0.0270   -0.8885   -1.5214 N   0  0  0  0  0  0  0  0  0  0  0  0
   -0.4769   -1.4902   -2.5309 N   0  0  0  0  0  0  0  0  0  0  0  0
    0.0330   -2.6862   -3.0098 C   0  0  0  0  0  0  0  0  0  0  0  0
   -0.1883   -2.8815   -4.3914 C   0  0  0  0  0  0  0  0  0  0  0  0
    0.6285   -3.7110   -2.2333 C   0  0  0  0  0  0  0  0  0  0  0  0
    0.2659   -4.0379   -5.0102 C   0  0  0  0  0  0  0  0  0  0  0  0
   -0.6904   -2.1007   -4.9519 H   0  0  0  0  0  0  0  0  0  0  0  0
    1.0367   -4.8773   -2.8566 C   0  0  0  0  0  0  0  0  0  0  0  0
    0.6880   -3.6338   -1.1537 H   0  0  0  0  0  0  0  0  0  0  0  0
    0.8812   -5.0374   -4.2446 C   0  0  0  0  0  0  0  0  0  0  0  0
    0.1266   -4.1825   -6.0749 H   0  0  0  0  0  0  0  0  0  0  0  0
    1.4705   -5.6935   -2.2889 H   0  0  0  0  0  0  0  0  0  0  0  0
    0.7346   -1.1753    0.7599 C   0  0  0  0  0  0  0  0  0  0  0  0
    1.1968   -1.1107   -0.6346 C   0  0  2  0  0  0  0  0  0  0  0  0
    1.5074   -1.0895    1.7402 C   0  0  0  0  0  0  0  0  0  0  0  0
    1.6939    0.3808   -0.3799 C   0  0  2  0  0  0  0  0  0  0  0  0
    1.8775   -1.8494   -1.0455 H   0  0  0  0  0  0  0  0  0  0  0  0
    2.5216   -0.1039    1.9222 C   0  0  0  0  0  0  0  0  0  0  0  0
    2.6694    0.5955    0.7622 C   0  0  0  0  0  0  0  0  0  0  0  0
    3.1701    0.0020    2.7838 H   0  0  0  0  0  0  0  0  0  0  0  0
    3.4546    1.3320    0.6243 H   0  0  0  0  0  0  0  0  0  0  0  0
    1.3672   -6.3229   -4.8456 C   0  0  0  0  0  0  0  0  0  0  0  0
    1.8993   -7.1984   -4.1996 O   0  0  0  0  0  0  0  0  0  0  0  0
    1.1465   -6.3860   -6.1708 O   0  0  0  0  0  0  0  0  0  0  0  0
    1.4853   -7.2433   -6.4810 H   0  0  0  0  0  0  0  0  0  0  0  0
   -3.8340    2.1221   -0.4256 C   0  0  0  0  0  0  0  0  0  0  0  0
   -4.6052    1.6199   -1.2136 O   0  0  0  0  0  0  0  0  0  0  0  0
   -4.1535    3.1301    0.4070 O   0  0  0  0  0  0  0  0  0  0  0  0
   -5.0859    3.3541    0.2455 H   0  0  0  0  0  0  0  0  0  0  0  0
    2.1411    1.0463   -1.6915 C   0  0  0  0  0  0  0  0  0  0  0  0
    2.1044    0.4795   -2.7593 O   0  0  0  0  0  0  0  0  0  0  0  0
    2.5501    2.3058   -1.5007 O   0  0  0  0  0  0  0  0  0  0  0  0
    2.8125    2.6741   -2.3637 H   0  0  0  0  0  0  0  0  0  0  0  0
  1  2  2  0  0  0  0
  1  6  1  0  0  0  0
  2  3  1  0  0  0  0
  3  4  2  0  0  0  0
  4  9  1  0  0  0  0
  5  4  1  0  0  0  0
  5  8  1  0  0  0  0
  6  5  2  0  0  0  0
  7  1  1  0  0  0  0
 10  2  1  0  0  0  0
 10 23  1  0  0  0  0
 11 10  1  0  0  0  0
 12 11  1  0  0  0  0
 12 14  2  0  0  0  0
 13 12  1  0  0  0  0
 14 18  1  0  0  0  0
 15 13  2  0  0  0  0
 15 19  1  0  0  0  0
 16 13  1  0  0  0  0
 17 21  1  0  0  0  0
 17 14  1  0  0  0  0
 19 17  2  0  0  0  0
 20 15  1  0  0  0  0
 22 24  1  0  0  0  0
 23 26  1  6  0  0  0
 23 25  1  0  0  0  0
 23 22  1  0  0  0  0
 24 27  2  0  0  0  0
 25 39  1  6  0  0  0
 25  3  1  0  0  0  0
 25 28  1  0  0  0  0
 27 29  1  0  0  0  0
 28 27  1  0  0  0  0
 30 28  1  0  0  0  0
 31 19  1  0  0  0  0
 31 32  2  0  0  0  0
 33 31  1  0  0  0  0
 34 33  1  0  0  0  0
 35  6  1  0  0  0  0
 35 37  1  0  0  0  0
 36 35  2  0  0  0  0
 38 37  1  0  0  0  0
 39 41  1  0  0  0  0
 40 39  2  0  0  0  0
 42 41  1  0  0  0  0
M  RAD  4  11   2  22   3  24   2  28   2
M  END
