Coordinates from ORCA-job 1g-Schema5-R9-P1+-B3LYPG-6-31G_dp-scan-d49-09-n400
 OpenBabel08231810273D

 42 43  0  0  0  0  0  0  0  0999 V2000
   -3.1363    0.4330   -1.2613 C   0  0  0  0  0  0  0  0  0  0  0  0
   -1.7873    0.1941   -0.8218 C   0  0  0  0  0  0  0  0  0  0  0  0
   -1.6956    1.0277    0.2101 C   0  0  0  0  0  0  0  0  0  0  0  0
   -2.3565    1.9426    0.9387 C   0  0  0  0  0  0  0  0  0  0  0  0
   -3.6643    2.0988    0.4229 C   0  0  0  0  0  0  0  0  0  0  0  0
   -4.0353    1.3243   -0.6908 C   0  0  0  0  0  0  0  0  0  0  0  0
   -3.3826   -0.1918   -2.1300 H   0  0  0  0  0  0  0  0  0  0  0  0
   -4.3449    2.8028    0.8899 H   0  0  0  0  0  0  0  0  0  0  0  0
   -1.9668    2.4872    1.7919 H   0  0  0  0  0  0  0  0  0  0  0  0
   -0.9179   -0.7273   -1.4458 N   0  0  0  0  0  0  0  0  0  0  0  0
   -1.4124   -1.3347   -2.4221 N   0  0  0  0  0  0  0  0  0  0  0  0
   -0.6297   -2.2591   -3.1022 C   0  0  0  0  0  0  0  0  0  0  0  0
   -1.2677   -2.9016   -4.1845 C   0  0  0  0  0  0  0  0  0  0  0  0
    0.7103   -2.5573   -2.7645 C   0  0  0  0  0  0  0  0  0  0  0  0
   -0.5706   -3.8425   -4.9297 C   0  0  0  0  0  0  0  0  0  0  0  0
   -2.2963   -2.6465   -4.4147 H   0  0  0  0  0  0  0  0  0  0  0  0
    1.3931   -3.4951   -3.5161 C   0  0  0  0  0  0  0  0  0  0  0  0
    1.2057   -2.0663   -1.9358 H   0  0  0  0  0  0  0  0  0  0  0  0
    0.7601   -4.1392   -4.5960 C   0  0  0  0  0  0  0  0  0  0  0  0
   -1.0422   -4.3461   -5.7644 H   0  0  0  0  0  0  0  0  0  0  0  0
    2.4212   -3.7407   -3.2784 H   0  0  0  0  0  0  0  0  0  0  0  0
    2.6384    1.0162    1.5591 C   0  0  0  0  0  0  0  0  0  0  0  0
    2.6957   -0.0505    0.6791 C   0  0  0  0  0  0  0  0  0  0  0  0
    3.6467    1.5601    2.0642 C   0  0  0  0  0  0  0  0  0  0  0  0
    4.0331   -0.4484    0.4165 C   0  0  0  0  0  0  0  0  0  0  0  0
    1.8661   -0.5688    0.2120 H   0  0  0  0  0  0  0  0  0  0  0  0
    4.9891    1.2841    1.9034 C   0  0  0  0  0  0  0  0  0  0  0  0
    5.1386    0.1995    1.0132 C   0  0  0  0  0  0  0  0  0  0  0  0
    5.8312    1.7853    2.3644 H   0  0  0  0  0  0  0  0  0  0  0  0
    6.1383   -0.1502    0.7788 H   0  0  0  0  0  0  0  0  0  0  0  0
    1.5650   -5.1436   -5.3660 C   0  0  0  0  0  0  0  0  0  0  0  0
    2.7206   -5.4083   -5.1155 O   0  0  0  0  0  0  0  0  0  0  0  0
    0.8615   -5.7155   -6.3617 O   0  0  0  0  0  0  0  0  0  0  0  0
    1.4532   -6.3474   -6.8047 H   0  0  0  0  0  0  0  0  0  0  0  0
   -5.3964    1.4076   -1.3239 C   0  0  0  0  0  0  0  0  0  0  0  0
   -5.7183    0.7443   -2.2820 O   0  0  0  0  0  0  0  0  0  0  0  0
   -6.1836    2.2959   -0.6981 O   0  0  0  0  0  0  0  0  0  0  0  0
   -7.0438    2.3066   -1.1530 H   0  0  0  0  0  0  0  0  0  0  0  0
    4.2221   -1.5860   -0.5254 C   0  0  0  0  0  0  0  0  0  0  0  0
    3.3136   -2.1531   -1.1112 O   0  0  0  0  0  0  0  0  0  0  0  0
    5.5096   -1.9465   -0.6796 O   0  0  0  0  0  0  0  0  0  0  0  0
    5.5249   -2.6929   -1.3021 H   0  0  0  0  0  0  0  0  0  0  0  0
  1  2  2  0  0  0  0
  1  6  1  0  0  0  0
  2  3  1  0  0  0  0
  3  4  2  0  0  0  0
  4  9  1  0  0  0  0
  5  8  1  0  0  0  0
  5  4  1  0  0  0  0
  6  5  2  0  0  0  0
  7  1  1  0  0  0  0
 10  2  1  0  0  0  0
 11 10  1  0  0  0  0
 12 14  1  0  0  0  0
 12 11  1  0  0  0  0
 13 12  2  0  0  0  0
 14 18  1  0  0  0  0
 15 19  2  0  0  0  0
 15 13  1  0  0  0  0
 16 13  1  0  0  0  0
 17 21  1  0  0  0  0
 17 14  2  0  0  0  0
 19 17  1  0  0  0  0
 20 15  1  0  0  0  0
 22 24  2  0  0  0  0
 23 22  1  0  0  0  0
 25 23  2  0  0  0  0
 25 28  1  0  0  0  0
 26 23  1  0  0  0  0
 27 24  1  0  0  0  0
 27 29  1  0  0  0  0
 28 27  2  0  0  0  0
 30 28  1  0  0  0  0
 31 32  2  0  0  0  0
 31 19  1  0  0  0  0
 33 31  1  0  0  0  0
 34 33  1  0  0  0  0
 35 37  1  0  0  0  0
 35  6  1  0  0  0  0
 36 35  2  0  0  0  0
 38 37  1  0  0  0  0
 39 25  1  0  0  0  0
 40 39  2  0  0  0  0
 41 39  1  0  0  0  0
 42 41  1  0  0  0  0
M  RAD  5   3   2  10   2  11   2  22   2  24   2
M  END
