Coordinates from ORCA-job 1g-Schema5-R9-P1+-B3LYPG-6-31G_dp-scan-d49-09-n400
 OpenBabel08231810273D

 42 43  0  0  0  0  0  0  0  0999 V2000
   -3.0587    0.4280   -1.2425 C   0  0  0  0  0  0  0  0  0  0  0  0
   -1.7043    0.1829   -0.8247 C   0  0  0  0  0  0  0  0  0  0  0  0
   -1.5887    1.0217    0.2006 C   0  0  0  0  0  0  0  0  0  0  0  0
   -2.2306    1.9452    0.9352 C   0  0  0  0  0  0  0  0  0  0  0  0
   -3.5462    2.1066    0.4416 C   0  0  0  0  0  0  0  0  0  0  0  0
   -3.9417    1.3285   -0.6612 C   0  0  0  0  0  0  0  0  0  0  0  0
   -3.3243   -0.1987   -2.1040 H   0  0  0  0  0  0  0  0  0  0  0  0
   -4.2143    2.8171    0.9166 H   0  0  0  0  0  0  0  0  0  0  0  0
   -1.8217    2.4919    1.7780 H   0  0  0  0  0  0  0  0  0  0  0  0
   -0.8507   -0.7484   -1.4576 N   0  0  0  0  0  0  0  0  0  0  0  0
   -1.3638   -1.3510   -2.4273 N   0  0  0  0  0  0  0  0  0  0  0  0
   -0.6010   -2.2848   -3.1171 C   0  0  0  0  0  0  0  0  0  0  0  0
   -1.2611   -2.9134   -4.1944 C   0  0  0  0  0  0  0  0  0  0  0  0
    0.7383   -2.6045   -2.7962 C   0  0  0  0  0  0  0  0  0  0  0  0
   -0.5873   -3.8609   -4.9524 C   0  0  0  0  0  0  0  0  0  0  0  0
   -2.2884   -2.6416   -4.4112 H   0  0  0  0  0  0  0  0  0  0  0  0
    1.3976   -3.5487   -3.5608 C   0  0  0  0  0  0  0  0  0  0  0  0
    1.2513   -2.1265   -1.9703 H   0  0  0  0  0  0  0  0  0  0  0  0
    0.7425   -4.1785   -4.6362 C   0  0  0  0  0  0  0  0  0  0  0  0
   -1.0765   -4.3536   -5.7836 H   0  0  0  0  0  0  0  0  0  0  0  0
    2.4249   -3.8125   -3.3390 H   0  0  0  0  0  0  0  0  0  0  0  0
    2.4609    0.9928    1.5176 C   0  0  0  0  0  0  0  0  0  0  0  0
    2.5911   -0.0753    0.6445 C   0  0  0  0  0  0  0  0  0  0  0  0
    3.4356    1.5748    2.0466 C   0  0  0  0  0  0  0  0  0  0  0  0
    3.9502   -0.4197    0.4233 C   0  0  0  0  0  0  0  0  0  0  0  0
    1.7983   -0.6286    0.1549 H   0  0  0  0  0  0  0  0  0  0  0  0
    4.7920    1.3554    1.9294 C   0  0  0  0  0  0  0  0  0  0  0  0
    5.0107    0.2739    1.0492 C   0  0  0  0  0  0  0  0  0  0  0  0
    5.5987    1.8913    2.4139 H   0  0  0  0  0  0  0  0  0  0  0  0
    6.0302   -0.0372    0.8477 H   0  0  0  0  0  0  0  0  0  0  0  0
    1.5235   -5.1909   -5.4203 C   0  0  0  0  0  0  0  0  0  0  0  0
    2.6775   -5.4745   -5.1840 O   0  0  0  0  0  0  0  0  0  0  0  0
    0.8003   -5.7467   -6.4111 O   0  0  0  0  0  0  0  0  0  0  0  0
    1.3775   -6.3850   -6.8639 H   0  0  0  0  0  0  0  0  0  0  0  0
   -5.3130    1.4177   -1.2710 C   0  0  0  0  0  0  0  0  0  0  0  0
   -5.6562    0.7512   -2.2195 O   0  0  0  0  0  0  0  0  0  0  0  0
   -6.0833    2.3146   -0.6365 O   0  0  0  0  0  0  0  0  0  0  0  0
   -6.9513    2.3285   -1.0765 H   0  0  0  0  0  0  0  0  0  0  0  0
    4.2114   -1.5538   -0.5064 C   0  0  0  0  0  0  0  0  0  0  0  0
    3.3441   -2.1571   -1.1171 O   0  0  0  0  0  0  0  0  0  0  0  0
    5.5160   -1.8656   -0.6171 O   0  0  0  0  0  0  0  0  0  0  0  0
    5.5798   -2.6139   -1.2344 H   0  0  0  0  0  0  0  0  0  0  0  0
  1  2  2  0  0  0  0
  1  6  1  0  0  0  0
  2  3  1  0  0  0  0
  3  4  2  0  0  0  0
  4  9  1  0  0  0  0
  5  8  1  0  0  0  0
  5  4  1  0  0  0  0
  6  5  2  0  0  0  0
  7  1  1  0  0  0  0
 10  2  1  0  0  0  0
 11 10  1  0  0  0  0
 12 14  1  0  0  0  0
 12 11  1  0  0  0  0
 13 12  2  0  0  0  0
 14 18  1  0  0  0  0
 15 19  2  0  0  0  0
 15 13  1  0  0  0  0
 16 13  1  0  0  0  0
 17 21  1  0  0  0  0
 17 14  2  0  0  0  0
 19 17  1  0  0  0  0
 20 15  1  0  0  0  0
 22 24  2  0  0  0  0
 23 22  1  0  0  0  0
 25 23  2  0  0  0  0
 25 28  1  0  0  0  0
 26 23  1  0  0  0  0
 27 24  1  0  0  0  0
 27 29  1  0  0  0  0
 28 27  2  0  0  0  0
 30 28  1  0  0  0  0
 31 32  2  0  0  0  0
 31 19  1  0  0  0  0
 33 31  1  0  0  0  0
 34 33  1  0  0  0  0
 35  6  1  0  0  0  0
 35 37  1  0  0  0  0
 36 35  2  0  0  0  0
 38 37  1  0  0  0  0
 39 25  1  0  0  0  0
 40 39  2  0  0  0  0
 41 39  1  0  0  0  0
 42 41  1  0  0  0  0
M  RAD  5   3   2  10   2  11   2  22   2  24   2
M  END
