Coordinates from ORCA-job 1g-Schema5-R9-P1+-B3LYPG-6-31G_dp-scan-d49-09-n400
 OpenBabel08231810273D

 42 45  0  0  1  0  0  0  0  0999 V2000
   -1.9742    0.5594   -1.0818 C   0  0  0  0  0  0  0  0  0  0  0  0
   -0.6340    0.2339   -0.9148 C   0  0  0  0  0  0  0  0  0  0  0  0
    0.2511    0.9788   -0.1298 C   0  0  0  0  0  0  0  0  0  0  0  0
   -0.2178    2.1147    0.5211 C   0  0  0  0  0  0  0  0  0  0  0  0
   -1.5654    2.4617    0.3819 C   0  0  0  0  0  0  0  0  0  0  0  0
   -2.4352    1.6968   -0.4167 C   0  0  0  0  0  0  0  0  0  0  0  0
   -2.6491   -0.0381   -1.6836 H   0  0  0  0  0  0  0  0  0  0  0  0
   -1.9533    3.3374    0.8892 H   0  0  0  0  0  0  0  0  0  0  0  0
    0.4457    2.7262    1.1225 H   0  0  0  0  0  0  0  0  0  0  0  0
    0.0347   -0.8888   -1.4560 N   0  0  0  0  0  0  0  0  0  0  0  0
   -0.4891   -1.5781   -2.3733 N   0  0  0  0  0  0  0  0  0  0  0  0
    0.0295   -2.7444   -2.9030 C   0  0  0  0  0  0  0  0  0  0  0  0
   -0.5383   -3.0570   -4.1630 C   0  0  0  0  0  0  0  0  0  0  0  0
    0.9613   -3.6370   -2.3097 C   0  0  0  0  0  0  0  0  0  0  0  0
   -0.1346   -4.1889   -4.8541 C   0  0  0  0  0  0  0  0  0  0  0  0
   -1.2783   -2.3792   -4.5748 H   0  0  0  0  0  0  0  0  0  0  0  0
    1.3265   -4.7816   -2.9959 C   0  0  0  0  0  0  0  0  0  0  0  0
    1.3348   -3.4832   -1.3066 H   0  0  0  0  0  0  0  0  0  0  0  0
    0.8014   -5.0540   -4.2711 C   0  0  0  0  0  0  0  0  0  0  0  0
   -0.5492   -4.4180   -5.8279 H   0  0  0  0  0  0  0  0  0  0  0  0
    2.0193   -5.4944   -2.5614 H   0  0  0  0  0  0  0  0  0  0  0  0
    1.2156   -1.7822    0.5168 C   0  0  0  0  0  0  0  0  0  0  0  0
    1.3639   -1.0401   -0.7341 C   0  0  2  0  0  0  0  0  0  0  0  0
    1.8170   -1.5321    1.5560 C   0  0  0  0  0  0  0  0  0  0  0  0
    1.6763    0.4495   -0.2417 C   0  0  2  0  0  0  0  0  0  0  0  0
    2.0891   -1.4263   -1.4517 H   0  0  0  0  0  0  0  0  0  0  0  0
    2.4810   -0.3551    2.0318 C   0  0  0  0  0  0  0  0  0  0  0  0
    2.4439    0.6031    1.0750 C   0  0  0  0  0  0  0  0  0  0  0  0
    3.0195   -0.2530    2.9656 H   0  0  0  0  0  0  0  0  0  0  0  0
    2.9600    1.5472    1.2163 H   0  0  0  0  0  0  0  0  0  0  0  0
    1.2650   -6.3090   -4.9507 C   0  0  0  0  0  0  0  0  0  0  0  0
    2.0702   -7.0699   -4.4618 O   0  0  0  0  0  0  0  0  0  0  0  0
    0.6871   -6.4847   -6.1520 O   0  0  0  0  0  0  0  0  0  0  0  0
    1.0337   -7.3143   -6.5231 H   0  0  0  0  0  0  0  0  0  0  0  0
   -3.8828    2.0458   -0.5902 C   0  0  0  0  0  0  0  0  0  0  0  0
   -4.6461    1.3984   -1.2722 O   0  0  0  0  0  0  0  0  0  0  0  0
   -4.2286    3.1542    0.0892 O   0  0  0  0  0  0  0  0  0  0  0  0
   -5.1736    3.3133   -0.0768 H   0  0  0  0  0  0  0  0  0  0  0  0
    2.3614    1.1906   -1.4120 C   0  0  0  0  0  0  0  0  0  0  0  0
    2.4422    0.7259   -2.5252 O   0  0  0  0  0  0  0  0  0  0  0  0
    2.8066    2.4006   -1.0520 O   0  0  0  0  0  0  0  0  0  0  0  0
    3.2025    2.8229   -1.8355 H   0  0  0  0  0  0  0  0  0  0  0  0
  1  2  2  0  0  0  0
  1  6  1  0  0  0  0
  2  3  1  0  0  0  0
  3  4  2  0  0  0  0
  4  9  1  0  0  0  0
  5  4  1  0  0  0  0
  5  8  1  0  0  0  0
  6  5  2  0  0  0  0
  7  1  1  0  0  0  0
 10  2  1  0  0  0  0
 10 23  1  0  0  0  0
 11 10  1  0  0  0  0
 12 11  1  0  0  0  0
 12 14  1  0  0  0  0
 13 12  2  0  0  0  0
 14 18  1  0  0  0  0
 15 19  2  0  0  0  0
 15 13  1  0  0  0  0
 16 13  1  0  0  0  0
 17 21  1  0  0  0  0
 17 14  2  0  0  0  0
 19 17  1  0  0  0  0
 20 15  1  0  0  0  0
 22 24  1  0  0  0  0
 23 26  1  6  0  0  0
 23 25  1  0  0  0  0
 23 22  1  0  0  0  0
 24 27  2  0  0  0  0
 25 39  1  6  0  0  0
 25  3  1  0  0  0  0
 25 28  1  0  0  0  0
 27 29  1  0  0  0  0
 28 30  1  0  0  0  0
 28 27  1  0  0  0  0
 31 32  2  0  0  0  0
 31 19  1  0  0  0  0
 33 31  1  0  0  0  0
 34 33  1  0  0  0  0
 35  6  1  0  0  0  0
 35 37  1  0  0  0  0
 36 35  2  0  0  0  0
 38 37  1  0  0  0  0
 39 41  1  0  0  0  0
 40 39  2  0  0  0  0
 42 41  1  0  0  0  0
M  RAD  4  11   2  22   3  24   2  28   2
M  END
