Coordinates from ORCA-job 1g-Schema5-R9-P1+-B3LYPG-6-31G_dp-scan-d49-09-n400
 OpenBabel08231810273D

 42 45  0  0  1  0  0  0  0  0999 V2000
   -1.9936    0.8434   -1.1426 C   0  0  0  0  0  0  0  0  0  0  0  0
   -0.8997    0.2435   -0.5349 C   0  0  0  0  0  0  0  0  0  0  0  0
   -0.5448    0.4844    0.7998 C   0  0  0  0  0  0  0  0  0  0  0  0
   -1.3068    1.3520    1.5804 C   0  0  0  0  0  0  0  0  0  0  0  0
   -2.4089    1.9686    0.9881 C   0  0  0  0  0  0  0  0  0  0  0  0
   -2.7481    1.7205   -0.3581 C   0  0  0  0  0  0  0  0  0  0  0  0
   -2.2662    0.6598   -2.1746 H   0  0  0  0  0  0  0  0  0  0  0  0
   -3.0225    2.6517    1.5642 H   0  0  0  0  0  0  0  0  0  0  0  0
   -1.0535    1.5342    2.6188 H   0  0  0  0  0  0  0  0  0  0  0  0
   -0.0220   -0.7181   -1.1242 N   0  0  0  0  0  0  0  0  0  0  0  0
   -0.4274   -1.3465   -2.1452 N   0  0  0  0  0  0  0  0  0  0  0  0
    0.1545   -2.4085   -2.7925 C   0  0  0  0  0  0  0  0  0  0  0  0
   -0.7292   -2.9500   -3.7645 C   0  0  0  0  0  0  0  0  0  0  0  0
    1.4274   -3.0152   -2.6016 C   0  0  0  0  0  0  0  0  0  0  0  0
   -0.3854   -4.0794   -4.4906 C   0  0  0  0  0  0  0  0  0  0  0  0
   -1.6863   -2.4609   -3.9059 H   0  0  0  0  0  0  0  0  0  0  0  0
    1.7577   -4.1400   -3.3315 C   0  0  0  0  0  0  0  0  0  0  0  0
    2.1670   -2.5950   -1.9390 H   0  0  0  0  0  0  0  0  0  0  0  0
    0.8594   -4.6816   -4.2697 C   0  0  0  0  0  0  0  0  0  0  0  0
   -1.0667   -4.4938   -5.2240 H   0  0  0  0  0  0  0  0  0  0  0  0
    2.7218   -4.6212   -3.2091 H   0  0  0  0  0  0  0  0  0  0  0  0
    0.7062   -0.3313    1.0911 C   0  0  1  0  0  0  0  0  0  0  0  0
    1.1692   -0.9265   -0.2243 C   0  0  2  0  0  0  0  0  0  0  0  0
    1.6661   -0.2304    2.0002 C   0  0  0  0  0  0  0  0  0  0  0  0
    2.4695   -0.1032   -0.5801 C   0  0  0  0  0  0  0  0  0  0  0  0
    1.3919   -1.9959   -0.2116 H   0  0  0  0  0  0  0  0  0  0  0  0
    2.9759   -0.0921    1.8307 C   0  0  0  0  0  0  0  0  0  0  0  0
    3.2952    0.2802    0.4271 C   0  0  0  0  0  0  0  0  0  0  0  0
    3.7661   -0.3406    2.5321 H   0  0  0  0  0  0  0  0  0  0  0  0
    4.2390    0.7577    0.1838 H   0  0  0  0  0  0  0  0  0  0  0  0
    1.3042   -5.9047   -5.0177 C   0  0  0  0  0  0  0  0  0  0  0  0
    2.3775   -6.4364   -4.8389 O   0  0  0  0  0  0  0  0  0  0  0  0
    0.3808   -6.3336   -5.8950 O   0  0  0  0  0  0  0  0  0  0  0  0
    0.7405   -7.1233   -6.3344 H   0  0  0  0  0  0  0  0  0  0  0  0
   -3.9254    2.3716   -1.0180 C   0  0  0  0  0  0  0  0  0  0  0  0
   -4.2415    2.1667   -2.1697 O   0  0  0  0  0  0  0  0  0  0  0  0
   -4.5862    3.2015   -0.1903 O   0  0  0  0  0  0  0  0  0  0  0  0
   -5.3305    3.5770   -0.6910 H   0  0  0  0  0  0  0  0  0  0  0  0
    2.7953    0.1815   -1.9967 C   0  0  0  0  0  0  0  0  0  0  0  0
    2.1131   -0.1841   -2.9380 O   0  0  0  0  0  0  0  0  0  0  0  0
    3.9171    0.9077   -2.1436 O   0  0  0  0  0  0  0  0  0  0  0  0
    4.0387    1.0610   -3.0961 H   0  0  0  0  0  0  0  0  0  0  0  0
  1  2  2  0  0  0  0
  1  6  1  0  0  0  0
  2  3  1  0  0  0  0
  3  4  2  0  0  0  0
  4  9  1  0  0  0  0
  5  8  1  0  0  0  0
  5  4  1  0  0  0  0
  6  5  2  0  0  0  0
  7  1  1  0  0  0  0
 10  2  1  0  0  0  0
 10 23  1  0  0  0  0
 11 10  1  0  0  0  0
 12 14  1  0  0  0  0
 12 11  1  0  0  0  0
 13 12  2  0  0  0  0
 14 18  1  0  0  0  0
 15 19  2  0  0  0  0
 15 13  1  0  0  0  0
 16 13  1  0  0  0  0
 17 21  1  0  0  0  0
 17 14  2  0  0  0  0
 19 17  1  0  0  0  0
 20 15  1  0  0  0  0
 22  3  1  6  0  0  0
 22 24  1  0  0  0  0
 23 26  1  1  0  0  0
 23 22  1  0  0  0  0
 25 23  1  0  0  0  0
 25 28  2  0  0  0  0
 27 24  1  0  0  0  0
 27 29  1  0  0  0  0
 28 27  1  0  0  0  0
 30 28  1  0  0  0  0
 31 32  2  0  0  0  0
 31 19  1  0  0  0  0
 33 31  1  0  0  0  0
 34 33  1  0  0  0  0
 35  6  1  0  0  0  0
 35 37  1  0  0  0  0
 36 35  2  0  0  0  0
 38 37  1  0  0  0  0
 39 25  1  0  0  0  0
 40 39  2  0  0  0  0
 41 39  1  0  0  0  0
 42 41  1  0  0  0  0
M  RAD  4  11   2  22   2  24   3  27   2
M  END
