Coordinates from ORCA-job 1g-Schema5-R9-P1+-B3LYPG-6-31G_dp-scan-d49-09-n400
 OpenBabel08231810273D

 42 45  0  0  1  0  0  0  0  0999 V2000
   -1.9710    0.5527   -1.0846 C   0  0  0  0  0  0  0  0  0  0  0  0
   -0.6301    0.2319   -0.9107 C   0  0  0  0  0  0  0  0  0  0  0  0
    0.2512    0.9903   -0.1351 C   0  0  0  0  0  0  0  0  0  0  0  0
   -0.2214    2.1344    0.4992 C   0  0  0  0  0  0  0  0  0  0  0  0
   -1.5691    2.4770    0.3520 C   0  0  0  0  0  0  0  0  0  0  0  0
   -2.4358    1.6981   -0.4366 C   0  0  0  0  0  0  0  0  0  0  0  0
   -2.6430   -0.0540   -1.6801 H   0  0  0  0  0  0  0  0  0  0  0  0
   -1.9596    3.3592    0.8457 H   0  0  0  0  0  0  0  0  0  0  0  0
    0.4394    2.7558    1.0932 H   0  0  0  0  0  0  0  0  0  0  0  0
    0.0413   -0.8931   -1.4444 N   0  0  0  0  0  0  0  0  0  0  0  0
   -0.4887   -1.5926   -2.3510 N   0  0  0  0  0  0  0  0  0  0  0  0
    0.0301   -2.7545   -2.8884 C   0  0  0  0  0  0  0  0  0  0  0  0
   -0.5782   -3.0836   -4.1258 C   0  0  0  0  0  0  0  0  0  0  0  0
    1.0005   -3.6277   -2.3281 C   0  0  0  0  0  0  0  0  0  0  0  0
   -0.1820   -4.2120   -4.8265 C   0  0  0  0  0  0  0  0  0  0  0  0
   -1.3445   -2.4205   -4.5124 H   0  0  0  0  0  0  0  0  0  0  0  0
    1.3598   -4.7686   -3.0233 C   0  0  0  0  0  0  0  0  0  0  0  0
    1.4114   -3.4626   -1.3418 H   0  0  0  0  0  0  0  0  0  0  0  0
    0.7908   -5.0574   -4.2758 C   0  0  0  0  0  0  0  0  0  0  0  0
   -0.6291   -4.4532   -5.7828 H   0  0  0  0  0  0  0  0  0  0  0  0
    2.0828   -5.4659   -2.6134 H   0  0  0  0  0  0  0  0  0  0  0  0
    1.2748   -1.8208    0.4857 C   0  0  0  0  0  0  0  0  0  0  0  0
    1.3822   -1.0316   -0.7413 C   0  0  2  0  0  0  0  0  0  0  0  0
    1.8623   -1.5683    1.5317 C   0  0  0  0  0  0  0  0  0  0  0  0
    1.6762    0.4552   -0.2255 C   0  0  2  0  0  0  0  0  0  0  0  0
    2.1040   -1.3795   -1.4822 H   0  0  0  0  0  0  0  0  0  0  0  0
    2.4830   -0.3816    2.0399 C   0  0  0  0  0  0  0  0  0  0  0  0
    2.4197    0.5980    1.1068 C   0  0  0  0  0  0  0  0  0  0  0  0
    3.0070   -0.2819    2.9820 H   0  0  0  0  0  0  0  0  0  0  0  0
    2.8998    1.5559    1.2793 H   0  0  0  0  0  0  0  0  0  0  0  0
    1.2506   -6.3076   -4.9669 C   0  0  0  0  0  0  0  0  0  0  0  0
    2.0870   -7.0516   -4.5054 O   0  0  0  0  0  0  0  0  0  0  0  0
    0.6306   -6.4996   -6.1446 O   0  0  0  0  0  0  0  0  0  0  0  0
    0.9773   -7.3249   -6.5249 H   0  0  0  0  0  0  0  0  0  0  0  0
   -3.8839    2.0414   -0.6181 C   0  0  0  0  0  0  0  0  0  0  0  0
   -4.6447    1.3819   -1.2912 O   0  0  0  0  0  0  0  0  0  0  0  0
   -4.2336    3.1581    0.0455 O   0  0  0  0  0  0  0  0  0  0  0  0
   -5.1788    3.3123   -0.1240 H   0  0  0  0  0  0  0  0  0  0  0  0
    2.3863    1.2103   -1.3732 C   0  0  0  0  0  0  0  0  0  0  0  0
    2.4993    0.7570   -2.4880 O   0  0  0  0  0  0  0  0  0  0  0  0
    2.8119    2.4209   -0.9912 O   0  0  0  0  0  0  0  0  0  0  0  0
    3.2240    2.8532   -1.7607 H   0  0  0  0  0  0  0  0  0  0  0  0
  1  2  2  0  0  0  0
  1  6  1  0  0  0  0
  2  3  1  0  0  0  0
  3  4  2  0  0  0  0
  4  9  1  0  0  0  0
  5  4  1  0  0  0  0
  5  8  1  0  0  0  0
  6  5  2  0  0  0  0
  7  1  1  0  0  0  0
 10  2  1  0  0  0  0
 10 23  1  0  0  0  0
 11 10  1  0  0  0  0
 12 11  1  0  0  0  0
 12 14  1  0  0  0  0
 13 12  2  0  0  0  0
 14 18  1  0  0  0  0
 15 19  2  0  0  0  0
 15 13  1  0  0  0  0
 16 13  1  0  0  0  0
 17 21  1  0  0  0  0
 17 14  2  0  0  0  0
 19 17  1  0  0  0  0
 20 15  1  0  0  0  0
 22 24  1  0  0  0  0
 23 26  1  6  0  0  0
 23 25  1  0  0  0  0
 23 22  1  0  0  0  0
 24 27  2  0  0  0  0
 25 39  1  6  0  0  0
 25  3  1  0  0  0  0
 25 28  1  0  0  0  0
 27 29  1  0  0  0  0
 28 30  1  0  0  0  0
 28 27  1  0  0  0  0
 31 32  2  0  0  0  0
 31 19  1  0  0  0  0
 33 31  1  0  0  0  0
 34 33  1  0  0  0  0
 35  6  1  0  0  0  0
 35 37  1  0  0  0  0
 36 35  2  0  0  0  0
 38 37  1  0  0  0  0
 39 41  1  0  0  0  0
 40 39  2  0  0  0  0
 42 41  1  0  0  0  0
M  RAD  4  11   2  22   3  24   2  28   2
M  END
