Coordinates from ORCA-job 1g-Schema5-R9-P1+-B3LYPG-6-31G_dp-scan-d49-09-n400
 OpenBabel08231810273D

 42 45  0  0  1  0  0  0  0  0999 V2000
   -1.9029    0.6942   -1.3379 C   0  0  0  0  0  0  0  0  0  0  0  0
   -0.5831    0.3574   -1.0533 C   0  0  0  0  0  0  0  0  0  0  0  0
    0.2374    1.1334   -0.2283 C   0  0  0  0  0  0  0  0  0  0  0  0
   -0.2635    2.2995    0.3385 C   0  0  0  0  0  0  0  0  0  0  0  0
   -1.5880    2.6574    0.0693 C   0  0  0  0  0  0  0  0  0  0  0  0
   -2.4017    1.8610   -0.7571 C   0  0  0  0  0  0  0  0  0  0  0  0
   -2.5317    0.0915   -1.9824 H   0  0  0  0  0  0  0  0  0  0  0  0
   -2.0011    3.5628    0.4981 H   0  0  0  0  0  0  0  0  0  0  0  0
    0.3601    2.9237    0.9689 H   0  0  0  0  0  0  0  0  0  0  0  0
    0.1084   -0.7725   -1.5731 N   0  0  0  0  0  0  0  0  0  0  0  0
   -0.5338   -1.6522   -2.2156 N   0  0  0  0  0  0  0  0  0  0  0  0
    0.0080   -2.7472   -2.8543 C   0  0  0  0  0  0  0  0  0  0  0  0
   -0.9710   -3.7312   -3.1478 C   0  0  0  0  0  0  0  0  0  0  0  0
    1.3476   -2.9396   -3.2884 C   0  0  0  0  0  0  0  0  0  0  0  0
   -0.6157   -4.9090   -3.7847 C   0  0  0  0  0  0  0  0  0  0  0  0
   -1.9941   -3.5418   -2.8428 H   0  0  0  0  0  0  0  0  0  0  0  0
    1.6796   -4.1053   -3.9575 C   0  0  0  0  0  0  0  0  0  0  0  0
    2.1005   -2.1752   -3.1661 H   0  0  0  0  0  0  0  0  0  0  0  0
    0.7141   -5.0987   -4.1901 C   0  0  0  0  0  0  0  0  0  0  0  0
   -1.3567   -5.6726   -3.9880 H   0  0  0  0  0  0  0  0  0  0  0  0
    2.6889   -4.2725   -4.3165 H   0  0  0  0  0  0  0  0  0  0  0  0
    2.0822   -1.9915   -0.5907 C   0  0  0  0  0  0  0  0  0  0  0  0
    1.5788   -0.7185   -1.1687 C   0  0  2  0  0  0  0  0  0  0  0  0
    2.3714   -2.0586    0.5983 C   0  0  0  0  0  0  0  0  0  0  0  0
    1.6204    0.4711   -0.0834 C   0  0  2  0  0  0  0  0  0  0  0  0
    2.1308   -0.3640   -2.0465 H   0  0  0  0  0  0  0  0  0  0  0  0
    2.3122   -1.1921    1.7332 C   0  0  0  0  0  0  0  0  0  0  0  0
    1.9032    0.0459    1.3624 C   0  0  0  0  0  0  0  0  0  0  0  0
    2.5369   -1.4615    2.7576 H   0  0  0  0  0  0  0  0  0  0  0  0
    1.7958    0.8254    2.1104 H   0  0  0  0  0  0  0  0  0  0  0  0
    1.1639   -6.3407   -4.9028 C   0  0  0  0  0  0  0  0  0  0  0  0
    2.3047   -6.5195   -5.2677 O   0  0  0  0  0  0  0  0  0  0  0  0
    0.1626   -7.2204   -5.0820 O   0  0  0  0  0  0  0  0  0  0  0  0
    0.5325   -7.9922   -5.5441 H   0  0  0  0  0  0  0  0  0  0  0  0
   -3.8246    2.2182   -1.0671 C   0  0  0  0  0  0  0  0  0  0  0  0
   -4.5414    1.5446   -1.7737 O   0  0  0  0  0  0  0  0  0  0  0  0
   -4.2067    3.3640   -0.4747 O   0  0  0  0  0  0  0  0  0  0  0  0
   -5.1325    3.5253   -0.7250 H   0  0  0  0  0  0  0  0  0  0  0  0
    2.7060    1.4771   -0.5505 C   0  0  0  0  0  0  0  0  0  0  0  0
    3.2443    1.4405   -1.6308 O   0  0  0  0  0  0  0  0  0  0  0  0
    2.9396    2.4093    0.3845 O   0  0  0  0  0  0  0  0  0  0  0  0
    3.6078    3.0254    0.0335 H   0  0  0  0  0  0  0  0  0  0  0  0
  1  2  2  0  0  0  0
  1  6  1  0  0  0  0
  2  3  1  0  0  0  0
  3 25  1  0  0  0  0
  3  4  2  0  0  0  0
  4  9  1  0  0  0  0
  5  4  1  0  0  0  0
  5  8  1  0  0  0  0
  6  5  2  0  0  0  0
  7  1  1  0  0  0  0
 10 23  1  0  0  0  0
 10  2  1  0  0  0  0
 11 10  1  0  0  0  0
 12 11  1  0  0  0  0
 13 12  1  0  0  0  0
 13 16  1  0  0  0  0
 14 18  1  0  0  0  0
 14 12  2  0  0  0  0
 15 13  2  0  0  0  0
 17 14  1  0  0  0  0
 19 17  2  0  0  0  0
 19 15  1  0  0  0  0
 20 15  1  0  0  0  0
 21 17  1  0  0  0  0
 22 24  2  0  0  0  0
 23 26  1  6  0  0  0
 23 22  1  0  0  0  0
 23 25  1  0  0  0  0
 24 27  1  0  0  0  0
 25 39  1  6  0  0  0
 25 28  1  0  0  0  0
 27 29  1  0  0  0  0
 28 27  2  0  0  0  0
 28 30  1  0  0  0  0
 31 19  1  0  0  0  0
 32 31  2  0  0  0  0
 33 31  1  0  0  0  0
 34 33  1  0  0  0  0
 35  6  1  0  0  0  0
 35 37  1  0  0  0  0
 36 35  2  0  0  0  0
 38 37  1  0  0  0  0
 39 41  1  0  0  0  0
 40 39  2  0  0  0  0
 42 41  1  0  0  0  0
M  RAD  3  11   2  22   2  24   2
M  END
