Coordinates from ORCA-job 1g-Schema5-R9-P1+-B3LYPG-6-31G_dp-scan-d49-09-n400
 OpenBabel08231810273D

 42 45  0  0  1  0  0  0  0  0999 V2000
   -1.9816    0.5764   -1.0772 C   0  0  0  0  0  0  0  0  0  0  0  0
   -0.6432    0.2398   -0.9273 C   0  0  0  0  0  0  0  0  0  0  0  0
    0.2514    0.9504   -0.1200 C   0  0  0  0  0  0  0  0  0  0  0  0
   -0.2075    2.0664    0.5695 C   0  0  0  0  0  0  0  0  0  0  0  0
   -1.5551    2.4240    0.4504 C   0  0  0  0  0  0  0  0  0  0  0  0
   -2.4327    1.6935   -0.3707 C   0  0  0  0  0  0  0  0  0  0  0  0
   -2.6636    0.0018   -1.6933 H   0  0  0  0  0  0  0  0  0  0  0  0
   -1.9360    3.2834    0.9901 H   0  0  0  0  0  0  0  0  0  0  0  0
    0.4628    2.6539    1.1872 H   0  0  0  0  0  0  0  0  0  0  0  0
    0.0182   -0.8782   -1.4860 N   0  0  0  0  0  0  0  0  0  0  0  0
   -0.4910   -1.5431   -2.4275 N   0  0  0  0  0  0  0  0  0  0  0  0
    0.0274   -2.7192   -2.9397 C   0  0  0  0  0  0  0  0  0  0  0  0
   -0.4404   -2.9971   -4.2464 C   0  0  0  0  0  0  0  0  0  0  0  0
    0.8634   -3.6532   -2.2745 C   0  0  0  0  0  0  0  0  0  0  0  0
   -0.0192   -4.1385   -4.9120 C   0  0  0  0  0  0  0  0  0  0  0  0
   -1.1139   -2.2874   -4.7144 H   0  0  0  0  0  0  0  0  0  0  0  0
    1.2420   -4.8075   -2.9371 C   0  0  0  0  0  0  0  0  0  0  0  0
    1.1464   -3.5213   -1.2382 H   0  0  0  0  0  0  0  0  0  0  0  0
    0.8249   -5.0465   -4.2580 C   0  0  0  0  0  0  0  0  0  0  0  0
   -0.3539   -4.3428   -5.9215 H   0  0  0  0  0  0  0  0  0  0  0  0
    1.8604   -5.5535   -2.4492 H   0  0  0  0  0  0  0  0  0  0  0  0
    1.0829   -1.6794    0.5769 C   0  0  0  0  0  0  0  0  0  0  0  0
    1.3203   -1.0574   -0.7227 C   0  0  2  0  0  0  0  0  0  0  0  0
    1.7167   -1.4424    1.6017 C   0  0  0  0  0  0  0  0  0  0  0  0
    1.6769    0.4356   -0.2824 C   0  0  2  0  0  0  0  0  0  0  0  0
    2.0473   -1.5306   -1.3824 H   0  0  0  0  0  0  0  0  0  0  0  0
    2.4765   -0.2967    2.0064 C   0  0  0  0  0  0  0  0  0  0  0  0
    2.4970    0.6084    0.9981 C   0  0  0  0  0  0  0  0  0  0  0  0
    3.0454   -0.1934    2.9220 H   0  0  0  0  0  0  0  0  0  0  0  0
    3.0924    1.5129    1.0702 H   0  0  0  0  0  0  0  0  0  0  0  0
    1.2969   -6.3135   -4.9083 C   0  0  0  0  0  0  0  0  0  0  0  0
    2.0228   -7.1115   -4.3583 O   0  0  0  0  0  0  0  0  0  0  0  0
    0.8237   -6.4550   -6.1592 O   0  0  0  0  0  0  0  0  0  0  0  0
    1.1690   -7.2950   -6.5073 H   0  0  0  0  0  0  0  0  0  0  0  0
   -3.8793    2.0561   -0.5241 C   0  0  0  0  0  0  0  0  0  0  0  0
   -4.6491    1.4377   -1.2253 O   0  0  0  0  0  0  0  0  0  0  0  0
   -4.2157    3.1412    0.1963 O   0  0  0  0  0  0  0  0  0  0  0  0
   -5.1606    3.3110    0.0411 H   0  0  0  0  0  0  0  0  0  0  0  0
    2.3083    1.1472   -1.4977 C   0  0  0  0  0  0  0  0  0  0  0  0
    2.3270    0.6573   -2.6033 O   0  0  0  0  0  0  0  0  0  0  0  0
    2.7853    2.3578   -1.1861 O   0  0  0  0  0  0  0  0  0  0  0  0
    3.1469    2.7590   -1.9969 H   0  0  0  0  0  0  0  0  0  0  0  0
  1  2  2  0  0  0  0
  1  6  1  0  0  0  0
  2  3  1  0  0  0  0
  3  4  2  0  0  0  0
  4  9  1  0  0  0  0
  5  4  1  0  0  0  0
  5  8  1  0  0  0  0
  6  5  2  0  0  0  0
  7  1  1  0  0  0  0
 10  2  1  0  0  0  0
 10 23  1  0  0  0  0
 11 10  1  0  0  0  0
 12 11  1  0  0  0  0
 12 14  1  0  0  0  0
 13 12  2  0  0  0  0
 14 18  1  0  0  0  0
 15 19  2  0  0  0  0
 15 13  1  0  0  0  0
 16 13  1  0  0  0  0
 17 21  1  0  0  0  0
 17 14  2  0  0  0  0
 19 17  1  0  0  0  0
 20 15  1  0  0  0  0
 22 24  1  0  0  0  0
 23 26  1  6  0  0  0
 23 25  1  0  0  0  0
 23 22  1  0  0  0  0
 24 27  2  0  0  0  0
 25 39  1  6  0  0  0
 25  3  1  0  0  0  0
 25 28  1  0  0  0  0
 27 29  1  0  0  0  0
 28 30  1  0  0  0  0
 28 27  1  0  0  0  0
 31 32  2  0  0  0  0
 31 19  1  0  0  0  0
 33 31  1  0  0  0  0
 34 33  1  0  0  0  0
 35  6  1  0  0  0  0
 35 37  1  0  0  0  0
 36 35  2  0  0  0  0
 38 37  1  0  0  0  0
 39 41  1  0  0  0  0
 40 39  2  0  0  0  0
 42 41  1  0  0  0  0
M  RAD  4  11   2  22   3  24   2  28   2
M  END
