Coordinates from ORCA-job 1g-Schema5-R9-P1+-B3LYPG-6-31G_dp-scan-d49-09-n400
 OpenBabel08231810273D

 42 43  0  0  0  0  0  0  0  0999 V2000
   -2.9655    0.4242   -1.2192 C   0  0  0  0  0  0  0  0  0  0  0  0
   -1.6027    0.1770   -0.8338 C   0  0  0  0  0  0  0  0  0  0  0  0
   -1.4492    1.0296    0.1766 C   0  0  0  0  0  0  0  0  0  0  0  0
   -2.0658    1.9684    0.9136 C   0  0  0  0  0  0  0  0  0  0  0  0
   -3.3937    2.1303    0.4541 C   0  0  0  0  0  0  0  0  0  0  0  0
   -3.8252    1.3396   -0.6258 C   0  0  0  0  0  0  0  0  0  0  0  0
   -3.2605   -0.2103   -2.0647 H   0  0  0  0  0  0  0  0  0  0  0  0
   -4.0442    2.8514    0.9374 H   0  0  0  0  0  0  0  0  0  0  0  0
   -1.6300    2.5245    1.7362 H   0  0  0  0  0  0  0  0  0  0  0  0
   -0.7697   -0.7697   -1.4734 N   0  0  0  0  0  0  0  0  0  0  0  0
   -1.3076   -1.3704   -2.4312 N   0  0  0  0  0  0  0  0  0  0  0  0
   -0.5683   -2.3181   -3.1294 C   0  0  0  0  0  0  0  0  0  0  0  0
   -1.2505   -2.9286   -4.2030 C   0  0  0  0  0  0  0  0  0  0  0  0
    0.7681   -2.6647   -2.8243 C   0  0  0  0  0  0  0  0  0  0  0  0
   -0.6015   -3.8821   -4.9754 C   0  0  0  0  0  0  0  0  0  0  0  0
   -2.2749   -2.6369   -4.4071 H   0  0  0  0  0  0  0  0  0  0  0  0
    1.4028   -3.6141   -3.6034 C   0  0  0  0  0  0  0  0  0  0  0  0
    1.2966   -2.2039   -1.9984 H   0  0  0  0  0  0  0  0  0  0  0  0
    0.7260   -4.2242   -4.6766 C   0  0  0  0  0  0  0  0  0  0  0  0
   -1.1083   -4.3602   -5.8046 H   0  0  0  0  0  0  0  0  0  0  0  0
    2.4276   -3.8990   -3.3954 H   0  0  0  0  0  0  0  0  0  0  0  0
    2.2297    0.9048    1.4876 C   0  0  0  0  0  0  0  0  0  0  0  0
    2.4615   -0.1507    0.6163 C   0  0  0  0  0  0  0  0  0  0  0  0
    3.1557    1.5468    2.0369 C   0  0  0  0  0  0  0  0  0  0  0  0
    3.8454   -0.3983    0.4277 C   0  0  0  0  0  0  0  0  0  0  0  0
    1.7216   -0.7533    0.1041 H   0  0  0  0  0  0  0  0  0  0  0  0
    4.5256    1.4273    1.9557 C   0  0  0  0  0  0  0  0  0  0  0  0
    4.8395    0.3652    1.0796 C   0  0  0  0  0  0  0  0  0  0  0  0
    5.2801    2.0148    2.4639 H   0  0  0  0  0  0  0  0  0  0  0  0
    5.8830    0.1242    0.9061 H   0  0  0  0  0  0  0  0  0  0  0  0
    1.4811   -5.2435   -5.4767 C   0  0  0  0  0  0  0  0  0  0  0  0
    2.6323   -5.5492   -5.2549 O   0  0  0  0  0  0  0  0  0  0  0  0
    0.7382   -5.7785   -6.4645 O   0  0  0  0  0  0  0  0  0  0  0  0
    1.2997   -6.4230   -6.9281 H   0  0  0  0  0  0  0  0  0  0  0  0
   -5.2123    1.4313   -1.1980 C   0  0  0  0  0  0  0  0  0  0  0  0
   -5.5874    0.7554   -2.1276 O   0  0  0  0  0  0  0  0  0  0  0  0
   -5.9573    2.3446   -0.5562 O   0  0  0  0  0  0  0  0  0  0  0  0
   -6.8366    2.3596   -0.9731 H   0  0  0  0  0  0  0  0  0  0  0  0
    4.2044   -1.5112   -0.4965 C   0  0  0  0  0  0  0  0  0  0  0  0
    3.3933   -2.1675   -1.1280 O   0  0  0  0  0  0  0  0  0  0  0  0
    5.5292   -1.7350   -0.5737 O   0  0  0  0  0  0  0  0  0  0  0  0
    5.6591   -2.4758   -1.1897 H   0  0  0  0  0  0  0  0  0  0  0  0
  1  2  2  0  0  0  0
  1  6  1  0  0  0  0
  2  3  1  0  0  0  0
  3  4  2  0  0  0  0
  4  9  1  0  0  0  0
  5  4  1  0  0  0  0
  5  8  1  0  0  0  0
  6  5  2  0  0  0  0
  7  1  1  0  0  0  0
 10  2  1  0  0  0  0
 11 10  1  0  0  0  0
 12 14  1  0  0  0  0
 12 11  1  0  0  0  0
 13 12  2  0  0  0  0
 14 18  1  0  0  0  0
 15 19  2  0  0  0  0
 15 13  1  0  0  0  0
 16 13  1  0  0  0  0
 17 21  1  0  0  0  0
 17 14  2  0  0  0  0
 19 17  1  0  0  0  0
 20 15  1  0  0  0  0
 22 24  2  0  0  0  0
 23 22  1  0  0  0  0
 25 23  2  0  0  0  0
 25 28  1  0  0  0  0
 26 23  1  0  0  0  0
 27 24  1  0  0  0  0
 27 29  1  0  0  0  0
 28 27  2  0  0  0  0
 30 28  1  0  0  0  0
 31 32  2  0  0  0  0
 31 19  1  0  0  0  0
 33 31  1  0  0  0  0
 34 33  1  0  0  0  0
 35  6  1  0  0  0  0
 35 37  1  0  0  0  0
 36 35  2  0  0  0  0
 38 37  1  0  0  0  0
 39 25  1  0  0  0  0
 40 39  2  0  0  0  0
 41 39  1  0  0  0  0
 42 41  1  0  0  0  0
M  RAD  5   3   2  10   2  11   2  22   2  24   2
M  END
