Coordinates from ORCA-job 1g-Schema5-R9-P1+-B3LYPG-6-31G_dp-scan-d49-09-n400
 OpenBabel08231810273D

 42 43  0  0  0  0  0  0  0  0999 V2000
   -3.1201    0.4319   -1.2571 C   0  0  0  0  0  0  0  0  0  0  0  0
   -1.7700    0.1909   -0.8221 C   0  0  0  0  0  0  0  0  0  0  0  0
   -1.6731    1.0251    0.2087 C   0  0  0  0  0  0  0  0  0  0  0  0
   -2.3296    1.9418    0.9391 C   0  0  0  0  0  0  0  0  0  0  0  0
   -3.6390    2.0999    0.4279 C   0  0  0  0  0  0  0  0  0  0  0  0
   -4.0155    1.3253   -0.6839 C   0  0  0  0  0  0  0  0  0  0  0  0
   -3.3707   -0.1929   -2.1245 H   0  0  0  0  0  0  0  0  0  0  0  0
   -4.3167    2.8054    0.8968 H   0  0  0  0  0  0  0  0  0  0  0  0
   -1.9357    2.4864    1.7903 H   0  0  0  0  0  0  0  0  0  0  0  0
   -0.9043   -0.7326   -1.4484 N   0  0  0  0  0  0  0  0  0  0  0  0
   -1.4029   -1.3388   -2.4235 N   0  0  0  0  0  0  0  0  0  0  0  0
   -0.6241   -2.2649   -3.1056 C   0  0  0  0  0  0  0  0  0  0  0  0
   -1.2664   -2.9050   -4.1870 C   0  0  0  0  0  0  0  0  0  0  0  0
    0.7158   -2.5670   -2.7713 C   0  0  0  0  0  0  0  0  0  0  0  0
   -0.5735   -3.8470   -4.9346 C   0  0  0  0  0  0  0  0  0  0  0  0
   -2.2948   -2.6469   -4.4146 H   0  0  0  0  0  0  0  0  0  0  0  0
    1.3944   -3.5059   -3.5253 C   0  0  0  0  0  0  0  0  0  0  0  0
    1.2144   -2.0781   -1.9432 H   0  0  0  0  0  0  0  0  0  0  0  0
    0.7572   -4.1474   -4.6043 C   0  0  0  0  0  0  0  0  0  0  0  0
   -1.0484   -4.3487   -5.7687 H   0  0  0  0  0  0  0  0  0  0  0  0
    2.4225   -3.7546   -3.2906 H   0  0  0  0  0  0  0  0  0  0  0  0
    2.6007    1.0136    1.5487 C   0  0  0  0  0  0  0  0  0  0  0  0
    2.6727   -0.0541    0.6704 C   0  0  0  0  0  0  0  0  0  0  0  0
    3.6023    1.5650    2.0593 C   0  0  0  0  0  0  0  0  0  0  0  0
    4.0147   -0.4422    0.4173 C   0  0  0  0  0  0  0  0  0  0  0  0
    1.8504   -0.5794    0.1984 H   0  0  0  0  0  0  0  0  0  0  0  0
    4.9477    1.2995    1.9083 C   0  0  0  0  0  0  0  0  0  0  0  0
    5.1113    0.2148    1.0206 C   0  0  0  0  0  0  0  0  0  0  0  0
    5.7828    1.8075    2.3744 H   0  0  0  0  0  0  0  0  0  0  0  0
    6.1152   -0.1279    0.7936 H   0  0  0  0  0  0  0  0  0  0  0  0
    1.5577   -5.1532   -5.3772 C   0  0  0  0  0  0  0  0  0  0  0  0
    2.7130   -5.4214   -5.1295 O   0  0  0  0  0  0  0  0  0  0  0  0
    0.8504   -5.7223   -6.3718 O   0  0  0  0  0  0  0  0  0  0  0  0
    1.4394   -6.3553   -6.8167 H   0  0  0  0  0  0  0  0  0  0  0  0
   -5.3787    1.4106   -1.3122 C   0  0  0  0  0  0  0  0  0  0  0  0
   -5.7051    0.7474   -2.2688 O   0  0  0  0  0  0  0  0  0  0  0  0
   -6.1618    2.3012   -0.6845 O   0  0  0  0  0  0  0  0  0  0  0  0
   -7.0235    2.3134   -1.1366 H   0  0  0  0  0  0  0  0  0  0  0  0
    4.2184   -1.5797   -0.5216 C   0  0  0  0  0  0  0  0  0  0  0  0
    3.3181   -2.1542   -1.1128 O   0  0  0  0  0  0  0  0  0  0  0  0
    5.5096   -1.9311   -0.6664 O   0  0  0  0  0  0  0  0  0  0  0  0
    5.5346   -2.6783   -1.2877 H   0  0  0  0  0  0  0  0  0  0  0  0
  1  2  2  0  0  0  0
  1  6  1  0  0  0  0
  2  3  1  0  0  0  0
  3  4  2  0  0  0  0
  4  9  1  0  0  0  0
  5  8  1  0  0  0  0
  5  4  1  0  0  0  0
  6  5  2  0  0  0  0
  7  1  1  0  0  0  0
 10  2  1  0  0  0  0
 11 10  1  0  0  0  0
 12 14  1  0  0  0  0
 12 11  1  0  0  0  0
 13 12  2  0  0  0  0
 14 18  1  0  0  0  0
 15 19  2  0  0  0  0
 15 13  1  0  0  0  0
 16 13  1  0  0  0  0
 17 21  1  0  0  0  0
 17 14  2  0  0  0  0
 19 17  1  0  0  0  0
 20 15  1  0  0  0  0
 22 24  2  0  0  0  0
 23 22  1  0  0  0  0
 25 23  2  0  0  0  0
 25 28  1  0  0  0  0
 26 23  1  0  0  0  0
 27 24  1  0  0  0  0
 27 29  1  0  0  0  0
 28 27  2  0  0  0  0
 30 28  1  0  0  0  0
 31 32  2  0  0  0  0
 31 19  1  0  0  0  0
 33 31  1  0  0  0  0
 34 33  1  0  0  0  0
 35 37  1  0  0  0  0
 35  6  1  0  0  0  0
 36 35  2  0  0  0  0
 38 37  1  0  0  0  0
 39 25  1  0  0  0  0
 40 39  2  0  0  0  0
 41 39  1  0  0  0  0
 42 41  1  0  0  0  0
M  RAD  5   3   2  10   2  11   2  22   2  24   2
M  END
