Coordinates from ORCA-job 1g-Schema5-R9-P1+-B3LYPG-6-31G_dp-scan-d49-09-n400
 OpenBabel08231810273D

 42 45  0  0  1  0  0  0  0  0999 V2000
   -2.0448    0.8397   -1.1187 C   0  0  0  0  0  0  0  0  0  0  0  0
   -0.9168    0.2377   -0.5951 C   0  0  0  0  0  0  0  0  0  0  0  0
   -0.3762    0.4623    0.7358 C   0  0  0  0  0  0  0  0  0  0  0  0
   -1.1854    1.3359    1.5607 C   0  0  0  0  0  0  0  0  0  0  0  0
   -2.3087    1.9432    1.0523 C   0  0  0  0  0  0  0  0  0  0  0  0
   -2.7420    1.7121   -0.2825 C   0  0  0  0  0  0  0  0  0  0  0  0
   -2.3881    0.6539   -2.1292 H   0  0  0  0  0  0  0  0  0  0  0  0
   -2.8955    2.6058    1.6781 H   0  0  0  0  0  0  0  0  0  0  0  0
   -0.8961    1.4726    2.5977 H   0  0  0  0  0  0  0  0  0  0  0  0
   -0.0678   -0.7034   -1.2032 N   0  0  0  0  0  0  0  0  0  0  0  0
   -0.4471   -1.3121   -2.2559 N   0  0  0  0  0  0  0  0  0  0  0  0
    0.1441   -2.3908   -2.8569 C   0  0  0  0  0  0  0  0  0  0  0  0
   -0.6462   -2.8780   -3.9331 C   0  0  0  0  0  0  0  0  0  0  0  0
    1.3491   -3.0706   -2.5226 C   0  0  0  0  0  0  0  0  0  0  0  0
   -0.2757   -4.0160   -4.6309 C   0  0  0  0  0  0  0  0  0  0  0  0
   -1.5543   -2.3386   -4.1778 H   0  0  0  0  0  0  0  0  0  0  0  0
    1.7021   -4.2088   -3.2190 C   0  0  0  0  0  0  0  0  0  0  0  0
    2.0177   -2.7048   -1.7586 H   0  0  0  0  0  0  0  0  0  0  0  0
    0.8986   -4.6894   -4.2705 C   0  0  0  0  0  0  0  0  0  0  0  0
   -0.8838   -4.3864   -5.4473 H   0  0  0  0  0  0  0  0  0  0  0  0
    2.6139   -4.7470   -2.9840 H   0  0  0  0  0  0  0  0  0  0  0  0
    0.5273   -0.0366    0.9307 C   0  0  1  0  0  0  0  0  0  0  0  0
    1.0980   -0.8523   -0.2629 C   0  0  2  0  0  0  0  0  0  0  0  0
    1.5036    0.0347    1.9222 C   0  0  0  0  0  0  0  0  0  0  0  0
    2.4325   -0.1471   -0.6508 C   0  0  0  0  0  0  0  0  0  0  0  0
    1.2532   -1.9129   -0.0460 H   0  0  0  0  0  0  0  0  0  0  0  0
    2.8171    0.0749    1.7682 C   0  0  0  0  0  0  0  0  0  0  0  0
    3.2310    0.2818    0.3577 C   0  0  0  0  0  0  0  0  0  0  0  0
    3.5623   -0.0974    2.5400 H   0  0  0  0  0  0  0  0  0  0  0  0
    4.1980    0.7179    0.1274 H   0  0  0  0  0  0  0  0  0  0  0  0
    1.3645   -5.9267   -4.9788 C   0  0  0  0  0  0  0  0  0  0  0  0
    2.3783   -6.5194   -4.6820 O   0  0  0  0  0  0  0  0  0  0  0  0
    0.5324   -6.2960   -5.9682 O   0  0  0  0  0  0  0  0  0  0  0  0
    0.9006   -7.0999   -6.3732 H   0  0  0  0  0  0  0  0  0  0  0  0
   -3.9637    2.3626   -0.8501 C   0  0  0  0  0  0  0  0  0  0  0  0
   -4.3535    2.1729   -1.9821 O   0  0  0  0  0  0  0  0  0  0  0  0
   -4.5721    3.1739    0.0342 O   0  0  0  0  0  0  0  0  0  0  0  0
   -5.3501    3.5542   -0.4083 H   0  0  0  0  0  0  0  0  0  0  0  0
    2.8177    0.0443   -2.0691 C   0  0  0  0  0  0  0  0  0  0  0  0
    2.1176   -0.2664   -3.0156 O   0  0  0  0  0  0  0  0  0  0  0  0
    4.0219    0.6269   -2.2084 O   0  0  0  0  0  0  0  0  0  0  0  0
    4.1762    0.7443   -3.1612 H   0  0  0  0  0  0  0  0  0  0  0  0
  1  2  2  0  0  0  0
  1  6  1  0  0  0  0
  2  3  1  0  0  0  0
  3  4  2  0  0  0  0
  4  9  1  0  0  0  0
  5  4  1  0  0  0  0
  5  8  1  0  0  0  0
  6  5  2  0  0  0  0
  7  1  1  0  0  0  0
 10  2  1  0  0  0  0
 10 23  1  0  0  0  0
 11 10  1  0  0  0  0
 12 14  1  0  0  0  0
 12 11  1  0  0  0  0
 13 12  2  0  0  0  0
 14 18  1  0  0  0  0
 15 19  2  0  0  0  0
 15 13  1  0  0  0  0
 16 13  1  0  0  0  0
 17 21  1  0  0  0  0
 17 14  2  0  0  0  0
 19 17  1  0  0  0  0
 20 15  1  0  0  0  0
 22  3  1  6  0  0  0
 22 24  1  0  0  0  0
 23 26  1  1  0  0  0
 23 22  1  0  0  0  0
 25 23  1  0  0  0  0
 25 28  2  0  0  0  0
 27 24  2  0  0  0  0
 27 29  1  0  0  0  0
 28 27  1  0  0  0  0
 30 28  1  0  0  0  0
 31 32  2  0  0  0  0
 31 19  1  0  0  0  0
 33 31  1  0  0  0  0
 34 33  1  0  0  0  0
 35  6  1  0  0  0  0
 35 37  1  0  0  0  0
 36 35  2  0  0  0  0
 38 37  1  0  0  0  0
 39 25  1  0  0  0  0
 40 39  2  0  0  0  0
 41 39  1  0  0  0  0
 42 41  1  0  0  0  0
M  RAD  3  11   2  22   2  24   2
M  END
