Coordinates from ORCA-job 1g-Schema5-R9-P1+-B3LYPG-6-31G_dp-scan-d49-09-n400
 OpenBabel08231810273D

 42 45  0  0  1  0  0  0  0  0999 V2000
   -1.9037    0.5816   -1.2323 C   0  0  0  0  0  0  0  0  0  0  0  0
   -0.5679    0.2824   -0.9808 C   0  0  0  0  0  0  0  0  0  0  0  0
    0.2580    1.0809   -0.1860 C   0  0  0  0  0  0  0  0  0  0  0  0
   -0.2640    2.2397    0.3831 C   0  0  0  0  0  0  0  0  0  0  0  0
   -1.6036    2.5605    0.1513 C   0  0  0  0  0  0  0  0  0  0  0  0
   -2.4189    1.7380   -0.6486 C   0  0  0  0  0  0  0  0  0  0  0  0
   -2.5322   -0.0483   -1.8501 H   0  0  0  0  0  0  0  0  0  0  0  0
   -2.0284    3.4567    0.5881 H   0  0  0  0  0  0  0  0  0  0  0  0
    0.3574    2.8918    0.9859 H   0  0  0  0  0  0  0  0  0  0  0  0
    0.1385   -0.8353   -1.4920 N   0  0  0  0  0  0  0  0  0  0  0  0
   -0.4480   -1.6457   -2.2637 N   0  0  0  0  0  0  0  0  0  0  0  0
    0.0742   -2.7697   -2.8656 C   0  0  0  0  0  0  0  0  0  0  0  0
   -0.9194   -3.4483   -3.6218 C   0  0  0  0  0  0  0  0  0  0  0  0
    1.3995   -3.2880   -2.8392 C   0  0  0  0  0  0  0  0  0  0  0  0
   -0.6178   -4.6081   -4.3160 C   0  0  0  0  0  0  0  0  0  0  0  0
   -1.9194   -3.0295   -3.6354 H   0  0  0  0  0  0  0  0  0  0  0  0
    1.6869   -4.4446   -3.5415 C   0  0  0  0  0  0  0  0  0  0  0  0
    2.1938   -2.8141   -2.2851 H   0  0  0  0  0  0  0  0  0  0  0  0
    0.6906   -5.1100   -4.2764 C   0  0  0  0  0  0  0  0  0  0  0  0
   -1.3798   -5.1247   -4.8868 H   0  0  0  0  0  0  0  0  0  0  0  0
    2.6878   -4.8619   -3.5374 H   0  0  0  0  0  0  0  0  0  0  0  0
    1.7882   -1.9811   -0.0350 C   0  0  0  0  0  0  0  0  0  0  0  0
    1.5584   -0.8513   -0.9411 C   0  0  2  0  0  0  0  0  0  0  0  0
    2.2020   -1.8790    1.1119 C   0  0  0  0  0  0  0  0  0  0  0  0
    1.6733    0.5123   -0.0968 C   0  0  2  0  0  0  0  0  0  0  0  0
    2.2268   -0.7893   -1.8058 H   0  0  0  0  0  0  0  0  0  0  0  0
    2.3935   -0.7742    2.0027 C   0  0  0  0  0  0  0  0  0  0  0  0
    2.1275    0.3902    1.3653 C   0  0  0  0  0  0  0  0  0  0  0  0
    2.7316   -0.8268    3.0298 H   0  0  0  0  0  0  0  0  0  0  0  0
    2.2529    1.3329    1.8882 H   0  0  0  0  0  0  0  0  0  0  0  0
    1.0925   -6.3602   -5.0043 C   0  0  0  0  0  0  0  0  0  0  0  0
    2.2162   -6.8106   -4.9762 O   0  0  0  0  0  0  0  0  0  0  0  0
    0.0696   -6.9110   -5.6802 O   0  0  0  0  0  0  0  0  0  0  0  0
    0.4070   -7.7113   -6.1182 H   0  0  0  0  0  0  0  0  0  0  0  0
   -3.8595    2.0526   -0.9192 C   0  0  0  0  0  0  0  0  0  0  0  0
   -4.5762    1.3563   -1.6037 O   0  0  0  0  0  0  0  0  0  0  0  0
   -4.2576    3.1892   -0.3196 O   0  0  0  0  0  0  0  0  0  0  0  0
   -5.1943    3.3232   -0.5447 H   0  0  0  0  0  0  0  0  0  0  0  0
    2.6358    1.4537   -0.8699 C   0  0  0  0  0  0  0  0  0  0  0  0
    3.0943    1.2044   -1.9590 O   0  0  0  0  0  0  0  0  0  0  0  0
    2.8662    2.5840   -0.1880 O   0  0  0  0  0  0  0  0  0  0  0  0
    3.4576    3.1436   -0.7229 H   0  0  0  0  0  0  0  0  0  0  0  0
  1  2  2  0  0  0  0
  1  6  1  0  0  0  0
  2  3  1  0  0  0  0
  3 25  1  0  0  0  0
  3  4  2  0  0  0  0
  4  9  1  0  0  0  0
  5  4  1  0  0  0  0
  5  8  1  0  0  0  0
  6  5  2  0  0  0  0
  7  1  1  0  0  0  0
 10  2  1  0  0  0  0
 10 23  1  0  0  0  0
 11 10  1  0  0  0  0
 12 14  1  0  0  0  0
 12 11  1  0  0  0  0
 13 12  2  0  0  0  0
 14 18  1  0  0  0  0
 15 19  2  0  0  0  0
 15 13  1  0  0  0  0
 16 13  1  0  0  0  0
 17 21  1  0  0  0  0
 17 14  2  0  0  0  0
 19 17  1  0  0  0  0
 20 15  1  0  0  0  0
 22 24  2  0  0  0  0
 23 26  1  6  0  0  0
 23 25  1  0  0  0  0
 23 22  1  0  0  0  0
 24 27  1  0  0  0  0
 25 39  1  6  0  0  0
 25 28  1  0  0  0  0
 27 29  1  0  0  0  0
 28 30  1  0  0  0  0
 28 27  2  0  0  0  0
 31 32  2  0  0  0  0
 31 19  1  0  0  0  0
 33 31  1  0  0  0  0
 34 33  1  0  0  0  0
 35  6  1  0  0  0  0
 35 37  1  0  0  0  0
 36 35  2  0  0  0  0
 38 37  1  0  0  0  0
 39 41  1  0  0  0  0
 40 39  2  0  0  0  0
 42 41  1  0  0  0  0
M  RAD  3  11   2  22   2  24   2
M  END
