Coordinates from ORCA-job 1g-Schema5-R9-P1+-B3LYPG-6-31G_dp-scan-d49-09-n400
 OpenBabel08231810273D

 42 45  0  0  1  0  0  0  0  0999 V2000
   -1.9700    0.5496   -1.0856 C   0  0  0  0  0  0  0  0  0  0  0  0
   -0.6287    0.2309   -0.9086 C   0  0  0  0  0  0  0  0  0  0  0  0
    0.2511    0.9962   -0.1383 C   0  0  0  0  0  0  0  0  0  0  0  0
   -0.2231    2.1448    0.4870 C   0  0  0  0  0  0  0  0  0  0  0  0
   -1.5707    2.4852    0.3361 C   0  0  0  0  0  0  0  0  0  0  0  0
   -2.4363    1.6992   -0.4467 C   0  0  0  0  0  0  0  0  0  0  0  0
   -2.6408   -0.0619   -1.6776 H   0  0  0  0  0  0  0  0  0  0  0  0
   -1.9622    3.3710    0.8226 H   0  0  0  0  0  0  0  0  0  0  0  0
    0.4368    2.7713    1.0766 H   0  0  0  0  0  0  0  0  0  0  0  0
    0.0436   -0.8957   -1.4383 N   0  0  0  0  0  0  0  0  0  0  0  0
   -0.4898   -1.6005   -2.3390 N   0  0  0  0  0  0  0  0  0  0  0  0
    0.0296   -2.7598   -2.8807 C   0  0  0  0  0  0  0  0  0  0  0  0
   -0.6001   -3.0988   -4.1049 C   0  0  0  0  0  0  0  0  0  0  0  0
    1.0212   -3.6212   -2.3389 C   0  0  0  0  0  0  0  0  0  0  0  0
   -0.2072   -4.2250   -4.8106 C   0  0  0  0  0  0  0  0  0  0  0  0
   -1.3808   -2.4445   -4.4774 H   0  0  0  0  0  0  0  0  0  0  0  0
    1.3780   -4.7600   -3.0387 C   0  0  0  0  0  0  0  0  0  0  0  0
    1.4519   -3.4490   -1.3625 H   0  0  0  0  0  0  0  0  0  0  0  0
    0.7858   -5.0586   -4.2781 C   0  0  0  0  0  0  0  0  0  0  0  0
   -0.6715   -4.4736   -5.7569 H   0  0  0  0  0  0  0  0  0  0  0  0
    2.1175   -5.4479   -2.6427 H   0  0  0  0  0  0  0  0  0  0  0  0
    1.3044   -1.8395    0.4691 C   0  0  0  0  0  0  0  0  0  0  0  0
    1.3905   -1.0276   -0.7452 C   0  0  2  0  0  0  0  0  0  0  0  0
    1.8844   -1.5864    1.5188 C   0  0  0  0  0  0  0  0  0  0  0  0
    1.6757    0.4576   -0.2178 C   0  0  2  0  0  0  0  0  0  0  0  0
    2.1098   -1.3563   -1.4977 H   0  0  0  0  0  0  0  0  0  0  0  0
    2.4829   -0.3956    2.0436 C   0  0  0  0  0  0  0  0  0  0  0  0
    2.4064    0.5943    1.1225 C   0  0  0  0  0  0  0  0  0  0  0  0
    2.9990   -0.2974    2.9901 H   0  0  0  0  0  0  0  0  0  0  0  0
    2.8677    1.5583    1.3113 H   0  0  0  0  0  0  0  0  0  0  0  0
    1.2446   -6.3057   -4.9756 C   0  0  0  0  0  0  0  0  0  0  0  0
    2.0983   -7.0394   -4.5297 O   0  0  0  0  0  0  0  0  0  0  0  0
    0.6024   -6.5074   -6.1396 O   0  0  0  0  0  0  0  0  0  0  0  0
    0.9500   -7.3300   -6.5251 H   0  0  0  0  0  0  0  0  0  0  0  0
   -3.8846    2.0397   -0.6317 C   0  0  0  0  0  0  0  0  0  0  0  0
   -4.6445    1.3743   -1.3001 O   0  0  0  0  0  0  0  0  0  0  0  0
   -4.2359    3.1610    0.0232 O   0  0  0  0  0  0  0  0  0  0  0  0
   -5.1811    3.3130   -0.1480 H   0  0  0  0  0  0  0  0  0  0  0  0
    2.3997    1.2193   -1.3531 C   0  0  0  0  0  0  0  0  0  0  0  0
    2.5319    0.7709   -2.4677 O   0  0  0  0  0  0  0  0  0  0  0  0
    2.8156    2.4297   -0.9598 O   0  0  0  0  0  0  0  0  0  0  0  0
    3.2379    2.8664   -1.7213 H   0  0  0  0  0  0  0  0  0  0  0  0
  1  2  2  0  0  0  0
  1  6  1  0  0  0  0
  2  3  1  0  0  0  0
  3  4  2  0  0  0  0
  4  9  1  0  0  0  0
  5  4  1  0  0  0  0
  5  8  1  0  0  0  0
  6  5  2  0  0  0  0
  7  1  1  0  0  0  0
 10  2  1  0  0  0  0
 10 23  1  0  0  0  0
 11 10  1  0  0  0  0
 12 11  1  0  0  0  0
 12 14  1  0  0  0  0
 13 12  2  0  0  0  0
 14 18  1  0  0  0  0
 15 19  2  0  0  0  0
 15 13  1  0  0  0  0
 16 13  1  0  0  0  0
 17 21  1  0  0  0  0
 17 14  2  0  0  0  0
 19 17  1  0  0  0  0
 20 15  1  0  0  0  0
 22 24  1  0  0  0  0
 23 26  1  6  0  0  0
 23 25  1  0  0  0  0
 23 22  1  0  0  0  0
 24 27  2  0  0  0  0
 25 39  1  6  0  0  0
 25  3  1  0  0  0  0
 25 28  1  0  0  0  0
 27 29  1  0  0  0  0
 28 30  1  0  0  0  0
 28 27  1  0  0  0  0
 31 32  2  0  0  0  0
 31 19  1  0  0  0  0
 33 31  1  0  0  0  0
 34 33  1  0  0  0  0
 35  6  1  0  0  0  0
 35 37  1  0  0  0  0
 36 35  2  0  0  0  0
 38 37  1  0  0  0  0
 39 41  1  0  0  0  0
 40 39  2  0  0  0  0
 42 41  1  0  0  0  0
M  RAD  4  11   2  22   3  24   2  28   2
M  END
