Coordinates from ORCA-job 1g-Schema5-R9-P1+-B3LYPG-6-31G_dp-scan-d49-09-n400
 OpenBabel08231810273D

 42 45  0  0  1  0  0  0  0  0999 V2000
   -1.9027    0.6876   -1.3334 C   0  0  0  0  0  0  0  0  0  0  0  0
   -0.5816    0.3524   -1.0525 C   0  0  0  0  0  0  0  0  0  0  0  0
    0.2399    1.1255   -0.2264 C   0  0  0  0  0  0  0  0  0  0  0  0
   -0.2635    2.2888    0.3454 C   0  0  0  0  0  0  0  0  0  0  0  0
   -1.5890    2.6454    0.0807 C   0  0  0  0  0  0  0  0  0  0  0  0
   -2.4029    1.8508   -0.7474 C   0  0  0  0  0  0  0  0  0  0  0  0
   -2.5311    0.0855   -1.9788 H   0  0  0  0  0  0  0  0  0  0  0  0
   -2.0028    3.5483    0.5141 H   0  0  0  0  0  0  0  0  0  0  0  0
    0.3601    2.9126    0.9761 H   0  0  0  0  0  0  0  0  0  0  0  0
    0.1111   -0.7738   -1.5750 N   0  0  0  0  0  0  0  0  0  0  0  0
   -0.5260   -1.6476   -2.2301 N   0  0  0  0  0  0  0  0  0  0  0  0
    0.0154   -2.7455   -2.8641 C   0  0  0  0  0  0  0  0  0  0  0  0
   -0.9733   -3.7093   -3.1911 C   0  0  0  0  0  0  0  0  0  0  0  0
    1.3629   -2.9620   -3.2616 C   0  0  0  0  0  0  0  0  0  0  0  0
   -0.6237   -4.8891   -3.8274 C   0  0  0  0  0  0  0  0  0  0  0  0
   -2.0004   -3.5023   -2.9123 H   0  0  0  0  0  0  0  0  0  0  0  0
    1.6907   -4.1298   -3.9289 C   0  0  0  0  0  0  0  0  0  0  0  0
    2.1286   -2.2160   -3.1104 H   0  0  0  0  0  0  0  0  0  0  0  0
    0.7128   -5.1022   -4.1967 C   0  0  0  0  0  0  0  0  0  0  0  0
   -1.3736   -5.6366   -4.0567 H   0  0  0  0  0  0  0  0  0  0  0  0
    2.7065   -4.3151   -4.2595 H   0  0  0  0  0  0  0  0  0  0  0  0
    2.0507   -1.9892   -0.5450 C   0  0  0  0  0  0  0  0  0  0  0  0
    1.5774   -0.7266   -1.1555 C   0  0  2  0  0  0  0  0  0  0  0  0
    2.3530   -2.0516    0.6403 C   0  0  0  0  0  0  0  0  0  0  0  0
    1.6252    0.4750   -0.0855 C   0  0  2  0  0  0  0  0  0  0  0  0
    2.1430   -0.3946   -2.0335 H   0  0  0  0  0  0  0  0  0  0  0  0
    2.3132   -1.1616    1.7587 C   0  0  0  0  0  0  0  0  0  0  0  0
    1.9195    0.0741    1.3655 C   0  0  0  0  0  0  0  0  0  0  0  0
    2.5457   -1.4121    2.7861 H   0  0  0  0  0  0  0  0  0  0  0  0
    1.8322    0.8713    2.0971 H   0  0  0  0  0  0  0  0  0  0  0  0
    1.1586   -6.3480   -4.9054 C   0  0  0  0  0  0  0  0  0  0  0  0
    2.3060   -6.5473   -5.2377 O   0  0  0  0  0  0  0  0  0  0  0  0
    0.1456   -7.2058   -5.1210 O   0  0  0  0  0  0  0  0  0  0  0  0
    0.5134   -7.9817   -5.5778 H   0  0  0  0  0  0  0  0  0  0  0  0
   -3.8272    2.2062   -1.0531 C   0  0  0  0  0  0  0  0  0  0  0  0
   -4.5440    1.5338   -1.7609 O   0  0  0  0  0  0  0  0  0  0  0  0
   -4.2104    3.3490   -0.4555 O   0  0  0  0  0  0  0  0  0  0  0  0
   -5.1371    3.5093   -0.7034 H   0  0  0  0  0  0  0  0  0  0  0  0
    2.7016    1.4805   -0.5755 C   0  0  0  0  0  0  0  0  0  0  0  0
    3.2331    1.4296   -1.6586 O   0  0  0  0  0  0  0  0  0  0  0  0
    2.9352    2.4292    0.3425 O   0  0  0  0  0  0  0  0  0  0  0  0
    3.5973    3.0437   -0.0228 H   0  0  0  0  0  0  0  0  0  0  0  0
  1  2  2  0  0  0  0
  1  6  1  0  0  0  0
  2  3  1  0  0  0  0
  3 25  1  0  0  0  0
  3  4  2  0  0  0  0
  4  9  1  0  0  0  0
  5  4  1  0  0  0  0
  5  8  1  0  0  0  0
  6  5  2  0  0  0  0
  7  1  1  0  0  0  0
 10 23  1  0  0  0  0
 10  2  1  0  0  0  0
 11 10  1  0  0  0  0
 12 11  1  0  0  0  0
 13 16  1  0  0  0  0
 13 12  1  0  0  0  0
 14 18  1  0  0  0  0
 14 12  2  0  0  0  0
 15 13  2  0  0  0  0
 17 14  1  0  0  0  0
 19 17  2  0  0  0  0
 19 15  1  0  0  0  0
 20 15  1  0  0  0  0
 21 17  1  0  0  0  0
 22 24  2  0  0  0  0
 23 26  1  6  0  0  0
 23 22  1  0  0  0  0
 23 25  1  0  0  0  0
 24 27  1  0  0  0  0
 25 39  1  6  0  0  0
 25 28  1  0  0  0  0
 27 29  1  0  0  0  0
 28 27  2  0  0  0  0
 28 30  1  0  0  0  0
 31 19  1  0  0  0  0
 32 31  2  0  0  0  0
 33 31  1  0  0  0  0
 34 33  1  0  0  0  0
 35  6  1  0  0  0  0
 35 37  1  0  0  0  0
 36 35  2  0  0  0  0
 38 37  1  0  0  0  0
 39 41  1  0  0  0  0
 40 39  2  0  0  0  0
 42 41  1  0  0  0  0
M  RAD  3  11   2  22   2  24   2
M  END
