Coordinates from ORCA-job 1g-Schema5-R9-P1+-B3LYPG-6-31G_dp-scan-d49-09-n400
 OpenBabel08231810273D

 42 45  0  0  1  0  0  0  0  0999 V2000
   -2.0141    0.8431   -1.1368 C   0  0  0  0  0  0  0  0  0  0  0  0
   -0.9038    0.2473   -0.5603 C   0  0  0  0  0  0  0  0  0  0  0  0
   -0.4901    0.4796    0.7715 C   0  0  0  0  0  0  0  0  0  0  0  0
   -1.2555    1.3501    1.5663 C   0  0  0  0  0  0  0  0  0  0  0  0
   -2.3718    1.9619    1.0076 C   0  0  0  0  0  0  0  0  0  0  0  0
   -2.7490    1.7169   -0.3314 C   0  0  0  0  0  0  0  0  0  0  0  0
   -2.3142    0.6579   -2.1608 H   0  0  0  0  0  0  0  0  0  0  0  0
   -2.9728    2.6401    1.6022 H   0  0  0  0  0  0  0  0  0  0  0  0
   -0.9809    1.5275    2.6004 H   0  0  0  0  0  0  0  0  0  0  0  0
   -0.0340   -0.7069   -1.1596 N   0  0  0  0  0  0  0  0  0  0  0  0
   -0.4325   -1.3331   -2.1865 N   0  0  0  0  0  0  0  0  0  0  0  0
    0.1533   -2.4012   -2.8180 C   0  0  0  0  0  0  0  0  0  0  0  0
   -0.7033   -2.9269   -3.8225 C   0  0  0  0  0  0  0  0  0  0  0  0
    1.4067   -3.0312   -2.5794 C   0  0  0  0  0  0  0  0  0  0  0  0
   -0.3514   -4.0604   -4.5379 C   0  0  0  0  0  0  0  0  0  0  0  0
   -1.6464   -2.4218   -3.9978 H   0  0  0  0  0  0  0  0  0  0  0  0
    1.7437   -4.1622   -3.2963 C   0  0  0  0  0  0  0  0  0  0  0  0
    2.1261   -2.6274   -1.8848 H   0  0  0  0  0  0  0  0  0  0  0  0
    0.8728   -4.6856   -4.2702 C   0  0  0  0  0  0  0  0  0  0  0  0
   -1.0113   -4.4618   -5.2976 H   0  0  0  0  0  0  0  0  0  0  0  0
    2.6926   -4.6622   -3.1362 H   0  0  0  0  0  0  0  0  0  0  0  0
    0.6445   -0.2250    1.0340 C   0  0  1  0  0  0  0  0  0  0  0  0
    1.1432   -0.8974   -0.2406 C   0  0  2  0  0  0  0  0  0  0  0  0
    1.5983   -0.1396    1.9718 C   0  0  0  0  0  0  0  0  0  0  0  0
    2.4606   -0.1128   -0.6019 C   0  0  0  0  0  0  0  0  0  0  0  0
    1.3457   -1.9686   -0.1641 H   0  0  0  0  0  0  0  0  0  0  0  0
    2.9128   -0.0453    1.8149 C   0  0  0  0  0  0  0  0  0  0  0  0
    3.2734    0.2830    0.4106 C   0  0  0  0  0  0  0  0  0  0  0  0
    3.6822   -0.2955    2.5389 H   0  0  0  0  0  0  0  0  0  0  0  0
    4.2283    0.7424    0.1760 H   0  0  0  0  0  0  0  0  0  0  0  0
    1.3235   -5.9157   -5.0025 C   0  0  0  0  0  0  0  0  0  0  0  0
    2.3785   -6.4683   -4.7827 O   0  0  0  0  0  0  0  0  0  0  0  0
    0.4263   -6.3273   -5.9148 O   0  0  0  0  0  0  0  0  0  0  0  0
    0.7877   -7.1237   -6.3406 H   0  0  0  0  0  0  0  0  0  0  0  0
   -3.9459    2.3654   -0.9565 C   0  0  0  0  0  0  0  0  0  0  0  0
   -4.2929    2.1618   -2.0996 O   0  0  0  0  0  0  0  0  0  0  0  0
   -4.5866    3.1903   -0.1082 O   0  0  0  0  0  0  0  0  0  0  0  0
   -5.3456    3.5650   -0.5869 H   0  0  0  0  0  0  0  0  0  0  0  0
    2.8124    0.1381   -2.0187 C   0  0  0  0  0  0  0  0  0  0  0  0
    2.1280   -0.2150   -2.9628 O   0  0  0  0  0  0  0  0  0  0  0  0
    3.9578    0.8276   -2.1613 O   0  0  0  0  0  0  0  0  0  0  0  0
    4.0931    0.9678   -3.1140 H   0  0  0  0  0  0  0  0  0  0  0  0
  1  2  2  0  0  0  0
  1  6  1  0  0  0  0
  2  3  1  0  0  0  0
  3  4  2  0  0  0  0
  4  9  1  0  0  0  0
  5  4  1  0  0  0  0
  5  8  1  0  0  0  0
  6  5  2  0  0  0  0
  7  1  1  0  0  0  0
 10  2  1  0  0  0  0
 10 23  1  0  0  0  0
 11 10  1  0  0  0  0
 12 14  1  0  0  0  0
 12 11  1  0  0  0  0
 13 12  2  0  0  0  0
 14 18  1  0  0  0  0
 15 19  2  0  0  0  0
 15 13  1  0  0  0  0
 16 13  1  0  0  0  0
 17 21  1  0  0  0  0
 17 14  2  0  0  0  0
 19 17  1  0  0  0  0
 20 15  1  0  0  0  0
 22  3  1  6  0  0  0
 22 24  1  0  0  0  0
 23 26  1  1  0  0  0
 23 22  1  0  0  0  0
 25 23  1  0  0  0  0
 25 28  2  0  0  0  0
 27 24  1  0  0  0  0
 27 29  1  0  0  0  0
 28 27  1  0  0  0  0
 30 28  1  0  0  0  0
 31 32  2  0  0  0  0
 31 19  1  0  0  0  0
 33 31  1  0  0  0  0
 34 33  1  0  0  0  0
 35  6  1  0  0  0  0
 35 37  1  0  0  0  0
 36 35  2  0  0  0  0
 38 37  1  0  0  0  0
 39 25  1  0  0  0  0
 40 39  2  0  0  0  0
 41 39  1  0  0  0  0
 42 41  1  0  0  0  0
M  RAD  4  11   2  22   2  24   3  27   2
M  END
