Coordinates from ORCA-job 1g-Schema5-R9-P1+-B3LYPG-6-31G_dp-scan-d49-09-n400
 OpenBabel08231810273D

 42 43  0  0  0  0  0  0  0  0999 V2000
   -3.0057    0.4250   -1.2291 C   0  0  0  0  0  0  0  0  0  0  0  0
   -1.6460    0.1783   -0.8308 C   0  0  0  0  0  0  0  0  0  0  0  0
   -1.5090    1.0247    0.1863 C   0  0  0  0  0  0  0  0  0  0  0  0
   -2.1356    1.9567    0.9234 C   0  0  0  0  0  0  0  0  0  0  0  0
   -3.4586    2.1186    0.4500 C   0  0  0  0  0  0  0  0  0  0  0  0
   -3.8752    1.3338   -0.6401 C   0  0  0  0  0  0  0  0  0  0  0  0
   -3.2883   -0.2058   -2.0818 H   0  0  0  0  0  0  0  0  0  0  0  0
   -4.1163    2.8351    0.9305 H   0  0  0  0  0  0  0  0  0  0  0  0
   -1.7105    2.5083    1.7547 H   0  0  0  0  0  0  0  0  0  0  0  0
   -0.8048   -0.7614   -1.4685 N   0  0  0  0  0  0  0  0  0  0  0  0
   -1.3324   -1.3628   -2.4314 N   0  0  0  0  0  0  0  0  0  0  0  0
   -0.5830   -2.3042   -3.1265 C   0  0  0  0  0  0  0  0  0  0  0  0
   -1.2558   -2.9232   -4.2013 C   0  0  0  0  0  0  0  0  0  0  0  0
    0.7550   -2.6385   -2.8148 C   0  0  0  0  0  0  0  0  0  0  0  0
   -0.5958   -3.8742   -4.9673 C   0  0  0  0  0  0  0  0  0  0  0  0
   -2.2817   -2.6407   -4.4106 H   0  0  0  0  0  0  0  0  0  0  0  0
    1.4006   -3.5858   -3.5874 C   0  0  0  0  0  0  0  0  0  0  0  0
    1.2767   -2.1692   -1.9893 H   0  0  0  0  0  0  0  0  0  0  0  0
    0.7330   -4.2051   -4.6612 C   0  0  0  0  0  0  0  0  0  0  0  0
   -1.0950   -4.3591   -5.7971 H   0  0  0  0  0  0  0  0  0  0  0  0
    2.4267   -3.8611   -3.3735 H   0  0  0  0  0  0  0  0  0  0  0  0
    2.3309    0.9543    1.4964 C   0  0  0  0  0  0  0  0  0  0  0  0
    2.5165   -0.1093    0.6258 C   0  0  0  0  0  0  0  0  0  0  0  0
    3.2792    1.5676    2.0391 C   0  0  0  0  0  0  0  0  0  0  0  0
    3.8900   -0.4049    0.4269 C   0  0  0  0  0  0  0  0  0  0  0  0
    1.7524   -0.6891    0.1221 H   0  0  0  0  0  0  0  0  0  0  0  0
    4.6439    1.3987    1.9459 C   0  0  0  0  0  0  0  0  0  0  0  0
    4.9148    0.3254    1.0698 C   0  0  0  0  0  0  0  0  0  0  0  0
    5.4226    1.9618    2.4451 H   0  0  0  0  0  0  0  0  0  0  0  0
    5.9480    0.0495    0.8867 H   0  0  0  0  0  0  0  0  0  0  0  0
    1.4995   -5.2215   -5.4542 C   0  0  0  0  0  0  0  0  0  0  0  0
    2.6521   -5.5172   -5.2262 O   0  0  0  0  0  0  0  0  0  0  0  0
    0.7650   -5.7660   -6.4431 O   0  0  0  0  0  0  0  0  0  0  0  0
    1.3334   -6.4078   -6.9020 H   0  0  0  0  0  0  0  0  0  0  0  0
   -5.2558    1.4246   -1.2280 C   0  0  0  0  0  0  0  0  0  0  0  0
   -5.6177    0.7528   -2.1657 O   0  0  0  0  0  0  0  0  0  0  0  0
   -6.0116    2.3303   -0.5883 O   0  0  0  0  0  0  0  0  0  0  0  0
   -6.8863    2.3449   -1.0147 H   0  0  0  0  0  0  0  0  0  0  0  0
    4.2047   -1.5302   -0.4977 C   0  0  0  0  0  0  0  0  0  0  0  0
    3.3679   -2.1618   -1.1215 O   0  0  0  0  0  0  0  0  0  0  0  0
    5.5208   -1.7974   -0.5861 O   0  0  0  0  0  0  0  0  0  0  0  0
    5.6206   -2.5434   -1.2015 H   0  0  0  0  0  0  0  0  0  0  0  0
  1  2  2  0  0  0  0
  1  6  1  0  0  0  0
  2  3  1  0  0  0  0
  3  4  2  0  0  0  0
  4  9  1  0  0  0  0
  5  4  1  0  0  0  0
  5  8  1  0  0  0  0
  6  5  2  0  0  0  0
  7  1  1  0  0  0  0
 10  2  1  0  0  0  0
 11 10  1  0  0  0  0
 12 14  1  0  0  0  0
 12 11  1  0  0  0  0
 13 12  2  0  0  0  0
 14 18  1  0  0  0  0
 15 19  2  0  0  0  0
 15 13  1  0  0  0  0
 16 13  1  0  0  0  0
 17 21  1  0  0  0  0
 17 14  2  0  0  0  0
 19 17  1  0  0  0  0
 20 15  1  0  0  0  0
 22 24  2  0  0  0  0
 23 22  1  0  0  0  0
 25 23  2  0  0  0  0
 25 28  1  0  0  0  0
 26 23  1  0  0  0  0
 27 24  1  0  0  0  0
 27 29  1  0  0  0  0
 28 27  2  0  0  0  0
 30 28  1  0  0  0  0
 31 32  2  0  0  0  0
 31 19  1  0  0  0  0
 33 31  1  0  0  0  0
 34 33  1  0  0  0  0
 35  6  1  0  0  0  0
 35 37  1  0  0  0  0
 36 35  2  0  0  0  0
 38 37  1  0  0  0  0
 39 25  1  0  0  0  0
 40 39  2  0  0  0  0
 41 39  1  0  0  0  0
 42 41  1  0  0  0  0
M  RAD  5   3   2  10   2  11   2  22   2  24   2
M  END
