Coordinates from ORCA-job 1g-Schema5-R9-P1+-B3LYPG-6-31G_dp-scan-d49-09-n400
 OpenBabel08231810273D

 42 45  0  0  1  0  0  0  0  0999 V2000
   -1.9851    0.6060   -1.0792 C   0  0  0  0  0  0  0  0  0  0  0  0
   -0.6527    0.2468   -0.9501 C   0  0  0  0  0  0  0  0  0  0  0  0
    0.2531    0.8844   -0.0899 C   0  0  0  0  0  0  0  0  0  0  0  0
   -0.1909    1.9680    0.6569 C   0  0  0  0  0  0  0  0  0  0  0  0
   -1.5364    2.3456    0.5643 C   0  0  0  0  0  0  0  0  0  0  0  0
   -2.4228    1.6827   -0.3020 C   0  0  0  0  0  0  0  0  0  0  0  0
   -2.6751    0.0776   -1.7272 H   0  0  0  0  0  0  0  0  0  0  0  0
   -1.9059    3.1756    1.1559 H   0  0  0  0  0  0  0  0  0  0  0  0
    0.4887    2.5132    1.3028 H   0  0  0  0  0  0  0  0  0  0  0  0
   -0.0038   -0.8685   -1.5285 N   0  0  0  0  0  0  0  0  0  0  0  0
   -0.4823   -1.4954   -2.5086 N   0  0  0  0  0  0  0  0  0  0  0  0
    0.0311   -2.6869   -2.9960 C   0  0  0  0  0  0  0  0  0  0  0  0
   -0.2745   -2.9135   -4.3570 C   0  0  0  0  0  0  0  0  0  0  0  0
    0.7060   -3.6809   -2.2441 C   0  0  0  0  0  0  0  0  0  0  0  0
    0.1668   -4.0693   -4.9854 C   0  0  0  0  0  0  0  0  0  0  0  0
   -0.8341   -2.1565   -4.8955 H   0  0  0  0  0  0  0  0  0  0  0  0
    1.1011   -4.8483   -2.8741 C   0  0  0  0  0  0  0  0  0  0  0  0
    0.8425   -3.5810   -1.1737 H   0  0  0  0  0  0  0  0  0  0  0  0
    0.8569   -5.0389   -4.2452 C   0  0  0  0  0  0  0  0  0  0  0  0
   -0.0390   -4.2373   -6.0355 H   0  0  0  0  0  0  0  0  0  0  0  0
    1.5953   -5.6413   -2.3232 H   0  0  0  0  0  0  0  0  0  0  0  0
    0.8598   -1.4198    0.6798 C   0  0  0  0  0  0  0  0  0  0  0  0
    1.2477   -1.0819   -0.6873 C   0  0  2  0  0  0  0  0  0  0  0  0
    1.5569   -1.2410    1.6835 C   0  0  0  0  0  0  0  0  0  0  0  0
    1.6853    0.4122   -0.3482 C   0  0  2  0  0  0  0  0  0  0  0  0
    1.9605   -1.7111   -1.2155 H   0  0  0  0  0  0  0  0  0  0  0  0
    2.4728   -0.1759    1.9640 C   0  0  0  0  0  0  0  0  0  0  0  0
    2.5880    0.6133    0.8660 C   0  0  0  0  0  0  0  0  0  0  0  0
    3.0834   -0.0717    2.8527 H   0  0  0  0  0  0  0  0  0  0  0  0
    3.3076    1.4244    0.8183 H   0  0  0  0  0  0  0  0  0  0  0  0
    1.3349   -6.3231   -4.8555 C   0  0  0  0  0  0  0  0  0  0  0  0
    1.9292   -7.1742   -4.2316 O   0  0  0  0  0  0  0  0  0  0  0  0
    1.0302   -6.4151   -6.1623 O   0  0  0  0  0  0  0  0  0  0  0  0
    1.3689   -7.2698   -6.4798 H   0  0  0  0  0  0  0  0  0  0  0  0
   -3.8637    2.0735   -0.4323 C   0  0  0  0  0  0  0  0  0  0  0  0
   -4.6406    1.5116   -1.1725 O   0  0  0  0  0  0  0  0  0  0  0  0
   -4.1889    3.1099    0.3612 O   0  0  0  0  0  0  0  0  0  0  0  0
   -5.1319    3.3000    0.2184 H   0  0  0  0  0  0  0  0  0  0  0  0
    2.2301    1.0800   -1.6246 C   0  0  0  0  0  0  0  0  0  0  0  0
    2.1955    0.5413   -2.7073 O   0  0  0  0  0  0  0  0  0  0  0  0
    2.7061    2.3082   -1.3917 O   0  0  0  0  0  0  0  0  0  0  0  0
    3.0186    2.6781   -2.2370 H   0  0  0  0  0  0  0  0  0  0  0  0
  1  2  2  0  0  0  0
  1  6  1  0  0  0  0
  2  3  1  0  0  0  0
  3  4  2  0  0  0  0
  4  9  1  0  0  0  0
  5  4  1  0  0  0  0
  5  8  1  0  0  0  0
  6  5  2  0  0  0  0
  7  1  1  0  0  0  0
 10  2  1  0  0  0  0
 10 23  1  0  0  0  0
 11 10  1  0  0  0  0
 12 11  1  0  0  0  0
 12 14  2  0  0  0  0
 13 12  1  0  0  0  0
 14 18  1  0  0  0  0
 15 13  2  0  0  0  0
 15 19  1  0  0  0  0
 16 13  1  0  0  0  0
 17 21  1  0  0  0  0
 17 14  1  0  0  0  0
 19 17  2  0  0  0  0
 20 15  1  0  0  0  0
 22 24  1  0  0  0  0
 23 26  1  6  0  0  0
 23 25  1  0  0  0  0
 23 22  1  0  0  0  0
 24 27  2  0  0  0  0
 25 39  1  6  0  0  0
 25  3  1  0  0  0  0
 25 28  1  0  0  0  0
 27 29  1  0  0  0  0
 28 27  1  0  0  0  0
 30 28  1  0  0  0  0
 31 19  1  0  0  0  0
 31 32  2  0  0  0  0
 33 31  1  0  0  0  0
 34 33  1  0  0  0  0
 35  6  1  0  0  0  0
 35 37  1  0  0  0  0
 36 35  2  0  0  0  0
 38 37  1  0  0  0  0
 39 41  1  0  0  0  0
 40 39  2  0  0  0  0
 42 41  1  0  0  0  0
M  RAD  4  11   2  22   3  24   2  28   2
M  END
