Coordinates from ORCA-job 1g-Schema5-R9-P1+-B3LYPG-6-31G_dp-scan-d49-09-n400
 OpenBabel08231810273D

 42 43  0  0  0  0  0  0  0  0999 V2000
   -3.1069    0.4309   -1.2537 C   0  0  0  0  0  0  0  0  0  0  0  0
   -1.7558    0.1880   -0.8230 C   0  0  0  0  0  0  0  0  0  0  0  0
   -1.6538    1.0229    0.2069 C   0  0  0  0  0  0  0  0  0  0  0  0
   -2.3063    1.9413    0.9387 C   0  0  0  0  0  0  0  0  0  0  0  0
   -3.6172    2.1011    0.4318 C   0  0  0  0  0  0  0  0  0  0  0  0
   -3.9987    1.3263   -0.6781 C   0  0  0  0  0  0  0  0  0  0  0  0
   -3.3615   -0.1939   -2.1199 H   0  0  0  0  0  0  0  0  0  0  0  0
   -4.2921    2.8080    0.9025 H   0  0  0  0  0  0  0  0  0  0  0  0
   -1.9085    2.4859    1.7881 H   0  0  0  0  0  0  0  0  0  0  0  0
   -0.8936   -0.7373   -1.4513 N   0  0  0  0  0  0  0  0  0  0  0  0
   -1.3958   -1.3426   -2.4250 N   0  0  0  0  0  0  0  0  0  0  0  0
   -0.6202   -2.2702   -3.1089 C   0  0  0  0  0  0  0  0  0  0  0  0
   -1.2654   -2.9084   -4.1895 C   0  0  0  0  0  0  0  0  0  0  0  0
    0.7197   -2.5750   -2.7771 C   0  0  0  0  0  0  0  0  0  0  0  0
   -0.5755   -3.8512   -4.9390 C   0  0  0  0  0  0  0  0  0  0  0  0
   -2.2937   -2.6483   -4.4153 H   0  0  0  0  0  0  0  0  0  0  0  0
    1.3953   -3.5146   -3.5328 C   0  0  0  0  0  0  0  0  0  0  0  0
    1.2203   -2.0877   -1.9493 H   0  0  0  0  0  0  0  0  0  0  0  0
    0.7552   -4.1543   -4.6112 C   0  0  0  0  0  0  0  0  0  0  0  0
   -1.0528   -4.3515   -5.7725 H   0  0  0  0  0  0  0  0  0  0  0  0
    2.4234   -3.7655   -3.3002 H   0  0  0  0  0  0  0  0  0  0  0  0
    2.5694    1.0110    1.5406 C   0  0  0  0  0  0  0  0  0  0  0  0
    2.6533   -0.0572    0.6638 C   0  0  0  0  0  0  0  0  0  0  0  0
    3.5653    1.5686    2.0556 C   0  0  0  0  0  0  0  0  0  0  0  0
    3.9991   -0.4371    0.4181 C   0  0  0  0  0  0  0  0  0  0  0  0
    1.8370   -0.5881    0.1877 H   0  0  0  0  0  0  0  0  0  0  0  0
    4.9132    1.3118    1.9123 C   0  0  0  0  0  0  0  0  0  0  0  0
    5.0883    0.2273    1.0266 C   0  0  0  0  0  0  0  0  0  0  0  0
    5.7425    1.8255    2.3826 H   0  0  0  0  0  0  0  0  0  0  0  0
    6.0955   -0.1094    0.8054 H   0  0  0  0  0  0  0  0  0  0  0  0
    1.5526   -5.1610   -5.3861 C   0  0  0  0  0  0  0  0  0  0  0  0
    2.7078   -5.4315   -5.1404 O   0  0  0  0  0  0  0  0  0  0  0  0
    0.8426   -5.7279   -6.3801 O   0  0  0  0  0  0  0  0  0  0  0  0
    1.4297   -6.3618   -6.8263 H   0  0  0  0  0  0  0  0  0  0  0  0
   -5.3639    1.4135   -1.3018 C   0  0  0  0  0  0  0  0  0  0  0  0
   -5.6947    0.7502   -2.2569 O   0  0  0  0  0  0  0  0  0  0  0  0
   -6.1433    2.3060   -0.6723 O   0  0  0  0  0  0  0  0  0  0  0  0
   -7.0065    2.3195   -1.1216 H   0  0  0  0  0  0  0  0  0  0  0  0
    4.2145   -1.5743   -0.5187 C   0  0  0  0  0  0  0  0  0  0  0  0
    3.3208   -2.1546   -1.1139 O   0  0  0  0  0  0  0  0  0  0  0  0
    5.5086   -1.9180   -0.6562 O   0  0  0  0  0  0  0  0  0  0  0  0
    5.5414   -2.6657   -1.2766 H   0  0  0  0  0  0  0  0  0  0  0  0
  1  2  2  0  0  0  0
  1  6  1  0  0  0  0
  2  3  1  0  0  0  0
  3  4  2  0  0  0  0
  4  9  1  0  0  0  0
  5  8  1  0  0  0  0
  5  4  1  0  0  0  0
  6  5  2  0  0  0  0
  7  1  1  0  0  0  0
 10  2  1  0  0  0  0
 11 10  1  0  0  0  0
 12 14  1  0  0  0  0
 12 11  1  0  0  0  0
 13 12  2  0  0  0  0
 14 18  1  0  0  0  0
 15 19  2  0  0  0  0
 15 13  1  0  0  0  0
 16 13  1  0  0  0  0
 17 21  1  0  0  0  0
 17 14  2  0  0  0  0
 19 17  1  0  0  0  0
 20 15  1  0  0  0  0
 22 24  2  0  0  0  0
 23 22  1  0  0  0  0
 25 23  2  0  0  0  0
 25 28  1  0  0  0  0
 26 23  1  0  0  0  0
 27 24  1  0  0  0  0
 27 29  1  0  0  0  0
 28 27  2  0  0  0  0
 30 28  1  0  0  0  0
 31 32  2  0  0  0  0
 31 19  1  0  0  0  0
 33 31  1  0  0  0  0
 34 33  1  0  0  0  0
 35  6  1  0  0  0  0
 35 37  1  0  0  0  0
 36 35  2  0  0  0  0
 38 37  1  0  0  0  0
 39 25  1  0  0  0  0
 40 39  2  0  0  0  0
 41 39  1  0  0  0  0
 42 41  1  0  0  0  0
M  RAD  5   3   2  10   2  11   2  22   2  24   2
M  END
