Coordinates from ORCA-job 1g-Schema5-R9-P1+-B3LYPG-6-31G_dp-scan-d49-09-n400
 OpenBabel08231810273D

 42 45  0  0  1  0  0  0  0  0999 V2000
   -1.9026    0.5838   -1.2365 C   0  0  0  0  0  0  0  0  0  0  0  0
   -0.5672    0.2844   -0.9829 C   0  0  0  0  0  0  0  0  0  0  0  0
    0.2574    1.0832   -0.1871 C   0  0  0  0  0  0  0  0  0  0  0  0
   -0.2649    2.2424    0.3806 C   0  0  0  0  0  0  0  0  0  0  0  0
   -1.6042    2.5635    0.1464 C   0  0  0  0  0  0  0  0  0  0  0  0
   -2.4183    1.7407   -0.6542 C   0  0  0  0  0  0  0  0  0  0  0  0
   -2.5305   -0.0459   -1.8552 H   0  0  0  0  0  0  0  0  0  0  0  0
   -2.0294    3.4601    0.5819 H   0  0  0  0  0  0  0  0  0  0  0  0
    0.3558    2.8944    0.9843 H   0  0  0  0  0  0  0  0  0  0  0  0
    0.1394   -0.8335   -1.4933 N   0  0  0  0  0  0  0  0  0  0  0  0
   -0.4484   -1.6462   -2.2618 N   0  0  0  0  0  0  0  0  0  0  0  0
    0.0742   -2.7686   -2.8662 C   0  0  0  0  0  0  0  0  0  0  0  0
   -0.9248   -3.4592   -3.6043 C   0  0  0  0  0  0  0  0  0  0  0  0
    1.4045   -3.2744   -2.8590 C   0  0  0  0  0  0  0  0  0  0  0  0
   -0.6239   -4.6202   -4.2967 C   0  0  0  0  0  0  0  0  0  0  0  0
   -1.9285   -3.0491   -3.6047 H   0  0  0  0  0  0  0  0  0  0  0  0
    1.6913   -4.4318   -3.5602 C   0  0  0  0  0  0  0  0  0  0  0  0
    2.2038   -2.7890   -2.3223 H   0  0  0  0  0  0  0  0  0  0  0  0
    0.6894   -5.1103   -4.2751 C   0  0  0  0  0  0  0  0  0  0  0  0
   -1.3901   -5.1465   -4.8529 H   0  0  0  0  0  0  0  0  0  0  0  0
    2.6962   -4.8395   -3.5708 H   0  0  0  0  0  0  0  0  0  0  0  0
    1.8030   -1.9830   -0.0532 C   0  0  0  0  0  0  0  0  0  0  0  0
    1.5610   -0.8459   -0.9472 C   0  0  2  0  0  0  0  0  0  0  0  0
    2.2142   -1.8865    1.0951 C   0  0  0  0  0  0  0  0  0  0  0  0
    1.6716    0.5120   -0.0933 C   0  0  2  0  0  0  0  0  0  0  0  0
    2.2261   -0.7717   -1.8137 H   0  0  0  0  0  0  0  0  0  0  0  0
    2.3932   -0.7886    1.9966 C   0  0  0  0  0  0  0  0  0  0  0  0
    2.1188    0.3795    1.3698 C   0  0  0  0  0  0  0  0  0  0  0  0
    2.7270   -0.8481    3.0247 H   0  0  0  0  0  0  0  0  0  0  0  0
    2.2331    1.3178    1.9029 H   0  0  0  0  0  0  0  0  0  0  0  0
    1.0909   -6.3608   -5.0027 C   0  0  0  0  0  0  0  0  0  0  0  0
    2.2188   -6.8012   -4.9900 O   0  0  0  0  0  0  0  0  0  0  0  0
    0.0622   -6.9246   -5.6591 O   0  0  0  0  0  0  0  0  0  0  0  0
    0.3997   -7.7244   -6.0979 H   0  0  0  0  0  0  0  0  0  0  0  0
   -3.8584    2.0557   -0.9273 C   0  0  0  0  0  0  0  0  0  0  0  0
   -4.5743    1.3594   -1.6127 O   0  0  0  0  0  0  0  0  0  0  0  0
   -4.2569    3.1934   -0.3298 O   0  0  0  0  0  0  0  0  0  0  0  0
   -5.1930    3.3277   -0.5568 H   0  0  0  0  0  0  0  0  0  0  0  0
    2.6394    1.4578   -0.8548 C   0  0  0  0  0  0  0  0  0  0  0  0
    3.1024    1.2166   -1.9439 O   0  0  0  0  0  0  0  0  0  0  0  0
    2.8685    2.5823   -0.1629 O   0  0  0  0  0  0  0  0  0  0  0  0
    3.4630    3.1452   -0.6907 H   0  0  0  0  0  0  0  0  0  0  0  0
  1  2  2  0  0  0  0
  1  6  1  0  0  0  0
  2  3  1  0  0  0  0
  3 25  1  0  0  0  0
  3  4  2  0  0  0  0
  4  9  1  0  0  0  0
  5  4  1  0  0  0  0
  5  8  1  0  0  0  0
  6  5  2  0  0  0  0
  7  1  1  0  0  0  0
 10  2  1  0  0  0  0
 10 23  1  0  0  0  0
 11 10  1  0  0  0  0
 12 14  1  0  0  0  0
 12 11  1  0  0  0  0
 13 12  2  0  0  0  0
 14 18  1  0  0  0  0
 15 19  2  0  0  0  0
 15 13  1  0  0  0  0
 16 13  1  0  0  0  0
 17 14  2  0  0  0  0
 19 17  1  0  0  0  0
 20 15  1  0  0  0  0
 21 17  1  0  0  0  0
 22 24  2  0  0  0  0
 23 26  1  6  0  0  0
 23 25  1  0  0  0  0
 23 22  1  0  0  0  0
 24 27  1  0  0  0  0
 25 39  1  6  0  0  0
 25 28  1  0  0  0  0
 27 29  1  0  0  0  0
 28 30  1  0  0  0  0
 28 27  2  0  0  0  0
 31 32  2  0  0  0  0
 31 19  1  0  0  0  0
 33 31  1  0  0  0  0
 34 33  1  0  0  0  0
 35  6  1  0  0  0  0
 35 37  1  0  0  0  0
 36 35  2  0  0  0  0
 38 37  1  0  0  0  0
 39 41  1  0  0  0  0
 40 39  2  0  0  0  0
 42 41  1  0  0  0  0
M  RAD  3  11   2  22   2  24   2
M  END
