Coordinates from ORCA-job 1g-Schema5-R9-P1+-B3LYPG-6-31G_dp-scan-d49-09-n400
 OpenBabel08231810273D

 42 45  0  0  1  0  0  0  0  0999 V2000
   -1.8922    0.7094   -1.3513 C   0  0  0  0  0  0  0  0  0  0  0  0
   -0.5778    0.3763   -1.0415 C   0  0  0  0  0  0  0  0  0  0  0  0
    0.2243    1.1774   -0.2185 C   0  0  0  0  0  0  0  0  0  0  0  0
   -0.2751    2.3525    0.3216 C   0  0  0  0  0  0  0  0  0  0  0  0
   -1.5967    2.7034    0.0227 C   0  0  0  0  0  0  0  0  0  0  0  0
   -2.3965    1.8898   -0.7995 C   0  0  0  0  0  0  0  0  0  0  0  0
   -2.5151    0.0978   -1.9933 H   0  0  0  0  0  0  0  0  0  0  0  0
   -2.0172    3.6170    0.4262 H   0  0  0  0  0  0  0  0  0  0  0  0
    0.3403    2.9846    0.9522 H   0  0  0  0  0  0  0  0  0  0  0  0
    0.1171   -0.7719   -1.5448 N   0  0  0  0  0  0  0  0  0  0  0  0
   -0.5459   -1.6699   -2.1418 N   0  0  0  0  0  0  0  0  0  0  0  0
   -0.0117   -2.7545   -2.8023 C   0  0  0  0  0  0  0  0  0  0  0  0
   -0.9540   -3.7992   -2.9850 C   0  0  0  0  0  0  0  0  0  0  0  0
    1.2866   -2.8704   -3.3678 C   0  0  0  0  0  0  0  0  0  0  0  0
   -0.5878   -4.9661   -3.6343 C   0  0  0  0  0  0  0  0  0  0  0  0
   -1.9526   -3.6657   -2.5847 H   0  0  0  0  0  0  0  0  0  0  0  0
    1.6233   -4.0255   -4.0536 C   0  0  0  0  0  0  0  0  0  0  0  0
    1.9897   -2.0508   -3.3384 H   0  0  0  0  0  0  0  0  0  0  0  0
    0.7051   -5.0814   -4.1699 C   0  0  0  0  0  0  0  0  0  0  0  0
   -1.2946   -5.7787   -3.7514 H   0  0  0  0  0  0  0  0  0  0  0  0
    2.5987   -4.1355   -4.5139 H   0  0  0  0  0  0  0  0  0  0  0  0
    2.2379   -2.0309   -0.7666 C   0  0  0  0  0  0  0  0  0  0  0  0
    1.6007   -0.7001   -1.1943 C   0  0  2  0  0  0  0  0  0  0  0  0
    2.4579   -2.0609    0.4456 C   0  0  0  0  0  0  0  0  0  0  0  0
    1.6095    0.4625   -0.0615 C   0  0  2  0  0  0  0  0  0  0  0  0
    2.1040   -0.2687   -2.0670 H   0  0  0  0  0  0  0  0  0  0  0  0
    2.3340   -1.2913    1.6366 C   0  0  0  0  0  0  0  0  0  0  0  0
    1.8601   -0.0504    1.3579 C   0  0  0  0  0  0  0  0  0  0  0  0
    2.5342   -1.6385    2.6426 H   0  0  0  0  0  0  0  0  0  0  0  0
    1.6774    0.6507    2.1661 H   0  0  0  0  0  0  0  0  0  0  0  0
    1.1579   -6.3077   -4.9073 C   0  0  0  0  0  0  0  0  0  0  0  0
    2.2626   -6.4218   -5.3904 O   0  0  0  0  0  0  0  0  0  0  0  0
    0.2040   -7.2543   -4.9631 O   0  0  0  0  0  0  0  0  0  0  0  0
    0.5732   -8.0107   -5.4504 H   0  0  0  0  0  0  0  0  0  0  0  0
   -3.8140    2.2428   -1.1389 C   0  0  0  0  0  0  0  0  0  0  0  0
   -4.5208    1.5562   -1.8430 O   0  0  0  0  0  0  0  0  0  0  0  0
   -4.2039    3.4007   -0.5754 O   0  0  0  0  0  0  0  0  0  0  0  0
   -5.1253    3.5578   -0.8439 H   0  0  0  0  0  0  0  0  0  0  0  0
    2.7211    1.4690   -0.4533 C   0  0  0  0  0  0  0  0  0  0  0  0
    3.2858    1.4780   -1.5204 O   0  0  0  0  0  0  0  0  0  0  0  0
    2.9404    2.3534    0.5317 O   0  0  0  0  0  0  0  0  0  0  0  0
    3.6250    2.9763    0.2275 H   0  0  0  0  0  0  0  0  0  0  0  0
  1  2  2  0  0  0  0
  1  6  1  0  0  0  0
  2  3  1  0  0  0  0
  3 25  1  0  0  0  0
  3  4  2  0  0  0  0
  4  9  1  0  0  0  0
  5  4  1  0  0  0  0
  5  8  1  0  0  0  0
  6  5  2  0  0  0  0
  7  1  1  0  0  0  0
 10 23  1  0  0  0  0
 10  2  1  0  0  0  0
 11 10  1  0  0  0  0
 12 11  1  0  0  0  0
 13 12  1  0  0  0  0
 13 16  1  0  0  0  0
 14 18  1  0  0  0  0
 14 12  2  0  0  0  0
 15 13  2  0  0  0  0
 17 14  1  0  0  0  0
 19 17  2  0  0  0  0
 19 15  1  0  0  0  0
 20 15  1  0  0  0  0
 21 17  1  0  0  0  0
 22 24  2  0  0  0  0
 23 26  1  6  0  0  0
 23 22  1  0  0  0  0
 23 25  1  0  0  0  0
 24 27  1  0  0  0  0
 25 39  1  6  0  0  0
 25 28  1  0  0  0  0
 27 29  1  0  0  0  0
 28 27  2  0  0  0  0
 28 30  1  0  0  0  0
 31 19  1  0  0  0  0
 32 31  2  0  0  0  0
 33 31  1  0  0  0  0
 34 33  1  0  0  0  0
 35  6  1  0  0  0  0
 35 37  1  0  0  0  0
 36 35  2  0  0  0  0
 38 37  1  0  0  0  0
 39 41  1  0  0  0  0
 40 39  2  0  0  0  0
 42 41  1  0  0  0  0
M  RAD  3  11   2  22   2  24   2
M  END
