Coordinates from ORCA-job 1g-Schema5-R9-P1+-B3LYPG-6-31G_dp-scan-d49-09-n400
 OpenBabel08231810273D

 42 45  0  0  1  0  0  0  0  0999 V2000
   -1.9849    0.5937   -1.0771 C   0  0  0  0  0  0  0  0  0  0  0  0
   -0.6491    0.2456   -0.9427 C   0  0  0  0  0  0  0  0  0  0  0  0
    0.2530    0.9150   -0.1062 C   0  0  0  0  0  0  0  0  0  0  0  0
   -0.1973    2.0090    0.6217 C   0  0  0  0  0  0  0  0  0  0  0  0
   -1.5445    2.3770    0.5214 C   0  0  0  0  0  0  0  0  0  0  0  0
   -2.4280    1.6859   -0.3261 C   0  0  0  0  0  0  0  0  0  0  0  0
   -2.6724    0.0457   -1.7112 H   0  0  0  0  0  0  0  0  0  0  0  0
   -1.9190    3.2175    1.0946 H   0  0  0  0  0  0  0  0  0  0  0  0
    0.4788    2.5709    1.2567 H   0  0  0  0  0  0  0  0  0  0  0  0
    0.0056   -0.8687   -1.5164 N   0  0  0  0  0  0  0  0  0  0  0  0
   -0.4858   -1.5096   -2.4819 N   0  0  0  0  0  0  0  0  0  0  0  0
    0.0299   -2.6959   -2.9776 C   0  0  0  0  0  0  0  0  0  0  0  0
   -0.3340   -2.9410   -4.3218 C   0  0  0  0  0  0  0  0  0  0  0  0
    0.7621   -3.6693   -2.2519 C   0  0  0  0  0  0  0  0  0  0  0  0
    0.0997   -4.0929   -4.9618 C   0  0  0  0  0  0  0  0  0  0  0  0
   -0.9343   -2.2001   -4.8385 H   0  0  0  0  0  0  0  0  0  0  0  0
    1.1504   -4.8336   -2.8917 C   0  0  0  0  0  0  0  0  0  0  0  0
    0.9514   -3.5576   -1.1912 H   0  0  0  0  0  0  0  0  0  0  0  0
    0.8442   -5.0418   -4.2477 C   0  0  0  0  0  0  0  0  0  0  0  0
   -0.1524   -4.2741   -5.9994 H   0  0  0  0  0  0  0  0  0  0  0  0
    1.6885   -5.6107   -2.3595 H   0  0  0  0  0  0  0  0  0  0  0  0
    0.9486   -1.5366    0.6363 C   0  0  0  0  0  0  0  0  0  0  0  0
    1.2780   -1.0709   -0.7073 C   0  0  2  0  0  0  0  0  0  0  0  0
    1.6181   -1.3279    1.6482 C   0  0  0  0  0  0  0  0  0  0  0  0
    1.6813    0.4236   -0.3244 C   0  0  2  0  0  0  0  0  0  0  0  0
    2.0002   -1.6356   -1.2942 H   0  0  0  0  0  0  0  0  0  0  0  0
    2.4726   -0.2261    1.9796 C   0  0  0  0  0  0  0  0  0  0  0  0
    2.5514    0.6136    0.9177 C   0  0  0  0  0  0  0  0  0  0  0  0
    3.0674   -0.1227    2.8787 H   0  0  0  0  0  0  0  0  0  0  0  0
    3.2233    1.4660    0.9185 H   0  0  0  0  0  0  0  0  0  0  0  0
    1.3188   -6.3216   -4.8699 C   0  0  0  0  0  0  0  0  0  0  0  0
    1.9596   -7.1548   -4.2685 O   0  0  0  0  0  0  0  0  0  0  0  0
    0.9536   -6.4315   -6.1597 O   0  0  0  0  0  0  0  0  0  0  0  0
    1.2940   -7.2820   -6.4863 H   0  0  0  0  0  0  0  0  0  0  0  0
   -3.8724    2.0630   -0.4621 C   0  0  0  0  0  0  0  0  0  0  0  0
   -4.6469    1.4779   -1.1863 O   0  0  0  0  0  0  0  0  0  0  0  0
   -4.2017    3.1190    0.3034 O   0  0  0  0  0  0  0  0  0  0  0  0
   -5.1460    3.3001    0.1573 H   0  0  0  0  0  0  0  0  0  0  0  0
    2.2604    1.1085   -1.5781 C   0  0  0  0  0  0  0  0  0  0  0  0
    2.2390    0.5909   -2.6713 O   0  0  0  0  0  0  0  0  0  0  0  0
    2.7481    2.3257   -1.3137 O   0  0  0  0  0  0  0  0  0  0  0  0
    3.0799    2.7072   -2.1464 H   0  0  0  0  0  0  0  0  0  0  0  0
  1  2  2  0  0  0  0
  1  6  1  0  0  0  0
  2  3  1  0  0  0  0
  3  4  2  0  0  0  0
  4  9  1  0  0  0  0
  5  4  1  0  0  0  0
  5  8  1  0  0  0  0
  6  5  2  0  0  0  0
  7  1  1  0  0  0  0
 10  2  1  0  0  0  0
 10 23  1  0  0  0  0
 11 10  1  0  0  0  0
 12 11  1  0  0  0  0
 12 14  2  0  0  0  0
 13 12  1  0  0  0  0
 14 18  1  0  0  0  0
 15 13  2  0  0  0  0
 15 19  1  0  0  0  0
 16 13  1  0  0  0  0
 17 21  1  0  0  0  0
 17 14  1  0  0  0  0
 19 17  2  0  0  0  0
 20 15  1  0  0  0  0
 22 24  1  0  0  0  0
 23 26  1  6  0  0  0
 23 25  1  0  0  0  0
 23 22  1  0  0  0  0
 24 27  2  0  0  0  0
 25 39  1  6  0  0  0
 25  3  1  0  0  0  0
 25 28  1  0  0  0  0
 27 29  1  0  0  0  0
 28 30  1  0  0  0  0
 28 27  1  0  0  0  0
 31 32  2  0  0  0  0
 31 19  1  0  0  0  0
 33 31  1  0  0  0  0
 34 33  1  0  0  0  0
 35  6  1  0  0  0  0
 35 37  1  0  0  0  0
 36 35  2  0  0  0  0
 38 37  1  0  0  0  0
 39 41  1  0  0  0  0
 40 39  2  0  0  0  0
 42 41  1  0  0  0  0
M  RAD  4  11   2  22   3  24   2  28   2
M  END
