Coordinates from ORCA-job 1g-Schema5-R9-P1+-B3LYPG-6-31G_dp-scan-d49-09-n400
 OpenBabel08231810273D

 42 45  0  0  1  0  0  0  0  0999 V2000
   -1.9028    0.6921   -1.3365 C   0  0  0  0  0  0  0  0  0  0  0  0
   -0.5827    0.3557   -1.0531 C   0  0  0  0  0  0  0  0  0  0  0  0
    0.2383    1.1307   -0.2277 C   0  0  0  0  0  0  0  0  0  0  0  0
   -0.2633    2.2960    0.3407 C   0  0  0  0  0  0  0  0  0  0  0  0
   -1.5882    2.6535    0.0730 C   0  0  0  0  0  0  0  0  0  0  0  0
   -2.4020    1.8577   -0.7539 C   0  0  0  0  0  0  0  0  0  0  0  0
   -2.5316    0.0896   -1.9812 H   0  0  0  0  0  0  0  0  0  0  0  0
   -2.0015    3.5581    0.5033 H   0  0  0  0  0  0  0  0  0  0  0  0
    0.3603    2.9200    0.9712 H   0  0  0  0  0  0  0  0  0  0  0  0
    0.1092   -0.7729   -1.5738 N   0  0  0  0  0  0  0  0  0  0  0  0
   -0.5313   -1.6507   -2.2204 N   0  0  0  0  0  0  0  0  0  0  0  0
    0.0104   -2.7467   -2.8575 C   0  0  0  0  0  0  0  0  0  0  0  0
   -0.9719   -3.7242   -3.1620 C   0  0  0  0  0  0  0  0  0  0  0  0
    1.3527   -2.9469   -3.2796 C   0  0  0  0  0  0  0  0  0  0  0  0
   -0.6184   -4.9026   -3.7986 C   0  0  0  0  0  0  0  0  0  0  0  0
   -1.9964   -3.5290   -2.8655 H   0  0  0  0  0  0  0  0  0  0  0  0
    1.6834   -4.1132   -3.9481 C   0  0  0  0  0  0  0  0  0  0  0  0
    2.1099   -2.1884   -3.1480 H   0  0  0  0  0  0  0  0  0  0  0  0
    0.7138   -5.0999   -4.1922 C   0  0  0  0  0  0  0  0  0  0  0  0
   -1.3624   -5.6611   -4.0103 H   0  0  0  0  0  0  0  0  0  0  0  0
    2.6950   -4.2864   -4.2978 H   0  0  0  0  0  0  0  0  0  0  0  0
    2.0720   -1.9907   -0.5760 C   0  0  0  0  0  0  0  0  0  0  0  0
    1.5783   -0.7211   -1.1646 C   0  0  2  0  0  0  0  0  0  0  0  0
    2.3655   -2.0566    0.6117 C   0  0  0  0  0  0  0  0  0  0  0  0
    1.6220    0.4723   -0.0841 C   0  0  2  0  0  0  0  0  0  0  0  0
    2.1347   -0.3737   -2.0426 H   0  0  0  0  0  0  0  0  0  0  0  0
    2.3125   -1.1824    1.7414 C   0  0  0  0  0  0  0  0  0  0  0  0
    1.9084    0.0549    1.3634 C   0  0  0  0  0  0  0  0  0  0  0  0
    2.5396   -1.4457    2.7668 H   0  0  0  0  0  0  0  0  0  0  0  0
    1.8074    0.8401    2.1062 H   0  0  0  0  0  0  0  0  0  0  0  0
    1.1623   -6.3432   -4.9035 C   0  0  0  0  0  0  0  0  0  0  0  0
    2.3055   -6.5287   -5.2575 O   0  0  0  0  0  0  0  0  0  0  0  0
    0.1570   -7.2157   -5.0948 O   0  0  0  0  0  0  0  0  0  0  0  0
    0.5263   -7.9888   -5.5551 H   0  0  0  0  0  0  0  0  0  0  0  0
   -3.8254    2.2144   -1.0624 C   0  0  0  0  0  0  0  0  0  0  0  0
   -4.5422    1.5413   -1.7694 O   0  0  0  0  0  0  0  0  0  0  0  0
   -4.2078    3.3593   -0.4682 O   0  0  0  0  0  0  0  0  0  0  0  0
   -5.1339    3.5203   -0.7177 H   0  0  0  0  0  0  0  0  0  0  0  0
    2.7047    1.4782   -0.5586 C   0  0  0  0  0  0  0  0  0  0  0  0
    3.2405    1.4373   -1.6399 O   0  0  0  0  0  0  0  0  0  0  0  0
    2.9379    2.4160    0.3709 O   0  0  0  0  0  0  0  0  0  0  0  0
    3.6039    3.0318    0.0151 H   0  0  0  0  0  0  0  0  0  0  0  0
  1  2  2  0  0  0  0
  1  6  1  0  0  0  0
  2  3  1  0  0  0  0
  3 25  1  0  0  0  0
  3  4  2  0  0  0  0
  4  9  1  0  0  0  0
  5  4  1  0  0  0  0
  5  8  1  0  0  0  0
  6  5  2  0  0  0  0
  7  1  1  0  0  0  0
 10 23  1  0  0  0  0
 10  2  1  0  0  0  0
 11 10  1  0  0  0  0
 12 11  1  0  0  0  0
 13 16  1  0  0  0  0
 13 12  1  0  0  0  0
 14 18  1  0  0  0  0
 14 12  2  0  0  0  0
 15 13  2  0  0  0  0
 17 14  1  0  0  0  0
 19 17  2  0  0  0  0
 19 15  1  0  0  0  0
 20 15  1  0  0  0  0
 21 17  1  0  0  0  0
 22 24  2  0  0  0  0
 23 26  1  6  0  0  0
 23 22  1  0  0  0  0
 23 25  1  0  0  0  0
 24 27  1  0  0  0  0
 25 39  1  6  0  0  0
 25 28  1  0  0  0  0
 27 29  1  0  0  0  0
 28 27  2  0  0  0  0
 28 30  1  0  0  0  0
 31 19  1  0  0  0  0
 32 31  2  0  0  0  0
 33 31  1  0  0  0  0
 34 33  1  0  0  0  0
 35  6  1  0  0  0  0
 35 37  1  0  0  0  0
 36 35  2  0  0  0  0
 38 37  1  0  0  0  0
 39 41  1  0  0  0  0
 40 39  2  0  0  0  0
 42 41  1  0  0  0  0
M  RAD  3  11   2  22   2  24   2
M  END
