Coordinates from ORCA-job 1g-Schema5-R9-P1+-B3LYPG-6-31G_dp-scan-d49-09-n400
 OpenBabel08231810273D

 42 45  0  0  1  0  0  0  0  0999 V2000
   -1.9261    0.5369   -1.1607 C   0  0  0  0  0  0  0  0  0  0  0  0
   -0.5849    0.2468   -0.9291 C   0  0  0  0  0  0  0  0  0  0  0  0
    0.2577    1.0720   -0.1803 C   0  0  0  0  0  0  0  0  0  0  0  0
   -0.2511    2.2495    0.3606 C   0  0  0  0  0  0  0  0  0  0  0  0
   -1.5964    2.5615    0.1488 C   0  0  0  0  0  0  0  0  0  0  0  0
   -2.4287    1.7126   -0.6046 C   0  0  0  0  0  0  0  0  0  0  0  0
   -2.5684   -0.1142   -1.7412 H   0  0  0  0  0  0  0  0  0  0  0  0
   -2.0125    3.4710    0.5659 H   0  0  0  0  0  0  0  0  0  0  0  0
    0.3827    2.9215    0.9275 H   0  0  0  0  0  0  0  0  0  0  0  0
    0.1132   -0.8852   -1.4202 N   0  0  0  0  0  0  0  0  0  0  0  0
   -0.4612   -1.6734   -2.2233 N   0  0  0  0  0  0  0  0  0  0  0  0
    0.0581   -2.8012   -2.8208 C   0  0  0  0  0  0  0  0  0  0  0  0
   -0.8667   -3.3547   -3.7474 C   0  0  0  0  0  0  0  0  0  0  0  0
    1.3198   -3.4336   -2.6377 C   0  0  0  0  0  0  0  0  0  0  0  0
   -0.5476   -4.4837   -4.4832 C   0  0  0  0  0  0  0  0  0  0  0  0
   -1.8246   -2.8604   -3.8635 H   0  0  0  0  0  0  0  0  0  0  0  0
    1.6198   -4.5665   -3.3724 C   0  0  0  0  0  0  0  0  0  0  0  0
    2.0411   -3.0818   -1.9160 H   0  0  0  0  0  0  0  0  0  0  0  0
    0.7011   -5.0926   -4.2971 C   0  0  0  0  0  0  0  0  0  0  0  0
   -1.2531   -4.8985   -5.1931 H   0  0  0  0  0  0  0  0  0  0  0  0
    2.5704   -5.0733   -3.2480 H   0  0  0  0  0  0  0  0  0  0  0  0
    1.7157   -1.9785    0.1409 C   0  0  0  0  0  0  0  0  0  0  0  0
    1.5249   -0.9133   -0.8526 C   0  0  2  0  0  0  0  0  0  0  0  0
    2.1744   -1.7951    1.2608 C   0  0  0  0  0  0  0  0  0  0  0  0
    1.6772    0.5065   -0.1126 C   0  0  2  0  0  0  0  0  0  0  0  0
    2.1984   -0.9528   -1.7147 H   0  0  0  0  0  0  0  0  0  0  0  0
    2.4444   -0.6332    2.0521 C   0  0  0  0  0  0  0  0  0  0  0  0
    2.1971    0.4857    1.3314 C   0  0  0  0  0  0  0  0  0  0  0  0
    2.8259   -0.6183    3.0649 H   0  0  0  0  0  0  0  0  0  0  0  0
    2.3831    1.4615    1.7685 H   0  0  0  0  0  0  0  0  0  0  0  0
    1.1157   -6.3210   -5.0543 C   0  0  0  0  0  0  0  0  0  0  0  0
    2.1882   -6.8621   -4.9025 O   0  0  0  0  0  0  0  0  0  0  0  0
    0.1667   -6.7409   -5.9087 O   0  0  0  0  0  0  0  0  0  0  0  0
    0.5074   -7.5349   -6.3555 H   0  0  0  0  0  0  0  0  0  0  0  0
   -3.8756    2.0176   -0.8518 C   0  0  0  0  0  0  0  0  0  0  0  0
   -4.6060    1.3011   -1.5000 O   0  0  0  0  0  0  0  0  0  0  0  0
   -4.2622    3.1709   -0.2770 O   0  0  0  0  0  0  0  0  0  0  0  0
   -5.2038    3.2974   -0.4853 H   0  0  0  0  0  0  0  0  0  0  0  0
    2.5951    1.3915   -0.9977 C   0  0  0  0  0  0  0  0  0  0  0  0
    2.9901    1.0693   -2.0927 O   0  0  0  0  0  0  0  0  0  0  0  0
    2.8654    2.5628   -0.4054 O   0  0  0  0  0  0  0  0  0  0  0  0
    3.4248    3.0838   -1.0091 H   0  0  0  0  0  0  0  0  0  0  0  0
  1  2  2  0  0  0  0
  1  6  1  0  0  0  0
  2  3  1  0  0  0  0
  3 25  1  0  0  0  0
  3  4  2  0  0  0  0
  4  9  1  0  0  0  0
  5  4  1  0  0  0  0
  5  8  1  0  0  0  0
  6  5  2  0  0  0  0
  7  1  1  0  0  0  0
 10  2  1  0  0  0  0
 10 23  1  0  0  0  0
 11 10  1  0  0  0  0
 12 14  1  0  0  0  0
 12 11  1  0  0  0  0
 13 12  2  0  0  0  0
 14 18  1  0  0  0  0
 15 19  2  0  0  0  0
 15 13  1  0  0  0  0
 16 13  1  0  0  0  0
 17 21  1  0  0  0  0
 17 14  2  0  0  0  0
 19 17  1  0  0  0  0
 20 15  1  0  0  0  0
 22 24  2  0  0  0  0
 23 26  1  6  0  0  0
 23 25  1  0  0  0  0
 23 22  1  0  0  0  0
 24 27  1  0  0  0  0
 25 39  1  6  0  0  0
 25 28  1  0  0  0  0
 27 29  1  0  0  0  0
 28 30  1  0  0  0  0
 28 27  2  0  0  0  0
 31 32  2  0  0  0  0
 31 19  1  0  0  0  0
 33 31  1  0  0  0  0
 34 33  1  0  0  0  0
 35  6  1  0  0  0  0
 35 37  1  0  0  0  0
 36 35  2  0  0  0  0
 38 37  1  0  0  0  0
 39 41  1  0  0  0  0
 40 39  2  0  0  0  0
 42 41  1  0  0  0  0
M  RAD  3  11   2  22   2  24   2
M  END
