Coordinates from ORCA-job 1g-Schema5-R9-P1+-B3LYPG-6-31G_dp-scan-d49-09-n400
 OpenBabel08231810273D

 42 45  0  0  1  0  0  0  0  0999 V2000
   -2.0006    0.8434   -1.1412 C   0  0  0  0  0  0  0  0  0  0  0  0
   -0.9010    0.2456   -0.5432 C   0  0  0  0  0  0  0  0  0  0  0  0
   -0.5282    0.4837    0.7906 C   0  0  0  0  0  0  0  0  0  0  0  0
   -1.2913    1.3517    1.5756 C   0  0  0  0  0  0  0  0  0  0  0  0
   -2.3986    1.9663    0.9940 C   0  0  0  0  0  0  0  0  0  0  0  0
   -2.7496    1.7189   -0.3499 C   0  0  0  0  0  0  0  0  0  0  0  0
   -2.2818    0.6592   -2.1708 H   0  0  0  0  0  0  0  0  0  0  0  0
   -3.0085    2.6475    1.5760 H   0  0  0  0  0  0  0  0  0  0  0  0
   -1.0311    1.5329    2.6126 H   0  0  0  0  0  0  0  0  0  0  0  0
   -0.0249   -0.7134   -1.1356 N   0  0  0  0  0  0  0  0  0  0  0  0
   -0.4281   -1.3416   -2.1582 N   0  0  0  0  0  0  0  0  0  0  0  0
    0.1548   -2.4055   -2.8007 C   0  0  0  0  0  0  0  0  0  0  0  0
   -0.7213   -2.9423   -3.7822 C   0  0  0  0  0  0  0  0  0  0  0  0
    1.4220   -3.0196   -2.5955 C   0  0  0  0  0  0  0  0  0  0  0  0
   -0.3755   -4.0731   -4.5049 C   0  0  0  0  0  0  0  0  0  0  0  0
   -1.6742   -2.4481   -3.9337 H   0  0  0  0  0  0  0  0  0  0  0  0
    1.7538   -4.1467   -3.3212 C   0  0  0  0  0  0  0  0  0  0  0  0
    2.1560   -2.6044   -1.9236 H   0  0  0  0  0  0  0  0  0  0  0  0
    0.8631   -4.6827   -4.2698 C   0  0  0  0  0  0  0  0  0  0  0  0
   -1.0508   -4.4836   -5.2461 H   0  0  0  0  0  0  0  0  0  0  0  0
    2.7133   -4.6338   -3.1874 H   0  0  0  0  0  0  0  0  0  0  0  0
    0.6874   -0.2957    1.0734 C   0  0  1  0  0  0  0  0  0  0  0  0
    1.1617   -0.9165   -0.2291 C   0  0  2  0  0  0  0  0  0  0  0  0
    1.6449   -0.2004    1.9917 C   0  0  0  0  0  0  0  0  0  0  0  0
    2.4682   -0.1060   -0.5866 C   0  0  0  0  0  0  0  0  0  0  0  0
    1.3780   -1.9869   -0.1959 H   0  0  0  0  0  0  0  0  0  0  0  0
    2.9566   -0.0781    1.8264 C   0  0  0  0  0  0  0  0  0  0  0  0
    3.2899    0.2808    0.4226 C   0  0  0  0  0  0  0  0  0  0  0  0
    3.7398   -0.3294    2.5348 H   0  0  0  0  0  0  0  0  0  0  0  0
    4.2375    0.7521    0.1822 H   0  0  0  0  0  0  0  0  0  0  0  0
    1.3091   -5.9083   -5.0129 C   0  0  0  0  0  0  0  0  0  0  0  0
    2.3772   -6.4464   -4.8220 O   0  0  0  0  0  0  0  0  0  0  0  0
    0.3932   -6.3318   -5.9006 O   0  0  0  0  0  0  0  0  0  0  0  0
    0.7532   -7.1235   -6.3360 H   0  0  0  0  0  0  0  0  0  0  0  0
   -3.9336    2.3686   -0.9990 C   0  0  0  0  0  0  0  0  0  0  0  0
   -4.2593    2.1639   -2.1480 O   0  0  0  0  0  0  0  0  0  0  0  0
   -4.5885    3.1967   -0.1648 O   0  0  0  0  0  0  0  0  0  0  0  0
   -5.3376    3.5716   -0.6587 H   0  0  0  0  0  0  0  0  0  0  0  0
    2.8025    0.1681   -2.0033 C   0  0  0  0  0  0  0  0  0  0  0  0
    2.1199   -0.1938   -2.9455 O   0  0  0  0  0  0  0  0  0  0  0  0
    3.9327    0.8816   -2.1488 O   0  0  0  0  0  0  0  0  0  0  0  0
    4.0591    1.0302   -3.1014 H   0  0  0  0  0  0  0  0  0  0  0  0
  1  2  2  0  0  0  0
  1  6  1  0  0  0  0
  2  3  1  0  0  0  0
  3  4  2  0  0  0  0
  4  9  1  0  0  0  0
  5  4  1  0  0  0  0
  5  8  1  0  0  0  0
  6  5  2  0  0  0  0
  7  1  1  0  0  0  0
 10  2  1  0  0  0  0
 10 23  1  0  0  0  0
 11 10  1  0  0  0  0
 12 14  1  0  0  0  0
 12 11  1  0  0  0  0
 13 12  2  0  0  0  0
 14 18  1  0  0  0  0
 15 19  2  0  0  0  0
 15 13  1  0  0  0  0
 16 13  1  0  0  0  0
 17 21  1  0  0  0  0
 17 14  2  0  0  0  0
 19 17  1  0  0  0  0
 20 15  1  0  0  0  0
 22  3  1  6  0  0  0
 22 24  1  0  0  0  0
 23 26  1  1  0  0  0
 23 22  1  0  0  0  0
 25 23  1  0  0  0  0
 25 28  2  0  0  0  0
 27 24  1  0  0  0  0
 27 29  1  0  0  0  0
 28 27  1  0  0  0  0
 30 28  1  0  0  0  0
 31 32  2  0  0  0  0
 31 19  1  0  0  0  0
 33 31  1  0  0  0  0
 34 33  1  0  0  0  0
 35  6  1  0  0  0  0
 35 37  1  0  0  0  0
 36 35  2  0  0  0  0
 38 37  1  0  0  0  0
 39 25  1  0  0  0  0
 40 39  2  0  0  0  0
 41 39  1  0  0  0  0
 42 41  1  0  0  0  0
M  RAD  4  11   2  22   2  24   3  27   2
M  END
