Coordinates from ORCA-job 1g-Schema5-R9-P1+-B3LYPG-6-31G_dp-scan-d49-09-n400
 OpenBabel08231810273D

 42 45  0  0  1  0  0  0  0  0999 V2000
   -2.0411    0.8395   -1.1214 C   0  0  0  0  0  0  0  0  0  0  0  0
   -0.9146    0.2407   -0.5889 C   0  0  0  0  0  0  0  0  0  0  0  0
   -0.3987    0.4677    0.7405 C   0  0  0  0  0  0  0  0  0  0  0  0
   -1.1925    1.3447    1.5581 C   0  0  0  0  0  0  0  0  0  0  0  0
   -2.3165    1.9523    1.0419 C   0  0  0  0  0  0  0  0  0  0  0  0
   -2.7436    1.7141   -0.2911 C   0  0  0  0  0  0  0  0  0  0  0  0
   -2.3791    0.6510   -2.1332 H   0  0  0  0  0  0  0  0  0  0  0  0
   -2.9028    2.6212    1.6613 H   0  0  0  0  0  0  0  0  0  0  0  0
   -0.9015    1.4965    2.5923 H   0  0  0  0  0  0  0  0  0  0  0  0
   -0.0623   -0.7047   -1.1960 N   0  0  0  0  0  0  0  0  0  0  0  0
   -0.4467   -1.3189   -2.2413 N   0  0  0  0  0  0  0  0  0  0  0  0
    0.1449   -2.3944   -2.8493 C   0  0  0  0  0  0  0  0  0  0  0  0
   -0.6600   -2.8908   -3.9102 C   0  0  0  0  0  0  0  0  0  0  0  0
    1.3621   -3.0616   -2.5354 C   0  0  0  0  0  0  0  0  0  0  0  0
   -0.2915   -4.0267   -4.6126 C   0  0  0  0  0  0  0  0  0  0  0  0
   -1.5771   -2.3602   -4.1398 H   0  0  0  0  0  0  0  0  0  0  0  0
    1.7135   -4.1975   -3.2366 C   0  0  0  0  0  0  0  0  0  0  0  0
    2.0417   -2.6870   -1.7856 H   0  0  0  0  0  0  0  0  0  0  0  0
    0.8955   -4.6880   -4.2720 C   0  0  0  0  0  0  0  0  0  0  0  0
   -0.9107   -4.4045   -5.4172 H   0  0  0  0  0  0  0  0  0  0  0  0
    2.6347   -4.7263   -3.0175 H   0  0  0  0  0  0  0  0  0  0  0  0
    0.5494   -0.0714    0.9501 C   0  0  1  0  0  0  0  0  0  0  0  0
    1.1038   -0.8623   -0.2576 C   0  0  2  0  0  0  0  0  0  0  0  0
    1.5158    0.0024    1.9325 C   0  0  0  0  0  0  0  0  0  0  0  0
    2.4366   -0.1410   -0.6394 C   0  0  0  0  0  0  0  0  0  0  0  0
    1.2693   -1.9265   -0.0690 H   0  0  0  0  0  0  0  0  0  0  0  0
    2.8305    0.0496    1.7800 C   0  0  0  0  0  0  0  0  0  0  0  0
    3.2363    0.2830    0.3707 C   0  0  0  0  0  0  0  0  0  0  0  0
    3.5789   -0.1464    2.5428 H   0  0  0  0  0  0  0  0  0  0  0  0
    4.2012    0.7235    0.1399 H   0  0  0  0  0  0  0  0  0  0  0  0
    1.3602   -5.9228   -4.9861 C   0  0  0  0  0  0  0  0  0  0  0  0
    2.3844   -6.5053   -4.7057 O   0  0  0  0  0  0  0  0  0  0  0  0
    0.5142   -6.3017   -5.9598 O   0  0  0  0  0  0  0  0  0  0  0  0
    0.8823   -7.1032   -6.3698 H   0  0  0  0  0  0  0  0  0  0  0  0
   -3.9627    2.3624   -0.8681 C   0  0  0  0  0  0  0  0  0  0  0  0
   -4.3480    2.1663   -2.0004 O   0  0  0  0  0  0  0  0  0  0  0  0
   -4.5740    3.1801    0.0083 O   0  0  0  0  0  0  0  0  0  0  0  0
   -5.3497    3.5581   -0.4401 H   0  0  0  0  0  0  0  0  0  0  0  0
    2.8169    0.0578   -2.0576 C   0  0  0  0  0  0  0  0  0  0  0  0
    2.1230   -0.2701   -3.0031 O   0  0  0  0  0  0  0  0  0  0  0  0
    4.0075    0.6670   -2.1987 O   0  0  0  0  0  0  0  0  0  0  0  0
    4.1596    0.7844   -3.1519 H   0  0  0  0  0  0  0  0  0  0  0  0
  1  2  2  0  0  0  0
  1  6  1  0  0  0  0
  2  3  1  0  0  0  0
  3  4  2  0  0  0  0
  4  9  1  0  0  0  0
  5  4  1  0  0  0  0
  5  8  1  0  0  0  0
  6  5  2  0  0  0  0
  7  1  1  0  0  0  0
 10  2  1  0  0  0  0
 10 23  1  0  0  0  0
 11 10  1  0  0  0  0
 12 14  1  0  0  0  0
 12 11  1  0  0  0  0
 13 12  2  0  0  0  0
 14 18  1  0  0  0  0
 15 19  2  0  0  0  0
 15 13  1  0  0  0  0
 16 13  1  0  0  0  0
 17 21  1  0  0  0  0
 17 14  2  0  0  0  0
 19 17  1  0  0  0  0
 20 15  1  0  0  0  0
 22  3  1  6  0  0  0
 22 24  1  0  0  0  0
 23 26  1  1  0  0  0
 23 22  1  0  0  0  0
 25 23  1  0  0  0  0
 25 28  2  0  0  0  0
 27 24  2  0  0  0  0
 27 29  1  0  0  0  0
 28 27  1  0  0  0  0
 30 28  1  0  0  0  0
 31 32  2  0  0  0  0
 31 19  1  0  0  0  0
 33 31  1  0  0  0  0
 34 33  1  0  0  0  0
 35  6  1  0  0  0  0
 35 37  1  0  0  0  0
 36 35  2  0  0  0  0
 38 37  1  0  0  0  0
 39 25  1  0  0  0  0
 40 39  2  0  0  0  0
 41 39  1  0  0  0  0
 42 41  1  0  0  0  0
M  RAD  3  11   2  22   2  24   2
M  END
