Coordinates from ORCA-job 1g-Schema5-R9-P1+-B3LYPG-6-31G_dp-scan-d49-09-n400
 OpenBabel08231810273D

 42 43  0  0  0  0  0  0  0  0999 V2000
   -2.9683    0.4244   -1.2202 C   0  0  0  0  0  0  0  0  0  0  0  0
   -1.6058    0.1764   -0.8342 C   0  0  0  0  0  0  0  0  0  0  0  0
   -1.4531    1.0281    0.1769 C   0  0  0  0  0  0  0  0  0  0  0  0
   -2.0697    1.9664    0.9145 C   0  0  0  0  0  0  0  0  0  0  0  0
   -3.3972    2.1292    0.4543 C   0  0  0  0  0  0  0  0  0  0  0  0
   -3.8282    1.3396   -0.6267 C   0  0  0  0  0  0  0  0  0  0  0  0
   -3.2628   -0.2093   -2.0665 H   0  0  0  0  0  0  0  0  0  0  0  0
   -4.0478    2.8502    0.9377 H   0  0  0  0  0  0  0  0  0  0  0  0
   -1.6342    2.5217    1.7379 H   0  0  0  0  0  0  0  0  0  0  0  0
   -0.7728   -0.7698   -1.4742 N   0  0  0  0  0  0  0  0  0  0  0  0
   -1.3101   -1.3703   -2.4324 N   0  0  0  0  0  0  0  0  0  0  0  0
   -0.5699   -2.3175   -3.1304 C   0  0  0  0  0  0  0  0  0  0  0  0
   -1.2510   -2.9290   -4.2041 C   0  0  0  0  0  0  0  0  0  0  0  0
    0.7666   -2.6627   -2.8244 C   0  0  0  0  0  0  0  0  0  0  0  0
   -0.6007   -3.8823   -4.9756 C   0  0  0  0  0  0  0  0  0  0  0  0
   -2.2756   -2.6383   -4.4089 H   0  0  0  0  0  0  0  0  0  0  0  0
    1.4027   -3.6119   -3.6025 C   0  0  0  0  0  0  0  0  0  0  0  0
    1.2940   -2.2007   -1.9984 H   0  0  0  0  0  0  0  0  0  0  0  0
    0.7269   -4.2231   -4.6758 C   0  0  0  0  0  0  0  0  0  0  0  0
   -1.1065   -4.3612   -5.8049 H   0  0  0  0  0  0  0  0  0  0  0  0
    2.4276   -3.8957   -3.3938 H   0  0  0  0  0  0  0  0  0  0  0  0
    2.2370    0.9113    1.4872 C   0  0  0  0  0  0  0  0  0  0  0  0
    2.4647   -0.1453    0.6164 C   0  0  0  0  0  0  0  0  0  0  0  0
    3.1650    1.5505    2.0363 C   0  0  0  0  0  0  0  0  0  0  0  0
    3.8477   -0.3981    0.4278 C   0  0  0  0  0  0  0  0  0  0  0  0
    1.7227   -0.7458    0.1047 H   0  0  0  0  0  0  0  0  0  0  0  0
    4.5345    1.4258    1.9549 C   0  0  0  0  0  0  0  0  0  0  0  0
    4.8446    0.3621    1.0793 C   0  0  0  0  0  0  0  0  0  0  0  0
    5.2912    2.0109    2.4625 H   0  0  0  0  0  0  0  0  0  0  0  0
    5.8872    0.1175    0.9056 H   0  0  0  0  0  0  0  0  0  0  0  0
    1.4834   -5.2421   -5.4749 C   0  0  0  0  0  0  0  0  0  0  0  0
    2.6348   -5.5466   -5.2524 O   0  0  0  0  0  0  0  0  0  0  0  0
    0.7416   -5.7782   -6.4630 O   0  0  0  0  0  0  0  0  0  0  0  0
    1.3039   -6.4224   -6.9261 H   0  0  0  0  0  0  0  0  0  0  0  0
   -5.2148    1.4322   -1.1999 C   0  0  0  0  0  0  0  0  0  0  0  0
   -5.5900    0.7559   -2.1291 O   0  0  0  0  0  0  0  0  0  0  0  0
   -5.9608    2.3436   -0.5565 O   0  0  0  0  0  0  0  0  0  0  0  0
   -6.8402    2.3581   -0.9729 H   0  0  0  0  0  0  0  0  0  0  0  0
    4.2028   -1.5126   -0.4959 C   0  0  0  0  0  0  0  0  0  0  0  0
    3.3894   -2.1667   -1.1270 O   0  0  0  0  0  0  0  0  0  0  0  0
    5.5268   -1.7409   -0.5734 O   0  0  0  0  0  0  0  0  0  0  0  0
    5.6540   -2.4826   -1.1889 H   0  0  0  0  0  0  0  0  0  0  0  0
  1  2  2  0  0  0  0
  1  6  1  0  0  0  0
  2  3  1  0  0  0  0
  3  4  2  0  0  0  0
  4  9  1  0  0  0  0
  5  4  1  0  0  0  0
  5  8  1  0  0  0  0
  6  5  2  0  0  0  0
  7  1  1  0  0  0  0
 10  2  1  0  0  0  0
 11 10  1  0  0  0  0
 12 14  1  0  0  0  0
 12 11  1  0  0  0  0
 13 12  2  0  0  0  0
 14 18  1  0  0  0  0
 15 19  2  0  0  0  0
 15 13  1  0  0  0  0
 16 13  1  0  0  0  0
 17 21  1  0  0  0  0
 17 14  2  0  0  0  0
 19 17  1  0  0  0  0
 20 15  1  0  0  0  0
 22 24  2  0  0  0  0
 23 22  1  0  0  0  0
 25 23  2  0  0  0  0
 25 28  1  0  0  0  0
 26 23  1  0  0  0  0
 27 24  1  0  0  0  0
 27 29  1  0  0  0  0
 28 27  2  0  0  0  0
 30 28  1  0  0  0  0
 31 32  2  0  0  0  0
 31 19  1  0  0  0  0
 33 31  1  0  0  0  0
 34 33  1  0  0  0  0
 35  6  1  0  0  0  0
 35 37  1  0  0  0  0
 36 35  2  0  0  0  0
 38 37  1  0  0  0  0
 39 25  1  0  0  0  0
 40 39  2  0  0  0  0
 41 39  1  0  0  0  0
 42 41  1  0  0  0  0
M  RAD  5   3   2  10   2  11   2  22   2  24   2
M  END
