Coordinates from ORCA-job 1g-Schema5-R9-P1+-B3LYPG-6-31G_dp-scan-d49-09-n400
 OpenBabel08231810273D

 42 45  0  0  1  0  0  0  0  0999 V2000
   -1.9830    0.6244   -1.0847 C   0  0  0  0  0  0  0  0  0  0  0  0
   -0.6602    0.2384   -0.9480 C   0  0  0  0  0  0  0  0  0  0  0  0
    0.2452    0.8175   -0.0377 C   0  0  0  0  0  0  0  0  0  0  0  0
   -0.1917    1.8970    0.7237 C   0  0  0  0  0  0  0  0  0  0  0  0
   -1.5290    2.2975    0.6251 C   0  0  0  0  0  0  0  0  0  0  0  0
   -2.4151    1.6812   -0.2767 C   0  0  0  0  0  0  0  0  0  0  0  0
   -2.6712    0.1321   -1.7625 H   0  0  0  0  0  0  0  0  0  0  0  0
   -1.8917    3.1177    1.2346 H   0  0  0  0  0  0  0  0  0  0  0  0
    0.4891    2.4166    1.3893 H   0  0  0  0  0  0  0  0  0  0  0  0
   -0.0209   -0.8803   -1.5280 N   0  0  0  0  0  0  0  0  0  0  0  0
   -0.4782   -1.4882   -2.5298 N   0  0  0  0  0  0  0  0  0  0  0  0
    0.0323   -2.6841   -3.0096 C   0  0  0  0  0  0  0  0  0  0  0  0
   -0.2053   -2.8864   -4.3875 C   0  0  0  0  0  0  0  0  0  0  0  0
    0.6425   -3.7024   -2.2361 C   0  0  0  0  0  0  0  0  0  0  0  0
    0.2461   -4.0435   -5.0069 C   0  0  0  0  0  0  0  0  0  0  0  0
   -0.7183   -2.1106   -4.9450 H   0  0  0  0  0  0  0  0  0  0  0  0
    1.0476   -4.8699   -2.8595 C   0  0  0  0  0  0  0  0  0  0  0  0
    0.7170   -3.6197   -1.1579 H   0  0  0  0  0  0  0  0  0  0  0  0
    0.8753   -5.0370   -4.2446 C   0  0  0  0  0  0  0  0  0  0  0  0
    0.0942   -4.1936   -6.0690 H   0  0  0  0  0  0  0  0  0  0  0  0
    1.4926   -5.6813   -2.2937 H   0  0  0  0  0  0  0  0  0  0  0  0
    0.7560   -1.2344    0.7412 C   0  0  0  0  0  0  0  0  0  0  0  0
    1.2068   -1.1019   -0.6485 C   0  0  2  0  0  0  0  0  0  0  0  0
    1.5070   -1.1210    1.7284 C   0  0  0  0  0  0  0  0  0  0  0  0
    1.6912    0.3900   -0.3744 C   0  0  2  0  0  0  0  0  0  0  0  0
    1.8963   -1.8176   -1.0863 H   0  0  0  0  0  0  0  0  0  0  0  0
    2.5014   -0.1161    1.9345 C   0  0  0  0  0  0  0  0  0  0  0  0
    2.6478    0.6023    0.7884 C   0  0  0  0  0  0  0  0  0  0  0  0
    3.1392   -0.0110    2.8040 H   0  0  0  0  0  0  0  0  0  0  0  0
    3.4219    1.3540    0.6717 H   0  0  0  0  0  0  0  0  0  0  0  0
    1.3594   -6.3230   -4.8461 C   0  0  0  0  0  0  0  0  0  0  0  0
    1.9028   -7.1936   -4.2029 O   0  0  0  0  0  0  0  0  0  0  0  0
    1.1230   -6.3925   -6.1682 O   0  0  0  0  0  0  0  0  0  0  0  0
    1.4615   -7.2498   -6.4789 H   0  0  0  0  0  0  0  0  0  0  0  0
   -3.8444    2.1047   -0.4180 C   0  0  0  0  0  0  0  0  0  0  0  0
   -4.6189    1.5852   -1.1913 O   0  0  0  0  0  0  0  0  0  0  0  0
   -4.1649    3.1179    0.4075 O   0  0  0  0  0  0  0  0  0  0  0  0
   -5.1015    3.3305    0.2548 H   0  0  0  0  0  0  0  0  0  0  0  0
    2.1684    1.0506   -1.6789 C   0  0  0  0  0  0  0  0  0  0  0  0
    2.1338    0.4863   -2.7483 O   0  0  0  0  0  0  0  0  0  0  0  0
    2.6023    2.3004   -1.4809 O   0  0  0  0  0  0  0  0  0  0  0  0
    2.8825    2.6645   -2.3400 H   0  0  0  0  0  0  0  0  0  0  0  0
  1  2  2  0  0  0  0
  1  6  1  0  0  0  0
  2  3  1  0  0  0  0
  3  4  2  0  0  0  0
  4  9  1  0  0  0  0
  5  4  1  0  0  0  0
  5  8  1  0  0  0  0
  6  5  2  0  0  0  0
  7  1  1  0  0  0  0
 10  2  1  0  0  0  0
 10 23  1  0  0  0  0
 11 10  1  0  0  0  0
 12 11  1  0  0  0  0
 12 14  2  0  0  0  0
 13 12  1  0  0  0  0
 14 18  1  0  0  0  0
 15 13  2  0  0  0  0
 15 19  1  0  0  0  0
 16 13  1  0  0  0  0
 17 21  1  0  0  0  0
 17 14  1  0  0  0  0
 19 17  2  0  0  0  0
 20 15  1  0  0  0  0
 22 24  1  0  0  0  0
 23 26  1  6  0  0  0
 23 25  1  0  0  0  0
 23 22  1  0  0  0  0
 24 27  2  0  0  0  0
 25 39  1  6  0  0  0
 25  3  1  0  0  0  0
 25 28  1  0  0  0  0
 27 29  1  0  0  0  0
 28 27  1  0  0  0  0
 30 28  1  0  0  0  0
 31 19  1  0  0  0  0
 31 32  2  0  0  0  0
 33 31  1  0  0  0  0
 34 33  1  0  0  0  0
 35  6  1  0  0  0  0
 35 37  1  0  0  0  0
 36 35  2  0  0  0  0
 38 37  1  0  0  0  0
 39 41  1  0  0  0  0
 40 39  2  0  0  0  0
 42 41  1  0  0  0  0
M  RAD  4  11   2  22   3  24   2  28   2
M  END
