Coordinates from ORCA-job 1g-Schema5-R9-P1+-B3LYPG-6-31G_dp-scan-d49-09-n400
 OpenBabel08231810273D

 42 45  0  0  1  0  0  0  0  0999 V2000
   -1.9851    0.5997   -1.0781 C   0  0  0  0  0  0  0  0  0  0  0  0
   -0.6507    0.2466   -0.9469 C   0  0  0  0  0  0  0  0  0  0  0  0
    0.2535    0.9013   -0.0997 C   0  0  0  0  0  0  0  0  0  0  0  0
   -0.1937    1.9899    0.6379 C   0  0  0  0  0  0  0  0  0  0  0  0
   -1.5402    2.3622    0.5420 C   0  0  0  0  0  0  0  0  0  0  0  0
   -2.4254    1.6845   -0.3143 C   0  0  0  0  0  0  0  0  0  0  0  0
   -2.6740    0.0609   -1.7185 H   0  0  0  0  0  0  0  0  0  0  0  0
   -1.9122    3.1975    1.1244 H   0  0  0  0  0  0  0  0  0  0  0  0
    0.4843    2.5437    1.2781 H   0  0  0  0  0  0  0  0  0  0  0  0
    0.0012   -0.8679   -1.5233 N   0  0  0  0  0  0  0  0  0  0  0  0
   -0.4841   -1.5019   -2.4959 N   0  0  0  0  0  0  0  0  0  0  0  0
    0.0305   -2.6909   -2.9873 C   0  0  0  0  0  0  0  0  0  0  0  0
   -0.3043   -2.9269   -4.3401 C   0  0  0  0  0  0  0  0  0  0  0  0
    0.7343   -3.6745   -2.2478 C   0  0  0  0  0  0  0  0  0  0  0  0
    0.1331   -4.0811   -4.9740 C   0  0  0  0  0  0  0  0  0  0  0  0
   -0.8844   -2.1781   -4.8683 H   0  0  0  0  0  0  0  0  0  0  0  0
    1.1258   -4.8405   -2.8823 C   0  0  0  0  0  0  0  0  0  0  0  0
    0.8974   -3.5684   -1.1820 H   0  0  0  0  0  0  0  0  0  0  0  0
    0.8504   -5.0403   -4.2462 C   0  0  0  0  0  0  0  0  0  0  0  0
   -0.0960   -4.2558   -6.0181 H   0  0  0  0  0  0  0  0  0  0  0  0
    1.6421   -5.6256   -2.3402 H   0  0  0  0  0  0  0  0  0  0  0  0
    0.9048   -1.4822    0.6572 C   0  0  0  0  0  0  0  0  0  0  0  0
    1.2634   -1.0761   -0.6985 C   0  0  2  0  0  0  0  0  0  0  0  0
    1.5867   -1.2866    1.6653 C   0  0  0  0  0  0  0  0  0  0  0  0
    1.6833    0.4183   -0.3363 C   0  0  2  0  0  0  0  0  0  0  0  0
    1.9817   -1.6719   -1.2579 H   0  0  0  0  0  0  0  0  0  0  0  0
    2.4712   -0.2018    1.9724 C   0  0  0  0  0  0  0  0  0  0  0  0
    2.5686    0.6138    0.8930 C   0  0  0  0  0  0  0  0  0  0  0  0
    3.0734   -0.0981    2.8668 H   0  0  0  0  0  0  0  0  0  0  0  0
    3.2641    1.4467    0.8706 H   0  0  0  0  0  0  0  0  0  0  0  0
    1.3265   -6.3225   -4.8620 C   0  0  0  0  0  0  0  0  0  0  0  0
    1.9440   -7.1648   -4.2487 O   0  0  0  0  0  0  0  0  0  0  0  0
    0.9915   -6.4237   -6.1607 O   0  0  0  0  0  0  0  0  0  0  0  0
    1.3309   -7.2764   -6.4824 H   0  0  0  0  0  0  0  0  0  0  0  0
   -3.8683    2.0678   -0.4468 C   0  0  0  0  0  0  0  0  0  0  0  0
   -4.6445    1.4929   -1.1775 O   0  0  0  0  0  0  0  0  0  0  0  0
   -4.1958    3.1135    0.3335 O   0  0  0  0  0  0  0  0  0  0  0  0
   -5.1398    3.2980    0.1903 H   0  0  0  0  0  0  0  0  0  0  0  0
    2.2467    1.0942   -1.6012 C   0  0  0  0  0  0  0  0  0  0  0  0
    2.2165    0.5668   -2.6895 O   0  0  0  0  0  0  0  0  0  0  0  0
    2.7300    2.3163   -1.3524 O   0  0  0  0  0  0  0  0  0  0  0  0
    3.0521    2.6920   -2.1916 H   0  0  0  0  0  0  0  0  0  0  0  0
  1  2  2  0  0  0  0
  1  6  1  0  0  0  0
  2  3  1  0  0  0  0
  3  4  2  0  0  0  0
  4  9  1  0  0  0  0
  5  4  1  0  0  0  0
  5  8  1  0  0  0  0
  6  5  2  0  0  0  0
  7  1  1  0  0  0  0
 10  2  1  0  0  0  0
 10 23  1  0  0  0  0
 11 10  1  0  0  0  0
 12 11  1  0  0  0  0
 12 14  2  0  0  0  0
 13 12  1  0  0  0  0
 14 18  1  0  0  0  0
 15 13  2  0  0  0  0
 15 19  1  0  0  0  0
 16 13  1  0  0  0  0
 17 21  1  0  0  0  0
 17 14  1  0  0  0  0
 19 17  2  0  0  0  0
 20 15  1  0  0  0  0
 22 24  1  0  0  0  0
 23 26  1  6  0  0  0
 23 25  1  0  0  0  0
 23 22  1  0  0  0  0
 24 27  2  0  0  0  0
 25 39  1  6  0  0  0
 25  3  1  0  0  0  0
 25 28  1  0  0  0  0
 27 29  1  0  0  0  0
 28 27  1  0  0  0  0
 30 28  1  0  0  0  0
 31 32  2  0  0  0  0
 31 19  1  0  0  0  0
 33 31  1  0  0  0  0
 34 33  1  0  0  0  0
 35  6  1  0  0  0  0
 35 37  1  0  0  0  0
 36 35  2  0  0  0  0
 38 37  1  0  0  0  0
 39 41  1  0  0  0  0
 40 39  2  0  0  0  0
 42 41  1  0  0  0  0
M  RAD  4  11   2  22   3  24   2  28   2
M  END
