Coordinates from ORCA-job 1g-Schema5-R9-P1+-B3LYPG-6-31G_dp-scan-d49-09-n400
 OpenBabel08231810273D

 42 45  0  0  1  0  0  0  0  0999 V2000
   -1.9820    0.8426   -1.1442 C   0  0  0  0  0  0  0  0  0  0  0  0
   -0.8978    0.2391   -0.5205 C   0  0  0  0  0  0  0  0  0  0  0  0
   -0.5706    0.4854    0.8155 C   0  0  0  0  0  0  0  0  0  0  0  0
   -1.3323    1.3534    1.5884 C   0  0  0  0  0  0  0  0  0  0  0  0
   -2.4251    1.9734    0.9783 C   0  0  0  0  0  0  0  0  0  0  0  0
   -2.7449    1.7234   -0.3715 C   0  0  0  0  0  0  0  0  0  0  0  0
   -2.2406    0.6593   -2.1799 H   0  0  0  0  0  0  0  0  0  0  0  0
   -3.0442    2.6599    1.5443 H   0  0  0  0  0  0  0  0  0  0  0  0
   -1.0912    1.5372    2.6293 H   0  0  0  0  0  0  0  0  0  0  0  0
   -0.0179   -0.7273   -1.1042 N   0  0  0  0  0  0  0  0  0  0  0  0
   -0.4266   -1.3558   -2.1233 N   0  0  0  0  0  0  0  0  0  0  0  0
    0.1540   -2.4136   -2.7795 C   0  0  0  0  0  0  0  0  0  0  0  0
   -0.7428   -2.9643   -3.7343 C   0  0  0  0  0  0  0  0  0  0  0  0
    1.4372   -3.0061   -2.6147 C   0  0  0  0  0  0  0  0  0  0  0  0
   -0.4020   -4.0907   -4.4665 C   0  0  0  0  0  0  0  0  0  0  0  0
   -1.7073   -2.4849   -3.8573 H   0  0  0  0  0  0  0  0  0  0  0  0
    1.7651   -4.1269   -3.3521 C   0  0  0  0  0  0  0  0  0  0  0  0
    2.1862   -2.5762   -1.9694 H   0  0  0  0  0  0  0  0  0  0  0  0
    0.8536   -4.6791   -4.2710 C   0  0  0  0  0  0  0  0  0  0  0  0
   -1.0936   -4.5127   -5.1857 H   0  0  0  0  0  0  0  0  0  0  0  0
    2.7372   -4.5966   -3.2501 H   0  0  0  0  0  0  0  0  0  0  0  0
    0.7367   -0.3886    1.1197 C   0  0  1  0  0  0  0  0  0  0  0  0
    1.1811   -0.9444   -0.2148 C   0  0  2  0  0  0  0  0  0  0  0  0
    1.7006   -0.2780    2.0152 C   0  0  0  0  0  0  0  0  0  0  0  0
    2.4707   -0.1009   -0.5682 C   0  0  0  0  0  0  0  0  0  0  0  0
    1.4138   -2.0114   -0.2326 H   0  0  0  0  0  0  0  0  0  0  0  0
    3.0066   -0.1113    1.8393 C   0  0  0  0  0  0  0  0  0  0  0  0
    3.3026    0.2793    0.4356 C   0  0  0  0  0  0  0  0  0  0  0  0
    3.8081   -0.3493    2.5310 H   0  0  0  0  0  0  0  0  0  0  0  0
    4.2394    0.7678    0.1869 H   0  0  0  0  0  0  0  0  0  0  0  0
    1.2965   -5.8974   -5.0280 C   0  0  0  0  0  0  0  0  0  0  0  0
    2.3789   -6.4174   -4.8708 O   0  0  0  0  0  0  0  0  0  0  0  0
    0.3603   -6.3365   -5.8864 O   0  0  0  0  0  0  0  0  0  0  0  0
    0.7197   -7.1223   -6.3331 H   0  0  0  0  0  0  0  0  0  0  0  0
   -3.9107    2.3771   -1.0496 C   0  0  0  0  0  0  0  0  0  0  0  0
   -4.2111    2.1711   -2.2053 O   0  0  0  0  0  0  0  0  0  0  0  0
   -4.5810    3.2104   -0.2329 O   0  0  0  0  0  0  0  0  0  0  0  0
   -5.3170    3.5868   -0.7450 H   0  0  0  0  0  0  0  0  0  0  0  0
    2.7830    0.1988   -1.9847 C   0  0  0  0  0  0  0  0  0  0  0  0
    2.1017   -0.1738   -2.9240 O   0  0  0  0  0  0  0  0  0  0  0  0
    3.8905    0.9459   -2.1342 O   0  0  0  0  0  0  0  0  0  0  0  0
    4.0044    1.1053   -3.0867 H   0  0  0  0  0  0  0  0  0  0  0  0
  1  2  2  0  0  0  0
  1  6  1  0  0  0  0
  2  3  1  0  0  0  0
  3  4  2  0  0  0  0
  4  9  1  0  0  0  0
  5  8  1  0  0  0  0
  5  4  1  0  0  0  0
  6  5  2  0  0  0  0
  7  1  1  0  0  0  0
 10  2  1  0  0  0  0
 10 23  1  0  0  0  0
 11 10  1  0  0  0  0
 12 14  1  0  0  0  0
 12 11  1  0  0  0  0
 13 12  2  0  0  0  0
 14 18  1  0  0  0  0
 15 19  2  0  0  0  0
 15 13  1  0  0  0  0
 16 13  1  0  0  0  0
 17 21  1  0  0  0  0
 17 14  2  0  0  0  0
 19 17  1  0  0  0  0
 20 15  1  0  0  0  0
 22  3  1  6  0  0  0
 22 24  1  0  0  0  0
 23 26  1  1  0  0  0
 23 22  1  0  0  0  0
 25 23  1  0  0  0  0
 25 28  2  0  0  0  0
 27 24  1  0  0  0  0
 27 29  1  0  0  0  0
 28 27  1  0  0  0  0
 30 28  1  0  0  0  0
 31 32  2  0  0  0  0
 31 19  1  0  0  0  0
 33 31  1  0  0  0  0
 34 33  1  0  0  0  0
 35  6  1  0  0  0  0
 35 37  1  0  0  0  0
 36 35  2  0  0  0  0
 38 37  1  0  0  0  0
 39 25  1  0  0  0  0
 40 39  2  0  0  0  0
 41 39  1  0  0  0  0
 42 41  1  0  0  0  0
M  RAD  4  11   2  22   2  24   3  27   2
M  END
