Coordinates from ORCA-job 1g-Schema5-R9-P1+-B3LYPG-6-31G_dp-scan-d49-09-n400
 OpenBabel08231810273D

 42 43  0  0  0  0  0  0  0  0999 V2000
   -3.0397    0.4267   -1.2378 C   0  0  0  0  0  0  0  0  0  0  0  0
   -1.6835    0.1811   -0.8265 C   0  0  0  0  0  0  0  0  0  0  0  0
   -1.5610    1.0223    0.1963 C   0  0  0  0  0  0  0  0  0  0  0  0
   -2.1978    1.9486    0.9318 C   0  0  0  0  0  0  0  0  0  0  0  0
   -3.5159    2.1101    0.4448 C   0  0  0  0  0  0  0  0  0  0  0  0
   -3.9184    1.3299   -0.6538 C   0  0  0  0  0  0  0  0  0  0  0  0
   -3.3108   -0.2013   -2.0965 H   0  0  0  0  0  0  0  0  0  0  0  0
   -4.1806    2.8225    0.9218 H   0  0  0  0  0  0  0  0  0  0  0  0
   -1.7835    2.4968    1.7709 H   0  0  0  0  0  0  0  0  0  0  0  0
   -0.8340   -0.7530   -1.4610 N   0  0  0  0  0  0  0  0  0  0  0  0
   -1.3520   -1.3550   -2.4286 N   0  0  0  0  0  0  0  0  0  0  0  0
   -0.5941   -2.2914   -3.1204 C   0  0  0  0  0  0  0  0  0  0  0  0
   -1.2592   -2.9165   -4.1966 C   0  0  0  0  0  0  0  0  0  0  0  0
    0.7449   -2.6166   -2.8032 C   0  0  0  0  0  0  0  0  0  0  0  0
   -0.5910   -3.8655   -4.9577 C   0  0  0  0  0  0  0  0  0  0  0  0
   -2.2860   -2.6406   -4.4104 H   0  0  0  0  0  0  0  0  0  0  0  0
    1.3986   -3.5622   -3.5709 C   0  0  0  0  0  0  0  0  0  0  0  0
    1.2617   -2.1420   -1.9777 H   0  0  0  0  0  0  0  0  0  0  0  0
    0.7385   -4.1882   -4.6454 C   0  0  0  0  0  0  0  0  0  0  0  0
   -1.0842   -4.3554   -5.7881 H   0  0  0  0  0  0  0  0  0  0  0  0
    2.4256   -3.8304   -3.3525 H   0  0  0  0  0  0  0  0  0  0  0  0
    2.4152    0.9801    1.5113 C   0  0  0  0  0  0  0  0  0  0  0  0
    2.5649   -0.0865    0.6386 C   0  0  0  0  0  0  0  0  0  0  0  0
    3.3810    1.5728    2.0451 C   0  0  0  0  0  0  0  0  0  0  0  0
    3.9293   -0.4138    0.4251 C   0  0  0  0  0  0  0  0  0  0  0  0
    1.7822   -0.6494    0.1440 H   0  0  0  0  0  0  0  0  0  0  0  0
    4.7406    1.3713    1.9362 C   0  0  0  0  0  0  0  0  0  0  0  0
    4.9775    0.2927    1.0570 C   0  0  0  0  0  0  0  0  0  0  0  0
    5.5376    1.9168    2.4260 H   0  0  0  0  0  0  0  0  0  0  0  0
    6.0020   -0.0060    0.8618 H   0  0  0  0  0  0  0  0  0  0  0  0
    1.5138   -5.2024   -5.4328 C   0  0  0  0  0  0  0  0  0  0  0  0
    2.6673   -5.4907   -5.1998 O   0  0  0  0  0  0  0  0  0  0  0  0
    0.7861   -5.7542   -6.4226 O   0  0  0  0  0  0  0  0  0  0  0  0
    1.3598   -6.3940   -6.8776 H   0  0  0  0  0  0  0  0  0  0  0  0
   -5.2927    1.4195   -1.2564 C   0  0  0  0  0  0  0  0  0  0  0  0
   -5.6417    0.7520   -2.2021 O   0  0  0  0  0  0  0  0  0  0  0  0
   -6.0580    2.3200   -0.6208 O   0  0  0  0  0  0  0  0  0  0  0  0
   -6.9279    2.3347   -1.0569 H   0  0  0  0  0  0  0  0  0  0  0  0
    4.2094   -1.5447   -0.5033 C   0  0  0  0  0  0  0  0  0  0  0  0
    3.3528   -2.1577   -1.1193 O   0  0  0  0  0  0  0  0  0  0  0  0
    5.5182   -1.8411   -0.6060 O   0  0  0  0  0  0  0  0  0  0  0  0
    5.5948   -2.5885   -1.2229 H   0  0  0  0  0  0  0  0  0  0  0  0
  1  2  2  0  0  0  0
  1  6  1  0  0  0  0
  2  3  1  0  0  0  0
  3  4  2  0  0  0  0
  4  9  1  0  0  0  0
  5  8  1  0  0  0  0
  5  4  1  0  0  0  0
  6  5  2  0  0  0  0
  7  1  1  0  0  0  0
 10  2  1  0  0  0  0
 11 10  1  0  0  0  0
 12 14  1  0  0  0  0
 12 11  1  0  0  0  0
 13 12  2  0  0  0  0
 14 18  1  0  0  0  0
 15 19  2  0  0  0  0
 15 13  1  0  0  0  0
 16 13  1  0  0  0  0
 17 21  1  0  0  0  0
 17 14  2  0  0  0  0
 19 17  1  0  0  0  0
 20 15  1  0  0  0  0
 22 24  2  0  0  0  0
 23 22  1  0  0  0  0
 25 23  2  0  0  0  0
 25 28  1  0  0  0  0
 26 23  1  0  0  0  0
 27 24  1  0  0  0  0
 27 29  1  0  0  0  0
 28 27  2  0  0  0  0
 30 28  1  0  0  0  0
 31 32  2  0  0  0  0
 31 19  1  0  0  0  0
 33 31  1  0  0  0  0
 34 33  1  0  0  0  0
 35  6  1  0  0  0  0
 35 37  1  0  0  0  0
 36 35  2  0  0  0  0
 38 37  1  0  0  0  0
 39 25  1  0  0  0  0
 40 39  2  0  0  0  0
 41 39  1  0  0  0  0
 42 41  1  0  0  0  0
M  RAD  5   3   2  10   2  11   2  22   2  24   2
M  END
