Coordinates from ORCA-job 1g-Schema5-R9-P1+-B3LYPG-6-31G_dp-scan-d49-09-n400
 OpenBabel08231810273D

 42 45  0  0  1  0  0  0  0  0999 V2000
   -2.0304    0.8409   -1.1290 C   0  0  0  0  0  0  0  0  0  0  0  0
   -0.9090    0.2465   -0.5769 C   0  0  0  0  0  0  0  0  0  0  0  0
   -0.4424    0.4764    0.7525 C   0  0  0  0  0  0  0  0  0  0  0  0
   -1.2185    1.3511    1.5586 C   0  0  0  0  0  0  0  0  0  0  0  0
   -2.3418    1.9589    1.0244 C   0  0  0  0  0  0  0  0  0  0  0  0
   -2.7483    1.7148   -0.3098 C   0  0  0  0  0  0  0  0  0  0  0  0
   -2.3522    0.6522   -2.1458 H   0  0  0  0  0  0  0  0  0  0  0  0
   -2.9339    2.6331    1.6324 H   0  0  0  0  0  0  0  0  0  0  0  0
   -0.9315    1.5201    2.5910 H   0  0  0  0  0  0  0  0  0  0  0  0
   -0.0477   -0.7033   -1.1814 N   0  0  0  0  0  0  0  0  0  0  0  0
   -0.4397   -1.3249   -2.2161 N   0  0  0  0  0  0  0  0  0  0  0  0
    0.1492   -2.3972   -2.8350 C   0  0  0  0  0  0  0  0  0  0  0  0
   -0.6809   -2.9074   -3.8695 C   0  0  0  0  0  0  0  0  0  0  0  0
    1.3839   -3.0474   -2.5559 C   0  0  0  0  0  0  0  0  0  0  0  0
   -0.3205   -4.0424   -4.5779 C   0  0  0  0  0  0  0  0  0  0  0  0
   -1.6107   -2.3886   -4.0737 H   0  0  0  0  0  0  0  0  0  0  0  0
    1.7281   -4.1814   -3.2641 C   0  0  0  0  0  0  0  0  0  0  0  0
    2.0828   -2.6593   -1.8317 H   0  0  0  0  0  0  0  0  0  0  0  0
    0.8844   -4.6871   -4.2710 C   0  0  0  0  0  0  0  0  0  0  0  0
   -0.9594   -4.4312   -5.3616 H   0  0  0  0  0  0  0  0  0  0  0  0
    2.6626   -4.6971   -3.0722 H   0  0  0  0  0  0  0  0  0  0  0  0
    0.5962   -0.1405    0.9885 C   0  0  1  0  0  0  0  0  0  0  0  0
    1.1224   -0.8773   -0.2504 C   0  0  2  0  0  0  0  0  0  0  0  0
    1.5521   -0.0645    1.9507 C   0  0  0  0  0  0  0  0  0  0  0  0
    2.4499   -0.1261   -0.6211 C   0  0  0  0  0  0  0  0  0  0  0  0
    1.3057   -1.9466   -0.1157 H   0  0  0  0  0  0  0  0  0  0  0  0
    2.8678    0.0006    1.7980 C   0  0  0  0  0  0  0  0  0  0  0  0
    3.2550    0.2830    0.3916 C   0  0  0  0  0  0  0  0  0  0  0  0
    3.6241   -0.2306    2.5424 H   0  0  0  0  0  0  0  0  0  0  0  0
    4.2160    0.7315    0.1604 H   0  0  0  0  0  0  0  0  0  0  0  0
    1.3421   -5.9203   -4.9931 C   0  0  0  0  0  0  0  0  0  0  0  0
    2.3811   -6.4890   -4.7407 O   0  0  0  0  0  0  0  0  0  0  0  0
    0.4717   -6.3138   -5.9390 O   0  0  0  0  0  0  0  0  0  0  0  0
    0.8365   -7.1129   -6.3565 H   0  0  0  0  0  0  0  0  0  0  0  0
   -3.9594    2.3606   -0.9079 C   0  0  0  0  0  0  0  0  0  0  0  0
   -4.3289    2.1586   -2.0443 O   0  0  0  0  0  0  0  0  0  0  0  0
   -4.5834    3.1831   -0.0450 O   0  0  0  0  0  0  0  0  0  0  0  0
   -5.3527    3.5579   -0.5069 H   0  0  0  0  0  0  0  0  0  0  0  0
    2.8180    0.0974   -2.0385 C   0  0  0  0  0  0  0  0  0  0  0  0
    2.1301   -0.2449   -2.9838 O   0  0  0  0  0  0  0  0  0  0  0  0
    3.9876    0.7456   -2.1800 O   0  0  0  0  0  0  0  0  0  0  0  0
    4.1331    0.8726   -3.1330 H   0  0  0  0  0  0  0  0  0  0  0  0
  1  2  2  0  0  0  0
  1  6  1  0  0  0  0
  2  3  1  0  0  0  0
  3  4  2  0  0  0  0
  4  9  1  0  0  0  0
  5  4  1  0  0  0  0
  5  8  1  0  0  0  0
  6  5  2  0  0  0  0
  7  1  1  0  0  0  0
 10  2  1  0  0  0  0
 10 23  1  0  0  0  0
 11 10  1  0  0  0  0
 12 14  1  0  0  0  0
 12 11  1  0  0  0  0
 13 12  2  0  0  0  0
 14 18  1  0  0  0  0
 15 19  2  0  0  0  0
 15 13  1  0  0  0  0
 16 13  1  0  0  0  0
 17 21  1  0  0  0  0
 17 14  2  0  0  0  0
 19 17  1  0  0  0  0
 20 15  1  0  0  0  0
 22  3  1  6  0  0  0
 22 24  1  0  0  0  0
 23 26  1  1  0  0  0
 23 22  1  0  0  0  0
 25 23  1  0  0  0  0
 25 28  2  0  0  0  0
 27 24  2  0  0  0  0
 27 29  1  0  0  0  0
 28 27  1  0  0  0  0
 30 28  1  0  0  0  0
 31 32  2  0  0  0  0
 31 19  1  0  0  0  0
 33 31  1  0  0  0  0
 34 33  1  0  0  0  0
 35  6  1  0  0  0  0
 35 37  1  0  0  0  0
 36 35  2  0  0  0  0
 38 37  1  0  0  0  0
 39 25  1  0  0  0  0
 40 39  2  0  0  0  0
 41 39  1  0  0  0  0
 42 41  1  0  0  0  0
M  RAD  3  11   2  22   2  24   2
M  END
