Coordinates from ORCA-job 1g-Schema5-R9-P1+-B3LYPG-6-31G_dp-scan-d49-09-n400
 OpenBabel08231810273D

 42 46  0  0  1  0  0  0  0  0999 V2000
   -1.9665    0.6564   -1.0972 C   0  0  0  0  0  0  0  0  0  0  0  0
   -0.7000    0.1468   -0.8534 C   0  0  0  0  0  0  0  0  0  0  0  0
    0.1707    0.5885    0.1947 C   0  0  1  0  0  0  0  0  0  0  0  0
   -0.2776    1.6889    0.9644 C   0  0  0  0  0  0  0  0  0  0  0  0
   -1.5456    2.2011    0.7416 C   0  0  0  0  0  0  0  0  0  0  0  0
   -2.3923    1.7034   -0.2819 C   0  0  1  0  0  0  0  0  0  0  0  0
   -2.6108    0.2687   -1.8785 H   0  0  0  0  0  0  0  0  0  0  0  0
   -1.9021    3.0259    1.3488 H   0  0  0  0  0  0  0  0  0  0  0  0
    0.3611    2.1150    1.7311 H   0  0  0  0  0  0  0  0  0  0  0  0
   -0.0702   -0.9528   -1.4491 N   0  0  0  0  0  0  0  0  0  0  0  0
   -0.4992   -1.5290   -2.4906 N   0  0  0  0  0  0  0  0  0  0  0  0
    0.0208   -2.7122   -2.9785 C   0  0  0  0  0  0  0  0  0  0  0  0
   -0.1608   -2.8836   -4.3705 C   0  0  0  0  0  0  0  0  0  0  0  0
    0.5953   -3.7532   -2.2055 C   0  0  0  0  0  0  0  0  0  0  0  0
    0.3127   -4.0275   -4.9968 C   0  0  0  0  0  0  0  0  0  0  0  0
   -0.6457   -2.0918   -4.9306 H   0  0  0  0  0  0  0  0  0  0  0  0
    1.0261   -4.9057   -2.8382 C   0  0  0  0  0  0  0  0  0  0  0  0
    0.6153   -3.6977   -1.1228 H   0  0  0  0  0  0  0  0  0  0  0  0
    0.9101   -5.0401   -4.2331 C   0  0  0  0  0  0  0  0  0  0  0  0
    0.2038   -4.1527   -6.0675 H   0  0  0  0  0  0  0  0  0  0  0  0
    1.4438   -5.7325   -2.2740 H   0  0  0  0  0  0  0  0  0  0  0  0
    0.7539   -1.0209    0.8197 C   0  0  1  0  0  0  0  0  0  0  0  0
    1.1828   -1.1591   -0.5979 C   0  0  2  0  0  0  0  0  0  0  0  0
    1.6308   -1.0332    1.7576 C   0  0  0  0  0  0  0  0  0  0  0  0
    1.7132    0.3356   -0.4077 C   0  0  2  0  0  0  0  0  0  0  0  0
    1.8383   -1.9417   -0.9611 H   0  0  0  0  0  0  0  0  0  0  0  0
    2.6823   -0.1102    1.8277 C   0  0  0  0  0  0  0  0  0  0  0  0
    2.7618    0.5593    0.6192 C   0  0  0  0  0  0  0  0  0  0  0  0
    3.3967    0.0091    2.6342 H   0  0  0  0  0  0  0  0  0  0  0  0
    3.5372    1.2899    0.4116 H   0  0  0  0  0  0  0  0  0  0  0  0
    1.4152   -6.3131   -4.8439 C   0  0  0  0  0  0  0  0  0  0  0  0
    1.9337   -7.1983   -4.1997 O   0  0  0  0  0  0  0  0  0  0  0  0
    1.2283   -6.3541   -6.1750 O   0  0  0  0  0  0  0  0  0  0  0  0
    1.5777   -7.2049   -6.4912 H   0  0  0  0  0  0  0  0  0  0  0  0
   -3.7513    2.2627   -0.5428 C   0  0  0  0  0  0  0  0  0  0  0  0
   -4.4848    1.8577   -1.4189 O   0  0  0  0  0  0  0  0  0  0  0  0
   -4.0685    3.2631    0.3023 O   0  0  0  0  0  0  0  0  0  0  0  0
   -4.9620    3.5654    0.0665 H   0  0  0  0  0  0  0  0  0  0  0  0
    1.9612    1.0682   -1.7260 C   0  0  0  0  0  0  0  0  0  0  0  0
    1.8922    0.5266   -2.8049 O   0  0  0  0  0  0  0  0  0  0  0  0
    2.2539    2.3589   -1.5254 O   0  0  0  0  0  0  0  0  0  0  0  0
    2.4078    2.7737   -2.3934 H   0  0  0  0  0  0  0  0  0  0  0  0
  1  2  2  0  0  0  0
  1  6  1  0  0  0  0
  3  2  1  6  0  0  0
  3 22  1  0  0  0  0
  3  4  1  0  0  0  0
  4  9  1  0  0  0  0
  5  4  2  0  0  0  0
  5  8  1  0  0  0  0
  6 35  1  6  0  0  0
  6  5  1  0  0  0  0
  7  1  1  0  0  0  0
 10  2  1  0  0  0  0
 10 23  1  0  0  0  0
 11 10  1  0  0  0  0
 12 11  1  0  0  0  0
 12 14  2  0  0  0  0
 13 12  1  0  0  0  0
 14 18  1  0  0  0  0
 15 13  2  0  0  0  0
 15 19  1  0  0  0  0
 16 13  1  0  0  0  0
 17 21  1  0  0  0  0
 17 14  1  0  0  0  0
 19 17  2  0  0  0  0
 20 15  1  0  0  0  0
 22 24  1  1  0  0  0
 23 26  1  6  0  0  0
 23 25  1  0  0  0  0
 23 22  1  0  0  0  0
 24 27  2  0  0  0  0
 25 39  1  6  0  0  0
 25  3  1  0  0  0  0
 25 28  1  0  0  0  0
 27 29  1  0  0  0  0
 28 27  1  0  0  0  0
 30 28  1  0  0  0  0
 31 19  1  0  0  0  0
 31 32  2  0  0  0  0
 33 31  1  0  0  0  0
 34 33  1  0  0  0  0
 35 37  1  0  0  0  0
 36 35  2  0  0  0  0
 38 37  1  0  0  0  0
 39 41  1  0  0  0  0
 40 39  2  0  0  0  0
 42 41  1  0  0  0  0
M  RAD  5   6   2  11   2  22   2  24   2  28   2
M  END
