Coordinates from ORCA-job 1g-Schema5-R9-P1+-B3LYPG-6-31G_dp-scan-d49-09-n400
 OpenBabel08231810273D

 42 45  0  0  1  0  0  0  0  0999 V2000
   -1.9848    0.5948   -1.0774 C   0  0  0  0  0  0  0  0  0  0  0  0
   -0.6492    0.2458   -0.9434 C   0  0  0  0  0  0  0  0  0  0  0  0
    0.2532    0.9130   -0.1053 C   0  0  0  0  0  0  0  0  0  0  0  0
   -0.1966    2.0063    0.6240 C   0  0  0  0  0  0  0  0  0  0  0  0
   -1.5437    2.3749    0.5244 C   0  0  0  0  0  0  0  0  0  0  0  0
   -2.4274    1.6859   -0.3245 C   0  0  0  0  0  0  0  0  0  0  0  0
   -2.6725    0.0481   -1.7125 H   0  0  0  0  0  0  0  0  0  0  0  0
   -1.9178    3.2147    1.0989 H   0  0  0  0  0  0  0  0  0  0  0  0
    0.4798    2.5669    1.2599 H   0  0  0  0  0  0  0  0  0  0  0  0
    0.0051   -0.8685   -1.5176 N   0  0  0  0  0  0  0  0  0  0  0  0
   -0.4854   -1.5083   -2.4842 N   0  0  0  0  0  0  0  0  0  0  0  0
    0.0301   -2.6950   -2.9792 C   0  0  0  0  0  0  0  0  0  0  0  0
   -0.3293   -2.9387   -4.3247 C   0  0  0  0  0  0  0  0  0  0  0  0
    0.7580   -3.6701   -2.2512 C   0  0  0  0  0  0  0  0  0  0  0  0
    0.1049   -4.0911   -4.9637 C   0  0  0  0  0  0  0  0  0  0  0  0
   -0.9265   -2.1967   -4.8433 H   0  0  0  0  0  0  0  0  0  0  0  0
    1.1467   -4.8346   -2.8902 C   0  0  0  0  0  0  0  0  0  0  0  0
    0.9432   -3.5592   -1.1897 H   0  0  0  0  0  0  0  0  0  0  0  0
    0.8451   -5.0416   -4.2474 C   0  0  0  0  0  0  0  0  0  0  0  0
   -0.1437   -4.2713   -6.0024 H   0  0  0  0  0  0  0  0  0  0  0  0
    1.6814   -5.6130   -2.3564 H   0  0  0  0  0  0  0  0  0  0  0  0
    0.9420   -1.5290    0.6396 C   0  0  0  0  0  0  0  0  0  0  0  0
    1.2759   -1.0718   -0.7060 C   0  0  2  0  0  0  0  0  0  0  0  0
    1.6132   -1.3220    1.6509 C   0  0  0  0  0  0  0  0  0  0  0  0
    1.6817    0.4227   -0.3262 C   0  0  2  0  0  0  0  0  0  0  0  0
    1.9976   -1.6412   -1.2889 H   0  0  0  0  0  0  0  0  0  0  0  0
    2.4722   -0.2227    1.9787 C   0  0  0  0  0  0  0  0  0  0  0  0
    2.5540    0.6135    0.9141 C   0  0  0  0  0  0  0  0  0  0  0  0
    3.0682   -0.1192    2.8772 H   0  0  0  0  0  0  0  0  0  0  0  0
    3.2295    1.4630    0.9115 H   0  0  0  0  0  0  0  0  0  0  0  0
    1.3199   -6.3218   -4.8686 C   0  0  0  0  0  0  0  0  0  0  0  0
    1.9571   -7.1564   -4.2653 O   0  0  0  0  0  0  0  0  0  0  0  0
    0.9594   -6.4304   -6.1598 O   0  0  0  0  0  0  0  0  0  0  0  0
    1.2995   -7.2813   -6.4856 H   0  0  0  0  0  0  0  0  0  0  0  0
   -3.8716    2.0640   -0.4600 C   0  0  0  0  0  0  0  0  0  0  0  0
   -4.6465    1.4800   -1.1848 O   0  0  0  0  0  0  0  0  0  0  0  0
   -4.2007    3.1181    0.3082 O   0  0  0  0  0  0  0  0  0  0  0  0
   -5.1452    3.2994    0.1629 H   0  0  0  0  0  0  0  0  0  0  0  0
    2.2585    1.1062   -1.5816 C   0  0  0  0  0  0  0  0  0  0  0  0
    2.2348    0.5874   -2.6742 O   0  0  0  0  0  0  0  0  0  0  0  0
    2.7449    2.3245   -1.3198 O   0  0  0  0  0  0  0  0  0  0  0  0
    3.0745    2.7054   -2.1537 H   0  0  0  0  0  0  0  0  0  0  0  0
  1  2  2  0  0  0  0
  1  6  1  0  0  0  0
  2  3  1  0  0  0  0
  3  4  2  0  0  0  0
  4  9  1  0  0  0  0
  5  4  1  0  0  0  0
  5  8  1  0  0  0  0
  6  5  2  0  0  0  0
  7  1  1  0  0  0  0
 10  2  1  0  0  0  0
 10 23  1  0  0  0  0
 11 10  1  0  0  0  0
 12 11  1  0  0  0  0
 12 14  2  0  0  0  0
 13 12  1  0  0  0  0
 14 18  1  0  0  0  0
 15 13  2  0  0  0  0
 15 19  1  0  0  0  0
 16 13  1  0  0  0  0
 17 21  1  0  0  0  0
 17 14  1  0  0  0  0
 19 17  2  0  0  0  0
 20 15  1  0  0  0  0
 22 24  1  0  0  0  0
 23 26  1  6  0  0  0
 23 25  1  0  0  0  0
 23 22  1  0  0  0  0
 24 27  2  0  0  0  0
 25 39  1  6  0  0  0
 25  3  1  0  0  0  0
 25 28  1  0  0  0  0
 27 29  1  0  0  0  0
 28 27  1  0  0  0  0
 30 28  1  0  0  0  0
 31 32  2  0  0  0  0
 31 19  1  0  0  0  0
 33 31  1  0  0  0  0
 34 33  1  0  0  0  0
 35  6  1  0  0  0  0
 35 37  1  0  0  0  0
 36 35  2  0  0  0  0
 38 37  1  0  0  0  0
 39 41  1  0  0  0  0
 40 39  2  0  0  0  0
 42 41  1  0  0  0  0
M  RAD  4  11   2  22   3  24   2  28   2
M  END
