Coordinates from ORCA-job 1g-Schema5-R9-P1+-B3LYPG-6-31G_dp-scan-d49-09-n400
 OpenBabel08231810273D

 42 45  0  0  1  0  0  0  0  0999 V2000
   -1.8959    0.7091   -1.3502 C   0  0  0  0  0  0  0  0  0  0  0  0
   -0.5808    0.3736   -1.0458 C   0  0  0  0  0  0  0  0  0  0  0  0
    0.2266    1.1682   -0.2225 C   0  0  0  0  0  0  0  0  0  0  0  0
   -0.2716    2.3421    0.3234 C   0  0  0  0  0  0  0  0  0  0  0  0
   -1.5934    2.6963    0.0308 C   0  0  0  0  0  0  0  0  0  0  0  0
   -2.3974    1.8874   -0.7922 C   0  0  0  0  0  0  0  0  0  0  0  0
   -2.5209    0.1002   -1.9927 H   0  0  0  0  0  0  0  0  0  0  0  0
   -2.0111    3.6087    0.4397 H   0  0  0  0  0  0  0  0  0  0  0  0
    0.3463    2.9714    0.9542 H   0  0  0  0  0  0  0  0  0  0  0  0
    0.1123   -0.7711   -1.5527 N   0  0  0  0  0  0  0  0  0  0  0  0
   -0.5473   -1.6671   -2.1559 N   0  0  0  0  0  0  0  0  0  0  0  0
   -0.0104   -2.7531   -2.8127 C   0  0  0  0  0  0  0  0  0  0  0  0
   -0.9568   -3.7916   -3.0083 C   0  0  0  0  0  0  0  0  0  0  0  0
    1.2946   -2.8778   -3.3606 C   0  0  0  0  0  0  0  0  0  0  0  0
   -0.5901   -4.9605   -3.6540 C   0  0  0  0  0  0  0  0  0  0  0  0
   -1.9597   -3.6518   -2.6209 H   0  0  0  0  0  0  0  0  0  0  0  0
    1.6327   -4.0349   -4.0422 C   0  0  0  0  0  0  0  0  0  0  0  0
    2.0038   -2.0640   -3.3209 H   0  0  0  0  0  0  0  0  0  0  0  0
    0.7089   -5.0845   -4.1721 C   0  0  0  0  0  0  0  0  0  0  0  0
   -1.3010   -5.7681   -3.7812 H   0  0  0  0  0  0  0  0  0  0  0  0
    2.6135   -4.1515   -4.4891 H   0  0  0  0  0  0  0  0  0  0  0  0
    2.2081   -2.0175   -0.7402 C   0  0  0  0  0  0  0  0  0  0  0  0
    1.5943   -0.7003   -1.1950 C   0  0  2  0  0  0  0  0  0  0  0  0
    2.4431   -2.0645    0.4666 C   0  0  0  0  0  0  0  0  0  0  0  0
    1.6095    0.4623   -0.0672 C   0  0  2  0  0  0  0  0  0  0  0  0
    2.1035   -0.2785   -2.0690 H   0  0  0  0  0  0  0  0  0  0  0  0
    2.3272   -1.2798    1.6502 C   0  0  0  0  0  0  0  0  0  0  0  0
    1.8634   -0.0389    1.3566 C   0  0  0  0  0  0  0  0  0  0  0  0
    2.5304   -1.6144    2.6598 H   0  0  0  0  0  0  0  0  0  0  0  0
    1.6914    0.6749    2.1561 H   0  0  0  0  0  0  0  0  0  0  0  0
    1.1634   -6.3133   -4.9042 C   0  0  0  0  0  0  0  0  0  0  0  0
    2.2738   -6.4344   -5.3722 O   0  0  0  0  0  0  0  0  0  0  0  0
    0.2041   -7.2535   -4.9733 O   0  0  0  0  0  0  0  0  0  0  0  0
    0.5748   -8.0122   -5.4560 H   0  0  0  0  0  0  0  0  0  0  0  0
   -3.8156    2.2433   -1.1253 C   0  0  0  0  0  0  0  0  0  0  0  0
   -4.5253    1.5607   -1.8305 O   0  0  0  0  0  0  0  0  0  0  0  0
   -4.2019    3.3996   -0.5564 O   0  0  0  0  0  0  0  0  0  0  0  0
   -5.1240    3.5593   -0.8214 H   0  0  0  0  0  0  0  0  0  0  0  0
    2.7185    1.4690   -0.4680 C   0  0  0  0  0  0  0  0  0  0  0  0
    3.2795    1.4727   -1.5371 O   0  0  0  0  0  0  0  0  0  0  0  0
    2.9427    2.3569    0.5124 O   0  0  0  0  0  0  0  0  0  0  0  0
    3.6263    2.9783    0.2028 H   0  0  0  0  0  0  0  0  0  0  0  0
  1  2  2  0  0  0  0
  1  6  1  0  0  0  0
  2  3  1  0  0  0  0
  3 25  1  0  0  0  0
  3  4  2  0  0  0  0
  4  9  1  0  0  0  0
  5  4  1  0  0  0  0
  5  8  1  0  0  0  0
  6  5  2  0  0  0  0
  7  1  1  0  0  0  0
 10 23  1  0  0  0  0
 10  2  1  0  0  0  0
 11 10  1  0  0  0  0
 12 11  1  0  0  0  0
 13 12  1  0  0  0  0
 13 16  1  0  0  0  0
 14 18  1  0  0  0  0
 14 12  2  0  0  0  0
 15 13  2  0  0  0  0
 17 14  1  0  0  0  0
 19 17  2  0  0  0  0
 19 15  1  0  0  0  0
 20 15  1  0  0  0  0
 21 17  1  0  0  0  0
 22 24  2  0  0  0  0
 23 26  1  6  0  0  0
 23 22  1  0  0  0  0
 23 25  1  0  0  0  0
 24 27  1  0  0  0  0
 25 39  1  6  0  0  0
 25 28  1  0  0  0  0
 27 29  1  0  0  0  0
 28 27  2  0  0  0  0
 28 30  1  0  0  0  0
 31 19  1  0  0  0  0
 32 31  2  0  0  0  0
 33 31  1  0  0  0  0
 34 33  1  0  0  0  0
 35  6  1  0  0  0  0
 35 37  1  0  0  0  0
 36 35  2  0  0  0  0
 38 37  1  0  0  0  0
 39 41  1  0  0  0  0
 40 39  2  0  0  0  0
 42 41  1  0  0  0  0
M  RAD  3  11   2  22   2  24   2
M  END
