Coordinates from ORCA-job 1g-Schema5-R9-P1+-B3LYPG-6-31G_dp-scan-d49-09-n400
 OpenBabel08231810273D

 42 45  0  0  1  0  0  0  0  0999 V2000
   -1.9498    0.5269   -1.1111 C   0  0  0  0  0  0  0  0  0  0  0  0
   -0.6069    0.2292   -0.9032 C   0  0  0  0  0  0  0  0  0  0  0  0
    0.2544    1.0459   -0.1664 C   0  0  0  0  0  0  0  0  0  0  0  0
   -0.2383    2.2230    0.3895 C   0  0  0  0  0  0  0  0  0  0  0  0
   -1.5857    2.5427    0.2032 C   0  0  0  0  0  0  0  0  0  0  0  0
   -2.4354    1.7035   -0.5414 C   0  0  0  0  0  0  0  0  0  0  0  0
   -2.6064   -0.1198   -1.6808 H   0  0  0  0  0  0  0  0  0  0  0  0
   -1.9901    3.4513    0.6337 H   0  0  0  0  0  0  0  0  0  0  0  0
    0.4084    2.8880    0.9503 H   0  0  0  0  0  0  0  0  0  0  0  0
    0.0782   -0.9072   -1.3993 N   0  0  0  0  0  0  0  0  0  0  0  0
   -0.4821   -1.6624   -2.2426 N   0  0  0  0  0  0  0  0  0  0  0  0
    0.0376   -2.8005   -2.8218 C   0  0  0  0  0  0  0  0  0  0  0  0
   -0.7739   -3.2434   -3.8999 C   0  0  0  0  0  0  0  0  0  0  0  0
    1.1993   -3.5434   -2.4731 C   0  0  0  0  0  0  0  0  0  0  0  0
   -0.4213   -4.3593   -4.6409 C   0  0  0  0  0  0  0  0  0  0  0  0
   -1.6675   -2.6743   -4.1311 H   0  0  0  0  0  0  0  0  0  0  0  0
    1.5248   -4.6691   -3.2079 C   0  0  0  0  0  0  0  0  0  0  0  0
    1.8053   -3.2903   -1.6154 H   0  0  0  0  0  0  0  0  0  0  0  0
    0.7332   -5.0751   -4.2961 C   0  0  0  0  0  0  0  0  0  0  0  0
   -1.0338   -4.6861   -5.4726 H   0  0  0  0  0  0  0  0  0  0  0  0
    2.3970   -5.2632   -2.9570 H   0  0  0  0  0  0  0  0  0  0  0  0
    1.5692   -1.9517    0.2978 C   0  0  0  0  0  0  0  0  0  0  0  0
    1.4717   -0.9730   -0.7916 C   0  0  2  0  0  0  0  0  0  0  0  0
    2.0802   -1.7172    1.3856 C   0  0  0  0  0  0  0  0  0  0  0  0
    1.6766    0.4862   -0.1503 C   0  0  2  0  0  0  0  0  0  0  0  0
    2.1611   -1.1300   -1.6259 H   0  0  0  0  0  0  0  0  0  0  0  0
    2.4750   -0.5203    2.0642 C   0  0  0  0  0  0  0  0  0  0  0  0
    2.2839    0.5495    1.2571 C   0  0  0  0  0  0  0  0  0  0  0  0
    2.9135   -0.4539    3.0516 H   0  0  0  0  0  0  0  0  0  0  0  0
    2.5741    1.5400    1.5924 H   0  0  0  0  0  0  0  0  0  0  0  0
    1.1705   -6.3010   -5.0441 C   0  0  0  0  0  0  0  0  0  0  0  0
    2.1610   -6.9349   -4.7562 O   0  0  0  0  0  0  0  0  0  0  0  0
    0.3421   -6.6048   -6.0585 O   0  0  0  0  0  0  0  0  0  0  0  0
    0.6894   -7.4052   -6.4885 H   0  0  0  0  0  0  0  0  0  0  0  0
   -3.8847    2.0179   -0.7616 C   0  0  0  0  0  0  0  0  0  0  0  0
   -4.6302    1.3090   -1.4008 O   0  0  0  0  0  0  0  0  0  0  0  0
   -4.2550    3.1693   -0.1726 O   0  0  0  0  0  0  0  0  0  0  0  0
   -5.1996    3.3019   -0.3630 H   0  0  0  0  0  0  0  0  0  0  0  0
    2.5229    1.3144   -1.1519 C   0  0  0  0  0  0  0  0  0  0  0  0
    2.8180    0.9286   -2.2579 O   0  0  0  0  0  0  0  0  0  0  0  0
    2.8480    2.5136   -0.6504 O   0  0  0  0  0  0  0  0  0  0  0  0
    3.3544    2.9964   -1.3280 H   0  0  0  0  0  0  0  0  0  0  0  0
  1  2  2  0  0  0  0
  1  6  1  0  0  0  0
  2  3  1  0  0  0  0
  3 25  1  0  0  0  0
  3  4  2  0  0  0  0
  4  9  1  0  0  0  0
  5  4  1  0  0  0  0
  5  8  1  0  0  0  0
  6  5  2  0  0  0  0
  7  1  1  0  0  0  0
 10  2  1  0  0  0  0
 10 23  1  0  0  0  0
 11 10  1  0  0  0  0
 12 14  1  0  0  0  0
 12 11  1  0  0  0  0
 13 12  2  0  0  0  0
 14 18  1  0  0  0  0
 15 19  2  0  0  0  0
 15 13  1  0  0  0  0
 16 13  1  0  0  0  0
 17 21  1  0  0  0  0
 17 14  2  0  0  0  0
 19 17  1  0  0  0  0
 20 15  1  0  0  0  0
 22 24  2  0  0  0  0
 23 26  1  6  0  0  0
 23 25  1  0  0  0  0
 23 22  1  0  0  0  0
 24 27  1  0  0  0  0
 25 39  1  6  0  0  0
 25 28  1  0  0  0  0
 27 29  1  0  0  0  0
 28 30  1  0  0  0  0
 28 27  2  0  0  0  0
 31 32  2  0  0  0  0
 31 19  1  0  0  0  0
 33 31  1  0  0  0  0
 34 33  1  0  0  0  0
 35  6  1  0  0  0  0
 35 37  1  0  0  0  0
 36 35  2  0  0  0  0
 38 37  1  0  0  0  0
 39 41  1  0  0  0  0
 40 39  2  0  0  0  0
 42 41  1  0  0  0  0
M  RAD  3  11   2  22   2  24   2
M  END
