Coordinates from ORCA-job 1g-Schema5-R9-P1+-B3LYPG-6-31G_dp-scan-d49-09-n400
 OpenBabel08231810273D

 42 43  0  0  0  0  0  0  0  0999 V2000
   -3.1746    0.4349   -1.2711 C   0  0  0  0  0  0  0  0  0  0  0  0
   -1.8277    0.2014   -0.8222 C   0  0  0  0  0  0  0  0  0  0  0  0
   -1.7469    1.0342    0.2112 C   0  0  0  0  0  0  0  0  0  0  0  0
   -2.4172    1.9453    0.9361 C   0  0  0  0  0  0  0  0  0  0  0  0
   -3.7218    2.0966    0.4110 C   0  0  0  0  0  0  0  0  0  0  0  0
   -4.0816    1.3218   -0.7061 C   0  0  0  0  0  0  0  0  0  0  0  0
   -3.4121   -0.1904   -2.1419 H   0  0  0  0  0  0  0  0  0  0  0  0
   -4.4087    2.7972    0.8738 H   0  0  0  0  0  0  0  0  0  0  0  0
   -2.0363    2.4906    1.7928 H   0  0  0  0  0  0  0  0  0  0  0  0
   -0.9503   -0.7156   -1.4413 N   0  0  0  0  0  0  0  0  0  0  0  0
   -1.4360   -1.3262   -2.4200 N   0  0  0  0  0  0  0  0  0  0  0  0
   -0.6438   -2.2463   -3.0947 C   0  0  0  0  0  0  0  0  0  0  0  0
   -1.2712   -2.8952   -4.1794 C   0  0  0  0  0  0  0  0  0  0  0  0
    0.6962   -2.5347   -2.7490 C   0  0  0  0  0  0  0  0  0  0  0  0
   -0.5634   -3.8328   -4.9186 C   0  0  0  0  0  0  0  0  0  0  0  0
   -2.3002   -2.6476   -4.4160 H   0  0  0  0  0  0  0  0  0  0  0  0
    1.3897   -3.4693   -3.4944 C   0  0  0  0  0  0  0  0  0  0  0  0
    1.1833   -2.0383   -1.9187 H   0  0  0  0  0  0  0  0  0  0  0  0
    0.7673   -4.1199   -4.5765 C   0  0  0  0  0  0  0  0  0  0  0  0
   -1.0268   -4.3413   -5.7550 H   0  0  0  0  0  0  0  0  0  0  0  0
    2.4180   -3.7066   -3.2495 H   0  0  0  0  0  0  0  0  0  0  0  0
    2.7263    1.0207    1.5851 C   0  0  0  0  0  0  0  0  0  0  0  0
    2.7493   -0.0429    0.7007 C   0  0  0  0  0  0  0  0  0  0  0  0
    3.7505    1.5468    2.0767 C   0  0  0  0  0  0  0  0  0  0  0  0
    4.0753   -0.4629    0.4148 C   0  0  0  0  0  0  0  0  0  0  0  0
    1.9031   -0.5450    0.2459 H   0  0  0  0  0  0  0  0  0  0  0  0
    5.0850    1.2474    1.8918 C   0  0  0  0  0  0  0  0  0  0  0  0
    5.2015    0.1639    0.9956 C   0  0  0  0  0  0  0  0  0  0  0  0
    5.9433    1.7323    2.3403 H   0  0  0  0  0  0  0  0  0  0  0  0
    6.1911   -0.2017    0.7430 H   0  0  0  0  0  0  0  0  0  0  0  0
    1.5836   -5.1203   -5.3398 C   0  0  0  0  0  0  0  0  0  0  0  0
    2.7395   -5.3765   -5.0823 O   0  0  0  0  0  0  0  0  0  0  0  0
    0.8894   -5.6998   -6.3377 O   0  0  0  0  0  0  0  0  0  0  0  0
    1.4878   -6.3288   -6.7758 H   0  0  0  0  0  0  0  0  0  0  0  0
   -5.4386    1.3996   -1.3486 C   0  0  0  0  0  0  0  0  0  0  0  0
   -5.7502    0.7372   -2.3107 O   0  0  0  0  0  0  0  0  0  0  0  0
   -6.2334    2.2850   -0.7284 O   0  0  0  0  0  0  0  0  0  0  0  0
   -7.0901    2.2934   -1.1901 H   0  0  0  0  0  0  0  0  0  0  0  0
    4.2296   -1.5996   -0.5339 C   0  0  0  0  0  0  0  0  0  0  0  0
    3.3021   -2.1491   -1.1068 O   0  0  0  0  0  0  0  0  0  0  0  0
    5.5081   -1.9814   -0.7109 O   0  0  0  0  0  0  0  0  0  0  0  0
    5.5002   -2.7253   -1.3365 H   0  0  0  0  0  0  0  0  0  0  0  0
  1  2  2  0  0  0  0
  1  6  1  0  0  0  0
  2  3  1  0  0  0  0
  3  4  2  0  0  0  0
  4  9  1  0  0  0  0
  5  8  1  0  0  0  0
  5  4  1  0  0  0  0
  6  5  2  0  0  0  0
  7  1  1  0  0  0  0
 10  2  1  0  0  0  0
 11 10  1  0  0  0  0
 12 14  1  0  0  0  0
 12 11  1  0  0  0  0
 13 12  2  0  0  0  0
 14 18  1  0  0  0  0
 15 19  2  0  0  0  0
 15 13  1  0  0  0  0
 16 13  1  0  0  0  0
 17 21  1  0  0  0  0
 17 14  2  0  0  0  0
 19 17  1  0  0  0  0
 20 15  1  0  0  0  0
 22 24  2  0  0  0  0
 23 22  1  0  0  0  0
 25 23  2  0  0  0  0
 25 28  1  0  0  0  0
 26 23  1  0  0  0  0
 27 24  1  0  0  0  0
 27 29  1  0  0  0  0
 28 27  2  0  0  0  0
 30 28  1  0  0  0  0
 31 32  2  0  0  0  0
 31 19  1  0  0  0  0
 33 31  1  0  0  0  0
 34 33  1  0  0  0  0
 35 37  1  0  0  0  0
 35  6  1  0  0  0  0
 36 35  2  0  0  0  0
 38 37  1  0  0  0  0
 39 25  1  0  0  0  0
 40 39  2  0  0  0  0
 41 39  1  0  0  0  0
 42 41  1  0  0  0  0
M  RAD  5   3   2  10   2  11   2  22   2  24   2
M  END
