Coordinates from ORCA-job 1g-Schema5-R9-P1+-B3LYPG-6-31G_dp-scan-d49-09-n400
 OpenBabel08231810273D

 42 45  0  0  1  0  0  0  0  0999 V2000
   -1.8963    0.6320   -1.2902 C   0  0  0  0  0  0  0  0  0  0  0  0
   -0.5669    0.3168   -1.0240 C   0  0  0  0  0  0  0  0  0  0  0  0
    0.2521    1.0932   -0.2004 C   0  0  0  0  0  0  0  0  0  0  0  0
   -0.2696    2.2440    0.3846 C   0  0  0  0  0  0  0  0  0  0  0  0
   -1.6027    2.5807    0.1374 C   0  0  0  0  0  0  0  0  0  0  0  0
   -2.4114    1.7809   -0.6914 C   0  0  0  0  0  0  0  0  0  0  0  0
   -2.5197    0.0214   -1.9322 H   0  0  0  0  0  0  0  0  0  0  0  0
   -2.0271    3.4721    0.5842 H   0  0  0  0  0  0  0  0  0  0  0  0
    0.3479    2.8770    1.0116 H   0  0  0  0  0  0  0  0  0  0  0  0
    0.1372   -0.7964   -1.5483 N   0  0  0  0  0  0  0  0  0  0  0  0
   -0.4679   -1.6311   -2.2792 N   0  0  0  0  0  0  0  0  0  0  0  0
    0.0623   -2.7467   -2.8900 C   0  0  0  0  0  0  0  0  0  0  0  0
   -0.9585   -3.5546   -3.4584 C   0  0  0  0  0  0  0  0  0  0  0  0
    1.4223   -3.1364   -3.0415 C   0  0  0  0  0  0  0  0  0  0  0  0
   -0.6479   -4.7343   -4.1144 C   0  0  0  0  0  0  0  0  0  0  0  0
   -1.9856   -3.2237   -3.3524 H   0  0  0  0  0  0  0  0  0  0  0  0
    1.7184   -4.3070   -3.7171 C   0  0  0  0  0  0  0  0  0  0  0  0
    2.2380   -2.5366   -2.6702 H   0  0  0  0  0  0  0  0  0  0  0  0
    0.6957   -5.1141   -4.2441 C   0  0  0  0  0  0  0  0  0  0  0  0
   -1.4295   -5.3558   -4.5340 H   0  0  0  0  0  0  0  0  0  0  0  0
    2.7463   -4.6246   -3.8532 H   0  0  0  0  0  0  0  0  0  0  0  0
    1.8822   -1.9883   -0.2455 C   0  0  0  0  0  0  0  0  0  0  0  0
    1.5734   -0.7936   -1.0379 C   0  0  2  0  0  0  0  0  0  0  0  0
    2.2560   -1.9680    0.9193 C   0  0  0  0  0  0  0  0  0  0  0  0
    1.6568    0.5014   -0.0887 C   0  0  2  0  0  0  0  0  0  0  0  0
    2.2147   -0.6186   -1.9082 H   0  0  0  0  0  0  0  0  0  0  0  0
    2.3529   -0.9422    1.9137 C   0  0  0  0  0  0  0  0  0  0  0  0
    2.0430    0.2619    1.3779 C   0  0  0  0  0  0  0  0  0  0  0  0
    2.6472   -1.0748    2.9472 H   0  0  0  0  0  0  0  0  0  0  0  0
    2.0875    1.1543    1.9941 H   0  0  0  0  0  0  0  0  0  0  0  0
    1.1082   -6.3733   -4.9497 C   0  0  0  0  0  0  0  0  0  0  0  0
    2.2631   -6.7166   -5.0711 O   0  0  0  0  0  0  0  0  0  0  0  0
    0.0563   -7.0648   -5.4214 O   0  0  0  0  0  0  0  0  0  0  0  0
    0.4036   -7.8619   -5.8575 H   0  0  0  0  0  0  0  0  0  0  0  0
   -3.8446    2.1136   -0.9797 C   0  0  0  0  0  0  0  0  0  0  0  0
   -4.5566    1.4351   -1.6866 O   0  0  0  0  0  0  0  0  0  0  0  0
   -4.2419    3.2439   -0.3679 O   0  0  0  0  0  0  0  0  0  0  0  0
   -5.1737    3.3901   -0.6052 H   0  0  0  0  0  0  0  0  0  0  0  0
    2.6657    1.4853   -0.7409 C   0  0  0  0  0  0  0  0  0  0  0  0
    3.1601    1.3230   -1.8308 O   0  0  0  0  0  0  0  0  0  0  0  0
    2.8895    2.5478    0.0445 O   0  0  0  0  0  0  0  0  0  0  0  0
    3.5091    3.1395   -0.4194 H   0  0  0  0  0  0  0  0  0  0  0  0
  1  2  2  0  0  0  0
  1  6  1  0  0  0  0
  2  3  1  0  0  0  0
  3 25  1  0  0  0  0
  3  4  2  0  0  0  0
  4  9  1  0  0  0  0
  5  4  1  0  0  0  0
  5  8  1  0  0  0  0
  6  5  2  0  0  0  0
  7  1  1  0  0  0  0
 10 23  1  0  0  0  0
 10  2  1  0  0  0  0
 11 10  1  0  0  0  0
 12 11  1  0  0  0  0
 13 16  1  0  0  0  0
 13 12  2  0  0  0  0
 14 12  1  0  0  0  0
 14 18  1  0  0  0  0
 15 13  1  0  0  0  0
 17 14  2  0  0  0  0
 19 15  2  0  0  0  0
 19 17  1  0  0  0  0
 20 15  1  0  0  0  0
 21 17  1  0  0  0  0
 22 24  2  0  0  0  0
 23 26  1  6  0  0  0
 23 22  1  0  0  0  0
 23 25  1  0  0  0  0
 24 27  1  0  0  0  0
 25 39  1  6  0  0  0
 25 28  1  0  0  0  0
 27 29  1  0  0  0  0
 28 27  2  0  0  0  0
 28 30  1  0  0  0  0
 31 19  1  0  0  0  0
 32 31  2  0  0  0  0
 33 31  1  0  0  0  0
 34 33  1  0  0  0  0
 35  6  1  0  0  0  0
 35 37  1  0  0  0  0
 36 35  2  0  0  0  0
 38 37  1  0  0  0  0
 39 41  1  0  0  0  0
 40 39  2  0  0  0  0
 42 41  1  0  0  0  0
M  RAD  3  11   2  22   2  24   2
M  END
