Coordinates from ORCA-job 1g-Schema5-R9-P1+-B3LYPG-6-31G_dp-scan-d49-09-n400
 OpenBabel08231810273D

 42 43  0  0  0  0  0  0  0  0999 V2000
   -3.2202    0.4376   -1.2839 C   0  0  0  0  0  0  0  0  0  0  0  0
   -1.8750    0.2131   -0.8252 C   0  0  0  0  0  0  0  0  0  0  0  0
   -1.8068    1.0470    0.2081 C   0  0  0  0  0  0  0  0  0  0  0  0
   -2.4885    1.9540    0.9276 C   0  0  0  0  0  0  0  0  0  0  0  0
   -3.7904    2.0966    0.3932 C   0  0  0  0  0  0  0  0  0  0  0  0
   -4.1370    1.3188   -0.7260 C   0  0  0  0  0  0  0  0  0  0  0  0
   -3.4474   -0.1900   -2.1558 H   0  0  0  0  0  0  0  0  0  0  0  0
   -4.4851    2.7929    0.8507 H   0  0  0  0  0  0  0  0  0  0  0  0
   -2.1178    2.5022    1.7870 H   0  0  0  0  0  0  0  0  0  0  0  0
   -0.9878   -0.6986   -1.4379 N   0  0  0  0  0  0  0  0  0  0  0  0
   -1.4630   -1.3141   -2.4185 N   0  0  0  0  0  0  0  0  0  0  0  0
   -0.6598   -2.2298   -3.0864 C   0  0  0  0  0  0  0  0  0  0  0  0
   -1.2755   -2.8858   -4.1735 C   0  0  0  0  0  0  0  0  0  0  0  0
    0.6800   -2.5074   -2.7316 C   0  0  0  0  0  0  0  0  0  0  0  0
   -0.5561   -3.8199   -4.9059 C   0  0  0  0  0  0  0  0  0  0  0  0
   -2.3048   -2.6464   -4.4172 H   0  0  0  0  0  0  0  0  0  0  0  0
    1.3852   -3.4385   -3.4703 C   0  0  0  0  0  0  0  0  0  0  0  0
    1.1585   -2.0056   -1.8996 H   0  0  0  0  0  0  0  0  0  0  0  0
    0.7746   -4.0963   -4.5547 C   0  0  0  0  0  0  0  0  0  0  0  0
   -1.0104   -4.3339   -5.7439 H   0  0  0  0  0  0  0  0  0  0  0  0
    2.4134   -3.6670   -3.2175 H   0  0  0  0  0  0  0  0  0  0  0  0
    2.8341    1.0257    1.6163 C   0  0  0  0  0  0  0  0  0  0  0  0
    2.8162   -0.0341    0.7283 C   0  0  0  0  0  0  0  0  0  0  0  0
    3.8768    1.5303    2.0910 C   0  0  0  0  0  0  0  0  0  0  0  0
    4.1276   -0.4805    0.4154 C   0  0  0  0  0  0  0  0  0  0  0  0
    1.9508   -0.5166    0.2889 H   0  0  0  0  0  0  0  0  0  0  0  0
    5.2007    1.2028    1.8784 C   0  0  0  0  0  0  0  0  0  0  0  0
    5.2776    0.1207    0.9764 C   0  0  0  0  0  0  0  0  0  0  0  0
    6.0777    1.6680    2.3115 H   0  0  0  0  0  0  0  0  0  0  0  0
    6.2542   -0.2642    0.7031 H   0  0  0  0  0  0  0  0  0  0  0  0
    1.6030   -5.0926   -5.3101 C   0  0  0  0  0  0  0  0  0  0  0  0
    2.7595   -5.3389   -5.0452 O   0  0  0  0  0  0  0  0  0  0  0  0
    0.9196   -5.6798   -6.3108 O   0  0  0  0  0  0  0  0  0  0  0  0
    1.5254   -6.3053   -6.7437 H   0  0  0  0  0  0  0  0  0  0  0  0
   -5.4899    1.3875   -1.3783 C   0  0  0  0  0  0  0  0  0  0  0  0
   -5.7913    0.7203   -2.3404 O   0  0  0  0  0  0  0  0  0  0  0  0
   -6.2963    2.2648   -0.7616 O   0  0  0  0  0  0  0  0  0  0  0  0
   -7.1507    2.2653   -1.2275 H   0  0  0  0  0  0  0  0  0  0  0  0
    4.2400   -1.6163   -0.5397 C   0  0  0  0  0  0  0  0  0  0  0  0
    3.2907   -2.1435   -1.0980 O   0  0  0  0  0  0  0  0  0  0  0  0
    5.5065   -2.0254   -0.7409 O   0  0  0  0  0  0  0  0  0  0  0  0
    5.4711   -2.7663   -1.3692 H   0  0  0  0  0  0  0  0  0  0  0  0
  1  2  2  0  0  0  0
  1  6  1  0  0  0  0
  2  3  1  0  0  0  0
  3  4  2  0  0  0  0
  4  9  1  0  0  0  0
  5  8  1  0  0  0  0
  5  4  1  0  0  0  0
  6  5  2  0  0  0  0
  7  1  1  0  0  0  0
 10  2  1  0  0  0  0
 11 10  1  0  0  0  0
 12 14  1  0  0  0  0
 12 11  1  0  0  0  0
 13 12  2  0  0  0  0
 14 18  1  0  0  0  0
 15 19  2  0  0  0  0
 15 13  1  0  0  0  0
 16 13  1  0  0  0  0
 17 21  1  0  0  0  0
 17 14  2  0  0  0  0
 19 17  1  0  0  0  0
 20 15  1  0  0  0  0
 22 24  2  0  0  0  0
 23 22  1  0  0  0  0
 25 23  2  0  0  0  0
 25 28  1  0  0  0  0
 26 23  1  0  0  0  0
 27 24  1  0  0  0  0
 27 29  1  0  0  0  0
 28 27  2  0  0  0  0
 30 28  1  0  0  0  0
 31 32  2  0  0  0  0
 31 19  1  0  0  0  0
 33 31  1  0  0  0  0
 34 33  1  0  0  0  0
 35 37  1  0  0  0  0
 35  6  1  0  0  0  0
 36 35  2  0  0  0  0
 38 37  1  0  0  0  0
 39 25  1  0  0  0  0
 40 39  2  0  0  0  0
 41 39  1  0  0  0  0
 42 41  1  0  0  0  0
M  RAD  5   3   2  10   2  11   2  22   2  24   2
M  END
