Coordinates from ORCA-job 1g-Schema5-R9-P1+-B3LYPG-6-31G_dp-scan-d49-09-n400
 OpenBabel08231810273D

 42 43  0  0  0  0  0  0  0  0999 V2000
   -3.2277    0.4376   -1.2856 C   0  0  0  0  0  0  0  0  0  0  0  0
   -1.8829    0.2155   -0.8248 C   0  0  0  0  0  0  0  0  0  0  0  0
   -1.8180    1.0496    0.2086 C   0  0  0  0  0  0  0  0  0  0  0  0
   -2.5025    1.9556    0.9269 C   0  0  0  0  0  0  0  0  0  0  0  0
   -3.8036    2.0958    0.3903 C   0  0  0  0  0  0  0  0  0  0  0  0
   -4.1470    1.3173   -0.7294 C   0  0  0  0  0  0  0  0  0  0  0  0
   -3.4523   -0.1905   -2.1578 H   0  0  0  0  0  0  0  0  0  0  0  0
   -4.5004    2.7909    0.8466 H   0  0  0  0  0  0  0  0  0  0  0  0
   -2.1341    2.5044    1.7868 H   0  0  0  0  0  0  0  0  0  0  0  0
   -0.9932   -0.6950   -1.4360 N   0  0  0  0  0  0  0  0  0  0  0  0
   -1.4662   -1.3113   -2.4171 N   0  0  0  0  0  0  0  0  0  0  0  0
   -0.6615   -2.2261   -3.0841 C   0  0  0  0  0  0  0  0  0  0  0  0
   -1.2761   -2.8827   -4.1715 C   0  0  0  0  0  0  0  0  0  0  0  0
    0.6783   -2.5028   -2.7284 C   0  0  0  0  0  0  0  0  0  0  0  0
   -0.5559   -3.8165   -4.9034 C   0  0  0  0  0  0  0  0  0  0  0  0
   -2.3054   -2.6439   -4.4157 H   0  0  0  0  0  0  0  0  0  0  0  0
    1.3843   -3.4337   -3.4667 C   0  0  0  0  0  0  0  0  0  0  0  0
    1.1568   -2.0009   -1.8964 H   0  0  0  0  0  0  0  0  0  0  0  0
    0.7747   -4.0921   -4.5513 C   0  0  0  0  0  0  0  0  0  0  0  0
   -1.0095   -4.3309   -5.7415 H   0  0  0  0  0  0  0  0  0  0  0  0
    2.4125   -3.6617   -3.2134 H   0  0  0  0  0  0  0  0  0  0  0  0
    2.8529    1.0262    1.6215 C   0  0  0  0  0  0  0  0  0  0  0  0
    2.8286   -0.0330    0.7329 C   0  0  0  0  0  0  0  0  0  0  0  0
    3.8985    1.5274    2.0933 C   0  0  0  0  0  0  0  0  0  0  0  0
    4.1376   -0.4834    0.4157 C   0  0  0  0  0  0  0  0  0  0  0  0
    1.9602   -0.5125    0.2961 H   0  0  0  0  0  0  0  0  0  0  0  0
    5.2207    1.1957    1.8761 C   0  0  0  0  0  0  0  0  0  0  0  0
    5.2913    0.1139    0.9733 C   0  0  0  0  0  0  0  0  0  0  0  0
    6.1005    1.6579    2.3066 H   0  0  0  0  0  0  0  0  0  0  0  0
    6.2658   -0.2739    0.6966 H   0  0  0  0  0  0  0  0  0  0  0  0
    1.6042   -5.0881   -5.3060 C   0  0  0  0  0  0  0  0  0  0  0  0
    2.7606   -5.3338   -5.0401 O   0  0  0  0  0  0  0  0  0  0  0  0
    0.9216   -5.6762   -6.3067 O   0  0  0  0  0  0  0  0  0  0  0  0
    1.5281   -6.3016   -6.7389 H   0  0  0  0  0  0  0  0  0  0  0  0
   -5.4990    1.3833   -1.3838 C   0  0  0  0  0  0  0  0  0  0  0  0
   -5.7969    0.7168   -2.3475 O   0  0  0  0  0  0  0  0  0  0  0  0
   -6.3073    2.2606   -0.7698 O   0  0  0  0  0  0  0  0  0  0  0  0
   -7.1605    2.2606   -1.2381 H   0  0  0  0  0  0  0  0  0  0  0  0
    4.2437   -1.6190   -0.5402 C   0  0  0  0  0  0  0  0  0  0  0  0
    3.2914   -2.1430   -1.0965 O   0  0  0  0  0  0  0  0  0  0  0  0
    5.5083   -2.0325   -0.7446 O   0  0  0  0  0  0  0  0  0  0  0  0
    5.4689   -2.7730   -1.3731 H   0  0  0  0  0  0  0  0  0  0  0  0
  1  2  2  0  0  0  0
  1  6  1  0  0  0  0
  2  3  1  0  0  0  0
  3  4  2  0  0  0  0
  4  9  1  0  0  0  0
  5  8  1  0  0  0  0
  5  4  1  0  0  0  0
  6  5  2  0  0  0  0
  7  1  1  0  0  0  0
 10  2  1  0  0  0  0
 11 10  1  0  0  0  0
 12 14  1  0  0  0  0
 12 11  1  0  0  0  0
 13 12  2  0  0  0  0
 14 18  1  0  0  0  0
 15 19  2  0  0  0  0
 15 13  1  0  0  0  0
 16 13  1  0  0  0  0
 17 21  1  0  0  0  0
 17 14  2  0  0  0  0
 19 17  1  0  0  0  0
 20 15  1  0  0  0  0
 22 24  2  0  0  0  0
 23 22  1  0  0  0  0
 25 23  2  0  0  0  0
 25 28  1  0  0  0  0
 26 23  1  0  0  0  0
 27 24  1  0  0  0  0
 27 29  1  0  0  0  0
 28 27  2  0  0  0  0
 30 28  1  0  0  0  0
 31 32  2  0  0  0  0
 31 19  1  0  0  0  0
 33 31  1  0  0  0  0
 34 33  1  0  0  0  0
 35 37  1  0  0  0  0
 35  6  1  0  0  0  0
 36 35  2  0  0  0  0
 38 37  1  0  0  0  0
 39 25  1  0  0  0  0
 40 39  2  0  0  0  0
 41 39  1  0  0  0  0
 42 41  1  0  0  0  0
M  RAD  5   3   2  10   2  11   2  22   2  24   2
M  END
