Coordinates from ORCA-job 1g-Schema5-R9-P1+-B3LYPG-6-31G_dp-scan-d49-09-n400
 OpenBabel08231810273D

 42 45  0  0  1  0  0  0  0  0999 V2000
   -1.9800    0.5721   -1.0778 C   0  0  0  0  0  0  0  0  0  0  0  0
   -0.6410    0.2383   -0.9236 C   0  0  0  0  0  0  0  0  0  0  0  0
    0.2513    0.9583   -0.1225 C   0  0  0  0  0  0  0  0  0  0  0  0
   -0.2100    2.0797    0.5571 C   0  0  0  0  0  0  0  0  0  0  0  0
   -1.5576    2.4346    0.4329 C   0  0  0  0  0  0  0  0  0  0  0  0
   -2.4334    1.6948   -0.3820 C   0  0  0  0  0  0  0  0  0  0  0  0
   -2.6603   -0.0087   -1.6898 H   0  0  0  0  0  0  0  0  0  0  0  0
   -1.9402    3.2984    0.9642 H   0  0  0  0  0  0  0  0  0  0  0  0
    0.4587    2.6735    1.1704 H   0  0  0  0  0  0  0  0  0  0  0  0
    0.0222   -0.8811   -1.4776 N   0  0  0  0  0  0  0  0  0  0  0  0
   -0.4906   -1.5517   -2.4136 N   0  0  0  0  0  0  0  0  0  0  0  0
    0.0275   -2.7256   -2.9301 C   0  0  0  0  0  0  0  0  0  0  0  0
   -0.4634   -3.0103   -4.2271 C   0  0  0  0  0  0  0  0  0  0  0  0
    0.8855   -3.6513   -2.2807 C   0  0  0  0  0  0  0  0  0  0  0  0
   -0.0461   -4.1491   -4.8993 C   0  0  0  0  0  0  0  0  0  0  0  0
   -1.1522   -2.3071   -4.6826 H   0  0  0  0  0  0  0  0  0  0  0  0
    1.2611   -4.8030   -2.9494 C   0  0  0  0  0  0  0  0  0  0  0  0
    1.1891   -3.5156   -1.2510 H   0  0  0  0  0  0  0  0  0  0  0  0
    0.8192   -5.0482   -4.2611 C   0  0  0  0  0  0  0  0  0  0  0  0
   -0.3992   -4.3581   -5.9015 H   0  0  0  0  0  0  0  0  0  0  0  0
    1.8965   -5.5423   -2.4733 H   0  0  0  0  0  0  0  0  0  0  0  0
    1.1151   -1.7072    0.5645 C   0  0  0  0  0  0  0  0  0  0  0  0
    1.3309   -1.0538   -0.7242 C   0  0  2  0  0  0  0  0  0  0  0  0
    1.7424   -1.4658    1.5918 C   0  0  0  0  0  0  0  0  0  0  0  0
    1.6767    0.4390   -0.2722 C   0  0  2  0  0  0  0  0  0  0  0  0
    2.0582   -1.5065   -1.3984 H   0  0  0  0  0  0  0  0  0  0  0  0
    2.4790   -0.3110    2.0128 C   0  0  0  0  0  0  0  0  0  0  0  0
    2.4848    0.6078    1.0169 C   0  0  0  0  0  0  0  0  0  0  0  0
    3.0414   -0.2073    2.9324 H   0  0  0  0  0  0  0  0  0  0  0  0
    3.0612    1.5231    1.1055 H   0  0  0  0  0  0  0  0  0  0  0  0
    1.2894   -6.3121   -4.9189 C   0  0  0  0  0  0  0  0  0  0  0  0
    2.0341   -7.1022   -4.3827 O   0  0  0  0  0  0  0  0  0  0  0  0
    0.7924   -6.4600   -6.1597 O   0  0  0  0  0  0  0  0  0  0  0  0
    1.1383   -7.2973   -6.5136 H   0  0  0  0  0  0  0  0  0  0  0  0
   -3.8803    2.0540   -0.5405 C   0  0  0  0  0  0  0  0  0  0  0  0
   -4.6489    1.4269   -1.2353 O   0  0  0  0  0  0  0  0  0  0  0  0
   -4.2193    3.1445    0.1703 O   0  0  0  0  0  0  0  0  0  0  0  0
   -5.1646    3.3108    0.0134 H   0  0  0  0  0  0  0  0  0  0  0  0
    2.3203    1.1568   -1.4780 C   0  0  0  0  0  0  0  0  0  0  0  0
    2.3506    0.6732   -2.5859 O   0  0  0  0  0  0  0  0  0  0  0  0
    2.7911    2.3673   -1.1557 O   0  0  0  0  0  0  0  0  0  0  0  0
    3.1594    2.7734   -1.9610 H   0  0  0  0  0  0  0  0  0  0  0  0
  1  2  2  0  0  0  0
  1  6  1  0  0  0  0
  2  3  1  0  0  0  0
  3  4  2  0  0  0  0
  4  9  1  0  0  0  0
  5  4  1  0  0  0  0
  5  8  1  0  0  0  0
  6  5  2  0  0  0  0
  7  1  1  0  0  0  0
 10  2  1  0  0  0  0
 10 23  1  0  0  0  0
 11 10  1  0  0  0  0
 12 11  1  0  0  0  0
 12 14  1  0  0  0  0
 13 12  2  0  0  0  0
 14 18  1  0  0  0  0
 15 19  2  0  0  0  0
 15 13  1  0  0  0  0
 16 13  1  0  0  0  0
 17 21  1  0  0  0  0
 17 14  2  0  0  0  0
 19 17  1  0  0  0  0
 20 15  1  0  0  0  0
 22 24  1  0  0  0  0
 23 26  1  6  0  0  0
 23 25  1  0  0  0  0
 23 22  1  0  0  0  0
 24 27  2  0  0  0  0
 25 39  1  6  0  0  0
 25  3  1  0  0  0  0
 25 28  1  0  0  0  0
 27 29  1  0  0  0  0
 28 30  1  0  0  0  0
 28 27  1  0  0  0  0
 31 32  2  0  0  0  0
 31 19  1  0  0  0  0
 33 31  1  0  0  0  0
 34 33  1  0  0  0  0
 35  6  1  0  0  0  0
 35 37  1  0  0  0  0
 36 35  2  0  0  0  0
 38 37  1  0  0  0  0
 39 41  1  0  0  0  0
 40 39  2  0  0  0  0
 42 41  1  0  0  0  0
M  RAD  4  11   2  22   3  24   2  28   2
M  END
