Coordinates from ORCA-job 1g-Schema5-R9-P1+-B3LYPG-6-31G_dp-scan-d49-09-n400
 OpenBabel08231810273D

 42 45  0  0  1  0  0  0  0  0999 V2000
   -1.9757    0.6402   -1.0933 C   0  0  0  0  0  0  0  0  0  0  0  0
   -0.6693    0.2132   -0.9254 C   0  0  0  0  0  0  0  0  0  0  0  0
    0.2263    0.7284    0.0470 C   0  0  0  0  0  0  0  0  0  0  0  0
   -0.2119    1.8181    0.8098 C   0  0  0  0  0  0  0  0  0  0  0  0
   -1.5299    2.2539    0.6759 C   0  0  0  0  0  0  0  0  0  0  0  0
   -2.4066    1.6850   -0.2712 C   0  0  0  0  0  0  0  0  0  0  0  0
   -2.6518    0.1896   -1.8114 H   0  0  0  0  0  0  0  0  0  0  0  0
   -1.8889    3.0732    1.2889 H   0  0  0  0  0  0  0  0  0  0  0  0
    0.4601    2.3080    1.5063 H   0  0  0  0  0  0  0  0  0  0  0  0
   -0.0372   -0.9027   -1.5082 N   0  0  0  0  0  0  0  0  0  0  0  0
   -0.4779   -1.4959   -2.5287 N   0  0  0  0  0  0  0  0  0  0  0  0
    0.0320   -2.6910   -3.0068 C   0  0  0  0  0  0  0  0  0  0  0  0
   -0.1697   -2.8782   -4.3929 C   0  0  0  0  0  0  0  0  0  0  0  0
    0.6112   -3.7233   -2.2275 C   0  0  0  0  0  0  0  0  0  0  0  0
    0.2887   -4.0332   -5.0111 C   0  0  0  0  0  0  0  0  0  0  0  0
   -0.6594   -2.0919   -4.9566 H   0  0  0  0  0  0  0  0  0  0  0  0
    1.0244   -4.8876   -2.8510 C   0  0  0  0  0  0  0  0  0  0  0  0
    0.6520   -3.6529   -1.1465 H   0  0  0  0  0  0  0  0  0  0  0  0
    0.8889   -5.0395   -4.2421 C   0  0  0  0  0  0  0  0  0  0  0  0
    0.1646   -4.1716   -6.0785 H   0  0  0  0  0  0  0  0  0  0  0  0
    1.4457   -5.7090   -2.2814 H   0  0  0  0  0  0  0  0  0  0  0  0
    0.7212   -1.1018    0.7803 C   0  0  0  0  0  0  0  0  0  0  0  0
    1.1879   -1.1239   -0.6207 C   0  0  2  0  0  0  0  0  0  0  0  0
    1.5285   -1.0583    1.7487 C   0  0  0  0  0  0  0  0  0  0  0  0
    1.6981    0.3683   -0.3880 C   0  0  2  0  0  0  0  0  0  0  0  0
    1.8576   -1.8868   -1.0025 H   0  0  0  0  0  0  0  0  0  0  0  0
    2.5633   -0.0975    1.8972 C   0  0  0  0  0  0  0  0  0  0  0  0
    2.7015    0.5840    0.7200 C   0  0  0  0  0  0  0  0  0  0  0  0
    3.2301    0.0097    2.7448 H   0  0  0  0  0  0  0  0  0  0  0  0
    3.4939    1.3072    0.5552 H   0  0  0  0  0  0  0  0  0  0  0  0
    1.3782   -6.3238   -4.8428 C   0  0  0  0  0  0  0  0  0  0  0  0
    1.8981   -7.2044   -4.1938 O   0  0  0  0  0  0  0  0  0  0  0  0
    1.1755   -6.3796   -6.1711 O   0  0  0  0  0  0  0  0  0  0  0  0
    1.5153   -7.2366   -6.4810 H   0  0  0  0  0  0  0  0  0  0  0  0
   -3.8147    2.1555   -0.4495 C   0  0  0  0  0  0  0  0  0  0  0  0
   -4.5784    1.6812   -1.2623 O   0  0  0  0  0  0  0  0  0  0  0  0
   -4.1343    3.1559    0.3928 O   0  0  0  0  0  0  0  0  0  0  0  0
   -5.0585    3.3997    0.2138 H   0  0  0  0  0  0  0  0  0  0  0  0
    2.0913    1.0526   -1.7051 C   0  0  0  0  0  0  0  0  0  0  0  0
    2.0575    0.4881   -2.7740 O   0  0  0  0  0  0  0  0  0  0  0  0
    2.4627    2.3239   -1.5145 O   0  0  0  0  0  0  0  0  0  0  0  0
    2.6987    2.7045   -2.3798 H   0  0  0  0  0  0  0  0  0  0  0  0
  1  2  2  0  0  0  0
  1  6  1  0  0  0  0
  2  3  1  0  0  0  0
  3  4  2  0  0  0  0
  4  9  1  0  0  0  0
  5  4  1  0  0  0  0
  5  8  1  0  0  0  0
  6  5  2  0  0  0  0
  7  1  1  0  0  0  0
 10  2  1  0  0  0  0
 10 23  1  0  0  0  0
 11 10  1  0  0  0  0
 12 11  1  0  0  0  0
 12 14  2  0  0  0  0
 13 12  1  0  0  0  0
 14 18  1  0  0  0  0
 15 13  2  0  0  0  0
 15 19  1  0  0  0  0
 16 13  1  0  0  0  0
 17 21  1  0  0  0  0
 17 14  1  0  0  0  0
 19 17  2  0  0  0  0
 20 15  1  0  0  0  0
 22 24  1  0  0  0  0
 23 26  1  6  0  0  0
 23 25  1  0  0  0  0
 23 22  1  0  0  0  0
 24 27  2  0  0  0  0
 25 39  1  6  0  0  0
 25  3  1  0  0  0  0
 25 28  1  0  0  0  0
 27 29  1  0  0  0  0
 28 27  1  0  0  0  0
 30 28  1  0  0  0  0
 31 19  1  0  0  0  0
 31 32  2  0  0  0  0
 33 31  1  0  0  0  0
 34 33  1  0  0  0  0
 35  6  1  0  0  0  0
 35 37  1  0  0  0  0
 36 35  2  0  0  0  0
 38 37  1  0  0  0  0
 39 41  1  0  0  0  0
 40 39  2  0  0  0  0
 42 41  1  0  0  0  0
M  RAD  4  11   2  22   3  24   2  28   2
M  END
