Coordinates from ORCA-job 1g-Schema5-R9-P1+-B3LYPG-6-31G_dp-scan-d49-09-n400
 OpenBabel08231810273D

 42 43  0  0  0  0  0  0  0  0999 V2000
   -3.0898    0.4298   -1.2496 C   0  0  0  0  0  0  0  0  0  0  0  0
   -1.7377    0.1854   -0.8230 C   0  0  0  0  0  0  0  0  0  0  0  0
   -1.6313    1.0211    0.2058 C   0  0  0  0  0  0  0  0  0  0  0  0
   -2.2801    1.9411    0.9388 C   0  0  0  0  0  0  0  0  0  0  0  0
   -3.5923    2.1022    0.4361 C   0  0  0  0  0  0  0  0  0  0  0  0
   -3.9785    1.3270   -0.6719 C   0  0  0  0  0  0  0  0  0  0  0  0
   -3.3480   -0.1952   -2.1145 H   0  0  0  0  0  0  0  0  0  0  0  0
   -4.2648    2.8105    0.9084 H   0  0  0  0  0  0  0  0  0  0  0  0
   -1.8785    2.4859    1.7864 H   0  0  0  0  0  0  0  0  0  0  0  0
   -0.8787   -0.7420   -1.4531 N   0  0  0  0  0  0  0  0  0  0  0  0
   -1.3846   -1.3459   -2.4256 N   0  0  0  0  0  0  0  0  0  0  0  0
   -0.6135   -2.2756   -3.1118 C   0  0  0  0  0  0  0  0  0  0  0  0
   -1.2640   -2.9104   -4.1913 C   0  0  0  0  0  0  0  0  0  0  0  0
    0.7262   -2.5857   -2.7839 C   0  0  0  0  0  0  0  0  0  0  0  0
   -0.5797   -3.8547   -4.9440 C   0  0  0  0  0  0  0  0  0  0  0  0
   -2.2920   -2.6461   -4.4139 H   0  0  0  0  0  0  0  0  0  0  0  0
    1.3961   -3.5268   -3.5429 C   0  0  0  0  0  0  0  0  0  0  0  0
    1.2315   -2.1016   -1.9569 H   0  0  0  0  0  0  0  0  0  0  0  0
    0.7508   -4.1629   -4.6203 C   0  0  0  0  0  0  0  0  0  0  0  0
   -1.0611   -4.3522   -5.7768 H   0  0  0  0  0  0  0  0  0  0  0  0
    2.4240   -3.7820   -3.3141 H   0  0  0  0  0  0  0  0  0  0  0  0
    2.5314    1.0067    1.5314 C   0  0  0  0  0  0  0  0  0  0  0  0
    2.6311   -0.0622    0.6565 C   0  0  0  0  0  0  0  0  0  0  0  0
    3.5201    1.5729    2.0511 C   0  0  0  0  0  0  0  0  0  0  0  0
    3.9816   -0.4305    0.4198 C   0  0  0  0  0  0  0  0  0  0  0  0
    1.8228   -0.6010    0.1759 H   0  0  0  0  0  0  0  0  0  0  0  0
    4.8710    1.3284    1.9173 C   0  0  0  0  0  0  0  0  0  0  0  0
    5.0611    0.2442    1.0342 C   0  0  0  0  0  0  0  0  0  0  0  0
    5.6927    1.8499    2.3924 H   0  0  0  0  0  0  0  0  0  0  0  0
    6.0726   -0.0842    0.8202 H   0  0  0  0  0  0  0  0  0  0  0  0
    1.5425   -5.1714   -5.3986 C   0  0  0  0  0  0  0  0  0  0  0  0
    2.6973   -5.4466   -5.1563 O   0  0  0  0  0  0  0  0  0  0  0  0
    0.8278   -5.7343   -6.3916 O   0  0  0  0  0  0  0  0  0  0  0  0
    1.4115   -6.3697   -6.8403 H   0  0  0  0  0  0  0  0  0  0  0  0
   -5.3455    1.4156   -1.2914 C   0  0  0  0  0  0  0  0  0  0  0  0
   -5.6804    0.7518   -2.2447 O   0  0  0  0  0  0  0  0  0  0  0  0
   -6.1217    2.3097   -0.6601 O   0  0  0  0  0  0  0  0  0  0  0  0
   -6.9864    2.3238   -1.1065 H   0  0  0  0  0  0  0  0  0  0  0  0
    4.2129   -1.5675   -0.5137 C   0  0  0  0  0  0  0  0  0  0  0  0
    3.3283   -2.1556   -1.1148 O   0  0  0  0  0  0  0  0  0  0  0  0
    5.5106   -1.9013   -0.6405 O   0  0  0  0  0  0  0  0  0  0  0  0
    5.5541   -2.6497   -1.2594 H   0  0  0  0  0  0  0  0  0  0  0  0
  1  2  2  0  0  0  0
  1  6  1  0  0  0  0
  2  3  1  0  0  0  0
  3  4  2  0  0  0  0
  4  9  1  0  0  0  0
  5  8  1  0  0  0  0
  5  4  1  0  0  0  0
  6  5  2  0  0  0  0
  7  1  1  0  0  0  0
 10  2  1  0  0  0  0
 11 10  1  0  0  0  0
 12 14  1  0  0  0  0
 12 11  1  0  0  0  0
 13 12  2  0  0  0  0
 14 18  1  0  0  0  0
 15 19  2  0  0  0  0
 15 13  1  0  0  0  0
 16 13  1  0  0  0  0
 17 21  1  0  0  0  0
 17 14  2  0  0  0  0
 19 17  1  0  0  0  0
 20 15  1  0  0  0  0
 22 24  2  0  0  0  0
 23 22  1  0  0  0  0
 25 23  2  0  0  0  0
 25 28  1  0  0  0  0
 26 23  1  0  0  0  0
 27 24  1  0  0  0  0
 27 29  1  0  0  0  0
 28 27  2  0  0  0  0
 30 28  1  0  0  0  0
 31 32  2  0  0  0  0
 31 19  1  0  0  0  0
 33 31  1  0  0  0  0
 34 33  1  0  0  0  0
 35  6  1  0  0  0  0
 35 37  1  0  0  0  0
 36 35  2  0  0  0  0
 38 37  1  0  0  0  0
 39 25  1  0  0  0  0
 40 39  2  0  0  0  0
 41 39  1  0  0  0  0
 42 41  1  0  0  0  0
M  RAD  5   3   2  10   2  11   2  22   2  24   2
M  END
