Coordinates from ORCA-job 1g-Schema5-R9-P1+-B3LYPG-6-31G_dp-scan-d49-09-n400
 OpenBabel08231810273D

 42 45  0  0  1  0  0  0  0  0999 V2000
   -1.9802    0.5749   -1.0779 C   0  0  0  0  0  0  0  0  0  0  0  0
   -0.6415    0.2394   -0.9265 C   0  0  0  0  0  0  0  0  0  0  0  0
    0.2521    0.9526   -0.1204 C   0  0  0  0  0  0  0  0  0  0  0  0
   -0.2081    2.0699    0.5664 C   0  0  0  0  0  0  0  0  0  0  0  0
   -1.5557    2.4265    0.4457 C   0  0  0  0  0  0  0  0  0  0  0  0
   -2.4324    1.6933   -0.3741 C   0  0  0  0  0  0  0  0  0  0  0  0
   -2.6613   -0.0014   -1.6931 H   0  0  0  0  0  0  0  0  0  0  0  0
   -1.9374    3.2870    0.9830 H   0  0  0  0  0  0  0  0  0  0  0  0
    0.4614    2.6594    1.1830 H   0  0  0  0  0  0  0  0  0  0  0  0
    0.0209   -0.8788   -1.4838 N   0  0  0  0  0  0  0  0  0  0  0  0
   -0.4892   -1.5459   -2.4234 N   0  0  0  0  0  0  0  0  0  0  0  0
    0.0283   -2.7218   -2.9366 C   0  0  0  0  0  0  0  0  0  0  0  0
   -0.4456   -3.0004   -4.2410 C   0  0  0  0  0  0  0  0  0  0  0  0
    0.8689   -3.6550   -2.2757 C   0  0  0  0  0  0  0  0  0  0  0  0
   -0.0264   -4.1412   -4.9090 C   0  0  0  0  0  0  0  0  0  0  0  0
   -1.1223   -2.2915   -4.7056 H   0  0  0  0  0  0  0  0  0  0  0  0
    1.2459   -4.8085   -2.9406 C   0  0  0  0  0  0  0  0  0  0  0  0
    1.1569   -3.5234   -1.2409 H   0  0  0  0  0  0  0  0  0  0  0  0
    0.8224   -5.0480   -4.2595 C   0  0  0  0  0  0  0  0  0  0  0  0
   -0.3659   -4.3458   -5.9168 H   0  0  0  0  0  0  0  0  0  0  0  0
    1.8678   -5.5537   -2.4560 H   0  0  0  0  0  0  0  0  0  0  0  0
    1.0927   -1.6858    0.5743 C   0  0  0  0  0  0  0  0  0  0  0  0
    1.3249   -1.0558   -0.7226 C   0  0  2  0  0  0  0  0  0  0  0  0
    1.7233   -1.4469    1.6005 C   0  0  0  0  0  0  0  0  0  0  0  0
    1.6778    0.4375   -0.2794 C   0  0  2  0  0  0  0  0  0  0  0  0
    2.0523   -1.5231   -1.3862 H   0  0  0  0  0  0  0  0  0  0  0  0
    2.4768   -0.2986    2.0096 C   0  0  0  0  0  0  0  0  0  0  0  0
    2.4941    0.6097    1.0040 C   0  0  0  0  0  0  0  0  0  0  0  0
    3.0431   -0.1946    2.9267 H   0  0  0  0  0  0  0  0  0  0  0  0
    3.0840    1.5174    1.0804 H   0  0  0  0  0  0  0  0  0  0  0  0
    1.2929   -6.3142   -4.9123 C   0  0  0  0  0  0  0  0  0  0  0  0
    2.0230   -7.1111   -4.3663 O   0  0  0  0  0  0  0  0  0  0  0  0
    0.8136   -6.4562   -6.1608 O   0  0  0  0  0  0  0  0  0  0  0  0
    1.1585   -7.2955   -6.5109 H   0  0  0  0  0  0  0  0  0  0  0  0
   -3.8791    2.0546   -0.5293 C   0  0  0  0  0  0  0  0  0  0  0  0
   -4.6483    1.4334   -1.2288 O   0  0  0  0  0  0  0  0  0  0  0  0
   -4.2169    3.1406    0.1889 O   0  0  0  0  0  0  0  0  0  0  0  0
   -5.1620    3.3091    0.0332 H   0  0  0  0  0  0  0  0  0  0  0  0
    2.3128    1.1509   -1.4919 C   0  0  0  0  0  0  0  0  0  0  0  0
    2.3341    0.6632   -2.5984 O   0  0  0  0  0  0  0  0  0  0  0  0
    2.7854    2.3627   -1.1779 O   0  0  0  0  0  0  0  0  0  0  0  0
    3.1477    2.7659   -1.9874 H   0  0  0  0  0  0  0  0  0  0  0  0
  1  2  2  0  0  0  0
  1  6  1  0  0  0  0
  2  3  1  0  0  0  0
  3  4  2  0  0  0  0
  4  9  1  0  0  0  0
  5  4  1  0  0  0  0
  5  8  1  0  0  0  0
  6  5  2  0  0  0  0
  7  1  1  0  0  0  0
 10  2  1  0  0  0  0
 10 23  1  0  0  0  0
 11 10  1  0  0  0  0
 12 11  1  0  0  0  0
 12 14  1  0  0  0  0
 13 12  2  0  0  0  0
 14 18  1  0  0  0  0
 15 19  2  0  0  0  0
 15 13  1  0  0  0  0
 16 13  1  0  0  0  0
 17 21  1  0  0  0  0
 17 14  2  0  0  0  0
 19 17  1  0  0  0  0
 20 15  1  0  0  0  0
 22 24  1  0  0  0  0
 23 26  1  6  0  0  0
 23 25  1  0  0  0  0
 23 22  1  0  0  0  0
 24 27  2  0  0  0  0
 25 39  1  6  0  0  0
 25  3  1  0  0  0  0
 25 28  1  0  0  0  0
 27 29  1  0  0  0  0
 28 30  1  0  0  0  0
 28 27  1  0  0  0  0
 31 32  2  0  0  0  0
 31 19  1  0  0  0  0
 33 31  1  0  0  0  0
 34 33  1  0  0  0  0
 35  6  1  0  0  0  0
 35 37  1  0  0  0  0
 36 35  2  0  0  0  0
 38 37  1  0  0  0  0
 39 41  1  0  0  0  0
 40 39  2  0  0  0  0
 42 41  1  0  0  0  0
M  RAD  4  11   2  22   3  24   2  28   2
M  END
