Coordinates from ORCA-job 1g-Schema5-R9-P1+-B3LYPG-6-31G_dp-scan-d49-09-n400
 OpenBabel08231810273D

 42 43  0  0  0  0  0  0  0  0999 V2000
   -3.0659    0.4281   -1.2434 C   0  0  0  0  0  0  0  0  0  0  0  0
   -1.7116    0.1818   -0.8253 C   0  0  0  0  0  0  0  0  0  0  0  0
   -1.5959    1.0199    0.2007 C   0  0  0  0  0  0  0  0  0  0  0  0
   -2.2376    1.9432    0.9358 C   0  0  0  0  0  0  0  0  0  0  0  0
   -3.5529    2.1058    0.4416 C   0  0  0  0  0  0  0  0  0  0  0  0
   -3.9485    1.3287   -0.6618 C   0  0  0  0  0  0  0  0  0  0  0  0
   -3.3315   -0.1981   -2.1053 H   0  0  0  0  0  0  0  0  0  0  0  0
   -4.2206    2.8166    0.9168 H   0  0  0  0  0  0  0  0  0  0  0  0
   -1.8288    2.4891    1.7790 H   0  0  0  0  0  0  0  0  0  0  0  0
   -0.8585   -0.7490   -1.4584 N   0  0  0  0  0  0  0  0  0  0  0  0
   -1.3711   -1.3522   -2.4281 N   0  0  0  0  0  0  0  0  0  0  0  0
   -0.6058   -2.2848   -3.1171 C   0  0  0  0  0  0  0  0  0  0  0  0
   -1.2621   -2.9161   -4.1951 C   0  0  0  0  0  0  0  0  0  0  0  0
    0.7338   -2.6002   -2.7938 C   0  0  0  0  0  0  0  0  0  0  0  0
   -0.5836   -3.8619   -4.9511 C   0  0  0  0  0  0  0  0  0  0  0  0
   -2.2898   -2.6479   -4.4140 H   0  0  0  0  0  0  0  0  0  0  0  0
    1.3980   -3.5426   -3.5563 C   0  0  0  0  0  0  0  0  0  0  0  0
    1.2428   -2.1192   -1.9673 H   0  0  0  0  0  0  0  0  0  0  0  0
    0.7469   -4.1750   -4.6324 C   0  0  0  0  0  0  0  0  0  0  0  0
   -1.0696   -4.3568   -5.7829 H   0  0  0  0  0  0  0  0  0  0  0  0
    2.4258   -3.8021   -3.3315 H   0  0  0  0  0  0  0  0  0  0  0  0
    2.4744    0.9978    1.5189 C   0  0  0  0  0  0  0  0  0  0  0  0
    2.5969   -0.0708    0.6458 C   0  0  0  0  0  0  0  0  0  0  0  0
    3.4524    1.5757    2.0462 C   0  0  0  0  0  0  0  0  0  0  0  0
    3.9538   -0.4221    0.4216 C   0  0  0  0  0  0  0  0  0  0  0  0
    1.8001   -0.6202    0.1581 H   0  0  0  0  0  0  0  0  0  0  0  0
    4.8075    1.3491    1.9256 C   0  0  0  0  0  0  0  0  0  0  0  0
    5.0190    0.2665    1.0451 C   0  0  0  0  0  0  0  0  0  0  0  0
    5.6180    1.8811    2.4081 H   0  0  0  0  0  0  0  0  0  0  0  0
    6.0366   -0.0496    0.8411 H   0  0  0  0  0  0  0  0  0  0  0  0
    1.5324   -5.1853   -5.4147 C   0  0  0  0  0  0  0  0  0  0  0  0
    2.6870   -5.4650   -5.1764 O   0  0  0  0  0  0  0  0  0  0  0  0
    0.8125   -5.7443   -6.4061 O   0  0  0  0  0  0  0  0  0  0  0  0
    1.3925   -6.3811   -6.8575 H   0  0  0  0  0  0  0  0  0  0  0  0
   -5.3195    1.4191   -1.2720 C   0  0  0  0  0  0  0  0  0  0  0  0
   -5.6624    0.7543   -2.2218 O   0  0  0  0  0  0  0  0  0  0  0  0
   -6.0890    2.3173   -0.6382 O   0  0  0  0  0  0  0  0  0  0  0  0
   -6.9564    2.3328   -1.0792 H   0  0  0  0  0  0  0  0  0  0  0  0
    4.2071   -1.5571   -0.5089 C   0  0  0  0  0  0  0  0  0  0  0  0
    3.3348   -2.1560   -1.1169 O   0  0  0  0  0  0  0  0  0  0  0  0
    5.5099   -1.8751   -0.6240 O   0  0  0  0  0  0  0  0  0  0  0  0
    5.5681   -2.6234   -1.2417 H   0  0  0  0  0  0  0  0  0  0  0  0
  1  2  2  0  0  0  0
  1  6  1  0  0  0  0
  2  3  1  0  0  0  0
  3  4  2  0  0  0  0
  4  9  1  0  0  0  0
  5  8  1  0  0  0  0
  5  4  1  0  0  0  0
  6  5  2  0  0  0  0
  7  1  1  0  0  0  0
 10  2  1  0  0  0  0
 11 10  1  0  0  0  0
 12 14  1  0  0  0  0
 12 11  1  0  0  0  0
 13 12  2  0  0  0  0
 14 18  1  0  0  0  0
 15 19  2  0  0  0  0
 15 13  1  0  0  0  0
 16 13  1  0  0  0  0
 17 21  1  0  0  0  0
 17 14  2  0  0  0  0
 19 17  1  0  0  0  0
 20 15  1  0  0  0  0
 22 24  2  0  0  0  0
 23 22  1  0  0  0  0
 25 23  2  0  0  0  0
 25 28  1  0  0  0  0
 26 23  1  0  0  0  0
 27 24  1  0  0  0  0
 27 29  1  0  0  0  0
 28 27  2  0  0  0  0
 30 28  1  0  0  0  0
 31 32  2  0  0  0  0
 31 19  1  0  0  0  0
 33 31  1  0  0  0  0
 34 33  1  0  0  0  0
 35  6  1  0  0  0  0
 35 37  1  0  0  0  0
 36 35  2  0  0  0  0
 38 37  1  0  0  0  0
 39 25  1  0  0  0  0
 40 39  2  0  0  0  0
 41 39  1  0  0  0  0
 42 41  1  0  0  0  0
M  RAD  5   3   2  10   2  11   2  22   2  24   2
M  END
