Coordinates from ORCA-job 1g-Schema5-R9-P1+-B3LYPG-6-31G_dp-scan-d49-09-n400
 OpenBabel08231810273D

 42 45  0  0  1  0  0  0  0  0999 V2000
   -1.9811    0.5769   -1.0772 C   0  0  0  0  0  0  0  0  0  0  0  0
   -0.6426    0.2402   -0.9282 C   0  0  0  0  0  0  0  0  0  0  0  0
    0.2521    0.9490   -0.1193 C   0  0  0  0  0  0  0  0  0  0  0  0
   -0.2069    2.0636    0.5725 C   0  0  0  0  0  0  0  0  0  0  0  0
   -1.5546    2.4212    0.4545 C   0  0  0  0  0  0  0  0  0  0  0  0
   -2.4322    1.6924   -0.3681 C   0  0  0  0  0  0  0  0  0  0  0  0
   -2.6632    0.0034   -1.6943 H   0  0  0  0  0  0  0  0  0  0  0  0
   -1.9355    3.2795    0.9960 H   0  0  0  0  0  0  0  0  0  0  0  0
    0.4635    2.6500    1.1911 H   0  0  0  0  0  0  0  0  0  0  0  0
    0.0189   -0.8774   -1.4876 N   0  0  0  0  0  0  0  0  0  0  0  0
   -0.4892   -1.5411   -2.4306 N   0  0  0  0  0  0  0  0  0  0  0  0
    0.0281   -2.7184   -2.9416 C   0  0  0  0  0  0  0  0  0  0  0  0
   -0.4309   -2.9919   -4.2522 C   0  0  0  0  0  0  0  0  0  0  0  0
    0.8539   -3.6576   -2.2711 C   0  0  0  0  0  0  0  0  0  0  0  0
   -0.0097   -4.1341   -4.9164 C   0  0  0  0  0  0  0  0  0  0  0  0
   -1.0973   -2.2782   -4.7243 H   0  0  0  0  0  0  0  0  0  0  0  0
    1.2324   -4.8127   -2.9327 C   0  0  0  0  0  0  0  0  0  0  0  0
    1.1285   -3.5292   -1.2321 H   0  0  0  0  0  0  0  0  0  0  0  0
    0.8249   -5.0472   -4.2574 C   0  0  0  0  0  0  0  0  0  0  0  0
   -0.3373   -4.3351   -5.9289 H   0  0  0  0  0  0  0  0  0  0  0  0
    1.8428   -5.5627   -2.4410 H   0  0  0  0  0  0  0  0  0  0  0  0
    1.0770   -1.6712    0.5810 C   0  0  0  0  0  0  0  0  0  0  0  0
    1.3195   -1.0573   -0.7216 C   0  0  2  0  0  0  0  0  0  0  0  0
    1.7127   -1.4349    1.6049 C   0  0  0  0  0  0  0  0  0  0  0  0
    1.6779    0.4362   -0.2849 C   0  0  2  0  0  0  0  0  0  0  0  0
    2.0467   -1.5354   -1.3774 H   0  0  0  0  0  0  0  0  0  0  0  0
    2.4776   -0.2910    2.0051 C   0  0  0  0  0  0  0  0  0  0  0  0
    2.5011    0.6105    0.9934 C   0  0  0  0  0  0  0  0  0  0  0  0
    3.0480   -0.1872    2.9197 H   0  0  0  0  0  0  0  0  0  0  0  0
    3.1006    1.5127    1.0613 H   0  0  0  0  0  0  0  0  0  0  0  0
    1.2958   -6.3154   -4.9061 C   0  0  0  0  0  0  0  0  0  0  0  0
    2.0138   -7.1178   -4.3519 O   0  0  0  0  0  0  0  0  0  0  0  0
    0.8325   -6.4522   -6.1612 O   0  0  0  0  0  0  0  0  0  0  0  0
    1.1768   -7.2931   -6.5080 H   0  0  0  0  0  0  0  0  0  0  0  0
   -3.8788    2.0552   -0.5206 C   0  0  0  0  0  0  0  0  0  0  0  0
   -4.6489    1.4376   -1.2222 O   0  0  0  0  0  0  0  0  0  0  0  0
   -4.2156    3.1378    0.2033 O   0  0  0  0  0  0  0  0  0  0  0  0
   -5.1608    3.3073    0.0493 H   0  0  0  0  0  0  0  0  0  0  0  0
    2.3058    1.1463   -1.5028 C   0  0  0  0  0  0  0  0  0  0  0  0
    2.3206    0.6553   -2.6079 O   0  0  0  0  0  0  0  0  0  0  0  0
    2.7821    2.3581   -1.1945 O   0  0  0  0  0  0  0  0  0  0  0  0
    3.1405    2.7586   -2.0070 H   0  0  0  0  0  0  0  0  0  0  0  0
  1  2  2  0  0  0  0
  1  6  1  0  0  0  0
  2  3  1  0  0  0  0
  3  4  2  0  0  0  0
  4  9  1  0  0  0  0
  5  4  1  0  0  0  0
  5  8  1  0  0  0  0
  6  5  2  0  0  0  0
  7  1  1  0  0  0  0
 10  2  1  0  0  0  0
 10 23  1  0  0  0  0
 11 10  1  0  0  0  0
 12 11  1  0  0  0  0
 12 14  1  0  0  0  0
 13 12  2  0  0  0  0
 14 18  1  0  0  0  0
 15 19  2  0  0  0  0
 15 13  1  0  0  0  0
 16 13  1  0  0  0  0
 17 21  1  0  0  0  0
 17 14  2  0  0  0  0
 19 17  1  0  0  0  0
 20 15  1  0  0  0  0
 22 24  1  0  0  0  0
 23 26  1  6  0  0  0
 23 25  1  0  0  0  0
 23 22  1  0  0  0  0
 24 27  2  0  0  0  0
 25 39  1  6  0  0  0
 25  3  1  0  0  0  0
 25 28  1  0  0  0  0
 27 29  1  0  0  0  0
 28 30  1  0  0  0  0
 28 27  1  0  0  0  0
 31 32  2  0  0  0  0
 31 19  1  0  0  0  0
 33 31  1  0  0  0  0
 34 33  1  0  0  0  0
 35  6  1  0  0  0  0
 35 37  1  0  0  0  0
 36 35  2  0  0  0  0
 38 37  1  0  0  0  0
 39 41  1  0  0  0  0
 40 39  2  0  0  0  0
 42 41  1  0  0  0  0
M  RAD  4  11   2  22   3  24   2  28   2
M  END
