Coordinates from ORCA-job 1g-Schema5-R9-P1+-B3LYPG-6-31G_dp-scan-d49-09-n400
 OpenBabel08231810273D

 42 43  0  0  0  0  0  0  0  0999 V2000
   -2.9871    0.4245   -1.2246 C   0  0  0  0  0  0  0  0  0  0  0  0
   -1.6259    0.1771   -0.8326 C   0  0  0  0  0  0  0  0  0  0  0  0
   -1.4811    1.0261    0.1815 C   0  0  0  0  0  0  0  0  0  0  0  0
   -2.1026    1.9612    0.9191 C   0  0  0  0  0  0  0  0  0  0  0  0
   -3.4280    2.1236    0.4524 C   0  0  0  0  0  0  0  0  0  0  0  0
   -3.8519    1.3364   -0.6331 C   0  0  0  0  0  0  0  0  0  0  0  0
   -3.2757   -0.2078   -2.0741 H   0  0  0  0  0  0  0  0  0  0  0  0
   -4.0821    2.8422    0.9346 H   0  0  0  0  0  0  0  0  0  0  0  0
   -1.6721    2.5146    1.7464 H   0  0  0  0  0  0  0  0  0  0  0  0
   -0.7889   -0.7658   -1.4716 N   0  0  0  0  0  0  0  0  0  0  0  0
   -1.3214   -1.3666   -2.4322 N   0  0  0  0  0  0  0  0  0  0  0  0
   -0.5766   -2.3108   -3.1288 C   0  0  0  0  0  0  0  0  0  0  0  0
   -1.2535   -2.9262   -4.2030 C   0  0  0  0  0  0  0  0  0  0  0  0
    0.7607   -2.6503   -2.8200 C   0  0  0  0  0  0  0  0  0  0  0  0
   -0.5982   -3.8783   -4.9717 C   0  0  0  0  0  0  0  0  0  0  0  0
   -2.2788   -2.6398   -4.4101 H   0  0  0  0  0  0  0  0  0  0  0  0
    1.4017   -3.5986   -3.5953 C   0  0  0  0  0  0  0  0  0  0  0  0
    1.2852   -2.1845   -1.9943 H   0  0  0  0  0  0  0  0  0  0  0  0
    0.7301   -4.2140   -4.6687 C   0  0  0  0  0  0  0  0  0  0  0  0
   -1.1007   -4.3604   -5.8012 H   0  0  0  0  0  0  0  0  0  0  0  0
    2.4272   -3.8780   -3.3839 H   0  0  0  0  0  0  0  0  0  0  0  0
    2.2844    0.9350    1.4908 C   0  0  0  0  0  0  0  0  0  0  0  0
    2.4905   -0.1256    0.6204 C   0  0  0  0  0  0  0  0  0  0  0  0
    3.2229    1.5606    2.0372 C   0  0  0  0  0  0  0  0  0  0  0  0
    3.8688   -0.4011    0.4274 C   0  0  0  0  0  0  0  0  0  0  0  0
    1.7371   -0.7154    0.1125 H   0  0  0  0  0  0  0  0  0  0  0  0
    4.5901    1.4124    1.9505 C   0  0  0  0  0  0  0  0  0  0  0  0
    4.8801    0.3434    1.0750 C   0  0  0  0  0  0  0  0  0  0  0  0
    5.3582    1.9861    2.4541 H   0  0  0  0  0  0  0  0  0  0  0  0
    5.9180    0.0822    0.8971 H   0  0  0  0  0  0  0  0  0  0  0  0
    1.4917   -5.2318   -5.4647 C   0  0  0  0  0  0  0  0  0  0  0  0
    2.6437   -5.5318   -5.2394 O   0  0  0  0  0  0  0  0  0  0  0  0
    0.7536   -5.7723   -6.4531 O   0  0  0  0  0  0  0  0  0  0  0  0
    1.3190   -6.4153   -6.9140 H   0  0  0  0  0  0  0  0  0  0  0  0
   -5.2356    1.4280   -1.2135 C   0  0  0  0  0  0  0  0  0  0  0  0
   -5.6040    0.7543   -2.1473 O   0  0  0  0  0  0  0  0  0  0  0  0
   -5.9863    2.3368   -0.5721 O   0  0  0  0  0  0  0  0  0  0  0  0
   -6.8633    2.3515   -0.9936 H   0  0  0  0  0  0  0  0  0  0  0  0
    4.2032   -1.5217   -0.4964 C   0  0  0  0  0  0  0  0  0  0  0  0
    3.3777   -2.1641   -1.1240 O   0  0  0  0  0  0  0  0  0  0  0  0
    5.5232   -1.7706   -0.5788 O   0  0  0  0  0  0  0  0  0  0  0  0
    5.6363   -2.5148   -1.1940 H   0  0  0  0  0  0  0  0  0  0  0  0
  1  2  2  0  0  0  0
  1  6  1  0  0  0  0
  2  3  1  0  0  0  0
  3  4  2  0  0  0  0
  4  9  1  0  0  0  0
  5  4  1  0  0  0  0
  5  8  1  0  0  0  0
  6  5  2  0  0  0  0
  7  1  1  0  0  0  0
 10  2  1  0  0  0  0
 11 10  1  0  0  0  0
 12 14  1  0  0  0  0
 12 11  1  0  0  0  0
 13 12  2  0  0  0  0
 14 18  1  0  0  0  0
 15 19  2  0  0  0  0
 15 13  1  0  0  0  0
 16 13  1  0  0  0  0
 17 21  1  0  0  0  0
 17 14  2  0  0  0  0
 19 17  1  0  0  0  0
 20 15  1  0  0  0  0
 22 24  2  0  0  0  0
 23 22  1  0  0  0  0
 25 23  2  0  0  0  0
 25 28  1  0  0  0  0
 26 23  1  0  0  0  0
 27 24  1  0  0  0  0
 27 29  1  0  0  0  0
 28 27  2  0  0  0  0
 30 28  1  0  0  0  0
 31 32  2  0  0  0  0
 31 19  1  0  0  0  0
 33 31  1  0  0  0  0
 34 33  1  0  0  0  0
 35  6  1  0  0  0  0
 35 37  1  0  0  0  0
 36 35  2  0  0  0  0
 38 37  1  0  0  0  0
 39 25  1  0  0  0  0
 40 39  2  0  0  0  0
 41 39  1  0  0  0  0
 42 41  1  0  0  0  0
M  RAD  5   3   2  10   2  11   2  22   2  24   2
M  END
