Coordinates from ORCA-job 1g-Schema5-R9-P1+-B3LYPG-6-31G_dp-scan-d49-09-n400
 OpenBabel08231810273D

 42 45  0  0  1  0  0  0  0  0999 V2000
   -1.9843    0.6189   -1.0825 C   0  0  0  0  0  0  0  0  0  0  0  0
   -0.6578    0.2430   -0.9511 C   0  0  0  0  0  0  0  0  0  0  0  0
    0.2489    0.8418   -0.0587 C   0  0  0  0  0  0  0  0  0  0  0  0
   -0.1896    1.9205    0.7005 C   0  0  0  0  0  0  0  0  0  0  0  0
   -1.5306    2.3124    0.6071 C   0  0  0  0  0  0  0  0  0  0  0  0
   -2.4177    1.6811   -0.2824 C   0  0  0  0  0  0  0  0  0  0  0  0
   -2.6742    0.1144   -1.7496 H   0  0  0  0  0  0  0  0  0  0  0  0
   -1.8952    3.1344    1.2128 H   0  0  0  0  0  0  0  0  0  0  0  0
    0.4917    2.4483    1.3590 H   0  0  0  0  0  0  0  0  0  0  0  0
   -0.0155   -0.8747   -1.5312 N   0  0  0  0  0  0  0  0  0  0  0  0
   -0.4795   -1.4882   -2.5262 N   0  0  0  0  0  0  0  0  0  0  0  0
    0.0317   -2.6834   -3.0076 C   0  0  0  0  0  0  0  0  0  0  0  0
   -0.2234   -2.8927   -4.3813 C   0  0  0  0  0  0  0  0  0  0  0  0
    0.6582   -3.6951   -2.2383 C   0  0  0  0  0  0  0  0  0  0  0  0
    0.2253   -4.0500   -5.0022 C   0  0  0  0  0  0  0  0  0  0  0  0
   -0.7482   -2.1219   -4.9349 H   0  0  0  0  0  0  0  0  0  0  0  0
    1.0604   -4.8632   -2.8625 C   0  0  0  0  0  0  0  0  0  0  0  0
    0.7487   -3.6072   -1.1618 H   0  0  0  0  0  0  0  0  0  0  0  0
    0.8698   -5.0371   -4.2443 C   0  0  0  0  0  0  0  0  0  0  0  0
    0.0596   -4.2052   -6.0614 H   0  0  0  0  0  0  0  0  0  0  0  0
    1.5178   -5.6697   -2.2996 H   0  0  0  0  0  0  0  0  0  0  0  0
    0.7825   -1.2913    0.7229 C   0  0  0  0  0  0  0  0  0  0  0  0
    1.2180   -1.0951   -0.6614 C   0  0  2  0  0  0  0  0  0  0  0  0
    1.5154   -1.1550    1.7157 C   0  0  0  0  0  0  0  0  0  0  0  0
    1.6892    0.3975   -0.3681 C   0  0  2  0  0  0  0  0  0  0  0  0
    1.9154   -1.7865   -1.1263 H   0  0  0  0  0  0  0  0  0  0  0  0
    2.4883   -0.1316    1.9442 C   0  0  0  0  0  0  0  0  0  0  0  0
    2.6288    0.6070    0.8119 C   0  0  0  0  0  0  0  0  0  0  0  0
    3.1173   -0.0270    2.8201 H   0  0  0  0  0  0  0  0  0  0  0  0
    3.3893    1.3753    0.7156 H   0  0  0  0  0  0  0  0  0  0  0  0
    1.3522   -6.3231   -4.8472 C   0  0  0  0  0  0  0  0  0  0  0  0
    1.9083   -7.1886   -4.2080 O   0  0  0  0  0  0  0  0  0  0  0  0
    1.0986   -6.3990   -6.1658 O   0  0  0  0  0  0  0  0  0  0  0  0
    1.4370   -7.2559   -6.4776 H   0  0  0  0  0  0  0  0  0  0  0  0
   -3.8518    2.0923   -0.4169 C   0  0  0  0  0  0  0  0  0  0  0  0
   -4.6279    1.5589   -1.1788 O   0  0  0  0  0  0  0  0  0  0  0  0
   -4.1733    3.1117    0.4002 O   0  0  0  0  0  0  0  0  0  0  0  0
   -5.1126    3.3160    0.2528 H   0  0  0  0  0  0  0  0  0  0  0  0
    2.1898    1.0573   -1.6649 C   0  0  0  0  0  0  0  0  0  0  0  0
    2.1548    0.4988   -2.7374 O   0  0  0  0  0  0  0  0  0  0  0  0
    2.6407    2.2996   -1.4581 O   0  0  0  0  0  0  0  0  0  0  0  0
    2.9329    2.6631   -2.3135 H   0  0  0  0  0  0  0  0  0  0  0  0
  1  2  2  0  0  0  0
  1  6  1  0  0  0  0
  2  3  1  0  0  0  0
  3  4  2  0  0  0  0
  4  9  1  0  0  0  0
  5  4  1  0  0  0  0
  5  8  1  0  0  0  0
  6  5  2  0  0  0  0
  7  1  1  0  0  0  0
 10  2  1  0  0  0  0
 10 23  1  0  0  0  0
 11 10  1  0  0  0  0
 12 11  1  0  0  0  0
 12 14  2  0  0  0  0
 13 12  1  0  0  0  0
 14 18  1  0  0  0  0
 15 13  2  0  0  0  0
 15 19  1  0  0  0  0
 16 13  1  0  0  0  0
 17 21  1  0  0  0  0
 17 14  1  0  0  0  0
 19 17  2  0  0  0  0
 20 15  1  0  0  0  0
 22 24  1  0  0  0  0
 23 26  1  6  0  0  0
 23 25  1  0  0  0  0
 23 22  1  0  0  0  0
 24 27  2  0  0  0  0
 25 39  1  6  0  0  0
 25  3  1  0  0  0  0
 25 28  1  0  0  0  0
 27 29  1  0  0  0  0
 28 27  1  0  0  0  0
 30 28  1  0  0  0  0
 31 19  1  0  0  0  0
 31 32  2  0  0  0  0
 33 31  1  0  0  0  0
 34 33  1  0  0  0  0
 35  6  1  0  0  0  0
 35 37  1  0  0  0  0
 36 35  2  0  0  0  0
 38 37  1  0  0  0  0
 39 41  1  0  0  0  0
 40 39  2  0  0  0  0
 42 41  1  0  0  0  0
M  RAD  4  11   2  22   3  24   2  28   2
M  END
