Coordinates from ORCA-job 1g-Schema5-R9-P1+-B3LYPG-6-31G_dp-scan-d49-09-n400
 OpenBabel08231810273D

 42 43  0  0  0  0  0  0  0  0999 V2000
   -3.0759    0.4288   -1.2462 C   0  0  0  0  0  0  0  0  0  0  0  0
   -1.7228    0.1836   -0.8237 C   0  0  0  0  0  0  0  0  0  0  0  0
   -1.6119    1.0206    0.2036 C   0  0  0  0  0  0  0  0  0  0  0  0
   -2.2573    1.9422    0.9376 C   0  0  0  0  0  0  0  0  0  0  0  0
   -3.5711    2.1039    0.4390 C   0  0  0  0  0  0  0  0  0  0  0  0
   -3.9618    1.3276   -0.6667 C   0  0  0  0  0  0  0  0  0  0  0  0
   -3.3377   -0.1968   -2.1097 H   0  0  0  0  0  0  0  0  0  0  0  0
   -4.2413    2.8133    0.9127 H   0  0  0  0  0  0  0  0  0  0  0  0
   -1.8522    2.4876    1.7830 H   0  0  0  0  0  0  0  0  0  0  0  0
   -0.8666   -0.7455   -1.4553 N   0  0  0  0  0  0  0  0  0  0  0  0
   -1.3760   -1.3488   -2.4265 N   0  0  0  0  0  0  0  0  0  0  0  0
   -0.6084   -2.2802   -3.1144 C   0  0  0  0  0  0  0  0  0  0  0  0
   -1.2628   -2.9125   -4.1930 C   0  0  0  0  0  0  0  0  0  0  0  0
    0.7313   -2.5940   -2.7895 C   0  0  0  0  0  0  0  0  0  0  0  0
   -0.5827   -3.8581   -4.9478 C   0  0  0  0  0  0  0  0  0  0  0  0
   -2.2906   -2.6454   -4.4130 H   0  0  0  0  0  0  0  0  0  0  0  0
    1.3970   -3.5362   -3.5509 C   0  0  0  0  0  0  0  0  0  0  0  0
    1.2394   -2.1121   -1.9630 H   0  0  0  0  0  0  0  0  0  0  0  0
    0.7476   -4.1698   -4.6274 C   0  0  0  0  0  0  0  0  0  0  0  0
   -1.0673   -4.3537   -5.7799 H   0  0  0  0  0  0  0  0  0  0  0  0
    2.4247   -3.7947   -3.3250 H   0  0  0  0  0  0  0  0  0  0  0  0
    2.4997    1.0017    1.5244 C   0  0  0  0  0  0  0  0  0  0  0  0
    2.6126   -0.0671    0.6505 C   0  0  0  0  0  0  0  0  0  0  0  0
    3.4822    1.5747    2.0485 C   0  0  0  0  0  0  0  0  0  0  0  0
    3.9669   -0.4255    0.4212 C   0  0  0  0  0  0  0  0  0  0  0  0
    1.8110   -0.6121    0.1658 H   0  0  0  0  0  0  0  0  0  0  0  0
    4.8356    1.3406    1.9224 C   0  0  0  0  0  0  0  0  0  0  0  0
    5.0381    0.2572    1.0408 C   0  0  0  0  0  0  0  0  0  0  0  0
    5.6508    1.8682    2.4018 H   0  0  0  0  0  0  0  0  0  0  0  0
    6.0531   -0.0641    0.8327 H   0  0  0  0  0  0  0  0  0  0  0  0
    1.5350   -5.1798   -5.4082 C   0  0  0  0  0  0  0  0  0  0  0  0
    2.6896   -5.4582   -5.1685 O   0  0  0  0  0  0  0  0  0  0  0  0
    0.8168   -5.7400   -6.4001 O   0  0  0  0  0  0  0  0  0  0  0  0
    1.3979   -6.3764   -6.8506 H   0  0  0  0  0  0  0  0  0  0  0  0
   -5.3308    1.4170   -1.2817 C   0  0  0  0  0  0  0  0  0  0  0  0
   -5.6695    0.7525   -2.2331 O   0  0  0  0  0  0  0  0  0  0  0  0
   -6.1039    2.3128   -0.6491 O   0  0  0  0  0  0  0  0  0  0  0  0
   -6.9699    2.3274   -1.0928 H   0  0  0  0  0  0  0  0  0  0  0  0
    4.2111   -1.5615   -0.5105 C   0  0  0  0  0  0  0  0  0  0  0  0
    3.3338   -2.1560   -1.1159 O   0  0  0  0  0  0  0  0  0  0  0  0
    5.5118   -1.8861   -0.6302 O   0  0  0  0  0  0  0  0  0  0  0  0
    5.5640   -2.6346   -1.2483 H   0  0  0  0  0  0  0  0  0  0  0  0
  1  2  2  0  0  0  0
  1  6  1  0  0  0  0
  2  3  1  0  0  0  0
  3  4  2  0  0  0  0
  4  9  1  0  0  0  0
  5  8  1  0  0  0  0
  5  4  1  0  0  0  0
  6  5  2  0  0  0  0
  7  1  1  0  0  0  0
 10  2  1  0  0  0  0
 11 10  1  0  0  0  0
 12 14  1  0  0  0  0
 12 11  1  0  0  0  0
 13 12  2  0  0  0  0
 14 18  1  0  0  0  0
 15 19  2  0  0  0  0
 15 13  1  0  0  0  0
 16 13  1  0  0  0  0
 17 21  1  0  0  0  0
 17 14  2  0  0  0  0
 19 17  1  0  0  0  0
 20 15  1  0  0  0  0
 22 24  2  0  0  0  0
 23 22  1  0  0  0  0
 25 23  2  0  0  0  0
 25 28  1  0  0  0  0
 26 23  1  0  0  0  0
 27 24  1  0  0  0  0
 27 29  1  0  0  0  0
 28 27  2  0  0  0  0
 30 28  1  0  0  0  0
 31 32  2  0  0  0  0
 31 19  1  0  0  0  0
 33 31  1  0  0  0  0
 34 33  1  0  0  0  0
 35  6  1  0  0  0  0
 35 37  1  0  0  0  0
 36 35  2  0  0  0  0
 38 37  1  0  0  0  0
 39 25  1  0  0  0  0
 40 39  2  0  0  0  0
 41 39  1  0  0  0  0
 42 41  1  0  0  0  0
M  RAD  5   3   2  10   2  11   2  22   2  24   2
M  END
