Coordinates from ORCA-job 1g-Schema5-R9-P1+-B3LYPG-6-31G_dp-scan-d49-09-n400
 OpenBabel08231810273D

 42 45  0  0  1  0  0  0  0  0999 V2000
   -2.0022    0.8431   -1.1409 C   0  0  0  0  0  0  0  0  0  0  0  0
   -0.9014    0.2459   -0.5447 C   0  0  0  0  0  0  0  0  0  0  0  0
   -0.5248    0.4838    0.7889 C   0  0  0  0  0  0  0  0  0  0  0  0
   -1.2885    1.3519    1.5747 C   0  0  0  0  0  0  0  0  0  0  0  0
   -2.3967    1.9659    0.9951 C   0  0  0  0  0  0  0  0  0  0  0  0
   -2.7501    1.7184   -0.3484 C   0  0  0  0  0  0  0  0  0  0  0  0
   -2.2850    0.6586   -2.1699 H   0  0  0  0  0  0  0  0  0  0  0  0
   -3.0061    2.6467    1.5782 H   0  0  0  0  0  0  0  0  0  0  0  0
   -1.0270    1.5330    2.6113 H   0  0  0  0  0  0  0  0  0  0  0  0
   -0.0254   -0.7126   -1.1376 N   0  0  0  0  0  0  0  0  0  0  0  0
   -0.4282   -1.3406   -2.1606 N   0  0  0  0  0  0  0  0  0  0  0  0
    0.1550   -2.4049   -2.8023 C   0  0  0  0  0  0  0  0  0  0  0  0
   -0.7198   -2.9408   -3.7855 C   0  0  0  0  0  0  0  0  0  0  0  0
    1.4211   -3.0203   -2.5946 C   0  0  0  0  0  0  0  0  0  0  0  0
   -0.3737   -4.0719   -4.5077 C   0  0  0  0  0  0  0  0  0  0  0  0
   -1.6720   -2.4457   -3.9388 H   0  0  0  0  0  0  0  0  0  0  0  0
    1.7531   -4.1478   -3.3196 C   0  0  0  0  0  0  0  0  0  0  0  0
    2.1542   -2.6061   -1.9212 H   0  0  0  0  0  0  0  0  0  0  0  0
    0.8638   -4.6828   -4.2701 C   0  0  0  0  0  0  0  0  0  0  0  0
   -1.0479   -4.4816   -5.2502 H   0  0  0  0  0  0  0  0  0  0  0  0
    2.7118   -4.6360   -3.1839 H   0  0  0  0  0  0  0  0  0  0  0  0
    0.6838   -0.2882    1.0700 C   0  0  1  0  0  0  0  0  0  0  0  0
    1.1604   -0.9144   -0.2297 C   0  0  2  0  0  0  0  0  0  0  0  0
    1.6409   -0.1940    1.9902 C   0  0  0  0  0  0  0  0  0  0  0  0
    2.4681   -0.1066   -0.5877 C   0  0  0  0  0  0  0  0  0  0  0  0
    1.3752   -1.9850   -0.1921 H   0  0  0  0  0  0  0  0  0  0  0  0
    2.9530   -0.0750    1.8257 C   0  0  0  0  0  0  0  0  0  0  0  0
    3.2890    0.2808    0.4218 C   0  0  0  0  0  0  0  0  0  0  0  0
    3.7347   -0.3267    2.5357 H   0  0  0  0  0  0  0  0  0  0  0  0
    4.2374    0.7510    0.1820 H   0  0  0  0  0  0  0  0  0  0  0  0
    1.3100   -5.9088   -5.0123 C   0  0  0  0  0  0  0  0  0  0  0  0
    2.3770   -6.4482   -4.8192 O   0  0  0  0  0  0  0  0  0  0  0  0
    0.3953   -6.3313   -5.9018 O   0  0  0  0  0  0  0  0  0  0  0  0
    0.7553   -7.1235   -6.3365 H   0  0  0  0  0  0  0  0  0  0  0  0
   -3.9356    2.3675   -0.9953 C   0  0  0  0  0  0  0  0  0  0  0  0
   -4.2629    2.1630   -2.1439 O   0  0  0  0  0  0  0  0  0  0  0  0
   -4.5891    3.1956   -0.1601 O   0  0  0  0  0  0  0  0  0  0  0  0
   -5.3390    3.5705   -0.6527 H   0  0  0  0  0  0  0  0  0  0  0  0
    2.8041    0.1653   -2.0045 C   0  0  0  0  0  0  0  0  0  0  0  0
    2.1214   -0.1959   -2.9469 O   0  0  0  0  0  0  0  0  0  0  0  0
    3.9363    0.8755   -2.1497 O   0  0  0  0  0  0  0  0  0  0  0  0
    4.0639    1.0231   -3.1024 H   0  0  0  0  0  0  0  0  0  0  0  0
  1  2  2  0  0  0  0
  1  6  1  0  0  0  0
  2  3  1  0  0  0  0
  3  4  2  0  0  0  0
  4  9  1  0  0  0  0
  5  4  1  0  0  0  0
  5  8  1  0  0  0  0
  6  5  2  0  0  0  0
  7  1  1  0  0  0  0
 10  2  1  0  0  0  0
 10 23  1  0  0  0  0
 11 10  1  0  0  0  0
 12 14  1  0  0  0  0
 12 11  1  0  0  0  0
 13 12  2  0  0  0  0
 14 18  1  0  0  0  0
 15 19  2  0  0  0  0
 15 13  1  0  0  0  0
 16 13  1  0  0  0  0
 17 21  1  0  0  0  0
 17 14  2  0  0  0  0
 19 17  1  0  0  0  0
 20 15  1  0  0  0  0
 22  3  1  6  0  0  0
 22 24  1  0  0  0  0
 23 26  1  1  0  0  0
 23 22  1  0  0  0  0
 25 23  1  0  0  0  0
 25 28  2  0  0  0  0
 27 24  1  0  0  0  0
 27 29  1  0  0  0  0
 28 27  1  0  0  0  0
 30 28  1  0  0  0  0
 31 32  2  0  0  0  0
 31 19  1  0  0  0  0
 33 31  1  0  0  0  0
 34 33  1  0  0  0  0
 35  6  1  0  0  0  0
 35 37  1  0  0  0  0
 36 35  2  0  0  0  0
 38 37  1  0  0  0  0
 39 25  1  0  0  0  0
 40 39  2  0  0  0  0
 41 39  1  0  0  0  0
 42 41  1  0  0  0  0
M  RAD  4  11   2  22   2  24   3  27   2
M  END
