Coordinates from ORCA-job 1g-Schema5-R9-P1+-B3LYPG-6-31G_dp-scan-d49-09-n400
 OpenBabel08231810273D

 42 45  0  0  1  0  0  0  0  0999 V2000
   -1.9722    0.5553   -1.0838 C   0  0  0  0  0  0  0  0  0  0  0  0
   -0.6315    0.2326   -0.9121 C   0  0  0  0  0  0  0  0  0  0  0  0
    0.2511    0.9862   -0.1332 C   0  0  0  0  0  0  0  0  0  0  0  0
   -0.2201    2.1276    0.5069 C   0  0  0  0  0  0  0  0  0  0  0  0
   -1.5676    2.4720    0.3623 C   0  0  0  0  0  0  0  0  0  0  0  0
   -2.4355    1.6980   -0.4299 C   0  0  0  0  0  0  0  0  0  0  0  0
   -2.6452   -0.0481   -1.6816 H   0  0  0  0  0  0  0  0  0  0  0  0
   -1.9572    3.3521    0.8607 H   0  0  0  0  0  0  0  0  0  0  0  0
    0.4417    2.7454    1.1035 H   0  0  0  0  0  0  0  0  0  0  0  0
    0.0388   -0.8917   -1.4485 N   0  0  0  0  0  0  0  0  0  0  0  0
   -0.4891   -1.5875   -2.3588 N   0  0  0  0  0  0  0  0  0  0  0  0
    0.0299   -2.7508   -2.8936 C   0  0  0  0  0  0  0  0  0  0  0  0
   -0.5655   -3.0750   -4.1383 C   0  0  0  0  0  0  0  0  0  0  0  0
    0.9885   -3.6298   -2.3224 C   0  0  0  0  0  0  0  0  0  0  0  0
   -0.1666   -4.2046   -4.8356 C   0  0  0  0  0  0  0  0  0  0  0  0
   -1.3238   -2.4075   -4.5332 H   0  0  0  0  0  0  0  0  0  0  0  0
    1.3499   -4.7720   -3.0144 C   0  0  0  0  0  0  0  0  0  0  0  0
    1.3876   -3.4678   -1.3307 H   0  0  0  0  0  0  0  0  0  0  0  0
    0.7948   -5.0561   -4.2742 C   0  0  0  0  0  0  0  0  0  0  0  0
   -0.6034   -4.4424   -5.7976 H   0  0  0  0  0  0  0  0  0  0  0  0
    2.0635   -5.4741   -2.5963 H   0  0  0  0  0  0  0  0  0  0  0  0
    1.2540   -1.8086    0.4964 C   0  0  0  0  0  0  0  0  0  0  0  0
    1.3757   -1.0350   -0.7388 C   0  0  2  0  0  0  0  0  0  0  0  0
    1.8461   -1.5570    1.5402 C   0  0  0  0  0  0  0  0  0  0  0  0
    1.6761    0.4528   -0.2309 C   0  0  2  0  0  0  0  0  0  0  0  0
    2.0988   -1.3960   -1.4720 H   0  0  0  0  0  0  0  0  0  0  0  0
    2.4818   -0.3734    2.0374 C   0  0  0  0  0  0  0  0  0  0  0  0
    2.4278    0.5991    1.0962 C   0  0  0  0  0  0  0  0  0  0  0  0
    3.0108   -0.2730    2.9767 H   0  0  0  0  0  0  0  0  0  0  0  0
    2.9204    1.5524    1.2582 H   0  0  0  0  0  0  0  0  0  0  0  0
    1.2561   -6.3079   -4.9612 C   0  0  0  0  0  0  0  0  0  0  0  0
    2.0827   -7.0570   -4.4906 O   0  0  0  0  0  0  0  0  0  0  0  0
    0.6494   -6.4951   -6.1466 O   0  0  0  0  0  0  0  0  0  0  0  0
    0.9962   -7.3219   -6.5237 H   0  0  0  0  0  0  0  0  0  0  0  0
   -3.8833    2.0437   -0.6089 C   0  0  0  0  0  0  0  0  0  0  0  0
   -4.6451    1.3884   -1.2850 O   0  0  0  0  0  0  0  0  0  0  0  0
   -4.2316    3.1575    0.0602 O   0  0  0  0  0  0  0  0  0  0  0  0
   -5.1767    3.3136   -0.1081 H   0  0  0  0  0  0  0  0  0  0  0  0
    2.3778    1.2032   -1.3863 C   0  0  0  0  0  0  0  0  0  0  0  0
    2.4790    0.7464   -2.5010 O   0  0  0  0  0  0  0  0  0  0  0  0
    2.8096    2.4138   -1.0119 O   0  0  0  0  0  0  0  0  0  0  0  0
    3.2157    2.8430   -1.7864 H   0  0  0  0  0  0  0  0  0  0  0  0
  1  2  2  0  0  0  0
  1  6  1  0  0  0  0
  2  3  1  0  0  0  0
  3  4  2  0  0  0  0
  4  9  1  0  0  0  0
  5  4  1  0  0  0  0
  5  8  1  0  0  0  0
  6  5  2  0  0  0  0
  7  1  1  0  0  0  0
 10  2  1  0  0  0  0
 10 23  1  0  0  0  0
 11 10  1  0  0  0  0
 12 11  1  0  0  0  0
 12 14  1  0  0  0  0
 13 12  2  0  0  0  0
 14 18  1  0  0  0  0
 15 19  2  0  0  0  0
 15 13  1  0  0  0  0
 16 13  1  0  0  0  0
 17 21  1  0  0  0  0
 17 14  2  0  0  0  0
 19 17  1  0  0  0  0
 20 15  1  0  0  0  0
 22 24  1  0  0  0  0
 23 26  1  6  0  0  0
 23 25  1  0  0  0  0
 23 22  1  0  0  0  0
 24 27  2  0  0  0  0
 25 39  1  6  0  0  0
 25  3  1  0  0  0  0
 25 28  1  0  0  0  0
 27 29  1  0  0  0  0
 28 30  1  0  0  0  0
 28 27  1  0  0  0  0
 31 32  2  0  0  0  0
 31 19  1  0  0  0  0
 33 31  1  0  0  0  0
 34 33  1  0  0  0  0
 35  6  1  0  0  0  0
 35 37  1  0  0  0  0
 36 35  2  0  0  0  0
 38 37  1  0  0  0  0
 39 41  1  0  0  0  0
 40 39  2  0  0  0  0
 42 41  1  0  0  0  0
M  RAD  4  11   2  22   3  24   2  28   2
M  END
