Coordinates from ORCA-job 1g-Schema5-R9-P1+-B3LYPG-6-31G_dp-scan-d49-09-n400
 OpenBabel08231810273D

 42 45  0  0  1  0  0  0  0  0999 V2000
   -1.9961    0.8434   -1.1422 C   0  0  0  0  0  0  0  0  0  0  0  0
   -0.9001    0.2443   -0.5383 C   0  0  0  0  0  0  0  0  0  0  0  0
   -0.5382    0.4838    0.7961 C   0  0  0  0  0  0  0  0  0  0  0  0
   -1.3007    1.3514    1.5786 C   0  0  0  0  0  0  0  0  0  0  0  0
   -2.4048    1.9675    0.9905 C   0  0  0  0  0  0  0  0  0  0  0  0
   -2.7485    1.7199   -0.3549 C   0  0  0  0  0  0  0  0  0  0  0  0
   -2.2721    0.6598   -2.1733 H   0  0  0  0  0  0  0  0  0  0  0  0
   -3.0170    2.6497    1.5689 H   0  0  0  0  0  0  0  0  0  0  0  0
   -1.0448    1.5331    2.6164 H   0  0  0  0  0  0  0  0  0  0  0  0
   -0.0230   -0.7163   -1.1288 N   0  0  0  0  0  0  0  0  0  0  0  0
   -0.4275   -1.3447   -2.1504 N   0  0  0  0  0  0  0  0  0  0  0  0
    0.1548   -2.4075   -2.7958 C   0  0  0  0  0  0  0  0  0  0  0  0
   -0.7261   -2.9472   -3.7714 C   0  0  0  0  0  0  0  0  0  0  0  0
    1.4255   -3.0171   -2.5995 C   0  0  0  0  0  0  0  0  0  0  0  0
   -0.3817   -4.0771   -4.4962 C   0  0  0  0  0  0  0  0  0  0  0  0
   -1.6816   -2.4561   -3.9167 H   0  0  0  0  0  0  0  0  0  0  0  0
    1.7562   -4.1428   -3.3278 C   0  0  0  0  0  0  0  0  0  0  0  0
    2.1630   -2.5988   -1.9335 H   0  0  0  0  0  0  0  0  0  0  0  0
    0.8607   -4.6822   -4.2699 C   0  0  0  0  0  0  0  0  0  0  0  0
   -1.0608   -4.4900   -5.2325 H   0  0  0  0  0  0  0  0  0  0  0  0
    2.7186   -4.6263   -3.2011 H   0  0  0  0  0  0  0  0  0  0  0  0
    0.6986   -0.3173    1.0841 C   0  0  1  0  0  0  0  0  0  0  0  0
    1.1663   -0.9226   -0.2262 C   0  0  2  0  0  0  0  0  0  0  0  0
    1.6574   -0.2182    1.9969 C   0  0  0  0  0  0  0  0  0  0  0  0
    2.4690   -0.1041   -0.5825 C   0  0  0  0  0  0  0  0  0  0  0  0
    1.3868   -1.9925   -0.2055 H   0  0  0  0  0  0  0  0  0  0  0  0
    2.9680   -0.0860    1.8294 C   0  0  0  0  0  0  0  0  0  0  0  0
    3.2929    0.2809    0.4256 C   0  0  0  0  0  0  0  0  0  0  0  0
    3.7554   -0.3353    2.5337 H   0  0  0  0  0  0  0  0  0  0  0  0
    4.2381    0.7562    0.1835 H   0  0  0  0  0  0  0  0  0  0  0  0
    1.3059   -5.9064   -5.0160 C   0  0  0  0  0  0  0  0  0  0  0  0
    2.3772   -6.4406   -4.8326 O   0  0  0  0  0  0  0  0  0  0  0  0
    0.3852   -6.3332   -5.8972 O   0  0  0  0  0  0  0  0  0  0  0  0
    0.7450   -7.1237   -6.3351 H   0  0  0  0  0  0  0  0  0  0  0  0
   -3.9284    2.3706   -1.0105 C   0  0  0  0  0  0  0  0  0  0  0  0
   -4.2482    2.1659   -2.1613 O   0  0  0  0  0  0  0  0  0  0  0  0
   -4.5869    3.1997   -0.1802 O   0  0  0  0  0  0  0  0  0  0  0  0
   -5.3331    3.5750   -0.6782 H   0  0  0  0  0  0  0  0  0  0  0  0
    2.7984    0.1762   -1.9991 C   0  0  0  0  0  0  0  0  0  0  0  0
    2.1162   -0.1883   -2.9408 O   0  0  0  0  0  0  0  0  0  0  0  0
    3.9231    0.8980   -2.1454 O   0  0  0  0  0  0  0  0  0  0  0  0
    4.0467    1.0494   -3.0980 H   0  0  0  0  0  0  0  0  0  0  0  0
  1  2  2  0  0  0  0
  1  6  1  0  0  0  0
  2  3  1  0  0  0  0
  3  4  2  0  0  0  0
  4  9  1  0  0  0  0
  5  8  1  0  0  0  0
  5  4  1  0  0  0  0
  6  5  2  0  0  0  0
  7  1  1  0  0  0  0
 10  2  1  0  0  0  0
 10 23  1  0  0  0  0
 11 10  1  0  0  0  0
 12 14  1  0  0  0  0
 12 11  1  0  0  0  0
 13 12  2  0  0  0  0
 14 18  1  0  0  0  0
 15 19  2  0  0  0  0
 15 13  1  0  0  0  0
 16 13  1  0  0  0  0
 17 21  1  0  0  0  0
 17 14  2  0  0  0  0
 19 17  1  0  0  0  0
 20 15  1  0  0  0  0
 22  3  1  6  0  0  0
 22 24  1  0  0  0  0
 23 26  1  1  0  0  0
 23 22  1  0  0  0  0
 25 23  1  0  0  0  0
 25 28  2  0  0  0  0
 27 24  1  0  0  0  0
 27 29  1  0  0  0  0
 28 27  1  0  0  0  0
 30 28  1  0  0  0  0
 31 32  2  0  0  0  0
 31 19  1  0  0  0  0
 33 31  1  0  0  0  0
 34 33  1  0  0  0  0
 35  6  1  0  0  0  0
 35 37  1  0  0  0  0
 36 35  2  0  0  0  0
 38 37  1  0  0  0  0
 39 25  1  0  0  0  0
 40 39  2  0  0  0  0
 41 39  1  0  0  0  0
 42 41  1  0  0  0  0
M  RAD  4  11   2  22   2  24   3  27   2
M  END
