Coordinates from ORCA-job 1g-Schema5-R9-P1+-B3LYPG-6-31G_dp-scan-d49-09-n400
 OpenBabel08231810273D

 42 45  0  0  1  0  0  0  0  0999 V2000
   -1.9811    0.6298   -1.0871 C   0  0  0  0  0  0  0  0  0  0  0  0
   -0.6630    0.2316   -0.9422 C   0  0  0  0  0  0  0  0  0  0  0  0
    0.2401    0.7894   -0.0119 C   0  0  0  0  0  0  0  0  0  0  0  0
   -0.1962    1.8717    0.7502 C   0  0  0  0  0  0  0  0  0  0  0  0
   -1.5283    2.2827    0.6428 C   0  0  0  0  0  0  0  0  0  0  0  0
   -2.4123    1.6820   -0.2730 C   0  0  0  0  0  0  0  0  0  0  0  0
   -2.6664    0.1508   -1.7774 H   0  0  0  0  0  0  0  0  0  0  0  0
   -1.8894    3.1020    1.2545 H   0  0  0  0  0  0  0  0  0  0  0  0
    0.4830    2.3824    1.4244 H   0  0  0  0  0  0  0  0  0  0  0  0
   -0.0265   -0.8874   -1.5223 N   0  0  0  0  0  0  0  0  0  0  0  0
   -0.4772   -1.4898   -2.5309 N   0  0  0  0  0  0  0  0  0  0  0  0
    0.0327   -2.6859   -3.0098 C   0  0  0  0  0  0  0  0  0  0  0  0
   -0.1902   -2.8819   -4.3911 C   0  0  0  0  0  0  0  0  0  0  0  0
    0.6298   -3.7100   -2.2336 C   0  0  0  0  0  0  0  0  0  0  0  0
    0.2638   -4.0384   -5.0100 C   0  0  0  0  0  0  0  0  0  0  0  0
   -0.6934   -2.1016   -4.9514 H   0  0  0  0  0  0  0  0  0  0  0  0
    1.0377   -4.8764   -2.8569 C   0  0  0  0  0  0  0  0  0  0  0  0
    0.6907   -3.6322   -1.1541 H   0  0  0  0  0  0  0  0  0  0  0  0
    0.8805   -5.0373   -4.2446 C   0  0  0  0  0  0  0  0  0  0  0  0
    0.1233   -4.1836   -6.0744 H   0  0  0  0  0  0  0  0  0  0  0  0
    1.4726   -5.6921   -2.2893 H   0  0  0  0  0  0  0  0  0  0  0  0
    0.7365   -1.1813    0.7579 C   0  0  0  0  0  0  0  0  0  0  0  0
    1.1976   -1.1095   -0.6362 C   0  0  2  0  0  0  0  0  0  0  0  0
    1.5069   -1.0924    1.7389 C   0  0  0  0  0  0  0  0  0  0  0  0
    1.6934    0.3821   -0.3796 C   0  0  2  0  0  0  0  0  0  0  0  0
    1.8794   -1.8459   -1.0498 H   0  0  0  0  0  0  0  0  0  0  0  0
    2.5190   -0.1047    1.9234 C   0  0  0  0  0  0  0  0  0  0  0  0
    2.6668    0.5967    0.7649 C   0  0  0  0  0  0  0  0  0  0  0  0
    3.1664    0.0012    2.7859 H   0  0  0  0  0  0  0  0  0  0  0  0
    3.4509    1.3347    0.6292 H   0  0  0  0  0  0  0  0  0  0  0  0
    1.3663   -6.3228   -4.8457 C   0  0  0  0  0  0  0  0  0  0  0  0
    1.8995   -7.1978   -4.1999 O   0  0  0  0  0  0  0  0  0  0  0  0
    1.1440   -6.3866   -6.1705 O   0  0  0  0  0  0  0  0  0  0  0  0
    1.4827   -7.2439   -6.4808 H   0  0  0  0  0  0  0  0  0  0  0  0
   -3.8356    2.1199   -0.4244 C   0  0  0  0  0  0  0  0  0  0  0  0
   -4.6074    1.6152   -1.2103 O   0  0  0  0  0  0  0  0  0  0  0  0
   -4.1554    3.1279    0.4079 O   0  0  0  0  0  0  0  0  0  0  0  0
   -5.0885    3.3502    0.2479 H   0  0  0  0  0  0  0  0  0  0  0  0
    2.1440    1.0469   -1.6904 C   0  0  0  0  0  0  0  0  0  0  0  0
    2.1094    0.4795   -2.7581 O   0  0  0  0  0  0  0  0  0  0  0  0
    2.5584    2.3043   -1.4986 O   0  0  0  0  0  0  0  0  0  0  0  0
    2.8247    2.6715   -2.3609 H   0  0  0  0  0  0  0  0  0  0  0  0
  1  2  2  0  0  0  0
  1  6  1  0  0  0  0
  2  3  1  0  0  0  0
  3  4  2  0  0  0  0
  4  9  1  0  0  0  0
  5  4  1  0  0  0  0
  5  8  1  0  0  0  0
  6  5  2  0  0  0  0
  7  1  1  0  0  0  0
 10  2  1  0  0  0  0
 10 23  1  0  0  0  0
 11 10  1  0  0  0  0
 12 11  1  0  0  0  0
 12 14  2  0  0  0  0
 13 12  1  0  0  0  0
 14 18  1  0  0  0  0
 15 13  2  0  0  0  0
 15 19  1  0  0  0  0
 16 13  1  0  0  0  0
 17 21  1  0  0  0  0
 17 14  1  0  0  0  0
 19 17  2  0  0  0  0
 20 15  1  0  0  0  0
 22 24  1  0  0  0  0
 23 26  1  6  0  0  0
 23 25  1  0  0  0  0
 23 22  1  0  0  0  0
 24 27  2  0  0  0  0
 25 39  1  6  0  0  0
 25  3  1  0  0  0  0
 25 28  1  0  0  0  0
 27 29  1  0  0  0  0
 28 27  1  0  0  0  0
 30 28  1  0  0  0  0
 31 19  1  0  0  0  0
 31 32  2  0  0  0  0
 33 31  1  0  0  0  0
 34 33  1  0  0  0  0
 35  6  1  0  0  0  0
 35 37  1  0  0  0  0
 36 35  2  0  0  0  0
 38 37  1  0  0  0  0
 39 41  1  0  0  0  0
 40 39  2  0  0  0  0
 42 41  1  0  0  0  0
M  RAD  4  11   2  22   3  24   2  28   2
M  END
