Coordinates from ORCA-job 1g-Schema5-R9-P1+-B3LYPG-6-31G_dp-scan-d49-09-n400
 OpenBabel08231810273D

 42 43  0  0  0  0  0  0  0  0999 V2000
   -3.1664    0.4351   -1.2696 C   0  0  0  0  0  0  0  0  0  0  0  0
   -1.8191    0.2000   -0.8228 C   0  0  0  0  0  0  0  0  0  0  0  0
   -1.7356    1.0330    0.2102 C   0  0  0  0  0  0  0  0  0  0  0  0
   -2.4035    1.9452    0.9360 C   0  0  0  0  0  0  0  0  0  0  0  0
   -3.7088    2.0979    0.4130 C   0  0  0  0  0  0  0  0  0  0  0  0
   -4.0713    1.3233   -0.7033 C   0  0  0  0  0  0  0  0  0  0  0  0
   -3.4061   -0.1900   -2.1399 H   0  0  0  0  0  0  0  0  0  0  0  0
   -4.3941    2.7995    0.8768 H   0  0  0  0  0  0  0  0  0  0  0  0
   -2.0205    2.4903    1.7919 H   0  0  0  0  0  0  0  0  0  0  0  0
   -0.9438   -0.7181   -1.4430 N   0  0  0  0  0  0  0  0  0  0  0  0
   -1.4315   -1.3280   -2.4211 N   0  0  0  0  0  0  0  0  0  0  0  0
   -0.6412   -2.2492   -3.0968 C   0  0  0  0  0  0  0  0  0  0  0  0
   -1.2705   -2.8969   -4.1811 C   0  0  0  0  0  0  0  0  0  0  0  0
    0.6987   -2.5394   -2.7524 C   0  0  0  0  0  0  0  0  0  0  0  0
   -0.5645   -3.8352   -4.9212 C   0  0  0  0  0  0  0  0  0  0  0  0
   -2.2993   -2.6479   -4.4167 H   0  0  0  0  0  0  0  0  0  0  0  0
    1.3904   -3.4746   -3.4987 C   0  0  0  0  0  0  0  0  0  0  0  0
    1.1870   -2.0438   -1.9223 H   0  0  0  0  0  0  0  0  0  0  0  0
    0.7662   -4.1240   -4.5804 C   0  0  0  0  0  0  0  0  0  0  0  0
   -1.0293   -4.3429   -5.7573 H   0  0  0  0  0  0  0  0  0  0  0  0
    2.4186   -3.7134   -3.2548 H   0  0  0  0  0  0  0  0  0  0  0  0
    2.7076    1.0200    1.5796 C   0  0  0  0  0  0  0  0  0  0  0  0
    2.7375   -0.0443    0.6961 C   0  0  0  0  0  0  0  0  0  0  0  0
    3.7285    1.5497    2.0741 C   0  0  0  0  0  0  0  0  0  0  0  0
    4.0659   -0.4600    0.4152 C   0  0  0  0  0  0  0  0  0  0  0  0
    1.8946   -0.5496    0.2387 H   0  0  0  0  0  0  0  0  0  0  0  0
    5.0647    1.2548    1.8944 C   0  0  0  0  0  0  0  0  0  0  0  0
    5.1880    0.1710    0.9994 C   0  0  0  0  0  0  0  0  0  0  0  0
    5.9197    1.7430    2.3455 H   0  0  0  0  0  0  0  0  0  0  0  0
    6.1796   -0.1916    0.7506 H   0  0  0  0  0  0  0  0  0  0  0  0
    1.5805   -5.1253   -5.3448 C   0  0  0  0  0  0  0  0  0  0  0  0
    2.7364   -5.3828   -5.0887 O   0  0  0  0  0  0  0  0  0  0  0  0
    0.8848   -5.7032   -6.3426 O   0  0  0  0  0  0  0  0  0  0  0  0
    1.4821   -6.3325   -6.7817 H   0  0  0  0  0  0  0  0  0  0  0  0
   -5.4292    1.4029   -1.3438 C   0  0  0  0  0  0  0  0  0  0  0  0
   -5.7444    0.7381   -2.3031 O   0  0  0  0  0  0  0  0  0  0  0  0
   -6.2233    2.2865   -0.7201 O   0  0  0  0  0  0  0  0  0  0  0  0
   -7.0816    2.2938   -1.1786 H   0  0  0  0  0  0  0  0  0  0  0  0
    4.2272   -1.5969   -0.5321 C   0  0  0  0  0  0  0  0  0  0  0  0
    3.3034   -2.1500   -1.1076 O   0  0  0  0  0  0  0  0  0  0  0  0
    5.5075   -1.9745   -0.7046 O   0  0  0  0  0  0  0  0  0  0  0  0
    5.5043   -2.7190   -1.3296 H   0  0  0  0  0  0  0  0  0  0  0  0
  1  2  2  0  0  0  0
  1  6  1  0  0  0  0
  2  3  1  0  0  0  0
  3  4  2  0  0  0  0
  4  9  1  0  0  0  0
  5  8  1  0  0  0  0
  5  4  1  0  0  0  0
  6  5  2  0  0  0  0
  7  1  1  0  0  0  0
 10  2  1  0  0  0  0
 11 10  1  0  0  0  0
 12 14  1  0  0  0  0
 12 11  1  0  0  0  0
 13 12  2  0  0  0  0
 14 18  1  0  0  0  0
 15 19  2  0  0  0  0
 15 13  1  0  0  0  0
 16 13  1  0  0  0  0
 17 21  1  0  0  0  0
 17 14  2  0  0  0  0
 19 17  1  0  0  0  0
 20 15  1  0  0  0  0
 22 24  2  0  0  0  0
 23 22  1  0  0  0  0
 25 23  2  0  0  0  0
 25 28  1  0  0  0  0
 26 23  1  0  0  0  0
 27 24  1  0  0  0  0
 27 29  1  0  0  0  0
 28 27  2  0  0  0  0
 30 28  1  0  0  0  0
 31 32  2  0  0  0  0
 31 19  1  0  0  0  0
 33 31  1  0  0  0  0
 34 33  1  0  0  0  0
 35 37  1  0  0  0  0
 35  6  1  0  0  0  0
 36 35  2  0  0  0  0
 38 37  1  0  0  0  0
 39 25  1  0  0  0  0
 40 39  2  0  0  0  0
 41 39  1  0  0  0  0
 42 41  1  0  0  0  0
M  RAD  5   3   2  10   2  11   2  22   2  24   2
M  END
