Coordinates from ORCA-job 1g-Schema5-R9-P1+-B3LYPG-6-31G_dp-scan-d49-09-n400
 OpenBabel08231810273D

 42 43  0  0  0  0  0  0  0  0999 V2000
   -3.0682    0.4284   -1.2442 C   0  0  0  0  0  0  0  0  0  0  0  0
   -1.7142    0.1827   -0.8248 C   0  0  0  0  0  0  0  0  0  0  0  0
   -1.5998    1.0208    0.2013 C   0  0  0  0  0  0  0  0  0  0  0  0
   -2.2427    1.9438    0.9358 C   0  0  0  0  0  0  0  0  0  0  0  0
   -3.5576    2.1058    0.4404 C   0  0  0  0  0  0  0  0  0  0  0  0
   -3.9518    1.3286   -0.6634 C   0  0  0  0  0  0  0  0  0  0  0  0
   -3.3328   -0.1979   -2.1063 H   0  0  0  0  0  0  0  0  0  0  0  0
   -4.2260    2.8163    0.9150 H   0  0  0  0  0  0  0  0  0  0  0  0
   -1.8349    2.4899    1.7795 H   0  0  0  0  0  0  0  0  0  0  0  0
   -0.8601   -0.7477   -1.4573 N   0  0  0  0  0  0  0  0  0  0  0  0
   -1.3719   -1.3511   -2.4272 N   0  0  0  0  0  0  0  0  0  0  0  0
   -0.6062   -2.2835   -3.1160 C   0  0  0  0  0  0  0  0  0  0  0  0
   -1.2622   -2.9150   -4.1941 C   0  0  0  0  0  0  0  0  0  0  0  0
    0.7335   -2.5987   -2.7925 C   0  0  0  0  0  0  0  0  0  0  0  0
   -0.5835   -3.8607   -4.9500 C   0  0  0  0  0  0  0  0  0  0  0  0
   -2.2900   -2.6469   -4.4131 H   0  0  0  0  0  0  0  0  0  0  0  0
    1.3979   -3.5410   -3.5550 C   0  0  0  0  0  0  0  0  0  0  0  0
    1.2424   -2.1176   -1.9660 H   0  0  0  0  0  0  0  0  0  0  0  0
    0.7469   -4.1736   -4.6311 C   0  0  0  0  0  0  0  0  0  0  0  0
   -1.0693   -4.3557   -5.7818 H   0  0  0  0  0  0  0  0  0  0  0  0
    2.4256   -3.8004   -3.3300 H   0  0  0  0  0  0  0  0  0  0  0  0
    2.4807    0.9983    1.5203 C   0  0  0  0  0  0  0  0  0  0  0  0
    2.6009   -0.0703    0.6469 C   0  0  0  0  0  0  0  0  0  0  0  0
    3.4598    1.5751    2.0469 C   0  0  0  0  0  0  0  0  0  0  0  0
    3.9573   -0.4232    0.4216 C   0  0  0  0  0  0  0  0  0  0  0  0
    1.8031   -0.6187    0.1599 H   0  0  0  0  0  0  0  0  0  0  0  0
    4.8144    1.3467    1.9250 C   0  0  0  0  0  0  0  0  0  0  0  0
    5.0239    0.2640    1.0442 C   0  0  0  0  0  0  0  0  0  0  0  0
    5.6260    1.8777    2.4068 H   0  0  0  0  0  0  0  0  0  0  0  0
    6.0409   -0.0532    0.8392 H   0  0  0  0  0  0  0  0  0  0  0  0
    1.5327   -5.1838   -5.4132 C   0  0  0  0  0  0  0  0  0  0  0  0
    2.6873   -5.4633   -5.1749 O   0  0  0  0  0  0  0  0  0  0  0  0
    0.8130   -5.7429   -6.4048 O   0  0  0  0  0  0  0  0  0  0  0  0
    1.3932   -6.3796   -6.8562 H   0  0  0  0  0  0  0  0  0  0  0  0
   -5.3223    1.4184   -1.2749 C   0  0  0  0  0  0  0  0  0  0  0  0
   -5.6643    0.7527   -2.2244 O   0  0  0  0  0  0  0  0  0  0  0  0
   -6.0932    2.3153   -0.6411 O   0  0  0  0  0  0  0  0  0  0  0  0
   -6.9604    2.3298   -1.0823 H   0  0  0  0  0  0  0  0  0  0  0  0
    4.2085   -1.5584   -0.5093 C   0  0  0  0  0  0  0  0  0  0  0  0
    3.3349   -2.1562   -1.1167 O   0  0  0  0  0  0  0  0  0  0  0  0
    5.5107   -1.8779   -0.6256 O   0  0  0  0  0  0  0  0  0  0  0  0
    5.5675   -2.6262   -1.2434 H   0  0  0  0  0  0  0  0  0  0  0  0
  1  2  2  0  0  0  0
  1  6  1  0  0  0  0
  2  3  1  0  0  0  0
  3  4  2  0  0  0  0
  4  9  1  0  0  0  0
  5  8  1  0  0  0  0
  5  4  1  0  0  0  0
  6  5  2  0  0  0  0
  7  1  1  0  0  0  0
 10  2  1  0  0  0  0
 11 10  1  0  0  0  0
 12 14  1  0  0  0  0
 12 11  1  0  0  0  0
 13 12  2  0  0  0  0
 14 18  1  0  0  0  0
 15 19  2  0  0  0  0
 15 13  1  0  0  0  0
 16 13  1  0  0  0  0
 17 21  1  0  0  0  0
 17 14  2  0  0  0  0
 19 17  1  0  0  0  0
 20 15  1  0  0  0  0
 22 24  2  0  0  0  0
 23 22  1  0  0  0  0
 25 23  2  0  0  0  0
 25 28  1  0  0  0  0
 26 23  1  0  0  0  0
 27 24  1  0  0  0  0
 27 29  1  0  0  0  0
 28 27  2  0  0  0  0
 30 28  1  0  0  0  0
 31 32  2  0  0  0  0
 31 19  1  0  0  0  0
 33 31  1  0  0  0  0
 34 33  1  0  0  0  0
 35  6  1  0  0  0  0
 35 37  1  0  0  0  0
 36 35  2  0  0  0  0
 38 37  1  0  0  0  0
 39 25  1  0  0  0  0
 40 39  2  0  0  0  0
 41 39  1  0  0  0  0
 42 41  1  0  0  0  0
M  RAD  5   3   2  10   2  11   2  22   2  24   2
M  END
