Coordinates from ORCA-job 1g-Schema5-R9-P1+-B3LYPG-6-31G_dp-scan-d49-09-n400
 OpenBabel08231810273D

 42 45  0  0  1  0  0  0  0  0999 V2000
   -1.9825    0.5805   -1.0770 C   0  0  0  0  0  0  0  0  0  0  0  0
   -0.6445    0.2415   -0.9310 C   0  0  0  0  0  0  0  0  0  0  0  0
    0.2519    0.9432   -0.1173 C   0  0  0  0  0  0  0  0  0  0  0  0
   -0.2052    2.0539    0.5816 C   0  0  0  0  0  0  0  0  0  0  0  0
   -1.5528    2.4136    0.4672 C   0  0  0  0  0  0  0  0  0  0  0  0
   -2.4318    1.6919   -0.3599 C   0  0  0  0  0  0  0  0  0  0  0  0
   -2.6659    0.0118   -1.6971 H   0  0  0  0  0  0  0  0  0  0  0  0
   -1.9323    3.2686    1.0149 H   0  0  0  0  0  0  0  0  0  0  0  0
    0.4665    2.6356    1.2033 H   0  0  0  0  0  0  0  0  0  0  0  0
    0.0155   -0.8753   -1.4937 N   0  0  0  0  0  0  0  0  0  0  0  0
   -0.4896   -1.5343   -2.4412 N   0  0  0  0  0  0  0  0  0  0  0  0
    0.0279   -2.7131   -2.9491 C   0  0  0  0  0  0  0  0  0  0  0  0
   -0.4134   -2.9821   -4.2664 C   0  0  0  0  0  0  0  0  0  0  0  0
    0.8373   -3.6581   -2.2671 C   0  0  0  0  0  0  0  0  0  0  0  0
    0.0108   -4.1263   -4.9255 C   0  0  0  0  0  0  0  0  0  0  0  0
   -1.0682   -2.2638   -4.7477 H   0  0  0  0  0  0  0  0  0  0  0  0
    1.2181   -4.8152   -2.9239 C   0  0  0  0  0  0  0  0  0  0  0  0
    1.0963   -3.5319   -1.2237 H   0  0  0  0  0  0  0  0  0  0  0  0
    0.8292   -5.0456   -4.2549 C   0  0  0  0  0  0  0  0  0  0  0  0
   -0.3028   -4.3242   -5.9429 H   0  0  0  0  0  0  0  0  0  0  0  0
    1.8156   -5.5698   -2.4236 H   0  0  0  0  0  0  0  0  0  0  0  0
    1.0525   -1.6500    0.5905 C   0  0  0  0  0  0  0  0  0  0  0  0
    1.3110   -1.0604   -0.7201 C   0  0  2  0  0  0  0  0  0  0  0  0
    1.6946   -1.4179    1.6119 C   0  0  0  0  0  0  0  0  0  0  0  0
    1.6779    0.4333   -0.2926 C   0  0  2  0  0  0  0  0  0  0  0  0
    2.0377   -1.5543   -1.3644 H   0  0  0  0  0  0  0  0  0  0  0  0
    2.4765   -0.2811    1.9996 C   0  0  0  0  0  0  0  0  0  0  0  0
    2.5102    0.6101    0.9790 C   0  0  0  0  0  0  0  0  0  0  0  0
    3.0520   -0.1778    2.9111 H   0  0  0  0  0  0  0  0  0  0  0  0
    3.1237    1.5037    1.0347 H   0  0  0  0  0  0  0  0  0  0  0  0
    1.3016   -6.3162   -4.8978 C   0  0  0  0  0  0  0  0  0  0  0  0
    2.0056   -7.1239   -4.3337 O   0  0  0  0  0  0  0  0  0  0  0  0
    0.8562   -6.4488   -6.1599 O   0  0  0  0  0  0  0  0  0  0  0  0
    1.2002   -7.2916   -6.5023 H   0  0  0  0  0  0  0  0  0  0  0  0
   -3.8780    2.0575   -0.5089 C   0  0  0  0  0  0  0  0  0  0  0  0
   -4.6492    1.4458   -1.2144 O   0  0  0  0  0  0  0  0  0  0  0  0
   -4.2132    3.1352    0.2231 O   0  0  0  0  0  0  0  0  0  0  0  0
   -5.1583    3.3068    0.0710 H   0  0  0  0  0  0  0  0  0  0  0  0
    2.2964    1.1388   -1.5175 C   0  0  0  0  0  0  0  0  0  0  0  0
    2.3033    0.6431   -2.6207 O   0  0  0  0  0  0  0  0  0  0  0  0
    2.7776    2.3505   -1.2171 O   0  0  0  0  0  0  0  0  0  0  0  0
    3.1312    2.7473   -2.0335 H   0  0  0  0  0  0  0  0  0  0  0  0
  1  2  2  0  0  0  0
  1  6  1  0  0  0  0
  2  3  1  0  0  0  0
  3  4  2  0  0  0  0
  4  9  1  0  0  0  0
  5  4  1  0  0  0  0
  5  8  1  0  0  0  0
  6  5  2  0  0  0  0
  7  1  1  0  0  0  0
 10  2  1  0  0  0  0
 10 23  1  0  0  0  0
 11 10  1  0  0  0  0
 12 11  1  0  0  0  0
 12 14  2  0  0  0  0
 13 12  1  0  0  0  0
 14 18  1  0  0  0  0
 15 13  2  0  0  0  0
 15 19  1  0  0  0  0
 16 13  1  0  0  0  0
 17 21  1  0  0  0  0
 17 14  1  0  0  0  0
 19 17  2  0  0  0  0
 20 15  1  0  0  0  0
 22 24  1  0  0  0  0
 23 26  1  6  0  0  0
 23 25  1  0  0  0  0
 23 22  1  0  0  0  0
 24 27  2  0  0  0  0
 25 39  1  6  0  0  0
 25  3  1  0  0  0  0
 25 28  1  0  0  0  0
 27 29  1  0  0  0  0
 28 30  1  0  0  0  0
 28 27  1  0  0  0  0
 31 32  2  0  0  0  0
 31 19  1  0  0  0  0
 33 31  1  0  0  0  0
 34 33  1  0  0  0  0
 35  6  1  0  0  0  0
 35 37  1  0  0  0  0
 36 35  2  0  0  0  0
 38 37  1  0  0  0  0
 39 41  1  0  0  0  0
 40 39  2  0  0  0  0
 42 41  1  0  0  0  0
M  RAD  4  11   2  22   3  24   2  28   2
M  END
