Coordinates from ORCA-job 1g-Schema5-R9-P1+-B3LYPG-6-31G_dp-scan-d49-09-n400
 OpenBabel08231810273D

 42 45  0  0  1  0  0  0  0  0999 V2000
   -2.0472    0.8404   -1.1168 C   0  0  0  0  0  0  0  0  0  0  0  0
   -0.9194    0.2356   -0.5974 C   0  0  0  0  0  0  0  0  0  0  0  0
   -0.3659    0.4588    0.7345 C   0  0  0  0  0  0  0  0  0  0  0  0
   -1.1838    1.3301    1.5633 C   0  0  0  0  0  0  0  0  0  0  0  0
   -2.3060    1.9381    1.0585 C   0  0  0  0  0  0  0  0  0  0  0  0
   -2.7417    1.7117   -0.2777 C   0  0  0  0  0  0  0  0  0  0  0  0
   -2.3926    0.6570   -2.1272 H   0  0  0  0  0  0  0  0  0  0  0  0
   -2.8932    2.5972    1.6877 H   0  0  0  0  0  0  0  0  0  0  0  0
   -0.8963    1.4575    2.6021 H   0  0  0  0  0  0  0  0  0  0  0  0
   -0.0718   -0.7031   -1.2061 N   0  0  0  0  0  0  0  0  0  0  0  0
   -0.4481   -1.3083   -2.2631 N   0  0  0  0  0  0  0  0  0  0  0  0
    0.1435   -2.3882   -2.8606 C   0  0  0  0  0  0  0  0  0  0  0  0
   -0.6393   -2.8717   -3.9440 C   0  0  0  0  0  0  0  0  0  0  0  0
    1.3429   -3.0729   -2.5165 C   0  0  0  0  0  0  0  0  0  0  0  0
   -0.2671   -4.0107   -4.6392 C   0  0  0  0  0  0  0  0  0  0  0  0
   -1.5432   -2.3287   -4.1962 H   0  0  0  0  0  0  0  0  0  0  0  0
    1.6975   -4.2123   -3.2102 C   0  0  0  0  0  0  0  0  0  0  0  0
    2.0060   -2.7106   -1.7459 H   0  0  0  0  0  0  0  0  0  0  0  0
    0.9014   -4.6890   -4.2692 C   0  0  0  0  0  0  0  0  0  0  0  0
   -0.8695   -4.3782   -5.4611 H   0  0  0  0  0  0  0  0  0  0  0  0
    2.6051   -4.7542   -2.9676 H   0  0  0  0  0  0  0  0  0  0  0  0
    0.5153   -0.0204    0.9217 C   0  0  1  0  0  0  0  0  0  0  0  0
    1.0945   -0.8482   -0.2656 C   0  0  2  0  0  0  0  0  0  0  0  0
    1.4987    0.0498    1.9164 C   0  0  0  0  0  0  0  0  0  0  0  0
    2.4297   -0.1520   -0.6574 C   0  0  0  0  0  0  0  0  0  0  0  0
    1.2441   -1.9068   -0.0344 H   0  0  0  0  0  0  0  0  0  0  0  0
    2.8113    0.0877    1.7610 C   0  0  0  0  0  0  0  0  0  0  0  0
    3.2284    0.2795    0.3495 C   0  0  0  0  0  0  0  0  0  0  0  0
    3.5555   -0.0705    2.5369 H   0  0  0  0  0  0  0  0  0  0  0  0
    4.1967    0.7123    0.1188 H   0  0  0  0  0  0  0  0  0  0  0  0
    1.3686   -5.9274   -4.9743 C   0  0  0  0  0  0  0  0  0  0  0  0
    2.3777   -6.5242   -4.6696 O   0  0  0  0  0  0  0  0  0  0  0  0
    0.5435   -6.2930   -5.9711 O   0  0  0  0  0  0  0  0  0  0  0  0
    0.9123   -7.0980   -6.3735 H   0  0  0  0  0  0  0  0  0  0  0  0
   -3.9638    2.3646   -0.8410 C   0  0  0  0  0  0  0  0  0  0  0  0
   -4.3548    2.1797   -1.9735 O   0  0  0  0  0  0  0  0  0  0  0  0
   -4.5704    3.1731    0.0471 O   0  0  0  0  0  0  0  0  0  0  0  0
   -5.3486    3.5559   -0.3930 H   0  0  0  0  0  0  0  0  0  0  0  0
    2.8165    0.0347   -2.0761 C   0  0  0  0  0  0  0  0  0  0  0  0
    2.1125   -0.2669   -3.0225 O   0  0  0  0  0  0  0  0  0  0  0  0
    4.0277    0.6028   -2.2154 O   0  0  0  0  0  0  0  0  0  0  0  0
    4.1826    0.7199   -3.1682 H   0  0  0  0  0  0  0  0  0  0  0  0
  1  2  2  0  0  0  0
  1  6  1  0  0  0  0
  2  3  1  0  0  0  0
  3  4  2  0  0  0  0
  4  9  1  0  0  0  0
  5  4  1  0  0  0  0
  5  8  1  0  0  0  0
  6  5  2  0  0  0  0
  7  1  1  0  0  0  0
 10  2  1  0  0  0  0
 10 23  1  0  0  0  0
 11 10  1  0  0  0  0
 12 14  1  0  0  0  0
 12 11  1  0  0  0  0
 13 12  2  0  0  0  0
 14 18  1  0  0  0  0
 15 19  2  0  0  0  0
 15 13  1  0  0  0  0
 16 13  1  0  0  0  0
 17 21  1  0  0  0  0
 17 14  2  0  0  0  0
 19 17  1  0  0  0  0
 20 15  1  0  0  0  0
 22  3  1  6  0  0  0
 22 24  1  0  0  0  0
 23 26  1  1  0  0  0
 23 22  1  0  0  0  0
 25 23  1  0  0  0  0
 25 28  2  0  0  0  0
 27 24  2  0  0  0  0
 27 29  1  0  0  0  0
 28 27  1  0  0  0  0
 30 28  1  0  0  0  0
 31 32  2  0  0  0  0
 31 19  1  0  0  0  0
 33 31  1  0  0  0  0
 34 33  1  0  0  0  0
 35  6  1  0  0  0  0
 35 37  1  0  0  0  0
 36 35  2  0  0  0  0
 38 37  1  0  0  0  0
 39 25  1  0  0  0  0
 40 39  2  0  0  0  0
 41 39  1  0  0  0  0
 42 41  1  0  0  0  0
M  RAD  3  11   2  22   2  24   2
M  END
