Coordinates from ORCA-job 1g-Schema5-R9-P1+-B3LYPG-6-31G_dp-scan-d49-09-n400
 OpenBabel08231810273D

 42 45  0  0  1  0  0  0  0  0999 V2000
   -1.9838    0.5895   -1.0772 C   0  0  0  0  0  0  0  0  0  0  0  0
   -0.6471    0.2445   -0.9393 C   0  0  0  0  0  0  0  0  0  0  0  0
    0.2531    0.9244   -0.1100 C   0  0  0  0  0  0  0  0  0  0  0  0
   -0.1996    2.0233    0.6094 C   0  0  0  0  0  0  0  0  0  0  0  0
   -1.5471    2.3884    0.5049 C   0  0  0  0  0  0  0  0  0  0  0  0
   -2.4290    1.6875   -0.3364 C   0  0  0  0  0  0  0  0  0  0  0  0
   -2.6699    0.0348   -1.7069 H   0  0  0  0  0  0  0  0  0  0  0  0
   -1.9233    3.2332    1.0704 H   0  0  0  0  0  0  0  0  0  0  0  0
    0.4750    2.5915    1.2404 H   0  0  0  0  0  0  0  0  0  0  0  0
    0.0098   -0.8700   -1.5102 N   0  0  0  0  0  0  0  0  0  0  0  0
   -0.4862   -1.5168   -2.4699 N   0  0  0  0  0  0  0  0  0  0  0  0
    0.0298   -2.7012   -2.9690 C   0  0  0  0  0  0  0  0  0  0  0  0
   -0.3573   -2.9528   -4.3058 C   0  0  0  0  0  0  0  0  0  0  0  0
    0.7845   -3.6670   -2.2556 C   0  0  0  0  0  0  0  0  0  0  0  0
    0.0730   -4.1028   -4.9515 C   0  0  0  0  0  0  0  0  0  0  0  0
   -0.9735   -2.2181   -4.8125 H   0  0  0  0  0  0  0  0  0  0  0  0
    1.1699   -4.8293   -2.9004 C   0  0  0  0  0  0  0  0  0  0  0  0
    0.9945   -3.5514   -1.1995 H   0  0  0  0  0  0  0  0  0  0  0  0
    0.8389   -5.0437   -4.2496 C   0  0  0  0  0  0  0  0  0  0  0  0
   -0.1976   -4.2886   -5.9836 H   0  0  0  0  0  0  0  0  0  0  0  0
    1.7252   -5.6004   -2.3771 H   0  0  0  0  0  0  0  0  0  0  0  0
    0.9826   -1.5751    0.6214 C   0  0  0  0  0  0  0  0  0  0  0  0
    1.2897   -1.0672   -0.7123 C   0  0  2  0  0  0  0  0  0  0  0  0
    1.6419   -1.3571    1.6367 C   0  0  0  0  0  0  0  0  0  0  0  0
    1.6806    0.4273   -0.3146 C   0  0  2  0  0  0  0  0  0  0  0  0
    2.0141   -1.6085   -1.3189 H   0  0  0  0  0  0  0  0  0  0  0  0
    2.4736   -0.2434    1.9863 C   0  0  0  0  0  0  0  0  0  0  0  0
    2.5387    0.6133    0.9374 C   0  0  0  0  0  0  0  0  0  0  0  0
    3.0621   -0.1399    2.8896 H   0  0  0  0  0  0  0  0  0  0  0  0
    3.1921    1.4797    0.9558 H   0  0  0  0  0  0  0  0  0  0  0  0
    1.3121   -6.3211   -4.8779 C   0  0  0  0  0  0  0  0  0  0  0  0
    1.9718   -7.1472   -4.2871 O   0  0  0  0  0  0  0  0  0  0  0  0
    0.9233   -6.4371   -6.1602 O   0  0  0  0  0  0  0  0  0  0  0  0
    1.2645   -7.2854   -6.4915 H   0  0  0  0  0  0  0  0  0  0  0  0
   -3.8742    2.0606   -0.4762 C   0  0  0  0  0  0  0  0  0  0  0  0
   -4.6475    1.4670   -1.1947 O   0  0  0  0  0  0  0  0  0  0  0  0
   -4.2055    3.1233    0.2790 O   0  0  0  0  0  0  0  0  0  0  0  0
   -5.1501    3.3012    0.1311 H   0  0  0  0  0  0  0  0  0  0  0  0
    2.2721    1.1191   -1.5594 C   0  0  0  0  0  0  0  0  0  0  0  0
    2.2567    0.6095   -2.6564 O   0  0  0  0  0  0  0  0  0  0  0  0
    2.7573    2.3349   -1.2838 O   0  0  0  0  0  0  0  0  0  0  0  0
    3.0944    2.7219   -2.1119 H   0  0  0  0  0  0  0  0  0  0  0  0
  1  2  2  0  0  0  0
  1  6  1  0  0  0  0
  2  3  1  0  0  0  0
  3  4  2  0  0  0  0
  4  9  1  0  0  0  0
  5  4  1  0  0  0  0
  5  8  1  0  0  0  0
  6  5  2  0  0  0  0
  7  1  1  0  0  0  0
 10  2  1  0  0  0  0
 10 23  1  0  0  0  0
 11 10  1  0  0  0  0
 12 11  1  0  0  0  0
 12 14  2  0  0  0  0
 13 12  1  0  0  0  0
 14 18  1  0  0  0  0
 15 13  2  0  0  0  0
 15 19  1  0  0  0  0
 16 13  1  0  0  0  0
 17 21  1  0  0  0  0
 17 14  1  0  0  0  0
 19 17  2  0  0  0  0
 20 15  1  0  0  0  0
 22 24  1  0  0  0  0
 23 26  1  6  0  0  0
 23 25  1  0  0  0  0
 23 22  1  0  0  0  0
 24 27  2  0  0  0  0
 25 39  1  6  0  0  0
 25  3  1  0  0  0  0
 25 28  1  0  0  0  0
 27 29  1  0  0  0  0
 28 30  1  0  0  0  0
 28 27  1  0  0  0  0
 31 32  2  0  0  0  0
 31 19  1  0  0  0  0
 33 31  1  0  0  0  0
 34 33  1  0  0  0  0
 35  6  1  0  0  0  0
 35 37  1  0  0  0  0
 36 35  2  0  0  0  0
 38 37  1  0  0  0  0
 39 41  1  0  0  0  0
 40 39  2  0  0  0  0
 42 41  1  0  0  0  0
M  RAD  4  11   2  22   3  24   2  28   2
M  END
