Coordinates from ORCA-job 1g-Schema5-R9-P1+-B3LYPG-6-31G_dp-scan-d49-09-n400
 OpenBabel08231810273D

 42 43  0  0  0  0  0  0  0  0999 V2000
   -3.1422    0.4331   -1.2627 C   0  0  0  0  0  0  0  0  0  0  0  0
   -1.7934    0.1946   -0.8223 C   0  0  0  0  0  0  0  0  0  0  0  0
   -1.7026    1.0281    0.2097 C   0  0  0  0  0  0  0  0  0  0  0  0
   -2.3643    1.9426    0.9381 C   0  0  0  0  0  0  0  0  0  0  0  0
   -3.6718    2.0985    0.4215 C   0  0  0  0  0  0  0  0  0  0  0  0
   -4.0419    1.3241   -0.6925 C   0  0  0  0  0  0  0  0  0  0  0  0
   -3.3879   -0.1917   -2.1315 H   0  0  0  0  0  0  0  0  0  0  0  0
   -4.3529    2.8021    0.8883 H   0  0  0  0  0  0  0  0  0  0  0  0
   -1.9753    2.4872    1.7917 H   0  0  0  0  0  0  0  0  0  0  0  0
   -0.9234   -0.7263   -1.4460 N   0  0  0  0  0  0  0  0  0  0  0  0
   -1.4169   -1.3341   -2.4226 N   0  0  0  0  0  0  0  0  0  0  0  0
   -0.6326   -2.2578   -3.1017 C   0  0  0  0  0  0  0  0  0  0  0  0
   -1.2684   -2.9016   -4.1845 C   0  0  0  0  0  0  0  0  0  0  0  0
    0.7073   -2.5539   -2.7624 C   0  0  0  0  0  0  0  0  0  0  0  0
   -0.5689   -3.8417   -4.9285 C   0  0  0  0  0  0  0  0  0  0  0  0
   -2.2970   -2.6481   -4.4162 H   0  0  0  0  0  0  0  0  0  0  0  0
    1.3925   -3.4909   -3.5126 C   0  0  0  0  0  0  0  0  0  0  0  0
    1.2007   -2.0616   -1.9334 H   0  0  0  0  0  0  0  0  0  0  0  0
    0.7618   -4.1364   -4.5930 C   0  0  0  0  0  0  0  0  0  0  0  0
   -1.0387   -4.3464   -5.7636 H   0  0  0  0  0  0  0  0  0  0  0  0
    2.4207   -3.7346   -3.2732 H   0  0  0  0  0  0  0  0  0  0  0  0
    2.6510    1.0173    1.5631 C   0  0  0  0  0  0  0  0  0  0  0  0
    2.7029   -0.0489    0.6824 C   0  0  0  0  0  0  0  0  0  0  0  0
    3.6619    1.5584    2.0661 C   0  0  0  0  0  0  0  0  0  0  0  0
    4.0385   -0.4505    0.4161 C   0  0  0  0  0  0  0  0  0  0  0  0
    1.8706   -0.5646    0.2172 H   0  0  0  0  0  0  0  0  0  0  0  0
    5.0031    1.2786    1.9015 C   0  0  0  0  0  0  0  0  0  0  0  0
    5.1474    0.1941    1.0103 C   0  0  0  0  0  0  0  0  0  0  0  0
    5.8478    1.7772    2.3604 H   0  0  0  0  0  0  0  0  0  0  0  0
    6.1455   -0.1582    0.7730 H   0  0  0  0  0  0  0  0  0  0  0  0
    1.5692   -5.1399   -5.3617 C   0  0  0  0  0  0  0  0  0  0  0  0
    2.7249   -5.4028   -5.1097 O   0  0  0  0  0  0  0  0  0  0  0  0
    0.8677   -5.7134   -6.3578 O   0  0  0  0  0  0  0  0  0  0  0  0
    1.4608   -6.3447   -6.7997 H   0  0  0  0  0  0  0  0  0  0  0  0
   -5.4028    1.4069   -1.3263 C   0  0  0  0  0  0  0  0  0  0  0  0
   -5.7235    0.7442   -2.2852 O   0  0  0  0  0  0  0  0  0  0  0  0
   -6.1902    2.2955   -0.7014 O   0  0  0  0  0  0  0  0  0  0  0  0
   -7.0500    2.3066   -1.1573 H   0  0  0  0  0  0  0  0  0  0  0  0
    4.2219   -1.5879   -0.5269 C   0  0  0  0  0  0  0  0  0  0  0  0
    3.3103   -2.1522   -1.1106 O   0  0  0  0  0  0  0  0  0  0  0  0
    5.5080   -1.9520   -0.6848 O   0  0  0  0  0  0  0  0  0  0  0  0
    5.5195   -2.6980   -1.3079 H   0  0  0  0  0  0  0  0  0  0  0  0
  1  2  2  0  0  0  0
  1  6  1  0  0  0  0
  2  3  1  0  0  0  0
  3  4  2  0  0  0  0
  4  9  1  0  0  0  0
  5  8  1  0  0  0  0
  5  4  1  0  0  0  0
  6  5  2  0  0  0  0
  7  1  1  0  0  0  0
 10  2  1  0  0  0  0
 11 10  1  0  0  0  0
 12 14  1  0  0  0  0
 12 11  1  0  0  0  0
 13 12  2  0  0  0  0
 14 18  1  0  0  0  0
 15 19  2  0  0  0  0
 15 13  1  0  0  0  0
 16 13  1  0  0  0  0
 17 21  1  0  0  0  0
 17 14  2  0  0  0  0
 19 17  1  0  0  0  0
 20 15  1  0  0  0  0
 22 24  2  0  0  0  0
 23 22  1  0  0  0  0
 25 23  2  0  0  0  0
 25 28  1  0  0  0  0
 26 23  1  0  0  0  0
 27 24  1  0  0  0  0
 27 29  1  0  0  0  0
 28 27  2  0  0  0  0
 30 28  1  0  0  0  0
 31 32  2  0  0  0  0
 31 19  1  0  0  0  0
 33 31  1  0  0  0  0
 34 33  1  0  0  0  0
 35 37  1  0  0  0  0
 35  6  1  0  0  0  0
 36 35  2  0  0  0  0
 38 37  1  0  0  0  0
 39 25  1  0  0  0  0
 40 39  2  0  0  0  0
 41 39  1  0  0  0  0
 42 41  1  0  0  0  0
M  RAD  5   3   2  10   2  11   2  22   2  24   2
M  END
