Coordinates from ORCA-job 1g-Schema5-R9-P1+-B3LYPG-6-31G_dp-scan-d49-09-n400
 OpenBabel08231810273D

 42 43  0  0  0  0  0  0  0  0999 V2000
   -3.2122    0.4372   -1.2817 C   0  0  0  0  0  0  0  0  0  0  0  0
   -1.8667    0.2111   -0.8246 C   0  0  0  0  0  0  0  0  0  0  0  0
   -1.7964    1.0448    0.2089 C   0  0  0  0  0  0  0  0  0  0  0  0
   -2.4762    1.9525    0.9293 C   0  0  0  0  0  0  0  0  0  0  0  0
   -3.7785    2.0966    0.3963 C   0  0  0  0  0  0  0  0  0  0  0  0
   -4.1273    1.3194   -0.7226 C   0  0  0  0  0  0  0  0  0  0  0  0
   -3.4410   -0.1899   -2.1535 H   0  0  0  0  0  0  0  0  0  0  0  0
   -4.4719    2.7936    0.8547 H   0  0  0  0  0  0  0  0  0  0  0  0
   -2.1038    2.5002    1.7882 H   0  0  0  0  0  0  0  0  0  0  0  0
   -0.9811   -0.7015   -1.4384 N   0  0  0  0  0  0  0  0  0  0  0  0
   -1.4580   -1.3161   -2.4186 N   0  0  0  0  0  0  0  0  0  0  0  0
   -0.6569   -2.2325   -3.0878 C   0  0  0  0  0  0  0  0  0  0  0  0
   -1.2747   -2.8873   -4.1744 C   0  0  0  0  0  0  0  0  0  0  0  0
    0.6830   -2.5122   -2.7346 C   0  0  0  0  0  0  0  0  0  0  0  0
   -0.5574   -3.8221   -4.9080 C   0  0  0  0  0  0  0  0  0  0  0  0
   -2.3039   -2.6463   -4.4168 H   0  0  0  0  0  0  0  0  0  0  0  0
    1.3860   -3.4440   -3.4745 C   0  0  0  0  0  0  0  0  0  0  0  0
    1.1630   -2.0113   -1.9029 H   0  0  0  0  0  0  0  0  0  0  0  0
    0.7732   -4.1005   -4.5584 C   0  0  0  0  0  0  0  0  0  0  0  0
   -1.0135   -4.3351   -5.7457 H   0  0  0  0  0  0  0  0  0  0  0  0
    2.4143   -3.6742   -3.2231 H   0  0  0  0  0  0  0  0  0  0  0  0
    2.8150    1.0247    1.6109 C   0  0  0  0  0  0  0  0  0  0  0  0
    2.8044   -0.0357    0.7233 C   0  0  0  0  0  0  0  0  0  0  0  0
    3.8544    1.5330    2.0888 C   0  0  0  0  0  0  0  0  0  0  0  0
    4.1185   -0.4774    0.4153 C   0  0  0  0  0  0  0  0  0  0  0  0
    1.9424   -0.5217    0.2810 H   0  0  0  0  0  0  0  0  0  0  0  0
    5.1803    1.2105    1.8811 C   0  0  0  0  0  0  0  0  0  0  0  0
    5.2643    0.1282    0.9800 C   0  0  0  0  0  0  0  0  0  0  0  0
    6.0540    1.6792    2.3171 H   0  0  0  0  0  0  0  0  0  0  0  0
    6.2433   -0.2532    0.7103 H   0  0  0  0  0  0  0  0  0  0  0  0
    1.5994   -5.0976   -5.3152 C   0  0  0  0  0  0  0  0  0  0  0  0
    2.7557   -5.3457   -5.0517 O   0  0  0  0  0  0  0  0  0  0  0  0
    0.9139   -5.6835   -6.3154 O   0  0  0  0  0  0  0  0  0  0  0  0
    1.5184   -6.3096   -6.7492 H   0  0  0  0  0  0  0  0  0  0  0  0
   -5.4808    1.3896   -1.3733 C   0  0  0  0  0  0  0  0  0  0  0  0
   -5.7840    0.7232   -2.3353 O   0  0  0  0  0  0  0  0  0  0  0  0
   -6.2853    2.2682   -0.7559 O   0  0  0  0  0  0  0  0  0  0  0  0
   -7.1401    2.2700   -1.2211 H   0  0  0  0  0  0  0  0  0  0  0  0
    4.2385   -1.6133   -0.5390 C   0  0  0  0  0  0  0  0  0  0  0  0
    3.2930   -2.1446   -1.0999 O   0  0  0  0  0  0  0  0  0  0  0  0
    5.5072   -2.0173   -0.7362 O   0  0  0  0  0  0  0  0  0  0  0  0
    5.4768   -2.7587   -1.3641 H   0  0  0  0  0  0  0  0  0  0  0  0
  1  2  2  0  0  0  0
  1  6  1  0  0  0  0
  2  3  1  0  0  0  0
  3  4  2  0  0  0  0
  4  9  1  0  0  0  0
  5  8  1  0  0  0  0
  5  4  1  0  0  0  0
  6  5  2  0  0  0  0
  7  1  1  0  0  0  0
 10  2  1  0  0  0  0
 11 10  1  0  0  0  0
 12 14  1  0  0  0  0
 12 11  1  0  0  0  0
 13 12  2  0  0  0  0
 14 18  1  0  0  0  0
 15 19  2  0  0  0  0
 15 13  1  0  0  0  0
 16 13  1  0  0  0  0
 17 21  1  0  0  0  0
 17 14  2  0  0  0  0
 19 17  1  0  0  0  0
 20 15  1  0  0  0  0
 22 24  2  0  0  0  0
 23 22  1  0  0  0  0
 25 23  2  0  0  0  0
 25 28  1  0  0  0  0
 26 23  1  0  0  0  0
 27 24  1  0  0  0  0
 27 29  1  0  0  0  0
 28 27  2  0  0  0  0
 30 28  1  0  0  0  0
 31 32  2  0  0  0  0
 31 19  1  0  0  0  0
 33 31  1  0  0  0  0
 34 33  1  0  0  0  0
 35 37  1  0  0  0  0
 35  6  1  0  0  0  0
 36 35  2  0  0  0  0
 38 37  1  0  0  0  0
 39 25  1  0  0  0  0
 40 39  2  0  0  0  0
 41 39  1  0  0  0  0
 42 41  1  0  0  0  0
M  RAD  5   3   2  10   2  11   2  22   2  24   2
M  END
