Coordinates from ORCA-job 1g-Schema5-R9-P1+-B3LYPG-6-31G_dp-scan-d49-09-n400
 OpenBabel08231810273D

 42 45  0  0  1  0  0  0  0  0999 V2000
   -2.0460    0.8405   -1.1177 C   0  0  0  0  0  0  0  0  0  0  0  0
   -0.9182    0.2369   -0.5960 C   0  0  0  0  0  0  0  0  0  0  0  0
   -0.3730    0.4605    0.7350 C   0  0  0  0  0  0  0  0  0  0  0  0
   -1.1840    1.3338    1.5616 C   0  0  0  0  0  0  0  0  0  0  0  0
   -2.3068    1.9421    1.0548 C   0  0  0  0  0  0  0  0  0  0  0  0
   -2.7416    1.7128   -0.2803 C   0  0  0  0  0  0  0  0  0  0  0  0
   -2.3905    0.6558   -2.1282 H   0  0  0  0  0  0  0  0  0  0  0  0
   -2.8929    2.6040    1.6820 H   0  0  0  0  0  0  0  0  0  0  0  0
   -0.8947    1.4676    2.5990 H   0  0  0  0  0  0  0  0  0  0  0  0
   -0.0701   -0.7035   -1.2049 N   0  0  0  0  0  0  0  0  0  0  0  0
   -0.4487   -1.3110   -2.2588 N   0  0  0  0  0  0  0  0  0  0  0  0
    0.1431   -2.3900   -2.8581 C   0  0  0  0  0  0  0  0  0  0  0  0
   -0.6435   -2.8759   -3.9376 C   0  0  0  0  0  0  0  0  0  0  0  0
    1.3458   -3.0713   -2.5191 C   0  0  0  0  0  0  0  0  0  0  0  0
   -0.2715   -4.0141   -4.6342 C   0  0  0  0  0  0  0  0  0  0  0  0
   -1.5499   -2.3353   -4.1858 H   0  0  0  0  0  0  0  0  0  0  0  0
    1.7004   -4.2098   -3.2144 C   0  0  0  0  0  0  0  0  0  0  0  0
    2.0116   -2.7067   -1.7518 H   0  0  0  0  0  0  0  0  0  0  0  0
    0.9006   -4.6890   -4.2693 C   0  0  0  0  0  0  0  0  0  0  0  0
   -0.8767   -4.3835   -5.4532 H   0  0  0  0  0  0  0  0  0  0  0  0
    2.6105   -4.7492   -2.9758 H   0  0  0  0  0  0  0  0  0  0  0  0
    0.5227   -0.0325    0.9272 C   0  0  1  0  0  0  0  0  0  0  0  0
    1.0958   -0.8518   -0.2648 C   0  0  2  0  0  0  0  0  0  0  0  0
    1.5014    0.0384    1.9195 C   0  0  0  0  0  0  0  0  0  0  0  0
    2.4304   -0.1492   -0.6539 C   0  0  0  0  0  0  0  0  0  0  0  0
    1.2494   -1.9119   -0.0441 H   0  0  0  0  0  0  0  0  0  0  0  0
    2.8146    0.0780    1.7648 C   0  0  0  0  0  0  0  0  0  0  0  0
    3.2291    0.2806    0.3539 C   0  0  0  0  0  0  0  0  0  0  0  0
    3.5597   -0.0905    2.5376 H   0  0  0  0  0  0  0  0  0  0  0  0
    4.1965    0.7156    0.1233 H   0  0  0  0  0  0  0  0  0  0  0  0
    1.3679   -5.9265   -4.9762 C   0  0  0  0  0  0  0  0  0  0  0  0
    2.3798   -6.5205   -4.6756 O   0  0  0  0  0  0  0  0  0  0  0  0
    0.5393   -6.2947   -5.9691 O   0  0  0  0  0  0  0  0  0  0  0  0
    0.9083   -7.0989   -6.3729 H   0  0  0  0  0  0  0  0  0  0  0  0
   -3.9633    2.3647   -0.8459 C   0  0  0  0  0  0  0  0  0  0  0  0
   -4.3542    2.1766   -1.9778 O   0  0  0  0  0  0  0  0  0  0  0  0
   -4.5705    3.1752    0.0400 O   0  0  0  0  0  0  0  0  0  0  0  0
   -5.3486    3.5566   -0.4014 H   0  0  0  0  0  0  0  0  0  0  0  0
    2.8158    0.0402   -2.0725 C   0  0  0  0  0  0  0  0  0  0  0  0
    2.1146   -0.2689   -3.0187 O   0  0  0  0  0  0  0  0  0  0  0  0
    4.0216    0.6195   -2.2123 O   0  0  0  0  0  0  0  0  0  0  0  0
    4.1758    0.7363   -3.1652 H   0  0  0  0  0  0  0  0  0  0  0  0
  1  2  2  0  0  0  0
  1  6  1  0  0  0  0
  2  3  1  0  0  0  0
  3  4  2  0  0  0  0
  4  9  1  0  0  0  0
  5  4  1  0  0  0  0
  5  8  1  0  0  0  0
  6  5  2  0  0  0  0
  7  1  1  0  0  0  0
 10  2  1  0  0  0  0
 10 23  1  0  0  0  0
 11 10  1  0  0  0  0
 12 14  1  0  0  0  0
 12 11  1  0  0  0  0
 13 12  2  0  0  0  0
 14 18  1  0  0  0  0
 15 19  2  0  0  0  0
 15 13  1  0  0  0  0
 16 13  1  0  0  0  0
 17 21  1  0  0  0  0
 17 14  2  0  0  0  0
 19 17  1  0  0  0  0
 20 15  1  0  0  0  0
 22  3  1  6  0  0  0
 22 24  1  0  0  0  0
 23 26  1  1  0  0  0
 23 22  1  0  0  0  0
 25 23  1  0  0  0  0
 25 28  2  0  0  0  0
 27 24  2  0  0  0  0
 27 29  1  0  0  0  0
 28 27  1  0  0  0  0
 30 28  1  0  0  0  0
 31 32  2  0  0  0  0
 31 19  1  0  0  0  0
 33 31  1  0  0  0  0
 34 33  1  0  0  0  0
 35  6  1  0  0  0  0
 35 37  1  0  0  0  0
 36 35  2  0  0  0  0
 38 37  1  0  0  0  0
 39 25  1  0  0  0  0
 40 39  2  0  0  0  0
 41 39  1  0  0  0  0
 42 41  1  0  0  0  0
M  RAD  3  11   2  22   2  24   2
M  END
