Coordinates from ORCA-job 1g-Schema5-R9-P1+-B3LYPG-6-31G_dp-scan-d49-09-n400
 OpenBabel08231810273D

 42 45  0  0  1  0  0  0  0  0999 V2000
   -1.9663    0.5412   -1.0884 C   0  0  0  0  0  0  0  0  0  0  0  0
   -0.6243    0.2285   -0.9037 C   0  0  0  0  0  0  0  0  0  0  0  0
    0.2518    1.0109   -0.1469 C   0  0  0  0  0  0  0  0  0  0  0  0
   -0.2263    2.1702    0.4559 C   0  0  0  0  0  0  0  0  0  0  0  0
   -1.5740    2.5049    0.2961 C   0  0  0  0  0  0  0  0  0  0  0  0
   -2.4368    1.7010   -0.4720 C   0  0  0  0  0  0  0  0  0  0  0  0
   -2.6343   -0.0822   -1.6710 H   0  0  0  0  0  0  0  0  0  0  0  0
   -1.9682    3.3991    0.7646 H   0  0  0  0  0  0  0  0  0  0  0  0
    0.4309    2.8095    1.0345 H   0  0  0  0  0  0  0  0  0  0  0  0
    0.0505   -0.9023   -1.4226 N   0  0  0  0  0  0  0  0  0  0  0  0
   -0.4911   -1.6208   -2.3081 N   0  0  0  0  0  0  0  0  0  0  0  0
    0.0287   -2.7742   -2.8602 C   0  0  0  0  0  0  0  0  0  0  0  0
   -0.6512   -3.1363   -4.0514 C   0  0  0  0  0  0  0  0  0  0  0  0
    1.0685   -3.6074   -2.3658 C   0  0  0  0  0  0  0  0  0  0  0  0
   -0.2671   -4.2573   -4.7698 C   0  0  0  0  0  0  0  0  0  0  0  0
   -1.4645   -2.5029   -4.3883 H   0  0  0  0  0  0  0  0  0  0  0  0
    1.4188   -4.7405   -3.0779 C   0  0  0  0  0  0  0  0  0  0  0  0
    1.5460   -3.4186   -1.4148 H   0  0  0  0  0  0  0  0  0  0  0  0
    0.7722   -5.0622   -4.2839 C   0  0  0  0  0  0  0  0  0  0  0  0
   -0.7718   -4.5228   -5.6905 H   0  0  0  0  0  0  0  0  0  0  0  0
    2.1961   -5.4059   -2.7176 H   0  0  0  0  0  0  0  0  0  0  0  0
    1.3782   -1.8801    0.4285 C   0  0  0  0  0  0  0  0  0  0  0  0
    1.4118   -1.0167   -0.7542 C   0  0  2  0  0  0  0  0  0  0  0  0
    1.9400   -1.6263    1.4874 C   0  0  0  0  0  0  0  0  0  0  0  0
    1.6755    0.4642   -0.1988 C   0  0  2  0  0  0  0  0  0  0  0  0
    2.1238   -1.2992   -1.5328 H   0  0  0  0  0  0  0  0  0  0  0  0
    2.4828   -0.4277    2.0524 C   0  0  0  0  0  0  0  0  0  0  0  0
    2.3737    0.5856    1.1608 C   0  0  0  0  0  0  0  0  0  0  0  0
    2.9788   -0.3338    3.0099 H   0  0  0  0  0  0  0  0  0  0  0  0
    2.7879    1.5624    1.3891 H   0  0  0  0  0  0  0  0  0  0  0  0
    1.2279   -6.3011   -4.9981 C   0  0  0  0  0  0  0  0  0  0  0  0
    2.1211   -7.0103   -4.5919 O   0  0  0  0  0  0  0  0  0  0  0  0
    0.5350   -6.5247   -6.1285 O   0  0  0  0  0  0  0  0  0  0  0  0
    0.8844   -7.3399   -6.5278 H   0  0  0  0  0  0  0  0  0  0  0  0
   -3.8858    2.0338   -0.6653 C   0  0  0  0  0  0  0  0  0  0  0  0
   -4.6429    1.3540   -1.3221 O   0  0  0  0  0  0  0  0  0  0  0  0
   -4.2412    3.1661   -0.0318 O   0  0  0  0  0  0  0  0  0  0  0  0
   -5.1866    3.3122   -0.2072 H   0  0  0  0  0  0  0  0  0  0  0  0
    2.4342    1.2414   -1.3022 C   0  0  0  0  0  0  0  0  0  0  0  0
    2.6121    0.8063   -2.4155 O   0  0  0  0  0  0  0  0  0  0  0  0
    2.8230    2.4523   -0.8827 O   0  0  0  0  0  0  0  0  0  0  0  0
    3.2683    2.9002   -1.6243 H   0  0  0  0  0  0  0  0  0  0  0  0
  1  2  2  0  0  0  0
  1  6  1  0  0  0  0
  2  3  1  0  0  0  0
  3  4  2  0  0  0  0
  4  9  1  0  0  0  0
  5  4  1  0  0  0  0
  5  8  1  0  0  0  0
  6  5  2  0  0  0  0
  7  1  1  0  0  0  0
 10  2  1  0  0  0  0
 10 23  1  0  0  0  0
 11 10  1  0  0  0  0
 12 14  1  0  0  0  0
 12 11  1  0  0  0  0
 13 12  2  0  0  0  0
 14 18  1  0  0  0  0
 15 19  2  0  0  0  0
 15 13  1  0  0  0  0
 16 13  1  0  0  0  0
 17 21  1  0  0  0  0
 17 14  2  0  0  0  0
 19 17  1  0  0  0  0
 20 15  1  0  0  0  0
 22 24  1  0  0  0  0
 23 26  1  6  0  0  0
 23 25  1  0  0  0  0
 23 22  1  0  0  0  0
 24 27  2  0  0  0  0
 25 39  1  6  0  0  0
 25  3  1  0  0  0  0
 25 28  1  0  0  0  0
 27 29  1  0  0  0  0
 28 30  1  0  0  0  0
 28 27  1  0  0  0  0
 31 32  2  0  0  0  0
 31 19  1  0  0  0  0
 33 31  1  0  0  0  0
 34 33  1  0  0  0  0
 35  6  1  0  0  0  0
 35 37  1  0  0  0  0
 36 35  2  0  0  0  0
 38 37  1  0  0  0  0
 39 41  1  0  0  0  0
 40 39  2  0  0  0  0
 42 41  1  0  0  0  0
M  RAD  4  11   2  22   3  24   2  28   2
M  END
