Coordinates from ORCA-job 1g-Schema5-R9-P1+-B3LYPG-6-31G_dp-scan-d49-09-n400
 OpenBabel08231810273D

 42 45  0  0  1  0  0  0  0  0999 V2000
   -2.0111    0.8431   -1.1377 C   0  0  0  0  0  0  0  0  0  0  0  0
   -0.9045    0.2470   -0.5532 C   0  0  0  0  0  0  0  0  0  0  0  0
   -0.5049    0.4825    0.7791 C   0  0  0  0  0  0  0  0  0  0  0  0
   -1.2700    1.3523    1.5701 C   0  0  0  0  0  0  0  0  0  0  0  0
   -2.3832    1.9647    1.0030 C   0  0  0  0  0  0  0  0  0  0  0  0
   -2.7511    1.7180   -0.3377 C   0  0  0  0  0  0  0  0  0  0  0  0
   -2.3045    0.6577   -2.1636 H   0  0  0  0  0  0  0  0  0  0  0  0
   -2.9876    2.6441    1.5928 H   0  0  0  0  0  0  0  0  0  0  0  0
   -1.0007    1.5317    2.6051 H   0  0  0  0  0  0  0  0  0  0  0  0
   -0.0316   -0.7092   -1.1494 N   0  0  0  0  0  0  0  0  0  0  0  0
   -0.4316   -1.3360   -2.1749 N   0  0  0  0  0  0  0  0  0  0  0  0
    0.1539   -2.4016   -2.8115 C   0  0  0  0  0  0  0  0  0  0  0  0
   -0.7110   -2.9330   -3.8058 C   0  0  0  0  0  0  0  0  0  0  0  0
    1.4141   -3.0234   -2.5878 C   0  0  0  0  0  0  0  0  0  0  0  0
   -0.3609   -4.0651   -4.5244 C   0  0  0  0  0  0  0  0  0  0  0  0
   -1.6591   -2.4337   -3.9705 H   0  0  0  0  0  0  0  0  0  0  0  0
    1.7497   -4.1526   -3.3083 C   0  0  0  0  0  0  0  0  0  0  0  0
    2.1400   -2.6137   -1.9036 H   0  0  0  0  0  0  0  0  0  0  0  0
    0.8703   -4.6824   -4.2709 C   0  0  0  0  0  0  0  0  0  0  0  0
   -1.0273   -4.4712   -5.2758 H   0  0  0  0  0  0  0  0  0  0  0  0
    2.7039   -4.6461   -3.1598 H   0  0  0  0  0  0  0  0  0  0  0  0
    0.6601   -0.2478    1.0493 C   0  0  1  0  0  0  0  0  0  0  0  0
    1.1493   -0.9051   -0.2344 C   0  0  2  0  0  0  0  0  0  0  0  0
    1.6156   -0.1580    1.9800 C   0  0  0  0  0  0  0  0  0  0  0  0
    2.4637   -0.1130   -0.5957 C   0  0  0  0  0  0  0  0  0  0  0  0
    1.3560   -1.9762   -0.1718 H   0  0  0  0  0  0  0  0  0  0  0  0
    2.9292   -0.0550    1.8199 C   0  0  0  0  0  0  0  0  0  0  0  0
    3.2800    0.2811    0.4148 C   0  0  0  0  0  0  0  0  0  0  0  0
    3.7034   -0.3044    2.5390 H   0  0  0  0  0  0  0  0  0  0  0  0
    4.2325    0.7439    0.1770 H   0  0  0  0  0  0  0  0  0  0  0  0
    1.3200   -5.9103   -5.0079 C   0  0  0  0  0  0  0  0  0  0  0  0
    2.3815   -6.4553   -4.8011 O   0  0  0  0  0  0  0  0  0  0  0  0
    0.4150   -6.3275   -5.9097 O   0  0  0  0  0  0  0  0  0  0  0  0
    0.7766   -7.1214   -6.3400 H   0  0  0  0  0  0  0  0  0  0  0  0
   -3.9437    2.3663   -0.9716 C   0  0  0  0  0  0  0  0  0  0  0  0
   -4.2824    2.1625   -2.1171 O   0  0  0  0  0  0  0  0  0  0  0  0
   -4.5888    3.1937   -0.1292 O   0  0  0  0  0  0  0  0  0  0  0  0
   -5.3439    3.5688   -0.6138 H   0  0  0  0  0  0  0  0  0  0  0  0
    2.8096    0.1421   -2.0131 C   0  0  0  0  0  0  0  0  0  0  0  0
    2.1272   -0.2192   -2.9557 O   0  0  0  0  0  0  0  0  0  0  0  0
    3.9513    0.8370   -2.1588 O   0  0  0  0  0  0  0  0  0  0  0  0
    4.0848    0.9754   -3.1120 H   0  0  0  0  0  0  0  0  0  0  0  0
  1  2  2  0  0  0  0
  1  6  1  0  0  0  0
  2  3  1  0  0  0  0
  3  4  2  0  0  0  0
  4  9  1  0  0  0  0
  5  4  1  0  0  0  0
  5  8  1  0  0  0  0
  6  5  2  0  0  0  0
  7  1  1  0  0  0  0
 10  2  1  0  0  0  0
 10 23  1  0  0  0  0
 11 10  1  0  0  0  0
 12 14  1  0  0  0  0
 12 11  1  0  0  0  0
 13 12  2  0  0  0  0
 14 18  1  0  0  0  0
 15 19  2  0  0  0  0
 15 13  1  0  0  0  0
 16 13  1  0  0  0  0
 17 21  1  0  0  0  0
 17 14  2  0  0  0  0
 19 17  1  0  0  0  0
 20 15  1  0  0  0  0
 22  3  1  6  0  0  0
 22 24  1  0  0  0  0
 23 26  1  1  0  0  0
 23 22  1  0  0  0  0
 25 23  1  0  0  0  0
 25 28  2  0  0  0  0
 27 24  1  0  0  0  0
 27 29  1  0  0  0  0
 28 27  1  0  0  0  0
 30 28  1  0  0  0  0
 31 32  2  0  0  0  0
 31 19  1  0  0  0  0
 33 31  1  0  0  0  0
 34 33  1  0  0  0  0
 35  6  1  0  0  0  0
 35 37  1  0  0  0  0
 36 35  2  0  0  0  0
 38 37  1  0  0  0  0
 39 25  1  0  0  0  0
 40 39  2  0  0  0  0
 41 39  1  0  0  0  0
 42 41  1  0  0  0  0
M  RAD  4  11   2  22   2  24   3  27   2
M  END
