Coordinates from ORCA-job 1g-Schema5-R9-P1+-B3LYPG-6-31G_dp-scan-d49-09-n400
 OpenBabel08231810273D

 42 45  0  0  1  0  0  0  0  0999 V2000
   -2.0311    0.8405   -1.1285 C   0  0  0  0  0  0  0  0  0  0  0  0
   -0.9091    0.2463   -0.5781 C   0  0  0  0  0  0  0  0  0  0  0  0
   -0.4386    0.4761    0.7513 C   0  0  0  0  0  0  0  0  0  0  0  0
   -1.2161    1.3509    1.5582 C   0  0  0  0  0  0  0  0  0  0  0  0
   -2.3397    1.9583    1.0255 C   0  0  0  0  0  0  0  0  0  0  0  0
   -2.7480    1.7143   -0.3084 C   0  0  0  0  0  0  0  0  0  0  0  0
   -2.3544    0.6515   -2.1449 H   0  0  0  0  0  0  0  0  0  0  0  0
   -2.9314    2.6321    1.6344 H   0  0  0  0  0  0  0  0  0  0  0  0
   -0.9285    1.5191    2.5906 H   0  0  0  0  0  0  0  0  0  0  0  0
   -0.0484   -0.7032   -1.1827 N   0  0  0  0  0  0  0  0  0  0  0  0
   -0.4398   -1.3244   -2.2181 N   0  0  0  0  0  0  0  0  0  0  0  0
    0.1491   -2.3971   -2.8363 C   0  0  0  0  0  0  0  0  0  0  0  0
   -0.6793   -2.9060   -3.8727 C   0  0  0  0  0  0  0  0  0  0  0  0
    1.3823   -3.0489   -2.5546 C   0  0  0  0  0  0  0  0  0  0  0  0
   -0.3186   -4.0411   -4.5807 C   0  0  0  0  0  0  0  0  0  0  0  0
   -1.6081   -2.3861   -4.0788 H   0  0  0  0  0  0  0  0  0  0  0  0
    1.7268   -4.1831   -3.2623 C   0  0  0  0  0  0  0  0  0  0  0  0
    2.0801   -2.6621   -1.8285 H   0  0  0  0  0  0  0  0  0  0  0  0
    0.8848   -4.6874   -4.2713 C   0  0  0  0  0  0  0  0  0  0  0  0
   -0.9562   -4.4289   -5.3660 H   0  0  0  0  0  0  0  0  0  0  0  0
    2.6602   -4.7001   -3.0684 H   0  0  0  0  0  0  0  0  0  0  0  0
    0.5926   -0.1340    0.9853 C   0  0  1  0  0  0  0  0  0  0  0  0
    1.1212   -0.8756   -0.2509 C   0  0  2  0  0  0  0  0  0  0  0  0
    1.5488   -0.0585    1.9494 C   0  0  0  0  0  0  0  0  0  0  0  0
    2.4493   -0.1267   -0.6222 C   0  0  0  0  0  0  0  0  0  0  0  0
    1.3031   -1.9445   -0.1115 H   0  0  0  0  0  0  0  0  0  0  0  0
    2.8645    0.0048    1.7971 C   0  0  0  0  0  0  0  0  0  0  0  0
    3.2537    0.2835    0.3906 C   0  0  0  0  0  0  0  0  0  0  0  0
    3.6199   -0.2242    2.5431 H   0  0  0  0  0  0  0  0  0  0  0  0
    4.2151    0.7314    0.1597 H   0  0  0  0  0  0  0  0  0  0  0  0
    1.3427   -5.9208   -4.9930 C   0  0  0  0  0  0  0  0  0  0  0  0
    2.3805   -6.4909   -4.7384 O   0  0  0  0  0  0  0  0  0  0  0  0
    0.4740   -6.3130   -5.9409 O   0  0  0  0  0  0  0  0  0  0  0  0
    0.8388   -7.1124   -6.3579 H   0  0  0  0  0  0  0  0  0  0  0  0
   -3.9601    2.3599   -0.9048 C   0  0  0  0  0  0  0  0  0  0  0  0
   -4.3310    2.1579   -2.0408 O   0  0  0  0  0  0  0  0  0  0  0  0
   -4.5832    3.1819   -0.0408 O   0  0  0  0  0  0  0  0  0  0  0  0
   -5.3533    3.5566   -0.5015 H   0  0  0  0  0  0  0  0  0  0  0  0
    2.8187    0.0952   -2.0396 C   0  0  0  0  0  0  0  0  0  0  0  0
    2.1307   -0.2460   -2.9851 O   0  0  0  0  0  0  0  0  0  0  0  0
    3.9904    0.7396   -2.1807 O   0  0  0  0  0  0  0  0  0  0  0  0
    4.1369    0.8658   -3.1336 H   0  0  0  0  0  0  0  0  0  0  0  0
  1  2  2  0  0  0  0
  1  6  1  0  0  0  0
  2  3  1  0  0  0  0
  3  4  2  0  0  0  0
  4  9  1  0  0  0  0
  5  4  1  0  0  0  0
  5  8  1  0  0  0  0
  6  5  2  0  0  0  0
  7  1  1  0  0  0  0
 10  2  1  0  0  0  0
 10 23  1  0  0  0  0
 11 10  1  0  0  0  0
 12 14  1  0  0  0  0
 12 11  1  0  0  0  0
 13 12  2  0  0  0  0
 14 18  1  0  0  0  0
 15 19  2  0  0  0  0
 15 13  1  0  0  0  0
 16 13  1  0  0  0  0
 17 21  1  0  0  0  0
 17 14  2  0  0  0  0
 19 17  1  0  0  0  0
 20 15  1  0  0  0  0
 22  3  1  6  0  0  0
 22 24  1  0  0  0  0
 23 26  1  1  0  0  0
 23 22  1  0  0  0  0
 25 23  1  0  0  0  0
 25 28  2  0  0  0  0
 27 24  2  0  0  0  0
 27 29  1  0  0  0  0
 28 27  1  0  0  0  0
 30 28  1  0  0  0  0
 31 32  2  0  0  0  0
 31 19  1  0  0  0  0
 33 31  1  0  0  0  0
 34 33  1  0  0  0  0
 35  6  1  0  0  0  0
 35 37  1  0  0  0  0
 36 35  2  0  0  0  0
 38 37  1  0  0  0  0
 39 25  1  0  0  0  0
 40 39  2  0  0  0  0
 41 39  1  0  0  0  0
 42 41  1  0  0  0  0
M  RAD  3  11   2  22   2  24   2
M  END
