Coordinates from ORCA-job 1g-Schema5-R9-P1+-B3LYPG-6-31G_dp-scan-d49-09-n400
 OpenBabel08231810273D

 42 45  0  0  1  0  0  0  0  0999 V2000
   -1.9850    0.5954   -1.0773 C   0  0  0  0  0  0  0  0  0  0  0  0
   -0.6496    0.2460   -0.9439 C   0  0  0  0  0  0  0  0  0  0  0  0
    0.2531    0.9112   -0.1044 C   0  0  0  0  0  0  0  0  0  0  0  0
   -0.1963    2.0036    0.6265 C   0  0  0  0  0  0  0  0  0  0  0  0
   -1.5434    2.3726    0.5276 C   0  0  0  0  0  0  0  0  0  0  0  0
   -2.4273    1.6854   -0.3225 C   0  0  0  0  0  0  0  0  0  0  0  0
   -2.6729    0.0500   -1.7132 H   0  0  0  0  0  0  0  0  0  0  0  0
   -1.9172    3.2115    1.1036 H   0  0  0  0  0  0  0  0  0  0  0  0
    0.4804    2.5631    1.2630 H   0  0  0  0  0  0  0  0  0  0  0  0
    0.0044   -0.8684   -1.5185 N   0  0  0  0  0  0  0  0  0  0  0  0
   -0.4852   -1.5071   -2.4862 N   0  0  0  0  0  0  0  0  0  0  0  0
    0.0301   -2.6943   -2.9806 C   0  0  0  0  0  0  0  0  0  0  0  0
   -0.3245   -2.9363   -4.3276 C   0  0  0  0  0  0  0  0  0  0  0  0
    0.7532   -3.6712   -2.2504 C   0  0  0  0  0  0  0  0  0  0  0  0
    0.1103   -4.0890   -4.9657 C   0  0  0  0  0  0  0  0  0  0  0  0
   -0.9183   -2.1928   -4.8480 H   0  0  0  0  0  0  0  0  0  0  0  0
    1.1424   -4.8360   -2.8885 C   0  0  0  0  0  0  0  0  0  0  0  0
    0.9340   -3.5614   -1.1880 H   0  0  0  0  0  0  0  0  0  0  0  0
    0.8459   -5.0414   -4.2471 C   0  0  0  0  0  0  0  0  0  0  0  0
   -0.1345   -4.2681   -6.0054 H   0  0  0  0  0  0  0  0  0  0  0  0
    1.6733   -5.6158   -2.3531 H   0  0  0  0  0  0  0  0  0  0  0  0
    0.9358   -1.5209    0.6427 C   0  0  0  0  0  0  0  0  0  0  0  0
    1.2738   -1.0724   -0.7047 C   0  0  2  0  0  0  0  0  0  0  0  0
    1.6091   -1.3158    1.6534 C   0  0  0  0  0  0  0  0  0  0  0  0
    1.6819    0.4223   -0.3281 C   0  0  2  0  0  0  0  0  0  0  0  0
    1.9951   -1.6463   -1.2837 H   0  0  0  0  0  0  0  0  0  0  0  0
    2.4724   -0.2188    1.9773 C   0  0  0  0  0  0  0  0  0  0  0  0
    2.5567    0.6140    0.9102 C   0  0  0  0  0  0  0  0  0  0  0  0
    3.0696   -0.1152    2.8750 H   0  0  0  0  0  0  0  0  0  0  0  0
    3.2356    1.4607    0.9041 H   0  0  0  0  0  0  0  0  0  0  0  0
    1.3208   -6.3220   -4.8674 C   0  0  0  0  0  0  0  0  0  0  0  0
    1.9541   -7.1583   -4.2621 O   0  0  0  0  0  0  0  0  0  0  0  0
    0.9653   -6.4290   -6.1601 O   0  0  0  0  0  0  0  0  0  0  0  0
    1.3052   -7.2802   -6.4852 H   0  0  0  0  0  0  0  0  0  0  0  0
   -3.8714    2.0641   -0.4573 C   0  0  0  0  0  0  0  0  0  0  0  0
   -4.6463    1.4819   -1.1834 O   0  0  0  0  0  0  0  0  0  0  0  0
   -4.2002    3.1171    0.3126 O   0  0  0  0  0  0  0  0  0  0  0  0
   -5.1445    3.2990    0.1675 H   0  0  0  0  0  0  0  0  0  0  0  0
    2.2561    1.1045   -1.5853 C   0  0  0  0  0  0  0  0  0  0  0  0
    2.2321    0.5837   -2.6769 O   0  0  0  0  0  0  0  0  0  0  0  0
    2.7432    2.3229   -1.3255 O   0  0  0  0  0  0  0  0  0  0  0  0
    3.0722    2.7025   -2.1602 H   0  0  0  0  0  0  0  0  0  0  0  0
  1  2  2  0  0  0  0
  1  6  1  0  0  0  0
  2  3  1  0  0  0  0
  3  4  2  0  0  0  0
  4  9  1  0  0  0  0
  5  4  1  0  0  0  0
  5  8  1  0  0  0  0
  6  5  2  0  0  0  0
  7  1  1  0  0  0  0
 10  2  1  0  0  0  0
 10 23  1  0  0  0  0
 11 10  1  0  0  0  0
 12 11  1  0  0  0  0
 12 14  2  0  0  0  0
 13 12  1  0  0  0  0
 14 18  1  0  0  0  0
 15 13  2  0  0  0  0
 15 19  1  0  0  0  0
 16 13  1  0  0  0  0
 17 21  1  0  0  0  0
 17 14  1  0  0  0  0
 19 17  2  0  0  0  0
 20 15  1  0  0  0  0
 22 24  1  0  0  0  0
 23 26  1  6  0  0  0
 23 25  1  0  0  0  0
 23 22  1  0  0  0  0
 24 27  2  0  0  0  0
 25 39  1  6  0  0  0
 25  3  1  0  0  0  0
 25 28  1  0  0  0  0
 27 29  1  0  0  0  0
 28 27  1  0  0  0  0
 30 28  1  0  0  0  0
 31 32  2  0  0  0  0
 31 19  1  0  0  0  0
 33 31  1  0  0  0  0
 34 33  1  0  0  0  0
 35  6  1  0  0  0  0
 35 37  1  0  0  0  0
 36 35  2  0  0  0  0
 38 37  1  0  0  0  0
 39 41  1  0  0  0  0
 40 39  2  0  0  0  0
 42 41  1  0  0  0  0
M  RAD  4  11   2  22   3  24   2  28   2
M  END
