Coordinates from ORCA-job 1g-Schema5-R9-P1+-B3LYPG-6-31G_dp-scan-d49-09-n400
 OpenBabel08231810273D

 42 45  0  0  1  0  0  0  0  0999 V2000
   -1.9006    0.6711   -1.3220 C   0  0  0  0  0  0  0  0  0  0  0  0
   -0.5768    0.3407   -1.0474 C   0  0  0  0  0  0  0  0  0  0  0  0
    0.2448    1.1093   -0.2182 C   0  0  0  0  0  0  0  0  0  0  0  0
   -0.2656    2.2657    0.3638 C   0  0  0  0  0  0  0  0  0  0  0  0
   -1.5933    2.6178    0.1070 C   0  0  0  0  0  0  0  0  0  0  0  0
   -2.4059    1.8263   -0.7259 C   0  0  0  0  0  0  0  0  0  0  0  0
   -2.5271    0.0695   -1.9697 H   0  0  0  0  0  0  0  0  0  0  0  0
   -2.0102    3.5148    0.5496 H   0  0  0  0  0  0  0  0  0  0  0  0
    0.3562    2.8896    0.9961 H   0  0  0  0  0  0  0  0  0  0  0  0
    0.1195   -0.7781   -1.5744 N   0  0  0  0  0  0  0  0  0  0  0  0
   -0.5059   -1.6378   -2.2582 N   0  0  0  0  0  0  0  0  0  0  0  0
    0.0331   -2.7424   -2.8823 C   0  0  0  0  0  0  0  0  0  0  0  0
   -0.9737   -3.6565   -3.2894 C   0  0  0  0  0  0  0  0  0  0  0  0
    1.3929   -3.0167   -3.1948 C   0  0  0  0  0  0  0  0  0  0  0  0
   -0.6382   -4.8395   -3.9273 C   0  0  0  0  0  0  0  0  0  0  0  0
   -2.0062   -3.4076   -3.0711 H   0  0  0  0  0  0  0  0  0  0  0  0
    1.7097   -4.1878   -3.8609 C   0  0  0  0  0  0  0  0  0  0  0  0
    2.1837   -2.3167   -2.9726 H   0  0  0  0  0  0  0  0  0  0  0  0
    0.7084   -5.1082   -4.2135 C   0  0  0  0  0  0  0  0  0  0  0  0
   -1.4049   -5.5470   -4.2190 H   0  0  0  0  0  0  0  0  0  0  0  0
    2.7361   -4.4168   -4.1252 H   0  0  0  0  0  0  0  0  0  0  0  0
    1.9798   -1.9878   -0.4367 C   0  0  0  0  0  0  0  0  0  0  0  0
    1.5750   -0.7487   -1.1189 C   0  0  2  0  0  0  0  0  0  0  0  0
    2.3094   -2.0299    0.7411 C   0  0  0  0  0  0  0  0  0  0  0  0
    1.6366    0.4841   -0.0882 C   0  0  2  0  0  0  0  0  0  0  0  0
    2.1724   -0.4731   -1.9950 H   0  0  0  0  0  0  0  0  0  0  0  0
    2.3193   -1.0869    1.8177 C   0  0  0  0  0  0  0  0  0  0  0  0
    1.9616    0.1410    1.3720 C   0  0  0  0  0  0  0  0  0  0  0  0
    2.5724   -1.2940    2.8500 H   0  0  0  0  0  0  0  0  0  0  0  0
    1.9240    0.9770    2.0634 H   0  0  0  0  0  0  0  0  0  0  0  0
    1.1433   -6.3612   -4.9164 C   0  0  0  0  0  0  0  0  0  0  0  0
    2.2998   -6.6065   -5.1789 O   0  0  0  0  0  0  0  0  0  0  0  0
    0.1094   -7.1683   -5.2126 O   0  0  0  0  0  0  0  0  0  0  0  0
    0.4712   -7.9525   -5.6600 H   0  0  0  0  0  0  0  0  0  0  0  0
   -3.8329    2.1763   -1.0243 C   0  0  0  0  0  0  0  0  0  0  0  0
   -4.5479    1.5063   -1.7362 O   0  0  0  0  0  0  0  0  0  0  0  0
   -4.2200    3.3129   -0.4175 O   0  0  0  0  0  0  0  0  0  0  0  0
   -5.1480    3.4708   -0.6621 H   0  0  0  0  0  0  0  0  0  0  0  0
    2.6893    1.4859   -0.6349 C   0  0  0  0  0  0  0  0  0  0  0  0
    3.2068    1.3973   -1.7225 O   0  0  0  0  0  0  0  0  0  0  0  0
    2.9223    2.4748    0.2394 O   0  0  0  0  0  0  0  0  0  0  0  0
    3.5698    3.0830   -0.1607 H   0  0  0  0  0  0  0  0  0  0  0  0
  1  2  2  0  0  0  0
  1  6  1  0  0  0  0
  2  3  1  0  0  0  0
  3 25  1  0  0  0  0
  3  4  2  0  0  0  0
  4  9  1  0  0  0  0
  5  4  1  0  0  0  0
  5  8  1  0  0  0  0
  6  5  2  0  0  0  0
  7  1  1  0  0  0  0
 10 23  1  0  0  0  0
 10  2  1  0  0  0  0
 11 10  1  0  0  0  0
 12 11  1  0  0  0  0
 13 16  1  0  0  0  0
 13 12  2  0  0  0  0
 14 18  1  0  0  0  0
 14 12  1  0  0  0  0
 15 13  1  0  0  0  0
 17 14  2  0  0  0  0
 19 15  2  0  0  0  0
 19 17  1  0  0  0  0
 20 15  1  0  0  0  0
 21 17  1  0  0  0  0
 22 24  2  0  0  0  0
 23 26  1  6  0  0  0
 23 22  1  0  0  0  0
 23 25  1  0  0  0  0
 24 27  1  0  0  0  0
 25 39  1  6  0  0  0
 25 28  1  0  0  0  0
 27 29  1  0  0  0  0
 28 27  2  0  0  0  0
 28 30  1  0  0  0  0
 31 19  1  0  0  0  0
 32 31  2  0  0  0  0
 33 31  1  0  0  0  0
 34 33  1  0  0  0  0
 35  6  1  0  0  0  0
 35 37  1  0  0  0  0
 36 35  2  0  0  0  0
 38 37  1  0  0  0  0
 39 41  1  0  0  0  0
 40 39  2  0  0  0  0
 42 41  1  0  0  0  0
M  RAD  3  11   2  22   2  24   2
M  END
