Coordinates from ORCA-job 1g-Schema5-R9-P1+-B3LYPG-6-31G_dp-scan-d49-09-n400
 OpenBabel08231810273D

 42 45  0  0  1  0  0  0  0  0999 V2000
   -2.0401    0.8396   -1.1222 C   0  0  0  0  0  0  0  0  0  0  0  0
   -0.9135    0.2417   -0.5886 C   0  0  0  0  0  0  0  0  0  0  0  0
   -0.4018    0.4684    0.7407 C   0  0  0  0  0  0  0  0  0  0  0  0
   -1.1939    1.3445    1.5578 C   0  0  0  0  0  0  0  0  0  0  0  0
   -2.3185    1.9517    1.0407 C   0  0  0  0  0  0  0  0  0  0  0  0
   -2.7442    1.7133   -0.2923 C   0  0  0  0  0  0  0  0  0  0  0  0
   -2.3770    0.6512   -2.1344 H   0  0  0  0  0  0  0  0  0  0  0  0
   -2.9055    2.6205    1.6596 H   0  0  0  0  0  0  0  0  0  0  0  0
   -0.9026    1.4978    2.5917 H   0  0  0  0  0  0  0  0  0  0  0  0
   -0.0605   -0.7039   -1.1961 N   0  0  0  0  0  0  0  0  0  0  0  0
   -0.4457   -1.3187   -2.2404 N   0  0  0  0  0  0  0  0  0  0  0  0
    0.1453   -2.3946   -2.8484 C   0  0  0  0  0  0  0  0  0  0  0  0
   -0.6605   -2.8910   -3.9086 C   0  0  0  0  0  0  0  0  0  0  0  0
    1.3625   -3.0621   -2.5351 C   0  0  0  0  0  0  0  0  0  0  0  0
   -0.2929   -4.0273   -4.6109 C   0  0  0  0  0  0  0  0  0  0  0  0
   -1.5776   -2.3602   -4.1377 H   0  0  0  0  0  0  0  0  0  0  0  0
    1.7132   -4.1982   -3.2363 C   0  0  0  0  0  0  0  0  0  0  0  0
    2.0427   -2.6875   -1.7859 H   0  0  0  0  0  0  0  0  0  0  0  0
    0.8942   -4.6887   -4.2711 C   0  0  0  0  0  0  0  0  0  0  0  0
   -0.9128   -4.4051   -5.4150 H   0  0  0  0  0  0  0  0  0  0  0  0
    2.6343   -4.7272   -3.0178 H   0  0  0  0  0  0  0  0  0  0  0  0
    0.5539   -0.0770    0.9523 C   0  0  1  0  0  0  0  0  0  0  0  0
    1.1057   -0.8630   -0.2583 C   0  0  2  0  0  0  0  0  0  0  0  0
    1.5188   -0.0041    1.9331 C   0  0  0  0  0  0  0  0  0  0  0  0
    2.4382   -0.1391   -0.6388 C   0  0  0  0  0  0  0  0  0  0  0  0
    1.2725   -1.9279   -0.0744 H   0  0  0  0  0  0  0  0  0  0  0  0
    2.8337    0.0441    1.7807 C   0  0  0  0  0  0  0  0  0  0  0  0
    3.2383    0.2829    0.3720 C   0  0  0  0  0  0  0  0  0  0  0  0
    3.5825   -0.1564    2.5419 H   0  0  0  0  0  0  0  0  0  0  0  0
    4.2030    0.7240    0.1416 H   0  0  0  0  0  0  0  0  0  0  0  0
    1.3580   -5.9240   -4.9850 C   0  0  0  0  0  0  0  0  0  0  0  0
    2.3822   -6.5068   -4.7051 O   0  0  0  0  0  0  0  0  0  0  0  0
    0.5111   -6.3030   -5.9580 O   0  0  0  0  0  0  0  0  0  0  0  0
    0.8787   -7.1047   -6.3680 H   0  0  0  0  0  0  0  0  0  0  0  0
   -3.9632    2.3609   -0.8703 C   0  0  0  0  0  0  0  0  0  0  0  0
   -4.3465    2.1659   -2.0036 O   0  0  0  0  0  0  0  0  0  0  0  0
   -4.5745    3.1800    0.0048 O   0  0  0  0  0  0  0  0  0  0  0  0
   -5.3492    3.5587   -0.4449 H   0  0  0  0  0  0  0  0  0  0  0  0
    2.8175    0.0630   -2.0568 C   0  0  0  0  0  0  0  0  0  0  0  0
    2.1228   -0.2626   -3.0025 O   0  0  0  0  0  0  0  0  0  0  0  0
    4.0054    0.6777   -2.1973 O   0  0  0  0  0  0  0  0  0  0  0  0
    4.1559    0.7986   -3.1503 H   0  0  0  0  0  0  0  0  0  0  0  0
  1  2  2  0  0  0  0
  1  6  1  0  0  0  0
  2  3  1  0  0  0  0
  3  4  2  0  0  0  0
  4  9  1  0  0  0  0
  5  4  1  0  0  0  0
  5  8  1  0  0  0  0
  6  5  2  0  0  0  0
  7  1  1  0  0  0  0
 10  2  1  0  0  0  0
 10 23  1  0  0  0  0
 11 10  1  0  0  0  0
 12 14  1  0  0  0  0
 12 11  1  0  0  0  0
 13 12  2  0  0  0  0
 14 18  1  0  0  0  0
 15 19  2  0  0  0  0
 15 13  1  0  0  0  0
 16 13  1  0  0  0  0
 17 21  1  0  0  0  0
 17 14  2  0  0  0  0
 19 17  1  0  0  0  0
 20 15  1  0  0  0  0
 22  3  1  6  0  0  0
 22 24  1  0  0  0  0
 23 26  1  1  0  0  0
 23 22  1  0  0  0  0
 25 23  1  0  0  0  0
 25 28  2  0  0  0  0
 27 24  2  0  0  0  0
 27 29  1  0  0  0  0
 28 27  1  0  0  0  0
 30 28  1  0  0  0  0
 31 32  2  0  0  0  0
 31 19  1  0  0  0  0
 33 31  1  0  0  0  0
 34 33  1  0  0  0  0
 35  6  1  0  0  0  0
 35 37  1  0  0  0  0
 36 35  2  0  0  0  0
 38 37  1  0  0  0  0
 39 25  1  0  0  0  0
 40 39  2  0  0  0  0
 41 39  1  0  0  0  0
 42 41  1  0  0  0  0
M  RAD  3  11   2  22   2  24   2
M  END
