Coordinates from ORCA-job 1g-Schema5-R9-P1+-B3LYPG-6-31G_dp-scan-d49-09-n400
 OpenBabel08231810273D

 42 43  0  0  0  0  0  0  0  0999 V2000
   -3.1716    0.4351   -1.2706 C   0  0  0  0  0  0  0  0  0  0  0  0
   -1.8246    0.2014   -0.8221 C   0  0  0  0  0  0  0  0  0  0  0  0
   -1.7433    1.0345    0.2110 C   0  0  0  0  0  0  0  0  0  0  0  0
   -2.4131    1.9460    0.9359 C   0  0  0  0  0  0  0  0  0  0  0  0
   -3.7179    2.0973    0.4112 C   0  0  0  0  0  0  0  0  0  0  0  0
   -4.0782    1.3223   -0.7056 C   0  0  0  0  0  0  0  0  0  0  0  0
   -3.4095   -0.1903   -2.1412 H   0  0  0  0  0  0  0  0  0  0  0  0
   -4.4046    2.7982    0.8741 H   0  0  0  0  0  0  0  0  0  0  0  0
   -2.0319    2.4914    1.7924 H   0  0  0  0  0  0  0  0  0  0  0  0
   -0.9476   -0.7159   -1.4413 N   0  0  0  0  0  0  0  0  0  0  0  0
   -1.4338   -1.3263   -2.4197 N   0  0  0  0  0  0  0  0  0  0  0  0
   -0.6424   -2.2469   -3.0949 C   0  0  0  0  0  0  0  0  0  0  0  0
   -1.2709   -2.8952   -4.1793 C   0  0  0  0  0  0  0  0  0  0  0  0
    0.6976   -2.5364   -2.7499 C   0  0  0  0  0  0  0  0  0  0  0  0
   -0.5641   -3.8331   -4.9191 C   0  0  0  0  0  0  0  0  0  0  0  0
   -2.2998   -2.6468   -4.4154 H   0  0  0  0  0  0  0  0  0  0  0  0
    1.3900   -3.4713   -3.4960 C   0  0  0  0  0  0  0  0  0  0  0  0
    1.1856   -2.0405   -1.9198 H   0  0  0  0  0  0  0  0  0  0  0  0
    0.7666   -4.1212   -4.5779 C   0  0  0  0  0  0  0  0  0  0  0  0
   -1.0283   -4.3412   -5.7553 H   0  0  0  0  0  0  0  0  0  0  0  0
    2.4183   -3.7095   -3.2517 H   0  0  0  0  0  0  0  0  0  0  0  0
    2.7200    1.0201    1.5831 C   0  0  0  0  0  0  0  0  0  0  0  0
    2.7457   -0.0438    0.6990 C   0  0  0  0  0  0  0  0  0  0  0  0
    3.7430    1.5475    2.0758 C   0  0  0  0  0  0  0  0  0  0  0  0
    4.0726   -0.4621    0.4150 C   0  0  0  0  0  0  0  0  0  0  0  0
    1.9007   -0.5471    0.2432 H   0  0  0  0  0  0  0  0  0  0  0  0
    5.0781    1.2499    1.8929 C   0  0  0  0  0  0  0  0  0  0  0  0
    5.1972    0.1663    0.9971 C   0  0  0  0  0  0  0  0  0  0  0  0
    5.9352    1.7360    2.3424 H   0  0  0  0  0  0  0  0  0  0  0  0
    6.1875   -0.1982    0.7460 H   0  0  0  0  0  0  0  0  0  0  0  0
    1.5816   -5.1221   -5.3418 C   0  0  0  0  0  0  0  0  0  0  0  0
    2.7376   -5.3790   -5.0851 O   0  0  0  0  0  0  0  0  0  0  0  0
    0.8866   -5.7007   -6.3396 O   0  0  0  0  0  0  0  0  0  0  0  0
    1.4843   -6.3299   -6.7783 H   0  0  0  0  0  0  0  0  0  0  0  0
   -5.4353    1.4003   -1.3478 C   0  0  0  0  0  0  0  0  0  0  0  0
   -5.7480    0.7363   -2.3085 O   0  0  0  0  0  0  0  0  0  0  0  0
   -6.2305    2.2844   -0.7262 O   0  0  0  0  0  0  0  0  0  0  0  0
   -7.0879    2.2918   -1.1867 H   0  0  0  0  0  0  0  0  0  0  0  0
    4.2295   -1.5988   -0.5332 C   0  0  0  0  0  0  0  0  0  0  0  0
    3.3035   -2.1497   -1.1071 O   0  0  0  0  0  0  0  0  0  0  0  0
    5.5087   -1.9790   -0.7085 O   0  0  0  0  0  0  0  0  0  0  0  0
    5.5026   -2.7232   -1.3339 H   0  0  0  0  0  0  0  0  0  0  0  0
  1  2  2  0  0  0  0
  1  6  1  0  0  0  0
  2  3  1  0  0  0  0
  3  4  2  0  0  0  0
  4  9  1  0  0  0  0
  5  8  1  0  0  0  0
  5  4  1  0  0  0  0
  6  5  2  0  0  0  0
  7  1  1  0  0  0  0
 10  2  1  0  0  0  0
 11 10  1  0  0  0  0
 12 14  1  0  0  0  0
 12 11  1  0  0  0  0
 13 12  2  0  0  0  0
 14 18  1  0  0  0  0
 15 19  2  0  0  0  0
 15 13  1  0  0  0  0
 16 13  1  0  0  0  0
 17 21  1  0  0  0  0
 17 14  2  0  0  0  0
 19 17  1  0  0  0  0
 20 15  1  0  0  0  0
 22 24  2  0  0  0  0
 23 22  1  0  0  0  0
 25 23  2  0  0  0  0
 25 28  1  0  0  0  0
 26 23  1  0  0  0  0
 27 24  1  0  0  0  0
 27 29  1  0  0  0  0
 28 27  2  0  0  0  0
 30 28  1  0  0  0  0
 31 32  2  0  0  0  0
 31 19  1  0  0  0  0
 33 31  1  0  0  0  0
 34 33  1  0  0  0  0
 35 37  1  0  0  0  0
 35  6  1  0  0  0  0
 36 35  2  0  0  0  0
 38 37  1  0  0  0  0
 39 25  1  0  0  0  0
 40 39  2  0  0  0  0
 41 39  1  0  0  0  0
 42 41  1  0  0  0  0
M  RAD  5   3   2  10   2  11   2  22   2  24   2
M  END
