Coordinates from ORCA-job 1g-Schema5-R9-P1+-B3LYPG-6-31G_dp-scan-d49-09-n400
 OpenBabel08231810273D

 42 45  0  0  1  0  0  0  0  0999 V2000
   -1.9630    0.8396   -1.1464 C   0  0  0  0  0  0  0  0  0  0  0  0
   -0.8929    0.2303   -0.5012 C   0  0  0  0  0  0  0  0  0  0  0  0
   -0.6025    0.4842    0.8361 C   0  0  0  0  0  0  0  0  0  0  0  0
   -1.3640    1.3539    1.5983 C   0  0  0  0  0  0  0  0  0  0  0  0
   -2.4425    1.9790    0.9638 C   0  0  0  0  0  0  0  0  0  0  0  0
   -2.7364    1.7262   -0.3906 C   0  0  0  0  0  0  0  0  0  0  0  0
   -2.2026    0.6563   -2.1866 H   0  0  0  0  0  0  0  0  0  0  0  0
   -3.0683    2.6709    1.5158 H   0  0  0  0  0  0  0  0  0  0  0  0
   -1.1398    1.5393    2.6425 H   0  0  0  0  0  0  0  0  0  0  0  0
   -0.0121   -0.7422   -1.0786 N   0  0  0  0  0  0  0  0  0  0  0  0
   -0.4256   -1.3703   -2.0952 N   0  0  0  0  0  0  0  0  0  0  0  0
    0.1525   -2.4230   -2.7630 C   0  0  0  0  0  0  0  0  0  0  0  0
   -0.7609   -2.9860   -3.6945 C   0  0  0  0  0  0  0  0  0  0  0  0
    1.4480   -2.9968   -2.6328 C   0  0  0  0  0  0  0  0  0  0  0  0
   -0.4245   -4.1091   -4.4340 C   0  0  0  0  0  0  0  0  0  0  0  0
   -1.7343   -2.5193   -3.7935 H   0  0  0  0  0  0  0  0  0  0  0  0
    1.7723   -4.1128   -3.3794 C   0  0  0  0  0  0  0  0  0  0  0  0
    2.2087   -2.5539   -2.0104 H   0  0  0  0  0  0  0  0  0  0  0  0
    0.8441   -4.6794   -4.2722 C   0  0  0  0  0  0  0  0  0  0  0  0
   -1.1292   -4.5414   -5.1341 H   0  0  0  0  0  0  0  0  0  0  0  0
    2.7539   -4.5674   -3.3044 H   0  0  0  0  0  0  0  0  0  0  0  0
    0.7788   -0.4755    1.1557 C   0  0  1  0  0  0  0  0  0  0  0  0
    1.1980   -0.9679   -0.2055 C   0  0  2  0  0  0  0  0  0  0  0  0
    1.7476   -0.3545    2.0339 C   0  0  0  0  0  0  0  0  0  0  0  0
    2.4694   -0.0924   -0.5517 C   0  0  0  0  0  0  0  0  0  0  0  0
    1.4457   -2.0297   -0.2686 H   0  0  0  0  0  0  0  0  0  0  0  0
    3.0466   -0.1425    1.8495 C   0  0  0  0  0  0  0  0  0  0  0  0
    3.3095    0.2795    0.4488 C   0  0  0  0  0  0  0  0  0  0  0  0
    3.8640   -0.3644    2.5275 H   0  0  0  0  0  0  0  0  0  0  0  0
    4.2353    0.7864    0.1956 H   0  0  0  0  0  0  0  0  0  0  0  0
    1.2836   -5.8923   -5.0400 C   0  0  0  0  0  0  0  0  0  0  0  0
    2.3768   -6.3972   -4.9109 O   0  0  0  0  0  0  0  0  0  0  0  0
    0.3313   -6.3451   -5.8731 O   0  0  0  0  0  0  0  0  0  0  0  0
    0.6896   -7.1264   -6.3285 H   0  0  0  0  0  0  0  0  0  0  0  0
   -3.8851    2.3843   -1.0935 C   0  0  0  0  0  0  0  0  0  0  0  0
   -4.1640    2.1768   -2.2543 O   0  0  0  0  0  0  0  0  0  0  0  0
   -4.5665    3.2239   -0.2927 O   0  0  0  0  0  0  0  0  0  0  0  0
   -5.2903    3.6026   -0.8203 H   0  0  0  0  0  0  0  0  0  0  0  0
    2.7611    0.2377   -1.9658 C   0  0  0  0  0  0  0  0  0  0  0  0
    2.0805   -0.1376   -2.9047 O   0  0  0  0  0  0  0  0  0  0  0  0
    3.8474    1.0158   -2.1137 O   0  0  0  0  0  0  0  0  0  0  0  0
    3.9491    1.1912   -3.0648 H   0  0  0  0  0  0  0  0  0  0  0  0
  1  2  2  0  0  0  0
  1  6  1  0  0  0  0
  2  3  1  0  0  0  0
  3  4  2  0  0  0  0
  4  9  1  0  0  0  0
  5  8  1  0  0  0  0
  5  4  1  0  0  0  0
  6  5  2  0  0  0  0
  7  1  1  0  0  0  0
 10  2  1  0  0  0  0
 10 23  1  0  0  0  0
 11 10  1  0  0  0  0
 12 14  1  0  0  0  0
 12 11  1  0  0  0  0
 13 12  2  0  0  0  0
 14 18  1  0  0  0  0
 15 19  2  0  0  0  0
 15 13  1  0  0  0  0
 16 13  1  0  0  0  0
 17 21  1  0  0  0  0
 17 14  2  0  0  0  0
 19 17  1  0  0  0  0
 20 15  1  0  0  0  0
 22  3  1  6  0  0  0
 22 24  1  0  0  0  0
 23 26  1  1  0  0  0
 23 22  1  0  0  0  0
 25 23  1  0  0  0  0
 25 28  2  0  0  0  0
 27 24  1  0  0  0  0
 27 29  1  0  0  0  0
 28 27  1  0  0  0  0
 30 28  1  0  0  0  0
 31 32  2  0  0  0  0
 31 19  1  0  0  0  0
 33 31  1  0  0  0  0
 34 33  1  0  0  0  0
 35  6  1  0  0  0  0
 35 37  1  0  0  0  0
 36 35  2  0  0  0  0
 38 37  1  0  0  0  0
 39 25  1  0  0  0  0
 40 39  2  0  0  0  0
 41 39  1  0  0  0  0
 42 41  1  0  0  0  0
M  RAD  4  11   2  22   2  24   3  27   2
M  END
