Coordinates from ORCA-job 1g-Schema5-R9-P1+-B3LYPG-6-31G_dp-scan-d49-09-n400
 OpenBabel08231810273D

 42 45  0  0  1  0  0  0  0  0999 V2000
   -1.9608    0.5332   -1.0946 C   0  0  0  0  0  0  0  0  0  0  0  0
   -0.6182    0.2271   -0.9005 C   0  0  0  0  0  0  0  0  0  0  0  0
    0.2525    1.0264   -0.1556 C   0  0  0  0  0  0  0  0  0  0  0  0
   -0.2309    2.1954    0.4245 C   0  0  0  0  0  0  0  0  0  0  0  0
   -1.5786    2.5235    0.2538 C   0  0  0  0  0  0  0  0  0  0  0  0
   -2.4369    1.7023   -0.5010 C   0  0  0  0  0  0  0  0  0  0  0  0
   -2.6248   -0.1018   -1.6690 H   0  0  0  0  0  0  0  0  0  0  0  0
   -1.9765    3.4255    0.7040 H   0  0  0  0  0  0  0  0  0  0  0  0
    0.4225    2.8473    0.9931 H   0  0  0  0  0  0  0  0  0  0  0  0
    0.0601   -0.9075   -1.4079 N   0  0  0  0  0  0  0  0  0  0  0  0
   -0.4899   -1.6414   -2.2759 N   0  0  0  0  0  0  0  0  0  0  0  0
    0.0298   -2.7883   -2.8397 C   0  0  0  0  0  0  0  0  0  0  0  0
   -0.7053   -3.1800   -3.9887 C   0  0  0  0  0  0  0  0  0  0  0  0
    1.1220   -3.5868   -2.4027 C   0  0  0  0  0  0  0  0  0  0  0  0
   -0.3329   -4.2965   -4.7195 C   0  0  0  0  0  0  0  0  0  0  0  0
   -1.5535   -2.5718   -4.2834 H   0  0  0  0  0  0  0  0  0  0  0  0
    1.4634   -4.7147   -3.1270 C   0  0  0  0  0  0  0  0  0  0  0  0
    1.6522   -3.3757   -1.4852 H   0  0  0  0  0  0  0  0  0  0  0  0
    0.7564   -5.0666   -4.2898 C   0  0  0  0  0  0  0  0  0  0  0  0
   -0.8826   -4.5842   -5.6074 H   0  0  0  0  0  0  0  0  0  0  0  0
    2.2815   -5.3526   -2.8099 H   0  0  0  0  0  0  0  0  0  0  0  0
    1.4592   -1.9169    0.3795 C   0  0  0  0  0  0  0  0  0  0  0  0
    1.4360   -1.0017   -0.7659 C   0  0  2  0  0  0  0  0  0  0  0  0
    2.0016   -1.6663    1.4489 C   0  0  0  0  0  0  0  0  0  0  0  0
    1.6756    0.4725   -0.1778 C   0  0  2  0  0  0  0  0  0  0  0  0
    2.1388   -1.2329   -1.5702 H   0  0  0  0  0  0  0  0  0  0  0  0
    2.4824   -0.4641    2.0597 C   0  0  0  0  0  0  0  0  0  0  0  0
    2.3370    0.5736    1.2022 C   0  0  0  0  0  0  0  0  0  0  0  0
    2.9555   -0.3785    3.0294 H   0  0  0  0  0  0  0  0  0  0  0  0
    2.6990    1.5598    1.4745 H   0  0  0  0  0  0  0  0  0  0  0  0
    1.2066   -6.2975   -5.0214 C   0  0  0  0  0  0  0  0  0  0  0  0
    2.1420   -6.9773   -4.6626 O   0  0  0  0  0  0  0  0  0  0  0  0
    0.4570   -6.5500   -6.1086 O   0  0  0  0  0  0  0  0  0  0  0  0
    0.8068   -7.3577   -6.5224 H   0  0  0  0  0  0  0  0  0  0  0  0
   -3.8863    2.0270   -0.7051 C   0  0  0  0  0  0  0  0  0  0  0  0
   -4.6393    1.3329   -1.3516 O   0  0  0  0  0  0  0  0  0  0  0  0
   -4.2472    3.1694   -0.0932 O   0  0  0  0  0  0  0  0  0  0  0  0
   -5.1925    3.3094   -0.2743 H   0  0  0  0  0  0  0  0  0  0  0  0
    2.4712    1.2691   -1.2426 C   0  0  0  0  0  0  0  0  0  0  0  0
    2.6970    0.8523   -2.3539 O   0  0  0  0  0  0  0  0  0  0  0  0
    2.8345    2.4767   -0.7909 O   0  0  0  0  0  0  0  0  0  0  0  0
    3.3051    2.9381   -1.5082 H   0  0  0  0  0  0  0  0  0  0  0  0
  1  2  2  0  0  0  0
  1  6  1  0  0  0  0
  2  3  1  0  0  0  0
  3  4  2  0  0  0  0
  4  9  1  0  0  0  0
  5  4  1  0  0  0  0
  5  8  1  0  0  0  0
  6  5  2  0  0  0  0
  7  1  1  0  0  0  0
 10  2  1  0  0  0  0
 10 23  1  0  0  0  0
 11 10  1  0  0  0  0
 12 14  1  0  0  0  0
 12 11  1  0  0  0  0
 13 12  2  0  0  0  0
 14 18  1  0  0  0  0
 15 19  2  0  0  0  0
 15 13  1  0  0  0  0
 16 13  1  0  0  0  0
 17 21  1  0  0  0  0
 17 14  2  0  0  0  0
 19 17  1  0  0  0  0
 20 15  1  0  0  0  0
 22 24  1  0  0  0  0
 23 26  1  6  0  0  0
 23 25  1  0  0  0  0
 23 22  1  0  0  0  0
 24 27  2  0  0  0  0
 25 39  1  6  0  0  0
 25  3  1  0  0  0  0
 25 28  1  0  0  0  0
 27 29  1  0  0  0  0
 28 30  1  0  0  0  0
 28 27  1  0  0  0  0
 31 32  2  0  0  0  0
 31 19  1  0  0  0  0
 33 31  1  0  0  0  0
 34 33  1  0  0  0  0
 35  6  1  0  0  0  0
 35 37  1  0  0  0  0
 36 35  2  0  0  0  0
 38 37  1  0  0  0  0
 39 41  1  0  0  0  0
 40 39  2  0  0  0  0
 42 41  1  0  0  0  0
M  RAD  4  11   2  22   3  24   2  28   2
M  END
