Coordinates from ORCA-job 1g-Schema5-R9-P1+-B3LYPG-6-31G_dp-scan-d49-09-n400
 OpenBabel08231810273D

 42 43  0  0  0  0  0  0  0  0999 V2000
   -3.1395    0.4335   -1.2624 C   0  0  0  0  0  0  0  0  0  0  0  0
   -1.7905    0.1944   -0.8228 C   0  0  0  0  0  0  0  0  0  0  0  0
   -1.6986    1.0280    0.2090 C   0  0  0  0  0  0  0  0  0  0  0  0
   -2.3594    1.9430    0.9377 C   0  0  0  0  0  0  0  0  0  0  0  0
   -3.6672    2.0994    0.4219 C   0  0  0  0  0  0  0  0  0  0  0  0
   -4.0384    1.3250   -0.6919 C   0  0  0  0  0  0  0  0  0  0  0  0
   -3.3859   -0.1913   -2.1311 H   0  0  0  0  0  0  0  0  0  0  0  0
   -4.3476    2.8034    0.8889 H   0  0  0  0  0  0  0  0  0  0  0  0
   -1.9696    2.4875    1.7908 H   0  0  0  0  0  0  0  0  0  0  0  0
   -0.9213   -0.7270   -1.4469 N   0  0  0  0  0  0  0  0  0  0  0  0
   -1.4156   -1.3346   -2.4232 N   0  0  0  0  0  0  0  0  0  0  0  0
   -0.6319   -2.2587   -3.1025 C   0  0  0  0  0  0  0  0  0  0  0  0
   -1.2681   -2.9023   -4.1852 C   0  0  0  0  0  0  0  0  0  0  0  0
    0.7080   -2.5554   -2.7636 C   0  0  0  0  0  0  0  0  0  0  0  0
   -0.5691   -3.8426   -4.9294 C   0  0  0  0  0  0  0  0  0  0  0  0
   -2.2967   -2.6484   -4.4166 H   0  0  0  0  0  0  0  0  0  0  0  0
    1.3928   -3.4926   -3.5139 C   0  0  0  0  0  0  0  0  0  0  0  0
    1.2017   -2.0633   -1.9345 H   0  0  0  0  0  0  0  0  0  0  0  0
    0.7616   -4.1378   -4.5942 C   0  0  0  0  0  0  0  0  0  0  0  0
   -1.0393   -4.3471   -5.7644 H   0  0  0  0  0  0  0  0  0  0  0  0
    2.4209   -3.7366   -3.2748 H   0  0  0  0  0  0  0  0  0  0  0  0
    2.6448    1.0170    1.5613 C   0  0  0  0  0  0  0  0  0  0  0  0
    2.6989   -0.0494    0.6809 C   0  0  0  0  0  0  0  0  0  0  0  0
    3.6547    1.5592    2.0653 C   0  0  0  0  0  0  0  0  0  0  0  0
    4.0352   -0.4497    0.4162 C   0  0  0  0  0  0  0  0  0  0  0  0
    1.8677   -0.5661    0.2150 H   0  0  0  0  0  0  0  0  0  0  0  0
    4.9963    1.2808    1.9023 C   0  0  0  0  0  0  0  0  0  0  0  0
    5.1428    0.1962    1.0116 C   0  0  0  0  0  0  0  0  0  0  0  0
    5.8400    1.7804    2.3622 H   0  0  0  0  0  0  0  0  0  0  0  0
    6.1415   -0.1551    0.7755 H   0  0  0  0  0  0  0  0  0  0  0  0
    1.5684   -5.1415   -5.3632 C   0  0  0  0  0  0  0  0  0  0  0  0
    2.7241   -5.4047   -5.1116 O   0  0  0  0  0  0  0  0  0  0  0  0
    0.8665   -5.7145   -6.3594 O   0  0  0  0  0  0  0  0  0  0  0  0
    1.4594   -6.3458   -6.8017 H   0  0  0  0  0  0  0  0  0  0  0  0
   -5.3994    1.4086   -1.3250 C   0  0  0  0  0  0  0  0  0  0  0  0
   -5.7220    0.7440   -2.2820 O   0  0  0  0  0  0  0  0  0  0  0  0
   -6.1871    2.2954   -0.6978 O   0  0  0  0  0  0  0  0  0  0  0  0
   -7.0479    2.3052   -1.1518 H   0  0  0  0  0  0  0  0  0  0  0  0
    4.2208   -1.5872   -0.5262 C   0  0  0  0  0  0  0  0  0  0  0  0
    3.3104   -2.1525   -1.1108 O   0  0  0  0  0  0  0  0  0  0  0  0
    5.5075   -1.9499   -0.6828 O   0  0  0  0  0  0  0  0  0  0  0  0
    5.5204   -2.6960   -1.3057 H   0  0  0  0  0  0  0  0  0  0  0  0
  1  2  2  0  0  0  0
  1  6  1  0  0  0  0
  2  3  1  0  0  0  0
  3  4  2  0  0  0  0
  4  9  1  0  0  0  0
  5  8  1  0  0  0  0
  5  4  1  0  0  0  0
  6  5  2  0  0  0  0
  7  1  1  0  0  0  0
 10  2  1  0  0  0  0
 11 10  1  0  0  0  0
 12 14  1  0  0  0  0
 12 11  1  0  0  0  0
 13 12  2  0  0  0  0
 14 18  1  0  0  0  0
 15 19  2  0  0  0  0
 15 13  1  0  0  0  0
 16 13  1  0  0  0  0
 17 21  1  0  0  0  0
 17 14  2  0  0  0  0
 19 17  1  0  0  0  0
 20 15  1  0  0  0  0
 22 24  2  0  0  0  0
 23 22  1  0  0  0  0
 25 23  2  0  0  0  0
 25 28  1  0  0  0  0
 26 23  1  0  0  0  0
 27 24  1  0  0  0  0
 27 29  1  0  0  0  0
 28 27  2  0  0  0  0
 30 28  1  0  0  0  0
 31 32  2  0  0  0  0
 31 19  1  0  0  0  0
 33 31  1  0  0  0  0
 34 33  1  0  0  0  0
 35 37  1  0  0  0  0
 35  6  1  0  0  0  0
 36 35  2  0  0  0  0
 38 37  1  0  0  0  0
 39 25  1  0  0  0  0
 40 39  2  0  0  0  0
 41 39  1  0  0  0  0
 42 41  1  0  0  0  0
M  RAD  5   3   2  10   2  11   2  22   2  24   2
M  END
