Coordinates from ORCA-job 1g-Schema5-R9-P1+-B3LYPG-6-31G_dp-scan-d49-09-n400
 OpenBabel08231810273D

 42 45  0  0  1  0  0  0  0  0999 V2000
   -2.0191    0.8427   -1.1349 C   0  0  0  0  0  0  0  0  0  0  0  0
   -0.9057    0.2478   -0.5643 C   0  0  0  0  0  0  0  0  0  0  0  0
   -0.4794    0.4795    0.7668 C   0  0  0  0  0  0  0  0  0  0  0  0
   -1.2473    1.3507    1.5643 C   0  0  0  0  0  0  0  0  0  0  0  0
   -2.3657    1.9613    1.0118 C   0  0  0  0  0  0  0  0  0  0  0  0
   -2.7502    1.7162   -0.3259 C   0  0  0  0  0  0  0  0  0  0  0  0
   -2.3245    0.6565   -2.1571 H   0  0  0  0  0  0  0  0  0  0  0  0
   -2.9646    2.6384    1.6098 H   0  0  0  0  0  0  0  0  0  0  0  0
   -0.9693    1.5266    2.5979 H   0  0  0  0  0  0  0  0  0  0  0  0
   -0.0373   -0.7053   -1.1651 N   0  0  0  0  0  0  0  0  0  0  0  0
   -0.4344   -1.3306   -2.1936 N   0  0  0  0  0  0  0  0  0  0  0  0
    0.1523   -2.3996   -2.8221 C   0  0  0  0  0  0  0  0  0  0  0  0
   -0.6980   -2.9217   -3.8338 C   0  0  0  0  0  0  0  0  0  0  0  0
    1.4013   -3.0344   -2.5735 C   0  0  0  0  0  0  0  0  0  0  0  0
   -0.3441   -4.0556   -4.5473 C   0  0  0  0  0  0  0  0  0  0  0  0
   -1.6381   -2.4134   -4.0162 H   0  0  0  0  0  0  0  0  0  0  0  0
    1.7401   -4.1663   -3.2881 C   0  0  0  0  0  0  0  0  0  0  0  0
    2.1159   -2.6342   -1.8718 H   0  0  0  0  0  0  0  0  0  0  0  0
    0.8756   -4.6855   -4.2699 C   0  0  0  0  0  0  0  0  0  0  0  0
   -0.9989   -4.4542   -5.3128 H   0  0  0  0  0  0  0  0  0  0  0  0
    2.6856   -4.6701   -3.1201 H   0  0  0  0  0  0  0  0  0  0  0  0
    0.6338   -0.2038    1.0230 C   0  0  1  0  0  0  0  0  0  0  0  0
    1.1385   -0.8924   -0.2431 C   0  0  2  0  0  0  0  0  0  0  0  0
    1.5878   -0.1214    1.9666 C   0  0  0  0  0  0  0  0  0  0  0  0
    2.4587   -0.1160   -0.6068 C   0  0  0  0  0  0  0  0  0  0  0  0
    1.3364   -1.9635   -0.1528 H   0  0  0  0  0  0  0  0  0  0  0  0
    2.9028   -0.0350    1.8107 C   0  0  0  0  0  0  0  0  0  0  0  0
    3.2698    0.2826    0.4058 C   0  0  0  0  0  0  0  0  0  0  0  0
    3.6689   -0.2819    2.5395 H   0  0  0  0  0  0  0  0  0  0  0  0
    4.2262    0.7394    0.1719 H   0  0  0  0  0  0  0  0  0  0  0  0
    1.3280   -5.9166   -4.9995 C   0  0  0  0  0  0  0  0  0  0  0  0
    2.3796   -6.4726   -4.7721 O   0  0  0  0  0  0  0  0  0  0  0  0
    0.4377   -6.3234   -5.9206 O   0  0  0  0  0  0  0  0  0  0  0  0
    0.8002   -7.1201   -6.3447 H   0  0  0  0  0  0  0  0  0  0  0  0
   -3.9509    2.3637   -0.9443 C   0  0  0  0  0  0  0  0  0  0  0  0
   -4.3031    2.1608   -2.0860 O   0  0  0  0  0  0  0  0  0  0  0  0
   -4.5872    3.1885   -0.0927 O   0  0  0  0  0  0  0  0  0  0  0  0
   -5.3485    3.5635   -0.5675 H   0  0  0  0  0  0  0  0  0  0  0  0
    2.8141    0.1283   -2.0238 C   0  0  0  0  0  0  0  0  0  0  0  0
    2.1300   -0.2247   -2.9681 O   0  0  0  0  0  0  0  0  0  0  0  0
    3.9668    0.8056   -2.1667 O   0  0  0  0  0  0  0  0  0  0  0  0
    4.1054    0.9407   -3.1196 H   0  0  0  0  0  0  0  0  0  0  0  0
  1  2  2  0  0  0  0
  1  6  1  0  0  0  0
  2  3  1  0  0  0  0
  3  4  2  0  0  0  0
  4  9  1  0  0  0  0
  5  4  1  0  0  0  0
  5  8  1  0  0  0  0
  6  5  2  0  0  0  0
  7  1  1  0  0  0  0
 10  2  1  0  0  0  0
 10 23  1  0  0  0  0
 11 10  1  0  0  0  0
 12 14  1  0  0  0  0
 12 11  1  0  0  0  0
 13 12  2  0  0  0  0
 14 18  1  0  0  0  0
 15 19  2  0  0  0  0
 15 13  1  0  0  0  0
 16 13  1  0  0  0  0
 17 21  1  0  0  0  0
 17 14  2  0  0  0  0
 19 17  1  0  0  0  0
 20 15  1  0  0  0  0
 22  3  1  6  0  0  0
 22 24  1  0  0  0  0
 23 26  1  1  0  0  0
 23 22  1  0  0  0  0
 25 23  1  0  0  0  0
 25 28  2  0  0  0  0
 27 24  1  0  0  0  0
 27 29  1  0  0  0  0
 28 27  1  0  0  0  0
 30 28  1  0  0  0  0
 31 32  2  0  0  0  0
 31 19  1  0  0  0  0
 33 31  1  0  0  0  0
 34 33  1  0  0  0  0
 35  6  1  0  0  0  0
 35 37  1  0  0  0  0
 36 35  2  0  0  0  0
 38 37  1  0  0  0  0
 39 25  1  0  0  0  0
 40 39  2  0  0  0  0
 41 39  1  0  0  0  0
 42 41  1  0  0  0  0
M  RAD  4  11   2  22   2  24   3  27   2
M  END
