Coordinates from ORCA-job 1g-Schema5-R9-P1+-B3LYPG-6-31G_dp-scan-d49-09-n400
 OpenBabel08231810273D

 42 43  0  0  0  0  0  0  0  0999 V2000
   -3.1235    0.4317   -1.2575 C   0  0  0  0  0  0  0  0  0  0  0  0
   -1.7734    0.1905   -0.8225 C   0  0  0  0  0  0  0  0  0  0  0  0
   -1.6765    1.0246    0.2086 C   0  0  0  0  0  0  0  0  0  0  0  0
   -2.3331    1.9412    0.9390 C   0  0  0  0  0  0  0  0  0  0  0  0
   -3.6424    2.0994    0.4277 C   0  0  0  0  0  0  0  0  0  0  0  0
   -4.0189    1.3250   -0.6843 C   0  0  0  0  0  0  0  0  0  0  0  0
   -3.3740   -0.1930   -2.1250 H   0  0  0  0  0  0  0  0  0  0  0  0
   -4.3201    2.8048    0.8967 H   0  0  0  0  0  0  0  0  0  0  0  0
   -1.9393    2.4855    1.7904 H   0  0  0  0  0  0  0  0  0  0  0  0
   -0.9077   -0.7327   -1.4488 N   0  0  0  0  0  0  0  0  0  0  0  0
   -1.4060   -1.3391   -2.4239 N   0  0  0  0  0  0  0  0  0  0  0  0
   -0.6262   -2.2647   -3.1056 C   0  0  0  0  0  0  0  0  0  0  0  0
   -1.2668   -2.9057   -4.1873 C   0  0  0  0  0  0  0  0  0  0  0  0
    0.7138   -2.5652   -2.7702 C   0  0  0  0  0  0  0  0  0  0  0  0
   -0.5721   -3.8471   -4.9341 C   0  0  0  0  0  0  0  0  0  0  0  0
   -2.2954   -2.6489   -4.4158 H   0  0  0  0  0  0  0  0  0  0  0  0
    1.3942   -3.5034   -3.5233 C   0  0  0  0  0  0  0  0  0  0  0  0
    1.2108   -2.0753   -1.9418 H   0  0  0  0  0  0  0  0  0  0  0  0
    0.7586   -4.1459   -4.6027 C   0  0  0  0  0  0  0  0  0  0  0  0
   -1.0458   -4.3496   -5.7684 H   0  0  0  0  0  0  0  0  0  0  0  0
    2.4224   -3.7506   -3.2874 H   0  0  0  0  0  0  0  0  0  0  0  0
    2.6071    1.0144    1.5507 C   0  0  0  0  0  0  0  0  0  0  0  0
    2.6759   -0.0530    0.6721 C   0  0  0  0  0  0  0  0  0  0  0  0
    3.6100    1.5643    2.0602 C   0  0  0  0  0  0  0  0  0  0  0  0
    4.0170   -0.4432    0.4169 C   0  0  0  0  0  0  0  0  0  0  0  0
    1.8520   -0.5768    0.2012 H   0  0  0  0  0  0  0  0  0  0  0  0
    4.9548    1.2965    1.9070 C   0  0  0  0  0  0  0  0  0  0  0  0
    5.1155    0.2119    1.0187 C   0  0  0  0  0  0  0  0  0  0  0  0
    5.7915    1.8031    2.3720 H   0  0  0  0  0  0  0  0  0  0  0  0
    6.1185   -0.1322    0.7900 H   0  0  0  0  0  0  0  0  0  0  0  0
    1.5610   -5.1509   -5.3747 C   0  0  0  0  0  0  0  0  0  0  0  0
    2.7164   -5.4178   -5.1259 O   0  0  0  0  0  0  0  0  0  0  0  0
    0.8550   -5.7213   -6.3695 O   0  0  0  0  0  0  0  0  0  0  0  0
    1.4451   -6.3540   -6.8137 H   0  0  0  0  0  0  0  0  0  0  0  0
   -5.3821    1.4103   -1.3125 C   0  0  0  0  0  0  0  0  0  0  0  0
   -5.7078    0.7487   -2.2705 O   0  0  0  0  0  0  0  0  0  0  0  0
   -6.1644    2.3025   -0.6862 O   0  0  0  0  0  0  0  0  0  0  0  0
   -7.0256    2.3160   -1.1393 H   0  0  0  0  0  0  0  0  0  0  0  0
    4.2174   -1.5807   -0.5228 C   0  0  0  0  0  0  0  0  0  0  0  0
    3.3152   -2.1535   -1.1127 O   0  0  0  0  0  0  0  0  0  0  0  0
    5.5078   -1.9339   -0.6700 O   0  0  0  0  0  0  0  0  0  0  0  0
    5.5306   -2.6809   -1.2916 H   0  0  0  0  0  0  0  0  0  0  0  0
  1  2  2  0  0  0  0
  1  6  1  0  0  0  0
  2  3  1  0  0  0  0
  3  4  2  0  0  0  0
  4  9  1  0  0  0  0
  5  8  1  0  0  0  0
  5  4  1  0  0  0  0
  6  5  2  0  0  0  0
  7  1  1  0  0  0  0
 10  2  1  0  0  0  0
 11 10  1  0  0  0  0
 12 14  1  0  0  0  0
 12 11  1  0  0  0  0
 13 12  2  0  0  0  0
 14 18  1  0  0  0  0
 15 19  2  0  0  0  0
 15 13  1  0  0  0  0
 16 13  1  0  0  0  0
 17 21  1  0  0  0  0
 17 14  2  0  0  0  0
 19 17  1  0  0  0  0
 20 15  1  0  0  0  0
 22 24  2  0  0  0  0
 23 22  1  0  0  0  0
 25 23  2  0  0  0  0
 25 28  1  0  0  0  0
 26 23  1  0  0  0  0
 27 24  1  0  0  0  0
 27 29  1  0  0  0  0
 28 27  2  0  0  0  0
 30 28  1  0  0  0  0
 31 32  2  0  0  0  0
 31 19  1  0  0  0  0
 33 31  1  0  0  0  0
 34 33  1  0  0  0  0
 35 37  1  0  0  0  0
 35  6  1  0  0  0  0
 36 35  2  0  0  0  0
 38 37  1  0  0  0  0
 39 25  1  0  0  0  0
 40 39  2  0  0  0  0
 41 39  1  0  0  0  0
 42 41  1  0  0  0  0
M  RAD  5   3   2  10   2  11   2  22   2  24   2
M  END
