Coordinates from ORCA-job 1g-Schema5-R9-P1+-B3LYPG-6-31G_dp-scan-d49-09-n400
 OpenBabel08231810273D

 42 45  0  0  1  0  0  0  0  0999 V2000
   -2.0251    0.8410   -1.1318 C   0  0  0  0  0  0  0  0  0  0  0  0
   -0.9076    0.2472   -0.5698 C   0  0  0  0  0  0  0  0  0  0  0  0
   -0.4612    0.4795    0.7602 C   0  0  0  0  0  0  0  0  0  0  0  0
   -1.2334    1.3531    1.5610 C   0  0  0  0  0  0  0  0  0  0  0  0
   -2.3545    1.9615    1.0171 C   0  0  0  0  0  0  0  0  0  0  0  0
   -2.7499    1.7153   -0.3186 C   0  0  0  0  0  0  0  0  0  0  0  0
   -2.3388    0.6523   -2.1512 H   0  0  0  0  0  0  0  0  0  0  0  0
   -2.9501    2.6376    1.6194 H   0  0  0  0  0  0  0  0  0  0  0  0
   -0.9510    1.5270    2.5938 H   0  0  0  0  0  0  0  0  0  0  0  0
   -0.0420   -0.7046   -1.1715 N   0  0  0  0  0  0  0  0  0  0  0  0
   -0.4365   -1.3284   -2.2030 N   0  0  0  0  0  0  0  0  0  0  0  0
    0.1515   -2.3983   -2.8283 C   0  0  0  0  0  0  0  0  0  0  0  0
   -0.6913   -2.9160   -3.8486 C   0  0  0  0  0  0  0  0  0  0  0  0
    1.3955   -3.0385   -2.5687 C   0  0  0  0  0  0  0  0  0  0  0  0
   -0.3346   -4.0499   -4.5606 C   0  0  0  0  0  0  0  0  0  0  0  0
   -1.6278   -2.4041   -4.0388 H   0  0  0  0  0  0  0  0  0  0  0  0
    1.7365   -4.1712   -3.2809 C   0  0  0  0  0  0  0  0  0  0  0  0
    2.1045   -2.6429   -1.8588 H   0  0  0  0  0  0  0  0  0  0  0  0
    0.8797   -4.6853   -4.2723 C   0  0  0  0  0  0  0  0  0  0  0  0
   -0.9835   -4.4448   -5.3330 H   0  0  0  0  0  0  0  0  0  0  0  0
    2.6781   -4.6793   -3.1041 H   0  0  0  0  0  0  0  0  0  0  0  0
    0.6152   -0.1697    1.0072 C   0  0  1  0  0  0  0  0  0  0  0  0
    1.1306   -0.8848   -0.2442 C   0  0  2  0  0  0  0  0  0  0  0  0
    1.5697   -0.0899    1.9605 C   0  0  0  0  0  0  0  0  0  0  0  0
    2.4552   -0.1220   -0.6118 C   0  0  0  0  0  0  0  0  0  0  0  0
    1.3209   -1.9550   -0.1300 H   0  0  0  0  0  0  0  0  0  0  0  0
    2.8851   -0.0152    1.8067 C   0  0  0  0  0  0  0  0  0  0  0  0
    3.2630    0.2830    0.4007 C   0  0  0  0  0  0  0  0  0  0  0  0
    3.6459   -0.2543    2.5438 H   0  0  0  0  0  0  0  0  0  0  0  0
    4.2221    0.7348    0.1678 H   0  0  0  0  0  0  0  0  0  0  0  0
    1.3344   -5.9168   -4.9994 C   0  0  0  0  0  0  0  0  0  0  0  0
    2.3814   -6.4775   -4.7628 O   0  0  0  0  0  0  0  0  0  0  0  0
    0.4515   -6.3185   -5.9300 O   0  0  0  0  0  0  0  0  0  0  0  0
    0.8150   -7.1160   -6.3518 H   0  0  0  0  0  0  0  0  0  0  0  0
   -3.9561    2.3610   -0.9276 C   0  0  0  0  0  0  0  0  0  0  0  0
   -4.3170    2.1568   -2.0664 O   0  0  0  0  0  0  0  0  0  0  0  0
   -4.5867    3.1851   -0.0711 O   0  0  0  0  0  0  0  0  0  0  0  0
   -5.3523    3.5590   -0.5398 H   0  0  0  0  0  0  0  0  0  0  0  0
    2.8179    0.1092   -2.0293 C   0  0  0  0  0  0  0  0  0  0  0  0
    2.1328   -0.2408   -2.9738 O   0  0  0  0  0  0  0  0  0  0  0  0
    3.9796    0.7710   -2.1720 O   0  0  0  0  0  0  0  0  0  0  0  0
    4.1227    0.8997   -3.1252 H   0  0  0  0  0  0  0  0  0  0  0  0
  1  2  2  0  0  0  0
  1  6  1  0  0  0  0
  2  3  1  0  0  0  0
  3  4  2  0  0  0  0
  4  9  1  0  0  0  0
  5  4  1  0  0  0  0
  5  8  1  0  0  0  0
  6  5  2  0  0  0  0
  7  1  1  0  0  0  0
 10  2  1  0  0  0  0
 10 23  1  0  0  0  0
 11 10  1  0  0  0  0
 12 14  1  0  0  0  0
 12 11  1  0  0  0  0
 13 12  2  0  0  0  0
 14 18  1  0  0  0  0
 15 19  2  0  0  0  0
 15 13  1  0  0  0  0
 16 13  1  0  0  0  0
 17 21  1  0  0  0  0
 17 14  2  0  0  0  0
 19 17  1  0  0  0  0
 20 15  1  0  0  0  0
 22  3  1  6  0  0  0
 22 24  1  0  0  0  0
 23 26  1  1  0  0  0
 23 22  1  0  0  0  0
 25 23  1  0  0  0  0
 25 28  2  0  0  0  0
 27 24  1  0  0  0  0
 27 29  1  0  0  0  0
 28 27  1  0  0  0  0
 30 28  1  0  0  0  0
 31 32  2  0  0  0  0
 31 19  1  0  0  0  0
 33 31  1  0  0  0  0
 34 33  1  0  0  0  0
 35  6  1  0  0  0  0
 35 37  1  0  0  0  0
 36 35  2  0  0  0  0
 38 37  1  0  0  0  0
 39 25  1  0  0  0  0
 40 39  2  0  0  0  0
 41 39  1  0  0  0  0
 42 41  1  0  0  0  0
M  RAD  4  11   2  22   2  24   3  27   2
M  END
