Coordinates from ORCA-job 1g-Schema5-R9-P1+-B3LYPG-6-31G_dp-scan-d49-09-n400
 OpenBabel08231810273D

 42 45  0  0  1  0  0  0  0  0999 V2000
   -1.9758    0.5636   -1.0812 C   0  0  0  0  0  0  0  0  0  0  0  0
   -0.6360    0.2353   -0.9174 C   0  0  0  0  0  0  0  0  0  0  0  0
    0.2511    0.9731   -0.1276 C   0  0  0  0  0  0  0  0  0  0  0  0
   -0.2156    2.1050    0.5314 C   0  0  0  0  0  0  0  0  0  0  0  0
   -1.5631    2.4547    0.3961 C   0  0  0  0  0  0  0  0  0  0  0  0
   -2.4345    1.6969   -0.4075 C   0  0  0  0  0  0  0  0  0  0  0  0
   -2.6521   -0.0291   -1.6862 H   0  0  0  0  0  0  0  0  0  0  0  0
   -1.9495    3.3271    0.9101 H   0  0  0  0  0  0  0  0  0  0  0  0
    0.4492    2.7114    1.1365 H   0  0  0  0  0  0  0  0  0  0  0  0
    0.0313   -0.8865   -1.4623 N   0  0  0  0  0  0  0  0  0  0  0  0
   -0.4896   -1.5708   -2.3846 N   0  0  0  0  0  0  0  0  0  0  0  0
    0.0291   -2.7391   -2.9105 C   0  0  0  0  0  0  0  0  0  0  0  0
   -0.5194   -3.0449   -4.1804 C   0  0  0  0  0  0  0  0  0  0  0  0
    0.9426   -3.6400   -2.3021 C   0  0  0  0  0  0  0  0  0  0  0  0
   -0.1118   -4.1786   -4.8664 C   0  0  0  0  0  0  0  0  0  0  0  0
   -1.2468   -2.3608   -4.6039 H   0  0  0  0  0  0  0  0  0  0  0  0
    1.3109   -4.7865   -2.9836 C   0  0  0  0  0  0  0  0  0  0  0  0
    1.2986   -3.4907   -1.2917 H   0  0  0  0  0  0  0  0  0  0  0  0
    0.8069   -5.0522   -4.2686 C   0  0  0  0  0  0  0  0  0  0  0  0
   -0.5109   -4.4028   -5.8478 H   0  0  0  0  0  0  0  0  0  0  0  0
    1.9896   -5.5059   -2.5378 H   0  0  0  0  0  0  0  0  0  0  0  0
    1.1860   -1.7627    0.5312 C   0  0  0  0  0  0  0  0  0  0  0  0
    1.3546   -1.0447   -0.7309 C   0  0  2  0  0  0  0  0  0  0  0  0
    1.7939   -1.5144    1.5674 C   0  0  0  0  0  0  0  0  0  0  0  0
    1.6763    0.4461   -0.2500 C   0  0  2  0  0  0  0  0  0  0  0  0
    2.0809   -1.4499   -1.4365 H   0  0  0  0  0  0  0  0  0  0  0  0
    2.4791   -0.3432    2.0278 C   0  0  0  0  0  0  0  0  0  0  0  0
    2.4553    0.6041    1.0594 C   0  0  0  0  0  0  0  0  0  0  0  0
    3.0241   -0.2405    2.9576 H   0  0  0  0  0  0  0  0  0  0  0  0
    2.9890    1.5405    1.1857 H   0  0  0  0  0  0  0  0  0  0  0  0
    1.2727   -6.3095   -4.9423 C   0  0  0  0  0  0  0  0  0  0  0  0
    2.0633   -7.0774   -4.4409 O   0  0  0  0  0  0  0  0  0  0  0  0
    0.7149   -6.4785   -6.1541 O   0  0  0  0  0  0  0  0  0  0  0  0
    1.0617   -7.3099   -6.5207 H   0  0  0  0  0  0  0  0  0  0  0  0
   -3.8818    2.0492   -0.5773 C   0  0  0  0  0  0  0  0  0  0  0  0
   -4.6468    1.4072   -1.2624 O   0  0  0  0  0  0  0  0  0  0  0  0
   -4.2259    3.1522    0.1117 O   0  0  0  0  0  0  0  0  0  0  0  0
   -5.1710    3.3132   -0.0515 H   0  0  0  0  0  0  0  0  0  0  0  0
    2.3501    1.1804   -1.4305 C   0  0  0  0  0  0  0  0  0  0  0  0
    2.4157    0.7104   -2.5426 O   0  0  0  0  0  0  0  0  0  0  0  0
    2.8028    2.3906   -1.0813 O   0  0  0  0  0  0  0  0  0  0  0  0
    3.1906    2.8083   -1.8713 H   0  0  0  0  0  0  0  0  0  0  0  0
  1  2  2  0  0  0  0
  1  6  1  0  0  0  0
  2  3  1  0  0  0  0
  3  4  2  0  0  0  0
  4  9  1  0  0  0  0
  5  4  1  0  0  0  0
  5  8  1  0  0  0  0
  6  5  2  0  0  0  0
  7  1  1  0  0  0  0
 10  2  1  0  0  0  0
 10 23  1  0  0  0  0
 11 10  1  0  0  0  0
 12 11  1  0  0  0  0
 12 14  1  0  0  0  0
 13 12  2  0  0  0  0
 14 18  1  0  0  0  0
 15 19  2  0  0  0  0
 15 13  1  0  0  0  0
 16 13  1  0  0  0  0
 17 21  1  0  0  0  0
 17 14  2  0  0  0  0
 19 17  1  0  0  0  0
 20 15  1  0  0  0  0
 22 24  1  0  0  0  0
 23 26  1  6  0  0  0
 23 25  1  0  0  0  0
 23 22  1  0  0  0  0
 24 27  2  0  0  0  0
 25 39  1  6  0  0  0
 25  3  1  0  0  0  0
 25 28  1  0  0  0  0
 27 29  1  0  0  0  0
 28 30  1  0  0  0  0
 28 27  1  0  0  0  0
 31 32  2  0  0  0  0
 31 19  1  0  0  0  0
 33 31  1  0  0  0  0
 34 33  1  0  0  0  0
 35  6  1  0  0  0  0
 35 37  1  0  0  0  0
 36 35  2  0  0  0  0
 38 37  1  0  0  0  0
 39 41  1  0  0  0  0
 40 39  2  0  0  0  0
 42 41  1  0  0  0  0
M  RAD  4  11   2  22   3  24   2  28   2
M  END
