Coordinates from ORCA-job 1g-Schema5-R9-P1+-B3LYPG-6-31G_dp-scan-d49-09-n400
 OpenBabel08231810273D

 42 46  0  0  1  0  0  0  0  0999 V2000
   -1.9688    0.6520   -1.0980 C   0  0  0  0  0  0  0  0  0  0  0  0
   -0.6851    0.1749   -0.8859 C   0  0  0  0  0  0  0  0  0  0  0  0
    0.1968    0.6379    0.1390 C   0  0  1  0  0  0  0  0  0  0  0  0
   -0.2479    1.7370    0.9052 C   0  0  0  0  0  0  0  0  0  0  0  0
   -1.5367    2.2181    0.7190 C   0  0  0  0  0  0  0  0  0  0  0  0
   -2.3973    1.6946   -0.2761 C   0  0  1  0  0  0  0  0  0  0  0  0
   -2.6263    0.2425   -1.8568 H   0  0  0  0  0  0  0  0  0  0  0  0
   -1.8937    3.0405    1.3293 H   0  0  0  0  0  0  0  0  0  0  0  0
    0.4062    2.1894    1.6432 H   0  0  0  0  0  0  0  0  0  0  0  0
   -0.0564   -0.9315   -1.4763 N   0  0  0  0  0  0  0  0  0  0  0  0
   -0.4879   -1.5130   -2.5117 N   0  0  0  0  0  0  0  0  0  0  0  0
    0.0261   -2.7026   -2.9932 C   0  0  0  0  0  0  0  0  0  0  0  0
   -0.1575   -2.8800   -4.3838 C   0  0  0  0  0  0  0  0  0  0  0  0
    0.5957   -3.7419   -2.2150 C   0  0  0  0  0  0  0  0  0  0  0  0
    0.3094   -4.0298   -5.0046 C   0  0  0  0  0  0  0  0  0  0  0  0
   -0.6393   -2.0889   -4.9476 H   0  0  0  0  0  0  0  0  0  0  0  0
    1.0192   -4.9004   -2.8419 C   0  0  0  0  0  0  0  0  0  0  0  0
    0.6186   -3.6806   -1.1327 H   0  0  0  0  0  0  0  0  0  0  0  0
    0.9015   -5.0415   -4.2360 C   0  0  0  0  0  0  0  0  0  0  0  0
    0.1991   -4.1600   -6.0746 H   0  0  0  0  0  0  0  0  0  0  0  0
    1.4331   -5.7263   -2.2736 H   0  0  0  0  0  0  0  0  0  0  0  0
    0.7344   -1.0389    0.8046 C   0  0  1  0  0  0  0  0  0  0  0  0
    1.1833   -1.1463   -0.6070 C   0  0  2  0  0  0  0  0  0  0  0  0
    1.5885   -1.0387    1.7535 C   0  0  0  0  0  0  0  0  0  0  0  0
    1.7050    0.3485   -0.3997 C   0  0  2  0  0  0  0  0  0  0  0  0
    1.8429   -1.9254   -0.9711 H   0  0  0  0  0  0  0  0  0  0  0  0
    2.6378   -0.1047    1.8536 C   0  0  0  0  0  0  0  0  0  0  0  0
    2.7424    0.5667    0.6561 C   0  0  0  0  0  0  0  0  0  0  0  0
    3.3346    0.0077    2.6761 H   0  0  0  0  0  0  0  0  0  0  0  0
    3.5286    1.2891    0.4609 H   0  0  0  0  0  0  0  0  0  0  0  0
    1.3994   -6.3205   -4.8403 C   0  0  0  0  0  0  0  0  0  0  0  0
    1.9133   -7.2052   -4.1917 O   0  0  0  0  0  0  0  0  0  0  0  0
    1.2123   -6.3670   -6.1713 O   0  0  0  0  0  0  0  0  0  0  0  0
    1.5571   -7.2212   -6.4833 H   0  0  0  0  0  0  0  0  0  0  0  0
   -3.7768    2.2197   -0.5033 C   0  0  0  0  0  0  0  0  0  0  0  0
   -4.5233    1.7903   -1.3564 O   0  0  0  0  0  0  0  0  0  0  0  0
   -4.0948    3.2177    0.3437 O   0  0  0  0  0  0  0  0  0  0  0  0
   -5.0012    3.4978    0.1304 H   0  0  0  0  0  0  0  0  0  0  0  0
    2.0085    1.0659   -1.7183 C   0  0  0  0  0  0  0  0  0  0  0  0
    1.9632    0.5151   -2.7938 O   0  0  0  0  0  0  0  0  0  0  0  0
    2.3197    2.3525   -1.5205 O   0  0  0  0  0  0  0  0  0  0  0  0
    2.5056    2.7569   -2.3872 H   0  0  0  0  0  0  0  0  0  0  0  0
  1  2  2  0  0  0  0
  1  6  1  0  0  0  0
  3  2  1  6  0  0  0
  3 22  1  0  0  0  0
  3  4  1  0  0  0  0
  4  9  1  0  0  0  0
  5  4  2  0  0  0  0
  5  8  1  0  0  0  0
  6 35  1  6  0  0  0
  6  5  1  0  0  0  0
  7  1  1  0  0  0  0
 10  2  1  0  0  0  0
 10 23  1  0  0  0  0
 11 10  1  0  0  0  0
 12 11  1  0  0  0  0
 12 14  2  0  0  0  0
 13 12  1  0  0  0  0
 14 18  1  0  0  0  0
 15 13  2  0  0  0  0
 15 19  1  0  0  0  0
 16 13  1  0  0  0  0
 17 21  1  0  0  0  0
 17 14  1  0  0  0  0
 19 17  2  0  0  0  0
 20 15  1  0  0  0  0
 22 24  1  1  0  0  0
 23 26  1  6  0  0  0
 23 25  1  0  0  0  0
 23 22  1  0  0  0  0
 24 27  2  0  0  0  0
 25 39  1  6  0  0  0
 25  3  1  0  0  0  0
 25 28  1  0  0  0  0
 27 29  1  0  0  0  0
 28 27  1  0  0  0  0
 30 28  1  0  0  0  0
 31 19  1  0  0  0  0
 31 32  2  0  0  0  0
 33 31  1  0  0  0  0
 34 33  1  0  0  0  0
 35 37  1  0  0  0  0
 36 35  2  0  0  0  0
 38 37  1  0  0  0  0
 39 41  1  0  0  0  0
 40 39  2  0  0  0  0
 42 41  1  0  0  0  0
M  RAD  5   6   2  11   2  22   2  24   2  28   2
M  END
