Coordinates from ORCA-job 1g-Schema5-R9-P1+-B3LYPG-6-31G_dp-scan-d49-09-n400
 OpenBabel08231810273D

 42 45  0  0  1  0  0  0  0  0999 V2000
   -1.9849    0.6139   -1.0810 C   0  0  0  0  0  0  0  0  0  0  0  0
   -0.6557    0.2454   -0.9518 C   0  0  0  0  0  0  0  0  0  0  0  0
    0.2512    0.8605   -0.0734 C   0  0  0  0  0  0  0  0  0  0  0  0
   -0.1893    1.9401    0.6820 C   0  0  0  0  0  0  0  0  0  0  0  0
   -1.5325    2.3256    0.5904 C   0  0  0  0  0  0  0  0  0  0  0  0
   -2.4198    1.6815   -0.2892 C   0  0  0  0  0  0  0  0  0  0  0  0
   -2.6753    0.0994   -1.7397 H   0  0  0  0  0  0  0  0  0  0  0  0
   -1.8990    3.1503    1.1914 H   0  0  0  0  0  0  0  0  0  0  0  0
    0.4917    2.4749    1.3351 H   0  0  0  0  0  0  0  0  0  0  0  0
   -0.0107   -0.8713   -1.5316 N   0  0  0  0  0  0  0  0  0  0  0  0
   -0.4806   -1.4899   -2.5207 N   0  0  0  0  0  0  0  0  0  0  0  0
    0.0314   -2.6840   -3.0041 C   0  0  0  0  0  0  0  0  0  0  0  0
   -0.2425   -2.9001   -4.3731 C   0  0  0  0  0  0  0  0  0  0  0  0
    0.6759   -3.6888   -2.2405 C   0  0  0  0  0  0  0  0  0  0  0  0
    0.2034   -4.0571   -4.9964 C   0  0  0  0  0  0  0  0  0  0  0  0
   -0.7803   -2.1346   -4.9217 H   0  0  0  0  0  0  0  0  0  0  0  0
    1.0754   -4.8570   -2.8664 C   0  0  0  0  0  0  0  0  0  0  0  0
    0.7837   -3.5960   -1.1661 H   0  0  0  0  0  0  0  0  0  0  0  0
    0.8649   -5.0375   -4.2444 C   0  0  0  0  0  0  0  0  0  0  0  0
    0.0228   -4.2175   -6.0524 H   0  0  0  0  0  0  0  0  0  0  0  0
    1.5465   -5.6583   -2.3074 H   0  0  0  0  0  0  0  0  0  0  0  0
    0.8110   -1.3434    0.7059 C   0  0  0  0  0  0  0  0  0  0  0  0
    1.2294   -1.0897   -0.6724 C   0  0  2  0  0  0  0  0  0  0  0  0
    1.5287   -1.1887    1.7034 C   0  0  0  0  0  0  0  0  0  0  0  0
    1.6876    0.4036   -0.3609 C   0  0  2  0  0  0  0  0  0  0  0  0
    1.9334   -1.7572   -1.1627 H   0  0  0  0  0  0  0  0  0  0  0  0
    2.4799   -0.1484    1.9525 C   0  0  0  0  0  0  0  0  0  0  0  0
    2.6122    0.6099    0.8335 C   0  0  0  0  0  0  0  0  0  0  0  0
    3.1013   -0.0440    2.8338 H   0  0  0  0  0  0  0  0  0  0  0  0
    3.3577    1.3948    0.7564 H   0  0  0  0  0  0  0  0  0  0  0  0
    1.3456   -6.3231   -4.8495 C   0  0  0  0  0  0  0  0  0  0  0  0
    1.9158   -7.1831   -4.2155 O   0  0  0  0  0  0  0  0  0  0  0  0
    1.0731   -6.4054   -6.1640 O   0  0  0  0  0  0  0  0  0  0  0  0
    1.4116   -7.2616   -6.4776 H   0  0  0  0  0  0  0  0  0  0  0  0
   -3.8571    2.0836   -0.4204 C   0  0  0  0  0  0  0  0  0  0  0  0
   -4.6339    1.5388   -1.1735 O   0  0  0  0  0  0  0  0  0  0  0  0
   -4.1797    3.1097    0.3876 O   0  0  0  0  0  0  0  0  0  0  0  0
   -5.1207    3.3080    0.2428 H   0  0  0  0  0  0  0  0  0  0  0  0
    2.2072    1.0651   -1.6500 C   0  0  0  0  0  0  0  0  0  0  0  0
    2.1709    0.5140   -2.7263 O   0  0  0  0  0  0  0  0  0  0  0  0
    2.6693    2.3016   -1.4339 O   0  0  0  0  0  0  0  0  0  0  0  0
    2.9697    2.6669   -2.2857 H   0  0  0  0  0  0  0  0  0  0  0  0
  1  2  2  0  0  0  0
  1  6  1  0  0  0  0
  2  3  1  0  0  0  0
  3  4  2  0  0  0  0
  4  9  1  0  0  0  0
  5  4  1  0  0  0  0
  5  8  1  0  0  0  0
  6  5  2  0  0  0  0
  7  1  1  0  0  0  0
 10  2  1  0  0  0  0
 10 23  1  0  0  0  0
 11 10  1  0  0  0  0
 12 11  1  0  0  0  0
 12 14  2  0  0  0  0
 13 12  1  0  0  0  0
 14 18  1  0  0  0  0
 15 13  2  0  0  0  0
 15 19  1  0  0  0  0
 16 13  1  0  0  0  0
 17 21  1  0  0  0  0
 17 14  1  0  0  0  0
 19 17  2  0  0  0  0
 20 15  1  0  0  0  0
 22 24  1  0  0  0  0
 23 26  1  6  0  0  0
 23 25  1  0  0  0  0
 23 22  1  0  0  0  0
 24 27  2  0  0  0  0
 25 39  1  6  0  0  0
 25  3  1  0  0  0  0
 25 28  1  0  0  0  0
 27 29  1  0  0  0  0
 28 27  1  0  0  0  0
 30 28  1  0  0  0  0
 31 19  1  0  0  0  0
 31 32  2  0  0  0  0
 33 31  1  0  0  0  0
 34 33  1  0  0  0  0
 35  6  1  0  0  0  0
 35 37  1  0  0  0  0
 36 35  2  0  0  0  0
 38 37  1  0  0  0  0
 39 41  1  0  0  0  0
 40 39  2  0  0  0  0
 42 41  1  0  0  0  0
M  RAD  4  11   2  22   3  24   2  28   2
M  END
