Coordinates from ORCA-job 1g-Schema5-R9-P1+-B3LYPG-6-31G_dp-scan-d49-09-n400
 OpenBabel08231810273D

 42 45  0  0  1  0  0  0  0  0999 V2000
   -1.9895    0.8430   -1.1432 C   0  0  0  0  0  0  0  0  0  0  0  0
   -0.8989    0.2421   -0.5296 C   0  0  0  0  0  0  0  0  0  0  0  0
   -0.5545    0.4850    0.8055 C   0  0  0  0  0  0  0  0  0  0  0  0
   -1.3161    1.3525    1.5834 C   0  0  0  0  0  0  0  0  0  0  0  0
   -2.4151    1.9703    0.9845 C   0  0  0  0  0  0  0  0  0  0  0  0
   -2.7472    1.7213   -0.3629 C   0  0  0  0  0  0  0  0  0  0  0  0
   -2.2570    0.6595   -2.1765 H   0  0  0  0  0  0  0  0  0  0  0  0
   -3.0308    2.6545    1.5569 H   0  0  0  0  0  0  0  0  0  0  0  0
   -1.0671    1.5355    2.6226 H   0  0  0  0  0  0  0  0  0  0  0  0
   -0.0205   -0.7211   -1.1171 N   0  0  0  0  0  0  0  0  0  0  0  0
   -0.4272   -1.3498   -2.1372 N   0  0  0  0  0  0  0  0  0  0  0  0
    0.1543   -2.4104   -2.7875 C   0  0  0  0  0  0  0  0  0  0  0  0
   -0.7340   -2.9550   -3.7537 C   0  0  0  0  0  0  0  0  0  0  0  0
    1.4307   -3.0123   -2.6054 C   0  0  0  0  0  0  0  0  0  0  0  0
   -0.3913   -4.0832   -4.4819 C   0  0  0  0  0  0  0  0  0  0  0  0
   -1.6936   -2.4691   -3.8889 H   0  0  0  0  0  0  0  0  0  0  0  0
    1.7602   -4.1357   -3.3380 C   0  0  0  0  0  0  0  0  0  0  0  0
    2.1735   -2.5890   -1.9485 H   0  0  0  0  0  0  0  0  0  0  0  0
    0.8573   -4.6808   -4.2697 C   0  0  0  0  0  0  0  0  0  0  0  0
   -1.0761   -4.5002   -5.2105 H   0  0  0  0  0  0  0  0  0  0  0  0
    2.7270   -4.6130   -3.2225 H   0  0  0  0  0  0  0  0  0  0  0  0
    0.7177   -0.3525    1.1016 C   0  0  1  0  0  0  0  0  0  0  0  0
    1.1735   -0.9325   -0.2212 C   0  0  2  0  0  0  0  0  0  0  0  0
    1.6791   -0.2486    2.0054 C   0  0  0  0  0  0  0  0  0  0  0  0
    2.4700   -0.1018   -0.5762 C   0  0  0  0  0  0  0  0  0  0  0  0
    1.3999   -2.0012   -0.2202 H   0  0  0  0  0  0  0  0  0  0  0  0
    2.9876   -0.1007    1.8332 C   0  0  0  0  0  0  0  0  0  0  0  0
    3.2984    0.2794    0.4298 C   0  0  0  0  0  0  0  0  0  0  0  0
    3.7820   -0.3470    2.5305 H   0  0  0  0  0  0  0  0  0  0  0  0
    4.2398    0.7608    0.1846 H   0  0  0  0  0  0  0  0  0  0  0  0
    1.3014   -5.9023   -5.0208 C   0  0  0  0  0  0  0  0  0  0  0  0
    2.3779   -6.4300   -4.8494 O   0  0  0  0  0  0  0  0  0  0  0  0
    0.3736   -6.3346   -5.8917 O   0  0  0  0  0  0  0  0  0  0  0  0
    0.7332   -7.1229   -6.3337 H   0  0  0  0  0  0  0  0  0  0  0  0
   -3.9206    2.3731   -1.0295 C   0  0  0  0  0  0  0  0  0  0  0  0
   -4.2306    2.1681   -2.1828 O   0  0  0  0  0  0  0  0  0  0  0  0
   -4.5845    3.2048   -0.2060 O   0  0  0  0  0  0  0  0  0  0  0  0
   -5.3256    3.5809   -0.7110 H   0  0  0  0  0  0  0  0  0  0  0  0
    2.7905    0.1895   -1.9927 C   0  0  0  0  0  0  0  0  0  0  0  0
    2.1083   -0.1778   -2.9333 O   0  0  0  0  0  0  0  0  0  0  0  0
    3.9075    0.9228   -2.1403 O   0  0  0  0  0  0  0  0  0  0  0  0
    4.0261    1.0790   -3.0927 H   0  0  0  0  0  0  0  0  0  0  0  0
  1  2  2  0  0  0  0
  1  6  1  0  0  0  0
  2  3  1  0  0  0  0
  3  4  2  0  0  0  0
  4  9  1  0  0  0  0
  5  8  1  0  0  0  0
  5  4  1  0  0  0  0
  6  5  2  0  0  0  0
  7  1  1  0  0  0  0
 10  2  1  0  0  0  0
 10 23  1  0  0  0  0
 11 10  1  0  0  0  0
 12 14  1  0  0  0  0
 12 11  1  0  0  0  0
 13 12  2  0  0  0  0
 14 18  1  0  0  0  0
 15 19  2  0  0  0  0
 15 13  1  0  0  0  0
 16 13  1  0  0  0  0
 17 21  1  0  0  0  0
 17 14  2  0  0  0  0
 19 17  1  0  0  0  0
 20 15  1  0  0  0  0
 22  3  1  6  0  0  0
 22 24  1  0  0  0  0
 23 26  1  1  0  0  0
 23 22  1  0  0  0  0
 25 23  1  0  0  0  0
 25 28  2  0  0  0  0
 27 24  1  0  0  0  0
 27 29  1  0  0  0  0
 28 27  1  0  0  0  0
 30 28  1  0  0  0  0
 31 32  2  0  0  0  0
 31 19  1  0  0  0  0
 33 31  1  0  0  0  0
 34 33  1  0  0  0  0
 35  6  1  0  0  0  0
 35 37  1  0  0  0  0
 36 35  2  0  0  0  0
 38 37  1  0  0  0  0
 39 25  1  0  0  0  0
 40 39  2  0  0  0  0
 41 39  1  0  0  0  0
 42 41  1  0  0  0  0
M  RAD  4  11   2  22   2  24   3  27   2
M  END
