Coordinates from ORCA-job p-NO2-Ph-N2-Cl-B3LYPG-6-31G_dp-scan-d09-49-n400
 OpenBabel08281821083D

 16 16  0  0  0  0  0  0  0  0999 V2000
   -1.4457   -1.5714   -1.0411 C   0  0  0  0  0  0  0  0  0  0  0  0
   -0.0738   -1.3842   -0.9025 C   0  0  0  0  0  0  0  0  0  0  0  0
    0.4410   -0.1050   -0.6554 C   0  0  0  0  0  0  0  0  0  0  0  0
   -0.4187    1.0020   -0.5432 C   0  0  0  0  0  0  0  0  0  0  0  0
   -1.7876    0.8219   -0.6803 C   0  0  0  0  0  0  0  0  0  0  0  0
   -2.2795   -0.4623   -0.9276 C   0  0  0  0  0  0  0  0  0  0  0  0
   -1.8746   -2.5464   -1.2337 H   0  0  0  0  0  0  0  0  0  0  0  0
    0.6181   -2.2153   -0.9827 H   0  0  0  0  0  0  0  0  0  0  0  0
   -0.0049    1.9845   -0.3504 H   0  0  0  0  0  0  0  0  0  0  0  0
   -2.4814    1.6492   -0.6005 H   0  0  0  0  0  0  0  0  0  0  0  0
   -3.7345   -0.6486   -1.0744 N   0  0  0  0  0  0  0  0  0  0  0  0
   -4.4483    0.3468   -0.9642 O   0  0  0  0  0  0  0  0  0  0  0  0
   -4.1431   -1.7895   -1.2822 O   0  0  0  0  0  0  0  0  0  0  0  0
    1.8605   -0.0502   -0.5355 N   0  0  0  0  0  0  0  0  0  0  0  0
    2.3039    1.0928   -0.3280 N   0  0  0  0  0  0  0  0  0  0  0  0
    3.9497    1.1336   -0.1921 Cl  0  0  0  0  0  0  0  0  0  0  0  0
  1  6  2  0  0  0  0
  1  2  1  0  0  0  0
  2  3  2  0  0  0  0
  3  4  1  0  0  0  0
  3 14  1  0  0  0  0
  4  9  1  0  0  0  0
  5 10  1  0  0  0  0
  5  4  2  0  0  0  0
  6  5  1  0  0  0  0
  7  1  1  0  0  0  0
  8  2  1  0  0  0  0
 11 12  2  0  0  0  0
 11  6  1  0  0  0  0
 13 11  2  0  0  0  0
 14 15  1  0  0  0  0
 15 16  1  0  0  0  0
M  RAD  2  14   2  15   2
M  END
