Coordinates from ORCA-job p-NO2-Ph-N2-Cl-B3LYPG-6-31G_dp-scan-d09-49-n400
 OpenBabel08281821083D

 16 15  0  0  0  0  0  0  0  0999 V2000
   -1.0878   -1.3332   -0.9896 C   0  0  0  0  0  0  0  0  0  0  0  0
    0.1897   -0.8097   -0.8035 C   0  0  0  0  0  0  0  0  0  0  0  0
    0.2830    0.5661   -0.5597 C   0  0  0  0  0  0  0  0  0  0  0  0
   -0.8164    1.4311   -0.4940 C   0  0  0  0  0  0  0  0  0  0  0  0
   -2.0811    0.8908   -0.6815 C   0  0  0  0  0  0  0  0  0  0  0  0
   -2.1874   -0.4798   -0.9253 C   0  0  0  0  0  0  0  0  0  0  0  0
   -1.2375   -2.3882   -1.1831 H   0  0  0  0  0  0  0  0  0  0  0  0
    1.1016   -1.4163   -0.8377 H   0  0  0  0  0  0  0  0  0  0  0  0
   -0.6741    2.4882   -0.3001 H   0  0  0  0  0  0  0  0  0  0  0  0
   -2.9754    1.4988   -0.6434 H   0  0  0  0  0  0  0  0  0  0  0  0
   -3.5419   -1.0508   -1.1250 N   0  0  0  0  0  0  0  0  0  0  0  0
   -4.4908   -0.2743   -1.0599 O   0  0  0  0  0  0  0  0  0  0  0  0
   -3.6158   -2.2557   -1.3404 O   0  0  0  0  0  0  0  0  0  0  0  0
    1.5647    1.1203   -0.3681 N   0  0  0  0  0  0  0  0  0  0  0  0
    2.6952    0.9951   -0.2988 N   0  0  0  0  0  0  0  0  0  0  0  0
    3.3552   -1.7244   -0.6838 Cl  0  0  0  0  0  0  0  0  0  0  0  0
  1  6  2  0  0  0  0
  1  2  1  0  0  0  0
  2  3  2  0  0  0  0
  3  4  1  0  0  0  0
  3 14  1  0  0  0  0
  4  9  1  0  0  0  0
  5 10  1  0  0  0  0
  5  4  2  0  0  0  0
  6  5  1  0  0  0  0
  7  1  1  0  0  0  0
  8  2  1  0  0  0  0
 11 12  2  0  0  0  0
 11  6  1  0  0  0  0
 13 11  2  0  0  0  0
 14 15  2  0  0  0  0
M  RAD  2  15   2  16   2
M  END
