Coordinates from ORCA-job p-NO2-Ph-N2-Cl-B3LYPG-6-31G_dp-scan-d09-49-n400
 OpenBabel08281821083D

 16 15  0  0  0  0  0  0  0  0999 V2000
   -1.3959   -1.5082   -1.0258 C   0  0  0  0  0  0  0  0  0  0  0  0
   -0.0493   -1.1947   -0.8689 C   0  0  0  0  0  0  0  0  0  0  0  0
    0.3019    0.1362   -0.6256 C   0  0  0  0  0  0  0  0  0  0  0  0
   -0.6437    1.1691   -0.5330 C   0  0  0  0  0  0  0  0  0  0  0  0
   -1.9854    0.8475   -0.6910 C   0  0  0  0  0  0  0  0  0  0  0  0
   -2.3328   -0.4820   -0.9338 C   0  0  0  0  0  0  0  0  0  0  0  0
   -1.7271   -2.5209   -1.2170 H   0  0  0  0  0  0  0  0  0  0  0  0
    0.7235   -1.9526   -0.9311 H   0  0  0  0  0  0  0  0  0  0  0  0
   -0.3259    2.1880   -0.3420 H   0  0  0  0  0  0  0  0  0  0  0  0
   -2.7617    1.5999   -0.6302 H   0  0  0  0  0  0  0  0  0  0  0  0
   -3.7672   -0.8154   -1.1015 N   0  0  0  0  0  0  0  0  0  0  0  0
   -4.5696    0.1089   -1.0136 O   0  0  0  0  0  0  0  0  0  0  0  0
   -4.0469   -1.9903   -1.3160 O   0  0  0  0  0  0  0  0  0  0  0  0
    1.6727    0.4250   -0.4737 N   0  0  0  0  0  0  0  0  0  0  0  0
    2.4523    1.2414   -0.2780 N   0  0  0  0  0  0  0  0  0  0  0  0
    4.9364    0.0059   -0.3126 Cl  0  0  0  0  0  0  0  0  0  0  0  0
  1  6  2  0  0  0  0
  1  2  1  0  0  0  0
  2  3  2  0  0  0  0
  3  4  1  0  0  0  0
  3 14  1  0  0  0  0
  4  9  1  0  0  0  0
  5 10  1  0  0  0  0
  5  4  2  0  0  0  0
  6  5  1  0  0  0  0
  7  1  1  0  0  0  0
  8  2  1  0  0  0  0
 11 12  2  0  0  0  0
 11  6  1  0  0  0  0
 13 11  2  0  0  0  0
 14 15  2  0  0  0  0
M  RAD  2  15   2  16   2
M  END
