Coordinates from ORCA-job p-NO2-Ph-N2-Cl-B3LYPG-6-31G_dp-scan-d09-49-n400
 OpenBabel08281821083D

 16 16  0  0  0  0  0  0  0  0999 V2000
   -1.4493   -1.5663   -1.0399 C   0  0  0  0  0  0  0  0  0  0  0  0
   -0.0789   -1.3645   -0.8997 C   0  0  0  0  0  0  0  0  0  0  0  0
    0.4097   -0.0778   -0.6537 C   0  0  0  0  0  0  0  0  0  0  0  0
   -0.4555    1.0222   -0.5426 C   0  0  0  0  0  0  0  0  0  0  0  0
   -1.8225    0.8242   -0.6815 C   0  0  0  0  0  0  0  0  0  0  0  0
   -2.2951   -0.4665   -0.9282 C   0  0  0  0  0  0  0  0  0  0  0  0
   -1.8668   -2.5463   -1.2322 H   0  0  0  0  0  0  0  0  0  0  0  0
    0.6234   -2.1866   -0.9778 H   0  0  0  0  0  0  0  0  0  0  0  0
   -0.0542    2.0104   -0.3499 H   0  0  0  0  0  0  0  0  0  0  0  0
   -2.5270    1.6425   -0.6036 H   0  0  0  0  0  0  0  0  0  0  0  0
   -3.7501   -0.6716   -1.0769 N   0  0  0  0  0  0  0  0  0  0  0  0
   -4.4737    0.3162   -0.9730 O   0  0  0  0  0  0  0  0  0  0  0  0
   -4.1410   -1.8168   -1.2899 O   0  0  0  0  0  0  0  0  0  0  0  0
    1.8365    0.0125   -0.5278 N   0  0  0  0  0  0  0  0  0  0  0  0
    2.3002    1.1083   -0.3282 N   0  0  0  0  0  0  0  0  0  0  0  0
    4.2256    1.0178   -0.1890 Cl  0  0  0  0  0  0  0  0  0  0  0  0
  1  6  2  0  0  0  0
  1  2  1  0  0  0  0
  2  3  2  0  0  0  0
  3  4  1  0  0  0  0
  3 14  1  0  0  0  0
  4  9  1  0  0  0  0
  5 10  1  0  0  0  0
  5  4  2  0  0  0  0
  6  5  1  0  0  0  0
  7  1  1  0  0  0  0
  8  2  1  0  0  0  0
 11 12  2  0  0  0  0
 11  6  1  0  0  0  0
 13 11  2  0  0  0  0
 14 15  1  0  0  0  0
 15 16  1  0  0  0  0
M  RAD  2  14   2  15   2
M  END
