Coordinates from ORCA-job p-NO2-Ph-N2-Cl-B3LYPG-6-31G_dp-scan-d09-49-n400
 OpenBabel08281821083D

 16 15  0  0  0  0  0  0  0  0999 V2000
   -1.0503   -1.3150   -0.9809 C   0  0  0  0  0  0  0  0  0  0  0  0
    0.2205   -0.7721   -0.7917 C   0  0  0  0  0  0  0  0  0  0  0  0
    0.2774    0.6075   -0.5518 C   0  0  0  0  0  0  0  0  0  0  0  0
   -0.8349    1.4628   -0.4904 C   0  0  0  0  0  0  0  0  0  0  0  0
   -2.0842    0.8962   -0.6819 C   0  0  0  0  0  0  0  0  0  0  0  0
   -2.1626   -0.4802   -0.9231 C   0  0  0  0  0  0  0  0  0  0  0  0
   -1.1783   -2.3736   -1.1722 H   0  0  0  0  0  0  0  0  0  0  0  0
    1.1526   -1.3737   -0.8217 H   0  0  0  0  0  0  0  0  0  0  0  0
   -0.7135    2.5230   -0.2983 H   0  0  0  0  0  0  0  0  0  0  0  0
   -2.9911    1.4855   -0.6496 H   0  0  0  0  0  0  0  0  0  0  0  0
   -3.5085   -1.0730   -1.1269 N   0  0  0  0  0  0  0  0  0  0  0  0
   -4.4685   -0.3097   -1.0660 O   0  0  0  0  0  0  0  0  0  0  0  0
   -3.5623   -2.2785   -1.3408 O   0  0  0  0  0  0  0  0  0  0  0  0
    1.5510    1.1508   -0.3624 N   0  0  0  0  0  0  0  0  0  0  0  0
    2.6734    1.2002   -0.2658 N   0  0  0  0  0  0  0  0  0  0  0  0
    3.1605   -2.0922   -0.7702 Cl  0  0  0  0  0  0  0  0  0  0  0  0
  1  6  2  0  0  0  0
  1  2  1  0  0  0  0
  2  3  2  0  0  0  0
  3  4  1  0  0  0  0
  3 14  1  0  0  0  0
  4  9  1  0  0  0  0
  5 10  1  0  0  0  0
  5  4  2  0  0  0  0
  6  5  1  0  0  0  0
  7  1  1  0  0  0  0
  8  2  1  0  0  0  0
 11 12  2  0  0  0  0
 11  6  1  0  0  0  0
 13 11  2  0  0  0  0
 14 15  1  0  0  0  0
M  RAD  3  14   2  15   3  16   2
M  END
