Coordinates from ORCA-job p-NO2-Ph-N2-Cl-B3LYPG-6-31G_dp-scan-d09-49-n400
 OpenBabel08281821083D

 16 15  0  0  0  0  0  0  0  0999 V2000
   -1.4115   -1.5187   -1.0283 C   0  0  0  0  0  0  0  0  0  0  0  0
   -0.0606   -1.2217   -0.8739 C   0  0  0  0  0  0  0  0  0  0  0  0
    0.3083    0.1035   -0.6304 C   0  0  0  0  0  0  0  0  0  0  0  0
   -0.6240    1.1477   -0.5352 C   0  0  0  0  0  0  0  0  0  0  0  0
   -1.9701    0.8437   -0.6907 C   0  0  0  0  0  0  0  0  0  0  0  0
   -2.3353   -0.4811   -0.9338 C   0  0  0  0  0  0  0  0  0  0  0  0
   -1.7556   -2.5270   -1.2196 H   0  0  0  0  0  0  0  0  0  0  0  0
    0.7020   -1.9895   -0.9384 H   0  0  0  0  0  0  0  0  0  0  0  0
   -0.2929    2.1624   -0.3442 H   0  0  0  0  0  0  0  0  0  0  0  0
   -2.7365    1.6060   -0.6278 H   0  0  0  0  0  0  0  0  0  0  0  0
   -3.7738   -0.7962   -1.0990 N   0  0  0  0  0  0  0  0  0  0  0  0
   -4.5647    0.1380   -1.0092 O   0  0  0  0  0  0  0  0  0  0  0  0
   -4.0691   -1.9673   -1.3137 O   0  0  0  0  0  0  0  0  0  0  0  0
    1.6889    0.3731   -0.4808 N   0  0  0  0  0  0  0  0  0  0  0  0
    2.4296    1.2271   -0.2798 N   0  0  0  0  0  0  0  0  0  0  0  0
    4.9465    0.1580   -0.2889 Cl  0  0  0  0  0  0  0  0  0  0  0  0
  1  6  2  0  0  0  0
  1  2  1  0  0  0  0
  2  3  2  0  0  0  0
  3  4  1  0  0  0  0
  3 14  1  0  0  0  0
  4  9  1  0  0  0  0
  5 10  1  0  0  0  0
  5  4  2  0  0  0  0
  6  5  1  0  0  0  0
  7  1  1  0  0  0  0
  8  2  1  0  0  0  0
 11 12  2  0  0  0  0
 11  6  1  0  0  0  0
 13 11  2  0  0  0  0
 14 15  2  0  0  0  0
M  RAD  2  15   2  16   2
M  END
