Coordinates from ORCA-job p-NO2-Ph-N2-Cl-B3LYPG-6-31G_dp-scan-d09-49-n400
 OpenBabel08281821083D

 16 15  0  0  0  0  0  0  0  0999 V2000
   -1.1085   -1.4083   -1.0067 C   0  0  0  0  0  0  0  0  0  0  0  0
    0.1960   -0.9446   -0.8276 C   0  0  0  0  0  0  0  0  0  0  0  0
    0.3656    0.4082   -0.5799 C   0  0  0  0  0  0  0  0  0  0  0  0
   -0.6910    1.3333   -0.4985 C   0  0  0  0  0  0  0  0  0  0  0  0
   -1.9802    0.8579   -0.6773 C   0  0  0  0  0  0  0  0  0  0  0  0
   -2.1623   -0.5048   -0.9284 C   0  0  0  0  0  0  0  0  0  0  0  0
   -1.3084   -2.4540   -1.2044 H   0  0  0  0  0  0  0  0  0  0  0  0
    1.0867   -1.5886   -0.8693 H   0  0  0  0  0  0  0  0  0  0  0  0
   -0.4967    2.3817   -0.3001 H   0  0  0  0  0  0  0  0  0  0  0  0
   -2.8398    1.5140   -0.6263 H   0  0  0  0  0  0  0  0  0  0  0  0
   -3.5467   -1.0017   -1.1178 N   0  0  0  0  0  0  0  0  0  0  0  0
   -4.4519   -0.1755   -1.0401 O   0  0  0  0  0  0  0  0  0  0  0  0
   -3.6870   -2.1996   -1.3374 O   0  0  0  0  0  0  0  0  0  0  0  0
    1.6863    0.9563   -0.3866 N   0  0  0  0  0  0  0  0  0  0  0  0
    2.2165    1.9403   -0.1852 N   0  0  0  0  0  0  0  0  0  0  0  0
    3.2026   -1.8567   -0.7083 Cl  0  0  0  0  0  0  0  0  0  0  0  0
  1  6  2  0  0  0  0
  1  2  1  0  0  0  0
  2  3  2  0  0  0  0
  3  4  1  0  0  0  0
  3 14  1  0  0  0  0
  4  9  1  0  0  0  0
  5 10  1  0  0  0  0
  5  4  2  0  0  0  0
  6  5  1  0  0  0  0
  7  1  1  0  0  0  0
  8  2  1  0  0  0  0
 11 12  2  0  0  0  0
 11  6  1  0  0  0  0
 13 11  2  0  0  0  0
 14 15  2  0  0  0  0
M  RAD  2  15   2  16   2
M  END
