Coordinates from ORCA-job p-NO2-Ph-N2-Cl-B3LYPG-6-31G_dp-scan-d09-49-n400
 OpenBabel08281821083D

 16 16  0  0  0  0  0  0  0  0999 V2000
   -1.4415   -1.5794   -1.0407 C   0  0  0  0  0  0  0  0  0  0  0  0
   -0.0684   -1.4183   -0.9088 C   0  0  0  0  0  0  0  0  0  0  0  0
    0.4863   -0.1495   -0.6613 C   0  0  0  0  0  0  0  0  0  0  0  0
   -0.3652    0.9687   -0.5464 C   0  0  0  0  0  0  0  0  0  0  0  0
   -1.7367    0.8155   -0.6773 C   0  0  0  0  0  0  0  0  0  0  0  0
   -2.2603   -0.4570   -0.9231 C   0  0  0  0  0  0  0  0  0  0  0  0
   -1.8876   -2.5471   -1.2321 H   0  0  0  0  0  0  0  0  0  0  0  0
    0.6039   -2.2651   -0.9942 H   0  0  0  0  0  0  0  0  0  0  0  0
    0.0637    1.9447   -0.3547 H   0  0  0  0  0  0  0  0  0  0  0  0
   -2.4126    1.6573   -0.5935 H   0  0  0  0  0  0  0  0  0  0  0  0
   -3.7122   -0.6145   -1.0623 N   0  0  0  0  0  0  0  0  0  0  0  0
   -4.4101    0.3951   -0.9568 O   0  0  0  0  0  0  0  0  0  0  0  0
   -4.1475   -1.7463   -1.2770 O   0  0  0  0  0  0  0  0  0  0  0  0
    1.8850   -0.1263   -0.5499 N   0  0  0  0  0  0  0  0  0  0  0  0
    2.3764    1.0553   -0.3230 N   0  0  0  0  0  0  0  0  0  0  0  0
    3.5081    1.3247   -0.1926 Cl  0  0  0  0  0  0  0  0  0  0  0  0
  1  6  2  0  0  0  0
  1  2  1  0  0  0  0
  2  3  2  0  0  0  0
  3 14  1  0  0  0  0
  3  4  1  0  0  0  0
  4  9  1  0  0  0  0
  5 10  1  0  0  0  0
  5  4  2  0  0  0  0
  6  5  1  0  0  0  0
  7  1  1  0  0  0  0
  8  2  1  0  0  0  0
 11 12  2  0  0  0  0
 11  6  1  0  0  0  0
 13 11  2  0  0  0  0
 14 15  1  0  0  0  0
 15 16  1  0  0  0  0
M  RAD  2  14   2  15   2
M  END
