Coordinates from ORCA-job p-NO2-Ph-N2-Cl-B3LYPG-6-31G_dp-scan-d09-49-n400
 OpenBabel08281821083D

 16 15  0  0  0  0  0  0  0  0999 V2000
   -1.1404   -1.4383   -1.0163 C   0  0  0  0  0  0  0  0  0  0  0  0
    0.1745   -1.0055   -0.8415 C   0  0  0  0  0  0  0  0  0  0  0  0
    0.3849    0.3413   -0.5889 C   0  0  0  0  0  0  0  0  0  0  0  0
   -0.6511    1.2858   -0.5009 C   0  0  0  0  0  0  0  0  0  0  0  0
   -1.9541    0.8443   -0.6755 C   0  0  0  0  0  0  0  0  0  0  0  0
   -2.1730   -0.5109   -0.9304 C   0  0  0  0  0  0  0  0  0  0  0  0
   -1.3668   -2.4778   -1.2169 H   0  0  0  0  0  0  0  0  0  0  0  0
    1.0392   -1.6676   -0.8908 H   0  0  0  0  0  0  0  0  0  0  0  0
   -0.4324    2.3285   -0.2999 H   0  0  0  0  0  0  0  0  0  0  0  0
   -2.7958    1.5227   -0.6181 H   0  0  0  0  0  0  0  0  0  0  0  0
   -3.5678   -0.9743   -1.1153 N   0  0  0  0  0  0  0  0  0  0  0  0
   -4.4542   -0.1283   -1.0331 O   0  0  0  0  0  0  0  0  0  0  0  0
   -3.7376   -2.1687   -1.3368 O   0  0  0  0  0  0  0  0  0  0  0  0
    1.7272    0.8640   -0.3992 N   0  0  0  0  0  0  0  0  0  0  0  0
    2.1909    1.8864   -0.2021 N   0  0  0  0  0  0  0  0  0  0  0  0
    3.2378   -1.4436   -0.6280 Cl  0  0  0  0  0  0  0  0  0  0  0  0
  1  6  2  0  0  0  0
  1  2  1  0  0  0  0
  2  3  2  0  0  0  0
  3  4  1  0  0  0  0
  3 14  1  0  0  0  0
  4  9  1  0  0  0  0
  5 10  1  0  0  0  0
  5  4  2  0  0  0  0
  6  5  1  0  0  0  0
  7  1  1  0  0  0  0
  8  2  1  0  0  0  0
 11 12  2  0  0  0  0
 11  6  1  0  0  0  0
 13 11  2  0  0  0  0
 14 15  2  0  0  0  0
M  RAD  2  15   2  16   2
M  END
