Coordinates from ORCA-job p-NO2-Ph-N2-Cl-B3LYPG-6-31G_dp-scan-d09-49-n400
 OpenBabel08281821083D

 16 15  0  0  0  0  0  0  0  0999 V2000
   -1.4342   -1.5387   -1.0334 C   0  0  0  0  0  0  0  0  0  0  0  0
   -0.0752   -1.2764   -0.8851 C   0  0  0  0  0  0  0  0  0  0  0  0
    0.3329    0.0364   -0.6412 C   0  0  0  0  0  0  0  0  0  0  0  0
   -0.5725    1.1025   -0.5394 C   0  0  0  0  0  0  0  0  0  0  0  0
   -1.9273    0.8359   -0.6882 C   0  0  0  0  0  0  0  0  0  0  0  0
   -2.3302   -0.4778   -0.9322 C   0  0  0  0  0  0  0  0  0  0  0  0
   -1.8055   -2.5373   -1.2247 H   0  0  0  0  0  0  0  0  0  0  0  0
    0.6659   -2.0644   -0.9549 H   0  0  0  0  0  0  0  0  0  0  0  0
   -0.2142    2.1079   -0.3484 H   0  0  0  0  0  0  0  0  0  0  0  0
   -2.6722    1.6187   -0.6199 H   0  0  0  0  0  0  0  0  0  0  0  0
   -3.7764   -0.7541   -1.0911 N   0  0  0  0  0  0  0  0  0  0  0  0
   -4.5429    0.2001   -0.9968 O   0  0  0  0  0  0  0  0  0  0  0  0
   -4.1051   -1.9167   -1.3061 O   0  0  0  0  0  0  0  0  0  0  0  0
    1.7323    0.2571   -0.4989 N   0  0  0  0  0  0  0  0  0  0  0  0
    2.3916    1.1856   -0.2953 N   0  0  0  0  0  0  0  0  0  0  0  0
    4.8141    0.4789   -0.2383 Cl  0  0  0  0  0  0  0  0  0  0  0  0
  1  6  2  0  0  0  0
  1  2  1  0  0  0  0
  2  3  2  0  0  0  0
  3  4  1  0  0  0  0
  3 14  1  0  0  0  0
  4  9  1  0  0  0  0
  5 10  1  0  0  0  0
  5  4  2  0  0  0  0
  6  5  1  0  0  0  0
  7  1  1  0  0  0  0
  8  2  1  0  0  0  0
 11 12  2  0  0  0  0
 11  6  1  0  0  0  0
 13 11  2  0  0  0  0
 14 15  2  0  0  0  0
M  RAD  2  15   2  16   2
M  END
