Coordinates from ORCA-job p-NO2-Ph-N2-Cl-B3LYPG-6-31G_dp-scan-d09-49-n400
 OpenBabel08281821083D

 16 16  0  0  0  0  0  0  0  0999 V2000
   -1.4497   -1.5604   -1.0385 C   0  0  0  0  0  0  0  0  0  0  0  0
   -0.0818   -1.3429   -0.8971 C   0  0  0  0  0  0  0  0  0  0  0  0
    0.3827   -0.0486   -0.6522 C   0  0  0  0  0  0  0  0  0  0  0  0
   -0.4910    1.0433   -0.5429 C   0  0  0  0  0  0  0  0  0  0  0  0
   -1.8553    0.8269   -0.6836 C   0  0  0  0  0  0  0  0  0  0  0  0
   -2.3088   -0.4705   -0.9291 C   0  0  0  0  0  0  0  0  0  0  0  0
   -1.8554   -2.5454   -1.2302 H   0  0  0  0  0  0  0  0  0  0  0  0
    0.6309   -2.1560   -0.9734 H   0  0  0  0  0  0  0  0  0  0  0  0
   -0.1003    2.0362   -0.3510 H   0  0  0  0  0  0  0  0  0  0  0  0
   -2.5709    1.6358   -0.6080 H   0  0  0  0  0  0  0  0  0  0  0  0
   -3.7623   -0.6950   -1.0797 N   0  0  0  0  0  0  0  0  0  0  0  0
   -4.4970    0.2843   -0.9799 O   0  0  0  0  0  0  0  0  0  0  0  0
   -4.1359   -1.8450   -1.2949 O   0  0  0  0  0  0  0  0  0  0  0  0
    1.8060    0.0833   -0.5215 N   0  0  0  0  0  0  0  0  0  0  0  0
    2.3224    1.1286   -0.3188 N   0  0  0  0  0  0  0  0  0  0  0  0
    4.4477    0.8833   -0.1931 Cl  0  0  0  0  0  0  0  0  0  0  0  0
  1  6  2  0  0  0  0
  1  2  1  0  0  0  0
  2  3  2  0  0  0  0
  3  4  1  0  0  0  0
  3 14  1  0  0  0  0
  4  9  1  0  0  0  0
  5 10  1  0  0  0  0
  5  4  2  0  0  0  0
  6  5  1  0  0  0  0
  7  1  1  0  0  0  0
  8  2  1  0  0  0  0
 11 12  2  0  0  0  0
 11  6  1  0  0  0  0
 13 11  2  0  0  0  0
 14 15  1  0  0  0  0
 15 16  1  0  0  0  0
M  RAD  2  14   2  15   2
M  END
