Coordinates from ORCA-job p-NO2-Ph-N2-Cl-B3LYPG-6-31G_dp-scan-d09-49-n400
 OpenBabel08281821083D

 16 15  0  0  0  0  0  0  0  0999 V2000
   -1.1441   -1.4421   -1.0170 C   0  0  0  0  0  0  0  0  0  0  0  0
    0.1720   -1.0133   -0.8426 C   0  0  0  0  0  0  0  0  0  0  0  0
    0.3879    0.3330   -0.5898 C   0  0  0  0  0  0  0  0  0  0  0  0
   -0.6458    1.2797   -0.5014 C   0  0  0  0  0  0  0  0  0  0  0  0
   -1.9506    0.8425   -0.6756 C   0  0  0  0  0  0  0  0  0  0  0  0
   -2.1740   -0.5117   -0.9306 C   0  0  0  0  0  0  0  0  0  0  0  0
   -1.3738   -2.4808   -1.2177 H   0  0  0  0  0  0  0  0  0  0  0  0
    1.0331   -1.6782   -0.8925 H   0  0  0  0  0  0  0  0  0  0  0  0
   -0.4242    2.3217   -0.3004 H   0  0  0  0  0  0  0  0  0  0  0  0
   -2.7900    1.5236   -0.6179 H   0  0  0  0  0  0  0  0  0  0  0  0
   -3.5700   -0.9711   -1.1151 N   0  0  0  0  0  0  0  0  0  0  0  0
   -4.4541   -0.1227   -1.0326 O   0  0  0  0  0  0  0  0  0  0  0  0
   -3.7434   -2.1650   -1.3368 O   0  0  0  0  0  0  0  0  0  0  0  0
    1.7320    0.8528   -0.4004 N   0  0  0  0  0  0  0  0  0  0  0  0
    2.1893    1.8783   -0.2027 N   0  0  0  0  0  0  0  0  0  0  0  0
    3.2367   -1.3889   -0.6208 Cl  0  0  0  0  0  0  0  0  0  0  0  0
  1  6  2  0  0  0  0
  1  2  1  0  0  0  0
  2  3  2  0  0  0  0
  3  4  1  0  0  0  0
  3 14  1  0  0  0  0
  4  9  1  0  0  0  0
  5 10  1  0  0  0  0
  5  4  2  0  0  0  0
  6  5  1  0  0  0  0
  7  1  1  0  0  0  0
  8  2  1  0  0  0  0
 11 12  2  0  0  0  0
 11  6  1  0  0  0  0
 13 11  2  0  0  0  0
 14 15  2  0  0  0  0
M  RAD  2  15   2  16   2
M  END
