Coordinates from ORCA-job p-NO2-Ph-N2-Cl-B3LYPG-6-31G_dp-scan-d09-49-n400
 OpenBabel08281821083D

 16 16  0  0  0  0  0  0  0  0999 V2000
   -1.4492   -1.5669   -1.0396 C   0  0  0  0  0  0  0  0  0  0  0  0
   -0.0787   -1.3664   -0.8997 C   0  0  0  0  0  0  0  0  0  0  0  0
    0.4128   -0.0805   -0.6536 C   0  0  0  0  0  0  0  0  0  0  0  0
   -0.4521    1.0201   -0.5423 C   0  0  0  0  0  0  0  0  0  0  0  0
   -1.8192    0.8239   -0.6808 C   0  0  0  0  0  0  0  0  0  0  0  0
   -2.2938   -0.4662   -0.9276 C   0  0  0  0  0  0  0  0  0  0  0  0
   -1.8679   -2.5464   -1.2319 H   0  0  0  0  0  0  0  0  0  0  0  0
    0.6226   -2.1894   -0.9780 H   0  0  0  0  0  0  0  0  0  0  0  0
   -0.0498    2.0078   -0.3495 H   0  0  0  0  0  0  0  0  0  0  0  0
   -2.5227    1.6430   -0.6026 H   0  0  0  0  0  0  0  0  0  0  0  0
   -3.7488   -0.6695   -1.0758 N   0  0  0  0  0  0  0  0  0  0  0  0
   -4.4713    0.3195   -0.9738 O   0  0  0  0  0  0  0  0  0  0  0  0
   -4.1413   -1.8139   -1.2910 O   0  0  0  0  0  0  0  0  0  0  0  0
    1.8393    0.0051   -0.5286 N   0  0  0  0  0  0  0  0  0  0  0  0
    2.2977    1.1069   -0.3296 N   0  0  0  0  0  0  0  0  0  0  0  0
    4.2036    1.0307   -0.1895 Cl  0  0  0  0  0  0  0  0  0  0  0  0
  1  6  2  0  0  0  0
  1  2  1  0  0  0  0
  2  3  2  0  0  0  0
  3  4  1  0  0  0  0
  3 14  1  0  0  0  0
  4  9  1  0  0  0  0
  5 10  1  0  0  0  0
  5  4  2  0  0  0  0
  6  5  1  0  0  0  0
  7  1  1  0  0  0  0
  8  2  1  0  0  0  0
 11 12  2  0  0  0  0
 11  6  1  0  0  0  0
 13 11  2  0  0  0  0
 14 15  1  0  0  0  0
 15 16  1  0  0  0  0
M  RAD  2  14   2  15   2
M  END
