Coordinates from ORCA-job p-NO2-Ph-N2-Cl-B3LYPG-6-31G_dp-scan-d09-49-n400
 OpenBabel08281821083D

 16 15  0  0  0  0  0  0  0  0999 V2000
   -1.0485   -1.3634   -0.9887 C   0  0  0  0  0  0  0  0  0  0  0  0
    0.2388   -0.8540   -0.8034 C   0  0  0  0  0  0  0  0  0  0  0  0
    0.3503    0.5099   -0.5621 C   0  0  0  0  0  0  0  0  0  0  0  0
   -0.7428    1.3992   -0.4940 C   0  0  0  0  0  0  0  0  0  0  0  0
   -2.0088    0.8731   -0.6803 C   0  0  0  0  0  0  0  0  0  0  0  0
   -2.1347   -0.4996   -0.9244 C   0  0  0  0  0  0  0  0  0  0  0  0
   -1.2027   -2.4182   -1.1811 H   0  0  0  0  0  0  0  0  0  0  0  0
    1.1505   -1.4921   -0.8407 H   0  0  0  0  0  0  0  0  0  0  0  0
   -0.5897    2.4554   -0.3002 H   0  0  0  0  0  0  0  0  0  0  0  0
   -2.8942    1.4947   -0.6408 H   0  0  0  0  0  0  0  0  0  0  0  0
   -3.5002   -1.0478   -1.1224 N   0  0  0  0  0  0  0  0  0  0  0  0
   -4.4339   -0.2529   -1.0551 O   0  0  0  0  0  0  0  0  0  0  0  0
   -3.5945   -2.2502   -1.3375 O   0  0  0  0  0  0  0  0  0  0  0  0
    1.6275    1.1027   -0.3641 N   0  0  0  0  0  0  0  0  0  0  0  0
    2.2763    2.0060   -0.1608 N   0  0  0  0  0  0  0  0  0  0  0  0
    2.9878   -2.4050   -0.8382 Cl  0  0  0  0  0  0  0  0  0  0  0  0
  1  6  2  0  0  0  0
  1  2  1  0  0  0  0
  2  3  2  0  0  0  0
  3  4  1  0  0  0  0
  3 14  1  0  0  0  0
  4  9  1  0  0  0  0
  5 10  1  0  0  0  0
  5  4  2  0  0  0  0
  6  5  1  0  0  0  0
  7  1  1  0  0  0  0
  8  2  1  0  0  0  0
 11 12  2  0  0  0  0
 11  6  1  0  0  0  0
 13 11  2  0  0  0  0
 14 15  2  0  0  0  0
M  RAD  2  15   2  16   2
M  END
