Coordinates from ORCA-job p-NO2-Ph-N2-Cl-B3LYPG-6-31G_dp-scan-d09-49-n400
 OpenBabel08281821083D

 16 16  0  0  0  0  0  0  0  0999 V2000
   -1.4470   -1.5703   -1.0390 C   0  0  0  0  0  0  0  0  0  0  0  0
   -0.0755   -1.3785   -0.9010 C   0  0  0  0  0  0  0  0  0  0  0  0
    0.4320   -0.0972   -0.6546 C   0  0  0  0  0  0  0  0  0  0  0  0
   -0.4294    1.0076   -0.5420 C   0  0  0  0  0  0  0  0  0  0  0  0
   -1.7978    0.8222   -0.6785 C   0  0  0  0  0  0  0  0  0  0  0  0
   -2.2843   -0.4639   -0.9251 C   0  0  0  0  0  0  0  0  0  0  0  0
   -1.8727   -2.5467   -1.2311 H   0  0  0  0  0  0  0  0  0  0  0  0
    0.6196   -2.2069   -0.9811 H   0  0  0  0  0  0  0  0  0  0  0  0
   -0.0196    1.9920   -0.3494 H   0  0  0  0  0  0  0  0  0  0  0  0
   -2.4948    1.6468   -0.5986 H   0  0  0  0  0  0  0  0  0  0  0  0
   -3.7395   -0.6558   -1.0711 N   0  0  0  0  0  0  0  0  0  0  0  0
   -4.4552    0.3391   -0.9732 O   0  0  0  0  0  0  0  0  0  0  0  0
   -4.1421   -1.7963   -1.2912 O   0  0  0  0  0  0  0  0  0  0  0  0
    1.8548   -0.0342   -0.5342 N   0  0  0  0  0  0  0  0  0  0  0  0
    2.2981    1.0974   -0.3303 N   0  0  0  0  0  0  0  0  0  0  0  0
    4.0348    1.1023   -0.1935 Cl  0  0  0  0  0  0  0  0  0  0  0  0
  1  6  2  0  0  0  0
  1  2  1  0  0  0  0
  2  3  2  0  0  0  0
  3  4  1  0  0  0  0
  3 14  1  0  0  0  0
  4  9  1  0  0  0  0
  5 10  1  0  0  0  0
  5  4  2  0  0  0  0
  6  5  1  0  0  0  0
  7  1  1  0  0  0  0
  8  2  1  0  0  0  0
 11 12  2  0  0  0  0
 11  6  1  0  0  0  0
 13 11  2  0  0  0  0
 14 15  1  0  0  0  0
 15 16  1  0  0  0  0
M  RAD  2  14   2  15   2
M  END
