Coordinates from ORCA-job p-NO2-Ph-N2-Cl-B3LYPG-6-31G_dp-scan-d09-49-n400
 OpenBabel08281821083D

 16 16  0  0  0  0  0  0  0  0999 V2000
   -1.4437   -1.5765   -1.0405 C   0  0  0  0  0  0  0  0  0  0  0  0
   -0.0707   -1.4038   -0.9054 C   0  0  0  0  0  0  0  0  0  0  0  0
    0.4664   -0.1308   -0.6581 C   0  0  0  0  0  0  0  0  0  0  0  0
   -0.3877    0.9828   -0.5441 C   0  0  0  0  0  0  0  0  0  0  0  0
   -1.7582    0.8184   -0.6776 C   0  0  0  0  0  0  0  0  0  0  0  0
   -2.2680   -0.4594   -0.9243 C   0  0  0  0  0  0  0  0  0  0  0  0
   -1.8828   -2.5471   -1.2326 H   0  0  0  0  0  0  0  0  0  0  0  0
    0.6104   -2.2437   -0.9885 H   0  0  0  0  0  0  0  0  0  0  0  0
    0.0383    1.9598   -0.3518 H   0  0  0  0  0  0  0  0  0  0  0  0
   -2.4420    1.6539   -0.5953 H   0  0  0  0  0  0  0  0  0  0  0  0
   -3.7220   -0.6292   -1.0667 N   0  0  0  0  0  0  0  0  0  0  0  0
   -4.4263    0.3748   -0.9622 O   0  0  0  0  0  0  0  0  0  0  0  0
   -4.1455   -1.7643   -1.2823 O   0  0  0  0  0  0  0  0  0  0  0  0
    1.8745   -0.0937   -0.5425 N   0  0  0  0  0  0  0  0  0  0  0  0
    2.3422    1.0729   -0.3273 N   0  0  0  0  0  0  0  0  0  0  0  0
    3.6962    1.2438   -0.1948 Cl  0  0  0  0  0  0  0  0  0  0  0  0
  1  6  2  0  0  0  0
  1  2  1  0  0  0  0
  2  3  2  0  0  0  0
  3  4  1  0  0  0  0
  3 14  1  0  0  0  0
  4  9  1  0  0  0  0
  5 10  1  0  0  0  0
  5  4  2  0  0  0  0
  6  5  1  0  0  0  0
  7  1  1  0  0  0  0
  8  2  1  0  0  0  0
 11 12  2  0  0  0  0
 11  6  1  0  0  0  0
 13 11  2  0  0  0  0
 14 15  1  0  0  0  0
 15 16  1  0  0  0  0
M  RAD  2  14   2  15   2
M  END
