Coordinates from ORCA-job p-NO2-Ph-N2-Cl-B3LYPG-6-31G_dp-scan-d09-49-n400
 OpenBabel08281821083D

 16 16  0  0  1  0  0  0  0  0999 V2000
   -0.9010   -1.4182   -0.6777 C   0  0  0  0  0  0  0  0  0  0  0  0
    0.4720   -0.8906   -0.7071 C   0  0  2  0  0  0  0  0  0  0  0  0
    0.4976    0.5682   -0.4807 C   0  0  1  0  0  0  0  0  0  0  0  0
   -0.6182    1.4039   -0.8705 C   0  0  0  0  0  0  0  0  0  0  0  0
   -1.8182    0.8241   -1.1234 C   0  0  0  0  0  0  0  0  0  0  0  0
   -1.9457   -0.5956   -0.9283 C   0  0  0  0  0  0  0  0  0  0  0  0
   -1.0585   -2.4804   -0.5411 H   0  0  0  0  0  0  0  0  0  0  0  0
    1.1897   -1.4485   -0.1137 H   0  0  0  0  0  0  0  0  0  0  0  0
   -0.4838    2.4792   -0.9217 H   0  0  0  0  0  0  0  0  0  0  0  0
   -2.6867    1.3976   -1.4163 H   0  0  0  0  0  0  0  0  0  0  0  0
   -3.2999   -1.1809   -0.9880 N   0  0  0  0  0  0  0  0  0  0  0  0
   -4.2237   -0.4193   -1.2702 O   0  0  0  0  0  0  0  0  0  0  0  0
   -3.4210   -2.3803   -0.7513 O   0  0  0  0  0  0  0  0  0  0  0  0
    1.4721    1.1514    0.2090 N   0  0  0  0  0  0  0  0  0  0  0  0
    2.2197    1.7349    0.8440 N   0  0  0  0  0  0  0  0  0  0  0  0
    1.0869   -1.4873   -2.5567 Cl  0  0  0  0  0  0  0  0  0  0  0  0
  1  7  1  0  0  0  0
  2  1  1  0  0  0  0
  2  3  1  0  0  0  0
  2  8  1  1  0  0  0
  3 14  1  1  0  0  0
  4  3  1  0  0  0  0
  5  6  1  0  0  0  0
  5  4  2  0  0  0  0
  6  1  2  0  0  0  0
  9  4  1  0  0  0  0
 10  5  1  0  0  0  0
 11  6  1  0  0  0  0
 11 13  2  0  0  0  0
 12 11  2  0  0  0  0
 14 15  1  0  0  0  0
 16  2  1  0  0  0  0
M  RAD  3   3   2  14   2  15   3
M  END
