Coordinates from ORCA-job p-NO2-Ph-N2-Cl-B3LYPG-6-31G_dp-scan-d09-49-n400
 OpenBabel08281821083D

 16 16  0  0  0  0  0  0  0  0999 V2000
   -1.4467   -1.5707   -1.0398 C   0  0  0  0  0  0  0  0  0  0  0  0
   -0.0750   -1.3806   -0.9016 C   0  0  0  0  0  0  0  0  0  0  0  0
    0.4351   -0.1001   -0.6549 C   0  0  0  0  0  0  0  0  0  0  0  0
   -0.4256    1.0056   -0.5425 C   0  0  0  0  0  0  0  0  0  0  0  0
   -1.7942    0.8221   -0.6791 C   0  0  0  0  0  0  0  0  0  0  0  0
   -2.2827   -0.4633   -0.9260 C   0  0  0  0  0  0  0  0  0  0  0  0
   -1.8736   -2.5467   -1.2320 H   0  0  0  0  0  0  0  0  0  0  0  0
    0.6189   -2.2099   -0.9817 H   0  0  0  0  0  0  0  0  0  0  0  0
   -0.0144    1.9893   -0.3498 H   0  0  0  0  0  0  0  0  0  0  0  0
   -2.4900    1.6476   -0.5993 H   0  0  0  0  0  0  0  0  0  0  0  0
   -3.7379   -0.6532   -1.0722 N   0  0  0  0  0  0  0  0  0  0  0  0
   -4.4528    0.3419   -0.9700 O   0  0  0  0  0  0  0  0  0  0  0  0
   -4.1427   -1.7938   -1.2880 O   0  0  0  0  0  0  0  0  0  0  0  0
    1.8568   -0.0402   -0.5348 N   0  0  0  0  0  0  0  0  0  0  0  0
    2.2998    1.0958   -0.3293 N   0  0  0  0  0  0  0  0  0  0  0  0
    4.0062    1.1143   -0.1927 Cl  0  0  0  0  0  0  0  0  0  0  0  0
  1  6  2  0  0  0  0
  1  2  1  0  0  0  0
  2  3  2  0  0  0  0
  3  4  1  0  0  0  0
  3 14  1  0  0  0  0
  4  9  1  0  0  0  0
  5 10  1  0  0  0  0
  5  4  2  0  0  0  0
  6  5  1  0  0  0  0
  7  1  1  0  0  0  0
  8  2  1  0  0  0  0
 11 12  2  0  0  0  0
 11  6  1  0  0  0  0
 13 11  2  0  0  0  0
 14 15  1  0  0  0  0
 15 16  1  0  0  0  0
M  RAD  2  14   2  15   2
M  END
