Coordinates from ORCA-job p-NO2-Ph-N2-Cl-B3LYPG-6-31G_dp-scan-d09-49-n400
 OpenBabel08281821083D

 16 15  0  0  0  0  0  0  0  0999 V2000
   -1.1187   -1.4174   -1.0098 C   0  0  0  0  0  0  0  0  0  0  0  0
    0.1888   -0.9628   -0.8321 C   0  0  0  0  0  0  0  0  0  0  0  0
    0.3704    0.3880   -0.5830 C   0  0  0  0  0  0  0  0  0  0  0  0
   -0.6795    1.3194   -0.4994 C   0  0  0  0  0  0  0  0  0  0  0  0
   -1.9731    0.8542   -0.6768 C   0  0  0  0  0  0  0  0  0  0  0  0
   -2.1661   -0.5065   -0.9289 C   0  0  0  0  0  0  0  0  0  0  0  0
   -1.3268   -2.4612   -1.2082 H   0  0  0  0  0  0  0  0  0  0  0  0
    1.0734   -1.6099   -0.8754 H   0  0  0  0  0  0  0  0  0  0  0  0
   -0.4777    2.3662   -0.3002 H   0  0  0  0  0  0  0  0  0  0  0  0
   -2.8274    1.5169   -0.6237 H   0  0  0  0  0  0  0  0  0  0  0  0
   -3.5539   -0.9934   -1.1165 N   0  0  0  0  0  0  0  0  0  0  0  0
   -4.4534   -0.1610   -1.0381 O   0  0  0  0  0  0  0  0  0  0  0  0
   -3.7030   -2.1902   -1.3374 O   0  0  0  0  0  0  0  0  0  0  0  0
    1.6984    0.9273   -0.3907 N   0  0  0  0  0  0  0  0  0  0  0  0
    2.2086    1.9231   -0.1900 N   0  0  0  0  0  0  0  0  0  0  0  0
    3.2213   -1.7347   -0.6835 Cl  0  0  0  0  0  0  0  0  0  0  0  0
  1  6  2  0  0  0  0
  1  2  1  0  0  0  0
  2  3  2  0  0  0  0
  3  4  1  0  0  0  0
  3 14  1  0  0  0  0
  4  9  1  0  0  0  0
  5 10  1  0  0  0  0
  5  4  2  0  0  0  0
  6  5  1  0  0  0  0
  7  1  1  0  0  0  0
  8  2  1  0  0  0  0
 11 12  2  0  0  0  0
 11  6  1  0  0  0  0
 13 11  2  0  0  0  0
 14 15  2  0  0  0  0
M  RAD  2  15   2  16   2
M  END
