Coordinates from ORCA-job p-NO2-Ph-N2-Cl-B3LYPG-6-31G_dp-scan-d09-49-n400
 OpenBabel08281821083D

 16 15  0  0  0  0  0  0  0  0999 V2000
   -1.0572   -1.3163   -0.9820 C   0  0  0  0  0  0  0  0  0  0  0  0
    0.2139   -0.7752   -0.7929 C   0  0  0  0  0  0  0  0  0  0  0  0
    0.2759    0.6030   -0.5527 C   0  0  0  0  0  0  0  0  0  0  0  0
   -0.8338    1.4587   -0.4909 C   0  0  0  0  0  0  0  0  0  0  0  0
   -2.0861    0.8958   -0.6819 C   0  0  0  0  0  0  0  0  0  0  0  0
   -2.1681   -0.4791   -0.9234 C   0  0  0  0  0  0  0  0  0  0  0  0
   -1.1881   -2.3745   -1.1737 H   0  0  0  0  0  0  0  0  0  0  0  0
    1.1425   -1.3757   -0.8233 H   0  0  0  0  0  0  0  0  0  0  0  0
   -0.7092    2.5184   -0.2986 H   0  0  0  0  0  0  0  0  0  0  0  0
   -2.9912    1.4879   -0.6489 H   0  0  0  0  0  0  0  0  0  0  0  0
   -3.5150   -1.0697   -1.1268 N   0  0  0  0  0  0  0  0  0  0  0  0
   -4.4740   -0.3053   -1.0657 O   0  0  0  0  0  0  0  0  0  0  0  0
   -3.5709   -2.2752   -1.3409 O   0  0  0  0  0  0  0  0  0  0  0  0
    1.5531    1.1517   -0.3621 N   0  0  0  0  0  0  0  0  0  0  0  0
    2.6802    1.1399   -0.2758 N   0  0  0  0  0  0  0  0  0  0  0  0
    3.2091   -2.0266   -0.7543 Cl  0  0  0  0  0  0  0  0  0  0  0  0
  1  6  2  0  0  0  0
  1  2  1  0  0  0  0
  2  3  2  0  0  0  0
  3  4  1  0  0  0  0
  3 14  1  0  0  0  0
  4  9  1  0  0  0  0
  5 10  1  0  0  0  0
  5  4  2  0  0  0  0
  6  5  1  0  0  0  0
  7  1  1  0  0  0  0
  8  2  1  0  0  0  0
 11 12  2  0  0  0  0
 11  6  1  0  0  0  0
 13 11  2  0  0  0  0
 14 15  1  0  0  0  0
M  RAD  3  14   2  15   3  16   2
M  END
