Coordinates from ORCA-job p-NO2-Ph-N2-Cl-B3LYPG-6-31G_dp-scan-d09-49-n400
 OpenBabel08281821083D

 16 15  0  0  0  0  0  0  0  0999 V2000
   -1.0771   -1.3835   -0.9969 C   0  0  0  0  0  0  0  0  0  0  0  0
    0.2182   -0.8947   -0.8145 C   0  0  0  0  0  0  0  0  0  0  0  0
    0.3555    0.4639   -0.5704 C   0  0  0  0  0  0  0  0  0  0  0  0
   -0.7203    1.3702   -0.4961 C   0  0  0  0  0  0  0  0  0  0  0  0
   -1.9973    0.8672   -0.6790 C   0  0  0  0  0  0  0  0  0  0  0  0
   -2.1487   -0.5012   -0.9262 C   0  0  0  0  0  0  0  0  0  0  0  0
   -1.2530   -2.4342   -1.1917 H   0  0  0  0  0  0  0  0  0  0  0  0
    1.1226   -1.5332   -0.8533 H   0  0  0  0  0  0  0  0  0  0  0  0
   -0.5478    2.4230   -0.3003 H   0  0  0  0  0  0  0  0  0  0  0  0
   -2.8712    1.5046   -0.6344 H   0  0  0  0  0  0  0  0  0  0  0  0
   -3.5232   -1.0262   -1.1202 N   0  0  0  0  0  0  0  0  0  0  0  0
   -4.4440   -0.2169   -1.0484 O   0  0  0  0  0  0  0  0  0  0  0  0
   -3.6384   -2.2268   -1.3370 O   0  0  0  0  0  0  0  0  0  0  0  0
    1.6541    1.0367   -0.3742 N   0  0  0  0  0  0  0  0  0  0  0  0
    2.2437    1.9824   -0.1702 N   0  0  0  0  0  0  0  0  0  0  0  0
    3.1080   -2.1734   -0.7807 Cl  0  0  0  0  0  0  0  0  0  0  0  0
  1  6  2  0  0  0  0
  1  2  1  0  0  0  0
  2  3  2  0  0  0  0
  3  4  1  0  0  0  0
  3 14  1  0  0  0  0
  4  9  1  0  0  0  0
  5 10  1  0  0  0  0
  5  4  2  0  0  0  0
  6  5  1  0  0  0  0
  7  1  1  0  0  0  0
  8  2  1  0  0  0  0
 11 12  2  0  0  0  0
 11  6  1  0  0  0  0
 13 11  2  0  0  0  0
 14 15  2  0  0  0  0
M  RAD  2  15   2  16   2
M  END
