Coordinates from ORCA-job p-NO2-Ph-N2-Cl-B3LYPG-6-31G_dp-scan-d09-49-n400
 OpenBabel08281821083D

 16 15  0  0  0  0  0  0  0  0999 V2000
   -1.0980   -1.3996   -1.0029 C   0  0  0  0  0  0  0  0  0  0  0  0
    0.2033   -0.9271   -0.8226 C   0  0  0  0  0  0  0  0  0  0  0  0
    0.3614    0.4278   -0.5764 C   0  0  0  0  0  0  0  0  0  0  0  0
   -0.7017    1.3465   -0.4977 C   0  0  0  0  0  0  0  0  0  0  0  0
   -1.9867    0.8614   -0.6779 C   0  0  0  0  0  0  0  0  0  0  0  0
   -2.1580   -0.5034   -0.9275 C   0  0  0  0  0  0  0  0  0  0  0  0
   -1.2897   -2.4471   -1.1994 H   0  0  0  0  0  0  0  0  0  0  0  0
    1.0996   -1.5683   -0.8630 H   0  0  0  0  0  0  0  0  0  0  0  0
   -0.5149    2.3965   -0.3004 H   0  0  0  0  0  0  0  0  0  0  0  0
   -2.8514    1.5110   -0.6293 H   0  0  0  0  0  0  0  0  0  0  0  0
   -3.5391   -1.0101   -1.1185 N   0  0  0  0  0  0  0  0  0  0  0  0
   -4.4497   -0.1897   -1.0437 O   0  0  0  0  0  0  0  0  0  0  0  0
   -3.6705   -2.2090   -1.3378 O   0  0  0  0  0  0  0  0  0  0  0  0
    1.6747    0.9844   -0.3822 N   0  0  0  0  0  0  0  0  0  0  0  0
    2.2256    1.9555   -0.1797 N   0  0  0  0  0  0  0  0  0  0  0  0
    3.1763   -1.9710   -0.7350 Cl  0  0  0  0  0  0  0  0  0  0  0  0
  1  6  2  0  0  0  0
  1  2  1  0  0  0  0
  2  3  2  0  0  0  0
  3  4  1  0  0  0  0
  3 14  1  0  0  0  0
  4  9  1  0  0  0  0
  5 10  1  0  0  0  0
  5  4  2  0  0  0  0
  6  5  1  0  0  0  0
  7  1  1  0  0  0  0
  8  2  1  0  0  0  0
 11 12  2  0  0  0  0
 11  6  1  0  0  0  0
 13 11  2  0  0  0  0
 14 15  2  0  0  0  0
M  RAD  2  15   2  16   2
M  END
