Coordinates from ORCA-job p-NO2-Ph-N2-Cl-B3LYPG-6-31G_dp-scan-d09-49-n400
 OpenBabel08281821083D

 16 15  0  0  0  0  0  0  0  0999 V2000
   -1.0606   -1.3177   -0.9827 C   0  0  0  0  0  0  0  0  0  0  0  0
    0.2110   -0.7780   -0.7938 C   0  0  0  0  0  0  0  0  0  0  0  0
    0.2759    0.5999   -0.5533 C   0  0  0  0  0  0  0  0  0  0  0  0
   -0.8326    1.4562   -0.4912 C   0  0  0  0  0  0  0  0  0  0  0  0
   -2.0862    0.8955   -0.6820 C   0  0  0  0  0  0  0  0  0  0  0  0
   -2.1705   -0.4789   -0.9236 C   0  0  0  0  0  0  0  0  0  0  0  0
   -1.1934   -2.3756   -1.1746 H   0  0  0  0  0  0  0  0  0  0  0  0
    1.1381   -1.3785   -0.8243 H   0  0  0  0  0  0  0  0  0  0  0  0
   -0.7062    2.5157   -0.2988 H   0  0  0  0  0  0  0  0  0  0  0  0
   -2.9903    1.4891   -0.6484 H   0  0  0  0  0  0  0  0  0  0  0  0
   -3.5181   -1.0678   -1.1267 N   0  0  0  0  0  0  0  0  0  0  0  0
   -4.4762   -0.3023   -1.0652 O   0  0  0  0  0  0  0  0  0  0  0  0
   -3.5756   -2.2732   -1.3409 O   0  0  0  0  0  0  0  0  0  0  0  0
    1.5543    1.1493   -0.3625 N   0  0  0  0  0  0  0  0  0  0  0  0
    2.6823    1.1190   -0.2793 N   0  0  0  0  0  0  0  0  0  0  0  0
    3.2293   -1.9947   -0.7468 Cl  0  0  0  0  0  0  0  0  0  0  0  0
  1  6  2  0  0  0  0
  1  2  1  0  0  0  0
  2  3  2  0  0  0  0
  3  4  1  0  0  0  0
  3 14  1  0  0  0  0
  4  9  1  0  0  0  0
  5 10  1  0  0  0  0
  5  4  2  0  0  0  0
  6  5  1  0  0  0  0
  7  1  1  0  0  0  0
  8  2  1  0  0  0  0
 11 12  2  0  0  0  0
 11  6  1  0  0  0  0
 13 11  2  0  0  0  0
 14 15  1  0  0  0  0
M  RAD  3  14   2  15   3  16   2
M  END
