Coordinates from ORCA-job p-NO2-Ph-N2-Cl-B3LYPG-6-31G_dp-scan-d09-49-n400
 OpenBabel08281821083D

 16 15  0  0  0  0  0  0  0  0999 V2000
   -1.0573   -1.3263   -0.9844 C   0  0  0  0  0  0  0  0  0  0  0  0
    0.2189   -0.7959   -0.7978 C   0  0  0  0  0  0  0  0  0  0  0  0
    0.2874    0.5875   -0.5556 C   0  0  0  0  0  0  0  0  0  0  0  0
   -0.8232    1.4517   -0.4911 C   0  0  0  0  0  0  0  0  0  0  0  0
   -2.0739    0.8931   -0.6810 C   0  0  0  0  0  0  0  0  0  0  0  0
   -2.1634   -0.4842   -0.9239 C   0  0  0  0  0  0  0  0  0  0  0  0
   -1.1939   -2.3838   -1.1762 H   0  0  0  0  0  0  0  0  0  0  0  0
    1.1513   -1.3997   -0.8282 H   0  0  0  0  0  0  0  0  0  0  0  0
   -0.6965    2.5110   -0.2980 H   0  0  0  0  0  0  0  0  0  0  0  0
   -2.9770    1.4882   -0.6463 H   0  0  0  0  0  0  0  0  0  0  0  0
   -3.5128   -1.0656   -1.1258 N   0  0  0  0  0  0  0  0  0  0  0  0
   -4.4669   -0.2945   -1.0619 O   0  0  0  0  0  0  0  0  0  0  0  0
   -3.5770   -2.2706   -1.3415 O   0  0  0  0  0  0  0  0  0  0  0  0
    1.5535    1.1151   -0.3699 N   0  0  0  0  0  0  0  0  0  0  0  0
    2.6558    1.2967   -0.2516 N   0  0  0  0  0  0  0  0  0  0  0  0
    3.1562   -2.0647   -0.7606 Cl  0  0  0  0  0  0  0  0  0  0  0  0
  1  6  2  0  0  0  0
  1  2  1  0  0  0  0
  2  3  2  0  0  0  0
  3  4  1  0  0  0  0
  3 14  1  0  0  0  0
  4  9  1  0  0  0  0
  5 10  1  0  0  0  0
  5  4  2  0  0  0  0
  6  5  1  0  0  0  0
  7  1  1  0  0  0  0
  8  2  1  0  0  0  0
 11 12  2  0  0  0  0
 11  6  1  0  0  0  0
 13 11  2  0  0  0  0
 14 15  1  0  0  0  0
M  RAD  3  14   2  15   3  16   2
M  END
