Coordinates from ORCA-job p-NO2-Ph-N2-Cl-B3LYPG-6-31G_dp-scan-d09-49-n400
 OpenBabel08281821083D

 16 16  0  0  1  0  0  0  0  0999 V2000
   -0.9139   -1.4207   -0.6782 C   0  0  0  0  0  0  0  0  0  0  0  0
    0.4608   -0.8898   -0.6793 C   0  0  2  0  0  0  0  0  0  0  0  0
    0.4790    0.5714   -0.4603 C   0  0  1  0  0  0  0  0  0  0  0  0
   -0.6378    1.4050   -0.8411 C   0  0  0  0  0  0  0  0  0  0  0  0
   -1.8356    0.8250   -1.1045 C   0  0  0  0  0  0  0  0  0  0  0  0
   -1.9571   -0.5985   -0.9325 C   0  0  0  0  0  0  0  0  0  0  0  0
   -1.0706   -2.4843   -0.5528 H   0  0  0  0  0  0  0  0  0  0  0  0
    1.1561   -1.4406   -0.0523 H   0  0  0  0  0  0  0  0  0  0  0  0
   -0.5062    2.4811   -0.8819 H   0  0  0  0  0  0  0  0  0  0  0  0
   -2.7058    1.3993   -1.3900 H   0  0  0  0  0  0  0  0  0  0  0  0
   -3.3090   -1.1891   -1.0156 N   0  0  0  0  0  0  0  0  0  0  0  0
   -4.2333   -0.4269   -1.2942 O   0  0  0  0  0  0  0  0  0  0  0  0
   -3.4269   -2.3932   -0.8030 O   0  0  0  0  0  0  0  0  0  0  0  0
    1.5007    1.1503    0.1528 N   0  0  0  0  0  0  0  0  0  0  0  0
    2.3212    1.7079    0.7147 N   0  0  0  0  0  0  0  0  0  0  0  0
    1.1595   -1.4389   -2.4758 Cl  0  0  0  0  0  0  0  0  0  0  0  0
  1  7  1  0  0  0  0
  2  1  1  0  0  0  0
  2  3  1  0  0  0  0
  2  8  1  1  0  0  0
  3 14  1  1  0  0  0
  4  3  1  0  0  0  0
  5  6  1  0  0  0  0
  5  4  2  0  0  0  0
  6  1  2  0  0  0  0
  9  4  1  0  0  0  0
 10  5  1  0  0  0  0
 11  6  1  0  0  0  0
 11 13  2  0  0  0  0
 12 11  2  0  0  0  0
 14 15  1  0  0  0  0
 16  2  1  0  0  0  0
M  RAD  3   3   2  14   2  15   3
M  END
