Coordinates from ORCA-job p-NO2-Ph-N2-Cl-B3LYPG-6-31G_dp-scan-d09-49-n400
 OpenBabel08281821083D

 16 15  0  0  0  0  0  0  0  0999 V2000
   -1.1204   -1.4189   -1.0104 C   0  0  0  0  0  0  0  0  0  0  0  0
    0.1878   -0.9659   -0.8329 C   0  0  0  0  0  0  0  0  0  0  0  0
    0.3715    0.3846   -0.5835 C   0  0  0  0  0  0  0  0  0  0  0  0
   -0.6775    1.3170   -0.4996 C   0  0  0  0  0  0  0  0  0  0  0  0
   -1.9717    0.8535   -0.6768 C   0  0  0  0  0  0  0  0  0  0  0  0
   -2.1667   -0.5068   -0.9292 C   0  0  0  0  0  0  0  0  0  0  0  0
   -1.3299   -2.4624   -1.2090 H   0  0  0  0  0  0  0  0  0  0  0  0
    1.0708   -1.6144   -0.8767 H   0  0  0  0  0  0  0  0  0  0  0  0
   -0.4744    2.3634   -0.3002 H   0  0  0  0  0  0  0  0  0  0  0  0
   -2.8251    1.5174   -0.6234 H   0  0  0  0  0  0  0  0  0  0  0  0
   -3.5550   -0.9919   -1.1166 N   0  0  0  0  0  0  0  0  0  0  0  0
   -4.4535   -0.1586   -1.0373 O   0  0  0  0  0  0  0  0  0  0  0  0
   -3.7057   -2.1886   -1.3370 O   0  0  0  0  0  0  0  0  0  0  0  0
    1.7006    0.9228   -0.3912 N   0  0  0  0  0  0  0  0  0  0  0  0
    2.2063    1.9213   -0.1907 N   0  0  0  0  0  0  0  0  0  0  0  0
    3.2243   -1.7147   -0.6792 Cl  0  0  0  0  0  0  0  0  0  0  0  0
  1  6  2  0  0  0  0
  1  2  1  0  0  0  0
  2  3  2  0  0  0  0
  3  4  1  0  0  0  0
  3 14  1  0  0  0  0
  4  9  1  0  0  0  0
  5 10  1  0  0  0  0
  5  4  2  0  0  0  0
  6  5  1  0  0  0  0
  7  1  1  0  0  0  0
  8  2  1  0  0  0  0
 11 12  2  0  0  0  0
 11  6  1  0  0  0  0
 13 11  2  0  0  0  0
 14 15  2  0  0  0  0
M  RAD  2  15   2  16   2
M  END
