Coordinates from ORCA-job p-NO2-Ph-N2-Cl-B3LYPG-6-31G_dp-scan-d09-49-n400
 OpenBabel08281821083D

 16 15  0  0  0  0  0  0  0  0999 V2000
   -1.4425   -1.5479   -1.0359 C   0  0  0  0  0  0  0  0  0  0  0  0
   -0.0797   -1.3033   -0.8905 C   0  0  0  0  0  0  0  0  0  0  0  0
    0.3494    0.0026   -0.6464 C   0  0  0  0  0  0  0  0  0  0  0  0
   -0.5429    1.0793   -0.5412 C   0  0  0  0  0  0  0  0  0  0  0  0
   -1.9017    0.8321   -0.6864 C   0  0  0  0  0  0  0  0  0  0  0  0
   -2.3241   -0.4755   -0.9311 C   0  0  0  0  0  0  0  0  0  0  0  0
   -1.8274   -2.5413   -1.2274 H   0  0  0  0  0  0  0  0  0  0  0  0
    0.6503   -2.1013   -0.9629 H   0  0  0  0  0  0  0  0  0  0  0  0
   -0.1712    2.0798   -0.3498 H   0  0  0  0  0  0  0  0  0  0  0  0
   -2.6353    1.6251   -0.6149 H   0  0  0  0  0  0  0  0  0  0  0  0
   -3.7736   -0.7317   -1.0864 N   0  0  0  0  0  0  0  0  0  0  0  0
   -4.5277    0.2323   -0.9894 O   0  0  0  0  0  0  0  0  0  0  0  0
   -4.1196   -1.8895   -1.3019 O   0  0  0  0  0  0  0  0  0  0  0  0
    1.7586    0.1931   -0.5079 N   0  0  0  0  0  0  0  0  0  0  0  0
    2.3674    1.1647   -0.3079 N   0  0  0  0  0  0  0  0  0  0  0  0
    4.7009    0.6394   -0.2137 Cl  0  0  0  0  0  0  0  0  0  0  0  0
  1  6  2  0  0  0  0
  1  2  1  0  0  0  0
  2  3  2  0  0  0  0
  3  4  1  0  0  0  0
  3 14  1  0  0  0  0
  4  9  1  0  0  0  0
  5 10  1  0  0  0  0
  5  4  2  0  0  0  0
  6  5  1  0  0  0  0
  7  1  1  0  0  0  0
  8  2  1  0  0  0  0
 11 12  2  0  0  0  0
 11  6  1  0  0  0  0
 13 11  2  0  0  0  0
 14 15  2  0  0  0  0
M  RAD  2  15   2  16   2
M  END
