Coordinates from ORCA-job p-NO2-Ph-N2-Cl-B3LYPG-6-31G_dp-scan-d09-49-n400
 OpenBabel08281821083D

 16 16  0  0  0  0  0  0  0  0999 V2000
   -1.4394   -1.5807   -1.0410 C   0  0  0  0  0  0  0  0  0  0  0  0
   -0.0667   -1.4272   -0.9107 C   0  0  0  0  0  0  0  0  0  0  0  0
    0.4995   -0.1606   -0.6627 C   0  0  0  0  0  0  0  0  0  0  0  0
   -0.3516    0.9603   -0.5475 C   0  0  0  0  0  0  0  0  0  0  0  0
   -1.7237    0.8136   -0.6771 C   0  0  0  0  0  0  0  0  0  0  0  0
   -2.2556   -0.4552   -0.9227 C   0  0  0  0  0  0  0  0  0  0  0  0
   -1.8894   -2.5467   -1.2322 H   0  0  0  0  0  0  0  0  0  0  0  0
    0.6000   -2.2783   -0.9971 H   0  0  0  0  0  0  0  0  0  0  0  0
    0.0757    1.9375   -0.3556 H   0  0  0  0  0  0  0  0  0  0  0  0
   -2.3946    1.6595   -0.5923 H   0  0  0  0  0  0  0  0  0  0  0  0
   -3.7058   -0.6053   -1.0598 N   0  0  0  0  0  0  0  0  0  0  0  0
   -4.4000    0.4076   -0.9533 O   0  0  0  0  0  0  0  0  0  0  0  0
   -4.1479   -1.7352   -1.2742 O   0  0  0  0  0  0  0  0  0  0  0  0
    1.8917   -0.1485   -0.5529 N   0  0  0  0  0  0  0  0  0  0  0  0
    2.3990    1.0470   -0.3221 N   0  0  0  0  0  0  0  0  0  0  0  0
    3.3900    1.3701   -0.1927 Cl  0  0  0  0  0  0  0  0  0  0  0  0
  1  6  2  0  0  0  0
  1  2  1  0  0  0  0
  2  3  2  0  0  0  0
  3 14  1  0  0  0  0
  3  4  1  0  0  0  0
  4  9  1  0  0  0  0
  5 10  1  0  0  0  0
  5  4  2  0  0  0  0
  6  5  1  0  0  0  0
  7  1  1  0  0  0  0
  8  2  1  0  0  0  0
 11 12  2  0  0  0  0
 11  6  1  0  0  0  0
 13 11  2  0  0  0  0
 14 15  1  0  0  0  0
 15 16  1  0  0  0  0
M  RAD  2  14   2  15   2
M  END
