Coordinates from ORCA-job p-NO2-Ph-N2-Cl-B3LYPG-6-31G_dp-scan-d09-49-n400
 OpenBabel08281821083D

 16 15  0  0  0  0  0  0  0  0999 V2000
   -1.4490   -1.5583   -1.0380 C   0  0  0  0  0  0  0  0  0  0  0  0
   -0.0819   -1.3361   -0.8960 C   0  0  0  0  0  0  0  0  0  0  0  0
    0.3759   -0.0397   -0.6512 C   0  0  0  0  0  0  0  0  0  0  0  0
   -0.5008    1.0497   -0.5426 C   0  0  0  0  0  0  0  0  0  0  0  0
   -1.8642    0.8277   -0.6841 C   0  0  0  0  0  0  0  0  0  0  0  0
   -2.3121   -0.4715   -0.9294 C   0  0  0  0  0  0  0  0  0  0  0  0
   -1.8510   -2.5449   -1.2297 H   0  0  0  0  0  0  0  0  0  0  0  0
    0.6339   -2.1466   -0.9716 H   0  0  0  0  0  0  0  0  0  0  0  0
   -0.1133    2.0439   -0.3509 H   0  0  0  0  0  0  0  0  0  0  0  0
   -2.5830    1.6338   -0.6094 H   0  0  0  0  0  0  0  0  0  0  0  0
   -3.7650   -0.7017   -1.0811 N   0  0  0  0  0  0  0  0  0  0  0  0
   -4.5031    0.2749   -0.9819 O   0  0  0  0  0  0  0  0  0  0  0  0
   -4.1336   -1.8531   -1.2962 O   0  0  0  0  0  0  0  0  0  0  0  0
    1.7971    0.1038   -0.5192 N   0  0  0  0  0  0  0  0  0  0  0  0
    2.3306    1.1350   -0.3158 N   0  0  0  0  0  0  0  0  0  0  0  0
    4.5008    0.8411   -0.1966 Cl  0  0  0  0  0  0  0  0  0  0  0  0
  1  6  2  0  0  0  0
  1  2  1  0  0  0  0
  2  3  2  0  0  0  0
  3  4  1  0  0  0  0
  3 14  1  0  0  0  0
  4  9  1  0  0  0  0
  5 10  1  0  0  0  0
  5  4  2  0  0  0  0
  6  5  1  0  0  0  0
  7  1  1  0  0  0  0
  8  2  1  0  0  0  0
 11 12  2  0  0  0  0
 11  6  1  0  0  0  0
 13 11  2  0  0  0  0
 14 15  2  0  0  0  0
M  RAD  2  15   2  16   2
M  END
