Coordinates from ORCA-job p-NO2-Ph-N2-Cl-B3LYPG-6-31G_dp-scan-d09-49-n400
 OpenBabel08281821083D

 16 16  0  0  1  0  0  0  0  0999 V2000
   -0.9169   -1.4211   -0.6779 C   0  0  0  0  0  0  0  0  0  0  0  0
    0.4573   -0.8887   -0.6699 C   0  0  2  0  0  0  0  0  0  0  0  0
    0.4736    0.5729   -0.4535 C   0  0  1  0  0  0  0  0  0  0  0  0
   -0.6432    1.4058   -0.8333 C   0  0  0  0  0  0  0  0  0  0  0  0
   -1.8403    0.8252   -1.0996 C   0  0  0  0  0  0  0  0  0  0  0  0
   -1.9599   -0.5991   -0.9335 C   0  0  0  0  0  0  0  0  0  0  0  0
   -1.0729   -2.4852   -0.5557 H   0  0  0  0  0  0  0  0  0  0  0  0
    1.1479   -1.4381   -0.0365 H   0  0  0  0  0  0  0  0  0  0  0  0
   -0.5125    2.4820   -0.8723 H   0  0  0  0  0  0  0  0  0  0  0  0
   -2.7108    1.3994   -1.3841 H   0  0  0  0  0  0  0  0  0  0  0  0
   -3.3110   -1.1913   -1.0234 N   0  0  0  0  0  0  0  0  0  0  0  0
   -4.2357   -0.4287   -1.2993 O   0  0  0  0  0  0  0  0  0  0  0  0
   -3.4277   -2.3966   -0.8174 O   0  0  0  0  0  0  0  0  0  0  0  0
    1.5078    1.1504    0.1381 N   0  0  0  0  0  0  0  0  0  0  0  0
    2.3477    1.6979    0.6803 N   0  0  0  0  0  0  0  0  0  0  0  0
    1.1780   -1.4270   -2.4559 Cl  0  0  0  0  0  0  0  0  0  0  0  0
  1  2  1  0  0  0  0
  1  7  1  0  0  0  0
  2  3  1  0  0  0  0
  2  8  1  1  0  0  0
  3 14  1  1  0  0  0
  4  3  1  0  0  0  0
  5  6  1  0  0  0  0
  5  4  2  0  0  0  0
  6  1  2  0  0  0  0
  9  4  1  0  0  0  0
 10  5  1  0  0  0  0
 11  6  1  0  0  0  0
 11 13  2  0  0  0  0
 12 11  2  0  0  0  0
 14 15  1  0  0  0  0
 16  2  1  0  0  0  0
M  RAD  3   3   2  14   2  15   3
M  END
