Coordinates from ORCA-job p-NO2-Ph-N2-Cl-B3LYPG-6-31G_dp-scan-d09-49-n400
 OpenBabel08281821083D

 16 15  0  0  0  0  0  0  0  0999 V2000
   -1.1348   -1.4326   -1.0148 C   0  0  0  0  0  0  0  0  0  0  0  0
    0.1782   -0.9941   -0.8396 C   0  0  0  0  0  0  0  0  0  0  0  0
    0.3812    0.3537   -0.5878 C   0  0  0  0  0  0  0  0  0  0  0  0
   -0.6586    1.2947   -0.5001 C   0  0  0  0  0  0  0  0  0  0  0  0
   -1.9592    0.8469   -0.6748 C   0  0  0  0  0  0  0  0  0  0  0  0
   -2.1713   -0.5097   -0.9293 C   0  0  0  0  0  0  0  0  0  0  0  0
   -1.3565   -2.4733   -1.2150 H   0  0  0  0  0  0  0  0  0  0  0  0
    1.0483   -1.6521   -0.8877 H   0  0  0  0  0  0  0  0  0  0  0  0
   -0.4443    2.3384   -0.2994 H   0  0  0  0  0  0  0  0  0  0  0  0
   -2.8043    1.5211   -0.6178 H   0  0  0  0  0  0  0  0  0  0  0  0
   -3.5644   -0.9794   -1.1142 N   0  0  0  0  0  0  0  0  0  0  0  0
   -4.4541   -0.1366   -1.0352 O   0  0  0  0  0  0  0  0  0  0  0  0
   -3.7286   -2.1739   -1.3390 O   0  0  0  0  0  0  0  0  0  0  0  0
    1.7202    0.8810   -0.3982 N   0  0  0  0  0  0  0  0  0  0  0  0
    2.1918    1.8989   -0.2015 N   0  0  0  0  0  0  0  0  0  0  0  0
    3.2376   -1.5251   -0.6393 Cl  0  0  0  0  0  0  0  0  0  0  0  0
  1  6  2  0  0  0  0
  1  2  1  0  0  0  0
  2  3  2  0  0  0  0
  3  4  1  0  0  0  0
  3 14  1  0  0  0  0
  4  9  1  0  0  0  0
  5 10  1  0  0  0  0
  5  4  2  0  0  0  0
  6  5  1  0  0  0  0
  7  1  1  0  0  0  0
  8  2  1  0  0  0  0
 11 12  2  0  0  0  0
 11  6  1  0  0  0  0
 13 11  2  0  0  0  0
 14 15  2  0  0  0  0
M  RAD  2  15   2  16   2
M  END
