Coordinates from ORCA-job p-NO2-Ph-N2-Cl-B3LYPG-6-31G_dp-scan-d09-49-n400
 OpenBabel08281821083D

 16 15  0  0  0  0  0  0  0  0999 V2000
   -1.4329   -1.5373   -1.0330 C   0  0  0  0  0  0  0  0  0  0  0  0
   -0.0744   -1.2723   -0.8842 C   0  0  0  0  0  0  0  0  0  0  0  0
    0.3305    0.0415   -0.6404 C   0  0  0  0  0  0  0  0  0  0  0  0
   -0.5769    1.1060   -0.5391 C   0  0  0  0  0  0  0  0  0  0  0  0
   -1.9311    0.8365   -0.6885 C   0  0  0  0  0  0  0  0  0  0  0  0
   -2.3310   -0.4781   -0.9324 C   0  0  0  0  0  0  0  0  0  0  0  0
   -1.8021   -2.5367   -1.2243 H   0  0  0  0  0  0  0  0  0  0  0  0
    0.6683   -2.0587   -0.9537 H   0  0  0  0  0  0  0  0  0  0  0  0
   -0.2206    2.1122   -0.3481 H   0  0  0  0  0  0  0  0  0  0  0  0
   -2.6776    1.6177   -0.6207 H   0  0  0  0  0  0  0  0  0  0  0  0
   -3.7767   -0.7574   -1.0918 N   0  0  0  0  0  0  0  0  0  0  0  0
   -4.5451    0.1953   -0.9979 O   0  0  0  0  0  0  0  0  0  0  0  0
   -4.1028   -1.9207   -1.3067 O   0  0  0  0  0  0  0  0  0  0  0  0
    1.7284    0.2665   -0.4974 N   0  0  0  0  0  0  0  0  0  0  0  0
    2.3949    1.1886   -0.2934 N   0  0  0  0  0  0  0  0  0  0  0  0
    4.8303    0.4548   -0.2422 Cl  0  0  0  0  0  0  0  0  0  0  0  0
  1  6  2  0  0  0  0
  1  2  1  0  0  0  0
  2  3  2  0  0  0  0
  3  4  1  0  0  0  0
  3 14  1  0  0  0  0
  4  9  1  0  0  0  0
  5 10  1  0  0  0  0
  5  4  2  0  0  0  0
  6  5  1  0  0  0  0
  7  1  1  0  0  0  0
  8  2  1  0  0  0  0
 11 12  2  0  0  0  0
 11  6  1  0  0  0  0
 13 11  2  0  0  0  0
 14 15  2  0  0  0  0
M  RAD  2  15   2  16   2
M  END
