Coordinates from ORCA-job p-NO2-Ph-N2-Cl-B3LYPG-6-31G_dp-scan-d09-49-n400
 OpenBabel08281821083D

 16 15  0  0  0  0  0  0  0  0999 V2000
   -1.4420   -1.5473   -1.0357 C   0  0  0  0  0  0  0  0  0  0  0  0
   -0.0795   -1.3014   -0.8901 C   0  0  0  0  0  0  0  0  0  0  0  0
    0.3481    0.0050   -0.6461 C   0  0  0  0  0  0  0  0  0  0  0  0
   -0.5451    1.0809   -0.5411 C   0  0  0  0  0  0  0  0  0  0  0  0
   -1.9036    0.8324   -0.6866 C   0  0  0  0  0  0  0  0  0  0  0  0
   -2.3246   -0.4757   -0.9312 C   0  0  0  0  0  0  0  0  0  0  0  0
   -1.8259   -2.5411   -1.2272 H   0  0  0  0  0  0  0  0  0  0  0  0
    0.6513   -2.0987   -0.9623 H   0  0  0  0  0  0  0  0  0  0  0  0
   -0.1744    2.0818   -0.3497 H   0  0  0  0  0  0  0  0  0  0  0  0
   -2.6380    1.6247   -0.6153 H   0  0  0  0  0  0  0  0  0  0  0  0
   -3.7739   -0.7333   -1.0868 N   0  0  0  0  0  0  0  0  0  0  0  0
   -4.5289    0.2300   -0.9899 O   0  0  0  0  0  0  0  0  0  0  0  0
   -4.1187   -1.8915   -1.3022 O   0  0  0  0  0  0  0  0  0  0  0  0
    1.7566    0.1978   -0.5073 N   0  0  0  0  0  0  0  0  0  0  0  0
    2.3694    1.1662   -0.3070 N   0  0  0  0  0  0  0  0  0  0  0  0
    4.7103    0.6281   -0.2153 Cl  0  0  0  0  0  0  0  0  0  0  0  0
  1  6  2  0  0  0  0
  1  2  1  0  0  0  0
  2  3  2  0  0  0  0
  3  4  1  0  0  0  0
  3 14  1  0  0  0  0
  4  9  1  0  0  0  0
  5 10  1  0  0  0  0
  5  4  2  0  0  0  0
  6  5  1  0  0  0  0
  7  1  1  0  0  0  0
  8  2  1  0  0  0  0
 11 12  2  0  0  0  0
 11  6  1  0  0  0  0
 13 11  2  0  0  0  0
 14 15  2  0  0  0  0
M  RAD  2  15   2  16   2
M  END
