Coordinates from ORCA-job p-NO2-Ph-N2-Cl-B3LYPG-6-31G_dp-scan-d09-49-n400
 OpenBabel08281821083D

 16 15  0  0  0  0  0  0  0  0999 V2000
   -1.0704   -1.3226   -0.9846 C   0  0  0  0  0  0  0  0  0  0  0  0
    0.2031   -0.7884   -0.7965 C   0  0  0  0  0  0  0  0  0  0  0  0
    0.2775    0.5888   -0.5551 C   0  0  0  0  0  0  0  0  0  0  0  0
   -0.8277    1.4479   -0.4920 C   0  0  0  0  0  0  0  0  0  0  0  0
   -2.0853    0.8941   -0.6819 C   0  0  0  0  0  0  0  0  0  0  0  0
   -2.1769   -0.4788   -0.9241 C   0  0  0  0  0  0  0  0  0  0  0  0
   -1.2090   -2.3795   -1.1770 H   0  0  0  0  0  0  0  0  0  0  0  0
    1.1248   -1.3905   -0.8281 H   0  0  0  0  0  0  0  0  0  0  0  0
   -0.6959    2.5067   -0.2992 H   0  0  0  0  0  0  0  0  0  0  0  0
   -2.9861    1.4927   -0.6470 H   0  0  0  0  0  0  0  0  0  0  0  0
   -3.5268   -1.0619   -1.1265 N   0  0  0  0  0  0  0  0  0  0  0  0
   -4.4819   -0.2929   -1.0638 O   0  0  0  0  0  0  0  0  0  0  0  0
   -3.5895   -2.2672   -1.3410 O   0  0  0  0  0  0  0  0  0  0  0  0
    1.5575    1.1407   -0.3641 N   0  0  0  0  0  0  0  0  0  0  0  0
    2.6869    1.0719   -0.2870 N   0  0  0  0  0  0  0  0  0  0  0  0
    3.2807   -1.9032   -0.7260 Cl  0  0  0  0  0  0  0  0  0  0  0  0
  1  6  2  0  0  0  0
  1  2  1  0  0  0  0
  2  3  2  0  0  0  0
  3  4  1  0  0  0  0
  3 14  1  0  0  0  0
  4  9  1  0  0  0  0
  5 10  1  0  0  0  0
  5  4  2  0  0  0  0
  6  5  1  0  0  0  0
  7  1  1  0  0  0  0
  8  2  1  0  0  0  0
 11 12  2  0  0  0  0
 11  6  1  0  0  0  0
 13 11  2  0  0  0  0
 14 15  2  0  0  0  0
M  RAD  2  15   2  16   2
M  END
