Coordinates from ORCA-job p-NO2-Ph-N2-Cl-B3LYPG-6-31G_dp-scan-d09-49-n400
 OpenBabel08281821083D

 16 15  0  0  0  0  0  0  0  0999 V2000
   -1.0649   -1.3197   -0.9835 C   0  0  0  0  0  0  0  0  0  0  0  0
    0.2075   -0.7822   -0.7949 C   0  0  0  0  0  0  0  0  0  0  0  0
    0.2764    0.5952   -0.5541 C   0  0  0  0  0  0  0  0  0  0  0  0
   -0.8306    1.4528   -0.4915 C   0  0  0  0  0  0  0  0  0  0  0  0
   -2.0860    0.8950   -0.6819 C   0  0  0  0  0  0  0  0  0  0  0  0
   -2.1734   -0.4788   -0.9238 C   0  0  0  0  0  0  0  0  0  0  0  0
   -1.2001   -2.3772   -1.1756 H   0  0  0  0  0  0  0  0  0  0  0  0
    1.1324   -1.3829   -0.8258 H   0  0  0  0  0  0  0  0  0  0  0  0
   -0.7019    2.5120   -0.2990 H   0  0  0  0  0  0  0  0  0  0  0  0
   -2.9887    1.4907   -0.6478 H   0  0  0  0  0  0  0  0  0  0  0  0
   -3.5220   -1.0653   -1.1265 N   0  0  0  0  0  0  0  0  0  0  0  0
   -4.4788   -0.2983   -1.0647 O   0  0  0  0  0  0  0  0  0  0  0  0
   -3.5816   -2.2707   -1.3410 O   0  0  0  0  0  0  0  0  0  0  0  0
    1.5558    1.1453   -0.3632 N   0  0  0  0  0  0  0  0  0  0  0  0
    2.6846    1.0961   -0.2830 N   0  0  0  0  0  0  0  0  0  0  0  0
    3.2525   -1.9540   -0.7375 Cl  0  0  0  0  0  0  0  0  0  0  0  0
  1  6  2  0  0  0  0
  1  2  1  0  0  0  0
  2  3  2  0  0  0  0
  3  4  1  0  0  0  0
  3 14  1  0  0  0  0
  4  9  1  0  0  0  0
  5 10  1  0  0  0  0
  5  4  2  0  0  0  0
  6  5  1  0  0  0  0
  7  1  1  0  0  0  0
  8  2  1  0  0  0  0
 11 12  2  0  0  0  0
 11  6  1  0  0  0  0
 13 11  2  0  0  0  0
 14 15  2  0  0  0  0
M  RAD  2  15   2  16   2
M  END
