Coordinates from ORCA-job p-NO2-Ph-N2-Cl-B3LYPG-6-31G_dp-scan-d09-49-n400
 OpenBabel08281821083D

 16 16  0  0  0  0  0  0  0  0999 V2000
   -1.4466   -1.5709   -1.0398 C   0  0  0  0  0  0  0  0  0  0  0  0
   -0.0748   -1.3813   -0.9017 C   0  0  0  0  0  0  0  0  0  0  0  0
    0.4361   -0.1010   -0.6550 C   0  0  0  0  0  0  0  0  0  0  0  0
   -0.4244    1.0049   -0.5425 C   0  0  0  0  0  0  0  0  0  0  0  0
   -1.7931    0.8220   -0.6791 C   0  0  0  0  0  0  0  0  0  0  0  0
   -2.2822   -0.4632   -0.9260 C   0  0  0  0  0  0  0  0  0  0  0  0
   -1.8739   -2.5467   -1.2321 H   0  0  0  0  0  0  0  0  0  0  0  0
    0.6187   -2.2109   -0.9819 H   0  0  0  0  0  0  0  0  0  0  0  0
   -0.0127    1.9883   -0.3499 H   0  0  0  0  0  0  0  0  0  0  0  0
   -2.4885    1.6479   -0.5992 H   0  0  0  0  0  0  0  0  0  0  0  0
   -3.7374   -0.6524   -1.0721 N   0  0  0  0  0  0  0  0  0  0  0  0
   -4.4520    0.3429   -0.9696 O   0  0  0  0  0  0  0  0  0  0  0  0
   -4.1428   -1.7929   -1.2877 O   0  0  0  0  0  0  0  0  0  0  0  0
    1.8575   -0.0421   -0.5351 N   0  0  0  0  0  0  0  0  0  0  0  0
    2.3004    1.0953   -0.3292 N   0  0  0  0  0  0  0  0  0  0  0  0
    3.9968    1.1182   -0.1928 Cl  0  0  0  0  0  0  0  0  0  0  0  0
  1  6  2  0  0  0  0
  1  2  1  0  0  0  0
  2  3  2  0  0  0  0
  3  4  1  0  0  0  0
  3 14  1  0  0  0  0
  4  9  1  0  0  0  0
  5 10  1  0  0  0  0
  5  4  2  0  0  0  0
  6  5  1  0  0  0  0
  7  1  1  0  0  0  0
  8  2  1  0  0  0  0
 11 12  2  0  0  0  0
 11  6  1  0  0  0  0
 13 11  2  0  0  0  0
 14 15  1  0  0  0  0
 15 16  1  0  0  0  0
M  RAD  2  14   2  15   2
M  END
