Coordinates from ORCA-job p-NO2-Ph-N2-Cl-B3LYPG-6-31G_dp-scan-d09-49-n400
 OpenBabel08281821083D

 16 15  0  0  0  0  0  0  0  0999 V2000
   -1.0497   -1.3154   -0.9810 C   0  0  0  0  0  0  0  0  0  0  0  0
    0.2213   -0.7728   -0.7918 C   0  0  0  0  0  0  0  0  0  0  0  0
    0.2781    0.6071   -0.5518 C   0  0  0  0  0  0  0  0  0  0  0  0
   -0.8344    1.4629   -0.4903 C   0  0  0  0  0  0  0  0  0  0  0  0
   -2.0834    0.8961   -0.6819 C   0  0  0  0  0  0  0  0  0  0  0  0
   -2.1619   -0.4805   -0.9231 C   0  0  0  0  0  0  0  0  0  0  0  0
   -1.1776   -2.3741   -1.1722 H   0  0  0  0  0  0  0  0  0  0  0  0
    1.1541   -1.3748   -0.8218 H   0  0  0  0  0  0  0  0  0  0  0  0
   -0.7133    2.5231   -0.2983 H   0  0  0  0  0  0  0  0  0  0  0  0
   -2.9904    1.4853   -0.6496 H   0  0  0  0  0  0  0  0  0  0  0  0
   -3.5077   -1.0731   -1.1269 N   0  0  0  0  0  0  0  0  0  0  0  0
   -4.4676   -0.3096   -1.0658 O   0  0  0  0  0  0  0  0  0  0  0  0
   -3.5618   -2.2786   -1.3409 O   0  0  0  0  0  0  0  0  0  0  0  0
    1.5508    1.1485   -0.3629 N   0  0  0  0  0  0  0  0  0  0  0  0
    2.6716    1.2134   -0.2637 N   0  0  0  0  0  0  0  0  0  0  0  0
    3.1531   -2.0996   -0.7719 Cl  0  0  0  0  0  0  0  0  0  0  0  0
  1  6  2  0  0  0  0
  1  2  1  0  0  0  0
  2  3  2  0  0  0  0
  3  4  1  0  0  0  0
  3 14  1  0  0  0  0
  4  9  1  0  0  0  0
  5 10  1  0  0  0  0
  5  4  2  0  0  0  0
  6  5  1  0  0  0  0
  7  1  1  0  0  0  0
  8  2  1  0  0  0  0
 11 12  2  0  0  0  0
 11  6  1  0  0  0  0
 13 11  2  0  0  0  0
 14 15  1  0  0  0  0
M  RAD  3  14   2  15   3  16   2
M  END
