Coordinates from ORCA-job p-NO2-Ph-N2-Cl-B3LYPG-6-31G_dp-scan-d09-49-n400
 OpenBabel08281821083D

 16 16  0  0  0  0  0  0  0  0999 V2000
   -1.4362   -1.5830   -1.0417 C   0  0  0  0  0  0  0  0  0  0  0  0
   -0.0639   -1.4417   -0.9143 C   0  0  0  0  0  0  0  0  0  0  0  0
    0.5169   -0.1784   -0.6660 C   0  0  0  0  0  0  0  0  0  0  0  0
   -0.3310    0.9472   -0.5502 C   0  0  0  0  0  0  0  0  0  0  0  0
   -1.7046    0.8112   -0.6774 C   0  0  0  0  0  0  0  0  0  0  0  0
   -2.2479   -0.4523   -0.9218 C   0  0  0  0  0  0  0  0  0  0  0  0
   -1.8931   -2.5461   -1.2320 H   0  0  0  0  0  0  0  0  0  0  0  0
    0.5949   -2.2988   -1.0023 H   0  0  0  0  0  0  0  0  0  0  0  0
    0.0935    1.9272   -0.3584 H   0  0  0  0  0  0  0  0  0  0  0  0
   -2.3679    1.6628   -0.5910 H   0  0  0  0  0  0  0  0  0  0  0  0
   -3.6964   -0.5916   -1.0553 N   0  0  0  0  0  0  0  0  0  0  0  0
   -4.3844    0.4263   -0.9471 O   0  0  0  0  0  0  0  0  0  0  0  0
   -4.1482   -1.7185   -1.2688 O   0  0  0  0  0  0  0  0  0  0  0  0
    1.9028   -0.1789   -0.5576 N   0  0  0  0  0  0  0  0  0  0  0  0
    2.4207    1.0348   -0.3204 N   0  0  0  0  0  0  0  0  0  0  0  0
    3.2260    1.4379   -0.1895 Cl  0  0  0  0  0  0  0  0  0  0  0  0
  1  6  2  0  0  0  0
  1  2  1  0  0  0  0
  2  3  2  0  0  0  0
  3 14  1  0  0  0  0
  3  4  1  0  0  0  0
  4  9  1  0  0  0  0
  5 10  1  0  0  0  0
  5  4  2  0  0  0  0
  6  5  1  0  0  0  0
  7  1  1  0  0  0  0
  8  2  1  0  0  0  0
 11 12  2  0  0  0  0
 11  6  1  0  0  0  0
 13 11  2  0  0  0  0
 14 15  1  0  0  0  0
 15 16  1  0  0  0  0
M  RAD  2  14   2  15   2
M  END
