Coordinates from ORCA-job p-NO2-Ph-N2-Cl-B3LYPG-6-31G_dp-scan-d09-49-n400
 OpenBabel08281821083D

 16 15  0  0  0  0  0  0  0  0999 V2000
   -1.0653   -1.3751   -0.9933 C   0  0  0  0  0  0  0  0  0  0  0  0
    0.2266   -0.8773   -0.8096 C   0  0  0  0  0  0  0  0  0  0  0  0
    0.3527    0.4835   -0.5669 C   0  0  0  0  0  0  0  0  0  0  0  0
   -0.7301    1.3827   -0.4952 C   0  0  0  0  0  0  0  0  0  0  0  0
   -2.0025    0.8698   -0.6796 C   0  0  0  0  0  0  0  0  0  0  0  0
   -2.1430   -0.5005   -0.9254 C   0  0  0  0  0  0  0  0  0  0  0  0
   -1.2322   -2.4276   -1.1870 H   0  0  0  0  0  0  0  0  0  0  0  0
    1.1352   -1.5142   -0.8476 H   0  0  0  0  0  0  0  0  0  0  0  0
   -0.5658    2.4371   -0.3003 H   0  0  0  0  0  0  0  0  0  0  0  0
   -2.8813    1.5005   -0.6372 H   0  0  0  0  0  0  0  0  0  0  0  0
   -3.5139   -1.0353   -1.1212 N   0  0  0  0  0  0  0  0  0  0  0  0
   -4.4401   -0.2320   -1.0515 O   0  0  0  0  0  0  0  0  0  0  0  0
   -3.6202   -2.2366   -1.3374 O   0  0  0  0  0  0  0  0  0  0  0  0
    1.6429    1.0643   -0.3700 N   0  0  0  0  0  0  0  0  0  0  0  0
    2.2576    1.9927   -0.1660 N   0  0  0  0  0  0  0  0  0  0  0  0
    3.0607   -2.2742   -0.8057 Cl  0  0  0  0  0  0  0  0  0  0  0  0
  1  6  2  0  0  0  0
  1  2  1  0  0  0  0
  2  3  2  0  0  0  0
  3  4  1  0  0  0  0
  3 14  1  0  0  0  0
  4  9  1  0  0  0  0
  5 10  1  0  0  0  0
  5  4  2  0  0  0  0
  6  5  1  0  0  0  0
  7  1  1  0  0  0  0
  8  2  1  0  0  0  0
 11 12  2  0  0  0  0
 11  6  1  0  0  0  0
 13 11  2  0  0  0  0
 14 15  2  0  0  0  0
M  RAD  2  15   2  16   2
M  END
