Coordinates from ORCA-job p-NO2-Ph-N2-Cl-B3LYPG-6-31G_dp-scan-d09-49-n400
 OpenBabel08281821083D

 16 16  0  0  0  0  0  0  0  0999 V2000
   -1.4477   -1.5693   -1.0397 C   0  0  0  0  0  0  0  0  0  0  0  0
   -0.0764   -1.3753   -0.9007 C   0  0  0  0  0  0  0  0  0  0  0  0
    0.4266   -0.0928   -0.6542 C   0  0  0  0  0  0  0  0  0  0  0  0
   -0.4355    1.0110   -0.5422 C   0  0  0  0  0  0  0  0  0  0  0  0
   -1.8036    0.8228   -0.6797 C   0  0  0  0  0  0  0  0  0  0  0  0
   -2.2869   -0.4644   -0.9266 C   0  0  0  0  0  0  0  0  0  0  0  0
   -1.8716   -2.5466   -1.2321 H   0  0  0  0  0  0  0  0  0  0  0  0
    0.6203   -2.2022   -0.9801 H   0  0  0  0  0  0  0  0  0  0  0  0
   -0.0279    1.9963   -0.3494 H   0  0  0  0  0  0  0  0  0  0  0  0
   -2.5023    1.6460   -0.6004 H   0  0  0  0  0  0  0  0  0  0  0  0
   -3.7421   -0.6593   -1.0737 N   0  0  0  0  0  0  0  0  0  0  0  0
   -4.4598    0.3336   -0.9716 O   0  0  0  0  0  0  0  0  0  0  0  0
   -4.1422   -1.8013   -1.2893 O   0  0  0  0  0  0  0  0  0  0  0  0
    1.8508   -0.0242   -0.5322 N   0  0  0  0  0  0  0  0  0  0  0  0
    2.2963    1.0998   -0.3303 N   0  0  0  0  0  0  0  0  0  0  0  0
    4.0831    1.0838   -0.1915 Cl  0  0  0  0  0  0  0  0  0  0  0  0
  1  6  2  0  0  0  0
  1  2  1  0  0  0  0
  2  3  2  0  0  0  0
  3  4  1  0  0  0  0
  3 14  1  0  0  0  0
  4  9  1  0  0  0  0
  5 10  1  0  0  0  0
  5  4  2  0  0  0  0
  6  5  1  0  0  0  0
  7  1  1  0  0  0  0
  8  2  1  0  0  0  0
 11 12  2  0  0  0  0
 11  6  1  0  0  0  0
 13 11  2  0  0  0  0
 14 15  1  0  0  0  0
 15 16  1  0  0  0  0
M  RAD  2  14   2  15   2
M  END
