Coordinates from ORCA-job p-NO2-Ph-N2-Cl-B3LYPG-6-31G_dp-scan-d09-49-n400
 OpenBabel08281821083D

 16 16  0  0  0  0  0  0  0  0999 V2000
   -1.4469   -1.5704   -1.0398 C   0  0  0  0  0  0  0  0  0  0  0  0
   -0.0753   -1.3793   -0.9014 C   0  0  0  0  0  0  0  0  0  0  0  0
    0.4331   -0.0983   -0.6548 C   0  0  0  0  0  0  0  0  0  0  0  0
   -0.4280    1.0069   -0.5424 C   0  0  0  0  0  0  0  0  0  0  0  0
   -1.7965    0.8222   -0.6793 C   0  0  0  0  0  0  0  0  0  0  0  0
   -2.2837   -0.4636   -0.9262 C   0  0  0  0  0  0  0  0  0  0  0  0
   -1.8731   -2.5466   -1.2321 H   0  0  0  0  0  0  0  0  0  0  0  0
    0.6193   -2.2080   -0.9814 H   0  0  0  0  0  0  0  0  0  0  0  0
   -0.0177    1.9910   -0.3497 H   0  0  0  0  0  0  0  0  0  0  0  0
   -2.4930    1.6472   -0.5996 H   0  0  0  0  0  0  0  0  0  0  0  0
   -3.7389   -0.6547   -1.0726 N   0  0  0  0  0  0  0  0  0  0  0  0
   -4.4545    0.3399   -0.9703 O   0  0  0  0  0  0  0  0  0  0  0  0
   -4.1426   -1.7957   -1.2882 O   0  0  0  0  0  0  0  0  0  0  0  0
    1.8554   -0.0364   -0.5342 N   0  0  0  0  0  0  0  0  0  0  0  0
    2.2986    1.0968   -0.3296 N   0  0  0  0  0  0  0  0  0  0  0  0
    4.0252    1.1068   -0.1923 Cl  0  0  0  0  0  0  0  0  0  0  0  0
  1  6  2  0  0  0  0
  1  2  1  0  0  0  0
  2  3  2  0  0  0  0
  3  4  1  0  0  0  0
  3 14  1  0  0  0  0
  4  9  1  0  0  0  0
  5 10  1  0  0  0  0
  5  4  2  0  0  0  0
  6  5  1  0  0  0  0
  7  1  1  0  0  0  0
  8  2  1  0  0  0  0
 11 12  2  0  0  0  0
 11  6  1  0  0  0  0
 13 11  2  0  0  0  0
 14 15  1  0  0  0  0
 15 16  1  0  0  0  0
M  RAD  2  14   2  15   2
M  END
