Coordinates from ORCA-job p-NO2-Ph-N2-Cl-B3LYPG-6-31G_dp-scan-d09-49-n400
 OpenBabel08281821083D

 16 15  0  0  0  0  0  0  0  0999 V2000
   -1.0559   -1.3158   -0.9818 C   0  0  0  0  0  0  0  0  0  0  0  0
    0.2151   -0.7740   -0.7926 C   0  0  0  0  0  0  0  0  0  0  0  0
    0.2758    0.6044   -0.5524 C   0  0  0  0  0  0  0  0  0  0  0  0
   -0.8343    1.4597   -0.4908 C   0  0  0  0  0  0  0  0  0  0  0  0
   -2.0860    0.8960   -0.6820 C   0  0  0  0  0  0  0  0  0  0  0  0
   -2.1672   -0.4792   -0.9233 C   0  0  0  0  0  0  0  0  0  0  0  0
   -1.1861   -2.3741   -1.1734 H   0  0  0  0  0  0  0  0  0  0  0  0
    1.1444   -1.3747   -0.8229 H   0  0  0  0  0  0  0  0  0  0  0  0
   -0.7104    2.5196   -0.2985 H   0  0  0  0  0  0  0  0  0  0  0  0
   -2.9916    1.4874   -0.6491 H   0  0  0  0  0  0  0  0  0  0  0  0
   -3.5138   -1.0704   -1.1269 N   0  0  0  0  0  0  0  0  0  0  0  0
   -4.4730   -0.3064   -1.0658 O   0  0  0  0  0  0  0  0  0  0  0  0
   -3.5691   -2.2760   -1.3408 O   0  0  0  0  0  0  0  0  0  0  0  0
    1.5527    1.1524   -0.3619 N   0  0  0  0  0  0  0  0  0  0  0  0
    2.6794    1.1483   -0.2744 N   0  0  0  0  0  0  0  0  0  0  0  0
    3.2012   -2.0393   -0.7573 Cl  0  0  0  0  0  0  0  0  0  0  0  0
  1  6  2  0  0  0  0
  1  2  1  0  0  0  0
  2  3  2  0  0  0  0
  3  4  1  0  0  0  0
  3 14  1  0  0  0  0
  4  9  1  0  0  0  0
  5 10  1  0  0  0  0
  5  4  2  0  0  0  0
  6  5  1  0  0  0  0
  7  1  1  0  0  0  0
  8  2  1  0  0  0  0
 11 12  2  0  0  0  0
 11  6  1  0  0  0  0
 13 11  2  0  0  0  0
 14 15  1  0  0  0  0
M  RAD  3  14   2  15   3  16   2
M  END
