Coordinates from ORCA-job p-NO2-Ph-N2-Cl-B3LYPG-6-31G_dp-scan-d09-49-n400
 OpenBabel08281821083D

 16 15  0  0  0  0  0  0  0  0999 V2000
   -1.0552   -1.3156   -0.9816 C   0  0  0  0  0  0  0  0  0  0  0  0
    0.2157   -0.7737   -0.7925 C   0  0  0  0  0  0  0  0  0  0  0  0
    0.2760    0.6047   -0.5523 C   0  0  0  0  0  0  0  0  0  0  0  0
   -0.8344    1.4600   -0.4907 C   0  0  0  0  0  0  0  0  0  0  0  0
   -2.0859    0.8960   -0.6819 C   0  0  0  0  0  0  0  0  0  0  0  0
   -2.1667   -0.4792   -0.9233 C   0  0  0  0  0  0  0  0  0  0  0  0
   -1.1851   -2.3739   -1.1732 H   0  0  0  0  0  0  0  0  0  0  0  0
    1.1450   -1.3745   -0.8227 H   0  0  0  0  0  0  0  0  0  0  0  0
   -0.7107    2.5199   -0.2985 H   0  0  0  0  0  0  0  0  0  0  0  0
   -2.9916    1.4872   -0.6491 H   0  0  0  0  0  0  0  0  0  0  0  0
   -3.5132   -1.0708   -1.1268 N   0  0  0  0  0  0  0  0  0  0  0  0
   -4.4726   -0.3069   -1.0659 O   0  0  0  0  0  0  0  0  0  0  0  0
   -3.5682   -2.2763   -1.3408 O   0  0  0  0  0  0  0  0  0  0  0  0
    1.5524    1.1529   -0.3619 N   0  0  0  0  0  0  0  0  0  0  0  0
    2.6788    1.1531   -0.2737 N   0  0  0  0  0  0  0  0  0  0  0  0
    3.1971   -2.0450   -0.7587 Cl  0  0  0  0  0  0  0  0  0  0  0  0
  1  6  2  0  0  0  0
  1  2  1  0  0  0  0
  2  3  2  0  0  0  0
  3  4  1  0  0  0  0
  3 14  1  0  0  0  0
  4  9  1  0  0  0  0
  5 10  1  0  0  0  0
  5  4  2  0  0  0  0
  6  5  1  0  0  0  0
  7  1  1  0  0  0  0
  8  2  1  0  0  0  0
 11 12  2  0  0  0  0
 11  6  1  0  0  0  0
 13 11  2  0  0  0  0
 14 15  1  0  0  0  0
M  RAD  3  14   2  15   3  16   2
M  END
