Coordinates from ORCA-job p-NO2-Ph-N2-Cl-B3LYPG-6-31G_dp-scan-d09-49-n400
 OpenBabel08281821083D

 16 15  0  0  0  0  0  0  0  0999 V2000
   -1.0994   -1.4009   -1.0034 C   0  0  0  0  0  0  0  0  0  0  0  0
    0.2021   -0.9291   -0.8232 C   0  0  0  0  0  0  0  0  0  0  0  0
    0.3616    0.4254   -0.5769 C   0  0  0  0  0  0  0  0  0  0  0  0
   -0.7005    1.3450   -0.4978 C   0  0  0  0  0  0  0  0  0  0  0  0
   -1.9860    0.8609   -0.6779 C   0  0  0  0  0  0  0  0  0  0  0  0
   -2.1586   -0.5038   -0.9276 C   0  0  0  0  0  0  0  0  0  0  0  0
   -1.2920   -2.4482   -1.2000 H   0  0  0  0  0  0  0  0  0  0  0  0
    1.0985   -1.5697   -0.8635 H   0  0  0  0  0  0  0  0  0  0  0  0
   -0.5129    2.3949   -0.3003 H   0  0  0  0  0  0  0  0  0  0  0  0
   -2.8501    1.5112   -0.6290 H   0  0  0  0  0  0  0  0  0  0  0  0
   -3.5402   -1.0092   -1.1185 N   0  0  0  0  0  0  0  0  0  0  0  0
   -4.4500   -0.1879   -1.0431 O   0  0  0  0  0  0  0  0  0  0  0  0
   -3.6727   -2.2079   -1.3377 O   0  0  0  0  0  0  0  0  0  0  0  0
    1.6762    0.9801   -0.3828 N   0  0  0  0  0  0  0  0  0  0  0  0
    2.2266    1.9516   -0.1804 N   0  0  0  0  0  0  0  0  0  0  0  0
    3.1787   -1.9544   -0.7315 Cl  0  0  0  0  0  0  0  0  0  0  0  0
  1  6  2  0  0  0  0
  1  2  1  0  0  0  0
  2  3  2  0  0  0  0
  3  4  1  0  0  0  0
  3 14  1  0  0  0  0
  4  9  1  0  0  0  0
  5 10  1  0  0  0  0
  5  4  2  0  0  0  0
  6  5  1  0  0  0  0
  7  1  1  0  0  0  0
  8  2  1  0  0  0  0
 11 12  2  0  0  0  0
 11  6  1  0  0  0  0
 13 11  2  0  0  0  0
 14 15  2  0  0  0  0
M  RAD  2  15   2  16   2
M  END
