Coordinates from ORCA-job p-NO2-Ph-N2-Cl-B3LYPG-6-31G_dp-scan-d09-49-n400
 OpenBabel08281821083D

 16 16  0  0  0  0  0  0  0  0999 V2000
   -1.4424   -1.5785   -1.0407 C   0  0  0  0  0  0  0  0  0  0  0  0
   -0.0693   -1.4132   -0.9077 C   0  0  0  0  0  0  0  0  0  0  0  0
    0.4790   -0.1429   -0.6603 C   0  0  0  0  0  0  0  0  0  0  0  0
   -0.3732    0.9737   -0.5457 C   0  0  0  0  0  0  0  0  0  0  0  0
   -1.7444    0.8166   -0.6774 C   0  0  0  0  0  0  0  0  0  0  0  0
   -2.2630   -0.4579   -0.9236 C   0  0  0  0  0  0  0  0  0  0  0  0
   -1.8861   -2.5472   -1.2323 H   0  0  0  0  0  0  0  0  0  0  0  0
    0.6062   -2.2575   -0.9922 H   0  0  0  0  0  0  0  0  0  0  0  0
    0.0556    1.9496   -0.3538 H   0  0  0  0  0  0  0  0  0  0  0  0
   -2.4231    1.6562   -0.5942 H   0  0  0  0  0  0  0  0  0  0  0  0
   -3.7158   -0.6197   -1.0638 N   0  0  0  0  0  0  0  0  0  0  0  0
   -4.4159    0.3879   -0.9587 O   0  0  0  0  0  0  0  0  0  0  0  0
   -4.1469   -1.7527   -1.2788 O   0  0  0  0  0  0  0  0  0  0  0  0
    1.8812   -0.1143   -0.5473 N   0  0  0  0  0  0  0  0  0  0  0  0
    2.3641    1.0612   -0.3244 N   0  0  0  0  0  0  0  0  0  0  0  0
    3.5753    1.2967   -0.1931 Cl  0  0  0  0  0  0  0  0  0  0  0  0
  1  6  2  0  0  0  0
  1  2  1  0  0  0  0
  2  3  2  0  0  0  0
  3 14  1  0  0  0  0
  3  4  1  0  0  0  0
  4  9  1  0  0  0  0
  5 10  1  0  0  0  0
  5  4  2  0  0  0  0
  6  5  1  0  0  0  0
  7  1  1  0  0  0  0
  8  2  1  0  0  0  0
 11 12  2  0  0  0  0
 11  6  1  0  0  0  0
 13 11  2  0  0  0  0
 14 15  1  0  0  0  0
 15 16  1  0  0  0  0
M  RAD  2  14   2  15   2
M  END
