Coordinates from ORCA-job p-NO2-Ph-N2-Cl-B3LYPG-6-31G_dp-scan-d09-49-n400
 OpenBabel08281821083D

 16 16  0  0  1  0  0  0  0  0999 V2000
   -0.9059   -1.4193   -0.6776 C   0  0  0  0  0  0  0  0  0  0  0  0
    0.4681   -0.8906   -0.6983 C   0  0  2  0  0  0  0  0  0  0  0  0
    0.4909    0.5691   -0.4738 C   0  0  1  0  0  0  0  0  0  0  0  0
   -0.6251    1.4041   -0.8605 C   0  0  0  0  0  0  0  0  0  0  0  0
   -1.8244    0.8243   -1.1171 C   0  0  0  0  0  0  0  0  0  0  0  0
   -1.9499   -0.5969   -0.9297 C   0  0  0  0  0  0  0  0  0  0  0  0
   -1.0632   -2.4819   -0.5441 H   0  0  0  0  0  0  0  0  0  0  0  0
    1.1776   -1.4457   -0.0920 H   0  0  0  0  0  0  0  0  0  0  0  0
   -0.4917    2.4797   -0.9079 H   0  0  0  0  0  0  0  0  0  0  0  0
   -2.6934    1.3981   -1.4074 H   0  0  0  0  0  0  0  0  0  0  0  0
   -3.3035   -1.1839   -0.9969 N   0  0  0  0  0  0  0  0  0  0  0  0
   -4.2272   -0.4223   -1.2794 O   0  0  0  0  0  0  0  0  0  0  0  0
   -3.4234   -2.3851   -0.7695 O   0  0  0  0  0  0  0  0  0  0  0  0
    1.4827    1.1504    0.1889 N   0  0  0  0  0  0  0  0  0  0  0  0
    2.2569    1.7251    0.7987 N   0  0  0  0  0  0  0  0  0  0  0  0
    1.1129   -1.4671   -2.5271 Cl  0  0  0  0  0  0  0  0  0  0  0  0
  1  7  1  0  0  0  0
  2  1  1  0  0  0  0
  2  3  1  0  0  0  0
  2  8  1  1  0  0  0
  3 14  1  1  0  0  0
  4  3  1  0  0  0  0
  5  6  1  0  0  0  0
  5  4  2  0  0  0  0
  6  1  2  0  0  0  0
  9  4  1  0  0  0  0
 10  5  1  0  0  0  0
 11  6  1  0  0  0  0
 11 13  2  0  0  0  0
 12 11  2  0  0  0  0
 14 15  1  0  0  0  0
 16  2  1  0  0  0  0
M  RAD  3   3   2  14   2  15   3
M  END
