Coordinates from ORCA-job p-NO2-Ph-N2-Cl-B3LYPG-6-31G_dp-scan-d09-49-n400
 OpenBabel08281821083D

 16 15  0  0  0  0  0  0  0  0999 V2000
   -1.4398   -1.5446   -1.0349 C   0  0  0  0  0  0  0  0  0  0  0  0
   -0.0783   -1.2935   -0.8885 C   0  0  0  0  0  0  0  0  0  0  0  0
    0.3429    0.0151   -0.6445 C   0  0  0  0  0  0  0  0  0  0  0  0
   -0.5541    1.0879   -0.5405 C   0  0  0  0  0  0  0  0  0  0  0  0
   -1.9115    0.8335   -0.6871 C   0  0  0  0  0  0  0  0  0  0  0  0
   -2.3267   -0.4764   -0.9315 C   0  0  0  0  0  0  0  0  0  0  0  0
   -1.8196   -2.5400   -1.2263 H   0  0  0  0  0  0  0  0  0  0  0  0
    0.6558   -2.0878   -0.9600 H   0  0  0  0  0  0  0  0  0  0  0  0
   -0.1874    2.0902   -0.3493 H   0  0  0  0  0  0  0  0  0  0  0  0
   -2.6493    1.6227   -0.6168 H   0  0  0  0  0  0  0  0  0  0  0  0
   -3.7750   -0.7400   -1.0882 N   0  0  0  0  0  0  0  0  0  0  0  0
   -4.5336    0.2204   -0.9923 O   0  0  0  0  0  0  0  0  0  0  0  0
   -4.1146   -1.8997   -1.3035 O   0  0  0  0  0  0  0  0  0  0  0  0
    1.7485    0.2173   -0.5047 N   0  0  0  0  0  0  0  0  0  0  0  0
    2.3770    1.1724   -0.3030 N   0  0  0  0  0  0  0  0  0  0  0  0
    4.7467    0.5804   -0.2226 Cl  0  0  0  0  0  0  0  0  0  0  0  0
  1  6  2  0  0  0  0
  1  2  1  0  0  0  0
  2  3  2  0  0  0  0
  3  4  1  0  0  0  0
  3 14  1  0  0  0  0
  4  9  1  0  0  0  0
  5 10  1  0  0  0  0
  5  4  2  0  0  0  0
  6  5  1  0  0  0  0
  7  1  1  0  0  0  0
  8  2  1  0  0  0  0
 11 12  2  0  0  0  0
 11  6  1  0  0  0  0
 13 11  2  0  0  0  0
 14 15  2  0  0  0  0
M  RAD  2  15   2  16   2
M  END
