Coordinates from ORCA-job p-NO2-Ph-N2-Cl-B3LYPG-6-31G_dp-scan-d09-49-n400
 OpenBabel08281821083D

 16 16  0  0  0  0  0  0  0  0999 V2000
   -1.4468   -1.5706   -1.0398 C   0  0  0  0  0  0  0  0  0  0  0  0
   -0.0751   -1.3800   -0.9015 C   0  0  0  0  0  0  0  0  0  0  0  0
    0.4340   -0.0993   -0.6549 C   0  0  0  0  0  0  0  0  0  0  0  0
   -0.4268    1.0062   -0.5425 C   0  0  0  0  0  0  0  0  0  0  0  0
   -1.7953    0.8222   -0.6792 C   0  0  0  0  0  0  0  0  0  0  0  0
   -2.2832   -0.4634   -0.9261 C   0  0  0  0  0  0  0  0  0  0  0  0
   -1.8734   -2.5467   -1.2321 H   0  0  0  0  0  0  0  0  0  0  0  0
    0.6191   -2.2091   -0.9816 H   0  0  0  0  0  0  0  0  0  0  0  0
   -0.0160    1.9901   -0.3498 H   0  0  0  0  0  0  0  0  0  0  0  0
   -2.4915    1.6475   -0.5995 H   0  0  0  0  0  0  0  0  0  0  0  0
   -3.7384   -0.6539   -1.0724 N   0  0  0  0  0  0  0  0  0  0  0  0
   -4.4537    0.3409   -0.9700 O   0  0  0  0  0  0  0  0  0  0  0  0
   -4.1426   -1.7947   -1.2880 O   0  0  0  0  0  0  0  0  0  0  0  0
    1.8561   -0.0383   -0.5345 N   0  0  0  0  0  0  0  0  0  0  0  0
    2.2991    1.0963   -0.3295 N   0  0  0  0  0  0  0  0  0  0  0  0
    4.0156    1.1107   -0.1925 Cl  0  0  0  0  0  0  0  0  0  0  0  0
  1  6  2  0  0  0  0
  1  2  1  0  0  0  0
  2  3  2  0  0  0  0
  3  4  1  0  0  0  0
  3 14  1  0  0  0  0
  4  9  1  0  0  0  0
  5 10  1  0  0  0  0
  5  4  2  0  0  0  0
  6  5  1  0  0  0  0
  7  1  1  0  0  0  0
  8  2  1  0  0  0  0
 11 12  2  0  0  0  0
 11  6  1  0  0  0  0
 13 11  2  0  0  0  0
 14 15  1  0  0  0  0
 15 16  1  0  0  0  0
M  RAD  2  14   2  15   2
M  END
