Coordinates from ORCA-job p-NO2-Ph-N2-Cl-B3LYPG-6-31G_dp-scan-d09-49-n400
 OpenBabel08281821083D

 16 16  0  0  0  0  0  0  0  0999 V2000
   -1.4392   -1.5808   -1.0411 C   0  0  0  0  0  0  0  0  0  0  0  0
   -0.0665   -1.4280   -0.9108 C   0  0  0  0  0  0  0  0  0  0  0  0
    0.5006   -0.1615   -0.6628 C   0  0  0  0  0  0  0  0  0  0  0  0
   -0.3504    0.9595   -0.5476 C   0  0  0  0  0  0  0  0  0  0  0  0
   -1.7225    0.8135   -0.6771 C   0  0  0  0  0  0  0  0  0  0  0  0
   -2.2552   -0.4551   -0.9226 C   0  0  0  0  0  0  0  0  0  0  0  0
   -1.8896   -2.5466   -1.2322 H   0  0  0  0  0  0  0  0  0  0  0  0
    0.5997   -2.2794   -0.9973 H   0  0  0  0  0  0  0  0  0  0  0  0
    0.0766    1.9369   -0.3557 H   0  0  0  0  0  0  0  0  0  0  0  0
   -2.3930    1.6596   -0.5922 H   0  0  0  0  0  0  0  0  0  0  0  0
   -3.7052   -0.6045   -1.0596 N   0  0  0  0  0  0  0  0  0  0  0  0
   -4.3991    0.4087   -0.9529 O   0  0  0  0  0  0  0  0  0  0  0  0
   -4.1479   -1.7342   -1.2740 O   0  0  0  0  0  0  0  0  0  0  0  0
    1.8922   -0.1505   -0.5531 N   0  0  0  0  0  0  0  0  0  0  0  0
    2.4009    1.0464   -0.3221 N   0  0  0  0  0  0  0  0  0  0  0  0
    3.3799    1.3739   -0.1927 Cl  0  0  0  0  0  0  0  0  0  0  0  0
  1  6  2  0  0  0  0
  1  2  1  0  0  0  0
  2  3  2  0  0  0  0
  3 14  1  0  0  0  0
  3  4  1  0  0  0  0
  4  9  1  0  0  0  0
  5 10  1  0  0  0  0
  5  4  2  0  0  0  0
  6  5  1  0  0  0  0
  7  1  1  0  0  0  0
  8  2  1  0  0  0  0
 11 12  2  0  0  0  0
 11  6  1  0  0  0  0
 13 11  2  0  0  0  0
 14 15  1  0  0  0  0
 15 16  1  0  0  0  0
M  RAD  2  14   2  15   2
M  END
