Coordinates from ORCA-job p-NO2-Ph-N2-Cl-B3LYPG-6-31G_dp-scan-d09-49-n400
 OpenBabel08281821083D

 16 16  0  0  0  0  0  0  0  0999 V2000
   -1.4401   -1.5803   -1.0414 C   0  0  0  0  0  0  0  0  0  0  0  0
   -0.0673   -1.4240   -0.9101 C   0  0  0  0  0  0  0  0  0  0  0  0
    0.4948   -0.1568   -0.6622 C   0  0  0  0  0  0  0  0  0  0  0  0
   -0.3563    0.9632   -0.5473 C   0  0  0  0  0  0  0  0  0  0  0  0
   -1.7281    0.8144   -0.6778 C   0  0  0  0  0  0  0  0  0  0  0  0
   -2.2572   -0.4558   -0.9236 C   0  0  0  0  0  0  0  0  0  0  0  0
   -1.8888   -2.5468   -1.2328 H   0  0  0  0  0  0  0  0  0  0  0  0
    0.6013   -2.2737   -0.9960 H   0  0  0  0  0  0  0  0  0  0  0  0
    0.0718    1.9398   -0.3554 H   0  0  0  0  0  0  0  0  0  0  0  0
   -2.4008    1.6589   -0.5936 H   0  0  0  0  0  0  0  0  0  0  0  0
   -3.7080   -0.6083   -1.0621 N   0  0  0  0  0  0  0  0  0  0  0  0
   -4.4037    0.4030   -0.9528 O   0  0  0  0  0  0  0  0  0  0  0  0
   -4.1480   -1.7393   -1.2732 O   0  0  0  0  0  0  0  0  0  0  0  0
    1.8892   -0.1407   -0.5517 N   0  0  0  0  0  0  0  0  0  0  0  0
    2.3917    1.0498   -0.3217 N   0  0  0  0  0  0  0  0  0  0  0  0
    3.4307    1.3544   -0.1921 Cl  0  0  0  0  0  0  0  0  0  0  0  0
  1  6  2  0  0  0  0
  1  2  1  0  0  0  0
  2  3  2  0  0  0  0
  3 14  1  0  0  0  0
  3  4  1  0  0  0  0
  4  9  1  0  0  0  0
  5 10  1  0  0  0  0
  5  4  2  0  0  0  0
  6  5  1  0  0  0  0
  7  1  1  0  0  0  0
  8  2  1  0  0  0  0
 11 12  2  0  0  0  0
 11  6  1  0  0  0  0
 13 11  2  0  0  0  0
 14 15  1  0  0  0  0
 15 16  1  0  0  0  0
M  RAD  2  14   2  15   2
M  END
