Coordinates from ORCA-job p-NO2-Ph-N2-Cl-B3LYPG-6-31G_dp-scan-d09-49-n400
 OpenBabel08281821083D

 16 15  0  0  0  0  0  0  0  0999 V2000
   -1.1378   -1.4356   -1.0159 C   0  0  0  0  0  0  0  0  0  0  0  0
    0.1762   -1.0001   -0.8407 C   0  0  0  0  0  0  0  0  0  0  0  0
    0.3830    0.3471   -0.5884 C   0  0  0  0  0  0  0  0  0  0  0  0
   -0.6547    1.2900   -0.5006 C   0  0  0  0  0  0  0  0  0  0  0  0
   -1.9566    0.8456   -0.6754 C   0  0  0  0  0  0  0  0  0  0  0  0
   -2.1723   -0.5103   -0.9302 C   0  0  0  0  0  0  0  0  0  0  0  0
   -1.3620   -2.4757   -1.2164 H   0  0  0  0  0  0  0  0  0  0  0  0
    1.0435   -1.6601   -0.8894 H   0  0  0  0  0  0  0  0  0  0  0  0
   -0.4381    2.3332   -0.2996 H   0  0  0  0  0  0  0  0  0  0  0  0
   -2.7999    1.5220   -0.6183 H   0  0  0  0  0  0  0  0  0  0  0  0
   -3.5663   -0.9767   -1.1153 N   0  0  0  0  0  0  0  0  0  0  0  0
   -4.4543   -0.1323   -1.0333 O   0  0  0  0  0  0  0  0  0  0  0  0
   -3.7335   -2.1713   -1.3371 O   0  0  0  0  0  0  0  0  0  0  0  0
    1.7238    0.8717   -0.3985 N   0  0  0  0  0  0  0  0  0  0  0  0
    2.1924    1.8913   -0.2018 N   0  0  0  0  0  0  0  0  0  0  0  0
    3.2377   -1.4808   -0.6329 Cl  0  0  0  0  0  0  0  0  0  0  0  0
  1  6  2  0  0  0  0
  1  2  1  0  0  0  0
  2  3  2  0  0  0  0
  3  4  1  0  0  0  0
  3 14  1  0  0  0  0
  4  9  1  0  0  0  0
  5 10  1  0  0  0  0
  5  4  2  0  0  0  0
  6  5  1  0  0  0  0
  7  1  1  0  0  0  0
  8  2  1  0  0  0  0
 11 12  2  0  0  0  0
 11  6  1  0  0  0  0
 13 11  2  0  0  0  0
 14 15  2  0  0  0  0
M  RAD  2  15   2  16   2
M  END
