Coordinates from ORCA-job p-NO2-Ph-N2-Cl-B3LYPG-6-31G_dp-scan-d09-49-n400
 OpenBabel08281821083D

 16 15  0  0  0  0  0  0  0  0999 V2000
   -1.3969   -1.5089   -1.0259 C   0  0  0  0  0  0  0  0  0  0  0  0
   -0.0500   -1.1965   -0.8692 C   0  0  0  0  0  0  0  0  0  0  0  0
    0.3025    0.1341   -0.6260 C   0  0  0  0  0  0  0  0  0  0  0  0
   -0.6424    1.1678   -0.5331 C   0  0  0  0  0  0  0  0  0  0  0  0
   -1.9844    0.8473   -0.6909 C   0  0  0  0  0  0  0  0  0  0  0  0
   -2.3329   -0.4819   -0.9337 C   0  0  0  0  0  0  0  0  0  0  0  0
   -1.7290   -2.5212   -1.2172 H   0  0  0  0  0  0  0  0  0  0  0  0
    0.7221   -1.9550   -0.9317 H   0  0  0  0  0  0  0  0  0  0  0  0
   -0.3237    2.1865   -0.3421 H   0  0  0  0  0  0  0  0  0  0  0  0
   -2.7600    1.6003   -0.6300 H   0  0  0  0  0  0  0  0  0  0  0  0
   -3.7676   -0.8141   -1.1013 N   0  0  0  0  0  0  0  0  0  0  0  0
   -4.5693    0.1108   -1.0133 O   0  0  0  0  0  0  0  0  0  0  0  0
   -4.0483   -1.9887   -1.3160 O   0  0  0  0  0  0  0  0  0  0  0  0
    1.6734    0.4216   -0.4743 N   0  0  0  0  0  0  0  0  0  0  0  0
    2.4534    1.2377   -0.2786 N   0  0  0  0  0  0  0  0  0  0  0  0
    4.9342    0.0180   -0.3107 Cl  0  0  0  0  0  0  0  0  0  0  0  0
  1  6  2  0  0  0  0
  1  2  1  0  0  0  0
  2  3  2  0  0  0  0
  3  4  1  0  0  0  0
  3 14  1  0  0  0  0
  4  9  1  0  0  0  0
  5 10  1  0  0  0  0
  5  4  2  0  0  0  0
  6  5  1  0  0  0  0
  7  1  1  0  0  0  0
  8  2  1  0  0  0  0
 11 12  2  0  0  0  0
 11  6  1  0  0  0  0
 13 11  2  0  0  0  0
 14 15  2  0  0  0  0
M  RAD  2  15   2  16   2
M  END
