Coordinates from ORCA-job p-NO2-Ph-N2-Cl-B3LYPG-6-31G_dp-scan-d09-49-n400
 OpenBabel08281821083D

 16 16  0  0  0  0  0  0  0  0999 V2000
   -1.4501   -1.5628   -1.0390 C   0  0  0  0  0  0  0  0  0  0  0  0
   -0.0812   -1.3513   -0.8983 C   0  0  0  0  0  0  0  0  0  0  0  0
    0.3922   -0.0598   -0.6531 C   0  0  0  0  0  0  0  0  0  0  0  0
   -0.4781    1.0353   -0.5431 C   0  0  0  0  0  0  0  0  0  0  0  0
   -1.8434    0.8258   -0.6828 C   0  0  0  0  0  0  0  0  0  0  0  0
   -2.3041   -0.4691   -0.9285 C   0  0  0  0  0  0  0  0  0  0  0  0
   -1.8603   -2.5459   -1.2308 H   0  0  0  0  0  0  0  0  0  0  0  0
    0.6276   -2.1678   -0.9754 H   0  0  0  0  0  0  0  0  0  0  0  0
   -0.0833    2.0265   -0.3510 H   0  0  0  0  0  0  0  0  0  0  0  0
   -2.5549    1.6382   -0.6062 H   0  0  0  0  0  0  0  0  0  0  0  0
   -3.7584   -0.6864   -1.0781 N   0  0  0  0  0  0  0  0  0  0  0  0
   -4.4887    0.2964   -0.9776 O   0  0  0  0  0  0  0  0  0  0  0  0
   -4.1384   -1.8344   -1.2933 O   0  0  0  0  0  0  0  0  0  0  0  0
    1.8177    0.0565   -0.5243 N   0  0  0  0  0  0  0  0  0  0  0  0
    2.3122    1.1206   -0.3226 N   0  0  0  0  0  0  0  0  0  0  0  0
    4.3726    0.9361   -0.1897 Cl  0  0  0  0  0  0  0  0  0  0  0  0
  1  6  2  0  0  0  0
  1  2  1  0  0  0  0
  2  3  2  0  0  0  0
  3  4  1  0  0  0  0
  3 14  1  0  0  0  0
  4  9  1  0  0  0  0
  5 10  1  0  0  0  0
  5  4  2  0  0  0  0
  6  5  1  0  0  0  0
  7  1  1  0  0  0  0
  8  2  1  0  0  0  0
 11 12  2  0  0  0  0
 11  6  1  0  0  0  0
 13 11  2  0  0  0  0
 14 15  1  0  0  0  0
 15 16  1  0  0  0  0
M  RAD  2  14   2  15   2
M  END
