Coordinates from ORCA-job p-NO2-Ph-N2-Cl-B3LYPG-6-31G_dp-scan-d09-49-n400
 OpenBabel08281821083D

 16 16  0  0  0  0  0  0  0  0999 V2000
   -1.4489   -1.5672   -1.0399 C   0  0  0  0  0  0  0  0  0  0  0  0
   -0.0782   -1.3678   -0.8999 C   0  0  0  0  0  0  0  0  0  0  0  0
    0.4147   -0.0823   -0.6537 C   0  0  0  0  0  0  0  0  0  0  0  0
   -0.4495    1.0188   -0.5423 C   0  0  0  0  0  0  0  0  0  0  0  0
   -1.8168    0.8238   -0.6809 C   0  0  0  0  0  0  0  0  0  0  0  0
   -2.2927   -0.4658   -0.9277 C   0  0  0  0  0  0  0  0  0  0  0  0
   -1.8683   -2.5464   -1.2322 H   0  0  0  0  0  0  0  0  0  0  0  0
    0.6224   -2.1913   -0.9783 H   0  0  0  0  0  0  0  0  0  0  0  0
   -0.0464    2.0062   -0.3494 H   0  0  0  0  0  0  0  0  0  0  0  0
   -2.5196    1.6435   -0.6025 H   0  0  0  0  0  0  0  0  0  0  0  0
   -3.7478   -0.6679   -1.0759 N   0  0  0  0  0  0  0  0  0  0  0  0
   -4.4696    0.3215   -0.9727 O   0  0  0  0  0  0  0  0  0  0  0  0
   -4.1414   -1.8121   -1.2900 O   0  0  0  0  0  0  0  0  0  0  0  0
    1.8411    0.0010   -0.5289 N   0  0  0  0  0  0  0  0  0  0  0  0
    2.2981    1.1056   -0.3298 N   0  0  0  0  0  0  0  0  0  0  0  0
    4.1842    1.0383   -0.1897 Cl  0  0  0  0  0  0  0  0  0  0  0  0
  1  6  2  0  0  0  0
  1  2  1  0  0  0  0
  2  3  2  0  0  0  0
  3  4  1  0  0  0  0
  3 14  1  0  0  0  0
  4  9  1  0  0  0  0
  5 10  1  0  0  0  0
  5  4  2  0  0  0  0
  6  5  1  0  0  0  0
  7  1  1  0  0  0  0
  8  2  1  0  0  0  0
 11 12  2  0  0  0  0
 11  6  1  0  0  0  0
 13 11  2  0  0  0  0
 14 15  1  0  0  0  0
 15 16  1  0  0  0  0
M  RAD  2  14   2  15   2
M  END
