Coordinates from ORCA-job p-NO2-Ph-N2-Cl-B3LYPG-6-31G_dp-scan-d09-49-n400
 OpenBabel08281821083D

 16 16  0  0  0  0  0  0  0  0999 V2000
   -1.4491   -1.5671   -1.0396 C   0  0  0  0  0  0  0  0  0  0  0  0
   -0.0785   -1.3673   -0.8998 C   0  0  0  0  0  0  0  0  0  0  0  0
    0.4139   -0.0817   -0.6537 C   0  0  0  0  0  0  0  0  0  0  0  0
   -0.4506    1.0192   -0.5422 C   0  0  0  0  0  0  0  0  0  0  0  0
   -1.8178    0.8238   -0.6807 C   0  0  0  0  0  0  0  0  0  0  0  0
   -2.2932   -0.4660   -0.9274 C   0  0  0  0  0  0  0  0  0  0  0  0
   -1.8683   -2.5464   -1.2319 H   0  0  0  0  0  0  0  0  0  0  0  0
    0.6224   -2.1907   -0.9782 H   0  0  0  0  0  0  0  0  0  0  0  0
   -0.0477    2.0067   -0.3494 H   0  0  0  0  0  0  0  0  0  0  0  0
   -2.5209    1.6433   -0.6023 H   0  0  0  0  0  0  0  0  0  0  0  0
   -3.7483   -0.6686   -1.0754 N   0  0  0  0  0  0  0  0  0  0  0  0
   -4.4702    0.3209   -0.9738 O   0  0  0  0  0  0  0  0  0  0  0  0
   -4.1414   -1.8126   -1.2911 O   0  0  0  0  0  0  0  0  0  0  0  0
    1.8403    0.0024   -0.5289 N   0  0  0  0  0  0  0  0  0  0  0  0
    2.2973    1.1063   -0.3299 N   0  0  0  0  0  0  0  0  0  0  0  0
    4.1933    1.0359   -0.1897 Cl  0  0  0  0  0  0  0  0  0  0  0  0
  1  6  2  0  0  0  0
  1  2  1  0  0  0  0
  2  3  2  0  0  0  0
  3  4  1  0  0  0  0
  3 14  1  0  0  0  0
  4  9  1  0  0  0  0
  5 10  1  0  0  0  0
  5  4  2  0  0  0  0
  6  5  1  0  0  0  0
  7  1  1  0  0  0  0
  8  2  1  0  0  0  0
 11 12  2  0  0  0  0
 11  6  1  0  0  0  0
 13 11  2  0  0  0  0
 14 15  1  0  0  0  0
 15 16  1  0  0  0  0
M  RAD  2  14   2  15   2
M  END
