Coordinates from ORCA-job p-NO2-Ph-N2-Cl-B3LYPG-6-31G_dp-scan-d09-49-n400
 OpenBabel08281821083D

 16 16  0  0  1  0  0  0  0  0999 V2000
   -0.9073   -1.4196   -0.6774 C   0  0  0  0  0  0  0  0  0  0  0  0
    0.4669   -0.8905   -0.6953 C   0  0  2  0  0  0  0  0  0  0  0  0
    0.4889    0.5694   -0.4716 C   0  0  1  0  0  0  0  0  0  0  0  0
   -0.6272    1.4042   -0.8574 C   0  0  0  0  0  0  0  0  0  0  0  0
   -1.8263    0.8244   -1.1150 C   0  0  0  0  0  0  0  0  0  0  0  0
   -1.9512   -0.5971   -0.9299 C   0  0  0  0  0  0  0  0  0  0  0  0
   -1.0646   -2.4823   -0.5450 H   0  0  0  0  0  0  0  0  0  0  0  0
    1.1742   -1.4448   -0.0856 H   0  0  0  0  0  0  0  0  0  0  0  0
   -0.4941    2.4799   -0.9037 H   0  0  0  0  0  0  0  0  0  0  0  0
   -2.6955    1.3983   -1.4045 H   0  0  0  0  0  0  0  0  0  0  0  0
   -3.3045   -1.1847   -0.9994 N   0  0  0  0  0  0  0  0  0  0  0  0
   -4.2281   -0.4233   -1.2827 O   0  0  0  0  0  0  0  0  0  0  0  0
   -3.4240   -2.3866   -0.7755 O   0  0  0  0  0  0  0  0  0  0  0  0
    1.4858    1.1502    0.1830 N   0  0  0  0  0  0  0  0  0  0  0  0
    2.2679    1.7222    0.7849 N   0  0  0  0  0  0  0  0  0  0  0  0
    1.1203   -1.4618   -2.5187 Cl  0  0  0  0  0  0  0  0  0  0  0  0
  1  7  1  0  0  0  0
  2  1  1  0  0  0  0
  2  3  1  0  0  0  0
  2  8  1  1  0  0  0
  3 14  1  1  0  0  0
  4  3  1  0  0  0  0
  5  6  1  0  0  0  0
  5  4  2  0  0  0  0
  6  1  2  0  0  0  0
  9  4  1  0  0  0  0
 10  5  1  0  0  0  0
 11  6  1  0  0  0  0
 11 13  2  0  0  0  0
 12 11  2  0  0  0  0
 14 15  1  0  0  0  0
 16  2  1  0  0  0  0
M  RAD  3   3   2  14   2  15   3
M  END
