Coordinates from ORCA-job p-NO2-Ph-N2-Cl-B3LYPG-6-31G_dp-scan-d09-49-n400
 OpenBabel08281821083D

 16 15  0  0  0  0  0  0  0  0999 V2000
   -1.4350   -1.5395   -1.0336 C   0  0  0  0  0  0  0  0  0  0  0  0
   -0.0756   -1.2787   -0.8855 C   0  0  0  0  0  0  0  0  0  0  0  0
    0.3342    0.0336   -0.6417 C   0  0  0  0  0  0  0  0  0  0  0  0
   -0.5702    1.1006   -0.5396 C   0  0  0  0  0  0  0  0  0  0  0  0
   -1.9253    0.8356   -0.6881 C   0  0  0  0  0  0  0  0  0  0  0  0
   -2.3298   -0.4776   -0.9321 C   0  0  0  0  0  0  0  0  0  0  0  0
   -1.8074   -2.5377   -1.2249 H   0  0  0  0  0  0  0  0  0  0  0  0
    0.6646   -2.0674   -0.9556 H   0  0  0  0  0  0  0  0  0  0  0  0
   -0.2107    2.1056   -0.3485 H   0  0  0  0  0  0  0  0  0  0  0  0
   -2.6693    1.6192   -0.6195 H   0  0  0  0  0  0  0  0  0  0  0  0
   -3.7763   -0.7522   -1.0907 N   0  0  0  0  0  0  0  0  0  0  0  0
   -4.5418    0.2027   -0.9962 O   0  0  0  0  0  0  0  0  0  0  0  0
   -4.1064   -1.9145   -1.3058 O   0  0  0  0  0  0  0  0  0  0  0  0
    1.7344    0.2520   -0.4996 N   0  0  0  0  0  0  0  0  0  0  0  0
    2.3898    1.1839   -0.2963 N   0  0  0  0  0  0  0  0  0  0  0  0
    4.8060    0.4922   -0.2362 Cl  0  0  0  0  0  0  0  0  0  0  0  0
  1  6  2  0  0  0  0
  1  2  1  0  0  0  0
  2  3  2  0  0  0  0
  3  4  1  0  0  0  0
  3 14  1  0  0  0  0
  4  9  1  0  0  0  0
  5 10  1  0  0  0  0
  5  4  2  0  0  0  0
  6  5  1  0  0  0  0
  7  1  1  0  0  0  0
  8  2  1  0  0  0  0
 11 12  2  0  0  0  0
 11  6  1  0  0  0  0
 13 11  2  0  0  0  0
 14 15  2  0  0  0  0
M  RAD  2  15   2  16   2
M  END
