Coordinates from ORCA-job p-NO2-Ph-N2-Cl-B3LYPG-6-31G_dp-scan-d09-49-n400
 OpenBabel08281821083D

 16 16  0  0  0  0  0  0  0  0999 V2000
   -1.4376   -1.5818   -1.0415 C   0  0  0  0  0  0  0  0  0  0  0  0
   -0.0652   -1.4347   -0.9124 C   0  0  0  0  0  0  0  0  0  0  0  0
    0.5092   -0.1698   -0.6641 C   0  0  0  0  0  0  0  0  0  0  0  0
   -0.3408    0.9534   -0.5487 C   0  0  0  0  0  0  0  0  0  0  0  0
   -1.7136    0.8123   -0.6773 C   0  0  0  0  0  0  0  0  0  0  0  0
   -2.2518   -0.4537   -0.9224 C   0  0  0  0  0  0  0  0  0  0  0  0
   -1.8910   -2.5463   -1.2324 H   0  0  0  0  0  0  0  0  0  0  0  0
    0.5972   -2.2890   -0.9995 H   0  0  0  0  0  0  0  0  0  0  0  0
    0.0846    1.9321   -0.3566 H   0  0  0  0  0  0  0  0  0  0  0  0
   -2.3805    1.6612   -0.5915 H   0  0  0  0  0  0  0  0  0  0  0  0
   -3.7008   -0.5981   -1.0576 N   0  0  0  0  0  0  0  0  0  0  0  0
   -4.3919    0.4174   -0.9498 O   0  0  0  0  0  0  0  0  0  0  0  0
   -4.1481   -1.7264   -1.2718 O   0  0  0  0  0  0  0  0  0  0  0  0
    1.8972   -0.1655   -0.5541 N   0  0  0  0  0  0  0  0  0  0  0  0
    2.4123    1.0413   -0.3221 N   0  0  0  0  0  0  0  0  0  0  0  0
    3.3021    1.4055   -0.1919 Cl  0  0  0  0  0  0  0  0  0  0  0  0
  1  6  2  0  0  0  0
  1  2  1  0  0  0  0
  2  3  2  0  0  0  0
  3 14  1  0  0  0  0
  3  4  1  0  0  0  0
  4  9  1  0  0  0  0
  5 10  1  0  0  0  0
  5  4  2  0  0  0  0
  6  5  1  0  0  0  0
  7  1  1  0  0  0  0
  8  2  1  0  0  0  0
 11 12  2  0  0  0  0
 11  6  1  0  0  0  0
 13 11  2  0  0  0  0
 14 15  1  0  0  0  0
 15 16  1  0  0  0  0
M  RAD  2  14   2  15   2
M  END
