Coordinates from ORCA-job p-NO2-Ph-N2-Cl-B3LYPG-6-31G_dp-scan-d09-49-n400
 OpenBabel08281821083D

 16 15  0  0  0  0  0  0  0  0999 V2000
   -1.4392   -1.5440   -1.0349 C   0  0  0  0  0  0  0  0  0  0  0  0
   -0.0780   -1.2916   -0.8882 C   0  0  0  0  0  0  0  0  0  0  0  0
    0.3418    0.0174   -0.6443 C   0  0  0  0  0  0  0  0  0  0  0  0
   -0.5562    1.0895   -0.5405 C   0  0  0  0  0  0  0  0  0  0  0  0
   -1.9133    0.8338   -0.6873 C   0  0  0  0  0  0  0  0  0  0  0  0
   -2.3271   -0.4766   -0.9317 C   0  0  0  0  0  0  0  0  0  0  0  0
   -1.8181   -2.5397   -1.2263 H   0  0  0  0  0  0  0  0  0  0  0  0
    0.6569   -2.0852   -0.9595 H   0  0  0  0  0  0  0  0  0  0  0  0
   -0.1903    2.0921   -0.3493 H   0  0  0  0  0  0  0  0  0  0  0  0
   -2.6518    1.6223   -0.6172 H   0  0  0  0  0  0  0  0  0  0  0  0
   -3.7752   -0.7416   -1.0885 N   0  0  0  0  0  0  0  0  0  0  0  0
   -4.5347    0.2181   -0.9925 O   0  0  0  0  0  0  0  0  0  0  0  0
   -4.1136   -1.9016   -1.3035 O   0  0  0  0  0  0  0  0  0  0  0  0
    1.7468    0.2216   -0.5040 N   0  0  0  0  0  0  0  0  0  0  0  0
    2.3782    1.1742   -0.3020 N   0  0  0  0  0  0  0  0  0  0  0  0
    4.7551    0.5691   -0.2239 Cl  0  0  0  0  0  0  0  0  0  0  0  0
  1  6  2  0  0  0  0
  1  2  1  0  0  0  0
  2  3  2  0  0  0  0
  3  4  1  0  0  0  0
  3 14  1  0  0  0  0
  4  9  1  0  0  0  0
  5 10  1  0  0  0  0
  5  4  2  0  0  0  0
  6  5  1  0  0  0  0
  7  1  1  0  0  0  0
  8  2  1  0  0  0  0
 11 12  2  0  0  0  0
 11  6  1  0  0  0  0
 13 11  2  0  0  0  0
 14 15  2  0  0  0  0
M  RAD  2  15   2  16   2
M  END
