Coordinates from ORCA-job p-NO2-Ph-N2-Cl-B3LYPG-6-31G_dp-scan-d09-49-n400
 OpenBabel08281821083D

 16 16  0  0  0  0  0  0  0  0999 V2000
   -1.4448   -1.5742   -1.0400 C   0  0  0  0  0  0  0  0  0  0  0  0
   -0.0722   -1.3941   -0.9034 C   0  0  0  0  0  0  0  0  0  0  0  0
    0.4537   -0.1180   -0.6563 C   0  0  0  0  0  0  0  0  0  0  0  0
   -0.4030    0.9923   -0.5428 C   0  0  0  0  0  0  0  0  0  0  0  0
   -1.7728    0.8201   -0.6778 C   0  0  0  0  0  0  0  0  0  0  0  0
   -2.2736   -0.4610   -0.9248 C   0  0  0  0  0  0  0  0  0  0  0  0
   -1.8789   -2.5470   -1.2324 H   0  0  0  0  0  0  0  0  0  0  0  0
    0.6145   -2.2294   -0.9852 H   0  0  0  0  0  0  0  0  0  0  0  0
    0.0175    1.9717   -0.3503 H   0  0  0  0  0  0  0  0  0  0  0  0
   -2.4617    1.6514   -0.5965 H   0  0  0  0  0  0  0  0  0  0  0  0
   -3.7283   -0.6390   -1.0694 N   0  0  0  0  0  0  0  0  0  0  0  0
   -4.4370    0.3613   -0.9660 O   0  0  0  0  0  0  0  0  0  0  0  0
   -4.1441   -1.7764   -1.2854 O   0  0  0  0  0  0  0  0  0  0  0  0
    1.8679   -0.0727   -0.5392 N   0  0  0  0  0  0  0  0  0  0  0  0
    2.3210    1.0843   -0.3288 N   0  0  0  0  0  0  0  0  0  0  0  0
    3.8230    1.1887   -0.1956 Cl  0  0  0  0  0  0  0  0  0  0  0  0
  1  6  2  0  0  0  0
  1  2  1  0  0  0  0
  2  3  2  0  0  0  0
  3  4  1  0  0  0  0
  3 14  1  0  0  0  0
  4  9  1  0  0  0  0
  5 10  1  0  0  0  0
  5  4  2  0  0  0  0
  6  5  1  0  0  0  0
  7  1  1  0  0  0  0
  8  2  1  0  0  0  0
 11 12  2  0  0  0  0
 11  6  1  0  0  0  0
 13 11  2  0  0  0  0
 14 15  1  0  0  0  0
 15 16  1  0  0  0  0
M  RAD  2  14   2  15   2
M  END
