Coordinates from ORCA-job p-NO2-Ph-N2-Cl-B3LYPG-6-31G_dp-scan-d09-49-n400
 OpenBabel08281821083D

 16 15  0  0  0  0  0  0  0  0999 V2000
   -1.0929   -1.3956   -1.0015 C   0  0  0  0  0  0  0  0  0  0  0  0
    0.2067   -0.9185   -0.8206 C   0  0  0  0  0  0  0  0  0  0  0  0
    0.3593    0.4372   -0.5750 C   0  0  0  0  0  0  0  0  0  0  0  0
   -0.7068    1.3529   -0.4974 C   0  0  0  0  0  0  0  0  0  0  0  0
   -1.9897    0.8629   -0.6783 C   0  0  0  0  0  0  0  0  0  0  0  0
   -2.1558   -0.5030   -0.9273 C   0  0  0  0  0  0  0  0  0  0  0  0
   -1.2804   -2.4440   -1.1976 H   0  0  0  0  0  0  0  0  0  0  0  0
    1.1062   -1.5578   -0.8601 H   0  0  0  0  0  0  0  0  0  0  0  0
   -0.5238    2.4037   -0.3004 H   0  0  0  0  0  0  0  0  0  0  0  0
   -2.8569    1.5093   -0.6308 H   0  0  0  0  0  0  0  0  0  0  0  0
   -3.5353   -1.0144   -1.1190 N   0  0  0  0  0  0  0  0  0  0  0  0
   -4.4485   -0.1967   -1.0447 O   0  0  0  0  0  0  0  0  0  0  0  0
   -3.6626   -2.2137   -1.3374 O   0  0  0  0  0  0  0  0  0  0  0  0
    1.6695    0.9969   -0.3802 N   0  0  0  0  0  0  0  0  0  0  0  0
    2.2325    1.9603   -0.1771 N   0  0  0  0  0  0  0  0  0  0  0  0
    3.1597   -2.0217   -0.7465 Cl  0  0  0  0  0  0  0  0  0  0  0  0
  1  6  2  0  0  0  0
  1  2  1  0  0  0  0
  2  3  2  0  0  0  0
  3  4  1  0  0  0  0
  3 14  1  0  0  0  0
  4  9  1  0  0  0  0
  5 10  1  0  0  0  0
  5  4  2  0  0  0  0
  6  5  1  0  0  0  0
  7  1  1  0  0  0  0
  8  2  1  0  0  0  0
 11 12  2  0  0  0  0
 11  6  1  0  0  0  0
 13 11  2  0  0  0  0
 14 15  2  0  0  0  0
M  RAD  2  15   2  16   2
M  END
