Coordinates from ORCA-job p-NO2-Ph-N2-Cl-B3LYPG-6-31G_dp-scan-d09-49-n400
 OpenBabel08281821083D

 16 15  0  0  0  0  0  0  0  0999 V2000
   -1.0592   -1.3708   -0.9915 C   0  0  0  0  0  0  0  0  0  0  0  0
    0.2310   -0.8688   -0.8073 C   0  0  0  0  0  0  0  0  0  0  0  0
    0.3518    0.4932   -0.5651 C   0  0  0  0  0  0  0  0  0  0  0  0
   -0.7348    1.3888   -0.4947 C   0  0  0  0  0  0  0  0  0  0  0  0
   -2.0048    0.8710   -0.6798 C   0  0  0  0  0  0  0  0  0  0  0  0
   -2.1400   -0.5001   -0.9250 C   0  0  0  0  0  0  0  0  0  0  0  0
   -1.2216   -2.4242   -1.1847 H   0  0  0  0  0  0  0  0  0  0  0  0
    1.1410   -1.5060   -0.8450 H   0  0  0  0  0  0  0  0  0  0  0  0
   -0.5745    2.4439   -0.3003 H   0  0  0  0  0  0  0  0  0  0  0  0
   -2.8861    1.4984   -0.6385 H   0  0  0  0  0  0  0  0  0  0  0  0
   -3.5090   -1.0398   -1.1215 N   0  0  0  0  0  0  0  0  0  0  0  0
   -4.4379   -0.2396   -1.0529 O   0  0  0  0  0  0  0  0  0  0  0  0
   -3.6109   -2.2415   -1.3376 O   0  0  0  0  0  0  0  0  0  0  0  0
    1.6373    1.0787   -0.3678 N   0  0  0  0  0  0  0  0  0  0  0  0
    2.2639    1.9985   -0.1640 N   0  0  0  0  0  0  0  0  0  0  0  0
    3.0351   -2.3236   -0.8179 Cl  0  0  0  0  0  0  0  0  0  0  0  0
  1  6  2  0  0  0  0
  1  2  1  0  0  0  0
  2  3  2  0  0  0  0
  3  4  1  0  0  0  0
  3 14  1  0  0  0  0
  4  9  1  0  0  0  0
  5 10  1  0  0  0  0
  5  4  2  0  0  0  0
  6  5  1  0  0  0  0
  7  1  1  0  0  0  0
  8  2  1  0  0  0  0
 11 12  2  0  0  0  0
 11  6  1  0  0  0  0
 13 11  2  0  0  0  0
 14 15  2  0  0  0  0
M  RAD  2  15   2  16   2
M  END
