Coordinates from ORCA-job p-NO2-Ph-N2-Cl-B3LYPG-6-31G_dp-scan-d09-49-n400
 OpenBabel08281821083D

 16 16  0  0  1  0  0  0  0  0999 V2000
   -0.9066   -1.4196   -0.6779 C   0  0  0  0  0  0  0  0  0  0  0  0
    0.4675   -0.8906   -0.6968 C   0  0  2  0  0  0  0  0  0  0  0  0
    0.4899    0.5692   -0.4726 C   0  0  1  0  0  0  0  0  0  0  0  0
   -0.6262    1.4041   -0.8589 C   0  0  0  0  0  0  0  0  0  0  0  0
   -1.8253    0.8242   -1.1163 C   0  0  0  0  0  0  0  0  0  0  0  0
   -1.9505   -0.5971   -0.9303 C   0  0  0  0  0  0  0  0  0  0  0  0
   -1.0639   -2.4822   -0.5451 H   0  0  0  0  0  0  0  0  0  0  0  0
    1.1758   -1.4454   -0.0886 H   0  0  0  0  0  0  0  0  0  0  0  0
   -0.4930    2.4798   -0.9057 H   0  0  0  0  0  0  0  0  0  0  0  0
   -2.6944    1.3981   -1.4063 H   0  0  0  0  0  0  0  0  0  0  0  0
   -3.3039   -1.1844   -0.9991 N   0  0  0  0  0  0  0  0  0  0  0  0
   -4.2278   -0.4225   -1.2799 O   0  0  0  0  0  0  0  0  0  0  0  0
   -3.4239   -2.3856   -0.7714 O   0  0  0  0  0  0  0  0  0  0  0  0
    1.4842    1.1504    0.1861 N   0  0  0  0  0  0  0  0  0  0  0  0
    2.2624    1.7239    0.7920 N   0  0  0  0  0  0  0  0  0  0  0  0
    1.1171   -1.4644   -2.5228 Cl  0  0  0  0  0  0  0  0  0  0  0  0
  1  7  1  0  0  0  0
  2  1  1  0  0  0  0
  2  3  1  0  0  0  0
  2  8  1  1  0  0  0
  3 14  1  1  0  0  0
  4  3  1  0  0  0  0
  5  6  1  0  0  0  0
  5  4  2  0  0  0  0
  6  1  2  0  0  0  0
  9  4  1  0  0  0  0
 10  5  1  0  0  0  0
 11  6  1  0  0  0  0
 11 13  2  0  0  0  0
 12 11  2  0  0  0  0
 14 15  1  0  0  0  0
 16  2  1  0  0  0  0
M  RAD  3   3   2  14   2  15   3
M  END
