Coordinates from ORCA-job p-NO2-Ph-N2-Cl-B3LYPG-6-31G_dp-scan-d09-49-n400
 OpenBabel08281821083D

 16 15  0  0  0  0  0  0  0  0999 V2000
   -1.0642   -1.3737   -0.9932 C   0  0  0  0  0  0  0  0  0  0  0  0
    0.2273   -0.8756   -0.8093 C   0  0  0  0  0  0  0  0  0  0  0  0
    0.3526    0.4847   -0.5666 C   0  0  0  0  0  0  0  0  0  0  0  0
   -0.7308    1.3835   -0.4952 C   0  0  0  0  0  0  0  0  0  0  0  0
   -2.0031    0.8704   -0.6798 C   0  0  0  0  0  0  0  0  0  0  0  0
   -2.1428   -0.4999   -0.9256 C   0  0  0  0  0  0  0  0  0  0  0  0
   -1.2303   -2.4263   -1.1869 H   0  0  0  0  0  0  0  0  0  0  0  0
    1.1355   -1.5132   -0.8473 H   0  0  0  0  0  0  0  0  0  0  0  0
   -0.5668    2.4379   -0.3002 H   0  0  0  0  0  0  0  0  0  0  0  0
   -2.8822    1.5007   -0.6376 H   0  0  0  0  0  0  0  0  0  0  0  0
   -3.5132   -1.0358   -1.1218 N   0  0  0  0  0  0  0  0  0  0  0  0
   -4.4402   -0.2336   -1.0510 O   0  0  0  0  0  0  0  0  0  0  0  0
   -3.6187   -2.2375   -1.3366 O   0  0  0  0  0  0  0  0  0  0  0  0
    1.6418    1.0661   -0.3696 N   0  0  0  0  0  0  0  0  0  0  0  0
    2.2568    1.9936   -0.1656 N   0  0  0  0  0  0  0  0  0  0  0  0
    3.0593   -2.2834   -0.8074 Cl  0  0  0  0  0  0  0  0  0  0  0  0
  1  6  2  0  0  0  0
  1  2  1  0  0  0  0
  2  3  2  0  0  0  0
  3  4  1  0  0  0  0
  3 14  1  0  0  0  0
  4  9  1  0  0  0  0
  5 10  1  0  0  0  0
  5  4  2  0  0  0  0
  6  5  1  0  0  0  0
  7  1  1  0  0  0  0
  8  2  1  0  0  0  0
 11 12  2  0  0  0  0
 11  6  1  0  0  0  0
 13 11  2  0  0  0  0
 14 15  2  0  0  0  0
M  RAD  2  15   2  16   2
M  END
