Coordinates from ORCA-job p-NO2-Ph-N2-Cl-B3LYPG-6-31G_dp-scan-d09-49-n400
 OpenBabel08281821083D

 16 16  0  0  0  0  0  0  0  0999 V2000
   -1.4418   -1.5792   -1.0408 C   0  0  0  0  0  0  0  0  0  0  0  0
   -0.0687   -1.4168   -0.9086 C   0  0  0  0  0  0  0  0  0  0  0  0
    0.4842   -0.1476   -0.6611 C   0  0  0  0  0  0  0  0  0  0  0  0
   -0.3676    0.9702   -0.5463 C   0  0  0  0  0  0  0  0  0  0  0  0
   -1.7390    0.8158   -0.6774 C   0  0  0  0  0  0  0  0  0  0  0  0
   -2.2611   -0.4573   -0.9233 C   0  0  0  0  0  0  0  0  0  0  0  0
   -1.8872   -2.5471   -1.2322 H   0  0  0  0  0  0  0  0  0  0  0  0
    0.6046   -2.2629   -0.9936 H   0  0  0  0  0  0  0  0  0  0  0  0
    0.0615    1.9461   -0.3545 H   0  0  0  0  0  0  0  0  0  0  0  0
   -2.4157    1.6570   -0.5937 H   0  0  0  0  0  0  0  0  0  0  0  0
   -3.7133   -0.6160   -1.0627 N   0  0  0  0  0  0  0  0  0  0  0  0
   -4.4118    0.3930   -0.9573 O   0  0  0  0  0  0  0  0  0  0  0  0
   -4.1473   -1.7482   -1.2774 O   0  0  0  0  0  0  0  0  0  0  0  0
    1.8839   -0.1228   -0.5491 N   0  0  0  0  0  0  0  0  0  0  0  0
    2.3729    1.0570   -0.3233 N   0  0  0  0  0  0  0  0  0  0  0  0
    3.5276    1.3166   -0.1926 Cl  0  0  0  0  0  0  0  0  0  0  0  0
  1  6  2  0  0  0  0
  1  2  1  0  0  0  0
  2  3  2  0  0  0  0
  3 14  1  0  0  0  0
  3  4  1  0  0  0  0
  4  9  1  0  0  0  0
  5 10  1  0  0  0  0
  5  4  2  0  0  0  0
  6  5  1  0  0  0  0
  7  1  1  0  0  0  0
  8  2  1  0  0  0  0
 11 12  2  0  0  0  0
 11  6  1  0  0  0  0
 13 11  2  0  0  0  0
 14 15  1  0  0  0  0
 15 16  1  0  0  0  0
M  RAD  2  14   2  15   2
M  END
