Coordinates from ORCA-job p-NO2-Ph-N2-Cl-B3LYPG-6-31G_dp-scan-d09-49-n400
 OpenBabel08281821083D

 16 16  0  0  1  0  0  0  0  0999 V2000
   -0.9113   -1.4204   -0.6782 C   0  0  0  0  0  0  0  0  0  0  0  0
    0.4634   -0.8902   -0.6862 C   0  0  2  0  0  0  0  0  0  0  0  0
    0.4831    0.5705   -0.4651 C   0  0  1  0  0  0  0  0  0  0  0  0
   -0.6335    1.4046   -0.8479 C   0  0  0  0  0  0  0  0  0  0  0  0
   -1.8318    0.8247   -1.1091 C   0  0  0  0  0  0  0  0  0  0  0  0
   -1.9547   -0.5981   -0.9319 C   0  0  0  0  0  0  0  0  0  0  0  0
   -1.0682   -2.4836   -0.5499 H   0  0  0  0  0  0  0  0  0  0  0  0
    1.1633   -1.4423   -0.0657 H   0  0  0  0  0  0  0  0  0  0  0  0
   -0.5014    2.4806   -0.8907 H   0  0  0  0  0  0  0  0  0  0  0  0
   -2.7016    1.3988   -1.3964 H   0  0  0  0  0  0  0  0  0  0  0  0
   -3.3072   -1.1875   -1.0096 N   0  0  0  0  0  0  0  0  0  0  0  0
   -4.2314   -0.4253   -1.2886 O   0  0  0  0  0  0  0  0  0  0  0  0
   -3.4260   -2.3903   -0.7907 O   0  0  0  0  0  0  0  0  0  0  0  0
    1.4945    1.1502    0.1655 N   0  0  0  0  0  0  0  0  0  0  0  0
    2.2999    1.7137    0.7435 N   0  0  0  0  0  0  0  0  0  0  0  0
    1.1441   -1.4475   -2.4929 Cl  0  0  0  0  0  0  0  0  0  0  0  0
  1  7  1  0  0  0  0
  2  1  1  0  0  0  0
  2  3  1  0  0  0  0
  2  8  1  1  0  0  0
  3 14  1  1  0  0  0
  4  3  1  0  0  0  0
  5  6  1  0  0  0  0
  5  4  2  0  0  0  0
  6  1  2  0  0  0  0
  9  4  1  0  0  0  0
 10  5  1  0  0  0  0
 11  6  1  0  0  0  0
 11 13  2  0  0  0  0
 12 11  2  0  0  0  0
 14 15  1  0  0  0  0
 16  2  1  0  0  0  0
M  RAD  3   3   2  14   2  15   3
M  END
