Coordinates from ORCA-job p-NO2-Ph-N2-Cl-B3LYPG-6-31G_dp-scan-d09-49-n400
 OpenBabel08281821083D

 16 15  0  0  0  0  0  0  0  0999 V2000
   -1.0899   -1.3345   -0.9902 C   0  0  0  0  0  0  0  0  0  0  0  0
    0.1881   -0.8124   -0.8044 C   0  0  0  0  0  0  0  0  0  0  0  0
    0.2839    0.5630   -0.5603 C   0  0  0  0  0  0  0  0  0  0  0  0
   -0.8148    1.4289   -0.4943 C   0  0  0  0  0  0  0  0  0  0  0  0
   -2.0804    0.8903   -0.6816 C   0  0  0  0  0  0  0  0  0  0  0  0
   -2.1885   -0.4800   -0.9255 C   0  0  0  0  0  0  0  0  0  0  0  0
   -1.2408   -2.3894   -1.1839 H   0  0  0  0  0  0  0  0  0  0  0  0
    1.0989   -1.4192   -0.8388 H   0  0  0  0  0  0  0  0  0  0  0  0
   -0.6711    2.4858   -0.3003 H   0  0  0  0  0  0  0  0  0  0  0  0
   -2.9739    1.4995   -0.6431 H   0  0  0  0  0  0  0  0  0  0  0  0
   -3.5436   -1.0495   -1.1249 N   0  0  0  0  0  0  0  0  0  0  0  0
   -4.4917   -0.2721   -1.0593 O   0  0  0  0  0  0  0  0  0  0  0  0
   -3.6190   -2.2544   -1.3400 O   0  0  0  0  0  0  0  0  0  0  0  0
    1.5657    1.1168   -0.3685 N   0  0  0  0  0  0  0  0  0  0  0  0
    2.6964    0.9863   -0.2997 N   0  0  0  0  0  0  0  0  0  0  0  0
    3.3618   -1.7014   -0.6790 Cl  0  0  0  0  0  0  0  0  0  0  0  0
  1  6  2  0  0  0  0
  1  2  1  0  0  0  0
  2  3  2  0  0  0  0
  3  4  1  0  0  0  0
  3 14  1  0  0  0  0
  4  9  1  0  0  0  0
  5 10  1  0  0  0  0
  5  4  2  0  0  0  0
  6  5  1  0  0  0  0
  7  1  1  0  0  0  0
  8  2  1  0  0  0  0
 11 12  2  0  0  0  0
 11  6  1  0  0  0  0
 13 11  2  0  0  0  0
 14 15  2  0  0  0  0
M  RAD  2  15   2  16   2
M  END
