Coordinates from ORCA-job p-NO2-Ph-N2-Cl-B3LYPG-6-31G_dp-scan-d09-49-n400
 OpenBabel08281821083D

 16 15  0  0  0  0  0  0  0  0999 V2000
   -1.1030   -1.4038   -1.0046 C   0  0  0  0  0  0  0  0  0  0  0  0
    0.1996   -0.9351   -0.8248 C   0  0  0  0  0  0  0  0  0  0  0  0
    0.3629    0.4188   -0.5780 C   0  0  0  0  0  0  0  0  0  0  0  0
   -0.6970    1.3405   -0.4980 C   0  0  0  0  0  0  0  0  0  0  0  0
   -1.9839    0.8598   -0.6777 C   0  0  0  0  0  0  0  0  0  0  0  0
   -2.1601   -0.5042   -0.9279 C   0  0  0  0  0  0  0  0  0  0  0  0
   -1.2984   -2.4505   -1.2016 H   0  0  0  0  0  0  0  0  0  0  0  0
    1.0942   -1.5765   -0.8656 H   0  0  0  0  0  0  0  0  0  0  0  0
   -0.5067    2.3898   -0.3002 H   0  0  0  0  0  0  0  0  0  0  0  0
   -2.8463    1.5123   -0.6280 H   0  0  0  0  0  0  0  0  0  0  0  0
   -3.5428   -1.0063   -1.1183 N   0  0  0  0  0  0  0  0  0  0  0  0
   -4.4508   -0.1831   -1.0420 O   0  0  0  0  0  0  0  0  0  0  0  0
   -3.6783   -2.2047   -1.3377 O   0  0  0  0  0  0  0  0  0  0  0  0
    1.6800    0.9706   -0.3844 N   0  0  0  0  0  0  0  0  0  0  0  0
    2.2234    1.9464   -0.1824 N   0  0  0  0  0  0  0  0  0  0  0  0
    3.1885   -1.9161   -0.7226 Cl  0  0  0  0  0  0  0  0  0  0  0  0
  1  6  2  0  0  0  0
  1  2  1  0  0  0  0
  2  3  2  0  0  0  0
  3  4  1  0  0  0  0
  3 14  1  0  0  0  0
  4  9  1  0  0  0  0
  5 10  1  0  0  0  0
  5  4  2  0  0  0  0
  6  5  1  0  0  0  0
  7  1  1  0  0  0  0
  8  2  1  0  0  0  0
 11 12  2  0  0  0  0
 11  6  1  0  0  0  0
 13 11  2  0  0  0  0
 14 15  2  0  0  0  0
M  RAD  2  15   2  16   2
M  END
