Coordinates from ORCA-job p-NO2-Ph-N2-Cl-B3LYPG-6-31G_dp-scan-d09-49-n400
 OpenBabel08281821083D

 16 15  0  0  0  0  0  0  0  0999 V2000
   -1.0517   -1.3149   -0.9810 C   0  0  0  0  0  0  0  0  0  0  0  0
    0.2190   -0.7720   -0.7918 C   0  0  0  0  0  0  0  0  0  0  0  0
    0.2767    0.6071   -0.5518 C   0  0  0  0  0  0  0  0  0  0  0  0
   -0.8350    1.4621   -0.4904 C   0  0  0  0  0  0  0  0  0  0  0  0
   -2.0850    0.8962   -0.6819 C   0  0  0  0  0  0  0  0  0  0  0  0
   -2.1639   -0.4797   -0.9231 C   0  0  0  0  0  0  0  0  0  0  0  0
   -1.1801   -2.3735   -1.1724 H   0  0  0  0  0  0  0  0  0  0  0  0
    1.1502   -1.3733   -0.8219 H   0  0  0  0  0  0  0  0  0  0  0  0
   -0.7130    2.5222   -0.2984 H   0  0  0  0  0  0  0  0  0  0  0  0
   -2.9917    1.4860   -0.6495 H   0  0  0  0  0  0  0  0  0  0  0  0
   -3.5099   -1.0725   -1.1269 N   0  0  0  0  0  0  0  0  0  0  0  0
   -4.4699   -0.3092   -1.0662 O   0  0  0  0  0  0  0  0  0  0  0  0
   -3.5638   -2.2780   -1.3409 O   0  0  0  0  0  0  0  0  0  0  0  0
    1.5513    1.1525   -0.3620 N   0  0  0  0  0  0  0  0  0  0  0  0
    2.6755    1.1829   -0.2687 N   0  0  0  0  0  0  0  0  0  0  0  0
    3.1724   -2.0781   -0.7668 Cl  0  0  0  0  0  0  0  0  0  0  0  0
  1  6  2  0  0  0  0
  1  2  1  0  0  0  0
  2  3  2  0  0  0  0
  3  4  1  0  0  0  0
  3 14  1  0  0  0  0
  4  9  1  0  0  0  0
  5 10  1  0  0  0  0
  5  4  2  0  0  0  0
  6  5  1  0  0  0  0
  7  1  1  0  0  0  0
  8  2  1  0  0  0  0
 11 12  2  0  0  0  0
 11  6  1  0  0  0  0
 13 11  2  0  0  0  0
 14 15  1  0  0  0  0
M  RAD  3  14   2  15   3  16   2
M  END
