Coordinates from ORCA-job p-NO2-Ph-N2-Cl-B3LYPG-6-31G_dp-scan-d09-49-n400
 OpenBabel08281821083D

 16 15  0  0  0  0  0  0  0  0999 V2000
   -1.1180   -1.4167   -1.0097 C   0  0  0  0  0  0  0  0  0  0  0  0
    0.1894   -0.9615   -0.8319 C   0  0  0  0  0  0  0  0  0  0  0  0
    0.3702    0.3895   -0.5828 C   0  0  0  0  0  0  0  0  0  0  0  0
   -0.6803    1.3204   -0.4994 C   0  0  0  0  0  0  0  0  0  0  0  0
   -1.9735    0.8544   -0.6769 C   0  0  0  0  0  0  0  0  0  0  0  0
   -2.1658   -0.5064   -0.9290 C   0  0  0  0  0  0  0  0  0  0  0  0
   -1.3255   -2.4607   -1.2081 H   0  0  0  0  0  0  0  0  0  0  0  0
    1.0742   -1.6087   -0.8751 H   0  0  0  0  0  0  0  0  0  0  0  0
   -0.4790    2.3672   -0.3002 H   0  0  0  0  0  0  0  0  0  0  0  0
   -2.8282    1.5167   -0.6240 H   0  0  0  0  0  0  0  0  0  0  0  0
   -3.5534   -0.9940   -1.1168 N   0  0  0  0  0  0  0  0  0  0  0  0
   -4.4532   -0.1620   -1.0379 O   0  0  0  0  0  0  0  0  0  0  0  0
   -3.7019   -2.1909   -1.3371 O   0  0  0  0  0  0  0  0  0  0  0  0
    1.6977    0.9295   -0.3902 N   0  0  0  0  0  0  0  0  0  0  0  0
    2.2087    1.9248   -0.1895 N   0  0  0  0  0  0  0  0  0  0  0  0
    3.2197   -1.7436   -0.6852 Cl  0  0  0  0  0  0  0  0  0  0  0  0
  1  6  2  0  0  0  0
  1  2  1  0  0  0  0
  2  3  2  0  0  0  0
  3  4  1  0  0  0  0
  3 14  1  0  0  0  0
  4  9  1  0  0  0  0
  5 10  1  0  0  0  0
  5  4  2  0  0  0  0
  6  5  1  0  0  0  0
  7  1  1  0  0  0  0
  8  2  1  0  0  0  0
 11 12  2  0  0  0  0
 11  6  1  0  0  0  0
 13 11  2  0  0  0  0
 14 15  2  0  0  0  0
M  RAD  2  15   2  16   2
M  END
