Coordinates from ORCA-job p-NO2-Ph-N2-Cl-B3LYPG-6-31G_dp-scan-d09-49-n400
 OpenBabel08281821083D

 16 15  0  0  0  0  0  0  0  0999 V2000
   -1.1107   -1.4103   -1.0073 C   0  0  0  0  0  0  0  0  0  0  0  0
    0.1943   -0.9484   -0.8286 C   0  0  0  0  0  0  0  0  0  0  0  0
    0.3664    0.4040   -0.5806 C   0  0  0  0  0  0  0  0  0  0  0  0
   -0.6887    1.3305   -0.4986 C   0  0  0  0  0  0  0  0  0  0  0  0
   -1.9789    0.8571   -0.6771 C   0  0  0  0  0  0  0  0  0  0  0  0
   -2.1632   -0.5053   -0.9285 C   0  0  0  0  0  0  0  0  0  0  0  0
   -1.3123   -2.4556   -1.2052 H   0  0  0  0  0  0  0  0  0  0  0  0
    1.0844   -1.5921   -0.8704 H   0  0  0  0  0  0  0  0  0  0  0  0
   -0.4929    2.3785   -0.3001 H   0  0  0  0  0  0  0  0  0  0  0  0
   -2.8374    1.5145   -0.6257 H   0  0  0  0  0  0  0  0  0  0  0  0
   -3.5483   -1.0000   -1.1175 N   0  0  0  0  0  0  0  0  0  0  0  0
   -4.4523   -0.1725   -1.0398 O   0  0  0  0  0  0  0  0  0  0  0  0
   -3.6904   -2.1977   -1.3376 O   0  0  0  0  0  0  0  0  0  0  0  0
    1.6887    0.9498   -0.3876 N   0  0  0  0  0  0  0  0  0  0  0  0
    2.2162    1.9354   -0.1865 N   0  0  0  0  0  0  0  0  0  0  0  0
    3.2064   -1.8300   -0.7028 Cl  0  0  0  0  0  0  0  0  0  0  0  0
  1  6  2  0  0  0  0
  1  2  1  0  0  0  0
  2  3  2  0  0  0  0
  3  4  1  0  0  0  0
  3 14  1  0  0  0  0
  4  9  1  0  0  0  0
  5 10  1  0  0  0  0
  5  4  2  0  0  0  0
  6  5  1  0  0  0  0
  7  1  1  0  0  0  0
  8  2  1  0  0  0  0
 11 12  2  0  0  0  0
 11  6  1  0  0  0  0
 13 11  2  0  0  0  0
 14 15  2  0  0  0  0
M  RAD  2  15   2  16   2
M  END
