Coordinates from ORCA-job p-NO2-Ph-N2-Cl-B3LYPG-6-31G_dp-scan-d09-49-n400
 OpenBabel08281821083D

 16 15  0  0  0  0  0  0  0  0999 V2000
   -1.0566   -1.3160   -0.9820 C   0  0  0  0  0  0  0  0  0  0  0  0
    0.2145   -0.7748   -0.7929 C   0  0  0  0  0  0  0  0  0  0  0  0
    0.2761    0.6035   -0.5525 C   0  0  0  0  0  0  0  0  0  0  0  0
   -0.8339    1.4589   -0.4909 C   0  0  0  0  0  0  0  0  0  0  0  0
   -2.0861    0.8959   -0.6820 C   0  0  0  0  0  0  0  0  0  0  0  0
   -2.1678   -0.4790   -0.9234 C   0  0  0  0  0  0  0  0  0  0  0  0
   -1.1874   -2.3742   -1.1737 H   0  0  0  0  0  0  0  0  0  0  0  0
    1.1427   -1.3762   -0.8233 H   0  0  0  0  0  0  0  0  0  0  0  0
   -0.7095    2.5186   -0.2986 H   0  0  0  0  0  0  0  0  0  0  0  0
   -2.9913    1.4877   -0.6490 H   0  0  0  0  0  0  0  0  0  0  0  0
   -3.5145   -1.0700   -1.1269 N   0  0  0  0  0  0  0  0  0  0  0  0
   -4.4737   -0.3058   -1.0655 O   0  0  0  0  0  0  0  0  0  0  0  0
   -3.5701   -2.2755   -1.3406 O   0  0  0  0  0  0  0  0  0  0  0  0
    1.5527    1.1533   -0.3618 N   0  0  0  0  0  0  0  0  0  0  0  0
    2.6797    1.1442   -0.2750 N   0  0  0  0  0  0  0  0  0  0  0  0
    3.2065   -2.0327   -0.7555 Cl  0  0  0  0  0  0  0  0  0  0  0  0
  1  6  2  0  0  0  0
  1  2  1  0  0  0  0
  2  3  2  0  0  0  0
  3  4  1  0  0  0  0
  3 14  1  0  0  0  0
  4  9  1  0  0  0  0
  5 10  1  0  0  0  0
  5  4  2  0  0  0  0
  6  5  1  0  0  0  0
  7  1  1  0  0  0  0
  8  2  1  0  0  0  0
 11 12  2  0  0  0  0
 11  6  1  0  0  0  0
 13 11  2  0  0  0  0
 14 15  1  0  0  0  0
M  RAD  3  14   2  15   3  16   2
M  END
