Coordinates from ORCA-job p-NO2-Ph-N2-Cl-B3LYPG-6-31G_dp-scan-d09-49-n400
 OpenBabel08281821083D

 16 16  0  0  1  0  0  0  0  0999 V2000
   -0.9053   -1.4193   -0.6779 C   0  0  0  0  0  0  0  0  0  0  0  0
    0.4687   -0.8907   -0.6997 C   0  0  2  0  0  0  0  0  0  0  0  0
    0.4918    0.5689   -0.4747 C   0  0  1  0  0  0  0  0  0  0  0  0
   -0.6242    1.4040   -0.8620 C   0  0  0  0  0  0  0  0  0  0  0  0
   -1.8235    0.8242   -1.1183 C   0  0  0  0  0  0  0  0  0  0  0  0
   -1.9493   -0.5968   -0.9298 C   0  0  0  0  0  0  0  0  0  0  0  0
   -1.0626   -2.4818   -0.5439 H   0  0  0  0  0  0  0  0  0  0  0  0
    1.1793   -1.4462   -0.0951 H   0  0  0  0  0  0  0  0  0  0  0  0
   -0.4907    2.4796   -0.9099 H   0  0  0  0  0  0  0  0  0  0  0  0
   -2.6924    1.3979   -1.4091 H   0  0  0  0  0  0  0  0  0  0  0  0
   -3.3030   -1.1835   -0.9961 N   0  0  0  0  0  0  0  0  0  0  0  0
   -4.2268   -0.4217   -1.2774 O   0  0  0  0  0  0  0  0  0  0  0  0
   -3.4232   -2.3842   -0.7661 O   0  0  0  0  0  0  0  0  0  0  0  0
    1.4812    1.1506    0.1920 N   0  0  0  0  0  0  0  0  0  0  0  0
    2.2517    1.7265    0.8055 N   0  0  0  0  0  0  0  0  0  0  0  0
    1.1094   -1.4696   -2.5313 Cl  0  0  0  0  0  0  0  0  0  0  0  0
  1  7  1  0  0  0  0
  2  1  1  0  0  0  0
  2  3  1  0  0  0  0
  2  8  1  1  0  0  0
  3 14  1  1  0  0  0
  4  3  1  0  0  0  0
  5  6  1  0  0  0  0
  5  4  2  0  0  0  0
  6  1  2  0  0  0  0
  9  4  1  0  0  0  0
 10  5  1  0  0  0  0
 11  6  1  0  0  0  0
 11 13  2  0  0  0  0
 12 11  2  0  0  0  0
 14 15  1  0  0  0  0
 16  2  1  0  0  0  0
M  RAD  3   3   2  14   2  15   3
M  END
