Coordinates from ORCA-job p-NO2-Ph-N2-Cl-B3LYPG-6-31G_dp-scan-d09-49-n400
 OpenBabel08281821083D

 16 15  0  0  0  0  0  0  0  0999 V2000
   -1.4403   -1.5453   -1.0351 C   0  0  0  0  0  0  0  0  0  0  0  0
   -0.0786   -1.2954   -0.8889 C   0  0  0  0  0  0  0  0  0  0  0  0
    0.3442    0.0126   -0.6449 C   0  0  0  0  0  0  0  0  0  0  0  0
   -0.5519    1.0862   -0.5407 C   0  0  0  0  0  0  0  0  0  0  0  0
   -1.9095    0.8332   -0.6870 C   0  0  0  0  0  0  0  0  0  0  0  0
   -2.3261   -0.4762   -0.9314 C   0  0  0  0  0  0  0  0  0  0  0  0
   -1.8211   -2.5402   -1.2266 H   0  0  0  0  0  0  0  0  0  0  0  0
    0.6547   -2.0905   -0.9606 H   0  0  0  0  0  0  0  0  0  0  0  0
   -0.1841    2.0881   -0.3494 H   0  0  0  0  0  0  0  0  0  0  0  0
   -2.6465    1.6232   -0.6164 H   0  0  0  0  0  0  0  0  0  0  0  0
   -3.7747   -0.7384   -1.0879 N   0  0  0  0  0  0  0  0  0  0  0  0
   -4.5325    0.2228   -0.9916 O   0  0  0  0  0  0  0  0  0  0  0  0
   -4.1156   -1.8977   -1.3031 O   0  0  0  0  0  0  0  0  0  0  0  0
    1.7506    0.2125   -0.5053 N   0  0  0  0  0  0  0  0  0  0  0  0
    2.3750    1.1709   -0.3039 N   0  0  0  0  0  0  0  0  0  0  0  0
    4.7376    0.5922   -0.2207 Cl  0  0  0  0  0  0  0  0  0  0  0  0
  1  6  2  0  0  0  0
  1  2  1  0  0  0  0
  2  3  2  0  0  0  0
  3  4  1  0  0  0  0
  3 14  1  0  0  0  0
  4  9  1  0  0  0  0
  5 10  1  0  0  0  0
  5  4  2  0  0  0  0
  6  5  1  0  0  0  0
  7  1  1  0  0  0  0
  8  2  1  0  0  0  0
 11 12  2  0  0  0  0
 11  6  1  0  0  0  0
 13 11  2  0  0  0  0
 14 15  2  0  0  0  0
M  RAD  2  15   2  16   2
M  END
