Coordinates from ORCA-job p-NO2-Ph-N2-Cl-B3LYPG-6-31G_dp-scan-d09-49-n400
 OpenBabel08281821083D

 16 15  0  0  0  0  0  0  0  0999 V2000
   -1.1131   -1.4124   -1.0083 C   0  0  0  0  0  0  0  0  0  0  0  0
    0.1926   -0.9525   -0.8298 C   0  0  0  0  0  0  0  0  0  0  0  0
    0.3674    0.3993   -0.5813 C   0  0  0  0  0  0  0  0  0  0  0  0
   -0.6861    1.3273   -0.4989 C   0  0  0  0  0  0  0  0  0  0  0  0
   -1.9772    0.8563   -0.6771 C   0  0  0  0  0  0  0  0  0  0  0  0
   -2.1641   -0.5057   -0.9288 C   0  0  0  0  0  0  0  0  0  0  0  0
   -1.3166   -2.4573   -1.2063 H   0  0  0  0  0  0  0  0  0  0  0  0
    1.0811   -1.5973   -0.8720 H   0  0  0  0  0  0  0  0  0  0  0  0
   -0.4885    2.3749   -0.3001 H   0  0  0  0  0  0  0  0  0  0  0  0
   -2.8345    1.5152   -0.6252 H   0  0  0  0  0  0  0  0  0  0  0  0
   -3.5501   -0.9981   -1.1173 N   0  0  0  0  0  0  0  0  0  0  0  0
   -4.4526   -0.1691   -1.0389 O   0  0  0  0  0  0  0  0  0  0  0  0
   -3.6943   -2.1955   -1.3372 O   0  0  0  0  0  0  0  0  0  0  0  0
    1.6917    0.9429   -0.3884 N   0  0  0  0  0  0  0  0  0  0  0  0
    2.2141    1.9316   -0.1874 N   0  0  0  0  0  0  0  0  0  0  0  0
    3.2112   -1.8016   -0.6967 Cl  0  0  0  0  0  0  0  0  0  0  0  0
  1  6  2  0  0  0  0
  1  2  1  0  0  0  0
  2  3  2  0  0  0  0
  3  4  1  0  0  0  0
  3 14  1  0  0  0  0
  4  9  1  0  0  0  0
  5 10  1  0  0  0  0
  5  4  2  0  0  0  0
  6  5  1  0  0  0  0
  7  1  1  0  0  0  0
  8  2  1  0  0  0  0
 11 12  2  0  0  0  0
 11  6  1  0  0  0  0
 13 11  2  0  0  0  0
 14 15  2  0  0  0  0
M  RAD  2  15   2  16   2
M  END
