Coordinates from ORCA-job p-NO2-Ph-N2-Cl-B3LYPG-6-31G_dp-scan-d09-49-n400
 OpenBabel08281821083D

 16 16  0  0  0  0  0  0  0  0999 V2000
   -1.4445   -1.5747   -1.0402 C   0  0  0  0  0  0  0  0  0  0  0  0
   -0.0719   -1.3961   -0.9039 C   0  0  0  0  0  0  0  0  0  0  0  0
    0.4564   -0.1207   -0.6567 C   0  0  0  0  0  0  0  0  0  0  0  0
   -0.3997    0.9903   -0.5432 C   0  0  0  0  0  0  0  0  0  0  0  0
   -1.7697    0.8198   -0.6779 C   0  0  0  0  0  0  0  0  0  0  0  0
   -2.2724   -0.4607   -0.9249 C   0  0  0  0  0  0  0  0  0  0  0  0
   -1.8798   -2.5470   -1.2325 H   0  0  0  0  0  0  0  0  0  0  0  0
    0.6137   -2.2324   -0.9859 H   0  0  0  0  0  0  0  0  0  0  0  0
    0.0221    1.9692   -0.3507 H   0  0  0  0  0  0  0  0  0  0  0  0
   -2.4575    1.6520   -0.5964 H   0  0  0  0  0  0  0  0  0  0  0  0
   -3.7270   -0.6370   -1.0688 N   0  0  0  0  0  0  0  0  0  0  0  0
   -4.4347    0.3641   -0.9649 O   0  0  0  0  0  0  0  0  0  0  0  0
   -4.1444   -1.7739   -1.2844 O   0  0  0  0  0  0  0  0  0  0  0  0
    1.8693   -0.0771   -0.5398 N   0  0  0  0  0  0  0  0  0  0  0  0
    2.3253    1.0820   -0.3284 N   0  0  0  0  0  0  0  0  0  0  0  0
    3.7960    1.2000   -0.1952 Cl  0  0  0  0  0  0  0  0  0  0  0  0
  1  6  2  0  0  0  0
  1  2  1  0  0  0  0
  2  3  2  0  0  0  0
  3  4  1  0  0  0  0
  3 14  1  0  0  0  0
  4  9  1  0  0  0  0
  5 10  1  0  0  0  0
  5  4  2  0  0  0  0
  6  5  1  0  0  0  0
  7  1  1  0  0  0  0
  8  2  1  0  0  0  0
 11 12  2  0  0  0  0
 11  6  1  0  0  0  0
 13 11  2  0  0  0  0
 14 15  1  0  0  0  0
 15 16  1  0  0  0  0
M  RAD  2  14   2  15   2
M  END
