Coordinates from ORCA-job p-NO2-Ph-N2-Cl-B3LYPG-6-31G_dp-scan-d09-49-n400
 OpenBabel08281821083D

 16 15  0  0  0  0  0  0  0  0999 V2000
   -1.0618   -1.3725   -0.9922 C   0  0  0  0  0  0  0  0  0  0  0  0
    0.2291   -0.8724   -0.8083 C   0  0  0  0  0  0  0  0  0  0  0  0
    0.3523    0.4889   -0.5659 C   0  0  0  0  0  0  0  0  0  0  0  0
   -0.7327    1.3861   -0.4949 C   0  0  0  0  0  0  0  0  0  0  0  0
   -2.0039    0.8706   -0.6797 C   0  0  0  0  0  0  0  0  0  0  0  0
   -2.1414   -0.5002   -0.9252 C   0  0  0  0  0  0  0  0  0  0  0  0
   -1.2261   -2.4255   -1.1857 H   0  0  0  0  0  0  0  0  0  0  0  0
    1.1381   -1.5098   -0.8462 H   0  0  0  0  0  0  0  0  0  0  0  0
   -0.5705    2.4408   -0.3003 H   0  0  0  0  0  0  0  0  0  0  0  0
   -2.8840    1.4994   -0.6379 H   0  0  0  0  0  0  0  0  0  0  0  0
   -3.5111   -1.0378   -1.1214 N   0  0  0  0  0  0  0  0  0  0  0  0
   -4.4389   -0.2363   -1.0523 O   0  0  0  0  0  0  0  0  0  0  0  0
   -3.6149   -2.2394   -1.3375 O   0  0  0  0  0  0  0  0  0  0  0  0
    1.6399    1.0723   -0.3688 N   0  0  0  0  0  0  0  0  0  0  0  0
    2.2602    1.9967   -0.1648 N   0  0  0  0  0  0  0  0  0  0  0  0
    3.0469   -2.3030   -0.8127 Cl  0  0  0  0  0  0  0  0  0  0  0  0
  1  6  2  0  0  0  0
  1  2  1  0  0  0  0
  2  3  2  0  0  0  0
  3  4  1  0  0  0  0
  3 14  1  0  0  0  0
  4  9  1  0  0  0  0
  5 10  1  0  0  0  0
  5  4  2  0  0  0  0
  6  5  1  0  0  0  0
  7  1  1  0  0  0  0
  8  2  1  0  0  0  0
 11 12  2  0  0  0  0
 11  6  1  0  0  0  0
 13 11  2  0  0  0  0
 14 15  2  0  0  0  0
M  RAD  2  15   2  16   2
M  END
