Coordinates from ORCA-job p-NO2-Ph-N2-Cl-B3LYPG-6-31G_dp-scan-d09-49-n400
 OpenBabel08281821083D

 16 16  0  0  0  0  0  0  0  0999 V2000
   -1.4465   -1.5712   -1.0391 C   0  0  0  0  0  0  0  0  0  0  0  0
   -0.0746   -1.3819   -0.9015 C   0  0  0  0  0  0  0  0  0  0  0  0
    0.4371   -0.1018   -0.6550 C   0  0  0  0  0  0  0  0  0  0  0  0
   -0.4233    1.0043   -0.5421 C   0  0  0  0  0  0  0  0  0  0  0  0
   -1.7921    0.8218   -0.6782 C   0  0  0  0  0  0  0  0  0  0  0  0
   -2.2818   -0.4632   -0.9249 C   0  0  0  0  0  0  0  0  0  0  0  0
   -1.8741   -2.5468   -1.2312 H   0  0  0  0  0  0  0  0  0  0  0  0
    0.6186   -2.2117   -0.9821 H   0  0  0  0  0  0  0  0  0  0  0  0
   -0.0112    1.9876   -0.3496 H   0  0  0  0  0  0  0  0  0  0  0  0
   -2.4873    1.6479   -0.5980 H   0  0  0  0  0  0  0  0  0  0  0  0
   -3.7370   -0.6521   -1.0703 N   0  0  0  0  0  0  0  0  0  0  0  0
   -4.4510    0.3442   -0.9720 O   0  0  0  0  0  0  0  0  0  0  0  0
   -4.1425   -1.7917   -1.2901 O   0  0  0  0  0  0  0  0  0  0  0  0
    1.8582   -0.0435   -0.5357 N   0  0  0  0  0  0  0  0  0  0  0  0
    2.3011    1.0950   -0.3297 N   0  0  0  0  0  0  0  0  0  0  0  0
    3.9875    1.1212   -0.1943 Cl  0  0  0  0  0  0  0  0  0  0  0  0
  1  6  2  0  0  0  0
  1  2  1  0  0  0  0
  2  3  2  0  0  0  0
  3  4  1  0  0  0  0
  3 14  1  0  0  0  0
  4  9  1  0  0  0  0
  5 10  1  0  0  0  0
  5  4  2  0  0  0  0
  6  5  1  0  0  0  0
  7  1  1  0  0  0  0
  8  2  1  0  0  0  0
 11 12  2  0  0  0  0
 11  6  1  0  0  0  0
 13 11  2  0  0  0  0
 14 15  1  0  0  0  0
 15 16  1  0  0  0  0
M  RAD  2  14   2  15   2
M  END
