Coordinates from ORCA-job p-NO2-Ph-N2-Cl-B3LYPG-6-31G_dp-scan-d09-49-n400
 OpenBabel08281821083D

 16 15  0  0  0  0  0  0  0  0999 V2000
   -1.4469   -1.5538   -1.0373 C   0  0  0  0  0  0  0  0  0  0  0  0
   -0.0817   -1.3214   -0.8936 C   0  0  0  0  0  0  0  0  0  0  0  0
    0.3626   -0.0205   -0.6493 C   0  0  0  0  0  0  0  0  0  0  0  0
   -0.5210    1.0632   -0.5421 C   0  0  0  0  0  0  0  0  0  0  0  0
   -1.8823    0.8296   -0.6852 C   0  0  0  0  0  0  0  0  0  0  0  0
   -2.3184   -0.4735   -0.9303 C   0  0  0  0  0  0  0  0  0  0  0  0
   -1.8410   -2.5435   -1.2289 H   0  0  0  0  0  0  0  0  0  0  0  0
    0.6406   -2.1262   -0.9678 H   0  0  0  0  0  0  0  0  0  0  0  0
   -0.1405    2.0603   -0.3504 H   0  0  0  0  0  0  0  0  0  0  0  0
   -2.6080    1.6297   -0.6118 H   0  0  0  0  0  0  0  0  0  0  0  0
   -3.7699   -0.7157   -1.0835 N   0  0  0  0  0  0  0  0  0  0  0  0
   -4.5153    0.2551   -0.9850 O   0  0  0  0  0  0  0  0  0  0  0  0
   -4.1280   -1.8701   -1.2989 O   0  0  0  0  0  0  0  0  0  0  0  0
    1.7786    0.1459   -0.5137 N   0  0  0  0  0  0  0  0  0  0  0  0
    2.3484    1.1489   -0.3140 N   0  0  0  0  0  0  0  0  0  0  0  0
    4.6042    0.7500   -0.2019 Cl  0  0  0  0  0  0  0  0  0  0  0  0
  1  6  2  0  0  0  0
  1  2  1  0  0  0  0
  2  3  2  0  0  0  0
  3  4  1  0  0  0  0
  3 14  1  0  0  0  0
  4  9  1  0  0  0  0
  5 10  1  0  0  0  0
  5  4  2  0  0  0  0
  6  5  1  0  0  0  0
  7  1  1  0  0  0  0
  8  2  1  0  0  0  0
 11 12  2  0  0  0  0
 11  6  1  0  0  0  0
 13 11  2  0  0  0  0
 14 15  2  0  0  0  0
M  RAD  2  15   2  16   2
M  END
