Coordinates from ORCA-job p-NO2-Ph-N2-Cl-B3LYPG-6-31G_dp-scan-d09-49-n400
 OpenBabel08281821083D

 16 15  0  0  0  0  0  0  0  0999 V2000
   -1.4219   -1.5271   -1.0303 C   0  0  0  0  0  0  0  0  0  0  0  0
   -0.0676   -1.2439   -0.8783 C   0  0  0  0  0  0  0  0  0  0  0  0
    0.3166    0.0765   -0.6346 C   0  0  0  0  0  0  0  0  0  0  0  0
   -0.6047    1.1297   -0.5370 C   0  0  0  0  0  0  0  0  0  0  0  0
   -1.9544    0.8405   -0.6900 C   0  0  0  0  0  0  0  0  0  0  0  0
   -2.3346   -0.4800   -0.9333 C   0  0  0  0  0  0  0  0  0  0  0  0
   -1.7769   -2.5316   -1.2215 H   0  0  0  0  0  0  0  0  0  0  0  0
    0.6864   -2.0198   -0.9448 H   0  0  0  0  0  0  0  0  0  0  0  0
   -0.2626    2.1407   -0.3460 H   0  0  0  0  0  0  0  0  0  0  0  0
   -2.7122    1.6111   -0.6252 H   0  0  0  0  0  0  0  0  0  0  0  0
   -3.7764   -0.7796   -1.0963 N   0  0  0  0  0  0  0  0  0  0  0  0
   -4.5575    0.1627   -1.0050 O   0  0  0  0  0  0  0  0  0  0  0  0
   -4.0850   -1.9475   -1.3110 O   0  0  0  0  0  0  0  0  0  0  0  0
    1.7050    0.3278   -0.4876 N   0  0  0  0  0  0  0  0  0  0  0  0
    2.4141    1.2113   -0.2832 N   0  0  0  0  0  0  0  0  0  0  0  0
    4.9130    0.2870   -0.2698 Cl  0  0  0  0  0  0  0  0  0  0  0  0
  1  6  2  0  0  0  0
  1  2  1  0  0  0  0
  2  3  2  0  0  0  0
  3  4  1  0  0  0  0
  3 14  1  0  0  0  0
  4  9  1  0  0  0  0
  5 10  1  0  0  0  0
  5  4  2  0  0  0  0
  6  5  1  0  0  0  0
  7  1  1  0  0  0  0
  8  2  1  0  0  0  0
 11 12  2  0  0  0  0
 11  6  1  0  0  0  0
 13 11  2  0  0  0  0
 14 15  2  0  0  0  0
M  RAD  2  15   2  16   2
M  END
