Coordinates from ORCA-job p-NO2-Ph-N2-Cl-B3LYPG-6-31G_dp-scan-d09-49-n400
 OpenBabel08281821083D

 16 15  0  0  0  0  0  0  0  0999 V2000
   -1.4263   -1.5309   -1.0313 C   0  0  0  0  0  0  0  0  0  0  0  0
   -0.0704   -1.2544   -0.8804 C   0  0  0  0  0  0  0  0  0  0  0  0
    0.3213    0.0636   -0.6367 C   0  0  0  0  0  0  0  0  0  0  0  0
   -0.5949    1.1210   -0.5378 C   0  0  0  0  0  0  0  0  0  0  0  0
   -1.9462    0.8390   -0.6896 C   0  0  0  0  0  0  0  0  0  0  0  0
   -2.3337   -0.4793   -0.9331 C   0  0  0  0  0  0  0  0  0  0  0  0
   -1.7864   -2.5336   -1.2225 H   0  0  0  0  0  0  0  0  0  0  0  0
    0.6795   -2.0342   -0.9480 H   0  0  0  0  0  0  0  0  0  0  0  0
   -0.2476    2.1303   -0.3468 H   0  0  0  0  0  0  0  0  0  0  0  0
   -2.7000    1.6135   -0.6237 H   0  0  0  0  0  0  0  0  0  0  0  0
   -3.7769   -0.7715   -1.0948 N   0  0  0  0  0  0  0  0  0  0  0  0
   -4.5533    0.1746   -1.0025 O   0  0  0  0  0  0  0  0  0  0  0  0
   -4.0919   -1.9378   -1.3094 O   0  0  0  0  0  0  0  0  0  0  0  0
    1.7134    0.3056   -0.4911 N   0  0  0  0  0  0  0  0  0  0  0  0
    2.4068    1.2034   -0.2862 N   0  0  0  0  0  0  0  0  0  0  0  0
    4.8878    0.3484   -0.2599 Cl  0  0  0  0  0  0  0  0  0  0  0  0
  1  6  2  0  0  0  0
  1  2  1  0  0  0  0
  2  3  2  0  0  0  0
  3  4  1  0  0  0  0
  3 14  1  0  0  0  0
  4  9  1  0  0  0  0
  5 10  1  0  0  0  0
  5  4  2  0  0  0  0
  6  5  1  0  0  0  0
  7  1  1  0  0  0  0
  8  2  1  0  0  0  0
 11 12  2  0  0  0  0
 11  6  1  0  0  0  0
 13 11  2  0  0  0  0
 14 15  2  0  0  0  0
M  RAD  2  15   2  16   2
M  END
