Coordinates from ORCA-job p-NO2-Ph-N2-Cl-B3LYPG-6-31G_dp-scan-d09-49-n400
 OpenBabel08281821083D

 16 15  0  0  0  0  0  0  0  0999 V2000
   -1.1115   -1.4110   -1.0077 C   0  0  0  0  0  0  0  0  0  0  0  0
    0.1938   -0.9496   -0.8290 C   0  0  0  0  0  0  0  0  0  0  0  0
    0.3666    0.4026   -0.5808 C   0  0  0  0  0  0  0  0  0  0  0  0
   -0.6880    1.3296   -0.4987 C   0  0  0  0  0  0  0  0  0  0  0  0
   -1.9783    0.8568   -0.6772 C   0  0  0  0  0  0  0  0  0  0  0  0
   -2.1634   -0.5055   -0.9286 C   0  0  0  0  0  0  0  0  0  0  0  0
   -1.3136   -2.4562   -1.2055 H   0  0  0  0  0  0  0  0  0  0  0  0
    1.0836   -1.5935   -0.8709 H   0  0  0  0  0  0  0  0  0  0  0  0
   -0.4916    2.3775   -0.3001 H   0  0  0  0  0  0  0  0  0  0  0  0
   -2.8365    1.5147   -0.6255 H   0  0  0  0  0  0  0  0  0  0  0  0
   -3.5489   -0.9995   -1.1173 N   0  0  0  0  0  0  0  0  0  0  0  0
   -4.4523   -0.1714   -1.0395 O   0  0  0  0  0  0  0  0  0  0  0  0
   -3.6916   -2.1970   -1.3375 O   0  0  0  0  0  0  0  0  0  0  0  0
    1.6897    0.9476   -0.3878 N   0  0  0  0  0  0  0  0  0  0  0  0
    2.2161    1.9340   -0.1867 N   0  0  0  0  0  0  0  0  0  0  0  0
    3.2072   -1.8211   -0.7009 Cl  0  0  0  0  0  0  0  0  0  0  0  0
  1  6  2  0  0  0  0
  1  2  1  0  0  0  0
  2  3  2  0  0  0  0
  3  4  1  0  0  0  0
  3 14  1  0  0  0  0
  4  9  1  0  0  0  0
  5 10  1  0  0  0  0
  5  4  2  0  0  0  0
  6  5  1  0  0  0  0
  7  1  1  0  0  0  0
  8  2  1  0  0  0  0
 11 12  2  0  0  0  0
 11  6  1  0  0  0  0
 13 11  2  0  0  0  0
 14 15  2  0  0  0  0
M  RAD  2  15   2  16   2
M  END
