Coordinates from ORCA-job p-NO2-Ph-N2-Cl-B3LYPG-6-31G_dp-scan-d09-49-n400
 OpenBabel08281821083D

 16 15  0  0  0  0  0  0  0  0999 V2000
   -1.4477   -1.5550   -1.0375 C   0  0  0  0  0  0  0  0  0  0  0  0
   -0.0820   -1.3251   -0.8942 C   0  0  0  0  0  0  0  0  0  0  0  0
    0.3654   -0.0252   -0.6497 C   0  0  0  0  0  0  0  0  0  0  0  0
   -0.5163    1.0599   -0.5422 C   0  0  0  0  0  0  0  0  0  0  0  0
   -1.8782    0.8291   -0.6850 C   0  0  0  0  0  0  0  0  0  0  0  0
   -2.3172   -0.4731   -0.9301 C   0  0  0  0  0  0  0  0  0  0  0  0
   -1.8438   -2.5440   -1.2291 H   0  0  0  0  0  0  0  0  0  0  0  0
    0.6387   -2.1313   -0.9687 H   0  0  0  0  0  0  0  0  0  0  0  0
   -0.1342    2.0563   -0.3506 H   0  0  0  0  0  0  0  0  0  0  0  0
   -2.6022    1.6307   -0.6112 H   0  0  0  0  0  0  0  0  0  0  0  0
   -3.7690   -0.7124   -1.0830 N   0  0  0  0  0  0  0  0  0  0  0  0
   -4.5126    0.2600   -0.9843 O   0  0  0  0  0  0  0  0  0  0  0  0
   -4.1297   -1.8660   -1.2983 O   0  0  0  0  0  0  0  0  0  0  0  0
    1.7832    0.1356   -0.5150 N   0  0  0  0  0  0  0  0  0  0  0  0
    2.3435    1.1458   -0.3144 N   0  0  0  0  0  0  0  0  0  0  0  0
    4.5832    0.7727   -0.2003 Cl  0  0  0  0  0  0  0  0  0  0  0  0
  1  6  2  0  0  0  0
  1  2  1  0  0  0  0
  2  3  2  0  0  0  0
  3  4  1  0  0  0  0
  3 14  1  0  0  0  0
  4  9  1  0  0  0  0
  5 10  1  0  0  0  0
  5  4  2  0  0  0  0
  6  5  1  0  0  0  0
  7  1  1  0  0  0  0
  8  2  1  0  0  0  0
 11 12  2  0  0  0  0
 11  6  1  0  0  0  0
 13 11  2  0  0  0  0
 14 15  2  0  0  0  0
M  RAD  2  15   2  16   2
M  END
