Coordinates from ORCA-job p-NO2-Ph-N2-Cl-B3LYPG-6-31G_dp-scan-d09-49-n400
 OpenBabel08281821083D

 16 16  0  0  1  0  0  0  0  0999 V2000
   -0.8976   -1.4171   -0.6773 C   0  0  0  0  0  0  0  0  0  0  0  0
    0.4738   -0.8898   -0.7104 C   0  0  2  0  0  0  0  0  0  0  0  0
    0.5019    0.5679   -0.4846 C   0  0  1  0  0  0  0  0  0  0  0  0
   -0.6137    1.4041   -0.8764 C   0  0  0  0  0  0  0  0  0  0  0  0
   -1.8143    0.8242   -1.1264 C   0  0  0  0  0  0  0  0  0  0  0  0
   -1.9430   -0.5945   -0.9268 C   0  0  0  0  0  0  0  0  0  0  0  0
   -1.0549   -2.4792   -0.5396 H   0  0  0  0  0  0  0  0  0  0  0  0
    1.1983   -1.4502   -0.1280 H   0  0  0  0  0  0  0  0  0  0  0  0
   -0.4786    2.4792   -0.9302 H   0  0  0  0  0  0  0  0  0  0  0  0
   -2.6824    1.3975   -1.4209 H   0  0  0  0  0  0  0  0  0  0  0  0
   -3.2973   -1.1789   -0.9824 N   0  0  0  0  0  0  0  0  0  0  0  0
   -4.2211   -0.4175   -1.2655 O   0  0  0  0  0  0  0  0  0  0  0  0
   -3.4187   -2.3773   -0.7414 O   0  0  0  0  0  0  0  0  0  0  0  0
    1.4651    1.1525    0.2220 N   0  0  0  0  0  0  0  0  0  0  0  0
    2.1951    1.7420    0.8722 N   0  0  0  0  0  0  0  0  0  0  0  0
    1.0686   -1.5049   -2.5781 Cl  0  0  0  0  0  0  0  0  0  0  0  0
  1  7  1  0  0  0  0
  2  1  1  0  0  0  0
  2  3  1  0  0  0  0
  2  8  1  1  0  0  0
  3 14  1  1  0  0  0
  4  3  1  0  0  0  0
  5  6  1  0  0  0  0
  5  4  2  0  0  0  0
  6  1  2  0  0  0  0
  9  4  1  0  0  0  0
 10  5  1  0  0  0  0
 11  6  1  0  0  0  0
 11 13  2  0  0  0  0
 12 11  2  0  0  0  0
 14 15  1  0  0  0  0
 16  2  1  0  0  0  0
M  RAD  3   3   2  14   2  15   3
M  END
