Coordinates from ORCA-job p-NO2-Ph-N2-Cl-B3LYPG-6-31G_dp-scan-d09-49-n400
 OpenBabel08281821083D

 16 15  0  0  0  0  0  0  0  0999 V2000
   -1.0434   -1.3601   -0.9873 C   0  0  0  0  0  0  0  0  0  0  0  0
    0.2427   -0.8476   -0.8016 C   0  0  0  0  0  0  0  0  0  0  0  0
    0.3496    0.5182   -0.5606 C   0  0  0  0  0  0  0  0  0  0  0  0
   -0.7470    1.4043   -0.4935 C   0  0  0  0  0  0  0  0  0  0  0  0
   -2.0107    0.8739   -0.6804 C   0  0  0  0  0  0  0  0  0  0  0  0
   -2.1320   -0.4994   -0.9241 C   0  0  0  0  0  0  0  0  0  0  0  0
   -1.1938   -2.4155   -1.1793 H   0  0  0  0  0  0  0  0  0  0  0  0
    1.1562   -1.4854   -0.8385 H   0  0  0  0  0  0  0  0  0  0  0  0
   -0.5978    2.4611   -0.3001 H   0  0  0  0  0  0  0  0  0  0  0  0
   -2.8983    1.4924   -0.6419 H   0  0  0  0  0  0  0  0  0  0  0  0
   -3.4960   -1.0517   -1.1226 N   0  0  0  0  0  0  0  0  0  0  0  0
   -4.4320   -0.2593   -1.0563 O   0  0  0  0  0  0  0  0  0  0  0  0
   -3.5866   -2.2542   -1.3379 O   0  0  0  0  0  0  0  0  0  0  0  0
    1.6208    1.1154   -0.3623 N   0  0  0  0  0  0  0  0  0  0  0  0
    2.2864    2.0057   -0.1598 N   0  0  0  0  0  0  0  0  0  0  0  0
    2.9631   -2.4399   -0.8475 Cl  0  0  0  0  0  0  0  0  0  0  0  0
  1  6  2  0  0  0  0
  1  2  1  0  0  0  0
  2  3  2  0  0  0  0
  3  4  1  0  0  0  0
  3 14  1  0  0  0  0
  4  9  1  0  0  0  0
  5 10  1  0  0  0  0
  5  4  2  0  0  0  0
  6  5  1  0  0  0  0
  7  1  1  0  0  0  0
  8  2  1  0  0  0  0
 11 12  2  0  0  0  0
 11  6  1  0  0  0  0
 13 11  2  0  0  0  0
 14 15  2  0  0  0  0
M  RAD  2  15   2  16   2
M  END
