Coordinates from ORCA-job p-NO2-Ph-N2-Cl-B3LYPG-6-31G_dp-scan-d09-49-n400
 OpenBabel08281821083D

 16 15  0  0  0  0  0  0  0  0999 V2000
   -1.1060   -1.4062   -1.0055 C   0  0  0  0  0  0  0  0  0  0  0  0
    0.1977   -0.9404   -0.8263 C   0  0  0  0  0  0  0  0  0  0  0  0
    0.3645    0.4130   -0.5790 C   0  0  0  0  0  0  0  0  0  0  0  0
   -0.6937    1.3365   -0.4982 C   0  0  0  0  0  0  0  0  0  0  0  0
   -1.9819    0.8588   -0.6773 C   0  0  0  0  0  0  0  0  0  0  0  0
   -2.1613   -0.5045   -0.9279 C   0  0  0  0  0  0  0  0  0  0  0  0
   -1.3039   -2.4523   -1.2029 H   0  0  0  0  0  0  0  0  0  0  0  0
    1.0900   -1.5834   -0.8677 H   0  0  0  0  0  0  0  0  0  0  0  0
   -0.5012    2.3854   -0.3001 H   0  0  0  0  0  0  0  0  0  0  0  0
   -2.8428    1.5132   -0.6268 H   0  0  0  0  0  0  0  0  0  0  0  0
   -3.5450   -1.0038   -1.1177 N   0  0  0  0  0  0  0  0  0  0  0  0
   -4.4514   -0.1788   -1.0415 O   0  0  0  0  0  0  0  0  0  0  0  0
   -3.6829   -2.2018   -1.3381 O   0  0  0  0  0  0  0  0  0  0  0  0
    1.6833    0.9633   -0.3857 N   0  0  0  0  0  0  0  0  0  0  0  0
    2.2188    1.9441   -0.1841 N   0  0  0  0  0  0  0  0  0  0  0  0
    3.1969   -1.8852   -0.7150 Cl  0  0  0  0  0  0  0  0  0  0  0  0
  1  6  2  0  0  0  0
  1  2  1  0  0  0  0
  2  3  2  0  0  0  0
  3  4  1  0  0  0  0
  3 14  1  0  0  0  0
  4  9  1  0  0  0  0
  5 10  1  0  0  0  0
  5  4  2  0  0  0  0
  6  5  1  0  0  0  0
  7  1  1  0  0  0  0
  8  2  1  0  0  0  0
 11 12  2  0  0  0  0
 11  6  1  0  0  0  0
 13 11  2  0  0  0  0
 14 15  2  0  0  0  0
M  RAD  2  15   2  16   2
M  END
