Coordinates from ORCA-job p-NO2-Ph-N2-Cl-B3LYPG-6-31G_dp-scan-d09-49-n400
 OpenBabel08281821083D

 16 16  0  0  0  0  0  0  0  0999 V2000
   -1.4427   -1.5780   -1.0409 C   0  0  0  0  0  0  0  0  0  0  0  0
   -0.0696   -1.4110   -0.9073 C   0  0  0  0  0  0  0  0  0  0  0  0
    0.4760   -0.1401   -0.6600 C   0  0  0  0  0  0  0  0  0  0  0  0
   -0.3766    0.9759   -0.5456 C   0  0  0  0  0  0  0  0  0  0  0  0
   -1.7476    0.8171   -0.6777 C   0  0  0  0  0  0  0  0  0  0  0  0
   -2.2641   -0.4582   -0.9239 C   0  0  0  0  0  0  0  0  0  0  0  0
   -1.8854   -2.5472   -1.2325 H   0  0  0  0  0  0  0  0  0  0  0  0
    0.6072   -2.2542   -0.9914 H   0  0  0  0  0  0  0  0  0  0  0  0
    0.0518    1.9519   -0.3536 H   0  0  0  0  0  0  0  0  0  0  0  0
   -2.4275    1.6557   -0.5947 H   0  0  0  0  0  0  0  0  0  0  0  0
   -3.7173   -0.6220   -1.0644 N   0  0  0  0  0  0  0  0  0  0  0  0
   -4.4184    0.3847   -0.9590 O   0  0  0  0  0  0  0  0  0  0  0  0
   -4.1467   -1.7555   -1.2790 O   0  0  0  0  0  0  0  0  0  0  0  0
    1.8796   -0.1093   -0.5461 N   0  0  0  0  0  0  0  0  0  0  0  0
    2.3589    1.0638   -0.3248 N   0  0  0  0  0  0  0  0  0  0  0  0
    3.6036    1.2843   -0.1929 Cl  0  0  0  0  0  0  0  0  0  0  0  0
  1  6  2  0  0  0  0
  1  2  1  0  0  0  0
  2  3  2  0  0  0  0
  3 14  1  0  0  0  0
  3  4  1  0  0  0  0
  4  9  1  0  0  0  0
  5 10  1  0  0  0  0
  5  4  2  0  0  0  0
  6  5  1  0  0  0  0
  7  1  1  0  0  0  0
  8  2  1  0  0  0  0
 11 12  2  0  0  0  0
 11  6  1  0  0  0  0
 13 11  2  0  0  0  0
 14 15  1  0  0  0  0
 15 16  1  0  0  0  0
M  RAD  2  14   2  15   2
M  END
