Coordinates from ORCA-job p-NO2-Ph-N2-Cl-B3LYPG-6-31G_dp-scan-d09-49-n400
 OpenBabel08281821083D

 16 16  0  0  0  0  0  0  0  0999 V2000
   -1.4494   -1.5592   -1.0382 C   0  0  0  0  0  0  0  0  0  0  0  0
   -0.0819   -1.3389   -0.8964 C   0  0  0  0  0  0  0  0  0  0  0  0
    0.3787   -0.0433   -0.6516 C   0  0  0  0  0  0  0  0  0  0  0  0
   -0.4969    1.0471   -0.5427 C   0  0  0  0  0  0  0  0  0  0  0  0
   -1.8606    0.8274   -0.6839 C   0  0  0  0  0  0  0  0  0  0  0  0
   -2.3108   -0.4711   -0.9293 C   0  0  0  0  0  0  0  0  0  0  0  0
   -1.8528   -2.5451   -1.2299 H   0  0  0  0  0  0  0  0  0  0  0  0
    0.6326   -2.1505   -0.9724 H   0  0  0  0  0  0  0  0  0  0  0  0
   -0.1080    2.0408   -0.3510 H   0  0  0  0  0  0  0  0  0  0  0  0
   -2.5781    1.6346   -0.6088 H   0  0  0  0  0  0  0  0  0  0  0  0
   -3.7640   -0.6990   -1.0805 N   0  0  0  0  0  0  0  0  0  0  0  0
   -4.5007    0.2788   -0.9811 O   0  0  0  0  0  0  0  0  0  0  0  0
   -4.1346   -1.8498   -1.2957 O   0  0  0  0  0  0  0  0  0  0  0  0
    1.8008    0.0955   -0.5202 N   0  0  0  0  0  0  0  0  0  0  0  0
    2.3272    1.1324   -0.3168 N   0  0  0  0  0  0  0  0  0  0  0  0
    4.4796    0.8584   -0.1952 Cl  0  0  0  0  0  0  0  0  0  0  0  0
  1  6  2  0  0  0  0
  1  2  1  0  0  0  0
  2  3  2  0  0  0  0
  3  4  1  0  0  0  0
  3 14  1  0  0  0  0
  4  9  1  0  0  0  0
  5 10  1  0  0  0  0
  5  4  2  0  0  0  0
  6  5  1  0  0  0  0
  7  1  1  0  0  0  0
  8  2  1  0  0  0  0
 11 12  2  0  0  0  0
 11  6  1  0  0  0  0
 13 11  2  0  0  0  0
 14 15  1  0  0  0  0
 15 16  1  0  0  0  0
M  RAD  2  14   2  15   2
M  END
