Coordinates from ORCA-job p-NO2-Ph-N2-Cl-B3LYPG-6-31G_dp-scan-d09-49-n400
 OpenBabel08281821083D

 16 15  0  0  0  0  0  0  0  0999 V2000
   -1.1391   -1.4369   -1.0163 C   0  0  0  0  0  0  0  0  0  0  0  0
    0.1753   -1.0027   -0.8412 C   0  0  0  0  0  0  0  0  0  0  0  0
    0.3838    0.3443   -0.5888 C   0  0  0  0  0  0  0  0  0  0  0  0
   -0.6530    1.2880   -0.5007 C   0  0  0  0  0  0  0  0  0  0  0  0
   -1.9554    0.8449   -0.6755 C   0  0  0  0  0  0  0  0  0  0  0  0
   -2.1726   -0.5106   -0.9304 C   0  0  0  0  0  0  0  0  0  0  0  0
   -1.3643   -2.4767   -1.2168 H   0  0  0  0  0  0  0  0  0  0  0  0
    1.0416   -1.6636   -0.8900 H   0  0  0  0  0  0  0  0  0  0  0  0
   -0.4353    2.3309   -0.2998 H   0  0  0  0  0  0  0  0  0  0  0  0
   -2.7979    1.5223   -0.6182 H   0  0  0  0  0  0  0  0  0  0  0  0
   -3.5671   -0.9755   -1.1154 N   0  0  0  0  0  0  0  0  0  0  0  0
   -4.4543   -0.1304   -1.0330 O   0  0  0  0  0  0  0  0  0  0  0  0
   -3.7356   -2.1701   -1.3368 O   0  0  0  0  0  0  0  0  0  0  0  0
    1.7254    0.8680   -0.3994 N   0  0  0  0  0  0  0  0  0  0  0  0
    2.1920    1.8886   -0.2016 N   0  0  0  0  0  0  0  0  0  0  0  0
    3.2376   -1.4626   -0.6301 Cl  0  0  0  0  0  0  0  0  0  0  0  0
  1  6  2  0  0  0  0
  1  2  1  0  0  0  0
  2  3  2  0  0  0  0
  3  4  1  0  0  0  0
  3 14  1  0  0  0  0
  4  9  1  0  0  0  0
  5 10  1  0  0  0  0
  5  4  2  0  0  0  0
  6  5  1  0  0  0  0
  7  1  1  0  0  0  0
  8  2  1  0  0  0  0
 11 12  2  0  0  0  0
 11  6  1  0  0  0  0
 13 11  2  0  0  0  0
 14 15  2  0  0  0  0
M  RAD  2  15   2  16   2
M  END
