Coordinates from ORCA-job p-NO2-Ph-N2-Cl-B3LYPG-6-31G_dp-scan-d09-49-n400
 OpenBabel08281821083D

 16 15  0  0  0  0  0  0  0  0999 V2000
   -1.1268   -1.4248   -1.0127 C   0  0  0  0  0  0  0  0  0  0  0  0
    0.1834   -0.9781   -0.8361 C   0  0  0  0  0  0  0  0  0  0  0  0
    0.3753    0.3711   -0.5856 C   0  0  0  0  0  0  0  0  0  0  0  0
   -0.6694    1.3074   -0.4999 C   0  0  0  0  0  0  0  0  0  0  0  0
   -1.9665    0.8507   -0.6761 C   0  0  0  0  0  0  0  0  0  0  0  0
   -2.1689   -0.5080   -0.9296 C   0  0  0  0  0  0  0  0  0  0  0  0
   -1.3416   -2.4671   -1.2122 H   0  0  0  0  0  0  0  0  0  0  0  0
    1.0614   -1.6297   -0.8816 H   0  0  0  0  0  0  0  0  0  0  0  0
   -0.4615    2.3527   -0.2997 H   0  0  0  0  0  0  0  0  0  0  0  0
   -2.8164    1.5190   -0.6210 H   0  0  0  0  0  0  0  0  0  0  0  0
   -3.5593   -0.9864   -1.1162 N   0  0  0  0  0  0  0  0  0  0  0  0
   -4.4541   -0.1492   -1.0352 O   0  0  0  0  0  0  0  0  0  0  0  0
   -3.7159   -2.1823   -1.3373 O   0  0  0  0  0  0  0  0  0  0  0  0
    1.7089    0.9038   -0.3945 N   0  0  0  0  0  0  0  0  0  0  0  0
    2.2014    1.9100   -0.1956 N   0  0  0  0  0  0  0  0  0  0  0  0
    3.2310   -1.6312   -0.6604 Cl  0  0  0  0  0  0  0  0  0  0  0  0
  1  6  2  0  0  0  0
  1  2  1  0  0  0  0
  2  3  2  0  0  0  0
  3  4  1  0  0  0  0
  3 14  1  0  0  0  0
  4  9  1  0  0  0  0
  5 10  1  0  0  0  0
  5  4  2  0  0  0  0
  6  5  1  0  0  0  0
  7  1  1  0  0  0  0
  8  2  1  0  0  0  0
 11 12  2  0  0  0  0
 11  6  1  0  0  0  0
 13 11  2  0  0  0  0
 14 15  2  0  0  0  0
M  RAD  2  15   2  16   2
M  END
