Coordinates from ORCA-job p-NO2-Ph-N2-Cl-B3LYPG-6-31G_dp-scan-d09-49-n400
 OpenBabel08281821083D

 16 15  0  0  0  0  0  0  0  0999 V2000
   -1.0511   -1.3189   -0.9819 C   0  0  0  0  0  0  0  0  0  0  0  0
    0.2218   -0.7806   -0.7936 C   0  0  0  0  0  0  0  0  0  0  0  0
    0.2818    0.6012   -0.5529 C   0  0  0  0  0  0  0  0  0  0  0  0
   -0.8307    1.4597   -0.4905 C   0  0  0  0  0  0  0  0  0  0  0  0
   -2.0796    0.8951   -0.6816 C   0  0  0  0  0  0  0  0  0  0  0  0
   -2.1613   -0.4820   -0.9234 C   0  0  0  0  0  0  0  0  0  0  0  0
   -1.1816   -2.3773   -1.1733 H   0  0  0  0  0  0  0  0  0  0  0  0
    1.1545   -1.3840   -0.8238 H   0  0  0  0  0  0  0  0  0  0  0  0
   -0.7083    2.5197   -0.2982 H   0  0  0  0  0  0  0  0  0  0  0  0
   -2.9856    1.4858   -0.6486 H   0  0  0  0  0  0  0  0  0  0  0  0
   -3.5083   -1.0710   -1.1266 N   0  0  0  0  0  0  0  0  0  0  0  0
   -4.4664   -0.3051   -1.0645 O   0  0  0  0  0  0  0  0  0  0  0  0
   -3.5656   -2.2764   -1.3410 O   0  0  0  0  0  0  0  0  0  0  0  0
    1.5512    1.1369   -0.3653 N   0  0  0  0  0  0  0  0  0  0  0  0
    2.6652    1.2541   -0.2575 N   0  0  0  0  0  0  0  0  0  0  0  0
    3.1452   -2.0993   -0.7711 Cl  0  0  0  0  0  0  0  0  0  0  0  0
  1  6  2  0  0  0  0
  1  2  1  0  0  0  0
  2  3  2  0  0  0  0
  3  4  1  0  0  0  0
  3 14  1  0  0  0  0
  4  9  1  0  0  0  0
  5 10  1  0  0  0  0
  5  4  2  0  0  0  0
  6  5  1  0  0  0  0
  7  1  1  0  0  0  0
  8  2  1  0  0  0  0
 11 12  2  0  0  0  0
 11  6  1  0  0  0  0
 13 11  2  0  0  0  0
 14 15  1  0  0  0  0
M  RAD  3  14   2  15   3  16   2
M  END
