Coordinates from ORCA-job p-NO2-Ph-N2-Cl-B3LYPG-6-31G_dp-scan-d09-49-n400
 OpenBabel08281821083D

 16 16  0  0  0  0  0  0  0  0999 V2000
   -1.4441   -1.5757   -1.0399 C   0  0  0  0  0  0  0  0  0  0  0  0
   -0.0712   -1.4002   -0.9045 C   0  0  0  0  0  0  0  0  0  0  0  0
    0.4618   -0.1260   -0.6574 C   0  0  0  0  0  0  0  0  0  0  0  0
   -0.3934    0.9863   -0.5434 C   0  0  0  0  0  0  0  0  0  0  0  0
   -1.7636    0.8190   -0.6771 C   0  0  0  0  0  0  0  0  0  0  0  0
   -2.2701   -0.4601   -0.9239 C   0  0  0  0  0  0  0  0  0  0  0  0
   -1.8814   -2.5471   -1.2320 H   0  0  0  0  0  0  0  0  0  0  0  0
    0.6120   -2.2383   -0.9872 H   0  0  0  0  0  0  0  0  0  0  0  0
    0.0308    1.9642   -0.3510 H   0  0  0  0  0  0  0  0  0  0  0  0
   -2.4493    1.6529   -0.5950 H   0  0  0  0  0  0  0  0  0  0  0  0
   -3.7244   -0.6330   -1.0666 N   0  0  0  0  0  0  0  0  0  0  0  0
   -4.4301    0.3700   -0.9651 O   0  0  0  0  0  0  0  0  0  0  0  0
   -4.1448   -1.7685   -1.2851 O   0  0  0  0  0  0  0  0  0  0  0  0
    1.8722   -0.0859   -0.5414 N   0  0  0  0  0  0  0  0  0  0  0  0
    2.3346    1.0773   -0.3283 N   0  0  0  0  0  0  0  0  0  0  0  0
    3.7422    1.2231   -0.1959 Cl  0  0  0  0  0  0  0  0  0  0  0  0
  1  6  2  0  0  0  0
  1  2  1  0  0  0  0
  2  3  2  0  0  0  0
  3  4  1  0  0  0  0
  3 14  1  0  0  0  0
  4  9  1  0  0  0  0
  5 10  1  0  0  0  0
  5  4  2  0  0  0  0
  6  5  1  0  0  0  0
  7  1  1  0  0  0  0
  8  2  1  0  0  0  0
 11 12  2  0  0  0  0
 11  6  1  0  0  0  0
 13 11  2  0  0  0  0
 14 15  1  0  0  0  0
 15 16  1  0  0  0  0
M  RAD  2  14   2  15   2
M  END
