Coordinates from ORCA-job p-NO2-Ph-N2-Cl-B3LYPG-6-31G_dp-scan-d09-49-n400
 OpenBabel08281821083D

 16 15  0  0  0  0  0  0  0  0999 V2000
   -1.0754   -1.3255   -0.9856 C   0  0  0  0  0  0  0  0  0  0  0  0
    0.1991   -0.7940   -0.7980 C   0  0  0  0  0  0  0  0  0  0  0  0
    0.2785    0.5827   -0.5563 C   0  0  0  0  0  0  0  0  0  0  0  0
   -0.8249    1.4436   -0.4924 C   0  0  0  0  0  0  0  0  0  0  0  0
   -2.0845    0.8933   -0.6817 C   0  0  0  0  0  0  0  0  0  0  0  0
   -2.1801   -0.4790   -0.9243 C   0  0  0  0  0  0  0  0  0  0  0  0
   -1.2170   -2.3819   -1.1783 H   0  0  0  0  0  0  0  0  0  0  0  0
    1.1187   -1.3963   -0.8301 H   0  0  0  0  0  0  0  0  0  0  0  0
   -0.6902    2.5019   -0.2994 H   0  0  0  0  0  0  0  0  0  0  0  0
   -2.9835    1.4944   -0.6460 H   0  0  0  0  0  0  0  0  0  0  0  0
   -3.5312   -1.0588   -1.1262 N   0  0  0  0  0  0  0  0  0  0  0  0
   -4.4846   -0.2877   -1.0632 O   0  0  0  0  0  0  0  0  0  0  0  0
   -3.5970   -2.2639   -1.3414 O   0  0  0  0  0  0  0  0  0  0  0  0
    1.5596    1.1340   -0.3655 N   0  0  0  0  0  0  0  0  0  0  0  0
    2.6894    1.0479   -0.2912 N   0  0  0  0  0  0  0  0  0  0  0  0
    3.3043   -1.8528   -0.7143 Cl  0  0  0  0  0  0  0  0  0  0  0  0
  1  6  2  0  0  0  0
  1  2  1  0  0  0  0
  2  3  2  0  0  0  0
  3  4  1  0  0  0  0
  3 14  1  0  0  0  0
  4  9  1  0  0  0  0
  5 10  1  0  0  0  0
  5  4  2  0  0  0  0
  6  5  1  0  0  0  0
  7  1  1  0  0  0  0
  8  2  1  0  0  0  0
 11 12  2  0  0  0  0
 11  6  1  0  0  0  0
 13 11  2  0  0  0  0
 14 15  2  0  0  0  0
M  RAD  2  15   2  16   2
M  END
