Coordinates from ORCA-job p-NO2-Ph-N2-Cl-B3LYPG-6-31G_dp-scan-d09-49-n400
 OpenBabel08281821083D

 16 16  0  0  0  0  0  0  0  0999 V2000
   -1.4437   -1.5763   -1.0403 C   0  0  0  0  0  0  0  0  0  0  0  0
   -0.0708   -1.4030   -0.9052 C   0  0  0  0  0  0  0  0  0  0  0  0
    0.4655   -0.1297   -0.6580 C   0  0  0  0  0  0  0  0  0  0  0  0
   -0.3889    0.9836   -0.5439 C   0  0  0  0  0  0  0  0  0  0  0  0
   -1.7594    0.8185   -0.6774 C   0  0  0  0  0  0  0  0  0  0  0  0
   -2.2685   -0.4596   -0.9242 C   0  0  0  0  0  0  0  0  0  0  0  0
   -1.8825   -2.5471   -1.2324 H   0  0  0  0  0  0  0  0  0  0  0  0
    0.6108   -2.2425   -0.9882 H   0  0  0  0  0  0  0  0  0  0  0  0
    0.0367    1.9608   -0.3516 H   0  0  0  0  0  0  0  0  0  0  0  0
   -2.4436    1.6537   -0.5952 H   0  0  0  0  0  0  0  0  0  0  0  0
   -3.7225   -0.6301   -1.0666 N   0  0  0  0  0  0  0  0  0  0  0  0
   -4.4271    0.3738   -0.9629 O   0  0  0  0  0  0  0  0  0  0  0  0
   -4.1454   -1.7652   -1.2830 O   0  0  0  0  0  0  0  0  0  0  0  0
    1.8741   -0.0920   -0.5423 N   0  0  0  0  0  0  0  0  0  0  0  0
    2.3409    1.0738   -0.3275 N   0  0  0  0  0  0  0  0  0  0  0  0
    3.7058    1.2393   -0.1951 Cl  0  0  0  0  0  0  0  0  0  0  0  0
  1  6  2  0  0  0  0
  1  2  1  0  0  0  0
  2  3  2  0  0  0  0
  3  4  1  0  0  0  0
  3 14  1  0  0  0  0
  4  9  1  0  0  0  0
  5 10  1  0  0  0  0
  5  4  2  0  0  0  0
  6  5  1  0  0  0  0
  7  1  1  0  0  0  0
  8  2  1  0  0  0  0
 11 12  2  0  0  0  0
 11  6  1  0  0  0  0
 13 11  2  0  0  0  0
 14 15  1  0  0  0  0
 15 16  1  0  0  0  0
M  RAD  2  14   2  15   2
M  END
