Coordinates from ORCA-job p-NO2-Ph-N2-Cl-B3LYPG-6-31G_dp-scan-d09-49-n400
 OpenBabel08281821083D

 16 15  0  0  0  0  0  0  0  0999 V2000
   -1.0806   -1.3284   -0.9872 C   0  0  0  0  0  0  0  0  0  0  0  0
    0.1951   -0.8004   -0.8002 C   0  0  0  0  0  0  0  0  0  0  0  0
    0.2802    0.5761   -0.5576 C   0  0  0  0  0  0  0  0  0  0  0  0
   -0.8216    1.4384   -0.4930 C   0  0  0  0  0  0  0  0  0  0  0  0
   -2.0833    0.8923   -0.6815 C   0  0  0  0  0  0  0  0  0  0  0  0
   -2.1833   -0.4792   -0.9247 C   0  0  0  0  0  0  0  0  0  0  0  0
   -1.2256   -2.3843   -1.1803 H   0  0  0  0  0  0  0  0  0  0  0  0
    1.1111   -1.4048   -0.8333 H   0  0  0  0  0  0  0  0  0  0  0  0
   -0.6837    2.4963   -0.2996 H   0  0  0  0  0  0  0  0  0  0  0  0
   -2.9804    1.4963   -0.6448 H   0  0  0  0  0  0  0  0  0  0  0  0
   -3.5358   -1.0555   -1.1259 N   0  0  0  0  0  0  0  0  0  0  0  0
   -4.4874   -0.2823   -1.0617 O   0  0  0  0  0  0  0  0  0  0  0  0
   -3.6047   -2.2605   -1.3412 O   0  0  0  0  0  0  0  0  0  0  0  0
    1.5615    1.1295   -0.3666 N   0  0  0  0  0  0  0  0  0  0  0  0
    2.6916    1.0251   -0.2948 N   0  0  0  0  0  0  0  0  0  0  0  0
    3.3280   -1.8008   -0.7013 Cl  0  0  0  0  0  0  0  0  0  0  0  0
  1  6  2  0  0  0  0
  1  2  1  0  0  0  0
  2  3  2  0  0  0  0
  3  4  1  0  0  0  0
  3 14  1  0  0  0  0
  4  9  1  0  0  0  0
  5 10  1  0  0  0  0
  5  4  2  0  0  0  0
  6  5  1  0  0  0  0
  7  1  1  0  0  0  0
  8  2  1  0  0  0  0
 11 12  2  0  0  0  0
 11  6  1  0  0  0  0
 13 11  2  0  0  0  0
 14 15  2  0  0  0  0
M  RAD  2  15   2  16   2
M  END
