Coordinates from ORCA-job p-NO2-Ph-N2-Cl-B3LYPG-6-31G_dp-scan-d09-49-n400
 OpenBabel08281821083D

 16 16  0  0  0  0  0  0  0  0999 V2000
   -1.4496   -1.5661   -1.0393 C   0  0  0  0  0  0  0  0  0  0  0  0
   -0.0794   -1.3632   -0.8994 C   0  0  0  0  0  0  0  0  0  0  0  0
    0.4077   -0.0759   -0.6536 C   0  0  0  0  0  0  0  0  0  0  0  0
   -0.4581    1.0235   -0.5424 C   0  0  0  0  0  0  0  0  0  0  0  0
   -1.8249    0.8243   -0.6811 C   0  0  0  0  0  0  0  0  0  0  0  0
   -2.2963   -0.4669   -0.9275 C   0  0  0  0  0  0  0  0  0  0  0  0
   -1.8664   -2.5464   -1.2314 H   0  0  0  0  0  0  0  0  0  0  0  0
    0.6236   -2.1847   -0.9775 H   0  0  0  0  0  0  0  0  0  0  0  0
   -0.0575    2.0120   -0.3499 H   0  0  0  0  0  0  0  0  0  0  0  0
   -2.5302    1.6419   -0.6031 H   0  0  0  0  0  0  0  0  0  0  0  0
   -3.7513   -0.6734   -1.0758 N   0  0  0  0  0  0  0  0  0  0  0  0
   -4.4753    0.3144   -0.9753 O   0  0  0  0  0  0  0  0  0  0  0  0
   -4.1408   -1.8184   -1.2921 O   0  0  0  0  0  0  0  0  0  0  0  0
    1.8345    0.0168   -0.5279 N   0  0  0  0  0  0  0  0  0  0  0  0
    2.3001    1.1097   -0.3279 N   0  0  0  0  0  0  0  0  0  0  0  0
    4.2453    1.0102   -0.1894 Cl  0  0  0  0  0  0  0  0  0  0  0  0
  1  6  2  0  0  0  0
  1  2  1  0  0  0  0
  2  3  2  0  0  0  0
  3  4  1  0  0  0  0
  3 14  1  0  0  0  0
  4  9  1  0  0  0  0
  5 10  1  0  0  0  0
  5  4  2  0  0  0  0
  6  5  1  0  0  0  0
  7  1  1  0  0  0  0
  8  2  1  0  0  0  0
 11 12  2  0  0  0  0
 11  6  1  0  0  0  0
 13 11  2  0  0  0  0
 14 15  1  0  0  0  0
 15 16  1  0  0  0  0
M  RAD  2  14   2  15   2
M  END
