Coordinates from ORCA-job p-NO2-Ph-N2-Cl-B3LYPG-6-31G_dp-scan-d09-49-n400
 OpenBabel08281821083D

 16 15  0  0  0  0  0  0  0  0999 V2000
   -1.4298   -1.5342   -1.0321 C   0  0  0  0  0  0  0  0  0  0  0  0
   -0.0726   -1.2636   -0.8824 C   0  0  0  0  0  0  0  0  0  0  0  0
    0.3259    0.0523   -0.6386 C   0  0  0  0  0  0  0  0  0  0  0  0
   -0.5858    1.1133   -0.5385 C   0  0  0  0  0  0  0  0  0  0  0  0
   -1.9386    0.8377   -0.6890 C   0  0  0  0  0  0  0  0  0  0  0  0
   -2.3324   -0.4787   -0.9327 C   0  0  0  0  0  0  0  0  0  0  0  0
   -1.7945   -2.5352   -1.2234 H   0  0  0  0  0  0  0  0  0  0  0  0
    0.6737   -2.0468   -0.9509 H   0  0  0  0  0  0  0  0  0  0  0  0
   -0.2338    2.1210   -0.3475 H   0  0  0  0  0  0  0  0  0  0  0  0
   -2.6886    1.6157   -0.6222 H   0  0  0  0  0  0  0  0  0  0  0  0
   -3.7769   -0.7643   -1.0933 N   0  0  0  0  0  0  0  0  0  0  0  0
   -4.5492    0.1852   -1.0002 O   0  0  0  0  0  0  0  0  0  0  0  0
   -4.0976   -1.9291   -1.3081 O   0  0  0  0  0  0  0  0  0  0  0  0
    1.7211    0.2857   -0.4943 N   0  0  0  0  0  0  0  0  0  0  0  0
    2.4005    1.1961   -0.2896 N   0  0  0  0  0  0  0  0  0  0  0  0
    4.8596    0.4027   -0.2510 Cl  0  0  0  0  0  0  0  0  0  0  0  0
  1  6  2  0  0  0  0
  1  2  1  0  0  0  0
  2  3  2  0  0  0  0
  3  4  1  0  0  0  0
  3 14  1  0  0  0  0
  4  9  1  0  0  0  0
  5 10  1  0  0  0  0
  5  4  2  0  0  0  0
  6  5  1  0  0  0  0
  7  1  1  0  0  0  0
  8  2  1  0  0  0  0
 11 12  2  0  0  0  0
 11  6  1  0  0  0  0
 13 11  2  0  0  0  0
 14 15  2  0  0  0  0
M  RAD  2  15   2  16   2
M  END
