Coordinates from ORCA-job p-NO2-Ph-N2-Cl-B3LYPG-6-31G_dp-scan-d09-49-n400
 OpenBabel08281821083D

 16 15  0  0  0  0  0  0  0  0999 V2000
   -1.1126   -1.4119   -1.0080 C   0  0  0  0  0  0  0  0  0  0  0  0
    0.1931   -0.9519   -0.8295 C   0  0  0  0  0  0  0  0  0  0  0  0
    0.3675    0.4002   -0.5812 C   0  0  0  0  0  0  0  0  0  0  0  0
   -0.6864    1.3278   -0.4988 C   0  0  0  0  0  0  0  0  0  0  0  0
   -1.9774    0.8564   -0.6770 C   0  0  0  0  0  0  0  0  0  0  0  0
   -2.1639   -0.5055   -0.9286 C   0  0  0  0  0  0  0  0  0  0  0  0
   -1.3158   -2.4569   -1.2059 H   0  0  0  0  0  0  0  0  0  0  0  0
    1.0813   -1.5973   -0.8719 H   0  0  0  0  0  0  0  0  0  0  0  0
   -0.4892    2.3755   -0.3001 H   0  0  0  0  0  0  0  0  0  0  0  0
   -2.8349    1.5152   -0.6251 H   0  0  0  0  0  0  0  0  0  0  0  0
   -3.5497   -0.9984   -1.1170 N   0  0  0  0  0  0  0  0  0  0  0  0
   -4.4525   -0.1696   -1.0394 O   0  0  0  0  0  0  0  0  0  0  0  0
   -3.6935   -2.1958   -1.3376 O   0  0  0  0  0  0  0  0  0  0  0  0
    1.6911    0.9450   -0.3882 N   0  0  0  0  0  0  0  0  0  0  0  0
    2.2128    1.9341   -0.1872 N   0  0  0  0  0  0  0  0  0  0  0  0
    3.2113   -1.8090   -0.6981 Cl  0  0  0  0  0  0  0  0  0  0  0  0
  1  6  2  0  0  0  0
  1  2  1  0  0  0  0
  2  3  2  0  0  0  0
  3  4  1  0  0  0  0
  3 14  1  0  0  0  0
  4  9  1  0  0  0  0
  5 10  1  0  0  0  0
  5  4  2  0  0  0  0
  6  5  1  0  0  0  0
  7  1  1  0  0  0  0
  8  2  1  0  0  0  0
 11 12  2  0  0  0  0
 11  6  1  0  0  0  0
 13 11  2  0  0  0  0
 14 15  2  0  0  0  0
M  RAD  2  15   2  16   2
M  END
