Coordinates from ORCA-job p-NO2-Ph-N2-Cl-B3LYPG-6-31G_dp-scan-d09-49-n400
 OpenBabel08281821083D

 16 16  0  0  1  0  0  0  0  0999 V2000
   -0.9106   -1.4203   -0.6781 C   0  0  0  0  0  0  0  0  0  0  0  0
    0.4639   -0.8901   -0.6878 C   0  0  2  0  0  0  0  0  0  0  0  0
    0.4839    0.5704   -0.4662 C   0  0  1  0  0  0  0  0  0  0  0  0
   -0.6325    1.4046   -0.8497 C   0  0  0  0  0  0  0  0  0  0  0  0
   -1.8308    0.8245   -1.1104 C   0  0  0  0  0  0  0  0  0  0  0  0
   -1.9541   -0.5980   -0.9316 C   0  0  0  0  0  0  0  0  0  0  0  0
   -1.0675   -2.4834   -0.5488 H   0  0  0  0  0  0  0  0  0  0  0  0
    1.1653   -1.4427   -0.0695 H   0  0  0  0  0  0  0  0  0  0  0  0
   -0.5002    2.4805   -0.8934 H   0  0  0  0  0  0  0  0  0  0  0  0
   -2.7004    1.3985   -1.3984 H   0  0  0  0  0  0  0  0  0  0  0  0
   -3.3067   -1.1870   -1.0078 N   0  0  0  0  0  0  0  0  0  0  0  0
   -4.2308   -0.4250   -1.2874 O   0  0  0  0  0  0  0  0  0  0  0  0
   -3.4257   -2.3896   -0.7874 O   0  0  0  0  0  0  0  0  0  0  0  0
    1.4929    1.1499    0.1690 N   0  0  0  0  0  0  0  0  0  0  0  0
    2.2946    1.7145    0.7513 N   0  0  0  0  0  0  0  0  0  0  0  0
    1.1399   -1.4491   -2.4977 Cl  0  0  0  0  0  0  0  0  0  0  0  0
  1  7  1  0  0  0  0
  2  1  1  0  0  0  0
  2  3  1  0  0  0  0
  2  8  1  1  0  0  0
  3 14  1  1  0  0  0
  4  3  1  0  0  0  0
  5  6  1  0  0  0  0
  5  4  2  0  0  0  0
  6  1  2  0  0  0  0
  9  4  1  0  0  0  0
 10  5  1  0  0  0  0
 11  6  1  0  0  0  0
 11 13  2  0  0  0  0
 12 11  2  0  0  0  0
 14 15  1  0  0  0  0
 16  2  1  0  0  0  0
M  RAD  3   3   2  14   2  15   3
M  END
