Coordinates from ORCA-job p-NO2-Ph-N2-Cl-B3LYPG-6-31G_dp-scan-d09-49-n400
 OpenBabel08281821083D

 16 15  0  0  0  0  0  0  0  0999 V2000
   -1.0778   -1.3840   -0.9970 C   0  0  0  0  0  0  0  0  0  0  0  0
    0.2176   -0.8953   -0.8147 C   0  0  0  0  0  0  0  0  0  0  0  0
    0.3553    0.4631   -0.5706 C   0  0  0  0  0  0  0  0  0  0  0  0
   -0.7201    1.3697   -0.4962 C   0  0  0  0  0  0  0  0  0  0  0  0
   -1.9972    0.8670   -0.6790 C   0  0  0  0  0  0  0  0  0  0  0  0
   -2.1491   -0.5014   -0.9262 C   0  0  0  0  0  0  0  0  0  0  0  0
   -1.2540   -2.4347   -1.1918 H   0  0  0  0  0  0  0  0  0  0  0  0
    1.1224   -1.5329   -0.8533 H   0  0  0  0  0  0  0  0  0  0  0  0
   -0.5473    2.4225   -0.3003 H   0  0  0  0  0  0  0  0  0  0  0  0
   -2.8709    1.5046   -0.6342 H   0  0  0  0  0  0  0  0  0  0  0  0
   -3.5238   -1.0259   -1.1201 N   0  0  0  0  0  0  0  0  0  0  0  0
   -4.4443   -0.2163   -1.0485 O   0  0  0  0  0  0  0  0  0  0  0  0
   -3.6394   -2.2264   -1.3372 O   0  0  0  0  0  0  0  0  0  0  0  0
    1.6547    1.0345   -0.3746 N   0  0  0  0  0  0  0  0  0  0  0  0
    2.2453    1.9795   -0.1707 N   0  0  0  0  0  0  0  0  0  0  0  0
    3.1096   -2.1663   -0.7793 Cl  0  0  0  0  0  0  0  0  0  0  0  0
  1  6  2  0  0  0  0
  1  2  1  0  0  0  0
  2  3  2  0  0  0  0
  3  4  1  0  0  0  0
  3 14  1  0  0  0  0
  4  9  1  0  0  0  0
  5 10  1  0  0  0  0
  5  4  2  0  0  0  0
  6  5  1  0  0  0  0
  7  1  1  0  0  0  0
  8  2  1  0  0  0  0
 11 12  2  0  0  0  0
 11  6  1  0  0  0  0
 13 11  2  0  0  0  0
 14 15  2  0  0  0  0
M  RAD  2  15   2  16   2
M  END
