Coordinates from ORCA-job p-NO2-Ph-N2-Cl-B3LYPG-6-31G_dp-scan-d09-49-n400
 OpenBabel08281821083D

 16 16  0  0  0  0  0  0  0  0999 V2000
   -1.4448   -1.5740   -1.0401 C   0  0  0  0  0  0  0  0  0  0  0  0
   -0.0723   -1.3934   -0.9034 C   0  0  0  0  0  0  0  0  0  0  0  0
    0.4529   -0.1171   -0.6563 C   0  0  0  0  0  0  0  0  0  0  0  0
   -0.4041    0.9930   -0.5430 C   0  0  0  0  0  0  0  0  0  0  0  0
   -1.7738    0.8202   -0.6780 C   0  0  0  0  0  0  0  0  0  0  0  0
   -2.2740   -0.4611   -0.9250 C   0  0  0  0  0  0  0  0  0  0  0  0
   -1.8787   -2.5469   -1.2325 H   0  0  0  0  0  0  0  0  0  0  0  0
    0.6147   -2.2284   -0.9851 H   0  0  0  0  0  0  0  0  0  0  0  0
    0.0160    1.9726   -0.3504 H   0  0  0  0  0  0  0  0  0  0  0  0
   -2.4630    1.6512   -0.5968 H   0  0  0  0  0  0  0  0  0  0  0  0
   -3.7288   -0.6397   -1.0694 N   0  0  0  0  0  0  0  0  0  0  0  0
   -4.4378    0.3603   -0.9659 O   0  0  0  0  0  0  0  0  0  0  0  0
   -4.1440   -1.7773   -1.2851 O   0  0  0  0  0  0  0  0  0  0  0  0
    1.8674   -0.0712   -0.5389 N   0  0  0  0  0  0  0  0  0  0  0  0
    2.3196    1.0850   -0.3287 N   0  0  0  0  0  0  0  0  0  0  0  0
    3.8320    1.1848   -0.1951 Cl  0  0  0  0  0  0  0  0  0  0  0  0
  1  6  2  0  0  0  0
  1  2  1  0  0  0  0
  2  3  2  0  0  0  0
  3  4  1  0  0  0  0
  3 14  1  0  0  0  0
  4  9  1  0  0  0  0
  5 10  1  0  0  0  0
  5  4  2  0  0  0  0
  6  5  1  0  0  0  0
  7  1  1  0  0  0  0
  8  2  1  0  0  0  0
 11 12  2  0  0  0  0
 11  6  1  0  0  0  0
 13 11  2  0  0  0  0
 14 15  1  0  0  0  0
 15 16  1  0  0  0  0
M  RAD  2  14   2  15   2
M  END
