Coordinates from ORCA-job p-NO2-Ph-N2-Cl-B3LYPG-6-31G_dp-scan-d09-49-n400
 OpenBabel08281821083D

 16 15  0  0  0  0  0  0  0  0999 V2000
   -1.4141   -1.5211   -1.0293 C   0  0  0  0  0  0  0  0  0  0  0  0
   -0.0622   -1.2284   -0.8754 C   0  0  0  0  0  0  0  0  0  0  0  0
    0.3115    0.0954   -0.6317 C   0  0  0  0  0  0  0  0  0  0  0  0
   -0.6177    1.1423   -0.5359 C   0  0  0  0  0  0  0  0  0  0  0  0
   -1.9649    0.8428   -0.6909 C   0  0  0  0  0  0  0  0  0  0  0  0
   -2.3346   -0.4806   -0.9342 C   0  0  0  0  0  0  0  0  0  0  0  0
   -1.7615   -2.5283   -1.2207 H   0  0  0  0  0  0  0  0  0  0  0  0
    0.6978   -1.9987   -0.9404 H   0  0  0  0  0  0  0  0  0  0  0  0
   -0.2832    2.1558   -0.3448 H   0  0  0  0  0  0  0  0  0  0  0  0
   -2.7286    1.6077   -0.6276 H   0  0  0  0  0  0  0  0  0  0  0  0
   -3.7741   -0.7910   -1.0991 N   0  0  0  0  0  0  0  0  0  0  0  0
   -4.5622    0.1452   -1.0063 O   0  0  0  0  0  0  0  0  0  0  0  0
   -4.0736   -1.9616   -1.3113 O   0  0  0  0  0  0  0  0  0  0  0  0
    1.6941    0.3595   -0.4826 N   0  0  0  0  0  0  0  0  0  0  0  0
    2.4260    1.2221   -0.2801 N   0  0  0  0  0  0  0  0  0  0  0  0
    4.9286    0.1967   -0.2834 Cl  0  0  0  0  0  0  0  0  0  0  0  0
  1  6  2  0  0  0  0
  1  2  1  0  0  0  0
  2  3  2  0  0  0  0
  3  4  1  0  0  0  0
  3 14  1  0  0  0  0
  4  9  1  0  0  0  0
  5 10  1  0  0  0  0
  5  4  2  0  0  0  0
  6  5  1  0  0  0  0
  7  1  1  0  0  0  0
  8  2  1  0  0  0  0
 11 12  2  0  0  0  0
 11  6  1  0  0  0  0
 13 11  2  0  0  0  0
 14 15  2  0  0  0  0
M  RAD  2  15   2  16   2
M  END
