Coordinates from ORCA-job p-NO2-Ph-N2-Cl-B3LYPG-6-31G_dp-scan-d09-49-n400
 OpenBabel08281821083D

 16 15  0  0  0  0  0  0  0  0999 V2000
   -1.0850   -1.3312   -0.9886 C   0  0  0  0  0  0  0  0  0  0  0  0
    0.1918   -0.8059   -0.8022 C   0  0  0  0  0  0  0  0  0  0  0  0
    0.2819    0.5702   -0.5589 C   0  0  0  0  0  0  0  0  0  0  0  0
   -0.8185    1.4341   -0.4936 C   0  0  0  0  0  0  0  0  0  0  0  0
   -2.0821    0.8914   -0.6815 C   0  0  0  0  0  0  0  0  0  0  0  0
   -2.1858   -0.4795   -0.9250 C   0  0  0  0  0  0  0  0  0  0  0  0
   -1.2327   -2.3866   -1.1820 H   0  0  0  0  0  0  0  0  0  0  0  0
    1.1053   -1.4117   -0.8359 H   0  0  0  0  0  0  0  0  0  0  0  0
   -0.6780    2.4915   -0.2999 H   0  0  0  0  0  0  0  0  0  0  0  0
   -2.9775    1.4978   -0.6438 H   0  0  0  0  0  0  0  0  0  0  0  0
   -3.5395   -1.0527   -1.1253 N   0  0  0  0  0  0  0  0  0  0  0  0
   -4.4894   -0.2776   -1.0607 O   0  0  0  0  0  0  0  0  0  0  0  0
   -3.6114   -2.2576   -1.3409 O   0  0  0  0  0  0  0  0  0  0  0  0
    1.5634    1.1242   -0.3676 N   0  0  0  0  0  0  0  0  0  0  0  0
    2.6937    1.0068   -0.2974 N   0  0  0  0  0  0  0  0  0  0  0  0
    3.3449   -1.7553   -0.6906 Cl  0  0  0  0  0  0  0  0  0  0  0  0
  1  6  2  0  0  0  0
  1  2  1  0  0  0  0
  2  3  2  0  0  0  0
  3  4  1  0  0  0  0
  3 14  1  0  0  0  0
  4  9  1  0  0  0  0
  5 10  1  0  0  0  0
  5  4  2  0  0  0  0
  6  5  1  0  0  0  0
  7  1  1  0  0  0  0
  8  2  1  0  0  0  0
 11 12  2  0  0  0  0
 11  6  1  0  0  0  0
 13 11  2  0  0  0  0
 14 15  2  0  0  0  0
M  RAD  2  15   2  16   2
M  END
