Coordinates from ORCA-job p-NO2-Ph-N2-Cl-B3LYPG-6-31G_dp-scan-d09-49-n400
 OpenBabel08281821083D

 16 15  0  0  0  0  0  0  0  0999 V2000
   -1.0500   -1.3151   -0.9809 C   0  0  0  0  0  0  0  0  0  0  0  0
    0.2209   -0.7724   -0.7917 C   0  0  0  0  0  0  0  0  0  0  0  0
    0.2777    0.6074   -0.5518 C   0  0  0  0  0  0  0  0  0  0  0  0
   -0.8347    1.4629   -0.4903 C   0  0  0  0  0  0  0  0  0  0  0  0
   -2.0838    0.8962   -0.6818 C   0  0  0  0  0  0  0  0  0  0  0  0
   -2.1623   -0.4803   -0.9230 C   0  0  0  0  0  0  0  0  0  0  0  0
   -1.1778   -2.3738   -1.1721 H   0  0  0  0  0  0  0  0  0  0  0  0
    1.1533   -1.3742   -0.8217 H   0  0  0  0  0  0  0  0  0  0  0  0
   -0.7134    2.5230   -0.2983 H   0  0  0  0  0  0  0  0  0  0  0  0
   -2.9908    1.4853   -0.6495 H   0  0  0  0  0  0  0  0  0  0  0  0
   -3.5081   -1.0731   -1.1268 N   0  0  0  0  0  0  0  0  0  0  0  0
   -4.4680   -0.3097   -1.0661 O   0  0  0  0  0  0  0  0  0  0  0  0
   -3.5619   -2.2786   -1.3410 O   0  0  0  0  0  0  0  0  0  0  0  0
    1.5509    1.1499   -0.3626 N   0  0  0  0  0  0  0  0  0  0  0  0
    2.6726    1.2065   -0.2649 N   0  0  0  0  0  0  0  0  0  0  0  0
    3.1567   -2.0962   -0.7712 Cl  0  0  0  0  0  0  0  0  0  0  0  0
  1  6  2  0  0  0  0
  1  2  1  0  0  0  0
  2  3  2  0  0  0  0
  3  4  1  0  0  0  0
  3 14  1  0  0  0  0
  4  9  1  0  0  0  0
  5 10  1  0  0  0  0
  5  4  2  0  0  0  0
  6  5  1  0  0  0  0
  7  1  1  0  0  0  0
  8  2  1  0  0  0  0
 11 12  2  0  0  0  0
 11  6  1  0  0  0  0
 13 11  2  0  0  0  0
 14 15  1  0  0  0  0
M  RAD  3  14   2  15   3  16   2
M  END
