Coordinates from ORCA-job p-NO2-Ph-N2-Cl-B3LYPG-6-31G_dp-scan-d09-49-n400
 OpenBabel08281821083D

 16 15  0  0  0  0  0  0  0  0999 V2000
   -1.0557   -1.3683   -0.9906 C   0  0  0  0  0  0  0  0  0  0  0  0
    0.2337   -0.8643   -0.8061 C   0  0  0  0  0  0  0  0  0  0  0  0
    0.3516    0.4983   -0.5642 C   0  0  0  0  0  0  0  0  0  0  0  0
   -0.7370    1.3918   -0.4945 C   0  0  0  0  0  0  0  0  0  0  0  0
   -2.0060    0.8718   -0.6799 C   0  0  0  0  0  0  0  0  0  0  0  0
   -2.1383   -0.4998   -0.9248 C   0  0  0  0  0  0  0  0  0  0  0  0
   -1.2157   -2.4221   -1.1836 H   0  0  0  0  0  0  0  0  0  0  0  0
    1.1436   -1.5025   -0.8438 H   0  0  0  0  0  0  0  0  0  0  0  0
   -0.5789    2.4473   -0.3002 H   0  0  0  0  0  0  0  0  0  0  0  0
   -2.8885    1.4974   -0.6392 H   0  0  0  0  0  0  0  0  0  0  0  0
   -3.5062   -1.0423   -1.1218 N   0  0  0  0  0  0  0  0  0  0  0  0
   -4.4366   -0.2438   -1.0536 O   0  0  0  0  0  0  0  0  0  0  0  0
   -3.6056   -2.2442   -1.3375 O   0  0  0  0  0  0  0  0  0  0  0  0
    1.6342    1.0869   -0.3665 N   0  0  0  0  0  0  0  0  0  0  0  0
    2.2658    2.0031   -0.1628 N   0  0  0  0  0  0  0  0  0  0  0  0
    3.0209   -2.3516   -0.8246 Cl  0  0  0  0  0  0  0  0  0  0  0  0
  1  6  2  0  0  0  0
  1  2  1  0  0  0  0
  2  3  2  0  0  0  0
  3  4  1  0  0  0  0
  3 14  1  0  0  0  0
  4  9  1  0  0  0  0
  5 10  1  0  0  0  0
  5  4  2  0  0  0  0
  6  5  1  0  0  0  0
  7  1  1  0  0  0  0
  8  2  1  0  0  0  0
 11 12  2  0  0  0  0
 11  6  1  0  0  0  0
 13 11  2  0  0  0  0
 14 15  2  0  0  0  0
M  RAD  2  15   2  16   2
M  END
