Coordinates from ORCA-job p-NO2-Ph-N2-Cl-B3LYPG-6-31G_dp-scan-d09-49-n400
 OpenBabel08281821083D

 16 15  0  0  0  0  0  0  0  0999 V2000
   -1.0508   -1.3648   -0.9895 C   0  0  0  0  0  0  0  0  0  0  0  0
    0.2376   -0.8580   -0.8045 C   0  0  0  0  0  0  0  0  0  0  0  0
    0.3514    0.5057   -0.5628 C   0  0  0  0  0  0  0  0  0  0  0  0
   -0.7404    1.3963   -0.4942 C   0  0  0  0  0  0  0  0  0  0  0  0
   -2.0076    0.8728   -0.6803 C   0  0  0  0  0  0  0  0  0  0  0  0
   -2.1357   -0.4993   -0.9248 C   0  0  0  0  0  0  0  0  0  0  0  0
   -1.2073   -2.4191   -1.1822 H   0  0  0  0  0  0  0  0  0  0  0  0
    1.1479   -1.4974   -0.8421 H   0  0  0  0  0  0  0  0  0  0  0  0
   -0.5855    2.4523   -0.3002 H   0  0  0  0  0  0  0  0  0  0  0  0
   -2.8919    1.4959   -0.6404 H   0  0  0  0  0  0  0  0  0  0  0  0
   -3.5021   -1.0457   -1.1225 N   0  0  0  0  0  0  0  0  0  0  0  0
   -4.4348   -0.2498   -1.0539 O   0  0  0  0  0  0  0  0  0  0  0  0
   -3.5981   -2.2481   -1.3369 O   0  0  0  0  0  0  0  0  0  0  0  0
    1.6291    1.0991   -0.3645 N   0  0  0  0  0  0  0  0  0  0  0  0
    2.2700    2.0083   -0.1609 N   0  0  0  0  0  0  0  0  0  0  0  0
    2.9994   -2.3901   -0.8339 Cl  0  0  0  0  0  0  0  0  0  0  0  0
  1  6  2  0  0  0  0
  1  2  1  0  0  0  0
  2  3  2  0  0  0  0
  3  4  1  0  0  0  0
  3 14  1  0  0  0  0
  4  9  1  0  0  0  0
  5 10  1  0  0  0  0
  5  4  2  0  0  0  0
  6  5  1  0  0  0  0
  7  1  1  0  0  0  0
  8  2  1  0  0  0  0
 11 12  2  0  0  0  0
 11  6  1  0  0  0  0
 13 11  2  0  0  0  0
 14 15  2  0  0  0  0
M  RAD  2  15   2  16   2
M  END
