Coordinates from ORCA-job p-NO2-Ph-N2-Cl-B3LYPG-6-31G_dp-scan-d09-49-n400
 OpenBabel08281821083D

 16 15  0  0  0  0  0  0  0  0999 V2000
   -1.4358   -1.5403   -1.0338 C   0  0  0  0  0  0  0  0  0  0  0  0
   -0.0761   -1.2809   -0.8860 C   0  0  0  0  0  0  0  0  0  0  0  0
    0.3354    0.0308   -0.6421 C   0  0  0  0  0  0  0  0  0  0  0  0
   -0.5679    1.0987   -0.5397 C   0  0  0  0  0  0  0  0  0  0  0  0
   -1.9233    0.8353   -0.6879 C   0  0  0  0  0  0  0  0  0  0  0  0
   -2.3294   -0.4774   -0.9320 C   0  0  0  0  0  0  0  0  0  0  0  0
   -1.8092   -2.5381   -1.2251 H   0  0  0  0  0  0  0  0  0  0  0  0
    0.6632   -2.0705   -0.9563 H   0  0  0  0  0  0  0  0  0  0  0  0
   -0.2073    2.1033   -0.3486 H   0  0  0  0  0  0  0  0  0  0  0  0
   -2.6663    1.6198   -0.6191 H   0  0  0  0  0  0  0  0  0  0  0  0
   -3.7762   -0.7505   -1.0903 N   0  0  0  0  0  0  0  0  0  0  0  0
   -4.5406    0.2054   -0.9956 O   0  0  0  0  0  0  0  0  0  0  0  0
   -4.1077   -1.9123   -1.3054 O   0  0  0  0  0  0  0  0  0  0  0  0
    1.7364    0.2469   -0.5004 N   0  0  0  0  0  0  0  0  0  0  0  0
    2.3880    1.1822   -0.2972 N   0  0  0  0  0  0  0  0  0  0  0  0
    4.7979    0.5054   -0.2340 Cl  0  0  0  0  0  0  0  0  0  0  0  0
  1  6  2  0  0  0  0
  1  2  1  0  0  0  0
  2  3  2  0  0  0  0
  3  4  1  0  0  0  0
  3 14  1  0  0  0  0
  4  9  1  0  0  0  0
  5 10  1  0  0  0  0
  5  4  2  0  0  0  0
  6  5  1  0  0  0  0
  7  1  1  0  0  0  0
  8  2  1  0  0  0  0
 11 12  2  0  0  0  0
 11  6  1  0  0  0  0
 13 11  2  0  0  0  0
 14 15  2  0  0  0  0
M  RAD  2  15   2  16   2
M  END
