Coordinates from ORCA-job p-NO2-Ph-N2-Cl-B3LYPG-6-31G_dp-scan-d09-49-n400
 OpenBabel08281821083D

 16 15  0  0  0  0  0  0  0  0999 V2000
   -1.1148   -1.4139   -1.0088 C   0  0  0  0  0  0  0  0  0  0  0  0
    0.1915   -0.9556   -0.8305 C   0  0  0  0  0  0  0  0  0  0  0  0
    0.3683    0.3960   -0.5818 C   0  0  0  0  0  0  0  0  0  0  0  0
   -0.6841    1.3250   -0.4991 C   0  0  0  0  0  0  0  0  0  0  0  0
   -1.9760    0.8557   -0.6771 C   0  0  0  0  0  0  0  0  0  0  0  0
   -2.1647   -0.5059   -0.9289 C   0  0  0  0  0  0  0  0  0  0  0  0
   -1.3196   -2.4584   -1.2069 H   0  0  0  0  0  0  0  0  0  0  0  0
    1.0790   -1.6009   -0.8730 H   0  0  0  0  0  0  0  0  0  0  0  0
   -0.4853    2.3724   -0.3002 H   0  0  0  0  0  0  0  0  0  0  0  0
   -2.8325    1.5157   -0.6248 H   0  0  0  0  0  0  0  0  0  0  0  0
   -3.5512   -0.9967   -1.1171 N   0  0  0  0  0  0  0  0  0  0  0  0
   -4.4529   -0.1667   -1.0385 O   0  0  0  0  0  0  0  0  0  0  0  0
   -3.6968   -2.1940   -1.3371 O   0  0  0  0  0  0  0  0  0  0  0  0
    1.6935    0.9385   -0.3890 N   0  0  0  0  0  0  0  0  0  0  0  0
    2.2124    1.9292   -0.1881 N   0  0  0  0  0  0  0  0  0  0  0  0
    3.2142   -1.7825   -0.6929 Cl  0  0  0  0  0  0  0  0  0  0  0  0
  1  6  2  0  0  0  0
  1  2  1  0  0  0  0
  2  3  2  0  0  0  0
  3  4  1  0  0  0  0
  3 14  1  0  0  0  0
  4  9  1  0  0  0  0
  5 10  1  0  0  0  0
  5  4  2  0  0  0  0
  6  5  1  0  0  0  0
  7  1  1  0  0  0  0
  8  2  1  0  0  0  0
 11 12  2  0  0  0  0
 11  6  1  0  0  0  0
 13 11  2  0  0  0  0
 14 15  2  0  0  0  0
M  RAD  2  15   2  16   2
M  END
