Coordinates from ORCA-job p-NO2-Ph-N2-Cl-B3LYPG-6-31G_dp-scan-d09-49-n400
 OpenBabel08281821083D

 16 16  0  0  1  0  0  0  0  0999 V2000
   -0.8969   -1.4170   -0.6775 C   0  0  0  0  0  0  0  0  0  0  0  0
    0.4744   -0.8899   -0.7114 C   0  0  2  0  0  0  0  0  0  0  0  0
    0.5028    0.5678   -0.4854 C   0  0  1  0  0  0  0  0  0  0  0  0
   -0.6127    1.4040   -0.8774 C   0  0  0  0  0  0  0  0  0  0  0  0
   -1.8134    0.8243   -1.1271 C   0  0  0  0  0  0  0  0  0  0  0  0
   -1.9424   -0.5943   -0.9267 C   0  0  0  0  0  0  0  0  0  0  0  0
   -1.0542   -2.4790   -0.5398 H   0  0  0  0  0  0  0  0  0  0  0  0
    1.1997   -1.4507   -0.1306 H   0  0  0  0  0  0  0  0  0  0  0  0
   -0.4776    2.4791   -0.9315 H   0  0  0  0  0  0  0  0  0  0  0  0
   -2.6815    1.3976   -1.4216 H   0  0  0  0  0  0  0  0  0  0  0  0
   -3.2968   -1.1785   -0.9817 N   0  0  0  0  0  0  0  0  0  0  0  0
   -4.2206   -0.4169   -1.2639 O   0  0  0  0  0  0  0  0  0  0  0  0
   -3.4183   -2.3767   -0.7392 O   0  0  0  0  0  0  0  0  0  0  0  0
    1.4637    1.1529    0.2244 N   0  0  0  0  0  0  0  0  0  0  0  0
    2.1896    1.7441    0.8775 N   0  0  0  0  0  0  0  0  0  0  0  0
    1.0653   -1.5089   -2.5819 Cl  0  0  0  0  0  0  0  0  0  0  0  0
  1  7  1  0  0  0  0
  2  1  1  0  0  0  0
  2  3  1  0  0  0  0
  2  8  1  1  0  0  0
  3 14  1  1  0  0  0
  4  3  1  0  0  0  0
  5  6  1  0  0  0  0
  5  4  2  0  0  0  0
  6  1  2  0  0  0  0
  9  4  1  0  0  0  0
 10  5  1  0  0  0  0
 11  6  1  0  0  0  0
 11 13  2  0  0  0  0
 12 11  2  0  0  0  0
 14 15  1  0  0  0  0
 16  2  1  0  0  0  0
M  RAD  3   3   2  14   2  15   3
M  END
