Coordinates from ORCA-job p-NO2-Ph-N2-Cl-B3LYPG-6-31G_dp-scan-d09-49-n400
 OpenBabel08281821083D

 16 16  0  0  0  0  0  0  0  0999 V2000
   -1.4495   -1.5663   -1.0395 C   0  0  0  0  0  0  0  0  0  0  0  0
   -0.0792   -1.3641   -0.8995 C   0  0  0  0  0  0  0  0  0  0  0  0
    0.4090   -0.0772   -0.6536 C   0  0  0  0  0  0  0  0  0  0  0  0
   -0.4565    1.0225   -0.5424 C   0  0  0  0  0  0  0  0  0  0  0  0
   -1.8234    0.8242   -0.6811 C   0  0  0  0  0  0  0  0  0  0  0  0
   -2.2957   -0.4667   -0.9276 C   0  0  0  0  0  0  0  0  0  0  0  0
   -1.8669   -2.5464   -1.2316 H   0  0  0  0  0  0  0  0  0  0  0  0
    0.6233   -2.1860   -0.9777 H   0  0  0  0  0  0  0  0  0  0  0  0
   -0.0554    2.0108   -0.3498 H   0  0  0  0  0  0  0  0  0  0  0  0
   -2.5282    1.6422   -0.6031 H   0  0  0  0  0  0  0  0  0  0  0  0
   -3.7506   -0.6723   -1.0760 N   0  0  0  0  0  0  0  0  0  0  0  0
   -4.4743    0.3157   -0.9746 O   0  0  0  0  0  0  0  0  0  0  0  0
   -4.1410   -1.8172   -1.2915 O   0  0  0  0  0  0  0  0  0  0  0  0
    1.8357    0.0137   -0.5280 N   0  0  0  0  0  0  0  0  0  0  0  0
    2.2993    1.1090   -0.3283 N   0  0  0  0  0  0  0  0  0  0  0  0
    4.2347    1.0159   -0.1892 Cl  0  0  0  0  0  0  0  0  0  0  0  0
  1  6  2  0  0  0  0
  1  2  1  0  0  0  0
  2  3  2  0  0  0  0
  3  4  1  0  0  0  0
  3 14  1  0  0  0  0
  4  9  1  0  0  0  0
  5 10  1  0  0  0  0
  5  4  2  0  0  0  0
  6  5  1  0  0  0  0
  7  1  1  0  0  0  0
  8  2  1  0  0  0  0
 11 12  2  0  0  0  0
 11  6  1  0  0  0  0
 13 11  2  0  0  0  0
 14 15  1  0  0  0  0
 15 16  1  0  0  0  0
M  RAD  2  14   2  15   2
M  END
