Coordinates from ORCA-job p-NO2-Ph-N2-Cl-B3LYPG-6-31G_dp-scan-d09-49-n400
 OpenBabel08281821083D

 16 15  0  0  0  0  0  0  0  0999 V2000
   -1.4138   -1.5208   -1.0288 C   0  0  0  0  0  0  0  0  0  0  0  0
   -0.0621   -1.2272   -0.8749 C   0  0  0  0  0  0  0  0  0  0  0  0
    0.3105    0.0969   -0.6314 C   0  0  0  0  0  0  0  0  0  0  0  0
   -0.6191    1.1433   -0.5356 C   0  0  0  0  0  0  0  0  0  0  0  0
   -1.9661    0.8429   -0.6905 C   0  0  0  0  0  0  0  0  0  0  0  0
   -2.3349   -0.4808   -0.9336 C   0  0  0  0  0  0  0  0  0  0  0  0
   -1.7607   -2.5282   -1.2200 H   0  0  0  0  0  0  0  0  0  0  0  0
    0.6984   -1.9970   -0.9399 H   0  0  0  0  0  0  0  0  0  0  0  0
   -0.2852    2.1571   -0.3446 H   0  0  0  0  0  0  0  0  0  0  0  0
   -2.7303    1.6073   -0.6272 H   0  0  0  0  0  0  0  0  0  0  0  0
   -3.7743   -0.7921   -1.0983 N   0  0  0  0  0  0  0  0  0  0  0  0
   -4.5627    0.1441   -1.0082 O   0  0  0  0  0  0  0  0  0  0  0  0
   -4.0729   -1.9624   -1.3131 O   0  0  0  0  0  0  0  0  0  0  0  0
    1.6930    0.3619   -0.4824 N   0  0  0  0  0  0  0  0  0  0  0  0
    2.4257    1.2232   -0.2804 N   0  0  0  0  0  0  0  0  0  0  0  0
    4.9357    0.1896   -0.2847 Cl  0  0  0  0  0  0  0  0  0  0  0  0
  1  6  2  0  0  0  0
  1  2  1  0  0  0  0
  2  3  2  0  0  0  0
  3  4  1  0  0  0  0
  3 14  1  0  0  0  0
  4  9  1  0  0  0  0
  5 10  1  0  0  0  0
  5  4  2  0  0  0  0
  6  5  1  0  0  0  0
  7  1  1  0  0  0  0
  8  2  1  0  0  0  0
 11 12  2  0  0  0  0
 11  6  1  0  0  0  0
 13 11  2  0  0  0  0
 14 15  2  0  0  0  0
M  RAD  2  15   2  16   2
M  END
