Coordinates from ORCA-job p-NO2-Ph-N2-Cl-B3LYPG-6-31G_dp-scan-d09-49-n400
 OpenBabel08281821083D

 16 15  0  0  0  0  0  0  0  0999 V2000
   -1.0611   -1.3721   -0.9920 C   0  0  0  0  0  0  0  0  0  0  0  0
    0.2298   -0.8719   -0.8081 C   0  0  0  0  0  0  0  0  0  0  0  0
    0.3526    0.4897   -0.5657 C   0  0  0  0  0  0  0  0  0  0  0  0
   -0.7328    1.3864   -0.4949 C   0  0  0  0  0  0  0  0  0  0  0  0
   -2.0039    0.8707   -0.6796 C   0  0  0  0  0  0  0  0  0  0  0  0
   -2.1410   -0.5000   -0.9250 C   0  0  0  0  0  0  0  0  0  0  0  0
   -1.2252   -2.4251   -1.1854 H   0  0  0  0  0  0  0  0  0  0  0  0
    1.1383   -1.5102   -0.8462 H   0  0  0  0  0  0  0  0  0  0  0  0
   -0.5710    2.4413   -0.3003 H   0  0  0  0  0  0  0  0  0  0  0  0
   -2.8842    1.4993   -0.6379 H   0  0  0  0  0  0  0  0  0  0  0  0
   -3.5105   -1.0382   -1.1212 N   0  0  0  0  0  0  0  0  0  0  0  0
   -4.4386   -0.2369   -1.0527 O   0  0  0  0  0  0  0  0  0  0  0  0
   -3.6139   -2.2397   -1.3377 O   0  0  0  0  0  0  0  0  0  0  0  0
    1.6394    1.0746   -0.3685 N   0  0  0  0  0  0  0  0  0  0  0  0
    2.2585    1.9998   -0.1645 N   0  0  0  0  0  0  0  0  0  0  0  0
    3.0447   -2.3100   -0.8142 Cl  0  0  0  0  0  0  0  0  0  0  0  0
  1  6  2  0  0  0  0
  1  2  1  0  0  0  0
  2  3  2  0  0  0  0
  3  4  1  0  0  0  0
  3 14  1  0  0  0  0
  4  9  1  0  0  0  0
  5 10  1  0  0  0  0
  5  4  2  0  0  0  0
  6  5  1  0  0  0  0
  7  1  1  0  0  0  0
  8  2  1  0  0  0  0
 11 12  2  0  0  0  0
 11  6  1  0  0  0  0
 13 11  2  0  0  0  0
 14 15  2  0  0  0  0
M  RAD  2  15   2  16   2
M  END
