Coordinates from ORCA-job p-NO2-Ph-N2-Cl-B3LYPG-6-31G_dp-scan-d09-49-n400
 OpenBabel08281821083D

 16 16  0  0  0  0  0  0  0  0999 V2000
   -1.4487   -1.5677   -1.0398 C   0  0  0  0  0  0  0  0  0  0  0  0
   -0.0779   -1.3694   -0.9000 C   0  0  0  0  0  0  0  0  0  0  0  0
    0.4172   -0.0845   -0.6537 C   0  0  0  0  0  0  0  0  0  0  0  0
   -0.4466    1.0171   -0.5422 C   0  0  0  0  0  0  0  0  0  0  0  0
   -1.8141    0.8236   -0.6805 C   0  0  0  0  0  0  0  0  0  0  0  0
   -2.2915   -0.4655   -0.9274 C   0  0  0  0  0  0  0  0  0  0  0  0
   -1.8690   -2.5464   -1.2321 H   0  0  0  0  0  0  0  0  0  0  0  0
    0.6219   -2.1936   -0.9786 H   0  0  0  0  0  0  0  0  0  0  0  0
   -0.0426    2.0041   -0.3493 H   0  0  0  0  0  0  0  0  0  0  0  0
   -2.5160    1.6440   -0.6019 H   0  0  0  0  0  0  0  0  0  0  0  0
   -3.7466   -0.6661   -1.0753 N   0  0  0  0  0  0  0  0  0  0  0  0
   -4.4675    0.3241   -0.9728 O   0  0  0  0  0  0  0  0  0  0  0  0
   -4.1416   -1.8097   -1.2902 O   0  0  0  0  0  0  0  0  0  0  0  0
    1.8433   -0.0046   -0.5295 N   0  0  0  0  0  0  0  0  0  0  0  0
    2.2972    1.1043   -0.3303 N   0  0  0  0  0  0  0  0  0  0  0  0
    4.1636    1.0481   -0.1901 Cl  0  0  0  0  0  0  0  0  0  0  0  0
  1  6  2  0  0  0  0
  1  2  1  0  0  0  0
  2  3  2  0  0  0  0
  3  4  1  0  0  0  0
  3 14  1  0  0  0  0
  4  9  1  0  0  0  0
  5 10  1  0  0  0  0
  5  4  2  0  0  0  0
  6  5  1  0  0  0  0
  7  1  1  0  0  0  0
  8  2  1  0  0  0  0
 11 12  2  0  0  0  0
 11  6  1  0  0  0  0
 13 11  2  0  0  0  0
 14 15  1  0  0  0  0
 15 16  1  0  0  0  0
M  RAD  2  14   2  15   2
M  END
