Coordinates from ORCA-job p-NO2-Ph-N2-Cl-B3LYPG-6-31G_dp-scan-d09-49-n400
 OpenBabel08281821083D

 16 15  0  0  0  0  0  0  0  0999 V2000
   -1.0679   -1.3213   -0.9841 C   0  0  0  0  0  0  0  0  0  0  0  0
    0.2050   -0.7854   -0.7957 C   0  0  0  0  0  0  0  0  0  0  0  0
    0.2768    0.5918   -0.5546 C   0  0  0  0  0  0  0  0  0  0  0  0
   -0.8291    1.4503   -0.4918 C   0  0  0  0  0  0  0  0  0  0  0  0
   -2.0857    0.8946   -0.6819 C   0  0  0  0  0  0  0  0  0  0  0  0
   -2.1754   -0.4788   -0.9239 C   0  0  0  0  0  0  0  0  0  0  0  0
   -1.2049   -2.3785   -1.1763 H   0  0  0  0  0  0  0  0  0  0  0  0
    1.1286   -1.3864   -0.8268 H   0  0  0  0  0  0  0  0  0  0  0  0
   -0.6988    2.5092   -0.2991 H   0  0  0  0  0  0  0  0  0  0  0  0
   -2.9874    1.4918   -0.6473 H   0  0  0  0  0  0  0  0  0  0  0  0
   -3.5246   -1.0635   -1.1264 N   0  0  0  0  0  0  0  0  0  0  0  0
   -4.4805   -0.2954   -1.0643 O   0  0  0  0  0  0  0  0  0  0  0  0
   -3.5859   -2.2688   -1.3411 O   0  0  0  0  0  0  0  0  0  0  0  0
    1.5568    1.1423   -0.3637 N   0  0  0  0  0  0  0  0  0  0  0  0
    2.6860    1.0817   -0.2854 N   0  0  0  0  0  0  0  0  0  0  0  0
    3.2680   -1.9257   -0.7312 Cl  0  0  0  0  0  0  0  0  0  0  0  0
  1  6  2  0  0  0  0
  1  2  1  0  0  0  0
  2  3  2  0  0  0  0
  3  4  1  0  0  0  0
  3 14  1  0  0  0  0
  4  9  1  0  0  0  0
  5 10  1  0  0  0  0
  5  4  2  0  0  0  0
  6  5  1  0  0  0  0
  7  1  1  0  0  0  0
  8  2  1  0  0  0  0
 11 12  2  0  0  0  0
 11  6  1  0  0  0  0
 13 11  2  0  0  0  0
 14 15  2  0  0  0  0
M  RAD  2  15   2  16   2
M  END
