Coordinates from ORCA-job p-NO2-Ph-N2-Cl-B3LYPG-6-31G_dp-scan-d09-49-n400
 OpenBabel08281821083D

 16 15  0  0  0  0  0  0  0  0999 V2000
   -1.4480   -1.5561   -1.0378 C   0  0  0  0  0  0  0  0  0  0  0  0
   -0.0818   -1.3288   -0.8948 C   0  0  0  0  0  0  0  0  0  0  0  0
    0.3692   -0.0300   -0.6502 C   0  0  0  0  0  0  0  0  0  0  0  0
   -0.5110    1.0565   -0.5424 C   0  0  0  0  0  0  0  0  0  0  0  0
   -1.8733    0.8287   -0.6848 C   0  0  0  0  0  0  0  0  0  0  0  0
   -2.3153   -0.4725   -0.9301 C   0  0  0  0  0  0  0  0  0  0  0  0
   -1.8460   -2.5442   -1.2294 H   0  0  0  0  0  0  0  0  0  0  0  0
    0.6373   -2.1364   -0.9697 H   0  0  0  0  0  0  0  0  0  0  0  0
   -0.1270    2.0522   -0.3507 H   0  0  0  0  0  0  0  0  0  0  0  0
   -2.5956    1.6318   -0.6108 H   0  0  0  0  0  0  0  0  0  0  0  0
   -3.7675   -0.7087   -1.0826 N   0  0  0  0  0  0  0  0  0  0  0  0
   -4.5093    0.2649   -0.9831 O   0  0  0  0  0  0  0  0  0  0  0  0
   -4.1309   -1.8618   -1.2972 O   0  0  0  0  0  0  0  0  0  0  0  0
    1.7880    0.1251   -0.5163 N   0  0  0  0  0  0  0  0  0  0  0  0
    2.3396    1.1421   -0.3145 N   0  0  0  0  0  0  0  0  0  0  0  0
    4.5529    0.7952   -0.1994 Cl  0  0  0  0  0  0  0  0  0  0  0  0
  1  6  2  0  0  0  0
  1  2  1  0  0  0  0
  2  3  2  0  0  0  0
  3  4  1  0  0  0  0
  3 14  1  0  0  0  0
  4  9  1  0  0  0  0
  5 10  1  0  0  0  0
  5  4  2  0  0  0  0
  6  5  1  0  0  0  0
  7  1  1  0  0  0  0
  8  2  1  0  0  0  0
 11 12  2  0  0  0  0
 11  6  1  0  0  0  0
 13 11  2  0  0  0  0
 14 15  2  0  0  0  0
M  RAD  2  15   2  16   2
M  END
