Coordinates from ORCA-job p-NO2-Ph-N2-Cl-B3LYPG-6-31G_dp-scan-d09-49-n400
 OpenBabel08281821083D

 16 15  0  0  0  0  0  0  0  0999 V2000
   -1.0671   -1.3763   -0.9939 C   0  0  0  0  0  0  0  0  0  0  0  0
    0.2254   -0.8803   -0.8105 C   0  0  0  0  0  0  0  0  0  0  0  0
    0.3535    0.4801   -0.5675 C   0  0  0  0  0  0  0  0  0  0  0  0
   -0.7282    1.3804   -0.4954 C   0  0  0  0  0  0  0  0  0  0  0  0
   -2.0015    0.8694   -0.6795 C   0  0  0  0  0  0  0  0  0  0  0  0
   -2.1439   -0.5004   -0.9256 C   0  0  0  0  0  0  0  0  0  0  0  0
   -1.2357   -2.4284   -1.1879 H   0  0  0  0  0  0  0  0  0  0  0  0
    1.1324   -1.5186   -0.8488 H   0  0  0  0  0  0  0  0  0  0  0  0
   -0.5623    2.4345   -0.3003 H   0  0  0  0  0  0  0  0  0  0  0  0
   -2.8794    1.5014   -0.6368 H   0  0  0  0  0  0  0  0  0  0  0  0
   -3.5153   -1.0336   -1.1211 N   0  0  0  0  0  0  0  0  0  0  0  0
   -4.4407   -0.2294   -1.0508 O   0  0  0  0  0  0  0  0  0  0  0  0
   -3.6232   -2.2349   -1.3371 O   0  0  0  0  0  0  0  0  0  0  0  0
    1.6451    1.0604   -0.3705 N   0  0  0  0  0  0  0  0  0  0  0  0
    2.2523    1.9940   -0.1664 N   0  0  0  0  0  0  0  0  0  0  0  0
    3.0697   -2.2605   -0.8019 Cl  0  0  0  0  0  0  0  0  0  0  0  0
  1  6  2  0  0  0  0
  1  2  1  0  0  0  0
  2  3  2  0  0  0  0
  3  4  1  0  0  0  0
  3 14  1  0  0  0  0
  4  9  1  0  0  0  0
  5 10  1  0  0  0  0
  5  4  2  0  0  0  0
  6  5  1  0  0  0  0
  7  1  1  0  0  0  0
  8  2  1  0  0  0  0
 11 12  2  0  0  0  0
 11  6  1  0  0  0  0
 13 11  2  0  0  0  0
 14 15  2  0  0  0  0
M  RAD  2  15   2  16   2
M  END
