Coordinates from ORCA-job p-NO2-Ph-N2-Cl-B3LYPG-6-31G_dp-scan-d09-49-n400
 OpenBabel08281821083D

 16 15  0  0  0  0  0  0  0  0999 V2000
   -1.1331   -1.4309   -1.0150 C   0  0  0  0  0  0  0  0  0  0  0  0
    0.1792   -0.9904   -0.8392 C   0  0  0  0  0  0  0  0  0  0  0  0
    0.3795    0.3576   -0.5875 C   0  0  0  0  0  0  0  0  0  0  0  0
   -0.6612    1.2976   -0.5001 C   0  0  0  0  0  0  0  0  0  0  0  0
   -1.9610    0.8478   -0.6754 C   0  0  0  0  0  0  0  0  0  0  0  0
   -2.1708   -0.5093   -0.9300 C   0  0  0  0  0  0  0  0  0  0  0  0
   -1.3532   -2.4719   -1.2153 H   0  0  0  0  0  0  0  0  0  0  0  0
    1.0518   -1.6461   -0.8864 H   0  0  0  0  0  0  0  0  0  0  0  0
   -0.4484    2.3417   -0.2994 H   0  0  0  0  0  0  0  0  0  0  0  0
   -2.8072    1.5206   -0.6189 H   0  0  0  0  0  0  0  0  0  0  0  0
   -3.5634   -0.9809   -1.1156 N   0  0  0  0  0  0  0  0  0  0  0  0
   -4.4543   -0.1398   -1.0336 O   0  0  0  0  0  0  0  0  0  0  0  0
   -3.7260   -2.1761   -1.3374 O   0  0  0  0  0  0  0  0  0  0  0  0
    1.7172    0.8856   -0.3974 N   0  0  0  0  0  0  0  0  0  0  0  0
    2.1966    1.8994   -0.2001 N   0  0  0  0  0  0  0  0  0  0  0  0
    3.2354   -1.5471   -0.6426 Cl  0  0  0  0  0  0  0  0  0  0  0  0
  1  6  2  0  0  0  0
  1  2  1  0  0  0  0
  2  3  2  0  0  0  0
  3  4  1  0  0  0  0
  3 14  1  0  0  0  0
  4  9  1  0  0  0  0
  5 10  1  0  0  0  0
  5  4  2  0  0  0  0
  6  5  1  0  0  0  0
  7  1  1  0  0  0  0
  8  2  1  0  0  0  0
 11 12  2  0  0  0  0
 11  6  1  0  0  0  0
 13 11  2  0  0  0  0
 14 15  2  0  0  0  0
M  RAD  2  15   2  16   2
M  END
