Coordinates from ORCA-job p-NO2-Ph-N2-Cl-B3LYPG-6-31G_dp-scan-d09-49-n400
 OpenBabel08281821083D

 16 16  0  0  0  0  0  0  0  0999 V2000
   -1.4444   -1.5748   -1.0403 C   0  0  0  0  0  0  0  0  0  0  0  0
   -0.0718   -1.3967   -0.9040 C   0  0  0  0  0  0  0  0  0  0  0  0
    0.4573   -0.1215   -0.6568 C   0  0  0  0  0  0  0  0  0  0  0  0
   -0.3987    0.9897   -0.5433 C   0  0  0  0  0  0  0  0  0  0  0  0
   -1.7687    0.8197   -0.6779 C   0  0  0  0  0  0  0  0  0  0  0  0
   -2.2720   -0.4605   -0.9249 C   0  0  0  0  0  0  0  0  0  0  0  0
   -1.8800   -2.5470   -1.2326 H   0  0  0  0  0  0  0  0  0  0  0  0
    0.6134   -2.2333   -0.9861 H   0  0  0  0  0  0  0  0  0  0  0  0
    0.0235    1.9684   -0.3507 H   0  0  0  0  0  0  0  0  0  0  0  0
   -2.4562    1.6521   -0.5963 H   0  0  0  0  0  0  0  0  0  0  0  0
   -3.7265   -0.6363   -1.0687 N   0  0  0  0  0  0  0  0  0  0  0  0
   -4.4340    0.3650   -0.9646 O   0  0  0  0  0  0  0  0  0  0  0  0
   -4.1445   -1.7731   -1.2842 O   0  0  0  0  0  0  0  0  0  0  0  0
    1.8698   -0.0786   -0.5400 N   0  0  0  0  0  0  0  0  0  0  0  0
    2.3269    1.0813   -0.3283 N   0  0  0  0  0  0  0  0  0  0  0  0
    3.7872    1.2036   -0.1952 Cl  0  0  0  0  0  0  0  0  0  0  0  0
  1  6  2  0  0  0  0
  1  2  1  0  0  0  0
  2  3  2  0  0  0  0
  3  4  1  0  0  0  0
  3 14  1  0  0  0  0
  4  9  1  0  0  0  0
  5 10  1  0  0  0  0
  5  4  2  0  0  0  0
  6  5  1  0  0  0  0
  7  1  1  0  0  0  0
  8  2  1  0  0  0  0
 11 12  2  0  0  0  0
 11  6  1  0  0  0  0
 13 11  2  0  0  0  0
 14 15  1  0  0  0  0
 15 16  1  0  0  0  0
M  RAD  2  14   2  15   2
M  END
