Coordinates from ORCA-job p-NO2-Ph-N2-Cl-B3LYPG-6-31G_dp-scan-d09-49-n400
 OpenBabel08281821083D

 16 15  0  0  0  0  0  0  0  0999 V2000
   -1.4237   -1.5287   -1.0307 C   0  0  0  0  0  0  0  0  0  0  0  0
   -0.0687   -1.2484   -0.8792 C   0  0  0  0  0  0  0  0  0  0  0  0
    0.3188    0.0710   -0.6355 C   0  0  0  0  0  0  0  0  0  0  0  0
   -0.6004    1.1260   -0.5373 C   0  0  0  0  0  0  0  0  0  0  0  0
   -1.9508    0.8399   -0.6898 C   0  0  0  0  0  0  0  0  0  0  0  0
   -2.3341   -0.4797   -0.9332 C   0  0  0  0  0  0  0  0  0  0  0  0
   -1.7809   -2.5324   -1.2219 H   0  0  0  0  0  0  0  0  0  0  0  0
    0.6836   -2.0260   -0.9462 H   0  0  0  0  0  0  0  0  0  0  0  0
   -0.2560    2.1362   -0.3464 H   0  0  0  0  0  0  0  0  0  0  0  0
   -2.7068    1.6122   -0.6246 H   0  0  0  0  0  0  0  0  0  0  0  0
   -3.7765   -0.7761   -1.0956 N   0  0  0  0  0  0  0  0  0  0  0  0
   -4.5556    0.1678   -1.0039 O   0  0  0  0  0  0  0  0  0  0  0  0
   -4.0879   -1.9433   -1.3103 O   0  0  0  0  0  0  0  0  0  0  0  0
    1.7086    0.3183   -0.4891 N   0  0  0  0  0  0  0  0  0  0  0  0
    2.4115    1.2075   -0.2844 N   0  0  0  0  0  0  0  0  0  0  0  0
    4.9002    0.3137   -0.2657 Cl  0  0  0  0  0  0  0  0  0  0  0  0
  1  6  2  0  0  0  0
  1  2  1  0  0  0  0
  2  3  2  0  0  0  0
  3  4  1  0  0  0  0
  3 14  1  0  0  0  0
  4  9  1  0  0  0  0
  5 10  1  0  0  0  0
  5  4  2  0  0  0  0
  6  5  1  0  0  0  0
  7  1  1  0  0  0  0
  8  2  1  0  0  0  0
 11 12  2  0  0  0  0
 11  6  1  0  0  0  0
 13 11  2  0  0  0  0
 14 15  2  0  0  0  0
M  RAD  2  15   2  16   2
M  END
