Coordinates from ORCA-job p-NO2-Ph-N2-Cl-B3LYPG-6-31G_dp-scan-d09-49-n400
 OpenBabel08281821083D

 16 16  0  0  0  0  0  0  0  0999 V2000
   -1.4456   -1.5725   -1.0399 C   0  0  0  0  0  0  0  0  0  0  0  0
   -0.0734   -1.3874   -0.9025 C   0  0  0  0  0  0  0  0  0  0  0  0
    0.4447   -0.1092   -0.6556 C   0  0  0  0  0  0  0  0  0  0  0  0
   -0.4140    0.9989   -0.5427 C   0  0  0  0  0  0  0  0  0  0  0  0
   -1.7832    0.8211   -0.6785 C   0  0  0  0  0  0  0  0  0  0  0  0
   -2.2779   -0.4621   -0.9255 C   0  0  0  0  0  0  0  0  0  0  0  0
   -1.8763   -2.5468   -1.2323 H   0  0  0  0  0  0  0  0  0  0  0  0
    0.6169   -2.2197   -0.9835 H   0  0  0  0  0  0  0  0  0  0  0  0
    0.0019    1.9804   -0.3501 H   0  0  0  0  0  0  0  0  0  0  0  0
   -2.4755    1.6496   -0.5980 H   0  0  0  0  0  0  0  0  0  0  0  0
   -3.7330   -0.6460   -1.0708 N   0  0  0  0  0  0  0  0  0  0  0  0
   -4.4447    0.3518   -0.9678 O   0  0  0  0  0  0  0  0  0  0  0  0
   -4.1433   -1.7850   -1.2864 O   0  0  0  0  0  0  0  0  0  0  0  0
    1.8628   -0.0573   -0.5371 N   0  0  0  0  0  0  0  0  0  0  0  0
    2.3084    1.0906   -0.3289 N   0  0  0  0  0  0  0  0  0  0  0  0
    3.9134    1.1514   -0.1942 Cl  0  0  0  0  0  0  0  0  0  0  0  0
  1  6  2  0  0  0  0
  1  2  1  0  0  0  0
  2  3  2  0  0  0  0
  3  4  1  0  0  0  0
  3 14  1  0  0  0  0
  4  9  1  0  0  0  0
  5 10  1  0  0  0  0
  5  4  2  0  0  0  0
  6  5  1  0  0  0  0
  7  1  1  0  0  0  0
  8  2  1  0  0  0  0
 11 12  2  0  0  0  0
 11  6  1  0  0  0  0
 13 11  2  0  0  0  0
 14 15  1  0  0  0  0
 15 16  1  0  0  0  0
M  RAD  2  14   2  15   2
M  END
