Coordinates from ORCA-job p-NO2-Ph-N2-Cl-B3LYPG-6-31G_dp-scan-d09-49-n400
 OpenBabel08281821083D

 16 16  0  0  0  0  0  0  0  0999 V2000
   -1.4499   -1.5651   -1.0393 C   0  0  0  0  0  0  0  0  0  0  0  0
   -0.0801   -1.3596   -0.8992 C   0  0  0  0  0  0  0  0  0  0  0  0
    0.4027   -0.0710   -0.6536 C   0  0  0  0  0  0  0  0  0  0  0  0
   -0.4644    1.0271   -0.5428 C   0  0  0  0  0  0  0  0  0  0  0  0
   -1.8308    0.8248   -0.6818 C   0  0  0  0  0  0  0  0  0  0  0  0
   -2.2989   -0.4676   -0.9279 C   0  0  0  0  0  0  0  0  0  0  0  0
   -1.8647   -2.5463   -1.2313 H   0  0  0  0  0  0  0  0  0  0  0  0
    0.6247   -2.1795   -0.9771 H   0  0  0  0  0  0  0  0  0  0  0  0
   -0.0656    2.0165   -0.3505 H   0  0  0  0  0  0  0  0  0  0  0  0
   -2.5380    1.6408   -0.6043 H   0  0  0  0  0  0  0  0  0  0  0  0
   -3.7536   -0.6774   -1.0767 N   0  0  0  0  0  0  0  0  0  0  0  0
   -4.4797    0.3087   -0.9757 O   0  0  0  0  0  0  0  0  0  0  0  0
   -4.1402   -1.8235   -1.2920 O   0  0  0  0  0  0  0  0  0  0  0  0
    1.8293    0.0292   -0.5270 N   0  0  0  0  0  0  0  0  0  0  0  0
    2.3032    1.1129   -0.3256 N   0  0  0  0  0  0  0  0  0  0  0  0
    4.2873    0.9877   -0.1891 Cl  0  0  0  0  0  0  0  0  0  0  0  0
  1  6  2  0  0  0  0
  1  2  1  0  0  0  0
  2  3  2  0  0  0  0
  3  4  1  0  0  0  0
  3 14  1  0  0  0  0
  4  9  1  0  0  0  0
  5 10  1  0  0  0  0
  5  4  2  0  0  0  0
  6  5  1  0  0  0  0
  7  1  1  0  0  0  0
  8  2  1  0  0  0  0
 11 12  2  0  0  0  0
 11  6  1  0  0  0  0
 13 11  2  0  0  0  0
 14 15  1  0  0  0  0
 15 16  1  0  0  0  0
M  RAD  2  14   2  15   2
M  END
