Coordinates from ORCA-job p-NO2-Ph-N2-Cl-B3LYPG-6-31G_dp-scan-d09-49-n400
 OpenBabel08281821083D

 16 16  0  0  0  0  0  0  0  0999 V2000
   -1.4455   -1.5727   -1.0402 C   0  0  0  0  0  0  0  0  0  0  0  0
   -0.0733   -1.3880   -0.9027 C   0  0  0  0  0  0  0  0  0  0  0  0
    0.4457   -0.1101   -0.6558 C   0  0  0  0  0  0  0  0  0  0  0  0
   -0.4128    0.9982   -0.5429 C   0  0  0  0  0  0  0  0  0  0  0  0
   -1.7821    0.8210   -0.6788 C   0  0  0  0  0  0  0  0  0  0  0  0
   -2.2774   -0.4620   -0.9258 C   0  0  0  0  0  0  0  0  0  0  0  0
   -1.8765   -2.5468   -1.2326 H   0  0  0  0  0  0  0  0  0  0  0  0
    0.6166   -2.2207   -0.9837 H   0  0  0  0  0  0  0  0  0  0  0  0
    0.0036    1.9795   -0.3502 H   0  0  0  0  0  0  0  0  0  0  0  0
   -2.4740    1.6498   -0.5982 H   0  0  0  0  0  0  0  0  0  0  0  0
   -3.7324   -0.6452   -1.0711 N   0  0  0  0  0  0  0  0  0  0  0  0
   -4.4439    0.3527   -0.9667 O   0  0  0  0  0  0  0  0  0  0  0  0
   -4.1436   -1.7842   -1.2853 O   0  0  0  0  0  0  0  0  0  0  0  0
    1.8634   -0.0590   -0.5372 N   0  0  0  0  0  0  0  0  0  0  0  0
    2.3094    1.0901   -0.3287 N   0  0  0  0  0  0  0  0  0  0  0  0
    3.9042    1.1552   -0.1938 Cl  0  0  0  0  0  0  0  0  0  0  0  0
  1  6  2  0  0  0  0
  1  2  1  0  0  0  0
  2  3  2  0  0  0  0
  3  4  1  0  0  0  0
  3 14  1  0  0  0  0
  4  9  1  0  0  0  0
  5 10  1  0  0  0  0
  5  4  2  0  0  0  0
  6  5  1  0  0  0  0
  7  1  1  0  0  0  0
  8  2  1  0  0  0  0
 11 12  2  0  0  0  0
 11  6  1  0  0  0  0
 13 11  2  0  0  0  0
 14 15  1  0  0  0  0
 15 16  1  0  0  0  0
M  RAD  2  14   2  15   2
M  END
