Coordinates from ORCA-job p-NO2-Ph-N2-Cl-B3LYPG-6-31G_dp-scan-d09-49-n400
 OpenBabel08281821083D

 16 15  0  0  0  0  0  0  0  0999 V2000
   -1.1399   -1.4377   -1.0162 C   0  0  0  0  0  0  0  0  0  0  0  0
    0.1749   -1.0045   -0.8413 C   0  0  0  0  0  0  0  0  0  0  0  0
    0.3848    0.3424   -0.5889 C   0  0  0  0  0  0  0  0  0  0  0  0
   -0.6517    1.2865   -0.5008 C   0  0  0  0  0  0  0  0  0  0  0  0
   -1.9545    0.8446   -0.6754 C   0  0  0  0  0  0  0  0  0  0  0  0
   -2.1728   -0.5107   -0.9303 C   0  0  0  0  0  0  0  0  0  0  0  0
   -1.3658   -2.4773   -1.2168 H   0  0  0  0  0  0  0  0  0  0  0  0
    1.0397   -1.6666   -0.8905 H   0  0  0  0  0  0  0  0  0  0  0  0
   -0.4334    2.3293   -0.2998 H   0  0  0  0  0  0  0  0  0  0  0  0
   -2.7965    1.5226   -0.6180 H   0  0  0  0  0  0  0  0  0  0  0  0
   -3.5675   -0.9748   -1.1152 N   0  0  0  0  0  0  0  0  0  0  0  0
   -4.4542   -0.1291   -1.0332 O   0  0  0  0  0  0  0  0  0  0  0  0
   -3.7368   -2.1692   -1.3370 O   0  0  0  0  0  0  0  0  0  0  0  0
    1.7270    0.8657   -0.3994 N   0  0  0  0  0  0  0  0  0  0  0  0
    2.1897    1.8882   -0.2020 N   0  0  0  0  0  0  0  0  0  0  0  0
    3.2382   -1.4517   -0.6289 Cl  0  0  0  0  0  0  0  0  0  0  0  0
  1  6  2  0  0  0  0
  1  2  1  0  0  0  0
  2  3  2  0  0  0  0
  3  4  1  0  0  0  0
  3 14  1  0  0  0  0
  4  9  1  0  0  0  0
  5 10  1  0  0  0  0
  5  4  2  0  0  0  0
  6  5  1  0  0  0  0
  7  1  1  0  0  0  0
  8  2  1  0  0  0  0
 11 12  2  0  0  0  0
 11  6  1  0  0  0  0
 13 11  2  0  0  0  0
 14 15  2  0  0  0  0
M  RAD  2  15   2  16   2
M  END
