Coordinates from ORCA-job p-NO2-Ph-N2-Cl-B3LYPG-6-31G_dp-scan-d09-49-n400
 OpenBabel08281821083D

 16 15  0  0  0  0  0  0  0  0999 V2000
   -1.0709   -1.3230   -0.9847 C   0  0  0  0  0  0  0  0  0  0  0  0
    0.2026   -0.7888   -0.7966 C   0  0  0  0  0  0  0  0  0  0  0  0
    0.2774    0.5883   -0.5552 C   0  0  0  0  0  0  0  0  0  0  0  0
   -0.8275    1.4477   -0.4920 C   0  0  0  0  0  0  0  0  0  0  0  0
   -2.0852    0.8941   -0.6818 C   0  0  0  0  0  0  0  0  0  0  0  0
   -2.1773   -0.4789   -0.9240 C   0  0  0  0  0  0  0  0  0  0  0  0
   -1.2097   -2.3798   -1.1771 H   0  0  0  0  0  0  0  0  0  0  0  0
    1.1246   -1.3903   -0.8281 H   0  0  0  0  0  0  0  0  0  0  0  0
   -0.6954    2.5064   -0.2992 H   0  0  0  0  0  0  0  0  0  0  0  0
   -2.9859    1.4928   -0.6468 H   0  0  0  0  0  0  0  0  0  0  0  0
   -3.5273   -1.0616   -1.1264 N   0  0  0  0  0  0  0  0  0  0  0  0
   -4.4821   -0.2923   -1.0639 O   0  0  0  0  0  0  0  0  0  0  0  0
   -3.5903   -2.2668   -1.3412 O   0  0  0  0  0  0  0  0  0  0  0  0
    1.5579    1.1391   -0.3644 N   0  0  0  0  0  0  0  0  0  0  0  0
    2.6873    1.0679   -0.2877 N   0  0  0  0  0  0  0  0  0  0  0  0
    3.2830   -1.8968   -0.7246 Cl  0  0  0  0  0  0  0  0  0  0  0  0
  1  6  2  0  0  0  0
  1  2  1  0  0  0  0
  2  3  2  0  0  0  0
  3  4  1  0  0  0  0
  3 14  1  0  0  0  0
  4  9  1  0  0  0  0
  5 10  1  0  0  0  0
  5  4  2  0  0  0  0
  6  5  1  0  0  0  0
  7  1  1  0  0  0  0
  8  2  1  0  0  0  0
 11 12  2  0  0  0  0
 11  6  1  0  0  0  0
 13 11  2  0  0  0  0
 14 15  2  0  0  0  0
M  RAD  2  15   2  16   2
M  END
