Coordinates from ORCA-job p-NO2-Ph-N2-Cl-B3LYPG-6-31G_dp-scan-d09-49-n400
 OpenBabel08281821083D

 16 16  0  0  0  0  0  0  0  0999 V2000
   -1.4501   -1.5640   -1.0392 C   0  0  0  0  0  0  0  0  0  0  0  0
   -0.0807   -1.3556   -0.8989 C   0  0  0  0  0  0  0  0  0  0  0  0
    0.3975   -0.0656   -0.6535 C   0  0  0  0  0  0  0  0  0  0  0  0
   -0.4711    1.0311   -0.5430 C   0  0  0  0  0  0  0  0  0  0  0  0
   -1.8370    0.8253   -0.6823 C   0  0  0  0  0  0  0  0  0  0  0  0
   -2.3015   -0.4683   -0.9282 C   0  0  0  0  0  0  0  0  0  0  0  0
   -1.8627   -2.5461   -1.2310 H   0  0  0  0  0  0  0  0  0  0  0  0
    0.6260   -2.1739   -0.9763 H   0  0  0  0  0  0  0  0  0  0  0  0
   -0.0743    2.0213   -0.3508 H   0  0  0  0  0  0  0  0  0  0  0  0
   -2.5462    1.6396   -0.6052 H   0  0  0  0  0  0  0  0  0  0  0  0
   -3.7560   -0.6818   -1.0773 N   0  0  0  0  0  0  0  0  0  0  0  0
   -4.4841    0.3027   -0.9765 O   0  0  0  0  0  0  0  0  0  0  0  0
   -4.1394   -1.8288   -1.2926 O   0  0  0  0  0  0  0  0  0  0  0  0
    1.8236    0.0426   -0.5257 N   0  0  0  0  0  0  0  0  0  0  0  0
    2.3073    1.1166   -0.3241 N   0  0  0  0  0  0  0  0  0  0  0  0
    4.3298    0.9629   -0.1891 Cl  0  0  0  0  0  0  0  0  0  0  0  0
  1  6  2  0  0  0  0
  1  2  1  0  0  0  0
  2  3  2  0  0  0  0
  3  4  1  0  0  0  0
  3 14  1  0  0  0  0
  4  9  1  0  0  0  0
  5 10  1  0  0  0  0
  5  4  2  0  0  0  0
  6  5  1  0  0  0  0
  7  1  1  0  0  0  0
  8  2  1  0  0  0  0
 11 12  2  0  0  0  0
 11  6  1  0  0  0  0
 13 11  2  0  0  0  0
 14 15  1  0  0  0  0
 15 16  1  0  0  0  0
M  RAD  2  14   2  15   2
M  END
