Coordinates from ORCA-job p-NO2-Ph-N2-Cl-B3LYPG-6-31G_dp-scan-d09-49-n400
 OpenBabel08281821083D

 16 15  0  0  0  0  0  0  0  0999 V2000
   -1.1359   -1.4337   -1.0156 C   0  0  0  0  0  0  0  0  0  0  0  0
    0.1775   -0.9961   -0.8402 C   0  0  0  0  0  0  0  0  0  0  0  0
    0.3815    0.3514   -0.5881 C   0  0  0  0  0  0  0  0  0  0  0  0
   -0.6574    1.2932   -0.5004 C   0  0  0  0  0  0  0  0  0  0  0  0
   -1.9584    0.8465   -0.6754 C   0  0  0  0  0  0  0  0  0  0  0  0
   -2.1717   -0.5099   -0.9301 C   0  0  0  0  0  0  0  0  0  0  0  0
   -1.3583   -2.4741   -1.2161 H   0  0  0  0  0  0  0  0  0  0  0  0
    1.0470   -1.6544   -0.8883 H   0  0  0  0  0  0  0  0  0  0  0  0
   -0.4423    2.3367   -0.2995 H   0  0  0  0  0  0  0  0  0  0  0  0
   -2.8029    1.5214   -0.6184 H   0  0  0  0  0  0  0  0  0  0  0  0
   -3.5651   -0.9784   -1.1154 N   0  0  0  0  0  0  0  0  0  0  0  0
   -4.4543   -0.1354   -1.0333 O   0  0  0  0  0  0  0  0  0  0  0  0
   -3.7304   -2.1732   -1.3372 O   0  0  0  0  0  0  0  0  0  0  0  0
    1.7211    0.8777   -0.3982 N   0  0  0  0  0  0  0  0  0  0  0  0
    2.1938    1.8951   -0.2012 N   0  0  0  0  0  0  0  0  0  0  0  0
    3.2371   -1.5088   -0.6365 Cl  0  0  0  0  0  0  0  0  0  0  0  0
  1  6  2  0  0  0  0
  1  2  1  0  0  0  0
  2  3  2  0  0  0  0
  3  4  1  0  0  0  0
  3 14  1  0  0  0  0
  4  9  1  0  0  0  0
  5 10  1  0  0  0  0
  5  4  2  0  0  0  0
  6  5  1  0  0  0  0
  7  1  1  0  0  0  0
  8  2  1  0  0  0  0
 11 12  2  0  0  0  0
 11  6  1  0  0  0  0
 13 11  2  0  0  0  0
 14 15  2  0  0  0  0
M  RAD  2  15   2  16   2
M  END
