Coordinates from ORCA-job p-NO2-Ph-N2-Cl-B3LYPG-6-31G_dp-scan-d09-49-n400
 OpenBabel08281821083D

 16 16  0  0  0  0  0  0  0  0999 V2000
   -1.4486   -1.5679   -1.0396 C   0  0  0  0  0  0  0  0  0  0  0  0
   -0.0777   -1.3703   -0.9000 C   0  0  0  0  0  0  0  0  0  0  0  0
    0.4187   -0.0859   -0.6538 C   0  0  0  0  0  0  0  0  0  0  0  0
   -0.4449    1.0161   -0.5421 C   0  0  0  0  0  0  0  0  0  0  0  0
   -1.8125    0.8234   -0.6802 C   0  0  0  0  0  0  0  0  0  0  0  0
   -2.2908   -0.4654   -0.9271 C   0  0  0  0  0  0  0  0  0  0  0  0
   -1.8695   -2.5465   -1.2319 H   0  0  0  0  0  0  0  0  0  0  0  0
    0.6216   -2.1950   -0.9788 H   0  0  0  0  0  0  0  0  0  0  0  0
   -0.0404    2.0028   -0.3492 H   0  0  0  0  0  0  0  0  0  0  0  0
   -2.5139    1.6443   -0.6015 H   0  0  0  0  0  0  0  0  0  0  0  0
   -3.7460   -0.6651   -1.0749 N   0  0  0  0  0  0  0  0  0  0  0  0
   -4.4663    0.3257   -0.9731 O   0  0  0  0  0  0  0  0  0  0  0  0
   -4.1417   -1.8084   -1.2906 O   0  0  0  0  0  0  0  0  0  0  0  0
    1.8444   -0.0079   -0.5300 N   0  0  0  0  0  0  0  0  0  0  0  0
    2.2962    1.1037   -0.3305 N   0  0  0  0  0  0  0  0  0  0  0  0
    4.1527    1.0541   -0.1905 Cl  0  0  0  0  0  0  0  0  0  0  0  0
  1  6  2  0  0  0  0
  1  2  1  0  0  0  0
  2  3  2  0  0  0  0
  3  4  1  0  0  0  0
  3 14  1  0  0  0  0
  4  9  1  0  0  0  0
  5 10  1  0  0  0  0
  5  4  2  0  0  0  0
  6  5  1  0  0  0  0
  7  1  1  0  0  0  0
  8  2  1  0  0  0  0
 11 12  2  0  0  0  0
 11  6  1  0  0  0  0
 13 11  2  0  0  0  0
 14 15  1  0  0  0  0
 15 16  1  0  0  0  0
M  RAD  2  14   2  15   2
M  END
