Coordinates from ORCA-job p-NO2-Ph-N2-Cl-B3LYPG-6-31G_dp-scan-d09-49-n400
 OpenBabel08281821083D

 16 15  0  0  0  0  0  0  0  0999 V2000
   -1.0798   -1.3281   -0.9868 C   0  0  0  0  0  0  0  0  0  0  0  0
    0.1957   -0.7992   -0.7997 C   0  0  0  0  0  0  0  0  0  0  0  0
    0.2797    0.5772   -0.5574 C   0  0  0  0  0  0  0  0  0  0  0  0
   -0.8222    1.4395   -0.4929 C   0  0  0  0  0  0  0  0  0  0  0  0
   -2.0835    0.8925   -0.6815 C   0  0  0  0  0  0  0  0  0  0  0  0
   -2.1827   -0.4793   -0.9245 C   0  0  0  0  0  0  0  0  0  0  0  0
   -1.2241   -2.3840   -1.1798 H   0  0  0  0  0  0  0  0  0  0  0  0
    1.1129   -1.4024   -0.8325 H   0  0  0  0  0  0  0  0  0  0  0  0
   -0.6849    2.4974   -0.2995 H   0  0  0  0  0  0  0  0  0  0  0  0
   -2.9810    1.4960   -0.6449 H   0  0  0  0  0  0  0  0  0  0  0  0
   -3.5350   -1.0561   -1.1259 N   0  0  0  0  0  0  0  0  0  0  0  0
   -4.4868   -0.2831   -1.0622 O   0  0  0  0  0  0  0  0  0  0  0  0
   -3.6035   -2.2610   -1.3415 O   0  0  0  0  0  0  0  0  0  0  0  0
    1.5614    1.1293   -0.3666 N   0  0  0  0  0  0  0  0  0  0  0  0
    2.6914    1.0280   -0.2945 N   0  0  0  0  0  0  0  0  0  0  0  0
    3.3238   -1.8088   -0.7036 Cl  0  0  0  0  0  0  0  0  0  0  0  0
  1  6  2  0  0  0  0
  1  2  1  0  0  0  0
  2  3  2  0  0  0  0
  3  4  1  0  0  0  0
  3 14  1  0  0  0  0
  4  9  1  0  0  0  0
  5 10  1  0  0  0  0
  5  4  2  0  0  0  0
  6  5  1  0  0  0  0
  7  1  1  0  0  0  0
  8  2  1  0  0  0  0
 11 12  2  0  0  0  0
 11  6  1  0  0  0  0
 13 11  2  0  0  0  0
 14 15  2  0  0  0  0
M  RAD  2  15   2  16   2
M  END
