Coordinates from ORCA-job p-NO2-Ph-N2-Cl-B3LYPG-6-31G_dp-scan-d09-49-n400
 OpenBabel08281821083D

 16 15  0  0  0  0  0  0  0  0999 V2000
   -1.4317   -1.5360   -1.0327 C   0  0  0  0  0  0  0  0  0  0  0  0
   -0.0737   -1.2685   -0.8834 C   0  0  0  0  0  0  0  0  0  0  0  0
    0.3284    0.0461   -0.6396 C   0  0  0  0  0  0  0  0  0  0  0  0
   -0.5809    1.1092   -0.5389 C   0  0  0  0  0  0  0  0  0  0  0  0
   -1.9344    0.8370   -0.6888 C   0  0  0  0  0  0  0  0  0  0  0  0
   -2.3318   -0.4784   -0.9326 C   0  0  0  0  0  0  0  0  0  0  0  0
   -1.7989   -2.5361   -1.2239 H   0  0  0  0  0  0  0  0  0  0  0  0
    0.6706   -2.0536   -0.9525 H   0  0  0  0  0  0  0  0  0  0  0  0
   -0.2265    2.1160   -0.3478 H   0  0  0  0  0  0  0  0  0  0  0  0
   -2.6825    1.6168   -0.6214 H   0  0  0  0  0  0  0  0  0  0  0  0
   -3.7769   -0.7604   -1.0925 N   0  0  0  0  0  0  0  0  0  0  0  0
   -4.5470    0.1909   -0.9989 O   0  0  0  0  0  0  0  0  0  0  0  0
   -4.1007   -1.9244   -1.3072 O   0  0  0  0  0  0  0  0  0  0  0  0
    1.7253    0.2748   -0.4961 N   0  0  0  0  0  0  0  0  0  0  0  0
    2.3968    1.1925   -0.2917 N   0  0  0  0  0  0  0  0  0  0  0  0
    4.8451    0.4319   -0.2459 Cl  0  0  0  0  0  0  0  0  0  0  0  0
  1  6  2  0  0  0  0
  1  2  1  0  0  0  0
  2  3  2  0  0  0  0
  3  4  1  0  0  0  0
  3 14  1  0  0  0  0
  4  9  1  0  0  0  0
  5 10  1  0  0  0  0
  5  4  2  0  0  0  0
  6  5  1  0  0  0  0
  7  1  1  0  0  0  0
  8  2  1  0  0  0  0
 11 12  2  0  0  0  0
 11  6  1  0  0  0  0
 13 11  2  0  0  0  0
 14 15  2  0  0  0  0
M  RAD  2  15   2  16   2
M  END
