Coordinates from ORCA-job p-CH3O-Ph-N2-X-BF4-B3LYPG-6-31G_dp-scan-d09-49-n400
 OpenBabel08281821133D

 22 21  0  0  0  0  0  0  0  0999 V2000
   -0.9742    0.6741    1.2795 C   0  0  0  0  0  0  0  0  0  0  0  0
    0.2821    0.4864    0.7278 C   0  0  0  0  0  0  0  0  0  0  0  0
    0.4577    0.8380   -0.6233 C   0  0  0  0  0  0  0  0  0  0  0  0
   -0.5804    1.3704   -1.4245 C   0  0  0  0  0  0  0  0  0  0  0  0
   -1.8148    1.5556   -0.8492 C   0  0  0  0  0  0  0  0  0  0  0  0
   -2.0240    1.2108    0.5092 C   0  0  0  0  0  0  0  0  0  0  0  0
   -1.1264    0.4081    2.3175 H   0  0  0  0  0  0  0  0  0  0  0  0
    1.1196    0.0837    1.3020 H   0  0  0  0  0  0  0  0  0  0  0  0
   -0.3986    1.6299   -2.4614 H   0  0  0  0  0  0  0  0  0  0  0  0
   -2.6438    1.9657   -1.4141 H   0  0  0  0  0  0  0  0  0  0  0  0
    1.6712    0.6422   -1.2308 N   0  0  0  0  0  0  0  0  0  0  0  0
    2.5943    0.4682   -1.8322 N   0  0  0  0  0  0  0  0  0  0  0  0
    3.6647    0.3937    1.3600 B   0  0  0  0  0  0  0  0  0  0  0  0
    4.3751   -0.2266    0.3286 F   0  0  0  0  0  0  0  0  0  0  0  0
    2.8876    1.4600    0.7870 F   0  0  0  0  0  0  0  0  0  0  0  0
    2.7213   -0.5405    1.8947 F   0  0  0  0  0  0  0  0  0  0  0  0
    4.4808    0.8828    2.3513 F   0  0  0  0  0  0  0  0  0  0  0  0
   -3.2620    1.4343    0.9654 O   0  0  0  0  0  0  0  0  0  0  0  0
   -3.5776    1.1306    2.3306 C   0  0  0  0  0  0  0  0  0  0  0  0
   -4.6238    1.4068    2.4545 H   0  0  0  0  0  0  0  0  0  0  0  0
   -2.9577    1.7171    3.0155 H   0  0  0  0  0  0  0  0  0  0  0  0
   -3.4512    0.0621    2.5332 H   0  0  0  0  0  0  0  0  0  0  0  0
  1  7  1  0  0  0  0
  2  1  1  0  0  0  0
  2  8  1  0  0  0  0
  3  2  2  0  0  0  0
  4  5  2  0  0  0  0
  4  3  1  0  0  0  0
  5  6  1  0  0  0  0
  6 18  1  0  0  0  0
  6  1  2  0  0  0  0
  9  4  1  0  0  0  0
 10  5  1  0  0  0  0
 11  3  1  0  0  0  0
 12 11  1  0  0  0  0
 13 16  1  0  0  0  0
 13 17  1  0  0  0  0
 14 13  1  0  0  0  0
 15 13  1  0  0  0  0
 18 19  1  0  0  0  0
 19 20  1  0  0  0  0
 19 22  1  0  0  0  0
 19 21  1  0  0  0  0
M  RAD  2  11   2  12   3
M  END
