Coordinates from ORCA-job p-CH3O-Ph-N2-X-BF4-B3LYPG-6-31G_dp-scan-d09-49-n400
 OpenBabel08281821133D

 22 21  0  0  0  0  0  0  0  0999 V2000
   -0.9884    0.6714    1.2956 C   0  0  0  0  0  0  0  0  0  0  0  0
    0.2730    0.4770    0.7578 C   0  0  0  0  0  0  0  0  0  0  0  0
    0.4661    0.8227   -0.5924 C   0  0  0  0  0  0  0  0  0  0  0  0
   -0.5609    1.3536   -1.4070 C   0  0  0  0  0  0  0  0  0  0  0  0
   -1.8016    1.5456   -0.8464 C   0  0  0  0  0  0  0  0  0  0  0  0
   -2.0273    1.2081    0.5106 C   0  0  0  0  0  0  0  0  0  0  0  0
   -1.1539    0.4101    2.3328 H   0  0  0  0  0  0  0  0  0  0  0  0
    1.1041    0.0725    1.3376 H   0  0  0  0  0  0  0  0  0  0  0  0
   -0.3664    1.6075   -2.4430 H   0  0  0  0  0  0  0  0  0  0  0  0
   -2.6231    1.9553   -1.4225 H   0  0  0  0  0  0  0  0  0  0  0  0
    1.6895    0.6199   -1.1773 N   0  0  0  0  0  0  0  0  0  0  0  0
    2.6464    0.4403   -1.7228 N   0  0  0  0  0  0  0  0  0  0  0  0
    3.6657    0.4155    1.3141 B   0  0  0  0  0  0  0  0  0  0  0  0
    4.2828   -0.1235    0.1691 F   0  0  0  0  0  0  0  0  0  0  0  0
    2.8607    1.5220    0.8930 F   0  0  0  0  0  0  0  0  0  0  0  0
    2.7657   -0.5601    1.8413 F   0  0  0  0  0  0  0  0  0  0  0  0
    4.5772    0.8096    2.2610 F   0  0  0  0  0  0  0  0  0  0  0  0
   -3.2704    1.4374    0.9518 O   0  0  0  0  0  0  0  0  0  0  0  0
   -3.6018    1.1420    2.3146 C   0  0  0  0  0  0  0  0  0  0  0  0
   -4.6485    1.4221    2.4258 H   0  0  0  0  0  0  0  0  0  0  0  0
   -2.9878    1.7300    3.0035 H   0  0  0  0  0  0  0  0  0  0  0  0
   -3.4813    0.0742    2.5246 H   0  0  0  0  0  0  0  0  0  0  0  0
  1  7  1  0  0  0  0
  2  1  1  0  0  0  0
  2  8  1  0  0  0  0
  3  2  2  0  0  0  0
  4  5  2  0  0  0  0
  4  3  1  0  0  0  0
  5  6  1  0  0  0  0
  6 18  1  0  0  0  0
  6  1  2  0  0  0  0
  9  4  1  0  0  0  0
 10  5  1  0  0  0  0
 11  3  1  0  0  0  0
 12 11  1  0  0  0  0
 13 16  1  0  0  0  0
 13 17  1  0  0  0  0
 14 13  1  0  0  0  0
 15 13  1  0  0  0  0
 18 19  1  0  0  0  0
 19 20  1  0  0  0  0
 19 22  1  0  0  0  0
 19 21  1  0  0  0  0
M  RAD  2  11   2  12   3
M  END
