Coordinates from ORCA-job p-CH3O-Ph-N2-X-BF4-B3LYPG-6-31G_dp-scan-d09-49-n400
 OpenBabel08281821133D

 22 22  0  0  0  0  0  0  0  0999 V2000
   -1.4810    0.7411    1.5286 C   0  0  0  0  0  0  0  0  0  0  0  0
   -0.1008    0.6382    1.4239 C   0  0  0  0  0  0  0  0  0  0  0  0
    0.5322    0.9174    0.1941 C   0  0  0  0  0  0  0  0  0  0  0  0
   -0.2509    1.2991   -0.9179 C   0  0  0  0  0  0  0  0  0  0  0  0
   -1.6226    1.4031   -0.8126 C   0  0  0  0  0  0  0  0  0  0  0  0
   -2.2523    1.1239    0.4156 C   0  0  0  0  0  0  0  0  0  0  0  0
   -1.9511    0.5211    2.4790 H   0  0  0  0  0  0  0  0  0  0  0  0
    0.4847    0.3440    2.2808 H   0  0  0  0  0  0  0  0  0  0  0  0
    0.2539    1.5092   -1.8545 H   0  0  0  0  0  0  0  0  0  0  0  0
   -2.2369    1.6963   -1.6564 H   0  0  0  0  0  0  0  0  0  0  0  0
    1.8983    0.8612   -0.0787 N   0  0  0  0  0  0  0  0  0  0  0  0
    2.8448    0.5866    0.6193 N   0  0  0  0  0  0  0  0  0  0  0  0
    4.7352    0.5436    0.2508 B   0  0  0  0  0  0  0  0  0  0  0  0
    2.5721    0.2497    1.9940 F   0  0  0  0  0  0  0  0  0  0  0  0
    4.6842    0.7931   -1.0705 F   0  0  0  0  0  0  0  0  0  0  0  0
    5.1418    1.5410    1.0567 F   0  0  0  0  0  0  0  0  0  0  0  0
    5.0107   -0.7140    0.6378 F   0  0  0  0  0  0  0  0  0  0  0  0
   -3.5947    1.2506    0.4244 O   0  0  0  0  0  0  0  0  0  0  0  0
   -4.3103    0.9843    1.6295 C   0  0  0  0  0  0  0  0  0  0  0  0
   -5.3612    1.1494    1.3911 H   0  0  0  0  0  0  0  0  0  0  0  0
   -4.0073    1.6670    2.4314 H   0  0  0  0  0  0  0  0  0  0  0  0
   -4.1691   -0.0526    1.9551 H   0  0  0  0  0  0  0  0  0  0  0  0
  1  7  1  0  0  0  0
  2  1  1  0  0  0  0
  2  8  1  0  0  0  0
  3  2  2  0  0  0  0
  4  5  2  0  0  0  0
  4  3  1  0  0  0  0
  5  6  1  0  0  0  0
  6 18  1  0  0  0  0
  6  1  2  0  0  0  0
  9  4  1  0  0  0  0
 10  5  1  0  0  0  0
 11  3  1  0  0  0  0
 11 12  1  0  0  0  0
 12 14  1  0  0  0  0
 13 12  1  0  0  0  0
 13 17  1  0  0  0  0
 13 16  1  0  0  0  0
 15 13  1  0  0  0  0
 18 19  1  0  0  0  0
 19 22  1  0  0  0  0
 19 21  1  0  0  0  0
 20 19  1  0  0  0  0
M  RAD  1  11   2
M  END
