Coordinates from ORCA-job p-CH3O-Ph-N2-X-BF4-B3LYPG-6-31G_dp-scan-d09-49-n400
 OpenBabel08281821133D

 22 22  0  0  0  0  0  0  0  0999 V2000
   -1.4645    0.6513    1.5033 C   0  0  0  0  0  0  0  0  0  0  0  0
   -0.0811    0.5377    1.4008 C   0  0  0  0  0  0  0  0  0  0  0  0
    0.5854    0.9467    0.2251 C   0  0  0  0  0  0  0  0  0  0  0  0
   -0.1893    1.4684   -0.8356 C   0  0  0  0  0  0  0  0  0  0  0  0
   -1.5613    1.5845   -0.7372 C   0  0  0  0  0  0  0  0  0  0  0  0
   -2.2153    1.1760    0.4391 C   0  0  0  0  0  0  0  0  0  0  0  0
   -1.9477    0.3278    2.4170 H   0  0  0  0  0  0  0  0  0  0  0  0
    0.4491    0.1277    2.2490 H   0  0  0  0  0  0  0  0  0  0  0  0
    0.3323    1.7776   -1.7348 H   0  0  0  0  0  0  0  0  0  0  0  0
   -2.1559    1.9859   -1.5504 H   0  0  0  0  0  0  0  0  0  0  0  0
    1.9606    0.9186   -0.0825 N   0  0  0  0  0  0  0  0  0  0  0  0
    2.8323    0.5070    0.7253 N   0  0  0  0  0  0  0  0  0  0  0  0
    4.5472    0.5281    0.2575 B   0  0  0  0  0  0  0  0  0  0  0  0
    2.5875    0.1524    1.6942 F   0  0  0  0  0  0  0  0  0  0  0  0
    4.5796   -0.1947   -0.8896 F   0  0  0  0  0  0  0  0  0  0  0  0
    4.8288    1.8513    0.1391 F   0  0  0  0  0  0  0  0  0  0  0  0
    5.0688   -0.0870    1.3633 F   0  0  0  0  0  0  0  0  0  0  0  0
   -3.5587    1.3273    0.4480 O   0  0  0  0  0  0  0  0  0  0  0  0
   -4.2893    0.9368    1.6070 C   0  0  0  0  0  0  0  0  0  0  0  0
   -5.3345    1.1566    1.3868 H   0  0  0  0  0  0  0  0  0  0  0  0
   -3.9763    1.5084    2.4884 H   0  0  0  0  0  0  0  0  0  0  0  0
   -4.1776   -0.1352    1.8076 H   0  0  0  0  0  0  0  0  0  0  0  0
  1  7  1  0  0  0  0
  2  1  1  0  0  0  0
  2  8  1  0  0  0  0
  3  2  2  0  0  0  0
  4  5  2  0  0  0  0
  4  3  1  0  0  0  0
  5  6  1  0  0  0  0
  6 18  1  0  0  0  0
  6  1  2  0  0  0  0
  9  4  1  0  0  0  0
 10  5  1  0  0  0  0
 11  3  1  0  0  0  0
 11 12  1  0  0  0  0
 12 14  1  0  0  0  0
 13 12  1  0  0  0  0
 13 17  1  0  0  0  0
 15 13  1  0  0  0  0
 16 13  1  0  0  0  0
 18 19  1  0  0  0  0
 19 22  1  0  0  0  0
 19 21  1  0  0  0  0
 20 19  1  0  0  0  0
M  RAD  1  11   2
M  END
