Coordinates from ORCA-job p-CH3O-Ph-N2-X-BF4-B3LYPG-6-31G_dp-scan-d09-49-n400
 OpenBabel08281821133D

 22 21  0  0  0  0  0  0  0  0999 V2000
   -0.9173    0.6672    1.1916 C   0  0  0  0  0  0  0  0  0  0  0  0
    0.3048    0.4963    0.5639 C   0  0  0  0  0  0  0  0  0  0  0  0
    0.4003    0.8837   -0.7859 C   0  0  0  0  0  0  0  0  0  0  0  0
   -0.6862    1.4286   -1.5149 C   0  0  0  0  0  0  0  0  0  0  0  0
   -1.8843    1.5936   -0.8642 C   0  0  0  0  0  0  0  0  0  0  0  0
   -2.0116    1.2188    0.4978 C   0  0  0  0  0  0  0  0  0  0  0  0
   -1.0032    0.3764    2.2307 H   0  0  0  0  0  0  0  0  0  0  0  0
    1.1682    0.0774    1.0915 H   0  0  0  0  0  0  0  0  0  0  0  0
   -0.5664    1.7130   -2.5543 H   0  0  0  0  0  0  0  0  0  0  0  0
   -2.7469    2.0125   -1.3693 H   0  0  0  0  0  0  0  0  0  0  0  0
    1.5804    0.7239   -1.4596 N   0  0  0  0  0  0  0  0  0  0  0  0
    2.4920    0.6041   -2.0909 N   0  0  0  0  0  0  0  0  0  0  0  0
    3.6294    0.3259    1.5602 B   0  0  0  0  0  0  0  0  0  0  0  0
    4.6727   -0.4546    1.1006 F   0  0  0  0  0  0  0  0  0  0  0  0
    3.0881    1.0866    0.4567 F   0  0  0  0  0  0  0  0  0  0  0  0
    2.5583   -0.5187    2.0084 F   0  0  0  0  0  0  0  0  0  0  0  0
    3.9970    1.1910    2.5699 F   0  0  0  0  0  0  0  0  0  0  0  0
   -3.2188    1.4304    1.0309 O   0  0  0  0  0  0  0  0  0  0  0  0
   -3.4501    1.1047    2.4091 C   0  0  0  0  0  0  0  0  0  0  0  0
   -4.4867    1.3783    2.6008 H   0  0  0  0  0  0  0  0  0  0  0  0
   -2.7886    1.6811    3.0626 H   0  0  0  0  0  0  0  0  0  0  0  0
   -3.3113    0.0333    2.5859 H   0  0  0  0  0  0  0  0  0  0  0  0
  1  7  1  0  0  0  0
  2  8  1  0  0  0  0
  2  1  1  0  0  0  0
  3  2  2  0  0  0  0
  4  5  2  0  0  0  0
  4  3  1  0  0  0  0
  5  6  1  0  0  0  0
  6 18  1  0  0  0  0
  6  1  2  0  0  0  0
  9  4  1  0  0  0  0
 10  5  1  0  0  0  0
 11  3  1  0  0  0  0
 12 11  1  0  0  0  0
 13 16  1  0  0  0  0
 13 17  1  0  0  0  0
 14 13  1  0  0  0  0
 15 13  1  0  0  0  0
 18 19  1  0  0  0  0
 19 22  1  0  0  0  0
 19 20  1  0  0  0  0
 19 21  1  0  0  0  0
M  RAD  2  11   2  12   3
M  END
