Coordinates from ORCA-job p-CH3O-Ph-N2-X-BF4-B3LYPG-6-31G_dp-scan-d09-49-n400
 OpenBabel08281821133D

 22 21  0  0  0  0  0  0  0  0999 V2000
   -0.9913    0.6736    1.2987 C   0  0  0  0  0  0  0  0  0  0  0  0
    0.2714    0.4794    0.7638 C   0  0  0  0  0  0  0  0  0  0  0  0
    0.4676    0.8227   -0.5866 C   0  0  0  0  0  0  0  0  0  0  0  0
   -0.5582    1.3502   -1.4042 C   0  0  0  0  0  0  0  0  0  0  0  0
   -1.8007    1.5414   -0.8471 C   0  0  0  0  0  0  0  0  0  0  0  0
   -2.0292    1.2068    0.5099 C   0  0  0  0  0  0  0  0  0  0  0  0
   -1.1589    0.4141    2.3359 H   0  0  0  0  0  0  0  0  0  0  0  0
    1.1011    0.0763    1.3460 H   0  0  0  0  0  0  0  0  0  0  0  0
   -0.3616    1.6025   -2.4402 H   0  0  0  0  0  0  0  0  0  0  0  0
   -2.6215    1.9486   -1.4261 H   0  0  0  0  0  0  0  0  0  0  0  0
    1.6945    0.6231   -1.1656 N   0  0  0  0  0  0  0  0  0  0  0  0
    2.6625    0.4436   -1.6920 N   0  0  0  0  0  0  0  0  0  0  0  0
    3.6664    0.4165    1.3059 B   0  0  0  0  0  0  0  0  0  0  0  0
    4.2496   -0.1156    0.1351 F   0  0  0  0  0  0  0  0  0  0  0  0
    2.8637    1.5334    0.9161 F   0  0  0  0  0  0  0  0  0  0  0  0
    2.7734   -0.5584    1.8421 F   0  0  0  0  0  0  0  0  0  0  0  0
    4.6096    0.7879    2.2295 F   0  0  0  0  0  0  0  0  0  0  0  0
   -3.2739    1.4352    0.9479 O   0  0  0  0  0  0  0  0  0  0  0  0
   -3.6076    1.1425    2.3105 C   0  0  0  0  0  0  0  0  0  0  0  0
   -4.6551    1.4211    2.4189 H   0  0  0  0  0  0  0  0  0  0  0  0
   -2.9961    1.7332    2.9994 H   0  0  0  0  0  0  0  0  0  0  0  0
   -3.4858    0.0754    2.5235 H   0  0  0  0  0  0  0  0  0  0  0  0
  1  7  1  0  0  0  0
  2  1  1  0  0  0  0
  2  8  1  0  0  0  0
  3  2  2  0  0  0  0
  4  5  2  0  0  0  0
  4  3  1  0  0  0  0
  5  6  1  0  0  0  0
  6 18  1  0  0  0  0
  6  1  2  0  0  0  0
  9  4  1  0  0  0  0
 10  5  1  0  0  0  0
 11  3  1  0  0  0  0
 12 11  1  0  0  0  0
 13 16  1  0  0  0  0
 13 17  1  0  0  0  0
 14 13  1  0  0  0  0
 15 13  1  0  0  0  0
 18 19  1  0  0  0  0
 19 20  1  0  0  0  0
 19 22  1  0  0  0  0
 19 21  1  0  0  0  0
M  RAD  2  11   2  12   3
M  END
