Coordinates from ORCA-job p-CH3O-Ph-N2-X-BF4-B3LYPG-6-31G_dp-scan-d09-49-n400
 OpenBabel08281821133D

 22 22  0  0  0  0  0  0  0  0999 V2000
   -1.4652    0.6518    1.5043 C   0  0  0  0  0  0  0  0  0  0  0  0
   -0.0823    0.5373    1.4025 C   0  0  0  0  0  0  0  0  0  0  0  0
    0.5842    0.9438    0.2258 C   0  0  0  0  0  0  0  0  0  0  0  0
   -0.1896    1.4637   -0.8366 C   0  0  0  0  0  0  0  0  0  0  0  0
   -1.5614    1.5808   -0.7387 C   0  0  0  0  0  0  0  0  0  0  0  0
   -2.2157    1.1750    0.4386 C   0  0  0  0  0  0  0  0  0  0  0  0
   -1.9491    0.3304    2.4183 H   0  0  0  0  0  0  0  0  0  0  0  0
    0.4490    0.1289    2.2506 H   0  0  0  0  0  0  0  0  0  0  0  0
    0.3325    1.7708   -1.7362 H   0  0  0  0  0  0  0  0  0  0  0  0
   -2.1559    1.9809   -1.5526 H   0  0  0  0  0  0  0  0  0  0  0  0
    1.9582    0.9147   -0.0808 N   0  0  0  0  0  0  0  0  0  0  0  0
    2.8341    0.5074    0.7204 N   0  0  0  0  0  0  0  0  0  0  0  0
    4.5504    0.5307    0.2560 B   0  0  0  0  0  0  0  0  0  0  0  0
    2.5860    0.1483    1.7088 F   0  0  0  0  0  0  0  0  0  0  0  0
    4.5794   -0.1749   -0.9017 F   0  0  0  0  0  0  0  0  0  0  0  0
    4.8310    1.8559    0.1553 F   0  0  0  0  0  0  0  0  0  0  0  0
    5.0739   -0.0992    1.3512 F   0  0  0  0  0  0  0  0  0  0  0  0
   -3.5585    1.3269    0.4471 O   0  0  0  0  0  0  0  0  0  0  0  0
   -4.2901    0.9395    1.6069 C   0  0  0  0  0  0  0  0  0  0  0  0
   -5.3348    1.1598    1.3855 H   0  0  0  0  0  0  0  0  0  0  0  0
   -3.9769    1.5128    2.4870 H   0  0  0  0  0  0  0  0  0  0  0  0
   -4.1792   -0.1321    1.8096 H   0  0  0  0  0  0  0  0  0  0  0  0
  1  7  1  0  0  0  0
  2  1  1  0  0  0  0
  2  8  1  0  0  0  0
  3  2  2  0  0  0  0
  4  5  2  0  0  0  0
  4  3  1  0  0  0  0
  5  6  1  0  0  0  0
  6 18  1  0  0  0  0
  6  1  2  0  0  0  0
  9  4  1  0  0  0  0
 10  5  1  0  0  0  0
 11  3  1  0  0  0  0
 11 12  1  0  0  0  0
 12 14  1  0  0  0  0
 13 12  1  0  0  0  0
 13 17  1  0  0  0  0
 15 13  1  0  0  0  0
 16 13  1  0  0  0  0
 18 19  1  0  0  0  0
 19 22  1  0  0  0  0
 19 21  1  0  0  0  0
 20 19  1  0  0  0  0
M  RAD  1  11   2
M  END
