Coordinates from ORCA-job p-CH3O-Ph-N2-X-BF4-B3LYPG-6-31G_dp-scan-d09-49-n400
 OpenBabel08281821133D

 22 21  0  0  0  0  0  0  0  0999 V2000
   -1.5484    0.7471    1.5230 C   0  0  0  0  0  0  0  0  0  0  0  0
   -0.1680    0.6428    1.4024 C   0  0  0  0  0  0  0  0  0  0  0  0
    0.4465    0.9213    0.1660 C   0  0  0  0  0  0  0  0  0  0  0  0
   -0.3445    1.3034   -0.9369 C   0  0  0  0  0  0  0  0  0  0  0  0
   -1.7160    1.4083   -0.8149 C   0  0  0  0  0  0  0  0  0  0  0  0
   -2.3314    1.1299    0.4200 C   0  0  0  0  0  0  0  0  0  0  0  0
   -2.0068    0.5276    2.4793 H   0  0  0  0  0  0  0  0  0  0  0  0
    0.4402    0.3500    2.2439 H   0  0  0  0  0  0  0  0  0  0  0  0
    0.1479    1.5136   -1.8802 H   0  0  0  0  0  0  0  0  0  0  0  0
   -2.3398    1.7019   -1.6517 H   0  0  0  0  0  0  0  0  0  0  0  0
    1.8180    0.8575   -0.1025 N   0  0  0  0  0  0  0  0  0  0  0  0
    2.7836    0.5881    0.5511 N   0  0  0  0  0  0  0  0  0  0  0  0
    5.1712    0.5233    0.2435 B   0  0  0  0  0  0  0  0  0  0  0  0
    2.4918    0.2308    2.0115 F   0  0  0  0  0  0  0  0  0  0  0  0
    5.0690    0.7802   -1.0536 F   0  0  0  0  0  0  0  0  0  0  0  0
    5.3901    1.5166    1.0906 F   0  0  0  0  0  0  0  0  0  0  0  0
    5.2852   -0.7292    0.6550 F   0  0  0  0  0  0  0  0  0  0  0  0
   -3.6764    1.2583    0.4436 O   0  0  0  0  0  0  0  0  0  0  0  0
   -4.3742    0.9929    1.6576 C   0  0  0  0  0  0  0  0  0  0  0  0
   -5.4288    1.1589    1.4353 H   0  0  0  0  0  0  0  0  0  0  0  0
   -4.0595    1.6744    2.4564 H   0  0  0  0  0  0  0  0  0  0  0  0
   -4.2299   -0.0442    1.9823 H   0  0  0  0  0  0  0  0  0  0  0  0
  1  7  1  0  0  0  0
  2  1  1  0  0  0  0
  2  8  1  0  0  0  0
  3  2  2  0  0  0  0
  4  5  2  0  0  0  0
  4  3  1  0  0  0  0
  5  6  1  0  0  0  0
  6 18  1  0  0  0  0
  6  1  2  0  0  0  0
  9  4  1  0  0  0  0
 10  5  1  0  0  0  0
 11  3  1  0  0  0  0
 11 12  1  0  0  0  0
 12 14  1  0  0  0  0
 13 17  1  0  0  0  0
 13 16  1  0  0  0  0
 15 13  1  0  0  0  0
 18 19  1  0  0  0  0
 19 22  1  0  0  0  0
 19 21  1  0  0  0  0
 20 19  1  0  0  0  0
M  RAD  2  11   2  12   2
M  END
