Coordinates from ORCA-job p-CH3O-Ph-N2-X-BF4-B3LYPG-6-31G_dp-scan-d09-49-n400
 OpenBabel08281821133D

 22 21  0  0  0  0  0  0  0  0999 V2000
   -0.9915    0.6623    1.2856 C   0  0  0  0  0  0  0  0  0  0  0  0
    0.2707    0.4685    0.7483 C   0  0  0  0  0  0  0  0  0  0  0  0
    0.4722    0.8242   -0.5985 C   0  0  0  0  0  0  0  0  0  0  0  0
   -0.5510    1.3651   -1.4075 C   0  0  0  0  0  0  0  0  0  0  0  0
   -1.7944    1.5571   -0.8503 C   0  0  0  0  0  0  0  0  0  0  0  0
   -2.0263    1.2078    0.5014 C   0  0  0  0  0  0  0  0  0  0  0  0
   -1.1604    0.3936    2.3203 H   0  0  0  0  0  0  0  0  0  0  0  0
    1.0917    0.0597    1.3366 H   0  0  0  0  0  0  0  0  0  0  0  0
   -0.3515    1.6274   -2.4404 H   0  0  0  0  0  0  0  0  0  0  0  0
   -2.6125    1.9748   -1.4255 H   0  0  0  0  0  0  0  0  0  0  0  0
    1.7038    0.6253   -1.1686 N   0  0  0  0  0  0  0  0  0  0  0  0
    2.7378    0.4284   -1.5533 N   0  0  0  0  0  0  0  0  0  0  0  0
    3.6377    0.4430    1.3170 B   0  0  0  0  0  0  0  0  0  0  0  0
    3.9509   -0.2197    0.0771 F   0  0  0  0  0  0  0  0  0  0  0  0
    2.8925    1.5994    0.9810 F   0  0  0  0  0  0  0  0  0  0  0  0
    2.7907   -0.4189    2.0559 F   0  0  0  0  0  0  0  0  0  0  0  0
    4.7819    0.7490    2.0024 F   0  0  0  0  0  0  0  0  0  0  0  0
   -3.2720    1.4350    0.9411 O   0  0  0  0  0  0  0  0  0  0  0  0
   -3.6084    1.1213    2.2977 C   0  0  0  0  0  0  0  0  0  0  0  0
   -4.6554    1.4007    2.4095 H   0  0  0  0  0  0  0  0  0  0  0  0
   -2.9969    1.6987    2.9979 H   0  0  0  0  0  0  0  0  0  0  0  0
   -3.4899    0.0505    2.4940 H   0  0  0  0  0  0  0  0  0  0  0  0
  1  7  1  0  0  0  0
  2  1  1  0  0  0  0
  2  8  1  0  0  0  0
  3  2  2  0  0  0  0
  4  5  2  0  0  0  0
  4  3  1  0  0  0  0
  5  6  1  0  0  0  0
  6 18  1  0  0  0  0
  6  1  2  0  0  0  0
  9  4  1  0  0  0  0
 10  5  1  0  0  0  0
 11  3  1  0  0  0  0
 12 11  1  0  0  0  0
 13 17  1  0  0  0  0
 13 16  1  0  0  0  0
 14 13  1  0  0  0  0
 15 13  1  0  0  0  0
 18 19  1  0  0  0  0
 19 20  1  0  0  0  0
 19 22  1  0  0  0  0
 19 21  1  0  0  0  0
M  RAD  2  11   2  12   3
M  END
