Coordinates from ORCA-job p-CH3O-Ph-N2-X-BF4-B3LYPG-6-31G_dp-scan-d09-49-n400
 OpenBabel08281821133D

 22 21  0  0  0  0  0  0  0  0999 V2000
   -0.9852    0.6704    1.2921 C   0  0  0  0  0  0  0  0  0  0  0  0
    0.2747    0.4761    0.7509 C   0  0  0  0  0  0  0  0  0  0  0  0
    0.4641    0.8238   -0.5993 C   0  0  0  0  0  0  0  0  0  0  0  0
   -0.5647    1.3568   -1.4106 C   0  0  0  0  0  0  0  0  0  0  0  0
   -1.8036    1.5487   -0.8465 C   0  0  0  0  0  0  0  0  0  0  0  0
   -2.0259    1.2090    0.5107 C   0  0  0  0  0  0  0  0  0  0  0  0
   -1.1480    0.4078    2.3293 H   0  0  0  0  0  0  0  0  0  0  0  0
    1.1072    0.0710    1.3290 H   0  0  0  0  0  0  0  0  0  0  0  0
   -0.3729    1.6124   -2.4467 H   0  0  0  0  0  0  0  0  0  0  0  0
   -2.6263    1.9601   -1.4196 H   0  0  0  0  0  0  0  0  0  0  0  0
    1.6848    0.6212   -1.1899 N   0  0  0  0  0  0  0  0  0  0  0  0
    2.6324    0.4436   -1.7515 N   0  0  0  0  0  0  0  0  0  0  0  0
    3.6651    0.4125    1.3238 B   0  0  0  0  0  0  0  0  0  0  0  0
    4.3122   -0.1393    0.2058 F   0  0  0  0  0  0  0  0  0  0  0  0
    2.8613    1.5086    0.8681 F   0  0  0  0  0  0  0  0  0  0  0  0
    2.7569   -0.5595    1.8465 F   0  0  0  0  0  0  0  0  0  0  0  0
    4.5478    0.8299    2.2888 F   0  0  0  0  0  0  0  0  0  0  0  0
   -3.2675    1.4385    0.9555 O   0  0  0  0  0  0  0  0  0  0  0  0
   -3.5958    1.1408    2.3187 C   0  0  0  0  0  0  0  0  0  0  0  0
   -4.6419    1.4216    2.4330 H   0  0  0  0  0  0  0  0  0  0  0  0
   -2.9795    1.7270    3.0071 H   0  0  0  0  0  0  0  0  0  0  0  0
   -3.4756    0.0725    2.5263 H   0  0  0  0  0  0  0  0  0  0  0  0
  1  7  1  0  0  0  0
  2  1  1  0  0  0  0
  2  8  1  0  0  0  0
  3  2  2  0  0  0  0
  4  5  2  0  0  0  0
  4  3  1  0  0  0  0
  5  6  1  0  0  0  0
  6 18  1  0  0  0  0
  6  1  2  0  0  0  0
  9  4  1  0  0  0  0
 10  5  1  0  0  0  0
 11  3  1  0  0  0  0
 12 11  1  0  0  0  0
 13 16  1  0  0  0  0
 13 17  1  0  0  0  0
 14 13  1  0  0  0  0
 15 13  1  0  0  0  0
 18 19  1  0  0  0  0
 19 20  1  0  0  0  0
 19 22  1  0  0  0  0
 19 21  1  0  0  0  0
M  RAD  2  11   2  12   3
M  END
