Coordinates from ORCA-job p-CH3O-Ph-N2-X-BF4-B3LYPG-6-31G_dp-scan-d09-49-n400
 OpenBabel08281821133D

 22 21  0  0  0  0  0  0  0  0999 V2000
   -0.8886    0.2772    1.0629 C   0  0  0  0  0  0  0  0  0  0  0  0
    0.2736    0.0282    0.3553 C   0  0  0  0  0  0  0  0  0  0  0  0
    0.4943    0.7606   -0.8258 C   0  0  0  0  0  0  0  0  0  0  0  0
   -0.4093    1.7428   -1.3054 C   0  0  0  0  0  0  0  0  0  0  0  0
   -1.5510    1.9750   -0.5822 C   0  0  0  0  0  0  0  0  0  0  0  0
   -1.7981    1.2499    0.6133 C   0  0  0  0  0  0  0  0  0  0  0  0
   -1.0491   -0.2574    1.9892 H   0  0  0  0  0  0  0  0  0  0  0  0
    1.0308   -0.6678    0.6957 H   0  0  0  0  0  0  0  0  0  0  0  0
   -0.1931    2.2936   -2.2136 H   0  0  0  0  0  0  0  0  0  0  0  0
   -2.2751    2.7187   -0.8945 H   0  0  0  0  0  0  0  0  0  0  0  0
    1.6083    0.5198   -1.5722 N   0  0  0  0  0  0  0  0  0  0  0  0
    2.4416    0.3395   -2.2940 N   0  0  0  0  0  0  0  0  0  0  0  0
    3.1000    0.6371    1.4503 B   0  0  0  0  0  0  0  0  0  0  0  0
    4.2456    0.6952    2.2155 F   0  0  0  0  0  0  0  0  0  0  0  0
    3.0326   -0.5846    0.6903 F   0  0  0  0  0  0  0  0  0  0  0  0
    1.9487    0.6791    2.2719 F   0  0  0  0  0  0  0  0  0  0  0  0
    3.0178    1.6840    0.5001 F   0  0  0  0  0  0  0  0  0  0  0  0
   -2.9322    1.5755    1.2427 O   0  0  0  0  0  0  0  0  0  0  0  0
   -3.2465    0.9538    2.4958 C   0  0  0  0  0  0  0  0  0  0  0  0
   -4.1899    1.3972    2.8106 H   0  0  0  0  0  0  0  0  0  0  0  0
   -2.4711    1.1635    3.2393 H   0  0  0  0  0  0  0  0  0  0  0  0
   -3.3696   -0.1276    2.3762 H   0  0  0  0  0  0  0  0  0  0  0  0
  1  7  1  0  0  0  0
  2  8  1  0  0  0  0
  2  1  2  0  0  0  0
  3  2  1  0  0  0  0
  4  3  2  0  0  0  0
  4  5  1  0  0  0  0
  5  6  2  0  0  0  0
  6  1  1  0  0  0  0
  6 18  1  0  0  0  0
  9  4  1  0  0  0  0
 10  5  1  0  0  0  0
 11  3  1  0  0  0  0
 12 11  1  0  0  0  0
 13 14  1  0  0  0  0
 13 16  1  0  0  0  0
 15 13  1  0  0  0  0
 17 13  1  0  0  0  0
 18 19  1  0  0  0  0
 19 20  1  0  0  0  0
 19 21  1  0  0  0  0
 22 19  1  0  0  0  0
M  RAD  2  11   2  12   3
M  END
