Coordinates from ORCA-job p-CH3O-Ph-N2-X-BF4-B3LYPG-6-31G_dp-scan-d09-49-n400
 OpenBabel08281821133D

 22 22  0  0  0  0  0  0  0  0999 V2000
   -1.4615    0.7357    1.5287 C   0  0  0  0  0  0  0  0  0  0  0  0
   -0.0811    0.6303    1.4252 C   0  0  0  0  0  0  0  0  0  0  0  0
    0.5602    0.9089    0.1975 C   0  0  0  0  0  0  0  0  0  0  0  0
   -0.2280    1.2923   -0.9125 C   0  0  0  0  0  0  0  0  0  0  0  0
   -1.5994    1.3989   -0.8106 C   0  0  0  0  0  0  0  0  0  0  0  0
   -2.2318    1.1208    0.4160 C   0  0  0  0  0  0  0  0  0  0  0  0
   -1.9325    0.5156    2.4787 H   0  0  0  0  0  0  0  0  0  0  0  0
    0.4852    0.3327    2.2942 H   0  0  0  0  0  0  0  0  0  0  0  0
    0.2797    1.5021   -1.8475 H   0  0  0  0  0  0  0  0  0  0  0  0
   -2.2110    1.6938   -1.6558 H   0  0  0  0  0  0  0  0  0  0  0  0
    1.9231    0.8620   -0.1016 N   0  0  0  0  0  0  0  0  0  0  0  0
    2.8517    0.5758    0.6478 N   0  0  0  0  0  0  0  0  0  0  0  0
    4.6073    0.5534    0.2718 B   0  0  0  0  0  0  0  0  0  0  0  0
    2.5930    0.2696    1.8855 F   0  0  0  0  0  0  0  0  0  0  0  0
    4.6085    0.8007   -1.0582 F   0  0  0  0  0  0  0  0  0  0  0  0
    5.0594    1.5517    1.0747 F   0  0  0  0  0  0  0  0  0  0  0  0
    4.9416   -0.7053    0.6562 F   0  0  0  0  0  0  0  0  0  0  0  0
   -3.5737    1.2505    0.4245 O   0  0  0  0  0  0  0  0  0  0  0  0
   -4.2907    0.9876    1.6295 C   0  0  0  0  0  0  0  0  0  0  0  0
   -5.3409    1.1565    1.3906 H   0  0  0  0  0  0  0  0  0  0  0  0
   -3.9854    1.6697    2.4310 H   0  0  0  0  0  0  0  0  0  0  0  0
   -4.1537   -0.0497    1.9556 H   0  0  0  0  0  0  0  0  0  0  0  0
  1  7  1  0  0  0  0
  2  1  1  0  0  0  0
  2  8  1  0  0  0  0
  3  2  2  0  0  0  0
  4  5  2  0  0  0  0
  4  3  1  0  0  0  0
  5  6  1  0  0  0  0
  6 18  1  0  0  0  0
  6  1  2  0  0  0  0
  9  4  1  0  0  0  0
 10  5  1  0  0  0  0
 11  3  1  0  0  0  0
 11 12  1  0  0  0  0
 12 14  1  0  0  0  0
 13 12  1  0  0  0  0
 13 17  1  0  0  0  0
 13 16  1  0  0  0  0
 15 13  1  0  0  0  0
 18 19  1  0  0  0  0
 19 22  1  0  0  0  0
 19 21  1  0  0  0  0
 20 19  1  0  0  0  0
M  RAD  1  11   2
M  END
