Coordinates from ORCA-job p-CH3O-Ph-N2-X-BF4-B3LYPG-6-31G_dp-scan-d09-49-n400
 OpenBabel08281821133D

 22 21  0  0  0  0  0  0  0  0999 V2000
   -0.9893    0.6610    1.2863 C   0  0  0  0  0  0  0  0  0  0  0  0
    0.2724    0.4675    0.7485 C   0  0  0  0  0  0  0  0  0  0  0  0
    0.4711    0.8248   -0.5984 C   0  0  0  0  0  0  0  0  0  0  0  0
   -0.5518    1.3680   -1.4072 C   0  0  0  0  0  0  0  0  0  0  0  0
   -1.7941    1.5591   -0.8483 C   0  0  0  0  0  0  0  0  0  0  0  0
   -2.0246    1.2084    0.5037 C   0  0  0  0  0  0  0  0  0  0  0  0
   -1.1576    0.3909    2.3207 H   0  0  0  0  0  0  0  0  0  0  0  0
    1.0958    0.0568    1.3336 H   0  0  0  0  0  0  0  0  0  0  0  0
   -0.3533    1.6321   -2.4399 H   0  0  0  0  0  0  0  0  0  0  0  0
   -2.6127    1.9778   -1.4221 H   0  0  0  0  0  0  0  0  0  0  0  0
    1.7006    0.6255   -1.1711 N   0  0  0  0  0  0  0  0  0  0  0  0
    2.7087    0.4269   -1.6126 N   0  0  0  0  0  0  0  0  0  0  0  0
    3.6416    0.4356    1.3180 B   0  0  0  0  0  0  0  0  0  0  0  0
    4.0245   -0.2234    0.1104 F   0  0  0  0  0  0  0  0  0  0  0  0
    2.8785    1.5759    0.9451 F   0  0  0  0  0  0  0  0  0  0  0  0
    2.7768   -0.4354    2.0327 F   0  0  0  0  0  0  0  0  0  0  0  0
    4.7381    0.7834    2.0624 F   0  0  0  0  0  0  0  0  0  0  0  0
   -3.2691    1.4362    0.9445 O   0  0  0  0  0  0  0  0  0  0  0  0
   -3.6049    1.1238    2.3018 C   0  0  0  0  0  0  0  0  0  0  0  0
   -4.6515    1.4044    2.4140 H   0  0  0  0  0  0  0  0  0  0  0  0
   -2.9921    1.7013    3.0008 H   0  0  0  0  0  0  0  0  0  0  0  0
   -3.4873    0.0530    2.4986 H   0  0  0  0  0  0  0  0  0  0  0  0
  1  7  1  0  0  0  0
  2  1  1  0  0  0  0
  2  8  1  0  0  0  0
  3  2  2  0  0  0  0
  4  5  2  0  0  0  0
  4  3  1  0  0  0  0
  5  6  1  0  0  0  0
  6 18  1  0  0  0  0
  6  1  2  0  0  0  0
  9  4  1  0  0  0  0
 10  5  1  0  0  0  0
 11  3  1  0  0  0  0
 12 11  1  0  0  0  0
 13 16  1  0  0  0  0
 13 17  1  0  0  0  0
 14 13  1  0  0  0  0
 15 13  1  0  0  0  0
 18 19  1  0  0  0  0
 19 20  1  0  0  0  0
 19 22  1  0  0  0  0
 19 21  1  0  0  0  0
M  RAD  2  11   2  12   3
M  END
