Coordinates from ORCA-job p-CH3O-Ph-N2-X-BF4-B3LYPG-6-31G_dp-scan-d09-49-n400
 OpenBabel08281821133D

 22 21  0  0  0  0  0  0  0  0999 V2000
   -0.9923    0.6624    1.2834 C   0  0  0  0  0  0  0  0  0  0  0  0
    0.2708    0.4717    0.7466 C   0  0  0  0  0  0  0  0  0  0  0  0
    0.4747    0.8266   -0.5998 C   0  0  0  0  0  0  0  0  0  0  0  0
   -0.5503    1.3635   -1.4082 C   0  0  0  0  0  0  0  0  0  0  0  0
   -1.7956    1.5525   -0.8533 C   0  0  0  0  0  0  0  0  0  0  0  0
   -2.0280    1.2047    0.4981 C   0  0  0  0  0  0  0  0  0  0  0  0
   -1.1613    0.3939    2.3181 H   0  0  0  0  0  0  0  0  0  0  0  0
    1.0891    0.0653    1.3385 H   0  0  0  0  0  0  0  0  0  0  0  0
   -0.3503    1.6254   -2.4412 H   0  0  0  0  0  0  0  0  0  0  0  0
   -2.6142    1.9671   -1.4300 H   0  0  0  0  0  0  0  0  0  0  0  0
    1.7084    0.6348   -1.1704 N   0  0  0  0  0  0  0  0  0  0  0  0
    2.7604    0.4255   -1.5062 N   0  0  0  0  0  0  0  0  0  0  0  0
    3.6317    0.4492    1.3217 B   0  0  0  0  0  0  0  0  0  0  0  0
    3.8822   -0.2134    0.0511 F   0  0  0  0  0  0  0  0  0  0  0  0
    2.9055    1.6192    1.0175 F   0  0  0  0  0  0  0  0  0  0  0  0
    2.8016   -0.4078    2.0764 F   0  0  0  0  0  0  0  0  0  0  0  0
    4.8150    0.7146    1.9513 F   0  0  0  0  0  0  0  0  0  0  0  0
   -3.2749    1.4297    0.9375 O   0  0  0  0  0  0  0  0  0  0  0  0
   -3.6093    1.1200    2.2950 C   0  0  0  0  0  0  0  0  0  0  0  0
   -4.6566    1.3980    2.4074 H   0  0  0  0  0  0  0  0  0  0  0  0
   -2.9979    1.7005    2.9930 H   0  0  0  0  0  0  0  0  0  0  0  0
   -3.4889    0.0500    2.4952 H   0  0  0  0  0  0  0  0  0  0  0  0
  1  7  1  0  0  0  0
  2  1  1  0  0  0  0
  2  8  1  0  0  0  0
  3  2  2  0  0  0  0
  4  5  2  0  0  0  0
  4  3  1  0  0  0  0
  5  6  1  0  0  0  0
  6 18  1  0  0  0  0
  6  1  2  0  0  0  0
  9  4  1  0  0  0  0
 10  5  1  0  0  0  0
 11  3  1  0  0  0  0
 12 11  1  0  0  0  0
 13 17  1  0  0  0  0
 13 16  1  0  0  0  0
 14 13  1  0  0  0  0
 15 13  1  0  0  0  0
 18 19  1  0  0  0  0
 19 20  1  0  0  0  0
 19 22  1  0  0  0  0
 19 21  1  0  0  0  0
M  RAD  2  11   2  12   3
M  END
