Coordinates from ORCA-job p-CH3O-Ph-N2-X-BF4-B3LYPG-6-31G_dp-scan-d09-49-n400
 OpenBabel08281821133D

 22 21  0  0  0  0  0  0  0  0999 V2000
   -1.5341    0.7528    1.4821 C   0  0  0  0  0  0  0  0  0  0  0  0
   -0.1605    0.6557    1.2989 C   0  0  0  0  0  0  0  0  0  0  0  0
    0.3857    0.9447    0.0348 C   0  0  0  0  0  0  0  0  0  0  0  0
   -0.4468    1.3289   -1.0337 C   0  0  0  0  0  0  0  0  0  0  0  0
   -1.8115    1.4249   -0.8457 C   0  0  0  0  0  0  0  0  0  0  0  0
   -2.3672    1.1367    0.4163 C   0  0  0  0  0  0  0  0  0  0  0  0
   -1.9483    0.5269    2.4567 H   0  0  0  0  0  0  0  0  0  0  0  0
    0.5092    0.3645    2.0953 H   0  0  0  0  0  0  0  0  0  0  0  0
   -0.0003    1.5469   -1.9978 H   0  0  0  0  0  0  0  0  0  0  0  0
   -2.4762    1.7187   -1.6500 H   0  0  0  0  0  0  0  0  0  0  0  0
    1.7508    0.8757   -0.2543 N   0  0  0  0  0  0  0  0  0  0  0  0
    2.7470    0.6099    0.3178 N   0  0  0  0  0  0  0  0  0  0  0  0
    5.2942    0.4919    0.4227 B   0  0  0  0  0  0  0  0  0  0  0  0
    2.5084    0.2023    1.9216 F   0  0  0  0  0  0  0  0  0  0  0  0
    5.3824    0.7123   -0.8806 F   0  0  0  0  0  0  0  0  0  0  0  0
    5.3596    1.5103    1.2606 F   0  0  0  0  0  0  0  0  0  0  0  0
    5.2989   -0.7466    0.8772 F   0  0  0  0  0  0  0  0  0  0  0  0
   -3.7098    1.2582    0.5006 O   0  0  0  0  0  0  0  0  0  0  0  0
   -4.3520    0.9837    1.7436 C   0  0  0  0  0  0  0  0  0  0  0  0
   -5.4159    1.1474    1.5691 H   0  0  0  0  0  0  0  0  0  0  0  0
   -4.0041    1.6620    2.5312 H   0  0  0  0  0  0  0  0  0  0  0  0
   -4.1895   -0.0545    2.0553 H   0  0  0  0  0  0  0  0  0  0  0  0
  1  7  1  0  0  0  0
  2  1  1  0  0  0  0
  2  8  1  0  0  0  0
  3  2  2  0  0  0  0
  4  5  2  0  0  0  0
  4  3  1  0  0  0  0
  5  6  1  0  0  0  0
  6 18  1  0  0  0  0
  6  1  2  0  0  0  0
  9  4  1  0  0  0  0
 10  5  1  0  0  0  0
 11  3  1  0  0  0  0
 11 12  1  0  0  0  0
 12 14  1  0  0  0  0
 13 17  1  0  0  0  0
 13 16  1  0  0  0  0
 15 13  1  0  0  0  0
 18 19  1  0  0  0  0
 19 22  1  0  0  0  0
 19 21  1  0  0  0  0
 20 19  1  0  0  0  0
M  RAD  2  11   2  12   2
M  END
