Coordinates from ORCA-job p-CH3O-Ph-N2-X-BF4-B3LYPG-6-31G_dp-scan-d09-49-n400
 OpenBabel08281821133D

 22 21  0  0  0  0  0  0  0  0999 V2000
   -0.9721    0.6751    1.2771 C   0  0  0  0  0  0  0  0  0  0  0  0
    0.2833    0.4885    0.7234 C   0  0  0  0  0  0  0  0  0  0  0  0
    0.4564    0.8406   -0.6279 C   0  0  0  0  0  0  0  0  0  0  0  0
   -0.5838    1.3719   -1.4275 C   0  0  0  0  0  0  0  0  0  0  0  0
   -1.8174    1.5555   -0.8501 C   0  0  0  0  0  0  0  0  0  0  0  0
   -2.0239    1.2106    0.5086 C   0  0  0  0  0  0  0  0  0  0  0  0
   -1.1222    0.4089    2.3154 H   0  0  0  0  0  0  0  0  0  0  0  0
    1.1219    0.0862    1.2968 H   0  0  0  0  0  0  0  0  0  0  0  0
   -0.4039    1.6321   -2.4646 H   0  0  0  0  0  0  0  0  0  0  0  0
   -2.6478    1.9648   -1.4136 H   0  0  0  0  0  0  0  0  0  0  0  0
    1.6694    0.6485   -1.2375 N   0  0  0  0  0  0  0  0  0  0  0  0
    2.5900    0.4778   -1.8436 N   0  0  0  0  0  0  0  0  0  0  0  0
    3.6641    0.3894    1.3664 B   0  0  0  0  0  0  0  0  0  0  0  0
    4.3845   -0.2434    0.3509 F   0  0  0  0  0  0  0  0  0  0  0  0
    2.8932    1.4499    0.7730 F   0  0  0  0  0  0  0  0  0  0  0  0
    2.7143   -0.5374    1.9033 F   0  0  0  0  0  0  0  0  0  0  0  0
    4.4694    0.8907    2.3607 F   0  0  0  0  0  0  0  0  0  0  0  0
   -3.2612    1.4328    0.9669 O   0  0  0  0  0  0  0  0  0  0  0  0
   -3.5741    1.1292    2.3329 C   0  0  0  0  0  0  0  0  0  0  0  0
   -4.6204    1.4044    2.4586 H   0  0  0  0  0  0  0  0  0  0  0  0
   -2.9535    1.7165    3.0165 H   0  0  0  0  0  0  0  0  0  0  0  0
   -3.4463    0.0609    2.5356 H   0  0  0  0  0  0  0  0  0  0  0  0
  1  7  1  0  0  0  0
  2  1  1  0  0  0  0
  2  8  1  0  0  0  0
  3  2  2  0  0  0  0
  4  5  2  0  0  0  0
  4  3  1  0  0  0  0
  5  6  1  0  0  0  0
  6 18  1  0  0  0  0
  6  1  2  0  0  0  0
  9  4  1  0  0  0  0
 10  5  1  0  0  0  0
 11  3  1  0  0  0  0
 12 11  1  0  0  0  0
 13 16  1  0  0  0  0
 13 17  1  0  0  0  0
 14 13  1  0  0  0  0
 15 13  1  0  0  0  0
 18 19  1  0  0  0  0
 19 20  1  0  0  0  0
 19 22  1  0  0  0  0
 19 21  1  0  0  0  0
M  RAD  2  11   2  12   3
M  END
