Coordinates from ORCA-job p-CH3O-Ph-N2-X-BF4-B3LYPG-6-31G_dp-scan-d09-49-n400
 OpenBabel08281821133D

 22 22  0  0  0  0  0  0  0  0999 V2000
   -1.4582    0.7358    1.5291 C   0  0  0  0  0  0  0  0  0  0  0  0
   -0.0773    0.6306    1.4259 C   0  0  0  0  0  0  0  0  0  0  0  0
    0.5661    0.9085    0.1990 C   0  0  0  0  0  0  0  0  0  0  0  0
   -0.2237    1.2910   -0.9104 C   0  0  0  0  0  0  0  0  0  0  0  0
   -1.5953    1.3972   -0.8097 C   0  0  0  0  0  0  0  0  0  0  0  0
   -2.2285    1.1199    0.4164 C   0  0  0  0  0  0  0  0  0  0  0  0
   -1.9291    0.5161    2.4792 H   0  0  0  0  0  0  0  0  0  0  0  0
    0.4832    0.3332    2.2990 H   0  0  0  0  0  0  0  0  0  0  0  0
    0.2845    1.5006   -1.8453 H   0  0  0  0  0  0  0  0  0  0  0  0
   -2.2062    1.6915   -1.6557 H   0  0  0  0  0  0  0  0  0  0  0  0
    1.9296    0.8645   -0.1074 N   0  0  0  0  0  0  0  0  0  0  0  0
    2.8507    0.5735    0.6600 N   0  0  0  0  0  0  0  0  0  0  0  0
    4.5857    0.5541    0.2755 B   0  0  0  0  0  0  0  0  0  0  0  0
    2.5966    0.2773    1.8484 F   0  0  0  0  0  0  0  0  0  0  0  0
    4.5971    0.8039   -1.0544 F   0  0  0  0  0  0  0  0  0  0  0  0
    5.0467    1.5494    1.0820 F   0  0  0  0  0  0  0  0  0  0  0  0
    4.9265   -0.7067    0.6583 F   0  0  0  0  0  0  0  0  0  0  0  0
   -3.5708    1.2493    0.4243 O   0  0  0  0  0  0  0  0  0  0  0  0
   -4.2874    0.9873    1.6294 C   0  0  0  0  0  0  0  0  0  0  0  0
   -5.3378    1.1557    1.3907 H   0  0  0  0  0  0  0  0  0  0  0  0
   -3.9824    1.6702    2.4305 H   0  0  0  0  0  0  0  0  0  0  0  0
   -4.1502   -0.0496    1.9568 H   0  0  0  0  0  0  0  0  0  0  0  0
  1  7  1  0  0  0  0
  2  1  1  0  0  0  0
  2  8  1  0  0  0  0
  3  2  2  0  0  0  0
  4  5  2  0  0  0  0
  4  3  1  0  0  0  0
  5  6  1  0  0  0  0
  6 18  1  0  0  0  0
  6  1  2  0  0  0  0
  9  4  1  0  0  0  0
 10  5  1  0  0  0  0
 11  3  1  0  0  0  0
 11 12  1  0  0  0  0
 12 14  1  0  0  0  0
 13 17  1  0  0  0  0
 13 12  1  0  0  0  0
 13 16  1  0  0  0  0
 15 13  1  0  0  0  0
 18 19  1  0  0  0  0
 19 22  1  0  0  0  0
 19 21  1  0  0  0  0
 20 19  1  0  0  0  0
M  RAD  1  11   2
M  END
