Coordinates from ORCA-job p-CH3O-Ph-N2-X-BF4-B3LYPG-6-31G_dp-scan-d09-49-n400
 OpenBabel08281821133D

 22 21  0  0  0  0  0  0  0  0999 V2000
   -0.9934    0.6621    1.2880 C   0  0  0  0  0  0  0  0  0  0  0  0
    0.2695    0.4684    0.7525 C   0  0  0  0  0  0  0  0  0  0  0  0
    0.4726    0.8236   -0.5944 C   0  0  0  0  0  0  0  0  0  0  0  0
   -0.5487    1.3667   -1.4042 C   0  0  0  0  0  0  0  0  0  0  0  0
   -1.7926    1.5592   -0.8483 C   0  0  0  0  0  0  0  0  0  0  0  0
   -2.0267    1.2089    0.5027 C   0  0  0  0  0  0  0  0  0  0  0  0
   -1.1642    0.3927    2.3222 H   0  0  0  0  0  0  0  0  0  0  0  0
    1.0899    0.0578    1.3408 H   0  0  0  0  0  0  0  0  0  0  0  0
   -0.3478    1.6299   -2.4366 H   0  0  0  0  0  0  0  0  0  0  0  0
   -2.6097    1.9781   -1.4241 H   0  0  0  0  0  0  0  0  0  0  0  0
    1.7042    0.6227   -1.1635 N   0  0  0  0  0  0  0  0  0  0  0  0
    2.7306    0.4136   -1.5613 N   0  0  0  0  0  0  0  0  0  0  0  0
    3.6421    0.4449    1.3130 B   0  0  0  0  0  0  0  0  0  0  0  0
    3.9644   -0.2143    0.0746 F   0  0  0  0  0  0  0  0  0  0  0  0
    2.8930    1.5988    0.9751 F   0  0  0  0  0  0  0  0  0  0  0  0
    2.7946   -0.4210    2.0469 F   0  0  0  0  0  0  0  0  0  0  0  0
    4.7811    0.7556    2.0050 F   0  0  0  0  0  0  0  0  0  0  0  0
   -3.2730    1.4363    0.9407 O   0  0  0  0  0  0  0  0  0  0  0  0
   -3.6118    1.1212    2.2962 C   0  0  0  0  0  0  0  0  0  0  0  0
   -4.6589    1.4007    2.4066 H   0  0  0  0  0  0  0  0  0  0  0  0
   -3.0013    1.6976    2.9982 H   0  0  0  0  0  0  0  0  0  0  0  0
   -3.4939    0.0501    2.4915 H   0  0  0  0  0  0  0  0  0  0  0  0
  1  7  1  0  0  0  0
  2  1  1  0  0  0  0
  2  8  1  0  0  0  0
  3  2  2  0  0  0  0
  4  5  2  0  0  0  0
  4  3  1  0  0  0  0
  5  6  1  0  0  0  0
  6 18  1  0  0  0  0
  6  1  2  0  0  0  0
  9  4  1  0  0  0  0
 10  5  1  0  0  0  0
 11  3  1  0  0  0  0
 12 11  1  0  0  0  0
 13 17  1  0  0  0  0
 13 16  1  0  0  0  0
 14 13  1  0  0  0  0
 15 13  1  0  0  0  0
 18 19  1  0  0  0  0
 19 20  1  0  0  0  0
 19 22  1  0  0  0  0
 19 21  1  0  0  0  0
M  RAD  2  11   2  12   3
M  END
