Coordinates from ORCA-job p-CH3O-Ph-N2-X-BF4-B3LYPG-6-31G_dp-scan-d09-49-n400
 OpenBabel08281821133D

 22 21  0  0  0  0  0  0  0  0999 V2000
   -0.9074    0.6539    1.1761 C   0  0  0  0  0  0  0  0  0  0  0  0
    0.3070    0.4798    0.5346 C   0  0  0  0  0  0  0  0  0  0  0  0
    0.3933    0.8825   -0.8115 C   0  0  0  0  0  0  0  0  0  0  0  0
   -0.6947    1.4464   -1.5235 C   0  0  0  0  0  0  0  0  0  0  0  0
   -1.8846    1.6150   -0.8591 C   0  0  0  0  0  0  0  0  0  0  0  0
   -2.0028    1.2245    0.4996 C   0  0  0  0  0  0  0  0  0  0  0  0
   -0.9848    0.3521    2.2126 H   0  0  0  0  0  0  0  0  0  0  0  0
    1.1712    0.0491    1.0510 H   0  0  0  0  0  0  0  0  0  0  0  0
   -0.5821    1.7423   -2.5605 H   0  0  0  0  0  0  0  0  0  0  0  0
   -2.7479    2.0488   -1.3503 H   0  0  0  0  0  0  0  0  0  0  0  0
    1.5665    0.7174   -1.4953 N   0  0  0  0  0  0  0  0  0  0  0  0
    2.4807    0.5947   -2.1224 N   0  0  0  0  0  0  0  0  0  0  0  0
    3.6056    0.3284    1.5855 B   0  0  0  0  0  0  0  0  0  0  0  0
    4.7145   -0.4258    1.2578 F   0  0  0  0  0  0  0  0  0  0  0  0
    3.1166    0.9877    0.3958 F   0  0  0  0  0  0  0  0  0  0  0  0
    2.5403   -0.5340    2.0128 F   0  0  0  0  0  0  0  0  0  0  0  0
    3.8537    1.2777    2.5572 F   0  0  0  0  0  0  0  0  0  0  0  0
   -3.2025    1.4411    1.0468 O   0  0  0  0  0  0  0  0  0  0  0  0
   -3.4236    1.1009    2.4233 C   0  0  0  0  0  0  0  0  0  0  0  0
   -4.4554    1.3824    2.6286 H   0  0  0  0  0  0  0  0  0  0  0  0
   -2.7498    1.6625    3.0770 H   0  0  0  0  0  0  0  0  0  0  0  0
   -3.2939    0.0260    2.5854 H   0  0  0  0  0  0  0  0  0  0  0  0
  1  7  1  0  0  0  0
  2  8  1  0  0  0  0
  2  1  1  0  0  0  0
  3  2  2  0  0  0  0
  4  5  2  0  0  0  0
  4  3  1  0  0  0  0
  5  6  1  0  0  0  0
  6 18  1  0  0  0  0
  6  1  2  0  0  0  0
  9  4  1  0  0  0  0
 10  5  1  0  0  0  0
 11  3  1  0  0  0  0
 12 11  1  0  0  0  0
 13 16  1  0  0  0  0
 13 17  1  0  0  0  0
 14 13  1  0  0  0  0
 15 13  1  0  0  0  0
 18 19  1  0  0  0  0
 19 22  1  0  0  0  0
 19 20  1  0  0  0  0
 19 21  1  0  0  0  0
M  RAD  2  11   2  12   3
M  END
