Coordinates from ORCA-job p-CH3O-Ph-N2-X-BF4-B3LYPG-6-31G_dp-scan-d09-49-n400
 OpenBabel08281821133D

 22 21  0  0  0  0  0  0  0  0999 V2000
   -0.9560    0.6732    1.2523 C   0  0  0  0  0  0  0  0  0  0  0  0
    0.2909    0.4929    0.6773 C   0  0  0  0  0  0  0  0  0  0  0  0
    0.4400    0.8543   -0.6745 C   0  0  0  0  0  0  0  0  0  0  0  0
   -0.6158    1.3861   -1.4546 C   0  0  0  0  0  0  0  0  0  0  0  0
   -1.8396    1.5626   -0.8559 C   0  0  0  0  0  0  0  0  0  0  0  0
   -2.0217    1.2111    0.5051 C   0  0  0  0  0  0  0  0  0  0  0  0
   -1.0872    0.4005    2.2915 H   0  0  0  0  0  0  0  0  0  0  0  0
    1.1380    0.0877    1.2379 H   0  0  0  0  0  0  0  0  0  0  0  0
   -0.4541    1.6519   -2.4933 H   0  0  0  0  0  0  0  0  0  0  0  0
   -2.6806    1.9722   -1.4032 H   0  0  0  0  0  0  0  0  0  0  0  0
    1.6415    0.6748   -1.3091 N   0  0  0  0  0  0  0  0  0  0  0  0
    2.5420    0.5246   -1.9500 N   0  0  0  0  0  0  0  0  0  0  0  0
    3.6622    0.3643    1.4291 B   0  0  0  0  0  0  0  0  0  0  0  0
    4.5129   -0.3160    0.5677 F   0  0  0  0  0  0  0  0  0  0  0  0
    2.9391    1.3589    0.6720 F   0  0  0  0  0  0  0  0  0  0  0  0
    2.6716   -0.5445    1.9261 F   0  0  0  0  0  0  0  0  0  0  0  0
    4.3210    0.9723    2.4737 F   0  0  0  0  0  0  0  0  0  0  0  0
   -3.2505    1.4301    0.9854 O   0  0  0  0  0  0  0  0  0  0  0  0
   -3.5386    1.1256    2.3570 C   0  0  0  0  0  0  0  0  0  0  0  0
   -4.5823    1.4011    2.5017 H   0  0  0  0  0  0  0  0  0  0  0  0
   -2.9053    1.7124    3.0291 H   0  0  0  0  0  0  0  0  0  0  0  0
   -3.4074    0.0572    2.5564 H   0  0  0  0  0  0  0  0  0  0  0  0
  1  7  1  0  0  0  0
  2  8  1  0  0  0  0
  2  1  1  0  0  0  0
  3  2  2  0  0  0  0
  4  5  2  0  0  0  0
  4  3  1  0  0  0  0
  5  6  1  0  0  0  0
  6 18  1  0  0  0  0
  6  1  2  0  0  0  0
  9  4  1  0  0  0  0
 10  5  1  0  0  0  0
 11  3  1  0  0  0  0
 12 11  1  0  0  0  0
 13 16  1  0  0  0  0
 13 17  1  0  0  0  0
 14 13  1  0  0  0  0
 15 13  1  0  0  0  0
 18 19  1  0  0  0  0
 19 20  1  0  0  0  0
 19 22  1  0  0  0  0
 19 21  1  0  0  0  0
M  RAD  2  11   2  12   3
M  END
