Coordinates from ORCA-job p-CH3O-Ph-N2-X-BF4-B3LYPG-6-31G_dp-scan-d09-49-n400
 OpenBabel08281821133D

 22 21  0  0  0  0  0  0  0  0999 V2000
   -0.9867    0.6709    1.2939 C   0  0  0  0  0  0  0  0  0  0  0  0
    0.2738    0.4761    0.7543 C   0  0  0  0  0  0  0  0  0  0  0  0
    0.4650    0.8227   -0.5960 C   0  0  0  0  0  0  0  0  0  0  0  0
   -0.5629    1.3546   -1.4089 C   0  0  0  0  0  0  0  0  0  0  0  0
   -1.8027    1.5465   -0.8466 C   0  0  0  0  0  0  0  0  0  0  0  0
   -2.0267    1.2083    0.5106 C   0  0  0  0  0  0  0  0  0  0  0  0
   -1.1508    0.4093    2.3312 H   0  0  0  0  0  0  0  0  0  0  0  0
    1.1055    0.0715    1.3333 H   0  0  0  0  0  0  0  0  0  0  0  0
   -0.3697    1.6096   -2.4449 H   0  0  0  0  0  0  0  0  0  0  0  0
   -2.6248    1.9571   -1.4212 H   0  0  0  0  0  0  0  0  0  0  0  0
    1.6876    0.6220   -1.1831 N   0  0  0  0  0  0  0  0  0  0  0  0
    2.6404    0.4451   -1.7362 N   0  0  0  0  0  0  0  0  0  0  0  0
    3.6651    0.4136    1.3186 B   0  0  0  0  0  0  0  0  0  0  0  0
    4.2979   -0.1325    0.1876 F   0  0  0  0  0  0  0  0  0  0  0  0
    2.8604    1.5144    0.8795 F   0  0  0  0  0  0  0  0  0  0  0  0
    2.7611   -0.5602    1.8438 F   0  0  0  0  0  0  0  0  0  0  0  0
    4.5619    0.8199    2.2748 F   0  0  0  0  0  0  0  0  0  0  0  0
   -3.2689    1.4378    0.9536 O   0  0  0  0  0  0  0  0  0  0  0  0
   -3.5987    1.1417    2.3167 C   0  0  0  0  0  0  0  0  0  0  0  0
   -4.6451    1.4222    2.4295 H   0  0  0  0  0  0  0  0  0  0  0  0
   -2.9835    1.7290    3.0052 H   0  0  0  0  0  0  0  0  0  0  0  0
   -3.4784    0.0737    2.5259 H   0  0  0  0  0  0  0  0  0  0  0  0
  1  7  1  0  0  0  0
  2  1  1  0  0  0  0
  2  8  1  0  0  0  0
  3  2  2  0  0  0  0
  4  5  2  0  0  0  0
  4  3  1  0  0  0  0
  5  6  1  0  0  0  0
  6 18  1  0  0  0  0
  6  1  2  0  0  0  0
  9  4  1  0  0  0  0
 10  5  1  0  0  0  0
 11  3  1  0  0  0  0
 12 11  1  0  0  0  0
 13 16  1  0  0  0  0
 13 17  1  0  0  0  0
 14 13  1  0  0  0  0
 15 13  1  0  0  0  0
 18 19  1  0  0  0  0
 19 20  1  0  0  0  0
 19 22  1  0  0  0  0
 19 21  1  0  0  0  0
M  RAD  2  11   2  12   3
M  END
