Coordinates from ORCA-job p-CH3O-Ph-N2-X-BF4-B3LYPG-6-31G_dp-scan-d09-49-n400
 OpenBabel08281821133D

 22 21  0  0  0  0  0  0  0  0999 V2000
   -1.5434    0.7493    1.5319 C   0  0  0  0  0  0  0  0  0  0  0  0
   -0.1615    0.6479    1.4263 C   0  0  0  0  0  0  0  0  0  0  0  0
    0.4681    0.9239    0.1964 C   0  0  0  0  0  0  0  0  0  0  0  0
   -0.3148    1.3008   -0.9149 C   0  0  0  0  0  0  0  0  0  0  0  0
   -1.6878    1.4027   -0.8089 C   0  0  0  0  0  0  0  0  0  0  0  0
   -2.3160    1.1267    0.4198 C   0  0  0  0  0  0  0  0  0  0  0  0
   -2.0114    0.5316    2.4840 H   0  0  0  0  0  0  0  0  0  0  0  0
    0.4320    0.3584    2.2791 H   0  0  0  0  0  0  0  0  0  0  0  0
    0.1875    1.5094   -1.8533 H   0  0  0  0  0  0  0  0  0  0  0  0
   -2.3028    1.6923   -1.6535 H   0  0  0  0  0  0  0  0  0  0  0  0
    1.8412    0.8665   -0.0694 N   0  0  0  0  0  0  0  0  0  0  0  0
    2.7976    0.5973    0.6072 N   0  0  0  0  0  0  0  0  0  0  0  0
    5.1027    0.5220    0.2091 B   0  0  0  0  0  0  0  0  0  0  0  0
    2.4968    0.2506    2.0263 F   0  0  0  0  0  0  0  0  0  0  0  0
    4.9560    0.7957   -1.0817 F   0  0  0  0  0  0  0  0  0  0  0  0
    5.3877    1.5019    1.0551 F   0  0  0  0  0  0  0  0  0  0  0  0
    5.2389   -0.7377    0.5980 F   0  0  0  0  0  0  0  0  0  0  0  0
   -3.6615    1.2515    0.4290 O   0  0  0  0  0  0  0  0  0  0  0  0
   -4.3712    0.9878    1.6363 C   0  0  0  0  0  0  0  0  0  0  0  0
   -5.4240    1.1490    1.4023 H   0  0  0  0  0  0  0  0  0  0  0  0
   -4.0677    1.6734    2.4360 H   0  0  0  0  0  0  0  0  0  0  0  0
   -4.2266   -0.0475    1.9664 H   0  0  0  0  0  0  0  0  0  0  0  0
  1  7  1  0  0  0  0
  2  1  1  0  0  0  0
  2  8  1  0  0  0  0
  3  2  2  0  0  0  0
  4  5  2  0  0  0  0
  4  3  1  0  0  0  0
  5  6  1  0  0  0  0
  6 18  1  0  0  0  0
  6  1  2  0  0  0  0
  9  4  1  0  0  0  0
 10  5  1  0  0  0  0
 11  3  1  0  0  0  0
 11 12  2  0  0  0  0
 12 14  1  0  0  0  0
 13 17  1  0  0  0  0
 13 16  1  0  0  0  0
 15 13  1  0  0  0  0
 18 19  1  0  0  0  0
 19 22  1  0  0  0  0
 19 21  1  0  0  0  0
 20 19  1  0  0  0  0
M  END
