Coordinates from ORCA-job p-CH3O-Ph-N2-X-BF4-B3LYPG-6-31G_dp-scan-d09-49-n400
 OpenBabel08281821133D

 22 21  0  0  0  0  0  0  0  0999 V2000
   -0.9689    0.6759    1.2725 C   0  0  0  0  0  0  0  0  0  0  0  0
    0.2854    0.4918    0.7152 C   0  0  0  0  0  0  0  0  0  0  0  0
    0.4538    0.8452   -0.6363 C   0  0  0  0  0  0  0  0  0  0  0  0
   -0.5897    1.3755   -1.4326 C   0  0  0  0  0  0  0  0  0  0  0  0
   -1.8218    1.5568   -0.8515 C   0  0  0  0  0  0  0  0  0  0  0  0
   -2.0237    1.2106    0.5077 C   0  0  0  0  0  0  0  0  0  0  0  0
   -1.1154    0.4086    2.3110 H   0  0  0  0  0  0  0  0  0  0  0  0
    1.1256    0.0900    1.2870 H   0  0  0  0  0  0  0  0  0  0  0  0
   -0.4134    1.6363   -2.4702 H   0  0  0  0  0  0  0  0  0  0  0  0
   -2.6545    1.9651   -1.4123 H   0  0  0  0  0  0  0  0  0  0  0  0
    1.6643    0.6547   -1.2514 N   0  0  0  0  0  0  0  0  0  0  0  0
    2.5797    0.4861   -1.8660 N   0  0  0  0  0  0  0  0  0  0  0  0
    3.6642    0.3836    1.3791 B   0  0  0  0  0  0  0  0  0  0  0  0
    4.4026   -0.2648    0.3889 F   0  0  0  0  0  0  0  0  0  0  0  0
    2.9038    1.4355    0.7548 F   0  0  0  0  0  0  0  0  0  0  0  0
    2.7041   -0.5335    1.9149 F   0  0  0  0  0  0  0  0  0  0  0  0
    4.4496    0.9031    2.3803 F   0  0  0  0  0  0  0  0  0  0  0  0
   -3.2598    1.4310    0.9699 O   0  0  0  0  0  0  0  0  0  0  0  0
   -3.5679    1.1270    2.3369 C   0  0  0  0  0  0  0  0  0  0  0  0
   -4.6141    1.4009    2.4660 H   0  0  0  0  0  0  0  0  0  0  0  0
   -2.9458    1.7150    3.0184 H   0  0  0  0  0  0  0  0  0  0  0  0
   -3.4382    0.0588    2.5390 H   0  0  0  0  0  0  0  0  0  0  0  0
  1  7  1  0  0  0  0
  2  1  1  0  0  0  0
  2  8  1  0  0  0  0
  3  2  2  0  0  0  0
  4  5  2  0  0  0  0
  4  3  1  0  0  0  0
  5  6  1  0  0  0  0
  6 18  1  0  0  0  0
  6  1  2  0  0  0  0
  9  4  1  0  0  0  0
 10  5  1  0  0  0  0
 11  3  1  0  0  0  0
 12 11  1  0  0  0  0
 13 16  1  0  0  0  0
 13 17  1  0  0  0  0
 14 13  1  0  0  0  0
 15 13  1  0  0  0  0
 18 19  1  0  0  0  0
 19 20  1  0  0  0  0
 19 22  1  0  0  0  0
 19 21  1  0  0  0  0
M  RAD  2  11   2  12   3
M  END
