Coordinates from ORCA-job p-CH3O-Ph-N2-X-BF4-B3LYPG-6-31G_dp-scan-d09-49-n400
 OpenBabel08281821133D

 22 22  0  0  0  0  0  0  0  0999 V2000
   -1.4524    0.7361    1.5277 C   0  0  0  0  0  0  0  0  0  0  0  0
   -0.0701    0.6318    1.4223 C   0  0  0  0  0  0  0  0  0  0  0  0
    0.5749    0.9093    0.1964 C   0  0  0  0  0  0  0  0  0  0  0  0
   -0.2190    1.2908   -0.9099 C   0  0  0  0  0  0  0  0  0  0  0  0
   -1.5911    1.3962   -0.8084 C   0  0  0  0  0  0  0  0  0  0  0  0
   -2.2240    1.1190    0.4171 C   0  0  0  0  0  0  0  0  0  0  0  0
   -1.9212    0.5161    2.4788 H   0  0  0  0  0  0  0  0  0  0  0  0
    0.4818    0.3339    2.3017 H   0  0  0  0  0  0  0  0  0  0  0  0
    0.2882    1.5007   -1.8454 H   0  0  0  0  0  0  0  0  0  0  0  0
   -2.2020    1.6900   -1.6546 H   0  0  0  0  0  0  0  0  0  0  0  0
    1.9422    0.8688   -0.1217 N   0  0  0  0  0  0  0  0  0  0  0  0
    2.8439    0.5688    0.6863 N   0  0  0  0  0  0  0  0  0  0  0  0
    4.5551    0.5532    0.2854 B   0  0  0  0  0  0  0  0  0  0  0  0
    2.6027    0.2987    1.7679 F   0  0  0  0  0  0  0  0  0  0  0  0
    4.5888    0.8016   -1.0436 F   0  0  0  0  0  0  0  0  0  0  0  0
    5.0235    1.5452    1.0993 F   0  0  0  0  0  0  0  0  0  0  0  0
    4.8980   -0.7103    0.6752 F   0  0  0  0  0  0  0  0  0  0  0  0
   -3.5680    1.2478    0.4259 O   0  0  0  0  0  0  0  0  0  0  0  0
   -4.2811    0.9856    1.6320 C   0  0  0  0  0  0  0  0  0  0  0  0
   -5.3325    1.1526    1.3963 H   0  0  0  0  0  0  0  0  0  0  0  0
   -3.9753    1.6687    2.4328 H   0  0  0  0  0  0  0  0  0  0  0  0
   -4.1424   -0.0512    1.9600 H   0  0  0  0  0  0  0  0  0  0  0  0
  1  7  1  0  0  0  0
  2  1  1  0  0  0  0
  2  8  1  0  0  0  0
  3  2  2  0  0  0  0
  4  5  2  0  0  0  0
  4  3  1  0  0  0  0
  5  6  1  0  0  0  0
  6 18  1  0  0  0  0
  6  1  2  0  0  0  0
  9  4  1  0  0  0  0
 10  5  1  0  0  0  0
 11  3  1  0  0  0  0
 11 12  1  0  0  0  0
 12 14  1  0  0  0  0
 13 17  1  0  0  0  0
 13 12  1  0  0  0  0
 13 16  1  0  0  0  0
 15 13  1  0  0  0  0
 18 19  1  0  0  0  0
 19 22  1  0  0  0  0
 19 21  1  0  0  0  0
 20 19  1  0  0  0  0
M  RAD  1  11   2
M  END
