Coordinates from ORCA-job p-CH3O-Ph-N2-X-BF4-B3LYPG-6-31G_dp-scan-d09-49-n400
 OpenBabel08281821133D

 22 21  0  0  0  0  0  0  0  0999 V2000
   -0.9613    0.6190    1.2236 C   0  0  0  0  0  0  0  0  0  0  0  0
    0.2903    0.4306    0.6582 C   0  0  0  0  0  0  0  0  0  0  0  0
    0.4890    0.8300   -0.6761 C   0  0  0  0  0  0  0  0  0  0  0  0
   -0.5443    1.4105   -1.4381 C   0  0  0  0  0  0  0  0  0  0  0  0
   -1.7838    1.5923   -0.8638 C   0  0  0  0  0  0  0  0  0  0  0  0
   -2.0028    1.1992    0.4746 C   0  0  0  0  0  0  0  0  0  0  0  0
   -1.1155    0.3203    2.2525 H   0  0  0  0  0  0  0  0  0  0  0  0
    1.0958    0.0003    1.2405 H   0  0  0  0  0  0  0  0  0  0  0  0
   -0.3524    1.7090   -2.4626 H   0  0  0  0  0  0  0  0  0  0  0  0
   -2.6045    2.0367   -1.4149 H   0  0  0  0  0  0  0  0  0  0  0  0
    1.7144    0.6646   -1.2939 N   0  0  0  0  0  0  0  0  0  0  0  0
    2.8080    0.3230   -1.2989 N   0  0  0  0  0  0  0  0  0  0  0  0
    3.5512    0.5548    1.4342 B   0  0  0  0  0  0  0  0  0  0  0  0
    3.2304   -0.4052    0.2492 F   0  0  0  0  0  0  0  0  0  0  0  0
    3.1008    1.7840    0.9933 F   0  0  0  0  0  0  0  0  0  0  0  0
    2.7723    0.0485    2.4610 F   0  0  0  0  0  0  0  0  0  0  0  0
    4.8883    0.4776    1.6484 F   0  0  0  0  0  0  0  0  0  0  0  0
   -3.2422    1.4227    0.9437 O   0  0  0  0  0  0  0  0  0  0  0  0
   -3.5535    1.0700    2.2944 C   0  0  0  0  0  0  0  0  0  0  0  0
   -4.5959    1.3531    2.4375 H   0  0  0  0  0  0  0  0  0  0  0  0
   -2.9242    1.6201    3.0015 H   0  0  0  0  0  0  0  0  0  0  0  0
   -3.4402   -0.0074    2.4574 H   0  0  0  0  0  0  0  0  0  0  0  0
  1  7  1  0  0  0  0
  2  1  1  0  0  0  0
  2  8  1  0  0  0  0
  3  2  2  0  0  0  0
  4  5  2  0  0  0  0
  4  3  1  0  0  0  0
  5  6  1  0  0  0  0
  6 18  1  0  0  0  0
  6  1  2  0  0  0  0
  9  4  1  0  0  0  0
 10  5  1  0  0  0  0
 11  3  1  0  0  0  0
 12 11  2  0  0  0  0
 13 17  1  0  0  0  0
 13 16  1  0  0  0  0
 14 13  1  0  0  0  0
 15 13  1  0  0  0  0
 18 19  1  0  0  0  0
 19 20  1  0  0  0  0
 19 22  1  0  0  0  0
 19 21  1  0  0  0  0
M  RAD  1  12   2
M  END
