Coordinates from ORCA-job p-CH3O-Ph-N2-X-BF4-B3LYPG-6-31G_dp-scan-d09-49-n400
 OpenBabel08281821133D

 22 21  0  0  0  0  0  0  0  0999 V2000
   -0.9620    0.6283    1.2334 C   0  0  0  0  0  0  0  0  0  0  0  0
    0.2909    0.4418    0.6711 C   0  0  0  0  0  0  0  0  0  0  0  0
    0.4845    0.8352   -0.6658 C   0  0  0  0  0  0  0  0  0  0  0  0
   -0.5472    1.4097   -1.4350 C   0  0  0  0  0  0  0  0  0  0  0  0
   -1.7862    1.5905   -0.8605 C   0  0  0  0  0  0  0  0  0  0  0  0
   -2.0045    1.2015    0.4802 C   0  0  0  0  0  0  0  0  0  0  0  0
   -1.1160    0.3341    2.2635 H   0  0  0  0  0  0  0  0  0  0  0  0
    1.1011    0.0192    1.2560 H   0  0  0  0  0  0  0  0  0  0  0  0
   -0.3563    1.7040   -2.4609 H   0  0  0  0  0  0  0  0  0  0  0  0
   -2.6083    2.0303   -1.4133 H   0  0  0  0  0  0  0  0  0  0  0  0
    1.7125    0.6588   -1.2664 N   0  0  0  0  0  0  0  0  0  0  0  0
    2.8015    0.3452   -1.3556 N   0  0  0  0  0  0  0  0  0  0  0  0
    3.5533    0.5271    1.4072 B   0  0  0  0  0  0  0  0  0  0  0  0
    3.3579   -0.4097    0.2303 F   0  0  0  0  0  0  0  0  0  0  0  0
    3.0500    1.7489    0.9726 F   0  0  0  0  0  0  0  0  0  0  0  0
    2.7523   -0.0148    2.4114 F   0  0  0  0  0  0  0  0  0  0  0  0
    4.8794    0.5468    1.7104 F   0  0  0  0  0  0  0  0  0  0  0  0
   -3.2446    1.4218    0.9458 O   0  0  0  0  0  0  0  0  0  0  0  0
   -3.5592    1.0696    2.2966 C   0  0  0  0  0  0  0  0  0  0  0  0
   -4.6030    1.3491    2.4354 H   0  0  0  0  0  0  0  0  0  0  0  0
   -2.9341    1.6232    3.0045 H   0  0  0  0  0  0  0  0  0  0  0  0
   -3.4422   -0.0071    2.4606 H   0  0  0  0  0  0  0  0  0  0  0  0
  1  7  1  0  0  0  0
  2  1  1  0  0  0  0
  2  8  1  0  0  0  0
  3  2  2  0  0  0  0
  4  5  2  0  0  0  0
  4  3  1  0  0  0  0
  5  6  1  0  0  0  0
  6 18  1  0  0  0  0
  6  1  2  0  0  0  0
  9  4  1  0  0  0  0
 10  5  1  0  0  0  0
 11  3  1  0  0  0  0
 12 11  1  0  0  0  0
 13 17  1  0  0  0  0
 13 16  1  0  0  0  0
 14 13  1  0  0  0  0
 15 13  1  0  0  0  0
 18 19  1  0  0  0  0
 19 20  1  0  0  0  0
 19 22  1  0  0  0  0
 19 21  1  0  0  0  0
M  RAD  2  11   2  12   3
M  END
