Coordinates from ORCA-job p-CH3O-Ph-N2-X-BF4-B3LYPG-6-31G_dp-scan-d09-49-n400
 OpenBabel08281821133D

 22 22  0  0  0  0  0  0  0  0999 V2000
   -1.4564    0.7356    1.5288 C   0  0  0  0  0  0  0  0  0  0  0  0
   -0.0752    0.6306    1.4252 C   0  0  0  0  0  0  0  0  0  0  0  0
    0.5689    0.9084    0.1986 C   0  0  0  0  0  0  0  0  0  0  0  0
   -0.2220    1.2907   -0.9101 C   0  0  0  0  0  0  0  0  0  0  0  0
   -1.5937    1.3969   -0.8093 C   0  0  0  0  0  0  0  0  0  0  0  0
   -2.2270    1.1196    0.4166 C   0  0  0  0  0  0  0  0  0  0  0  0
   -1.9270    0.5158    2.4791 H   0  0  0  0  0  0  0  0  0  0  0  0
    0.4826    0.3328    2.3002 H   0  0  0  0  0  0  0  0  0  0  0  0
    0.2861    1.5001   -1.8450 H   0  0  0  0  0  0  0  0  0  0  0  0
   -2.2045    1.6912   -1.6553 H   0  0  0  0  0  0  0  0  0  0  0  0
    1.9331    0.8652   -0.1117 N   0  0  0  0  0  0  0  0  0  0  0  0
    2.8493    0.5731    0.6672 N   0  0  0  0  0  0  0  0  0  0  0  0
    4.5757    0.5537    0.2782 B   0  0  0  0  0  0  0  0  0  0  0  0
    2.5983    0.2859    1.8269 F   0  0  0  0  0  0  0  0  0  0  0  0
    4.5933    0.8038   -1.0516 F   0  0  0  0  0  0  0  0  0  0  0  0
    5.0405    1.5475    1.0867 F   0  0  0  0  0  0  0  0  0  0  0  0
    4.9176   -0.7081    0.6619 F   0  0  0  0  0  0  0  0  0  0  0  0
   -3.5696    1.2490    0.4247 O   0  0  0  0  0  0  0  0  0  0  0  0
   -4.2855    0.9869    1.6300 C   0  0  0  0  0  0  0  0  0  0  0  0
   -5.3361    1.1551    1.3920 H   0  0  0  0  0  0  0  0  0  0  0  0
   -3.9803    1.6696    2.4311 H   0  0  0  0  0  0  0  0  0  0  0  0
   -4.1481   -0.0501    1.9573 H   0  0  0  0  0  0  0  0  0  0  0  0
  1  7  1  0  0  0  0
  2  1  1  0  0  0  0
  2  8  1  0  0  0  0
  3  2  2  0  0  0  0
  4  5  2  0  0  0  0
  4  3  1  0  0  0  0
  5  6  1  0  0  0  0
  6 18  1  0  0  0  0
  6  1  2  0  0  0  0
  9  4  1  0  0  0  0
 10  5  1  0  0  0  0
 11  3  1  0  0  0  0
 11 12  1  0  0  0  0
 12 14  1  0  0  0  0
 13 17  1  0  0  0  0
 13 12  1  0  0  0  0
 13 16  1  0  0  0  0
 15 13  1  0  0  0  0
 18 19  1  0  0  0  0
 19 22  1  0  0  0  0
 19 21  1  0  0  0  0
 20 19  1  0  0  0  0
M  RAD  1  11   2
M  END
