Coordinates from ORCA-job p-CH3O-Ph-N2-X-BF4-B3LYPG-6-31G_dp-scan-d09-49-n400
 OpenBabel08281821133D

 22 21  0  0  0  0  0  0  0  0999 V2000
   -0.9004    0.6435    1.1672 C   0  0  0  0  0  0  0  0  0  0  0  0
    0.3093    0.4651    0.5181 C   0  0  0  0  0  0  0  0  0  0  0  0
    0.3920    0.8793   -0.8247 C   0  0  0  0  0  0  0  0  0  0  0  0
   -0.6955    1.4585   -1.5257 C   0  0  0  0  0  0  0  0  0  0  0  0
   -1.8807    1.6303   -0.8540 C   0  0  0  0  0  0  0  0  0  0  0  0
   -1.9950    1.2284    0.5017 C   0  0  0  0  0  0  0  0  0  0  0  0
   -0.9741    0.3339    2.2017 H   0  0  0  0  0  0  0  0  0  0  0  0
    1.1711    0.0244    1.0298 H   0  0  0  0  0  0  0  0  0  0  0  0
   -0.5856    1.7630   -2.5605 H   0  0  0  0  0  0  0  0  0  0  0  0
   -2.7430    2.0752   -1.3370 H   0  0  0  0  0  0  0  0  0  0  0  0
    1.5594    0.7139   -1.5180 N   0  0  0  0  0  0  0  0  0  0  0  0
    2.4668    0.5939   -2.1555 N   0  0  0  0  0  0  0  0  0  0  0  0
    3.5869    0.3318    1.6001 B   0  0  0  0  0  0  0  0  0  0  0  0
    4.7300   -0.4021    1.3606 F   0  0  0  0  0  0  0  0  0  0  0  0
    3.1288    0.9128    0.3580 F   0  0  0  0  0  0  0  0  0  0  0  0
    2.5284   -0.5374    2.0291 F   0  0  0  0  0  0  0  0  0  0  0  0
    3.7662    1.3392    2.5289 F   0  0  0  0  0  0  0  0  0  0  0  0
   -3.1902    1.4493    1.0570 O   0  0  0  0  0  0  0  0  0  0  0  0
   -3.4074    1.0975    2.4312 C   0  0  0  0  0  0  0  0  0  0  0  0
   -4.4362    1.3844    2.6438 H   0  0  0  0  0  0  0  0  0  0  0  0
   -2.7266    1.6482    3.0871 H   0  0  0  0  0  0  0  0  0  0  0  0
   -3.2846    0.0203    2.5825 H   0  0  0  0  0  0  0  0  0  0  0  0
  1  7  1  0  0  0  0
  2  8  1  0  0  0  0
  2  1  1  0  0  0  0
  3  2  2  0  0  0  0
  4  5  2  0  0  0  0
  4  3  1  0  0  0  0
  5  6  1  0  0  0  0
  6 18  1  0  0  0  0
  6  1  2  0  0  0  0
  9  4  1  0  0  0  0
 10  5  1  0  0  0  0
 11  3  1  0  0  0  0
 12 11  1  0  0  0  0
 13 16  1  0  0  0  0
 13 17  1  0  0  0  0
 14 13  1  0  0  0  0
 15 13  1  0  0  0  0
 18 19  1  0  0  0  0
 19 22  1  0  0  0  0
 19 20  1  0  0  0  0
 19 21  1  0  0  0  0
M  RAD  2  11   2  12   3
M  END
