Coordinates from ORCA-job p-CH3O-Ph-N2-X-BF4-B3LYPG-6-31G_dp-scan-d09-49-n400
 OpenBabel08281821133D

 22 21  0  0  0  0  0  0  0  0999 V2000
   -1.5509    0.7477    1.5223 C   0  0  0  0  0  0  0  0  0  0  0  0
   -0.1708    0.6432    1.4006 C   0  0  0  0  0  0  0  0  0  0  0  0
    0.4417    0.9218    0.1634 C   0  0  0  0  0  0  0  0  0  0  0  0
   -0.3489    1.3041   -0.9394 C   0  0  0  0  0  0  0  0  0  0  0  0
   -1.7203    1.4088   -0.8160 C   0  0  0  0  0  0  0  0  0  0  0  0
   -2.3345    1.1305    0.4196 C   0  0  0  0  0  0  0  0  0  0  0  0
   -2.0088    0.5284    2.4788 H   0  0  0  0  0  0  0  0  0  0  0  0
    0.4417    0.3509    2.2394 H   0  0  0  0  0  0  0  0  0  0  0  0
    0.1425    1.5144   -1.8832 H   0  0  0  0  0  0  0  0  0  0  0  0
   -2.3451    1.7024   -1.6520 H   0  0  0  0  0  0  0  0  0  0  0  0
    1.8136    0.8566   -0.1007 N   0  0  0  0  0  0  0  0  0  0  0  0
    2.7802    0.5872    0.5465 N   0  0  0  0  0  0  0  0  0  0  0  0
    5.1888    0.5232    0.2435 B   0  0  0  0  0  0  0  0  0  0  0  0
    2.4871    0.2233    2.0262 F   0  0  0  0  0  0  0  0  0  0  0  0
    5.0770    0.7800   -1.0525 F   0  0  0  0  0  0  0  0  0  0  0  0
    5.4043    1.5169    1.0900 F   0  0  0  0  0  0  0  0  0  0  0  0
    5.3028   -0.7288    0.6548 F   0  0  0  0  0  0  0  0  0  0  0  0
   -3.6795    1.2589    0.4441 O   0  0  0  0  0  0  0  0  0  0  0  0
   -4.3765    0.9933    1.6586 C   0  0  0  0  0  0  0  0  0  0  0  0
   -5.4313    1.1592    1.4369 H   0  0  0  0  0  0  0  0  0  0  0  0
   -4.0615    1.6749    2.4572 H   0  0  0  0  0  0  0  0  0  0  0  0
   -4.2318   -0.0437    1.9832 H   0  0  0  0  0  0  0  0  0  0  0  0
  1  7  1  0  0  0  0
  2  1  1  0  0  0  0
  2  8  1  0  0  0  0
  3  2  2  0  0  0  0
  4  5  2  0  0  0  0
  4  3  1  0  0  0  0
  5  6  1  0  0  0  0
  6 18  1  0  0  0  0
  6  1  2  0  0  0  0
  9  4  1  0  0  0  0
 10  5  1  0  0  0  0
 11  3  1  0  0  0  0
 11 12  1  0  0  0  0
 12 14  1  0  0  0  0
 13 17  1  0  0  0  0
 13 16  1  0  0  0  0
 15 13  1  0  0  0  0
 18 19  1  0  0  0  0
 19 22  1  0  0  0  0
 19 21  1  0  0  0  0
 20 19  1  0  0  0  0
M  RAD  2  11   2  12   2
M  END
