Coordinates from ORCA-job p-CH3O-Ph-N2-X-BF4-B3LYPG-6-31G_dp-scan-d09-49-n400
 OpenBabel08281821133D

 22 21  0  0  0  0  0  0  0  0999 V2000
   -0.9008    0.6449    1.1680 C   0  0  0  0  0  0  0  0  0  0  0  0
    0.3093    0.4664    0.5195 C   0  0  0  0  0  0  0  0  0  0  0  0
    0.3920    0.8789   -0.8240 C   0  0  0  0  0  0  0  0  0  0  0  0
   -0.6959    1.4560   -1.5260 C   0  0  0  0  0  0  0  0  0  0  0  0
   -1.8816    1.6275   -0.8550 C   0  0  0  0  0  0  0  0  0  0  0  0
   -1.9957    1.2276    0.5012 C   0  0  0  0  0  0  0  0  0  0  0  0
   -0.9746    0.3368    2.2029 H   0  0  0  0  0  0  0  0  0  0  0  0
    1.1710    0.0270    1.0324 H   0  0  0  0  0  0  0  0  0  0  0  0
   -0.5859    1.7596   -2.5610 H   0  0  0  0  0  0  0  0  0  0  0  0
   -2.7441    2.0709   -1.3388 H   0  0  0  0  0  0  0  0  0  0  0  0
    1.5602    0.7161   -1.5164 N   0  0  0  0  0  0  0  0  0  0  0  0
    2.4684    0.5983   -2.1532 N   0  0  0  0  0  0  0  0  0  0  0  0
    3.5885    0.3309    1.5993 B   0  0  0  0  0  0  0  0  0  0  0  0
    4.7280   -0.4062    1.3505 F   0  0  0  0  0  0  0  0  0  0  0  0
    3.1270    0.9215    0.3629 F   0  0  0  0  0  0  0  0  0  0  0  0
    2.5288   -0.5374    2.0269 F   0  0  0  0  0  0  0  0  0  0  0  0
    3.7755    1.3313    2.5339 F   0  0  0  0  0  0  0  0  0  0  0  0
   -3.1913    1.4481    1.0559 O   0  0  0  0  0  0  0  0  0  0  0  0
   -3.4085    1.0984    2.4306 C   0  0  0  0  0  0  0  0  0  0  0  0
   -4.4376    1.3846    2.6426 H   0  0  0  0  0  0  0  0  0  0  0  0
   -2.7283    1.6507    3.0857 H   0  0  0  0  0  0  0  0  0  0  0  0
   -3.2847    0.0215    2.5836 H   0  0  0  0  0  0  0  0  0  0  0  0
  1  7  1  0  0  0  0
  2  8  1  0  0  0  0
  2  1  1  0  0  0  0
  3  2  2  0  0  0  0
  4  5  2  0  0  0  0
  4  3  1  0  0  0  0
  5  6  1  0  0  0  0
  6 18  1  0  0  0  0
  6  1  2  0  0  0  0
  9  4  1  0  0  0  0
 10  5  1  0  0  0  0
 11  3  1  0  0  0  0
 12 11  1  0  0  0  0
 13 16  1  0  0  0  0
 13 17  1  0  0  0  0
 14 13  1  0  0  0  0
 15 13  1  0  0  0  0
 18 19  1  0  0  0  0
 19 22  1  0  0  0  0
 19 20  1  0  0  0  0
 19 21  1  0  0  0  0
M  RAD  2  11   2  12   3
M  END
