Coordinates from ORCA-job p-CH3O-Ph-N2-X-BF4-B3LYPG-6-31G_dp-scan-d09-49-n400
 OpenBabel08281821133D

 22 21  0  0  0  0  0  0  0  0999 V2000
   -0.8646    0.5876    1.1341 C   0  0  0  0  0  0  0  0  0  0  0  0
    0.3249    0.3947    0.4535 C   0  0  0  0  0  0  0  0  0  0  0  0
    0.4026    0.8686   -0.8697 C   0  0  0  0  0  0  0  0  0  0  0  0
   -0.6745    1.5211   -1.5214 C   0  0  0  0  0  0  0  0  0  0  0  0
   -1.8410    1.7033   -0.8204 C   0  0  0  0  0  0  0  0  0  0  0  0
   -1.9472    1.2434    0.5176 C   0  0  0  0  0  0  0  0  0  0  0  0
   -0.9262    0.2369    2.1560 H   0  0  0  0  0  0  0  0  0  0  0  0
    1.1745   -0.0950    0.9347 H   0  0  0  0  0  0  0  0  0  0  0  0
   -0.5709    1.8718   -2.5420 H   0  0  0  0  0  0  0  0  0  0  0  0
   -2.6940    2.2023   -1.2657 H   0  0  0  0  0  0  0  0  0  0  0  0
    1.5533    0.7018   -1.5899 N   0  0  0  0  0  0  0  0  0  0  0  0
    2.4468    0.5868   -2.2480 N   0  0  0  0  0  0  0  0  0  0  0  0
    3.4501    0.3498    1.6280 B   0  0  0  0  0  0  0  0  0  0  0  0
    4.7147   -0.1643    1.7989 F   0  0  0  0  0  0  0  0  0  0  0  0
    3.1785    0.4875    0.2146 F   0  0  0  0  0  0  0  0  0  0  0  0
    2.4634   -0.5647    2.1181 F   0  0  0  0  0  0  0  0  0  0  0  0
    3.2691    1.5858    2.2311 F   0  0  0  0  0  0  0  0  0  0  0  0
   -3.1227    1.4836    1.1057 O   0  0  0  0  0  0  0  0  0  0  0  0
   -3.3258    1.0818    2.4684 C   0  0  0  0  0  0  0  0  0  0  0  0
   -4.3379    1.3989    2.7153 H   0  0  0  0  0  0  0  0  0  0  0  0
   -2.6103    1.5768    3.1315 H   0  0  0  0  0  0  0  0  0  0  0  0
   -3.2428   -0.0049    2.5713 H   0  0  0  0  0  0  0  0  0  0  0  0
  1  7  1  0  0  0  0
  2  8  1  0  0  0  0
  2  1  2  0  0  0  0
  3  2  1  0  0  0  0
  4  3  2  0  0  0  0
  4  5  1  0  0  0  0
  5  6  2  0  0  0  0
  6 18  1  0  0  0  0
  6  1  1  0  0  0  0
  9  4  1  0  0  0  0
 10  5  1  0  0  0  0
 11  3  1  0  0  0  0
 12 11  1  0  0  0  0
 13 14  1  0  0  0  0
 13 16  1  0  0  0  0
 13 17  1  0  0  0  0
 15 13  1  0  0  0  0
 18 19  1  0  0  0  0
 19 22  1  0  0  0  0
 19 20  1  0  0  0  0
 19 21  1  0  0  0  0
M  RAD  2  11   2  12   3
M  END
