Coordinates from ORCA-job p-CH3O-Ph-N2-X-BF4-B3LYPG-6-31G_dp-scan-d09-49-n400
 OpenBabel08281821133D

 22 21  0  0  0  0  0  0  0  0999 V2000
   -0.8656    0.5883    1.1349 C   0  0  0  0  0  0  0  0  0  0  0  0
    0.3243    0.3957    0.4548 C   0  0  0  0  0  0  0  0  0  0  0  0
    0.4023    0.8691   -0.8689 C   0  0  0  0  0  0  0  0  0  0  0  0
   -0.6747    1.5207   -1.5213 C   0  0  0  0  0  0  0  0  0  0  0  0
   -1.8415    1.7028   -0.8207 C   0  0  0  0  0  0  0  0  0  0  0  0
   -1.9481    1.2434    0.5174 C   0  0  0  0  0  0  0  0  0  0  0  0
   -0.9276    0.2380    2.1569 H   0  0  0  0  0  0  0  0  0  0  0  0
    1.1745   -0.0932    0.9357 H   0  0  0  0  0  0  0  0  0  0  0  0
   -0.5710    1.8708   -2.5421 H   0  0  0  0  0  0  0  0  0  0  0  0
   -2.6944    2.2013   -1.2663 H   0  0  0  0  0  0  0  0  0  0  0  0
    1.5532    0.7007   -1.5884 N   0  0  0  0  0  0  0  0  0  0  0  0
    2.4475    0.5838   -2.2452 N   0  0  0  0  0  0  0  0  0  0  0  0
    3.4531    0.3498    1.6274 B   0  0  0  0  0  0  0  0  0  0  0  0
    4.7175   -0.1672    1.7889 F   0  0  0  0  0  0  0  0  0  0  0  0
    3.1763    0.4949    0.2160 F   0  0  0  0  0  0  0  0  0  0  0  0
    2.4670   -0.5654    2.1174 F   0  0  0  0  0  0  0  0  0  0  0  0
    3.2765    1.5830    2.2376 F   0  0  0  0  0  0  0  0  0  0  0  0
   -3.1240    1.4834    1.1047 O   0  0  0  0  0  0  0  0  0  0  0  0
   -3.3278    1.0820    2.4674 C   0  0  0  0  0  0  0  0  0  0  0  0
   -4.3402    1.3988    2.7136 H   0  0  0  0  0  0  0  0  0  0  0  0
   -2.6128    1.5774    3.1308 H   0  0  0  0  0  0  0  0  0  0  0  0
   -3.2445   -0.0047    2.5707 H   0  0  0  0  0  0  0  0  0  0  0  0
  1  7  1  0  0  0  0
  2  8  1  0  0  0  0
  2  1  2  0  0  0  0
  3  2  1  0  0  0  0
  4  3  2  0  0  0  0
  4  5  1  0  0  0  0
  5  6  2  0  0  0  0
  6 18  1  0  0  0  0
  6  1  1  0  0  0  0
  9  4  1  0  0  0  0
 10  5  1  0  0  0  0
 11  3  1  0  0  0  0
 12 11  1  0  0  0  0
 13 14  1  0  0  0  0
 13 16  1  0  0  0  0
 13 17  1  0  0  0  0
 15 13  1  0  0  0  0
 18 19  1  0  0  0  0
 19 22  1  0  0  0  0
 19 20  1  0  0  0  0
 19 21  1  0  0  0  0
M  RAD  2  11   2  12   3
M  END
