Coordinates from ORCA-job p-CH3O-Ph-N2-X-BF4-B3LYPG-6-31G_dp-scan-d09-49-n400
 OpenBabel08281821133D

 22 22  0  0  0  0  0  0  0  0999 V2000
   -1.4641    0.6510    1.5028 C   0  0  0  0  0  0  0  0  0  0  0  0
   -0.0805    0.5379    1.3997 C   0  0  0  0  0  0  0  0  0  0  0  0
    0.5858    0.9479    0.2245 C   0  0  0  0  0  0  0  0  0  0  0  0
   -0.1892    1.4703   -0.8354 C   0  0  0  0  0  0  0  0  0  0  0  0
   -1.5613    1.5861   -0.7366 C   0  0  0  0  0  0  0  0  0  0  0  0
   -2.2152    1.1765    0.4393 C   0  0  0  0  0  0  0  0  0  0  0  0
   -1.9470    0.3266    2.4163 H   0  0  0  0  0  0  0  0  0  0  0  0
    0.4491    0.1271    2.2480 H   0  0  0  0  0  0  0  0  0  0  0  0
    0.3320    1.7804   -1.7345 H   0  0  0  0  0  0  0  0  0  0  0  0
   -2.1561    1.9881   -1.5494 H   0  0  0  0  0  0  0  0  0  0  0  0
    1.9617    0.9202   -0.0837 N   0  0  0  0  0  0  0  0  0  0  0  0
    2.8313    0.5068    0.7277 N   0  0  0  0  0  0  0  0  0  0  0  0
    4.5458    0.5269    0.2584 B   0  0  0  0  0  0  0  0  0  0  0  0
    2.5882    0.1551    1.6872 F   0  0  0  0  0  0  0  0  0  0  0  0
    4.5799   -0.2029   -0.8842 F   0  0  0  0  0  0  0  0  0  0  0  0
    4.8282    1.8492    0.1329 F   0  0  0  0  0  0  0  0  0  0  0  0
    5.0660   -0.0821    1.3688 F   0  0  0  0  0  0  0  0  0  0  0  0
   -3.5589    1.3275    0.4485 O   0  0  0  0  0  0  0  0  0  0  0  0
   -4.2889    0.9357    1.6073 C   0  0  0  0  0  0  0  0  0  0  0  0
   -5.3342    1.1553    1.3877 H   0  0  0  0  0  0  0  0  0  0  0  0
   -3.9758    1.5064    2.4892 H   0  0  0  0  0  0  0  0  0  0  0  0
   -4.1768   -0.1365    1.8068 H   0  0  0  0  0  0  0  0  0  0  0  0
  1  7  1  0  0  0  0
  2  1  1  0  0  0  0
  2  8  1  0  0  0  0
  3  2  2  0  0  0  0
  4  5  2  0  0  0  0
  4  3  1  0  0  0  0
  5  6  1  0  0  0  0
  6 18  1  0  0  0  0
  6  1  2  0  0  0  0
  9  4  1  0  0  0  0
 10  5  1  0  0  0  0
 11  3  1  0  0  0  0
 11 12  1  0  0  0  0
 12 14  1  0  0  0  0
 13 12  1  0  0  0  0
 13 17  1  0  0  0  0
 15 13  1  0  0  0  0
 16 13  1  0  0  0  0
 18 19  1  0  0  0  0
 19 22  1  0  0  0  0
 19 21  1  0  0  0  0
 20 19  1  0  0  0  0
M  RAD  1  11   2
M  END
