Coordinates from ORCA-job p-CH3O-Ph-N2-X-BF4-B3LYPG-6-31G_dp-scan-d09-49-n400
 OpenBabel08281821133D

 22 21  0  0  0  0  0  0  0  0999 V2000
   -0.9615    0.6278    1.2323 C   0  0  0  0  0  0  0  0  0  0  0  0
    0.2912    0.4412    0.6694 C   0  0  0  0  0  0  0  0  0  0  0  0
    0.4851    0.8352   -0.6672 C   0  0  0  0  0  0  0  0  0  0  0  0
   -0.5468    1.4105   -1.4355 C   0  0  0  0  0  0  0  0  0  0  0  0
   -1.7858    1.5914   -0.8609 C   0  0  0  0  0  0  0  0  0  0  0  0
   -2.0041    1.2016    0.4795 C   0  0  0  0  0  0  0  0  0  0  0  0
   -1.1155    0.3333    2.2623 H   0  0  0  0  0  0  0  0  0  0  0  0
    1.1009    0.0179    1.2541 H   0  0  0  0  0  0  0  0  0  0  0  0
   -0.3558    1.7053   -2.4612 H   0  0  0  0  0  0  0  0  0  0  0  0
   -2.6078    2.0316   -1.4134 H   0  0  0  0  0  0  0  0  0  0  0  0
    1.7126    0.6593   -1.2700 N   0  0  0  0  0  0  0  0  0  0  0  0
    2.8023    0.3409   -1.3471 N   0  0  0  0  0  0  0  0  0  0  0  0
    3.5529    0.5305    1.4104 B   0  0  0  0  0  0  0  0  0  0  0  0
    3.3367   -0.4120    0.2356 F   0  0  0  0  0  0  0  0  0  0  0  0
    3.0594    1.7539    0.9727 F   0  0  0  0  0  0  0  0  0  0  0  0
    2.7550   -0.0013    2.4206 F   0  0  0  0  0  0  0  0  0  0  0  0
    4.8818    0.5348    1.6997 F   0  0  0  0  0  0  0  0  0  0  0  0
   -3.2442    1.4220    0.9455 O   0  0  0  0  0  0  0  0  0  0  0  0
   -3.5587    1.0686    2.2960 C   0  0  0  0  0  0  0  0  0  0  0  0
   -4.6026    1.3477    2.4350 H   0  0  0  0  0  0  0  0  0  0  0  0
   -2.9337    1.6216    3.0044 H   0  0  0  0  0  0  0  0  0  0  0  0
   -3.4415   -0.0083    2.4591 H   0  0  0  0  0  0  0  0  0  0  0  0
  1  7  1  0  0  0  0
  2  1  1  0  0  0  0
  2  8  1  0  0  0  0
  3  2  2  0  0  0  0
  4  5  2  0  0  0  0
  4  3  1  0  0  0  0
  5  6  1  0  0  0  0
  6 18  1  0  0  0  0
  6  1  2  0  0  0  0
  9  4  1  0  0  0  0
 10  5  1  0  0  0  0
 11  3  1  0  0  0  0
 12 11  1  0  0  0  0
 13 17  1  0  0  0  0
 13 16  1  0  0  0  0
 14 13  1  0  0  0  0
 15 13  1  0  0  0  0
 18 19  1  0  0  0  0
 19 20  1  0  0  0  0
 19 22  1  0  0  0  0
 19 21  1  0  0  0  0
M  RAD  2  11   2  12   3
M  END
