Coordinates from ORCA-job p-CH3O-Ph-N2-X-BF4-B3LYPG-6-31G_dp-scan-d09-49-n400
 OpenBabel08281821133D

 22 21  0  0  0  0  0  0  0  0999 V2000
   -0.9611    0.6245    1.2283 C   0  0  0  0  0  0  0  0  0  0  0  0
    0.2911    0.4370    0.6643 C   0  0  0  0  0  0  0  0  0  0  0  0
    0.4867    0.8333   -0.6714 C   0  0  0  0  0  0  0  0  0  0  0  0
   -0.5456    1.4109   -1.4369 C   0  0  0  0  0  0  0  0  0  0  0  0
   -1.7848    1.5922   -0.8623 C   0  0  0  0  0  0  0  0  0  0  0  0
   -2.0033    1.2010    0.4772 C   0  0  0  0  0  0  0  0  0  0  0  0
   -1.1149    0.3283    2.2579 H   0  0  0  0  0  0  0  0  0  0  0  0
    1.0991    0.0109    1.2478 H   0  0  0  0  0  0  0  0  0  0  0  0
   -0.3544    1.7072   -2.4621 H   0  0  0  0  0  0  0  0  0  0  0  0
   -2.6064    2.0341   -1.4142 H   0  0  0  0  0  0  0  0  0  0  0  0
    1.7135    0.6617   -1.2806 N   0  0  0  0  0  0  0  0  0  0  0  0
    2.8051    0.3325   -1.3244 N   0  0  0  0  0  0  0  0  0  0  0  0
    3.5514    0.5405    1.4207 B   0  0  0  0  0  0  0  0  0  0  0  0
    3.2858   -0.4124    0.2448 F   0  0  0  0  0  0  0  0  0  0  0  0
    3.0784    1.7668    0.9800 F   0  0  0  0  0  0  0  0  0  0  0  0
    2.7629    0.0243    2.4416 F   0  0  0  0  0  0  0  0  0  0  0  0
    4.8856    0.5076    1.6746 F   0  0  0  0  0  0  0  0  0  0  0  0
   -3.2431    1.4225    0.9446 O   0  0  0  0  0  0  0  0  0  0  0  0
   -3.5563    1.0689    2.2950 C   0  0  0  0  0  0  0  0  0  0  0  0
   -4.5997    1.3492    2.4357 H   0  0  0  0  0  0  0  0  0  0  0  0
   -2.9299    1.6208    3.0031 H   0  0  0  0  0  0  0  0  0  0  0  0
   -3.4403   -0.0082    2.4578 H   0  0  0  0  0  0  0  0  0  0  0  0
  1  7  1  0  0  0  0
  2  1  1  0  0  0  0
  2  8  1  0  0  0  0
  3  2  2  0  0  0  0
  4  5  2  0  0  0  0
  4  3  1  0  0  0  0
  5  6  1  0  0  0  0
  6 18  1  0  0  0  0
  6  1  2  0  0  0  0
  9  4  1  0  0  0  0
 10  5  1  0  0  0  0
 11  3  1  0  0  0  0
 12 11  2  0  0  0  0
 13 17  1  0  0  0  0
 13 16  1  0  0  0  0
 14 13  1  0  0  0  0
 15 13  1  0  0  0  0
 18 19  1  0  0  0  0
 19 20  1  0  0  0  0
 19 22  1  0  0  0  0
 19 21  1  0  0  0  0
M  RAD  1  12   2
M  END
