Coordinates from ORCA-job p-CH3O-Ph-N2-X-BF4-B3LYPG-6-31G_dp-scan-d09-49-n400
 OpenBabel08281821133D

 22 21  0  0  0  0  0  0  0  0999 V2000
   -0.9274    0.6616    1.2053 C   0  0  0  0  0  0  0  0  0  0  0  0
    0.2996    0.4835    0.5892 C   0  0  0  0  0  0  0  0  0  0  0  0
    0.4093    0.8679   -0.7604 C   0  0  0  0  0  0  0  0  0  0  0  0
   -0.6674    1.4176   -1.4999 C   0  0  0  0  0  0  0  0  0  0  0  0
   -1.8705    1.5903   -0.8606 C   0  0  0  0  0  0  0  0  0  0  0  0
   -2.0123    1.2182    0.5005 C   0  0  0  0  0  0  0  0  0  0  0  0
   -1.0257    0.3730    2.2438 H   0  0  0  0  0  0  0  0  0  0  0  0
    1.1581    0.0620    1.1222 H   0  0  0  0  0  0  0  0  0  0  0  0
   -0.5364    1.6997   -2.5386 H   0  0  0  0  0  0  0  0  0  0  0  0
   -2.7260    2.0133   -1.3742 H   0  0  0  0  0  0  0  0  0  0  0  0
    1.5929    0.6984   -1.4266 N   0  0  0  0  0  0  0  0  0  0  0  0
    2.4977    0.5700   -2.0659 N   0  0  0  0  0  0  0  0  0  0  0  0
    3.6362    0.3430    1.5299 B   0  0  0  0  0  0  0  0  0  0  0  0
    4.6604   -0.3952    0.9661 F   0  0  0  0  0  0  0  0  0  0  0  0
    3.0386    1.1730    0.5083 F   0  0  0  0  0  0  0  0  0  0  0  0
    2.5942   -0.5404    1.9701 F   0  0  0  0  0  0  0  0  0  0  0  0
    4.0489    1.1406    2.5767 F   0  0  0  0  0  0  0  0  0  0  0  0
   -3.2234    1.4371    1.0221 O   0  0  0  0  0  0  0  0  0  0  0  0
   -3.4698    1.1146    2.3983 C   0  0  0  0  0  0  0  0  0  0  0  0
   -4.5065    1.3944    2.5797 H   0  0  0  0  0  0  0  0  0  0  0  0
   -2.8113    1.6880    3.0575 H   0  0  0  0  0  0  0  0  0  0  0  0
   -3.3391    0.0426    2.5778 H   0  0  0  0  0  0  0  0  0  0  0  0
  1  7  1  0  0  0  0
  2  8  1  0  0  0  0
  2  1  1  0  0  0  0
  3  2  2  0  0  0  0
  4  5  2  0  0  0  0
  4  3  1  0  0  0  0
  5  6  1  0  0  0  0
  6 18  1  0  0  0  0
  6  1  2  0  0  0  0
  9  4  1  0  0  0  0
 10  5  1  0  0  0  0
 11  3  1  0  0  0  0
 12 11  1  0  0  0  0
 13 16  1  0  0  0  0
 13 17  1  0  0  0  0
 14 13  1  0  0  0  0
 15 13  1  0  0  0  0
 18 19  1  0  0  0  0
 19 22  1  0  0  0  0
 19 20  1  0  0  0  0
 19 21  1  0  0  0  0
M  RAD  2  11   2  12   3
M  END
