Coordinates from ORCA-job p-CH3O-Ph-N2-X-BF4-B3LYPG-6-31G_dp-scan-d09-49-n400
 OpenBabel08281821133D

 22 21  0  0  0  0  0  0  0  0999 V2000
   -0.9192    0.6664    1.1943 C   0  0  0  0  0  0  0  0  0  0  0  0
    0.3039    0.4942    0.5689 C   0  0  0  0  0  0  0  0  0  0  0  0
    0.4020    0.8808   -0.7810 C   0  0  0  0  0  0  0  0  0  0  0  0
   -0.6826    1.4265   -1.5121 C   0  0  0  0  0  0  0  0  0  0  0  0
   -1.8817    1.5929   -0.8636 C   0  0  0  0  0  0  0  0  0  0  0  0
   -2.0118    1.2187    0.4983 C   0  0  0  0  0  0  0  0  0  0  0  0
   -1.0075    0.3762    2.2333 H   0  0  0  0  0  0  0  0  0  0  0  0
    1.1664    0.0749    1.0977 H   0  0  0  0  0  0  0  0  0  0  0  0
   -0.5607    1.7103   -2.5514 H   0  0  0  0  0  0  0  0  0  0  0  0
   -2.7430    2.0125   -1.3703 H   0  0  0  0  0  0  0  0  0  0  0  0
    1.5828    0.7192   -1.4534 N   0  0  0  0  0  0  0  0  0  0  0  0
    2.4926    0.5980   -2.0870 N   0  0  0  0  0  0  0  0  0  0  0  0
    3.6311    0.3291    1.5546 B   0  0  0  0  0  0  0  0  0  0  0  0
    4.6696   -0.4456    1.0742 F   0  0  0  0  0  0  0  0  0  0  0  0
    3.0787    1.1038    0.4664 F   0  0  0  0  0  0  0  0  0  0  0  0
    2.5649   -0.5214    2.0029 F   0  0  0  0  0  0  0  0  0  0  0  0
    4.0093    1.1813    2.5712 F   0  0  0  0  0  0  0  0  0  0  0  0
   -3.2198    1.4315    1.0291 O   0  0  0  0  0  0  0  0  0  0  0  0
   -3.4542    1.1063    2.4069 C   0  0  0  0  0  0  0  0  0  0  0  0
   -4.4908    1.3808    2.5965 H   0  0  0  0  0  0  0  0  0  0  0  0
   -2.7934    1.6822    3.0616 H   0  0  0  0  0  0  0  0  0  0  0  0
   -3.3167    0.0348    2.5841 H   0  0  0  0  0  0  0  0  0  0  0  0
  1  7  1  0  0  0  0
  2  8  1  0  0  0  0
  2  1  1  0  0  0  0
  3  2  2  0  0  0  0
  4  5  2  0  0  0  0
  4  3  1  0  0  0  0
  5  6  1  0  0  0  0
  6 18  1  0  0  0  0
  6  1  2  0  0  0  0
  9  4  1  0  0  0  0
 10  5  1  0  0  0  0
 11  3  1  0  0  0  0
 12 11  1  0  0  0  0
 13 16  1  0  0  0  0
 13 17  1  0  0  0  0
 14 13  1  0  0  0  0
 15 13  1  0  0  0  0
 18 19  1  0  0  0  0
 19 22  1  0  0  0  0
 19 20  1  0  0  0  0
 19 21  1  0  0  0  0
M  RAD  2  11   2  12   3
M  END
