Coordinates from ORCA-job p-CH3O-Ph-N2-X-BF4-B3LYPG-6-31G_dp-scan-d09-49-n400
 OpenBabel08281821133D

 22 21  0  0  0  0  0  0  0  0999 V2000
   -0.9936    0.6752    1.3006 C   0  0  0  0  0  0  0  0  0  0  0  0
    0.2702    0.4817    0.7679 C   0  0  0  0  0  0  0  0  0  0  0  0
    0.4688    0.8230   -0.5827 C   0  0  0  0  0  0  0  0  0  0  0  0
   -0.5563    1.3482   -1.4023 C   0  0  0  0  0  0  0  0  0  0  0  0
   -1.8001    1.5391   -0.8477 C   0  0  0  0  0  0  0  0  0  0  0  0
   -2.0306    1.2063    0.5093 C   0  0  0  0  0  0  0  0  0  0  0  0
   -1.1629    0.4169    2.3379 H   0  0  0  0  0  0  0  0  0  0  0  0
    1.0985    0.0795    1.3520 H   0  0  0  0  0  0  0  0  0  0  0  0
   -0.3582    1.5988   -2.4385 H   0  0  0  0  0  0  0  0  0  0  0  0
   -2.6204    1.9443   -1.4288 H   0  0  0  0  0  0  0  0  0  0  0  0
    1.6975    0.6228   -1.1580 N   0  0  0  0  0  0  0  0  0  0  0  0
    2.6750    0.4393   -1.6660 N   0  0  0  0  0  0  0  0  0  0  0  0
    3.6671    0.4188    1.3007 B   0  0  0  0  0  0  0  0  0  0  0  0
    4.2204   -0.1041    0.1068 F   0  0  0  0  0  0  0  0  0  0  0  0
    2.8673    1.5449    0.9401 F   0  0  0  0  0  0  0  0  0  0  0  0
    2.7804   -0.5570    1.8423 F   0  0  0  0  0  0  0  0  0  0  0  0
    4.6371    0.7685    2.2039 F   0  0  0  0  0  0  0  0  0  0  0  0
   -3.2765    1.4339    0.9448 O   0  0  0  0  0  0  0  0  0  0  0  0
   -3.6120    1.1426    2.3072 C   0  0  0  0  0  0  0  0  0  0  0  0
   -4.6600    1.4199    2.4137 H   0  0  0  0  0  0  0  0  0  0  0  0
   -3.0024    1.7349    2.9964 H   0  0  0  0  0  0  0  0  0  0  0  0
   -3.4892    0.0760    2.5219 H   0  0  0  0  0  0  0  0  0  0  0  0
  1  7  1  0  0  0  0
  2  1  1  0  0  0  0
  2  8  1  0  0  0  0
  3  2  2  0  0  0  0
  4  5  2  0  0  0  0
  4  3  1  0  0  0  0
  5  6  1  0  0  0  0
  6 18  1  0  0  0  0
  6  1  2  0  0  0  0
  9  4  1  0  0  0  0
 10  5  1  0  0  0  0
 11  3  1  0  0  0  0
 12 11  1  0  0  0  0
 13 16  1  0  0  0  0
 13 17  1  0  0  0  0
 14 13  1  0  0  0  0
 15 13  1  0  0  0  0
 18 19  1  0  0  0  0
 19 20  1  0  0  0  0
 19 22  1  0  0  0  0
 19 21  1  0  0  0  0
M  RAD  2  11   2  12   3
M  END
