Coordinates from ORCA-job p-CH3O-Ph-N2-X-BF4-B3LYPG-6-31G_dp-scan-d09-49-n400
 OpenBabel08281821133D

 22 21  0  0  0  0  0  0  0  0999 V2000
   -0.9332    0.6617    1.2134 C   0  0  0  0  0  0  0  0  0  0  0  0
    0.2972    0.4821    0.6045 C   0  0  0  0  0  0  0  0  0  0  0  0
    0.4145    0.8633   -0.7453 C   0  0  0  0  0  0  0  0  0  0  0  0
   -0.6576    1.4120   -1.4918 C   0  0  0  0  0  0  0  0  0  0  0  0
   -1.8642    1.5869   -0.8594 C   0  0  0  0  0  0  0  0  0  0  0  0
   -2.0139    1.2173    0.5015 C   0  0  0  0  0  0  0  0  0  0  0  0
   -1.0378    0.3753    2.2520 H   0  0  0  0  0  0  0  0  0  0  0  0
    1.1535    0.0623    1.1419 H   0  0  0  0  0  0  0  0  0  0  0  0
   -0.5208    1.6919   -2.5303 H   0  0  0  0  0  0  0  0  0  0  0  0
   -2.7165    2.0095   -1.3786 H   0  0  0  0  0  0  0  0  0  0  0  0
    1.6011    0.6897   -1.4057 N   0  0  0  0  0  0  0  0  0  0  0  0
    2.5050    0.5567   -2.0454 N   0  0  0  0  0  0  0  0  0  0  0  0
    3.6411    0.3495    1.5120 B   0  0  0  0  0  0  0  0  0  0  0  0
    4.6396   -0.3784    0.8889 F   0  0  0  0  0  0  0  0  0  0  0  0
    3.0166    1.2149    0.5372 F   0  0  0  0  0  0  0  0  0  0  0  0
    2.6089   -0.5410    1.9598 F   0  0  0  0  0  0  0  0  0  0  0  0
    4.0969    1.1106    2.5671 F   0  0  0  0  0  0  0  0  0  0  0  0
   -3.2279    1.4377    1.0159 O   0  0  0  0  0  0  0  0  0  0  0  0
   -3.4822    1.1172    2.3911 C   0  0  0  0  0  0  0  0  0  0  0  0
   -4.5198    1.3978    2.5663 H   0  0  0  0  0  0  0  0  0  0  0  0
   -2.8272    1.6911    3.0533 H   0  0  0  0  0  0  0  0  0  0  0  0
   -3.3531    0.0454    2.5729 H   0  0  0  0  0  0  0  0  0  0  0  0
  1  7  1  0  0  0  0
  2  8  1  0  0  0  0
  2  1  1  0  0  0  0
  3  2  2  0  0  0  0
  4  5  2  0  0  0  0
  4  3  1  0  0  0  0
  5  6  1  0  0  0  0
  6 18  1  0  0  0  0
  6  1  2  0  0  0  0
  9  4  1  0  0  0  0
 10  5  1  0  0  0  0
 11  3  1  0  0  0  0
 12 11  1  0  0  0  0
 13 16  1  0  0  0  0
 13 17  1  0  0  0  0
 14 13  1  0  0  0  0
 15 13  1  0  0  0  0
 18 19  1  0  0  0  0
 19 20  1  0  0  0  0
 19 22  1  0  0  0  0
 19 21  1  0  0  0  0
M  RAD  2  11   2  12   3
M  END
