Coordinates from ORCA-job p-CH3O-Ph-N2-X-BF4-B3LYPG-6-31G_dp-scan-d09-49-n400
 OpenBabel08281821133D

 22 22  0  0  0  0  0  0  0  0999 V2000
   -1.4720    0.7378    1.5283 C   0  0  0  0  0  0  0  0  0  0  0  0
   -0.0920    0.6331    1.4240 C   0  0  0  0  0  0  0  0  0  0  0  0
    0.5438    0.9126    0.1948 C   0  0  0  0  0  0  0  0  0  0  0  0
   -0.2406    1.2960   -0.9166 C   0  0  0  0  0  0  0  0  0  0  0  0
   -1.6120    1.4019   -0.8122 C   0  0  0  0  0  0  0  0  0  0  0  0
   -2.2426    1.1228    0.4155 C   0  0  0  0  0  0  0  0  0  0  0  0
   -1.9427    0.5174    2.4784 H   0  0  0  0  0  0  0  0  0  0  0  0
    0.4875    0.3368    2.2842 H   0  0  0  0  0  0  0  0  0  0  0  0
    0.2654    1.5061   -1.8526 H   0  0  0  0  0  0  0  0  0  0  0  0
   -2.2253    1.6966   -1.6562 H   0  0  0  0  0  0  0  0  0  0  0  0
    1.9080    0.8587   -0.0858 N   0  0  0  0  0  0  0  0  0  0  0  0
    2.8498    0.5807    0.6267 N   0  0  0  0  0  0  0  0  0  0  0  0
    4.6756    0.5496    0.2600 B   0  0  0  0  0  0  0  0  0  0  0  0
    2.5833    0.2526    1.9626 F   0  0  0  0  0  0  0  0  0  0  0  0
    4.6463    0.7958   -1.0667 F   0  0  0  0  0  0  0  0  0  0  0  0
    5.1012    1.5504    1.0609 F   0  0  0  0  0  0  0  0  0  0  0  0
    4.9825   -0.7068    0.6463 F   0  0  0  0  0  0  0  0  0  0  0  0
   -3.5844    1.2516    0.4243 O   0  0  0  0  0  0  0  0  0  0  0  0
   -4.3011    0.9868    1.6293 C   0  0  0  0  0  0  0  0  0  0  0  0
   -5.3515    1.1548    1.3905 H   0  0  0  0  0  0  0  0  0  0  0  0
   -3.9965    1.6686    2.4313 H   0  0  0  0  0  0  0  0  0  0  0  0
   -4.1627   -0.0506    1.9544 H   0  0  0  0  0  0  0  0  0  0  0  0
  1  7  1  0  0  0  0
  2  1  1  0  0  0  0
  2  8  1  0  0  0  0
  3  2  2  0  0  0  0
  4  5  2  0  0  0  0
  4  3  1  0  0  0  0
  5  6  1  0  0  0  0
  6 18  1  0  0  0  0
  6  1  2  0  0  0  0
  9  4  1  0  0  0  0
 10  5  1  0  0  0  0
 11  3  1  0  0  0  0
 11 12  1  0  0  0  0
 12 14  1  0  0  0  0
 13 12  1  0  0  0  0
 13 17  1  0  0  0  0
 13 16  1  0  0  0  0
 15 13  1  0  0  0  0
 18 19  1  0  0  0  0
 19 22  1  0  0  0  0
 19 21  1  0  0  0  0
 20 19  1  0  0  0  0
M  RAD  1  11   2
M  END
