Coordinates from ORCA-job p-CH3O-Ph-N2-X-BF4-B3LYPG-6-31G_dp-scan-d09-49-n400
 OpenBabel08281821133D

 22 22  0  0  0  0  0  0  0  0999 V2000
   -1.4625    0.6476    1.4986 C   0  0  0  0  0  0  0  0  0  0  0  0
   -0.0781    0.5348    1.3917 C   0  0  0  0  0  0  0  0  0  0  0  0
    0.5872    0.9501    0.2184 C   0  0  0  0  0  0  0  0  0  0  0  0
   -0.1905    1.4770   -0.8365 C   0  0  0  0  0  0  0  0  0  0  0  0
   -1.5626    1.5932   -0.7342 C   0  0  0  0  0  0  0  0  0  0  0  0
   -2.2152    1.1785    0.4403 C   0  0  0  0  0  0  0  0  0  0  0  0
   -1.9431    0.3181    2.4115 H   0  0  0  0  0  0  0  0  0  0  0  0
    0.4493    0.1180    2.2393 H   0  0  0  0  0  0  0  0  0  0  0  0
    0.3286    1.7907   -1.7356 H   0  0  0  0  0  0  0  0  0  0  0  0
   -2.1583    1.9992   -1.5444 H   0  0  0  0  0  0  0  0  0  0  0  0
    1.9663    0.9214   -0.0935 N   0  0  0  0  0  0  0  0  0  0  0  0
    2.8263    0.5076    0.7392 N   0  0  0  0  0  0  0  0  0  0  0  0
    4.5411    0.5226    0.2644 B   0  0  0  0  0  0  0  0  0  0  0  0
    2.5925    0.1792    1.6546 F   0  0  0  0  0  0  0  0  0  0  0  0
    4.5850   -0.2375   -0.8573 F   0  0  0  0  0  0  0  0  0  0  0  0
    4.8287    1.8402    0.1104 F   0  0  0  0  0  0  0  0  0  0  0  0
    5.0497   -0.0608    1.3970 F   0  0  0  0  0  0  0  0  0  0  0  0
   -3.5601    1.3306    0.4523 O   0  0  0  0  0  0  0  0  0  0  0  0
   -4.2865    0.9325    1.6104 C   0  0  0  0  0  0  0  0  0  0  0  0
   -5.3326    1.1537    1.3956 H   0  0  0  0  0  0  0  0  0  0  0  0
   -3.9708    1.4976    2.4952 H   0  0  0  0  0  0  0  0  0  0  0  0
   -4.1745   -0.1409    1.8040 H   0  0  0  0  0  0  0  0  0  0  0  0
  1  7  1  0  0  0  0
  2  1  1  0  0  0  0
  2  8  1  0  0  0  0
  3  2  2  0  0  0  0
  4  5  2  0  0  0  0
  4  3  1  0  0  0  0
  5  6  1  0  0  0  0
  6 18  1  0  0  0  0
  6  1  2  0  0  0  0
  9  4  1  0  0  0  0
 10  5  1  0  0  0  0
 11  3  1  0  0  0  0
 11 12  1  0  0  0  0
 12 14  1  0  0  0  0
 13 12  1  0  0  0  0
 13 17  1  0  0  0  0
 15 13  1  0  0  0  0
 16 13  1  0  0  0  0
 18 19  1  0  0  0  0
 19 22  1  0  0  0  0
 19 21  1  0  0  0  0
 20 19  1  0  0  0  0
M  RAD  1  11   2
M  END
