Coordinates from ORCA-job p-CH3O-Ph-N2-X-BF4-B3LYPG-6-31G_dp-scan-d09-49-n400
 OpenBabel08281821133D

 22 21  0  0  0  0  0  0  0  0999 V2000
   -0.9343    0.6624    1.2151 C   0  0  0  0  0  0  0  0  0  0  0  0
    0.2969    0.4829    0.6077 C   0  0  0  0  0  0  0  0  0  0  0  0
    0.4156    0.8631   -0.7421 C   0  0  0  0  0  0  0  0  0  0  0  0
   -0.6559    1.4110   -1.4902 C   0  0  0  0  0  0  0  0  0  0  0  0
   -1.8632    1.5858   -0.8593 C   0  0  0  0  0  0  0  0  0  0  0  0
   -2.0144    1.2171    0.5016 C   0  0  0  0  0  0  0  0  0  0  0  0
   -1.0401    0.3766    2.2537 H   0  0  0  0  0  0  0  0  0  0  0  0
    1.1529    0.0639    1.1463 H   0  0  0  0  0  0  0  0  0  0  0  0
   -0.5179    1.6902   -2.5288 H   0  0  0  0  0  0  0  0  0  0  0  0
   -2.7151    2.0078   -1.3798 H   0  0  0  0  0  0  0  0  0  0  0  0
    1.6029    0.6891   -1.4014 N   0  0  0  0  0  0  0  0  0  0  0  0
    2.5066    0.5555   -2.0412 N   0  0  0  0  0  0  0  0  0  0  0  0
    3.6424    0.3501    1.5085 B   0  0  0  0  0  0  0  0  0  0  0  0
    4.6334   -0.3782    0.8736 F   0  0  0  0  0  0  0  0  0  0  0  0
    3.0131    1.2221    0.5428 F   0  0  0  0  0  0  0  0  0  0  0  0
    2.6110   -0.5394    1.9602 F   0  0  0  0  0  0  0  0  0  0  0  0
    4.1095    1.1043    2.5634 F   0  0  0  0  0  0  0  0  0  0  0  0
   -3.2291    1.4372    1.0145 O   0  0  0  0  0  0  0  0  0  0  0  0
   -3.4849    1.1173    2.3895 C   0  0  0  0  0  0  0  0  0  0  0  0
   -4.5229    1.3975    2.5634 H   0  0  0  0  0  0  0  0  0  0  0  0
   -2.8310    1.6918    3.0523 H   0  0  0  0  0  0  0  0  0  0  0  0
   -3.3556    0.0456    2.5719 H   0  0  0  0  0  0  0  0  0  0  0  0
  1  7  1  0  0  0  0
  2  8  1  0  0  0  0
  2  1  1  0  0  0  0
  3  2  2  0  0  0  0
  4  5  2  0  0  0  0
  4  3  1  0  0  0  0
  5  6  1  0  0  0  0
  6 18  1  0  0  0  0
  6  1  2  0  0  0  0
  9  4  1  0  0  0  0
 10  5  1  0  0  0  0
 11  3  1  0  0  0  0
 12 11  1  0  0  0  0
 13 16  1  0  0  0  0
 13 17  1  0  0  0  0
 14 13  1  0  0  0  0
 15 13  1  0  0  0  0
 18 19  1  0  0  0  0
 19 20  1  0  0  0  0
 19 22  1  0  0  0  0
 19 21  1  0  0  0  0
M  RAD  2  11   2  12   3
M  END
