Coordinates from ORCA-job p-CH3O-Ph-N2-X-BF4-B3LYPG-6-31G_dp-scan-d09-49-n400
 OpenBabel08281821133D

 22 21  0  0  0  0  0  0  0  0999 V2000
   -0.8865    0.6205    1.1501 C   0  0  0  0  0  0  0  0  0  0  0  0
    0.3139    0.4363    0.4858 C   0  0  0  0  0  0  0  0  0  0  0  0
    0.3916    0.8758   -0.8492 C   0  0  0  0  0  0  0  0  0  0  0  0
   -0.6931    1.4862   -1.5279 C   0  0  0  0  0  0  0  0  0  0  0  0
   -1.8693    1.6627   -0.8417 C   0  0  0  0  0  0  0  0  0  0  0  0
   -1.9777    1.2355    0.5068 C   0  0  0  0  0  0  0  0  0  0  0  0
   -0.9531    0.2933    2.1796 H   0  0  0  0  0  0  0  0  0  0  0  0
    1.1714   -0.0249    0.9852 H   0  0  0  0  0  0  0  0  0  0  0  0
   -0.5880    1.8101   -2.5573 H   0  0  0  0  0  0  0  0  0  0  0  0
   -2.7287    2.1308   -1.3075 H   0  0  0  0  0  0  0  0  0  0  0  0
    1.5500    0.7056   -1.5561 N   0  0  0  0  0  0  0  0  0  0  0  0
    2.4510    0.5826   -2.2023 N   0  0  0  0  0  0  0  0  0  0  0  0
    3.5403    0.3416    1.6213 B   0  0  0  0  0  0  0  0  0  0  0  0
    4.7359   -0.3400    1.5618 F   0  0  0  0  0  0  0  0  0  0  0  0
    3.1588    0.7499    0.2880 F   0  0  0  0  0  0  0  0  0  0  0  0
    2.4950   -0.5344    2.0665 F   0  0  0  0  0  0  0  0  0  0  0  0
    3.5833    1.4602    2.4346 F   0  0  0  0  0  0  0  0  0  0  0  0
   -3.1640    1.4637    1.0779 O   0  0  0  0  0  0  0  0  0  0  0  0
   -3.3730    1.0886    2.4472 C   0  0  0  0  0  0  0  0  0  0  0  0
   -4.3951    1.3867    2.6758 H   0  0  0  0  0  0  0  0  0  0  0  0
   -2.6773    1.6158    3.1065 H   0  0  0  0  0  0  0  0  0  0  0  0
   -3.2652    0.0068    2.5762 H   0  0  0  0  0  0  0  0  0  0  0  0
  1  7  1  0  0  0  0
  2  8  1  0  0  0  0
  2  1  2  0  0  0  0
  3  2  1  0  0  0  0
  4  3  2  0  0  0  0
  4  5  1  0  0  0  0
  5  6  2  0  0  0  0
  6 18  1  0  0  0  0
  6  1  1  0  0  0  0
  9  4  1  0  0  0  0
 10  5  1  0  0  0  0
 11  3  1  0  0  0  0
 12 11  1  0  0  0  0
 13 16  1  0  0  0  0
 13 17  1  0  0  0  0
 14 13  1  0  0  0  0
 15 13  1  0  0  0  0
 18 19  1  0  0  0  0
 19 22  1  0  0  0  0
 19 20  1  0  0  0  0
 19 21  1  0  0  0  0
M  RAD  2  11   2  12   3
M  END
