Coordinates from ORCA-job p-CH3O-Ph-N2-X-BF4-B3LYPG-6-31G_dp-scan-d09-49-n400
 OpenBabel08281821133D

 22 22  0  0  0  0  0  0  0  0999 V2000
   -1.4623    0.6459    1.4972 C   0  0  0  0  0  0  0  0  0  0  0  0
   -0.0777    0.5328    1.3892 C   0  0  0  0  0  0  0  0  0  0  0  0
    0.5873    0.9495    0.2164 C   0  0  0  0  0  0  0  0  0  0  0  0
   -0.1910    1.4779   -0.8372 C   0  0  0  0  0  0  0  0  0  0  0  0
   -1.5631    1.5949   -0.7337 C   0  0  0  0  0  0  0  0  0  0  0  0
   -2.2153    1.1790    0.4405 C   0  0  0  0  0  0  0  0  0  0  0  0
   -1.9423    0.3150    2.4099 H   0  0  0  0  0  0  0  0  0  0  0  0
    0.4492    0.1137    2.2361 H   0  0  0  0  0  0  0  0  0  0  0  0
    0.3275    1.7922   -1.7364 H   0  0  0  0  0  0  0  0  0  0  0  0
   -2.1590    2.0024   -1.5430 H   0  0  0  0  0  0  0  0  0  0  0  0
    1.9668    0.9196   -0.0966 N   0  0  0  0  0  0  0  0  0  0  0  0
    2.8253    0.5092    0.7418 N   0  0  0  0  0  0  0  0  0  0  0  0
    4.5406    0.5220    0.2660 B   0  0  0  0  0  0  0  0  0  0  0  0
    2.5936    0.1883    1.6495 F   0  0  0  0  0  0  0  0  0  0  0  0
    4.5863   -0.2447   -0.8510 F   0  0  0  0  0  0  0  0  0  0  0  0
    4.8298    1.8383    0.1058 F   0  0  0  0  0  0  0  0  0  0  0  0
    5.0460   -0.0558    1.4035 F   0  0  0  0  0  0  0  0  0  0  0  0
   -3.5603    1.3320    0.4536 O   0  0  0  0  0  0  0  0  0  0  0  0
   -4.2859    0.9324    1.6114 C   0  0  0  0  0  0  0  0  0  0  0  0
   -5.3321    1.1547    1.3982 H   0  0  0  0  0  0  0  0  0  0  0  0
   -3.9690    1.4955    2.4971 H   0  0  0  0  0  0  0  0  0  0  0  0
   -4.1745   -0.1415    1.8031 H   0  0  0  0  0  0  0  0  0  0  0  0
  1  7  1  0  0  0  0
  2  1  1  0  0  0  0
  2  8  1  0  0  0  0
  3  2  2  0  0  0  0
  4  5  2  0  0  0  0
  4  3  1  0  0  0  0
  5  6  1  0  0  0  0
  6 18  1  0  0  0  0
  6  1  2  0  0  0  0
  9  4  1  0  0  0  0
 10  5  1  0  0  0  0
 11  3  1  0  0  0  0
 11 12  1  0  0  0  0
 12 14  1  0  0  0  0
 13 12  1  0  0  0  0
 13 17  1  0  0  0  0
 15 13  1  0  0  0  0
 16 13  1  0  0  0  0
 18 19  1  0  0  0  0
 19 22  1  0  0  0  0
 19 21  1  0  0  0  0
 20 19  1  0  0  0  0
M  RAD  1  11   2
M  END
