Coordinates from ORCA-job p-CH3O-Ph-N2-X-BF4-B3LYPG-6-31G_dp-scan-d09-49-n400
 OpenBabel08281821133D

 22 22  0  0  0  0  0  0  0  0999 V2000
   -1.4641    0.7359    1.5286 C   0  0  0  0  0  0  0  0  0  0  0  0
   -0.0839    0.6306    1.4249 C   0  0  0  0  0  0  0  0  0  0  0  0
    0.5561    0.9096    0.1969 C   0  0  0  0  0  0  0  0  0  0  0  0
   -0.2310    1.2932   -0.9136 C   0  0  0  0  0  0  0  0  0  0  0  0
   -1.6024    1.3999   -0.8110 C   0  0  0  0  0  0  0  0  0  0  0  0
   -2.2344    1.1214    0.4159 C   0  0  0  0  0  0  0  0  0  0  0  0
   -1.9351    0.5155    2.4785 H   0  0  0  0  0  0  0  0  0  0  0  0
    0.4860    0.3329    2.2914 H   0  0  0  0  0  0  0  0  0  0  0  0
    0.2763    1.5031   -1.8489 H   0  0  0  0  0  0  0  0  0  0  0  0
   -2.2144    1.6950   -1.6558 H   0  0  0  0  0  0  0  0  0  0  0  0
    1.9190    0.8605   -0.0975 N   0  0  0  0  0  0  0  0  0  0  0  0
    2.8519    0.5775    0.6411 N   0  0  0  0  0  0  0  0  0  0  0  0
    4.6234    0.5525    0.2688 B   0  0  0  0  0  0  0  0  0  0  0  0
    2.5909    0.2658    1.9086 F   0  0  0  0  0  0  0  0  0  0  0  0
    4.6172    0.7991   -1.0608 F   0  0  0  0  0  0  0  0  0  0  0  0
    5.0693    1.5519    1.0704 F   0  0  0  0  0  0  0  0  0  0  0  0
    4.9516   -0.7053    0.6537 F   0  0  0  0  0  0  0  0  0  0  0  0
   -3.5761    1.2511    0.4244 O   0  0  0  0  0  0  0  0  0  0  0  0
   -4.2932    0.9875    1.6293 C   0  0  0  0  0  0  0  0  0  0  0  0
   -5.3434    1.1565    1.3905 H   0  0  0  0  0  0  0  0  0  0  0  0
   -3.9880    1.6692    2.4312 H   0  0  0  0  0  0  0  0  0  0  0  0
   -4.1561   -0.0500    1.9549 H   0  0  0  0  0  0  0  0  0  0  0  0
  1  7  1  0  0  0  0
  2  1  1  0  0  0  0
  2  8  1  0  0  0  0
  3  2  2  0  0  0  0
  4  5  2  0  0  0  0
  4  3  1  0  0  0  0
  5  6  1  0  0  0  0
  6 18  1  0  0  0  0
  6  1  2  0  0  0  0
  9  4  1  0  0  0  0
 10  5  1  0  0  0  0
 11  3  1  0  0  0  0
 11 12  1  0  0  0  0
 12 14  1  0  0  0  0
 13 12  1  0  0  0  0
 13 17  1  0  0  0  0
 13 16  1  0  0  0  0
 15 13  1  0  0  0  0
 18 19  1  0  0  0  0
 19 22  1  0  0  0  0
 19 21  1  0  0  0  0
 20 19  1  0  0  0  0
M  RAD  1  11   2
M  END
