Coordinates from ORCA-job p-CH3O-Ph-N2-X-BF4-B3LYPG-6-31G_dp-scan-d09-49-n400
 OpenBabel08281821133D

 22 21  0  0  0  0  0  0  0  0999 V2000
   -0.9615    0.6740    1.2608 C   0  0  0  0  0  0  0  0  0  0  0  0
    0.2885    0.4929    0.6932 C   0  0  0  0  0  0  0  0  0  0  0  0
    0.4459    0.8513   -0.6583 C   0  0  0  0  0  0  0  0  0  0  0  0
   -0.6047    1.3823   -1.4454 C   0  0  0  0  0  0  0  0  0  0  0  0
   -1.8320    1.5606   -0.8540 C   0  0  0  0  0  0  0  0  0  0  0  0
   -2.0226    1.2108    0.5063 C   0  0  0  0  0  0  0  0  0  0  0  0
   -1.0992    0.4031    2.2996 H   0  0  0  0  0  0  0  0  0  0  0  0
    1.1335    0.0891    1.2574 H   0  0  0  0  0  0  0  0  0  0  0  0
   -0.4370    1.6460   -2.4837 H   0  0  0  0  0  0  0  0  0  0  0  0
   -2.6696    1.9697   -1.4068 H   0  0  0  0  0  0  0  0  0  0  0  0
    1.6511    0.6654   -1.2846 N   0  0  0  0  0  0  0  0  0  0  0  0
    2.5572    0.5063   -1.9152 N   0  0  0  0  0  0  0  0  0  0  0  0
    3.6634    0.3723    1.4080 B   0  0  0  0  0  0  0  0  0  0  0  0
    4.4678   -0.2959    0.4912 F   0  0  0  0  0  0  0  0  0  0  0  0
    2.9237    1.3928    0.7057 F   0  0  0  0  0  0  0  0  0  0  0  0
    2.6845   -0.5389    1.9221 F   0  0  0  0  0  0  0  0  0  0  0  0
    4.3755    0.9437    2.4370 F   0  0  0  0  0  0  0  0  0  0  0  0
   -3.2546    1.4303    0.9789 O   0  0  0  0  0  0  0  0  0  0  0  0
   -3.5511    1.1260    2.3486 C   0  0  0  0  0  0  0  0  0  0  0  0
   -4.5958    1.4010    2.4868 H   0  0  0  0  0  0  0  0  0  0  0  0
   -2.9223    1.7132    3.0246 H   0  0  0  0  0  0  0  0  0  0  0  0
   -3.4206    0.0576    2.5491 H   0  0  0  0  0  0  0  0  0  0  0  0
  1  7  1  0  0  0  0
  2  8  1  0  0  0  0
  2  1  1  0  0  0  0
  3  2  2  0  0  0  0
  4  5  2  0  0  0  0
  4  3  1  0  0  0  0
  5  6  1  0  0  0  0
  6 18  1  0  0  0  0
  6  1  2  0  0  0  0
  9  4  1  0  0  0  0
 10  5  1  0  0  0  0
 11  3  1  0  0  0  0
 12 11  1  0  0  0  0
 13 16  1  0  0  0  0
 13 17  1  0  0  0  0
 14 13  1  0  0  0  0
 15 13  1  0  0  0  0
 18 19  1  0  0  0  0
 19 20  1  0  0  0  0
 19 22  1  0  0  0  0
 19 21  1  0  0  0  0
M  RAD  2  11   2  12   3
M  END
