Coordinates from ORCA-job p-CH3O-Ph-N2-X-BF4-B3LYPG-6-31G_dp-scan-d09-49-n400
 OpenBabel08281821133D

 22 21  0  0  0  0  0  0  0  0999 V2000
   -0.9959    0.6760    1.3029 C   0  0  0  0  0  0  0  0  0  0  0  0
    0.2688    0.4825    0.7722 C   0  0  0  0  0  0  0  0  0  0  0  0
    0.4700    0.8225   -0.5783 C   0  0  0  0  0  0  0  0  0  0  0  0
   -0.5539    1.3462   -1.3999 C   0  0  0  0  0  0  0  0  0  0  0  0
   -1.7989    1.5374   -0.8476 C   0  0  0  0  0  0  0  0  0  0  0  0
   -2.0317    1.2059    0.5093 C   0  0  0  0  0  0  0  0  0  0  0  0
   -1.1668    0.4185    2.3401 H   0  0  0  0  0  0  0  0  0  0  0  0
    1.0964    0.0808    1.3572 H   0  0  0  0  0  0  0  0  0  0  0  0
   -0.3542    1.5957   -2.4360 H   0  0  0  0  0  0  0  0  0  0  0  0
   -2.6183    1.9417   -1.4304 H   0  0  0  0  0  0  0  0  0  0  0  0
    1.7006    0.6221   -1.1499 N   0  0  0  0  0  0  0  0  0  0  0  0
    2.6845    0.4380   -1.6462 N   0  0  0  0  0  0  0  0  0  0  0  0
    3.6676    0.4206    1.2946 B   0  0  0  0  0  0  0  0  0  0  0  0
    4.2017   -0.0958    0.0859 F   0  0  0  0  0  0  0  0  0  0  0  0
    2.8694    1.5520    0.9531 F   0  0  0  0  0  0  0  0  0  0  0  0
    2.7863   -0.5569    1.8395 F   0  0  0  0  0  0  0  0  0  0  0  0
    4.6544    0.7569    2.1839 F   0  0  0  0  0  0  0  0  0  0  0  0
   -3.2786    1.4334    0.9426 O   0  0  0  0  0  0  0  0  0  0  0  0
   -3.6161    1.1431    2.3045 C   0  0  0  0  0  0  0  0  0  0  0  0
   -4.6644    1.4199    2.4093 H   0  0  0  0  0  0  0  0  0  0  0  0
   -3.0078    1.7361    2.9944 H   0  0  0  0  0  0  0  0  0  0  0  0
   -3.4931    0.0766    2.5204 H   0  0  0  0  0  0  0  0  0  0  0  0
  1  7  1  0  0  0  0
  2  1  1  0  0  0  0
  2  8  1  0  0  0  0
  3  2  2  0  0  0  0
  4  5  2  0  0  0  0
  4  3  1  0  0  0  0
  5  6  1  0  0  0  0
  6 18  1  0  0  0  0
  6  1  2  0  0  0  0
  9  4  1  0  0  0  0
 10  5  1  0  0  0  0
 11  3  1  0  0  0  0
 12 11  1  0  0  0  0
 13 16  1  0  0  0  0
 13 17  1  0  0  0  0
 14 13  1  0  0  0  0
 15 13  1  0  0  0  0
 18 19  1  0  0  0  0
 19 20  1  0  0  0  0
 19 22  1  0  0  0  0
 19 21  1  0  0  0  0
M  RAD  2  11   2  12   3
M  END
