Coordinates from ORCA-job p-CH3O-Ph-N2-X-BF4-B3LYPG-6-31G_dp-scan-d09-49-n400
 OpenBabel08281821133D

 22 21  0  0  0  0  0  0  0  0999 V2000
   -0.9286    0.6613    1.2069 C   0  0  0  0  0  0  0  0  0  0  0  0
    0.2990    0.4826    0.5922 C   0  0  0  0  0  0  0  0  0  0  0  0
    0.4103    0.8665   -0.7574 C   0  0  0  0  0  0  0  0  0  0  0  0
   -0.6653    1.4164   -1.4983 C   0  0  0  0  0  0  0  0  0  0  0  0
   -1.8691    1.5898   -0.8602 C   0  0  0  0  0  0  0  0  0  0  0  0
   -2.0125    1.2181    0.5008 C   0  0  0  0  0  0  0  0  0  0  0  0
   -1.0282    0.3730    2.2454 H   0  0  0  0  0  0  0  0  0  0  0  0
    1.1570    0.0611    1.1260 H   0  0  0  0  0  0  0  0  0  0  0  0
   -0.5331    1.6981   -2.5369 H   0  0  0  0  0  0  0  0  0  0  0  0
   -2.7238    2.0130   -1.3749 H   0  0  0  0  0  0  0  0  0  0  0  0
    1.5944    0.6960   -1.4225 N   0  0  0  0  0  0  0  0  0  0  0  0
    2.4990    0.5666   -2.0619 N   0  0  0  0  0  0  0  0  0  0  0  0
    3.6370    0.3447    1.5263 B   0  0  0  0  0  0  0  0  0  0  0  0
    4.6576   -0.3897    0.9504 F   0  0  0  0  0  0  0  0  0  0  0  0
    3.0336    1.1823    0.5143 F   0  0  0  0  0  0  0  0  0  0  0  0
    2.5977   -0.5419    1.9664 F   0  0  0  0  0  0  0  0  0  0  0  0
    4.0566    1.1345    2.5761 F   0  0  0  0  0  0  0  0  0  0  0  0
   -3.2241    1.4375    1.0210 O   0  0  0  0  0  0  0  0  0  0  0  0
   -3.4722    1.1155    2.3969 C   0  0  0  0  0  0  0  0  0  0  0  0
   -4.5090    1.3958    2.5772 H   0  0  0  0  0  0  0  0  0  0  0  0
   -2.8142    1.6887    3.0568 H   0  0  0  0  0  0  0  0  0  0  0  0
   -3.3421    0.0435    2.5769 H   0  0  0  0  0  0  0  0  0  0  0  0
  1  7  1  0  0  0  0
  2  8  1  0  0  0  0
  2  1  1  0  0  0  0
  3  2  2  0  0  0  0
  4  5  2  0  0  0  0
  4  3  1  0  0  0  0
  5  6  1  0  0  0  0
  6 18  1  0  0  0  0
  6  1  2  0  0  0  0
  9  4  1  0  0  0  0
 10  5  1  0  0  0  0
 11  3  1  0  0  0  0
 12 11  1  0  0  0  0
 13 16  1  0  0  0  0
 13 17  1  0  0  0  0
 14 13  1  0  0  0  0
 15 13  1  0  0  0  0
 18 19  1  0  0  0  0
 19 22  1  0  0  0  0
 19 20  1  0  0  0  0
 19 21  1  0  0  0  0
M  RAD  2  11   2  12   3
M  END
