Coordinates from ORCA-job p-CH3O-Ph-N2-X-BF4-B3LYPG-6-31G_dp-scan-d09-49-n400
 OpenBabel08281821133D

 22 21  0  0  0  0  0  0  0  0999 V2000
   -0.9149    0.6668    1.1881 C   0  0  0  0  0  0  0  0  0  0  0  0
    0.3058    0.4969    0.5574 C   0  0  0  0  0  0  0  0  0  0  0  0
    0.3982    0.8861   -0.7923 C   0  0  0  0  0  0  0  0  0  0  0  0
   -0.6901    1.4316   -1.5182 C   0  0  0  0  0  0  0  0  0  0  0  0
   -1.8867    1.5954   -0.8645 C   0  0  0  0  0  0  0  0  0  0  0  0
   -2.0108    1.2191    0.4974 C   0  0  0  0  0  0  0  0  0  0  0  0
   -0.9981    0.3747    2.2270 H   0  0  0  0  0  0  0  0  0  0  0  0
    1.1701    0.0775    1.0830 H   0  0  0  0  0  0  0  0  0  0  0  0
   -0.5727    1.7172   -2.5575 H   0  0  0  0  0  0  0  0  0  0  0  0
   -2.7505    2.0147   -1.3670 H   0  0  0  0  0  0  0  0  0  0  0  0
    1.5775    0.7279   -1.4676 N   0  0  0  0  0  0  0  0  0  0  0  0
    2.4906    0.6098   -2.0971 N   0  0  0  0  0  0  0  0  0  0  0  0
    3.6260    0.3231    1.5672 B   0  0  0  0  0  0  0  0  0  0  0  0
    4.6791   -0.4602    1.1357 F   0  0  0  0  0  0  0  0  0  0  0  0
    3.0985    1.0641    0.4437 F   0  0  0  0  0  0  0  0  0  0  0  0
    2.5512   -0.5180    2.0129 F   0  0  0  0  0  0  0  0  0  0  0  0
    3.9749    1.2058    2.5684 F   0  0  0  0  0  0  0  0  0  0  0  0
   -3.2167    1.4300    1.0336 O   0  0  0  0  0  0  0  0  0  0  0  0
   -3.4445    1.1033    2.4122 C   0  0  0  0  0  0  0  0  0  0  0  0
   -4.4806    1.3766    2.6068 H   0  0  0  0  0  0  0  0  0  0  0  0
   -2.7813    1.6792    3.0644 H   0  0  0  0  0  0  0  0  0  0  0  0
   -3.3052    0.0318    2.5878 H   0  0  0  0  0  0  0  0  0  0  0  0
  1  7  1  0  0  0  0
  2  8  1  0  0  0  0
  2  1  1  0  0  0  0
  3  2  2  0  0  0  0
  4  5  2  0  0  0  0
  4  3  1  0  0  0  0
  5  6  1  0  0  0  0
  6 18  1  0  0  0  0
  6  1  2  0  0  0  0
  9  4  1  0  0  0  0
 10  5  1  0  0  0  0
 11  3  1  0  0  0  0
 12 11  1  0  0  0  0
 13 16  1  0  0  0  0
 13 17  1  0  0  0  0
 14 13  1  0  0  0  0
 15 13  1  0  0  0  0
 18 19  1  0  0  0  0
 19 22  1  0  0  0  0
 19 20  1  0  0  0  0
 19 21  1  0  0  0  0
M  RAD  2  11   2  12   3
M  END
