Coordinates from ORCA-job p-CH3O-Ph-N2-X-BF4-B3LYPG-6-31G_dp-scan-d09-49-n400
 OpenBabel08281821133D

 22 21  0  0  0  0  0  0  0  0999 V2000
   -0.9386    0.6680    1.2230 C   0  0  0  0  0  0  0  0  0  0  0  0
    0.2964    0.4908    0.6226 C   0  0  0  0  0  0  0  0  0  0  0  0
    0.4206    0.8654   -0.7283 C   0  0  0  0  0  0  0  0  0  0  0  0
   -0.6492    1.4063   -1.4838 C   0  0  0  0  0  0  0  0  0  0  0  0
   -1.8603    1.5796   -0.8596 C   0  0  0  0  0  0  0  0  0  0  0  0
   -2.0171    1.2156    0.5018 C   0  0  0  0  0  0  0  0  0  0  0  0
   -1.0489    0.3858    2.2621 H   0  0  0  0  0  0  0  0  0  0  0  0
    1.1515    0.0772    1.1664 H   0  0  0  0  0  0  0  0  0  0  0  0
   -0.5071    1.6816   -2.5229 H   0  0  0  0  0  0  0  0  0  0  0  0
   -2.7110    1.9964   -1.3863 H   0  0  0  0  0  0  0  0  0  0  0  0
    1.6107    0.6911   -1.3830 N   0  0  0  0  0  0  0  0  0  0  0  0
    2.5130    0.5559   -2.0245 N   0  0  0  0  0  0  0  0  0  0  0  0
    3.6493    0.3490    1.4938 B   0  0  0  0  0  0  0  0  0  0  0  0
    4.6045   -0.3851    0.8109 F   0  0  0  0  0  0  0  0  0  0  0  0
    3.0031    1.2486    0.5654 F   0  0  0  0  0  0  0  0  0  0  0  0
    2.6193   -0.5314    1.9646 F   0  0  0  0  0  0  0  0  0  0  0  0
    4.1676    1.0748    2.5440 F   0  0  0  0  0  0  0  0  0  0  0  0
   -3.2354    1.4329    1.0076 O   0  0  0  0  0  0  0  0  0  0  0  0
   -3.4973    1.1164    2.3822 C   0  0  0  0  0  0  0  0  0  0  0  0
   -4.5373    1.3930    2.5497 H   0  0  0  0  0  0  0  0  0  0  0  0
   -2.8492    1.6956    3.0467 H   0  0  0  0  0  0  0  0  0  0  0  0
   -3.3647    0.0459    2.5688 H   0  0  0  0  0  0  0  0  0  0  0  0
  1  7  1  0  0  0  0
  2  8  1  0  0  0  0
  2  1  1  0  0  0  0
  3  2  2  0  0  0  0
  4  5  2  0  0  0  0
  4  3  1  0  0  0  0
  5  6  1  0  0  0  0
  6 18  1  0  0  0  0
  6  1  2  0  0  0  0
  9  4  1  0  0  0  0
 10  5  1  0  0  0  0
 11  3  1  0  0  0  0
 12 11  1  0  0  0  0
 13 16  1  0  0  0  0
 13 17  1  0  0  0  0
 14 13  1  0  0  0  0
 15 13  1  0  0  0  0
 18 19  1  0  0  0  0
 19 20  1  0  0  0  0
 19 22  1  0  0  0  0
 19 21  1  0  0  0  0
M  RAD  2  11   2  12   3
M  END
