Coordinates from ORCA-job p-CH3O-Ph-N2-X-BF4-B3LYPG-6-31G_dp-scan-d09-49-n400
 OpenBabel08281821133D

 22 21  0  0  0  0  0  0  0  0999 V2000
   -0.9541    0.6736    1.2499 C   0  0  0  0  0  0  0  0  0  0  0  0
    0.2917    0.4935    0.6725 C   0  0  0  0  0  0  0  0  0  0  0  0
    0.4383    0.8556   -0.6793 C   0  0  0  0  0  0  0  0  0  0  0  0
   -0.6192    1.3873   -1.4575 C   0  0  0  0  0  0  0  0  0  0  0  0
   -1.8419    1.5631   -0.8565 C   0  0  0  0  0  0  0  0  0  0  0  0
   -2.0214    1.2113    0.5049 C   0  0  0  0  0  0  0  0  0  0  0  0
   -1.0832    0.4006    2.2893 H   0  0  0  0  0  0  0  0  0  0  0  0
    1.1396    0.0881    1.2317 H   0  0  0  0  0  0  0  0  0  0  0  0
   -0.4594    1.6538   -2.4962 H   0  0  0  0  0  0  0  0  0  0  0  0
   -2.6841    1.9727   -1.4020 H   0  0  0  0  0  0  0  0  0  0  0  0
    1.6391    0.6791   -1.3158 N   0  0  0  0  0  0  0  0  0  0  0  0
    2.5386    0.5325   -1.9588 N   0  0  0  0  0  0  0  0  0  0  0  0
    3.6613    0.3611    1.4349 B   0  0  0  0  0  0  0  0  0  0  0  0
    4.5256   -0.3253    0.5931 F   0  0  0  0  0  0  0  0  0  0  0  0
    2.9447    1.3457    0.6582 F   0  0  0  0  0  0  0  0  0  0  0  0
    2.6666   -0.5452    1.9286 F   0  0  0  0  0  0  0  0  0  0  0  0
    4.3038    0.9826    2.4822 F   0  0  0  0  0  0  0  0  0  0  0  0
   -3.2494    1.4298    0.9875 O   0  0  0  0  0  0  0  0  0  0  0  0
   -3.5349    1.1250    2.3596 C   0  0  0  0  0  0  0  0  0  0  0  0
   -4.5784    1.4003    2.5062 H   0  0  0  0  0  0  0  0  0  0  0  0
   -2.9004    1.7118    3.0305 H   0  0  0  0  0  0  0  0  0  0  0  0
   -3.4031    0.0565    2.5585 H   0  0  0  0  0  0  0  0  0  0  0  0
  1  7  1  0  0  0  0
  2  8  1  0  0  0  0
  2  1  1  0  0  0  0
  3  2  2  0  0  0  0
  4  5  2  0  0  0  0
  4  3  1  0  0  0  0
  5  6  1  0  0  0  0
  6 18  1  0  0  0  0
  6  1  2  0  0  0  0
  9  4  1  0  0  0  0
 10  5  1  0  0  0  0
 11  3  1  0  0  0  0
 12 11  1  0  0  0  0
 13 16  1  0  0  0  0
 13 17  1  0  0  0  0
 14 13  1  0  0  0  0
 15 13  1  0  0  0  0
 18 19  1  0  0  0  0
 19 20  1  0  0  0  0
 19 22  1  0  0  0  0
 19 21  1  0  0  0  0
M  RAD  2  11   2  12   3
M  END
