Coordinates from ORCA-job p-CH3O-Ph-N2-X-BF4-B3LYPG-6-31G_dp-scan-d09-49-n400
 OpenBabel08281821133D

 22 21  0  0  0  0  0  0  0  0999 V2000
   -0.9746    0.6739    1.2800 C   0  0  0  0  0  0  0  0  0  0  0  0
    0.2818    0.4855    0.7288 C   0  0  0  0  0  0  0  0  0  0  0  0
    0.4580    0.8369   -0.6223 C   0  0  0  0  0  0  0  0  0  0  0  0
   -0.5797    1.3695   -1.4239 C   0  0  0  0  0  0  0  0  0  0  0  0
   -1.8143    1.5551   -0.8491 C   0  0  0  0  0  0  0  0  0  0  0  0
   -2.0241    1.2107    0.5092 C   0  0  0  0  0  0  0  0  0  0  0  0
   -1.1273    0.4081    2.3180 H   0  0  0  0  0  0  0  0  0  0  0  0
    1.1188    0.0827    1.3036 H   0  0  0  0  0  0  0  0  0  0  0  0
   -0.3975    1.6288   -2.4608 H   0  0  0  0  0  0  0  0  0  0  0  0
   -2.6430    1.9654   -1.4144 H   0  0  0  0  0  0  0  0  0  0  0  0
    1.6717    0.6414   -1.2294 N   0  0  0  0  0  0  0  0  0  0  0  0
    2.5957    0.4675   -1.8295 N   0  0  0  0  0  0  0  0  0  0  0  0
    3.6647    0.3947    1.3586 B   0  0  0  0  0  0  0  0  0  0  0  0
    4.3726   -0.2219    0.3228 F   0  0  0  0  0  0  0  0  0  0  0  0
    2.8857    1.4626    0.7918 F   0  0  0  0  0  0  0  0  0  0  0  0
    2.7233   -0.5419    1.8923 F   0  0  0  0  0  0  0  0  0  0  0  0
    4.4840    0.8800    2.3491 F   0  0  0  0  0  0  0  0  0  0  0  0
   -3.2621    1.4346    0.9649 O   0  0  0  0  0  0  0  0  0  0  0  0
   -3.5783    1.1313    2.3301 C   0  0  0  0  0  0  0  0  0  0  0  0
   -4.6245    1.4078    2.4536 H   0  0  0  0  0  0  0  0  0  0  0  0
   -2.9585    1.7177    3.0151 H   0  0  0  0  0  0  0  0  0  0  0  0
   -3.4523    0.0628    2.5330 H   0  0  0  0  0  0  0  0  0  0  0  0
  1  7  1  0  0  0  0
  2  1  1  0  0  0  0
  2  8  1  0  0  0  0
  3  2  2  0  0  0  0
  4  5  2  0  0  0  0
  4  3  1  0  0  0  0
  5  6  1  0  0  0  0
  6 18  1  0  0  0  0
  6  1  2  0  0  0  0
  9  4  1  0  0  0  0
 10  5  1  0  0  0  0
 11  3  1  0  0  0  0
 12 11  1  0  0  0  0
 13 16  1  0  0  0  0
 13 17  1  0  0  0  0
 14 13  1  0  0  0  0
 15 13  1  0  0  0  0
 18 19  1  0  0  0  0
 19 20  1  0  0  0  0
 19 22  1  0  0  0  0
 19 21  1  0  0  0  0
M  RAD  2  11   2  12   3
M  END
