Coordinates from ORCA-job p-CH3O-Ph-N2-X-BF4-B3LYPG-6-31G_dp-scan-d09-49-n400
 OpenBabel08281821133D

 22 21  0  0  0  0  0  0  0  0999 V2000
   -0.8795    0.6111    1.1430 C   0  0  0  0  0  0  0  0  0  0  0  0
    0.3175    0.4254    0.4728 C   0  0  0  0  0  0  0  0  0  0  0  0
    0.3933    0.8756   -0.8588 C   0  0  0  0  0  0  0  0  0  0  0  0
   -0.6912    1.4968   -1.5285 C   0  0  0  0  0  0  0  0  0  0  0  0
   -1.8643    1.6731   -0.8370 C   0  0  0  0  0  0  0  0  0  0  0  0
   -1.9698    1.2365    0.5088 C   0  0  0  0  0  0  0  0  0  0  0  0
   -0.9428    0.2769    2.1704 H   0  0  0  0  0  0  0  0  0  0  0  0
    1.1722   -0.0439    0.9684 H   0  0  0  0  0  0  0  0  0  0  0  0
   -0.5881    1.8288   -2.5554 H   0  0  0  0  0  0  0  0  0  0  0  0
   -2.7230    2.1489   -1.2961 H   0  0  0  0  0  0  0  0  0  0  0  0
    1.5485    0.7101   -1.5717 N   0  0  0  0  0  0  0  0  0  0  0  0
    2.4448    0.5936   -2.2258 N   0  0  0  0  0  0  0  0  0  0  0  0
    3.5167    0.3426    1.6298 B   0  0  0  0  0  0  0  0  0  0  0  0
    4.7279   -0.3125    1.6506 F   0  0  0  0  0  0  0  0  0  0  0  0
    3.1711    0.6658    0.2633 F   0  0  0  0  0  0  0  0  0  0  0  0
    2.4752   -0.5289    2.0903 F   0  0  0  0  0  0  0  0  0  0  0  0
    3.5080    1.5075    2.3778 F   0  0  0  0  0  0  0  0  0  0  0  0
   -3.1525    1.4670    1.0861 O   0  0  0  0  0  0  0  0  0  0  0  0
   -3.3572    1.0850    2.4543 C   0  0  0  0  0  0  0  0  0  0  0  0
   -4.3767    1.3874    2.6893 H   0  0  0  0  0  0  0  0  0  0  0  0
   -2.6555    1.6047    3.1133 H   0  0  0  0  0  0  0  0  0  0  0  0
   -3.2547    0.0020    2.5767 H   0  0  0  0  0  0  0  0  0  0  0  0
  1  7  1  0  0  0  0
  2  8  1  0  0  0  0
  2  1  2  0  0  0  0
  3  2  1  0  0  0  0
  4  3  2  0  0  0  0
  4  5  1  0  0  0  0
  5  6  2  0  0  0  0
  6 18  1  0  0  0  0
  6  1  1  0  0  0  0
  9  4  1  0  0  0  0
 10  5  1  0  0  0  0
 11  3  1  0  0  0  0
 12 11  1  0  0  0  0
 13 14  1  0  0  0  0
 13 16  1  0  0  0  0
 13 17  1  0  0  0  0
 15 13  1  0  0  0  0
 18 19  1  0  0  0  0
 19 22  1  0  0  0  0
 19 20  1  0  0  0  0
 19 21  1  0  0  0  0
M  RAD  2  11   2  12   3
M  END
