Coordinates from ORCA-job p-CH3O-Ph-N2-X-BF4-B3LYPG-6-31G_dp-scan-d09-49-n400
 OpenBabel08281821133D

 22 21  0  0  0  0  0  0  0  0999 V2000
   -0.9096    0.6580    1.1790 C   0  0  0  0  0  0  0  0  0  0  0  0
    0.3066    0.4856    0.5405 C   0  0  0  0  0  0  0  0  0  0  0  0
    0.3941    0.8839   -0.8069 C   0  0  0  0  0  0  0  0  0  0  0  0
   -0.6946    1.4412   -1.5230 C   0  0  0  0  0  0  0  0  0  0  0  0
   -1.8865    1.6077   -0.8616 C   0  0  0  0  0  0  0  0  0  0  0  0
   -2.0057    1.2222    0.4984 C   0  0  0  0  0  0  0  0  0  0  0  0
   -0.9882    0.3596    2.2165 H   0  0  0  0  0  0  0  0  0  0  0  0
    1.1711    0.0589    1.0599 H   0  0  0  0  0  0  0  0  0  0  0  0
   -0.5811    1.7338   -2.5608 H   0  0  0  0  0  0  0  0  0  0  0  0
   -2.7504    2.0363   -1.3561 H   0  0  0  0  0  0  0  0  0  0  0  0
    1.5696    0.7227   -1.4876 N   0  0  0  0  0  0  0  0  0  0  0  0
    2.4850    0.6027   -2.1135 N   0  0  0  0  0  0  0  0  0  0  0  0
    3.6123    0.3261    1.5812 B   0  0  0  0  0  0  0  0  0  0  0  0
    4.7028   -0.4409    1.2206 F   0  0  0  0  0  0  0  0  0  0  0  0
    3.1120    1.0129    0.4119 F   0  0  0  0  0  0  0  0  0  0  0  0
    2.5418   -0.5274    2.0137 F   0  0  0  0  0  0  0  0  0  0  0  0
    3.8942    1.2537    2.5636 F   0  0  0  0  0  0  0  0  0  0  0  0
   -3.2072    1.4368    1.0427 O   0  0  0  0  0  0  0  0  0  0  0  0
   -3.4293    1.1019    2.4203 C   0  0  0  0  0  0  0  0  0  0  0  0
   -4.4624    1.3806    2.6227 H   0  0  0  0  0  0  0  0  0  0  0  0
   -2.7586    1.6688    3.0726 H   0  0  0  0  0  0  0  0  0  0  0  0
   -3.2960    0.0282    2.5874 H   0  0  0  0  0  0  0  0  0  0  0  0
  1  7  1  0  0  0  0
  2  8  1  0  0  0  0
  2  1  1  0  0  0  0
  3  2  2  0  0  0  0
  4  5  2  0  0  0  0
  4  3  1  0  0  0  0
  5  6  1  0  0  0  0
  6 18  1  0  0  0  0
  6  1  2  0  0  0  0
  9  4  1  0  0  0  0
 10  5  1  0  0  0  0
 11  3  1  0  0  0  0
 12 11  1  0  0  0  0
 13 16  1  0  0  0  0
 13 17  1  0  0  0  0
 14 13  1  0  0  0  0
 15 13  1  0  0  0  0
 18 19  1  0  0  0  0
 19 22  1  0  0  0  0
 19 20  1  0  0  0  0
 19 21  1  0  0  0  0
M  RAD  2  11   2  12   3
M  END
