Coordinates from ORCA-job p-CH3O-Ph-N2-X-BF4-B3LYPG-6-31G_dp-scan-d09-49-n400
 OpenBabel08281821133D

 22 21  0  0  0  0  0  0  0  0999 V2000
   -0.9876    0.6710    1.2948 C   0  0  0  0  0  0  0  0  0  0  0  0
    0.2733    0.4765    0.7562 C   0  0  0  0  0  0  0  0  0  0  0  0
    0.4656    0.8228   -0.5941 C   0  0  0  0  0  0  0  0  0  0  0  0
   -0.5617    1.3544   -1.4078 C   0  0  0  0  0  0  0  0  0  0  0  0
   -1.8019    1.5464   -0.8464 C   0  0  0  0  0  0  0  0  0  0  0  0
   -2.0269    1.2083    0.5107 C   0  0  0  0  0  0  0  0  0  0  0  0
   -1.1525    0.4093    2.3319 H   0  0  0  0  0  0  0  0  0  0  0  0
    1.1049    0.0719    1.3354 H   0  0  0  0  0  0  0  0  0  0  0  0
   -0.3679    1.6087   -2.4438 H   0  0  0  0  0  0  0  0  0  0  0  0
   -2.6237    1.9567   -1.4217 H   0  0  0  0  0  0  0  0  0  0  0  0
    1.6883    0.6198   -1.1803 N   0  0  0  0  0  0  0  0  0  0  0  0
    2.6428    0.4406   -1.7301 N   0  0  0  0  0  0  0  0  0  0  0  0
    3.6656    0.4150    1.3163 B   0  0  0  0  0  0  0  0  0  0  0  0
    4.2906   -0.1266    0.1781 F   0  0  0  0  0  0  0  0  0  0  0  0
    2.8605    1.5188    0.8868 F   0  0  0  0  0  0  0  0  0  0  0  0
    2.7636   -0.5602    1.8419 F   0  0  0  0  0  0  0  0  0  0  0  0
    4.5694    0.8150    2.2683 F   0  0  0  0  0  0  0  0  0  0  0  0
   -3.2696    1.4378    0.9527 O   0  0  0  0  0  0  0  0  0  0  0  0
   -3.6003    1.1418    2.3156 C   0  0  0  0  0  0  0  0  0  0  0  0
   -4.6469    1.4222    2.4276 H   0  0  0  0  0  0  0  0  0  0  0  0
   -2.9857    1.7293    3.0045 H   0  0  0  0  0  0  0  0  0  0  0  0
   -3.4801    0.0739    2.5249 H   0  0  0  0  0  0  0  0  0  0  0  0
  1  7  1  0  0  0  0
  2  1  1  0  0  0  0
  2  8  1  0  0  0  0
  3  2  2  0  0  0  0
  4  5  2  0  0  0  0
  4  3  1  0  0  0  0
  5  6  1  0  0  0  0
  6 18  1  0  0  0  0
  6  1  2  0  0  0  0
  9  4  1  0  0  0  0
 10  5  1  0  0  0  0
 11  3  1  0  0  0  0
 12 11  1  0  0  0  0
 13 16  1  0  0  0  0
 13 17  1  0  0  0  0
 14 13  1  0  0  0  0
 15 13  1  0  0  0  0
 18 19  1  0  0  0  0
 19 20  1  0  0  0  0
 19 22  1  0  0  0  0
 19 21  1  0  0  0  0
M  RAD  2  11   2  12   3
M  END
