Coordinates from ORCA-job p-CH3O-Ph-N2-X-BF4-B3LYPG-6-31G_dp-scan-d09-49-n400
 OpenBabel08281821133D

 22 21  0  0  0  0  0  0  0  0999 V2000
   -0.9923    0.6623    1.2849 C   0  0  0  0  0  0  0  0  0  0  0  0
    0.2703    0.4697    0.7481 C   0  0  0  0  0  0  0  0  0  0  0  0
    0.4735    0.8248   -0.5985 C   0  0  0  0  0  0  0  0  0  0  0  0
   -0.5502    1.3642   -1.4073 C   0  0  0  0  0  0  0  0  0  0  0  0
   -1.7946    1.5552   -0.8515 C   0  0  0  0  0  0  0  0  0  0  0  0
   -2.0272    1.2065    0.5000 C   0  0  0  0  0  0  0  0  0  0  0  0
   -1.1617    0.3936    2.3195 H   0  0  0  0  0  0  0  0  0  0  0  0
    1.0898    0.0616    1.3382 H   0  0  0  0  0  0  0  0  0  0  0  0
   -0.3502    1.6263   -2.4402 H   0  0  0  0  0  0  0  0  0  0  0  0
   -2.6127    1.9717   -1.4276 H   0  0  0  0  0  0  0  0  0  0  0  0
    1.7062    0.6288   -1.1683 N   0  0  0  0  0  0  0  0  0  0  0  0
    2.7497    0.4249   -1.5278 N   0  0  0  0  0  0  0  0  0  0  0  0
    3.6351    0.4470    1.3182 B   0  0  0  0  0  0  0  0  0  0  0  0
    3.9164   -0.2149    0.0618 F   0  0  0  0  0  0  0  0  0  0  0  0
    2.8989    1.6102    0.9996 F   0  0  0  0  0  0  0  0  0  0  0  0
    2.7973   -0.4132    2.0650 F   0  0  0  0  0  0  0  0  0  0  0  0
    4.8000    0.7320    1.9751 F   0  0  0  0  0  0  0  0  0  0  0  0
   -3.2736    1.4329    0.9392 O   0  0  0  0  0  0  0  0  0  0  0  0
   -3.6095    1.1207    2.2960 C   0  0  0  0  0  0  0  0  0  0  0  0
   -4.6566    1.3995    2.4078 H   0  0  0  0  0  0  0  0  0  0  0  0
   -2.9982    1.6992    2.9955 H   0  0  0  0  0  0  0  0  0  0  0  0
   -3.4904    0.0502    2.4938 H   0  0  0  0  0  0  0  0  0  0  0  0
  1  7  1  0  0  0  0
  2  1  1  0  0  0  0
  2  8  1  0  0  0  0
  3  2  2  0  0  0  0
  4  5  2  0  0  0  0
  4  3  1  0  0  0  0
  5  6  1  0  0  0  0
  6 18  1  0  0  0  0
  6  1  2  0  0  0  0
  9  4  1  0  0  0  0
 10  5  1  0  0  0  0
 11  3  1  0  0  0  0
 12 11  1  0  0  0  0
 13 17  1  0  0  0  0
 13 16  1  0  0  0  0
 14 13  1  0  0  0  0
 15 13  1  0  0  0  0
 18 19  1  0  0  0  0
 19 20  1  0  0  0  0
 19 22  1  0  0  0  0
 19 21  1  0  0  0  0
M  RAD  2  11   2  12   3
M  END
