Coordinates from ORCA-job p-CH3O-Ph-N2-X-BF4-B3LYPG-6-31G_dp-scan-d09-49-n400
 OpenBabel08281821133D

 22 21  0  0  0  0  0  0  0  0999 V2000
   -0.9975    0.6768    1.3041 C   0  0  0  0  0  0  0  0  0  0  0  0
    0.2677    0.4830    0.7747 C   0  0  0  0  0  0  0  0  0  0  0  0
    0.4707    0.8218   -0.5758 C   0  0  0  0  0  0  0  0  0  0  0  0
   -0.5526    1.3445   -1.3986 C   0  0  0  0  0  0  0  0  0  0  0  0
   -1.7984    1.5360   -0.8477 C   0  0  0  0  0  0  0  0  0  0  0  0
   -2.0325    1.2057    0.5090 C   0  0  0  0  0  0  0  0  0  0  0  0
   -1.1694    0.4200    2.3414 H   0  0  0  0  0  0  0  0  0  0  0  0
    1.0943    0.0818    1.3610 H   0  0  0  0  0  0  0  0  0  0  0  0
   -0.3519    1.5931   -2.4347 H   0  0  0  0  0  0  0  0  0  0  0  0
   -2.6172    1.9397   -1.4318 H   0  0  0  0  0  0  0  0  0  0  0  0
    1.7024    0.6215   -1.1453 N   0  0  0  0  0  0  0  0  0  0  0  0
    2.6924    0.4370   -1.6302 N   0  0  0  0  0  0  0  0  0  0  0  0
    3.6677    0.4223    1.2911 B   0  0  0  0  0  0  0  0  0  0  0  0
    4.1864   -0.0883    0.0701 F   0  0  0  0  0  0  0  0  0  0  0  0
    2.8714    1.5577    0.9654 F   0  0  0  0  0  0  0  0  0  0  0  0
    2.7909   -0.5570    1.8377 F   0  0  0  0  0  0  0  0  0  0  0  0
    4.6683    0.7470    2.1687 F   0  0  0  0  0  0  0  0  0  0  0  0
   -3.2801    1.4333    0.9410 O   0  0  0  0  0  0  0  0  0  0  0  0
   -3.6187    1.1434    2.3027 C   0  0  0  0  0  0  0  0  0  0  0  0
   -4.6672    1.4200    2.4064 H   0  0  0  0  0  0  0  0  0  0  0  0
   -3.0113    1.7370    2.9929 H   0  0  0  0  0  0  0  0  0  0  0  0
   -3.4956    0.0772    2.5192 H   0  0  0  0  0  0  0  0  0  0  0  0
  1  7  1  0  0  0  0
  2  1  1  0  0  0  0
  2  8  1  0  0  0  0
  3  2  2  0  0  0  0
  4  5  2  0  0  0  0
  4  3  1  0  0  0  0
  5  6  1  0  0  0  0
  6 18  1  0  0  0  0
  6  1  2  0  0  0  0
  9  4  1  0  0  0  0
 10  5  1  0  0  0  0
 11  3  1  0  0  0  0
 12 11  1  0  0  0  0
 13 16  1  0  0  0  0
 13 17  1  0  0  0  0
 14 13  1  0  0  0  0
 15 13  1  0  0  0  0
 18 19  1  0  0  0  0
 19 20  1  0  0  0  0
 19 22  1  0  0  0  0
 19 21  1  0  0  0  0
M  RAD  2  11   2  12   3
M  END
