Coordinates from ORCA-job p-CH3O-Ph-N2-X-BF4-B3LYPG-6-31G_dp-scan-d09-49-n400
 OpenBabel08281821133D

 22 22  0  0  0  0  0  0  0  0999 V2000
   -1.4621    0.6278    1.4860 C   0  0  0  0  0  0  0  0  0  0  0  0
   -0.0778    0.5080    1.3699 C   0  0  0  0  0  0  0  0  0  0  0  0
    0.5858    0.9373    0.2017 C   0  0  0  0  0  0  0  0  0  0  0  0
   -0.1941    1.4830   -0.8412 C   0  0  0  0  0  0  0  0  0  0  0  0
   -1.5648    1.6106   -0.7284 C   0  0  0  0  0  0  0  0  0  0  0  0
   -2.2154    1.1835    0.4424 C   0  0  0  0  0  0  0  0  0  0  0  0
   -1.9402    0.2842    2.3951 H   0  0  0  0  0  0  0  0  0  0  0  0
    0.4468    0.0666    2.2077 H   0  0  0  0  0  0  0  0  0  0  0  0
    0.3216    1.8030   -1.7401 H   0  0  0  0  0  0  0  0  0  0  0  0
   -2.1611    2.0333   -1.5298 H   0  0  0  0  0  0  0  0  0  0  0  0
    1.9668    0.8943   -0.1184 N   0  0  0  0  0  0  0  0  0  0  0  0
    2.8210    0.5248    0.7536 N   0  0  0  0  0  0  0  0  0  0  0  0
    4.5397    0.5206    0.2754 B   0  0  0  0  0  0  0  0  0  0  0  0
    2.5987    0.2607    1.6388 F   0  0  0  0  0  0  0  0  0  0  0  0
    4.5971   -0.3028   -0.7987 F   0  0  0  0  0  0  0  0  0  0  0  0
    4.8317    1.8268    0.0543 F   0  0  0  0  0  0  0  0  0  0  0  0
    5.0306    0.0001    1.4493 F   0  0  0  0  0  0  0  0  0  0  0  0
   -3.5601    1.3481    0.4640 O   0  0  0  0  0  0  0  0  0  0  0  0
   -4.2822    0.9354    1.6189 C   0  0  0  0  0  0  0  0  0  0  0  0
   -5.3277    1.1706    1.4163 H   0  0  0  0  0  0  0  0  0  0  0  0
   -3.9550    1.4801    2.5125 H   0  0  0  0  0  0  0  0  0  0  0  0
   -4.1794   -0.1426    1.7921 H   0  0  0  0  0  0  0  0  0  0  0  0
  1  7  1  0  0  0  0
  2  1  1  0  0  0  0
  2  8  1  0  0  0  0
  3  2  2  0  0  0  0
  4  5  2  0  0  0  0
  4  3  1  0  0  0  0
  5  6  1  0  0  0  0
  6 18  1  0  0  0  0
  6  1  2  0  0  0  0
  9  4  1  0  0  0  0
 10  5  1  0  0  0  0
 11  3  1  0  0  0  0
 11 12  1  0  0  0  0
 12 14  1  0  0  0  0
 13 12  1  0  0  0  0
 13 17  1  0  0  0  0
 15 13  1  0  0  0  0
 16 13  1  0  0  0  0
 18 19  1  0  0  0  0
 19 22  1  0  0  0  0
 19 21  1  0  0  0  0
 20 19  1  0  0  0  0
M  RAD  1  11   2
M  END
