Coordinates from ORCA-job p-CH3O-Ph-N2-X-BF4-B3LYPG-6-31G_dp-scan-d09-49-n400
 OpenBabel08281821133D

 22 21  0  0  0  0  0  0  0  0999 V2000
   -0.9563    0.6732    1.2531 C   0  0  0  0  0  0  0  0  0  0  0  0
    0.2907    0.4924    0.6785 C   0  0  0  0  0  0  0  0  0  0  0  0
    0.4405    0.8536   -0.6731 C   0  0  0  0  0  0  0  0  0  0  0  0
   -0.6149    1.3852   -1.4540 C   0  0  0  0  0  0  0  0  0  0  0  0
   -1.8390    1.5618   -0.8558 C   0  0  0  0  0  0  0  0  0  0  0  0
   -2.0217    1.2108    0.5052 C   0  0  0  0  0  0  0  0  0  0  0  0
   -1.0880    0.4009    2.2923 H   0  0  0  0  0  0  0  0  0  0  0  0
    1.1376    0.0873    1.2392 H   0  0  0  0  0  0  0  0  0  0  0  0
   -0.4527    1.6511   -2.4925 H   0  0  0  0  0  0  0  0  0  0  0  0
   -2.6798    1.9714   -1.4035 H   0  0  0  0  0  0  0  0  0  0  0  0
    1.6429    0.6757   -1.3063 N   0  0  0  0  0  0  0  0  0  0  0  0
    2.5446    0.5266   -1.9458 N   0  0  0  0  0  0  0  0  0  0  0  0
    3.6616    0.3644    1.4267 B   0  0  0  0  0  0  0  0  0  0  0  0
    4.5099   -0.3156    0.5626 F   0  0  0  0  0  0  0  0  0  0  0  0
    2.9369    1.3597    0.6722 F   0  0  0  0  0  0  0  0  0  0  0  0
    2.6721   -0.5445    1.9254 F   0  0  0  0  0  0  0  0  0  0  0  0
    4.3235    0.9711    2.4701 F   0  0  0  0  0  0  0  0  0  0  0  0
   -3.2508    1.4300    0.9850 O   0  0  0  0  0  0  0  0  0  0  0  0
   -3.5394    1.1260    2.3565 C   0  0  0  0  0  0  0  0  0  0  0  0
   -4.5832    1.4015    2.5007 H   0  0  0  0  0  0  0  0  0  0  0  0
   -2.9064    1.7130    3.0287 H   0  0  0  0  0  0  0  0  0  0  0  0
   -3.4083    0.0576    2.5563 H   0  0  0  0  0  0  0  0  0  0  0  0
  1  7  1  0  0  0  0
  2  8  1  0  0  0  0
  2  1  1  0  0  0  0
  3  2  2  0  0  0  0
  4  5  2  0  0  0  0
  4  3  1  0  0  0  0
  5  6  1  0  0  0  0
  6 18  1  0  0  0  0
  6  1  2  0  0  0  0
  9  4  1  0  0  0  0
 10  5  1  0  0  0  0
 11  3  1  0  0  0  0
 12 11  1  0  0  0  0
 13 16  1  0  0  0  0
 13 17  1  0  0  0  0
 14 13  1  0  0  0  0
 15 13  1  0  0  0  0
 18 19  1  0  0  0  0
 19 20  1  0  0  0  0
 19 22  1  0  0  0  0
 19 21  1  0  0  0  0
M  RAD  2  11   2  12   3
M  END
