Coordinates from ORCA-job p-CH3O-Ph-N2-X-BF4-B3LYPG-6-31G_dp-scan-d09-49-n400
 OpenBabel08281821133D

 22 22  0  0  0  0  0  0  0  0999 V2000
   -1.4728    0.7380    1.5283 C   0  0  0  0  0  0  0  0  0  0  0  0
   -0.0928    0.6334    1.4244 C   0  0  0  0  0  0  0  0  0  0  0  0
    0.5427    0.9127    0.1954 C   0  0  0  0  0  0  0  0  0  0  0  0
   -0.2410    1.2961   -0.9165 C   0  0  0  0  0  0  0  0  0  0  0  0
   -1.6124    1.4019   -0.8125 C   0  0  0  0  0  0  0  0  0  0  0  0
   -2.2433    1.1229    0.4153 C   0  0  0  0  0  0  0  0  0  0  0  0
   -1.9435    0.5177    2.4783 H   0  0  0  0  0  0  0  0  0  0  0  0
    0.4873    0.3372    2.2845 H   0  0  0  0  0  0  0  0  0  0  0  0
    0.2651    1.5061   -1.8524 H   0  0  0  0  0  0  0  0  0  0  0  0
   -2.2255    1.6966   -1.6566 H   0  0  0  0  0  0  0  0  0  0  0  0
    1.9071    0.8583   -0.0832 N   0  0  0  0  0  0  0  0  0  0  0  0
    2.8496    0.5811    0.6258 N   0  0  0  0  0  0  0  0  0  0  0  0
    4.6801    0.5496    0.2581 B   0  0  0  0  0  0  0  0  0  0  0  0
    2.5814    0.2505    1.9713 F   0  0  0  0  0  0  0  0  0  0  0  0
    4.6464    0.7964   -1.0681 F   0  0  0  0  0  0  0  0  0  0  0  0
    5.1051    1.5503    1.0586 F   0  0  0  0  0  0  0  0  0  0  0  0
    4.9861   -0.7069    0.6432 F   0  0  0  0  0  0  0  0  0  0  0  0
   -3.5850    1.2517    0.4239 O   0  0  0  0  0  0  0  0  0  0  0  0
   -4.3018    0.9868    1.6288 C   0  0  0  0  0  0  0  0  0  0  0  0
   -5.3522    1.1546    1.3899 H   0  0  0  0  0  0  0  0  0  0  0  0
   -3.9974    1.6687    2.4309 H   0  0  0  0  0  0  0  0  0  0  0  0
   -4.1634   -0.0505    1.9541 H   0  0  0  0  0  0  0  0  0  0  0  0
  1  7  1  0  0  0  0
  2  1  1  0  0  0  0
  2  8  1  0  0  0  0
  3  2  2  0  0  0  0
  4  5  2  0  0  0  0
  4  3  1  0  0  0  0
  5  6  1  0  0  0  0
  6 18  1  0  0  0  0
  6  1  2  0  0  0  0
  9  4  1  0  0  0  0
 10  5  1  0  0  0  0
 11  3  1  0  0  0  0
 11 12  1  0  0  0  0
 12 14  1  0  0  0  0
 13 12  1  0  0  0  0
 13 17  1  0  0  0  0
 13 16  1  0  0  0  0
 15 13  1  0  0  0  0
 18 19  1  0  0  0  0
 19 22  1  0  0  0  0
 19 21  1  0  0  0  0
 20 19  1  0  0  0  0
M  RAD  1  11   2
M  END
