Coordinates from ORCA-job p-CH3O-Ph-N2-X-BF4-B3LYPG-6-31G_dp-scan-d09-49-n400
 OpenBabel08281821133D

 22 21  0  0  0  0  0  0  0  0999 V2000
   -0.9632    0.6181    1.2221 C   0  0  0  0  0  0  0  0  0  0  0  0
    0.2888    0.4301    0.6570 C   0  0  0  0  0  0  0  0  0  0  0  0
    0.4902    0.8297   -0.6769 C   0  0  0  0  0  0  0  0  0  0  0  0
   -0.5441    1.4095   -1.4380 C   0  0  0  0  0  0  0  0  0  0  0  0
   -1.7847    1.5906   -0.8652 C   0  0  0  0  0  0  0  0  0  0  0  0
   -2.0045    1.1979    0.4728 C   0  0  0  0  0  0  0  0  0  0  0  0
   -1.1178    0.3192    2.2508 H   0  0  0  0  0  0  0  0  0  0  0  0
    1.0930   -0.0005    1.2400 H   0  0  0  0  0  0  0  0  0  0  0  0
   -0.3516    1.7081   -2.4624 H   0  0  0  0  0  0  0  0  0  0  0  0
   -2.6052    2.0342   -1.4173 H   0  0  0  0  0  0  0  0  0  0  0  0
    1.7147    0.6699   -1.3011 N   0  0  0  0  0  0  0  0  0  0  0  0
    2.8095    0.3205   -1.2799 N   0  0  0  0  0  0  0  0  0  0  0  0
    3.5583    0.5620    1.4422 B   0  0  0  0  0  0  0  0  0  0  0  0
    3.1934   -0.3992    0.2481 F   0  0  0  0  0  0  0  0  0  0  0  0
    3.1262    1.7951    1.0053 F   0  0  0  0  0  0  0  0  0  0  0  0
    2.7860    0.0607    2.4723 F   0  0  0  0  0  0  0  0  0  0  0  0
    4.8957    0.4487    1.6253 F   0  0  0  0  0  0  0  0  0  0  0  0
   -3.2446    1.4211    0.9416 O   0  0  0  0  0  0  0  0  0  0  0  0
   -3.5553    1.0702    2.2926 C   0  0  0  0  0  0  0  0  0  0  0  0
   -4.5976    1.3533    2.4359 H   0  0  0  0  0  0  0  0  0  0  0  0
   -2.9258    1.6213    2.9989 H   0  0  0  0  0  0  0  0  0  0  0  0
   -3.4417   -0.0070    2.4574 H   0  0  0  0  0  0  0  0  0  0  0  0
  1  7  1  0  0  0  0
  2  1  1  0  0  0  0
  2  8  1  0  0  0  0
  3  2  2  0  0  0  0
  4  5  2  0  0  0  0
  4  3  1  0  0  0  0
  5  6  1  0  0  0  0
  6 18  1  0  0  0  0
  6  1  2  0  0  0  0
  9  4  1  0  0  0  0
 10  5  1  0  0  0  0
 11 12  2  0  0  0  0
 11  3  1  0  0  0  0
 13 17  1  0  0  0  0
 13 16  1  0  0  0  0
 14 13  1  0  0  0  0
 15 13  1  0  0  0  0
 18 19  1  0  0  0  0
 19 20  1  0  0  0  0
 19 22  1  0  0  0  0
 19 21  1  0  0  0  0
M  RAD  1  12   2
M  END
