Coordinates from ORCA-job p-CH3O-Ph-N2-X-BF4-B3LYPG-6-31G_dp-scan-d09-49-n400
 OpenBabel08281821133D

 22 21  0  0  0  0  0  0  0  0999 V2000
   -0.9827    0.6705    1.2894 C   0  0  0  0  0  0  0  0  0  0  0  0
    0.2762    0.4770    0.7459 C   0  0  0  0  0  0  0  0  0  0  0  0
    0.4627    0.8257   -0.6046 C   0  0  0  0  0  0  0  0  0  0  0  0
   -0.5678    1.3599   -1.4134 C   0  0  0  0  0  0  0  0  0  0  0  0
   -1.8055    1.5509   -0.8466 C   0  0  0  0  0  0  0  0  0  0  0  0
   -2.0251    1.2096    0.5106 C   0  0  0  0  0  0  0  0  0  0  0  0
   -1.1434    0.4070    2.3267 H   0  0  0  0  0  0  0  0  0  0  0  0
    1.1099    0.0720    1.3229 H   0  0  0  0  0  0  0  0  0  0  0  0
   -0.3780    1.6166   -2.4496 H   0  0  0  0  0  0  0  0  0  0  0  0
   -2.6293    1.9628   -1.4178 H   0  0  0  0  0  0  0  0  0  0  0  0
    1.6815    0.6242   -1.1993 N   0  0  0  0  0  0  0  0  0  0  0  0
    2.6215    0.4471   -1.7734 N   0  0  0  0  0  0  0  0  0  0  0  0
    3.6652    0.4093    1.3318 B   0  0  0  0  0  0  0  0  0  0  0  0
    4.3305   -0.1561    0.2341 F   0  0  0  0  0  0  0  0  0  0  0  0
    2.8649    1.4980    0.8491 F   0  0  0  0  0  0  0  0  0  0  0  0
    2.7498   -0.5566    1.8551 F   0  0  0  0  0  0  0  0  0  0  0  0
    4.5296    0.8440    2.3062 F   0  0  0  0  0  0  0  0  0  0  0  0
   -3.2657    1.4384    0.9580 O   0  0  0  0  0  0  0  0  0  0  0  0
   -3.5916    1.1390    2.3215 C   0  0  0  0  0  0  0  0  0  0  0  0
   -4.6376    1.4194    2.4379 H   0  0  0  0  0  0  0  0  0  0  0  0
   -2.9742    1.7245    3.0095 H   0  0  0  0  0  0  0  0  0  0  0  0
   -3.4708    0.0704    2.5274 H   0  0  0  0  0  0  0  0  0  0  0  0
  1  7  1  0  0  0  0
  2  1  1  0  0  0  0
  2  8  1  0  0  0  0
  3  2  2  0  0  0  0
  4  5  2  0  0  0  0
  4  3  1  0  0  0  0
  5  6  1  0  0  0  0
  6 18  1  0  0  0  0
  6  1  2  0  0  0  0
  9  4  1  0  0  0  0
 10  5  1  0  0  0  0
 11  3  1  0  0  0  0
 12 11  1  0  0  0  0
 13 16  1  0  0  0  0
 13 17  1  0  0  0  0
 14 13  1  0  0  0  0
 15 13  1  0  0  0  0
 18 19  1  0  0  0  0
 19 20  1  0  0  0  0
 19 22  1  0  0  0  0
 19 21  1  0  0  0  0
M  RAD  2  11   2  12   3
M  END
