Coordinates from ORCA-job p-CH3O-Ph-N2-X-BF4-B3LYPG-6-31G_dp-scan-d09-49-n400
 OpenBabel08281821133D

 22 21  0  0  0  0  0  0  0  0999 V2000
   -0.9597    0.6736    1.2584 C   0  0  0  0  0  0  0  0  0  0  0  0
    0.2892    0.4922    0.6884 C   0  0  0  0  0  0  0  0  0  0  0  0
    0.4441    0.8515   -0.6632 C   0  0  0  0  0  0  0  0  0  0  0  0
   -0.6081    1.3826   -1.4483 C   0  0  0  0  0  0  0  0  0  0  0  0
   -1.8344    1.5603   -0.8547 C   0  0  0  0  0  0  0  0  0  0  0  0
   -2.0223    1.2106    0.5059 C   0  0  0  0  0  0  0  0  0  0  0  0
   -1.0953    0.4026    2.2974 H   0  0  0  0  0  0  0  0  0  0  0  0
    1.1348    0.0878    1.2512 H   0  0  0  0  0  0  0  0  0  0  0  0
   -0.4421    1.6474   -2.4866 H   0  0  0  0  0  0  0  0  0  0  0  0
   -2.6730    1.9697   -1.4058 H   0  0  0  0  0  0  0  0  0  0  0  0
    1.6490    0.6703   -1.2911 N   0  0  0  0  0  0  0  0  0  0  0  0
    2.5542    0.5161   -1.9242 N   0  0  0  0  0  0  0  0  0  0  0  0
    3.6622    0.3693    1.4136 B   0  0  0  0  0  0  0  0  0  0  0  0
    4.4826   -0.3032    0.5153 F   0  0  0  0  0  0  0  0  0  0  0  0
    2.9270    1.3805    0.6927 F   0  0  0  0  0  0  0  0  0  0  0  0
    2.6800   -0.5414    1.9226 F   0  0  0  0  0  0  0  0  0  0  0  0
    4.3566    0.9536    2.4479 F   0  0  0  0  0  0  0  0  0  0  0  0
   -3.2532    1.4301    0.9809 O   0  0  0  0  0  0  0  0  0  0  0  0
   -3.5470    1.1264    2.3514 C   0  0  0  0  0  0  0  0  0  0  0  0
   -4.5914    1.4017    2.4915 H   0  0  0  0  0  0  0  0  0  0  0  0
   -2.9167    1.7137    3.0259 H   0  0  0  0  0  0  0  0  0  0  0  0
   -3.4164    0.0581    2.5520 H   0  0  0  0  0  0  0  0  0  0  0  0
  1  7  1  0  0  0  0
  2  8  1  0  0  0  0
  2  1  1  0  0  0  0
  3  2  2  0  0  0  0
  4  5  2  0  0  0  0
  4  3  1  0  0  0  0
  5  6  1  0  0  0  0
  6 18  1  0  0  0  0
  6  1  2  0  0  0  0
  9  4  1  0  0  0  0
 10  5  1  0  0  0  0
 11  3  1  0  0  0  0
 12 11  1  0  0  0  0
 13 16  1  0  0  0  0
 13 17  1  0  0  0  0
 14 13  1  0  0  0  0
 15 13  1  0  0  0  0
 18 19  1  0  0  0  0
 19 20  1  0  0  0  0
 19 22  1  0  0  0  0
 19 21  1  0  0  0  0
M  RAD  2  11   2  12   3
M  END
