Coordinates from ORCA-job p-CH3O-Ph-N2-X-BF4-B3LYPG-6-31G_dp-scan-d09-49-n400
 OpenBabel08281821133D

 22 21  0  0  0  0  0  0  0  0999 V2000
   -0.9348    0.6628    1.2160 C   0  0  0  0  0  0  0  0  0  0  0  0
    0.2968    0.4835    0.6094 C   0  0  0  0  0  0  0  0  0  0  0  0
    0.4162    0.8632   -0.7405 C   0  0  0  0  0  0  0  0  0  0  0  0
   -0.6550    1.4104   -1.4895 C   0  0  0  0  0  0  0  0  0  0  0  0
   -1.8628    1.5852   -0.8593 C   0  0  0  0  0  0  0  0  0  0  0  0
   -2.0146    1.2169    0.5016 C   0  0  0  0  0  0  0  0  0  0  0  0
   -1.0412    0.3773    2.2546 H   0  0  0  0  0  0  0  0  0  0  0  0
    1.1526    0.0650    1.1485 H   0  0  0  0  0  0  0  0  0  0  0  0
   -0.5165    1.6893   -2.5281 H   0  0  0  0  0  0  0  0  0  0  0  0
   -2.7144    2.0068   -1.3805 H   0  0  0  0  0  0  0  0  0  0  0  0
    1.6038    0.6890   -1.3992 N   0  0  0  0  0  0  0  0  0  0  0  0
    2.5074    0.5551   -2.0392 N   0  0  0  0  0  0  0  0  0  0  0  0
    3.6431    0.3502    1.5068 B   0  0  0  0  0  0  0  0  0  0  0  0
    4.6300   -0.3785    0.8659 F   0  0  0  0  0  0  0  0  0  0  0  0
    3.0115    1.2257    0.5456 F   0  0  0  0  0  0  0  0  0  0  0  0
    2.6121   -0.5384    1.9606 F   0  0  0  0  0  0  0  0  0  0  0  0
    4.1162    1.1010    2.5613 F   0  0  0  0  0  0  0  0  0  0  0  0
   -3.2297    1.4368    1.0137 O   0  0  0  0  0  0  0  0  0  0  0  0
   -3.4863    1.1172    2.3886 C   0  0  0  0  0  0  0  0  0  0  0  0
   -4.5245    1.3972    2.5618 H   0  0  0  0  0  0  0  0  0  0  0  0
   -2.8330    1.6921    3.0517 H   0  0  0  0  0  0  0  0  0  0  0  0
   -3.3568    0.0457    2.5715 H   0  0  0  0  0  0  0  0  0  0  0  0
  1  7  1  0  0  0  0
  2  8  1  0  0  0  0
  2  1  1  0  0  0  0
  3  2  2  0  0  0  0
  4  5  2  0  0  0  0
  4  3  1  0  0  0  0
  5  6  1  0  0  0  0
  6 18  1  0  0  0  0
  6  1  2  0  0  0  0
  9  4  1  0  0  0  0
 10  5  1  0  0  0  0
 11  3  1  0  0  0  0
 12 11  1  0  0  0  0
 13 16  1  0  0  0  0
 13 17  1  0  0  0  0
 14 13  1  0  0  0  0
 15 13  1  0  0  0  0
 18 19  1  0  0  0  0
 19 20  1  0  0  0  0
 19 22  1  0  0  0  0
 19 21  1  0  0  0  0
M  RAD  2  11   2  12   3
M  END
