Coordinates from ORCA-job p-CH3O-Ph-N2-X-BF4-B3LYPG-6-31G_dp-scan-d09-49-n400
 OpenBabel08281821133D

 22 21  0  0  0  0  0  0  0  0999 V2000
   -0.9771    0.6727    1.2828 C   0  0  0  0  0  0  0  0  0  0  0  0
    0.2801    0.4825    0.7340 C   0  0  0  0  0  0  0  0  0  0  0  0
    0.4594    0.8331   -0.6169 C   0  0  0  0  0  0  0  0  0  0  0  0
   -0.5759    1.3667   -1.4206 C   0  0  0  0  0  0  0  0  0  0  0  0
   -1.8114    1.5542   -0.8482 C   0  0  0  0  0  0  0  0  0  0  0  0
   -2.0243    1.2105    0.5097 C   0  0  0  0  0  0  0  0  0  0  0  0
   -1.1323    0.4075    2.3206 H   0  0  0  0  0  0  0  0  0  0  0  0
    1.1159    0.0789    1.3098 H   0  0  0  0  0  0  0  0  0  0  0  0
   -0.3913    1.6254   -2.4572 H   0  0  0  0  0  0  0  0  0  0  0  0
   -2.6385    1.9653   -1.4152 H   0  0  0  0  0  0  0  0  0  0  0  0
    1.6746    0.6356   -1.2205 N   0  0  0  0  0  0  0  0  0  0  0  0
    2.6028    0.4603   -1.8136 N   0  0  0  0  0  0  0  0  0  0  0  0
    3.6649    0.3995    1.3504 B   0  0  0  0  0  0  0  0  0  0  0  0
    4.3612   -0.2014    0.2959 F   0  0  0  0  0  0  0  0  0  0  0  0
    2.8783    1.4735    0.8087 F   0  0  0  0  0  0  0  0  0  0  0  0
    2.7318   -0.5467    1.8808 F   0  0  0  0  0  0  0  0  0  0  0  0
    4.4970    0.8701    2.3370 F   0  0  0  0  0  0  0  0  0  0  0  0
   -3.2631    1.4361    0.9629 O   0  0  0  0  0  0  0  0  0  0  0  0
   -3.5823    1.1337    2.3275 C   0  0  0  0  0  0  0  0  0  0  0  0
   -4.6284    1.4116    2.4489 H   0  0  0  0  0  0  0  0  0  0  0  0
   -2.9632    1.7194    3.0136 H   0  0  0  0  0  0  0  0  0  0  0  0
   -3.4582    0.0651    2.5310 H   0  0  0  0  0  0  0  0  0  0  0  0
  1  7  1  0  0  0  0
  2  1  1  0  0  0  0
  2  8  1  0  0  0  0
  3  2  2  0  0  0  0
  4  5  2  0  0  0  0
  4  3  1  0  0  0  0
  5  6  1  0  0  0  0
  6 18  1  0  0  0  0
  6  1  2  0  0  0  0
  9  4  1  0  0  0  0
 10  5  1  0  0  0  0
 11  3  1  0  0  0  0
 12 11  1  0  0  0  0
 13 16  1  0  0  0  0
 13 17  1  0  0  0  0
 14 13  1  0  0  0  0
 15 13  1  0  0  0  0
 18 19  1  0  0  0  0
 19 20  1  0  0  0  0
 19 22  1  0  0  0  0
 19 21  1  0  0  0  0
M  RAD  2  11   2  12   3
M  END
