Coordinates from ORCA-job p-CH3O-Ph-N2-X-BF4-B3LYPG-6-31G_dp-scan-d09-49-n400
 OpenBabel08281821133D

 22 21  0  0  0  0  0  0  0  0999 V2000
   -0.9765    0.6425    1.2548 C   0  0  0  0  0  0  0  0  0  0  0  0
    0.2820    0.4568    0.7050 C   0  0  0  0  0  0  0  0  0  0  0  0
    0.4804    0.8333   -0.6364 C   0  0  0  0  0  0  0  0  0  0  0  0
   -0.5504    1.3867   -1.4240 C   0  0  0  0  0  0  0  0  0  0  0  0
   -1.7932    1.5681   -0.8596 C   0  0  0  0  0  0  0  0  0  0  0  0
   -2.0170    1.1994    0.4866 C   0  0  0  0  0  0  0  0  0  0  0  0
   -1.1374    0.3600    2.2872 H   0  0  0  0  0  0  0  0  0  0  0  0
    1.0942    0.0436    1.2974 H   0  0  0  0  0  0  0  0  0  0  0  0
   -0.3555    1.6661   -2.4534 H   0  0  0  0  0  0  0  0  0  0  0  0
   -2.6148    1.9935   -1.4243 H   0  0  0  0  0  0  0  0  0  0  0  0
    1.7115    0.6580   -1.2235 N   0  0  0  0  0  0  0  0  0  0  0  0
    2.7946    0.3994   -1.4234 N   0  0  0  0  0  0  0  0  0  0  0  0
    3.5859    0.4858    1.3709 B   0  0  0  0  0  0  0  0  0  0  0  0
    3.6017   -0.3288    0.1258 F   0  0  0  0  0  0  0  0  0  0  0  0
    2.9588    1.6862    1.0222 F   0  0  0  0  0  0  0  0  0  0  0  0
    2.7820   -0.2272    2.2713 F   0  0  0  0  0  0  0  0  0  0  0  0
    4.8675    0.6471    1.8050 F   0  0  0  0  0  0  0  0  0  0  0  0
   -3.2604    1.4214    0.9404 O   0  0  0  0  0  0  0  0  0  0  0  0
   -3.5817    1.0961    2.2967 C   0  0  0  0  0  0  0  0  0  0  0  0
   -4.6269    1.3760    2.4237 H   0  0  0  0  0  0  0  0  0  0  0  0
   -2.9616    1.6659    2.9959 H   0  0  0  0  0  0  0  0  0  0  0  0
   -3.4632    0.0234    2.4833 H   0  0  0  0  0  0  0  0  0  0  0  0
  1  7  1  0  0  0  0
  2  1  1  0  0  0  0
  2  8  1  0  0  0  0
  3  2  2  0  0  0  0
  4  5  2  0  0  0  0
  4  3  1  0  0  0  0
  5  6  1  0  0  0  0
  6 18  1  0  0  0  0
  6  1  2  0  0  0  0
  9  4  1  0  0  0  0
 10  5  1  0  0  0  0
 11  3  1  0  0  0  0
 12 11  1  0  0  0  0
 13 17  1  0  0  0  0
 13 16  1  0  0  0  0
 14 13  1  0  0  0  0
 15 13  1  0  0  0  0
 18 19  1  0  0  0  0
 19 20  1  0  0  0  0
 19 22  1  0  0  0  0
 19 21  1  0  0  0  0
M  RAD  2  11   2  12   3
M  END
