Coordinates from ORCA-job p-CH3O-Ph-N2-X-BF4-B3LYPG-6-31G_dp-scan-d09-49-n400
 OpenBabel08281821133D

 22 21  0  0  0  0  0  0  0  0999 V2000
   -0.9125    0.6641    1.1842 C   0  0  0  0  0  0  0  0  0  0  0  0
    0.3064    0.4940    0.5501 C   0  0  0  0  0  0  0  0  0  0  0  0
    0.3962    0.8864   -0.7987 C   0  0  0  0  0  0  0  0  0  0  0  0
   -0.6929    1.4354   -1.5208 C   0  0  0  0  0  0  0  0  0  0  0  0
   -1.8876    1.5995   -0.8639 C   0  0  0  0  0  0  0  0  0  0  0  0
   -2.0092    1.2200    0.4975 C   0  0  0  0  0  0  0  0  0  0  0  0
   -0.9934    0.3699    2.2226 H   0  0  0  0  0  0  0  0  0  0  0  0
    1.1712    0.0725    1.0733 H   0  0  0  0  0  0  0  0  0  0  0  0
   -0.5776    1.7234   -2.5597 H   0  0  0  0  0  0  0  0  0  0  0  0
   -2.7520    2.0215   -1.3632 H   0  0  0  0  0  0  0  0  0  0  0  0
    1.5741    0.7279   -1.4762 N   0  0  0  0  0  0  0  0  0  0  0  0
    2.4887    0.6098   -2.1036 N   0  0  0  0  0  0  0  0  0  0  0  0
    3.6210    0.3229    1.5737 B   0  0  0  0  0  0  0  0  0  0  0  0
    4.6886   -0.4567    1.1727 F   0  0  0  0  0  0  0  0  0  0  0  0
    3.1063    1.0414    0.4300 F   0  0  0  0  0  0  0  0  0  0  0  0
    2.5460   -0.5208    2.0141 F   0  0  0  0  0  0  0  0  0  0  0  0
    3.9436    1.2246    2.5670 F   0  0  0  0  0  0  0  0  0  0  0  0
   -3.2133    1.4318    1.0372 O   0  0  0  0  0  0  0  0  0  0  0  0
   -3.4381    1.1025    2.4157 C   0  0  0  0  0  0  0  0  0  0  0  0
   -4.4731    1.3773    2.6136 H   0  0  0  0  0  0  0  0  0  0  0  0
   -2.7721    1.6757    3.0673 H   0  0  0  0  0  0  0  0  0  0  0  0
   -3.3003    0.0303    2.5886 H   0  0  0  0  0  0  0  0  0  0  0  0
  1  7  1  0  0  0  0
  2  8  1  0  0  0  0
  2  1  1  0  0  0  0
  3  2  2  0  0  0  0
  4  5  2  0  0  0  0
  4  3  1  0  0  0  0
  5  6  1  0  0  0  0
  6 18  1  0  0  0  0
  6  1  2  0  0  0  0
  9  4  1  0  0  0  0
 10  5  1  0  0  0  0
 11  3  1  0  0  0  0
 12 11  1  0  0  0  0
 13 16  1  0  0  0  0
 13 17  1  0  0  0  0
 14 13  1  0  0  0  0
 15 13  1  0  0  0  0
 18 19  1  0  0  0  0
 19 22  1  0  0  0  0
 19 20  1  0  0  0  0
 19 21  1  0  0  0  0
M  RAD  2  11   2  12   3
M  END
