Coordinates from ORCA-job p-CH3O-Ph-N2-X-BF4-B3LYPG-6-31G_dp-scan-d09-49-n400
 OpenBabel08281821133D

 22 21  0  0  0  0  0  0  0  0999 V2000
   -0.9292    0.6612    1.2077 C   0  0  0  0  0  0  0  0  0  0  0  0
    0.2988    0.4823    0.5937 C   0  0  0  0  0  0  0  0  0  0  0  0
    0.4108    0.8659   -0.7559 C   0  0  0  0  0  0  0  0  0  0  0  0
   -0.6643    1.4158   -1.4974 C   0  0  0  0  0  0  0  0  0  0  0  0
   -1.8684    1.5895   -0.8601 C   0  0  0  0  0  0  0  0  0  0  0  0
   -2.0126    1.2180    0.5009 C   0  0  0  0  0  0  0  0  0  0  0  0
   -1.0295    0.3731    2.2462 H   0  0  0  0  0  0  0  0  0  0  0  0
    1.1565    0.0608    1.1279 H   0  0  0  0  0  0  0  0  0  0  0  0
   -0.5315    1.6973   -2.5360 H   0  0  0  0  0  0  0  0  0  0  0  0
   -2.7228    2.0127   -1.3753 H   0  0  0  0  0  0  0  0  0  0  0  0
    1.5952    0.6949   -1.4204 N   0  0  0  0  0  0  0  0  0  0  0  0
    2.4997    0.5650   -2.0599 N   0  0  0  0  0  0  0  0  0  0  0  0
    3.6374    0.3455    1.5244 B   0  0  0  0  0  0  0  0  0  0  0  0
    4.6559   -0.3873    0.9427 F   0  0  0  0  0  0  0  0  0  0  0  0
    3.0312    1.1867    0.5173 F   0  0  0  0  0  0  0  0  0  0  0  0
    2.5994   -0.5423    1.9648 F   0  0  0  0  0  0  0  0  0  0  0  0
    4.0608    1.1315    2.5755 F   0  0  0  0  0  0  0  0  0  0  0  0
   -3.2245    1.4377    1.0204 O   0  0  0  0  0  0  0  0  0  0  0  0
   -3.4734    1.1158    2.3963 C   0  0  0  0  0  0  0  0  0  0  0  0
   -4.5103    1.3963    2.5759 H   0  0  0  0  0  0  0  0  0  0  0  0
   -2.8157    1.6891    3.0564 H   0  0  0  0  0  0  0  0  0  0  0  0
   -3.3436    0.0439    2.5764 H   0  0  0  0  0  0  0  0  0  0  0  0
  1  7  1  0  0  0  0
  2  8  1  0  0  0  0
  2  1  1  0  0  0  0
  3  2  2  0  0  0  0
  4  5  2  0  0  0  0
  4  3  1  0  0  0  0
  5  6  1  0  0  0  0
  6 18  1  0  0  0  0
  6  1  2  0  0  0  0
  9  4  1  0  0  0  0
 10  5  1  0  0  0  0
 11  3  1  0  0  0  0
 12 11  1  0  0  0  0
 13 16  1  0  0  0  0
 13 17  1  0  0  0  0
 14 13  1  0  0  0  0
 15 13  1  0  0  0  0
 18 19  1  0  0  0  0
 19 20  1  0  0  0  0
 19 22  1  0  0  0  0
 19 21  1  0  0  0  0
M  RAD  2  11   2  12   3
M  END
