Coordinates from ORCA-job p-CH3O-Ph-N2-X-BF4-B3LYPG-6-31G_dp-scan-d09-49-n400
 OpenBabel08281821133D

 22 21  0  0  0  0  0  0  0  0999 V2000
   -0.9663    0.6204    1.2212 C   0  0  0  0  0  0  0  0  0  0  0  0
    0.2865    0.4338    0.6566 C   0  0  0  0  0  0  0  0  0  0  0  0
    0.4913    0.8316   -0.6774 C   0  0  0  0  0  0  0  0  0  0  0  0
   -0.5454    1.4094   -1.4372 C   0  0  0  0  0  0  0  0  0  0  0  0
   -1.7875    1.5889   -0.8667 C   0  0  0  0  0  0  0  0  0  0  0  0
   -2.0084    1.1971    0.4707 C   0  0  0  0  0  0  0  0  0  0  0  0
   -1.1213    0.3222    2.2501 H   0  0  0  0  0  0  0  0  0  0  0  0
    1.0892    0.0046    1.2412 H   0  0  0  0  0  0  0  0  0  0  0  0
   -0.3520    1.7074   -2.4616 H   0  0  0  0  0  0  0  0  0  0  0  0
   -2.6080    2.0304   -1.4207 H   0  0  0  0  0  0  0  0  0  0  0  0
    1.7135    0.6794   -1.3129 N   0  0  0  0  0  0  0  0  0  0  0  0
    2.8078    0.3136   -1.2535 N   0  0  0  0  0  0  0  0  0  0  0  0
    3.5769    0.5744    1.4558 B   0  0  0  0  0  0  0  0  0  0  0  0
    3.1331   -0.3912    0.2500 F   0  0  0  0  0  0  0  0  0  0  0  0
    3.1817    1.8128    1.0182 F   0  0  0  0  0  0  0  0  0  0  0  0
    2.8114    0.0898    2.4916 F   0  0  0  0  0  0  0  0  0  0  0  0
    4.9102    0.3938    1.5875 F   0  0  0  0  0  0  0  0  0  0  0  0
   -3.2498    1.4184    0.9387 O   0  0  0  0  0  0  0  0  0  0  0  0
   -3.5608    1.0654    2.2887 C   0  0  0  0  0  0  0  0  0  0  0  0
   -4.6045    1.3440    2.4312 H   0  0  0  0  0  0  0  0  0  0  0  0
   -2.9347    1.6185    2.9966 H   0  0  0  0  0  0  0  0  0  0  0  0
   -3.4431   -0.0114    2.4534 H   0  0  0  0  0  0  0  0  0  0  0  0
  1  7  1  0  0  0  0
  2  1  1  0  0  0  0
  2  8  1  0  0  0  0
  3  2  2  0  0  0  0
  4  5  2  0  0  0  0
  4  3  1  0  0  0  0
  5  6  1  0  0  0  0
  6 18  1  0  0  0  0
  6  1  2  0  0  0  0
  9  4  1  0  0  0  0
 10  5  1  0  0  0  0
 11 12  2  0  0  0  0
 11  3  1  0  0  0  0
 13 17  1  0  0  0  0
 13 16  1  0  0  0  0
 14 13  1  0  0  0  0
 15 13  1  0  0  0  0
 18 19  1  0  0  0  0
 19 20  1  0  0  0  0
 19 22  1  0  0  0  0
 19 21  1  0  0  0  0
M  RAD  1  12   2
M  END
