Coordinates from ORCA-job p-CH3O-Ph-N2-X-BF4-B3LYPG-6-31G_dp-scan-d09-49-n400
 OpenBabel08281821133D

 22 21  0  0  0  0  0  0  0  0999 V2000
   -0.9680    0.6760    1.2711 C   0  0  0  0  0  0  0  0  0  0  0  0
    0.2859    0.4925    0.7128 C   0  0  0  0  0  0  0  0  0  0  0  0
    0.4531    0.8463   -0.6388 C   0  0  0  0  0  0  0  0  0  0  0  0
   -0.5914    1.3764   -1.4340 C   0  0  0  0  0  0  0  0  0  0  0  0
   -1.8230    1.5571   -0.8519 C   0  0  0  0  0  0  0  0  0  0  0  0
   -2.0237    1.2106    0.5074 C   0  0  0  0  0  0  0  0  0  0  0  0
   -1.1135    0.4083    2.3097 H   0  0  0  0  0  0  0  0  0  0  0  0
    1.1265    0.0907    1.2842 H   0  0  0  0  0  0  0  0  0  0  0  0
   -0.4161    1.6374   -2.4717 H   0  0  0  0  0  0  0  0  0  0  0  0
   -2.6564    1.9651   -1.4119 H   0  0  0  0  0  0  0  0  0  0  0  0
    1.6629    0.6565   -1.2554 N   0  0  0  0  0  0  0  0  0  0  0  0
    2.5769    0.4887   -1.8721 N   0  0  0  0  0  0  0  0  0  0  0  0
    3.6642    0.3821    1.3826 B   0  0  0  0  0  0  0  0  0  0  0  0
    4.4083   -0.2701    0.3999 F   0  0  0  0  0  0  0  0  0  0  0  0
    2.9065    1.4312    0.7498 F   0  0  0  0  0  0  0  0  0  0  0  0
    2.7015   -0.5330    1.9175 F   0  0  0  0  0  0  0  0  0  0  0  0
    4.4434    0.9068    2.3861 F   0  0  0  0  0  0  0  0  0  0  0  0
   -3.2593    1.4307    0.9708 O   0  0  0  0  0  0  0  0  0  0  0  0
   -3.5661    1.1265    2.3381 C   0  0  0  0  0  0  0  0  0  0  0  0
   -4.6123    1.4003    2.4681 H   0  0  0  0  0  0  0  0  0  0  0  0
   -2.9435    1.7147    3.0190 H   0  0  0  0  0  0  0  0  0  0  0  0
   -3.4359    0.0584    2.5401 H   0  0  0  0  0  0  0  0  0  0  0  0
  1  7  1  0  0  0  0
  2  1  1  0  0  0  0
  2  8  1  0  0  0  0
  3  2  2  0  0  0  0
  4  5  2  0  0  0  0
  4  3  1  0  0  0  0
  5  6  1  0  0  0  0
  6 18  1  0  0  0  0
  6  1  2  0  0  0  0
  9  4  1  0  0  0  0
 10  5  1  0  0  0  0
 11  3  1  0  0  0  0
 12 11  1  0  0  0  0
 13 16  1  0  0  0  0
 13 17  1  0  0  0  0
 14 13  1  0  0  0  0
 15 13  1  0  0  0  0
 18 19  1  0  0  0  0
 19 20  1  0  0  0  0
 19 22  1  0  0  0  0
 19 21  1  0  0  0  0
M  RAD  2  11   2  12   3
M  END
