Coordinates from ORCA-job p-CH3O-Ph-N2-X-BF4-B3LYPG-6-31G_dp-scan-d09-49-n400
 OpenBabel08281821133D

 22 21  0  0  0  0  0  0  0  0999 V2000
   -0.9903    0.6621    1.2870 C   0  0  0  0  0  0  0  0  0  0  0  0
    0.2719    0.4689    0.7499 C   0  0  0  0  0  0  0  0  0  0  0  0
    0.4715    0.8253   -0.5970 C   0  0  0  0  0  0  0  0  0  0  0  0
   -0.5510    1.3681   -1.4064 C   0  0  0  0  0  0  0  0  0  0  0  0
   -1.7938    1.5593   -0.8483 C   0  0  0  0  0  0  0  0  0  0  0  0
   -2.0252    1.2087    0.5036 C   0  0  0  0  0  0  0  0  0  0  0  0
   -1.1591    0.3924    2.3215 H   0  0  0  0  0  0  0  0  0  0  0  0
    1.0950    0.0588    1.3357 H   0  0  0  0  0  0  0  0  0  0  0  0
   -0.3519    1.6318   -2.4390 H   0  0  0  0  0  0  0  0  0  0  0  0
   -2.6121    1.9776   -1.4227 H   0  0  0  0  0  0  0  0  0  0  0  0
    1.7017    0.6253   -1.1684 N   0  0  0  0  0  0  0  0  0  0  0  0
    2.7144    0.4241   -1.5991 N   0  0  0  0  0  0  0  0  0  0  0  0
    3.6420    0.4370    1.3158 B   0  0  0  0  0  0  0  0  0  0  0  0
    4.0080   -0.2249    0.1018 F   0  0  0  0  0  0  0  0  0  0  0  0
    2.8832    1.5814    0.9508 F   0  0  0  0  0  0  0  0  0  0  0  0
    2.7810   -0.4302    2.0383 F   0  0  0  0  0  0  0  0  0  0  0  0
    4.7501    0.7759    2.0464 F   0  0  0  0  0  0  0  0  0  0  0  0
   -3.2703    1.4360    0.9434 O   0  0  0  0  0  0  0  0  0  0  0  0
   -3.6071    1.1224    2.3002 C   0  0  0  0  0  0  0  0  0  0  0  0
   -4.6539    1.4021    2.4116 H   0  0  0  0  0  0  0  0  0  0  0  0
   -2.9953    1.6998    3.0001 H   0  0  0  0  0  0  0  0  0  0  0  0
   -3.4888    0.0515    2.4963 H   0  0  0  0  0  0  0  0  0  0  0  0
  1  7  1  0  0  0  0
  2  1  1  0  0  0  0
  2  8  1  0  0  0  0
  3  2  2  0  0  0  0
  4  5  2  0  0  0  0
  4  3  1  0  0  0  0
  5  6  1  0  0  0  0
  6 18  1  0  0  0  0
  6  1  2  0  0  0  0
  9  4  1  0  0  0  0
 10  5  1  0  0  0  0
 11  3  1  0  0  0  0
 12 11  1  0  0  0  0
 13 16  1  0  0  0  0
 13 17  1  0  0  0  0
 14 13  1  0  0  0  0
 15 13  1  0  0  0  0
 18 19  1  0  0  0  0
 19 20  1  0  0  0  0
 19 22  1  0  0  0  0
 19 21  1  0  0  0  0
M  RAD  2  11   2  12   3
M  END
