Coordinates from ORCA-job p-CH3O-Ph-N2-X-BF4-B3LYPG-6-31G_dp-scan-d09-49-n400
 OpenBabel08281821133D

 22 22  0  0  0  0  0  0  0  0999 V2000
   -1.4575    0.7357    1.5290 C   0  0  0  0  0  0  0  0  0  0  0  0
   -0.0765    0.6307    1.4256 C   0  0  0  0  0  0  0  0  0  0  0  0
    0.5671    0.9085    0.1987 C   0  0  0  0  0  0  0  0  0  0  0  0
   -0.2231    1.2909   -0.9104 C   0  0  0  0  0  0  0  0  0  0  0  0
   -1.5948    1.3971   -0.8096 C   0  0  0  0  0  0  0  0  0  0  0  0
   -2.2279    1.1198    0.4164 C   0  0  0  0  0  0  0  0  0  0  0  0
   -1.9283    0.5160    2.4791 H   0  0  0  0  0  0  0  0  0  0  0  0
    0.4831    0.3331    2.2993 H   0  0  0  0  0  0  0  0  0  0  0  0
    0.2850    1.5005   -1.8453 H   0  0  0  0  0  0  0  0  0  0  0  0
   -2.2057    1.6914   -1.6556 H   0  0  0  0  0  0  0  0  0  0  0  0
    1.9308    0.8649   -0.1090 N   0  0  0  0  0  0  0  0  0  0  0  0
    2.8502    0.5734    0.6623 N   0  0  0  0  0  0  0  0  0  0  0  0
    4.5822    0.5540    0.2766 B   0  0  0  0  0  0  0  0  0  0  0  0
    2.5969    0.2800    1.8411 F   0  0  0  0  0  0  0  0  0  0  0  0
    4.5959    0.8039   -1.0533 F   0  0  0  0  0  0  0  0  0  0  0  0
    5.0445    1.5487    1.0839 F   0  0  0  0  0  0  0  0  0  0  0  0
    4.9233   -0.7072    0.6596 F   0  0  0  0  0  0  0  0  0  0  0  0
   -3.5704    1.2491    0.4245 O   0  0  0  0  0  0  0  0  0  0  0  0
   -4.2867    0.9872    1.6297 C   0  0  0  0  0  0  0  0  0  0  0  0
   -5.3372    1.1554    1.3913 H   0  0  0  0  0  0  0  0  0  0  0  0
   -3.9815    1.6700    2.4307 H   0  0  0  0  0  0  0  0  0  0  0  0
   -4.1494   -0.0498    1.9571 H   0  0  0  0  0  0  0  0  0  0  0  0
  1  7  1  0  0  0  0
  2  1  1  0  0  0  0
  2  8  1  0  0  0  0
  3  2  2  0  0  0  0
  4  5  2  0  0  0  0
  4  3  1  0  0  0  0
  5  6  1  0  0  0  0
  6 18  1  0  0  0  0
  6  1  2  0  0  0  0
  9  4  1  0  0  0  0
 10  5  1  0  0  0  0
 11  3  1  0  0  0  0
 11 12  1  0  0  0  0
 12 14  1  0  0  0  0
 13 17  1  0  0  0  0
 13 12  1  0  0  0  0
 13 16  1  0  0  0  0
 15 13  1  0  0  0  0
 18 19  1  0  0  0  0
 19 22  1  0  0  0  0
 19 21  1  0  0  0  0
 20 19  1  0  0  0  0
M  RAD  1  11   2
M  END
