Coordinates from ORCA-job p-CH3O-Ph-N2-X-BF4-B3LYPG-6-31G_dp-scan-d09-49-n400
 OpenBabel08281821133D

 22 21  0  0  0  0  0  0  0  0999 V2000
   -0.9658    0.6760    1.2683 C   0  0  0  0  0  0  0  0  0  0  0  0
    0.2869    0.4932    0.7070 C   0  0  0  0  0  0  0  0  0  0  0  0
    0.4509    0.8483   -0.6446 C   0  0  0  0  0  0  0  0  0  0  0  0
   -0.5956    1.3778   -1.4377 C   0  0  0  0  0  0  0  0  0  0  0  0
   -1.8260    1.5573   -0.8527 C   0  0  0  0  0  0  0  0  0  0  0  0
   -2.0234    1.2104    0.5071 C   0  0  0  0  0  0  0  0  0  0  0  0
   -1.1086    0.4078    2.3071 H   0  0  0  0  0  0  0  0  0  0  0  0
    1.1291    0.0912    1.2758 H   0  0  0  0  0  0  0  0  0  0  0  0
   -0.4227    1.6400   -2.4755 H   0  0  0  0  0  0  0  0  0  0  0  0
   -2.6608    1.9653   -1.4106 H   0  0  0  0  0  0  0  0  0  0  0  0
    1.6602    0.6623   -1.2632 N   0  0  0  0  0  0  0  0  0  0  0  0
    2.5724    0.4991   -1.8839 N   0  0  0  0  0  0  0  0  0  0  0  0
    3.6634    0.3776    1.3898 B   0  0  0  0  0  0  0  0  0  0  0  0
    4.4254   -0.2839    0.4292 F   0  0  0  0  0  0  0  0  0  0  0  0
    2.9118    1.4170    0.7321 F   0  0  0  0  0  0  0  0  0  0  0  0
    2.6945   -0.5331    1.9215 F   0  0  0  0  0  0  0  0  0  0  0  0
    4.4228    0.9191    2.3999 F   0  0  0  0  0  0  0  0  0  0  0  0
   -3.2580    1.4298    0.9731 O   0  0  0  0  0  0  0  0  0  0  0  0
   -3.5615    1.1260    2.3414 C   0  0  0  0  0  0  0  0  0  0  0  0
   -4.6073    1.3997    2.4738 H   0  0  0  0  0  0  0  0  0  0  0  0
   -2.9372    1.7145    3.0205 H   0  0  0  0  0  0  0  0  0  0  0  0
   -3.4307    0.0580    2.5434 H   0  0  0  0  0  0  0  0  0  0  0  0
  1  7  1  0  0  0  0
  2  1  1  0  0  0  0
  2  8  1  0  0  0  0
  3  2  2  0  0  0  0
  4  5  2  0  0  0  0
  4  3  1  0  0  0  0
  5  6  1  0  0  0  0
  6 18  1  0  0  0  0
  6  1  2  0  0  0  0
  9  4  1  0  0  0  0
 10  5  1  0  0  0  0
 11  3  1  0  0  0  0
 12 11  1  0  0  0  0
 13 16  1  0  0  0  0
 13 17  1  0  0  0  0
 14 13  1  0  0  0  0
 15 13  1  0  0  0  0
 18 19  1  0  0  0  0
 19 20  1  0  0  0  0
 19 22  1  0  0  0  0
 19 21  1  0  0  0  0
M  RAD  2  11   2  12   3
M  END
