Coordinates from ORCA-job p-CH3O-Ph-N2-X-BF4-B3LYPG-6-31G_dp-scan-d09-49-n400
 OpenBabel08281821133D

 22 21  0  0  0  0  0  0  0  0999 V2000
   -0.9926    0.6634    1.2815 C   0  0  0  0  0  0  0  0  0  0  0  0
    0.2714    0.4756    0.7453 C   0  0  0  0  0  0  0  0  0  0  0  0
    0.4771    0.8296   -0.6011 C   0  0  0  0  0  0  0  0  0  0  0  0
   -0.5503    1.3624   -1.4090 C   0  0  0  0  0  0  0  0  0  0  0  0
   -1.7971    1.5483   -0.8558 C   0  0  0  0  0  0  0  0  0  0  0  0
   -2.0294    1.2019    0.4955 C   0  0  0  0  0  0  0  0  0  0  0  0
   -1.1615    0.3954    2.3165 H   0  0  0  0  0  0  0  0  0  0  0  0
    1.0873    0.0720    1.3413 H   0  0  0  0  0  0  0  0  0  0  0  0
   -0.3501    1.6235   -2.4421 H   0  0  0  0  0  0  0  0  0  0  0  0
   -2.6165    1.9594   -1.4339 H   0  0  0  0  0  0  0  0  0  0  0  0
    1.7111    0.6444   -1.1750 N   0  0  0  0  0  0  0  0  0  0  0  0
    2.7749    0.4270   -1.4769 N   0  0  0  0  0  0  0  0  0  0  0  0
    3.6280    0.4527    1.3278 B   0  0  0  0  0  0  0  0  0  0  0  0
    3.8312   -0.2119    0.0360 F   0  0  0  0  0  0  0  0  0  0  0  0
    2.9189    1.6328    1.0443 F   0  0  0  0  0  0  0  0  0  0  0  0
    2.8094   -0.3995    2.0934 F   0  0  0  0  0  0  0  0  0  0  0  0
    4.8384    0.6863    1.9140 F   0  0  0  0  0  0  0  0  0  0  0  0
   -3.2774    1.4246    0.9346 O   0  0  0  0  0  0  0  0  0  0  0  0
   -3.6097    1.1186    2.2931 C   0  0  0  0  0  0  0  0  0  0  0  0
   -4.6574    1.3950    2.4060 H   0  0  0  0  0  0  0  0  0  0  0  0
   -2.9987    1.7024    2.9888 H   0  0  0  0  0  0  0  0  0  0  0  0
   -3.4873    0.0495    2.4970 H   0  0  0  0  0  0  0  0  0  0  0  0
  1  7  1  0  0  0  0
  2  1  1  0  0  0  0
  2  8  1  0  0  0  0
  3  2  2  0  0  0  0
  4  5  2  0  0  0  0
  4  3  1  0  0  0  0
  5  6  1  0  0  0  0
  6 18  1  0  0  0  0
  6  1  2  0  0  0  0
  9  4  1  0  0  0  0
 10  5  1  0  0  0  0
 11  3  1  0  0  0  0
 12 11  1  0  0  0  0
 13 17  1  0  0  0  0
 13 16  1  0  0  0  0
 14 13  1  0  0  0  0
 15 13  1  0  0  0  0
 18 19  1  0  0  0  0
 19 20  1  0  0  0  0
 19 22  1  0  0  0  0
 19 21  1  0  0  0  0
M  RAD  2  11   2  12   3
M  END
