Coordinates from ORCA-job p-CH3O-Ph-N2-X-BF4-B3LYPG-6-31G_dp-scan-d09-49-n400
 OpenBabel08281821133D

 22 21  0  0  0  0  0  0  0  0999 V2000
   -0.9321    0.6614    1.2118 C   0  0  0  0  0  0  0  0  0  0  0  0
    0.2976    0.4818    0.6013 C   0  0  0  0  0  0  0  0  0  0  0  0
    0.4134    0.8637   -0.7483 C   0  0  0  0  0  0  0  0  0  0  0  0
   -0.6595    1.4130   -1.4934 C   0  0  0  0  0  0  0  0  0  0  0  0
   -1.8653    1.5878   -0.8595 C   0  0  0  0  0  0  0  0  0  0  0  0
   -2.0135    1.2176    0.5014 C   0  0  0  0  0  0  0  0  0  0  0  0
   -1.0355    0.3744    2.2503 H   0  0  0  0  0  0  0  0  0  0  0  0
    1.1542    0.0612    1.1377 H   0  0  0  0  0  0  0  0  0  0  0  0
   -0.5237    1.6935   -2.5319 H   0  0  0  0  0  0  0  0  0  0  0  0
   -2.7181    2.0108   -1.3775 H   0  0  0  0  0  0  0  0  0  0  0  0
    1.5994    0.6907   -1.4100 N   0  0  0  0  0  0  0  0  0  0  0  0
    2.5034    0.5584   -2.0495 N   0  0  0  0  0  0  0  0  0  0  0  0
    3.6399    0.3486    1.5155 B   0  0  0  0  0  0  0  0  0  0  0  0
    4.6451   -0.3796    0.9042 F   0  0  0  0  0  0  0  0  0  0  0  0
    3.0204    1.2073    0.5316 F   0  0  0  0  0  0  0  0  0  0  0  0
    2.6065   -0.5421    1.9602 F   0  0  0  0  0  0  0  0  0  0  0  0
    4.0853    1.1166    2.5703 F   0  0  0  0  0  0  0  0  0  0  0  0
   -3.2268    1.4379    1.0173 O   0  0  0  0  0  0  0  0  0  0  0  0
   -3.4796    1.1170    2.3926 C   0  0  0  0  0  0  0  0  0  0  0  0
   -4.5169    1.3978    2.5692 H   0  0  0  0  0  0  0  0  0  0  0  0
   -2.8237    1.6906    3.0543 H   0  0  0  0  0  0  0  0  0  0  0  0
   -3.3505    0.0452    2.5739 H   0  0  0  0  0  0  0  0  0  0  0  0
  1  7  1  0  0  0  0
  2  8  1  0  0  0  0
  2  1  1  0  0  0  0
  3  2  2  0  0  0  0
  4  5  2  0  0  0  0
  4  3  1  0  0  0  0
  5  6  1  0  0  0  0
  6 18  1  0  0  0  0
  6  1  2  0  0  0  0
  9  4  1  0  0  0  0
 10  5  1  0  0  0  0
 11  3  1  0  0  0  0
 12 11  1  0  0  0  0
 13 16  1  0  0  0  0
 13 17  1  0  0  0  0
 14 13  1  0  0  0  0
 15 13  1  0  0  0  0
 18 19  1  0  0  0  0
 19 20  1  0  0  0  0
 19 22  1  0  0  0  0
 19 21  1  0  0  0  0
M  RAD  2  11   2  12   3
M  END
