Coordinates from ORCA-job p-CH3O-Ph-N2-X-BF4-B3LYPG-6-31G_dp-scan-d09-49-n400
 OpenBabel08281821133D

 22 21  0  0  0  0  0  0  0  0999 V2000
   -1.5292    0.7506    1.5332 C   0  0  0  0  0  0  0  0  0  0  0  0
   -0.1469    0.6533    1.4304 C   0  0  0  0  0  0  0  0  0  0  0  0
    0.4861    0.9304    0.2019 C   0  0  0  0  0  0  0  0  0  0  0  0
   -0.2971    1.3044   -0.9108 C   0  0  0  0  0  0  0  0  0  0  0  0
   -1.6704    1.4024   -0.8082 C   0  0  0  0  0  0  0  0  0  0  0  0
   -2.3007    1.1250    0.4192 C   0  0  0  0  0  0  0  0  0  0  0  0
   -1.9984    0.5320    2.4844 H   0  0  0  0  0  0  0  0  0  0  0  0
    0.4413    0.3655    2.2874 H   0  0  0  0  0  0  0  0  0  0  0  0
    0.2070    1.5138   -1.8481 H   0  0  0  0  0  0  0  0  0  0  0  0
   -2.2843    1.6897   -1.6545 H   0  0  0  0  0  0  0  0  0  0  0  0
    1.8584    0.8785   -0.0680 N   0  0  0  0  0  0  0  0  0  0  0  0
    2.8115    0.6104    0.6206 N   0  0  0  0  0  0  0  0  0  0  0  0
    5.0174    0.5164    0.2125 B   0  0  0  0  0  0  0  0  0  0  0  0
    2.5154    0.2714    2.0110 F   0  0  0  0  0  0  0  0  0  0  0  0
    4.8859    0.7896   -1.0827 F   0  0  0  0  0  0  0  0  0  0  0  0
    5.3465    1.4928    1.0514 F   0  0  0  0  0  0  0  0  0  0  0  0
    5.1632   -0.7466    0.5984 F   0  0  0  0  0  0  0  0  0  0  0  0
   -3.6463    1.2457    0.4255 O   0  0  0  0  0  0  0  0  0  0  0  0
   -4.3583    0.9796    1.6311 C   0  0  0  0  0  0  0  0  0  0  0  0
   -5.4111    1.1365    1.3939 H   0  0  0  0  0  0  0  0  0  0  0  0
   -4.0597    1.6669    2.4311 H   0  0  0  0  0  0  0  0  0  0  0  0
   -4.2104   -0.0550    1.9619 H   0  0  0  0  0  0  0  0  0  0  0  0
  1  7  1  0  0  0  0
  2  1  1  0  0  0  0
  2  8  1  0  0  0  0
  3  2  2  0  0  0  0
  4  5  2  0  0  0  0
  4  3  1  0  0  0  0
  5  6  1  0  0  0  0
  6 18  1  0  0  0  0
  6  1  2  0  0  0  0
  9  4  1  0  0  0  0
 10  5  1  0  0  0  0
 11  3  1  0  0  0  0
 11 12  2  0  0  0  0
 12 14  1  0  0  0  0
 13 17  1  0  0  0  0
 13 16  1  0  0  0  0
 15 13  1  0  0  0  0
 18 19  1  0  0  0  0
 19 22  1  0  0  0  0
 19 21  1  0  0  0  0
 20 19  1  0  0  0  0
M  END
