Coordinates from ORCA-job p-CH3O-Ph-N2-X-BF4-B3LYPG-6-31G_dp-scan-d09-49-n400
 OpenBabel08281821133D

 22 21  0  0  0  0  0  0  0  0999 V2000
   -0.9604    0.6735    1.2589 C   0  0  0  0  0  0  0  0  0  0  0  0
    0.2889    0.4926    0.6895 C   0  0  0  0  0  0  0  0  0  0  0  0
    0.4445    0.8518   -0.6620 C   0  0  0  0  0  0  0  0  0  0  0  0
   -0.6072    1.3832   -1.4475 C   0  0  0  0  0  0  0  0  0  0  0  0
   -1.8337    1.5612   -0.8543 C   0  0  0  0  0  0  0  0  0  0  0  0
   -2.0224    1.2109    0.5060 C   0  0  0  0  0  0  0  0  0  0  0  0
   -1.0966    0.4020    2.2977 H   0  0  0  0  0  0  0  0  0  0  0  0
    1.1345    0.0882    1.2525 H   0  0  0  0  0  0  0  0  0  0  0  0
   -0.4409    1.6475   -2.4859 H   0  0  0  0  0  0  0  0  0  0  0  0
   -2.6720    1.9707   -1.4058 H   0  0  0  0  0  0  0  0  0  0  0  0
    1.6488    0.6669   -1.2902 N   0  0  0  0  0  0  0  0  0  0  0  0
    2.5536    0.5095   -1.9231 N   0  0  0  0  0  0  0  0  0  0  0  0
    3.6632    0.3707    1.4127 B   0  0  0  0  0  0  0  0  0  0  0  0
    4.4796   -0.2992    0.5087 F   0  0  0  0  0  0  0  0  0  0  0  0
    2.9268    1.3853    0.6978 F   0  0  0  0  0  0  0  0  0  0  0  0
    2.6818   -0.5409    1.9218 F   0  0  0  0  0  0  0  0  0  0  0  0
    4.3618    0.9506    2.4466 F   0  0  0  0  0  0  0  0  0  0  0  0
   -3.2536    1.4304    0.9805 O   0  0  0  0  0  0  0  0  0  0  0  0
   -3.5482    1.1261    2.3506 C   0  0  0  0  0  0  0  0  0  0  0  0
   -4.5926    1.4015    2.4903 H   0  0  0  0  0  0  0  0  0  0  0  0
   -2.9182    1.7131    3.0257 H   0  0  0  0  0  0  0  0  0  0  0  0
   -3.4178    0.0577    2.5508 H   0  0  0  0  0  0  0  0  0  0  0  0
  1  7  1  0  0  0  0
  2  8  1  0  0  0  0
  2  1  1  0  0  0  0
  3  2  2  0  0  0  0
  4  5  2  0  0  0  0
  4  3  1  0  0  0  0
  5  6  1  0  0  0  0
  6 18  1  0  0  0  0
  6  1  2  0  0  0  0
  9  4  1  0  0  0  0
 10  5  1  0  0  0  0
 11  3  1  0  0  0  0
 12 11  1  0  0  0  0
 13 16  1  0  0  0  0
 13 17  1  0  0  0  0
 14 13  1  0  0  0  0
 15 13  1  0  0  0  0
 18 19  1  0  0  0  0
 19 20  1  0  0  0  0
 19 22  1  0  0  0  0
 19 21  1  0  0  0  0
M  RAD  2  11   2  12   3
M  END
