Coordinates from ORCA-job p-CH3O-Ph-N2-X-BF4-B3LYPG-6-31G_dp-scan-d09-49-n400
 OpenBabel08281821133D

 22 21  0  0  0  0  0  0  0  0999 V2000
   -0.9642    0.6754    1.2653 C   0  0  0  0  0  0  0  0  0  0  0  0
    0.2877    0.4937    0.7019 C   0  0  0  0  0  0  0  0  0  0  0  0
    0.4492    0.8498   -0.6498 C   0  0  0  0  0  0  0  0  0  0  0  0
   -0.5990    1.3799   -1.4406 C   0  0  0  0  0  0  0  0  0  0  0  0
   -1.8283    1.5586   -0.8533 C   0  0  0  0  0  0  0  0  0  0  0  0
   -2.0232    1.2105    0.5066 C   0  0  0  0  0  0  0  0  0  0  0  0
   -1.1052    0.4061    2.3041 H   0  0  0  0  0  0  0  0  0  0  0  0
    1.1307    0.0913    1.2697 H   0  0  0  0  0  0  0  0  0  0  0  0
   -0.4281    1.6423   -2.4787 H   0  0  0  0  0  0  0  0  0  0  0  0
   -2.6643    1.9667   -1.4094 H   0  0  0  0  0  0  0  0  0  0  0  0
    1.6564    0.6629   -1.2720 N   0  0  0  0  0  0  0  0  0  0  0  0
    2.5656    0.5002   -1.8973 N   0  0  0  0  0  0  0  0  0  0  0  0
    3.6638    0.3758    1.3974 B   0  0  0  0  0  0  0  0  0  0  0  0
    4.4389   -0.2885    0.4506 F   0  0  0  0  0  0  0  0  0  0  0  0
    2.9169    1.4101    0.7254 F   0  0  0  0  0  0  0  0  0  0  0  0
    2.6908   -0.5341    1.9235 F   0  0  0  0  0  0  0  0  0  0  0  0
    4.4087    0.9262    2.4137 F   0  0  0  0  0  0  0  0  0  0  0  0
   -3.2569    1.4297    0.9751 O   0  0  0  0  0  0  0  0  0  0  0  0
   -3.5577    1.1257    2.3439 C   0  0  0  0  0  0  0  0  0  0  0  0
   -4.6033    1.3996    2.4783 H   0  0  0  0  0  0  0  0  0  0  0  0
   -2.9320    1.7139    3.0219 H   0  0  0  0  0  0  0  0  0  0  0  0
   -3.4268    0.0576    2.5453 H   0  0  0  0  0  0  0  0  0  0  0  0
  1  7  1  0  0  0  0
  2  1  1  0  0  0  0
  2  8  1  0  0  0  0
  3  2  2  0  0  0  0
  4  5  2  0  0  0  0
  4  3  1  0  0  0  0
  5  6  1  0  0  0  0
  6 18  1  0  0  0  0
  6  1  2  0  0  0  0
  9  4  1  0  0  0  0
 10  5  1  0  0  0  0
 11  3  1  0  0  0  0
 12 11  1  0  0  0  0
 13 16  1  0  0  0  0
 13 17  1  0  0  0  0
 14 13  1  0  0  0  0
 15 13  1  0  0  0  0
 18 19  1  0  0  0  0
 19 20  1  0  0  0  0
 19 22  1  0  0  0  0
 19 21  1  0  0  0  0
M  RAD  2  11   2  12   3
M  END
