Coordinates from ORCA-job p-CH3O-Ph-N2-X-BF4-B3LYPG-6-31G_dp-scan-d09-49-n400
 OpenBabel08281821133D

 22 21  0  0  0  0  0  0  0  0999 V2000
   -0.9756    0.6735    1.2812 C   0  0  0  0  0  0  0  0  0  0  0  0
    0.2811    0.4844    0.7310 C   0  0  0  0  0  0  0  0  0  0  0  0
    0.4586    0.8355   -0.6200 C   0  0  0  0  0  0  0  0  0  0  0  0
   -0.5782    1.3684   -1.4225 C   0  0  0  0  0  0  0  0  0  0  0  0
   -1.8131    1.5548   -0.8487 C   0  0  0  0  0  0  0  0  0  0  0  0
   -2.0242    1.2106    0.5094 C   0  0  0  0  0  0  0  0  0  0  0  0
   -1.1293    0.4080    2.3191 H   0  0  0  0  0  0  0  0  0  0  0  0
    1.1177    0.0813    1.3061 H   0  0  0  0  0  0  0  0  0  0  0  0
   -0.3949    1.6276   -2.4593 H   0  0  0  0  0  0  0  0  0  0  0  0
   -2.6412    1.9654   -1.4147 H   0  0  0  0  0  0  0  0  0  0  0  0
    1.6730    0.6392   -1.2256 N   0  0  0  0  0  0  0  0  0  0  0  0
    2.5986    0.4648   -1.8230 N   0  0  0  0  0  0  0  0  0  0  0  0
    3.6648    0.3965    1.3551 B   0  0  0  0  0  0  0  0  0  0  0  0
    4.3680   -0.2144    0.3121 F   0  0  0  0  0  0  0  0  0  0  0  0
    2.8828    1.4667    0.7978 F   0  0  0  0  0  0  0  0  0  0  0  0
    2.7266   -0.5436    1.8880 F   0  0  0  0  0  0  0  0  0  0  0  0
    4.4891    0.8763    2.3440 F   0  0  0  0  0  0  0  0  0  0  0  0
   -3.2625    1.4352    0.9641 O   0  0  0  0  0  0  0  0  0  0  0  0
   -3.5800    1.1322    2.3290 C   0  0  0  0  0  0  0  0  0  0  0  0
   -4.6262    1.4092    2.4516 H   0  0  0  0  0  0  0  0  0  0  0  0
   -2.9605    1.7183    3.0145 H   0  0  0  0  0  0  0  0  0  0  0  0
   -3.4547    0.0636    2.5321 H   0  0  0  0  0  0  0  0  0  0  0  0
  1  7  1  0  0  0  0
  2  1  1  0  0  0  0
  2  8  1  0  0  0  0
  3  2  2  0  0  0  0
  4  5  2  0  0  0  0
  4  3  1  0  0  0  0
  5  6  1  0  0  0  0
  6 18  1  0  0  0  0
  6  1  2  0  0  0  0
  9  4  1  0  0  0  0
 10  5  1  0  0  0  0
 11  3  1  0  0  0  0
 12 11  1  0  0  0  0
 13 16  1  0  0  0  0
 13 17  1  0  0  0  0
 14 13  1  0  0  0  0
 15 13  1  0  0  0  0
 18 19  1  0  0  0  0
 19 20  1  0  0  0  0
 19 22  1  0  0  0  0
 19 21  1  0  0  0  0
M  RAD  2  11   2  12   3
M  END
