Coordinates from ORCA-job p-CH3O-Ph-N2-X-BF4-B3LYPG-6-31G_dp-scan-d09-49-n400
 OpenBabel08281821133D

 22 22  0  0  0  0  0  0  0  0999 V2000
   -1.4620    0.6395    1.4930 C   0  0  0  0  0  0  0  0  0  0  0  0
   -0.0774    0.5242    1.3819 C   0  0  0  0  0  0  0  0  0  0  0  0
    0.5869    0.9455    0.2106 C   0  0  0  0  0  0  0  0  0  0  0  0
   -0.1923    1.4799   -0.8389 C   0  0  0  0  0  0  0  0  0  0  0  0
   -1.5639    1.6006   -0.7318 C   0  0  0  0  0  0  0  0  0  0  0  0
   -2.2154    1.1806    0.4412 C   0  0  0  0  0  0  0  0  0  0  0  0
   -1.9411    0.3038    2.4045 H   0  0  0  0  0  0  0  0  0  0  0  0
    0.4486    0.0970    2.2256 H   0  0  0  0  0  0  0  0  0  0  0  0
    0.3249    1.7961   -1.7383 H   0  0  0  0  0  0  0  0  0  0  0  0
   -2.1601    2.0135   -1.5383 H   0  0  0  0  0  0  0  0  0  0  0  0
    1.9672    0.9107   -0.1054 N   0  0  0  0  0  0  0  0  0  0  0  0
    2.8234    0.5149    0.7474 N   0  0  0  0  0  0  0  0  0  0  0  0
    4.5398    0.5211    0.2700 B   0  0  0  0  0  0  0  0  0  0  0  0
    2.5962    0.2170    1.6423 F   0  0  0  0  0  0  0  0  0  0  0  0
    4.5900   -0.2663   -0.8318 F   0  0  0  0  0  0  0  0  0  0  0  0
    4.8314    1.8339    0.0886 F   0  0  0  0  0  0  0  0  0  0  0  0
    5.0386   -0.0371    1.4215 F   0  0  0  0  0  0  0  0  0  0  0  0
   -3.5604    1.3377    0.4575 O   0  0  0  0  0  0  0  0  0  0  0  0
   -4.2844    0.9332    1.6144 C   0  0  0  0  0  0  0  0  0  0  0  0
   -5.3304    1.1601    1.4053 H   0  0  0  0  0  0  0  0  0  0  0  0
   -3.9636    1.4895    2.5030 H   0  0  0  0  0  0  0  0  0  0  0  0
   -4.1760   -0.1422    1.7993 H   0  0  0  0  0  0  0  0  0  0  0  0
  1  7  1  0  0  0  0
  2  1  1  0  0  0  0
  2  8  1  0  0  0  0
  3  2  2  0  0  0  0
  4  5  2  0  0  0  0
  4  3  1  0  0  0  0
  5  6  1  0  0  0  0
  6 18  1  0  0  0  0
  6  1  2  0  0  0  0
  9  4  1  0  0  0  0
 10  5  1  0  0  0  0
 11  3  1  0  0  0  0
 11 12  1  0  0  0  0
 12 14  1  0  0  0  0
 13 12  1  0  0  0  0
 13 17  1  0  0  0  0
 15 13  1  0  0  0  0
 16 13  1  0  0  0  0
 18 19  1  0  0  0  0
 19 22  1  0  0  0  0
 19 21  1  0  0  0  0
 20 19  1  0  0  0  0
M  RAD  1  11   2
M  END
