Coordinates from ORCA-job p-CH3O-Ph-N2-X-BF4-B3LYPG-6-31G_dp-scan-d09-49-n400
 OpenBabel08281821133D

 22 21  0  0  0  0  0  0  0  0999 V2000
   -1.5510    0.7479    1.5219 C   0  0  0  0  0  0  0  0  0  0  0  0
   -0.1709    0.6433    1.4003 C   0  0  0  0  0  0  0  0  0  0  0  0
    0.4405    0.9220    0.1629 C   0  0  0  0  0  0  0  0  0  0  0  0
   -0.3494    1.3043   -0.9402 C   0  0  0  0  0  0  0  0  0  0  0  0
   -1.7208    1.4090   -0.8166 C   0  0  0  0  0  0  0  0  0  0  0  0
   -2.3348    1.1306    0.4193 C   0  0  0  0  0  0  0  0  0  0  0  0
   -2.0088    0.5287    2.4785 H   0  0  0  0  0  0  0  0  0  0  0  0
    0.4429    0.3512    2.2384 H   0  0  0  0  0  0  0  0  0  0  0  0
    0.1419    1.5146   -1.8841 H   0  0  0  0  0  0  0  0  0  0  0  0
   -2.3457    1.7026   -1.6525 H   0  0  0  0  0  0  0  0  0  0  0  0
    1.8128    0.8559   -0.0982 N   0  0  0  0  0  0  0  0  0  0  0  0
    2.7795    0.5869    0.5461 N   0  0  0  0  0  0  0  0  0  0  0  0
    5.1909    0.5236    0.2423 B   0  0  0  0  0  0  0  0  0  0  0  0
    2.4854    0.2201    2.0353 F   0  0  0  0  0  0  0  0  0  0  0  0
    5.0778    0.7807   -1.0537 F   0  0  0  0  0  0  0  0  0  0  0  0
    5.4055    1.5174    1.0888 F   0  0  0  0  0  0  0  0  0  0  0  0
    5.3049   -0.7284    0.6531 F   0  0  0  0  0  0  0  0  0  0  0  0
   -3.6796    1.2590    0.4440 O   0  0  0  0  0  0  0  0  0  0  0  0
   -4.3766    0.9934    1.6586 C   0  0  0  0  0  0  0  0  0  0  0  0
   -5.4313    1.1594    1.4369 H   0  0  0  0  0  0  0  0  0  0  0  0
   -4.0614    1.6750    2.4571 H   0  0  0  0  0  0  0  0  0  0  0  0
   -4.2319   -0.0435    1.9831 H   0  0  0  0  0  0  0  0  0  0  0  0
  1  7  1  0  0  0  0
  2  1  1  0  0  0  0
  2  8  1  0  0  0  0
  3  2  2  0  0  0  0
  4  5  2  0  0  0  0
  4  3  1  0  0  0  0
  5  6  1  0  0  0  0
  6 18  1  0  0  0  0
  6  1  2  0  0  0  0
  9  4  1  0  0  0  0
 10  5  1  0  0  0  0
 11  3  1  0  0  0  0
 11 12  1  0  0  0  0
 12 14  1  0  0  0  0
 13 17  1  0  0  0  0
 13 16  1  0  0  0  0
 15 13  1  0  0  0  0
 18 19  1  0  0  0  0
 19 22  1  0  0  0  0
 19 21  1  0  0  0  0
 20 19  1  0  0  0  0
M  RAD  2  11   2  12   2
M  END
