Coordinates from ORCA-job p-CH3O-Ph-N2-X-BF4-B3LYPG-6-31G_dp-scan-d09-49-n400
 OpenBabel08281821133D

 22 21  0  0  0  0  0  0  0  0999 V2000
   -0.9901    0.6625    1.2867 C   0  0  0  0  0  0  0  0  0  0  0  0
    0.2720    0.4693    0.7495 C   0  0  0  0  0  0  0  0  0  0  0  0
    0.4715    0.8255   -0.5975 C   0  0  0  0  0  0  0  0  0  0  0  0
   -0.5512    1.3681   -1.4066 C   0  0  0  0  0  0  0  0  0  0  0  0
   -1.7940    1.5593   -0.8485 C   0  0  0  0  0  0  0  0  0  0  0  0
   -2.0253    1.2088    0.5033 C   0  0  0  0  0  0  0  0  0  0  0  0
   -1.1588    0.3930    2.3212 H   0  0  0  0  0  0  0  0  0  0  0  0
    1.0945    0.0595    1.3360 H   0  0  0  0  0  0  0  0  0  0  0  0
   -0.3521    1.6317   -2.4393 H   0  0  0  0  0  0  0  0  0  0  0  0
   -2.6123    1.9775   -1.4230 H   0  0  0  0  0  0  0  0  0  0  0  0
    1.7017    0.6256   -1.1692 N   0  0  0  0  0  0  0  0  0  0  0  0
    2.7166    0.4234   -1.5947 N   0  0  0  0  0  0  0  0  0  0  0  0
    3.6414    0.4376    1.3166 B   0  0  0  0  0  0  0  0  0  0  0  0
    4.0014   -0.2252    0.0999 F   0  0  0  0  0  0  0  0  0  0  0  0
    2.8844    1.5832    0.9539 F   0  0  0  0  0  0  0  0  0  0  0  0
    2.7815   -0.4281    2.0411 F   0  0  0  0  0  0  0  0  0  0  0  0
    4.7540    0.7728    2.0417 F   0  0  0  0  0  0  0  0  0  0  0  0
   -3.2704    1.4358    0.9432 O   0  0  0  0  0  0  0  0  0  0  0  0
   -3.6071    1.1218    2.2999 C   0  0  0  0  0  0  0  0  0  0  0  0
   -4.6540    1.4012    2.4115 H   0  0  0  0  0  0  0  0  0  0  0  0
   -2.9955    1.6992    3.0000 H   0  0  0  0  0  0  0  0  0  0  0  0
   -3.4885    0.0510    2.4958 H   0  0  0  0  0  0  0  0  0  0  0  0
  1  7  1  0  0  0  0
  2  1  1  0  0  0  0
  2  8  1  0  0  0  0
  3  2  2  0  0  0  0
  4  5  2  0  0  0  0
  4  3  1  0  0  0  0
  5  6  1  0  0  0  0
  6 18  1  0  0  0  0
  6  1  2  0  0  0  0
  9  4  1  0  0  0  0
 10  5  1  0  0  0  0
 11  3  1  0  0  0  0
 12 11  1  0  0  0  0
 13 16  1  0  0  0  0
 13 17  1  0  0  0  0
 14 13  1  0  0  0  0
 15 13  1  0  0  0  0
 18 19  1  0  0  0  0
 19 20  1  0  0  0  0
 19 22  1  0  0  0  0
 19 21  1  0  0  0  0
M  RAD  2  11   2  12   3
M  END
