Coordinates from ORCA-job p-CH3O-Ph-N2-X-BF4-B3LYPG-6-31G_dp-scan-d09-49-n400
 OpenBabel08281821133D

 22 21  0  0  0  0  0  0  0  0999 V2000
   -0.9403    0.6724    1.2271 C   0  0  0  0  0  0  0  0  0  0  0  0
    0.2965    0.4969    0.6300 C   0  0  0  0  0  0  0  0  0  0  0  0
    0.4227    0.8680   -0.7217 C   0  0  0  0  0  0  0  0  0  0  0  0
   -0.6467    1.4042   -1.4809 C   0  0  0  0  0  0  0  0  0  0  0  0
   -1.8597    1.5762   -0.8599 C   0  0  0  0  0  0  0  0  0  0  0  0
   -2.0187    1.2152    0.5020 C   0  0  0  0  0  0  0  0  0  0  0  0
   -1.0524    0.3927    2.2667 H   0  0  0  0  0  0  0  0  0  0  0  0
    1.1516    0.0868    1.1762 H   0  0  0  0  0  0  0  0  0  0  0  0
   -0.5031    1.6768   -2.5205 H   0  0  0  0  0  0  0  0  0  0  0  0
   -2.7102    1.9894   -1.3896 H   0  0  0  0  0  0  0  0  0  0  0  0
    1.6140    0.6933   -1.3747 N   0  0  0  0  0  0  0  0  0  0  0  0
    2.5152    0.5569   -2.0174 N   0  0  0  0  0  0  0  0  0  0  0  0
    3.6535    0.3466    1.4869 B   0  0  0  0  0  0  0  0  0  0  0  0
    4.5956   -0.3881    0.7862 F   0  0  0  0  0  0  0  0  0  0  0  0
    3.0018    1.2575    0.5733 F   0  0  0  0  0  0  0  0  0  0  0  0
    2.6238   -0.5314    1.9625 F   0  0  0  0  0  0  0  0  0  0  0  0
    4.1894    1.0603    2.5364 F   0  0  0  0  0  0  0  0  0  0  0  0
   -3.2388    1.4304    1.0045 O   0  0  0  0  0  0  0  0  0  0  0  0
   -3.5033    1.1157    2.3789 C   0  0  0  0  0  0  0  0  0  0  0  0
   -4.5445    1.3895    2.5433 H   0  0  0  0  0  0  0  0  0  0  0  0
   -2.8587    1.6981    3.0440 H   0  0  0  0  0  0  0  0  0  0  0  0
   -3.3680    0.0460    2.5680 H   0  0  0  0  0  0  0  0  0  0  0  0
  1  7  1  0  0  0  0
  2  8  1  0  0  0  0
  2  1  1  0  0  0  0
  3  2  2  0  0  0  0
  4  5  2  0  0  0  0
  4  3  1  0  0  0  0
  5  6  1  0  0  0  0
  6 18  1  0  0  0  0
  6  1  2  0  0  0  0
  9  4  1  0  0  0  0
 10  5  1  0  0  0  0
 11  3  1  0  0  0  0
 12 11  1  0  0  0  0
 13 16  1  0  0  0  0
 13 17  1  0  0  0  0
 14 13  1  0  0  0  0
 15 13  1  0  0  0  0
 18 19  1  0  0  0  0
 19 20  1  0  0  0  0
 19 22  1  0  0  0  0
 19 21  1  0  0  0  0
M  RAD  2  11   2  12   3
M  END
