Coordinates from ORCA-job p-CH3O-Ph-N2-X-BF4-B3LYPG-6-31G_dp-scan-d09-49-n400
 OpenBabel08281821133D

 22 21  0  0  0  0  0  0  0  0999 V2000
   -0.9237    0.6635    1.2004 C   0  0  0  0  0  0  0  0  0  0  0  0
    0.3015    0.4877    0.5801 C   0  0  0  0  0  0  0  0  0  0  0  0
    0.4061    0.8732   -0.7696 C   0  0  0  0  0  0  0  0  0  0  0  0
   -0.6741    1.4216   -1.5053 C   0  0  0  0  0  0  0  0  0  0  0  0
   -1.8752    1.5918   -0.8618 C   0  0  0  0  0  0  0  0  0  0  0  0
   -2.0119    1.2186    0.4996 C   0  0  0  0  0  0  0  0  0  0  0  0
   -1.0176    0.3740    2.2391 H   0  0  0  0  0  0  0  0  0  0  0  0
    1.1617    0.0669    1.1111 H   0  0  0  0  0  0  0  0  0  0  0  0
   -0.5470    1.7046   -2.5442 H   0  0  0  0  0  0  0  0  0  0  0  0
   -2.7332    2.0136   -1.3723 H   0  0  0  0  0  0  0  0  0  0  0  0
    1.5882    0.7071   -1.4390 N   0  0  0  0  0  0  0  0  0  0  0  0
    2.4945    0.5820   -2.0768 N   0  0  0  0  0  0  0  0  0  0  0  0
    3.6339    0.3372    1.5412 B   0  0  0  0  0  0  0  0  0  0  0  0
    4.6656   -0.4170    1.0147 F   0  0  0  0  0  0  0  0  0  0  0  0
    3.0557    1.1427    0.4893 F   0  0  0  0  0  0  0  0  0  0  0  0
    2.5816   -0.5325    1.9849 F   0  0  0  0  0  0  0  0  0  0  0  0
    4.0302    1.1595    2.5753 F   0  0  0  0  0  0  0  0  0  0  0  0
   -3.2215    1.4350    1.0253 O   0  0  0  0  0  0  0  0  0  0  0  0
   -3.4628    1.1110    2.4022 C   0  0  0  0  0  0  0  0  0  0  0  0
   -4.4994    1.3887    2.5872 H   0  0  0  0  0  0  0  0  0  0  0  0
   -2.8031    1.6851    3.0596 H   0  0  0  0  0  0  0  0  0  0  0  0
   -3.3294    0.0392    2.5804 H   0  0  0  0  0  0  0  0  0  0  0  0
  1  7  1  0  0  0  0
  2  8  1  0  0  0  0
  2  1  1  0  0  0  0
  3  2  2  0  0  0  0
  4  5  2  0  0  0  0
  4  3  1  0  0  0  0
  5  6  1  0  0  0  0
  6 18  1  0  0  0  0
  6  1  2  0  0  0  0
  9  4  1  0  0  0  0
 10  5  1  0  0  0  0
 11  3  1  0  0  0  0
 12 11  1  0  0  0  0
 13 16  1  0  0  0  0
 13 17  1  0  0  0  0
 14 13  1  0  0  0  0
 15 13  1  0  0  0  0
 18 19  1  0  0  0  0
 19 22  1  0  0  0  0
 19 20  1  0  0  0  0
 19 21  1  0  0  0  0
M  RAD  2  11   2  12   3
M  END
