Coordinates from ORCA-job p-CH3O-Ph-N2-X-BF4-B3LYPG-6-31G_dp-scan-d09-49-n400
 OpenBabel08281821133D

 22 21  0  0  0  0  0  0  0  0999 V2000
   -0.9732    0.6746    1.2782 C   0  0  0  0  0  0  0  0  0  0  0  0
    0.2827    0.4874    0.7256 C   0  0  0  0  0  0  0  0  0  0  0  0
    0.4570    0.8392   -0.6257 C   0  0  0  0  0  0  0  0  0  0  0  0
   -0.5821    1.3712   -1.4260 C   0  0  0  0  0  0  0  0  0  0  0  0
   -1.8161    1.5556   -0.8497 C   0  0  0  0  0  0  0  0  0  0  0  0
   -2.0240    1.2107    0.5088 C   0  0  0  0  0  0  0  0  0  0  0  0
   -1.1243    0.4085    2.3163 H   0  0  0  0  0  0  0  0  0  0  0  0
    1.1206    0.0849    1.2996 H   0  0  0  0  0  0  0  0  0  0  0  0
   -0.4014    1.6309   -2.4631 H   0  0  0  0  0  0  0  0  0  0  0  0
   -2.6458    1.9653   -1.4138 H   0  0  0  0  0  0  0  0  0  0  0  0
    1.6700    0.6449   -1.2347 N   0  0  0  0  0  0  0  0  0  0  0  0
    2.5916    0.4721   -1.8388 N   0  0  0  0  0  0  0  0  0  0  0  0
    3.6646    0.3918    1.3636 B   0  0  0  0  0  0  0  0  0  0  0  0
    4.3795   -0.2340    0.3392 F   0  0  0  0  0  0  0  0  0  0  0  0
    2.8905    1.4559    0.7817 F   0  0  0  0  0  0  0  0  0  0  0  0
    2.7182   -0.5391    1.8989 F   0  0  0  0  0  0  0  0  0  0  0  0
    4.4759    0.8859    2.3565 F   0  0  0  0  0  0  0  0  0  0  0  0
   -3.2616    1.4336    0.9661 O   0  0  0  0  0  0  0  0  0  0  0  0
   -3.5758    1.1299    2.3317 C   0  0  0  0  0  0  0  0  0  0  0  0
   -4.6221    1.4056    2.4566 H   0  0  0  0  0  0  0  0  0  0  0  0
   -2.9556    1.7168    3.0160 H   0  0  0  0  0  0  0  0  0  0  0  0
   -3.4487    0.0615    2.5343 H   0  0  0  0  0  0  0  0  0  0  0  0
  1  7  1  0  0  0  0
  2  1  1  0  0  0  0
  2  8  1  0  0  0  0
  3  2  2  0  0  0  0
  4  5  2  0  0  0  0
  4  3  1  0  0  0  0
  5  6  1  0  0  0  0
  6 18  1  0  0  0  0
  6  1  2  0  0  0  0
  9  4  1  0  0  0  0
 10  5  1  0  0  0  0
 11  3  1  0  0  0  0
 12 11  1  0  0  0  0
 13 16  1  0  0  0  0
 13 17  1  0  0  0  0
 14 13  1  0  0  0  0
 15 13  1  0  0  0  0
 18 19  1  0  0  0  0
 19 20  1  0  0  0  0
 19 22  1  0  0  0  0
 19 21  1  0  0  0  0
M  RAD  2  11   2  12   3
M  END
