Coordinates from ORCA-job p-CH3O-Ph-N2-X-BF4-B3LYPG-6-31G_dp-scan-d09-49-n400
 OpenBabel08281821133D

 22 22  0  0  0  0  0  0  0  0999 V2000
   -1.4595    0.7358    1.5291 C   0  0  0  0  0  0  0  0  0  0  0  0
   -0.0788    0.6305    1.4261 C   0  0  0  0  0  0  0  0  0  0  0  0
    0.5641    0.9086    0.1989 C   0  0  0  0  0  0  0  0  0  0  0  0
   -0.2250    1.2914   -0.9109 C   0  0  0  0  0  0  0  0  0  0  0  0
   -1.5966    1.3976   -0.8100 C   0  0  0  0  0  0  0  0  0  0  0  0
   -2.2296    1.1201    0.4162 C   0  0  0  0  0  0  0  0  0  0  0  0
   -1.9306    0.5161    2.4791 H   0  0  0  0  0  0  0  0  0  0  0  0
    0.4837    0.3331    2.2978 H   0  0  0  0  0  0  0  0  0  0  0  0
    0.2832    1.5010   -1.8458 H   0  0  0  0  0  0  0  0  0  0  0  0
   -2.2076    1.6921   -1.6558 H   0  0  0  0  0  0  0  0  0  0  0  0
    1.9272    0.8637   -0.1047 N   0  0  0  0  0  0  0  0  0  0  0  0
    2.8515    0.5742    0.6553 N   0  0  0  0  0  0  0  0  0  0  0  0
    4.5932    0.5541    0.2738 B   0  0  0  0  0  0  0  0  0  0  0  0
    2.5954    0.2730    1.8632 F   0  0  0  0  0  0  0  0  0  0  0  0
    4.6002    0.8034   -1.0562 F   0  0  0  0  0  0  0  0  0  0  0  0
    5.0513    1.5505    1.0788 F   0  0  0  0  0  0  0  0  0  0  0  0
    4.9325   -0.7059    0.6564 F   0  0  0  0  0  0  0  0  0  0  0  0
   -3.5717    1.2496    0.4242 O   0  0  0  0  0  0  0  0  0  0  0  0
   -4.2887    0.9876    1.6292 C   0  0  0  0  0  0  0  0  0  0  0  0
   -5.3390    1.1561    1.3902 H   0  0  0  0  0  0  0  0  0  0  0  0
   -3.9837    1.6703    2.4303 H   0  0  0  0  0  0  0  0  0  0  0  0
   -4.1516   -0.0494    1.9563 H   0  0  0  0  0  0  0  0  0  0  0  0
  1  7  1  0  0  0  0
  2  1  1  0  0  0  0
  2  8  1  0  0  0  0
  3  2  2  0  0  0  0
  4  5  2  0  0  0  0
  4  3  1  0  0  0  0
  5  6  1  0  0  0  0
  6 18  1  0  0  0  0
  6  1  2  0  0  0  0
  9  4  1  0  0  0  0
 10  5  1  0  0  0  0
 11  3  1  0  0  0  0
 11 12  1  0  0  0  0
 12 14  1  0  0  0  0
 13 12  1  0  0  0  0
 13 17  1  0  0  0  0
 13 16  1  0  0  0  0
 15 13  1  0  0  0  0
 18 19  1  0  0  0  0
 19 22  1  0  0  0  0
 19 21  1  0  0  0  0
 20 19  1  0  0  0  0
M  RAD  1  11   2
M  END
