Coordinates from ORCA-job p-CH3O-Ph-N2-X-BF4-B3LYPG-6-31G_dp-scan-d09-49-n400
 OpenBabel08281821133D

 22 21  0  0  0  0  0  0  0  0999 V2000
   -0.9003    0.2791    1.0765 C   0  0  0  0  0  0  0  0  0  0  0  0
    0.2693    0.0319    0.3801 C   0  0  0  0  0  0  0  0  0  0  0  0
    0.4990    0.7629   -0.7999 C   0  0  0  0  0  0  0  0  0  0  0  0
   -0.4006    1.7447   -1.2864 C   0  0  0  0  0  0  0  0  0  0  0  0
   -1.5483    1.9779   -0.5725 C   0  0  0  0  0  0  0  0  0  0  0  0
   -1.8065    1.2516    0.6194 C   0  0  0  0  0  0  0  0  0  0  0  0
   -1.0711   -0.2579    1.9996 H   0  0  0  0  0  0  0  0  0  0  0  0
    1.0230   -0.6638    0.7277 H   0  0  0  0  0  0  0  0  0  0  0  0
   -0.1772    2.2950   -2.1932 H   0  0  0  0  0  0  0  0  0  0  0  0
   -2.2693    2.7219   -0.8911 H   0  0  0  0  0  0  0  0  0  0  0  0
    1.6153    0.5182   -1.5433 N   0  0  0  0  0  0  0  0  0  0  0  0
    2.4462    0.3340   -2.2662 N   0  0  0  0  0  0  0  0  0  0  0  0
    3.1298    0.6392    1.4168 B   0  0  0  0  0  0  0  0  0  0  0  0
    4.2878    0.6878    2.1629 F   0  0  0  0  0  0  0  0  0  0  0  0
    3.0344   -0.5873    0.6670 F   0  0  0  0  0  0  0  0  0  0  0  0
    1.9915    0.7032    2.2534 F   0  0  0  0  0  0  0  0  0  0  0  0
    3.0481    1.6803    0.4592 F   0  0  0  0  0  0  0  0  0  0  0  0
   -2.9473    1.5750    1.2382 O   0  0  0  0  0  0  0  0  0  0  0  0
   -3.2755    0.9480    2.4848 C   0  0  0  0  0  0  0  0  0  0  0  0
   -4.2229    1.3893    2.7906 H   0  0  0  0  0  0  0  0  0  0  0  0
   -2.5093    1.1554    3.2384 H   0  0  0  0  0  0  0  0  0  0  0  0
   -3.3962   -0.1330    2.3595 H   0  0  0  0  0  0  0  0  0  0  0  0
  1  7  1  0  0  0  0
  2  8  1  0  0  0  0
  2  1  2  0  0  0  0
  3  2  1  0  0  0  0
  4  3  2  0  0  0  0
  4  5  1  0  0  0  0
  5  6  2  0  0  0  0
  6  1  1  0  0  0  0
  6 18  1  0  0  0  0
  9  4  1  0  0  0  0
 10  5  1  0  0  0  0
 11  3  1  0  0  0  0
 12 11  1  0  0  0  0
 13 14  1  0  0  0  0
 13 16  1  0  0  0  0
 15 13  1  0  0  0  0
 17 13  1  0  0  0  0
 18 19  1  0  0  0  0
 19 20  1  0  0  0  0
 19 21  1  0  0  0  0
 22 19  1  0  0  0  0
M  RAD  2  11   2  12   3
M  END
