Coordinates from ORCA-job p-CH3O-Ph-N2-X-BF4-B3LYPG-6-31G_dp-scan-d09-49-n400
 OpenBabel08281821133D

 22 21  0  0  0  0  0  0  0  0999 V2000
   -0.9910    0.6727    1.2985 C   0  0  0  0  0  0  0  0  0  0  0  0
    0.2716    0.4788    0.7634 C   0  0  0  0  0  0  0  0  0  0  0  0
    0.4678    0.8229   -0.5867 C   0  0  0  0  0  0  0  0  0  0  0  0
   -0.5578    1.3514   -1.4040 C   0  0  0  0  0  0  0  0  0  0  0  0
   -1.8001    1.5430   -0.8466 C   0  0  0  0  0  0  0  0  0  0  0  0
   -2.0287    1.2073    0.5103 C   0  0  0  0  0  0  0  0  0  0  0  0
   -1.1587    0.4125    2.3356 H   0  0  0  0  0  0  0  0  0  0  0  0
    1.1017    0.0752    1.3446 H   0  0  0  0  0  0  0  0  0  0  0  0
   -0.3613    1.6038   -2.4400 H   0  0  0  0  0  0  0  0  0  0  0  0
   -2.6208    1.9509   -1.4252 H   0  0  0  0  0  0  0  0  0  0  0  0
    1.6937    0.6198   -1.1666 N   0  0  0  0  0  0  0  0  0  0  0  0
    2.6591    0.4380   -1.6967 N   0  0  0  0  0  0  0  0  0  0  0  0
    3.6663    0.4174    1.3062 B   0  0  0  0  0  0  0  0  0  0  0  0
    4.2550   -0.1135    0.1389 F   0  0  0  0  0  0  0  0  0  0  0  0
    2.8623    1.5327    0.9130 F   0  0  0  0  0  0  0  0  0  0  0  0
    2.7727   -0.5589    1.8400 F   0  0  0  0  0  0  0  0  0  0  0  0
    4.6039    0.7923    2.2344 F   0  0  0  0  0  0  0  0  0  0  0  0
   -3.2731    1.4360    0.9485 O   0  0  0  0  0  0  0  0  0  0  0  0
   -3.6071    1.1424    2.3109 C   0  0  0  0  0  0  0  0  0  0  0  0
   -4.6544    1.4215    2.4195 H   0  0  0  0  0  0  0  0  0  0  0  0
   -2.9952    1.7321    3.0003 H   0  0  0  0  0  0  0  0  0  0  0  0
   -3.4859    0.0751    2.5230 H   0  0  0  0  0  0  0  0  0  0  0  0
  1  7  1  0  0  0  0
  2  1  1  0  0  0  0
  2  8  1  0  0  0  0
  3  2  2  0  0  0  0
  4  5  2  0  0  0  0
  4  3  1  0  0  0  0
  5  6  1  0  0  0  0
  6 18  1  0  0  0  0
  6  1  2  0  0  0  0
  9  4  1  0  0  0  0
 10  5  1  0  0  0  0
 11  3  1  0  0  0  0
 12 11  1  0  0  0  0
 13 16  1  0  0  0  0
 13 17  1  0  0  0  0
 14 13  1  0  0  0  0
 15 13  1  0  0  0  0
 18 19  1  0  0  0  0
 19 20  1  0  0  0  0
 19 22  1  0  0  0  0
 19 21  1  0  0  0  0
M  RAD  2  11   2  12   3
M  END
