Coordinates from ORCA-job p-CH3O-Ph-N2-X-BF4-B3LYPG-6-31G_dp-scan-d09-49-n400
 OpenBabel08281821133D

 22 21  0  0  0  0  0  0  0  0999 V2000
   -0.9224    0.6643    1.1987 C   0  0  0  0  0  0  0  0  0  0  0  0
    0.3022    0.4895    0.5769 C   0  0  0  0  0  0  0  0  0  0  0  0
    0.4049    0.8753   -0.7728 C   0  0  0  0  0  0  0  0  0  0  0  0
   -0.6764    1.4230   -1.5072 C   0  0  0  0  0  0  0  0  0  0  0  0
   -1.8770    1.5922   -0.8623 C   0  0  0  0  0  0  0  0  0  0  0  0
   -2.0118    1.2186    0.4993 C   0  0  0  0  0  0  0  0  0  0  0  0
   -1.0148    0.3747    2.2375 H   0  0  0  0  0  0  0  0  0  0  0  0
    1.1630    0.0691    1.1074 H   0  0  0  0  0  0  0  0  0  0  0  0
   -0.5508    1.7063   -2.5462 H   0  0  0  0  0  0  0  0  0  0  0  0
   -2.7359    2.0134   -1.3717 H   0  0  0  0  0  0  0  0  0  0  0  0
    1.5866    0.7105   -1.4431 N   0  0  0  0  0  0  0  0  0  0  0  0
    2.4938    0.5865   -2.0800 N   0  0  0  0  0  0  0  0  0  0  0  0
    3.6331    0.3349    1.5450 B   0  0  0  0  0  0  0  0  0  0  0  0
    4.6666   -0.4255    1.0314 F   0  0  0  0  0  0  0  0  0  0  0  0
    3.0621    1.1319    0.4828 F   0  0  0  0  0  0  0  0  0  0  0  0
    2.5768   -0.5291    1.9905 F   0  0  0  0  0  0  0  0  0  0  0  0
    4.0247    1.1658    2.5741 F   0  0  0  0  0  0  0  0  0  0  0  0
   -3.2210    1.4340    1.0264 O   0  0  0  0  0  0  0  0  0  0  0  0
   -3.4604    1.1096    2.4035 C   0  0  0  0  0  0  0  0  0  0  0  0
   -4.4971    1.3864    2.5898 H   0  0  0  0  0  0  0  0  0  0  0  0
   -2.8005    1.6842    3.0602 H   0  0  0  0  0  0  0  0  0  0  0  0
   -3.3259    0.0378    2.5813 H   0  0  0  0  0  0  0  0  0  0  0  0
  1  7  1  0  0  0  0
  2  8  1  0  0  0  0
  2  1  1  0  0  0  0
  3  2  2  0  0  0  0
  4  5  2  0  0  0  0
  4  3  1  0  0  0  0
  5  6  1  0  0  0  0
  6 18  1  0  0  0  0
  6  1  2  0  0  0  0
  9  4  1  0  0  0  0
 10  5  1  0  0  0  0
 11  3  1  0  0  0  0
 12 11  1  0  0  0  0
 13 16  1  0  0  0  0
 13 17  1  0  0  0  0
 14 13  1  0  0  0  0
 15 13  1  0  0  0  0
 18 19  1  0  0  0  0
 19 22  1  0  0  0  0
 19 20  1  0  0  0  0
 19 21  1  0  0  0  0
M  RAD  2  11   2  12   3
M  END
