Coordinates from ORCA-job p-CH3O-Ph-N2-X-BF4-B3LYPG-6-31G_dp-scan-d09-49-n400
 OpenBabel08281821133D

 22 21  0  0  0  0  0  0  0  0999 V2000
   -0.9753    0.6363    1.2285 C   0  0  0  0  0  0  0  0  0  0  0  0
    0.2812    0.4561    0.6690 C   0  0  0  0  0  0  0  0  0  0  0  0
    0.4855    0.8436   -0.6684 C   0  0  0  0  0  0  0  0  0  0  0  0
   -0.5545    1.4064   -1.4350 C   0  0  0  0  0  0  0  0  0  0  0  0
   -1.8001    1.5780   -0.8698 C   0  0  0  0  0  0  0  0  0  0  0  0
   -2.0211    1.1951    0.4700 C   0  0  0  0  0  0  0  0  0  0  0  0
   -1.1302    0.3465    2.2599 H   0  0  0  0  0  0  0  0  0  0  0  0
    1.0874    0.0446    1.2617 H   0  0  0  0  0  0  0  0  0  0  0  0
   -0.3605    1.6987   -2.4609 H   0  0  0  0  0  0  0  0  0  0  0  0
   -2.6230    2.0072   -1.4298 H   0  0  0  0  0  0  0  0  0  0  0  0
    1.7112    0.7034   -1.3011 N   0  0  0  0  0  0  0  0  0  0  0  0
    2.8075    0.3414   -1.2341 N   0  0  0  0  0  0  0  0  0  0  0  0
    3.6206    0.5574    1.4463 B   0  0  0  0  0  0  0  0  0  0  0  0
    3.1154   -0.3923    0.2478 F   0  0  0  0  0  0  0  0  0  0  0  0
    3.2982    1.8104    0.9952 F   0  0  0  0  0  0  0  0  0  0  0  0
    2.8293    0.1283    2.4876 F   0  0  0  0  0  0  0  0  0  0  0  0
    4.9397    0.2985    1.5804 F   0  0  0  0  0  0  0  0  0  0  0  0
   -3.2664    1.4083    0.9322 O   0  0  0  0  0  0  0  0  0  0  0  0
   -3.5804    1.0575    2.2818 C   0  0  0  0  0  0  0  0  0  0  0  0
   -4.6279    1.3254    2.4181 H   0  0  0  0  0  0  0  0  0  0  0  0
   -2.9639    1.6200    2.9906 H   0  0  0  0  0  0  0  0  0  0  0  0
   -3.4526   -0.0174    2.4514 H   0  0  0  0  0  0  0  0  0  0  0  0
  1  7  1  0  0  0  0
  2  1  1  0  0  0  0
  2  8  1  0  0  0  0
  3  2  2  0  0  0  0
  4  5  2  0  0  0  0
  4  3  1  0  0  0  0
  5  6  1  0  0  0  0
  6 18  1  0  0  0  0
  6  1  2  0  0  0  0
  9  4  1  0  0  0  0
 10  5  1  0  0  0  0
 11 12  2  0  0  0  0
 11  3  1  0  0  0  0
 13 17  1  0  0  0  0
 13 16  1  0  0  0  0
 14 13  1  0  0  0  0
 15 13  1  0  0  0  0
 18 19  1  0  0  0  0
 19 20  1  0  0  0  0
 19 22  1  0  0  0  0
 19 21  1  0  0  0  0
M  RAD  1  12   2
M  END
