Coordinates from ORCA-job p-CH3O-Ph-N2-X-BF4-B3LYPG-6-31G_dp-scan-d09-49-n400
 OpenBabel08281821133D

 22 21  0  0  0  0  0  0  0  0999 V2000
   -0.9741    0.6359    1.2495 C   0  0  0  0  0  0  0  0  0  0  0  0
    0.2830    0.4493    0.6967 C   0  0  0  0  0  0  0  0  0  0  0  0
    0.4810    0.8310   -0.6432 C   0  0  0  0  0  0  0  0  0  0  0  0
   -0.5498    1.3896   -1.4268 C   0  0  0  0  0  0  0  0  0  0  0  0
   -1.7916    1.5714   -0.8601 C   0  0  0  0  0  0  0  0  0  0  0  0
   -2.0143    1.1984    0.4849 C   0  0  0  0  0  0  0  0  0  0  0  0
   -1.1337    0.3500    2.2811 H   0  0  0  0  0  0  0  0  0  0  0  0
    1.0942    0.0326    1.2875 H   0  0  0  0  0  0  0  0  0  0  0  0
   -0.3556    1.6728   -2.4552 H   0  0  0  0  0  0  0  0  0  0  0  0
   -2.6130    2.0010   -1.4219 H   0  0  0  0  0  0  0  0  0  0  0  0
    1.7119    0.6573   -1.2321 N   0  0  0  0  0  0  0  0  0  0  0  0
    2.7983    0.3945   -1.4125 N   0  0  0  0  0  0  0  0  0  0  0  0
    3.5764    0.4943    1.3788 B   0  0  0  0  0  0  0  0  0  0  0  0
    3.5653   -0.3407    0.1415 F   0  0  0  0  0  0  0  0  0  0  0  0
    2.9634    1.6966    1.0183 F   0  0  0  0  0  0  0  0  0  0  0  0
    2.7752   -0.1978    2.2955 F   0  0  0  0  0  0  0  0  0  0  0  0
    4.8662    0.6415    1.7922 F   0  0  0  0  0  0  0  0  0  0  0  0
   -3.2565    1.4220    0.9418 O   0  0  0  0  0  0  0  0  0  0  0  0
   -3.5754    1.0945    2.2981 C   0  0  0  0  0  0  0  0  0  0  0  0
   -4.6194    1.3776    2.4285 H   0  0  0  0  0  0  0  0  0  0  0  0
   -2.9516    1.6605    2.9972 H   0  0  0  0  0  0  0  0  0  0  0  0
   -3.4600    0.0210    2.4819 H   0  0  0  0  0  0  0  0  0  0  0  0
  1  7  1  0  0  0  0
  2  1  1  0  0  0  0
  2  8  1  0  0  0  0
  3  2  2  0  0  0  0
  4  5  2  0  0  0  0
  4  3  1  0  0  0  0
  5  6  1  0  0  0  0
  6 18  1  0  0  0  0
  6  1  2  0  0  0  0
  9  4  1  0  0  0  0
 10  5  1  0  0  0  0
 11  3  1  0  0  0  0
 12 11  1  0  0  0  0
 13 17  1  0  0  0  0
 13 16  1  0  0  0  0
 14 13  1  0  0  0  0
 15 13  1  0  0  0  0
 18 19  1  0  0  0  0
 19 20  1  0  0  0  0
 19 22  1  0  0  0  0
 19 21  1  0  0  0  0
M  RAD  2  11   2  12   3
M  END
