Coordinates from ORCA-job p-CH3O-Ph-N2-X-BF4-B3LYPG-6-31G_dp-scan-d09-49-n400
 OpenBabel08281821133D

 22 21  0  0  0  0  0  0  0  0999 V2000
   -0.9180    0.6670    1.1925 C   0  0  0  0  0  0  0  0  0  0  0  0
    0.3045    0.4957    0.5656 C   0  0  0  0  0  0  0  0  0  0  0  0
    0.4009    0.8828   -0.7843 C   0  0  0  0  0  0  0  0  0  0  0  0
   -0.6851    1.4279   -1.5140 C   0  0  0  0  0  0  0  0  0  0  0  0
   -1.8834    1.5933   -0.8640 C   0  0  0  0  0  0  0  0  0  0  0  0
   -2.0117    1.2188    0.4980 C   0  0  0  0  0  0  0  0  0  0  0  0
   -1.0047    0.3764    2.2316 H   0  0  0  0  0  0  0  0  0  0  0  0
    1.1676    0.0768    1.0936 H   0  0  0  0  0  0  0  0  0  0  0  0
   -0.5645    1.7121   -2.5534 H   0  0  0  0  0  0  0  0  0  0  0  0
   -2.7456    2.0123   -1.3697 H   0  0  0  0  0  0  0  0  0  0  0  0
    1.5812    0.7224   -1.4575 N   0  0  0  0  0  0  0  0  0  0  0  0
    2.4922    0.6022   -2.0896 N   0  0  0  0  0  0  0  0  0  0  0  0
    3.6300    0.3269    1.5584 B   0  0  0  0  0  0  0  0  0  0  0  0
    4.6716   -0.4520    1.0918 F   0  0  0  0  0  0  0  0  0  0  0  0
    3.0851    1.0924    0.4599 F   0  0  0  0  0  0  0  0  0  0  0  0
    2.5604   -0.5194    2.0068 F   0  0  0  0  0  0  0  0  0  0  0  0
    4.0015    1.1877    2.5703 F   0  0  0  0  0  0  0  0  0  0  0  0
   -3.2191    1.4307    1.0303 O   0  0  0  0  0  0  0  0  0  0  0  0
   -3.4515    1.1052    2.4084 C   0  0  0  0  0  0  0  0  0  0  0  0
   -4.4881    1.3790    2.5994 H   0  0  0  0  0  0  0  0  0  0  0  0
   -2.7903    1.6815    3.0623 H   0  0  0  0  0  0  0  0  0  0  0  0
   -3.3131    0.0338    2.5853 H   0  0  0  0  0  0  0  0  0  0  0  0
  1  7  1  0  0  0  0
  2  8  1  0  0  0  0
  2  1  1  0  0  0  0
  3  2  2  0  0  0  0
  4  5  2  0  0  0  0
  4  3  1  0  0  0  0
  5  6  1  0  0  0  0
  6 18  1  0  0  0  0
  6  1  2  0  0  0  0
  9  4  1  0  0  0  0
 10  5  1  0  0  0  0
 11  3  1  0  0  0  0
 12 11  1  0  0  0  0
 13 16  1  0  0  0  0
 13 17  1  0  0  0  0
 14 13  1  0  0  0  0
 15 13  1  0  0  0  0
 18 19  1  0  0  0  0
 19 22  1  0  0  0  0
 19 20  1  0  0  0  0
 19 21  1  0  0  0  0
M  RAD  2  11   2  12   3
M  END
