Coordinates from ORCA-job p-CH3O-Ph-N2-X-BF4-B3LYPG-6-31G_dp-scan-d09-49-n400
 OpenBabel08281821133D

 22 21  0  0  0  0  0  0  0  0999 V2000
   -0.8987    0.2791    1.0749 C   0  0  0  0  0  0  0  0  0  0  0  0
    0.2706    0.0322    0.3777 C   0  0  0  0  0  0  0  0  0  0  0  0
    0.4990    0.7632   -0.8027 C   0  0  0  0  0  0  0  0  0  0  0  0
   -0.4014    1.7449   -1.2883 C   0  0  0  0  0  0  0  0  0  0  0  0
   -1.5484    1.9780   -0.5734 C   0  0  0  0  0  0  0  0  0  0  0  0
   -1.8054    1.2515    0.6188 C   0  0  0  0  0  0  0  0  0  0  0  0
   -1.0682   -0.2576    1.9984 H   0  0  0  0  0  0  0  0  0  0  0  0
    1.0245   -0.6630    0.7258 H   0  0  0  0  0  0  0  0  0  0  0  0
   -0.1790    2.2951   -2.1954 H   0  0  0  0  0  0  0  0  0  0  0  0
   -2.2698    2.7219   -0.8913 H   0  0  0  0  0  0  0  0  0  0  0  0
    1.6128    0.5175   -1.5491 N   0  0  0  0  0  0  0  0  0  0  0  0
    2.4398    0.3329   -2.2767 N   0  0  0  0  0  0  0  0  0  0  0  0
    3.1275    0.6391    1.4221 B   0  0  0  0  0  0  0  0  0  0  0  0
    4.2822    0.6877    2.1738 F   0  0  0  0  0  0  0  0  0  0  0  0
    3.0353   -0.5870    0.6714 F   0  0  0  0  0  0  0  0  0  0  0  0
    1.9859    0.7023    2.2545 F   0  0  0  0  0  0  0  0  0  0  0  0
    3.0490    1.6806    0.4649 F   0  0  0  0  0  0  0  0  0  0  0  0
   -2.9457    1.5747    1.2386 O   0  0  0  0  0  0  0  0  0  0  0  0
   -3.2724    0.9481    2.4858 C   0  0  0  0  0  0  0  0  0  0  0  0
   -4.2195    1.3893    2.7924 H   0  0  0  0  0  0  0  0  0  0  0  0
   -2.5053    1.1559    3.2384 H   0  0  0  0  0  0  0  0  0  0  0  0
   -3.3930   -0.1330    2.3610 H   0  0  0  0  0  0  0  0  0  0  0  0
  1  7  1  0  0  0  0
  2  8  1  0  0  0  0
  2  1  2  0  0  0  0
  3  2  1  0  0  0  0
  4  3  2  0  0  0  0
  4  5  1  0  0  0  0
  5  6  2  0  0  0  0
  6  1  1  0  0  0  0
  6 18  1  0  0  0  0
  9  4  1  0  0  0  0
 10  5  1  0  0  0  0
 11  3  1  0  0  0  0
 12 11  1  0  0  0  0
 13 14  1  0  0  0  0
 13 16  1  0  0  0  0
 15 13  1  0  0  0  0
 17 13  1  0  0  0  0
 18 19  1  0  0  0  0
 19 20  1  0  0  0  0
 19 21  1  0  0  0  0
 22 19  1  0  0  0  0
M  RAD  2  11   2  12   3
M  END
