Coordinates from ORCA-job p-CH3O-Ph-N2-X-BF4-B3LYPG-6-31G_dp-scan-d09-49-n400
 OpenBabel08281821133D

 22 21  0  0  0  0  0  0  0  0999 V2000
   -0.9523    0.6742    1.2473 C   0  0  0  0  0  0  0  0  0  0  0  0
    0.2925    0.4951    0.6676 C   0  0  0  0  0  0  0  0  0  0  0  0
    0.4364    0.8577   -0.6844 C   0  0  0  0  0  0  0  0  0  0  0  0
   -0.6228    1.3895   -1.4603 C   0  0  0  0  0  0  0  0  0  0  0  0
   -1.8444    1.5647   -0.8569 C   0  0  0  0  0  0  0  0  0  0  0  0
   -2.0213    1.2119    0.5045 C   0  0  0  0  0  0  0  0  0  0  0  0
   -1.0793    0.4006    2.2868 H   0  0  0  0  0  0  0  0  0  0  0  0
    1.1414    0.0897    1.2256 H   0  0  0  0  0  0  0  0  0  0  0  0
   -0.4652    1.6563   -2.4994 H   0  0  0  0  0  0  0  0  0  0  0  0
   -2.6877    1.9743   -1.4007 H   0  0  0  0  0  0  0  0  0  0  0  0
    1.6354    0.6806   -1.3240 N   0  0  0  0  0  0  0  0  0  0  0  0
    2.5331    0.5346   -1.9697 N   0  0  0  0  0  0  0  0  0  0  0  0
    3.6616    0.3587    1.4420 B   0  0  0  0  0  0  0  0  0  0  0  0
    4.5374   -0.3334    0.6178 F   0  0  0  0  0  0  0  0  0  0  0  0
    2.9525    1.3352    0.6479 F   0  0  0  0  0  0  0  0  0  0  0  0
    2.6622   -0.5447    1.9319 F   0  0  0  0  0  0  0  0  0  0  0  0
    4.2894    0.9912    2.4918 F   0  0  0  0  0  0  0  0  0  0  0  0
   -3.2483    1.4297    0.9895 O   0  0  0  0  0  0  0  0  0  0  0  0
   -3.5314    1.1236    2.3619 C   0  0  0  0  0  0  0  0  0  0  0  0
   -4.5747    1.3985    2.5105 H   0  0  0  0  0  0  0  0  0  0  0  0
   -2.8959    1.7101    3.0322 H   0  0  0  0  0  0  0  0  0  0  0  0
   -3.3988    0.0551    2.5596 H   0  0  0  0  0  0  0  0  0  0  0  0
  1  7  1  0  0  0  0
  2  8  1  0  0  0  0
  2  1  1  0  0  0  0
  3  2  2  0  0  0  0
  4  5  2  0  0  0  0
  4  3  1  0  0  0  0
  5  6  1  0  0  0  0
  6 18  1  0  0  0  0
  6  1  2  0  0  0  0
  9  4  1  0  0  0  0
 10  5  1  0  0  0  0
 11  3  1  0  0  0  0
 12 11  1  0  0  0  0
 13 16  1  0  0  0  0
 13 17  1  0  0  0  0
 14 13  1  0  0  0  0
 15 13  1  0  0  0  0
 18 19  1  0  0  0  0
 19 20  1  0  0  0  0
 19 22  1  0  0  0  0
 19 21  1  0  0  0  0
M  RAD  2  11   2  12   3
M  END
