Coordinates from ORCA-job p-CH3O-Ph-N2-X-BF4-B3LYPG-6-31G_dp-scan-d09-49-n400
 OpenBabel08281821133D

 22 21  0  0  0  0  0  0  0  0999 V2000
   -0.9821    0.6707    1.2890 C   0  0  0  0  0  0  0  0  0  0  0  0
    0.2765    0.4770    0.7449 C   0  0  0  0  0  0  0  0  0  0  0  0
    0.4623    0.8259   -0.6055 C   0  0  0  0  0  0  0  0  0  0  0  0
   -0.5686    1.3597   -1.4141 C   0  0  0  0  0  0  0  0  0  0  0  0
   -1.8061    1.5503   -0.8469 C   0  0  0  0  0  0  0  0  0  0  0  0
   -2.0251    1.2094    0.5106 C   0  0  0  0  0  0  0  0  0  0  0  0
   -1.1423    0.4074    2.3265 H   0  0  0  0  0  0  0  0  0  0  0  0
    1.1103    0.0721    1.3217 H   0  0  0  0  0  0  0  0  0  0  0  0
   -0.3791    1.6170   -2.4502 H   0  0  0  0  0  0  0  0  0  0  0  0
   -2.6302    1.9622   -1.4178 H   0  0  0  0  0  0  0  0  0  0  0  0
    1.6817    0.6274   -1.2000 N   0  0  0  0  0  0  0  0  0  0  0  0
    2.6217    0.4527   -1.7749 N   0  0  0  0  0  0  0  0  0  0  0  0
    3.6645    0.4077    1.3325 B   0  0  0  0  0  0  0  0  0  0  0  0
    4.3338   -0.1622    0.2399 F   0  0  0  0  0  0  0  0  0  0  0  0
    2.8649    1.4940    0.8427 F   0  0  0  0  0  0  0  0  0  0  0  0
    2.7478   -0.5562    1.8573 F   0  0  0  0  0  0  0  0  0  0  0  0
    4.5253    0.8473    2.3081 F   0  0  0  0  0  0  0  0  0  0  0  0
   -3.2655    1.4381    0.9585 O   0  0  0  0  0  0  0  0  0  0  0  0
   -3.5907    1.1389    2.3222 C   0  0  0  0  0  0  0  0  0  0  0  0
   -4.6367    1.4191    2.4390 H   0  0  0  0  0  0  0  0  0  0  0  0
   -2.9731    1.7247    3.0098 H   0  0  0  0  0  0  0  0  0  0  0  0
   -3.4696    0.0704    2.5283 H   0  0  0  0  0  0  0  0  0  0  0  0
  1  7  1  0  0  0  0
  2  1  1  0  0  0  0
  2  8  1  0  0  0  0
  3  2  2  0  0  0  0
  4  5  2  0  0  0  0
  4  3  1  0  0  0  0
  5  6  1  0  0  0  0
  6 18  1  0  0  0  0
  6  1  2  0  0  0  0
  9  4  1  0  0  0  0
 10  5  1  0  0  0  0
 11  3  1  0  0  0  0
 12 11  1  0  0  0  0
 13 16  1  0  0  0  0
 13 17  1  0  0  0  0
 14 13  1  0  0  0  0
 15 13  1  0  0  0  0
 18 19  1  0  0  0  0
 19 20  1  0  0  0  0
 19 22  1  0  0  0  0
 19 21  1  0  0  0  0
M  RAD  2  11   2  12   3
M  END
