Coordinates from ORCA-job p-CH3O-Ph-N2-X-BF4-B3LYPG-6-31G_dp-scan-d09-49-n400
 OpenBabel08281821133D

 22 21  0  0  0  0  0  0  0  0999 V2000
   -0.9108    0.6607    1.1811 C   0  0  0  0  0  0  0  0  0  0  0  0
    0.3065    0.4894    0.5444 C   0  0  0  0  0  0  0  0  0  0  0  0
    0.3949    0.8851   -0.8036 C   0  0  0  0  0  0  0  0  0  0  0  0
   -0.6941    1.4388   -1.5222 C   0  0  0  0  0  0  0  0  0  0  0  0
   -1.8872    1.6042   -0.8626 C   0  0  0  0  0  0  0  0  0  0  0  0
   -2.0072    1.2212    0.4980 C   0  0  0  0  0  0  0  0  0  0  0  0
   -0.9902    0.3640    2.2190 H   0  0  0  0  0  0  0  0  0  0  0  0
    1.1713    0.0650    1.0653 H   0  0  0  0  0  0  0  0  0  0  0  0
   -0.5800    1.7294   -2.5605 H   0  0  0  0  0  0  0  0  0  0  0  0
   -2.7514    2.0298   -1.3591 H   0  0  0  0  0  0  0  0  0  0  0  0
    1.5714    0.7252   -1.4830 N   0  0  0  0  0  0  0  0  0  0  0  0
    2.4866    0.6061   -2.1093 N   0  0  0  0  0  0  0  0  0  0  0  0
    3.6160    0.3245    1.5783 B   0  0  0  0  0  0  0  0  0  0  0  0
    4.6972   -0.4481    1.2014 F   0  0  0  0  0  0  0  0  0  0  0  0
    3.1101    1.0243    0.4191 F   0  0  0  0  0  0  0  0  0  0  0  0
    2.5433   -0.5247    2.0138 F   0  0  0  0  0  0  0  0  0  0  0  0
    3.9146    1.2416    2.5653 F   0  0  0  0  0  0  0  0  0  0  0  0
   -3.2098    1.4346    1.0404 O   0  0  0  0  0  0  0  0  0  0  0  0
   -3.4329    1.1021    2.4184 C   0  0  0  0  0  0  0  0  0  0  0  0
   -4.4668    1.3791    2.6190 H   0  0  0  0  0  0  0  0  0  0  0  0
   -2.7641    1.6718    3.0704 H   0  0  0  0  0  0  0  0  0  0  0  0
   -3.2976    0.0291    2.5881 H   0  0  0  0  0  0  0  0  0  0  0  0
  1  7  1  0  0  0  0
  2  8  1  0  0  0  0
  2  1  1  0  0  0  0
  3  2  2  0  0  0  0
  4  5  2  0  0  0  0
  4  3  1  0  0  0  0
  5  6  1  0  0  0  0
  6 18  1  0  0  0  0
  6  1  2  0  0  0  0
  9  4  1  0  0  0  0
 10  5  1  0  0  0  0
 11  3  1  0  0  0  0
 12 11  1  0  0  0  0
 13 16  1  0  0  0  0
 13 17  1  0  0  0  0
 14 13  1  0  0  0  0
 15 13  1  0  0  0  0
 18 19  1  0  0  0  0
 19 22  1  0  0  0  0
 19 20  1  0  0  0  0
 19 21  1  0  0  0  0
M  RAD  2  11   2  12   3
M  END
