Coordinates from ORCA-job p-CH3O-Ph-N2-X-BF4-B3LYPG-6-31G_dp-scan-d09-49-n400
 OpenBabel08281821133D

 22 21  0  0  0  0  0  0  0  0999 V2000
   -0.9364    0.6644    1.2188 C   0  0  0  0  0  0  0  0  0  0  0  0
    0.2965    0.4858    0.6147 C   0  0  0  0  0  0  0  0  0  0  0  0
    0.4180    0.8637   -0.7356 C   0  0  0  0  0  0  0  0  0  0  0  0
   -0.6525    1.4088   -1.4871 C   0  0  0  0  0  0  0  0  0  0  0  0
   -1.8616    1.5831   -0.8594 C   0  0  0  0  0  0  0  0  0  0  0  0
   -2.0156    1.2163    0.5017 C   0  0  0  0  0  0  0  0  0  0  0  0
   -1.0445    0.3802    2.2575 H   0  0  0  0  0  0  0  0  0  0  0  0
    1.1519    0.0691    1.1557 H   0  0  0  0  0  0  0  0  0  0  0  0
   -0.5124    1.6864   -2.5258 H   0  0  0  0  0  0  0  0  0  0  0  0
   -2.7127    2.0031   -1.3827 H   0  0  0  0  0  0  0  0  0  0  0  0
    1.6067    0.6893   -1.3925 N   0  0  0  0  0  0  0  0  0  0  0  0
    2.5098    0.5549   -2.0330 N   0  0  0  0  0  0  0  0  0  0  0  0
    3.6455    0.3502    1.5015 B   0  0  0  0  0  0  0  0  0  0  0  0
    4.6192   -0.3807    0.8426 F   0  0  0  0  0  0  0  0  0  0  0  0
    3.0073    1.2358    0.5541 F   0  0  0  0  0  0  0  0  0  0  0  0
    2.6150   -0.5352    1.9625 F   0  0  0  0  0  0  0  0  0  0  0  0
    4.1376    1.0906    2.5544 F   0  0  0  0  0  0  0  0  0  0  0  0
   -3.2319    1.4355    1.0113 O   0  0  0  0  0  0  0  0  0  0  0  0
   -3.4908    1.1170    2.3860 C   0  0  0  0  0  0  0  0  0  0  0  0
   -4.5295    1.3959    2.5570 H   0  0  0  0  0  0  0  0  0  0  0  0
   -2.8393    1.6933    3.0497 H   0  0  0  0  0  0  0  0  0  0  0  0
   -3.3603    0.0458    2.5702 H   0  0  0  0  0  0  0  0  0  0  0  0
  1  7  1  0  0  0  0
  2  8  1  0  0  0  0
  2  1  1  0  0  0  0
  3  2  2  0  0  0  0
  4  5  2  0  0  0  0
  4  3  1  0  0  0  0
  5  6  1  0  0  0  0
  6 18  1  0  0  0  0
  6  1  2  0  0  0  0
  9  4  1  0  0  0  0
 10  5  1  0  0  0  0
 11  3  1  0  0  0  0
 12 11  1  0  0  0  0
 13 16  1  0  0  0  0
 13 17  1  0  0  0  0
 14 13  1  0  0  0  0
 15 13  1  0  0  0  0
 18 19  1  0  0  0  0
 19 20  1  0  0  0  0
 19 22  1  0  0  0  0
 19 21  1  0  0  0  0
M  RAD  2  11   2  12   3
M  END
