Coordinates from ORCA-job p-CH3O-Ph-N2-X-BF4-B3LYPG-6-31G_dp-scan-d09-49-n400
 OpenBabel08281821133D

 22 21  0  0  0  0  0  0  0  0999 V2000
   -0.9533    0.6737    1.2486 C   0  0  0  0  0  0  0  0  0  0  0  0
    0.2920    0.4946    0.6701 C   0  0  0  0  0  0  0  0  0  0  0  0
    0.4373    0.8570   -0.6817 C   0  0  0  0  0  0  0  0  0  0  0  0
   -0.6209    1.3890   -1.4588 C   0  0  0  0  0  0  0  0  0  0  0  0
   -1.8431    1.5647   -0.8565 C   0  0  0  0  0  0  0  0  0  0  0  0
   -2.0214    1.2119    0.5048 C   0  0  0  0  0  0  0  0  0  0  0  0
   -1.0814    0.4001    2.2879 H   0  0  0  0  0  0  0  0  0  0  0  0
    1.1406    0.0891    1.2283 H   0  0  0  0  0  0  0  0  0  0  0  0
   -0.4623    1.6555   -2.4977 H   0  0  0  0  0  0  0  0  0  0  0  0
   -2.6858    1.9744   -1.4011 H   0  0  0  0  0  0  0  0  0  0  0  0
    1.6368    0.6783   -1.3200 N   0  0  0  0  0  0  0  0  0  0  0  0
    2.5352    0.5306   -1.9644 N   0  0  0  0  0  0  0  0  0  0  0  0
    3.6619    0.3603    1.4385 B   0  0  0  0  0  0  0  0  0  0  0  0
    4.5324   -0.3283    0.6056 F   0  0  0  0  0  0  0  0  0  0  0  0
    2.9492    1.3410    0.6530 F   0  0  0  0  0  0  0  0  0  0  0  0
    2.6649   -0.5449    1.9297 F   0  0  0  0  0  0  0  0  0  0  0  0
    4.2963    0.9873    2.4876 F   0  0  0  0  0  0  0  0  0  0  0  0
   -3.2489    1.4300    0.9885 O   0  0  0  0  0  0  0  0  0  0  0  0
   -3.5333    1.1241    2.3607 C   0  0  0  0  0  0  0  0  0  0  0  0
   -4.5767    1.3992    2.5083 H   0  0  0  0  0  0  0  0  0  0  0  0
   -2.8983    1.7104    3.0316 H   0  0  0  0  0  0  0  0  0  0  0  0
   -3.4013    0.0555    2.5586 H   0  0  0  0  0  0  0  0  0  0  0  0
  1  7  1  0  0  0  0
  2  8  1  0  0  0  0
  2  1  1  0  0  0  0
  3  2  2  0  0  0  0
  4  5  2  0  0  0  0
  4  3  1  0  0  0  0
  5  6  1  0  0  0  0
  6 18  1  0  0  0  0
  6  1  2  0  0  0  0
  9  4  1  0  0  0  0
 10  5  1  0  0  0  0
 11  3  1  0  0  0  0
 12 11  1  0  0  0  0
 13 16  1  0  0  0  0
 13 17  1  0  0  0  0
 14 13  1  0  0  0  0
 15 13  1  0  0  0  0
 18 19  1  0  0  0  0
 19 20  1  0  0  0  0
 19 22  1  0  0  0  0
 19 21  1  0  0  0  0
M  RAD  2  11   2  12   3
M  END
