Coordinates from ORCA-job p-CH3O-Ph-N2-X-BF4-B3LYPG-6-31G_dp-scan-d09-49-n400
 OpenBabel08281821133D

 22 21  0  0  0  0  0  0  0  0999 V2000
   -0.9831    0.6705    1.2902 C   0  0  0  0  0  0  0  0  0  0  0  0
    0.2759    0.4765    0.7470 C   0  0  0  0  0  0  0  0  0  0  0  0
    0.4629    0.8251   -0.6034 C   0  0  0  0  0  0  0  0  0  0  0  0
   -0.5672    1.3588   -1.4129 C   0  0  0  0  0  0  0  0  0  0  0  0
   -1.8051    1.5499   -0.8466 C   0  0  0  0  0  0  0  0  0  0  0  0
   -2.0252    1.2093    0.5108 C   0  0  0  0  0  0  0  0  0  0  0  0
   -1.1441    0.4074    2.3276 H   0  0  0  0  0  0  0  0  0  0  0  0
    1.1095    0.0714    1.3237 H   0  0  0  0  0  0  0  0  0  0  0  0
   -0.3769    1.6158   -2.4489 H   0  0  0  0  0  0  0  0  0  0  0  0
   -2.6287    1.9619   -1.4181 H   0  0  0  0  0  0  0  0  0  0  0  0
    1.6828    0.6253   -1.1964 N   0  0  0  0  0  0  0  0  0  0  0  0
    2.6246    0.4498   -1.7681 N   0  0  0  0  0  0  0  0  0  0  0  0
    3.6647    0.4092    1.3294 B   0  0  0  0  0  0  0  0  0  0  0  0
    4.3281   -0.1554    0.2299 F   0  0  0  0  0  0  0  0  0  0  0  0
    2.8636    1.4981    0.8490 F   0  0  0  0  0  0  0  0  0  0  0  0
    2.7505   -0.5572    1.8535 F   0  0  0  0  0  0  0  0  0  0  0  0
    4.5310    0.8429    2.3025 F   0  0  0  0  0  0  0  0  0  0  0  0
   -3.2660    1.4383    0.9576 O   0  0  0  0  0  0  0  0  0  0  0  0
   -3.5923    1.1395    2.3211 C   0  0  0  0  0  0  0  0  0  0  0  0
   -4.6384    1.4199    2.4370 H   0  0  0  0  0  0  0  0  0  0  0  0
   -2.9752    1.7253    3.0091 H   0  0  0  0  0  0  0  0  0  0  0  0
   -3.4716    0.0710    2.5275 H   0  0  0  0  0  0  0  0  0  0  0  0
  1  7  1  0  0  0  0
  2  1  1  0  0  0  0
  2  8  1  0  0  0  0
  3  2  2  0  0  0  0
  4  5  2  0  0  0  0
  4  3  1  0  0  0  0
  5  6  1  0  0  0  0
  6 18  1  0  0  0  0
  6  1  2  0  0  0  0
  9  4  1  0  0  0  0
 10  5  1  0  0  0  0
 11  3  1  0  0  0  0
 12 11  1  0  0  0  0
 13 16  1  0  0  0  0
 13 17  1  0  0  0  0
 14 13  1  0  0  0  0
 15 13  1  0  0  0  0
 18 19  1  0  0  0  0
 19 20  1  0  0  0  0
 19 22  1  0  0  0  0
 19 21  1  0  0  0  0
M  RAD  2  11   2  12   3
M  END
