Coordinates from ORCA-job p-CH3O-Ph-N2-X-BF4-B3LYPG-6-31G_dp-scan-d09-49-n400
 OpenBabel08281821133D

 22 22  0  0  0  0  0  0  0  0999 V2000
   -1.4587    0.7358    1.5291 C   0  0  0  0  0  0  0  0  0  0  0  0
   -0.0780    0.6306    1.4259 C   0  0  0  0  0  0  0  0  0  0  0  0
    0.5651    0.9086    0.1988 C   0  0  0  0  0  0  0  0  0  0  0  0
   -0.2244    1.2912   -0.9108 C   0  0  0  0  0  0  0  0  0  0  0  0
   -1.5960    1.3974   -0.8099 C   0  0  0  0  0  0  0  0  0  0  0  0
   -2.2290    1.1200    0.4163 C   0  0  0  0  0  0  0  0  0  0  0  0
   -1.9297    0.5161    2.4791 H   0  0  0  0  0  0  0  0  0  0  0  0
    0.4836    0.3332    2.2982 H   0  0  0  0  0  0  0  0  0  0  0  0
    0.2838    1.5008   -1.8457 H   0  0  0  0  0  0  0  0  0  0  0  0
   -2.2070    1.6918   -1.6557 H   0  0  0  0  0  0  0  0  0  0  0  0
    1.9284    0.8642   -0.1063 N   0  0  0  0  0  0  0  0  0  0  0  0
    2.8510    0.5738    0.6575 N   0  0  0  0  0  0  0  0  0  0  0  0
    4.5893    0.5541    0.2748 B   0  0  0  0  0  0  0  0  0  0  0  0
    2.5957    0.2750    1.8556 F   0  0  0  0  0  0  0  0  0  0  0  0
    4.5988    0.8037   -1.0552 F   0  0  0  0  0  0  0  0  0  0  0  0
    5.0488    1.5499    1.0807 F   0  0  0  0  0  0  0  0  0  0  0  0
    4.9294   -0.7063    0.6576 F   0  0  0  0  0  0  0  0  0  0  0  0
   -3.5712    1.2494    0.4243 O   0  0  0  0  0  0  0  0  0  0  0  0
   -4.2880    0.9874    1.6294 C   0  0  0  0  0  0  0  0  0  0  0  0
   -5.3383    1.1559    1.3906 H   0  0  0  0  0  0  0  0  0  0  0  0
   -3.9829    1.6703    2.4305 H   0  0  0  0  0  0  0  0  0  0  0  0
   -4.1508   -0.0495    1.9567 H   0  0  0  0  0  0  0  0  0  0  0  0
  1  7  1  0  0  0  0
  2  1  1  0  0  0  0
  2  8  1  0  0  0  0
  3  2  2  0  0  0  0
  4  5  2  0  0  0  0
  4  3  1  0  0  0  0
  5  6  1  0  0  0  0
  6 18  1  0  0  0  0
  6  1  2  0  0  0  0
  9  4  1  0  0  0  0
 10  5  1  0  0  0  0
 11  3  1  0  0  0  0
 11 12  1  0  0  0  0
 12 14  1  0  0  0  0
 13 12  1  0  0  0  0
 13 17  1  0  0  0  0
 13 16  1  0  0  0  0
 15 13  1  0  0  0  0
 18 19  1  0  0  0  0
 19 22  1  0  0  0  0
 19 21  1  0  0  0  0
 20 19  1  0  0  0  0
M  RAD  1  11   2
M  END
