Coordinates from ORCA-job p-CH3O-Ph-N2-X-BF4-B3LYPG-6-31G_dp-scan-d09-49-n400
 OpenBabel08281821133D

 22 21  0  0  0  0  0  0  0  0999 V2000
   -0.9280    0.6614    1.2061 C   0  0  0  0  0  0  0  0  0  0  0  0
    0.2993    0.4830    0.5907 C   0  0  0  0  0  0  0  0  0  0  0  0
    0.4098    0.8672   -0.7589 C   0  0  0  0  0  0  0  0  0  0  0  0
   -0.6664    1.4170   -1.4991 C   0  0  0  0  0  0  0  0  0  0  0  0
   -1.8698    1.5900   -0.8604 C   0  0  0  0  0  0  0  0  0  0  0  0
   -2.0124    1.2181    0.5007 C   0  0  0  0  0  0  0  0  0  0  0  0
   -1.0270    0.3730    2.2446 H   0  0  0  0  0  0  0  0  0  0  0  0
    1.1575    0.0615    1.1241 H   0  0  0  0  0  0  0  0  0  0  0  0
   -0.5347    1.6989   -2.5378 H   0  0  0  0  0  0  0  0  0  0  0  0
   -2.7249    2.0132   -1.3746 H   0  0  0  0  0  0  0  0  0  0  0  0
    1.5936    0.6972   -1.4245 N   0  0  0  0  0  0  0  0  0  0  0  0
    2.4983    0.5683   -2.0639 N   0  0  0  0  0  0  0  0  0  0  0  0
    3.6366    0.3439    1.5281 B   0  0  0  0  0  0  0  0  0  0  0  0
    4.6591   -0.3923    0.9583 F   0  0  0  0  0  0  0  0  0  0  0  0
    3.0360    1.1777    0.5114 F   0  0  0  0  0  0  0  0  0  0  0  0
    2.5960   -0.5412    1.9681 F   0  0  0  0  0  0  0  0  0  0  0  0
    4.0527    1.1375    2.5765 F   0  0  0  0  0  0  0  0  0  0  0  0
   -3.2237    1.4373    1.0215 O   0  0  0  0  0  0  0  0  0  0  0  0
   -3.4710    1.1151    2.3976 C   0  0  0  0  0  0  0  0  0  0  0  0
   -4.5078    1.3951    2.5784 H   0  0  0  0  0  0  0  0  0  0  0  0
   -2.8128    1.6884    3.0572 H   0  0  0  0  0  0  0  0  0  0  0  0
   -3.3407    0.0431    2.5774 H   0  0  0  0  0  0  0  0  0  0  0  0
  1  7  1  0  0  0  0
  2  8  1  0  0  0  0
  2  1  1  0  0  0  0
  3  2  2  0  0  0  0
  4  5  2  0  0  0  0
  4  3  1  0  0  0  0
  5  6  1  0  0  0  0
  6 18  1  0  0  0  0
  6  1  2  0  0  0  0
  9  4  1  0  0  0  0
 10  5  1  0  0  0  0
 11  3  1  0  0  0  0
 12 11  1  0  0  0  0
 13 16  1  0  0  0  0
 13 17  1  0  0  0  0
 14 13  1  0  0  0  0
 15 13  1  0  0  0  0
 18 19  1  0  0  0  0
 19 22  1  0  0  0  0
 19 20  1  0  0  0  0
 19 21  1  0  0  0  0
M  RAD  2  11   2  12   3
M  END
