Coordinates from ORCA-job p-CH3O-Ph-N2-X-BF4-B3LYPG-6-31G_dp-scan-d09-49-n400
 OpenBabel08281821133D

 22 22  0  0  0  0  0  0  0  0999 V2000
   -1.4612    0.6162    1.4763 C   0  0  0  0  0  0  0  0  0  0  0  0
   -0.0770    0.4914    1.3519 C   0  0  0  0  0  0  0  0  0  0  0  0
    0.5846    0.9316    0.1870 C   0  0  0  0  0  0  0  0  0  0  0  0
   -0.1983    1.4919   -0.8452 C   0  0  0  0  0  0  0  0  0  0  0  0
   -1.5681    1.6249   -0.7243 C   0  0  0  0  0  0  0  0  0  0  0  0
   -2.2162    1.1881    0.4442 C   0  0  0  0  0  0  0  0  0  0  0  0
   -1.9362    0.2630    2.3835 H   0  0  0  0  0  0  0  0  0  0  0  0
    0.4459    0.0337    2.1827 H   0  0  0  0  0  0  0  0  0  0  0  0
    0.3141    1.8194   -1.7434 H   0  0  0  0  0  0  0  0  0  0  0  0
   -2.1658    2.0594   -1.5183 H   0  0  0  0  0  0  0  0  0  0  0  0
    1.9676    0.8826   -0.1381 N   0  0  0  0  0  0  0  0  0  0  0  0
    2.8155    0.5334    0.7617 N   0  0  0  0  0  0  0  0  0  0  0  0
    4.5410    0.5174    0.2857 B   0  0  0  0  0  0  0  0  0  0  0  0
    2.5993    0.3037    1.6153 F   0  0  0  0  0  0  0  0  0  0  0  0
    4.6157   -0.3608   -0.7421 F   0  0  0  0  0  0  0  0  0  0  0  0
    4.8356    1.8103    0.0051 F   0  0  0  0  0  0  0  0  0  0  0  0
    5.0111    0.0559    1.4953 F   0  0  0  0  0  0  0  0  0  0  0  0
   -3.5612    1.3599    0.4738 O   0  0  0  0  0  0  0  0  0  0  0  0
   -4.2785    0.9348    1.6263 C   0  0  0  0  0  0  0  0  0  0  0  0
   -5.3243    1.1770    1.4332 H   0  0  0  0  0  0  0  0  0  0  0  0
   -3.9443    1.4656    2.5259 H   0  0  0  0  0  0  0  0  0  0  0  0
   -4.1795   -0.1459    1.7850 H   0  0  0  0  0  0  0  0  0  0  0  0
  1  7  1  0  0  0  0
  2  1  1  0  0  0  0
  2  8  1  0  0  0  0
  3  2  2  0  0  0  0
  4  5  2  0  0  0  0
  4  3  1  0  0  0  0
  5  6  1  0  0  0  0
  6 18  1  0  0  0  0
  6  1  2  0  0  0  0
  9  4  1  0  0  0  0
 10  5  1  0  0  0  0
 11  3  1  0  0  0  0
 11 12  1  0  0  0  0
 12 14  1  0  0  0  0
 13 12  1  0  0  0  0
 13 17  1  0  0  0  0
 15 13  1  0  0  0  0
 16 13  1  0  0  0  0
 18 19  1  0  0  0  0
 19 22  1  0  0  0  0
 19 21  1  0  0  0  0
 20 19  1  0  0  0  0
M  RAD  1  11   2
M  END
