Coordinates from ORCA-job p-CH3O-Ph-N2-X-BF4-B3LYPG-6-31G_dp-scan-d09-49-n400
 OpenBabel08281821133D

 22 21  0  0  0  0  0  0  0  0999 V2000
   -0.9250    0.6627    1.2020 C   0  0  0  0  0  0  0  0  0  0  0  0
    0.3009    0.4860    0.5831 C   0  0  0  0  0  0  0  0  0  0  0  0
    0.4072    0.8712   -0.7665 C   0  0  0  0  0  0  0  0  0  0  0  0
   -0.6717    1.4202   -1.5034 C   0  0  0  0  0  0  0  0  0  0  0  0
   -1.8735    1.5914   -0.8613 C   0  0  0  0  0  0  0  0  0  0  0  0
   -2.0120    1.2184    0.5000 C   0  0  0  0  0  0  0  0  0  0  0  0
   -1.0204    0.3735    2.2407 H   0  0  0  0  0  0  0  0  0  0  0  0
    1.1604    0.0648    1.1148 H   0  0  0  0  0  0  0  0  0  0  0  0
   -0.5433    1.7030   -2.5423 H   0  0  0  0  0  0  0  0  0  0  0  0
   -2.7306    2.0137   -1.3728 H   0  0  0  0  0  0  0  0  0  0  0  0
    1.5897    0.7039   -1.4348 N   0  0  0  0  0  0  0  0  0  0  0  0
    2.4954    0.5777   -2.0734 N   0  0  0  0  0  0  0  0  0  0  0  0
    3.6346    0.3393    1.5374 B   0  0  0  0  0  0  0  0  0  0  0  0
    4.6643   -0.4090    0.9982 F   0  0  0  0  0  0  0  0  0  0  0  0
    3.0496    1.1533    0.4958 F   0  0  0  0  0  0  0  0  0  0  0  0
    2.5861   -0.5356    1.9796 F   0  0  0  0  0  0  0  0  0  0  0  0
    4.0358    1.1532    2.5762 F   0  0  0  0  0  0  0  0  0  0  0  0
   -3.2221    1.4358    1.0243 O   0  0  0  0  0  0  0  0  0  0  0  0
   -3.4651    1.1123    2.4009 C   0  0  0  0  0  0  0  0  0  0  0  0
   -4.5018    1.3909    2.5847 H   0  0  0  0  0  0  0  0  0  0  0  0
   -2.8058    1.6861    3.0589 H   0  0  0  0  0  0  0  0  0  0  0  0
   -3.3328    0.0404    2.5795 H   0  0  0  0  0  0  0  0  0  0  0  0
  1  7  1  0  0  0  0
  2  8  1  0  0  0  0
  2  1  1  0  0  0  0
  3  2  2  0  0  0  0
  4  5  2  0  0  0  0
  4  3  1  0  0  0  0
  5  6  1  0  0  0  0
  6 18  1  0  0  0  0
  6  1  2  0  0  0  0
  9  4  1  0  0  0  0
 10  5  1  0  0  0  0
 11  3  1  0  0  0  0
 12 11  1  0  0  0  0
 13 16  1  0  0  0  0
 13 17  1  0  0  0  0
 14 13  1  0  0  0  0
 15 13  1  0  0  0  0
 18 19  1  0  0  0  0
 19 22  1  0  0  0  0
 19 20  1  0  0  0  0
 19 21  1  0  0  0  0
M  RAD  2  11   2  12   3
M  END
