Coordinates from ORCA-job p-CH3O-Ph-N2-X-BF4-B3LYPG-6-31G_dp-scan-d09-49-n400
 OpenBabel08281821133D

 22 21  0  0  0  0  0  0  0  0999 V2000
   -0.9990    0.6775    1.3056 C   0  0  0  0  0  0  0  0  0  0  0  0
    0.2668    0.4835    0.7774 C   0  0  0  0  0  0  0  0  0  0  0  0
    0.4713    0.8207   -0.5733 C   0  0  0  0  0  0  0  0  0  0  0  0
   -0.5513    1.3427   -1.3972 C   0  0  0  0  0  0  0  0  0  0  0  0
   -1.7976    1.5349   -0.8477 C   0  0  0  0  0  0  0  0  0  0  0  0
   -2.0332    1.2057    0.5090 C   0  0  0  0  0  0  0  0  0  0  0  0
   -1.1720    0.4215    2.3428 H   0  0  0  0  0  0  0  0  0  0  0  0
    1.0925    0.0821    1.3645 H   0  0  0  0  0  0  0  0  0  0  0  0
   -0.3497    1.5905   -2.4333 H   0  0  0  0  0  0  0  0  0  0  0  0
   -2.6159    1.9381   -1.4328 H   0  0  0  0  0  0  0  0  0  0  0  0
    1.7039    0.6202   -1.1409 N   0  0  0  0  0  0  0  0  0  0  0  0
    2.6976    0.4356   -1.6190 N   0  0  0  0  0  0  0  0  0  0  0  0
    3.6684    0.4238    1.2882 B   0  0  0  0  0  0  0  0  0  0  0  0
    4.1759   -0.0799    0.0570 F   0  0  0  0  0  0  0  0  0  0  0  0
    2.8730    1.5623    0.9758 F   0  0  0  0  0  0  0  0  0  0  0  0
    2.7952   -0.5579    1.8338 F   0  0  0  0  0  0  0  0  0  0  0  0
    4.6791    0.7387    2.1572 F   0  0  0  0  0  0  0  0  0  0  0  0
   -3.2814    1.4333    0.9396 O   0  0  0  0  0  0  0  0  0  0  0  0
   -3.6212    1.1440    2.3010 C   0  0  0  0  0  0  0  0  0  0  0  0
   -4.6698    1.4204    2.4038 H   0  0  0  0  0  0  0  0  0  0  0  0
   -3.0145    1.7378    2.9917 H   0  0  0  0  0  0  0  0  0  0  0  0
   -3.4982    0.0778    2.5182 H   0  0  0  0  0  0  0  0  0  0  0  0
  1  7  1  0  0  0  0
  2  1  1  0  0  0  0
  2  8  1  0  0  0  0
  3  2  2  0  0  0  0
  4  5  2  0  0  0  0
  4  3  1  0  0  0  0
  5  6  1  0  0  0  0
  6 18  1  0  0  0  0
  6  1  2  0  0  0  0
  9  4  1  0  0  0  0
 10  5  1  0  0  0  0
 11  3  1  0  0  0  0
 12 11  1  0  0  0  0
 13 16  1  0  0  0  0
 13 17  1  0  0  0  0
 14 13  1  0  0  0  0
 15 13  1  0  0  0  0
 18 19  1  0  0  0  0
 19 20  1  0  0  0  0
 19 22  1  0  0  0  0
 19 21  1  0  0  0  0
M  RAD  2  11   2  12   3
M  END
