Coordinates from ORCA-job p-CH3O-Ph-N2-X-BF4-B3LYPG-6-31G_dp-scan-d09-49-n400
 OpenBabel08281821133D

 22 21  0  0  0  0  0  0  0  0999 V2000
   -0.9167    0.6673    1.1908 C   0  0  0  0  0  0  0  0  0  0  0  0
    0.3051    0.4967    0.5624 C   0  0  0  0  0  0  0  0  0  0  0  0
    0.3997    0.8844   -0.7875 C   0  0  0  0  0  0  0  0  0  0  0  0
   -0.6873    1.4293   -1.5158 C   0  0  0  0  0  0  0  0  0  0  0  0
   -1.8850    1.5938   -0.8644 C   0  0  0  0  0  0  0  0  0  0  0  0
   -2.0115    1.2188    0.4977 C   0  0  0  0  0  0  0  0  0  0  0  0
   -1.0019    0.3763    2.2298 H   0  0  0  0  0  0  0  0  0  0  0  0
    1.1688    0.0779    1.0895 H   0  0  0  0  0  0  0  0  0  0  0  0
   -0.5681    1.7139   -2.5552 H   0  0  0  0  0  0  0  0  0  0  0  0
   -2.7480    2.0126   -1.3689 H   0  0  0  0  0  0  0  0  0  0  0  0
    1.5798    0.7252   -1.4615 N   0  0  0  0  0  0  0  0  0  0  0  0
    2.4918    0.6062   -2.0924 N   0  0  0  0  0  0  0  0  0  0  0  0
    3.6287    0.3250    1.5620 B   0  0  0  0  0  0  0  0  0  0  0  0
    4.6740   -0.4569    1.1092 F   0  0  0  0  0  0  0  0  0  0  0  0
    3.0910    1.0810    0.4535 F   0  0  0  0  0  0  0  0  0  0  0  0
    2.5563   -0.5182    2.0098 F   0  0  0  0  0  0  0  0  0  0  0  0
    3.9923    1.1944    2.5695 F   0  0  0  0  0  0  0  0  0  0  0  0
   -3.2183    1.4301    1.0315 O   0  0  0  0  0  0  0  0  0  0  0  0
   -3.4488    1.1043    2.4099 C   0  0  0  0  0  0  0  0  0  0  0  0
   -4.4852    1.3777    2.6023 H   0  0  0  0  0  0  0  0  0  0  0  0
   -2.7869    1.6808    3.0630 H   0  0  0  0  0  0  0  0  0  0  0  0
   -3.3097    0.0329    2.5865 H   0  0  0  0  0  0  0  0  0  0  0  0
  1  7  1  0  0  0  0
  2  8  1  0  0  0  0
  2  1  1  0  0  0  0
  3  2  2  0  0  0  0
  4  5  2  0  0  0  0
  4  3  1  0  0  0  0
  5  6  1  0  0  0  0
  6 18  1  0  0  0  0
  6  1  2  0  0  0  0
  9  4  1  0  0  0  0
 10  5  1  0  0  0  0
 11  3  1  0  0  0  0
 12 11  1  0  0  0  0
 13 16  1  0  0  0  0
 13 17  1  0  0  0  0
 14 13  1  0  0  0  0
 15 13  1  0  0  0  0
 18 19  1  0  0  0  0
 19 22  1  0  0  0  0
 19 20  1  0  0  0  0
 19 21  1  0  0  0  0
M  RAD  2  11   2  12   3
M  END
