Coordinates from ORCA-job p-CH3O-Ph-N2-X-BF4-B3LYPG-6-31G_dp-scan-d09-49-n400
 OpenBabel08281821133D

 22 21  0  0  0  0  0  0  0  0999 V2000
   -0.9707    0.6756    1.2753 C   0  0  0  0  0  0  0  0  0  0  0  0
    0.2843    0.4900    0.7200 C   0  0  0  0  0  0  0  0  0  0  0  0
    0.4553    0.8426   -0.6314 C   0  0  0  0  0  0  0  0  0  0  0  0
   -0.5863    1.3733   -1.4297 C   0  0  0  0  0  0  0  0  0  0  0  0
   -1.8193    1.5558   -0.8507 C   0  0  0  0  0  0  0  0  0  0  0  0
   -2.0238    1.2106    0.5083 C   0  0  0  0  0  0  0  0  0  0  0  0
   -1.1192    0.4090    2.3137 H   0  0  0  0  0  0  0  0  0  0  0  0
    1.1235    0.0880    1.2926 H   0  0  0  0  0  0  0  0  0  0  0  0
   -0.4079    1.6339   -2.4669 H   0  0  0  0  0  0  0  0  0  0  0  0
   -2.6507    1.9647   -1.4131 H   0  0  0  0  0  0  0  0  0  0  0  0
    1.6675    0.6520   -1.2431 N   0  0  0  0  0  0  0  0  0  0  0  0
    2.5861    0.4826   -1.8526 N   0  0  0  0  0  0  0  0  0  0  0  0
    3.6639    0.3866    1.3716 B   0  0  0  0  0  0  0  0  0  0  0  0
    4.3920   -0.2540    0.3675 F   0  0  0  0  0  0  0  0  0  0  0  0
    2.8976    1.4431    0.7639 F   0  0  0  0  0  0  0  0  0  0  0  0
    2.7096   -0.5354    1.9088 F   0  0  0  0  0  0  0  0  0  0  0  0
    4.4608    0.8964    2.3685 F   0  0  0  0  0  0  0  0  0  0  0  0
   -3.2606    1.4319    0.9682 O   0  0  0  0  0  0  0  0  0  0  0  0
   -3.5714    1.1282    2.3346 C   0  0  0  0  0  0  0  0  0  0  0  0
   -4.6177    1.4027    2.4617 H   0  0  0  0  0  0  0  0  0  0  0  0
   -2.9503    1.7159    3.0173 H   0  0  0  0  0  0  0  0  0  0  0  0
   -3.4427    0.0600    2.5371 H   0  0  0  0  0  0  0  0  0  0  0  0
  1  7  1  0  0  0  0
  2  1  1  0  0  0  0
  2  8  1  0  0  0  0
  3  2  2  0  0  0  0
  4  5  2  0  0  0  0
  4  3  1  0  0  0  0
  5  6  1  0  0  0  0
  6 18  1  0  0  0  0
  6  1  2  0  0  0  0
  9  4  1  0  0  0  0
 10  5  1  0  0  0  0
 11  3  1  0  0  0  0
 12 11  1  0  0  0  0
 13 16  1  0  0  0  0
 13 17  1  0  0  0  0
 14 13  1  0  0  0  0
 15 13  1  0  0  0  0
 18 19  1  0  0  0  0
 19 20  1  0  0  0  0
 19 22  1  0  0  0  0
 19 21  1  0  0  0  0
M  RAD  2  11   2  12   3
M  END
