Coordinates from ORCA-job p-CH3O-Ph-N2-X-BF4-B3LYPG-6-31G_dp-scan-d09-49-n400
 OpenBabel08281821133D

 22 21  0  0  0  0  0  0  0  0999 V2000
   -0.9613    0.6271    1.2311 C   0  0  0  0  0  0  0  0  0  0  0  0
    0.2912    0.4402    0.6679 C   0  0  0  0  0  0  0  0  0  0  0  0
    0.4856    0.8348   -0.6685 C   0  0  0  0  0  0  0  0  0  0  0  0
   -0.5464    1.4108   -1.4359 C   0  0  0  0  0  0  0  0  0  0  0  0
   -1.7855    1.5918   -0.8613 C   0  0  0  0  0  0  0  0  0  0  0  0
   -2.0038    1.2016    0.4788 C   0  0  0  0  0  0  0  0  0  0  0  0
   -1.1152    0.3321    2.2610 H   0  0  0  0  0  0  0  0  0  0  0  0
    1.1005    0.0162    1.2522 H   0  0  0  0  0  0  0  0  0  0  0  0
   -0.3554    1.7061   -2.4615 H   0  0  0  0  0  0  0  0  0  0  0  0
   -2.6074    2.0325   -1.4136 H   0  0  0  0  0  0  0  0  0  0  0  0
    1.7129    0.6601   -1.2734 N   0  0  0  0  0  0  0  0  0  0  0  0
    2.8031    0.3376   -1.3393 N   0  0  0  0  0  0  0  0  0  0  0  0
    3.5525    0.5337    1.4136 B   0  0  0  0  0  0  0  0  0  0  0  0
    3.3186   -0.4129    0.2393 F   0  0  0  0  0  0  0  0  0  0  0  0
    3.0670    1.7584    0.9743 F   0  0  0  0  0  0  0  0  0  0  0  0
    2.7575    0.0087    2.4281 F   0  0  0  0  0  0  0  0  0  0  0  0
    4.8835    0.5245    1.6907 F   0  0  0  0  0  0  0  0  0  0  0  0
   -3.2439    1.4221    0.9452 O   0  0  0  0  0  0  0  0  0  0  0  0
   -3.5581    1.0682    2.2955 C   0  0  0  0  0  0  0  0  0  0  0  0
   -4.6019    1.3475    2.4350 H   0  0  0  0  0  0  0  0  0  0  0  0
   -2.9329    1.6209    3.0040 H   0  0  0  0  0  0  0  0  0  0  0  0
   -3.4410   -0.0087    2.4583 H   0  0  0  0  0  0  0  0  0  0  0  0
  1  7  1  0  0  0  0
  2  1  1  0  0  0  0
  2  8  1  0  0  0  0
  3  2  2  0  0  0  0
  4  5  2  0  0  0  0
  4  3  1  0  0  0  0
  5  6  1  0  0  0  0
  6 18  1  0  0  0  0
  6  1  2  0  0  0  0
  9  4  1  0  0  0  0
 10  5  1  0  0  0  0
 11  3  1  0  0  0  0
 12 11  1  0  0  0  0
 13 17  1  0  0  0  0
 13 16  1  0  0  0  0
 14 13  1  0  0  0  0
 15 13  1  0  0  0  0
 18 19  1  0  0  0  0
 19 20  1  0  0  0  0
 19 22  1  0  0  0  0
 19 21  1  0  0  0  0
M  RAD  2  11   2  12   3
M  END
