Coordinates from ORCA-job p-CH3O-Ph-N2-X-BF4-B3LYPG-6-31G_dp-scan-d09-49-n400
 OpenBabel08281821133D

 22 21  0  0  0  0  0  0  0  0999 V2000
   -0.8804    0.6115    1.1437 C   0  0  0  0  0  0  0  0  0  0  0  0
    0.3170    0.4264    0.4741 C   0  0  0  0  0  0  0  0  0  0  0  0
    0.3933    0.8762   -0.8575 C   0  0  0  0  0  0  0  0  0  0  0  0
   -0.6910    1.4968   -1.5280 C   0  0  0  0  0  0  0  0  0  0  0  0
   -1.8643    1.6731   -0.8370 C   0  0  0  0  0  0  0  0  0  0  0  0
   -1.9705    1.2367    0.5088 C   0  0  0  0  0  0  0  0  0  0  0  0
   -0.9441    0.2774    2.1712 H   0  0  0  0  0  0  0  0  0  0  0  0
    1.1722   -0.0426    0.9693 H   0  0  0  0  0  0  0  0  0  0  0  0
   -0.5875    1.8283   -2.5551 H   0  0  0  0  0  0  0  0  0  0  0  0
   -2.7231    2.1484   -1.2967 H   0  0  0  0  0  0  0  0  0  0  0  0
    1.5489    0.7086   -1.5695 N   0  0  0  0  0  0  0  0  0  0  0  0
    2.4458    0.5901   -2.2222 N   0  0  0  0  0  0  0  0  0  0  0  0
    3.5186    0.3429    1.6283 B   0  0  0  0  0  0  0  0  0  0  0  0
    4.7291   -0.3134    1.6430 F   0  0  0  0  0  0  0  0  0  0  0  0
    3.1704    0.6711    0.2638 F   0  0  0  0  0  0  0  0  0  0  0  0
    2.4774   -0.5294    2.0886 F   0  0  0  0  0  0  0  0  0  0  0  0
    3.5130    1.5052    2.3802 F   0  0  0  0  0  0  0  0  0  0  0  0
   -3.1536    1.4669    1.0855 O   0  0  0  0  0  0  0  0  0  0  0  0
   -3.3589    1.0850    2.4536 C   0  0  0  0  0  0  0  0  0  0  0  0
   -4.3786    1.3871    2.6880 H   0  0  0  0  0  0  0  0  0  0  0  0
   -2.6577    1.6050    3.1129 H   0  0  0  0  0  0  0  0  0  0  0  0
   -3.2561    0.0020    2.5761 H   0  0  0  0  0  0  0  0  0  0  0  0
  1  7  1  0  0  0  0
  2  8  1  0  0  0  0
  2  1  2  0  0  0  0
  3  2  1  0  0  0  0
  4  3  2  0  0  0  0
  4  5  1  0  0  0  0
  5  6  2  0  0  0  0
  6 18  1  0  0  0  0
  6  1  1  0  0  0  0
  9  4  1  0  0  0  0
 10  5  1  0  0  0  0
 11  3  1  0  0  0  0
 12 11  1  0  0  0  0
 13 14  1  0  0  0  0
 13 16  1  0  0  0  0
 13 17  1  0  0  0  0
 15 13  1  0  0  0  0
 18 19  1  0  0  0  0
 19 22  1  0  0  0  0
 19 20  1  0  0  0  0
 19 21  1  0  0  0  0
M  RAD  2  11   2  12   3
M  END
