Coordinates from ORCA-job p-CH3O-Ph-N2-X-BF4-B3LYPG-6-31G_dp-scan-d09-49-n400
 OpenBabel08281821133D

 22 21  0  0  0  0  0  0  0  0999 V2000
   -0.9774    0.6726    1.2836 C   0  0  0  0  0  0  0  0  0  0  0  0
    0.2797    0.4816    0.7351 C   0  0  0  0  0  0  0  0  0  0  0  0
    0.4597    0.8321   -0.6157 C   0  0  0  0  0  0  0  0  0  0  0  0
   -0.5752    1.3655   -1.4200 C   0  0  0  0  0  0  0  0  0  0  0  0
   -1.8110    1.5533   -0.8482 C   0  0  0  0  0  0  0  0  0  0  0  0
   -2.0243    1.2103    0.5098 C   0  0  0  0  0  0  0  0  0  0  0  0
   -1.1331    0.4078    2.3214 H   0  0  0  0  0  0  0  0  0  0  0  0
    1.1154    0.0779    1.3108 H   0  0  0  0  0  0  0  0  0  0  0  0
   -0.3900    1.6244   -2.4564 H   0  0  0  0  0  0  0  0  0  0  0  0
   -2.6378    1.9645   -1.4156 H   0  0  0  0  0  0  0  0  0  0  0  0
    1.6759    0.6366   -1.2177 N   0  0  0  0  0  0  0  0  0  0  0  0
    2.6059    0.4629   -1.8086 N   0  0  0  0  0  0  0  0  0  0  0  0
    3.6643    0.3996    1.3480 B   0  0  0  0  0  0  0  0  0  0  0  0
    4.3591   -0.1998    0.2914 F   0  0  0  0  0  0  0  0  0  0  0  0
    2.8762    1.4736    0.8091 F   0  0  0  0  0  0  0  0  0  0  0  0
    2.7328   -0.5478    1.8788 F   0  0  0  0  0  0  0  0  0  0  0  0
    4.4983    0.8691    2.3336 F   0  0  0  0  0  0  0  0  0  0  0  0
   -3.2632    1.4362    0.9625 O   0  0  0  0  0  0  0  0  0  0  0  0
   -3.5830    1.1343    2.3271 C   0  0  0  0  0  0  0  0  0  0  0  0
   -4.6292    1.4125    2.4480 H   0  0  0  0  0  0  0  0  0  0  0  0
   -2.9640    1.7203    3.0132 H   0  0  0  0  0  0  0  0  0  0  0  0
   -3.4592    0.0658    2.5311 H   0  0  0  0  0  0  0  0  0  0  0  0
  1  7  1  0  0  0  0
  2  1  1  0  0  0  0
  2  8  1  0  0  0  0
  3  2  2  0  0  0  0
  4  5  2  0  0  0  0
  4  3  1  0  0  0  0
  5  6  1  0  0  0  0
  6 18  1  0  0  0  0
  6  1  2  0  0  0  0
  9  4  1  0  0  0  0
 10  5  1  0  0  0  0
 11  3  1  0  0  0  0
 12 11  1  0  0  0  0
 13 16  1  0  0  0  0
 13 17  1  0  0  0  0
 14 13  1  0  0  0  0
 15 13  1  0  0  0  0
 18 19  1  0  0  0  0
 19 20  1  0  0  0  0
 19 22  1  0  0  0  0
 19 21  1  0  0  0  0
M  RAD  2  11   2  12   3
M  END
