Coordinates from ORCA-job p-CH3O-Ph-N2-X-BF4-B3LYPG-6-31G_dp-scan-d09-49-n400
 OpenBabel08281821133D

 22 21  0  0  0  0  0  0  0  0999 V2000
   -0.9639    0.6750    1.2648 C   0  0  0  0  0  0  0  0  0  0  0  0
    0.2877    0.4935    0.7007 C   0  0  0  0  0  0  0  0  0  0  0  0
    0.4487    0.8501   -0.6509 C   0  0  0  0  0  0  0  0  0  0  0  0
   -0.5997    1.3804   -1.4412 C   0  0  0  0  0  0  0  0  0  0  0  0
   -1.8287    1.5592   -0.8532 C   0  0  0  0  0  0  0  0  0  0  0  0
   -2.0231    1.2107    0.5067 C   0  0  0  0  0  0  0  0  0  0  0  0
   -1.1044    0.4053    2.3035 H   0  0  0  0  0  0  0  0  0  0  0  0
    1.1313    0.0908    1.2674 H   0  0  0  0  0  0  0  0  0  0  0  0
   -0.4293    1.6431   -2.4793 H   0  0  0  0  0  0  0  0  0  0  0  0
   -2.6649    1.9677   -1.4088 H   0  0  0  0  0  0  0  0  0  0  0  0
    1.6557    0.6625   -1.2734 N   0  0  0  0  0  0  0  0  0  0  0  0
    2.5645    0.4998   -1.8992 N   0  0  0  0  0  0  0  0  0  0  0  0
    3.6638    0.3755    1.3985 B   0  0  0  0  0  0  0  0  0  0  0  0
    4.4443   -0.2890    0.4568 F   0  0  0  0  0  0  0  0  0  0  0  0
    2.9179    1.4073    0.7213 F   0  0  0  0  0  0  0  0  0  0  0  0
    2.6900   -0.5351    1.9224 F   0  0  0  0  0  0  0  0  0  0  0  0
    4.4026    0.9298    2.4174 F   0  0  0  0  0  0  0  0  0  0  0  0
   -3.2565    1.4300    0.9757 O   0  0  0  0  0  0  0  0  0  0  0  0
   -3.5569    1.1257    2.3446 C   0  0  0  0  0  0  0  0  0  0  0  0
   -4.6022    1.3999    2.4796 H   0  0  0  0  0  0  0  0  0  0  0  0
   -2.9306    1.7135    3.0224 H   0  0  0  0  0  0  0  0  0  0  0  0
   -3.4262    0.0575    2.5457 H   0  0  0  0  0  0  0  0  0  0  0  0
  1  7  1  0  0  0  0
  2  1  1  0  0  0  0
  2  8  1  0  0  0  0
  3  2  2  0  0  0  0
  4  5  2  0  0  0  0
  4  3  1  0  0  0  0
  5  6  1  0  0  0  0
  6 18  1  0  0  0  0
  6  1  2  0  0  0  0
  9  4  1  0  0  0  0
 10  5  1  0  0  0  0
 11  3  1  0  0  0  0
 12 11  1  0  0  0  0
 13 16  1  0  0  0  0
 13 17  1  0  0  0  0
 14 13  1  0  0  0  0
 15 13  1  0  0  0  0
 18 19  1  0  0  0  0
 19 20  1  0  0  0  0
 19 22  1  0  0  0  0
 19 21  1  0  0  0  0
M  RAD  2  11   2  12   3
M  END
