Coordinates from ORCA-job p-CH3O-Ph-N2-X-BF4-B3LYPG-6-31G_dp-scan-d09-49-n400
 OpenBabel08281821133D

 22 21  0  0  0  0  0  0  0  0999 V2000
   -0.8863    0.2781    1.0612 C   0  0  0  0  0  0  0  0  0  0  0  0
    0.2757    0.0298    0.3529 C   0  0  0  0  0  0  0  0  0  0  0  0
    0.4945    0.7617   -0.8290 C   0  0  0  0  0  0  0  0  0  0  0  0
   -0.4104    1.7435   -1.3076 C   0  0  0  0  0  0  0  0  0  0  0  0
   -1.5513    1.9755   -0.5831 C   0  0  0  0  0  0  0  0  0  0  0  0
   -1.7968    1.2501    0.6126 C   0  0  0  0  0  0  0  0  0  0  0  0
   -1.0450   -0.2561    1.9880 H   0  0  0  0  0  0  0  0  0  0  0  0
    1.0330   -0.6655    0.6947 H   0  0  0  0  0  0  0  0  0  0  0  0
   -0.1957    2.2939   -2.2164 H   0  0  0  0  0  0  0  0  0  0  0  0
   -2.2759    2.7189   -0.8948 H   0  0  0  0  0  0  0  0  0  0  0  0
    1.6043    0.5190   -1.5806 N   0  0  0  0  0  0  0  0  0  0  0  0
    2.4309    0.3378   -2.3103 N   0  0  0  0  0  0  0  0  0  0  0  0
    3.0984    0.6364    1.4576 B   0  0  0  0  0  0  0  0  0  0  0  0
    4.2398    0.6949    2.2296 F   0  0  0  0  0  0  0  0  0  0  0  0
    3.0341   -0.5859    0.6986 F   0  0  0  0  0  0  0  0  0  0  0  0
    1.9430    0.6795    2.2738 F   0  0  0  0  0  0  0  0  0  0  0  0
    3.0208    1.6823    0.5062 F   0  0  0  0  0  0  0  0  0  0  0  0
   -2.9305    1.5750    1.2430 O   0  0  0  0  0  0  0  0  0  0  0  0
   -3.2432    0.9532    2.4965 C   0  0  0  0  0  0  0  0  0  0  0  0
   -4.1866    1.3960    2.8121 H   0  0  0  0  0  0  0  0  0  0  0  0
   -2.4673    1.1636    3.2392 H   0  0  0  0  0  0  0  0  0  0  0  0
   -3.3656   -0.1283    2.3771 H   0  0  0  0  0  0  0  0  0  0  0  0
  1  7  1  0  0  0  0
  2  8  1  0  0  0  0
  2  1  2  0  0  0  0
  3  2  1  0  0  0  0
  4  3  2  0  0  0  0
  4  5  1  0  0  0  0
  5  6  2  0  0  0  0
  6  1  1  0  0  0  0
  6 18  1  0  0  0  0
  9  4  1  0  0  0  0
 10  5  1  0  0  0  0
 11  3  1  0  0  0  0
 12 11  1  0  0  0  0
 13 14  1  0  0  0  0
 13 16  1  0  0  0  0
 15 13  1  0  0  0  0
 17 13  1  0  0  0  0
 18 19  1  0  0  0  0
 19 20  1  0  0  0  0
 19 21  1  0  0  0  0
 22 19  1  0  0  0  0
M  RAD  2  11   2  12   3
M  END
