Coordinates from ORCA-job p-CH3O-Ph-N2-X-BF4-B3LYPG-6-31G_dp-scan-d09-49-n400
 OpenBabel08281821133D

 22 22  0  0  0  0  0  0  0  0999 V2000
   -1.4559    0.7356    1.5287 C   0  0  0  0  0  0  0  0  0  0  0  0
   -0.0746    0.6306    1.4249 C   0  0  0  0  0  0  0  0  0  0  0  0
    0.5698    0.9084    0.1984 C   0  0  0  0  0  0  0  0  0  0  0  0
   -0.2215    1.2906   -0.9100 C   0  0  0  0  0  0  0  0  0  0  0  0
   -1.5933    1.3969   -0.8091 C   0  0  0  0  0  0  0  0  0  0  0  0
   -2.2265    1.1196    0.4167 C   0  0  0  0  0  0  0  0  0  0  0  0
   -1.9263    0.5156    2.4790 H   0  0  0  0  0  0  0  0  0  0  0  0
    0.4824    0.3327    2.3005 H   0  0  0  0  0  0  0  0  0  0  0  0
    0.2865    1.5000   -1.8450 H   0  0  0  0  0  0  0  0  0  0  0  0
   -2.2040    1.6912   -1.6552 H   0  0  0  0  0  0  0  0  0  0  0  0
    1.9342    0.8654   -0.1131 N   0  0  0  0  0  0  0  0  0  0  0  0
    2.8488    0.5729    0.6697 N   0  0  0  0  0  0  0  0  0  0  0  0
    4.5726    0.5536    0.2791 B   0  0  0  0  0  0  0  0  0  0  0  0
    2.5989    0.2888    1.8198 F   0  0  0  0  0  0  0  0  0  0  0  0
    4.5923    0.8036   -1.0506 F   0  0  0  0  0  0  0  0  0  0  0  0
    5.0386    1.5470    1.0882 F   0  0  0  0  0  0  0  0  0  0  0  0
    4.9147   -0.7086    0.6632 F   0  0  0  0  0  0  0  0  0  0  0  0
   -3.5693    1.2490    0.4249 O   0  0  0  0  0  0  0  0  0  0  0  0
   -4.2849    0.9867    1.6302 C   0  0  0  0  0  0  0  0  0  0  0  0
   -5.3356    1.1549    1.3924 H   0  0  0  0  0  0  0  0  0  0  0  0
   -3.9796    1.6694    2.4314 H   0  0  0  0  0  0  0  0  0  0  0  0
   -4.1474   -0.0503    1.9574 H   0  0  0  0  0  0  0  0  0  0  0  0
  1  7  1  0  0  0  0
  2  1  1  0  0  0  0
  2  8  1  0  0  0  0
  3  2  2  0  0  0  0
  4  5  2  0  0  0  0
  4  3  1  0  0  0  0
  5  6  1  0  0  0  0
  6 18  1  0  0  0  0
  6  1  2  0  0  0  0
  9  4  1  0  0  0  0
 10  5  1  0  0  0  0
 11  3  1  0  0  0  0
 11 12  1  0  0  0  0
 12 14  1  0  0  0  0
 13 17  1  0  0  0  0
 13 12  1  0  0  0  0
 13 16  1  0  0  0  0
 15 13  1  0  0  0  0
 18 19  1  0  0  0  0
 19 22  1  0  0  0  0
 19 21  1  0  0  0  0
 20 19  1  0  0  0  0
M  RAD  1  11   2
M  END
