Coordinates from ORCA-job p-CH3O-Ph-N2-X-BF4-B3LYPG-6-31G_dp-scan-d09-49-n400
 OpenBabel08281821133D

 22 21  0  0  0  0  0  0  0  0999 V2000
   -0.9866    0.6703    1.2937 C   0  0  0  0  0  0  0  0  0  0  0  0
    0.2738    0.4761    0.7539 C   0  0  0  0  0  0  0  0  0  0  0  0
    0.4649    0.8233   -0.5962 C   0  0  0  0  0  0  0  0  0  0  0  0
   -0.5628    1.3561   -1.4088 C   0  0  0  0  0  0  0  0  0  0  0  0
   -1.8023    1.5484   -0.8460 C   0  0  0  0  0  0  0  0  0  0  0  0
   -2.0263    1.2090    0.5110 C   0  0  0  0  0  0  0  0  0  0  0  0
   -1.1507    0.4078    2.3308 H   0  0  0  0  0  0  0  0  0  0  0  0
    1.1062    0.0710    1.3319 H   0  0  0  0  0  0  0  0  0  0  0  0
   -0.3698    1.6111   -2.4448 H   0  0  0  0  0  0  0  0  0  0  0  0
   -2.6243    1.9597   -1.4203 H   0  0  0  0  0  0  0  0  0  0  0  0
    1.6864    0.6185   -1.1845 N   0  0  0  0  0  0  0  0  0  0  0  0
    2.6367    0.4384   -1.7409 N   0  0  0  0  0  0  0  0  0  0  0  0
    3.6656    0.4145    1.3193 B   0  0  0  0  0  0  0  0  0  0  0  0
    4.3028   -0.1309    0.1916 F   0  0  0  0  0  0  0  0  0  0  0  0
    2.8606    1.5142    0.8767 F   0  0  0  0  0  0  0  0  0  0  0  0
    2.7608   -0.5601    1.8426 F   0  0  0  0  0  0  0  0  0  0  0  0
    4.5574    0.8238    2.2792 F   0  0  0  0  0  0  0  0  0  0  0  0
   -3.2684    1.4386    0.9542 O   0  0  0  0  0  0  0  0  0  0  0  0
   -3.5983    1.1412    2.3170 C   0  0  0  0  0  0  0  0  0  0  0  0
   -4.6446    1.4221    2.4301 H   0  0  0  0  0  0  0  0  0  0  0  0
   -2.9828    1.7275    3.0061 H   0  0  0  0  0  0  0  0  0  0  0  0
   -3.4785    0.0730    2.5250 H   0  0  0  0  0  0  0  0  0  0  0  0
  1  7  1  0  0  0  0
  2  1  1  0  0  0  0
  2  8  1  0  0  0  0
  3  2  2  0  0  0  0
  4  5  2  0  0  0  0
  4  3  1  0  0  0  0
  5  6  1  0  0  0  0
  6 18  1  0  0  0  0
  6  1  2  0  0  0  0
  9  4  1  0  0  0  0
 10  5  1  0  0  0  0
 11  3  1  0  0  0  0
 12 11  1  0  0  0  0
 13 16  1  0  0  0  0
 13 17  1  0  0  0  0
 14 13  1  0  0  0  0
 15 13  1  0  0  0  0
 18 19  1  0  0  0  0
 19 20  1  0  0  0  0
 19 22  1  0  0  0  0
 19 21  1  0  0  0  0
M  RAD  2  11   2  12   3
M  END
