Coordinates from ORCA-job p-CH3O-Ph-N2-X-BF4-B3LYPG-6-31G_dp-scan-d09-49-n400
 OpenBabel08281821133D

 22 21  0  0  0  0  0  0  0  0999 V2000
   -0.9031    0.6482    1.1709 C   0  0  0  0  0  0  0  0  0  0  0  0
    0.3085    0.4709    0.5248 C   0  0  0  0  0  0  0  0  0  0  0  0
    0.3923    0.8796   -0.8197 C   0  0  0  0  0  0  0  0  0  0  0  0
   -0.6957    1.4519   -1.5253 C   0  0  0  0  0  0  0  0  0  0  0  0
   -1.8828    1.6225   -0.8566 C   0  0  0  0  0  0  0  0  0  0  0  0
   -1.9983    1.2264    0.5006 C   0  0  0  0  0  0  0  0  0  0  0  0
   -0.9781    0.3426    2.2065 H   0  0  0  0  0  0  0  0  0  0  0  0
    1.1711    0.0347    1.0391 H   0  0  0  0  0  0  0  0  0  0  0  0
   -0.5847    1.7528   -2.5610 H   0  0  0  0  0  0  0  0  0  0  0  0
   -2.7456    2.0625   -1.3431 H   0  0  0  0  0  0  0  0  0  0  0  0
    1.5627    0.7171   -1.5086 N   0  0  0  0  0  0  0  0  0  0  0  0
    2.4735    0.5984   -2.1414 N   0  0  0  0  0  0  0  0  0  0  0  0
    3.5944    0.3298    1.5941 B   0  0  0  0  0  0  0  0  0  0  0  0
    4.7240   -0.4131    1.3170 F   0  0  0  0  0  0  0  0  0  0  0  0
    3.1228    0.9460    0.3744 F   0  0  0  0  0  0  0  0  0  0  0  0
    2.5330   -0.5374    2.0203 F   0  0  0  0  0  0  0  0  0  0  0  0
    3.8021    1.3116    2.5436 F   0  0  0  0  0  0  0  0  0  0  0  0
   -3.1953    1.4457    1.0527 O   0  0  0  0  0  0  0  0  0  0  0  0
   -3.4137    1.0997    2.4281 C   0  0  0  0  0  0  0  0  0  0  0  0
   -4.4437    1.3843    2.6378 H   0  0  0  0  0  0  0  0  0  0  0  0
   -2.7357    1.6555    3.0826 H   0  0  0  0  0  0  0  0  0  0  0  0
   -3.2878    0.0236    2.5847 H   0  0  0  0  0  0  0  0  0  0  0  0
  1  7  1  0  0  0  0
  2  8  1  0  0  0  0
  2  1  1  0  0  0  0
  3  2  2  0  0  0  0
  4  5  2  0  0  0  0
  4  3  1  0  0  0  0
  5  6  1  0  0  0  0
  6 18  1  0  0  0  0
  6  1  2  0  0  0  0
  9  4  1  0  0  0  0
 10  5  1  0  0  0  0
 11  3  1  0  0  0  0
 12 11  1  0  0  0  0
 13 16  1  0  0  0  0
 13 17  1  0  0  0  0
 14 13  1  0  0  0  0
 15 13  1  0  0  0  0
 18 19  1  0  0  0  0
 19 22  1  0  0  0  0
 19 20  1  0  0  0  0
 19 21  1  0  0  0  0
M  RAD  2  11   2  12   3
M  END
