Coordinates from ORCA-job p-CH3O-Ph-N2-X-BF4-B3LYPG-6-31G_dp-scan-d09-49-n400
 OpenBabel08281821133D

 22 21  0  0  0  0  0  0  0  0999 V2000
   -0.9921    0.6628    1.2826 C   0  0  0  0  0  0  0  0  0  0  0  0
    0.2712    0.4731    0.7458 C   0  0  0  0  0  0  0  0  0  0  0  0
    0.4754    0.8278   -0.6006 C   0  0  0  0  0  0  0  0  0  0  0  0
   -0.5505    1.3633   -1.4088 C   0  0  0  0  0  0  0  0  0  0  0  0
   -1.7962    1.5511   -0.8542 C   0  0  0  0  0  0  0  0  0  0  0  0
   -2.0283    1.2037    0.4972 C   0  0  0  0  0  0  0  0  0  0  0  0
   -1.1608    0.3945    2.3174 H   0  0  0  0  0  0  0  0  0  0  0  0
    1.0892    0.0679    1.3385 H   0  0  0  0  0  0  0  0  0  0  0  0
   -0.3507    1.6250   -2.4419 H   0  0  0  0  0  0  0  0  0  0  0  0
   -2.6152    1.9645   -1.4313 H   0  0  0  0  0  0  0  0  0  0  0  0
    1.7093    0.6382   -1.1719 N   0  0  0  0  0  0  0  0  0  0  0  0
    2.7649    0.4267   -1.4975 N   0  0  0  0  0  0  0  0  0  0  0  0
    3.6301    0.4497    1.3237 B   0  0  0  0  0  0  0  0  0  0  0  0
    3.8667   -0.2139    0.0474 F   0  0  0  0  0  0  0  0  0  0  0  0
    2.9088    1.6227    1.0251 F   0  0  0  0  0  0  0  0  0  0  0  0
    2.8030   -0.4052    2.0823 F   0  0  0  0  0  0  0  0  0  0  0  0
    4.8214    0.7062    1.9410 F   0  0  0  0  0  0  0  0  0  0  0  0
   -3.2755    1.4279    0.9367 O   0  0  0  0  0  0  0  0  0  0  0  0
   -3.6089    1.1195    2.2947 C   0  0  0  0  0  0  0  0  0  0  0  0
   -4.6564    1.3969    2.4073 H   0  0  0  0  0  0  0  0  0  0  0  0
   -2.9977    1.7012    2.9917 H   0  0  0  0  0  0  0  0  0  0  0  0
   -3.4878    0.0499    2.4961 H   0  0  0  0  0  0  0  0  0  0  0  0
  1  7  1  0  0  0  0
  2  1  1  0  0  0  0
  2  8  1  0  0  0  0
  3  2  2  0  0  0  0
  4  5  2  0  0  0  0
  4  3  1  0  0  0  0
  5  6  1  0  0  0  0
  6 18  1  0  0  0  0
  6  1  2  0  0  0  0
  9  4  1  0  0  0  0
 10  5  1  0  0  0  0
 11  3  1  0  0  0  0
 12 11  1  0  0  0  0
 13 17  1  0  0  0  0
 13 16  1  0  0  0  0
 14 13  1  0  0  0  0
 15 13  1  0  0  0  0
 18 19  1  0  0  0  0
 19 20  1  0  0  0  0
 19 22  1  0  0  0  0
 19 21  1  0  0  0  0
M  RAD  2  11   2  12   3
M  END
