Coordinates from ORCA-job p-CH3O-Ph-N2-X-BF4-B3LYPG-6-31G_dp-scan-d09-49-n400
 OpenBabel08281821133D

 22 21  0  0  0  0  0  0  0  0999 V2000
   -0.9410    0.6744    1.2288 C   0  0  0  0  0  0  0  0  0  0  0  0
    0.2966    0.5000    0.6329 C   0  0  0  0  0  0  0  0  0  0  0  0
    0.4235    0.8694   -0.7190 C   0  0  0  0  0  0  0  0  0  0  0  0
   -0.6459    1.4036   -1.4798 C   0  0  0  0  0  0  0  0  0  0  0  0
   -1.8595    1.5752   -0.8599 C   0  0  0  0  0  0  0  0  0  0  0  0
   -2.0193    1.2153    0.5022 C   0  0  0  0  0  0  0  0  0  0  0  0
   -1.0537    0.3955    2.2685 H   0  0  0  0  0  0  0  0  0  0  0  0
    1.1517    0.0911    1.1799 H   0  0  0  0  0  0  0  0  0  0  0  0
   -0.5018    1.6750   -2.5196 H   0  0  0  0  0  0  0  0  0  0  0  0
   -2.7100    1.9870   -1.3907 H   0  0  0  0  0  0  0  0  0  0  0  0
    1.6150    0.6935   -1.3716 N   0  0  0  0  0  0  0  0  0  0  0  0
    2.5157    0.5559   -2.0148 N   0  0  0  0  0  0  0  0  0  0  0  0
    3.6554    0.3455    1.4842 B   0  0  0  0  0  0  0  0  0  0  0  0
    4.5939   -0.3884    0.7777 F   0  0  0  0  0  0  0  0  0  0  0  0
    3.0022    1.2602    0.5757 F   0  0  0  0  0  0  0  0  0  0  0  0
    2.6260   -0.5324    1.9604 F   0  0  0  0  0  0  0  0  0  0  0  0
    4.1961    1.0550    2.5340 F   0  0  0  0  0  0  0  0  0  0  0  0
   -3.2402    1.4295    1.0034 O   0  0  0  0  0  0  0  0  0  0  0  0
   -3.5057    1.1153    2.3777 C   0  0  0  0  0  0  0  0  0  0  0  0
   -4.5474    1.3880    2.5408 H   0  0  0  0  0  0  0  0  0  0  0  0
   -2.8625    1.6989    3.0432 H   0  0  0  0  0  0  0  0  0  0  0  0
   -3.3693    0.0458    2.5675 H   0  0  0  0  0  0  0  0  0  0  0  0
  1  7  1  0  0  0  0
  2  8  1  0  0  0  0
  2  1  1  0  0  0  0
  3  2  2  0  0  0  0
  4  5  2  0  0  0  0
  4  3  1  0  0  0  0
  5  6  1  0  0  0  0
  6 18  1  0  0  0  0
  6  1  2  0  0  0  0
  9  4  1  0  0  0  0
 10  5  1  0  0  0  0
 11  3  1  0  0  0  0
 12 11  1  0  0  0  0
 13 16  1  0  0  0  0
 13 17  1  0  0  0  0
 14 13  1  0  0  0  0
 15 13  1  0  0  0  0
 18 19  1  0  0  0  0
 19 20  1  0  0  0  0
 19 22  1  0  0  0  0
 19 21  1  0  0  0  0
M  RAD  2  11   2  12   3
M  END
