Coordinates from ORCA-job p-CH3O-Ph-N2-X-BF4-B3LYPG-6-31G_dp-scan-d09-49-n400
 OpenBabel08281821133D

 22 21  0  0  0  0  0  0  0  0999 V2000
   -0.9820    0.6705    1.2887 C   0  0  0  0  0  0  0  0  0  0  0  0
    0.2767    0.4779    0.7444 C   0  0  0  0  0  0  0  0  0  0  0  0
    0.4623    0.8273   -0.6058 C   0  0  0  0  0  0  0  0  0  0  0  0
   -0.5684    1.3619   -1.4140 C   0  0  0  0  0  0  0  0  0  0  0  0
   -1.8058    1.5526   -0.8463 C   0  0  0  0  0  0  0  0  0  0  0  0
   -2.0248    1.2102    0.5109 C   0  0  0  0  0  0  0  0  0  0  0  0
   -1.1419    0.4062    2.3260 H   0  0  0  0  0  0  0  0  0  0  0  0
    1.1113    0.0731    1.3203 H   0  0  0  0  0  0  0  0  0  0  0  0
   -0.3792    1.6192   -2.4501 H   0  0  0  0  0  0  0  0  0  0  0  0
   -2.6299    1.9650   -1.4168 H   0  0  0  0  0  0  0  0  0  0  0  0
    1.6805    0.6242   -1.2015 N   0  0  0  0  0  0  0  0  0  0  0  0
    2.6178    0.4453   -1.7794 N   0  0  0  0  0  0  0  0  0  0  0  0
    3.6652    0.4081    1.3336 B   0  0  0  0  0  0  0  0  0  0  0  0
    4.3370   -0.1639    0.2446 F   0  0  0  0  0  0  0  0  0  0  0  0
    2.8667    1.4935    0.8386 F   0  0  0  0  0  0  0  0  0  0  0  0
    2.7468   -0.5544    1.8589 F   0  0  0  0  0  0  0  0  0  0  0  0
    4.5223    0.8513    2.3109 F   0  0  0  0  0  0  0  0  0  0  0  0
   -3.2652    1.4385    0.9590 O   0  0  0  0  0  0  0  0  0  0  0  0
   -3.5905    1.1376    2.3223 C   0  0  0  0  0  0  0  0  0  0  0  0
   -4.6365    1.4178    2.4394 H   0  0  0  0  0  0  0  0  0  0  0  0
   -2.9729    1.7225    3.0106 H   0  0  0  0  0  0  0  0  0  0  0  0
   -3.4695    0.0689    2.5271 H   0  0  0  0  0  0  0  0  0  0  0  0
  1  7  1  0  0  0  0
  2  1  1  0  0  0  0
  2  8  1  0  0  0  0
  3  2  2  0  0  0  0
  4  5  2  0  0  0  0
  4  3  1  0  0  0  0
  5  6  1  0  0  0  0
  6 18  1  0  0  0  0
  6  1  2  0  0  0  0
  9  4  1  0  0  0  0
 10  5  1  0  0  0  0
 11  3  1  0  0  0  0
 12 11  1  0  0  0  0
 13 16  1  0  0  0  0
 13 17  1  0  0  0  0
 14 13  1  0  0  0  0
 15 13  1  0  0  0  0
 18 19  1  0  0  0  0
 19 20  1  0  0  0  0
 19 22  1  0  0  0  0
 19 21  1  0  0  0  0
M  RAD  2  11   2  12   3
M  END
