Coordinates from ORCA-job p-CH3O-Ph-N2-X-BF4-B3LYPG-6-31G_dp-scan-d09-49-n400
 OpenBabel08281821133D

 22 21  0  0  0  0  0  0  0  0999 V2000
   -0.9918    0.6626    1.2873 C   0  0  0  0  0  0  0  0  0  0  0  0
    0.2708    0.4692    0.7509 C   0  0  0  0  0  0  0  0  0  0  0  0
    0.4722    0.8248   -0.5959 C   0  0  0  0  0  0  0  0  0  0  0  0
   -0.5499    1.3674   -1.4054 C   0  0  0  0  0  0  0  0  0  0  0  0
   -1.7933    1.5592   -0.8486 C   0  0  0  0  0  0  0  0  0  0  0  0
   -2.0261    1.2088    0.5028 C   0  0  0  0  0  0  0  0  0  0  0  0
   -1.1614    0.3932    2.3217 H   0  0  0  0  0  0  0  0  0  0  0  0
    1.0922    0.0595    1.3385 H   0  0  0  0  0  0  0  0  0  0  0  0
   -0.3498    1.6307   -2.4379 H   0  0  0  0  0  0  0  0  0  0  0  0
   -2.6110    1.9775   -1.4239 H   0  0  0  0  0  0  0  0  0  0  0  0
    1.7035    0.6246   -1.1658 N   0  0  0  0  0  0  0  0  0  0  0  0
    2.7261    0.4183   -1.5727 N   0  0  0  0  0  0  0  0  0  0  0  0
    3.6411    0.4414    1.3142 B   0  0  0  0  0  0  0  0  0  0  0  0
    3.9776   -0.2207    0.0850 F   0  0  0  0  0  0  0  0  0  0  0  0
    2.8892    1.5923    0.9658 F   0  0  0  0  0  0  0  0  0  0  0  0
    2.7884   -0.4231    2.0459 F   0  0  0  0  0  0  0  0  0  0  0  0
    4.7700    0.7621    2.0190 F   0  0  0  0  0  0  0  0  0  0  0  0
   -3.2719    1.4358    0.9417 O   0  0  0  0  0  0  0  0  0  0  0  0
   -3.6096    1.1211    2.2978 C   0  0  0  0  0  0  0  0  0  0  0  0
   -4.6567    1.4003    2.4088 H   0  0  0  0  0  0  0  0  0  0  0  0
   -2.9987    1.6981    2.9989 H   0  0  0  0  0  0  0  0  0  0  0  0
   -3.4911    0.0502    2.4934 H   0  0  0  0  0  0  0  0  0  0  0  0
  1  7  1  0  0  0  0
  2  1  1  0  0  0  0
  2  8  1  0  0  0  0
  3  2  2  0  0  0  0
  4  5  2  0  0  0  0
  4  3  1  0  0  0  0
  5  6  1  0  0  0  0
  6 18  1  0  0  0  0
  6  1  2  0  0  0  0
  9  4  1  0  0  0  0
 10  5  1  0  0  0  0
 11  3  1  0  0  0  0
 12 11  1  0  0  0  0
 13 17  1  0  0  0  0
 13 16  1  0  0  0  0
 14 13  1  0  0  0  0
 15 13  1  0  0  0  0
 18 19  1  0  0  0  0
 19 20  1  0  0  0  0
 19 22  1  0  0  0  0
 19 21  1  0  0  0  0
M  RAD  2  11   2  12   3
M  END
