Coordinates from ORCA-job p-CH3O-Ph-N2-X-BF4-B3LYPG-6-31G_dp-scan-d09-49-n400
 OpenBabel08281821133D

 22 21  0  0  0  0  0  0  0  0999 V2000
   -0.9612    0.6261    1.2299 C   0  0  0  0  0  0  0  0  0  0  0  0
    0.2912    0.4390    0.6663 C   0  0  0  0  0  0  0  0  0  0  0  0
    0.4862    0.8343   -0.6698 C   0  0  0  0  0  0  0  0  0  0  0  0
   -0.5460    1.4109   -1.4363 C   0  0  0  0  0  0  0  0  0  0  0  0
   -1.7852    1.5919   -0.8618 C   0  0  0  0  0  0  0  0  0  0  0  0
   -2.0036    1.2013    0.4781 C   0  0  0  0  0  0  0  0  0  0  0  0
   -1.1151    0.3306    2.2597 H   0  0  0  0  0  0  0  0  0  0  0  0
    1.0999    0.0142    1.2503 H   0  0  0  0  0  0  0  0  0  0  0  0
   -0.3549    1.7066   -2.4618 H   0  0  0  0  0  0  0  0  0  0  0  0
   -2.6069    2.0331   -1.4139 H   0  0  0  0  0  0  0  0  0  0  0  0
    1.7132    0.6608   -1.2767 N   0  0  0  0  0  0  0  0  0  0  0  0
    2.8041    0.3349   -1.3320 N   0  0  0  0  0  0  0  0  0  0  0  0
    3.5521    0.5369    1.4169 B   0  0  0  0  0  0  0  0  0  0  0  0
    3.3023   -0.4128    0.2419 F   0  0  0  0  0  0  0  0  0  0  0  0
    3.0735    1.7627    0.9766 F   0  0  0  0  0  0  0  0  0  0  0  0
    2.7599    0.0170    2.4346 F   0  0  0  0  0  0  0  0  0  0  0  0
    4.8847    0.5154    1.6827 F   0  0  0  0  0  0  0  0  0  0  0  0
   -3.2436    1.4222    0.9449 O   0  0  0  0  0  0  0  0  0  0  0  0
   -3.5574    1.0683    2.2952 C   0  0  0  0  0  0  0  0  0  0  0  0
   -4.6011    1.3479    2.4351 H   0  0  0  0  0  0  0  0  0  0  0  0
   -2.9318    1.6207    3.0036 H   0  0  0  0  0  0  0  0  0  0  0  0
   -3.4406   -0.0087    2.4579 H   0  0  0  0  0  0  0  0  0  0  0  0
  1  7  1  0  0  0  0
  2  1  1  0  0  0  0
  2  8  1  0  0  0  0
  3  2  2  0  0  0  0
  4  5  2  0  0  0  0
  4  3  1  0  0  0  0
  5  6  1  0  0  0  0
  6 18  1  0  0  0  0
  6  1  2  0  0  0  0
  9  4  1  0  0  0  0
 10  5  1  0  0  0  0
 11  3  1  0  0  0  0
 12 11  1  0  0  0  0
 13 17  1  0  0  0  0
 13 16  1  0  0  0  0
 14 13  1  0  0  0  0
 15 13  1  0  0  0  0
 18 19  1  0  0  0  0
 19 20  1  0  0  0  0
 19 22  1  0  0  0  0
 19 21  1  0  0  0  0
M  RAD  2  11   2  12   3
M  END
