Coordinates from ORCA-job p-CH3O-Ph-N2-X-BF4-B3LYPG-6-31G_dp-scan-d09-49-n400
 OpenBabel08281821133D

 22 21  0  0  0  0  0  0  0  0999 V2000
   -1.5342    0.7515    1.4841 C   0  0  0  0  0  0  0  0  0  0  0  0
   -0.1603    0.6536    1.3034 C   0  0  0  0  0  0  0  0  0  0  0  0
    0.3908    0.9424    0.0412 C   0  0  0  0  0  0  0  0  0  0  0  0
   -0.4416    1.3275   -1.0277 C   0  0  0  0  0  0  0  0  0  0  0  0
   -1.8067    1.4244   -0.8431 C   0  0  0  0  0  0  0  0  0  0  0  0
   -2.3653    1.1363    0.4173 C   0  0  0  0  0  0  0  0  0  0  0  0
   -1.9502    0.5254    2.4579 H   0  0  0  0  0  0  0  0  0  0  0  0
    0.5027    0.3611    2.1043 H   0  0  0  0  0  0  0  0  0  0  0  0
    0.0073    1.5456   -1.9907 H   0  0  0  0  0  0  0  0  0  0  0  0
   -2.4692    1.7190   -1.6490 H   0  0  0  0  0  0  0  0  0  0  0  0
    1.7551    0.8759   -0.2546 N   0  0  0  0  0  0  0  0  0  0  0  0
    2.7500    0.6080    0.3258 N   0  0  0  0  0  0  0  0  0  0  0  0
    5.2846    0.4939    0.4182 B   0  0  0  0  0  0  0  0  0  0  0  0
    2.5116    0.2071    1.9000 F   0  0  0  0  0  0  0  0  0  0  0  0
    5.3776    0.7102   -0.8854 F   0  0  0  0  0  0  0  0  0  0  0  0
    5.3515    1.5144    1.2541 F   0  0  0  0  0  0  0  0  0  0  0  0
    5.2895   -0.7433    0.8775 F   0  0  0  0  0  0  0  0  0  0  0  0
   -3.7082    1.2587    0.4993 O   0  0  0  0  0  0  0  0  0  0  0  0
   -4.3525    0.9844    1.7411 C   0  0  0  0  0  0  0  0  0  0  0  0
   -5.4160    1.1489    1.5652 H   0  0  0  0  0  0  0  0  0  0  0  0
   -4.0053    1.6622    2.5295 H   0  0  0  0  0  0  0  0  0  0  0  0
   -4.1913   -0.0539    2.0530 H   0  0  0  0  0  0  0  0  0  0  0  0
  1  7  1  0  0  0  0
  2  1  1  0  0  0  0
  2  8  1  0  0  0  0
  3  2  2  0  0  0  0
  4  5  2  0  0  0  0
  4  3  1  0  0  0  0
  5  6  1  0  0  0  0
  6 18  1  0  0  0  0
  6  1  2  0  0  0  0
  9  4  1  0  0  0  0
 10  5  1  0  0  0  0
 11  3  1  0  0  0  0
 11 12  1  0  0  0  0
 12 14  1  0  0  0  0
 13 17  1  0  0  0  0
 13 16  1  0  0  0  0
 15 13  1  0  0  0  0
 18 19  1  0  0  0  0
 19 22  1  0  0  0  0
 19 21  1  0  0  0  0
 20 19  1  0  0  0  0
M  RAD  2  11   2  12   2
M  END
