Coordinates from ORCA-job p-CH3O-Ph-N2-X-BF4-B3LYPG-6-31G_dp-scan-d09-49-n400
 OpenBabel08281821133D

 22 22  0  0  0  0  0  0  0  0999 V2000
   -1.4631    0.6496    1.5006 C   0  0  0  0  0  0  0  0  0  0  0  0
   -0.0790    0.5371    1.3956 C   0  0  0  0  0  0  0  0  0  0  0  0
    0.5869    0.9501    0.2216 C   0  0  0  0  0  0  0  0  0  0  0  0
   -0.1897    1.4749   -0.8356 C   0  0  0  0  0  0  0  0  0  0  0  0
   -1.5619    1.5903   -0.7351 C   0  0  0  0  0  0  0  0  0  0  0  0
   -2.2152    1.1777    0.4399 C   0  0  0  0  0  0  0  0  0  0  0  0
   -1.9447    0.3224    2.4139 H   0  0  0  0  0  0  0  0  0  0  0  0
    0.4493    0.1233    2.2439 H   0  0  0  0  0  0  0  0  0  0  0  0
    0.3304    1.7873   -1.7346 H   0  0  0  0  0  0  0  0  0  0  0  0
   -2.1572    1.9944   -1.5465 H   0  0  0  0  0  0  0  0  0  0  0  0
    1.9647    0.9225   -0.0886 N   0  0  0  0  0  0  0  0  0  0  0  0
    2.8283    0.5067    0.7346 N   0  0  0  0  0  0  0  0  0  0  0  0
    4.5426    0.5240    0.2616 B   0  0  0  0  0  0  0  0  0  0  0  0
    2.5906    0.1667    1.6668 F   0  0  0  0  0  0  0  0  0  0  0  0
    4.5824   -0.2245   -0.8683 F   0  0  0  0  0  0  0  0  0  0  0  0
    4.8278    1.8435    0.1182 F   0  0  0  0  0  0  0  0  0  0  0  0
    5.0567   -0.0692    1.3853 F   0  0  0  0  0  0  0  0  0  0  0  0
   -3.5596    1.3288    0.4504 O   0  0  0  0  0  0  0  0  0  0  0  0
   -4.2876    0.9332    1.6087 C   0  0  0  0  0  0  0  0  0  0  0  0
   -5.3334    1.1532    1.3917 H   0  0  0  0  0  0  0  0  0  0  0  0
   -3.9735    1.5010    2.4923 H   0  0  0  0  0  0  0  0  0  0  0  0
   -4.1750   -0.1396    1.8051 H   0  0  0  0  0  0  0  0  0  0  0  0
  1  7  1  0  0  0  0
  2  1  1  0  0  0  0
  2  8  1  0  0  0  0
  3  2  2  0  0  0  0
  4  5  2  0  0  0  0
  4  3  1  0  0  0  0
  5  6  1  0  0  0  0
  6 18  1  0  0  0  0
  6  1  2  0  0  0  0
  9  4  1  0  0  0  0
 10  5  1  0  0  0  0
 11  3  1  0  0  0  0
 11 12  1  0  0  0  0
 12 14  1  0  0  0  0
 13 12  1  0  0  0  0
 13 17  1  0  0  0  0
 15 13  1  0  0  0  0
 16 13  1  0  0  0  0
 18 19  1  0  0  0  0
 19 22  1  0  0  0  0
 19 21  1  0  0  0  0
 20 19  1  0  0  0  0
M  RAD  1  11   2
M  END
