Coordinates from ORCA-job p-CH3O-Ph-N2-X-BF4-B3LYPG-6-31G_dp-scan-d09-49-n400
 OpenBabel08281821133D

 22 22  0  0  0  0  0  0  0  0999 V2000
   -1.4533    0.7357    1.5280 C   0  0  0  0  0  0  0  0  0  0  0  0
   -0.0714    0.6312    1.4232 C   0  0  0  0  0  0  0  0  0  0  0  0
    0.5735    0.9087    0.1971 C   0  0  0  0  0  0  0  0  0  0  0  0
   -0.2195    1.2905   -0.9099 C   0  0  0  0  0  0  0  0  0  0  0  0
   -1.5915    1.3964   -0.8086 C   0  0  0  0  0  0  0  0  0  0  0  0
   -2.2246    1.1192    0.4170 C   0  0  0  0  0  0  0  0  0  0  0  0
   -1.9227    0.5156    2.4788 H   0  0  0  0  0  0  0  0  0  0  0  0
    0.4818    0.3329    2.3015 H   0  0  0  0  0  0  0  0  0  0  0  0
    0.2879    1.5002   -1.8451 H   0  0  0  0  0  0  0  0  0  0  0  0
   -2.2023    1.6905   -1.6547 H   0  0  0  0  0  0  0  0  0  0  0  0
    1.9399    0.8673   -0.1194 N   0  0  0  0  0  0  0  0  0  0  0  0
    2.8455    0.5707    0.6817 N   0  0  0  0  0  0  0  0  0  0  0  0
    4.5595    0.5532    0.2835 B   0  0  0  0  0  0  0  0  0  0  0  0
    2.6018    0.2982    1.7833 F   0  0  0  0  0  0  0  0  0  0  0  0
    4.5891    0.8024   -1.0457 F   0  0  0  0  0  0  0  0  0  0  0  0
    5.0282    1.5452    1.0961 F   0  0  0  0  0  0  0  0  0  0  0  0
    4.9021   -0.7101    0.6712 F   0  0  0  0  0  0  0  0  0  0  0  0
   -3.5682    1.2483    0.4256 O   0  0  0  0  0  0  0  0  0  0  0  0
   -4.2822    0.9859    1.6314 C   0  0  0  0  0  0  0  0  0  0  0  0
   -5.3333    1.1536    1.3951 H   0  0  0  0  0  0  0  0  0  0  0  0
   -3.9764    1.6687    2.4325 H   0  0  0  0  0  0  0  0  0  0  0  0
   -4.1440   -0.0510    1.9590 H   0  0  0  0  0  0  0  0  0  0  0  0
  1  7  1  0  0  0  0
  2  1  1  0  0  0  0
  2  8  1  0  0  0  0
  3  2  2  0  0  0  0
  4  5  2  0  0  0  0
  4  3  1  0  0  0  0
  5  6  1  0  0  0  0
  6 18  1  0  0  0  0
  6  1  2  0  0  0  0
  9  4  1  0  0  0  0
 10  5  1  0  0  0  0
 11  3  1  0  0  0  0
 11 12  1  0  0  0  0
 12 14  1  0  0  0  0
 13 17  1  0  0  0  0
 13 12  1  0  0  0  0
 13 16  1  0  0  0  0
 15 13  1  0  0  0  0
 18 19  1  0  0  0  0
 19 22  1  0  0  0  0
 19 21  1  0  0  0  0
 20 19  1  0  0  0  0
M  RAD  1  11   2
M  END
