Coordinates from ORCA-job p-CH3O-Ph-N2-X-BF4-B3LYPG-6-31G_dp-scan-d09-49-n400
 OpenBabel08281821133D

 22 22  0  0  0  0  0  0  0  0999 V2000
   -1.4757    0.5945    1.4711 C   0  0  0  0  0  0  0  0  0  0  0  0
   -0.0947    0.4009    1.3571 C   0  0  0  0  0  0  0  0  0  0  0  0
    0.5729    0.8334    0.1899 C   0  0  0  0  0  0  0  0  0  0  0  0
   -0.2022    1.3797   -0.8544 C   0  0  0  0  0  0  0  0  0  0  0  0
   -1.5684    1.5367   -0.7497 C   0  0  0  0  0  0  0  0  0  0  0  0
   -2.2210    1.1574    0.4299 C   0  0  0  0  0  0  0  0  0  0  0  0
   -1.9625    0.2791    2.3860 H   0  0  0  0  0  0  0  0  0  0  0  0
    0.4212   -0.0453    2.2020 H   0  0  0  0  0  0  0  0  0  0  0  0
    0.3210    1.6930   -1.7515 H   0  0  0  0  0  0  0  0  0  0  0  0
   -2.1536    1.9642   -1.5569 H   0  0  0  0  0  0  0  0  0  0  0  0
    1.9682    0.8562   -0.1137 N   0  0  0  0  0  0  0  0  0  0  0  0
    2.8316    0.4978    0.7730 N   0  0  0  0  0  0  0  0  0  0  0  0
    4.5524    0.6011    0.2819 B   0  0  0  0  0  0  0  0  0  0  0  0
    2.6145    0.2315    1.6049 F   0  0  0  0  0  0  0  0  0  0  0  0
    4.6637   -0.0157   -0.9147 F   0  0  0  0  0  0  0  0  0  0  0  0
    4.7751    1.9406    0.2964 F   0  0  0  0  0  0  0  0  0  0  0  0
    5.0671   -0.0840    1.3621 F   0  0  0  0  0  0  0  0  0  0  0  0
   -3.5603    1.3730    0.4627 O   0  0  0  0  0  0  0  0  0  0  0  0
   -4.2790    1.0265    1.6401 C   0  0  0  0  0  0  0  0  0  0  0  0
   -5.3182    1.2936    1.4448 H   0  0  0  0  0  0  0  0  0  0  0  0
   -3.9187    1.5874    2.5107 H   0  0  0  0  0  0  0  0  0  0  0  0
   -4.2135   -0.0482    1.8497 H   0  0  0  0  0  0  0  0  0  0  0  0
  1  7  1  0  0  0  0
  2  1  1  0  0  0  0
  2  8  1  0  0  0  0
  3  2  2  0  0  0  0
  4  5  2  0  0  0  0
  4  3  1  0  0  0  0
  5  6  1  0  0  0  0
  6 18  1  0  0  0  0
  6  1  2  0  0  0  0
  9  4  1  0  0  0  0
 10  5  1  0  0  0  0
 11  3  1  0  0  0  0
 11 12  1  0  0  0  0
 12 14  1  0  0  0  0
 13 16  1  0  0  0  0
 13 12  1  0  0  0  0
 13 17  1  0  0  0  0
 15 13  1  0  0  0  0
 18 19  1  0  0  0  0
 19 22  1  0  0  0  0
 19 21  1  0  0  0  0
 20 19  1  0  0  0  0
M  RAD  1  11   2
M  END
