Coordinates from ORCA-job p-CH3O-Ph-N2-X-BF4-B3LYPG-6-31G_dp-scan-d09-49-n400
 OpenBabel08281821133D

 22 22  0  0  0  0  0  0  0  0999 V2000
   -1.4543    0.7356    1.5283 C   0  0  0  0  0  0  0  0  0  0  0  0
   -0.0726    0.6308    1.4239 C   0  0  0  0  0  0  0  0  0  0  0  0
    0.5721    0.9085    0.1977 C   0  0  0  0  0  0  0  0  0  0  0  0
   -0.2202    1.2905   -0.9098 C   0  0  0  0  0  0  0  0  0  0  0  0
   -1.5921    1.3966   -0.8088 C   0  0  0  0  0  0  0  0  0  0  0  0
   -2.2253    1.1194    0.4169 C   0  0  0  0  0  0  0  0  0  0  0  0
   -1.9242    0.5155    2.4789 H   0  0  0  0  0  0  0  0  0  0  0  0
    0.4820    0.3326    2.3012 H   0  0  0  0  0  0  0  0  0  0  0  0
    0.2875    1.5000   -1.8450 H   0  0  0  0  0  0  0  0  0  0  0  0
   -2.2028    1.6909   -1.6549 H   0  0  0  0  0  0  0  0  0  0  0  0
    1.9376    0.8663   -0.1170 N   0  0  0  0  0  0  0  0  0  0  0  0
    2.8469    0.5719    0.6769 N   0  0  0  0  0  0  0  0  0  0  0  0
    4.5644    0.5533    0.2817 B   0  0  0  0  0  0  0  0  0  0  0  0
    2.6007    0.2955    1.7981 F   0  0  0  0  0  0  0  0  0  0  0  0
    4.5900    0.8030   -1.0477 F   0  0  0  0  0  0  0  0  0  0  0  0
    5.0325    1.5457    1.0929 F   0  0  0  0  0  0  0  0  0  0  0  0
    4.9068   -0.7097    0.6677 F   0  0  0  0  0  0  0  0  0  0  0  0
   -3.5685    1.2486    0.4253 O   0  0  0  0  0  0  0  0  0  0  0  0
   -4.2833    0.9862    1.6309 C   0  0  0  0  0  0  0  0  0  0  0  0
   -5.3342    1.1542    1.3940 H   0  0  0  0  0  0  0  0  0  0  0  0
   -3.9776    1.6689    2.4321 H   0  0  0  0  0  0  0  0  0  0  0  0
   -4.1454   -0.0508    1.9582 H   0  0  0  0  0  0  0  0  0  0  0  0
  1  7  1  0  0  0  0
  2  1  1  0  0  0  0
  2  8  1  0  0  0  0
  3  2  2  0  0  0  0
  4  5  2  0  0  0  0
  4  3  1  0  0  0  0
  5  6  1  0  0  0  0
  6 18  1  0  0  0  0
  6  1  2  0  0  0  0
  9  4  1  0  0  0  0
 10  5  1  0  0  0  0
 11  3  1  0  0  0  0
 11 12  1  0  0  0  0
 12 14  1  0  0  0  0
 13 17  1  0  0  0  0
 13 12  1  0  0  0  0
 13 16  1  0  0  0  0
 15 13  1  0  0  0  0
 18 19  1  0  0  0  0
 19 22  1  0  0  0  0
 19 21  1  0  0  0  0
 20 19  1  0  0  0  0
M  RAD  1  11   2
M  END
