Coordinates from ORCA-job p-CH3O-Ph-N2-X-BF4-B3LYPG-6-31G_dp-scan-d09-49-n400
 OpenBabel08281821133D

 22 22  0  0  0  0  0  0  0  0999 V2000
   -1.4508    0.7383    1.5275 C   0  0  0  0  0  0  0  0  0  0  0  0
   -0.0681    0.6348    1.4209 C   0  0  0  0  0  0  0  0  0  0  0  0
    0.5766    0.9114    0.1948 C   0  0  0  0  0  0  0  0  0  0  0  0
   -0.2186    1.2920   -0.9105 C   0  0  0  0  0  0  0  0  0  0  0  0
   -1.5910    1.3956   -0.8084 C   0  0  0  0  0  0  0  0  0  0  0  0
   -2.2234    1.1190    0.4174 C   0  0  0  0  0  0  0  0  0  0  0  0
   -1.9186    0.5191    2.4793 H   0  0  0  0  0  0  0  0  0  0  0  0
    0.4826    0.3384    2.3019 H   0  0  0  0  0  0  0  0  0  0  0  0
    0.2877    1.5023   -1.8462 H   0  0  0  0  0  0  0  0  0  0  0  0
   -2.2024    1.6883   -1.6547 H   0  0  0  0  0  0  0  0  0  0  0  0
    1.9456    0.8731   -0.1252 N   0  0  0  0  0  0  0  0  0  0  0  0
    2.8409    0.5636    0.6920 N   0  0  0  0  0  0  0  0  0  0  0  0
    4.5496    0.5529    0.2887 B   0  0  0  0  0  0  0  0  0  0  0  0
    2.6034    0.2925    1.7424 F   0  0  0  0  0  0  0  0  0  0  0  0
    4.5909    0.8003   -1.0397 F   0  0  0  0  0  0  0  0  0  0  0  0
    5.0147    1.5451    1.1058 F   0  0  0  0  0  0  0  0  0  0  0  0
    4.8936   -0.7103    0.6820 F   0  0  0  0  0  0  0  0  0  0  0  0
   -3.5681    1.2463    0.4264 O   0  0  0  0  0  0  0  0  0  0  0  0
   -4.2796    0.9844    1.6331 C   0  0  0  0  0  0  0  0  0  0  0  0
   -5.3316    1.1490    1.3983 H   0  0  0  0  0  0  0  0  0  0  0  0
   -3.9746    1.6690    2.4331 H   0  0  0  0  0  0  0  0  0  0  0  0
   -4.1387   -0.0517    1.9627 H   0  0  0  0  0  0  0  0  0  0  0  0
  1  7  1  0  0  0  0
  2  1  1  0  0  0  0
  2  8  1  0  0  0  0
  3  2  2  0  0  0  0
  4  5  2  0  0  0  0
  4  3  1  0  0  0  0
  5  6  1  0  0  0  0
  6 18  1  0  0  0  0
  6  1  2  0  0  0  0
  9  4  1  0  0  0  0
 10  5  1  0  0  0  0
 11  3  1  0  0  0  0
 11 12  1  0  0  0  0
 12 14  1  0  0  0  0
 13 17  1  0  0  0  0
 13 12  1  0  0  0  0
 13 16  1  0  0  0  0
 15 13  1  0  0  0  0
 18 19  1  0  0  0  0
 19 22  1  0  0  0  0
 19 21  1  0  0  0  0
 20 19  1  0  0  0  0
M  RAD  1  11   2
M  END
