Coordinates from ORCA-job p-CH3O-Ph-N2-X-BF4-B3LYPG-6-31G_dp-scan-d09-49-n400
 OpenBabel08281821133D

 22 21  0  0  0  0  0  0  0  0999 V2000
   -1.5482    0.7491    1.5299 C   0  0  0  0  0  0  0  0  0  0  0  0
   -0.1667    0.6467    1.4211 C   0  0  0  0  0  0  0  0  0  0  0  0
    0.4581    0.9233    0.1894 C   0  0  0  0  0  0  0  0  0  0  0  0
   -0.3250    1.3016   -0.9207 C   0  0  0  0  0  0  0  0  0  0  0  0
   -1.6976    1.4043   -0.8108 C   0  0  0  0  0  0  0  0  0  0  0  0
   -2.3228    1.1278    0.4196 C   0  0  0  0  0  0  0  0  0  0  0  0
   -2.0142    0.5312    2.4829 H   0  0  0  0  0  0  0  0  0  0  0  0
    0.4334    0.3569    2.2694 H   0  0  0  0  0  0  0  0  0  0  0  0
    0.1750    1.5104   -1.8603 H   0  0  0  0  0  0  0  0  0  0  0  0
   -2.3148    1.6949   -1.6535 H   0  0  0  0  0  0  0  0  0  0  0  0
    1.8315    0.8624   -0.0704 N   0  0  0  0  0  0  0  0  0  0  0  0
    2.7911    0.5944    0.5946 N   0  0  0  0  0  0  0  0  0  0  0  0
    5.1390    0.5225    0.2116 B   0  0  0  0  0  0  0  0  0  0  0  0
    2.4893    0.2404    2.0433 F   0  0  0  0  0  0  0  0  0  0  0  0
    4.9920    0.7932   -1.0790 F   0  0  0  0  0  0  0  0  0  0  0  0
    5.4043    1.5056    1.0584 F   0  0  0  0  0  0  0  0  0  0  0  0
    5.2681   -0.7354    0.6047 F   0  0  0  0  0  0  0  0  0  0  0  0
   -3.6682    1.2537    0.4319 O   0  0  0  0  0  0  0  0  0  0  0  0
   -4.3755    0.9897    1.6406 C   0  0  0  0  0  0  0  0  0  0  0  0
   -5.4286    1.1523    1.4090 H   0  0  0  0  0  0  0  0  0  0  0  0
   -4.0693    1.6743    2.4402 H   0  0  0  0  0  0  0  0  0  0  0  0
   -4.2312   -0.0460    1.9695 H   0  0  0  0  0  0  0  0  0  0  0  0
  1  7  1  0  0  0  0
  2  1  1  0  0  0  0
  2  8  1  0  0  0  0
  3  2  2  0  0  0  0
  4  5  2  0  0  0  0
  4  3  1  0  0  0  0
  5  6  1  0  0  0  0
  6 18  1  0  0  0  0
  6  1  2  0  0  0  0
  9  4  1  0  0  0  0
 10  5  1  0  0  0  0
 11  3  1  0  0  0  0
 11 12  1  0  0  0  0
 12 14  1  0  0  0  0
 13 17  1  0  0  0  0
 13 16  1  0  0  0  0
 15 13  1  0  0  0  0
 18 19  1  0  0  0  0
 19 22  1  0  0  0  0
 19 21  1  0  0  0  0
 20 19  1  0  0  0  0
M  RAD  2  11   2  12   2
M  END
