Coordinates from ORCA-job p-CH3O-Ph-N2-X-BF4-B3LYPG-6-31G_dp-scan-d09-49-n400
 OpenBabel08281821133D

 22 21  0  0  0  0  0  0  0  0999 V2000
   -0.9856    0.6705    1.2925 C   0  0  0  0  0  0  0  0  0  0  0  0
    0.2745    0.4762    0.7518 C   0  0  0  0  0  0  0  0  0  0  0  0
    0.4644    0.8236   -0.5985 C   0  0  0  0  0  0  0  0  0  0  0  0
   -0.5642    1.3564   -1.4102 C   0  0  0  0  0  0  0  0  0  0  0  0
   -1.8033    1.5483   -0.8464 C   0  0  0  0  0  0  0  0  0  0  0  0
   -2.0261    1.2089    0.5107 C   0  0  0  0  0  0  0  0  0  0  0  0
   -1.1488    0.4080    2.3297 H   0  0  0  0  0  0  0  0  0  0  0  0
    1.1068    0.0711    1.3302 H   0  0  0  0  0  0  0  0  0  0  0  0
   -0.3721    1.6117   -2.4463 H   0  0  0  0  0  0  0  0  0  0  0  0
   -2.6259    1.9595   -1.4200 H   0  0  0  0  0  0  0  0  0  0  0  0
    1.6852    0.6205   -1.1887 N   0  0  0  0  0  0  0  0  0  0  0  0
    2.6337    0.4423   -1.7486 N   0  0  0  0  0  0  0  0  0  0  0  0
    3.6654    0.4131    1.3228 B   0  0  0  0  0  0  0  0  0  0  0  0
    4.3085   -0.1361    0.2008 F   0  0  0  0  0  0  0  0  0  0  0  0
    2.8613    1.5109    0.8727 F   0  0  0  0  0  0  0  0  0  0  0  0
    2.7583   -0.5597    1.8455 F   0  0  0  0  0  0  0  0  0  0  0  0
    4.5519    0.8267    2.2858 F   0  0  0  0  0  0  0  0  0  0  0  0
   -3.2678    1.4384    0.9550 O   0  0  0  0  0  0  0  0  0  0  0  0
   -3.5965    1.1410    2.3182 C   0  0  0  0  0  0  0  0  0  0  0  0
   -4.6428    1.4217    2.4320 H   0  0  0  0  0  0  0  0  0  0  0  0
   -2.9805    1.7275    3.0066 H   0  0  0  0  0  0  0  0  0  0  0  0
   -3.4763    0.0728    2.5260 H   0  0  0  0  0  0  0  0  0  0  0  0
  1  7  1  0  0  0  0
  2  1  1  0  0  0  0
  2  8  1  0  0  0  0
  3  2  2  0  0  0  0
  4  5  2  0  0  0  0
  4  3  1  0  0  0  0
  5  6  1  0  0  0  0
  6 18  1  0  0  0  0
  6  1  2  0  0  0  0
  9  4  1  0  0  0  0
 10  5  1  0  0  0  0
 11  3  1  0  0  0  0
 12 11  1  0  0  0  0
 13 16  1  0  0  0  0
 13 17  1  0  0  0  0
 14 13  1  0  0  0  0
 15 13  1  0  0  0  0
 18 19  1  0  0  0  0
 19 20  1  0  0  0  0
 19 22  1  0  0  0  0
 19 21  1  0  0  0  0
M  RAD  2  11   2  12   3
M  END
