Coordinates from ORCA-job p-CH3O-Ph-N2-X-BF4-B3LYPG-6-31G_dp-scan-d09-49-n400
 OpenBabel08281821133D

 22 21  0  0  0  0  0  0  0  0999 V2000
   -0.9736    0.6745    1.2790 C   0  0  0  0  0  0  0  0  0  0  0  0
    0.2824    0.4867    0.7267 C   0  0  0  0  0  0  0  0  0  0  0  0
    0.4574    0.8384   -0.6244 C   0  0  0  0  0  0  0  0  0  0  0  0
   -0.5813    1.3703   -1.4253 C   0  0  0  0  0  0  0  0  0  0  0  0
   -1.8155    1.5551   -0.8495 C   0  0  0  0  0  0  0  0  0  0  0  0
   -2.0240    1.2106    0.5090 C   0  0  0  0  0  0  0  0  0  0  0  0
   -1.1252    0.4087    2.3171 H   0  0  0  0  0  0  0  0  0  0  0  0
    1.1201    0.0842    1.3008 H   0  0  0  0  0  0  0  0  0  0  0  0
   -0.3999    1.6301   -2.4622 H   0  0  0  0  0  0  0  0  0  0  0  0
   -2.6449    1.9650   -1.4141 H   0  0  0  0  0  0  0  0  0  0  0  0
    1.6711    0.6451   -1.2321 N   0  0  0  0  0  0  0  0  0  0  0  0
    2.5940    0.4730   -1.8343 N   0  0  0  0  0  0  0  0  0  0  0  0
    3.6642    0.3922    1.3613 B   0  0  0  0  0  0  0  0  0  0  0  0
    4.3774   -0.2320    0.3344 F   0  0  0  0  0  0  0  0  0  0  0  0
    2.8885    1.4566    0.7825 F   0  0  0  0  0  0  0  0  0  0  0  0
    2.7194   -0.5399    1.8970 F   0  0  0  0  0  0  0  0  0  0  0  0
    4.4776    0.8850    2.3531 F   0  0  0  0  0  0  0  0  0  0  0  0
   -3.2618    1.4338    0.9657 O   0  0  0  0  0  0  0  0  0  0  0  0
   -3.5766    1.1304    2.3312 C   0  0  0  0  0  0  0  0  0  0  0  0
   -4.6229    1.4063    2.4556 H   0  0  0  0  0  0  0  0  0  0  0  0
   -2.9566    1.7173    3.0157 H   0  0  0  0  0  0  0  0  0  0  0  0
   -3.4499    0.0620    2.5341 H   0  0  0  0  0  0  0  0  0  0  0  0
  1  7  1  0  0  0  0
  2  1  1  0  0  0  0
  2  8  1  0  0  0  0
  3  2  2  0  0  0  0
  4  5  2  0  0  0  0
  4  3  1  0  0  0  0
  5  6  1  0  0  0  0
  6 18  1  0  0  0  0
  6  1  2  0  0  0  0
  9  4  1  0  0  0  0
 10  5  1  0  0  0  0
 11  3  1  0  0  0  0
 12 11  1  0  0  0  0
 13 16  1  0  0  0  0
 13 17  1  0  0  0  0
 14 13  1  0  0  0  0
 15 13  1  0  0  0  0
 18 19  1  0  0  0  0
 19 20  1  0  0  0  0
 19 22  1  0  0  0  0
 19 21  1  0  0  0  0
M  RAD  2  11   2  12   3
M  END
