Coordinates from ORCA-job p-CH3O-Ph-N2-X-BF4-B3LYPG-6-31G_dp-scan-d09-49-n400
 OpenBabel08281821133D

 22 21  0  0  0  0  0  0  0  0999 V2000
   -0.9912    0.6626    1.2872 C   0  0  0  0  0  0  0  0  0  0  0  0
    0.2712    0.4694    0.7506 C   0  0  0  0  0  0  0  0  0  0  0  0
    0.4719    0.8252   -0.5963 C   0  0  0  0  0  0  0  0  0  0  0  0
   -0.5503    1.3678   -1.4058 C   0  0  0  0  0  0  0  0  0  0  0  0
   -1.7935    1.5593   -0.8485 C   0  0  0  0  0  0  0  0  0  0  0  0
   -2.0258    1.2089    0.5031 C   0  0  0  0  0  0  0  0  0  0  0  0
   -1.1606    0.3932    2.3217 H   0  0  0  0  0  0  0  0  0  0  0  0
    1.0933    0.0598    1.3376 H   0  0  0  0  0  0  0  0  0  0  0  0
   -0.3506    1.6311   -2.4384 H   0  0  0  0  0  0  0  0  0  0  0  0
   -2.6115    1.9775   -1.4235 H   0  0  0  0  0  0  0  0  0  0  0  0
    1.7028    0.6249   -1.1667 N   0  0  0  0  0  0  0  0  0  0  0  0
    2.7222    0.4203   -1.5814 N   0  0  0  0  0  0  0  0  0  0  0  0
    3.6415    0.4397    1.3147 B   0  0  0  0  0  0  0  0  0  0  0  0
    3.9873   -0.2230    0.0908 F   0  0  0  0  0  0  0  0  0  0  0  0
    2.8875    1.5886    0.9606 F   0  0  0  0  0  0  0  0  0  0  0  0
    2.7859   -0.4250    2.0441 F   0  0  0  0  0  0  0  0  0  0  0  0
    4.7639    0.7665    2.0277 F   0  0  0  0  0  0  0  0  0  0  0  0
   -3.2714    1.4358    0.9423 O   0  0  0  0  0  0  0  0  0  0  0  0
   -3.6088    1.1213    2.2986 C   0  0  0  0  0  0  0  0  0  0  0  0
   -4.6559    1.4006    2.4096 H   0  0  0  0  0  0  0  0  0  0  0  0
   -2.9977    1.6985    2.9994 H   0  0  0  0  0  0  0  0  0  0  0  0
   -3.4903    0.0504    2.4942 H   0  0  0  0  0  0  0  0  0  0  0  0
  1  7  1  0  0  0  0
  2  1  1  0  0  0  0
  2  8  1  0  0  0  0
  3  2  2  0  0  0  0
  4  5  2  0  0  0  0
  4  3  1  0  0  0  0
  5  6  1  0  0  0  0
  6 18  1  0  0  0  0
  6  1  2  0  0  0  0
  9  4  1  0  0  0  0
 10  5  1  0  0  0  0
 11  3  1  0  0  0  0
 12 11  1  0  0  0  0
 13 17  1  0  0  0  0
 13 16  1  0  0  0  0
 14 13  1  0  0  0  0
 15 13  1  0  0  0  0
 18 19  1  0  0  0  0
 19 20  1  0  0  0  0
 19 22  1  0  0  0  0
 19 21  1  0  0  0  0
M  RAD  2  11   2  12   3
M  END
