Coordinates from ORCA-job p-CH3O-Ph-N2-X-BF4-B3LYPG-6-31G_dp-scan-d09-49-n400
 OpenBabel08281821133D

 22 21  0  0  0  0  0  0  0  0999 V2000
   -0.9618    0.6744    1.2614 C   0  0  0  0  0  0  0  0  0  0  0  0
    0.2886    0.4932    0.6945 C   0  0  0  0  0  0  0  0  0  0  0  0
    0.4464    0.8511   -0.6572 C   0  0  0  0  0  0  0  0  0  0  0  0
   -0.6040    1.3817   -1.4448 C   0  0  0  0  0  0  0  0  0  0  0  0
   -1.8316    1.5598   -0.8541 C   0  0  0  0  0  0  0  0  0  0  0  0
   -2.0228    1.2106    0.5061 C   0  0  0  0  0  0  0  0  0  0  0  0
   -1.0999    0.4040    2.3002 H   0  0  0  0  0  0  0  0  0  0  0  0
    1.1330    0.0899    1.2598 H   0  0  0  0  0  0  0  0  0  0  0  0
   -0.4359    1.6452   -2.4831 H   0  0  0  0  0  0  0  0  0  0  0  0
   -2.6691    1.9685   -1.4075 H   0  0  0  0  0  0  0  0  0  0  0  0
    1.6520    0.6661   -1.2831 N   0  0  0  0  0  0  0  0  0  0  0  0
    2.5583    0.5070   -1.9134 N   0  0  0  0  0  0  0  0  0  0  0  0
    3.6634    0.3725    1.4069 B   0  0  0  0  0  0  0  0  0  0  0  0
    4.4620   -0.2962    0.4849 F   0  0  0  0  0  0  0  0  0  0  0  0
    2.9228    1.3956    0.7096 F   0  0  0  0  0  0  0  0  0  0  0  0
    2.6850   -0.5375    1.9238 F   0  0  0  0  0  0  0  0  0  0  0  0
    4.3821    0.9401    2.4332 F   0  0  0  0  0  0  0  0  0  0  0  0
   -3.2549    1.4299    0.9782 O   0  0  0  0  0  0  0  0  0  0  0  0
   -3.5519    1.1259    2.3479 C   0  0  0  0  0  0  0  0  0  0  0  0
   -4.5969    1.4005    2.4855 H   0  0  0  0  0  0  0  0  0  0  0  0
   -2.9238    1.7136    3.0240 H   0  0  0  0  0  0  0  0  0  0  0  0
   -3.4211    0.0576    2.5488 H   0  0  0  0  0  0  0  0  0  0  0  0
  1  7  1  0  0  0  0
  2  8  1  0  0  0  0
  2  1  1  0  0  0  0
  3  2  2  0  0  0  0
  4  5  2  0  0  0  0
  4  3  1  0  0  0  0
  5  6  1  0  0  0  0
  6 18  1  0  0  0  0
  6  1  2  0  0  0  0
  9  4  1  0  0  0  0
 10  5  1  0  0  0  0
 11  3  1  0  0  0  0
 12 11  1  0  0  0  0
 13 16  1  0  0  0  0
 13 17  1  0  0  0  0
 14 13  1  0  0  0  0
 15 13  1  0  0  0  0
 18 19  1  0  0  0  0
 19 20  1  0  0  0  0
 19 22  1  0  0  0  0
 19 21  1  0  0  0  0
M  RAD  2  11   2  12   3
M  END
