Coordinates from ORCA-job p-CH3O-Ph-N2-X-BF4-B3LYPG-6-31G_dp-scan-d09-49-n400
 OpenBabel08281821133D

 22 21  0  0  0  0  0  0  0  0999 V2000
   -0.9966    0.6764    1.3033 C   0  0  0  0  0  0  0  0  0  0  0  0
    0.2683    0.4828    0.7731 C   0  0  0  0  0  0  0  0  0  0  0  0
    0.4703    0.8222   -0.5774 C   0  0  0  0  0  0  0  0  0  0  0  0
   -0.5535    1.3454   -1.3995 C   0  0  0  0  0  0  0  0  0  0  0  0
   -1.7988    1.5366   -0.8478 C   0  0  0  0  0  0  0  0  0  0  0  0
   -2.0321    1.2058    0.5091 C   0  0  0  0  0  0  0  0  0  0  0  0
   -1.1678    0.4193    2.3406 H   0  0  0  0  0  0  0  0  0  0  0  0
    1.0954    0.0814    1.3588 H   0  0  0  0  0  0  0  0  0  0  0  0
   -0.3534    1.5944   -2.4356 H   0  0  0  0  0  0  0  0  0  0  0  0
   -2.6180    1.9405   -1.4312 H   0  0  0  0  0  0  0  0  0  0  0  0
    1.7015    0.6221   -1.1480 N   0  0  0  0  0  0  0  0  0  0  0  0
    2.6887    0.4379   -1.6380 N   0  0  0  0  0  0  0  0  0  0  0  0
    3.6675    0.4213    1.2932 B   0  0  0  0  0  0  0  0  0  0  0  0
    4.1938   -0.0925    0.0783 F   0  0  0  0  0  0  0  0  0  0  0  0
    2.8703    1.5548    0.9594 F   0  0  0  0  0  0  0  0  0  0  0  0
    2.7884   -0.5569    1.8392 F   0  0  0  0  0  0  0  0  0  0  0  0
    4.6613    0.7518    2.1765 F   0  0  0  0  0  0  0  0  0  0  0  0
   -3.2793    1.4333    0.9419 O   0  0  0  0  0  0  0  0  0  0  0  0
   -3.6172    1.1432    2.3037 C   0  0  0  0  0  0  0  0  0  0  0  0
   -4.6656    1.4199    2.4081 H   0  0  0  0  0  0  0  0  0  0  0  0
   -3.0093    1.7366    2.9936 H   0  0  0  0  0  0  0  0  0  0  0  0
   -3.4941    0.0769    2.5200 H   0  0  0  0  0  0  0  0  0  0  0  0
  1  7  1  0  0  0  0
  2  1  1  0  0  0  0
  2  8  1  0  0  0  0
  3  2  2  0  0  0  0
  4  5  2  0  0  0  0
  4  3  1  0  0  0  0
  5  6  1  0  0  0  0
  6 18  1  0  0  0  0
  6  1  2  0  0  0  0
  9  4  1  0  0  0  0
 10  5  1  0  0  0  0
 11  3  1  0  0  0  0
 12 11  1  0  0  0  0
 13 16  1  0  0  0  0
 13 17  1  0  0  0  0
 14 13  1  0  0  0  0
 15 13  1  0  0  0  0
 18 19  1  0  0  0  0
 19 20  1  0  0  0  0
 19 22  1  0  0  0  0
 19 21  1  0  0  0  0
M  RAD  2  11   2  12   3
M  END
