Coordinates from ORCA-job p-CH3O-Ph-N2-X-BF4-B3LYPG-6-31G_dp-scan-d09-49-n400
 OpenBabel08281821133D

 22 21  0  0  0  0  0  0  0  0999 V2000
   -0.9917    0.6732    1.2991 C   0  0  0  0  0  0  0  0  0  0  0  0
    0.2713    0.4796    0.7648 C   0  0  0  0  0  0  0  0  0  0  0  0
    0.4682    0.8231   -0.5854 C   0  0  0  0  0  0  0  0  0  0  0  0
   -0.5572    1.3508   -1.4034 C   0  0  0  0  0  0  0  0  0  0  0  0
   -1.8000    1.5422   -0.8468 C   0  0  0  0  0  0  0  0  0  0  0  0
   -2.0291    1.2071    0.5101 C   0  0  0  0  0  0  0  0  0  0  0  0
   -1.1598    0.4133    2.3362 H   0  0  0  0  0  0  0  0  0  0  0  0
    1.1009    0.0763    1.3467 H   0  0  0  0  0  0  0  0  0  0  0  0
   -0.3602    1.6026   -2.4394 H   0  0  0  0  0  0  0  0  0  0  0  0
   -2.6205    1.9493   -1.4261 H   0  0  0  0  0  0  0  0  0  0  0  0
    1.6946    0.6202   -1.1643 N   0  0  0  0  0  0  0  0  0  0  0  0
    2.6627    0.4376   -1.6896 N   0  0  0  0  0  0  0  0  0  0  0  0
    3.6665    0.4179    1.3047 B   0  0  0  0  0  0  0  0  0  0  0  0
    4.2462   -0.1108    0.1304 F   0  0  0  0  0  0  0  0  0  0  0  0
    2.8633    1.5360    0.9200 F   0  0  0  0  0  0  0  0  0  0  0  0
    2.7746   -0.5584    1.8405 F   0  0  0  0  0  0  0  0  0  0  0  0
    4.6124    0.7864    2.2266 F   0  0  0  0  0  0  0  0  0  0  0  0
   -3.2740    1.4355    0.9475 O   0  0  0  0  0  0  0  0  0  0  0  0
   -3.6084    1.1424    2.3099 C   0  0  0  0  0  0  0  0  0  0  0  0
   -4.6559    1.4210    2.4179 H   0  0  0  0  0  0  0  0  0  0  0  0
   -2.9972    1.7328    2.9993 H   0  0  0  0  0  0  0  0  0  0  0  0
   -3.4868    0.0753    2.5226 H   0  0  0  0  0  0  0  0  0  0  0  0
  1  7  1  0  0  0  0
  2  1  1  0  0  0  0
  2  8  1  0  0  0  0
  3  2  2  0  0  0  0
  4  5  2  0  0  0  0
  4  3  1  0  0  0  0
  5  6  1  0  0  0  0
  6 18  1  0  0  0  0
  6  1  2  0  0  0  0
  9  4  1  0  0  0  0
 10  5  1  0  0  0  0
 11  3  1  0  0  0  0
 12 11  1  0  0  0  0
 13 16  1  0  0  0  0
 13 17  1  0  0  0  0
 14 13  1  0  0  0  0
 15 13  1  0  0  0  0
 18 19  1  0  0  0  0
 19 20  1  0  0  0  0
 19 22  1  0  0  0  0
 19 21  1  0  0  0  0
M  RAD  2  11   2  12   3
M  END
