Coordinates from ORCA-job p-CH3O-Ph-N2-X-BF4-B3LYPG-6-31G_dp-scan-d09-49-n400
 OpenBabel08281821133D

 22 21  0  0  0  0  0  0  0  0999 V2000
   -0.9699    0.6757    1.2739 C   0  0  0  0  0  0  0  0  0  0  0  0
    0.2848    0.4911    0.7176 C   0  0  0  0  0  0  0  0  0  0  0  0
    0.4546    0.8442   -0.6338 C   0  0  0  0  0  0  0  0  0  0  0  0
   -0.5879    1.3749   -1.4310 C   0  0  0  0  0  0  0  0  0  0  0  0
   -1.8204    1.5568   -0.8510 C   0  0  0  0  0  0  0  0  0  0  0  0
   -2.0238    1.2108    0.5080 C   0  0  0  0  0  0  0  0  0  0  0  0
   -1.1173    0.4085    2.3123 H   0  0  0  0  0  0  0  0  0  0  0  0
    1.1247    0.0893    1.2896 H   0  0  0  0  0  0  0  0  0  0  0  0
   -0.4107    1.6354   -2.4685 H   0  0  0  0  0  0  0  0  0  0  0  0
   -2.6525    1.9654   -1.4125 H   0  0  0  0  0  0  0  0  0  0  0  0
    1.6657    0.6523   -1.2474 N   0  0  0  0  0  0  0  0  0  0  0  0
    2.5823    0.4823   -1.8596 N   0  0  0  0  0  0  0  0  0  0  0  0
    3.6643    0.3853    1.3754 B   0  0  0  0  0  0  0  0  0  0  0  0
    4.3974   -0.2589    0.3782 F   0  0  0  0  0  0  0  0  0  0  0  0
    2.9012    1.4399    0.7596 F   0  0  0  0  0  0  0  0  0  0  0  0
    2.7069   -0.5342    1.9118 F   0  0  0  0  0  0  0  0  0  0  0  0
    4.4553    0.8998    2.3747 F   0  0  0  0  0  0  0  0  0  0  0  0
   -3.2602    1.4316    0.9691 O   0  0  0  0  0  0  0  0  0  0  0  0
   -3.5698    1.1274    2.3357 C   0  0  0  0  0  0  0  0  0  0  0  0
   -4.6160    1.4016    2.4638 H   0  0  0  0  0  0  0  0  0  0  0  0
   -2.9481    1.7151    3.0180 H   0  0  0  0  0  0  0  0  0  0  0  0
   -3.4405    0.0591    2.5378 H   0  0  0  0  0  0  0  0  0  0  0  0
  1  7  1  0  0  0  0
  2  1  1  0  0  0  0
  2  8  1  0  0  0  0
  3  2  2  0  0  0  0
  4  5  2  0  0  0  0
  4  3  1  0  0  0  0
  5  6  1  0  0  0  0
  6 18  1  0  0  0  0
  6  1  2  0  0  0  0
  9  4  1  0  0  0  0
 10  5  1  0  0  0  0
 11  3  1  0  0  0  0
 12 11  1  0  0  0  0
 13 16  1  0  0  0  0
 13 17  1  0  0  0  0
 14 13  1  0  0  0  0
 15 13  1  0  0  0  0
 18 19  1  0  0  0  0
 19 20  1  0  0  0  0
 19 22  1  0  0  0  0
 19 21  1  0  0  0  0
M  RAD  2  11   2  12   3
M  END
