Coordinates from ORCA-job p-CH3O-Ph-N2-X-BF4-B3LYPG-6-31G_dp-scan-d09-49-n400
 OpenBabel08281821133D

 22 21  0  0  0  0  0  0  0  0999 V2000
   -0.9304    0.6611    1.2093 C   0  0  0  0  0  0  0  0  0  0  0  0
    0.2982    0.4819    0.5967 C   0  0  0  0  0  0  0  0  0  0  0  0
    0.4118    0.8649   -0.7529 C   0  0  0  0  0  0  0  0  0  0  0  0
   -0.6623    1.4146   -1.4958 C   0  0  0  0  0  0  0  0  0  0  0  0
   -1.8671    1.5888   -0.8598 C   0  0  0  0  0  0  0  0  0  0  0  0
   -2.0129    1.2178    0.5011 C   0  0  0  0  0  0  0  0  0  0  0  0
   -1.0319    0.3735    2.2478 H   0  0  0  0  0  0  0  0  0  0  0  0
    1.1555    0.0606    1.1317 H   0  0  0  0  0  0  0  0  0  0  0  0
   -0.5283    1.6958   -2.5344 H   0  0  0  0  0  0  0  0  0  0  0  0
   -2.7208    2.0121   -1.3761 H   0  0  0  0  0  0  0  0  0  0  0  0
    1.5969    0.6930   -1.4162 N   0  0  0  0  0  0  0  0  0  0  0  0
    2.5011    0.5620   -2.0558 N   0  0  0  0  0  0  0  0  0  0  0  0
    3.6384    0.3469    1.5208 B   0  0  0  0  0  0  0  0  0  0  0  0
    4.6521   -0.3834    0.9272 F   0  0  0  0  0  0  0  0  0  0  0  0
    3.0266    1.1953    0.5231 F   0  0  0  0  0  0  0  0  0  0  0  0
    2.6024   -0.5427    1.9623 F   0  0  0  0  0  0  0  0  0  0  0  0
    4.0698    1.1255    2.5739 F   0  0  0  0  0  0  0  0  0  0  0  0
   -3.2253    1.4379    1.0192 O   0  0  0  0  0  0  0  0  0  0  0  0
   -3.4758    1.1164    2.3949 C   0  0  0  0  0  0  0  0  0  0  0  0
   -4.5129    1.3971    2.5733 H   0  0  0  0  0  0  0  0  0  0  0  0
   -2.8188    1.6897    3.0556 H   0  0  0  0  0  0  0  0  0  0  0  0
   -3.3464    0.0445    2.5754 H   0  0  0  0  0  0  0  0  0  0  0  0
  1  7  1  0  0  0  0
  2  8  1  0  0  0  0
  2  1  1  0  0  0  0
  3  2  2  0  0  0  0
  4  5  2  0  0  0  0
  4  3  1  0  0  0  0
  5  6  1  0  0  0  0
  6 18  1  0  0  0  0
  6  1  2  0  0  0  0
  9  4  1  0  0  0  0
 10  5  1  0  0  0  0
 11  3  1  0  0  0  0
 12 11  1  0  0  0  0
 13 16  1  0  0  0  0
 13 17  1  0  0  0  0
 14 13  1  0  0  0  0
 15 13  1  0  0  0  0
 18 19  1  0  0  0  0
 19 20  1  0  0  0  0
 19 22  1  0  0  0  0
 19 21  1  0  0  0  0
M  RAD  2  11   2  12   3
M  END
