Coordinates from ORCA-job p-CH3O-Ph-N2-X-BF4-B3LYPG-6-31G_dp-scan-d09-49-n400
 OpenBabel08281821133D

 22 21  0  0  0  0  0  0  0  0999 V2000
   -0.9509    0.6749    1.2453 C   0  0  0  0  0  0  0  0  0  0  0  0
    0.2932    0.4964    0.6639 C   0  0  0  0  0  0  0  0  0  0  0  0
    0.4349    0.8593   -0.6883 C   0  0  0  0  0  0  0  0  0  0  0  0
   -0.6256    1.3910   -1.4626 C   0  0  0  0  0  0  0  0  0  0  0  0
   -1.8463    1.5656   -0.8574 C   0  0  0  0  0  0  0  0  0  0  0  0
   -2.0211    1.2124    0.5043 C   0  0  0  0  0  0  0  0  0  0  0  0
   -1.0761    0.4010    2.2850 H   0  0  0  0  0  0  0  0  0  0  0  0
    1.1429    0.0911    1.2209 H   0  0  0  0  0  0  0  0  0  0  0  0
   -0.4696    1.6580   -2.5018 H   0  0  0  0  0  0  0  0  0  0  0  0
   -2.6906    1.9750   -1.3998 H   0  0  0  0  0  0  0  0  0  0  0  0
    1.6330    0.6829   -1.3298 N   0  0  0  0  0  0  0  0  0  0  0  0
    2.5300    0.5385   -1.9768 N   0  0  0  0  0  0  0  0  0  0  0  0
    3.6614    0.3564    1.4471 B   0  0  0  0  0  0  0  0  0  0  0  0
    4.5457   -0.3411    0.6374 F   0  0  0  0  0  0  0  0  0  0  0  0
    2.9584    1.3258    0.6386 F   0  0  0  0  0  0  0  0  0  0  0  0
    2.6581   -0.5440    1.9350 F   0  0  0  0  0  0  0  0  0  0  0  0
    4.2782    0.9982    2.4979 F   0  0  0  0  0  0  0  0  0  0  0  0
   -3.2476    1.4295    0.9910 O   0  0  0  0  0  0  0  0  0  0  0  0
   -3.5286    1.1226    2.3637 C   0  0  0  0  0  0  0  0  0  0  0  0
   -4.5718    1.3969    2.5139 H   0  0  0  0  0  0  0  0  0  0  0  0
   -2.8925    1.7090    3.0334 H   0  0  0  0  0  0  0  0  0  0  0  0
   -3.3952    0.0540    2.5607 H   0  0  0  0  0  0  0  0  0  0  0  0
  1  7  1  0  0  0  0
  2  8  1  0  0  0  0
  2  1  1  0  0  0  0
  3  2  2  0  0  0  0
  4  5  2  0  0  0  0
  4  3  1  0  0  0  0
  5  6  1  0  0  0  0
  6 18  1  0  0  0  0
  6  1  2  0  0  0  0
  9  4  1  0  0  0  0
 10  5  1  0  0  0  0
 11  3  1  0  0  0  0
 12 11  1  0  0  0  0
 13 16  1  0  0  0  0
 13 17  1  0  0  0  0
 14 13  1  0  0  0  0
 15 13  1  0  0  0  0
 18 19  1  0  0  0  0
 19 20  1  0  0  0  0
 19 22  1  0  0  0  0
 19 21  1  0  0  0  0
M  RAD  2  11   2  12   3
M  END
