Coordinates from ORCA-job p-CH3O-Ph-N2-X-BF4-B3LYPG-6-31G_dp-scan-d09-49-n400
 OpenBabel08281821133D

 22 21  0  0  0  0  0  0  0  0999 V2000
   -0.9618    0.6186    1.2229 C   0  0  0  0  0  0  0  0  0  0  0  0
    0.2899    0.4303    0.6575 C   0  0  0  0  0  0  0  0  0  0  0  0
    0.4893    0.8298   -0.6767 C   0  0  0  0  0  0  0  0  0  0  0  0
   -0.5443    1.4101   -1.4383 C   0  0  0  0  0  0  0  0  0  0  0  0
   -1.7841    1.5917   -0.8644 C   0  0  0  0  0  0  0  0  0  0  0  0
   -2.0033    1.1986    0.4739 C   0  0  0  0  0  0  0  0  0  0  0  0
   -1.1160    0.3197    2.2517 H   0  0  0  0  0  0  0  0  0  0  0  0
    1.0950   -0.0001    1.2399 H   0  0  0  0  0  0  0  0  0  0  0  0
   -0.3523    1.7087   -2.4628 H   0  0  0  0  0  0  0  0  0  0  0  0
   -2.6048    2.0359   -1.4158 H   0  0  0  0  0  0  0  0  0  0  0  0
    1.7145    0.6665   -1.2965 N   0  0  0  0  0  0  0  0  0  0  0  0
    2.8086    0.3223   -1.2923 N   0  0  0  0  0  0  0  0  0  0  0  0
    3.5532    0.5572    1.4372 B   0  0  0  0  0  0  0  0  0  0  0  0
    3.2170   -0.4032    0.2494 F   0  0  0  0  0  0  0  0  0  0  0  0
    3.1093    1.7879    0.9974 F   0  0  0  0  0  0  0  0  0  0  0  0
    2.7765    0.0531    2.4654 F   0  0  0  0  0  0  0  0  0  0  0  0
    4.8906    0.4675    1.6408 F   0  0  0  0  0  0  0  0  0  0  0  0
   -3.2429    1.4221    0.9430 O   0  0  0  0  0  0  0  0  0  0  0  0
   -3.5538    1.0701    2.2939 C   0  0  0  0  0  0  0  0  0  0  0  0
   -4.5961    1.3533    2.4372 H   0  0  0  0  0  0  0  0  0  0  0  0
   -2.9243    1.6206    3.0006 H   0  0  0  0  0  0  0  0  0  0  0  0
   -3.4404   -0.0072    2.4576 H   0  0  0  0  0  0  0  0  0  0  0  0
  1  7  1  0  0  0  0
  2  1  1  0  0  0  0
  2  8  1  0  0  0  0
  3  2  2  0  0  0  0
  4  5  2  0  0  0  0
  4  3  1  0  0  0  0
  5  6  1  0  0  0  0
  6 18  1  0  0  0  0
  6  1  2  0  0  0  0
  9  4  1  0  0  0  0
 10  5  1  0  0  0  0
 11 12  2  0  0  0  0
 11  3  1  0  0  0  0
 13 17  1  0  0  0  0
 13 16  1  0  0  0  0
 14 13  1  0  0  0  0
 15 13  1  0  0  0  0
 18 19  1  0  0  0  0
 19 20  1  0  0  0  0
 19 22  1  0  0  0  0
 19 21  1  0  0  0  0
M  RAD  1  12   2
M  END
