Coordinates from ORCA-job p-CH3O-Ph-N2-X-BF4-B3LYPG-6-31G_dp-scan-d09-49-n400
 OpenBabel08281821133D

 22 21  0  0  0  0  0  0  0  0999 V2000
   -0.9578    0.6730    1.2549 C   0  0  0  0  0  0  0  0  0  0  0  0
    0.2900    0.4924    0.6821 C   0  0  0  0  0  0  0  0  0  0  0  0
    0.4418    0.8530   -0.6695 C   0  0  0  0  0  0  0  0  0  0  0  0
   -0.6123    1.3849   -1.4518 C   0  0  0  0  0  0  0  0  0  0  0  0
   -1.8372    1.5621   -0.8552 C   0  0  0  0  0  0  0  0  0  0  0  0
   -2.0220    1.2110    0.5055 C   0  0  0  0  0  0  0  0  0  0  0  0
   -1.0910    0.4008    2.2940 H   0  0  0  0  0  0  0  0  0  0  0  0
    1.1366    0.0873    1.2434 H   0  0  0  0  0  0  0  0  0  0  0  0
   -0.4488    1.6501   -2.4903 H   0  0  0  0  0  0  0  0  0  0  0  0
   -2.6771    1.9718   -1.4041 H   0  0  0  0  0  0  0  0  0  0  0  0
    1.6444    0.6714   -1.3014 N   0  0  0  0  0  0  0  0  0  0  0  0
    2.5468    0.5185   -1.9388 N   0  0  0  0  0  0  0  0  0  0  0  0
    3.6625    0.3670    1.4223 B   0  0  0  0  0  0  0  0  0  0  0  0
    4.5007   -0.3082    0.5441 F   0  0  0  0  0  0  0  0  0  0  0  0
    2.9336    1.3695    0.6820 F   0  0  0  0  0  0  0  0  0  0  0  0
    2.6759   -0.5438    1.9232 F   0  0  0  0  0  0  0  0  0  0  0  0
    4.3360    0.9640    2.4637 F   0  0  0  0  0  0  0  0  0  0  0  0
   -3.2517    1.4304    0.9835 O   0  0  0  0  0  0  0  0  0  0  0  0
   -3.5424    1.1261    2.3546 C   0  0  0  0  0  0  0  0  0  0  0  0
   -4.5863    1.4017    2.4973 H   0  0  0  0  0  0  0  0  0  0  0  0
   -2.9102    1.7128    3.0278 H   0  0  0  0  0  0  0  0  0  0  0  0
   -3.4117    0.0576    2.5543 H   0  0  0  0  0  0  0  0  0  0  0  0
  1  7  1  0  0  0  0
  2  8  1  0  0  0  0
  2  1  1  0  0  0  0
  3  2  2  0  0  0  0
  4  5  2  0  0  0  0
  4  3  1  0  0  0  0
  5  6  1  0  0  0  0
  6 18  1  0  0  0  0
  6  1  2  0  0  0  0
  9  4  1  0  0  0  0
 10  5  1  0  0  0  0
 11  3  1  0  0  0  0
 12 11  1  0  0  0  0
 13 16  1  0  0  0  0
 13 17  1  0  0  0  0
 14 13  1  0  0  0  0
 15 13  1  0  0  0  0
 18 19  1  0  0  0  0
 19 20  1  0  0  0  0
 19 22  1  0  0  0  0
 19 21  1  0  0  0  0
M  RAD  2  11   2  12   3
M  END
