Coordinates from ORCA-job p-CH3O-Ph-N2-X-BF4-B3LYPG-6-31G_dp-scan-d09-49-n400
 OpenBabel08281821133D

 22 21  0  0  0  0  0  0  0  0999 V2000
   -0.9693    0.6760    1.2733 C   0  0  0  0  0  0  0  0  0  0  0  0
    0.2851    0.4913    0.7165 C   0  0  0  0  0  0  0  0  0  0  0  0
    0.4542    0.8445   -0.6350 C   0  0  0  0  0  0  0  0  0  0  0  0
   -0.5888    1.3747   -1.4319 C   0  0  0  0  0  0  0  0  0  0  0  0
   -1.8212    1.5562   -0.8513 C   0  0  0  0  0  0  0  0  0  0  0  0
   -2.0237    1.2105    0.5079 C   0  0  0  0  0  0  0  0  0  0  0  0
   -1.1162    0.4090    2.3119 H   0  0  0  0  0  0  0  0  0  0  0  0
    1.1251    0.0895    1.2883 H   0  0  0  0  0  0  0  0  0  0  0  0
   -0.4120    1.6356   -2.4693 H   0  0  0  0  0  0  0  0  0  0  0  0
   -2.6536    1.9646   -1.4125 H   0  0  0  0  0  0  0  0  0  0  0  0
    1.6656    0.6551   -1.2487 N   0  0  0  0  0  0  0  0  0  0  0  0
    2.5822    0.4873   -1.8615 N   0  0  0  0  0  0  0  0  0  0  0  0
    3.6638    0.3839    1.3767 B   0  0  0  0  0  0  0  0  0  0  0  0
    4.4001   -0.2636    0.3841 F   0  0  0  0  0  0  0  0  0  0  0  0
    2.9019    1.4362    0.7551 F   0  0  0  0  0  0  0  0  0  0  0  0
    2.7050   -0.5339    1.9136 F   0  0  0  0  0  0  0  0  0  0  0  0
    4.4516    0.9022    2.3766 F   0  0  0  0  0  0  0  0  0  0  0  0
   -3.2600    1.4311    0.9695 O   0  0  0  0  0  0  0  0  0  0  0  0
   -3.5688    1.1273    2.3364 C   0  0  0  0  0  0  0  0  0  0  0  0
   -4.6150    1.4014    2.4649 H   0  0  0  0  0  0  0  0  0  0  0  0
   -2.9469    1.7154    3.0181 H   0  0  0  0  0  0  0  0  0  0  0  0
   -3.4392    0.0592    2.5388 H   0  0  0  0  0  0  0  0  0  0  0  0
  1  7  1  0  0  0  0
  2  1  1  0  0  0  0
  2  8  1  0  0  0  0
  3  2  2  0  0  0  0
  4  5  2  0  0  0  0
  4  3  1  0  0  0  0
  5  6  1  0  0  0  0
  6 18  1  0  0  0  0
  6  1  2  0  0  0  0
  9  4  1  0  0  0  0
 10  5  1  0  0  0  0
 11  3  1  0  0  0  0
 12 11  1  0  0  0  0
 13 16  1  0  0  0  0
 13 17  1  0  0  0  0
 14 13  1  0  0  0  0
 15 13  1  0  0  0  0
 18 19  1  0  0  0  0
 19 20  1  0  0  0  0
 19 22  1  0  0  0  0
 19 21  1  0  0  0  0
M  RAD  2  11   2  12   3
M  END
