Coordinates from ORCA-job p-CH3O-Ph-N2-X-BF4-B3LYPG-6-31G_dp-scan-d09-49-n400
 OpenBabel08281821133D

 22 21  0  0  0  0  0  0  0  0999 V2000
   -0.8991    0.6422    1.1658 C   0  0  0  0  0  0  0  0  0  0  0  0
    0.3099    0.4629    0.5155 C   0  0  0  0  0  0  0  0  0  0  0  0
    0.3918    0.8784   -0.8271 C   0  0  0  0  0  0  0  0  0  0  0  0
   -0.6959    1.4593   -1.5264 C   0  0  0  0  0  0  0  0  0  0  0  0
   -1.8805    1.6314   -0.8536 C   0  0  0  0  0  0  0  0  0  0  0  0
   -1.9938    1.2285    0.5018 C   0  0  0  0  0  0  0  0  0  0  0  0
   -0.9720    0.3320    2.2001 H   0  0  0  0  0  0  0  0  0  0  0  0
    1.1710    0.0210    1.0272 H   0  0  0  0  0  0  0  0  0  0  0  0
   -0.5866    1.7652   -2.5608 H   0  0  0  0  0  0  0  0  0  0  0  0
   -2.7427    2.0776   -1.3354 H   0  0  0  0  0  0  0  0  0  0  0  0
    1.5586    0.7154   -1.5219 N   0  0  0  0  0  0  0  0  0  0  0  0
    2.4648    0.5982   -2.1616 N   0  0  0  0  0  0  0  0  0  0  0  0
    3.5838    0.3317    1.6028 B   0  0  0  0  0  0  0  0  0  0  0  0
    4.7305   -0.4008    1.3765 F   0  0  0  0  0  0  0  0  0  0  0  0
    3.1305    0.9013    0.3535 F   0  0  0  0  0  0  0  0  0  0  0  0
    2.5252   -0.5368    2.0326 F   0  0  0  0  0  0  0  0  0  0  0  0
    3.7549    1.3471    2.5245 F   0  0  0  0  0  0  0  0  0  0  0  0
   -3.1883    1.4499    1.0583 O   0  0  0  0  0  0  0  0  0  0  0  0
   -3.4045    1.0973    2.4325 C   0  0  0  0  0  0  0  0  0  0  0  0
   -4.4328    1.3848    2.6463 H   0  0  0  0  0  0  0  0  0  0  0  0
   -2.7227    1.6468    3.0882 H   0  0  0  0  0  0  0  0  0  0  0  0
   -3.2824    0.0198    2.5828 H   0  0  0  0  0  0  0  0  0  0  0  0
  1  7  1  0  0  0  0
  2  8  1  0  0  0  0
  2  1  1  0  0  0  0
  3  2  2  0  0  0  0
  4  5  2  0  0  0  0
  4  3  1  0  0  0  0
  5  6  1  0  0  0  0
  6 18  1  0  0  0  0
  6  1  2  0  0  0  0
  9  4  1  0  0  0  0
 10  5  1  0  0  0  0
 11  3  1  0  0  0  0
 12 11  1  0  0  0  0
 13 16  1  0  0  0  0
 13 17  1  0  0  0  0
 14 13  1  0  0  0  0
 15 13  1  0  0  0  0
 18 19  1  0  0  0  0
 19 22  1  0  0  0  0
 19 20  1  0  0  0  0
 19 21  1  0  0  0  0
M  RAD  2  11   2  12   3
M  END
