Coordinates from ORCA-job p-CH3O-Ph-N2-X-BF4-B3LYPG-6-31G_dp-scan-d09-49-n400
 OpenBabel08281821133D

 22 21  0  0  0  0  0  0  0  0999 V2000
   -0.9727    0.6748    1.2777 C   0  0  0  0  0  0  0  0  0  0  0  0
    0.2830    0.4882    0.7245 C   0  0  0  0  0  0  0  0  0  0  0  0
    0.4567    0.8402   -0.6267 C   0  0  0  0  0  0  0  0  0  0  0  0
   -0.5829    1.3720   -1.4266 C   0  0  0  0  0  0  0  0  0  0  0  0
   -1.8166    1.5561   -0.8498 C   0  0  0  0  0  0  0  0  0  0  0  0
   -2.0240    1.2108    0.5088 C   0  0  0  0  0  0  0  0  0  0  0  0
   -1.1233    0.4083    2.3158 H   0  0  0  0  0  0  0  0  0  0  0  0
    1.1214    0.0858    1.2980 H   0  0  0  0  0  0  0  0  0  0  0  0
   -0.4026    1.6318   -2.4637 H   0  0  0  0  0  0  0  0  0  0  0  0
   -2.6467    1.9656   -1.4136 H   0  0  0  0  0  0  0  0  0  0  0  0
    1.6694    0.6456   -1.2362 N   0  0  0  0  0  0  0  0  0  0  0  0
    2.5902    0.4728   -1.8415 N   0  0  0  0  0  0  0  0  0  0  0  0
    3.6646    0.3908    1.3651 B   0  0  0  0  0  0  0  0  0  0  0  0
    4.3821   -0.2382    0.3450 F   0  0  0  0  0  0  0  0  0  0  0  0
    2.8923    1.4534    0.7775 F   0  0  0  0  0  0  0  0  0  0  0  0
    2.7163   -0.5379    1.9011 F   0  0  0  0  0  0  0  0  0  0  0  0
    4.4728    0.8885    2.3589 F   0  0  0  0  0  0  0  0  0  0  0  0
   -3.2614    1.4333    0.9666 O   0  0  0  0  0  0  0  0  0  0  0  0
   -3.5750    1.1294    2.3323 C   0  0  0  0  0  0  0  0  0  0  0  0
   -4.6213    1.4048    2.4575 H   0  0  0  0  0  0  0  0  0  0  0  0
   -2.9547    1.7162    3.0163 H   0  0  0  0  0  0  0  0  0  0  0  0
   -3.4476    0.0609    2.5347 H   0  0  0  0  0  0  0  0  0  0  0  0
  1  7  1  0  0  0  0
  2  1  1  0  0  0  0
  2  8  1  0  0  0  0
  3  2  2  0  0  0  0
  4  5  2  0  0  0  0
  4  3  1  0  0  0  0
  5  6  1  0  0  0  0
  6 18  1  0  0  0  0
  6  1  2  0  0  0  0
  9  4  1  0  0  0  0
 10  5  1  0  0  0  0
 11  3  1  0  0  0  0
 12 11  1  0  0  0  0
 13 16  1  0  0  0  0
 13 17  1  0  0  0  0
 14 13  1  0  0  0  0
 15 13  1  0  0  0  0
 18 19  1  0  0  0  0
 19 20  1  0  0  0  0
 19 22  1  0  0  0  0
 19 21  1  0  0  0  0
M  RAD  2  11   2  12   3
M  END
