Coordinates from ORCA-job p-CH3O-Ph-N2-X-BF4-B3LYPG-6-31G_dp-scan-d09-49-n400
 OpenBabel08281821133D

 22 21  0  0  0  0  0  0  0  0999 V2000
   -0.8980    0.6401    1.1643 C   0  0  0  0  0  0  0  0  0  0  0  0
    0.3103    0.4603    0.5127 C   0  0  0  0  0  0  0  0  0  0  0  0
    0.3918    0.8782   -0.8292 C   0  0  0  0  0  0  0  0  0  0  0  0
   -0.6957    1.4619   -1.5265 C   0  0  0  0  0  0  0  0  0  0  0  0
   -1.8794    1.6345   -0.8524 C   0  0  0  0  0  0  0  0  0  0  0  0
   -1.9923    1.2292    0.5023 C   0  0  0  0  0  0  0  0  0  0  0  0
   -0.9703    0.3282    2.1982 H   0  0  0  0  0  0  0  0  0  0  0  0
    1.1710    0.0165    1.0232 H   0  0  0  0  0  0  0  0  0  0  0  0
   -0.5867    1.7697   -2.5604 H   0  0  0  0  0  0  0  0  0  0  0  0
   -2.7413    2.0830   -1.3327 H   0  0  0  0  0  0  0  0  0  0  0  0
    1.5576    0.7145   -1.5253 N   0  0  0  0  0  0  0  0  0  0  0  0
    2.4627    0.5971   -2.1667 N   0  0  0  0  0  0  0  0  0  0  0  0
    3.5802    0.3326    1.6048 B   0  0  0  0  0  0  0  0  0  0  0  0
    4.7322   -0.3961    1.3951 F   0  0  0  0  0  0  0  0  0  0  0  0
    3.1329    0.8861    0.3461 F   0  0  0  0  0  0  0  0  0  0  0  0
    2.5228   -0.5362    2.0367 F   0  0  0  0  0  0  0  0  0  0  0  0
    3.7393    1.3592    2.5164 F   0  0  0  0  0  0  0  0  0  0  0  0
   -3.1860    1.4513    1.0602 O   0  0  0  0  0  0  0  0  0  0  0  0
   -3.4017    1.0964    2.4338 C   0  0  0  0  0  0  0  0  0  0  0  0
   -4.4295    1.3849    2.6489 H   0  0  0  0  0  0  0  0  0  0  0  0
   -2.7186    1.6437    3.0900 H   0  0  0  0  0  0  0  0  0  0  0  0
   -3.2811    0.0184    2.5820 H   0  0  0  0  0  0  0  0  0  0  0  0
  1  7  1  0  0  0  0
  2  8  1  0  0  0  0
  2  1  1  0  0  0  0
  3  2  2  0  0  0  0
  4  5  2  0  0  0  0
  4  3  1  0  0  0  0
  5  6  1  0  0  0  0
  6 18  1  0  0  0  0
  6  1  2  0  0  0  0
  9  4  1  0  0  0  0
 10  5  1  0  0  0  0
 11  3  1  0  0  0  0
 12 11  1  0  0  0  0
 13 16  1  0  0  0  0
 13 17  1  0  0  0  0
 14 13  1  0  0  0  0
 15 13  1  0  0  0  0
 18 19  1  0  0  0  0
 19 22  1  0  0  0  0
 19 20  1  0  0  0  0
 19 21  1  0  0  0  0
M  RAD  2  11   2  12   3
M  END
