Coordinates from ORCA-job p-CH3O-Ph-N2-X-BF4-B3LYPG-6-31G_dp-scan-d09-49-n400
 OpenBabel08281821133D

 22 21  0  0  0  0  0  0  0  0999 V2000
   -0.8897    0.6250    1.1536 C   0  0  0  0  0  0  0  0  0  0  0  0
    0.3127    0.4420    0.4925 C   0  0  0  0  0  0  0  0  0  0  0  0
    0.3914    0.8762   -0.8442 C   0  0  0  0  0  0  0  0  0  0  0  0
   -0.6938    1.4804   -1.5276 C   0  0  0  0  0  0  0  0  0  0  0  0
   -1.8718    1.6563   -0.8443 C   0  0  0  0  0  0  0  0  0  0  0  0
   -1.9815    1.2342    0.5057 C   0  0  0  0  0  0  0  0  0  0  0  0
   -0.9578    0.3015    2.1842 H   0  0  0  0  0  0  0  0  0  0  0  0
    1.1712   -0.0150    0.9943 H   0  0  0  0  0  0  0  0  0  0  0  0
   -0.5877    1.8003   -2.5580 H   0  0  0  0  0  0  0  0  0  0  0  0
   -2.7317    2.1199   -1.3136 H   0  0  0  0  0  0  0  0  0  0  0  0
    1.5514    0.7060   -1.5486 N   0  0  0  0  0  0  0  0  0  0  0  0
    2.4532    0.5831   -2.1936 N   0  0  0  0  0  0  0  0  0  0  0  0
    3.5511    0.3400    1.6175 B   0  0  0  0  0  0  0  0  0  0  0  0
    4.7377   -0.3537    1.5193 F   0  0  0  0  0  0  0  0  0  0  0  0
    3.1518    0.7871    0.3019 F   0  0  0  0  0  0  0  0  0  0  0  0
    2.5035   -0.5360    2.0576 F   0  0  0  0  0  0  0  0  0  0  0  0
    3.6219    1.4355    2.4588 F   0  0  0  0  0  0  0  0  0  0  0  0
   -3.1696    1.4611    1.0734 O   0  0  0  0  0  0  0  0  0  0  0  0
   -3.3805    1.0906    2.4438 C   0  0  0  0  0  0  0  0  0  0  0  0
   -4.4040    1.3867    2.6689 H   0  0  0  0  0  0  0  0  0  0  0  0
   -2.6878    1.6224    3.1026 H   0  0  0  0  0  0  0  0  0  0  0  0
   -3.2700    0.0097    2.5772 H   0  0  0  0  0  0  0  0  0  0  0  0
  1  7  1  0  0  0  0
  2  8  1  0  0  0  0
  2  1  1  0  0  0  0
  3  2  2  0  0  0  0
  4  5  2  0  0  0  0
  4  3  1  0  0  0  0
  5  6  1  0  0  0  0
  6 18  1  0  0  0  0
  6  1  2  0  0  0  0
  9  4  1  0  0  0  0
 10  5  1  0  0  0  0
 11  3  1  0  0  0  0
 12 11  1  0  0  0  0
 13 16  1  0  0  0  0
 13 17  1  0  0  0  0
 14 13  1  0  0  0  0
 15 13  1  0  0  0  0
 18 19  1  0  0  0  0
 19 22  1  0  0  0  0
 19 20  1  0  0  0  0
 19 21  1  0  0  0  0
M  RAD  2  11   2  12   3
M  END
