Coordinates from ORCA-job p-CH3O-Ph-N2-X-BF4-B3LYPG-6-31G_dp-scan-d09-49-n400
 OpenBabel08281821133D

 22 21  0  0  0  0  0  0  0  0999 V2000
   -0.9880    0.6712    1.2952 C   0  0  0  0  0  0  0  0  0  0  0  0
    0.2731    0.4767    0.7570 C   0  0  0  0  0  0  0  0  0  0  0  0
    0.4658    0.8228   -0.5932 C   0  0  0  0  0  0  0  0  0  0  0  0
   -0.5613    1.3540   -1.4074 C   0  0  0  0  0  0  0  0  0  0  0  0
   -1.8017    1.5460   -0.8464 C   0  0  0  0  0  0  0  0  0  0  0  0
   -2.0271    1.2082    0.5106 C   0  0  0  0  0  0  0  0  0  0  0  0
   -1.1532    0.4097    2.3324 H   0  0  0  0  0  0  0  0  0  0  0  0
    1.1045    0.0722    1.3365 H   0  0  0  0  0  0  0  0  0  0  0  0
   -0.3672    1.6081   -2.4434 H   0  0  0  0  0  0  0  0  0  0  0  0
   -2.6234    1.9560   -1.4221 H   0  0  0  0  0  0  0  0  0  0  0  0
    1.6889    0.6198   -1.1788 N   0  0  0  0  0  0  0  0  0  0  0  0
    2.6446    0.4404   -1.7264 N   0  0  0  0  0  0  0  0  0  0  0  0
    3.6656    0.4152    1.3152 B   0  0  0  0  0  0  0  0  0  0  0  0
    4.2867   -0.1250    0.1736 F   0  0  0  0  0  0  0  0  0  0  0  0
    2.8606    1.5204    0.8899 F   0  0  0  0  0  0  0  0  0  0  0  0
    2.7647   -0.5602    1.8415 F   0  0  0  0  0  0  0  0  0  0  0  0
    4.5733    0.8123    2.2647 F   0  0  0  0  0  0  0  0  0  0  0  0
   -3.2700    1.4376    0.9523 O   0  0  0  0  0  0  0  0  0  0  0  0
   -3.6011    1.1419    2.3151 C   0  0  0  0  0  0  0  0  0  0  0  0
   -4.6477    1.4222    2.4267 H   0  0  0  0  0  0  0  0  0  0  0  0
   -2.9867    1.7296    3.0040 H   0  0  0  0  0  0  0  0  0  0  0  0
   -3.4807    0.0741    2.5247 H   0  0  0  0  0  0  0  0  0  0  0  0
  1  7  1  0  0  0  0
  2  1  1  0  0  0  0
  2  8  1  0  0  0  0
  3  2  2  0  0  0  0
  4  5  2  0  0  0  0
  4  3  1  0  0  0  0
  5  6  1  0  0  0  0
  6 18  1  0  0  0  0
  6  1  2  0  0  0  0
  9  4  1  0  0  0  0
 10  5  1  0  0  0  0
 11  3  1  0  0  0  0
 12 11  1  0  0  0  0
 13 16  1  0  0  0  0
 13 17  1  0  0  0  0
 14 13  1  0  0  0  0
 15 13  1  0  0  0  0
 18 19  1  0  0  0  0
 19 20  1  0  0  0  0
 19 22  1  0  0  0  0
 19 21  1  0  0  0  0
M  RAD  2  11   2  12   3
M  END
