Coordinates from ORCA-job p-CH3O-Ph-N2-X-BF4-B3LYPG-6-31G_dp-scan-d09-49-n400
 OpenBabel08281821133D

 22 21  0  0  0  0  0  0  0  0999 V2000
   -0.9262    0.6621    1.2037 C   0  0  0  0  0  0  0  0  0  0  0  0
    0.3002    0.4847    0.5862 C   0  0  0  0  0  0  0  0  0  0  0  0
    0.4082    0.8695   -0.7634 C   0  0  0  0  0  0  0  0  0  0  0  0
   -0.6695    1.4189   -1.5017 C   0  0  0  0  0  0  0  0  0  0  0  0
   -1.8720    1.5908   -0.8609 C   0  0  0  0  0  0  0  0  0  0  0  0
   -2.0121    1.2183    0.5002 C   0  0  0  0  0  0  0  0  0  0  0  0
   -1.0231    0.3732    2.2423 H   0  0  0  0  0  0  0  0  0  0  0  0
    1.1592    0.0632    1.1185 H   0  0  0  0  0  0  0  0  0  0  0  0
   -0.5398    1.7013   -2.5404 H   0  0  0  0  0  0  0  0  0  0  0  0
   -2.7283    2.0136   -1.3735 H   0  0  0  0  0  0  0  0  0  0  0  0
    1.5913    0.7011   -1.4307 N   0  0  0  0  0  0  0  0  0  0  0  0
    2.4965    0.5738   -2.0697 N   0  0  0  0  0  0  0  0  0  0  0  0
    3.6354    0.3412    1.5336 B   0  0  0  0  0  0  0  0  0  0  0  0
    4.6626   -0.4017    0.9820 F   0  0  0  0  0  0  0  0  0  0  0  0
    3.0440    1.1634    0.5021 F   0  0  0  0  0  0  0  0  0  0  0  0
    2.5903   -0.5383    1.9745 F   0  0  0  0  0  0  0  0  0  0  0  0
    4.0421    1.1468    2.5767 F   0  0  0  0  0  0  0  0  0  0  0  0
   -3.2227    1.4365    1.0232 O   0  0  0  0  0  0  0  0  0  0  0  0
   -3.4675    1.1135    2.3996 C   0  0  0  0  0  0  0  0  0  0  0  0
   -4.5041    1.3928    2.5822 H   0  0  0  0  0  0  0  0  0  0  0  0
   -2.8085    1.6871    3.0582 H   0  0  0  0  0  0  0  0  0  0  0  0
   -3.3360    0.0416    2.5787 H   0  0  0  0  0  0  0  0  0  0  0  0
  1  7  1  0  0  0  0
  2  8  1  0  0  0  0
  2  1  1  0  0  0  0
  3  2  2  0  0  0  0
  4  5  2  0  0  0  0
  4  3  1  0  0  0  0
  5  6  1  0  0  0  0
  6 18  1  0  0  0  0
  6  1  2  0  0  0  0
  9  4  1  0  0  0  0
 10  5  1  0  0  0  0
 11  3  1  0  0  0  0
 12 11  1  0  0  0  0
 13 16  1  0  0  0  0
 13 17  1  0  0  0  0
 14 13  1  0  0  0  0
 15 13  1  0  0  0  0
 18 19  1  0  0  0  0
 19 22  1  0  0  0  0
 19 20  1  0  0  0  0
 19 21  1  0  0  0  0
M  RAD  2  11   2  12   3
M  END
