2-HOOC-Ph+-UB3LYP-aug-cc-pVDZ-Triplet.log
 OpenBabel05291812263D
Gaussian home/ubuntu/g09/g09 #p Temperature=298.15 opt=(maxcycles=1024) SCF=(max
 14 14  0  0  0  0  0  0  0  0999 V2000
   -1.9277   -1.2184   -0.2282 C   0  0  0  0  0  0  0  0  0  0  0  0
   -0.5447   -1.1566   -0.2277 C   0  0  0  0  0  0  0  0  0  0  0  0
    0.2514    0.0141   -0.0501 C   0  0  0  0  0  0  0  0  0  0  0  0
   -0.4180    1.2148    0.1975 C   0  0  0  0  0  0  0  0  0  0  0  0
   -1.8184    1.2046    0.1979 C   0  0  0  0  0  0  0  0  0  0  0  0
   -2.5730   -0.0067    0.0022 C   0  0  0  0  0  0  0  0  0  0  0  0
   -2.4721   -2.1501   -0.3819 H   0  0  0  0  0  0  0  0  0  0  0  0
    0.1366    2.1410    0.3441 H   0  0  0  0  0  0  0  0  0  0  0  0
   -2.3619    2.1423    0.3220 H   0  0  0  0  0  0  0  0  0  0  0  0
   -3.6629    0.0381    0.0358 H   0  0  0  0  0  0  0  0  0  0  0  0
    1.7299   -0.1466    0.0094 C   0  0  0  0  0  0  0  0  0  0  0  0
    2.1618   -1.1578    0.5332 O   0  0  0  0  0  0  0  0  0  0  0  0
    2.4349    0.8692   -0.4574 O   0  0  0  0  0  0  0  0  0  0  0  0
    3.3893    0.7078   -0.3326 H   0  0  0  0  0  0  0  0  0  0  0  0
  1  2  2  0  0  0  0
  1  6  1  0  0  0  0
  2  3  1  0  0  0  0
  3 11  1  0  0  0  0
  3  4  2  0  0  0  0
  4  5  1  0  0  0  0
  4  8  1  0  0  0  0
  5  9  1  0  0  0  0
  6 10  1  0  0  0  0
  6  5  2  0  0  0  0
  7  1  1  0  0  0  0
 11 12  2  0  0  0  0
 13 14  1  0  0  0  0
 13 11  1  0  0  0  0
M  RAD  1   2   2
M  END
