31
Coordinates from ORCA-job Ph-N2-X-OTs-B3LYPG-6-31G_dp-scan-d09-49-n400
  C   -0.95222000948346      2.50367896022825     -3.00491149072943
  C   0.09879160511218      1.67847748319265     -3.36992046343285
  C   1.13774241114293      1.28411611175057     -2.49157207392514
  C   1.06460828837718      1.76485795288256     -1.13712442379379
  C   -0.01418735714452      2.59590686483994     -0.78914403885324
  C   -1.00339858234576      2.96757080198840     -1.69041986343965
  H   -1.71522040404149      2.77594487166684     -3.72594457853483
  H   0.17624926969135      1.28743587227440     -4.37807492725231
  H   1.68009655807170      1.88355481180945      0.65901921898334
  H   -0.06339577684764      2.95893556238483      0.23601838098430
  N   2.03062295092637      0.45535030824450     -3.23861757574974
  N   3.11170674866995     -0.00281855560592     -2.84591760293521
  C   6.41451393607546     -0.40757570131952     -3.40831083167624
  C   7.62608048038425      0.26316676522974     -3.55556920854803
  C   7.84949565793080      1.12925934146594     -4.63674224958459
  C   6.82077274914446      1.31326381067268     -5.57234133054713
  C   5.59982923737052      0.65543991520714     -5.43984188564610
  C   5.40920356742772     -0.20329006569792     -4.35603887182780
  H   6.24790746345343     -1.08795568219528     -2.58040169932768
  H   8.41311952677225      0.10904395360806     -2.82164846722314
  H   6.97918567444238      1.97875318428039     -6.41708117682081
  H   4.80488244052929      0.79068146110155     -6.16565910584434
  S   3.84210114196259     -1.04091590409586     -4.16517019391129
  O   1.96246542457300      1.46290516617907     -0.16317688942331
  O   4.06705686727391     -2.33203878077665     -3.50488482359394
  O   3.08725615737105     -0.93106621564296     -5.41774857992024
  C   9.17936477348407      1.82373833037313     -4.80630411337038
  H   9.65379751409111      2.02116925559069     -3.84086799570182
  H   9.87189403627500      1.20405996730380     -5.38993549133918
  H   9.07043256523455      2.77550697163248     -5.33413841143991
  H   -1.81135491592455      3.61374318142709     -1.35952923557543
