31
Coordinates from ORCA-job Ph-N2-X-OTs-B3LYPG-6-31G_dp-scan-d09-49-n400
  C   0.55950965306569      0.71580127689785     -3.94214830123320
  C   1.46337972853602      0.37557109529076     -2.94036422851139
  C   1.70529117903668      1.33225100121053     -1.95023638794243
  C   1.09874322027896      2.60001483411368     -1.91116675165408
  C   0.20628689815457      2.90108656576665     -2.93501994187804
  C   -0.06354757760643      1.96815570109481     -3.94216082259879
  H   0.34697527757764     -0.00411853958732     -4.72532564529952
  H   1.95735860313546     -0.59045303991175     -2.93205649926688
  H   1.33451734258572      3.30646924237295     -1.09914865070991
  H   -0.27923176733494      3.87159802065067     -2.94214485547679
  N   2.58337033646767      1.06888649184331     -0.87471195480122
  N   3.04248318212641      1.32313275702250      0.12125699176791
  C   5.48039096871760     -0.52698358030853     -4.77198003862721
  C   6.30324286378858      0.37863857799684     -5.44178752385838
  C   7.01111833020548      1.36944015094587     -4.74626546653130
  C   6.87697921717603      1.43134775662031     -3.35009204606073
  C   6.05976860643434      0.53487493578781     -2.66462103375267
  C   5.35216523759384     -0.42822413079334     -3.38721998604283
  H   4.92841187221698     -1.29157672106242     -5.30849801845618
  H   6.39822778657099      0.31465447856563     -6.52329161074098
  H   7.41998605819747      2.19131145490722     -2.79365552167104
  H   5.95958392968247      0.58707835224153     -1.58488112273423
  S   4.34823332411148     -1.66328456376469     -2.49390729111047
  O   2.01109444827917      4.12134842650449      0.49251567006446
  O   3.36352177471886     -2.18178834015366     -3.51028762840026
  O   3.73593834621721     -0.88197029145616     -1.32807215375272
  C   7.88150262873457      2.36184831198930     -5.47944778229337
  H   8.18935988616902      1.98023284348671     -6.45638542394984
  H   7.34563285752948      3.30398593834405     -5.64918026058337
  H   8.78305841135907      2.60244628795524     -4.90808309343938
  H   -0.76395262372611      2.21912470542920     -4.73363262045511
