31
Coordinates from ORCA-job Ph-N2-X-OTs-B3LYPG-6-31G_dp-scan-d09-49-n400
  C   -0.32608710522250      0.49631870872753     -3.53649573596441
  C   0.99854647556149      0.45888078270143     -3.10845538806994
  C   1.44210301310369      1.49675446715410     -2.28700772148359
  C   0.62402817239165      2.56157434004031     -1.87686854232902
  C   -0.69827542046209      2.55898702253836     -2.31039791116233
  C   -1.17270339040019      1.53401650118773     -3.13474321783054
  H   -0.69666413643423     -0.29386334097988     -4.18150466281566
  H   1.66391965762253     -0.34132810905267     -3.41322321066709
  H   1.07260173788928      3.35006219689986     -1.27491420548822
  H   -1.35725078943482      3.36682017867553     -2.00759835999693
  N   2.78906283498359      1.53724921623676     -1.82893536559439
  N   3.56062704766720      2.22557594314774     -1.32426288574365
  C   5.72362019235806     -0.26604381514232     -4.90218981095904
  C   6.77008702542841      0.50224519474087     -5.41371239450547
  C   7.58651701891512      1.26866425428746     -4.57173327715903
  C   7.33227360243150      1.24793718423395     -3.18946883171502
  C   6.29474317359216      0.48820647940962     -2.65892099916215
  C   5.48565258661427     -0.24772539110768     -3.52924472936398
  H   5.08896107864531     -0.86046198529395     -5.55064378479270
  H   6.95515189259730      0.50407143992701     -6.48484253365901
  H   7.95336408437929      1.83971351827459     -2.52227331971755
  H   6.09788069088021      0.48614374205659     -1.59208130944691
  S   4.17928412818197     -1.30869253613619     -2.85110425971722
  O   2.96038092990129      4.15134494059348     -1.00117829051888
  O   3.30125204514572     -1.68449644401845     -4.00636696946690
  O   3.52493964189632     -0.47238667328466     -1.73582040552566
  C   8.70428957549649      2.11472657214110     -5.12992382825485
  H   8.93847354213034      1.84040520648900     -6.16174001462052
  H   8.43107781786715      3.17724092914757     -5.12279580582596
  H   9.61733703350711      2.01356628799269     -4.53431823765504
  H   -2.20579415723368      1.54539318841257     -3.46923399078822
