31
Coordinates from ORCA-job Ph-N2-X-OTs-B3LYPG-6-31G_dp-scan-d09-49-n400
  C   -0.51305426273875      0.16922622536897     -1.30718928432064
  C   0.78710536440244      0.57599127559900     -1.59534816863256
  C   1.01942810812039      1.44408201829911     -2.67103590424935
  C   -0.04502665635078      1.90088590007872     -3.46038173790858
  C   -1.34045110099519      1.48680584802234     -3.15252274257027
  C   -1.58220194795391      0.62600826364700     -2.08051025226114
  H   -0.68984389330916     -0.50271853256577     -0.47237282357597
  H   1.62519853192136      0.22929204544837     -1.00330094698387
  H   0.13908709139904      2.56239186660268     -4.29371818127485
  H   -2.16528671162911      1.83919687853648     -3.76427292872525
  N   2.37171613914547      1.82000087165888     -2.94158778332084
  N   2.85253020726948      2.97794346153207     -3.48922371075879
  C   5.92321221626434      1.56901727626730     -4.76938015082202
  C   7.26193571487108      1.94214309260131     -4.74506250665899
  C   8.21855999260985      1.18061121880064     -4.05099793486674
  C   7.79816026952536      0.02728398349664     -3.37502118938832
  C   6.45989659132282     -0.36443490728523     -3.39072428391359
  C   5.53273018930682      0.41432228745197     -4.08548128069997
  H   5.17795729303374      2.15272772100480     -5.29902516591325
  H   7.57534675183903      2.84226861039400     -5.26743144095892
  H   8.52590557823161     -0.57205051335584     -2.83494466452847
  H   6.14603412261808     -1.26470572578081     -2.86850345191704
  S   3.82326314591080     -0.10919147823468     -4.09917703903453
  O   2.00718800331180      3.81784708796868     -3.75439533027057
  O   3.14124293090143      0.58085308630469     -5.23011603365059
  O   3.34921783204817      0.96503441624946     -2.58948571944650
  C   9.67171930521073      1.58748197970148     -4.05948342648560
  H   10.15250733239289      1.30102597113124     -5.00337999230009
  H   9.78271343726855      2.67164829004200     -3.95740039218409
  H   10.22818250087169      1.10914875583955     -3.24921612292646
  H   -2.59557407682015      0.31076272517501     -1.85130940945201
