Coordinates from ORCA-job p-CH3O-Ph-N2-X-OTs-B3LYPG-6-31G_dp-scan-d09-49-n400
 OpenBabel08281821023D

 35 35  0  0  0  0  0  0  0  0999 V2000
   -0.2612   -0.1104   -2.3481 C   0  0  0  0  0  0  0  0  0  0  0  0
    0.8451    0.4376   -1.7341 C   0  0  0  0  0  0  0  0  0  0  0  0
    0.7194    1.7472   -1.2183 C   0  0  0  0  0  0  0  0  0  0  0  0
   -0.4678    2.4938   -1.3202 C   0  0  0  0  0  0  0  0  0  0  0  0
   -1.5599    1.9302   -1.9555 C   0  0  0  0  0  0  0  0  0  0  0  0
   -1.4619    0.6208   -2.4735 C   0  0  0  0  0  0  0  0  0  0  0  0
   -0.2229   -1.1116   -2.7607 H   0  0  0  0  0  0  0  0  0  0  0  0
    1.7885   -0.1021   -1.6434 H   0  0  0  0  0  0  0  0  0  0  0  0
   -0.5182    3.4972   -0.9130 H   0  0  0  0  0  0  0  0  0  0  0  0
   -2.4740    2.5023   -2.0472 H   0  0  0  0  0  0  0  0  0  0  0  0
    1.7805    2.3353   -0.5746 N   0  0  0  0  0  0  0  0  0  0  0  0
    2.6390    2.7967   -0.0195 N   0  0  0  0  0  0  0  0  0  0  0  0
    6.9953    0.1137   -2.6469 C   0  0  0  0  0  0  0  0  0  0  0  0
    7.9231    0.1833   -3.6860 C   0  0  0  0  0  0  0  0  0  0  0  0
    7.6215    0.8463   -4.8910 C   0  0  0  0  0  0  0  0  0  0  0  0
    6.3618    1.4463   -5.0511 C   0  0  0  0  0  0  0  0  0  0  0  0
    5.4090    1.4002   -4.0308 C   0  0  0  0  0  0  0  0  0  0  0  0
    5.7670    0.7302   -2.8631 C   0  0  0  0  0  0  0  0  0  0  0  0
    7.2297   -0.4013   -1.7200 H   0  0  0  0  0  0  0  0  0  0  0  0
    8.8978   -0.2844   -3.5670 H   0  0  0  0  0  0  0  0  0  0  0  0
    6.1420    1.9505   -5.9917 H   0  0  0  0  0  0  0  0  0  0  0  0
    4.2612    1.7273   -3.6972 H   0  0  0  0  0  0  0  0  0  0  0  0
    4.3519    0.8236   -1.7649 S   0  0  0  0  0  0  0  0  0  0  0  0
    4.6740    1.6206   -0.5397 O   0  0  0  0  0  0  0  0  0  0  0  0
    3.7962   -0.5262   -1.4740 O   0  0  0  0  0  0  0  0  0  0  0  0
    3.4429    1.6228   -2.7173 O   0  0  0  0  0  0  0  0  0  0  0  0
    8.6576    0.9158   -5.9904 C   0  0  0  0  0  0  0  0  0  0  0  0
    9.4904    1.5747   -5.7143 H   0  0  0  0  0  0  0  0  0  0  0  0
    9.0865   -0.0699   -6.2025 H   0  0  0  0  0  0  0  0  0  0  0  0
    8.2273    1.3015   -6.9189 H   0  0  0  0  0  0  0  0  0  0  0  0
   -2.4612   -0.0162   -3.1020 O   0  0  0  0  0  0  0  0  0  0  0  0
   -3.7122    0.6474   -3.2960 C   0  0  0  0  0  0  0  0  0  0  0  0
   -4.3420   -0.0655   -3.8276 H   0  0  0  0  0  0  0  0  0  0  0  0
   -3.5891    1.5512   -3.9022 H   0  0  0  0  0  0  0  0  0  0  0  0
   -4.1772    0.9024   -2.3375 H   0  0  0  0  0  0  0  0  0  0  0  0
  1  2  1  0  0  0  0
  2  8  1  0  0  0  0
  2  3  2  0  0  0  0
  3 11  1  0  0  0  0
  4  3  1  0  0  0  0
  4  9  1  0  0  0  0
  5  4  2  0  0  0  0
  6  1  2  0  0  0  0
  6  5  1  0  0  0  0
  7  1  1  0  0  0  0
 10  5  1  0  0  0  0
 11 12  1  0  0  0  0
 13 19  1  0  0  0  0
 14 20  1  0  0  0  0
 14 13  2  0  0  0  0
 15 14  1  0  0  0  0
 16 15  2  0  0  0  0
 16 17  1  0  0  0  0
 17 22  1  0  0  0  0
 17 18  2  0  0  0  0
 18 13  1  0  0  0  0
 18 23  1  0  0  0  0
 21 16  1  0  0  0  0
 23 25  2  0  0  0  0
 23 24  1  0  0  0  0
 26 23  2  0  0  0  0
 27 28  1  0  0  0  0
 27 15  1  0  0  0  0
 29 27  1  0  0  0  0
 30 27  1  0  0  0  0
 31  6  1  0  0  0  0
 32 31  1  0  0  0  0
 32 35  1  0  0  0  0
 33 32  1  0  0  0  0
 34 32  1  0  0  0  0
M  RAD  3  11   2  12   3  24   2
M  END
