Coordinates from ORCA-job p-CH3O-Ph-N2-X-OTs-B3LYPG-6-31G_dp-scan-d09-49-n400
 OpenBabel08281821023D

 35 35  0  0  0  0  0  0  0  0999 V2000
   -0.2996   -0.1167   -1.8598 C   0  0  0  0  0  0  0  0  0  0  0  0
    0.7687    0.7363   -1.6758 C   0  0  0  0  0  0  0  0  0  0  0  0
    0.4941    2.1223   -1.6409 C   0  0  0  0  0  0  0  0  0  0  0  0
   -0.8033    2.6412   -1.7928 C   0  0  0  0  0  0  0  0  0  0  0  0
   -1.8579    1.7677   -1.9911 C   0  0  0  0  0  0  0  0  0  0  0  0
   -1.6097    0.3792   -2.0248 C   0  0  0  0  0  0  0  0  0  0  0  0
   -0.1467   -1.1896   -1.8944 H   0  0  0  0  0  0  0  0  0  0  0  0
    1.7888    0.3665   -1.5663 H   0  0  0  0  0  0  0  0  0  0  0  0
   -0.9685    3.7127   -1.7606 H   0  0  0  0  0  0  0  0  0  0  0  0
   -2.8576    2.1623   -2.1177 H   0  0  0  0  0  0  0  0  0  0  0  0
    1.5121    3.0215   -1.4352 N   0  0  0  0  0  0  0  0  0  0  0  0
    2.3876    3.6983   -1.2415 N   0  0  0  0  0  0  0  0  0  0  0  0
    5.8853   -0.1136   -3.9070 C   0  0  0  0  0  0  0  0  0  0  0  0
    7.0460   -0.3052   -4.6520 C   0  0  0  0  0  0  0  0  0  0  0  0
    7.9981    0.7166   -4.7867 C   0  0  0  0  0  0  0  0  0  0  0  0
    7.7519    1.9401   -4.1515 C   0  0  0  0  0  0  0  0  0  0  0  0
    6.5914    2.1468   -3.4046 C   0  0  0  0  0  0  0  0  0  0  0  0
    5.6572    1.1179   -3.2880 C   0  0  0  0  0  0  0  0  0  0  0  0
    5.1609   -0.9130   -3.7896 H   0  0  0  0  0  0  0  0  0  0  0  0
    7.2198   -1.2647   -5.1338 H   0  0  0  0  0  0  0  0  0  0  0  0
    8.4803    2.7433   -4.2393 H   0  0  0  0  0  0  0  0  0  0  0  0
    6.4131    3.0910   -2.9016 H   0  0  0  0  0  0  0  0  0  0  0  0
    4.1256    1.3726   -2.3830 S   0  0  0  0  0  0  0  0  0  0  0  0
    4.3944    2.5415   -1.4683 O   0  0  0  0  0  0  0  0  0  0  0  0
    3.8598    0.1007   -1.6514 O   0  0  0  0  0  0  0  0  0  0  0  0
    3.0568    1.6918   -3.3747 O   0  0  0  0  0  0  0  0  0  0  0  0
    9.2696    0.4877   -5.5699 C   0  0  0  0  0  0  0  0  0  0  0  0
   10.0211   -0.0341   -4.9632 H   0  0  0  0  0  0  0  0  0  0  0  0
    9.0886   -0.1273   -6.4573 H   0  0  0  0  0  0  0  0  0  0  0  0
    9.7136    1.4320   -5.8975 H   0  0  0  0  0  0  0  0  0  0  0  0
   -2.5609   -0.5516   -2.2063 O   0  0  0  0  0  0  0  0  0  0  0  0
   -3.9176   -0.1460   -2.3919 C   0  0  0  0  0  0  0  0  0  0  0  0
   -4.4851   -1.0678   -2.5147 H   0  0  0  0  0  0  0  0  0  0  0  0
   -4.0261    0.4725   -3.2897 H   0  0  0  0  0  0  0  0  0  0  0  0
   -4.2916    0.3986   -1.5176 H   0  0  0  0  0  0  0  0  0  0  0  0
  1  2  2  0  0  0  0
  2  3  1  0  0  0  0
  2  8  1  0  0  0  0
  3 11  1  0  0  0  0
  4  9  1  0  0  0  0
  4  3  2  0  0  0  0
  5  4  1  0  0  0  0
  6  5  2  0  0  0  0
  6  1  1  0  0  0  0
  7  1  1  0  0  0  0
 10  5  1  0  0  0  0
 11 12  1  0  0  0  0
 13 19  1  0  0  0  0
 13 18  2  0  0  0  0
 14 13  1  0  0  0  0
 15 14  2  0  0  0  0
 15 16  1  0  0  0  0
 16 17  2  0  0  0  0
 17 18  1  0  0  0  0
 17 22  1  0  0  0  0
 18 23  1  0  0  0  0
 20 14  1  0  0  0  0
 21 16  1  0  0  0  0
 23 25  2  0  0  0  0
 23 24  1  0  0  0  0
 26 23  2  0  0  0  0
 27 28  1  0  0  0  0
 27 15  1  0  0  0  0
 29 27  1  0  0  0  0
 30 27  1  0  0  0  0
 31  6  1  0  0  0  0
 32 31  1  0  0  0  0
 32 35  1  0  0  0  0
 33 32  1  0  0  0  0
 34 32  1  0  0  0  0
M  RAD  3  11   2  12   3  24   2
M  END
