Coordinates from ORCA-job p-CH3O-Ph-N2-X-OTs-B3LYPG-6-31G_dp-scan-d09-49-n400
 OpenBabel08281821023D

 35 35  0  0  0  0  0  0  0  0999 V2000
   -0.2914   -0.1013   -2.3536 C   0  0  0  0  0  0  0  0  0  0  0  0
    0.8249    0.4485   -1.7588 C   0  0  0  0  0  0  0  0  0  0  0  0
    0.7033    1.7550   -1.2335 C   0  0  0  0  0  0  0  0  0  0  0  0
   -0.4896    2.4952   -1.3077 C   0  0  0  0  0  0  0  0  0  0  0  0
   -1.5919    1.9300   -1.9239 C   0  0  0  0  0  0  0  0  0  0  0  0
   -1.4978    0.6240   -2.4507 C   0  0  0  0  0  0  0  0  0  0  0  0
   -0.2564   -1.1003   -2.7718 H   0  0  0  0  0  0  0  0  0  0  0  0
    1.7715   -0.0889   -1.6908 H   0  0  0  0  0  0  0  0  0  0  0  0
   -0.5369    3.4960   -0.8935 H   0  0  0  0  0  0  0  0  0  0  0  0
   -2.5106    2.4977   -1.9936 H   0  0  0  0  0  0  0  0  0  0  0  0
    1.7733    2.3455   -0.6068 N   0  0  0  0  0  0  0  0  0  0  0  0
    2.6559    2.7911   -0.0756 N   0  0  0  0  0  0  0  0  0  0  0  0
    6.9811    0.1014   -2.6556 C   0  0  0  0  0  0  0  0  0  0  0  0
    7.9356    0.1757   -3.6710 C   0  0  0  0  0  0  0  0  0  0  0  0
    7.6714    0.8476   -4.8789 C   0  0  0  0  0  0  0  0  0  0  0  0
    6.4184    1.4530   -5.0689 C   0  0  0  0  0  0  0  0  0  0  0  0
    5.4502    1.3949   -4.0683 C   0  0  0  0  0  0  0  0  0  0  0  0
    5.7582    0.7205   -2.8906 C   0  0  0  0  0  0  0  0  0  0  0  0
    7.1905   -0.4217   -1.7275 H   0  0  0  0  0  0  0  0  0  0  0  0
    8.9048   -0.2971   -3.5296 H   0  0  0  0  0  0  0  0  0  0  0  0
    6.2172    1.9652   -6.0081 H   0  0  0  0  0  0  0  0  0  0  0  0
    4.3644    1.7451   -3.8712 H   0  0  0  0  0  0  0  0  0  0  0  0
    4.3120    0.8161   -1.8363 S   0  0  0  0  0  0  0  0  0  0  0  0
    4.6388    1.5945   -0.5950 O   0  0  0  0  0  0  0  0  0  0  0  0
    3.7795   -0.5463   -1.5549 O   0  0  0  0  0  0  0  0  0  0  0  0
    3.4206    1.6118   -2.7767 O   0  0  0  0  0  0  0  0  0  0  0  0
    8.7381    0.9273   -5.9474 C   0  0  0  0  0  0  0  0  0  0  0  0
    9.5178    1.6517   -5.6793 H   0  0  0  0  0  0  0  0  0  0  0  0
    9.2343   -0.0383   -6.0939 H   0  0  0  0  0  0  0  0  0  0  0  0
    8.3182    1.2393   -6.9078 H   0  0  0  0  0  0  0  0  0  0  0  0
   -2.5069   -0.0152   -3.0624 O   0  0  0  0  0  0  0  0  0  0  0  0
   -3.7649    0.6428   -3.2253 C   0  0  0  0  0  0  0  0  0  0  0  0
   -4.4026   -0.0699   -3.7477 H   0  0  0  0  0  0  0  0  0  0  0  0
   -3.6599    1.5512   -3.8281 H   0  0  0  0  0  0  0  0  0  0  0  0
   -4.2107    0.8897   -2.2555 H   0  0  0  0  0  0  0  0  0  0  0  0
  1  2  1  0  0  0  0
  2  8  1  0  0  0  0
  2  3  2  0  0  0  0
  3 11  1  0  0  0  0
  4  3  1  0  0  0  0
  4  9  1  0  0  0  0
  5  4  2  0  0  0  0
  6  1  2  0  0  0  0
  6  5  1  0  0  0  0
  7  1  1  0  0  0  0
 10  5  1  0  0  0  0
 11 12  1  0  0  0  0
 13 19  1  0  0  0  0
 14 20  1  0  0  0  0
 14 13  2  0  0  0  0
 15 14  1  0  0  0  0
 16 15  2  0  0  0  0
 16 17  1  0  0  0  0
 17 22  1  0  0  0  0
 17 18  2  0  0  0  0
 18 13  1  0  0  0  0
 18 23  1  0  0  0  0
 21 16  1  0  0  0  0
 23 25  2  0  0  0  0
 23 24  1  0  0  0  0
 26 23  2  0  0  0  0
 27 28  1  0  0  0  0
 27 15  1  0  0  0  0
 29 27  1  0  0  0  0
 30 27  1  0  0  0  0
 31  6  1  0  0  0  0
 32 31  1  0  0  0  0
 32 35  1  0  0  0  0
 33 32  1  0  0  0  0
 34 32  1  0  0  0  0
M  RAD  3  11   2  12   3  24   2
M  END
