Coordinates from ORCA-job p-CH3O-Ph-N2-X-OTs-B3LYPG-6-31G_dp-scan-d09-49-n400
 OpenBabel08281821023D

 35 35  0  0  0  0  0  0  0  0999 V2000
   -0.4263   -0.0871   -2.3644 C   0  0  0  0  0  0  0  0  0  0  0  0
    0.7202    0.4867   -1.8549 C   0  0  0  0  0  0  0  0  0  0  0  0
    0.5974    1.7602   -1.2541 C   0  0  0  0  0  0  0  0  0  0  0  0
   -0.6287    2.4422   -1.1696 C   0  0  0  0  0  0  0  0  0  0  0  0
   -1.7633    1.8545   -1.7008 C   0  0  0  0  0  0  0  0  0  0  0  0
   -1.6663    0.5823   -2.3029 C   0  0  0  0  0  0  0  0  0  0  0  0
   -0.3906   -1.0627   -2.8348 H   0  0  0  0  0  0  0  0  0  0  0  0
    1.6894   -0.0103   -1.9098 H   0  0  0  0  0  0  0  0  0  0  0  0
   -0.6767    3.4184   -0.7005 H   0  0  0  0  0  0  0  0  0  0  0  0
   -2.7083    2.3790   -1.6461 H   0  0  0  0  0  0  0  0  0  0  0  0
    1.6988    2.3751   -0.7096 N   0  0  0  0  0  0  0  0  0  0  0  0
    2.6459    2.8041   -0.2806 N   0  0  0  0  0  0  0  0  0  0  0  0
    6.7434    0.1314   -2.8360 C   0  0  0  0  0  0  0  0  0  0  0  0
    7.8947    0.1064   -3.6177 C   0  0  0  0  0  0  0  0  0  0  0  0
    7.9732    0.8280   -4.8210 C   0  0  0  0  0  0  0  0  0  0  0  0
    6.8607    1.5764   -5.2227 C   0  0  0  0  0  0  0  0  0  0  0  0
    5.7006    1.6125   -4.4463 C   0  0  0  0  0  0  0  0  0  0  0  0
    5.6490    0.8905   -3.2579 C   0  0  0  0  0  0  0  0  0  0  0  0
    6.6885   -0.4332   -1.9112 H   0  0  0  0  0  0  0  0  0  0  0  0
    8.7495   -0.4825   -3.2926 H   0  0  0  0  0  0  0  0  0  0  0  0
    6.9021    2.1358   -6.1542 H   0  0  0  0  0  0  0  0  0  0  0  0
    4.8195    2.1778   -4.7324 H   0  0  0  0  0  0  0  0  0  0  0  0
    4.1498    0.9711   -2.2803 S   0  0  0  0  0  0  0  0  0  0  0  0
    4.5247    1.6966   -1.0099 O   0  0  0  0  0  0  0  0  0  0  0  0
    3.7216   -0.4335   -2.0224 O   0  0  0  0  0  0  0  0  0  0  0  0
    3.1715    1.7506   -3.0927 O   0  0  0  0  0  0  0  0  0  0  0  0
    9.2324    0.7901   -5.6555 C   0  0  0  0  0  0  0  0  0  0  0  0
   10.0919    1.1824   -5.0992 H   0  0  0  0  0  0  0  0  0  0  0  0
    9.4841   -0.2342   -5.9525 H   0  0  0  0  0  0  0  0  0  0  0  0
    9.1260    1.3852   -6.5664 H   0  0  0  0  0  0  0  0  0  0  0  0
   -2.7050   -0.0754   -2.8445 O   0  0  0  0  0  0  0  0  0  0  0  0
   -3.9998    0.5277   -2.8416 C   0  0  0  0  0  0  0  0  0  0  0  0
   -4.6574   -0.1872   -3.3355 H   0  0  0  0  0  0  0  0  0  0  0  0
   -3.9987    1.4698   -3.4004 H   0  0  0  0  0  0  0  0  0  0  0  0
   -4.3531    0.7029   -1.8193 H   0  0  0  0  0  0  0  0  0  0  0  0
  1  6  2  0  0  0  0
  1  2  1  0  0  0  0
  2  3  2  0  0  0  0
  3  4  1  0  0  0  0
  3 11  1  0  0  0  0
  4  9  1  0  0  0  0
  5 10  1  0  0  0  0
  5  4  2  0  0  0  0
  6  5  1  0  0  0  0
  7  1  1  0  0  0  0
  8  2  1  0  0  0  0
 11 12  1  0  0  0  0
 13 19  1  0  0  0  0
 14 20  1  0  0  0  0
 14 13  2  0  0  0  0
 15 14  1  0  0  0  0
 16 15  2  0  0  0  0
 16 17  1  0  0  0  0
 17 18  2  0  0  0  0
 18 13  1  0  0  0  0
 18 23  1  0  0  0  0
 21 16  1  0  0  0  0
 22 17  1  0  0  0  0
 23 25  2  0  0  0  0
 23 24  1  0  0  0  0
 26 23  2  0  0  0  0
 27 28  1  0  0  0  0
 27 15  1  0  0  0  0
 29 27  1  0  0  0  0
 30 27  1  0  0  0  0
 31 32  1  0  0  0  0
 31  6  1  0  0  0  0
 32 35  1  0  0  0  0
 33 32  1  0  0  0  0
 34 32  1  0  0  0  0
M  RAD  3  11   2  12   3  24   2
M  END
