Coordinates from ORCA-job p-CH3O-Ph-N2-X-OTs-B3LYPG-6-31G_dp-scan-d09-49-n400
 OpenBabel08281821023D

 35 35  0  0  0  0  0  0  0  0999 V2000
   -0.2622   -0.0714   -1.6588 C   0  0  0  0  0  0  0  0  0  0  0  0
    0.7776    0.8339   -1.6188 C   0  0  0  0  0  0  0  0  0  0  0  0
    0.4580    2.1977   -1.8087 C   0  0  0  0  0  0  0  0  0  0  0  0
   -0.8545    2.6427   -2.0417 C   0  0  0  0  0  0  0  0  0  0  0  0
   -1.8797    1.7151   -2.0933 C   0  0  0  0  0  0  0  0  0  0  0  0
   -1.5871    0.3485   -1.9003 C   0  0  0  0  0  0  0  0  0  0  0  0
   -0.0746   -1.1299   -1.5179 H   0  0  0  0  0  0  0  0  0  0  0  0
    1.8089    0.5173   -1.4582 H   0  0  0  0  0  0  0  0  0  0  0  0
   -1.0537    3.6990   -2.1866 H   0  0  0  0  0  0  0  0  0  0  0  0
   -2.8909    2.0511   -2.2818 H   0  0  0  0  0  0  0  0  0  0  0  0
    1.4459    3.1506   -1.7535 N   0  0  0  0  0  0  0  0  0  0  0  0
    2.2991    3.8757   -1.6704 N   0  0  0  0  0  0  0  0  0  0  0  0
    5.6795    0.1724   -4.3288 C   0  0  0  0  0  0  0  0  0  0  0  0
    6.8684   -0.0559   -5.0158 C   0  0  0  0  0  0  0  0  0  0  0  0
    8.0219    0.6963   -4.7422 C   0  0  0  0  0  0  0  0  0  0  0  0
    7.9463    1.6944   -3.7637 C   0  0  0  0  0  0  0  0  0  0  0  0
    6.7599    1.9336   -3.0678 C   0  0  0  0  0  0  0  0  0  0  0  0
    5.6312    1.1690   -3.3505 C   0  0  0  0  0  0  0  0  0  0  0  0
    4.7894   -0.4050   -4.5562 H   0  0  0  0  0  0  0  0  0  0  0  0
    6.9040   -0.8279   -5.7815 H   0  0  0  0  0  0  0  0  0  0  0  0
    8.8255    2.2959   -3.5440 H   0  0  0  0  0  0  0  0  0  0  0  0
    6.6863    2.7118   -2.3167 H   0  0  0  0  0  0  0  0  0  0  0  0
    4.1018    1.4500   -2.4531 S   0  0  0  0  0  0  0  0  0  0  0  0
    4.3226    2.7152   -1.6622 O   0  0  0  0  0  0  0  0  0  0  0  0
    3.8821    0.2583   -1.5848 O   0  0  0  0  0  0  0  0  0  0  0  0
    3.0315    1.6182   -3.4780 O   0  0  0  0  0  0  0  0  0  0  0  0
    9.3140    0.4182   -5.4739 C   0  0  0  0  0  0  0  0  0  0  0  0
    9.8420   -0.4375   -5.0341 H   0  0  0  0  0  0  0  0  0  0  0  0
    9.1359    0.1795   -6.5275 H   0  0  0  0  0  0  0  0  0  0  0  0
    9.9915    1.2768   -5.4316 H   0  0  0  0  0  0  0  0  0  0  0  0
   -2.5071   -0.6293   -1.9274 O   0  0  0  0  0  0  0  0  0  0  0  0
   -3.8745   -0.3032   -2.1808 C   0  0  0  0  0  0  0  0  0  0  0  0
   -4.4106   -1.2513   -2.1612 H   0  0  0  0  0  0  0  0  0  0  0  0
   -3.9938    0.1635   -3.1648 H   0  0  0  0  0  0  0  0  0  0  0  0
   -4.2746    0.3584   -1.4041 H   0  0  0  0  0  0  0  0  0  0  0  0
  1  2  1  0  0  0  0
  1  7  1  0  0  0  0
  2  8  1  0  0  0  0
  3 11  1  0  0  0  0
  3  2  2  0  0  0  0
  4  3  1  0  0  0  0
  5  4  2  0  0  0  0
  5  6  1  0  0  0  0
  6  1  2  0  0  0  0
  9  4  1  0  0  0  0
 10  5  1  0  0  0  0
 11 12  1  0  0  0  0
 13 18  2  0  0  0  0
 14 15  2  0  0  0  0
 14 13  1  0  0  0  0
 15 16  1  0  0  0  0
 16 21  1  0  0  0  0
 16 17  2  0  0  0  0
 17 22  1  0  0  0  0
 18 17  1  0  0  0  0
 18 23  1  0  0  0  0
 19 13  1  0  0  0  0
 20 14  1  0  0  0  0
 23 24  2  0  0  0  0
 23 25  1  0  0  0  0
 26 23  2  0  0  0  0
 27 30  1  0  0  0  0
 27 28  1  0  0  0  0
 27 15  1  0  0  0  0
 29 27  1  0  0  0  0
 31  6  1  0  0  0  0
 32 33  1  0  0  0  0
 32 31  1  0  0  0  0
 32 35  1  0  0  0  0
 34 32  1  0  0  0  0
M  RAD  3  11   2  12   3  25   2
M  END
