Coordinates from ORCA-job p-CH3O-Ph-N2-X-OTs-B3LYPG-6-31G_dp-scan-d09-49-n400
 OpenBabel08281821023D

 35 35  0  0  0  0  0  0  0  0999 V2000
   -0.1796    0.0445   -1.4795 C   0  0  0  0  0  0  0  0  0  0  0  0
    0.7819    1.0262   -1.6022 C   0  0  0  0  0  0  0  0  0  0  0  0
    0.3536    2.3054   -2.0231 C   0  0  0  0  0  0  0  0  0  0  0  0
   -0.9896    2.5948   -2.3185 C   0  0  0  0  0  0  0  0  0  0  0  0
   -1.9345    1.5904   -2.2042 C   0  0  0  0  0  0  0  0  0  0  0  0
   -1.5319    0.3056   -1.7828 C   0  0  0  0  0  0  0  0  0  0  0  0
    0.0928   -0.9546   -1.1589 H   0  0  0  0  0  0  0  0  0  0  0  0
    1.8348    0.8359   -1.3899 H   0  0  0  0  0  0  0  0  0  0  0  0
   -1.2742    3.5906   -2.6400 H   0  0  0  0  0  0  0  0  0  0  0  0
   -2.9686    1.8051   -2.4408 H   0  0  0  0  0  0  0  0  0  0  0  0
    1.2614    3.3296   -2.1455 N   0  0  0  0  0  0  0  0  0  0  0  0
    2.0637    4.1147   -2.2133 N   0  0  0  0  0  0  0  0  0  0  0  0
    5.6178    0.9216   -4.6525 C   0  0  0  0  0  0  0  0  0  0  0  0
    6.7805    0.5577   -5.3337 C   0  0  0  0  0  0  0  0  0  0  0  0
    8.0220    0.5898   -4.6962 C   0  0  0  0  0  0  0  0  0  0  0  0
    8.0583    1.0017   -3.3554 C   0  0  0  0  0  0  0  0  0  0  0  0
    6.9122    1.3684   -2.6497 C   0  0  0  0  0  0  0  0  0  0  0  0
    5.6649    1.3243   -3.3174 C   0  0  0  0  0  0  0  0  0  0  0  0
    4.6529    0.8983   -5.1477 H   0  0  0  0  0  0  0  0  0  0  0  0
    6.7164    0.2459   -6.3733 H   0  0  0  0  0  0  0  0  0  0  0  0
    9.0169    1.0385   -2.8417 H   0  0  0  0  0  0  0  0  0  0  0  0
    7.0953    1.6695   -1.6097 H   0  0  0  0  0  0  0  0  0  0  0  0
    4.0576    1.7602   -2.5756 S   0  0  0  0  0  0  0  0  0  0  0  0
    4.1863    3.2162   -2.1987 O   0  0  0  0  0  0  0  0  0  0  0  0
    3.8961    0.8706   -1.3898 O   0  0  0  0  0  0  0  0  0  0  0  0
    2.9731    1.5594   -3.6010 O   0  0  0  0  0  0  0  0  0  0  0  0
    9.2870    0.1809   -5.4124 C   0  0  0  0  0  0  0  0  0  0  0  0
    9.6396   -0.7991   -5.0682 H   0  0  0  0  0  0  0  0  0  0  0  0
    9.1302    0.1130   -6.4930 H   0  0  0  0  0  0  0  0  0  0  0  0
   10.0982    0.8948   -5.2321 H   0  0  0  0  0  0  0  0  0  0  0  0
   -2.3679   -0.7359   -1.6386 O   0  0  0  0  0  0  0  0  0  0  0  0
   -3.7552   -0.5722   -1.9362 C   0  0  0  0  0  0  0  0  0  0  0  0
   -4.2109   -1.5451   -1.7541 H   0  0  0  0  0  0  0  0  0  0  0  0
   -3.9047   -0.2895   -2.9840 H   0  0  0  0  0  0  0  0  0  0  0  0
   -4.2160    0.1747   -1.2805 H   0  0  0  0  0  0  0  0  0  0  0  0
  1  7  1  0  0  0  0
  2  1  1  0  0  0  0
  2  8  1  0  0  0  0
  3  2  2  0  0  0  0
  4  5  2  0  0  0  0
  4  3  1  0  0  0  0
  5  6  1  0  0  0  0
  6 31  1  0  0  0  0
  6  1  2  0  0  0  0
  9  4  1  0  0  0  0
 10  5  1  0  0  0  0
 11  3  1  0  0  0  0
 12 11  1  0  0  0  0
 13 18  2  0  0  0  0
 14 15  2  0  0  0  0
 14 13  1  0  0  0  0
 15 16  1  0  0  0  0
 16 21  1  0  0  0  0
 16 17  2  0  0  0  0
 17 22  1  0  0  0  0
 18 17  1  0  0  0  0
 18 23  1  0  0  0  0
 19 13  1  0  0  0  0
 20 14  1  0  0  0  0
 23 24  2  0  0  0  0
 23 25  1  0  0  0  0
 26 23  2  0  0  0  0
 27 30  1  0  0  0  0
 27 28  1  0  0  0  0
 27 15  1  0  0  0  0
 29 27  1  0  0  0  0
 32 33  1  0  0  0  0
 32 31  1  0  0  0  0
 32 35  1  0  0  0  0
 34 32  1  0  0  0  0
M  RAD  3  11   2  12   3  25   2
M  END
