Coordinates from ORCA-job p-CH3O-Ph-N2-X-OTs-B3LYPG-6-31G_dp-scan-d09-49-n400
 OpenBabel08281821023D

 35 35  0  0  0  0  0  0  0  0999 V2000
   -0.3133   -0.1260   -1.9869 C   0  0  0  0  0  0  0  0  0  0  0  0
    0.7668    0.6904   -1.7224 C   0  0  0  0  0  0  0  0  0  0  0  0
    0.5107    2.0690   -1.5461 C   0  0  0  0  0  0  0  0  0  0  0  0
   -0.7808    2.6168   -1.6355 C   0  0  0  0  0  0  0  0  0  0  0  0
   -1.8475    1.7812   -1.9155 C   0  0  0  0  0  0  0  0  0  0  0  0
   -1.6174    0.4005   -2.0932 C   0  0  0  0  0  0  0  0  0  0  0  0
   -0.1747   -1.1915   -2.1319 H   0  0  0  0  0  0  0  0  0  0  0  0
    1.7827    0.3005   -1.6510 H   0  0  0  0  0  0  0  0  0  0  0  0
   -0.9321    3.6811   -1.4914 H   0  0  0  0  0  0  0  0  0  0  0  0
   -2.8429    2.1989   -1.9937 H   0  0  0  0  0  0  0  0  0  0  0  0
    1.5420    2.9302   -1.2587 N   0  0  0  0  0  0  0  0  0  0  0  0
    2.4281    3.5753   -1.0100 N   0  0  0  0  0  0  0  0  0  0  0  0
    6.0132   -0.1811   -3.6932 C   0  0  0  0  0  0  0  0  0  0  0  0
    7.1682   -0.3673   -4.4513 C   0  0  0  0  0  0  0  0  0  0  0  0
    7.9876    0.7147   -4.8016 C   0  0  0  0  0  0  0  0  0  0  0  0
    7.6163    1.9960   -4.3707 C   0  0  0  0  0  0  0  0  0  0  0  0
    6.4632    2.1966   -3.6137 C   0  0  0  0  0  0  0  0  0  0  0  0
    5.6607    1.1043   -3.2798 C   0  0  0  0  0  0  0  0  0  0  0  0
    5.3877   -1.0194   -3.4067 H   0  0  0  0  0  0  0  0  0  0  0  0
    7.4403   -1.3698   -4.7733 H   0  0  0  0  0  0  0  0  0  0  0  0
    8.2417    2.8476   -4.6287 H   0  0  0  0  0  0  0  0  0  0  0  0
    6.1920    3.1880   -3.2670 H   0  0  0  0  0  0  0  0  0  0  0  0
    4.1372    1.3531   -2.3609 S   0  0  0  0  0  0  0  0  0  0  0  0
    4.4371    2.4752   -1.3984 O   0  0  0  0  0  0  0  0  0  0  0  0
    3.8442    0.0571   -1.6831 O   0  0  0  0  0  0  0  0  0  0  0  0
    3.0741    1.7446   -3.3317 O   0  0  0  0  0  0  0  0  0  0  0  0
    9.2565    0.4992   -5.5921 C   0  0  0  0  0  0  0  0  0  0  0  0
   10.0970    0.2495   -4.9321 H   0  0  0  0  0  0  0  0  0  0  0  0
    9.1491   -0.3245   -6.3051 H   0  0  0  0  0  0  0  0  0  0  0  0
    9.5386    1.3969   -6.1504 H   0  0  0  0  0  0  0  0  0  0  0  0
   -2.5813   -0.4949   -2.3639 O   0  0  0  0  0  0  0  0  0  0  0  0
   -3.9340   -0.0568   -2.4968 C   0  0  0  0  0  0  0  0  0  0  0  0
   -4.5136   -0.9550   -2.7073 H   0  0  0  0  0  0  0  0  0  0  0  0
   -4.0415    0.6503   -3.3270 H   0  0  0  0  0  0  0  0  0  0  0  0
   -4.2954    0.4009   -1.5693 H   0  0  0  0  0  0  0  0  0  0  0  0
  1  2  1  0  0  0  0
  2  8  1  0  0  0  0
  2  3  2  0  0  0  0
  3 11  1  0  0  0  0
  4  3  1  0  0  0  0
  4  9  1  0  0  0  0
  5  4  2  0  0  0  0
  6  1  2  0  0  0  0
  6  5  1  0  0  0  0
  7  1  1  0  0  0  0
 10  5  1  0  0  0  0
 11 12  1  0  0  0  0
 13 19  1  0  0  0  0
 13 18  2  0  0  0  0
 14 13  1  0  0  0  0
 15 14  2  0  0  0  0
 15 16  1  0  0  0  0
 16 17  2  0  0  0  0
 17 18  1  0  0  0  0
 17 22  1  0  0  0  0
 18 23  1  0  0  0  0
 20 14  1  0  0  0  0
 21 16  1  0  0  0  0
 23 25  2  0  0  0  0
 23 24  1  0  0  0  0
 26 23  2  0  0  0  0
 27 28  1  0  0  0  0
 27 15  1  0  0  0  0
 29 27  1  0  0  0  0
 30 27  1  0  0  0  0
 31  6  1  0  0  0  0
 32 31  1  0  0  0  0
 32 35  1  0  0  0  0
 33 32  1  0  0  0  0
 34 32  1  0  0  0  0
M  RAD  3  11   2  12   3  24   2
M  END
