Coordinates from ORCA-job p-CH3O-Ph-N2-X-OTs-B3LYPG-6-31G_dp-scan-d09-49-n400
 OpenBabel08281821023D

 35 35  0  0  0  0  0  0  0  0999 V2000
   -0.4238   -0.0930   -2.3376 C   0  0  0  0  0  0  0  0  0  0  0  0
    0.7191    0.5075   -1.8512 C   0  0  0  0  0  0  0  0  0  0  0  0
    0.5832    1.7897   -1.2723 C   0  0  0  0  0  0  0  0  0  0  0  0
   -0.6524    2.4540   -1.1858 C   0  0  0  0  0  0  0  0  0  0  0  0
   -1.7834    1.8396   -1.6940 C   0  0  0  0  0  0  0  0  0  0  0  0
   -1.6732    0.5585   -2.2748 C   0  0  0  0  0  0  0  0  0  0  0  0
   -0.3781   -1.0762   -2.7909 H   0  0  0  0  0  0  0  0  0  0  0  0
    1.6953    0.0248   -1.9069 H   0  0  0  0  0  0  0  0  0  0  0  0
   -0.7105    3.4374   -0.7334 H   0  0  0  0  0  0  0  0  0  0  0  0
   -2.7359    2.3503   -1.6381 H   0  0  0  0  0  0  0  0  0  0  0  0
    1.6812    2.4318   -0.7525 N   0  0  0  0  0  0  0  0  0  0  0  0
    2.6263    2.8849   -0.3442 N   0  0  0  0  0  0  0  0  0  0  0  0
    6.6605    0.0596   -2.9209 C   0  0  0  0  0  0  0  0  0  0  0  0
    7.8303    0.0074   -3.6732 C   0  0  0  0  0  0  0  0  0  0  0  0
    7.9974    0.8112   -4.8131 C   0  0  0  0  0  0  0  0  0  0  0  0
    6.9532    1.6674   -5.1811 C   0  0  0  0  0  0  0  0  0  0  0  0
    5.7755    1.7323   -4.4332 C   0  0  0  0  0  0  0  0  0  0  0  0
    5.6350    0.9282   -3.3049 C   0  0  0  0  0  0  0  0  0  0  0  0
    6.5319   -0.5730   -2.0490 H   0  0  0  0  0  0  0  0  0  0  0  0
    8.6284   -0.6691   -3.3756 H   0  0  0  0  0  0  0  0  0  0  0  0
    7.0607    2.2900   -6.0661 H   0  0  0  0  0  0  0  0  0  0  0  0
    4.9570    2.3855   -4.7160 H   0  0  0  0  0  0  0  0  0  0  0  0
    4.1383    1.0359   -2.3223 S   0  0  0  0  0  0  0  0  0  0  0  0
    4.5184    1.8132   -1.0841 O   0  0  0  0  0  0  0  0  0  0  0  0
    3.7357   -0.3650   -2.0081 O   0  0  0  0  0  0  0  0  0  0  0  0
    3.1349    1.7717   -3.1434 O   0  0  0  0  0  0  0  0  0  0  0  0
    9.2755    0.7461   -5.6165 C   0  0  0  0  0  0  0  0  0  0  0  0
   10.1386    1.0613   -5.0182 H   0  0  0  0  0  0  0  0  0  0  0  0
    9.4802   -0.2741   -5.9599 H   0  0  0  0  0  0  0  0  0  0  0  0
    9.2276    1.3919   -6.4975 H   0  0  0  0  0  0  0  0  0  0  0  0
   -2.7073   -0.1241   -2.7938 O   0  0  0  0  0  0  0  0  0  0  0  0
   -4.0108    0.4597   -2.7886 C   0  0  0  0  0  0  0  0  0  0  0  0
   -4.6623   -0.2731   -3.2640 H   0  0  0  0  0  0  0  0  0  0  0  0
   -4.0291    1.3922   -3.3631 H   0  0  0  0  0  0  0  0  0  0  0  0
   -4.3571    0.6471   -1.7660 H   0  0  0  0  0  0  0  0  0  0  0  0
  1  6  2  0  0  0  0
  1  2  1  0  0  0  0
  2  3  2  0  0  0  0
  3  4  1  0  0  0  0
  3 11  1  0  0  0  0
  4  9  1  0  0  0  0
  5 10  1  0  0  0  0
  5  4  2  0  0  0  0
  6  5  1  0  0  0  0
  7  1  1  0  0  0  0
  8  2  1  0  0  0  0
 11 12  1  0  0  0  0
 13 19  1  0  0  0  0
 14 20  1  0  0  0  0
 14 13  2  0  0  0  0
 15 14  1  0  0  0  0
 16 15  2  0  0  0  0
 16 17  1  0  0  0  0
 17 18  2  0  0  0  0
 18 13  1  0  0  0  0
 18 23  1  0  0  0  0
 21 16  1  0  0  0  0
 22 17  1  0  0  0  0
 23 25  2  0  0  0  0
 23 24  1  0  0  0  0
 26 23  2  0  0  0  0
 27 28  1  0  0  0  0
 27 15  1  0  0  0  0
 29 27  1  0  0  0  0
 30 27  1  0  0  0  0
 31 32  1  0  0  0  0
 31  6  1  0  0  0  0
 32 35  1  0  0  0  0
 33 32  1  0  0  0  0
 34 32  1  0  0  0  0
M  RAD  3  11   2  12   3  24   2
M  END
