Coordinates from ORCA-job p-CH3O-Ph-N2-X-OTs-B3LYPG-6-31G_dp-scan-d09-49-n400
 OpenBabel08281821023D

 35 35  0  0  0  0  0  0  0  0999 V2000
   -0.3795   -0.0931   -2.3556 C   0  0  0  0  0  0  0  0  0  0  0  0
    0.7582    0.4611   -1.8067 C   0  0  0  0  0  0  0  0  0  0  0  0
    0.6428    1.7493   -1.2364 C   0  0  0  0  0  0  0  0  0  0  0  0
   -0.5665    2.4657   -1.2217 C   0  0  0  0  0  0  0  0  0  0  0  0
   -1.6914    1.8971   -1.7927 C   0  0  0  0  0  0  0  0  0  0  0  0
   -1.6025    0.6098   -2.3636 C   0  0  0  0  0  0  0  0  0  0  0  0
   -0.3493   -1.0788   -2.8049 H   0  0  0  0  0  0  0  0  0  0  0  0
    1.7157   -0.0612   -1.8096 H   0  0  0  0  0  0  0  0  0  0  0  0
   -0.6089    3.4525   -0.7749 H   0  0  0  0  0  0  0  0  0  0  0  0
   -2.6231    2.4477   -1.7929 H   0  0  0  0  0  0  0  0  0  0  0  0
    1.7351    2.3445   -0.6534 N   0  0  0  0  0  0  0  0  0  0  0  0
    2.6651    2.7639   -0.1816 N   0  0  0  0  0  0  0  0  0  0  0  0
    6.8579    0.1213   -2.7405 C   0  0  0  0  0  0  0  0  0  0  0  0
    7.9321    0.1510   -3.6284 C   0  0  0  0  0  0  0  0  0  0  0  0
    7.8520    0.8408   -4.8506 C   0  0  0  0  0  0  0  0  0  0  0  0
    6.6601    1.5041   -5.1747 C   0  0  0  0  0  0  0  0  0  0  0  0
    5.5795    1.4837   -4.2948 C   0  0  0  0  0  0  0  0  0  0  0  0
    5.6900    0.7956   -3.0919 C   0  0  0  0  0  0  0  0  0  0  0  0
    6.9263   -0.4167   -1.8005 H   0  0  0  0  0  0  0  0  0  0  0  0
    8.8514   -0.3712   -3.3728 H   0  0  0  0  0  0  0  0  0  0  0  0
    6.5842    2.0337   -6.1214 H   0  0  0  0  0  0  0  0  0  0  0  0
    4.6011    1.9494   -4.4276 H   0  0  0  0  0  0  0  0  0  0  0  0
    4.2082    0.8702   -2.0957 S   0  0  0  0  0  0  0  0  0  0  0  0
    4.5637    1.5946   -0.8217 O   0  0  0  0  0  0  0  0  0  0  0  0
    3.7398   -0.5230   -1.8471 O   0  0  0  0  0  0  0  0  0  0  0  0
    3.2763    1.6693   -2.9520 O   0  0  0  0  0  0  0  0  0  0  0  0
    9.0395    0.8787   -5.7846 C   0  0  0  0  0  0  0  0  0  0  0  0
    9.8029    1.5825   -5.4291 H   0  0  0  0  0  0  0  0  0  0  0  0
    9.5190   -0.1025   -5.8639 H   0  0  0  0  0  0  0  0  0  0  0  0
    8.7474    1.1940   -6.7905 H   0  0  0  0  0  0  0  0  0  0  0  0
   -2.6330   -0.0318   -2.9382 O   0  0  0  0  0  0  0  0  0  0  0  0
   -3.9096    0.6053   -3.0086 C   0  0  0  0  0  0  0  0  0  0  0  0
   -4.5632   -0.1033   -3.5168 H   0  0  0  0  0  0  0  0  0  0  0  0
   -3.8566    1.5340   -3.5870 H   0  0  0  0  0  0  0  0  0  0  0  0
   -4.3043    0.8133   -2.0079 H   0  0  0  0  0  0  0  0  0  0  0  0
  1  2  1  0  0  0  0
  2  3  2  0  0  0  0
  3  4  1  0  0  0  0
  3 11  1  0  0  0  0
  4  9  1  0  0  0  0
  5  4  2  0  0  0  0
  6  1  2  0  0  0  0
  6  5  1  0  0  0  0
  7  1  1  0  0  0  0
  8  2  1  0  0  0  0
 10  5  1  0  0  0  0
 11 12  1  0  0  0  0
 13 19  1  0  0  0  0
 14 20  1  0  0  0  0
 14 13  2  0  0  0  0
 15 14  1  0  0  0  0
 16 15  2  0  0  0  0
 16 17  1  0  0  0  0
 17 18  2  0  0  0  0
 18 13  1  0  0  0  0
 18 23  1  0  0  0  0
 21 16  1  0  0  0  0
 22 17  1  0  0  0  0
 23 25  2  0  0  0  0
 23 24  1  0  0  0  0
 26 23  2  0  0  0  0
 27 28  1  0  0  0  0
 27 15  1  0  0  0  0
 29 27  1  0  0  0  0
 30 27  1  0  0  0  0
 31  6  1  0  0  0  0
 32 31  1  0  0  0  0
 32 35  1  0  0  0  0
 33 32  1  0  0  0  0
 34 32  1  0  0  0  0
M  RAD  3  11   2  12   3  24   2
M  END
