Coordinates from ORCA-job p-CH3O-Ph-N2-X-OTs-B3LYPG-6-31G_dp-scan-d09-49-n400
 OpenBabel08281821023D

 35 35  0  0  0  0  0  0  0  0999 V2000
   -0.3143   -0.0974   -2.3568 C   0  0  0  0  0  0  0  0  0  0  0  0
    0.8084    0.4529   -1.7745 C   0  0  0  0  0  0  0  0  0  0  0  0
    0.6891    1.7551   -1.2382 C   0  0  0  0  0  0  0  0  0  0  0  0
   -0.5081    2.4903   -1.2898 C   0  0  0  0  0  0  0  0  0  0  0  0
   -1.6171    1.9248   -1.8939 C   0  0  0  0  0  0  0  0  0  0  0  0
   -1.5250    0.6231   -2.4312 C   0  0  0  0  0  0  0  0  0  0  0  0
   -0.2813   -1.0934   -2.7824 H   0  0  0  0  0  0  0  0  0  0  0  0
    1.7578   -0.0817   -1.7250 H   0  0  0  0  0  0  0  0  0  0  0  0
   -0.5535    3.4877   -0.8676 H   0  0  0  0  0  0  0  0  0  0  0  0
   -2.5391    2.4891   -1.9460 H   0  0  0  0  0  0  0  0  0  0  0  0
    1.7652    2.3463   -0.6222 N   0  0  0  0  0  0  0  0  0  0  0  0
    2.6612    2.7832   -0.1057 N   0  0  0  0  0  0  0  0  0  0  0  0
    6.9588    0.1008   -2.6697 C   0  0  0  0  0  0  0  0  0  0  0  0
    7.9402    0.1693   -3.6595 C   0  0  0  0  0  0  0  0  0  0  0  0
    7.7148    0.8464   -4.8718 C   0  0  0  0  0  0  0  0  0  0  0  0
    6.4722    1.4622   -5.0916 C   0  0  0  0  0  0  0  0  0  0  0  0
    5.4815    1.4066   -4.1144 C   0  0  0  0  0  0  0  0  0  0  0  0
    5.7452    0.7291   -2.9288 C   0  0  0  0  0  0  0  0  0  0  0  0
    7.1394   -0.4267   -1.7382 H   0  0  0  0  0  0  0  0  0  0  0  0
    8.9010   -0.3126   -3.4936 H   0  0  0  0  0  0  0  0  0  0  0  0
    6.2954    1.9793   -6.0325 H   0  0  0  0  0  0  0  0  0  0  0  0
    4.4244    1.7825   -4.0069 H   0  0  0  0  0  0  0  0  0  0  0  0
    4.2858    0.8222   -1.8962 S   0  0  0  0  0  0  0  0  0  0  0  0
    4.6185    1.5864   -0.6450 O   0  0  0  0  0  0  0  0  0  0  0  0
    3.7690   -0.5483   -1.6224 O   0  0  0  0  0  0  0  0  0  0  0  0
    3.3924    1.6184   -2.8196 O   0  0  0  0  0  0  0  0  0  0  0  0
    8.8095    0.9233   -5.9113 C   0  0  0  0  0  0  0  0  0  0  0  0
    9.5649    1.6717   -5.6393 H   0  0  0  0  0  0  0  0  0  0  0  0
    9.3304   -0.0342   -6.0190 H   0  0  0  0  0  0  0  0  0  0  0  0
    8.4114    1.2029   -6.8910 H   0  0  0  0  0  0  0  0  0  0  0  0
   -2.5406   -0.0164   -3.0326 O   0  0  0  0  0  0  0  0  0  0  0  0
   -3.8035    0.6372   -3.1715 C   0  0  0  0  0  0  0  0  0  0  0  0
   -4.4462   -0.0743   -3.6895 H   0  0  0  0  0  0  0  0  0  0  0  0
   -3.7118    1.5506   -3.7691 H   0  0  0  0  0  0  0  0  0  0  0  0
   -4.2357    0.8751   -2.1933 H   0  0  0  0  0  0  0  0  0  0  0  0
  1  2  1  0  0  0  0
  2  8  1  0  0  0  0
  2  3  2  0  0  0  0
  3 11  1  0  0  0  0
  4  3  1  0  0  0  0
  4  9  1  0  0  0  0
  5  4  2  0  0  0  0
  6  1  2  0  0  0  0
  6  5  1  0  0  0  0
  7  1  1  0  0  0  0
 10  5  1  0  0  0  0
 11 12  1  0  0  0  0
 13 19  1  0  0  0  0
 14 20  1  0  0  0  0
 14 13  2  0  0  0  0
 15 14  1  0  0  0  0
 16 15  2  0  0  0  0
 16 17  1  0  0  0  0
 17 22  1  0  0  0  0
 17 18  2  0  0  0  0
 18 13  1  0  0  0  0
 18 23  1  0  0  0  0
 21 16  1  0  0  0  0
 23 25  2  0  0  0  0
 23 24  1  0  0  0  0
 26 23  2  0  0  0  0
 27 28  1  0  0  0  0
 27 15  1  0  0  0  0
 29 27  1  0  0  0  0
 30 27  1  0  0  0  0
 31  6  1  0  0  0  0
 32 31  1  0  0  0  0
 32 35  1  0  0  0  0
 33 32  1  0  0  0  0
 34 32  1  0  0  0  0
M  RAD  3  11   2  12   3  24   2
M  END
