Coordinates from ORCA-job p-CH3O-Ph-N2-X-OTs-B3LYPG-6-31G_dp-scan-d09-49-n400
 OpenBabel08281821023D

 35 35  0  0  0  0  0  0  0  0999 V2000
   -0.2672   -0.1080   -2.3497 C   0  0  0  0  0  0  0  0  0  0  0  0
    0.8414    0.4404   -1.7399 C   0  0  0  0  0  0  0  0  0  0  0  0
    0.7166    1.7496   -1.2227 C   0  0  0  0  0  0  0  0  0  0  0  0
   -0.4718    2.4949   -1.3190 C   0  0  0  0  0  0  0  0  0  0  0  0
   -1.5662    1.9308   -1.9500 C   0  0  0  0  0  0  0  0  0  0  0  0
   -1.4690    0.6219   -2.4693 C   0  0  0  0  0  0  0  0  0  0  0  0
   -0.2297   -1.1090   -2.7629 H   0  0  0  0  0  0  0  0  0  0  0  0
    1.7853   -0.0990   -1.6536 H   0  0  0  0  0  0  0  0  0  0  0  0
   -0.5215    3.4979   -0.9106 H   0  0  0  0  0  0  0  0  0  0  0  0
   -2.4813    2.5020   -2.0372 H   0  0  0  0  0  0  0  0  0  0  0  0
    1.7796    2.3385   -0.5827 N   0  0  0  0  0  0  0  0  0  0  0  0
    2.6438    2.7961   -0.0330 N   0  0  0  0  0  0  0  0  0  0  0  0
    6.9941    0.1103   -2.6470 C   0  0  0  0  0  0  0  0  0  0  0  0
    7.9261    0.1824   -3.6826 C   0  0  0  0  0  0  0  0  0  0  0  0
    7.6304    0.8471   -4.8879 C   0  0  0  0  0  0  0  0  0  0  0  0
    6.3712    1.4470   -5.0530 C   0  0  0  0  0  0  0  0  0  0  0  0
    5.4174    1.3962   -4.0351 C   0  0  0  0  0  0  0  0  0  0  0  0
    5.7659    0.7258   -2.8653 C   0  0  0  0  0  0  0  0  0  0  0  0
    7.2251   -0.4064   -1.7203 H   0  0  0  0  0  0  0  0  0  0  0  0
    8.9003   -0.2854   -3.5602 H   0  0  0  0  0  0  0  0  0  0  0  0
    6.1532    1.9528   -5.9927 H   0  0  0  0  0  0  0  0  0  0  0  0
    4.2890    1.7270   -3.7359 H   0  0  0  0  0  0  0  0  0  0  0  0
    4.3423    0.8208   -1.7786 S   0  0  0  0  0  0  0  0  0  0  0  0
    4.6657    1.6138   -0.5497 O   0  0  0  0  0  0  0  0  0  0  0  0
    3.7927   -0.5323   -1.4893 O   0  0  0  0  0  0  0  0  0  0  0  0
    3.4400    1.6180   -2.7297 O   0  0  0  0  0  0  0  0  0  0  0  0
    8.6717    0.9199   -5.9819 C   0  0  0  0  0  0  0  0  0  0  0  0
    9.4931    1.5940   -5.7079 H   0  0  0  0  0  0  0  0  0  0  0  0
    9.1161   -0.0615   -6.1810 H   0  0  0  0  0  0  0  0  0  0  0  0
    8.2417    1.2898   -6.9170 H   0  0  0  0  0  0  0  0  0  0  0  0
   -2.4705   -0.0157   -3.0940 O   0  0  0  0  0  0  0  0  0  0  0  0
   -3.7231    0.6467   -3.2815 C   0  0  0  0  0  0  0  0  0  0  0  0
   -4.3547   -0.0663   -3.8109 H   0  0  0  0  0  0  0  0  0  0  0  0
   -3.6039    1.5513   -3.8873 H   0  0  0  0  0  0  0  0  0  0  0  0
   -4.1839    0.9003   -2.3206 H   0  0  0  0  0  0  0  0  0  0  0  0
  1  2  1  0  0  0  0
  2  8  1  0  0  0  0
  2  3  2  0  0  0  0
  3 11  1  0  0  0  0
  4  3  1  0  0  0  0
  4  9  1  0  0  0  0
  5  4  2  0  0  0  0
  6  1  2  0  0  0  0
  6  5  1  0  0  0  0
  7  1  1  0  0  0  0
 10  5  1  0  0  0  0
 11 12  1  0  0  0  0
 13 19  1  0  0  0  0
 14 20  1  0  0  0  0
 14 13  2  0  0  0  0
 15 14  1  0  0  0  0
 16 15  2  0  0  0  0
 16 17  1  0  0  0  0
 17 22  1  0  0  0  0
 17 18  2  0  0  0  0
 18 13  1  0  0  0  0
 18 23  1  0  0  0  0
 21 16  1  0  0  0  0
 23 25  2  0  0  0  0
 23 24  1  0  0  0  0
 26 23  2  0  0  0  0
 27 28  1  0  0  0  0
 27 15  1  0  0  0  0
 29 27  1  0  0  0  0
 30 27  1  0  0  0  0
 31  6  1  0  0  0  0
 32 31  1  0  0  0  0
 32 35  1  0  0  0  0
 33 32  1  0  0  0  0
 34 32  1  0  0  0  0
M  RAD  3  11   2  12   3  24   2
M  END
