Coordinates from ORCA-job p-CH3O-Ph-N2-X-OTs-B3LYPG-6-31G_dp-scan-d09-49-n400
 OpenBabel08281821023D

 35 35  0  0  0  0  0  0  0  0999 V2000
   -0.4293   -0.0878   -2.3591 C   0  0  0  0  0  0  0  0  0  0  0  0
    0.7166    0.4955   -1.8592 C   0  0  0  0  0  0  0  0  0  0  0  0
    0.5888    1.7692   -1.2600 C   0  0  0  0  0  0  0  0  0  0  0  0
   -0.6417    2.4420   -1.1672 C   0  0  0  0  0  0  0  0  0  0  0  0
   -1.7758    1.8450   -1.6890 C   0  0  0  0  0  0  0  0  0  0  0  0
   -1.6738    0.5725   -2.2897 C   0  0  0  0  0  0  0  0  0  0  0  0
   -0.3898   -1.0640   -2.8279 H   0  0  0  0  0  0  0  0  0  0  0  0
    1.6891    0.0059   -1.9199 H   0  0  0  0  0  0  0  0  0  0  0  0
   -0.6935    3.4186   -0.6994 H   0  0  0  0  0  0  0  0  0  0  0  0
   -2.7243    2.3624   -1.6279 H   0  0  0  0  0  0  0  0  0  0  0  0
    1.6899    2.3939   -0.7257 N   0  0  0  0  0  0  0  0  0  0  0  0
    2.6370    2.8318   -0.3058 N   0  0  0  0  0  0  0  0  0  0  0  0
    6.7068    0.1088   -2.8722 C   0  0  0  0  0  0  0  0  0  0  0  0
    7.8699    0.0689   -3.6354 C   0  0  0  0  0  0  0  0  0  0  0  0
    7.9905    0.8200   -4.8165 C   0  0  0  0  0  0  0  0  0  0  0  0
    6.9075    1.6123   -5.2140 C   0  0  0  0  0  0  0  0  0  0  0  0
    5.7357    1.6643   -4.4557 C   0  0  0  0  0  0  0  0  0  0  0  0
    5.6414    0.9123   -3.2878 C   0  0  0  0  0  0  0  0  0  0  0  0
    6.6178   -0.4810   -1.9660 H   0  0  0  0  0  0  0  0  0  0  0  0
    8.7001   -0.5556   -3.3132 H   0  0  0  0  0  0  0  0  0  0  0  0
    6.9801    2.1945   -6.1294 H   0  0  0  0  0  0  0  0  0  0  0  0
    4.8842    2.2674   -4.7524 H   0  0  0  0  0  0  0  0  0  0  0  0
    4.1418    1.0027   -2.3089 S   0  0  0  0  0  0  0  0  0  0  0  0
    4.5210    1.7456   -1.0496 O   0  0  0  0  0  0  0  0  0  0  0  0
    3.7254   -0.4018   -2.0316 O   0  0  0  0  0  0  0  0  0  0  0  0
    3.1502    1.7661   -3.1197 O   0  0  0  0  0  0  0  0  0  0  0  0
    9.2617    0.7672   -5.6317 C   0  0  0  0  0  0  0  0  0  0  0  0
   10.1205    1.1314   -5.0555 H   0  0  0  0  0  0  0  0  0  0  0  0
    9.4955   -0.2577   -5.9410 H   0  0  0  0  0  0  0  0  0  0  0  0
    9.1834    1.3789   -6.5345 H   0  0  0  0  0  0  0  0  0  0  0  0
   -2.7115   -0.0937   -2.8227 O   0  0  0  0  0  0  0  0  0  0  0  0
   -4.0105    0.5002   -2.8119 C   0  0  0  0  0  0  0  0  0  0  0  0
   -4.6663   -0.2200   -3.3004 H   0  0  0  0  0  0  0  0  0  0  0  0
   -4.0199    1.4416   -3.3719 H   0  0  0  0  0  0  0  0  0  0  0  0
   -4.3581    0.6743   -1.7875 H   0  0  0  0  0  0  0  0  0  0  0  0
  1  6  2  0  0  0  0
  1  2  1  0  0  0  0
  2  3  2  0  0  0  0
  3  4  1  0  0  0  0
  3 11  1  0  0  0  0
  4  9  1  0  0  0  0
  5 10  1  0  0  0  0
  5  4  2  0  0  0  0
  6  5  1  0  0  0  0
  7  1  1  0  0  0  0
  8  2  1  0  0  0  0
 11 12  1  0  0  0  0
 13 19  1  0  0  0  0
 14 20  1  0  0  0  0
 14 13  2  0  0  0  0
 15 14  1  0  0  0  0
 16 15  2  0  0  0  0
 16 17  1  0  0  0  0
 17 18  2  0  0  0  0
 18 13  1  0  0  0  0
 18 23  1  0  0  0  0
 21 16  1  0  0  0  0
 22 17  1  0  0  0  0
 23 25  2  0  0  0  0
 23 24  1  0  0  0  0
 26 23  2  0  0  0  0
 27 28  1  0  0  0  0
 27 15  1  0  0  0  0
 29 27  1  0  0  0  0
 30 27  1  0  0  0  0
 31 32  1  0  0  0  0
 31  6  1  0  0  0  0
 32 35  1  0  0  0  0
 33 32  1  0  0  0  0
 34 32  1  0  0  0  0
M  RAD  3  11   2  12   3  24   2
M  END
