Coordinates from ORCA-job p-CH3O-Ph-N2-X-OTs-B3LYPG-6-31G_dp-scan-d09-49-n400
 OpenBabel08281821023D

 35 35  0  0  0  0  0  0  0  0999 V2000
   -0.3190   -0.1260   -2.0188 C   0  0  0  0  0  0  0  0  0  0  0  0
    0.7647    0.6796   -1.7367 C   0  0  0  0  0  0  0  0  0  0  0  0
    0.5144    2.0543   -1.5251 C   0  0  0  0  0  0  0  0  0  0  0  0
   -0.7754    2.6086   -1.5963 C   0  0  0  0  0  0  0  0  0  0  0  0
   -1.8460    1.7841   -1.8940 C   0  0  0  0  0  0  0  0  0  0  0  0
   -1.6214    0.4077   -2.1079 C   0  0  0  0  0  0  0  0  0  0  0  0
   -0.1847   -1.1879   -2.1911 H   0  0  0  0  0  0  0  0  0  0  0  0
    1.7794    0.2847   -1.6771 H   0  0  0  0  0  0  0  0  0  0  0  0
   -0.9226    3.6693   -1.4245 H   0  0  0  0  0  0  0  0  0  0  0  0
   -2.8403    2.2071   -1.9578 H   0  0  0  0  0  0  0  0  0  0  0  0
    1.5498    2.9043   -1.2196 N   0  0  0  0  0  0  0  0  0  0  0  0
    2.4397    3.5396   -0.9591 N   0  0  0  0  0  0  0  0  0  0  0  0
    6.0522   -0.1922   -3.6384 C   0  0  0  0  0  0  0  0  0  0  0  0
    7.2080   -0.3752   -4.3965 C   0  0  0  0  0  0  0  0  0  0  0  0
    7.9885    0.7155   -4.8029 C   0  0  0  0  0  0  0  0  0  0  0  0
    7.5774    2.0029   -4.4293 C   0  0  0  0  0  0  0  0  0  0  0  0
    6.4236    2.2002   -3.6730 C   0  0  0  0  0  0  0  0  0  0  0  0
    5.6605    1.0985   -3.2819 C   0  0  0  0  0  0  0  0  0  0  0  0
    5.4547   -1.0352   -3.3095 H   0  0  0  0  0  0  0  0  0  0  0  0
    7.5111   -1.3821   -4.6743 H   0  0  0  0  0  0  0  0  0  0  0  0
    8.1719    2.8615   -4.7324 H   0  0  0  0  0  0  0  0  0  0  0  0
    6.1210    3.1975   -3.3724 H   0  0  0  0  0  0  0  0  0  0  0  0
    4.1388    1.3433   -2.3595 S   0  0  0  0  0  0  0  0  0  0  0  0
    4.4455    2.4503   -1.3815 O   0  0  0  0  0  0  0  0  0  0  0  0
    3.8377    0.0402   -1.6989 O   0  0  0  0  0  0  0  0  0  0  0  0
    3.0794    1.7562   -3.3250 O   0  0  0  0  0  0  0  0  0  0  0  0
    9.2587    0.5055   -5.5929 C   0  0  0  0  0  0  0  0  0  0  0  0
   10.1097    0.3063   -4.9293 H   0  0  0  0  0  0  0  0  0  0  0  0
    9.1714   -0.3489   -6.2717 H   0  0  0  0  0  0  0  0  0  0  0  0
    9.5112    1.3879   -6.1885 H   0  0  0  0  0  0  0  0  0  0  0  0
   -2.5893   -0.4770   -2.3988 O   0  0  0  0  0  0  0  0  0  0  0  0
   -3.9407   -0.0306   -2.5178 C   0  0  0  0  0  0  0  0  0  0  0  0
   -4.5236   -0.9204   -2.7532 H   0  0  0  0  0  0  0  0  0  0  0  0
   -4.0465    0.7002   -3.3273 H   0  0  0  0  0  0  0  0  0  0  0  0
   -4.2995    0.4018   -1.5773 H   0  0  0  0  0  0  0  0  0  0  0  0
  1  2  1  0  0  0  0
  2  8  1  0  0  0  0
  2  3  2  0  0  0  0
  3 11  1  0  0  0  0
  4  3  1  0  0  0  0
  4  9  1  0  0  0  0
  5  4  2  0  0  0  0
  6  1  2  0  0  0  0
  6  5  1  0  0  0  0
  7  1  1  0  0  0  0
 10  5  1  0  0  0  0
 11 12  1  0  0  0  0
 13 19  1  0  0  0  0
 13 18  1  0  0  0  0
 14 13  2  0  0  0  0
 15 16  2  0  0  0  0
 15 14  1  0  0  0  0
 16 17  1  0  0  0  0
 17 22  1  0  0  0  0
 17 18  2  0  0  0  0
 18 23  1  0  0  0  0
 20 14  1  0  0  0  0
 21 16  1  0  0  0  0
 23 25  2  0  0  0  0
 23 24  1  0  0  0  0
 26 23  2  0  0  0  0
 27 28  1  0  0  0  0
 27 15  1  0  0  0  0
 29 27  1  0  0  0  0
 30 27  1  0  0  0  0
 31  6  1  0  0  0  0
 32 31  1  0  0  0  0
 32 35  1  0  0  0  0
 33 32  1  0  0  0  0
 34 32  1  0  0  0  0
M  RAD  3  11   2  12   3  24   2
M  END
