Coordinates from ORCA-job p-CH3O-Ph-N2-X-OTs-B3LYPG-6-31G_dp-scan-d09-49-n400
 OpenBabel08281821023D

 35 35  0  0  0  0  0  0  0  0999 V2000
   -0.3342   -0.1245   -2.0907 C   0  0  0  0  0  0  0  0  0  0  0  0
    0.7594    0.6511   -1.7653 C   0  0  0  0  0  0  0  0  0  0  0  0
    0.5252    2.0129   -1.4694 C   0  0  0  0  0  0  0  0  0  0  0  0
   -0.7591    2.5837   -1.4991 C   0  0  0  0  0  0  0  0  0  0  0  0
   -1.8398    1.7901   -1.8411 C   0  0  0  0  0  0  0  0  0  0  0  0
   -1.6310    0.4274   -2.1414 C   0  0  0  0  0  0  0  0  0  0  0  0
   -0.2119   -1.1752   -2.3281 H   0  0  0  0  0  0  0  0  0  0  0  0
    1.7701    0.2431   -1.7336 H   0  0  0  0  0  0  0  0  0  0  0  0
   -0.8943    3.6332   -1.2618 H   0  0  0  0  0  0  0  0  0  0  0  0
   -2.8300    2.2263   -1.8722 H   0  0  0  0  0  0  0  0  0  0  0  0
    1.5712    2.8323   -1.1196 N   0  0  0  0  0  0  0  0  0  0  0  0
    2.4712    3.4410   -0.8297 N   0  0  0  0  0  0  0  0  0  0  0  0
    6.1638   -0.2012   -3.4871 C   0  0  0  0  0  0  0  0  0  0  0  0
    7.3238   -0.3741   -4.2412 C   0  0  0  0  0  0  0  0  0  0  0  0
    7.9922    0.7215   -4.8043 C   0  0  0  0  0  0  0  0  0  0  0  0
    7.4632    2.0029   -4.5933 C   0  0  0  0  0  0  0  0  0  0  0  0
    6.3042    2.1898   -3.8426 C   0  0  0  0  0  0  0  0  0  0  0  0
    5.6550    1.0831   -3.2923 C   0  0  0  0  0  0  0  0  0  0  0  0
    5.6470   -1.0442   -3.0426 H   0  0  0  0  0  0  0  0  0  0  0  0
    7.7180   -1.3765   -4.3929 H   0  0  0  0  0  0  0  0  0  0  0  0
    7.9684    2.8652   -5.0215 H   0  0  0  0  0  0  0  0  0  0  0  0
    5.9088    3.1864   -3.6766 H   0  0  0  0  0  0  0  0  0  0  0  0
    4.1409    1.3130   -2.3542 S   0  0  0  0  0  0  0  0  0  0  0  0
    4.4648    2.3793   -1.3367 O   0  0  0  0  0  0  0  0  0  0  0  0
    3.8247   -0.0081   -1.7381 O   0  0  0  0  0  0  0  0  0  0  0  0
    3.0875    1.7776   -3.3016 O   0  0  0  0  0  0  0  0  0  0  0  0
    9.2646    0.5256   -5.5945 C   0  0  0  0  0  0  0  0  0  0  0  0
   10.1202    0.3485   -4.9309 H   0  0  0  0  0  0  0  0  0  0  0  0
    9.1919   -0.3390   -6.2628 H   0  0  0  0  0  0  0  0  0  0  0  0
    9.4982    1.4045   -6.2023 H   0  0  0  0  0  0  0  0  0  0  0  0
   -2.6094   -0.4269   -2.4833 O   0  0  0  0  0  0  0  0  0  0  0  0
   -3.9552    0.0425   -2.5752 C   0  0  0  0  0  0  0  0  0  0  0  0
   -4.5471   -0.8214   -2.8764 H   0  0  0  0  0  0  0  0  0  0  0  0
   -4.0486    0.8311   -3.3302 H   0  0  0  0  0  0  0  0  0  0  0  0
   -4.3134    0.4106   -1.6076 H   0  0  0  0  0  0  0  0  0  0  0  0
  1  2  1  0  0  0  0
  2  8  1  0  0  0  0
  2  3  2  0  0  0  0
  3 11  1  0  0  0  0
  4  3  1  0  0  0  0
  4  9  1  0  0  0  0
  5  4  2  0  0  0  0
  6  1  2  0  0  0  0
  6  5  1  0  0  0  0
  7  1  1  0  0  0  0
 10  5  1  0  0  0  0
 11 12  1  0  0  0  0
 13 18  1  0  0  0  0
 13 19  1  0  0  0  0
 14 13  2  0  0  0  0
 15 16  2  0  0  0  0
 15 14  1  0  0  0  0
 16 17  1  0  0  0  0
 17 22  1  0  0  0  0
 17 18  2  0  0  0  0
 18 23  1  0  0  0  0
 20 14  1  0  0  0  0
 21 16  1  0  0  0  0
 23 25  2  0  0  0  0
 23 24  1  0  0  0  0
 26 23  2  0  0  0  0
 27 28  1  0  0  0  0
 27 15  1  0  0  0  0
 29 27  1  0  0  0  0
 30 27  1  0  0  0  0
 31  6  1  0  0  0  0
 32 31  1  0  0  0  0
 32 35  1  0  0  0  0
 33 32  1  0  0  0  0
 34 32  1  0  0  0  0
M  RAD  3  11   2  12   3  24   2
M  END
