Coordinates from ORCA-job p-CH3O-Ph-N2-X-OTs-B3LYPG-6-31G_dp-scan-d09-49-n400
 OpenBabel08281821023D

 35 35  0  0  0  0  0  0  0  0999 V2000
   -0.4273   -0.0884   -2.3581 C   0  0  0  0  0  0  0  0  0  0  0  0
    0.7184    0.4939   -1.8563 C   0  0  0  0  0  0  0  0  0  0  0  0
    0.5909    1.7683   -1.2584 C   0  0  0  0  0  0  0  0  0  0  0  0
   -0.6391    2.4427   -1.1688 C   0  0  0  0  0  0  0  0  0  0  0  0
   -1.7727    1.8465   -1.6924 C   0  0  0  0  0  0  0  0  0  0  0  0
   -1.6711    0.5735   -2.2919 C   0  0  0  0  0  0  0  0  0  0  0  0
   -0.3880   -1.0651   -2.8260 H   0  0  0  0  0  0  0  0  0  0  0  0
    1.6904    0.0031   -1.9146 H   0  0  0  0  0  0  0  0  0  0  0  0
   -0.6907    3.4197   -0.7019 H   0  0  0  0  0  0  0  0  0  0  0  0
   -2.7208    2.3652   -1.6337 H   0  0  0  0  0  0  0  0  0  0  0  0
    1.6915    2.3921   -0.7224 N   0  0  0  0  0  0  0  0  0  0  0  0
    2.6384    2.8293   -0.3011 N   0  0  0  0  0  0  0  0  0  0  0  0
    6.7106    0.1098   -2.8677 C   0  0  0  0  0  0  0  0  0  0  0  0
    7.8715    0.0721   -3.6344 C   0  0  0  0  0  0  0  0  0  0  0  0
    7.9860    0.8210   -4.8176 C   0  0  0  0  0  0  0  0  0  0  0  0
    6.8993    1.6089   -5.2138 C   0  0  0  0  0  0  0  0  0  0  0  0
    5.7297    1.6585   -4.4520 C   0  0  0  0  0  0  0  0  0  0  0  0
    5.6417    0.9091   -3.2823 C   0  0  0  0  0  0  0  0  0  0  0  0
    6.6262   -0.4781   -1.9598 H   0  0  0  0  0  0  0  0  0  0  0  0
    8.7048   -0.5489   -3.3134 H   0  0  0  0  0  0  0  0  0  0  0  0
    6.9672    2.1892   -6.1308 H   0  0  0  0  0  0  0  0  0  0  0  0
    4.8743    2.2574   -4.7463 H   0  0  0  0  0  0  0  0  0  0  0  0
    4.1432    0.9990   -2.3022 S   0  0  0  0  0  0  0  0  0  0  0  0
    4.5223    1.7425   -1.0432 O   0  0  0  0  0  0  0  0  0  0  0  0
    3.7267   -0.4053   -2.0242 O   0  0  0  0  0  0  0  0  0  0  0  0
    3.1523    1.7622   -3.1140 O   0  0  0  0  0  0  0  0  0  0  0  0
    9.2550    0.7704   -5.6365 C   0  0  0  0  0  0  0  0  0  0  0  0
   10.1144    1.1382   -5.0635 H   0  0  0  0  0  0  0  0  0  0  0  0
    9.4909   -0.2543   -5.9447 H   0  0  0  0  0  0  0  0  0  0  0  0
    9.1722    1.3803   -6.5401 H   0  0  0  0  0  0  0  0  0  0  0  0
   -2.7084   -0.0919   -2.8265 O   0  0  0  0  0  0  0  0  0  0  0  0
   -4.0068    0.5035   -2.8188 C   0  0  0  0  0  0  0  0  0  0  0  0
   -4.6625   -0.2163   -3.3080 H   0  0  0  0  0  0  0  0  0  0  0  0
   -4.0139    1.4444   -3.3796 H   0  0  0  0  0  0  0  0  0  0  0  0
   -4.3563    0.6789   -1.7952 H   0  0  0  0  0  0  0  0  0  0  0  0
  1  6  2  0  0  0  0
  1  2  1  0  0  0  0
  2  3  2  0  0  0  0
  3  4  1  0  0  0  0
  3 11  1  0  0  0  0
  4  9  1  0  0  0  0
  5 10  1  0  0  0  0
  5  4  2  0  0  0  0
  6  5  1  0  0  0  0
  7  1  1  0  0  0  0
  8  2  1  0  0  0  0
 11 12  1  0  0  0  0
 13 19  1  0  0  0  0
 14 20  1  0  0  0  0
 14 13  2  0  0  0  0
 15 14  1  0  0  0  0
 16 15  2  0  0  0  0
 16 17  1  0  0  0  0
 17 18  2  0  0  0  0
 18 13  1  0  0  0  0
 18 23  1  0  0  0  0
 21 16  1  0  0  0  0
 22 17  1  0  0  0  0
 23 25  2  0  0  0  0
 23 24  1  0  0  0  0
 26 23  2  0  0  0  0
 27 28  1  0  0  0  0
 27 15  1  0  0  0  0
 29 27  1  0  0  0  0
 30 27  1  0  0  0  0
 31 32  1  0  0  0  0
 31  6  1  0  0  0  0
 32 35  1  0  0  0  0
 33 32  1  0  0  0  0
 34 32  1  0  0  0  0
M  RAD  3  11   2  12   3  24   2
M  END
