Coordinates from ORCA-job p-CH3O-Ph-N2-X-OTs-B3LYPG-6-31G_dp-scan-d09-49-n400
 OpenBabel08281821023D

 35 35  0  0  0  0  0  0  0  0999 V2000
   -0.2489   -0.0512   -1.6124 C   0  0  0  0  0  0  0  0  0  0  0  0
    0.7790    0.8685   -1.6177 C   0  0  0  0  0  0  0  0  0  0  0  0
    0.4404    2.2185   -1.8643 C   0  0  0  0  0  0  0  0  0  0  0  0
   -0.8791    2.6358   -2.1091 C   0  0  0  0  0  0  0  0  0  0  0  0
   -1.8923    1.6935   -2.1142 C   0  0  0  0  0  0  0  0  0  0  0  0
   -1.5807    0.3407   -1.8634 C   0  0  0  0  0  0  0  0  0  0  0  0
   -0.0465   -1.0999   -1.4269 H   0  0  0  0  0  0  0  0  0  0  0  0
    1.8154    0.5720   -1.4503 H   0  0  0  0  0  0  0  0  0  0  0  0
   -1.0930    3.6820   -2.2989 H   0  0  0  0  0  0  0  0  0  0  0  0
   -2.9087    2.0079   -2.3118 H   0  0  0  0  0  0  0  0  0  0  0  0
    1.4161    3.1855   -1.8554 N   0  0  0  0  0  0  0  0  0  0  0  0
    2.2649    3.9191   -1.8086 N   0  0  0  0  0  0  0  0  0  0  0  0
    5.6413    0.3070   -4.4618 C   0  0  0  0  0  0  0  0  0  0  0  0
    6.8415    0.0589   -5.1231 C   0  0  0  0  0  0  0  0  0  0  0  0
    8.0337    0.6829   -4.7238 C   0  0  0  0  0  0  0  0  0  0  0  0
    7.9871    1.5774   -3.6472 C   0  0  0  0  0  0  0  0  0  0  0  0
    6.7907    1.8347   -2.9769 C   0  0  0  0  0  0  0  0  0  0  0  0
    5.6234    1.1939   -3.3832 C   0  0  0  0  0  0  0  0  0  0  0  0
    4.7193   -0.1632   -4.7867 H   0  0  0  0  0  0  0  0  0  0  0  0
    6.8547   -0.6249   -5.9691 H   0  0  0  0  0  0  0  0  0  0  0  0
    8.8968    2.0830   -3.3324 H   0  0  0  0  0  0  0  0  0  0  0  0
    6.7347    2.5385   -2.1547 H   0  0  0  0  0  0  0  0  0  0  0  0
    4.0899    1.4866   -2.4983 S   0  0  0  0  0  0  0  0  0  0  0  0
    4.2950    2.7816   -1.7518 O   0  0  0  0  0  0  0  0  0  0  0  0
    3.8815    0.3276   -1.5838 O   0  0  0  0  0  0  0  0  0  0  0  0
    3.0226    1.6054   -3.5321 O   0  0  0  0  0  0  0  0  0  0  0  0
    9.3352    0.3817   -5.4291 C   0  0  0  0  0  0  0  0  0  0  0  0
    9.7829   -0.5473   -5.0537 H   0  0  0  0  0  0  0  0  0  0  0  0
    9.1888    0.2559   -6.5069 H   0  0  0  0  0  0  0  0  0  0  0  0
   10.0675    1.1807   -5.2769 H   0  0  0  0  0  0  0  0  0  0  0  0
   -2.4876   -0.6493   -1.8418 O   0  0  0  0  0  0  0  0  0  0  0  0
   -3.8613   -0.3524   -2.0970 C   0  0  0  0  0  0  0  0  0  0  0  0
   -4.3846   -1.3056   -2.0303 H   0  0  0  0  0  0  0  0  0  0  0  0
   -3.9957    0.0680   -3.0998 H   0  0  0  0  0  0  0  0  0  0  0  0
   -4.2635    0.3379   -1.3470 H   0  0  0  0  0  0  0  0  0  0  0  0
  1  7  1  0  0  0  0
  2  1  1  0  0  0  0
  2  8  1  0  0  0  0
  3 11  1  0  0  0  0
  3  2  2  0  0  0  0
  4  3  1  0  0  0  0
  5  4  2  0  0  0  0
  5  6  1  0  0  0  0
  6 31  1  0  0  0  0
  6  1  2  0  0  0  0
  9  4  1  0  0  0  0
 10  5  1  0  0  0  0
 11 12  1  0  0  0  0
 13 18  2  0  0  0  0
 14 15  2  0  0  0  0
 14 13  1  0  0  0  0
 15 16  1  0  0  0  0
 16 21  1  0  0  0  0
 16 17  2  0  0  0  0
 17 22  1  0  0  0  0
 18 17  1  0  0  0  0
 18 23  1  0  0  0  0
 19 13  1  0  0  0  0
 20 14  1  0  0  0  0
 23 24  2  0  0  0  0
 23 25  1  0  0  0  0
 26 23  2  0  0  0  0
 27 30  1  0  0  0  0
 27 28  1  0  0  0  0
 27 15  1  0  0  0  0
 29 27  1  0  0  0  0
 32 33  1  0  0  0  0
 32 31  1  0  0  0  0
 32 35  1  0  0  0  0
 34 32  1  0  0  0  0
M  RAD  3  11   2  12   3  25   2
M  END
