Coordinates from ORCA-job p-CH3O-Ph-N2-X-OTs-B3LYPG-6-31G_dp-scan-d09-49-n400
 OpenBabel08281821023D

 35 35  0  0  0  0  0  0  0  0999 V2000
   -0.2989   -0.1151   -1.8484 C   0  0  0  0  0  0  0  0  0  0  0  0
    0.7685    0.7409   -1.6730 C   0  0  0  0  0  0  0  0  0  0  0  0
    0.4921    2.1269   -1.6510 C   0  0  0  0  0  0  0  0  0  0  0  0
   -0.8060    2.6427   -1.8074 C   0  0  0  0  0  0  0  0  0  0  0  0
   -1.8596    1.7661   -1.9970 C   0  0  0  0  0  0  0  0  0  0  0  0
   -1.6097    0.3776   -2.0176 C   0  0  0  0  0  0  0  0  0  0  0  0
   -0.1446   -1.1880   -1.8729 H   0  0  0  0  0  0  0  0  0  0  0  0
    1.7890    0.3733   -1.5609 H   0  0  0  0  0  0  0  0  0  0  0  0
   -0.9725    3.7143   -1.7854 H   0  0  0  0  0  0  0  0  0  0  0  0
   -2.8598    2.1583   -2.1269 H   0  0  0  0  0  0  0  0  0  0  0  0
    1.5090    3.0293   -1.4541 N   0  0  0  0  0  0  0  0  0  0  0  0
    2.3837    3.7087   -1.2665 N   0  0  0  0  0  0  0  0  0  0  0  0
    5.8743   -0.1047   -3.9288 C   0  0  0  0  0  0  0  0  0  0  0  0
    7.0364   -0.2966   -4.6715 C   0  0  0  0  0  0  0  0  0  0  0  0
    8.0003    0.7168   -4.7846 C   0  0  0  0  0  0  0  0  0  0  0  0
    7.7644    1.9321   -4.1301 C   0  0  0  0  0  0  0  0  0  0  0  0
    6.6025    2.1392   -3.3853 C   0  0  0  0  0  0  0  0  0  0  0  0
    5.6567    1.1189   -3.2903 C   0  0  0  0  0  0  0  0  0  0  0  0
    5.1408   -0.8981   -3.8290 H   0  0  0  0  0  0  0  0  0  0  0  0
    7.2020   -1.2498   -5.1685 H   0  0  0  0  0  0  0  0  0  0  0  0
    8.5019    2.7287   -4.2012 H   0  0  0  0  0  0  0  0  0  0  0  0
    6.4313    3.0769   -2.8680 H   0  0  0  0  0  0  0  0  0  0  0  0
    4.1242    1.3737   -2.3868 S   0  0  0  0  0  0  0  0  0  0  0  0
    4.3895    2.5468   -1.4764 O   0  0  0  0  0  0  0  0  0  0  0  0
    3.8608    0.1043   -1.6501 O   0  0  0  0  0  0  0  0  0  0  0  0
    3.0555    1.6860   -3.3807 O   0  0  0  0  0  0  0  0  0  0  0  0
    9.2728    0.4869   -5.5658 C   0  0  0  0  0  0  0  0  0  0  0  0
   10.0143   -0.0568   -4.9660 H   0  0  0  0  0  0  0  0  0  0  0  0
    9.0885   -0.1078   -6.4663 H   0  0  0  0  0  0  0  0  0  0  0  0
    9.7308    1.4316   -5.8725 H   0  0  0  0  0  0  0  0  0  0  0  0
   -2.5598   -0.5559   -2.1899 O   0  0  0  0  0  0  0  0  0  0  0  0
   -3.9170   -0.1537   -2.3797 C   0  0  0  0  0  0  0  0  0  0  0  0
   -4.4833   -1.0772   -2.4946 H   0  0  0  0  0  0  0  0  0  0  0  0
   -4.0258    0.4569   -3.2829 H   0  0  0  0  0  0  0  0  0  0  0  0
   -4.2919    0.3981   -1.5103 H   0  0  0  0  0  0  0  0  0  0  0  0
  1  2  2  0  0  0  0
  2  3  1  0  0  0  0
  2  8  1  0  0  0  0
  3 11  1  0  0  0  0
  4  9  1  0  0  0  0
  4  3  2  0  0  0  0
  5  4  1  0  0  0  0
  6  5  2  0  0  0  0
  6  1  1  0  0  0  0
  7  1  1  0  0  0  0
 10  5  1  0  0  0  0
 11 12  1  0  0  0  0
 13 19  1  0  0  0  0
 13 18  2  0  0  0  0
 14 13  1  0  0  0  0
 15 14  2  0  0  0  0
 15 16  1  0  0  0  0
 16 17  2  0  0  0  0
 17 18  1  0  0  0  0
 17 22  1  0  0  0  0
 18 23  1  0  0  0  0
 20 14  1  0  0  0  0
 21 16  1  0  0  0  0
 23 25  2  0  0  0  0
 23 24  1  0  0  0  0
 26 23  2  0  0  0  0
 27 28  1  0  0  0  0
 27 15  1  0  0  0  0
 29 27  1  0  0  0  0
 30 27  1  0  0  0  0
 31  6  1  0  0  0  0
 32 31  1  0  0  0  0
 32 35  1  0  0  0  0
 33 32  1  0  0  0  0
 34 32  1  0  0  0  0
M  RAD  3  11   2  12   3  24   2
M  END
