Coordinates from ORCA-job p-CH3O-Ph-N2-X-OTs-B3LYPG-6-31G_dp-scan-d09-49-n400
 OpenBabel08281821023D

 35 35  0  0  0  0  0  0  0  0999 V2000
   -0.1947    0.0459   -1.4828 C   0  0  0  0  0  0  0  0  0  0  0  0
    0.7649    1.0300   -1.6012 C   0  0  0  0  0  0  0  0  0  0  0  0
    0.3353    2.3079   -2.0249 C   0  0  0  0  0  0  0  0  0  0  0  0
   -1.0071    2.5937   -2.3273 C   0  0  0  0  0  0  0  0  0  0  0  0
   -1.9500    1.5870   -2.2171 C   0  0  0  0  0  0  0  0  0  0  0  0
   -1.5461    0.3034   -1.7930 C   0  0  0  0  0  0  0  0  0  0  0  0
    0.0786   -0.9523   -1.1603 H   0  0  0  0  0  0  0  0  0  0  0  0
    1.8173    0.8429   -1.3834 H   0  0  0  0  0  0  0  0  0  0  0  0
   -1.2926    3.5886   -2.6507 H   0  0  0  0  0  0  0  0  0  0  0  0
   -2.9833    1.7988   -2.4591 H   0  0  0  0  0  0  0  0  0  0  0  0
    1.2412    3.3343   -2.1430 N   0  0  0  0  0  0  0  0  0  0  0  0
    2.0414    4.1219   -2.2066 N   0  0  0  0  0  0  0  0  0  0  0  0
    5.6354    0.9294   -4.5865 C   0  0  0  0  0  0  0  0  0  0  0  0
    6.7720    0.5539   -5.3042 C   0  0  0  0  0  0  0  0  0  0  0  0
    8.0300    0.5826   -4.7062 C   0  0  0  0  0  0  0  0  0  0  0  0
    8.1022    1.0029   -3.3698 C   0  0  0  0  0  0  0  0  0  0  0  0
    6.9884    1.3842   -2.6177 C   0  0  0  0  0  0  0  0  0  0  0  0
    5.7079    1.3426   -3.2547 C   0  0  0  0  0  0  0  0  0  0  0  0
    4.6584    0.9065   -5.0579 H   0  0  0  0  0  0  0  0  0  0  0  0
    6.6704    0.2368   -6.3392 H   0  0  0  0  0  0  0  0  0  0  0  0
    9.0769    1.0363   -2.8864 H   0  0  0  0  0  0  0  0  0  0  0  0
    7.2878    1.6787   -1.5893 H   0  0  0  0  0  0  0  0  0  0  0  0
    4.0504    1.7716   -2.5528 S   0  0  0  0  0  0  0  0  0  0  0  0
    4.1661    3.2305   -2.1837 O   0  0  0  0  0  0  0  0  0  0  0  0
    3.8743    0.8817   -1.3692 O   0  0  0  0  0  0  0  0  0  0  0  0
    2.9577    1.5668   -3.5862 O   0  0  0  0  0  0  0  0  0  0  0  0
    9.2743    0.1670   -5.4536 C   0  0  0  0  0  0  0  0  0  0  0  0
    9.6634   -0.7874   -5.0788 H   0  0  0  0  0  0  0  0  0  0  0  0
    9.0759    0.0454   -6.5224 H   0  0  0  0  0  0  0  0  0  0  0  0
   10.0754    0.9062   -5.3403 H   0  0  0  0  0  0  0  0  0  0  0  0
   -2.3802   -0.7401   -1.6522 O   0  0  0  0  0  0  0  0  0  0  0  0
   -3.7665   -0.5800   -1.9562 C   0  0  0  0  0  0  0  0  0  0  0  0
   -4.2207   -1.5539   -1.7755 H   0  0  0  0  0  0  0  0  0  0  0  0
   -3.9120   -0.2985   -3.0049 H   0  0  0  0  0  0  0  0  0  0  0  0
   -4.2322    0.1663   -1.3032 H   0  0  0  0  0  0  0  0  0  0  0  0
  1  7  1  0  0  0  0
  2  1  1  0  0  0  0
  2  8  1  0  0  0  0
  3  2  2  0  0  0  0
  4  5  2  0  0  0  0
  4  3  1  0  0  0  0
  5  6  1  0  0  0  0
  6 31  1  0  0  0  0
  6  1  2  0  0  0  0
  9  4  1  0  0  0  0
 10  5  1  0  0  0  0
 11  3  1  0  0  0  0
 12 11  1  0  0  0  0
 13 18  2  0  0  0  0
 14 15  2  0  0  0  0
 14 13  1  0  0  0  0
 15 16  1  0  0  0  0
 16 21  1  0  0  0  0
 16 17  2  0  0  0  0
 17 22  1  0  0  0  0
 18 17  1  0  0  0  0
 18 23  1  0  0  0  0
 19 13  1  0  0  0  0
 20 14  1  0  0  0  0
 23 24  2  0  0  0  0
 23 25  1  0  0  0  0
 26 23  2  0  0  0  0
 27 30  1  0  0  0  0
 27 28  1  0  0  0  0
 27 15  1  0  0  0  0
 29 27  1  0  0  0  0
 32 33  1  0  0  0  0
 32 31  1  0  0  0  0
 32 35  1  0  0  0  0
 34 32  1  0  0  0  0
M  RAD  3  11   2  12   3  25   2
M  END
