Coordinates from ORCA-job p-CH3O-Ph-N2-X-OTs-B3LYPG-6-31G_dp-scan-d09-49-n400
 OpenBabel08281821023D

 35 35  0  0  0  0  0  0  0  0999 V2000
   -0.2914   -0.1120   -1.8209 C   0  0  0  0  0  0  0  0  0  0  0  0
    0.7728    0.7499   -1.6557 C   0  0  0  0  0  0  0  0  0  0  0  0
    0.4927    2.1353   -1.6616 C   0  0  0  0  0  0  0  0  0  0  0  0
   -0.8057    2.6447   -1.8351 C   0  0  0  0  0  0  0  0  0  0  0  0
   -1.8560    1.7618   -2.0139 C   0  0  0  0  0  0  0  0  0  0  0  0
   -1.6025    0.3739   -2.0069 C   0  0  0  0  0  0  0  0  0  0  0  0
   -0.1343   -1.1849   -1.8240 H   0  0  0  0  0  0  0  0  0  0  0  0
    1.7935    0.3867   -1.5315 H   0  0  0  0  0  0  0  0  0  0  0  0
   -0.9750    3.7161   -1.8346 H   0  0  0  0  0  0  0  0  0  0  0  0
   -2.8564    2.1489   -2.1570 H   0  0  0  0  0  0  0  0  0  0  0  0
    1.5062    3.0440   -1.4762 N   0  0  0  0  0  0  0  0  0  0  0  0
    2.3784    3.7287   -1.2967 N   0  0  0  0  0  0  0  0  0  0  0  0
    5.8478   -0.0850   -3.9628 C   0  0  0  0  0  0  0  0  0  0  0  0
    7.0095   -0.2800   -4.7050 C   0  0  0  0  0  0  0  0  0  0  0  0
    7.9952    0.7158   -4.7838 C   0  0  0  0  0  0  0  0  0  0  0  0
    7.7810    1.9160   -4.0954 C   0  0  0  0  0  0  0  0  0  0  0  0
    6.6195    2.1261   -3.3504 C   0  0  0  0  0  0  0  0  0  0  0  0
    5.6523    1.1240   -3.2898 C   0  0  0  0  0  0  0  0  0  0  0  0
    5.0973   -0.8655   -3.8910 H   0  0  0  0  0  0  0  0  0  0  0  0
    7.1576   -1.2217   -5.2288 H   0  0  0  0  0  0  0  0  0  0  0  0
    8.5351    2.6989   -4.1397 H   0  0  0  0  0  0  0  0  0  0  0  0
    6.4650    3.0525   -2.8081 H   0  0  0  0  0  0  0  0  0  0  0  0
    4.1219    1.3805   -2.3832 S   0  0  0  0  0  0  0  0  0  0  0  0
    4.3839    2.5643   -1.4859 O   0  0  0  0  0  0  0  0  0  0  0  0
    3.8672    0.1177   -1.6325 O   0  0  0  0  0  0  0  0  0  0  0  0
    3.0485    1.6762   -3.3772 O   0  0  0  0  0  0  0  0  0  0  0  0
    9.2665    0.4818   -5.5658 C   0  0  0  0  0  0  0  0  0  0  0  0
    9.9907   -0.1005   -4.9813 H   0  0  0  0  0  0  0  0  0  0  0  0
    9.0733   -0.0766   -6.4874 H   0  0  0  0  0  0  0  0  0  0  0  0
    9.7492    1.4250   -5.8372 H   0  0  0  0  0  0  0  0  0  0  0  0
   -2.5492   -0.5652   -2.1671 O   0  0  0  0  0  0  0  0  0  0  0  0
   -3.9061   -0.1699   -2.3734 C   0  0  0  0  0  0  0  0  0  0  0  0
   -4.4693   -1.0967   -2.4758 H   0  0  0  0  0  0  0  0  0  0  0  0
   -4.0099    0.4243   -3.2880 H   0  0  0  0  0  0  0  0  0  0  0  0
   -4.2885    0.3964   -1.5166 H   0  0  0  0  0  0  0  0  0  0  0  0
  1  2  2  0  0  0  0
  2  8  1  0  0  0  0
  3  2  1  0  0  0  0
  3 11  1  0  0  0  0
  4  9  1  0  0  0  0
  4  3  2  0  0  0  0
  5  6  2  0  0  0  0
  5  4  1  0  0  0  0
  6  1  1  0  0  0  0
  7  1  1  0  0  0  0
 10  5  1  0  0  0  0
 11 12  1  0  0  0  0
 13 19  1  0  0  0  0
 13 18  2  0  0  0  0
 14 13  1  0  0  0  0
 15 14  2  0  0  0  0
 15 16  1  0  0  0  0
 16 17  2  0  0  0  0
 17 18  1  0  0  0  0
 17 22  1  0  0  0  0
 18 23  1  0  0  0  0
 20 14  1  0  0  0  0
 21 16  1  0  0  0  0
 23 25  2  0  0  0  0
 23 24  1  0  0  0  0
 26 23  2  0  0  0  0
 27 28  1  0  0  0  0
 27 15  1  0  0  0  0
 29 27  1  0  0  0  0
 30 27  1  0  0  0  0
 31  6  1  0  0  0  0
 32 31  1  0  0  0  0
 32 35  1  0  0  0  0
 33 32  1  0  0  0  0
 34 32  1  0  0  0  0
M  RAD  3  11   2  12   3  24   2
M  END
