Coordinates from ORCA-job p-CH3O-Ph-N2-X-OTs-B3LYPG-6-31G_dp-scan-d09-49-n400
 OpenBabel08281821023D

 35 35  0  0  0  0  0  0  0  0999 V2000
   -0.3738   -0.0931   -2.3552 C   0  0  0  0  0  0  0  0  0  0  0  0
    0.7627    0.4609   -1.8035 C   0  0  0  0  0  0  0  0  0  0  0  0
    0.6471    1.7510   -1.2375 C   0  0  0  0  0  0  0  0  0  0  0  0
   -0.5608    2.4696   -1.2301 C   0  0  0  0  0  0  0  0  0  0  0  0
   -1.6844    1.9012   -1.8039 C   0  0  0  0  0  0  0  0  0  0  0  0
   -1.5954    0.6120   -2.3705 C   0  0  0  0  0  0  0  0  0  0  0  0
   -0.3435   -1.0801   -2.8015 H   0  0  0  0  0  0  0  0  0  0  0  0
    1.7193   -0.0630   -1.8009 H   0  0  0  0  0  0  0  0  0  0  0  0
   -0.6033    3.4578   -0.7864 H   0  0  0  0  0  0  0  0  0  0  0  0
   -2.6151    2.4535   -1.8098 H   0  0  0  0  0  0  0  0  0  0  0  0
    1.7381    2.3459   -0.6517 N   0  0  0  0  0  0  0  0  0  0  0  0
    2.6655    2.7661   -0.1760 N   0  0  0  0  0  0  0  0  0  0  0  0
    6.8716    0.1172   -2.7313 C   0  0  0  0  0  0  0  0  0  0  0  0
    7.9357    0.1530   -3.6314 C   0  0  0  0  0  0  0  0  0  0  0  0
    7.8382    0.8419   -4.8530 C   0  0  0  0  0  0  0  0  0  0  0  0
    6.6394    1.4986   -5.1655 C   0  0  0  0  0  0  0  0  0  0  0  0
    5.5690    1.4722   -4.2737 C   0  0  0  0  0  0  0  0  0  0  0  0
    5.6973    0.7851   -3.0720 C   0  0  0  0  0  0  0  0  0  0  0  0
    6.9534   -0.4200   -1.7918 H   0  0  0  0  0  0  0  0  0  0  0  0
    8.8608   -0.3638   -3.3861 H   0  0  0  0  0  0  0  0  0  0  0  0
    6.5511    2.0272   -6.1118 H   0  0  0  0  0  0  0  0  0  0  0  0
    4.5805    1.9274   -4.3817 H   0  0  0  0  0  0  0  0  0  0  0  0
    4.2164    0.8616   -2.0745 S   0  0  0  0  0  0  0  0  0  0  0  0
    4.5679    1.5889   -0.8015 O   0  0  0  0  0  0  0  0  0  0  0  0
    3.7417   -0.5292   -1.8247 O   0  0  0  0  0  0  0  0  0  0  0  0
    3.2916    1.6618   -2.9391 O   0  0  0  0  0  0  0  0  0  0  0  0
    9.0160    0.8864   -5.7991 C   0  0  0  0  0  0  0  0  0  0  0  0
    9.7745    1.6019   -5.4564 H   0  0  0  0  0  0  0  0  0  0  0  0
    9.5063   -0.0897   -5.8759 H   0  0  0  0  0  0  0  0  0  0  0  0
    8.7104    1.1908   -6.8043 H   0  0  0  0  0  0  0  0  0  0  0  0
   -2.6247   -0.0296   -2.9473 O   0  0  0  0  0  0  0  0  0  0  0  0
   -3.8999    0.6096   -3.0252 C   0  0  0  0  0  0  0  0  0  0  0  0
   -4.5526   -0.0995   -3.5339 H   0  0  0  0  0  0  0  0  0  0  0  0
   -3.8426    1.5363   -3.6063 H   0  0  0  0  0  0  0  0  0  0  0  0
   -4.2984    0.8215   -2.0269 H   0  0  0  0  0  0  0  0  0  0  0  0
  1  2  1  0  0  0  0
  2  8  1  0  0  0  0
  2  3  2  0  0  0  0
  3  4  1  0  0  0  0
  3 11  1  0  0  0  0
  4  9  1  0  0  0  0
  5  4  2  0  0  0  0
  6  1  2  0  0  0  0
  6  5  1  0  0  0  0
  7  1  1  0  0  0  0
 10  5  1  0  0  0  0
 11 12  1  0  0  0  0
 13 19  1  0  0  0  0
 14 20  1  0  0  0  0
 14 13  2  0  0  0  0
 15 14  1  0  0  0  0
 16 15  2  0  0  0  0
 16 17  1  0  0  0  0
 17 18  2  0  0  0  0
 18 13  1  0  0  0  0
 18 23  1  0  0  0  0
 21 16  1  0  0  0  0
 22 17  1  0  0  0  0
 23 25  2  0  0  0  0
 23 24  1  0  0  0  0
 26 23  2  0  0  0  0
 27 28  1  0  0  0  0
 27 15  1  0  0  0  0
 29 27  1  0  0  0  0
 30 27  1  0  0  0  0
 31  6  1  0  0  0  0
 32 31  1  0  0  0  0
 32 35  1  0  0  0  0
 33 32  1  0  0  0  0
 34 32  1  0  0  0  0
M  RAD  3  11   2  12   3  24   2
M  END
