Coordinates from ORCA-job p-CH3O-Ph-N2-X-OTs-B3LYPG-6-31G_dp-scan-d09-49-n400
 OpenBabel08281821023D

 35 35  0  0  0  0  0  0  0  0999 V2000
   -0.3944   -0.0901   -2.3615 C   0  0  0  0  0  0  0  0  0  0  0  0
    0.7466    0.4665   -1.8218 C   0  0  0  0  0  0  0  0  0  0  0  0
    0.6305    1.7493   -1.2398 C   0  0  0  0  0  0  0  0  0  0  0  0
   -0.5828    2.4580   -1.2045 C   0  0  0  0  0  0  0  0  0  0  0  0
   -1.7113    1.8873   -1.7663 C   0  0  0  0  0  0  0  0  0  0  0  0
   -1.6215    0.6054   -2.3490 C   0  0  0  0  0  0  0  0  0  0  0  0
   -0.3638   -1.0719   -2.8192 H   0  0  0  0  0  0  0  0  0  0  0  0
    1.7069   -0.0502   -1.8404 H   0  0  0  0  0  0  0  0  0  0  0  0
   -0.6256    3.4409   -0.7491 H   0  0  0  0  0  0  0  0  0  0  0  0
   -2.6462    2.4322   -1.7504 H   0  0  0  0  0  0  0  0  0  0  0  0
    1.7263    2.3468   -0.6654 N   0  0  0  0  0  0  0  0  0  0  0  0
    2.6616    2.7657   -0.2036 N   0  0  0  0  0  0  0  0  0  0  0  0
    6.8333    0.1263   -2.7606 C   0  0  0  0  0  0  0  0  0  0  0  0
    7.9282    0.1434   -3.6225 C   0  0  0  0  0  0  0  0  0  0  0  0
    7.8854    0.8375   -4.8440 C   0  0  0  0  0  0  0  0  0  0  0  0
    6.7098    1.5168   -5.1912 C   0  0  0  0  0  0  0  0  0  0  0  0
    5.6081    1.5090   -4.3366 C   0  0  0  0  0  0  0  0  0  0  0  0
    5.6803    0.8165   -3.1332 C   0  0  0  0  0  0  0  0  0  0  0  0
    6.8726   -0.4154   -1.8211 H   0  0  0  0  0  0  0  0  0  0  0  0
    8.8340   -0.3919   -3.3468 H   0  0  0  0  0  0  0  0  0  0  0  0
    6.6611    2.0506   -6.1374 H   0  0  0  0  0  0  0  0  0  0  0  0
    4.6505    1.9966   -4.5139 H   0  0  0  0  0  0  0  0  0  0  0  0
    4.1933    0.8899   -2.1438 S   0  0  0  0  0  0  0  0  0  0  0  0
    4.5532    1.6074   -0.8665 O   0  0  0  0  0  0  0  0  0  0  0  0
    3.7324   -0.5068   -1.9001 O   0  0  0  0  0  0  0  0  0  0  0  0
    3.2526    1.6897   -2.9867 O   0  0  0  0  0  0  0  0  0  0  0  0
    9.0932    0.8610   -5.7521 C   0  0  0  0  0  0  0  0  0  0  0  0
    9.8689    1.5339   -5.3652 H   0  0  0  0  0  0  0  0  0  0  0  0
    9.5456   -0.1320   -5.8435 H   0  0  0  0  0  0  0  0  0  0  0  0
    8.8314    1.2062   -6.7565 H   0  0  0  0  0  0  0  0  0  0  0  0
   -2.6552   -0.0378   -2.9163 O   0  0  0  0  0  0  0  0  0  0  0  0
   -3.9364    0.5920   -2.9654 C   0  0  0  0  0  0  0  0  0  0  0  0
   -4.5921   -0.1162   -3.4714 H   0  0  0  0  0  0  0  0  0  0  0  0
   -3.8963    1.5259   -3.5364 H   0  0  0  0  0  0  0  0  0  0  0  0
   -4.3198    0.7891   -1.9581 H   0  0  0  0  0  0  0  0  0  0  0  0
  1  6  2  0  0  0  0
  1  2  1  0  0  0  0
  2  3  2  0  0  0  0
  3  4  1  0  0  0  0
  3 11  1  0  0  0  0
  4  9  1  0  0  0  0
  5 10  1  0  0  0  0
  5  4  2  0  0  0  0
  6  5  1  0  0  0  0
  7  1  1  0  0  0  0
  8  2  1  0  0  0  0
 11 12  1  0  0  0  0
 13 19  1  0  0  0  0
 14 20  1  0  0  0  0
 14 13  2  0  0  0  0
 15 14  1  0  0  0  0
 16 15  2  0  0  0  0
 16 17  1  0  0  0  0
 17 18  2  0  0  0  0
 18 13  1  0  0  0  0
 18 23  1  0  0  0  0
 21 16  1  0  0  0  0
 22 17  1  0  0  0  0
 23 25  2  0  0  0  0
 23 24  1  0  0  0  0
 26 23  2  0  0  0  0
 27 28  1  0  0  0  0
 27 15  1  0  0  0  0
 29 27  1  0  0  0  0
 30 27  1  0  0  0  0
 31  6  1  0  0  0  0
 32 31  1  0  0  0  0
 32 35  1  0  0  0  0
 33 32  1  0  0  0  0
 34 32  1  0  0  0  0
M  RAD  3  11   2  12   3  24   2
M  END
