Coordinates from ORCA-job p-CH3O-Ph-N2-X-OTs-B3LYPG-6-31G_dp-scan-d09-49-n400
 OpenBabel08281821023D

 35 35  0  0  0  0  0  0  0  0999 V2000
   -0.2522   -0.1213   -2.3457 C   0  0  0  0  0  0  0  0  0  0  0  0
    0.8458    0.4207   -1.7131 C   0  0  0  0  0  0  0  0  0  0  0  0
    0.7147    1.7251   -1.1861 C   0  0  0  0  0  0  0  0  0  0  0  0
   -0.4704    2.4747   -1.2958 C   0  0  0  0  0  0  0  0  0  0  0  0
   -1.5544    1.9173   -1.9501 C   0  0  0  0  0  0  0  0  0  0  0  0
   -1.4513    0.6122   -2.4786 C   0  0  0  0  0  0  0  0  0  0  0  0
   -0.2091   -1.1181   -2.7684 H   0  0  0  0  0  0  0  0  0  0  0  0
    1.7899   -0.1164   -1.6175 H   0  0  0  0  0  0  0  0  0  0  0  0
   -0.5252    3.4746   -0.8806 H   0  0  0  0  0  0  0  0  0  0  0  0
   -2.4667    2.4910   -2.0485 H   0  0  0  0  0  0  0  0  0  0  0  0
    1.7695    2.3046   -0.5247 N   0  0  0  0  0  0  0  0  0  0  0  0
    2.6030    2.7793    0.0563 N   0  0  0  0  0  0  0  0  0  0  0  0
    6.9824    0.1415   -2.6649 C   0  0  0  0  0  0  0  0  0  0  0  0
    7.9165    0.1814   -3.6965 C   0  0  0  0  0  0  0  0  0  0  0  0
    7.6243    0.8350   -4.9103 C   0  0  0  0  0  0  0  0  0  0  0  0
    6.3737    1.4499   -5.0778 C   0  0  0  0  0  0  0  0  0  0  0  0
    5.3971    1.4454   -4.0702 C   0  0  0  0  0  0  0  0  0  0  0  0
    5.7647    0.7777   -2.9038 C   0  0  0  0  0  0  0  0  0  0  0  0
    7.2021   -0.3646   -1.7288 H   0  0  0  0  0  0  0  0  0  0  0  0
    8.8837   -0.2989   -3.5668 H   0  0  0  0  0  0  0  0  0  0  0  0
    6.1745    1.9443   -6.0299 H   0  0  0  0  0  0  0  0  0  0  0  0
    4.0972    1.7859   -3.5669 H   0  0  0  0  0  0  0  0  0  0  0  0
    4.3944    0.8604   -1.7489 S   0  0  0  0  0  0  0  0  0  0  0  0
    4.7115    1.6682   -0.5374 O   0  0  0  0  0  0  0  0  0  0  0  0
    3.8039   -0.4721   -1.4583 O   0  0  0  0  0  0  0  0  0  0  0  0
    3.4288    1.6822   -2.6861 O   0  0  0  0  0  0  0  0  0  0  0  0
    8.6627    0.8738   -6.0092 C   0  0  0  0  0  0  0  0  0  0  0  0
    9.5306    1.4795   -5.7197 H   0  0  0  0  0  0  0  0  0  0  0  0
    9.0381   -0.1285   -6.2449 H   0  0  0  0  0  0  0  0  0  0  0  0
    8.2526    1.3029   -6.9278 H   0  0  0  0  0  0  0  0  0  0  0  0
   -2.4424   -0.0177   -3.1249 O   0  0  0  0  0  0  0  0  0  0  0  0
   -3.6905    0.6486   -3.3312 C   0  0  0  0  0  0  0  0  0  0  0  0
   -4.3131   -0.0598   -3.8772 H   0  0  0  0  0  0  0  0  0  0  0  0
   -3.5578    1.5568   -3.9287 H   0  0  0  0  0  0  0  0  0  0  0  0
   -4.1683    0.8961   -2.3771 H   0  0  0  0  0  0  0  0  0  0  0  0
  1  2  1  0  0  0  0
  2  8  1  0  0  0  0
  2  3  2  0  0  0  0
  3 11  1  0  0  0  0
  4  3  1  0  0  0  0
  4  9  1  0  0  0  0
  5  4  2  0  0  0  0
  6  1  2  0  0  0  0
  6  5  1  0  0  0  0
  7  1  1  0  0  0  0
 10  5  1  0  0  0  0
 11 12  1  0  0  0  0
 13 19  1  0  0  0  0
 14 20  1  0  0  0  0
 14 13  2  0  0  0  0
 15 14  1  0  0  0  0
 16 15  2  0  0  0  0
 16 17  1  0  0  0  0
 17 18  2  0  0  0  0
 18 13  1  0  0  0  0
 18 23  1  0  0  0  0
 21 16  1  0  0  0  0
 22 26  1  0  0  0  0
 23 25  2  0  0  0  0
 23 24  2  0  0  0  0
 26 23  1  0  0  0  0
 27 28  1  0  0  0  0
 27 15  1  0  0  0  0
 29 27  1  0  0  0  0
 30 27  1  0  0  0  0
 31  6  1  0  0  0  0
 32 31  1  0  0  0  0
 32 35  1  0  0  0  0
 33 32  1  0  0  0  0
 34 32  1  0  0  0  0
M  RAD  3  11   2  12   3  17   2
M  END
