Coordinates from ORCA-job p-CH3O-Ph-N2-X-OTs-B3LYPG-6-31G_dp-scan-d09-49-n400
 OpenBabel08281821023D

 35 35  0  0  0  0  0  0  0  0999 V2000
   -0.2634   -0.0735   -1.6640 C   0  0  0  0  0  0  0  0  0  0  0  0
    0.7777    0.8301   -1.6182 C   0  0  0  0  0  0  0  0  0  0  0  0
    0.4603    2.1952   -1.8017 C   0  0  0  0  0  0  0  0  0  0  0  0
   -0.8513    2.6434   -2.0338 C   0  0  0  0  0  0  0  0  0  0  0  0
   -1.8778    1.7175   -2.0912 C   0  0  0  0  0  0  0  0  0  0  0  0
   -1.5874    0.3496   -1.9048 C   0  0  0  0  0  0  0  0  0  0  0  0
   -0.0775   -1.1329   -1.5282 H   0  0  0  0  0  0  0  0  0  0  0  0
    1.8083    0.5112   -1.4581 H   0  0  0  0  0  0  0  0  0  0  0  0
   -1.0489    3.7007   -2.1735 H   0  0  0  0  0  0  0  0  0  0  0  0
   -2.8883    2.0560   -2.2791 H   0  0  0  0  0  0  0  0  0  0  0  0
    1.4495    3.1465   -1.7407 N   0  0  0  0  0  0  0  0  0  0  0  0
    2.3033    3.8703   -1.6531 N   0  0  0  0  0  0  0  0  0  0  0  0
    5.6849    0.1572   -4.3116 C   0  0  0  0  0  0  0  0  0  0  0  0
    6.8722   -0.0689   -5.0020 C   0  0  0  0  0  0  0  0  0  0  0  0
    8.0199    0.6978   -4.7445 C   0  0  0  0  0  0  0  0  0  0  0  0
    7.9401    1.7074   -3.7784 C   0  0  0  0  0  0  0  0  0  0  0  0
    6.7551    1.9446   -3.0792 C   0  0  0  0  0  0  0  0  0  0  0  0
    5.6320    1.1662   -3.3462 C   0  0  0  0  0  0  0  0  0  0  0  0
    4.7996   -0.4326   -4.5258 H   0  0  0  0  0  0  0  0  0  0  0  0
    6.9112   -0.8509   -5.7573 H   0  0  0  0  0  0  0  0  0  0  0  0
    8.8148    2.3196   -3.5709 H   0  0  0  0  0  0  0  0  0  0  0  0
    6.6792    2.7311   -2.3369 H   0  0  0  0  0  0  0  0  0  0  0  0
    4.1030    1.4459   -2.4475 S   0  0  0  0  0  0  0  0  0  0  0  0
    4.3258    2.7075   -1.6515 O   0  0  0  0  0  0  0  0  0  0  0  0
    3.8820    0.2505   -1.5848 O   0  0  0  0  0  0  0  0  0  0  0  0
    3.0321    1.6201   -3.4710 O   0  0  0  0  0  0  0  0  0  0  0  0
    9.3106    0.4223   -5.4798 C   0  0  0  0  0  0  0  0  0  0  0  0
    9.8474   -0.4249   -5.0342 H   0  0  0  0  0  0  0  0  0  0  0  0
    9.1292    0.1719   -6.5301 H   0  0  0  0  0  0  0  0  0  0  0  0
    9.9815    1.2865   -5.4495 H   0  0  0  0  0  0  0  0  0  0  0  0
   -2.5088   -0.6268   -1.9379 O   0  0  0  0  0  0  0  0  0  0  0  0
   -3.8753   -0.2974   -2.1915 C   0  0  0  0  0  0  0  0  0  0  0  0
   -4.4129   -1.2448   -2.1775 H   0  0  0  0  0  0  0  0  0  0  0  0
   -3.9925    0.1745   -3.1733 H   0  0  0  0  0  0  0  0  0  0  0  0
   -4.2756    0.3608   -1.4121 H   0  0  0  0  0  0  0  0  0  0  0  0
  1  2  1  0  0  0  0
  1  7  1  0  0  0  0
  2  8  1  0  0  0  0
  3 11  1  0  0  0  0
  3  2  2  0  0  0  0
  4  3  1  0  0  0  0
  5  4  2  0  0  0  0
  5  6  1  0  0  0  0
  6  1  2  0  0  0  0
  9  4  1  0  0  0  0
 10  5  1  0  0  0  0
 11 12  1  0  0  0  0
 13 18  2  0  0  0  0
 14 15  2  0  0  0  0
 14 13  1  0  0  0  0
 15 16  1  0  0  0  0
 16 21  1  0  0  0  0
 16 17  2  0  0  0  0
 17 22  1  0  0  0  0
 18 17  1  0  0  0  0
 18 23  1  0  0  0  0
 19 13  1  0  0  0  0
 20 14  1  0  0  0  0
 23 24  2  0  0  0  0
 23 25  1  0  0  0  0
 26 23  2  0  0  0  0
 27 30  1  0  0  0  0
 27 28  1  0  0  0  0
 27 15  1  0  0  0  0
 29 27  1  0  0  0  0
 31  6  1  0  0  0  0
 32 33  1  0  0  0  0
 32 31  1  0  0  0  0
 32 35  1  0  0  0  0
 34 32  1  0  0  0  0
M  RAD  3  11   2  12   3  25   2
M  END
