Coordinates from ORCA-job p-CH3O-Ph-N2-X-OTs-B3LYPG-6-31G_dp-scan-d09-49-n400
 OpenBabel08281821023D

 35 35  0  0  0  0  0  0  0  0999 V2000
   -0.1686    0.0455   -1.4743 C   0  0  0  0  0  0  0  0  0  0  0  0
    0.7930    1.0264   -1.6025 C   0  0  0  0  0  0  0  0  0  0  0  0
    0.3639    2.3050   -2.0248 C   0  0  0  0  0  0  0  0  0  0  0  0
   -0.9802    2.5943   -2.3160 C   0  0  0  0  0  0  0  0  0  0  0  0
   -1.9253    1.5907   -2.1961 C   0  0  0  0  0  0  0  0  0  0  0  0
   -1.5218    0.3066   -1.7734 C   0  0  0  0  0  0  0  0  0  0  0  0
    0.1045   -0.9530   -1.1525 H   0  0  0  0  0  0  0  0  0  0  0  0
    1.8464    0.8359   -1.3936 H   0  0  0  0  0  0  0  0  0  0  0  0
   -1.2655    3.5896   -2.6386 H   0  0  0  0  0  0  0  0  0  0  0  0
   -2.9600    1.8055   -2.4295 H   0  0  0  0  0  0  0  0  0  0  0  0
    1.2717    3.3285   -2.1527 N   0  0  0  0  0  0  0  0  0  0  0  0
    2.0743    4.1128   -2.2257 N   0  0  0  0  0  0  0  0  0  0  0  0
    5.6101    0.9270   -4.7004 C   0  0  0  0  0  0  0  0  0  0  0  0
    6.7900    0.5700   -5.3556 C   0  0  0  0  0  0  0  0  0  0  0  0
    8.0178    0.5940   -4.6883 C   0  0  0  0  0  0  0  0  0  0  0  0
    8.0283    0.9909   -3.3421 C   0  0  0  0  0  0  0  0  0  0  0  0
    6.8620    1.3488   -2.6683 C   0  0  0  0  0  0  0  0  0  0  0  0
    5.6377    1.3136   -3.3609 C   0  0  0  0  0  0  0  0  0  0  0  0
    4.6556    0.9106   -5.2150 H   0  0  0  0  0  0  0  0  0  0  0  0
    6.7524    0.2690   -6.3997 H   0  0  0  0  0  0  0  0  0  0  0  0
    8.9746    1.0211   -2.8062 H   0  0  0  0  0  0  0  0  0  0  0  0
    6.9658    1.6448   -1.6227 H   0  0  0  0  0  0  0  0  0  0  0  0
    4.0590    1.7569   -2.5953 S   0  0  0  0  0  0  0  0  0  0  0  0
    4.1958    3.2131   -2.2214 O   0  0  0  0  0  0  0  0  0  0  0  0
    3.9100    0.8732   -1.4034 O   0  0  0  0  0  0  0  0  0  0  0  0
    2.9761    1.5535   -3.6117 O   0  0  0  0  0  0  0  0  0  0  0  0
    9.2962    0.1876   -5.3824 C   0  0  0  0  0  0  0  0  0  0  0  0
    9.6122   -0.8174   -5.0761 H   0  0  0  0  0  0  0  0  0  0  0  0
    9.1746    0.1761   -6.4698 H   0  0  0  0  0  0  0  0  0  0  0  0
   10.1180    0.8699   -5.1404 H   0  0  0  0  0  0  0  0  0  0  0  0
   -2.3578   -0.7342   -1.6241 O   0  0  0  0  0  0  0  0  0  0  0  0
   -3.7460   -0.5704   -1.9176 C   0  0  0  0  0  0  0  0  0  0  0  0
   -4.2015   -1.5428   -1.7321 H   0  0  0  0  0  0  0  0  0  0  0  0
   -3.8986   -0.2897   -2.9654 H   0  0  0  0  0  0  0  0  0  0  0  0
   -4.2044    0.1779   -1.2619 H   0  0  0  0  0  0  0  0  0  0  0  0
  1  7  1  0  0  0  0
  2  1  1  0  0  0  0
  2  8  1  0  0  0  0
  3  2  2  0  0  0  0
  4  5  2  0  0  0  0
  4  3  1  0  0  0  0
  5  6  1  0  0  0  0
  6 31  1  0  0  0  0
  6  1  2  0  0  0  0
  9  4  1  0  0  0  0
 10  5  1  0  0  0  0
 11  3  1  0  0  0  0
 12 11  1  0  0  0  0
 13 18  1  0  0  0  0
 14 13  2  0  0  0  0
 14 15  1  0  0  0  0
 15 16  2  0  0  0  0
 16 21  1  0  0  0  0
 16 17  1  0  0  0  0
 17 22  1  0  0  0  0
 18 17  2  0  0  0  0
 18 23  1  0  0  0  0
 19 13  1  0  0  0  0
 20 14  1  0  0  0  0
 23 24  2  0  0  0  0
 23 25  1  0  0  0  0
 26 23  2  0  0  0  0
 27 30  1  0  0  0  0
 27 28  1  0  0  0  0
 27 15  1  0  0  0  0
 29 27  1  0  0  0  0
 32 33  1  0  0  0  0
 32 31  1  0  0  0  0
 32 35  1  0  0  0  0
 34 32  1  0  0  0  0
M  RAD  3  11   2  12   3  25   2
M  END
