Coordinates from ORCA-job p-CH3O-Ph-N2-X-OTs-B3LYPG-6-31G_dp-scan-d09-49-n400
 OpenBabel08281821023D

 35 35  0  0  0  0  0  0  0  0999 V2000
   -0.3316   -0.0966   -2.3517 C   0  0  0  0  0  0  0  0  0  0  0  0
    0.7953    0.4549   -1.7785 C   0  0  0  0  0  0  0  0  0  0  0  0
    0.6785    1.7562   -1.2392 C   0  0  0  0  0  0  0  0  0  0  0  0
   -0.5206    2.4887   -1.2787 C   0  0  0  0  0  0  0  0  0  0  0  0
   -1.6341    1.9221   -1.8735 C   0  0  0  0  0  0  0  0  0  0  0  0
   -1.5443    0.6215   -2.4138 C   0  0  0  0  0  0  0  0  0  0  0  0
   -0.3003   -1.0919   -2.7792 H   0  0  0  0  0  0  0  0  0  0  0  0
    1.7459   -0.0783   -1.7392 H   0  0  0  0  0  0  0  0  0  0  0  0
   -0.5641    3.4854   -0.8544 H   0  0  0  0  0  0  0  0  0  0  0  0
   -2.5577    2.4845   -1.9161 H   0  0  0  0  0  0  0  0  0  0  0  0
    1.7593    2.3487   -0.6328 N   0  0  0  0  0  0  0  0  0  0  0  0
    2.6664    2.7789   -0.1292 N   0  0  0  0  0  0  0  0  0  0  0  0
    6.9395    0.1004   -2.6840 C   0  0  0  0  0  0  0  0  0  0  0  0
    7.9420    0.1652   -3.6523 C   0  0  0  0  0  0  0  0  0  0  0  0
    7.7471    0.8471   -4.8669 C   0  0  0  0  0  0  0  0  0  0  0  0
    6.5131    1.4708   -5.1096 C   0  0  0  0  0  0  0  0  0  0  0  0
    5.5030    1.4174   -4.1526 C   0  0  0  0  0  0  0  0  0  0  0  0
    5.7336    0.7361   -2.9625 C   0  0  0  0  0  0  0  0  0  0  0  0
    7.0970   -0.4309   -1.7507 H   0  0  0  0  0  0  0  0  0  0  0  0
    8.8959   -0.3235   -3.4673 H   0  0  0  0  0  0  0  0  0  0  0  0
    6.3567    1.9921   -6.0515 H   0  0  0  0  0  0  0  0  0  0  0  0
    4.4620    1.8112   -4.1029 H   0  0  0  0  0  0  0  0  0  0  0  0
    4.2659    0.8232   -1.9431 S   0  0  0  0  0  0  0  0  0  0  0  0
    4.6010    1.5759   -0.6839 O   0  0  0  0  0  0  0  0  0  0  0  0
    3.7602   -0.5534   -1.6781 O   0  0  0  0  0  0  0  0  0  0  0  0
    3.3682    1.6217   -2.8526 O   0  0  0  0  0  0  0  0  0  0  0  0
    8.8636    0.9217   -5.8830 C   0  0  0  0  0  0  0  0  0  0  0  0
    9.6088    1.6764   -5.6005 H   0  0  0  0  0  0  0  0  0  0  0  0
    9.3915   -0.0338   -5.9715 H   0  0  0  0  0  0  0  0  0  0  0  0
    8.4857    1.1915   -6.8734 H   0  0  0  0  0  0  0  0  0  0  0  0
   -2.5641   -0.0191   -3.0072 O   0  0  0  0  0  0  0  0  0  0  0  0
   -3.8294    0.6323   -3.1333 C   0  0  0  0  0  0  0  0  0  0  0  0
   -4.4755   -0.0794   -3.6468 H   0  0  0  0  0  0  0  0  0  0  0  0
   -3.7450    1.5471   -3.7298 H   0  0  0  0  0  0  0  0  0  0  0  0
   -4.2532    0.8675   -2.1507 H   0  0  0  0  0  0  0  0  0  0  0  0
  1  2  1  0  0  0  0
  2  8  1  0  0  0  0
  2  3  2  0  0  0  0
  3 11  1  0  0  0  0
  4  3  1  0  0  0  0
  4  9  1  0  0  0  0
  5  4  2  0  0  0  0
  6  1  2  0  0  0  0
  6  5  1  0  0  0  0
  7  1  1  0  0  0  0
 10  5  1  0  0  0  0
 11 12  1  0  0  0  0
 13 19  1  0  0  0  0
 14 20  1  0  0  0  0
 14 13  2  0  0  0  0
 15 14  1  0  0  0  0
 16 15  2  0  0  0  0
 16 17  1  0  0  0  0
 17 22  1  0  0  0  0
 17 18  2  0  0  0  0
 18 13  1  0  0  0  0
 18 23  1  0  0  0  0
 21 16  1  0  0  0  0
 23 25  2  0  0  0  0
 23 24  1  0  0  0  0
 26 23  2  0  0  0  0
 27 28  1  0  0  0  0
 27 15  1  0  0  0  0
 29 27  1  0  0  0  0
 30 27  1  0  0  0  0
 31  6  1  0  0  0  0
 32 31  1  0  0  0  0
 32 35  1  0  0  0  0
 33 32  1  0  0  0  0
 34 32  1  0  0  0  0
M  RAD  3  11   2  12   3  24   2
M  END
