Coordinates from ORCA-job p-CH3O-Ph-N2-X-OTs-B3LYPG-6-31G_dp-scan-d09-49-n400
 OpenBabel08281821023D

 35 35  0  0  0  0  0  0  0  0999 V2000
   -0.4098   -0.0891   -2.3640 C   0  0  0  0  0  0  0  0  0  0  0  0
    0.7345    0.4710   -1.8349 C   0  0  0  0  0  0  0  0  0  0  0  0
    0.6178    1.7492   -1.2426 C   0  0  0  0  0  0  0  0  0  0  0  0
   -0.5996    2.4494   -1.1863 C   0  0  0  0  0  0  0  0  0  0  0  0
   -1.7317    1.8751   -1.7371 C   0  0  0  0  0  0  0  0  0  0  0  0
   -1.6412    0.5981   -2.3303 C   0  0  0  0  0  0  0  0  0  0  0  0
   -0.3788   -1.0676   -2.8286 H   0  0  0  0  0  0  0  0  0  0  0  0
    1.6975   -0.0397   -1.8688 H   0  0  0  0  0  0  0  0  0  0  0  0
   -0.6428    3.4287   -0.7234 H   0  0  0  0  0  0  0  0  0  0  0  0
   -2.6699    2.4134   -1.7044 H   0  0  0  0  0  0  0  0  0  0  0  0
    1.7170    2.3501   -0.6784 N   0  0  0  0  0  0  0  0  0  0  0  0
    2.6584    2.7695   -0.2288 N   0  0  0  0  0  0  0  0  0  0  0  0
    6.7958    0.1306   -2.7907 C   0  0  0  0  0  0  0  0  0  0  0  0
    7.9158    0.1306   -3.6187 C   0  0  0  0  0  0  0  0  0  0  0  0
    7.9228    0.8334   -4.8357 C   0  0  0  0  0  0  0  0  0  0  0  0
    6.7708    1.5373   -5.2095 C   0  0  0  0  0  0  0  0  0  0  0  0
    5.6432    1.5469   -4.3880 C   0  0  0  0  0  0  0  0  0  0  0  0
    5.6647    0.8455   -3.1873 C   0  0  0  0  0  0  0  0  0  0  0  0
    6.7964   -0.4184   -1.8547 H   0  0  0  0  0  0  0  0  0  0  0  0
    8.8019   -0.4247   -3.3195 H   0  0  0  0  0  0  0  0  0  0  0  0
    6.7584    2.0788   -6.1524 H   0  0  0  0  0  0  0  0  0  0  0  0
    4.7156    2.0646   -4.6180 H   0  0  0  0  0  0  0  0  0  0  0  0
    4.1728    0.9182   -2.2030 S   0  0  0  0  0  0  0  0  0  0  0  0
    4.5408    1.6314   -0.9247 O   0  0  0  0  0  0  0  0  0  0  0  0
    3.7249   -0.4829   -1.9604 O   0  0  0  0  0  0  0  0  0  0  0  0
    3.2162    1.7145   -3.0280 O   0  0  0  0  0  0  0  0  0  0  0  0
    9.1554    0.8373   -5.7102 C   0  0  0  0  0  0  0  0  0  0  0  0
    9.9486    1.4594   -5.2771 H   0  0  0  0  0  0  0  0  0  0  0  0
    9.5663   -0.1709   -5.8280 H   0  0  0  0  0  0  0  0  0  0  0  0
    8.9366    1.2305   -6.7070 H   0  0  0  0  0  0  0  0  0  0  0  0
   -2.6782   -0.0479   -2.8885 O   0  0  0  0  0  0  0  0  0  0  0  0
   -3.9643    0.5733   -2.9147 C   0  0  0  0  0  0  0  0  0  0  0  0
   -4.6221   -0.1356   -3.4170 H   0  0  0  0  0  0  0  0  0  0  0  0
   -3.9388    1.5117   -3.4790 H   0  0  0  0  0  0  0  0  0  0  0  0
   -4.3349    0.7599   -1.9006 H   0  0  0  0  0  0  0  0  0  0  0  0
  1  6  2  0  0  0  0
  1  2  1  0  0  0  0
  2  3  2  0  0  0  0
  3  4  1  0  0  0  0
  3 11  1  0  0  0  0
  4  9  1  0  0  0  0
  5 10  1  0  0  0  0
  5  4  2  0  0  0  0
  6  5  1  0  0  0  0
  7  1  1  0  0  0  0
  8  2  1  0  0  0  0
 11 12  1  0  0  0  0
 13 19  1  0  0  0  0
 14 20  1  0  0  0  0
 14 13  2  0  0  0  0
 15 14  1  0  0  0  0
 16 15  2  0  0  0  0
 16 17  1  0  0  0  0
 17 18  2  0  0  0  0
 18 13  1  0  0  0  0
 18 23  1  0  0  0  0
 21 16  1  0  0  0  0
 22 17  1  0  0  0  0
 23 25  2  0  0  0  0
 23 24  1  0  0  0  0
 26 23  2  0  0  0  0
 27 28  1  0  0  0  0
 27 15  1  0  0  0  0
 29 27  1  0  0  0  0
 30 27  1  0  0  0  0
 31  6  1  0  0  0  0
 32 31  1  0  0  0  0
 32 35  1  0  0  0  0
 33 32  1  0  0  0  0
 34 32  1  0  0  0  0
M  RAD  3  11   2  12   3  24   2
M  END
