Coordinates from ORCA-job p-CH3O-Ph-N2-X-OTs-B3LYPG-6-31G_dp-scan-d09-49-n400
 OpenBabel08281821023D

 35 35  0  0  0  0  0  0  0  0999 V2000
   -0.3688   -0.1186   -2.1799 C   0  0  0  0  0  0  0  0  0  0  0  0
    0.7433    0.6047   -1.8008 C   0  0  0  0  0  0  0  0  0  0  0  0
    0.5413    1.9440   -1.3979 C   0  0  0  0  0  0  0  0  0  0  0  0
   -0.7296    2.5442   -1.3773 C   0  0  0  0  0  0  0  0  0  0  0  0
   -1.8292    1.8044   -1.7755 C   0  0  0  0  0  0  0  0  0  0  0  0
   -1.6526    0.4649   -2.1814 C   0  0  0  0  0  0  0  0  0  0  0  0
   -0.2713   -1.1499   -2.4985 H   0  0  0  0  0  0  0  0  0  0  0  0
    1.7446    0.1732   -1.8083 H   0  0  0  0  0  0  0  0  0  0  0  0
   -0.8398    3.5748   -1.0589 H   0  0  0  0  0  0  0  0  0  0  0  0
   -2.8092    2.2641   -1.7686 H   0  0  0  0  0  0  0  0  0  0  0  0
    1.6068    2.7096   -0.9894 N   0  0  0  0  0  0  0  0  0  0  0  0
    2.5249    3.2692   -0.6592 N   0  0  0  0  0  0  0  0  0  0  0  0
    6.3369   -0.1653   -3.2839 C   0  0  0  0  0  0  0  0  0  0  0  0
    7.5124   -0.3068   -4.0192 C   0  0  0  0  0  0  0  0  0  0  0  0
    8.0110    0.7465   -4.7989 C   0  0  0  0  0  0  0  0  0  0  0  0
    7.2930    1.9502   -4.8253 C   0  0  0  0  0  0  0  0  0  0  0  0
    6.1155    2.1052   -4.0952 C   0  0  0  0  0  0  0  0  0  0  0  0
    5.6388    1.0428   -3.3253 C   0  0  0  0  0  0  0  0  0  0  0  0
    5.9444   -0.9782   -2.6833 H   0  0  0  0  0  0  0  0  0  0  0  0
    8.0519   -1.2509   -3.9873 H   0  0  0  0  0  0  0  0  0  0  0  0
    7.6614    2.7777   -5.4266 H   0  0  0  0  0  0  0  0  0  0  0  0
    5.5689    3.0419   -4.1302 H   0  0  0  0  0  0  0  0  0  0  0  0
    4.1352    1.2360   -2.3607 S   0  0  0  0  0  0  0  0  0  0  0  0
    4.4835    2.2127   -1.2634 O   0  0  0  0  0  0  0  0  0  0  0  0
    3.7950   -0.1201   -1.8411 O   0  0  0  0  0  0  0  0  0  0  0  0
    3.0916    1.7944   -3.2666 O   0  0  0  0  0  0  0  0  0  0  0  0
    9.2925    0.5842   -5.5822 C   0  0  0  0  0  0  0  0  0  0  0  0
   10.1528    0.4540   -4.9150 H   0  0  0  0  0  0  0  0  0  0  0  0
    9.2551   -0.2976   -6.2320 H   0  0  0  0  0  0  0  0  0  0  0  0
    9.4903    1.4562   -6.2121 H   0  0  0  0  0  0  0  0  0  0  0  0
   -2.6515   -0.3377   -2.5846 O   0  0  0  0  0  0  0  0  0  0  0  0
   -3.9856    0.1695   -2.6370 C   0  0  0  0  0  0  0  0  0  0  0  0
   -4.5981   -0.6536   -3.0044 H   0  0  0  0  0  0  0  0  0  0  0  0
   -4.0597    1.0171   -3.3272 H   0  0  0  0  0  0  0  0  0  0  0  0
   -4.3353    0.4691   -1.6430 H   0  0  0  0  0  0  0  0  0  0  0  0
  1  2  1  0  0  0  0
  2  3  2  0  0  0  0
  3  4  1  0  0  0  0
  3 11  1  0  0  0  0
  4  9  1  0  0  0  0
  5 10  1  0  0  0  0
  5  4  2  0  0  0  0
  6  1  2  0  0  0  0
  6  5  1  0  0  0  0
  7  1  1  0  0  0  0
  8  2  1  0  0  0  0
 11 12  1  0  0  0  0
 13 19  1  0  0  0  0
 14 20  1  0  0  0  0
 14 13  2  0  0  0  0
 15 14  1  0  0  0  0
 16 15  2  0  0  0  0
 16 17  1  0  0  0  0
 17 18  2  0  0  0  0
 18 13  1  0  0  0  0
 18 23  1  0  0  0  0
 21 16  1  0  0  0  0
 22 17  1  0  0  0  0
 23 25  2  0  0  0  0
 23 24  1  0  0  0  0
 26 23  2  0  0  0  0
 27 28  1  0  0  0  0
 27 15  1  0  0  0  0
 29 27  1  0  0  0  0
 30 27  1  0  0  0  0
 31  6  1  0  0  0  0
 32 31  1  0  0  0  0
 32 35  1  0  0  0  0
 33 32  1  0  0  0  0
 34 32  1  0  0  0  0
M  RAD  3  11   2  12   3  24   2
M  END
