Coordinates from ORCA-job p-CH3O-Ph-N2-X-OTs-B3LYPG-6-31G_dp-scan-d09-49-n400
 OpenBabel08281821023D

 35 35  0  0  0  0  0  0  0  0999 V2000
   -0.3634   -0.1194   -2.1652 C   0  0  0  0  0  0  0  0  0  0  0  0
    0.7454    0.6152   -1.7982 C   0  0  0  0  0  0  0  0  0  0  0  0
    0.5368    1.9591   -1.4145 C   0  0  0  0  0  0  0  0  0  0  0  0
   -0.7373    2.5527   -1.4005 C   0  0  0  0  0  0  0  0  0  0  0  0
   -1.8336    1.8013   -1.7859 C   0  0  0  0  0  0  0  0  0  0  0  0
   -1.6504    0.4570   -2.1729 C   0  0  0  0  0  0  0  0  0  0  0  0
   -0.2608   -1.1547   -2.4691 H   0  0  0  0  0  0  0  0  0  0  0  0
    1.7489    0.1888   -1.8005 H   0  0  0  0  0  0  0  0  0  0  0  0
   -0.8527    3.5872   -1.0966 H   0  0  0  0  0  0  0  0  0  0  0  0
   -2.8161    2.2557   -1.7837 H   0  0  0  0  0  0  0  0  0  0  0  0
    1.5987    2.7362   -1.0186 N   0  0  0  0  0  0  0  0  0  0  0  0
    2.5139    3.3057   -0.6972 N   0  0  0  0  0  0  0  0  0  0  0  0
    6.3038   -0.1775   -3.3241 C   0  0  0  0  0  0  0  0  0  0  0  0
    7.4775   -0.3260   -4.0613 C   0  0  0  0  0  0  0  0  0  0  0  0
    8.0105    0.7409   -4.7983 C   0  0  0  0  0  0  0  0  0  0  0  0
    7.3293    1.9660   -4.7801 C   0  0  0  0  0  0  0  0  0  0  0  0
    6.1543    2.1282   -4.0478 C   0  0  0  0  0  0  0  0  0  0  0  0
    5.6427    1.0517   -3.3210 C   0  0  0  0  0  0  0  0  0  0  0  0
    5.8858   -0.9996   -2.7541 H   0  0  0  0  0  0  0  0  0  0  0  0
    7.9887   -1.2863   -4.0638 H   0  0  0  0  0  0  0  0  0  0  0  0
    7.7252    2.8047   -5.3474 H   0  0  0  0  0  0  0  0  0  0  0  0
    5.6376    3.0824   -4.0458 H   0  0  0  0  0  0  0  0  0  0  0  0
    4.1359    1.2518   -2.3631 S   0  0  0  0  0  0  0  0  0  0  0  0
    4.4784    2.2463   -1.2802 O   0  0  0  0  0  0  0  0  0  0  0  0
    3.7994   -0.0980   -1.8253 O   0  0  0  0  0  0  0  0  0  0  0  0
    3.0916    1.7929   -3.2789 O   0  0  0  0  0  0  0  0  0  0  0  0
    9.2910    0.5712   -5.5817 C   0  0  0  0  0  0  0  0  0  0  0  0
   10.1475    0.4160   -4.9148 H   0  0  0  0  0  0  0  0  0  0  0  0
    9.2410   -0.2988   -6.2464 H   0  0  0  0  0  0  0  0  0  0  0  0
    9.5045    1.4507   -6.1958 H   0  0  0  0  0  0  0  0  0  0  0  0
   -2.6456   -0.3566   -2.5627 O   0  0  0  0  0  0  0  0  0  0  0  0
   -3.9826    0.1423   -2.6196 C   0  0  0  0  0  0  0  0  0  0  0  0
   -4.5910   -0.6892   -2.9746 H   0  0  0  0  0  0  0  0  0  0  0  0
   -4.0626    0.9799   -3.3213 H   0  0  0  0  0  0  0  0  0  0  0  0
   -4.3321    0.4536   -1.6292 H   0  0  0  0  0  0  0  0  0  0  0  0
  1  2  1  0  0  0  0
  2  3  2  0  0  0  0
  3  4  1  0  0  0  0
  3 11  1  0  0  0  0
  4  9  1  0  0  0  0
  5 10  1  0  0  0  0
  5  4  2  0  0  0  0
  6  1  2  0  0  0  0
  6  5  1  0  0  0  0
  7  1  1  0  0  0  0
  8  2  1  0  0  0  0
 11 12  1  0  0  0  0
 13 18  1  0  0  0  0
 13 19  1  0  0  0  0
 14 13  2  0  0  0  0
 15 16  2  0  0  0  0
 15 14  1  0  0  0  0
 16 17  1  0  0  0  0
 17 22  1  0  0  0  0
 17 18  2  0  0  0  0
 18 23  1  0  0  0  0
 20 14  1  0  0  0  0
 21 16  1  0  0  0  0
 23 25  2  0  0  0  0
 23 24  1  0  0  0  0
 26 23  2  0  0  0  0
 27 28  1  0  0  0  0
 27 15  1  0  0  0  0
 29 27  1  0  0  0  0
 30 27  1  0  0  0  0
 31  6  1  0  0  0  0
 32 31  1  0  0  0  0
 32 35  1  0  0  0  0
 33 32  1  0  0  0  0
 34 32  1  0  0  0  0
M  RAD  3  11   2  12   3  24   2
M  END
