Coordinates from ORCA-job p-CH3O-Ph-N2-X-OTs-B3LYPG-6-31G_dp-scan-d09-49-n400
 OpenBabel08281821023D

 35 35  0  0  0  0  0  0  0  0999 V2000
   -0.3101   -0.1257   -1.9675 C   0  0  0  0  0  0  0  0  0  0  0  0
    0.7678    0.6969   -1.7138 C   0  0  0  0  0  0  0  0  0  0  0  0
    0.5085    2.0776   -1.5588 C   0  0  0  0  0  0  0  0  0  0  0  0
   -0.7839    2.6212   -1.6589 C   0  0  0  0  0  0  0  0  0  0  0  0
   -1.8484    1.7792   -1.9279 C   0  0  0  0  0  0  0  0  0  0  0  0
   -1.6152    0.3964   -2.0840 C   0  0  0  0  0  0  0  0  0  0  0  0
   -0.1691   -1.1930   -2.0960 H   0  0  0  0  0  0  0  0  0  0  0  0
    1.7844    0.3101   -1.6356 H   0  0  0  0  0  0  0  0  0  0  0  0
   -0.9376    3.6873   -1.5316 H   0  0  0  0  0  0  0  0  0  0  0  0
   -2.8445    2.1937   -2.0146 H   0  0  0  0  0  0  0  0  0  0  0  0
    1.5374    2.9451   -1.2825 N   0  0  0  0  0  0  0  0  0  0  0  0
    2.4213    3.5959   -1.0412 N   0  0  0  0  0  0  0  0  0  0  0  0
    5.9910   -0.1730   -3.7255 C   0  0  0  0  0  0  0  0  0  0  0  0
    7.1457   -0.3608   -4.4831 C   0  0  0  0  0  0  0  0  0  0  0  0
    7.9874    0.7144   -4.8005 C   0  0  0  0  0  0  0  0  0  0  0  0
    7.6385    1.9903   -4.3367 C   0  0  0  0  0  0  0  0  0  0  0  0
    6.4854    2.1927   -3.5797 C   0  0  0  0  0  0  0  0  0  0  0  0
    5.6605    1.1076   -3.2792 C   0  0  0  0  0  0  0  0  0  0  0  0
    5.3493   -1.0073   -3.4641 H   0  0  0  0  0  0  0  0  0  0  0  0
    7.4005   -1.3594   -4.8306 H   0  0  0  0  0  0  0  0  0  0  0  0
    8.2814    2.8364   -4.5684 H   0  0  0  0  0  0  0  0  0  0  0  0
    6.2316    3.1792   -3.2070 H   0  0  0  0  0  0  0  0  0  0  0  0
    4.1361    1.3583   -2.3621 S   0  0  0  0  0  0  0  0  0  0  0  0
    4.4318    2.4889   -1.4084 O   0  0  0  0  0  0  0  0  0  0  0  0
    3.8480    0.0664   -1.6744 O   0  0  0  0  0  0  0  0  0  0  0  0
    3.0709    1.7372   -3.3357 O   0  0  0  0  0  0  0  0  0  0  0  0
    9.2558    0.4959   -5.5911 C   0  0  0  0  0  0  0  0  0  0  0  0
   10.0879    0.2115   -4.9344 H   0  0  0  0  0  0  0  0  0  0  0  0
    9.1359   -0.3053   -6.3273 H   0  0  0  0  0  0  0  0  0  0  0  0
    9.5584    1.4030   -6.1227 H   0  0  0  0  0  0  0  0  0  0  0  0
   -2.5768   -0.5050   -2.3423 O   0  0  0  0  0  0  0  0  0  0  0  0
   -3.9302   -0.0718   -2.4840 C   0  0  0  0  0  0  0  0  0  0  0  0
   -4.5078   -0.9744   -2.6806 H   0  0  0  0  0  0  0  0  0  0  0  0
   -4.0379    0.6215   -3.3257 H   0  0  0  0  0  0  0  0  0  0  0  0
   -4.2936    0.4003   -1.5645 H   0  0  0  0  0  0  0  0  0  0  0  0
  1  2  1  0  0  0  0
  2  8  1  0  0  0  0
  2  3  2  0  0  0  0
  3 11  1  0  0  0  0
  4  3  1  0  0  0  0
  4  9  1  0  0  0  0
  5  4  2  0  0  0  0
  6  1  2  0  0  0  0
  6  5  1  0  0  0  0
  7  1  1  0  0  0  0
 10  5  1  0  0  0  0
 11 12  1  0  0  0  0
 13 19  1  0  0  0  0
 13 18  2  0  0  0  0
 14 13  1  0  0  0  0
 15 14  2  0  0  0  0
 15 16  1  0  0  0  0
 16 17  2  0  0  0  0
 17 18  1  0  0  0  0
 17 22  1  0  0  0  0
 18 23  1  0  0  0  0
 20 14  1  0  0  0  0
 21 16  1  0  0  0  0
 23 25  2  0  0  0  0
 23 24  1  0  0  0  0
 26 23  2  0  0  0  0
 27 28  1  0  0  0  0
 27 15  1  0  0  0  0
 29 27  1  0  0  0  0
 30 27  1  0  0  0  0
 31  6  1  0  0  0  0
 32 31  1  0  0  0  0
 32 35  1  0  0  0  0
 33 32  1  0  0  0  0
 34 32  1  0  0  0  0
M  RAD  3  11   2  12   3  24   2
M  END
