Coordinates from ORCA-job p-CH3O-Ph-N2-X-OTs-B3LYPG-6-31G_dp-scan-d09-49-n400
 OpenBabel08281821023D

 35 35  0  0  0  0  0  0  0  0999 V2000
   -0.3740   -0.1176   -2.1923 C   0  0  0  0  0  0  0  0  0  0  0  0
    0.7410    0.5962   -1.8039 C   0  0  0  0  0  0  0  0  0  0  0  0
    0.5446    1.9316   -1.3854 C   0  0  0  0  0  0  0  0  0  0  0  0
   -0.7236    2.5373   -1.3590 C   0  0  0  0  0  0  0  0  0  0  0  0
   -1.8262    1.8072   -1.7668 C   0  0  0  0  0  0  0  0  0  0  0  0
   -1.6552    0.4716   -2.1881 C   0  0  0  0  0  0  0  0  0  0  0  0
   -0.2809   -1.1456   -2.5228 H   0  0  0  0  0  0  0  0  0  0  0  0
    1.7404    0.1604   -1.8160 H   0  0  0  0  0  0  0  0  0  0  0  0
   -0.8294    3.5646   -1.0288 H   0  0  0  0  0  0  0  0  0  0  0  0
   -2.8041    2.2711   -1.7557 H   0  0  0  0  0  0  0  0  0  0  0  0
    1.6132    2.6875   -0.9672 N   0  0  0  0  0  0  0  0  0  0  0  0
    2.5341    3.2385   -0.6302 N   0  0  0  0  0  0  0  0  0  0  0  0
    6.3641   -0.1537   -3.2521 C   0  0  0  0  0  0  0  0  0  0  0  0
    7.5414   -0.2890   -3.9853 C   0  0  0  0  0  0  0  0  0  0  0  0
    8.0124    0.7516   -4.7989 C   0  0  0  0  0  0  0  0  0  0  0  0
    7.2646    1.9354   -4.8615 C   0  0  0  0  0  0  0  0  0  0  0  0
    6.0846    2.0841   -4.1337 C   0  0  0  0  0  0  0  0  0  0  0  0
    5.6359    1.0350   -3.3294 C   0  0  0  0  0  0  0  0  0  0  0  0
    5.9923   -0.9580   -2.6272 H   0  0  0  0  0  0  0  0  0  0  0  0
    8.1041   -1.2181   -3.9257 H   0  0  0  0  0  0  0  0  0  0  0  0
    7.6108    2.7523   -5.4898 H   0  0  0  0  0  0  0  0  0  0  0  0
    5.5135    3.0045   -4.1983 H   0  0  0  0  0  0  0  0  0  0  0  0
    4.1342    1.2219   -2.3605 S   0  0  0  0  0  0  0  0  0  0  0  0
    4.4867    2.1822   -1.2500 O   0  0  0  0  0  0  0  0  0  0  0  0
    3.7898   -0.1395   -1.8581 O   0  0  0  0  0  0  0  0  0  0  0  0
    3.0919    1.7962   -3.2581 O   0  0  0  0  0  0  0  0  0  0  0  0
    9.2952    0.5958   -5.5814 C   0  0  0  0  0  0  0  0  0  0  0  0
   10.1580    0.4868   -4.9137 H   0  0  0  0  0  0  0  0  0  0  0  0
    9.2691   -0.2958   -6.2186 H   0  0  0  0  0  0  0  0  0  0  0  0
    9.4802    1.4611   -6.2243 H   0  0  0  0  0  0  0  0  0  0  0  0
   -2.6573   -0.3216   -2.6014 O   0  0  0  0  0  0  0  0  0  0  0  0
   -3.9891    0.1920   -2.6489 C   0  0  0  0  0  0  0  0  0  0  0  0
   -4.6051   -0.6243   -3.0257 H   0  0  0  0  0  0  0  0  0  0  0  0
   -4.0591    1.0475   -3.3298 H   0  0  0  0  0  0  0  0  0  0  0  0
   -4.3380    0.4822   -1.6518 H   0  0  0  0  0  0  0  0  0  0  0  0
  1  6  2  0  0  0  0
  1  2  1  0  0  0  0
  2  3  2  0  0  0  0
  3  4  1  0  0  0  0
  3 11  1  0  0  0  0
  4  9  1  0  0  0  0
  5 10  1  0  0  0  0
  5  4  2  0  0  0  0
  6  5  1  0  0  0  0
  7  1  1  0  0  0  0
  8  2  1  0  0  0  0
 11 12  1  0  0  0  0
 13 19  1  0  0  0  0
 14 20  1  0  0  0  0
 14 13  2  0  0  0  0
 15 14  1  0  0  0  0
 16 15  2  0  0  0  0
 16 17  1  0  0  0  0
 17 18  2  0  0  0  0
 18 13  1  0  0  0  0
 18 23  1  0  0  0  0
 21 16  1  0  0  0  0
 22 17  1  0  0  0  0
 23 25  2  0  0  0  0
 23 24  1  0  0  0  0
 26 23  2  0  0  0  0
 27 28  1  0  0  0  0
 27 15  1  0  0  0  0
 29 27  1  0  0  0  0
 30 27  1  0  0  0  0
 31  6  1  0  0  0  0
 32 31  1  0  0  0  0
 32 35  1  0  0  0  0
 33 32  1  0  0  0  0
 34 32  1  0  0  0  0
M  RAD  3  11   2  12   3  24   2
M  END
