Coordinates from ORCA-job p-CH3O-Ph-N2-X-OTs-B3LYPG-6-31G_dp-scan-d09-49-n400
 OpenBabel08281821023D

 35 35  0  0  0  0  0  0  0  0999 V2000
   -0.3877   -0.1129   -2.2243 C   0  0  0  0  0  0  0  0  0  0  0  0
    0.7346    0.5782   -1.8165 C   0  0  0  0  0  0  0  0  0  0  0  0
    0.5523    1.9036   -1.3616 C   0  0  0  0  0  0  0  0  0  0  0  0
   -0.7093    2.5220   -1.3193 C   0  0  0  0  0  0  0  0  0  0  0  0
   -1.8194    1.8153   -1.7472 C   0  0  0  0  0  0  0  0  0  0  0  0
   -1.6626    0.4897   -2.2042 C   0  0  0  0  0  0  0  0  0  0  0  0
   -0.3056   -1.1324   -2.5825 H   0  0  0  0  0  0  0  0  0  0  0  0
    1.7293    0.1322   -1.8413 H   0  0  0  0  0  0  0  0  0  0  0  0
   -0.8041    3.5411   -0.9617 H   0  0  0  0  0  0  0  0  0  0  0  0
   -2.7923    2.2893   -1.7245 H   0  0  0  0  0  0  0  0  0  0  0  0
    1.6286    2.6362   -0.9222 N   0  0  0  0  0  0  0  0  0  0  0  0
    2.5568    3.1656   -0.5706 N   0  0  0  0  0  0  0  0  0  0  0  0
    6.4307   -0.1239   -3.1782 C   0  0  0  0  0  0  0  0  0  0  0  0
    7.6119   -0.2403   -3.9075 C   0  0  0  0  0  0  0  0  0  0  0  0
    8.0163    0.7654   -4.7980 C   0  0  0  0  0  0  0  0  0  0  0  0
    7.1971    1.8933   -4.9418 C   0  0  0  0  0  0  0  0  0  0  0  0
    6.0119    2.0227   -4.2179 C   0  0  0  0  0  0  0  0  0  0  0  0
    5.6315    1.0106   -3.3359 C   0  0  0  0  0  0  0  0  0  0  0  0
    6.1093   -0.9047   -2.4977 H   0  0  0  0  0  0  0  0  0  0  0  0
    8.2301   -1.1271   -3.7862 H   0  0  0  0  0  0  0  0  0  0  0  0
    7.4904    2.6807   -5.6319 H   0  0  0  0  0  0  0  0  0  0  0  0
    5.3808    2.8958   -4.3462 H   0  0  0  0  0  0  0  0  0  0  0  0
    4.1323    1.1818   -2.3609 S   0  0  0  0  0  0  0  0  0  0  0  0
    4.4931    2.1002   -1.2176 O   0  0  0  0  0  0  0  0  0  0  0  0
    3.7750   -0.1916   -1.9022 O   0  0  0  0  0  0  0  0  0  0  0  0
    3.0978    1.7965   -3.2404 O   0  0  0  0  0  0  0  0  0  0  0  0
    9.3024    0.6291   -5.5789 C   0  0  0  0  0  0  0  0  0  0  0  0
   10.1709    0.5847   -4.9112 H   0  0  0  0  0  0  0  0  0  0  0  0
    9.3113   -0.2895   -6.1771 H   0  0  0  0  0  0  0  0  0  0  0  0
    9.4492    1.4725   -6.2597 H   0  0  0  0  0  0  0  0  0  0  0  0
   -2.6730   -0.2814   -2.6388 O   0  0  0  0  0  0  0  0  0  0  0  0
   -3.9995    0.2469   -2.6713 C   0  0  0  0  0  0  0  0  0  0  0  0
   -4.6242   -0.5532   -3.0678 H   0  0  0  0  0  0  0  0  0  0  0  0
   -4.0615    1.1200   -3.3302 H   0  0  0  0  0  0  0  0  0  0  0  0
   -4.3442    0.5154   -1.6667 H   0  0  0  0  0  0  0  0  0  0  0  0
  1  6  2  0  0  0  0
  1  2  1  0  0  0  0
  2  3  2  0  0  0  0
  3  4  1  0  0  0  0
  3 11  1  0  0  0  0
  4  9  1  0  0  0  0
  5 10  1  0  0  0  0
  5  4  2  0  0  0  0
  6  5  1  0  0  0  0
  7  1  1  0  0  0  0
  8  2  1  0  0  0  0
 11 12  1  0  0  0  0
 13 19  1  0  0  0  0
 14 20  1  0  0  0  0
 14 13  2  0  0  0  0
 15 14  1  0  0  0  0
 16 15  2  0  0  0  0
 16 17  1  0  0  0  0
 17 18  2  0  0  0  0
 18 13  1  0  0  0  0
 18 23  1  0  0  0  0
 21 16  1  0  0  0  0
 22 17  1  0  0  0  0
 23 25  2  0  0  0  0
 23 24  1  0  0  0  0
 26 23  2  0  0  0  0
 27 28  1  0  0  0  0
 27 15  1  0  0  0  0
 29 27  1  0  0  0  0
 30 27  1  0  0  0  0
 31  6  1  0  0  0  0
 32 31  1  0  0  0  0
 32 35  1  0  0  0  0
 33 32  1  0  0  0  0
 34 32  1  0  0  0  0
M  RAD  3  11   2  12   3  24   2
M  END
