Coordinates from ORCA-job p-CH3O-Ph-N2-X-OTs-B3LYPG-6-31G_dp-scan-d09-49-n400
 OpenBabel08281821023D

 35 35  0  0  0  0  0  0  0  0999 V2000
   -0.3655   -0.1191   -2.1709 C   0  0  0  0  0  0  0  0  0  0  0  0
    0.7445    0.6111   -1.7992 C   0  0  0  0  0  0  0  0  0  0  0  0
    0.5385    1.9532   -1.4080 C   0  0  0  0  0  0  0  0  0  0  0  0
   -0.7343    2.5494   -1.3914 C   0  0  0  0  0  0  0  0  0  0  0  0
   -1.8319    1.8025   -1.7818 C   0  0  0  0  0  0  0  0  0  0  0  0
   -1.6513    0.4600   -2.1762 C   0  0  0  0  0  0  0  0  0  0  0  0
   -0.2649   -1.1529   -2.4806 H   0  0  0  0  0  0  0  0  0  0  0  0
    1.7472    0.1827   -1.8035 H   0  0  0  0  0  0  0  0  0  0  0  0
   -0.8477    3.5823   -1.0818 H   0  0  0  0  0  0  0  0  0  0  0  0
   -2.8135    2.2590   -1.7777 H   0  0  0  0  0  0  0  0  0  0  0  0
    1.6018    2.7258   -1.0072 N   0  0  0  0  0  0  0  0  0  0  0  0
    2.5182    3.2915   -0.6823 N   0  0  0  0  0  0  0  0  0  0  0  0
    6.3168   -0.1730   -3.3083 C   0  0  0  0  0  0  0  0  0  0  0  0
    7.4912   -0.3188   -4.0447 C   0  0  0  0  0  0  0  0  0  0  0  0
    8.0107    0.7430   -4.7985 C   0  0  0  0  0  0  0  0  0  0  0  0
    7.3152    1.9602   -4.7979 C   0  0  0  0  0  0  0  0  0  0  0  0
    6.1392    2.1196   -4.0665 C   0  0  0  0  0  0  0  0  0  0  0  0
    5.6412    1.0483   -3.3227 C   0  0  0  0  0  0  0  0  0  0  0  0
    5.9088   -0.9917   -2.7262 H   0  0  0  0  0  0  0  0  0  0  0  0
    8.0135   -1.2730   -4.0337 H   0  0  0  0  0  0  0  0  0  0  0  0
    7.7003    2.7947   -5.3786 H   0  0  0  0  0  0  0  0  0  0  0  0
    5.6107    3.0673   -4.0790 H   0  0  0  0  0  0  0  0  0  0  0  0
    4.1357    1.2458   -2.3622 S   0  0  0  0  0  0  0  0  0  0  0  0
    4.4804    2.2333   -1.2736 O   0  0  0  0  0  0  0  0  0  0  0  0
    3.7976   -0.1066   -1.8316 O   0  0  0  0  0  0  0  0  0  0  0  0
    3.0917    1.7938   -3.2742 O   0  0  0  0  0  0  0  0  0  0  0  0
    9.2916    0.5762   -5.5819 C   0  0  0  0  0  0  0  0  0  0  0  0
   10.1497    0.4305   -4.9149 H   0  0  0  0  0  0  0  0  0  0  0  0
    9.2464   -0.2984   -6.2410 H   0  0  0  0  0  0  0  0  0  0  0  0
    9.4991    1.4529   -6.2021 H   0  0  0  0  0  0  0  0  0  0  0  0
   -2.6480   -0.3493   -2.5712 O   0  0  0  0  0  0  0  0  0  0  0  0
   -3.9838    0.1528   -2.6264 C   0  0  0  0  0  0  0  0  0  0  0  0
   -4.5939   -0.6754   -2.9863 H   0  0  0  0  0  0  0  0  0  0  0  0
   -4.0615    0.9945   -3.3236 H   0  0  0  0  0  0  0  0  0  0  0  0
   -4.3334    0.4595   -1.6346 H   0  0  0  0  0  0  0  0  0  0  0  0
  1  2  1  0  0  0  0
  2  3  2  0  0  0  0
  3  4  1  0  0  0  0
  3 11  1  0  0  0  0
  4  9  1  0  0  0  0
  5 10  1  0  0  0  0
  5  4  2  0  0  0  0
  6  1  2  0  0  0  0
  6  5  1  0  0  0  0
  7  1  1  0  0  0  0
  8  2  1  0  0  0  0
 11 12  1  0  0  0  0
 13 19  1  0  0  0  0
 14 20  1  0  0  0  0
 14 13  2  0  0  0  0
 15 16  2  0  0  0  0
 15 14  1  0  0  0  0
 16 17  1  0  0  0  0
 17 18  2  0  0  0  0
 18 13  1  0  0  0  0
 18 23  1  0  0  0  0
 21 16  1  0  0  0  0
 22 17  1  0  0  0  0
 23 25  2  0  0  0  0
 23 24  1  0  0  0  0
 26 23  2  0  0  0  0
 27 28  1  0  0  0  0
 27 15  1  0  0  0  0
 29 27  1  0  0  0  0
 30 27  1  0  0  0  0
 31  6  1  0  0  0  0
 32 31  1  0  0  0  0
 32 35  1  0  0  0  0
 33 32  1  0  0  0  0
 34 32  1  0  0  0  0
M  RAD  3  11   2  12   3  24   2
M  END
