Coordinates from ORCA-job p-CH3O-Ph-N2-X-OTs-B3LYPG-6-31G_dp-scan-d09-49-n400
 OpenBabel08281821023D

 35 35  0  0  0  0  0  0  0  0999 V2000
   -0.4221   -0.0887   -2.3621 C   0  0  0  0  0  0  0  0  0  0  0  0
    0.7240    0.4812   -1.8474 C   0  0  0  0  0  0  0  0  0  0  0  0
    0.6034    1.7569   -1.2507 C   0  0  0  0  0  0  0  0  0  0  0  0
   -0.6200    2.4448   -1.1755 C   0  0  0  0  0  0  0  0  0  0  0  0
   -1.7540    1.8609   -1.7118 C   0  0  0  0  0  0  0  0  0  0  0  0
   -1.6595    0.5865   -2.3097 C   0  0  0  0  0  0  0  0  0  0  0  0
   -0.3881   -1.0658   -2.8296 H   0  0  0  0  0  0  0  0  0  0  0  0
    1.6911   -0.0205   -1.8955 H   0  0  0  0  0  0  0  0  0  0  0  0
   -0.6662    3.4226   -0.7094 H   0  0  0  0  0  0  0  0  0  0  0  0
   -2.6969    2.3900   -1.6643 H   0  0  0  0  0  0  0  0  0  0  0  0
    1.7044    2.3679   -0.7010 N   0  0  0  0  0  0  0  0  0  0  0  0
    2.6510    2.7932   -0.2674 N   0  0  0  0  0  0  0  0  0  0  0  0
    6.7606    0.1388   -2.8191 C   0  0  0  0  0  0  0  0  0  0  0  0
    7.9042    0.1223   -3.6125 C   0  0  0  0  0  0  0  0  0  0  0  0
    7.9601    0.8324   -4.8240 C   0  0  0  0  0  0  0  0  0  0  0  0
    6.8334    1.5612   -5.2228 C   0  0  0  0  0  0  0  0  0  0  0  0
    5.6811    1.5883   -4.4350 C   0  0  0  0  0  0  0  0  0  0  0  0
    5.6523    0.8779   -3.2392 C   0  0  0  0  0  0  0  0  0  0  0  0
    6.7236   -0.4157   -1.8873 H   0  0  0  0  0  0  0  0  0  0  0  0
    8.7709   -0.4505   -3.2901 H   0  0  0  0  0  0  0  0  0  0  0  0
    6.8583    2.1117   -6.1601 H   0  0  0  0  0  0  0  0  0  0  0  0
    4.7849    2.1360   -4.7095 H   0  0  0  0  0  0  0  0  0  0  0  0
    4.1546    0.9537   -2.2606 S   0  0  0  0  0  0  0  0  0  0  0  0
    4.5271    1.6737   -0.9865 O   0  0  0  0  0  0  0  0  0  0  0  0
    3.7218   -0.4507   -2.0093 O   0  0  0  0  0  0  0  0  0  0  0  0
    3.1818    1.7385   -3.0752 O   0  0  0  0  0  0  0  0  0  0  0  0
    9.2115    0.8032   -5.6708 C   0  0  0  0  0  0  0  0  0  0  0  0
   10.0722    1.2077   -5.1254 H   0  0  0  0  0  0  0  0  0  0  0  0
    9.4710   -0.2201   -5.9648 H   0  0  0  0  0  0  0  0  0  0  0  0
    9.0895    1.3919   -6.5839 H   0  0  0  0  0  0  0  0  0  0  0  0
   -2.6979   -0.0680   -2.8554 O   0  0  0  0  0  0  0  0  0  0  0  0
   -3.9900    0.5409   -2.8617 C   0  0  0  0  0  0  0  0  0  0  0  0
   -4.6480   -0.1726   -3.3572 H   0  0  0  0  0  0  0  0  0  0  0  0
   -3.9815    1.4813   -3.4233 H   0  0  0  0  0  0  0  0  0  0  0  0
   -4.3483    0.7207   -1.8420 H   0  0  0  0  0  0  0  0  0  0  0  0
  1  6  2  0  0  0  0
  1  2  1  0  0  0  0
  2  3  2  0  0  0  0
  3  4  1  0  0  0  0
  3 11  1  0  0  0  0
  4  9  1  0  0  0  0
  5 10  1  0  0  0  0
  5  4  2  0  0  0  0
  6  5  1  0  0  0  0
  7  1  1  0  0  0  0
  8  2  1  0  0  0  0
 11 12  1  0  0  0  0
 13 19  1  0  0  0  0
 14 20  1  0  0  0  0
 14 13  2  0  0  0  0
 15 14  1  0  0  0  0
 16 15  2  0  0  0  0
 16 17  1  0  0  0  0
 17 18  2  0  0  0  0
 18 13  1  0  0  0  0
 18 23  1  0  0  0  0
 21 16  1  0  0  0  0
 22 17  1  0  0  0  0
 23 25  2  0  0  0  0
 23 24  1  0  0  0  0
 26 23  2  0  0  0  0
 27 28  1  0  0  0  0
 27 15  1  0  0  0  0
 29 27  1  0  0  0  0
 30 27  1  0  0  0  0
 31  6  1  0  0  0  0
 32 31  1  0  0  0  0
 32 35  1  0  0  0  0
 33 32  1  0  0  0  0
 34 32  1  0  0  0  0
M  RAD  3  11   2  12   3  24   2
M  END
