Coordinates from ORCA-job p-CH3O-Ph-N2-X-OTs-B3LYPG-6-31G_dp-scan-d09-49-n400
 OpenBabel08281821023D

 35 35  0  0  0  0  0  0  0  0999 V2000
   -0.2535   -0.1155   -2.3465 C   0  0  0  0  0  0  0  0  0  0  0  0
    0.8483    0.4305   -1.7232 C   0  0  0  0  0  0  0  0  0  0  0  0
    0.7197    1.7386   -1.2047 C   0  0  0  0  0  0  0  0  0  0  0  0
   -0.4663    2.4868   -1.3129 C   0  0  0  0  0  0  0  0  0  0  0  0
   -1.5539    1.9252   -1.9575 C   0  0  0  0  0  0  0  0  0  0  0  0
   -1.4531    0.6168   -2.4782 C   0  0  0  0  0  0  0  0  0  0  0  0
   -0.2126   -1.1154   -2.7622 H   0  0  0  0  0  0  0  0  0  0  0  0
    1.7917   -0.1081   -1.6278 H   0  0  0  0  0  0  0  0  0  0  0  0
   -0.5190    3.4893   -0.9038 H   0  0  0  0  0  0  0  0  0  0  0  0
   -2.4669    2.4980   -2.0545 H   0  0  0  0  0  0  0  0  0  0  0  0
    1.7772    2.3236   -0.5525 N   0  0  0  0  0  0  0  0  0  0  0  0
    2.6226    2.7933    0.0151 N   0  0  0  0  0  0  0  0  0  0  0  0
    6.9909    0.1251   -2.6542 C   0  0  0  0  0  0  0  0  0  0  0  0
    7.9187    0.1820   -3.6924 C   0  0  0  0  0  0  0  0  0  0  0  0
    7.6170    0.8417   -4.9000 C   0  0  0  0  0  0  0  0  0  0  0  0
    6.3607    1.4484   -5.0590 C   0  0  0  0  0  0  0  0  0  0  0  0
    5.3979    1.4216   -4.0427 C   0  0  0  0  0  0  0  0  0  0  0  0
    5.7671    0.7511   -2.8781 C   0  0  0  0  0  0  0  0  0  0  0  0
    7.2211   -0.3863   -1.7239 H   0  0  0  0  0  0  0  0  0  0  0  0
    8.8905   -0.2913   -3.5719 H   0  0  0  0  0  0  0  0  0  0  0  0
    6.1487    1.9486   -6.0045 H   0  0  0  0  0  0  0  0  0  0  0  0
    4.1772    1.7485   -3.6159 H   0  0  0  0  0  0  0  0  0  0  0  0
    4.3759    0.8379   -1.7493 S   0  0  0  0  0  0  0  0  0  0  0  0
    4.6935    1.6420   -0.5318 O   0  0  0  0  0  0  0  0  0  0  0  0
    3.8011   -0.5026   -1.4585 O   0  0  0  0  0  0  0  0  0  0  0  0
    3.4410    1.6480   -2.6983 O   0  0  0  0  0  0  0  0  0  0  0  0
    8.6504    0.8976   -6.0028 C   0  0  0  0  0  0  0  0  0  0  0  0
    9.5058    1.5234   -5.7190 H   0  0  0  0  0  0  0  0  0  0  0  0
    9.0462   -0.0976   -6.2349 H   0  0  0  0  0  0  0  0  0  0  0  0
    8.2285    1.3135   -6.9220 H   0  0  0  0  0  0  0  0  0  0  0  0
   -2.4478   -0.0176   -3.1153 O   0  0  0  0  0  0  0  0  0  0  0  0
   -3.6972    0.6471   -3.3178 C   0  0  0  0  0  0  0  0  0  0  0  0
   -4.3230   -0.0646   -3.8558 H   0  0  0  0  0  0  0  0  0  0  0  0
   -3.5686    1.5519   -3.9213 H   0  0  0  0  0  0  0  0  0  0  0  0
   -4.1694    0.9002   -2.3624 H   0  0  0  0  0  0  0  0  0  0  0  0
  1  2  1  0  0  0  0
  2  8  1  0  0  0  0
  2  3  2  0  0  0  0
  3 11  1  0  0  0  0
  4  3  1  0  0  0  0
  4  9  1  0  0  0  0
  5  4  2  0  0  0  0
  6  1  2  0  0  0  0
  6  5  1  0  0  0  0
  7  1  1  0  0  0  0
 10  5  1  0  0  0  0
 11 12  1  0  0  0  0
 13 19  1  0  0  0  0
 14 20  1  0  0  0  0
 14 13  2  0  0  0  0
 15 14  1  0  0  0  0
 16 15  2  0  0  0  0
 16 17  1  0  0  0  0
 17 18  2  0  0  0  0
 18 13  1  0  0  0  0
 18 23  1  0  0  0  0
 21 16  1  0  0  0  0
 22 26  1  0  0  0  0
 23 25  2  0  0  0  0
 23 24  2  0  0  0  0
 26 23  1  0  0  0  0
 27 28  1  0  0  0  0
 27 15  1  0  0  0  0
 29 27  1  0  0  0  0
 30 27  1  0  0  0  0
 31  6  1  0  0  0  0
 32 31  1  0  0  0  0
 32 35  1  0  0  0  0
 33 32  1  0  0  0  0
 34 32  1  0  0  0  0
M  RAD  3  11   2  12   3  17   2
M  END
