Coordinates from ORCA-job p-CH3O-Ph-N2-X-OTs-B3LYPG-6-31G_dp-scan-d09-49-n400
 OpenBabel08281821023D

 35 35  0  0  0  0  0  0  0  0999 V2000
   -0.3437   -0.1227   -2.1154 C   0  0  0  0  0  0  0  0  0  0  0  0
    0.7544    0.6416   -1.7787 C   0  0  0  0  0  0  0  0  0  0  0  0
    0.5274    1.9982   -1.4550 C   0  0  0  0  0  0  0  0  0  0  0  0
   -0.7544    2.5751   -1.4690 C   0  0  0  0  0  0  0  0  0  0  0  0
   -1.8399    1.7931   -1.8227 C   0  0  0  0  0  0  0  0  0  0  0  0
   -1.6382    0.4358   -2.1505 C   0  0  0  0  0  0  0  0  0  0  0  0
   -0.2269   -1.1689   -2.3738 H   0  0  0  0  0  0  0  0  0  0  0  0
    1.7633    0.2285   -1.7591 H   0  0  0  0  0  0  0  0  0  0  0  0
   -0.8841    3.6202   -1.2105 H   0  0  0  0  0  0  0  0  0  0  0  0
   -2.8283    2.2342   -1.8415 H   0  0  0  0  0  0  0  0  0  0  0  0
    1.5782    2.8059   -1.0923 N   0  0  0  0  0  0  0  0  0  0  0  0
    2.4832    3.4030   -0.7938 N   0  0  0  0  0  0  0  0  0  0  0  0
    6.2079   -0.1980   -3.4364 C   0  0  0  0  0  0  0  0  0  0  0  0
    7.3726   -0.3644   -4.1843 C   0  0  0  0  0  0  0  0  0  0  0  0
    8.0001    0.7266   -4.8011 C   0  0  0  0  0  0  0  0  0  0  0  0
    7.4245    1.9963   -4.6504 C   0  0  0  0  0  0  0  0  0  0  0  0
    6.2600    2.1767   -3.9063 C   0  0  0  0  0  0  0  0  0  0  0  0
    5.6524    1.0747   -3.3017 C   0  0  0  0  0  0  0  0  0  0  0  0
    5.7207   -1.0372   -2.9529 H   0  0  0  0  0  0  0  0  0  0  0  0
    7.8028   -1.3581   -4.2889 H   0  0  0  0  0  0  0  0  0  0  0  0
    7.8967    2.8549   -5.1212 H   0  0  0  0  0  0  0  0  0  0  0  0
    5.8277    3.1653   -3.7918 H   0  0  0  0  0  0  0  0  0  0  0  0
    4.1394    1.2959   -2.3594 S   0  0  0  0  0  0  0  0  0  0  0  0
    4.4678    2.3414   -1.3217 O   0  0  0  0  0  0  0  0  0  0  0  0
    3.8161   -0.0342   -1.7668 O   0  0  0  0  0  0  0  0  0  0  0  0
    3.0902    1.7840   -3.2995 O   0  0  0  0  0  0  0  0  0  0  0  0
    9.2747    0.5375   -5.5893 C   0  0  0  0  0  0  0  0  0  0  0  0
   10.1257    0.3386   -4.9262 H   0  0  0  0  0  0  0  0  0  0  0  0
    9.1981   -0.3122   -6.2766 H   0  0  0  0  0  0  0  0  0  0  0  0
    9.5173    1.4266   -6.1782 H   0  0  0  0  0  0  0  0  0  0  0  0
   -2.6217   -0.4073   -2.5059 O   0  0  0  0  0  0  0  0  0  0  0  0
   -3.9654    0.0702   -2.5849 C   0  0  0  0  0  0  0  0  0  0  0  0
   -4.5620   -0.7843   -2.9030 H   0  0  0  0  0  0  0  0  0  0  0  0
   -4.0566    0.8751   -3.3227 H   0  0  0  0  0  0  0  0  0  0  0  0
   -4.3198    0.4196   -1.6090 H   0  0  0  0  0  0  0  0  0  0  0  0
  1  2  1  0  0  0  0
  2  8  1  0  0  0  0
  2  3  2  0  0  0  0
  3 11  1  0  0  0  0
  4  3  1  0  0  0  0
  4  9  1  0  0  0  0
  5  4  2  0  0  0  0
  6  1  2  0  0  0  0
  6  5  1  0  0  0  0
  7  1  1  0  0  0  0
 10  5  1  0  0  0  0
 11 12  1  0  0  0  0
 13 18  1  0  0  0  0
 13 19  1  0  0  0  0
 14 13  2  0  0  0  0
 15 16  2  0  0  0  0
 15 14  1  0  0  0  0
 16 17  1  0  0  0  0
 17 22  1  0  0  0  0
 17 18  2  0  0  0  0
 18 23  1  0  0  0  0
 20 14  1  0  0  0  0
 21 16  1  0  0  0  0
 23 25  2  0  0  0  0
 23 24  1  0  0  0  0
 26 23  2  0  0  0  0
 27 28  1  0  0  0  0
 27 15  1  0  0  0  0
 29 27  1  0  0  0  0
 30 27  1  0  0  0  0
 31  6  1  0  0  0  0
 32 31  1  0  0  0  0
 32 35  1  0  0  0  0
 33 32  1  0  0  0  0
 34 32  1  0  0  0  0
M  RAD  3  11   2  12   3  24   2
M  END
