Coordinates from ORCA-job p-CH3O-Ph-N2-X-OTs-B3LYPG-6-31G_dp-scan-d09-49-n400
 OpenBabel08281821023D

 35 35  0  0  0  0  0  0  0  0999 V2000
   -0.3020   -0.1201   -1.8879 C   0  0  0  0  0  0  0  0  0  0  0  0
    0.7688    0.7253   -1.6845 C   0  0  0  0  0  0  0  0  0  0  0  0
    0.4983    2.1110   -1.6183 C   0  0  0  0  0  0  0  0  0  0  0  0
   -0.7976    2.6371   -1.7579 C   0  0  0  0  0  0  0  0  0  0  0  0
   -1.8548    1.7714   -1.9759 C   0  0  0  0  0  0  0  0  0  0  0  0
   -1.6107    0.3833   -2.0414 C   0  0  0  0  0  0  0  0  0  0  0  0
   -0.1524   -1.1924   -1.9471 H   0  0  0  0  0  0  0  0  0  0  0  0
    1.7878    0.3507   -1.5824 H   0  0  0  0  0  0  0  0  0  0  0  0
   -0.9596    3.7081   -1.7008 H   0  0  0  0  0  0  0  0  0  0  0  0
   -2.8533    2.1719   -2.0932 H   0  0  0  0  0  0  0  0  0  0  0  0
    1.5193    3.0022   -1.3928 N   0  0  0  0  0  0  0  0  0  0  0  0
    2.3967    3.6725   -1.1854 N   0  0  0  0  0  0  0  0  0  0  0  0
    5.9131   -0.1336   -3.8558 C   0  0  0  0  0  0  0  0  0  0  0  0
    7.0713   -0.3239   -4.6058 C   0  0  0  0  0  0  0  0  0  0  0  0
    7.9941    0.7162   -4.7912 C   0  0  0  0  0  0  0  0  0  0  0  0
    7.7218    1.9574   -4.2018 C   0  0  0  0  0  0  0  0  0  0  0  0
    6.5641    2.1628   -3.4508 C   0  0  0  0  0  0  0  0  0  0  0  0
    5.6587    1.1149   -3.2835 C   0  0  0  0  0  0  0  0  0  0  0  0
    5.2110   -0.9455   -3.6977 H   0  0  0  0  0  0  0  0  0  0  0  0
    7.2657   -1.2969   -5.0513 H   0  0  0  0  0  0  0  0  0  0  0  0
    8.4278    2.7751   -4.3294 H   0  0  0  0  0  0  0  0  0  0  0  0
    6.3669    3.1208   -2.9822 H   0  0  0  0  0  0  0  0  0  0  0  0
    4.1290    1.3688   -2.3754 S   0  0  0  0  0  0  0  0  0  0  0  0
    4.4053    2.5276   -1.4501 O   0  0  0  0  0  0  0  0  0  0  0  0
    3.8572    0.0913   -1.6556 O   0  0  0  0  0  0  0  0  0  0  0  0
    3.0608    1.7043   -3.3621 O   0  0  0  0  0  0  0  0  0  0  0  0
    9.2637    0.4902   -5.5781 C   0  0  0  0  0  0  0  0  0  0  0  0
   10.0383    0.0226   -4.9564 H   0  0  0  0  0  0  0  0  0  0  0  0
    9.0931   -0.1723   -6.4327 H   0  0  0  0  0  0  0  0  0  0  0  0
    9.6738    1.4312   -5.9556 H   0  0  0  0  0  0  0  0  0  0  0  0
   -2.5646   -0.5403   -2.2438 O   0  0  0  0  0  0  0  0  0  0  0  0
   -3.9205   -0.1270   -2.4185 C   0  0  0  0  0  0  0  0  0  0  0  0
   -4.4907   -1.0443   -2.5600 H   0  0  0  0  0  0  0  0  0  0  0  0
   -4.0287    0.5109   -3.3028 H   0  0  0  0  0  0  0  0  0  0  0  0
   -4.2915    0.3999   -1.5322 H   0  0  0  0  0  0  0  0  0  0  0  0
  1  2  2  0  0  0  0
  2  3  1  0  0  0  0
  2  8  1  0  0  0  0
  3 11  1  0  0  0  0
  4  9  1  0  0  0  0
  4  3  2  0  0  0  0
  5  4  1  0  0  0  0
  6  5  2  0  0  0  0
  6  1  1  0  0  0  0
  7  1  1  0  0  0  0
 10  5  1  0  0  0  0
 11 12  1  0  0  0  0
 13 19  1  0  0  0  0
 13 18  2  0  0  0  0
 14 13  1  0  0  0  0
 15 14  2  0  0  0  0
 15 16  1  0  0  0  0
 16 17  2  0  0  0  0
 17 18  1  0  0  0  0
 17 22  1  0  0  0  0
 18 23  1  0  0  0  0
 20 14  1  0  0  0  0
 21 16  1  0  0  0  0
 23 25  2  0  0  0  0
 23 24  1  0  0  0  0
 26 23  2  0  0  0  0
 27 28  1  0  0  0  0
 27 15  1  0  0  0  0
 29 27  1  0  0  0  0
 30 27  1  0  0  0  0
 31  6  1  0  0  0  0
 32 31  1  0  0  0  0
 32 35  1  0  0  0  0
 33 32  1  0  0  0  0
 34 32  1  0  0  0  0
M  RAD  3  11   2  12   3  24   2
M  END
