Coordinates from ORCA-job p-CH3O-Ph-N2-X-OTs-B3LYPG-6-31G_dp-scan-d09-49-n400
 OpenBabel08281821023D

 35 35  0  0  0  0  0  0  0  0999 V2000
   -0.3196   -0.0964   -2.3585 C   0  0  0  0  0  0  0  0  0  0  0  0
    0.8045    0.4534   -1.7783 C   0  0  0  0  0  0  0  0  0  0  0  0
    0.6858    1.7541   -1.2382 C   0  0  0  0  0  0  0  0  0  0  0  0
   -0.5123    2.4882   -1.2839 C   0  0  0  0  0  0  0  0  0  0  0  0
   -1.6227    1.9233   -1.8859 C   0  0  0  0  0  0  0  0  0  0  0  0
   -1.5312    0.6231   -2.4270 C   0  0  0  0  0  0  0  0  0  0  0  0
   -0.2869   -1.0912   -2.7869 H   0  0  0  0  0  0  0  0  0  0  0  0
    1.7545   -0.0805   -1.7335 H   0  0  0  0  0  0  0  0  0  0  0  0
   -0.5573    3.4844   -0.8589 H   0  0  0  0  0  0  0  0  0  0  0  0
   -2.5455    2.4868   -1.9335 H   0  0  0  0  0  0  0  0  0  0  0  0
    1.7632    2.3447   -0.6240 N   0  0  0  0  0  0  0  0  0  0  0  0
    2.6621    2.7794   -0.1103 N   0  0  0  0  0  0  0  0  0  0  0  0
    6.9539    0.1040   -2.6724 C   0  0  0  0  0  0  0  0  0  0  0  0
    7.9419    0.1705   -3.6558 C   0  0  0  0  0  0  0  0  0  0  0  0
    7.7249    0.8461   -4.8703 C   0  0  0  0  0  0  0  0  0  0  0  0
    6.4840    1.4621   -5.0986 C   0  0  0  0  0  0  0  0  0  0  0  0
    5.4875    1.4079   -4.1275 C   0  0  0  0  0  0  0  0  0  0  0  0
    5.7418    0.7323   -2.9388 C   0  0  0  0  0  0  0  0  0  0  0  0
    7.1282   -0.4223   -1.7391 H   0  0  0  0  0  0  0  0  0  0  0  0
    8.9013   -0.3118   -3.4829 H   0  0  0  0  0  0  0  0  0  0  0  0
    6.3127    1.9779   -6.0412 H   0  0  0  0  0  0  0  0  0  0  0  0
    4.4352    1.7878   -4.0402 H   0  0  0  0  0  0  0  0  0  0  0  0
    4.2801    0.8240   -1.9102 S   0  0  0  0  0  0  0  0  0  0  0  0
    4.6142    1.5840   -0.6563 O   0  0  0  0  0  0  0  0  0  0  0  0
    3.7666   -0.5485   -1.6393 O   0  0  0  0  0  0  0  0  0  0  0  0
    3.3853    1.6212   -2.8286 O   0  0  0  0  0  0  0  0  0  0  0  0
    8.8263    0.9215   -5.9029 C   0  0  0  0  0  0  0  0  0  0  0  0
    9.5772    1.6739   -5.6296 H   0  0  0  0  0  0  0  0  0  0  0  0
    9.3511   -0.0347   -6.0022 H   0  0  0  0  0  0  0  0  0  0  0  0
    8.4339    1.1948   -6.8866 H   0  0  0  0  0  0  0  0  0  0  0  0
   -2.5481   -0.0157   -3.0269 O   0  0  0  0  0  0  0  0  0  0  0  0
   -3.8121    0.6371   -3.1598 C   0  0  0  0  0  0  0  0  0  0  0  0
   -4.4558   -0.0737   -3.6776 H   0  0  0  0  0  0  0  0  0  0  0  0
   -3.7233    1.5521   -3.7551 H   0  0  0  0  0  0  0  0  0  0  0  0
   -4.2412    0.8718   -2.1795 H   0  0  0  0  0  0  0  0  0  0  0  0
  1  2  1  0  0  0  0
  2  8  1  0  0  0  0
  2  3  2  0  0  0  0
  3 11  1  0  0  0  0
  4  3  1  0  0  0  0
  4  9  1  0  0  0  0
  5  4  2  0  0  0  0
  6  1  2  0  0  0  0
  6  5  1  0  0  0  0
  7  1  1  0  0  0  0
 10  5  1  0  0  0  0
 11 12  1  0  0  0  0
 13 19  1  0  0  0  0
 14 20  1  0  0  0  0
 14 13  2  0  0  0  0
 15 14  1  0  0  0  0
 16 15  2  0  0  0  0
 16 17  1  0  0  0  0
 17 22  1  0  0  0  0
 17 18  2  0  0  0  0
 18 13  1  0  0  0  0
 18 23  1  0  0  0  0
 21 16  1  0  0  0  0
 23 25  2  0  0  0  0
 23 24  1  0  0  0  0
 26 23  2  0  0  0  0
 27 28  1  0  0  0  0
 27 15  1  0  0  0  0
 29 27  1  0  0  0  0
 30 27  1  0  0  0  0
 31  6  1  0  0  0  0
 32 31  1  0  0  0  0
 32 35  1  0  0  0  0
 33 32  1  0  0  0  0
 34 32  1  0  0  0  0
M  RAD  3  11   2  12   3  24   2
M  END
