Coordinates from ORCA-job p-CH3O-Ph-N2-X-OTs-B3LYPG-6-31G_dp-scan-d09-49-n400
 OpenBabel08281821023D

 35 35  0  0  0  0  0  0  0  0999 V2000
   -0.3709   -0.0933   -2.3547 C   0  0  0  0  0  0  0  0  0  0  0  0
    0.7650    0.4605   -1.8015 C   0  0  0  0  0  0  0  0  0  0  0  0
    0.6494    1.7515   -1.2377 C   0  0  0  0  0  0  0  0  0  0  0  0
   -0.5580    2.4712   -1.2338 C   0  0  0  0  0  0  0  0  0  0  0  0
   -1.6809    1.9029   -1.8090 C   0  0  0  0  0  0  0  0  0  0  0  0
   -1.5919    0.6128   -2.3735 C   0  0  0  0  0  0  0  0  0  0  0  0
   -0.3405   -1.0810   -2.7994 H   0  0  0  0  0  0  0  0  0  0  0  0
    1.7211   -0.0642   -1.7962 H   0  0  0  0  0  0  0  0  0  0  0  0
   -0.6005    3.4602   -0.7917 H   0  0  0  0  0  0  0  0  0  0  0  0
   -2.6111    2.4561   -1.8177 H   0  0  0  0  0  0  0  0  0  0  0  0
    1.7397    2.3463   -0.6505 N   0  0  0  0  0  0  0  0  0  0  0  0
    2.6659    2.7670   -0.1730 N   0  0  0  0  0  0  0  0  0  0  0  0
    6.8767    0.1155   -2.7276 C   0  0  0  0  0  0  0  0  0  0  0  0
    7.9364    0.1537   -3.6329 C   0  0  0  0  0  0  0  0  0  0  0  0
    7.8318    0.8423   -4.8541 C   0  0  0  0  0  0  0  0  0  0  0  0
    6.6302    1.4966   -5.1615 C   0  0  0  0  0  0  0  0  0  0  0  0
    5.5642    1.4679   -4.2647 C   0  0  0  0  0  0  0  0  0  0  0  0
    5.6999    0.7810   -3.0637 C   0  0  0  0  0  0  0  0  0  0  0  0
    6.9641   -0.4215   -1.7885 H   0  0  0  0  0  0  0  0  0  0  0  0
    8.8639   -0.3611   -3.3920 H   0  0  0  0  0  0  0  0  0  0  0  0
    6.5368    2.0250   -6.1074 H   0  0  0  0  0  0  0  0  0  0  0  0
    4.5719    1.9191   -4.3622 H   0  0  0  0  0  0  0  0  0  0  0  0
    4.2198    0.8582   -2.0651 S   0  0  0  0  0  0  0  0  0  0  0  0
    4.5699    1.5872   -0.7928 O   0  0  0  0  0  0  0  0  0  0  0  0
    3.7429   -0.5316   -1.8143 O   0  0  0  0  0  0  0  0  0  0  0  0
    3.2973    1.6583   -2.9332 O   0  0  0  0  0  0  0  0  0  0  0  0
    9.0053    0.8895   -5.8053 C   0  0  0  0  0  0  0  0  0  0  0  0
    9.7618    1.6096   -5.4680 H   0  0  0  0  0  0  0  0  0  0  0  0
    9.4999   -0.0845   -5.8813 H   0  0  0  0  0  0  0  0  0  0  0  0
    8.6941    1.1895   -6.8101 H   0  0  0  0  0  0  0  0  0  0  0  0
   -2.6205   -0.0288   -2.9513 O   0  0  0  0  0  0  0  0  0  0  0  0
   -3.8950    0.6114   -3.0329 C   0  0  0  0  0  0  0  0  0  0  0  0
   -4.5473   -0.0979   -3.5418 H   0  0  0  0  0  0  0  0  0  0  0  0
   -3.8357    1.5372   -3.6153 H   0  0  0  0  0  0  0  0  0  0  0  0
   -4.2953    0.8252   -2.0357 H   0  0  0  0  0  0  0  0  0  0  0  0
  1  2  1  0  0  0  0
  2  8  1  0  0  0  0
  2  3  2  0  0  0  0
  3  4  1  0  0  0  0
  3 11  1  0  0  0  0
  4  9  1  0  0  0  0
  5  4  2  0  0  0  0
  6  1  2  0  0  0  0
  6  5  1  0  0  0  0
  7  1  1  0  0  0  0
 10  5  1  0  0  0  0
 11 12  1  0  0  0  0
 13 19  1  0  0  0  0
 14 20  1  0  0  0  0
 14 13  2  0  0  0  0
 15 14  1  0  0  0  0
 16 15  2  0  0  0  0
 16 17  1  0  0  0  0
 17 18  2  0  0  0  0
 18 13  1  0  0  0  0
 18 23  1  0  0  0  0
 21 16  1  0  0  0  0
 22 17  1  0  0  0  0
 23 25  2  0  0  0  0
 23 24  1  0  0  0  0
 26 23  2  0  0  0  0
 27 28  1  0  0  0  0
 27 15  1  0  0  0  0
 29 27  1  0  0  0  0
 30 27  1  0  0  0  0
 31  6  1  0  0  0  0
 32 31  1  0  0  0  0
 32 35  1  0  0  0  0
 33 32  1  0  0  0  0
 34 32  1  0  0  0  0
M  RAD  3  11   2  12   3  24   2
M  END
