Coordinates from ORCA-job p-CH3O-Ph-N2-X-OTs-B3LYPG-6-31G_dp-scan-d09-49-n400
 OpenBabel08281821023D

 35 35  0  0  0  0  0  0  0  0999 V2000
   -0.2665   -0.0778   -1.6766 C   0  0  0  0  0  0  0  0  0  0  0  0
    0.7771    0.8223   -1.6205 C   0  0  0  0  0  0  0  0  0  0  0  0
    0.4637    2.1903   -1.7894 C   0  0  0  0  0  0  0  0  0  0  0  0
   -0.8465    2.6446   -2.0173 C   0  0  0  0  0  0  0  0  0  0  0  0
   -1.8757    1.7223   -2.0853 C   0  0  0  0  0  0  0  0  0  0  0  0
   -1.5892    0.3516   -1.9137 C   0  0  0  0  0  0  0  0  0  0  0  0
   -0.0836   -1.1392   -1.5522 H   0  0  0  0  0  0  0  0  0  0  0  0
    1.8067    0.4989   -1.4630 H   0  0  0  0  0  0  0  0  0  0  0  0
   -1.0411    3.7039   -2.1455 H   0  0  0  0  0  0  0  0  0  0  0  0
   -2.8851    2.0656   -2.2699 H   0  0  0  0  0  0  0  0  0  0  0  0
    1.4555    3.1381   -1.7176 N   0  0  0  0  0  0  0  0  0  0  0  0
    2.3105    3.8593   -1.6217 N   0  0  0  0  0  0  0  0  0  0  0  0
    5.6973    0.1286   -4.2792 C   0  0  0  0  0  0  0  0  0  0  0  0
    6.8819   -0.0933   -4.9753 C   0  0  0  0  0  0  0  0  0  0  0  0
    8.0177    0.7005   -4.7484 C   0  0  0  0  0  0  0  0  0  0  0  0
    7.9284    1.7318   -3.8065 C   0  0  0  0  0  0  0  0  0  0  0  0
    6.7458    1.9654   -3.1019 C   0  0  0  0  0  0  0  0  0  0  0  0
    5.6343    1.1609   -3.3392 C   0  0  0  0  0  0  0  0  0  0  0  0
    4.8222   -0.4846   -4.4682 H   0  0  0  0  0  0  0  0  0  0  0  0
    6.9287   -0.8940   -5.7103 H   0  0  0  0  0  0  0  0  0  0  0  0
    8.7941    2.3640   -3.6218 H   0  0  0  0  0  0  0  0  0  0  0  0
    6.6647    2.7674   -2.3769 H   0  0  0  0  0  0  0  0  0  0  0  0
    4.1053    1.4384   -2.4393 S   0  0  0  0  0  0  0  0  0  0  0  0
    4.3315    2.6928   -1.6333 O   0  0  0  0  0  0  0  0  0  0  0  0
    3.8812    0.2357   -1.5876 O   0  0  0  0  0  0  0  0  0  0  0  0
    3.0341    1.6240   -3.4608 O   0  0  0  0  0  0  0  0  0  0  0  0
    9.3061    0.4301   -5.4895 C   0  0  0  0  0  0  0  0  0  0  0  0
    9.8592   -0.4006   -5.0329 H   0  0  0  0  0  0  0  0  0  0  0  0
    9.1196    0.1573   -6.5333 H   0  0  0  0  0  0  0  0  0  0  0  0
    9.9644    1.3045   -5.4816 H   0  0  0  0  0  0  0  0  0  0  0  0
   -2.5133   -0.6218   -1.9579 O   0  0  0  0  0  0  0  0  0  0  0  0
   -3.8786   -0.2858   -2.2091 C   0  0  0  0  0  0  0  0  0  0  0  0
   -4.4189   -1.2317   -2.2059 H   0  0  0  0  0  0  0  0  0  0  0  0
   -3.9935    0.1972   -3.1858 H   0  0  0  0  0  0  0  0  0  0  0  0
   -4.2778    0.3651   -1.4229 H   0  0  0  0  0  0  0  0  0  0  0  0
  1  2  1  0  0  0  0
  1  7  1  0  0  0  0
  2  8  1  0  0  0  0
  3 11  1  0  0  0  0
  3  2  2  0  0  0  0
  4  3  1  0  0  0  0
  5  4  2  0  0  0  0
  5  6  1  0  0  0  0
  6  1  2  0  0  0  0
  9  4  1  0  0  0  0
 10  5  1  0  0  0  0
 11 12  1  0  0  0  0
 13 18  2  0  0  0  0
 14 15  2  0  0  0  0
 14 13  1  0  0  0  0
 15 16  1  0  0  0  0
 16 21  1  0  0  0  0
 16 17  2  0  0  0  0
 17 22  1  0  0  0  0
 18 17  1  0  0  0  0
 18 23  1  0  0  0  0
 19 13  1  0  0  0  0
 20 14  1  0  0  0  0
 23 24  2  0  0  0  0
 23 25  1  0  0  0  0
 26 23  2  0  0  0  0
 27 30  1  0  0  0  0
 27 28  1  0  0  0  0
 27 15  1  0  0  0  0
 29 27  1  0  0  0  0
 31  6  1  0  0  0  0
 32 33  1  0  0  0  0
 32 31  1  0  0  0  0
 32 35  1  0  0  0  0
 34 32  1  0  0  0  0
M  RAD  3  11   2  12   3  25   2
M  END
