Coordinates from ORCA-job p-CH3O-Ph-N2-X-OTs-B3LYPG-6-31G_dp-scan-d09-49-n400
 OpenBabel08281821023D

 35 35  0  0  0  0  0  0  0  0999 V2000
   -0.3595   -0.0945   -2.3527 C   0  0  0  0  0  0  0  0  0  0  0  0
    0.7739    0.4585   -1.7936 C   0  0  0  0  0  0  0  0  0  0  0  0
    0.6584    1.7531   -1.2382 C   0  0  0  0  0  0  0  0  0  0  0  0
   -0.5462    2.4774   -1.2484 C   0  0  0  0  0  0  0  0  0  0  0  0
   -1.6665    1.9098   -1.8294 C   0  0  0  0  0  0  0  0  0  0  0  0
   -1.5777    0.6160   -2.3854 C   0  0  0  0  0  0  0  0  0  0  0  0
   -0.3292   -1.0849   -2.7914 H   0  0  0  0  0  0  0  0  0  0  0  0
    1.7281   -0.0694   -1.7774 H   0  0  0  0  0  0  0  0  0  0  0  0
   -0.5887    3.4691   -0.8125 H   0  0  0  0  0  0  0  0  0  0  0  0
   -2.5945    2.4663   -1.8491 H   0  0  0  0  0  0  0  0  0  0  0  0
    1.7460    2.3471   -0.6454 N   0  0  0  0  0  0  0  0  0  0  0  0
    2.6672    2.7698   -0.1604 N   0  0  0  0  0  0  0  0  0  0  0  0
    6.8970    0.1096   -2.7132 C   0  0  0  0  0  0  0  0  0  0  0  0
    7.9393    0.1573   -3.6386 C   0  0  0  0  0  0  0  0  0  0  0  0
    7.8060    0.8442   -4.8582 C   0  0  0  0  0  0  0  0  0  0  0  0
    6.5934    1.4882   -5.1456 C   0  0  0  0  0  0  0  0  0  0  0  0
    5.5448    1.4502   -4.2295 C   0  0  0  0  0  0  0  0  0  0  0  0
    5.7102    0.7649   -3.0313 C   0  0  0  0  0  0  0  0  0  0  0  0
    7.0068   -0.4258   -1.7755 H   0  0  0  0  0  0  0  0  0  0  0  0
    8.8759   -0.3486   -3.4151 H   0  0  0  0  0  0  0  0  0  0  0  0
    6.4796    2.0146   -6.0905 H   0  0  0  0  0  0  0  0  0  0  0  0
    4.5369    1.8836   -4.2844 H   0  0  0  0  0  0  0  0  0  0  0  0
    4.2333    0.8448   -2.0278 S   0  0  0  0  0  0  0  0  0  0  0  0
    4.5784    1.5804   -0.7587 O   0  0  0  0  0  0  0  0  0  0  0  0
    3.7479   -0.5413   -1.7730 O   0  0  0  0  0  0  0  0  0  0  0  0
    3.3196    1.6446   -2.9088 O   0  0  0  0  0  0  0  0  0  0  0  0
    8.9624    0.9018   -5.8296 C   0  0  0  0  0  0  0  0  0  0  0  0
    9.7109    1.6398   -5.5135 H   0  0  0  0  0  0  0  0  0  0  0  0
    9.4738   -0.0637   -5.9031 H   0  0  0  0  0  0  0  0  0  0  0  0
    8.6290    1.1846   -6.8324 H   0  0  0  0  0  0  0  0  0  0  0  0
   -2.6039   -0.0253   -2.9678 O   0  0  0  0  0  0  0  0  0  0  0  0
   -3.8753    0.6190   -3.0637 C   0  0  0  0  0  0  0  0  0  0  0  0
   -4.5260   -0.0911   -3.5737 H   0  0  0  0  0  0  0  0  0  0  0  0
   -3.8078    1.5410   -3.6513 H   0  0  0  0  0  0  0  0  0  0  0  0
   -4.2830    0.8404   -2.0712 H   0  0  0  0  0  0  0  0  0  0  0  0
  1  2  1  0  0  0  0
  2  8  1  0  0  0  0
  2  3  2  0  0  0  0
  3 11  1  0  0  0  0
  4  3  1  0  0  0  0
  4  9  1  0  0  0  0
  5  4  2  0  0  0  0
  6  1  2  0  0  0  0
  6  5  1  0  0  0  0
  7  1  1  0  0  0  0
 10  5  1  0  0  0  0
 11 12  1  0  0  0  0
 13 19  1  0  0  0  0
 14 20  1  0  0  0  0
 14 13  2  0  0  0  0
 15 14  1  0  0  0  0
 16 15  2  0  0  0  0
 16 17  1  0  0  0  0
 17 18  2  0  0  0  0
 18 13  1  0  0  0  0
 18 23  1  0  0  0  0
 21 16  1  0  0  0  0
 22 17  1  0  0  0  0
 23 25  2  0  0  0  0
 23 24  1  0  0  0  0
 26 23  2  0  0  0  0
 27 28  1  0  0  0  0
 27 15  1  0  0  0  0
 29 27  1  0  0  0  0
 30 27  1  0  0  0  0
 31  6  1  0  0  0  0
 32 31  1  0  0  0  0
 32 35  1  0  0  0  0
 33 32  1  0  0  0  0
 34 32  1  0  0  0  0
M  RAD  3  11   2  12   3  24   2
M  END
