Coordinates from ORCA-job p-CH3O-Ph-N2-X-OTs-B3LYPG-6-31G_dp-scan-d09-49-n400
 OpenBabel08281821023D

 35 35  0  0  0  0  0  0  0  0999 V2000
   -0.2007    0.0465   -1.4838 C   0  0  0  0  0  0  0  0  0  0  0  0
    0.7581    1.0315   -1.6008 C   0  0  0  0  0  0  0  0  0  0  0  0
    0.3279    2.3089   -2.0253 C   0  0  0  0  0  0  0  0  0  0  0  0
   -1.0143    2.5935   -2.3297 C   0  0  0  0  0  0  0  0  0  0  0  0
   -1.9564    1.5858   -2.2209 C   0  0  0  0  0  0  0  0  0  0  0  0
   -1.5519    0.3027   -1.7960 C   0  0  0  0  0  0  0  0  0  0  0  0
    0.0730   -0.9514   -1.1608 H   0  0  0  0  0  0  0  0  0  0  0  0
    1.8104    0.8455   -1.3815 H   0  0  0  0  0  0  0  0  0  0  0  0
   -1.3003    3.5881   -2.6537 H   0  0  0  0  0  0  0  0  0  0  0  0
   -2.9896    1.7967   -2.4644 H   0  0  0  0  0  0  0  0  0  0  0  0
    1.2331    3.3362   -2.1421 N   0  0  0  0  0  0  0  0  0  0  0  0
    2.0324    4.1247   -2.2044 N   0  0  0  0  0  0  0  0  0  0  0  0
    5.6435    0.9325   -4.5639 C   0  0  0  0  0  0  0  0  0  0  0  0
    6.7710    0.5529   -5.2941 C   0  0  0  0  0  0  0  0  0  0  0  0
    8.0342    0.5800   -4.7096 C   0  0  0  0  0  0  0  0  0  0  0  0
    8.1188    1.0028   -3.3747 C   0  0  0  0  0  0  0  0  0  0  0  0
    7.0169    1.3893   -2.6067 C   0  0  0  0  0  0  0  0  0  0  0  0
    5.7243    1.3488   -3.2335 C   0  0  0  0  0  0  0  0  0  0  0  0
    4.6625    0.9098   -5.0277 H   0  0  0  0  0  0  0  0  0  0  0  0
    6.6566    0.2343   -6.3273 H   0  0  0  0  0  0  0  0  0  0  0  0
    9.0990    1.0346   -2.9021 H   0  0  0  0  0  0  0  0  0  0  0  0
    7.3563    1.6808   -1.5840 H   0  0  0  0  0  0  0  0  0  0  0  0
    4.0468    1.7758   -2.5462 S   0  0  0  0  0  0  0  0  0  0  0  0
    4.1582    3.2357   -2.1805 O   0  0  0  0  0  0  0  0  0  0  0  0
    3.8659    0.8861   -1.3632 O   0  0  0  0  0  0  0  0  0  0  0  0
    2.9494    1.5697   -3.5816 O   0  0  0  0  0  0  0  0  0  0  0  0
    9.2711    0.1621   -5.4676 C   0  0  0  0  0  0  0  0  0  0  0  0
    9.6714   -0.7846   -5.0850 H   0  0  0  0  0  0  0  0  0  0  0  0
    9.0595    0.0249   -6.5319 H   0  0  0  0  0  0  0  0  0  0  0  0
   10.0689    0.9079   -5.3749 H   0  0  0  0  0  0  0  0  0  0  0  0
   -2.3853   -0.7416   -1.6563 O   0  0  0  0  0  0  0  0  0  0  0  0
   -3.7713   -0.5828   -1.9623 C   0  0  0  0  0  0  0  0  0  0  0  0
   -4.2248   -1.5571   -1.7821 H   0  0  0  0  0  0  0  0  0  0  0  0
   -3.9155   -0.3017   -3.0113 H   0  0  0  0  0  0  0  0  0  0  0  0
   -4.2386    0.1631   -1.3101 H   0  0  0  0  0  0  0  0  0  0  0  0
  1  7  1  0  0  0  0
  2  1  1  0  0  0  0
  2  8  1  0  0  0  0
  3  2  2  0  0  0  0
  4  5  2  0  0  0  0
  4  3  1  0  0  0  0
  5  6  1  0  0  0  0
  6 31  1  0  0  0  0
  6  1  2  0  0  0  0
  9  4  1  0  0  0  0
 10  5  1  0  0  0  0
 11  3  1  0  0  0  0
 12 11  1  0  0  0  0
 13 18  2  0  0  0  0
 14 15  2  0  0  0  0
 14 13  1  0  0  0  0
 15 16  1  0  0  0  0
 16 21  1  0  0  0  0
 16 17  2  0  0  0  0
 17 22  1  0  0  0  0
 18 17  1  0  0  0  0
 18 23  1  0  0  0  0
 19 13  1  0  0  0  0
 20 14  1  0  0  0  0
 23 24  2  0  0  0  0
 23 25  1  0  0  0  0
 26 23  2  0  0  0  0
 27 30  1  0  0  0  0
 27 28  1  0  0  0  0
 27 15  1  0  0  0  0
 29 27  1  0  0  0  0
 32 33  1  0  0  0  0
 32 31  1  0  0  0  0
 32 35  1  0  0  0  0
 34 32  1  0  0  0  0
M  RAD  3  11   2  12   3  25   2
M  END
