Coordinates from ORCA-job p-CH3O-Ph-N2-X-OTs-B3LYPG-6-31G_dp-scan-d09-49-n400
 OpenBabel08281821023D

 35 35  0  0  0  0  0  0  0  0999 V2000
   -0.2797   -0.0969   -1.7452 C   0  0  0  0  0  0  0  0  0  0  0  0
    0.7745    0.7859   -1.6354 C   0  0  0  0  0  0  0  0  0  0  0  0
    0.4779    2.1649   -1.7260 C   0  0  0  0  0  0  0  0  0  0  0  0
   -0.8265    2.6474   -1.9287 C   0  0  0  0  0  0  0  0  0  0  0  0
   -1.8663    1.7430   -2.0515 C   0  0  0  0  0  0  0  0  0  0  0  0
   -1.5965    0.3613   -1.9594 C   0  0  0  0  0  0  0  0  0  0  0  0
   -0.1099   -1.1659   -1.6821 H   0  0  0  0  0  0  0  0  0  0  0  0
    1.7996    0.4423   -1.4932 H   0  0  0  0  0  0  0  0  0  0  0  0
   -1.0082    3.7147   -1.9951 H   0  0  0  0  0  0  0  0  0  0  0  0
   -2.8712    2.1087   -2.2170 H   0  0  0  0  0  0  0  0  0  0  0  0
    1.4807    3.0952   -1.5989 N   0  0  0  0  0  0  0  0  0  0  0  0
    2.3427    3.8015   -1.4616 N   0  0  0  0  0  0  0  0  0  0  0  0
    5.7663    0.0093   -4.1189 C   0  0  0  0  0  0  0  0  0  0  0  0
    6.9374   -0.1981   -4.8414 C   0  0  0  0  0  0  0  0  0  0  0  0
    8.0060    0.7095   -4.7673 C   0  0  0  0  0  0  0  0  0  0  0  0
    7.8637    1.8351   -3.9479 C   0  0  0  0  0  0  0  0  0  0  0  0
    6.6932    2.0565   -3.2193 C   0  0  0  0  0  0  0  0  0  0  0  0
    5.6458    1.1420   -3.3088 C   0  0  0  0  0  0  0  0  0  0  0  0
    4.9478   -0.7012   -4.1778 H   0  0  0  0  0  0  0  0  0  0  0  0
    7.0277   -1.0791   -5.4731 H   0  0  0  0  0  0  0  0  0  0  0  0
    8.6798    2.5511   -3.8769 H   0  0  0  0  0  0  0  0  0  0  0  0
    6.5842    2.9269   -2.5816 H   0  0  0  0  0  0  0  0  0  0  0  0
    4.1157    1.4096   -2.4054 S   0  0  0  0  0  0  0  0  0  0  0  0
    4.3580    2.6310   -1.5550 O   0  0  0  0  0  0  0  0  0  0  0  0
    3.8780    0.1759   -1.6030 O   0  0  0  0  0  0  0  0  0  0  0  0
    3.0420    1.6467   -3.4147 O   0  0  0  0  0  0  0  0  0  0  0  0
    9.2836    0.4583   -5.5338 C   0  0  0  0  0  0  0  0  0  0  0  0
    9.9219   -0.2679   -5.0142 H   0  0  0  0  0  0  0  0  0  0  0  0
    9.0805    0.0532   -6.5305 H   0  0  0  0  0  0  0  0  0  0  0  0
    9.8654    1.3769   -5.6554 H   0  0  0  0  0  0  0  0  0  0  0  0
   -2.5321   -0.5967   -2.0614 O   0  0  0  0  0  0  0  0  0  0  0  0
   -3.8927   -0.2303   -2.2954 C   0  0  0  0  0  0  0  0  0  0  0  0
   -4.4445   -1.1681   -2.3466 H   0  0  0  0  0  0  0  0  0  0  0  0
   -3.9990    0.3089   -3.2433 H   0  0  0  0  0  0  0  0  0  0  0  0
   -4.2856    0.3800   -1.4743 H   0  0  0  0  0  0  0  0  0  0  0  0
  1  7  1  0  0  0  0
  1  2  2  0  0  0  0
  2  8  1  0  0  0  0
  3  2  1  0  0  0  0
  3 11  1  0  0  0  0
  4  3  2  0  0  0  0
  5  6  2  0  0  0  0
  5  4  1  0  0  0  0
  6  1  1  0  0  0  0
  9  4  1  0  0  0  0
 10  5  1  0  0  0  0
 11 12  1  0  0  0  0
 13 18  2  0  0  0  0
 14 15  2  0  0  0  0
 14 13  1  0  0  0  0
 15 16  1  0  0  0  0
 16 21  1  0  0  0  0
 16 17  2  0  0  0  0
 17 22  1  0  0  0  0
 18 17  1  0  0  0  0
 18 23  1  0  0  0  0
 19 13  1  0  0  0  0
 20 14  1  0  0  0  0
 23 25  2  0  0  0  0
 23 24  1  0  0  0  0
 26 23  2  0  0  0  0
 27 28  1  0  0  0  0
 27 15  1  0  0  0  0
 29 27  1  0  0  0  0
 30 27  1  0  0  0  0
 31  6  1  0  0  0  0
 32 31  1  0  0  0  0
 32 35  1  0  0  0  0
 33 32  1  0  0  0  0
 34 32  1  0  0  0  0
M  RAD  3  11   2  12   3  24   2
M  END
