Coordinates from ORCA-job p-CH3O-Ph-N2-X-OTs-B3LYPG-6-31G_dp-scan-d09-49-n400
 OpenBabel08281821023D

 35 35  0  0  0  0  0  0  0  0999 V2000
   -0.3366   -0.0963   -2.3511 C   0  0  0  0  0  0  0  0  0  0  0  0
    0.7915    0.4556   -1.7805 C   0  0  0  0  0  0  0  0  0  0  0  0
    0.6751    1.7560   -1.2390 C   0  0  0  0  0  0  0  0  0  0  0  0
   -0.5248    2.4874   -1.2741 C   0  0  0  0  0  0  0  0  0  0  0  0
   -1.6395    1.9205   -1.8664 C   0  0  0  0  0  0  0  0  0  0  0  0
   -1.5501    0.6208   -2.4087 C   0  0  0  0  0  0  0  0  0  0  0  0
   -0.3056   -1.0909   -2.7800 H   0  0  0  0  0  0  0  0  0  0  0  0
    1.7426   -0.0770   -1.7448 H   0  0  0  0  0  0  0  0  0  0  0  0
   -0.5680    3.4834   -0.8483 H   0  0  0  0  0  0  0  0  0  0  0  0
   -2.5638    2.4822   -1.9055 H   0  0  0  0  0  0  0  0  0  0  0  0
    1.7572    2.3488   -0.6352 N   0  0  0  0  0  0  0  0  0  0  0  0
    2.6673    2.7771   -0.1353 N   0  0  0  0  0  0  0  0  0  0  0  0
    6.9328    0.1012   -2.6887 C   0  0  0  0  0  0  0  0  0  0  0  0
    7.9421    0.1639   -3.6500 C   0  0  0  0  0  0  0  0  0  0  0  0
    7.7571    0.8469   -4.8654 C   0  0  0  0  0  0  0  0  0  0  0  0
    6.5263    1.4735   -5.1155 C   0  0  0  0  0  0  0  0  0  0  0  0
    5.5099    1.4218   -4.1651 C   0  0  0  0  0  0  0  0  0  0  0  0
    5.7297    0.7397   -2.9736 C   0  0  0  0  0  0  0  0  0  0  0  0
    7.0827   -0.4310   -1.7546 H   0  0  0  0  0  0  0  0  0  0  0  0
    8.8934   -0.3273   -3.4587 H   0  0  0  0  0  0  0  0  0  0  0  0
    6.3766    1.9959   -6.0579 H   0  0  0  0  0  0  0  0  0  0  0  0
    4.4743    1.8220   -4.1339 H   0  0  0  0  0  0  0  0  0  0  0  0
    4.2599    0.8253   -1.9577 S   0  0  0  0  0  0  0  0  0  0  0  0
    4.5963    1.5748   -0.6964 O   0  0  0  0  0  0  0  0  0  0  0  0
    3.7579   -0.5531   -1.6947 O   0  0  0  0  0  0  0  0  0  0  0  0
    3.3602    1.6241   -2.8625 O   0  0  0  0  0  0  0  0  0  0  0  0
    8.8805    0.9196   -5.8740 C   0  0  0  0  0  0  0  0  0  0  0  0
    9.6239    1.6746   -5.5876 H   0  0  0  0  0  0  0  0  0  0  0  0
    9.4087   -0.0361   -5.9575 H   0  0  0  0  0  0  0  0  0  0  0  0
    8.5094    1.1882   -6.8674 H   0  0  0  0  0  0  0  0  0  0  0  0
   -2.5711   -0.0200   -3.0000 O   0  0  0  0  0  0  0  0  0  0  0  0
   -3.8373    0.6306   -3.1215 C   0  0  0  0  0  0  0  0  0  0  0  0
   -4.4843   -0.0810   -3.6341 H   0  0  0  0  0  0  0  0  0  0  0  0
   -3.7554    1.5462   -3.7170 H   0  0  0  0  0  0  0  0  0  0  0  0
   -4.2585    0.8640   -2.1374 H   0  0  0  0  0  0  0  0  0  0  0  0
  1  2  1  0  0  0  0
  2  8  1  0  0  0  0
  2  3  2  0  0  0  0
  3 11  1  0  0  0  0
  4  3  1  0  0  0  0
  4  9  1  0  0  0  0
  5  4  2  0  0  0  0
  6  1  2  0  0  0  0
  6  5  1  0  0  0  0
  7  1  1  0  0  0  0
 10  5  1  0  0  0  0
 11 12  1  0  0  0  0
 13 19  1  0  0  0  0
 14 20  1  0  0  0  0
 14 13  2  0  0  0  0
 15 14  1  0  0  0  0
 16 15  2  0  0  0  0
 16 17  1  0  0  0  0
 17 22  1  0  0  0  0
 17 18  2  0  0  0  0
 18 13  1  0  0  0  0
 18 23  1  0  0  0  0
 21 16  1  0  0  0  0
 23 25  2  0  0  0  0
 23 24  1  0  0  0  0
 26 23  2  0  0  0  0
 27 28  1  0  0  0  0
 27 15  1  0  0  0  0
 29 27  1  0  0  0  0
 30 27  1  0  0  0  0
 31  6  1  0  0  0  0
 32 31  1  0  0  0  0
 32 35  1  0  0  0  0
 33 32  1  0  0  0  0
 34 32  1  0  0  0  0
M  RAD  3  11   2  12   3  24   2
M  END
