Coordinates from ORCA-job p-CH3O-Ph-N2-X-OTs-B3LYPG-6-31G_dp-scan-d09-49-n400
 OpenBabel08281821023D

 35 35  0  0  0  0  0  0  0  0999 V2000
   -0.3555   -0.1217   -2.1407 C   0  0  0  0  0  0  0  0  0  0  0  0
    0.7486    0.6270   -1.7885 C   0  0  0  0  0  0  0  0  0  0  0  0
    0.5318    1.9775   -1.4336 C   0  0  0  0  0  0  0  0  0  0  0  0
   -0.7458    2.5637   -1.4328 C   0  0  0  0  0  0  0  0  0  0  0  0
   -1.8374    1.7978   -1.8026 C   0  0  0  0  0  0  0  0  0  0  0  0
   -1.6460    0.4467   -2.1612 C   0  0  0  0  0  0  0  0  0  0  0  0
   -0.2466   -1.1626   -2.4227 H   0  0  0  0  0  0  0  0  0  0  0  0
    1.7545    0.2064   -1.7806 H   0  0  0  0  0  0  0  0  0  0  0  0
   -0.8676    3.6036   -1.1507 H   0  0  0  0  0  0  0  0  0  0  0  0
   -2.8226    2.2462   -1.8102 H   0  0  0  0  0  0  0  0  0  0  0  0
    1.5888    2.7690   -1.0535 N   0  0  0  0  0  0  0  0  0  0  0  0
    2.4999    3.3508   -0.7432 N   0  0  0  0  0  0  0  0  0  0  0  0
    6.2593   -0.1888   -3.3777 C   0  0  0  0  0  0  0  0  0  0  0  0
    7.4299   -0.3462   -4.1181 C   0  0  0  0  0  0  0  0  0  0  0  0
    8.0078    0.7343   -4.7989 C   0  0  0  0  0  0  0  0  0  0  0  0
    7.3753    1.9831   -4.7205 C   0  0  0  0  0  0  0  0  0  0  0  0
    6.2041    2.1544   -3.9846 C   0  0  0  0  0  0  0  0  0  0  0  0
    5.6468    1.0635   -3.3149 C   0  0  0  0  0  0  0  0  0  0  0  0
    5.8082   -1.0204   -2.8483 H   0  0  0  0  0  0  0  0  0  0  0  0
    7.9036   -1.3243   -4.1667 H   0  0  0  0  0  0  0  0  0  0  0  0
    7.8073    2.8332   -5.2428 H   0  0  0  0  0  0  0  0  0  0  0  0
    5.7272    3.1277   -3.9323 H   0  0  0  0  0  0  0  0  0  0  0  0
    4.1364    1.2721   -2.3647 S   0  0  0  0  0  0  0  0  0  0  0  0
    4.4722    2.2888   -1.3007 O   0  0  0  0  0  0  0  0  0  0  0  0
    3.8058   -0.0697   -1.8038 O   0  0  0  0  0  0  0  0  0  0  0  0
    3.0902    1.7905   -3.2915 O   0  0  0  0  0  0  0  0  0  0  0  0
    9.2865    0.5552   -5.5829 C   0  0  0  0  0  0  0  0  0  0  0  0
   10.1382    0.3704   -4.9173 H   0  0  0  0  0  0  0  0  0  0  0  0
    9.2213   -0.3002   -6.2648 H   0  0  0  0  0  0  0  0  0  0  0  0
    9.5190    1.4426   -6.1784 H   0  0  0  0  0  0  0  0  0  0  0  0
   -2.6360   -0.3810   -2.5340 O   0  0  0  0  0  0  0  0  0  0  0  0
   -3.9762    0.1082   -2.6011 C   0  0  0  0  0  0  0  0  0  0  0  0
   -4.5794   -0.7342   -2.9386 H   0  0  0  0  0  0  0  0  0  0  0  0
   -4.0615    0.9306   -3.3201 H   0  0  0  0  0  0  0  0  0  0  0  0
   -4.3276    0.4378   -1.6173 H   0  0  0  0  0  0  0  0  0  0  0  0
  1  2  1  0  0  0  0
  2  8  1  0  0  0  0
  2  3  2  0  0  0  0
  3  4  1  0  0  0  0
  3 11  1  0  0  0  0
  4  9  1  0  0  0  0
  5  4  2  0  0  0  0
  6  1  2  0  0  0  0
  6  5  1  0  0  0  0
  7  1  1  0  0  0  0
 10  5  1  0  0  0  0
 11 12  1  0  0  0  0
 13 18  1  0  0  0  0
 13 19  1  0  0  0  0
 14 13  2  0  0  0  0
 15 16  2  0  0  0  0
 15 14  1  0  0  0  0
 16 17  1  0  0  0  0
 17 22  1  0  0  0  0
 17 18  2  0  0  0  0
 18 23  1  0  0  0  0
 20 14  1  0  0  0  0
 21 16  1  0  0  0  0
 23 25  2  0  0  0  0
 23 24  1  0  0  0  0
 26 23  2  0  0  0  0
 27 28  1  0  0  0  0
 27 15  1  0  0  0  0
 29 27  1  0  0  0  0
 30 27  1  0  0  0  0
 31  6  1  0  0  0  0
 32 31  1  0  0  0  0
 32 35  1  0  0  0  0
 33 32  1  0  0  0  0
 34 32  1  0  0  0  0
M  RAD  3  11   2  12   3  24   2
M  END
