Coordinates from ORCA-job p-CH3O-Ph-N2-X-OTs-B3LYPG-6-31G_dp-scan-d09-49-n400
 OpenBabel08281821023D

 35 35  0  0  0  0  0  0  0  0999 V2000
   -0.3181   -0.1260   -2.0147 C   0  0  0  0  0  0  0  0  0  0  0  0
    0.7651    0.6811   -1.7349 C   0  0  0  0  0  0  0  0  0  0  0  0
    0.5139    2.0563   -1.5279 C   0  0  0  0  0  0  0  0  0  0  0  0
   -0.7761    2.6098   -1.6016 C   0  0  0  0  0  0  0  0  0  0  0  0
   -1.8462    1.7837   -1.8969 C   0  0  0  0  0  0  0  0  0  0  0  0
   -1.6208    0.4067   -2.1061 C   0  0  0  0  0  0  0  0  0  0  0  0
   -0.1831   -1.1884   -2.1834 H   0  0  0  0  0  0  0  0  0  0  0  0
    1.7800    0.2869   -1.6736 H   0  0  0  0  0  0  0  0  0  0  0  0
   -0.9239    3.6710   -1.4335 H   0  0  0  0  0  0  0  0  0  0  0  0
   -2.8406    2.2060   -1.9627 H   0  0  0  0  0  0  0  0  0  0  0  0
    1.5487    2.9079   -1.2248 N   0  0  0  0  0  0  0  0  0  0  0  0
    2.4381    3.5446   -0.9659 N   0  0  0  0  0  0  0  0  0  0  0  0
    6.0466   -0.1908   -3.6459 C   0  0  0  0  0  0  0  0  0  0  0  0
    7.2022   -0.3744   -4.4040 C   0  0  0  0  0  0  0  0  0  0  0  0
    7.9882    0.7153   -4.8028 C   0  0  0  0  0  0  0  0  0  0  0  0
    7.5828    2.0022   -4.4211 C   0  0  0  0  0  0  0  0  0  0  0  0
    6.4291    2.2000   -3.6647 C   0  0  0  0  0  0  0  0  0  0  0  0
    5.6605    1.0994   -3.2814 C   0  0  0  0  0  0  0  0  0  0  0  0
    5.4452   -1.0333   -3.3227 H   0  0  0  0  0  0  0  0  0  0  0  0
    7.5010   -1.3809   -4.6880 H   0  0  0  0  0  0  0  0  0  0  0  0
    8.1817    2.8600   -4.7180 H   0  0  0  0  0  0  0  0  0  0  0  0
    6.1311    3.1967   -3.3576 H   0  0  0  0  0  0  0  0  0  0  0  0
    4.1386    1.3448   -2.3595 S   0  0  0  0  0  0  0  0  0  0  0  0
    4.4444    2.4540   -1.3838 O   0  0  0  0  0  0  0  0  0  0  0  0
    3.8388    0.0427   -1.6963 O   0  0  0  0  0  0  0  0  0  0  0  0
    3.0786    1.7545   -3.3257 O   0  0  0  0  0  0  0  0  0  0  0  0
    9.2581    0.5045   -5.5929 C   0  0  0  0  0  0  0  0  0  0  0  0
   10.1081    0.2994   -4.9297 H   0  0  0  0  0  0  0  0  0  0  0  0
    9.1683   -0.3464   -6.2757 H   0  0  0  0  0  0  0  0  0  0  0  0
    9.5142    1.3888   -6.1843 H   0  0  0  0  0  0  0  0  0  0  0  0
   -2.5880   -0.4795   -2.3944 O   0  0  0  0  0  0  0  0  0  0  0  0
   -3.9396   -0.0343   -2.5150 C   0  0  0  0  0  0  0  0  0  0  0  0
   -4.5221   -0.9253   -2.7470 H   0  0  0  0  0  0  0  0  0  0  0  0
   -4.0459    0.6933   -3.3274 H   0  0  0  0  0  0  0  0  0  0  0  0
   -4.2987    0.4015   -1.5762 H   0  0  0  0  0  0  0  0  0  0  0  0
  1  2  1  0  0  0  0
  2  8  1  0  0  0  0
  2  3  2  0  0  0  0
  3 11  1  0  0  0  0
  4  3  1  0  0  0  0
  4  9  1  0  0  0  0
  5  4  2  0  0  0  0
  6  1  2  0  0  0  0
  6  5  1  0  0  0  0
  7  1  1  0  0  0  0
 10  5  1  0  0  0  0
 11 12  1  0  0  0  0
 13 19  1  0  0  0  0
 13 18  1  0  0  0  0
 14 13  2  0  0  0  0
 15 16  2  0  0  0  0
 15 14  1  0  0  0  0
 16 17  1  0  0  0  0
 17 22  1  0  0  0  0
 17 18  2  0  0  0  0
 18 23  1  0  0  0  0
 20 14  1  0  0  0  0
 21 16  1  0  0  0  0
 23 25  2  0  0  0  0
 23 24  1  0  0  0  0
 26 23  2  0  0  0  0
 27 28  1  0  0  0  0
 27 15  1  0  0  0  0
 29 27  1  0  0  0  0
 30 27  1  0  0  0  0
 31  6  1  0  0  0  0
 32 31  1  0  0  0  0
 32 35  1  0  0  0  0
 33 32  1  0  0  0  0
 34 32  1  0  0  0  0
M  RAD  3  11   2  12   3  24   2
M  END
