Coordinates from ORCA-job p-CH3O-Ph-N2-X-OTs-B3LYPG-6-31G_dp-scan-d09-49-n400
 OpenBabel08281821023D

 35 35  0  0  0  0  0  0  0  0999 V2000
   -0.3005   -0.1182   -1.8715 C   0  0  0  0  0  0  0  0  0  0  0  0
    0.7688    0.7318   -1.6794 C   0  0  0  0  0  0  0  0  0  0  0  0
    0.4957    2.1177   -1.6315 C   0  0  0  0  0  0  0  0  0  0  0  0
   -0.8011    2.6396   -1.7784 C   0  0  0  0  0  0  0  0  0  0  0  0
   -1.8567    1.7692   -1.9848 C   0  0  0  0  0  0  0  0  0  0  0  0
   -1.6101    0.3808   -2.0317 C   0  0  0  0  0  0  0  0  0  0  0  0
   -0.1489   -1.1909   -1.9163 H   0  0  0  0  0  0  0  0  0  0  0  0
    1.7885    0.3601   -1.5730 H   0  0  0  0  0  0  0  0  0  0  0  0
   -0.9651    3.7109   -1.7358 H   0  0  0  0  0  0  0  0  0  0  0  0
   -2.8559    2.1662   -2.1076 H   0  0  0  0  0  0  0  0  0  0  0  0
    1.5149    3.0138   -1.4175 N   0  0  0  0  0  0  0  0  0  0  0  0
    2.3911    3.6880   -1.2182 N   0  0  0  0  0  0  0  0  0  0  0  0
    5.8964   -0.1219   -3.8860 C   0  0  0  0  0  0  0  0  0  0  0  0
    7.0560   -0.3132   -4.6331 C   0  0  0  0  0  0  0  0  0  0  0  0
    7.9964    0.7163   -4.7886 C   0  0  0  0  0  0  0  0  0  0  0  0
    7.7399    1.9474   -4.1720 C   0  0  0  0  0  0  0  0  0  0  0  0
    6.5806    2.1538   -3.4234 C   0  0  0  0  0  0  0  0  0  0  0  0
    5.6579    1.1169   -3.2861 C   0  0  0  0  0  0  0  0  0  0  0  0
    5.1810   -0.9266   -3.7519 H   0  0  0  0  0  0  0  0  0  0  0  0
    7.2380   -1.2785   -5.1001 H   0  0  0  0  0  0  0  0  0  0  0  0
    8.4594    2.7567   -4.2761 H   0  0  0  0  0  0  0  0  0  0  0  0
    6.3949    3.1039   -2.9344 H   0  0  0  0  0  0  0  0  0  0  0  0
    4.1271    1.3716   -2.3799 S   0  0  0  0  0  0  0  0  0  0  0  0
    4.3990    2.5365   -1.4611 O   0  0  0  0  0  0  0  0  0  0  0  0
    3.8587    0.0975   -1.6529 O   0  0  0  0  0  0  0  0  0  0  0  0
    3.0585    1.6973   -3.3696 O   0  0  0  0  0  0  0  0  0  0  0  0
    9.2671    0.4884   -5.5733 C   0  0  0  0  0  0  0  0  0  0  0  0
   10.0280   -0.0119   -4.9604 H   0  0  0  0  0  0  0  0  0  0  0  0
    9.0899   -0.1458   -6.4478 H   0  0  0  0  0  0  0  0  0  0  0  0
    9.6977    1.4318   -5.9211 H   0  0  0  0  0  0  0  0  0  0  0  0
   -2.5623   -0.5472   -2.2219 O   0  0  0  0  0  0  0  0  0  0  0  0
   -3.9187   -0.1385   -2.4029 C   0  0  0  0  0  0  0  0  0  0  0  0
   -4.4873   -1.0585   -2.5334 H   0  0  0  0  0  0  0  0  0  0  0  0
   -4.0272    0.4881   -3.2952 H   0  0  0  0  0  0  0  0  0  0  0  0
   -4.2915    0.3988   -1.5236 H   0  0  0  0  0  0  0  0  0  0  0  0
  1  2  2  0  0  0  0
  2  3  1  0  0  0  0
  2  8  1  0  0  0  0
  3 11  1  0  0  0  0
  4  9  1  0  0  0  0
  4  3  2  0  0  0  0
  5  4  1  0  0  0  0
  6  5  2  0  0  0  0
  6  1  1  0  0  0  0
  7  1  1  0  0  0  0
 10  5  1  0  0  0  0
 11 12  1  0  0  0  0
 13 19  1  0  0  0  0
 13 18  2  0  0  0  0
 14 13  1  0  0  0  0
 15 14  2  0  0  0  0
 15 16  1  0  0  0  0
 16 17  2  0  0  0  0
 17 18  1  0  0  0  0
 17 22  1  0  0  0  0
 18 23  1  0  0  0  0
 20 14  1  0  0  0  0
 21 16  1  0  0  0  0
 23 25  2  0  0  0  0
 23 24  1  0  0  0  0
 26 23  2  0  0  0  0
 27 28  1  0  0  0  0
 27 15  1  0  0  0  0
 29 27  1  0  0  0  0
 30 27  1  0  0  0  0
 31  6  1  0  0  0  0
 32 31  1  0  0  0  0
 32 35  1  0  0  0  0
 33 32  1  0  0  0  0
 34 32  1  0  0  0  0
M  RAD  3  11   2  12   3  24   2
M  END
