Coordinates from ORCA-job p-CH3O-Ph-N2-X-OTs-B3LYPG-6-31G_dp-scan-d09-49-n400
 OpenBabel08281821023D

 35 35  0  0  0  0  0  0  0  0999 V2000
   -0.3149   -0.1261   -1.9963 C   0  0  0  0  0  0  0  0  0  0  0  0
    0.7662    0.6872   -1.7266 C   0  0  0  0  0  0  0  0  0  0  0  0
    0.5118    2.0648   -1.5400 C   0  0  0  0  0  0  0  0  0  0  0  0
   -0.7792    2.6145   -1.6241 C   0  0  0  0  0  0  0  0  0  0  0  0
   -1.8471    1.7821   -1.9093 C   0  0  0  0  0  0  0  0  0  0  0  0
   -1.6186    0.4025   -2.0976 C   0  0  0  0  0  0  0  0  0  0  0  0
   -0.1775   -1.1906   -2.1493 H   0  0  0  0  0  0  0  0  0  0  0  0
    1.7818    0.2959   -1.6587 H   0  0  0  0  0  0  0  0  0  0  0  0
   -0.9294    3.6778   -1.4720 H   0  0  0  0  0  0  0  0  0  0  0  0
   -2.8422    2.2014   -1.9833 H   0  0  0  0  0  0  0  0  0  0  0  0
    1.5442    2.9228   -1.2473 N   0  0  0  0  0  0  0  0  0  0  0  0
    2.4315    3.5650   -0.9951 N   0  0  0  0  0  0  0  0  0  0  0  0
    6.0243   -0.1847   -3.6775 C   0  0  0  0  0  0  0  0  0  0  0  0
    7.1795   -0.3700   -4.4356 C   0  0  0  0  0  0  0  0  0  0  0  0
    7.9878    0.7149   -4.8020 C   0  0  0  0  0  0  0  0  0  0  0  0
    7.6052    1.9984   -4.3875 C   0  0  0  0  0  0  0  0  0  0  0  0
    6.4520    2.1980   -3.6307 C   0  0  0  0  0  0  0  0  0  0  0  0
    5.6607    1.1027   -3.2803 C   0  0  0  0  0  0  0  0  0  0  0  0
    5.4068   -1.0246   -3.3787 H   0  0  0  0  0  0  0  0  0  0  0  0
    7.4605   -1.3740   -4.7450 H   0  0  0  0  0  0  0  0  0  0  0  0
    8.2219    2.8523   -4.6584 H   0  0  0  0  0  0  0  0  0  0  0  0
    6.1719    3.1914   -3.2971 H   0  0  0  0  0  0  0  0  0  0  0  0
    4.1376    1.3503   -2.3606 S   0  0  0  0  0  0  0  0  0  0  0  0
    4.4396    2.4681   -1.3935 O   0  0  0  0  0  0  0  0  0  0  0  0
    3.8422    0.0522   -1.6878 O   0  0  0  0  0  0  0  0  0  0  0  0
    3.0756    1.7481   -3.3299 O   0  0  0  0  0  0  0  0  0  0  0  0
    9.2571    0.5010   -5.5924 C   0  0  0  0  0  0  0  0  0  0  0  0
   10.1011    0.2671   -4.9310 H   0  0  0  0  0  0  0  0  0  0  0  0
    9.1558   -0.3326   -6.2946 H   0  0  0  0  0  0  0  0  0  0  0  0
    9.5300    1.3940   -6.1626 H   0  0  0  0  0  0  0  0  0  0  0  0
   -2.5836   -0.4898   -2.3741 O   0  0  0  0  0  0  0  0  0  0  0  0
   -3.9360   -0.0493   -2.5028 C   0  0  0  0  0  0  0  0  0  0  0  0
   -4.5166   -0.9452   -2.7203 H   0  0  0  0  0  0  0  0  0  0  0  0
   -4.0432    0.6646   -3.3272 H   0  0  0  0  0  0  0  0  0  0  0  0
   -4.2964    0.4012   -1.5715 H   0  0  0  0  0  0  0  0  0  0  0  0
  1  2  1  0  0  0  0
  2  8  1  0  0  0  0
  2  3  2  0  0  0  0
  3 11  1  0  0  0  0
  4  3  1  0  0  0  0
  4  9  1  0  0  0  0
  5  4  2  0  0  0  0
  6  1  2  0  0  0  0
  6  5  1  0  0  0  0
  7  1  1  0  0  0  0
 10  5  1  0  0  0  0
 11 12  1  0  0  0  0
 13 19  1  0  0  0  0
 13 18  2  0  0  0  0
 14 13  1  0  0  0  0
 15 14  2  0  0  0  0
 15 16  1  0  0  0  0
 16 17  2  0  0  0  0
 17 22  1  0  0  0  0
 17 18  1  0  0  0  0
 18 23  1  0  0  0  0
 20 14  1  0  0  0  0
 21 16  1  0  0  0  0
 23 25  2  0  0  0  0
 23 24  1  0  0  0  0
 26 23  2  0  0  0  0
 27 28  1  0  0  0  0
 27 15  1  0  0  0  0
 29 27  1  0  0  0  0
 30 27  1  0  0  0  0
 31  6  1  0  0  0  0
 32 31  1  0  0  0  0
 32 35  1  0  0  0  0
 33 32  1  0  0  0  0
 34 32  1  0  0  0  0
M  RAD  3  11   2  12   3  24   2
M  END
