Coordinates from ORCA-job p-CH3O-Ph-N2-X-OTs-B3LYPG-6-31G_dp-scan-d09-49-n400
 OpenBabel08281821023D

 35 35  0  0  0  0  0  0  0  0999 V2000
   -0.3278   -0.1250   -2.0655 C   0  0  0  0  0  0  0  0  0  0  0  0
    0.7617    0.6632   -1.7570 C   0  0  0  0  0  0  0  0  0  0  0  0
    0.5202    2.0300   -1.4916 C   0  0  0  0  0  0  0  0  0  0  0  0
   -0.7668    2.5936   -1.5351 C   0  0  0  0  0  0  0  0  0  0  0  0
   -1.8433    1.7871   -1.8598 C   0  0  0  0  0  0  0  0  0  0  0  0
   -1.6274    0.4190   -2.1289 C   0  0  0  0  0  0  0  0  0  0  0  0
   -0.2001   -1.1801   -2.2794 H   0  0  0  0  0  0  0  0  0  0  0  0
    1.7744    0.2610   -1.7159 H   0  0  0  0  0  0  0  0  0  0  0  0
   -0.9074    3.6475   -1.3214 H   0  0  0  0  0  0  0  0  0  0  0  0
   -2.8356    2.2175   -1.9016 H   0  0  0  0  0  0  0  0  0  0  0  0
    1.5618    2.8622   -1.1594 N   0  0  0  0  0  0  0  0  0  0  0  0
    2.4574    3.4824   -0.8811 N   0  0  0  0  0  0  0  0  0  0  0  0
    6.1162   -0.2006   -3.5499 C   0  0  0  0  0  0  0  0  0  0  0  0
    7.2741   -0.3790   -4.3062 C   0  0  0  0  0  0  0  0  0  0  0  0
    7.9906    0.7176   -4.8043 C   0  0  0  0  0  0  0  0  0  0  0  0
    7.5124    2.0061   -4.5256 C   0  0  0  0  0  0  0  0  0  0  0  0
    6.3562    2.1986   -3.7721 C   0  0  0  0  0  0  0  0  0  0  0  0
    5.6582    1.0907   -3.2876 C   0  0  0  0  0  0  0  0  0  0  0  0
    5.5647   -1.0454   -3.1530 H   0  0  0  0  0  0  0  0  0  0  0  0
    7.6289   -1.3866   -4.5106 H   0  0  0  0  0  0  0  0  0  0  0  0
    8.0558    2.8693   -4.9021 H   0  0  0  0  0  0  0  0  0  0  0  0
    6.0012    3.1993   -3.5495 H   0  0  0  0  0  0  0  0  0  0  0  0
    4.1406    1.3280   -2.3569 S   0  0  0  0  0  0  0  0  0  0  0  0
    4.4577    2.4121   -1.3566 O   0  0  0  0  0  0  0  0  0  0  0  0
    3.8301    0.0147   -1.7214 O   0  0  0  0  0  0  0  0  0  0  0  0
    3.0850    1.7709   -3.3126 O   0  0  0  0  0  0  0  0  0  0  0  0
    9.2626    0.5152   -5.5933 C   0  0  0  0  0  0  0  0  0  0  0  0
   10.1199    0.3525   -4.9280 H   0  0  0  0  0  0  0  0  0  0  0  0
    9.1927   -0.3593   -6.2483 H   0  0  0  0  0  0  0  0  0  0  0  0
    9.4925    1.3863   -6.2138 H   0  0  0  0  0  0  0  0  0  0  0  0
   -2.6013   -0.4480   -2.4514 O   0  0  0  0  0  0  0  0  0  0  0  0
   -3.9498    0.0116   -2.5518 C   0  0  0  0  0  0  0  0  0  0  0  0
   -4.5376   -0.8630   -2.8288 H   0  0  0  0  0  0  0  0  0  0  0  0
   -4.0497    0.7796   -3.3268 H   0  0  0  0  0  0  0  0  0  0  0  0
   -4.3076    0.4025   -1.5930 H   0  0  0  0  0  0  0  0  0  0  0  0
  1  2  1  0  0  0  0
  2  8  1  0  0  0  0
  2  3  2  0  0  0  0
  3 11  1  0  0  0  0
  4  3  1  0  0  0  0
  4  9  1  0  0  0  0
  5  4  2  0  0  0  0
  6  1  2  0  0  0  0
  6  5  1  0  0  0  0
  7  1  1  0  0  0  0
 10  5  1  0  0  0  0
 11 12  1  0  0  0  0
 13 18  1  0  0  0  0
 13 19  1  0  0  0  0
 14 13  2  0  0  0  0
 15 16  2  0  0  0  0
 15 14  1  0  0  0  0
 16 17  1  0  0  0  0
 17 22  1  0  0  0  0
 17 18  2  0  0  0  0
 18 23  1  0  0  0  0
 20 14  1  0  0  0  0
 21 16  1  0  0  0  0
 23 25  2  0  0  0  0
 23 24  1  0  0  0  0
 26 23  2  0  0  0  0
 27 28  1  0  0  0  0
 27 15  1  0  0  0  0
 29 27  1  0  0  0  0
 30 27  1  0  0  0  0
 31  6  1  0  0  0  0
 32 31  1  0  0  0  0
 32 35  1  0  0  0  0
 33 32  1  0  0  0  0
 34 32  1  0  0  0  0
M  RAD  3  11   2  12   3  24   2
M  END
