Coordinates from ORCA-job p-CH3O-Ph-N2-X-OTs-B3LYPG-6-31G_dp-scan-d09-49-n400
 OpenBabel08281821023D

 35 35  0  0  0  0  0  0  0  0999 V2000
   -0.3223   -0.1262   -2.0387 C   0  0  0  0  0  0  0  0  0  0  0  0
    0.7639    0.6713   -1.7434 C   0  0  0  0  0  0  0  0  0  0  0  0
    0.5178    2.0429   -1.5082 C   0  0  0  0  0  0  0  0  0  0  0  0
   -0.7705    2.6020   -1.5685 C   0  0  0  0  0  0  0  0  0  0  0  0
   -1.8437    1.7858   -1.8795 C   0  0  0  0  0  0  0  0  0  0  0  0
   -1.6232    0.4127   -2.1179 C   0  0  0  0  0  0  0  0  0  0  0  0
   -0.1911   -1.1853   -2.2293 H   0  0  0  0  0  0  0  0  0  0  0  0
    1.7776    0.2727   -1.6906 H   0  0  0  0  0  0  0  0  0  0  0  0
   -0.9146    3.6600   -1.3782 H   0  0  0  0  0  0  0  0  0  0  0  0
   -2.8369    2.2126   -1.9346 H   0  0  0  0  0  0  0  0  0  0  0  0
    1.5560    2.8847   -1.1895 N   0  0  0  0  0  0  0  0  0  0  0  0
    2.4485    3.5129   -0.9203 N   0  0  0  0  0  0  0  0  0  0  0  0
    6.0803   -0.1972   -3.5977 C   0  0  0  0  0  0  0  0  0  0  0  0
    7.2366   -0.3783   -4.3558 C   0  0  0  0  0  0  0  0  0  0  0  0
    7.9880    0.7163   -4.8043 C   0  0  0  0  0  0  0  0  0  0  0  0
    7.5469    2.0057   -4.4735 C   0  0  0  0  0  0  0  0  0  0  0  0
    6.3926    2.2009   -3.7178 C   0  0  0  0  0  0  0  0  0  0  0  0
    5.6591    1.0951   -3.2836 C   0  0  0  0  0  0  0  0  0  0  0  0
    5.5038   -1.0418   -3.2373 H   0  0  0  0  0  0  0  0  0  0  0  0
    7.5628   -1.3865   -4.6005 H   0  0  0  0  0  0  0  0  0  0  0  0
    8.1182    2.8674   -4.8105 H   0  0  0  0  0  0  0  0  0  0  0  0
    6.0667    3.2009   -3.4522 H   0  0  0  0  0  0  0  0  0  0  0  0
    4.1396    1.3365   -2.3569 S   0  0  0  0  0  0  0  0  0  0  0  0
    4.4517    2.4330   -1.3687 O   0  0  0  0  0  0  0  0  0  0  0  0
    3.8344    0.0286   -1.7078 O   0  0  0  0  0  0  0  0  0  0  0  0
    3.0815    1.7634   -3.3175 O   0  0  0  0  0  0  0  0  0  0  0  0
    9.2586    0.5098   -5.5944 C   0  0  0  0  0  0  0  0  0  0  0  0
   10.1146    0.3365   -4.9300 H   0  0  0  0  0  0  0  0  0  0  0  0
    9.1823   -0.3593   -6.2557 H   0  0  0  0  0  0  0  0  0  0  0  0
    9.4957    1.3838   -6.2085 H   0  0  0  0  0  0  0  0  0  0  0  0
   -2.5937   -0.4639   -2.4240 O   0  0  0  0  0  0  0  0  0  0  0  0
   -3.9436   -0.0111   -2.5361 C   0  0  0  0  0  0  0  0  0  0  0  0
   -4.5287   -0.8942   -2.7908 H   0  0  0  0  0  0  0  0  0  0  0  0
   -4.0458    0.7366   -3.3305 H   0  0  0  0  0  0  0  0  0  0  0  0
   -4.3028    0.4029   -1.5876 H   0  0  0  0  0  0  0  0  0  0  0  0
  1  2  1  0  0  0  0
  2  8  1  0  0  0  0
  2  3  2  0  0  0  0
  3 11  1  0  0  0  0
  4  3  1  0  0  0  0
  4  9  1  0  0  0  0
  5  4  2  0  0  0  0
  6  1  2  0  0  0  0
  6  5  1  0  0  0  0
  7  1  1  0  0  0  0
 10  5  1  0  0  0  0
 11 12  1  0  0  0  0
 13 18  1  0  0  0  0
 13 19  1  0  0  0  0
 14 13  2  0  0  0  0
 15 16  2  0  0  0  0
 15 14  1  0  0  0  0
 16 17  1  0  0  0  0
 17 22  1  0  0  0  0
 17 18  2  0  0  0  0
 18 23  1  0  0  0  0
 20 14  1  0  0  0  0
 21 16  1  0  0  0  0
 23 25  2  0  0  0  0
 23 24  1  0  0  0  0
 26 23  2  0  0  0  0
 27 28  1  0  0  0  0
 27 15  1  0  0  0  0
 29 27  1  0  0  0  0
 30 27  1  0  0  0  0
 31  6  1  0  0  0  0
 32 31  1  0  0  0  0
 32 35  1  0  0  0  0
 33 32  1  0  0  0  0
 34 32  1  0  0  0  0
M  RAD  3  11   2  12   3  24   2
M  END
