Coordinates from ORCA-job p-CH3O-Ph-N2-X-OTs-B3LYPG-6-31G_dp-scan-d09-49-n400
 OpenBabel08281821023D

 35 35  0  0  0  0  0  0  0  0999 V2000
   -0.2458   -0.1378   -2.3409 C   0  0  0  0  0  0  0  0  0  0  0  0
    0.8419    0.3921   -1.6819 C   0  0  0  0  0  0  0  0  0  0  0  0
    0.7057    1.6876   -1.1349 C   0  0  0  0  0  0  0  0  0  0  0  0
   -0.4751    2.4432   -1.2544 C   0  0  0  0  0  0  0  0  0  0  0  0
   -1.5483    1.8988   -1.9375 C   0  0  0  0  0  0  0  0  0  0  0  0
   -1.4408    0.6016   -2.4832 C   0  0  0  0  0  0  0  0  0  0  0  0
   -0.1974   -1.1271   -2.7801 H   0  0  0  0  0  0  0  0  0  0  0  0
    1.7868   -0.1422   -1.5847 H   0  0  0  0  0  0  0  0  0  0  0  0
   -0.5349    3.4367   -0.8250 H   0  0  0  0  0  0  0  0  0  0  0  0
   -2.4567    2.4773   -2.0439 H   0  0  0  0  0  0  0  0  0  0  0  0
    1.7513    2.2503   -0.4456 N   0  0  0  0  0  0  0  0  0  0  0  0
    2.5574    2.7264    0.1732 N   0  0  0  0  0  0  0  0  0  0  0  0
    6.9649    0.1825   -2.6815 C   0  0  0  0  0  0  0  0  0  0  0  0
    7.9050    0.1843   -3.7061 C   0  0  0  0  0  0  0  0  0  0  0  0
    7.6267    0.8185   -4.9342 C   0  0  0  0  0  0  0  0  0  0  0  0
    6.3865    1.4487   -5.1167 C   0  0  0  0  0  0  0  0  0  0  0  0
    5.3970    1.4886   -4.1179 C   0  0  0  0  0  0  0  0  0  0  0  0
    5.7578    0.8364   -2.9431 C   0  0  0  0  0  0  0  0  0  0  0  0
    7.1697   -0.3080   -1.7334 H   0  0  0  0  0  0  0  0  0  0  0  0
    8.8634   -0.3090   -3.5610 H   0  0  0  0  0  0  0  0  0  0  0  0
    6.2038    1.9265   -6.0814 H   0  0  0  0  0  0  0  0  0  0  0  0
    3.9607    1.8723   -3.4947 H   0  0  0  0  0  0  0  0  0  0  0  0
    4.4272    0.9243   -1.7424 S   0  0  0  0  0  0  0  0  0  0  0  0
    4.7578    1.7403   -0.5471 O   0  0  0  0  0  0  0  0  0  0  0  0
    3.8179   -0.3953   -1.4418 O   0  0  0  0  0  0  0  0  0  0  0  0
    3.4010    1.7607   -2.6490 O   0  0  0  0  0  0  0  0  0  0  0  0
    8.6692    0.8194   -6.0297 C   0  0  0  0  0  0  0  0  0  0  0  0
    9.5517    1.4053   -5.7436 H   0  0  0  0  0  0  0  0  0  0  0  0
    9.0196   -0.1947   -6.2538 H   0  0  0  0  0  0  0  0  0  0  0  0
    8.2728    1.2493   -6.9539 H   0  0  0  0  0  0  0  0  0  0  0  0
   -2.4221   -0.0157   -3.1565 O   0  0  0  0  0  0  0  0  0  0  0  0
   -3.6631    0.6590   -3.3778 C   0  0  0  0  0  0  0  0  0  0  0  0
   -4.2778   -0.0390   -3.9456 H   0  0  0  0  0  0  0  0  0  0  0  0
   -3.5149    1.5747   -3.9602 H   0  0  0  0  0  0  0  0  0  0  0  0
   -4.1586    0.8954   -2.4299 H   0  0  0  0  0  0  0  0  0  0  0  0
  1  2  1  0  0  0  0
  2  8  1  0  0  0  0
  2  3  2  0  0  0  0
  3 11  1  0  0  0  0
  4  3  1  0  0  0  0
  4  9  1  0  0  0  0
  5  4  2  0  0  0  0
  6  1  2  0  0  0  0
  6  5  1  0  0  0  0
  7  1  1  0  0  0  0
 10  5  1  0  0  0  0
 11 12  1  0  0  0  0
 13 19  1  0  0  0  0
 14 20  1  0  0  0  0
 14 13  2  0  0  0  0
 15 14  1  0  0  0  0
 16 15  2  0  0  0  0
 16 17  1  0  0  0  0
 17 18  2  0  0  0  0
 18 13  1  0  0  0  0
 18 23  1  0  0  0  0
 21 16  1  0  0  0  0
 22 26  1  0  0  0  0
 23 25  2  0  0  0  0
 23 24  2  0  0  0  0
 26 23  1  0  0  0  0
 27 28  1  0  0  0  0
 27 15  1  0  0  0  0
 29 27  1  0  0  0  0
 30 27  1  0  0  0  0
 31  6  1  0  0  0  0
 32 31  1  0  0  0  0
 32 35  1  0  0  0  0
 33 32  1  0  0  0  0
 34 32  1  0  0  0  0
M  RAD  3  11   2  12   3  17   2
M  END
