Coordinates from ORCA-job p-CH3O-Ph-N2-X-OTs-B3LYPG-6-31G_dp-scan-d09-49-n400
 OpenBabel08281821023D

 35 35  0  0  0  0  0  0  0  0999 V2000
   -0.4415    0.0147   -2.5002 C   0  0  0  0  0  0  0  0  0  0  0  0
    0.6937    0.6064   -1.9894 C   0  0  0  0  0  0  0  0  0  0  0  0
    0.5421    1.8485   -1.3247 C   0  0  0  0  0  0  0  0  0  0  0  0
   -0.7127    2.4752   -1.1713 C   0  0  0  0  0  0  0  0  0  0  0  0
   -1.8357    1.8584   -1.6890 C   0  0  0  0  0  0  0  0  0  0  0  0
   -1.7076    0.6232   -2.3622 C   0  0  0  0  0  0  0  0  0  0  0  0
   -0.3796   -0.9352   -3.0184 H   0  0  0  0  0  0  0  0  0  0  0  0
    1.6743    0.1415   -2.0837 H   0  0  0  0  0  0  0  0  0  0  0  0
   -0.7875    3.4270   -0.6579 H   0  0  0  0  0  0  0  0  0  0  0  0
   -2.8005    2.3352   -1.5742 H   0  0  0  0  0  0  0  0  0  0  0  0
    1.6378    2.4791   -0.8100 N   0  0  0  0  0  0  0  0  0  0  0  0
    2.5595    2.9767   -0.3983 N   0  0  0  0  0  0  0  0  0  0  0  0
    6.9462    0.0293   -2.8184 C   0  0  0  0  0  0  0  0  0  0  0  0
    8.0507    0.0409   -3.6605 C   0  0  0  0  0  0  0  0  0  0  0  0
    8.0384    0.8035   -4.8466 C   0  0  0  0  0  0  0  0  0  0  0  0
    6.8952    1.5504   -5.1674 C   0  0  0  0  0  0  0  0  0  0  0  0
    5.7474    1.5857   -4.3548 C   0  0  0  0  0  0  0  0  0  0  0  0
    5.8474    0.8054   -3.2118 C   0  0  0  0  0  0  0  0  0  0  0  0
    6.9469   -0.5563   -1.9023 H   0  0  0  0  0  0  0  0  0  0  0  0
    8.9325   -0.5419   -3.4031 H   0  0  0  0  0  0  0  0  0  0  0  0
    6.9208    2.1274   -6.0948 H   0  0  0  0  0  0  0  0  0  0  0  0
    4.0066    2.0628   -3.7802 H   0  0  0  0  0  0  0  0  0  0  0  0
    4.3788    0.8495   -2.1818 S   0  0  0  0  0  0  0  0  0  0  0  0
    4.5864    1.5030   -0.8702 O   0  0  0  0  0  0  0  0  0  0  0  0
    3.6502   -0.4378   -2.1335 O   0  0  0  0  0  0  0  0  0  0  0  0
    3.4766    1.8683   -3.0792 O   0  0  0  0  0  0  0  0  0  0  0  0
    9.2523    0.8092   -5.7483 C   0  0  0  0  0  0  0  0  0  0  0  0
   10.1345    1.2080   -5.2324 H   0  0  0  0  0  0  0  0  0  0  0  0
    9.5095   -0.2026   -6.0829 H   0  0  0  0  0  0  0  0  0  0  0  0
    9.0816    1.4224   -6.6377 H   0  0  0  0  0  0  0  0  0  0  0  0
   -2.7347   -0.0509   -2.9024 O   0  0  0  0  0  0  0  0  0  0  0  0
   -4.0558    0.4879   -2.8200 C   0  0  0  0  0  0  0  0  0  0  0  0
   -4.6979   -0.2329   -3.3250 H   0  0  0  0  0  0  0  0  0  0  0  0
   -4.1202    1.4551   -3.3302 H   0  0  0  0  0  0  0  0  0  0  0  0
   -4.3750    0.5945   -1.7774 H   0  0  0  0  0  0  0  0  0  0  0  0
  1  6  2  0  0  0  0
  1  2  1  0  0  0  0
  2  3  2  0  0  0  0
  3  4  1  0  0  0  0
  3 11  1  0  0  0  0
  4  9  1  0  0  0  0
  5 10  1  0  0  0  0
  5  4  2  0  0  0  0
  6  5  1  0  0  0  0
  7  1  1  0  0  0  0
  8  2  1  0  0  0  0
 11 12  1  0  0  0  0
 13 19  1  0  0  0  0
 14 20  1  0  0  0  0
 14 13  2  0  0  0  0
 15 14  1  0  0  0  0
 16 15  2  0  0  0  0
 16 17  1  0  0  0  0
 17 18  2  0  0  0  0
 18 13  1  0  0  0  0
 18 23  1  0  0  0  0
 21 16  1  0  0  0  0
 22 26  1  0  0  0  0
 23 25  2  0  0  0  0
 23 24  2  0  0  0  0
 26 23  1  0  0  0  0
 27 28  1  0  0  0  0
 27 15  1  0  0  0  0
 29 27  1  0  0  0  0
 30 27  1  0  0  0  0
 31 32  1  0  0  0  0
 31  6  1  0  0  0  0
 32 35  1  0  0  0  0
 33 32  1  0  0  0  0
 34 32  1  0  0  0  0
M  RAD  3  11   2  12   3  17   2
M  END
