Coordinates from ORCA-job p-CH3O-Ph-N2-X-OTs-B3LYPG-6-31G_dp-scan-d09-49-n400
 OpenBabel08281821023D

 35 35  0  0  0  0  0  0  0  0999 V2000
   -0.3495   -0.0934   -2.3554 C   0  0  0  0  0  0  0  0  0  0  0  0
    0.7817    0.4596   -1.7921 C   0  0  0  0  0  0  0  0  0  0  0  0
    0.6652    1.7562   -1.2415 C   0  0  0  0  0  0  0  0  0  0  0  0
   -0.5380    2.4826   -1.2605 C   0  0  0  0  0  0  0  0  0  0  0  0
   -1.6561    1.9148   -1.8458 C   0  0  0  0  0  0  0  0  0  0  0  0
   -1.5664    0.6190   -2.3971 C   0  0  0  0  0  0  0  0  0  0  0  0
   -0.3185   -1.0852   -2.7908 H   0  0  0  0  0  0  0  0  0  0  0  0
    1.7352   -0.0694   -1.7691 H   0  0  0  0  0  0  0  0  0  0  0  0
   -0.5813    3.4757   -0.8281 H   0  0  0  0  0  0  0  0  0  0  0  0
   -2.5830    2.4728   -1.8725 H   0  0  0  0  0  0  0  0  0  0  0  0
    1.7506    2.3501   -0.6444 N   0  0  0  0  0  0  0  0  0  0  0  0
    2.6664    2.7760   -0.1526 N   0  0  0  0  0  0  0  0  0  0  0  0
    6.9171    0.1035   -2.7004 C   0  0  0  0  0  0  0  0  0  0  0  0
    7.9432    0.1593   -3.6438 C   0  0  0  0  0  0  0  0  0  0  0  0
    7.7844    0.8450   -4.8611 C   0  0  0  0  0  0  0  0  0  0  0  0
    6.5627    1.4808   -5.1300 C   0  0  0  0  0  0  0  0  0  0  0  0
    5.5301    1.4355   -4.1966 C   0  0  0  0  0  0  0  0  0  0  0  0
    5.7223    0.7509   -3.0019 C   0  0  0  0  0  0  0  0  0  0  0  0
    7.0467   -0.4309   -1.7646 H   0  0  0  0  0  0  0  0  0  0  0  0
    8.8872   -0.3397   -3.4365 H   0  0  0  0  0  0  0  0  0  0  0  0
    6.4313    2.0058   -6.0735 H   0  0  0  0  0  0  0  0  0  0  0  0
    4.5076    1.8522   -4.2077 H   0  0  0  0  0  0  0  0  0  0  0  0
    4.2475    0.8346   -1.9944 S   0  0  0  0  0  0  0  0  0  0  0  0
    4.5865    1.5767   -0.7285 O   0  0  0  0  0  0  0  0  0  0  0  0
    3.7519   -0.5472   -1.7366 O   0  0  0  0  0  0  0  0  0  0  0  0
    3.3435    1.6349   -2.8892 O   0  0  0  0  0  0  0  0  0  0  0  0
    8.9247    0.9108   -5.8509 C   0  0  0  0  0  0  0  0  0  0  0  0
    9.6689    1.6597   -5.5508 H   0  0  0  0  0  0  0  0  0  0  0  0
    9.4469   -0.0488   -5.9270 H   0  0  0  0  0  0  0  0  0  0  0  0
    8.5723    1.1836   -6.8499 H   0  0  0  0  0  0  0  0  0  0  0  0
   -2.5904   -0.0225   -2.9828 O   0  0  0  0  0  0  0  0  0  0  0  0
   -3.8603    0.6236   -3.0881 C   0  0  0  0  0  0  0  0  0  0  0  0
   -4.5092   -0.0873   -3.5991 H   0  0  0  0  0  0  0  0  0  0  0  0
   -3.7878    1.5433   -3.6784 H   0  0  0  0  0  0  0  0  0  0  0  0
   -4.2730    0.8491   -2.0986 H   0  0  0  0  0  0  0  0  0  0  0  0
  1  2  1  0  0  0  0
  2  8  1  0  0  0  0
  2  3  2  0  0  0  0
  3 11  1  0  0  0  0
  4  3  1  0  0  0  0
  4  9  1  0  0  0  0
  5  4  2  0  0  0  0
  6  1  2  0  0  0  0
  6  5  1  0  0  0  0
  7  1  1  0  0  0  0
 10  5  1  0  0  0  0
 11 12  1  0  0  0  0
 13 19  1  0  0  0  0
 14 20  1  0  0  0  0
 14 13  2  0  0  0  0
 15 14  1  0  0  0  0
 16 15  2  0  0  0  0
 16 17  1  0  0  0  0
 17 18  2  0  0  0  0
 18 13  1  0  0  0  0
 18 23  1  0  0  0  0
 21 16  1  0  0  0  0
 22 17  1  0  0  0  0
 23 25  2  0  0  0  0
 23 24  1  0  0  0  0
 26 23  2  0  0  0  0
 27 28  1  0  0  0  0
 27 15  1  0  0  0  0
 29 27  1  0  0  0  0
 30 27  1  0  0  0  0
 31  6  1  0  0  0  0
 32 31  1  0  0  0  0
 32 35  1  0  0  0  0
 33 32  1  0  0  0  0
 34 32  1  0  0  0  0
M  RAD  3  11   2  12   3  24   2
M  END
