Coordinates from ORCA-job p-CH3O-Ph-N2-X-OTs-B3LYPG-6-31G_dp-scan-d09-49-n400
 OpenBabel08281821023D

 35 35  0  0  0  0  0  0  0  0999 V2000
   -0.2754   -0.1053   -2.3515 C   0  0  0  0  0  0  0  0  0  0  0  0
    0.8359    0.4435   -1.7470 C   0  0  0  0  0  0  0  0  0  0  0  0
    0.7123    1.7517   -1.2269 C   0  0  0  0  0  0  0  0  0  0  0  0
   -0.4778    2.4952   -1.3153 C   0  0  0  0  0  0  0  0  0  0  0  0
   -1.5750    1.9308   -1.9412 C   0  0  0  0  0  0  0  0  0  0  0  0
   -1.4789    0.6229   -2.4632 C   0  0  0  0  0  0  0  0  0  0  0  0
   -0.2388   -1.1057   -2.7666 H   0  0  0  0  0  0  0  0  0  0  0  0
    1.7809   -0.0952   -1.6670 H   0  0  0  0  0  0  0  0  0  0  0  0
   -0.5267    3.4974   -0.9048 H   0  0  0  0  0  0  0  0  0  0  0  0
   -2.4914    2.5007   -2.0222 H   0  0  0  0  0  0  0  0  0  0  0  0
    1.7777    2.3412   -0.5914 N   0  0  0  0  0  0  0  0  0  0  0  0
    2.6488    2.7941   -0.0484 N   0  0  0  0  0  0  0  0  0  0  0  0
    6.9904    0.1069   -2.6489 C   0  0  0  0  0  0  0  0  0  0  0  0
    7.9296    0.1805   -3.6783 C   0  0  0  0  0  0  0  0  0  0  0  0
    7.6438    0.8474   -4.8844 C   0  0  0  0  0  0  0  0  0  0  0  0
    6.3862    1.4485   -5.0577 C   0  0  0  0  0  0  0  0  0  0  0  0
    5.4289    1.3940   -4.0448 C   0  0  0  0  0  0  0  0  0  0  0  0
    5.7635    0.7227   -2.8719 C   0  0  0  0  0  0  0  0  0  0  0  0
    7.2150   -0.4118   -1.7218 H   0  0  0  0  0  0  0  0  0  0  0  0
    8.9025   -0.2885   -3.5499 H   0  0  0  0  0  0  0  0  0  0  0  0
    6.1729    1.9564   -5.9970 H   0  0  0  0  0  0  0  0  0  0  0  0
    4.3199    1.7312   -3.7862 H   0  0  0  0  0  0  0  0  0  0  0  0
    4.3307    0.8189   -1.7983 S   0  0  0  0  0  0  0  0  0  0  0  0
    4.6558    1.6066   -0.5648 O   0  0  0  0  0  0  0  0  0  0  0  0
    3.7880   -0.5379   -1.5114 O   0  0  0  0  0  0  0  0  0  0  0  0
    3.4340    1.6148   -2.7461 O   0  0  0  0  0  0  0  0  0  0  0  0
    8.6934    0.9232   -5.9702 C   0  0  0  0  0  0  0  0  0  0  0  0
    9.4996    1.6165   -5.6987 H   0  0  0  0  0  0  0  0  0  0  0  0
    9.1576   -0.0526   -6.1505 H   0  0  0  0  0  0  0  0  0  0  0  0
    8.2656    1.2718   -6.9144 H   0  0  0  0  0  0  0  0  0  0  0  0
   -2.4831   -0.0152   -3.0834 O   0  0  0  0  0  0  0  0  0  0  0  0
   -3.7376    0.6456   -3.2621 C   0  0  0  0  0  0  0  0  0  0  0  0
   -4.3714   -0.0672   -3.7891 H   0  0  0  0  0  0  0  0  0  0  0  0
   -3.6235    1.5517   -3.8667 H   0  0  0  0  0  0  0  0  0  0  0  0
   -4.1931    0.8967   -2.2980 H   0  0  0  0  0  0  0  0  0  0  0  0
  1  2  1  0  0  0  0
  2  8  1  0  0  0  0
  2  3  2  0  0  0  0
  3 11  1  0  0  0  0
  4  3  1  0  0  0  0
  4  9  1  0  0  0  0
  5  4  2  0  0  0  0
  6  1  2  0  0  0  0
  6  5  1  0  0  0  0
  7  1  1  0  0  0  0
 10  5  1  0  0  0  0
 11 12  1  0  0  0  0
 13 19  1  0  0  0  0
 14 20  1  0  0  0  0
 14 13  2  0  0  0  0
 15 14  1  0  0  0  0
 16 15  2  0  0  0  0
 16 17  1  0  0  0  0
 17 22  1  0  0  0  0
 17 18  2  0  0  0  0
 18 13  1  0  0  0  0
 18 23  1  0  0  0  0
 21 16  1  0  0  0  0
 23 25  2  0  0  0  0
 23 24  1  0  0  0  0
 26 23  2  0  0  0  0
 27 28  1  0  0  0  0
 27 15  1  0  0  0  0
 29 27  1  0  0  0  0
 30 27  1  0  0  0  0
 31  6  1  0  0  0  0
 32 31  1  0  0  0  0
 32 35  1  0  0  0  0
 33 32  1  0  0  0  0
 34 32  1  0  0  0  0
M  RAD  3  11   2  12   3  24   2
M  END
