Coordinates from ORCA-job p-CH3O-Ph-N2-X-OTs-B3LYPG-6-31G_dp-scan-d09-49-n400
 OpenBabel08281821023D

 35 35  0  0  0  0  0  0  0  0999 V2000
   -0.2536   -0.1150   -2.3465 C   0  0  0  0  0  0  0  0  0  0  0  0
    0.8485    0.4311   -1.7240 C   0  0  0  0  0  0  0  0  0  0  0  0
    0.7202    1.7397   -1.2062 C   0  0  0  0  0  0  0  0  0  0  0  0
   -0.4657    2.4878   -1.3145 C   0  0  0  0  0  0  0  0  0  0  0  0
   -1.5536    1.9259   -1.9583 C   0  0  0  0  0  0  0  0  0  0  0  0
   -1.4531    0.6173   -2.4782 C   0  0  0  0  0  0  0  0  0  0  0  0
   -0.2130   -1.1152   -2.7615 H   0  0  0  0  0  0  0  0  0  0  0  0
    1.7918   -0.1077   -1.6284 H   0  0  0  0  0  0  0  0  0  0  0  0
   -0.5182    3.4905   -0.9059 H   0  0  0  0  0  0  0  0  0  0  0  0
   -2.4666    2.4988   -2.0552 H   0  0  0  0  0  0  0  0  0  0  0  0
    1.7780    2.3251   -0.5547 N   0  0  0  0  0  0  0  0  0  0  0  0
    2.6245    2.7941    0.0118 N   0  0  0  0  0  0  0  0  0  0  0  0
    6.9918    0.1238   -2.6529 C   0  0  0  0  0  0  0  0  0  0  0  0
    7.9188    0.1824   -3.6920 C   0  0  0  0  0  0  0  0  0  0  0  0
    7.6159    0.8424   -4.8990 C   0  0  0  0  0  0  0  0  0  0  0  0
    6.3589    1.4480   -5.0572 C   0  0  0  0  0  0  0  0  0  0  0  0
    5.3981    1.4187   -4.0396 C   0  0  0  0  0  0  0  0  0  0  0  0
    5.7672    0.7483   -2.8750 C   0  0  0  0  0  0  0  0  0  0  0  0
    7.2235   -0.3880   -1.7232 H   0  0  0  0  0  0  0  0  0  0  0  0
    8.8911   -0.2900   -3.5725 H   0  0  0  0  0  0  0  0  0  0  0  0
    6.1452    1.9486   -6.0019 H   0  0  0  0  0  0  0  0  0  0  0  0
    4.1867    1.7449   -3.6226 H   0  0  0  0  0  0  0  0  0  0  0  0
    4.3735    0.8360   -1.7492 S   0  0  0  0  0  0  0  0  0  0  0  0
    4.6918    1.6396   -0.5310 O   0  0  0  0  0  0  0  0  0  0  0  0
    3.8009   -0.5055   -1.4581 O   0  0  0  0  0  0  0  0  0  0  0  0
    3.4419    1.6446   -2.6990 O   0  0  0  0  0  0  0  0  0  0  0  0
    8.6487    0.8999   -6.0023 C   0  0  0  0  0  0  0  0  0  0  0  0
    9.5023    1.5286   -5.7197 H   0  0  0  0  0  0  0  0  0  0  0  0
    9.0473   -0.0944   -6.2334 H   0  0  0  0  0  0  0  0  0  0  0  0
    8.2252    1.3135   -6.9219 H   0  0  0  0  0  0  0  0  0  0  0  0
   -2.4481   -0.0175   -3.1146 O   0  0  0  0  0  0  0  0  0  0  0  0
   -3.6976    0.6472   -3.3170 C   0  0  0  0  0  0  0  0  0  0  0  0
   -4.3236   -0.0646   -3.8543 H   0  0  0  0  0  0  0  0  0  0  0  0
   -3.5692    1.5517   -3.9210 H   0  0  0  0  0  0  0  0  0  0  0  0
   -4.1693    0.9009   -2.3614 H   0  0  0  0  0  0  0  0  0  0  0  0
  1  2  1  0  0  0  0
  2  8  1  0  0  0  0
  2  3  2  0  0  0  0
  3 11  1  0  0  0  0
  4  3  1  0  0  0  0
  4  9  1  0  0  0  0
  5  4  2  0  0  0  0
  6  1  2  0  0  0  0
  6  5  1  0  0  0  0
  7  1  1  0  0  0  0
 10  5  1  0  0  0  0
 11 12  1  0  0  0  0
 13 19  1  0  0  0  0
 14 20  1  0  0  0  0
 14 13  2  0  0  0  0
 15 14  1  0  0  0  0
 16 15  2  0  0  0  0
 16 17  1  0  0  0  0
 17 18  2  0  0  0  0
 18 13  1  0  0  0  0
 18 23  1  0  0  0  0
 21 16  1  0  0  0  0
 22 26  1  0  0  0  0
 23 25  2  0  0  0  0
 23 24  2  0  0  0  0
 26 23  1  0  0  0  0
 27 28  1  0  0  0  0
 27 15  1  0  0  0  0
 29 27  1  0  0  0  0
 30 27  1  0  0  0  0
 31  6  1  0  0  0  0
 32 31  1  0  0  0  0
 32 35  1  0  0  0  0
 33 32  1  0  0  0  0
 34 32  1  0  0  0  0
M  RAD  3  11   2  12   3  17   2
M  END
