Coordinates from ORCA-job p-CH3O-Ph-N2-X-OTs-B3LYPG-6-31G_dp-scan-d09-49-n400
 OpenBabel08281821023D

 35 35  0  0  0  0  0  0  0  0999 V2000
   -0.2521   -0.1193   -2.3460 C   0  0  0  0  0  0  0  0  0  0  0  0
    0.8470    0.4242   -1.7163 C   0  0  0  0  0  0  0  0  0  0  0  0
    0.7165    1.7299   -1.1923 C   0  0  0  0  0  0  0  0  0  0  0  0
   -0.4690    2.4789   -1.3017 C   0  0  0  0  0  0  0  0  0  0  0  0
   -1.5539    1.9199   -1.9529 C   0  0  0  0  0  0  0  0  0  0  0  0
   -1.4514    0.6137   -2.4788 C   0  0  0  0  0  0  0  0  0  0  0  0
   -0.2095   -1.1172   -2.7663 H   0  0  0  0  0  0  0  0  0  0  0  0
    1.7909   -0.1133   -1.6204 H   0  0  0  0  0  0  0  0  0  0  0  0
   -0.5232    3.4797   -0.8887 H   0  0  0  0  0  0  0  0  0  0  0  0
   -2.4666    2.4932   -2.0510 H   0  0  0  0  0  0  0  0  0  0  0  0
    1.7721    2.3114   -0.5340 N   0  0  0  0  0  0  0  0  0  0  0  0
    2.6092    2.7850    0.0426 N   0  0  0  0  0  0  0  0  0  0  0  0
    6.9852    0.1357   -2.6614 C   0  0  0  0  0  0  0  0  0  0  0  0
    7.9169    0.1811   -3.6955 C   0  0  0  0  0  0  0  0  0  0  0  0
    7.6214    0.8372   -4.9070 C   0  0  0  0  0  0  0  0  0  0  0  0
    6.3690    1.4498   -5.0711 C   0  0  0  0  0  0  0  0  0  0  0  0
    5.3969    1.4382   -4.0604 C   0  0  0  0  0  0  0  0  0  0  0  0
    5.7657    0.7692   -2.8950 C   0  0  0  0  0  0  0  0  0  0  0  0
    7.2085   -0.3725   -1.7275 H   0  0  0  0  0  0  0  0  0  0  0  0
    8.8855   -0.2973   -3.5693 H   0  0  0  0  0  0  0  0  0  0  0  0
    6.1656    1.9463   -6.0210 H   0  0  0  0  0  0  0  0  0  0  0  0
    4.1224    1.7738   -3.5800 H   0  0  0  0  0  0  0  0  0  0  0  0
    4.3889    0.8530   -1.7479 S   0  0  0  0  0  0  0  0  0  0  0  0
    4.7057    1.6599   -0.5346 O   0  0  0  0  0  0  0  0  0  0  0  0
    3.8030   -0.4819   -1.4575 O   0  0  0  0  0  0  0  0  0  0  0  0
    3.4334    1.6713   -2.6895 O   0  0  0  0  0  0  0  0  0  0  0  0
    8.6577    0.8814   -6.0076 C   0  0  0  0  0  0  0  0  0  0  0  0
    9.5229    1.4917   -5.7196 H   0  0  0  0  0  0  0  0  0  0  0  0
    9.0380   -0.1190   -6.2438 H   0  0  0  0  0  0  0  0  0  0  0  0
    8.2440    1.3082   -6.9256 H   0  0  0  0  0  0  0  0  0  0  0  0
   -2.4435   -0.0179   -3.1221 O   0  0  0  0  0  0  0  0  0  0  0  0
   -3.6922    0.6477   -3.3274 C   0  0  0  0  0  0  0  0  0  0  0  0
   -4.3156   -0.0619   -3.8707 H   0  0  0  0  0  0  0  0  0  0  0  0
   -3.5609    1.5547   -3.9269 H   0  0  0  0  0  0  0  0  0  0  0  0
   -4.1682    0.8970   -2.3729 H   0  0  0  0  0  0  0  0  0  0  0  0
  1  2  1  0  0  0  0
  2  8  1  0  0  0  0
  2  3  2  0  0  0  0
  3 11  1  0  0  0  0
  4  3  1  0  0  0  0
  4  9  1  0  0  0  0
  5  4  2  0  0  0  0
  6  1  2  0  0  0  0
  6  5  1  0  0  0  0
  7  1  1  0  0  0  0
 10  5  1  0  0  0  0
 11 12  1  0  0  0  0
 13 19  1  0  0  0  0
 14 20  1  0  0  0  0
 14 13  2  0  0  0  0
 15 14  1  0  0  0  0
 16 15  2  0  0  0  0
 16 17  1  0  0  0  0
 17 18  2  0  0  0  0
 18 13  1  0  0  0  0
 18 23  1  0  0  0  0
 21 16  1  0  0  0  0
 22 26  1  0  0  0  0
 23 25  2  0  0  0  0
 23 24  2  0  0  0  0
 26 23  1  0  0  0  0
 27 28  1  0  0  0  0
 27 15  1  0  0  0  0
 29 27  1  0  0  0  0
 30 27  1  0  0  0  0
 31  6  1  0  0  0  0
 32 31  1  0  0  0  0
 32 35  1  0  0  0  0
 33 32  1  0  0  0  0
 34 32  1  0  0  0  0
M  RAD  3  11   2  12   3  17   2
M  END
