Coordinates from ORCA-job p-CH3O-Ph-N2-X-OTs-B3LYPG-6-31G_dp-scan-d09-49-n400
 OpenBabel08281821023D

 35 35  0  0  0  0  0  0  0  0999 V2000
   -0.3196   -0.1261   -2.0229 C   0  0  0  0  0  0  0  0  0  0  0  0
    0.7646    0.6780   -1.7382 C   0  0  0  0  0  0  0  0  0  0  0  0
    0.5151    2.0520   -1.5217 C   0  0  0  0  0  0  0  0  0  0  0  0
   -0.7745    2.6074   -1.5907 C   0  0  0  0  0  0  0  0  0  0  0  0
   -1.8456    1.7844   -1.8910 C   0  0  0  0  0  0  0  0  0  0  0  0
   -1.6218    0.4087   -2.1100 C   0  0  0  0  0  0  0  0  0  0  0  0
   -0.1859   -1.1874   -2.1990 H   0  0  0  0  0  0  0  0  0  0  0  0
    1.7791    0.2824   -1.6800 H   0  0  0  0  0  0  0  0  0  0  0  0
   -0.9210    3.6675   -1.4151 H   0  0  0  0  0  0  0  0  0  0  0  0
   -2.8396    2.2082   -1.9531 H   0  0  0  0  0  0  0  0  0  0  0  0
    1.5510    2.9004   -1.2135 N   0  0  0  0  0  0  0  0  0  0  0  0
    2.4415    3.5344   -0.9513 N   0  0  0  0  0  0  0  0  0  0  0  0
    6.0577   -0.1934   -3.6303 C   0  0  0  0  0  0  0  0  0  0  0  0
    7.2136   -0.3760   -4.3884 C   0  0  0  0  0  0  0  0  0  0  0  0
    7.9884    0.7156   -4.8032 C   0  0  0  0  0  0  0  0  0  0  0  0
    7.5714    2.0036   -4.4380 C   0  0  0  0  0  0  0  0  0  0  0  0
    6.4175    2.2005   -3.6819 C   0  0  0  0  0  0  0  0  0  0  0  0
    5.6602    1.0978   -3.2821 C   0  0  0  0  0  0  0  0  0  0  0  0
    5.4644   -1.0368   -3.2950 H   0  0  0  0  0  0  0  0  0  0  0  0
    7.5212   -1.3833   -4.6597 H   0  0  0  0  0  0  0  0  0  0  0  0
    8.1613    2.8630   -4.7479 H   0  0  0  0  0  0  0  0  0  0  0  0
    6.1103    3.1985   -3.3881 H   0  0  0  0  0  0  0  0  0  0  0  0
    4.1390    1.3421   -2.3589 S   0  0  0  0  0  0  0  0  0  0  0  0
    4.4468    2.4470   -1.3789 O   0  0  0  0  0  0  0  0  0  0  0  0
    3.8371    0.0380   -1.7005 O   0  0  0  0  0  0  0  0  0  0  0  0
    3.0799    1.7577   -3.3235 O   0  0  0  0  0  0  0  0  0  0  0  0
    9.2586    0.5063   -5.5933 C   0  0  0  0  0  0  0  0  0  0  0  0
   10.1108    0.3130   -4.9294 H   0  0  0  0  0  0  0  0  0  0  0  0
    9.1737   -0.3515   -6.2681 H   0  0  0  0  0  0  0  0  0  0  0  0
    9.5076    1.3868   -6.1931 H   0  0  0  0  0  0  0  0  0  0  0  0
   -2.5901   -0.4745   -2.4040 O   0  0  0  0  0  0  0  0  0  0  0  0
   -3.9412   -0.0268   -2.5215 C   0  0  0  0  0  0  0  0  0  0  0  0
   -4.5246   -0.9153   -2.7607 H   0  0  0  0  0  0  0  0  0  0  0  0
   -4.0464    0.7075   -3.3280 H   0  0  0  0  0  0  0  0  0  0  0  0
   -4.3001    0.4019   -1.5793 H   0  0  0  0  0  0  0  0  0  0  0  0
  1  2  1  0  0  0  0
  2  8  1  0  0  0  0
  2  3  2  0  0  0  0
  3 11  1  0  0  0  0
  4  3  1  0  0  0  0
  4  9  1  0  0  0  0
  5  4  2  0  0  0  0
  6  1  2  0  0  0  0
  6  5  1  0  0  0  0
  7  1  1  0  0  0  0
 10  5  1  0  0  0  0
 11 12  1  0  0  0  0
 13 19  1  0  0  0  0
 13 18  1  0  0  0  0
 14 13  2  0  0  0  0
 15 16  2  0  0  0  0
 15 14  1  0  0  0  0
 16 17  1  0  0  0  0
 17 22  1  0  0  0  0
 17 18  2  0  0  0  0
 18 23  1  0  0  0  0
 20 14  1  0  0  0  0
 21 16  1  0  0  0  0
 23 25  2  0  0  0  0
 23 24  1  0  0  0  0
 26 23  2  0  0  0  0
 27 28  1  0  0  0  0
 27 15  1  0  0  0  0
 29 27  1  0  0  0  0
 30 27  1  0  0  0  0
 31  6  1  0  0  0  0
 32 31  1  0  0  0  0
 32 35  1  0  0  0  0
 33 32  1  0  0  0  0
 34 32  1  0  0  0  0
M  RAD  3  11   2  12   3  24   2
M  END
