Coordinates from ORCA-job p-CH3O-Ph-N2-X-OTs-B3LYPG-6-31G_dp-scan-d09-49-n400
 OpenBabel08281821023D

 35 35  0  0  0  0  0  0  0  0999 V2000
   -0.2920   -0.1081   -1.8025 C   0  0  0  0  0  0  0  0  0  0  0  0
    0.7702    0.7598   -1.6564 C   0  0  0  0  0  0  0  0  0  0  0  0
    0.4857    2.1440   -1.6846 C   0  0  0  0  0  0  0  0  0  0  0  0
   -0.8151    2.6463   -1.8614 C   0  0  0  0  0  0  0  0  0  0  0  0
   -1.8633    1.7574   -2.0210 C   0  0  0  0  0  0  0  0  0  0  0  0
   -1.6054    0.3706   -1.9915 C   0  0  0  0  0  0  0  0  0  0  0  0
   -0.1315   -1.1803   -1.7880 H   0  0  0  0  0  0  0  0  0  0  0  0
    1.7925    0.4017   -1.5312 H   0  0  0  0  0  0  0  0  0  0  0  0
   -0.9877    3.7171   -1.8788 H   0  0  0  0  0  0  0  0  0  0  0  0
   -2.8654    2.1388   -2.1666 H   0  0  0  0  0  0  0  0  0  0  0  0
    1.4969    3.0590   -1.5189 N   0  0  0  0  0  0  0  0  0  0  0  0
    2.3668    3.7498   -1.3536 N   0  0  0  0  0  0  0  0  0  0  0  0
    5.8277   -0.0614   -4.0110 C   0  0  0  0  0  0  0  0  0  0  0  0
    6.9935   -0.2585   -4.7456 C   0  0  0  0  0  0  0  0  0  0  0  0
    8.0039    0.7152   -4.7776 C   0  0  0  0  0  0  0  0  0  0  0  0
    7.8099    1.8954   -4.0502 C   0  0  0  0  0  0  0  0  0  0  0  0
    6.6443    2.1076   -3.3117 C   0  0  0  0  0  0  0  0  0  0  0  0
    5.6529    1.1277   -3.2976 C   0  0  0  0  0  0  0  0  0  0  0  0
    5.0575   -0.8252   -3.9783 H   0  0  0  0  0  0  0  0  0  0  0  0
    7.1256   -1.1843   -5.3010 H   0  0  0  0  0  0  0  0  0  0  0  0
    8.5827    2.6611   -4.0586 H   0  0  0  0  0  0  0  0  0  0  0  0
    6.5030    3.0186   -2.7405 H   0  0  0  0  0  0  0  0  0  0  0  0
    4.1198    1.3859   -2.3958 S   0  0  0  0  0  0  0  0  0  0  0  0
    4.3737    2.5790   -1.5088 O   0  0  0  0  0  0  0  0  0  0  0  0
    3.8682    0.1297   -1.6332 O   0  0  0  0  0  0  0  0  0  0  0  0
    3.0487    1.6663   -3.3967 O   0  0  0  0  0  0  0  0  0  0  0  0
    9.2786    0.4774   -5.5532 C   0  0  0  0  0  0  0  0  0  0  0  0
    9.9774   -0.1506   -4.9855 H   0  0  0  0  0  0  0  0  0  0  0  0
    9.0818   -0.0349   -6.5005 H   0  0  0  0  0  0  0  0  0  0  0  0
    9.7920    1.4168   -5.7778 H   0  0  0  0  0  0  0  0  0  0  0  0
   -2.5497   -0.5739   -2.1324 O   0  0  0  0  0  0  0  0  0  0  0  0
   -3.9082   -0.1861   -2.3420 C   0  0  0  0  0  0  0  0  0  0  0  0
   -4.4687   -1.1161   -2.4290 H   0  0  0  0  0  0  0  0  0  0  0  0
   -4.0156    0.3935   -3.2655 H   0  0  0  0  0  0  0  0  0  0  0  0
   -4.2906    0.3923   -1.4933 H   0  0  0  0  0  0  0  0  0  0  0  0
  1  7  1  0  0  0  0
  1  2  2  0  0  0  0
  2  8  1  0  0  0  0
  3  2  1  0  0  0  0
  3 11  1  0  0  0  0
  4  3  2  0  0  0  0
  5  6  2  0  0  0  0
  5  4  1  0  0  0  0
  6  1  1  0  0  0  0
  9  4  1  0  0  0  0
 10  5  1  0  0  0  0
 11 12  1  0  0  0  0
 13 19  1  0  0  0  0
 13 18  2  0  0  0  0
 14 13  1  0  0  0  0
 15 14  2  0  0  0  0
 15 16  1  0  0  0  0
 16 17  2  0  0  0  0
 17 18  1  0  0  0  0
 17 22  1  0  0  0  0
 18 23  1  0  0  0  0
 20 14  1  0  0  0  0
 21 16  1  0  0  0  0
 23 25  2  0  0  0  0
 23 24  1  0  0  0  0
 26 23  2  0  0  0  0
 27 28  1  0  0  0  0
 27 15  1  0  0  0  0
 29 27  1  0  0  0  0
 30 27  1  0  0  0  0
 31  6  1  0  0  0  0
 32 31  1  0  0  0  0
 32 35  1  0  0  0  0
 33 32  1  0  0  0  0
 34 32  1  0  0  0  0
M  RAD  3  11   2  12   3  24   2
M  END
