Coordinates from ORCA-job p-CH3O-Ph-N2-X-OTs-B3LYPG-6-31G_dp-scan-d09-49-n400
 OpenBabel08281821023D

 35 35  0  0  0  0  0  0  0  0999 V2000
   -0.2538   -0.1161   -2.3466 C   0  0  0  0  0  0  0  0  0  0  0  0
    0.8472    0.4294   -1.7218 C   0  0  0  0  0  0  0  0  0  0  0  0
    0.7179    1.7368   -1.2015 C   0  0  0  0  0  0  0  0  0  0  0  0
   -0.4682    2.4848   -1.3095 C   0  0  0  0  0  0  0  0  0  0  0  0
   -1.5552    1.9236   -1.9555 C   0  0  0  0  0  0  0  0  0  0  0  0
   -1.4536    0.6160   -2.4779 C   0  0  0  0  0  0  0  0  0  0  0  0
   -0.2123   -1.1153   -2.7638 H   0  0  0  0  0  0  0  0  0  0  0  0
    1.7909   -0.1087   -1.6267 H   0  0  0  0  0  0  0  0  0  0  0  0
   -0.5216    3.4867   -0.8991 H   0  0  0  0  0  0  0  0  0  0  0  0
   -2.4683    2.4963   -2.0523 H   0  0  0  0  0  0  0  0  0  0  0  0
    1.7750    2.3211   -0.5480 N   0  0  0  0  0  0  0  0  0  0  0  0
    2.6184    2.7919    0.0216 N   0  0  0  0  0  0  0  0  0  0  0  0
    6.9898    0.1275   -2.6571 C   0  0  0  0  0  0  0  0  0  0  0  0
    7.9192    0.1811   -3.6936 C   0  0  0  0  0  0  0  0  0  0  0  0
    7.6201    0.8403   -4.9022 C   0  0  0  0  0  0  0  0  0  0  0  0
    6.3653    1.4492   -5.0631 C   0  0  0  0  0  0  0  0  0  0  0  0
    5.3989    1.4270   -4.0489 C   0  0  0  0  0  0  0  0  0  0  0  0
    5.7675    0.7562   -2.8842 C   0  0  0  0  0  0  0  0  0  0  0  0
    7.2174   -0.3835   -1.7259 H   0  0  0  0  0  0  0  0  0  0  0  0
    8.8898   -0.2941   -3.5711 H   0  0  0  0  0  0  0  0  0  0  0  0
    6.1566    1.9487   -6.0098 H   0  0  0  0  0  0  0  0  0  0  0  0
    4.1578    1.7562   -3.6026 H   0  0  0  0  0  0  0  0  0  0  0  0
    4.3802    0.8418   -1.7498 S   0  0  0  0  0  0  0  0  0  0  0  0
    4.6964    1.6468   -0.5334 O   0  0  0  0  0  0  0  0  0  0  0  0
    3.8010   -0.4967   -1.4597 O   0  0  0  0  0  0  0  0  0  0  0  0
    3.4391    1.6550   -2.6969 O   0  0  0  0  0  0  0  0  0  0  0  0
    8.6550    0.8928   -6.0038 C   0  0  0  0  0  0  0  0  0  0  0  0
    9.5136    1.5134   -5.7180 H   0  0  0  0  0  0  0  0  0  0  0  0
    9.0458   -0.1040   -6.2376 H   0  0  0  0  0  0  0  0  0  0  0  0
    8.2362    1.3128   -6.9226 H   0  0  0  0  0  0  0  0  0  0  0  0
   -2.4476   -0.0179   -3.1164 O   0  0  0  0  0  0  0  0  0  0  0  0
   -3.6972    0.6466   -3.3191 C   0  0  0  0  0  0  0  0  0  0  0  0
   -4.3223   -0.0646   -3.8584 H   0  0  0  0  0  0  0  0  0  0  0  0
   -3.5685    1.5522   -3.9213 H   0  0  0  0  0  0  0  0  0  0  0  0
   -4.1702    0.8983   -2.3636 H   0  0  0  0  0  0  0  0  0  0  0  0
  1  2  1  0  0  0  0
  2  8  1  0  0  0  0
  2  3  2  0  0  0  0
  3 11  1  0  0  0  0
  4  3  1  0  0  0  0
  4  9  1  0  0  0  0
  5  4  2  0  0  0  0
  6  1  2  0  0  0  0
  6  5  1  0  0  0  0
  7  1  1  0  0  0  0
 10  5  1  0  0  0  0
 11 12  1  0  0  0  0
 13 19  1  0  0  0  0
 14 20  1  0  0  0  0
 14 13  2  0  0  0  0
 15 14  1  0  0  0  0
 16 15  2  0  0  0  0
 16 17  1  0  0  0  0
 17 18  2  0  0  0  0
 18 13  1  0  0  0  0
 18 23  1  0  0  0  0
 21 16  1  0  0  0  0
 22 26  1  0  0  0  0
 23 25  2  0  0  0  0
 23 24  2  0  0  0  0
 26 23  1  0  0  0  0
 27 28  1  0  0  0  0
 27 15  1  0  0  0  0
 29 27  1  0  0  0  0
 30 27  1  0  0  0  0
 31  6  1  0  0  0  0
 32 31  1  0  0  0  0
 32 35  1  0  0  0  0
 33 32  1  0  0  0  0
 34 32  1  0  0  0  0
M  RAD  3  11   2  12   3  17   2
M  END
