Coordinates from ORCA-job p-CH3O-Ph-N2-X-OTs-B3LYPG-6-31G_dp-scan-d09-49-n400
 OpenBabel08281821023D

 35 35  0  0  0  0  0  0  0  0999 V2000
   -0.2977   -0.1134   -1.8372 C   0  0  0  0  0  0  0  0  0  0  0  0
    0.7685    0.7455   -1.6696 C   0  0  0  0  0  0  0  0  0  0  0  0
    0.4902    2.1313   -1.6601 C   0  0  0  0  0  0  0  0  0  0  0  0
   -0.8085    2.6439   -1.8211 C   0  0  0  0  0  0  0  0  0  0  0  0
   -1.8610    1.7642   -2.0027 C   0  0  0  0  0  0  0  0  0  0  0  0
   -1.6092    0.3760   -2.0108 C   0  0  0  0  0  0  0  0  0  0  0  0
   -0.1420   -1.1864   -1.8520 H   0  0  0  0  0  0  0  0  0  0  0  0
    1.7895    0.3800   -1.5546 H   0  0  0  0  0  0  0  0  0  0  0  0
   -0.9764    3.7155   -1.8090 H   0  0  0  0  0  0  0  0  0  0  0  0
   -2.8616    2.1539   -2.1362 H   0  0  0  0  0  0  0  0  0  0  0  0
    1.5059    3.0368   -1.4713 N   0  0  0  0  0  0  0  0  0  0  0  0
    2.3797    3.7189   -1.2895 N   0  0  0  0  0  0  0  0  0  0  0  0
    5.8631   -0.0950   -3.9498 C   0  0  0  0  0  0  0  0  0  0  0  0
    7.0264   -0.2877   -4.6902 C   0  0  0  0  0  0  0  0  0  0  0  0
    8.0019    0.7168   -4.7827 C   0  0  0  0  0  0  0  0  0  0  0  0
    7.7763    1.9238   -4.1098 C   0  0  0  0  0  0  0  0  0  0  0  0
    6.6132    2.1317   -3.3668 C   0  0  0  0  0  0  0  0  0  0  0  0
    5.6559    1.1205   -3.2924 C   0  0  0  0  0  0  0  0  0  0  0  0
    5.1206   -0.8820   -3.8669 H   0  0  0  0  0  0  0  0  0  0  0  0
    7.1838   -1.2345   -5.2019 H   0  0  0  0  0  0  0  0  0  0  0  0
    8.5227    2.7133   -4.1647 H   0  0  0  0  0  0  0  0  0  0  0  0
    6.4494    3.0630   -2.8357 H   0  0  0  0  0  0  0  0  0  0  0  0
    4.1229    1.3758   -2.3899 S   0  0  0  0  0  0  0  0  0  0  0  0
    4.3851    2.5534   -1.4845 O   0  0  0  0  0  0  0  0  0  0  0  0
    3.8621    0.1092   -1.6476 O   0  0  0  0  0  0  0  0  0  0  0  0
    3.0540    1.6808   -3.3859 O   0  0  0  0  0  0  0  0  0  0  0  0
    9.2752    0.4853   -5.5622 C   0  0  0  0  0  0  0  0  0  0  0  0
   10.0065   -0.0796   -4.9695 H   0  0  0  0  0  0  0  0  0  0  0  0
    9.0877   -0.0894   -6.4749 H   0  0  0  0  0  0  0  0  0  0  0  0
    9.7469    1.4297   -5.8485 H   0  0  0  0  0  0  0  0  0  0  0  0
   -2.5580   -0.5603   -2.1748 O   0  0  0  0  0  0  0  0  0  0  0  0
   -3.9156   -0.1614   -2.3689 C   0  0  0  0  0  0  0  0  0  0  0  0
   -4.4806   -1.0866   -2.4766 H   0  0  0  0  0  0  0  0  0  0  0  0
   -4.0244    0.4415   -3.2773 H   0  0  0  0  0  0  0  0  0  0  0  0
   -4.2920    0.3972   -1.5045 H   0  0  0  0  0  0  0  0  0  0  0  0
  1  2  2  0  0  0  0
  2  3  1  0  0  0  0
  2  8  1  0  0  0  0
  3 11  1  0  0  0  0
  4  9  1  0  0  0  0
  4  3  2  0  0  0  0
  5  4  1  0  0  0  0
  6  5  2  0  0  0  0
  6  1  1  0  0  0  0
  7  1  1  0  0  0  0
 10  5  1  0  0  0  0
 11 12  1  0  0  0  0
 13 19  1  0  0  0  0
 13 18  2  0  0  0  0
 14 13  1  0  0  0  0
 15 14  2  0  0  0  0
 15 16  1  0  0  0  0
 16 17  2  0  0  0  0
 17 18  1  0  0  0  0
 17 22  1  0  0  0  0
 18 23  1  0  0  0  0
 20 14  1  0  0  0  0
 21 16  1  0  0  0  0
 23 25  2  0  0  0  0
 23 24  1  0  0  0  0
 26 23  2  0  0  0  0
 27 28  1  0  0  0  0
 27 15  1  0  0  0  0
 29 27  1  0  0  0  0
 30 27  1  0  0  0  0
 31  6  1  0  0  0  0
 32 31  1  0  0  0  0
 32 35  1  0  0  0  0
 33 32  1  0  0  0  0
 34 32  1  0  0  0  0
M  RAD  3  11   2  12   3  24   2
M  END
