Coordinates from ORCA-job p-CH3O-Ph-N2-X-OTs-B3LYPG-6-31G_dp-scan-d09-49-n400
 OpenBabel08281821023D

 35 35  0  0  0  0  0  0  0  0999 V2000
   -0.3974   -0.0909   -2.3602 C   0  0  0  0  0  0  0  0  0  0  0  0
    0.7442    0.4660   -1.8220 C   0  0  0  0  0  0  0  0  0  0  0  0
    0.6284    1.7486   -1.2393 C   0  0  0  0  0  0  0  0  0  0  0  0
   -0.5852    2.4567   -1.2019 C   0  0  0  0  0  0  0  0  0  0  0  0
   -1.7143    1.8856   -1.7622 C   0  0  0  0  0  0  0  0  0  0  0  0
   -1.6248    0.6040   -2.3455 C   0  0  0  0  0  0  0  0  0  0  0  0
   -0.3670   -1.0726   -2.8182 H   0  0  0  0  0  0  0  0  0  0  0  0
    1.7046   -0.0503   -1.8420 H   0  0  0  0  0  0  0  0  0  0  0  0
   -0.6278    3.4394   -0.7461 H   0  0  0  0  0  0  0  0  0  0  0  0
   -2.6494    2.4300   -1.7445 H   0  0  0  0  0  0  0  0  0  0  0  0
    1.7247    2.3464   -0.6664 N   0  0  0  0  0  0  0  0  0  0  0  0
    2.6611    2.7651   -0.2065 N   0  0  0  0  0  0  0  0  0  0  0  0
    6.8276    0.1275   -2.7654 C   0  0  0  0  0  0  0  0  0  0  0  0
    7.9264    0.1419   -3.6220 C   0  0  0  0  0  0  0  0  0  0  0  0
    7.8915    0.8372   -4.8431 C   0  0  0  0  0  0  0  0  0  0  0  0
    6.7195    1.5202   -5.1948 C   0  0  0  0  0  0  0  0  0  0  0  0
    5.6136    1.5151   -4.3453 C   0  0  0  0  0  0  0  0  0  0  0  0
    5.6778    0.8213   -3.1419 C   0  0  0  0  0  0  0  0  0  0  0  0
    6.8608   -0.4152   -1.8263 H   0  0  0  0  0  0  0  0  0  0  0  0
    8.8293   -0.3964   -3.3424 H   0  0  0  0  0  0  0  0  0  0  0  0
    6.6765    2.0550   -6.1406 H   0  0  0  0  0  0  0  0  0  0  0  0
    4.6606    2.0074   -4.5314 H   0  0  0  0  0  0  0  0  0  0  0  0
    4.1898    0.8942   -2.1534 S   0  0  0  0  0  0  0  0  0  0  0  0
    4.5511    1.6100   -0.8753 O   0  0  0  0  0  0  0  0  0  0  0  0
    3.7305   -0.5032   -1.9108 O   0  0  0  0  0  0  0  0  0  0  0  0
    3.2467    1.6944   -2.9927 O   0  0  0  0  0  0  0  0  0  0  0  0
    9.1033    0.8576   -5.7459 C   0  0  0  0  0  0  0  0  0  0  0  0
    9.8820    1.5229   -5.3518 H   0  0  0  0  0  0  0  0  0  0  0  0
    9.5493   -0.1380   -5.8409 H   0  0  0  0  0  0  0  0  0  0  0  0
    8.8482    1.2100   -6.7493 H   0  0  0  0  0  0  0  0  0  0  0  0
   -2.6591   -0.0394   -2.9115 O   0  0  0  0  0  0  0  0  0  0  0  0
   -3.9407    0.5897   -2.9582 C   0  0  0  0  0  0  0  0  0  0  0  0
   -4.5968   -0.1186   -3.4635 H   0  0  0  0  0  0  0  0  0  0  0  0
   -3.9021    1.5239   -3.5289 H   0  0  0  0  0  0  0  0  0  0  0  0
   -4.3226    0.7861   -1.9502 H   0  0  0  0  0  0  0  0  0  0  0  0
  1  6  2  0  0  0  0
  1  2  1  0  0  0  0
  2  3  2  0  0  0  0
  3  4  1  0  0  0  0
  3 11  1  0  0  0  0
  4  9  1  0  0  0  0
  5 10  1  0  0  0  0
  5  4  2  0  0  0  0
  6  5  1  0  0  0  0
  7  1  1  0  0  0  0
  8  2  1  0  0  0  0
 11 12  1  0  0  0  0
 13 19  1  0  0  0  0
 14 20  1  0  0  0  0
 14 13  2  0  0  0  0
 15 14  1  0  0  0  0
 16 15  2  0  0  0  0
 16 17  1  0  0  0  0
 17 18  2  0  0  0  0
 18 13  1  0  0  0  0
 18 23  1  0  0  0  0
 21 16  1  0  0  0  0
 22 17  1  0  0  0  0
 23 25  2  0  0  0  0
 23 24  1  0  0  0  0
 26 23  2  0  0  0  0
 27 28  1  0  0  0  0
 27 15  1  0  0  0  0
 29 27  1  0  0  0  0
 30 27  1  0  0  0  0
 31  6  1  0  0  0  0
 32 31  1  0  0  0  0
 32 35  1  0  0  0  0
 33 32  1  0  0  0  0
 34 32  1  0  0  0  0
M  RAD  3  11   2  12   3  24   2
M  END
