Coordinates from ORCA-job p-CH3O-Ph-N2-X-OTs-B3LYPG-6-31G_dp-scan-d09-49-n400
 OpenBabel08281821023D

 35 35  0  0  0  0  0  0  0  0999 V2000
   -0.3108   -0.0981   -2.3561 C   0  0  0  0  0  0  0  0  0  0  0  0
    0.8110    0.4523   -1.7719 C   0  0  0  0  0  0  0  0  0  0  0  0
    0.6914    1.7554   -1.2378 C   0  0  0  0  0  0  0  0  0  0  0  0
   -0.5051    2.4914   -1.2932 C   0  0  0  0  0  0  0  0  0  0  0  0
   -1.6131    1.9258   -1.8989 C   0  0  0  0  0  0  0  0  0  0  0  0
   -1.5208    0.6232   -2.4342 C   0  0  0  0  0  0  0  0  0  0  0  0
   -0.2774   -1.0947   -2.7802 H   0  0  0  0  0  0  0  0  0  0  0  0
    1.7599   -0.0827   -1.7194 H   0  0  0  0  0  0  0  0  0  0  0  0
   -0.5508    3.4895   -0.8725 H   0  0  0  0  0  0  0  0  0  0  0  0
   -2.5346    2.4906   -1.9540 H   0  0  0  0  0  0  0  0  0  0  0  0
    1.7666    2.3466   -0.6204 N   0  0  0  0  0  0  0  0  0  0  0  0
    2.6607    2.7849   -0.1017 N   0  0  0  0  0  0  0  0  0  0  0  0
    6.9623    0.0999   -2.6675 C   0  0  0  0  0  0  0  0  0  0  0  0
    7.9393    0.1697   -3.6616 C   0  0  0  0  0  0  0  0  0  0  0  0
    7.7079    0.8466   -4.8729 C   0  0  0  0  0  0  0  0  0  0  0  0
    6.4638    1.4614   -5.0875 C   0  0  0  0  0  0  0  0  0  0  0  0
    5.4769    1.4049   -4.1063 C   0  0  0  0  0  0  0  0  0  0  0  0
    5.7473    0.7272   -2.9222 C   0  0  0  0  0  0  0  0  0  0  0  0
    7.1475   -0.4275   -1.7369 H   0  0  0  0  0  0  0  0  0  0  0  0
    8.9014   -0.3112   -3.5000 H   0  0  0  0  0  0  0  0  0  0  0  0
    6.2831    1.9783   -6.0278 H   0  0  0  0  0  0  0  0  0  0  0  0
    4.4161    1.7772   -3.9853 H   0  0  0  0  0  0  0  0  0  0  0  0
    4.2896    0.8211   -1.8867 S   0  0  0  0  0  0  0  0  0  0  0  0
    4.6214    1.5877   -0.6371 O   0  0  0  0  0  0  0  0  0  0  0  0
    3.7706   -0.5482   -1.6114 O   0  0  0  0  0  0  0  0  0  0  0  0
    3.3969    1.6168   -2.8129 O   0  0  0  0  0  0  0  0  0  0  0  0
    8.7982    0.9243   -5.9171 C   0  0  0  0  0  0  0  0  0  0  0  0
    9.5566    1.6700   -5.6461 H   0  0  0  0  0  0  0  0  0  0  0  0
    9.3162   -0.0340   -6.0303 H   0  0  0  0  0  0  0  0  0  0  0  0
    8.3963    1.2080   -6.8940 H   0  0  0  0  0  0  0  0  0  0  0  0
   -2.5354   -0.0164   -3.0370 O   0  0  0  0  0  0  0  0  0  0  0  0
   -3.7976    0.6379   -3.1798 C   0  0  0  0  0  0  0  0  0  0  0  0
   -4.4395   -0.0740   -3.6982 H   0  0  0  0  0  0  0  0  0  0  0  0
   -3.7037    1.5503   -3.7785 H   0  0  0  0  0  0  0  0  0  0  0  0
   -4.2318    0.8775   -2.2030 H   0  0  0  0  0  0  0  0  0  0  0  0
  1  2  1  0  0  0  0
  2  8  1  0  0  0  0
  2  3  2  0  0  0  0
  3 11  1  0  0  0  0
  4  3  1  0  0  0  0
  4  9  1  0  0  0  0
  5  4  2  0  0  0  0
  6  1  2  0  0  0  0
  6  5  1  0  0  0  0
  7  1  1  0  0  0  0
 10  5  1  0  0  0  0
 11 12  1  0  0  0  0
 13 19  1  0  0  0  0
 14 20  1  0  0  0  0
 14 13  2  0  0  0  0
 15 14  1  0  0  0  0
 16 15  2  0  0  0  0
 16 17  1  0  0  0  0
 17 22  1  0  0  0  0
 17 18  2  0  0  0  0
 18 13  1  0  0  0  0
 18 23  1  0  0  0  0
 21 16  1  0  0  0  0
 23 25  2  0  0  0  0
 23 24  1  0  0  0  0
 26 23  2  0  0  0  0
 27 28  1  0  0  0  0
 27 15  1  0  0  0  0
 29 27  1  0  0  0  0
 30 27  1  0  0  0  0
 31  6  1  0  0  0  0
 32 31  1  0  0  0  0
 32 35  1  0  0  0  0
 33 32  1  0  0  0  0
 34 32  1  0  0  0  0
M  RAD  3  11   2  12   3  24   2
M  END
