Coordinates from ORCA-job p-CH3O-Ph-N2-X-OTs-B3LYPG-6-31G_dp-scan-d09-49-n400
 OpenBabel08281821023D

 35 35  0  0  0  0  0  0  0  0999 V2000
   -0.3127   -0.0976   -2.3567 C   0  0  0  0  0  0  0  0  0  0  0  0
    0.8095    0.4526   -1.7733 C   0  0  0  0  0  0  0  0  0  0  0  0
    0.6902    1.7551   -1.2378 C   0  0  0  0  0  0  0  0  0  0  0  0
   -0.5067    2.4907   -1.2911 C   0  0  0  0  0  0  0  0  0  0  0  0
   -1.6152    1.9253   -1.8962 C   0  0  0  0  0  0  0  0  0  0  0  0
   -1.5231    0.6233   -2.4327 C   0  0  0  0  0  0  0  0  0  0  0  0
   -0.2795   -1.0938   -2.7818 H   0  0  0  0  0  0  0  0  0  0  0  0
    1.7587   -0.0823   -1.7225 H   0  0  0  0  0  0  0  0  0  0  0  0
   -0.5522    3.4884   -0.8695 H   0  0  0  0  0  0  0  0  0  0  0  0
   -2.5370    2.4899   -1.9496 H   0  0  0  0  0  0  0  0  0  0  0  0
    1.7658    2.3461   -0.6211 N   0  0  0  0  0  0  0  0  0  0  0  0
    2.6610    2.7836   -0.1035 N   0  0  0  0  0  0  0  0  0  0  0  0
    6.9609    0.1009   -2.6684 C   0  0  0  0  0  0  0  0  0  0  0  0
    7.9402    0.1701   -3.6603 C   0  0  0  0  0  0  0  0  0  0  0  0
    7.7115    0.8465   -4.8724 C   0  0  0  0  0  0  0  0  0  0  0  0
    6.4679    1.4612   -5.0900 C   0  0  0  0  0  0  0  0  0  0  0  0
    5.4791    1.4050   -4.1109 C   0  0  0  0  0  0  0  0  0  0  0  0
    5.7463    0.7281   -2.9256 C   0  0  0  0  0  0  0  0  0  0  0  0
    7.1441   -0.4260   -1.7371 H   0  0  0  0  0  0  0  0  0  0  0  0
    8.9019   -0.3107   -3.4963 H   0  0  0  0  0  0  0  0  0  0  0  0
    6.2890    1.9776   -6.0309 H   0  0  0  0  0  0  0  0  0  0  0  0
    4.4197    1.7785   -3.9967 H   0  0  0  0  0  0  0  0  0  0  0  0
    4.2876    0.8214   -1.8915 S   0  0  0  0  0  0  0  0  0  0  0  0
    4.6197    1.5866   -0.6409 O   0  0  0  0  0  0  0  0  0  0  0  0
    3.7696   -0.5485   -1.6173 O   0  0  0  0  0  0  0  0  0  0  0  0
    3.3946    1.6176   -2.8162 O   0  0  0  0  0  0  0  0  0  0  0  0
    8.8042    0.9239   -5.9142 C   0  0  0  0  0  0  0  0  0  0  0  0
    9.5606    1.6716   -5.6430 H   0  0  0  0  0  0  0  0  0  0  0  0
    9.3242   -0.0338   -6.0240 H   0  0  0  0  0  0  0  0  0  0  0  0
    8.4041    1.2047   -6.8927 H   0  0  0  0  0  0  0  0  0  0  0  0
   -2.5382   -0.0161   -3.0350 O   0  0  0  0  0  0  0  0  0  0  0  0
   -3.8007    0.6379   -3.1756 C   0  0  0  0  0  0  0  0  0  0  0  0
   -4.4431   -0.0737   -3.6939 H   0  0  0  0  0  0  0  0  0  0  0  0
   -3.7079    1.5509   -3.7736 H   0  0  0  0  0  0  0  0  0  0  0  0
   -4.2339    0.8765   -2.1980 H   0  0  0  0  0  0  0  0  0  0  0  0
  1  2  1  0  0  0  0
  2  8  1  0  0  0  0
  2  3  2  0  0  0  0
  3 11  1  0  0  0  0
  4  3  1  0  0  0  0
  4  9  1  0  0  0  0
  5  4  2  0  0  0  0
  6  1  2  0  0  0  0
  6  5  1  0  0  0  0
  7  1  1  0  0  0  0
 10  5  1  0  0  0  0
 11 12  1  0  0  0  0
 13 19  1  0  0  0  0
 14 20  1  0  0  0  0
 14 13  2  0  0  0  0
 15 14  1  0  0  0  0
 16 15  2  0  0  0  0
 16 17  1  0  0  0  0
 17 22  1  0  0  0  0
 17 18  2  0  0  0  0
 18 13  1  0  0  0  0
 18 23  1  0  0  0  0
 21 16  1  0  0  0  0
 23 25  2  0  0  0  0
 23 24  1  0  0  0  0
 26 23  2  0  0  0  0
 27 28  1  0  0  0  0
 27 15  1  0  0  0  0
 29 27  1  0  0  0  0
 30 27  1  0  0  0  0
 31  6  1  0  0  0  0
 32 31  1  0  0  0  0
 32 35  1  0  0  0  0
 33 32  1  0  0  0  0
 34 32  1  0  0  0  0
M  RAD  3  11   2  12   3  24   2
M  END
