Coordinates from ORCA-job p-CH3O-Ph-N2-X-OTs-B3LYPG-6-31G_dp-scan-d09-49-n400
 OpenBabel08281821023D

 35 35  0  0  0  0  0  0  0  0999 V2000
   -0.3621   -0.0945   -2.3526 C   0  0  0  0  0  0  0  0  0  0  0  0
    0.7718    0.4585   -1.7946 C   0  0  0  0  0  0  0  0  0  0  0  0
    0.6564    1.7524   -1.2374 C   0  0  0  0  0  0  0  0  0  0  0  0
   -0.5487    2.4759   -1.2447 C   0  0  0  0  0  0  0  0  0  0  0  0
   -1.6695    1.9083   -1.8247 C   0  0  0  0  0  0  0  0  0  0  0  0
   -1.5808    0.6153   -2.3826 C   0  0  0  0  0  0  0  0  0  0  0  0
   -0.3318   -1.0843   -2.7926 H   0  0  0  0  0  0  0  0  0  0  0  0
    1.7264   -0.0688   -1.7807 H   0  0  0  0  0  0  0  0  0  0  0  0
   -0.5911    3.4670   -0.8075 H   0  0  0  0  0  0  0  0  0  0  0  0
   -2.5979    2.4642   -1.8422 H   0  0  0  0  0  0  0  0  0  0  0  0
    1.7447    2.3464   -0.6457 N   0  0  0  0  0  0  0  0  0  0  0  0
    2.6670    2.7684   -0.1623 N   0  0  0  0  0  0  0  0  0  0  0  0
    6.8921    0.1116   -2.7165 C   0  0  0  0  0  0  0  0  0  0  0  0
    7.9386    0.1571   -3.6372 C   0  0  0  0  0  0  0  0  0  0  0  0
    7.8118    0.8439   -4.8574 C   0  0  0  0  0  0  0  0  0  0  0  0
    6.6014    1.4897   -5.1498 C   0  0  0  0  0  0  0  0  0  0  0  0
    5.5488    1.4539   -4.2382 C   0  0  0  0  0  0  0  0  0  0  0  0
    5.7074    0.7687   -3.0390 C   0  0  0  0  0  0  0  0  0  0  0  0
    6.9969   -0.4238   -1.7782 H   0  0  0  0  0  0  0  0  0  0  0  0
    8.8732   -0.3505   -3.4094 H   0  0  0  0  0  0  0  0  0  0  0  0
    6.4922    2.0161   -6.0952 H   0  0  0  0  0  0  0  0  0  0  0  0
    4.5444    1.8911   -4.3038 H   0  0  0  0  0  0  0  0  0  0  0  0
    4.2299    0.8476   -2.0363 S   0  0  0  0  0  0  0  0  0  0  0  0
    4.5765    1.5816   -0.7665 O   0  0  0  0  0  0  0  0  0  0  0  0
    3.7470   -0.5395   -1.7825 O   0  0  0  0  0  0  0  0  0  0  0  0
    3.3137    1.6474   -2.9138 O   0  0  0  0  0  0  0  0  0  0  0  0
    8.9722    0.8992   -5.8241 C   0  0  0  0  0  0  0  0  0  0  0  0
    9.7220    1.6339   -5.5037 H   0  0  0  0  0  0  0  0  0  0  0  0
    9.4805   -0.0680   -5.8972 H   0  0  0  0  0  0  0  0  0  0  0  0
    8.6438    1.1848   -6.8277 H   0  0  0  0  0  0  0  0  0  0  0  0
   -2.6075   -0.0258   -2.9642 O   0  0  0  0  0  0  0  0  0  0  0  0
   -3.8795    0.6178   -3.0573 C   0  0  0  0  0  0  0  0  0  0  0  0
   -4.5305   -0.0920   -3.5672 H   0  0  0  0  0  0  0  0  0  0  0  0
   -3.8134    1.5406   -3.6437 H   0  0  0  0  0  0  0  0  0  0  0  0
   -4.2858    0.8376   -2.0639 H   0  0  0  0  0  0  0  0  0  0  0  0
  1  2  1  0  0  0  0
  2  8  1  0  0  0  0
  2  3  2  0  0  0  0
  3 11  1  0  0  0  0
  4  3  1  0  0  0  0
  4  9  1  0  0  0  0
  5  4  2  0  0  0  0
  6  1  2  0  0  0  0
  6  5  1  0  0  0  0
  7  1  1  0  0  0  0
 10  5  1  0  0  0  0
 11 12  1  0  0  0  0
 13 19  1  0  0  0  0
 14 20  1  0  0  0  0
 14 13  2  0  0  0  0
 15 14  1  0  0  0  0
 16 15  2  0  0  0  0
 16 17  1  0  0  0  0
 17 18  2  0  0  0  0
 18 13  1  0  0  0  0
 18 23  1  0  0  0  0
 21 16  1  0  0  0  0
 22 17  1  0  0  0  0
 23 25  2  0  0  0  0
 23 24  1  0  0  0  0
 26 23  2  0  0  0  0
 27 28  1  0  0  0  0
 27 15  1  0  0  0  0
 29 27  1  0  0  0  0
 30 27  1  0  0  0  0
 31  6  1  0  0  0  0
 32 31  1  0  0  0  0
 32 35  1  0  0  0  0
 33 32  1  0  0  0  0
 34 32  1  0  0  0  0
M  RAD  3  11   2  12   3  24   2
M  END
