Coordinates from ORCA-job p-CH3O-Ph-N2-X-OTs-B3LYPG-6-31G_dp-scan-d09-49-n400
 OpenBabel08281821023D

 35 35  0  0  0  0  0  0  0  0999 V2000
   -0.3570   -0.1205   -2.1481 C   0  0  0  0  0  0  0  0  0  0  0  0
    0.7481    0.6251   -1.7926 C   0  0  0  0  0  0  0  0  0  0  0  0
    0.5331    1.9739   -1.4303 C   0  0  0  0  0  0  0  0  0  0  0  0
   -0.7439    2.5614   -1.4254 C   0  0  0  0  0  0  0  0  0  0  0  0
   -1.8366    1.7987   -1.7987 C   0  0  0  0  0  0  0  0  0  0  0  0
   -1.6469    0.4494   -2.1646 C   0  0  0  0  0  0  0  0  0  0  0  0
   -0.2494   -1.1599   -2.4358 H   0  0  0  0  0  0  0  0  0  0  0  0
    1.7536    0.2034   -1.7878 H   0  0  0  0  0  0  0  0  0  0  0  0
   -0.8644    3.6000   -1.1377 H   0  0  0  0  0  0  0  0  0  0  0  0
   -2.8213    2.2483   -1.8033 H   0  0  0  0  0  0  0  0  0  0  0  0
    1.5912    2.7622   -1.0467 N   0  0  0  0  0  0  0  0  0  0  0  0
    2.5032    3.3413   -0.7338 N   0  0  0  0  0  0  0  0  0  0  0  0
    6.2706   -0.1876   -3.3639 C   0  0  0  0  0  0  0  0  0  0  0  0
    7.4414   -0.3424   -4.1045 C   0  0  0  0  0  0  0  0  0  0  0  0
    8.0079    0.7357   -4.7987 C   0  0  0  0  0  0  0  0  0  0  0  0
    7.3638    1.9793   -4.7339 C   0  0  0  0  0  0  0  0  0  0  0  0
    6.1922    2.1479   -3.9980 C   0  0  0  0  0  0  0  0  0  0  0  0
    5.6465    1.0596   -3.3146 C   0  0  0  0  0  0  0  0  0  0  0  0
    5.8279   -1.0175   -2.8247 H   0  0  0  0  0  0  0  0  0  0  0  0
    7.9243   -1.3164   -4.1429 H   0  0  0  0  0  0  0  0  0  0  0  0
    7.7867    2.8272   -5.2669 H   0  0  0  0  0  0  0  0  0  0  0  0
    5.7048    3.1165   -3.9566 H   0  0  0  0  0  0  0  0  0  0  0  0
    4.1370    1.2668   -2.3630 S   0  0  0  0  0  0  0  0  0  0  0  0
    4.4739    2.2788   -1.2949 O   0  0  0  0  0  0  0  0  0  0  0  0
    3.8043   -0.0766   -1.8069 O   0  0  0  0  0  0  0  0  0  0  0  0
    3.0921    1.7905   -3.2883 O   0  0  0  0  0  0  0  0  0  0  0  0
    9.2866    0.5593   -5.5834 C   0  0  0  0  0  0  0  0  0  0  0  0
   10.1403    0.3830   -4.9179 H   0  0  0  0  0  0  0  0  0  0  0  0
    9.2253   -0.3003   -6.2603 H   0  0  0  0  0  0  0  0  0  0  0  0
    9.5133    1.4445   -6.1844 H   0  0  0  0  0  0  0  0  0  0  0  0
   -2.6381   -0.3752   -2.5413 O   0  0  0  0  0  0  0  0  0  0  0  0
   -3.9777    0.1159   -2.6051 C   0  0  0  0  0  0  0  0  0  0  0  0
   -4.5820   -0.7240   -2.9467 H   0  0  0  0  0  0  0  0  0  0  0  0
   -4.0624    0.9423   -3.3195 H   0  0  0  0  0  0  0  0  0  0  0  0
   -4.3282    0.4406   -1.6193 H   0  0  0  0  0  0  0  0  0  0  0  0
  1  2  1  0  0  0  0
  2  8  1  0  0  0  0
  2  3  2  0  0  0  0
  3  4  1  0  0  0  0
  3 11  1  0  0  0  0
  4  9  1  0  0  0  0
  5  4  2  0  0  0  0
  6  1  2  0  0  0  0
  6  5  1  0  0  0  0
  7  1  1  0  0  0  0
 10  5  1  0  0  0  0
 11 12  1  0  0  0  0
 13 18  1  0  0  0  0
 13 19  1  0  0  0  0
 14 13  2  0  0  0  0
 15 16  2  0  0  0  0
 15 14  1  0  0  0  0
 16 17  1  0  0  0  0
 17 22  1  0  0  0  0
 17 18  2  0  0  0  0
 18 23  1  0  0  0  0
 20 14  1  0  0  0  0
 21 16  1  0  0  0  0
 23 25  2  0  0  0  0
 23 24  1  0  0  0  0
 26 23  2  0  0  0  0
 27 28  1  0  0  0  0
 27 15  1  0  0  0  0
 29 27  1  0  0  0  0
 30 27  1  0  0  0  0
 31  6  1  0  0  0  0
 32 31  1  0  0  0  0
 32 35  1  0  0  0  0
 33 32  1  0  0  0  0
 34 32  1  0  0  0  0
M  RAD  3  11   2  12   3  24   2
M  END
