Coordinates from ORCA-job p-CH3O-Ph-N2-X-OTs-B3LYPG-6-31G_dp-scan-d09-49-n400
 OpenBabel08281821023D

 35 35  0  0  0  0  0  0  0  0999 V2000
   -0.3778   -0.1157   -2.2034 C   0  0  0  0  0  0  0  0  0  0  0  0
    0.7393    0.5916   -1.8092 C   0  0  0  0  0  0  0  0  0  0  0  0
    0.5467    1.9236   -1.3785 C   0  0  0  0  0  0  0  0  0  0  0  0
   -0.7198    2.5325   -1.3461 C   0  0  0  0  0  0  0  0  0  0  0  0
   -1.8246    1.8091   -1.7600 C   0  0  0  0  0  0  0  0  0  0  0  0
   -1.6574    0.4769   -2.1933 C   0  0  0  0  0  0  0  0  0  0  0  0
   -0.2877   -1.1409   -2.5432 H   0  0  0  0  0  0  0  0  0  0  0  0
    1.7375    0.1532   -1.8261 H   0  0  0  0  0  0  0  0  0  0  0  0
   -0.8226    3.5570   -1.0067 H   0  0  0  0  0  0  0  0  0  0  0  0
   -2.8012    2.2757   -1.7445 H   0  0  0  0  0  0  0  0  0  0  0  0
    1.6175    2.6728   -0.9538 N   0  0  0  0  0  0  0  0  0  0  0  0
    2.5404    3.2177   -0.6124 N   0  0  0  0  0  0  0  0  0  0  0  0
    6.3839   -0.1456   -3.2296 C   0  0  0  0  0  0  0  0  0  0  0  0
    7.5625   -0.2757   -3.9615 C   0  0  0  0  0  0  0  0  0  0  0  0
    8.0138    0.7552   -4.7984 C   0  0  0  0  0  0  0  0  0  0  0  0
    7.2447    1.9237   -4.8858 C   0  0  0  0  0  0  0  0  0  0  0  0
    6.0631    2.0672   -4.1594 C   0  0  0  0  0  0  0  0  0  0  0  0
    5.6346    1.0283   -3.3315 C   0  0  0  0  0  0  0  0  0  0  0  0
    6.0269   -0.9433   -2.5879 H   0  0  0  0  0  0  0  0  0  0  0  0
    8.1416   -1.1932   -3.8830 H   0  0  0  0  0  0  0  0  0  0  0  0
    7.5753    2.7325   -5.5329 H   0  0  0  0  0  0  0  0  0  0  0  0
    5.4741    2.9745   -4.2439 H   0  0  0  0  0  0  0  0  0  0  0  0
    4.1338    1.2110   -2.3605 S   0  0  0  0  0  0  0  0  0  0  0  0
    4.4889    2.1597   -1.2408 O   0  0  0  0  0  0  0  0  0  0  0  0
    3.7858   -0.1539   -1.8701 O   0  0  0  0  0  0  0  0  0  0  0  0
    3.0936    1.7967   -3.2530 O   0  0  0  0  0  0  0  0  0  0  0  0
    9.2976    0.6047   -5.5804 C   0  0  0  0  0  0  0  0  0  0  0  0
   10.1622    0.5134   -4.9124 H   0  0  0  0  0  0  0  0  0  0  0  0
    9.2809   -0.2947   -6.2069 H   0  0  0  0  0  0  0  0  0  0  0  0
    9.4720    1.4642   -6.2339 H   0  0  0  0  0  0  0  0  0  0  0  0
   -2.6619   -0.3099   -2.6132 O   0  0  0  0  0  0  0  0  0  0  0  0
   -3.9924    0.2077   -2.6552 C   0  0  0  0  0  0  0  0  0  0  0  0
   -4.6108   -0.6037   -3.0384 H   0  0  0  0  0  0  0  0  0  0  0  0
   -4.0606    1.0691   -3.3288 H   0  0  0  0  0  0  0  0  0  0  0  0
   -4.3397    0.4904   -1.6554 H   0  0  0  0  0  0  0  0  0  0  0  0
  1  6  2  0  0  0  0
  1  2  1  0  0  0  0
  2  3  2  0  0  0  0
  3  4  1  0  0  0  0
  3 11  1  0  0  0  0
  4  9  1  0  0  0  0
  5 10  1  0  0  0  0
  5  4  2  0  0  0  0
  6  5  1  0  0  0  0
  7  1  1  0  0  0  0
  8  2  1  0  0  0  0
 11 12  1  0  0  0  0
 13 19  1  0  0  0  0
 14 20  1  0  0  0  0
 14 13  2  0  0  0  0
 15 14  1  0  0  0  0
 16 15  2  0  0  0  0
 16 17  1  0  0  0  0
 17 18  2  0  0  0  0
 18 13  1  0  0  0  0
 18 23  1  0  0  0  0
 21 16  1  0  0  0  0
 22 17  1  0  0  0  0
 23 25  2  0  0  0  0
 23 24  1  0  0  0  0
 26 23  2  0  0  0  0
 27 28  1  0  0  0  0
 27 15  1  0  0  0  0
 29 27  1  0  0  0  0
 30 27  1  0  0  0  0
 31  6  1  0  0  0  0
 32 31  1  0  0  0  0
 32 35  1  0  0  0  0
 33 32  1  0  0  0  0
 34 32  1  0  0  0  0
M  RAD  3  11   2  12   3  24   2
M  END
