Coordinates from ORCA-job p-CH3O-Ph-N2-X-OTs-B3LYPG-6-31G_dp-scan-d09-49-n400
 OpenBabel08281821023D

 35 35  0  0  0  0  0  0  0  0999 V2000
   -0.2834   -0.1033   -2.3523 C   0  0  0  0  0  0  0  0  0  0  0  0
    0.8304    0.4461   -1.7529 C   0  0  0  0  0  0  0  0  0  0  0  0
    0.7079    1.7536   -1.2306 C   0  0  0  0  0  0  0  0  0  0  0  0
   -0.4836    2.4956   -1.3121 C   0  0  0  0  0  0  0  0  0  0  0  0
   -1.5834    1.9306   -1.9329 C   0  0  0  0  0  0  0  0  0  0  0  0
   -1.4883    0.6235   -2.4569 C   0  0  0  0  0  0  0  0  0  0  0  0
   -0.2477   -1.1032   -2.7686 H   0  0  0  0  0  0  0  0  0  0  0  0
    1.7762   -0.0921   -1.6788 H   0  0  0  0  0  0  0  0  0  0  0  0
   -0.5315    3.4971   -0.9001 H   0  0  0  0  0  0  0  0  0  0  0  0
   -2.5010    2.4995   -2.0084 H   0  0  0  0  0  0  0  0  0  0  0  0
    1.7757    2.3438   -0.5998 N   0  0  0  0  0  0  0  0  0  0  0  0
    2.6527    2.7931   -0.0629 N   0  0  0  0  0  0  0  0  0  0  0  0
    6.9860    0.1036   -2.6521 C   0  0  0  0  0  0  0  0  0  0  0  0
    7.9326    0.1779   -3.6747 C   0  0  0  0  0  0  0  0  0  0  0  0
    7.6574    0.8477   -4.8816 C   0  0  0  0  0  0  0  0  0  0  0  0
    6.4021    1.4509   -5.0628 C   0  0  0  0  0  0  0  0  0  0  0  0
    5.4396    1.3941   -4.0559 C   0  0  0  0  0  0  0  0  0  0  0  0
    5.7610    0.7210   -2.8807 C   0  0  0  0  0  0  0  0  0  0  0  0
    7.2032   -0.4176   -1.7247 H   0  0  0  0  0  0  0  0  0  0  0  0
    8.9038   -0.2929   -3.5402 H   0  0  0  0  0  0  0  0  0  0  0  0
    6.1946    1.9613   -6.0019 H   0  0  0  0  0  0  0  0  0  0  0  0
    4.3429    1.7374   -3.8285 H   0  0  0  0  0  0  0  0  0  0  0  0
    4.3211    0.8171   -1.8171 S   0  0  0  0  0  0  0  0  0  0  0  0
    4.6470    1.6004   -0.5798 O   0  0  0  0  0  0  0  0  0  0  0  0
    3.7836   -0.5425   -1.5326 O   0  0  0  0  0  0  0  0  0  0  0  0
    3.4276    1.6125   -2.7616 O   0  0  0  0  0  0  0  0  0  0  0  0
    8.7155    0.9258   -5.9588 C   0  0  0  0  0  0  0  0  0  0  0  0
    9.5088    1.6344   -5.6885 H   0  0  0  0  0  0  0  0  0  0  0  0
    9.1955   -0.0451   -6.1230 H   0  0  0  0  0  0  0  0  0  0  0  0
    8.2914    1.2569   -6.9110 H   0  0  0  0  0  0  0  0  0  0  0  0
   -2.4951   -0.0153   -3.0726 O   0  0  0  0  0  0  0  0  0  0  0  0
   -3.7514    0.6441   -3.2435 C   0  0  0  0  0  0  0  0  0  0  0  0
   -4.3872   -0.0688   -3.7680 H   0  0  0  0  0  0  0  0  0  0  0  0
   -3.6418    1.5512   -3.8476 H   0  0  0  0  0  0  0  0  0  0  0  0
   -4.2019    0.8934   -2.2766 H   0  0  0  0  0  0  0  0  0  0  0  0
  1  2  1  0  0  0  0
  2  8  1  0  0  0  0
  2  3  2  0  0  0  0
  3 11  1  0  0  0  0
  4  3  1  0  0  0  0
  4  9  1  0  0  0  0
  5  4  2  0  0  0  0
  6  1  2  0  0  0  0
  6  5  1  0  0  0  0
  7  1  1  0  0  0  0
 10  5  1  0  0  0  0
 11 12  1  0  0  0  0
 13 19  1  0  0  0  0
 14 20  1  0  0  0  0
 14 13  2  0  0  0  0
 15 14  1  0  0  0  0
 16 15  2  0  0  0  0
 16 17  1  0  0  0  0
 17 22  1  0  0  0  0
 17 18  2  0  0  0  0
 18 13  1  0  0  0  0
 18 23  1  0  0  0  0
 21 16  1  0  0  0  0
 23 25  2  0  0  0  0
 23 24  1  0  0  0  0
 26 23  2  0  0  0  0
 27 28  1  0  0  0  0
 27 15  1  0  0  0  0
 29 27  1  0  0  0  0
 30 27  1  0  0  0  0
 31  6  1  0  0  0  0
 32 31  1  0  0  0  0
 32 35  1  0  0  0  0
 33 32  1  0  0  0  0
 34 32  1  0  0  0  0
M  RAD  3  11   2  12   3  24   2
M  END
