Coordinates from ORCA-job p-CH3O-Ph-N2-X-OTs-B3LYPG-6-31G_dp-scan-d09-49-n400
 OpenBabel08281821023D

 35 35  0  0  0  0  0  0  0  0999 V2000
   -0.3262   -0.0972   -2.3522 C   0  0  0  0  0  0  0  0  0  0  0  0
    0.7993    0.4540   -1.7761 C   0  0  0  0  0  0  0  0  0  0  0  0
    0.6820    1.7559   -1.2386 C   0  0  0  0  0  0  0  0  0  0  0  0
   -0.5162    2.4897   -1.2830 C   0  0  0  0  0  0  0  0  0  0  0  0
   -1.6282    1.9234   -1.8808 C   0  0  0  0  0  0  0  0  0  0  0  0
   -1.5379    0.6221   -2.4192 C   0  0  0  0  0  0  0  0  0  0  0  0
   -0.2945   -1.0930   -2.7784 H   0  0  0  0  0  0  0  0  0  0  0  0
    1.7494   -0.0799   -1.7327 H   0  0  0  0  0  0  0  0  0  0  0  0
   -0.5602    3.4870   -0.8601 H   0  0  0  0  0  0  0  0  0  0  0  0
   -2.5512    2.4867   -1.9272 H   0  0  0  0  0  0  0  0  0  0  0  0
    1.7614    2.3480   -0.6293 N   0  0  0  0  0  0  0  0  0  0  0  0
    2.6651    2.7802   -0.1217 N   0  0  0  0  0  0  0  0  0  0  0  0
    6.9461    0.1000   -2.6793 C   0  0  0  0  0  0  0  0  0  0  0  0
    7.9416    0.1667   -3.6549 C   0  0  0  0  0  0  0  0  0  0  0  0
    7.7363    0.8472   -4.8686 C   0  0  0  0  0  0  0  0  0  0  0  0
    6.4993    1.4680   -5.1035 C   0  0  0  0  0  0  0  0  0  0  0  0
    5.4958    1.4132   -4.1397 C   0  0  0  0  0  0  0  0  0  0  0  0
    5.7374    0.7330   -2.9511 C   0  0  0  0  0  0  0  0  0  0  0  0
    7.1116   -0.4302   -1.7467 H   0  0  0  0  0  0  0  0  0  0  0  0
    8.8980   -0.3196   -3.4764 H   0  0  0  0  0  0  0  0  0  0  0  0
    6.3358    1.9881   -6.0450 H   0  0  0  0  0  0  0  0  0  0  0  0
    4.4494    1.8009   -4.0712 H   0  0  0  0  0  0  0  0  0  0  0  0
    4.2721    0.8219   -1.9277 S   0  0  0  0  0  0  0  0  0  0  0  0
    4.6062    1.5780   -0.6708 O   0  0  0  0  0  0  0  0  0  0  0  0
    3.7627   -0.5528   -1.6603 O   0  0  0  0  0  0  0  0  0  0  0  0
    3.3763    1.6199   -2.8418 O   0  0  0  0  0  0  0  0  0  0  0  0
    8.8457    0.9232   -5.8925 C   0  0  0  0  0  0  0  0  0  0  0  0
    9.5935    1.6766   -5.6137 H   0  0  0  0  0  0  0  0  0  0  0  0
    9.3722   -0.0325   -5.9870 H   0  0  0  0  0  0  0  0  0  0  0  0
    8.4608    1.1955   -6.8795 H   0  0  0  0  0  0  0  0  0  0  0  0
   -2.5564   -0.0183   -3.0151 O   0  0  0  0  0  0  0  0  0  0  0  0
   -3.8207    0.6342   -3.1462 C   0  0  0  0  0  0  0  0  0  0  0  0
   -4.4658   -0.0776   -3.6609 H   0  0  0  0  0  0  0  0  0  0  0  0
   -3.7334    1.5481   -3.7437 H   0  0  0  0  0  0  0  0  0  0  0  0
   -4.2474    0.8712   -2.1654 H   0  0  0  0  0  0  0  0  0  0  0  0
  1  2  1  0  0  0  0
  2  8  1  0  0  0  0
  2  3  2  0  0  0  0
  3 11  1  0  0  0  0
  4  3  1  0  0  0  0
  4  9  1  0  0  0  0
  5  4  2  0  0  0  0
  6  1  2  0  0  0  0
  6  5  1  0  0  0  0
  7  1  1  0  0  0  0
 10  5  1  0  0  0  0
 11 12  1  0  0  0  0
 13 19  1  0  0  0  0
 14 20  1  0  0  0  0
 14 13  2  0  0  0  0
 15 14  1  0  0  0  0
 16 15  2  0  0  0  0
 16 17  1  0  0  0  0
 17 22  1  0  0  0  0
 17 18  2  0  0  0  0
 18 13  1  0  0  0  0
 18 23  1  0  0  0  0
 21 16  1  0  0  0  0
 23 25  2  0  0  0  0
 23 24  1  0  0  0  0
 26 23  2  0  0  0  0
 27 28  1  0  0  0  0
 27 15  1  0  0  0  0
 29 27  1  0  0  0  0
 30 27  1  0  0  0  0
 31  6  1  0  0  0  0
 32 31  1  0  0  0  0
 32 35  1  0  0  0  0
 33 32  1  0  0  0  0
 34 32  1  0  0  0  0
M  RAD  3  11   2  12   3  24   2
M  END
