Coordinates from ORCA-job p-CH3O-Ph-N2-X-OTs-B3LYPG-6-31G_dp-scan-d09-49-n400
 OpenBabel08281821023D

 35 35  0  0  0  0  0  0  0  0999 V2000
   -0.1965   -0.0012   -1.5308 C   0  0  0  0  0  0  0  0  0  0  0  0
    0.7938    0.9559   -1.6066 C   0  0  0  0  0  0  0  0  0  0  0  0
    0.4018    2.2695   -1.9509 C   0  0  0  0  0  0  0  0  0  0  0  0
   -0.9337    2.6152   -2.2195 C   0  0  0  0  0  0  0  0  0  0  0  0
   -1.9083    1.6353   -2.1529 C   0  0  0  0  0  0  0  0  0  0  0  0
   -1.5426    0.3176   -1.8064 C   0  0  0  0  0  0  0  0  0  0  0  0
    0.0474   -1.0246   -1.2692 H   0  0  0  0  0  0  0  0  0  0  0  0
    1.8417    0.7184   -1.4181 H   0  0  0  0  0  0  0  0  0  0  0  0
   -1.1895    3.6355   -2.4835 H   0  0  0  0  0  0  0  0  0  0  0  0
   -2.9367    1.8940   -2.3691 H   0  0  0  0  0  0  0  0  0  0  0  0
    1.3390    3.2715   -2.0214 N   0  0  0  0  0  0  0  0  0  0  0  0
    2.1647    4.0336   -2.0458 N   0  0  0  0  0  0  0  0  0  0  0  0
    5.5891    0.6621   -4.6710 C   0  0  0  0  0  0  0  0  0  0  0  0
    6.7935    0.3496   -5.3029 C   0  0  0  0  0  0  0  0  0  0  0  0
    8.0247    0.6314   -4.6968 C   0  0  0  0  0  0  0  0  0  0  0  0
    8.0209    1.2486   -3.4363 C   0  0  0  0  0  0  0  0  0  0  0  0
    6.8261    1.5650   -2.7953 C   0  0  0  0  0  0  0  0  0  0  0  0
    5.6124    1.2661   -3.4153 C   0  0  0  0  0  0  0  0  0  0  0  0
    4.6339    0.4583   -5.1420 H   0  0  0  0  0  0  0  0  0  0  0  0
    6.7770   -0.1145   -6.2860 H   0  0  0  0  0  0  0  0  0  0  0  0
    8.9666    1.4891   -2.9563 H   0  0  0  0  0  0  0  0  0  0  0  0
    6.8186    2.0574   -1.8298 H   0  0  0  0  0  0  0  0  0  0  0  0
    4.0746    1.6398   -2.5702 S   0  0  0  0  0  0  0  0  0  0  0  0
    4.2501    3.0357   -2.0233 O   0  0  0  0  0  0  0  0  0  0  0  0
    3.9120    0.6266   -1.4880 O   0  0  0  0  0  0  0  0  0  0  0  0
    2.9962    1.5747   -3.5961 O   0  0  0  0  0  0  0  0  0  0  0  0
    9.3249    0.2643   -5.3725 C   0  0  0  0  0  0  0  0  0  0  0  0
    9.6892   -0.7116   -5.0272 H   0  0  0  0  0  0  0  0  0  0  0  0
    9.2082    0.2019   -6.4588 H   0  0  0  0  0  0  0  0  0  0  0  0
   10.1099    0.9961   -5.1560 H   0  0  0  0  0  0  0  0  0  0  0  0
   -2.4091   -0.7041   -1.7118 O   0  0  0  0  0  0  0  0  0  0  0  0
   -3.7935   -0.4816   -1.9841 C   0  0  0  0  0  0  0  0  0  0  0  0
   -4.2778   -1.4483   -1.8495 H   0  0  0  0  0  0  0  0  0  0  0  0
   -3.9445   -0.1385   -3.0135 H   0  0  0  0  0  0  0  0  0  0  0  0
   -4.2239    0.2426   -1.2837 H   0  0  0  0  0  0  0  0  0  0  0  0
  1  7  1  0  0  0  0
  2  1  1  0  0  0  0
  2  8  1  0  0  0  0
  3  2  2  0  0  0  0
  4  5  2  0  0  0  0
  4  3  1  0  0  0  0
  5  6  1  0  0  0  0
  6 31  1  0  0  0  0
  6  1  2  0  0  0  0
  9  4  1  0  0  0  0
 10  5  1  0  0  0  0
 11  3  1  0  0  0  0
 12 11  1  0  0  0  0
 13 18  2  0  0  0  0
 14 15  2  0  0  0  0
 14 13  1  0  0  0  0
 15 16  1  0  0  0  0
 16 21  1  0  0  0  0
 16 17  2  0  0  0  0
 17 22  1  0  0  0  0
 18 17  1  0  0  0  0
 18 23  1  0  0  0  0
 19 13  1  0  0  0  0
 20 14  1  0  0  0  0
 23 24  2  0  0  0  0
 23 25  1  0  0  0  0
 26 23  2  0  0  0  0
 27 30  1  0  0  0  0
 27 28  1  0  0  0  0
 27 15  1  0  0  0  0
 29 27  1  0  0  0  0
 32 33  1  0  0  0  0
 32 31  1  0  0  0  0
 32 35  1  0  0  0  0
 34 32  1  0  0  0  0
M  RAD  3  11   2  12   3  25   2
M  END
