Coordinates from ORCA-job p-CH3O-Ph-N2-X-OTs-B3LYPG-6-31G_dp-scan-d09-49-n400
 OpenBabel08281821023D

 35 35  0  0  0  0  0  0  0  0999 V2000
   -0.2070    0.0464   -1.4859 C   0  0  0  0  0  0  0  0  0  0  0  0
    0.7513    1.0321   -1.6014 C   0  0  0  0  0  0  0  0  0  0  0  0
    0.3206    2.3096   -2.0247 C   0  0  0  0  0  0  0  0  0  0  0  0
   -1.0217    2.5938   -2.3295 C   0  0  0  0  0  0  0  0  0  0  0  0
   -1.9632    1.5855   -2.2222 C   0  0  0  0  0  0  0  0  0  0  0  0
   -1.5582    0.3021   -1.7985 C   0  0  0  0  0  0  0  0  0  0  0  0
    0.0672   -0.9517   -1.1638 H   0  0  0  0  0  0  0  0  0  0  0  0
    1.8037    0.8466   -1.3816 H   0  0  0  0  0  0  0  0  0  0  0  0
   -1.3081    3.5886   -2.6526 H   0  0  0  0  0  0  0  0  0  0  0  0
   -2.9964    1.7960   -2.4660 H   0  0  0  0  0  0  0  0  0  0  0  0
    1.2253    3.3374   -2.1398 N   0  0  0  0  0  0  0  0  0  0  0  0
    2.0239    4.1267   -2.2009 N   0  0  0  0  0  0  0  0  0  0  0  0
    5.6524    0.9337   -4.5460 C   0  0  0  0  0  0  0  0  0  0  0  0
    6.7724    0.5507   -5.2862 C   0  0  0  0  0  0  0  0  0  0  0  0
    8.0398    0.5777   -4.7126 C   0  0  0  0  0  0  0  0  0  0  0  0
    8.1337    1.0038   -3.3794 C   0  0  0  0  0  0  0  0  0  0  0  0
    7.0413    1.3945   -2.5986 C   0  0  0  0  0  0  0  0  0  0  0  0
    5.7398    1.3536   -3.2170 C   0  0  0  0  0  0  0  0  0  0  0  0
    4.6685    0.9102   -5.0039 H   0  0  0  0  0  0  0  0  0  0  0  0
    6.6475    0.2300   -6.3176 H   0  0  0  0  0  0  0  0  0  0  0  0
    9.1182    1.0352   -2.9155 H   0  0  0  0  0  0  0  0  0  0  0  0
    7.4144    1.6843   -1.5820 H   0  0  0  0  0  0  0  0  0  0  0  0
    4.0424    1.7787   -2.5430 S   0  0  0  0  0  0  0  0  0  0  0  0
    4.1503    3.2395   -2.1797 O   0  0  0  0  0  0  0  0  0  0  0  0
    3.8576    0.8883   -1.3610 O   0  0  0  0  0  0  0  0  0  0  0  0
    2.9413    1.5724   -3.5792 O   0  0  0  0  0  0  0  0  0  0  0  0
    9.2713    0.1582   -5.4783 C   0  0  0  0  0  0  0  0  0  0  0  0
    9.6824   -0.7804   -5.0875 H   0  0  0  0  0  0  0  0  0  0  0  0
    9.0491    0.0056   -6.5383 H   0  0  0  0  0  0  0  0  0  0  0  0
   10.0647    0.9108   -5.4043 H   0  0  0  0  0  0  0  0  0  0  0  0
   -2.3910   -0.7428   -1.6603 O   0  0  0  0  0  0  0  0  0  0  0  0
   -3.7770   -0.5844   -1.9666 C   0  0  0  0  0  0  0  0  0  0  0  0
   -4.2301   -1.5592   -1.7876 H   0  0  0  0  0  0  0  0  0  0  0  0
   -3.9211   -0.3022   -3.0153 H   0  0  0  0  0  0  0  0  0  0  0  0
   -4.2450    0.1605   -1.3137 H   0  0  0  0  0  0  0  0  0  0  0  0
  1  7  1  0  0  0  0
  2  1  1  0  0  0  0
  2  8  1  0  0  0  0
  3  2  2  0  0  0  0
  4  5  2  0  0  0  0
  4  3  1  0  0  0  0
  5  6  1  0  0  0  0
  6 31  1  0  0  0  0
  6  1  2  0  0  0  0
  9  4  1  0  0  0  0
 10  5  1  0  0  0  0
 11  3  1  0  0  0  0
 12 11  1  0  0  0  0
 13 18  2  0  0  0  0
 14 15  2  0  0  0  0
 14 13  1  0  0  0  0
 15 16  1  0  0  0  0
 16 21  1  0  0  0  0
 16 17  2  0  0  0  0
 17 22  1  0  0  0  0
 18 17  1  0  0  0  0
 18 23  1  0  0  0  0
 19 13  1  0  0  0  0
 20 14  1  0  0  0  0
 23 24  2  0  0  0  0
 23 25  1  0  0  0  0
 26 23  2  0  0  0  0
 27 30  1  0  0  0  0
 27 28  1  0  0  0  0
 27 15  1  0  0  0  0
 29 27  1  0  0  0  0
 32 33  1  0  0  0  0
 32 31  1  0  0  0  0
 32 35  1  0  0  0  0
 34 32  1  0  0  0  0
M  RAD  3  11   2  12   3  25   2
M  END
