Coordinates from ORCA-job p-CH3O-Ph-N2-X-OTs-B3LYPG-6-31G_dp-scan-d09-49-n400
 OpenBabel08281821023D

 35 35  0  0  0  0  0  0  0  0999 V2000
   -0.4192   -0.0881   -2.3619 C   0  0  0  0  0  0  0  0  0  0  0  0
    0.7264    0.4800   -1.8441 C   0  0  0  0  0  0  0  0  0  0  0  0
    0.6070    1.7573   -1.2507 C   0  0  0  0  0  0  0  0  0  0  0  0
   -0.6148    2.4487   -1.1819 C   0  0  0  0  0  0  0  0  0  0  0  0
   -1.7484    1.8667   -1.7214 C   0  0  0  0  0  0  0  0  0  0  0  0
   -1.6549    0.5905   -2.3158 C   0  0  0  0  0  0  0  0  0  0  0  0
   -0.3860   -1.0662   -2.8270 H   0  0  0  0  0  0  0  0  0  0  0  0
    1.6923   -0.0245   -1.8878 H   0  0  0  0  0  0  0  0  0  0  0  0
   -0.6602    3.4276   -0.7183 H   0  0  0  0  0  0  0  0  0  0  0  0
   -2.6900    2.3984   -1.6789 H   0  0  0  0  0  0  0  0  0  0  0  0
    1.7075    2.3664   -0.6978 N   0  0  0  0  0  0  0  0  0  0  0  0
    2.6543    2.7889   -0.2620 N   0  0  0  0  0  0  0  0  0  0  0  0
    6.7788    0.1402   -2.8045 C   0  0  0  0  0  0  0  0  0  0  0  0
    7.9144    0.1324   -3.6099 C   0  0  0  0  0  0  0  0  0  0  0  0
    7.9498    0.8355   -4.8264 C   0  0  0  0  0  0  0  0  0  0  0  0
    6.8112    1.5493   -5.2192 C   0  0  0  0  0  0  0  0  0  0  0  0
    5.6670    1.5673   -4.4198 C   0  0  0  0  0  0  0  0  0  0  0  0
    5.6591    0.8640   -3.2197 C   0  0  0  0  0  0  0  0  0  0  0  0
    6.7580   -0.4082   -1.8684 H   0  0  0  0  0  0  0  0  0  0  0  0
    8.7911   -0.4281   -3.2931 H   0  0  0  0  0  0  0  0  0  0  0  0
    6.8213    2.0942   -6.1601 H   0  0  0  0  0  0  0  0  0  0  0  0
    4.7561    2.0992   -4.6781 H   0  0  0  0  0  0  0  0  0  0  0  0
    4.1611    0.9380   -2.2430 S   0  0  0  0  0  0  0  0  0  0  0  0
    4.5284    1.6543   -0.9653 O   0  0  0  0  0  0  0  0  0  0  0  0
    3.7205   -0.4648   -1.9970 O   0  0  0  0  0  0  0  0  0  0  0  0
    3.1983    1.7289   -3.0642 O   0  0  0  0  0  0  0  0  0  0  0  0
    9.1932    0.8152   -5.6851 C   0  0  0  0  0  0  0  0  0  0  0  0
   10.0549    1.2313   -5.1500 H   0  0  0  0  0  0  0  0  0  0  0  0
    9.4605   -0.2066   -5.9768 H   0  0  0  0  0  0  0  0  0  0  0  0
    9.0562    1.3984   -6.5997 H   0  0  0  0  0  0  0  0  0  0  0  0
   -2.6929   -0.0626   -2.8638 O   0  0  0  0  0  0  0  0  0  0  0  0
   -3.9835    0.5496   -2.8766 C   0  0  0  0  0  0  0  0  0  0  0  0
   -4.6414   -0.1635   -3.3728 H   0  0  0  0  0  0  0  0  0  0  0  0
   -3.9704    1.4886   -3.4405 H   0  0  0  0  0  0  0  0  0  0  0  0
   -4.3452    0.7330   -1.8587 H   0  0  0  0  0  0  0  0  0  0  0  0
  1  6  2  0  0  0  0
  1  2  1  0  0  0  0
  2  3  2  0  0  0  0
  3  4  1  0  0  0  0
  3 11  1  0  0  0  0
  4  9  1  0  0  0  0
  5 10  1  0  0  0  0
  5  4  2  0  0  0  0
  6  5  1  0  0  0  0
  7  1  1  0  0  0  0
  8  2  1  0  0  0  0
 11 12  1  0  0  0  0
 13 19  1  0  0  0  0
 14 20  1  0  0  0  0
 14 13  2  0  0  0  0
 15 14  1  0  0  0  0
 16 15  2  0  0  0  0
 16 17  1  0  0  0  0
 17 18  2  0  0  0  0
 18 13  1  0  0  0  0
 18 23  1  0  0  0  0
 21 16  1  0  0  0  0
 22 17  1  0  0  0  0
 23 25  2  0  0  0  0
 23 24  1  0  0  0  0
 26 23  2  0  0  0  0
 27 28  1  0  0  0  0
 27 15  1  0  0  0  0
 29 27  1  0  0  0  0
 30 27  1  0  0  0  0
 31  6  1  0  0  0  0
 32 31  1  0  0  0  0
 32 35  1  0  0  0  0
 33 32  1  0  0  0  0
 34 32  1  0  0  0  0
M  RAD  3  11   2  12   3  24   2
M  END
