Coordinates from ORCA-job p-CH3O-Ph-N2-X-OTs-B3LYPG-6-31G_dp-scan-d09-49-n400
 OpenBabel08281821023D

 35 35  0  0  0  0  0  0  0  0999 V2000
   -0.2549   -0.1136   -2.3468 C   0  0  0  0  0  0  0  0  0  0  0  0
    0.8484    0.4333   -1.7267 C   0  0  0  0  0  0  0  0  0  0  0  0
    0.7210    1.7425   -1.2105 C   0  0  0  0  0  0  0  0  0  0  0  0
   -0.4651    2.4904   -1.3178 C   0  0  0  0  0  0  0  0  0  0  0  0
   -1.5542    1.9278   -1.9592 C   0  0  0  0  0  0  0  0  0  0  0  0
   -1.4545    0.6186   -2.4776 C   0  0  0  0  0  0  0  0  0  0  0  0
   -0.2150   -1.1144   -2.7603 H   0  0  0  0  0  0  0  0  0  0  0  0
    1.7915   -0.1061   -1.6318 H   0  0  0  0  0  0  0  0  0  0  0  0
   -0.5169    3.4936   -0.9104 H   0  0  0  0  0  0  0  0  0  0  0  0
   -2.4673    2.5006   -2.0553 H   0  0  0  0  0  0  0  0  0  0  0  0
    1.7796    2.3290   -0.5613 N   0  0  0  0  0  0  0  0  0  0  0  0
    2.6298    2.7958    0.0017 N   0  0  0  0  0  0  0  0  0  0  0  0
    6.9941    0.1202   -2.6497 C   0  0  0  0  0  0  0  0  0  0  0  0
    7.9196    0.1832   -3.6904 C   0  0  0  0  0  0  0  0  0  0  0  0
    7.6149    0.8440   -4.8962 C   0  0  0  0  0  0  0  0  0  0  0  0
    6.3564    1.4470   -5.0533 C   0  0  0  0  0  0  0  0  0  0  0  0
    5.4000    1.4111   -4.0332 C   0  0  0  0  0  0  0  0  0  0  0  0
    5.7675    0.7411   -2.8680 C   0  0  0  0  0  0  0  0  0  0  0  0
    7.2284   -0.3926   -1.7214 H   0  0  0  0  0  0  0  0  0  0  0  0
    8.8932   -0.2869   -3.5726 H   0  0  0  0  0  0  0  0  0  0  0  0
    6.1388    1.9487   -5.9962 H   0  0  0  0  0  0  0  0  0  0  0  0
    4.2136    1.7363   -3.6448 H   0  0  0  0  0  0  0  0  0  0  0  0
    4.3665    0.8310   -1.7513 S   0  0  0  0  0  0  0  0  0  0  0  0
    4.6863    1.6329   -0.5311 O   0  0  0  0  0  0  0  0  0  0  0  0
    3.8001   -0.5134   -1.4597 O   0  0  0  0  0  0  0  0  0  0  0  0
    3.4436    1.6356   -2.7028 O   0  0  0  0  0  0  0  0  0  0  0  0
    8.6471    0.9061   -5.9998 C   0  0  0  0  0  0  0  0  0  0  0  0
    9.4948    1.5441   -5.7199 H   0  0  0  0  0  0  0  0  0  0  0  0
    9.0548   -0.0855   -6.2264 H   0  0  0  0  0  0  0  0  0  0  0  0
    8.2201    1.3118   -6.9213 H   0  0  0  0  0  0  0  0  0  0  0  0
   -2.4507   -0.0170   -3.1117 O   0  0  0  0  0  0  0  0  0  0  0  0
   -3.7003    0.6475   -3.3125 C   0  0  0  0  0  0  0  0  0  0  0  0
   -4.3275   -0.0648   -3.8479 H   0  0  0  0  0  0  0  0  0  0  0  0
   -3.5731    1.5514   -3.9177 H   0  0  0  0  0  0  0  0  0  0  0  0
   -4.1704    0.9024   -2.3564 H   0  0  0  0  0  0  0  0  0  0  0  0
  1  2  1  0  0  0  0
  2  8  1  0  0  0  0
  2  3  2  0  0  0  0
  3 11  1  0  0  0  0
  4  3  1  0  0  0  0
  4  9  1  0  0  0  0
  5  4  2  0  0  0  0
  6  1  2  0  0  0  0
  6  5  1  0  0  0  0
  7  1  1  0  0  0  0
 10  5  1  0  0  0  0
 11 12  1  0  0  0  0
 13 19  1  0  0  0  0
 14 20  1  0  0  0  0
 14 13  2  0  0  0  0
 15 14  1  0  0  0  0
 16 15  2  0  0  0  0
 16 17  1  0  0  0  0
 17 18  2  0  0  0  0
 18 13  1  0  0  0  0
 18 23  1  0  0  0  0
 21 16  1  0  0  0  0
 22 26  1  0  0  0  0
 23 25  2  0  0  0  0
 23 24  2  0  0  0  0
 26 23  1  0  0  0  0
 27 28  1  0  0  0  0
 27 15  1  0  0  0  0
 29 27  1  0  0  0  0
 30 27  1  0  0  0  0
 31  6  1  0  0  0  0
 32 31  1  0  0  0  0
 32 35  1  0  0  0  0
 33 32  1  0  0  0  0
 34 32  1  0  0  0  0
M  RAD  3  11   2  12   3  17   2
M  END
