Coordinates from ORCA-job p-CH3O-Ph-N2-X-OTs-B3LYPG-6-31G_dp-scan-d09-49-n400
 OpenBabel08281821023D

 35 35  0  0  0  0  0  0  0  0999 V2000
   -0.1988   -0.0072   -1.5416 C   0  0  0  0  0  0  0  0  0  0  0  0
    0.7938    0.9484   -1.6069 C   0  0  0  0  0  0  0  0  0  0  0  0
    0.4048    2.2664   -1.9375 C   0  0  0  0  0  0  0  0  0  0  0  0
   -0.9296    2.6181   -2.2033 C   0  0  0  0  0  0  0  0  0  0  0  0
   -1.9065    1.6398   -2.1476 C   0  0  0  0  0  0  0  0  0  0  0  0
   -1.5440    0.3177   -1.8145 C   0  0  0  0  0  0  0  0  0  0  0  0
    0.0425   -1.0338   -1.2906 H   0  0  0  0  0  0  0  0  0  0  0  0
    1.8412    0.7068   -1.4205 H   0  0  0  0  0  0  0  0  0  0  0  0
   -1.1828    3.6417   -2.4568 H   0  0  0  0  0  0  0  0  0  0  0  0
   -2.9341    1.9030   -2.3618 H   0  0  0  0  0  0  0  0  0  0  0  0
    1.3446    3.2667   -1.9963 N   0  0  0  0  0  0  0  0  0  0  0  0
    2.1727    4.0264   -2.0123 N   0  0  0  0  0  0  0  0  0  0  0  0
    5.5879    0.6307   -4.6542 C   0  0  0  0  0  0  0  0  0  0  0  0
    6.7913    0.3195   -5.2883 C   0  0  0  0  0  0  0  0  0  0  0  0
    8.0234    0.6322   -4.6992 C   0  0  0  0  0  0  0  0  0  0  0  0
    8.0212    1.2799   -3.4543 C   0  0  0  0  0  0  0  0  0  0  0  0
    6.8271    1.5957   -2.8113 C   0  0  0  0  0  0  0  0  0  0  0  0
    5.6129    1.2651   -3.4134 C   0  0  0  0  0  0  0  0  0  0  0  0
    4.6323    0.4038   -5.1136 H   0  0  0  0  0  0  0  0  0  0  0  0
    6.7732   -0.1674   -6.2603 H   0  0  0  0  0  0  0  0  0  0  0  0
    8.9673    1.5452   -2.9884 H   0  0  0  0  0  0  0  0  0  0  0  0
    6.8193    2.1129   -1.8588 H   0  0  0  0  0  0  0  0  0  0  0  0
    4.0765    1.6349   -2.5639 S   0  0  0  0  0  0  0  0  0  0  0  0
    4.2578    3.0237   -2.0012 O   0  0  0  0  0  0  0  0  0  0  0  0
    3.9086    0.6098   -1.4936 O   0  0  0  0  0  0  0  0  0  0  0  0
    2.9982    1.5856   -3.5908 O   0  0  0  0  0  0  0  0  0  0  0  0
    9.3231    0.2665   -5.3765 C   0  0  0  0  0  0  0  0  0  0  0  0
    9.7019   -0.6972   -5.0130 H   0  0  0  0  0  0  0  0  0  0  0  0
    9.1995    0.1790   -6.4603 H   0  0  0  0  0  0  0  0  0  0  0  0
   10.1006    1.0123   -5.1817 H   0  0  0  0  0  0  0  0  0  0  0  0
   -2.4130   -0.7028   -1.7308 O   0  0  0  0  0  0  0  0  0  0  0  0
   -3.7968   -0.4743   -2.0009 C   0  0  0  0  0  0  0  0  0  0  0  0
   -4.2835   -1.4411   -1.8762 H   0  0  0  0  0  0  0  0  0  0  0  0
   -3.9470   -0.1204   -3.0268 H   0  0  0  0  0  0  0  0  0  0  0  0
   -4.2256    0.2439   -1.2932 H   0  0  0  0  0  0  0  0  0  0  0  0
  1  7  1  0  0  0  0
  2  1  1  0  0  0  0
  2  8  1  0  0  0  0
  3  2  2  0  0  0  0
  4  5  2  0  0  0  0
  4  3  1  0  0  0  0
  5  6  1  0  0  0  0
  6 31  1  0  0  0  0
  6  1  2  0  0  0  0
  9  4  1  0  0  0  0
 10  5  1  0  0  0  0
 11  3  1  0  0  0  0
 12 11  1  0  0  0  0
 13 18  2  0  0  0  0
 14 15  2  0  0  0  0
 14 13  1  0  0  0  0
 15 16  1  0  0  0  0
 16 21  1  0  0  0  0
 16 17  2  0  0  0  0
 17 22  1  0  0  0  0
 18 17  1  0  0  0  0
 18 23  1  0  0  0  0
 19 13  1  0  0  0  0
 20 14  1  0  0  0  0
 23 24  2  0  0  0  0
 23 25  1  0  0  0  0
 26 23  2  0  0  0  0
 27 30  1  0  0  0  0
 27 28  1  0  0  0  0
 27 15  1  0  0  0  0
 29 27  1  0  0  0  0
 32 33  1  0  0  0  0
 32 31  1  0  0  0  0
 32 35  1  0  0  0  0
 34 32  1  0  0  0  0
M  RAD  3  11   2  12   3  25   2
M  END
