Coordinates from ORCA-job p-CH3O-Ph-N2-X-OTs-B3LYPG-6-31G_dp-scan-d09-49-n400
 OpenBabel08281821023D

 35 35  0  0  0  0  0  0  0  0999 V2000
   -0.3703   -0.1185   -2.1830 C   0  0  0  0  0  0  0  0  0  0  0  0
    0.7426    0.6020   -1.8011 C   0  0  0  0  0  0  0  0  0  0  0  0
    0.5422    1.9403   -1.3940 C   0  0  0  0  0  0  0  0  0  0  0  0
   -0.7279    2.5421   -1.3720 C   0  0  0  0  0  0  0  0  0  0  0  0
   -1.8284    1.8051   -1.7729 C   0  0  0  0  0  0  0  0  0  0  0  0
   -1.6534    0.4666   -2.1832 C   0  0  0  0  0  0  0  0  0  0  0  0
   -0.2740   -1.1490   -2.5049 H   0  0  0  0  0  0  0  0  0  0  0  0
    1.7433    0.1693   -1.8097 H   0  0  0  0  0  0  0  0  0  0  0  0
   -0.8369    3.5718   -1.0503 H   0  0  0  0  0  0  0  0  0  0  0  0
   -2.8078    2.2660   -1.7651 H   0  0  0  0  0  0  0  0  0  0  0  0
    1.6085    2.7032   -0.9827 N   0  0  0  0  0  0  0  0  0  0  0  0
    2.5275    3.2603   -0.6505 N   0  0  0  0  0  0  0  0  0  0  0  0
    6.3443   -0.1617   -3.2750 C   0  0  0  0  0  0  0  0  0  0  0  0
    7.5205   -0.3017   -4.0094 C   0  0  0  0  0  0  0  0  0  0  0  0
    8.0115    0.7479   -4.7989 C   0  0  0  0  0  0  0  0  0  0  0  0
    7.2853    1.9463   -4.8359 C   0  0  0  0  0  0  0  0  0  0  0  0
    6.1069    2.0999   -4.1068 C   0  0  0  0  0  0  0  0  0  0  0  0
    5.6378    1.0412   -3.3270 C   0  0  0  0  0  0  0  0  0  0  0  0
    5.9575   -0.9721   -2.6675 H   0  0  0  0  0  0  0  0  0  0  0  0
    8.0664   -1.2418   -3.9694 H   0  0  0  0  0  0  0  0  0  0  0  0
    7.6477    2.7708   -5.4450 H   0  0  0  0  0  0  0  0  0  0  0  0
    5.5538    3.0324   -4.1506 H   0  0  0  0  0  0  0  0  0  0  0  0
    4.1347    1.2324   -2.3611 S   0  0  0  0  0  0  0  0  0  0  0  0
    4.4842    2.2044   -1.2599 O   0  0  0  0  0  0  0  0  0  0  0  0
    3.7935   -0.1253   -1.8465 O   0  0  0  0  0  0  0  0  0  0  0  0
    3.0911    1.7953   -3.2643 O   0  0  0  0  0  0  0  0  0  0  0  0
    9.2935    0.5871   -5.5818 C   0  0  0  0  0  0  0  0  0  0  0  0
   10.1542    0.4605   -4.9144 H   0  0  0  0  0  0  0  0  0  0  0  0
    9.2582   -0.2965   -6.2296 H   0  0  0  0  0  0  0  0  0  0  0  0
    9.4890    1.4580   -6.2139 H   0  0  0  0  0  0  0  0  0  0  0  0
   -2.6532   -0.3333   -2.5893 O   0  0  0  0  0  0  0  0  0  0  0  0
   -3.9866    0.1757   -2.6405 C   0  0  0  0  0  0  0  0  0  0  0  0
   -4.6000   -0.6454   -3.0106 H   0  0  0  0  0  0  0  0  0  0  0  0
   -4.0594    1.0256   -3.3281 H   0  0  0  0  0  0  0  0  0  0  0  0
   -4.3361    0.4728   -1.6457 H   0  0  0  0  0  0  0  0  0  0  0  0
  1  2  1  0  0  0  0
  2  3  2  0  0  0  0
  3  4  1  0  0  0  0
  3 11  1  0  0  0  0
  4  9  1  0  0  0  0
  5 10  1  0  0  0  0
  5  4  2  0  0  0  0
  6  1  2  0  0  0  0
  6  5  1  0  0  0  0
  7  1  1  0  0  0  0
  8  2  1  0  0  0  0
 11 12  1  0  0  0  0
 13 19  1  0  0  0  0
 14 20  1  0  0  0  0
 14 13  2  0  0  0  0
 15 14  1  0  0  0  0
 16 15  2  0  0  0  0
 16 17  1  0  0  0  0
 17 18  2  0  0  0  0
 18 13  1  0  0  0  0
 18 23  1  0  0  0  0
 21 16  1  0  0  0  0
 22 17  1  0  0  0  0
 23 25  2  0  0  0  0
 23 24  1  0  0  0  0
 26 23  2  0  0  0  0
 27 28  1  0  0  0  0
 27 15  1  0  0  0  0
 29 27  1  0  0  0  0
 30 27  1  0  0  0  0
 31  6  1  0  0  0  0
 32 31  1  0  0  0  0
 32 35  1  0  0  0  0
 33 32  1  0  0  0  0
 34 32  1  0  0  0  0
M  RAD  3  11   2  12   3  24   2
M  END
