Coordinates from ORCA-job p-CH3O-Ph-N2-X-OTs-B3LYPG-6-31G_dp-scan-d09-49-n400
 OpenBabel08281821023D

 35 35  0  0  0  0  0  0  0  0999 V2000
   -0.4282   -0.0857   -2.3670 C   0  0  0  0  0  0  0  0  0  0  0  0
    0.7187    0.4888   -1.8591 C   0  0  0  0  0  0  0  0  0  0  0  0
    0.5955    1.7610   -1.2556 C   0  0  0  0  0  0  0  0  0  0  0  0
   -0.6314    2.4410   -1.1670 C   0  0  0  0  0  0  0  0  0  0  0  0
   -1.7663    1.8528   -1.6967 C   0  0  0  0  0  0  0  0  0  0  0  0
   -1.6690    0.5818   -2.3014 C   0  0  0  0  0  0  0  0  0  0  0  0
   -0.3921   -1.0604   -2.8393 H   0  0  0  0  0  0  0  0  0  0  0  0
    1.6885   -0.0067   -1.9172 H   0  0  0  0  0  0  0  0  0  0  0  0
   -0.6797    3.4163   -0.6960 H   0  0  0  0  0  0  0  0  0  0  0  0
   -2.7120    2.3758   -1.6388 H   0  0  0  0  0  0  0  0  0  0  0  0
    1.6973    2.3764   -0.7126 N   0  0  0  0  0  0  0  0  0  0  0  0
    2.6447    2.8059   -0.2848 N   0  0  0  0  0  0  0  0  0  0  0  0
    6.7403    0.1313   -2.8393 C   0  0  0  0  0  0  0  0  0  0  0  0
    7.8938    0.1043   -3.6176 C   0  0  0  0  0  0  0  0  0  0  0  0
    7.9776    0.8269   -4.8198 C   0  0  0  0  0  0  0  0  0  0  0  0
    6.8681    1.5785   -5.2238 C   0  0  0  0  0  0  0  0  0  0  0  0
    5.7057    1.6168   -4.4509 C   0  0  0  0  0  0  0  0  0  0  0  0
    5.6486    0.8935   -3.2632 C   0  0  0  0  0  0  0  0  0  0  0  0
    6.6814   -0.4343   -1.9153 H   0  0  0  0  0  0  0  0  0  0  0  0
    8.7462   -0.4871   -3.2906 H   0  0  0  0  0  0  0  0  0  0  0  0
    6.9135    2.1388   -6.1545 H   0  0  0  0  0  0  0  0  0  0  0  0
    4.8278    2.1853   -4.7401 H   0  0  0  0  0  0  0  0  0  0  0  0
    4.1484    0.9743   -2.2866 S   0  0  0  0  0  0  0  0  0  0  0  0
    4.5234    1.6994   -1.0159 O   0  0  0  0  0  0  0  0  0  0  0  0
    3.7205   -0.4305   -2.0293 O   0  0  0  0  0  0  0  0  0  0  0  0
    3.1692    1.7539   -3.0978 O   0  0  0  0  0  0  0  0  0  0  0  0
    9.2391    0.7869   -5.6508 C   0  0  0  0  0  0  0  0  0  0  0  0
   10.0978    1.1770   -5.0917 H   0  0  0  0  0  0  0  0  0  0  0  0
    9.4894   -0.2377   -5.9478 H   0  0  0  0  0  0  0  0  0  0  0  0
    9.1366    1.3830   -6.5616 H   0  0  0  0  0  0  0  0  0  0  0  0
   -2.7079   -0.0764   -2.8418 O   0  0  0  0  0  0  0  0  0  0  0  0
   -4.0036    0.5249   -2.8348 C   0  0  0  0  0  0  0  0  0  0  0  0
   -4.6614   -0.1900   -3.3285 H   0  0  0  0  0  0  0  0  0  0  0  0
   -4.0051    1.4681   -3.3918 H   0  0  0  0  0  0  0  0  0  0  0  0
   -4.3548    0.6977   -1.8114 H   0  0  0  0  0  0  0  0  0  0  0  0
  1  6  2  0  0  0  0
  1  2  1  0  0  0  0
  2  3  2  0  0  0  0
  3  4  1  0  0  0  0
  3 11  1  0  0  0  0
  4  9  1  0  0  0  0
  5 10  1  0  0  0  0
  5  4  2  0  0  0  0
  6  5  1  0  0  0  0
  7  1  1  0  0  0  0
  8  2  1  0  0  0  0
 11 12  1  0  0  0  0
 13 19  1  0  0  0  0
 14 20  1  0  0  0  0
 14 13  2  0  0  0  0
 15 14  1  0  0  0  0
 16 15  2  0  0  0  0
 16 17  1  0  0  0  0
 17 18  2  0  0  0  0
 18 13  1  0  0  0  0
 18 23  1  0  0  0  0
 21 16  1  0  0  0  0
 22 17  1  0  0  0  0
 23 25  2  0  0  0  0
 23 24  1  0  0  0  0
 26 23  2  0  0  0  0
 27 28  1  0  0  0  0
 27 15  1  0  0  0  0
 29 27  1  0  0  0  0
 30 27  1  0  0  0  0
 31 32  1  0  0  0  0
 31  6  1  0  0  0  0
 32 35  1  0  0  0  0
 33 32  1  0  0  0  0
 34 32  1  0  0  0  0
M  RAD  3  11   2  12   3  24   2
M  END
