Coordinates from ORCA-job p-CH3O-Ph-N2-X-OTs-B3LYPG-6-31G_dp-scan-d09-49-n400
 OpenBabel08281821023D

 35 35  0  0  0  0  0  0  0  0999 V2000
   -0.2564   -0.1125   -2.3471 C   0  0  0  0  0  0  0  0  0  0  0  0
    0.8478    0.4347   -1.7289 C   0  0  0  0  0  0  0  0  0  0  0  0
    0.7209    1.7442   -1.2132 C   0  0  0  0  0  0  0  0  0  0  0  0
   -0.4654    2.4918   -1.3192 C   0  0  0  0  0  0  0  0  0  0  0  0
   -1.5554    1.9288   -1.9587 C   0  0  0  0  0  0  0  0  0  0  0  0
   -1.4563    0.6194   -2.4766 C   0  0  0  0  0  0  0  0  0  0  0  0
   -0.2171   -1.1136   -2.7600 H   0  0  0  0  0  0  0  0  0  0  0  0
    1.7909   -0.1049   -1.6350 H   0  0  0  0  0  0  0  0  0  0  0  0
   -0.5167    3.4952   -0.9121 H   0  0  0  0  0  0  0  0  0  0  0  0
   -2.4688    2.5014   -2.0537 H   0  0  0  0  0  0  0  0  0  0  0  0
    1.7803    2.3313   -0.5658 N   0  0  0  0  0  0  0  0  0  0  0  0
    2.6331    2.7964   -0.0053 N   0  0  0  0  0  0  0  0  0  0  0  0
    6.9949    0.1179   -2.6483 C   0  0  0  0  0  0  0  0  0  0  0  0
    7.9205    0.1835   -3.6891 C   0  0  0  0  0  0  0  0  0  0  0  0
    7.6159    0.8450   -4.8945 C   0  0  0  0  0  0  0  0  0  0  0  0
    6.3567    1.4466   -5.0518 C   0  0  0  0  0  0  0  0  0  0  0  0
    5.4023    1.4068   -4.0309 C   0  0  0  0  0  0  0  0  0  0  0  0
    5.7674    0.7369   -2.8650 C   0  0  0  0  0  0  0  0  0  0  0  0
    7.2301   -0.3956   -1.7206 H   0  0  0  0  0  0  0  0  0  0  0  0
    8.8947   -0.2855   -3.5715 H   0  0  0  0  0  0  0  0  0  0  0  0
    6.1376    1.9491   -5.9937 H   0  0  0  0  0  0  0  0  0  0  0  0
    4.2303    1.7321   -3.6612 H   0  0  0  0  0  0  0  0  0  0  0  0
    4.3616    0.8282   -1.7546 S   0  0  0  0  0  0  0  0  0  0  0  0
    4.6824    1.6286   -0.5328 O   0  0  0  0  0  0  0  0  0  0  0  0
    3.7991   -0.5181   -1.4629 O   0  0  0  0  0  0  0  0  0  0  0  0
    3.4439    1.6306   -2.7067 O   0  0  0  0  0  0  0  0  0  0  0  0
    8.6487    0.9097   -5.9973 C   0  0  0  0  0  0  0  0  0  0  0  0
    9.4919    1.5543   -5.7189 H   0  0  0  0  0  0  0  0  0  0  0  0
    9.0631   -0.0800   -6.2198 H   0  0  0  0  0  0  0  0  0  0  0  0
    8.2200    1.3093   -6.9206 H   0  0  0  0  0  0  0  0  0  0  0  0
   -2.4534   -0.0167   -3.1090 O   0  0  0  0  0  0  0  0  0  0  0  0
   -3.7034    0.6476   -3.3081 C   0  0  0  0  0  0  0  0  0  0  0  0
   -4.3314   -0.0650   -3.8423 H   0  0  0  0  0  0  0  0  0  0  0  0
   -3.5772    1.5513   -3.9137 H   0  0  0  0  0  0  0  0  0  0  0  0
   -4.1720    0.9028   -2.3514 H   0  0  0  0  0  0  0  0  0  0  0  0
  1  2  1  0  0  0  0
  2  8  1  0  0  0  0
  2  3  2  0  0  0  0
  3 11  1  0  0  0  0
  4  3  1  0  0  0  0
  4  9  1  0  0  0  0
  5  4  2  0  0  0  0
  6  1  2  0  0  0  0
  6  5  1  0  0  0  0
  7  1  1  0  0  0  0
 10  5  1  0  0  0  0
 11 12  1  0  0  0  0
 13 19  1  0  0  0  0
 14 20  1  0  0  0  0
 14 13  2  0  0  0  0
 15 14  1  0  0  0  0
 16 15  2  0  0  0  0
 16 17  1  0  0  0  0
 17 18  2  0  0  0  0
 18 13  1  0  0  0  0
 18 23  1  0  0  0  0
 21 16  1  0  0  0  0
 22 26  1  0  0  0  0
 23 25  2  0  0  0  0
 23 24  2  0  0  0  0
 26 23  1  0  0  0  0
 27 28  1  0  0  0  0
 27 15  1  0  0  0  0
 29 27  1  0  0  0  0
 30 27  1  0  0  0  0
 31  6  1  0  0  0  0
 32 31  1  0  0  0  0
 32 35  1  0  0  0  0
 33 32  1  0  0  0  0
 34 32  1  0  0  0  0
M  RAD  3  11   2  12   3  17   2
M  END
