Coordinates from ORCA-job p-CH3O-Ph-N2-X-OTs-B3LYPG-6-31G_dp-scan-d09-49-n400
 OpenBabel08281821023D

 35 35  0  0  0  0  0  0  0  0999 V2000
   -0.2543   -0.1141   -2.3467 C   0  0  0  0  0  0  0  0  0  0  0  0
    0.8486    0.4325   -1.7257 C   0  0  0  0  0  0  0  0  0  0  0  0
    0.7209    1.7416   -1.2091 C   0  0  0  0  0  0  0  0  0  0  0  0
   -0.4651    2.4896   -1.3169 C   0  0  0  0  0  0  0  0  0  0  0  0
   -1.5537    1.9273   -1.9591 C   0  0  0  0  0  0  0  0  0  0  0  0
   -1.4538    0.6182   -2.4779 C   0  0  0  0  0  0  0  0  0  0  0  0
   -0.2142   -1.1147   -2.7606 H   0  0  0  0  0  0  0  0  0  0  0  0
    1.7917   -0.1067   -1.6305 H   0  0  0  0  0  0  0  0  0  0  0  0
   -0.5171    3.4927   -0.9092 H   0  0  0  0  0  0  0  0  0  0  0  0
   -2.4669    2.5001   -2.0556 H   0  0  0  0  0  0  0  0  0  0  0  0
    1.7792    2.3277   -0.5592 N   0  0  0  0  0  0  0  0  0  0  0  0
    2.6282    2.7953    0.0050 N   0  0  0  0  0  0  0  0  0  0  0  0
    6.9934    0.1213   -2.6506 C   0  0  0  0  0  0  0  0  0  0  0  0
    7.9192    0.1830   -3.6910 C   0  0  0  0  0  0  0  0  0  0  0  0
    7.6148    0.8435   -4.8971 C   0  0  0  0  0  0  0  0  0  0  0  0
    6.3568    1.4473   -5.0543 C   0  0  0  0  0  0  0  0  0  0  0  0
    5.3991    1.4135   -4.0349 C   0  0  0  0  0  0  0  0  0  0  0  0
    5.7674    0.7433   -2.8699 C   0  0  0  0  0  0  0  0  0  0  0  0
    7.2271   -0.3912   -1.7219 H   0  0  0  0  0  0  0  0  0  0  0  0
    8.8925   -0.2878   -3.5728 H   0  0  0  0  0  0  0  0  0  0  0  0
    6.1403    1.9487   -5.9978 H   0  0  0  0  0  0  0  0  0  0  0  0
    4.2049    1.7388   -3.6371 H   0  0  0  0  0  0  0  0  0  0  0  0
    4.3688    0.8326   -1.7502 S   0  0  0  0  0  0  0  0  0  0  0  0
    4.6881    1.6351   -0.5307 O   0  0  0  0  0  0  0  0  0  0  0  0
    3.8004   -0.5109   -1.4587 O   0  0  0  0  0  0  0  0  0  0  0  0
    3.4432    1.6384   -2.7013 O   0  0  0  0  0  0  0  0  0  0  0  0
    8.6470    0.9042   -6.0008 C   0  0  0  0  0  0  0  0  0  0  0  0
    9.4969    1.5390   -5.7200 H   0  0  0  0  0  0  0  0  0  0  0  0
    9.0516   -0.0883   -6.2291 H   0  0  0  0  0  0  0  0  0  0  0  0
    8.2211    1.3126   -6.9215 H   0  0  0  0  0  0  0  0  0  0  0  0
   -2.4496   -0.0172   -3.1128 O   0  0  0  0  0  0  0  0  0  0  0  0
   -3.6991    0.6475   -3.3143 C   0  0  0  0  0  0  0  0  0  0  0  0
   -4.3259   -0.0647   -3.8503 H   0  0  0  0  0  0  0  0  0  0  0  0
   -3.5714    1.5515   -3.9191 H   0  0  0  0  0  0  0  0  0  0  0  0
   -4.1698    0.9020   -2.3584 H   0  0  0  0  0  0  0  0  0  0  0  0
  1  2  1  0  0  0  0
  2  8  1  0  0  0  0
  2  3  2  0  0  0  0
  3 11  1  0  0  0  0
  4  3  1  0  0  0  0
  4  9  1  0  0  0  0
  5  4  2  0  0  0  0
  6  1  2  0  0  0  0
  6  5  1  0  0  0  0
  7  1  1  0  0  0  0
 10  5  1  0  0  0  0
 11 12  1  0  0  0  0
 13 19  1  0  0  0  0
 14 20  1  0  0  0  0
 14 13  2  0  0  0  0
 15 14  1  0  0  0  0
 16 15  2  0  0  0  0
 16 17  1  0  0  0  0
 17 18  2  0  0  0  0
 18 13  1  0  0  0  0
 18 23  1  0  0  0  0
 21 16  1  0  0  0  0
 22 26  1  0  0  0  0
 23 25  2  0  0  0  0
 23 24  2  0  0  0  0
 26 23  1  0  0  0  0
 27 28  1  0  0  0  0
 27 15  1  0  0  0  0
 29 27  1  0  0  0  0
 30 27  1  0  0  0  0
 31  6  1  0  0  0  0
 32 31  1  0  0  0  0
 32 35  1  0  0  0  0
 33 32  1  0  0  0  0
 34 32  1  0  0  0  0
M  RAD  3  11   2  12   3  17   2
M  END
