Coordinates from ORCA-job p-CH3O-Ph-N2-X-OTs-B3LYPG-6-31G_dp-scan-d09-49-n400
 OpenBabel08281821023D

 35 35  0  0  0  0  0  0  0  0999 V2000
   -0.3071   -0.0987   -2.3558 C   0  0  0  0  0  0  0  0  0  0  0  0
    0.8137    0.4514   -1.7696 C   0  0  0  0  0  0  0  0  0  0  0  0
    0.6938    1.7550   -1.2369 C   0  0  0  0  0  0  0  0  0  0  0  0
   -0.5019    2.4920   -1.2957 C   0  0  0  0  0  0  0  0  0  0  0  0
   -1.6089    1.9267   -1.9036 C   0  0  0  0  0  0  0  0  0  0  0  0
   -1.5164    0.6235   -2.4374 C   0  0  0  0  0  0  0  0  0  0  0  0
   -0.2735   -1.0957   -2.7790 H   0  0  0  0  0  0  0  0  0  0  0  0
    1.7622   -0.0842   -1.7142 H   0  0  0  0  0  0  0  0  0  0  0  0
   -0.5478    3.4905   -0.8761 H   0  0  0  0  0  0  0  0  0  0  0  0
   -2.5299    2.4921   -1.9613 H   0  0  0  0  0  0  0  0  0  0  0  0
    1.7681    2.3459   -0.6175 N   0  0  0  0  0  0  0  0  0  0  0  0
    2.6599    2.7854   -0.0963 N   0  0  0  0  0  0  0  0  0  0  0  0
    6.9660    0.1008   -2.6649 C   0  0  0  0  0  0  0  0  0  0  0  0
    7.9388    0.1715   -3.6630 C   0  0  0  0  0  0  0  0  0  0  0  0
    7.7008    0.8469   -4.8740 C   0  0  0  0  0  0  0  0  0  0  0  0
    6.4547    1.4591   -5.0844 C   0  0  0  0  0  0  0  0  0  0  0  0
    5.4713    1.4021   -4.0996 C   0  0  0  0  0  0  0  0  0  0  0  0
    5.7492    0.7257   -2.9162 C   0  0  0  0  0  0  0  0  0  0  0  0
    7.1562   -0.4252   -1.7344 H   0  0  0  0  0  0  0  0  0  0  0  0
    8.9026   -0.3072   -3.5050 H   0  0  0  0  0  0  0  0  0  0  0  0
    6.2699    1.9745   -6.0248 H   0  0  0  0  0  0  0  0  0  0  0  0
    4.4060    1.7692   -3.9648 H   0  0  0  0  0  0  0  0  0  0  0  0
    4.2937    0.8199   -1.8769 S   0  0  0  0  0  0  0  0  0  0  0  0
    4.6247    1.5884   -0.6288 O   0  0  0  0  0  0  0  0  0  0  0  0
    3.7721   -0.5482   -1.6008 O   0  0  0  0  0  0  0  0  0  0  0  0
    3.4013    1.6158   -2.8057 O   0  0  0  0  0  0  0  0  0  0  0  0
    8.7867    0.9252   -5.9228 C   0  0  0  0  0  0  0  0  0  0  0  0
    9.5482    1.6682   -5.6530 H   0  0  0  0  0  0  0  0  0  0  0  0
    9.3021   -0.0340   -6.0412 H   0  0  0  0  0  0  0  0  0  0  0  0
    8.3811    1.2126   -6.8971 H   0  0  0  0  0  0  0  0  0  0  0  0
   -2.5300   -0.0158   -3.0420 O   0  0  0  0  0  0  0  0  0  0  0  0
   -3.7913    0.6394   -3.1885 C   0  0  0  0  0  0  0  0  0  0  0  0
   -4.4326   -0.0725   -3.7078 H   0  0  0  0  0  0  0  0  0  0  0  0
   -3.6953    1.5511   -3.7879 H   0  0  0  0  0  0  0  0  0  0  0  0
   -4.2277    0.8803   -2.2130 H   0  0  0  0  0  0  0  0  0  0  0  0
  1  2  1  0  0  0  0
  2  8  1  0  0  0  0
  2  3  2  0  0  0  0
  3 11  1  0  0  0  0
  4  3  1  0  0  0  0
  4  9  1  0  0  0  0
  5  4  2  0  0  0  0
  6  1  2  0  0  0  0
  6  5  1  0  0  0  0
  7  1  1  0  0  0  0
 10  5  1  0  0  0  0
 11 12  1  0  0  0  0
 13 19  1  0  0  0  0
 14 20  1  0  0  0  0
 14 13  2  0  0  0  0
 15 14  1  0  0  0  0
 16 15  2  0  0  0  0
 16 17  1  0  0  0  0
 17 22  1  0  0  0  0
 17 18  2  0  0  0  0
 18 13  1  0  0  0  0
 18 23  1  0  0  0  0
 21 16  1  0  0  0  0
 23 25  2  0  0  0  0
 23 24  1  0  0  0  0
 26 23  2  0  0  0  0
 27 28  1  0  0  0  0
 27 15  1  0  0  0  0
 29 27  1  0  0  0  0
 30 27  1  0  0  0  0
 31  6  1  0  0  0  0
 32 31  1  0  0  0  0
 32 35  1  0  0  0  0
 33 32  1  0  0  0  0
 34 32  1  0  0  0  0
M  RAD  3  11   2  12   3  24   2
M  END
