Coordinates from ORCA-job p-CH3O-Ph-N2-X-OTs-B3LYPG-6-31G_dp-scan-d09-49-n400
 OpenBabel08281821023D

 35 35  0  0  0  0  0  0  0  0999 V2000
   -0.1758    0.0446   -1.4776 C   0  0  0  0  0  0  0  0  0  0  0  0
    0.7860    1.0258   -1.6027 C   0  0  0  0  0  0  0  0  0  0  0  0
    0.3576    2.3049   -2.0238 C   0  0  0  0  0  0  0  0  0  0  0  0
   -0.9860    2.5947   -2.3171 C   0  0  0  0  0  0  0  0  0  0  0  0
   -1.9312    1.5909   -2.2003 C   0  0  0  0  0  0  0  0  0  0  0  0
   -1.5285    0.3062   -1.7788 C   0  0  0  0  0  0  0  0  0  0  0  0
    0.0967   -0.9543   -1.1568 H   0  0  0  0  0  0  0  0  0  0  0  0
    1.8391    0.8351   -1.3922 H   0  0  0  0  0  0  0  0  0  0  0  0
   -1.2707    3.5904   -2.6388 H   0  0  0  0  0  0  0  0  0  0  0  0
   -2.9655    1.8059   -2.4354 H   0  0  0  0  0  0  0  0  0  0  0  0
    1.2657    3.3286   -2.1487 N   0  0  0  0  0  0  0  0  0  0  0  0
    2.0684    4.1131   -2.2186 N   0  0  0  0  0  0  0  0  0  0  0  0
    5.6149    0.9226   -4.6726 C   0  0  0  0  0  0  0  0  0  0  0  0
    6.7851    0.5621   -5.3427 C   0  0  0  0  0  0  0  0  0  0  0  0
    8.0210    0.5920   -4.6929 C   0  0  0  0  0  0  0  0  0  0  0  0
    8.0467    0.9983   -3.3500 C   0  0  0  0  0  0  0  0  0  0  0  0
    6.8920    1.3608   -2.6576 C   0  0  0  0  0  0  0  0  0  0  0  0
    5.6537    1.3192   -3.3358 C   0  0  0  0  0  0  0  0  0  0  0  0
    4.6543    0.9013   -5.1758 H   0  0  0  0  0  0  0  0  0  0  0  0
    6.7324    0.2542   -6.3841 H   0  0  0  0  0  0  0  0  0  0  0  0
    9.0004    1.0333   -2.8273 H   0  0  0  0  0  0  0  0  0  0  0  0
    7.0411    1.6608   -1.6148 H   0  0  0  0  0  0  0  0  0  0  0  0
    4.0586    1.7576   -2.5841 S   0  0  0  0  0  0  0  0  0  0  0  0
    4.1908    3.2132   -2.2065 O   0  0  0  0  0  0  0  0  0  0  0  0
    3.9014    0.8692   -1.3968 O   0  0  0  0  0  0  0  0  0  0  0  0
    2.9751    1.5571   -3.6070 O   0  0  0  0  0  0  0  0  0  0  0  0
    9.2917    0.1846   -5.4000 C   0  0  0  0  0  0  0  0  0  0  0  0
    9.6301   -0.8055   -5.0703 H   0  0  0  0  0  0  0  0  0  0  0  0
    9.1490    0.1388   -6.4838 H   0  0  0  0  0  0  0  0  0  0  0  0
   10.1072    0.8867   -5.1950 H   0  0  0  0  0  0  0  0  0  0  0  0
   -2.3647   -0.7348   -1.6325 O   0  0  0  0  0  0  0  0  0  0  0  0
   -3.7524   -0.5707   -1.9279 C   0  0  0  0  0  0  0  0  0  0  0  0
   -4.2083   -1.5433   -1.7445 H   0  0  0  0  0  0  0  0  0  0  0  0
   -3.9034   -0.2886   -2.9757 H   0  0  0  0  0  0  0  0  0  0  0  0
   -4.2119    0.1768   -1.2720 H   0  0  0  0  0  0  0  0  0  0  0  0
  1  7  1  0  0  0  0
  2  1  1  0  0  0  0
  2  8  1  0  0  0  0
  3  2  2  0  0  0  0
  4  5  2  0  0  0  0
  4  3  1  0  0  0  0
  5  6  1  0  0  0  0
  6 31  1  0  0  0  0
  6  1  2  0  0  0  0
  9  4  1  0  0  0  0
 10  5  1  0  0  0  0
 11  3  1  0  0  0  0
 12 11  1  0  0  0  0
 13 18  2  0  0  0  0
 14 15  2  0  0  0  0
 14 13  1  0  0  0  0
 15 16  1  0  0  0  0
 16 21  1  0  0  0  0
 16 17  2  0  0  0  0
 17 22  1  0  0  0  0
 18 17  1  0  0  0  0
 18 23  1  0  0  0  0
 19 13  1  0  0  0  0
 20 14  1  0  0  0  0
 23 24  2  0  0  0  0
 23 25  1  0  0  0  0
 26 23  2  0  0  0  0
 27 30  1  0  0  0  0
 27 28  1  0  0  0  0
 27 15  1  0  0  0  0
 29 27  1  0  0  0  0
 32 33  1  0  0  0  0
 32 31  1  0  0  0  0
 32 35  1  0  0  0  0
 34 32  1  0  0  0  0
M  RAD  3  11   2  12   3  25   2
M  END
