Coordinates from ORCA-job p-CH3O-Ph-N2-X-OTs-B3LYPG-6-31G_dp-scan-d09-49-n400
 OpenBabel08281821023D

 35 35  0  0  0  0  0  0  0  0999 V2000
   -0.1788    0.0445   -1.4790 C   0  0  0  0  0  0  0  0  0  0  0  0
    0.7828    1.0261   -1.6022 C   0  0  0  0  0  0  0  0  0  0  0  0
    0.3545    2.3053   -2.0233 C   0  0  0  0  0  0  0  0  0  0  0  0
   -0.9888    2.5947   -2.3184 C   0  0  0  0  0  0  0  0  0  0  0  0
   -1.9338    1.5904   -2.2035 C   0  0  0  0  0  0  0  0  0  0  0  0
   -1.5311    0.3057   -1.7820 C   0  0  0  0  0  0  0  0  0  0  0  0
    0.0937   -0.9544   -1.1583 H   0  0  0  0  0  0  0  0  0  0  0  0
    1.8357    0.8358   -1.3902 H   0  0  0  0  0  0  0  0  0  0  0  0
   -1.2734    3.5904   -2.6401 H   0  0  0  0  0  0  0  0  0  0  0  0
   -2.9679    1.8052   -2.4400 H   0  0  0  0  0  0  0  0  0  0  0  0
    1.2623    3.3294   -2.1463 N   0  0  0  0  0  0  0  0  0  0  0  0
    2.0647    4.1144   -2.2146 N   0  0  0  0  0  0  0  0  0  0  0  0
    5.6170    0.9218   -4.6565 C   0  0  0  0  0  0  0  0  0  0  0  0
    6.7813    0.5587   -5.3353 C   0  0  0  0  0  0  0  0  0  0  0  0
    8.0216    0.5903   -4.6955 C   0  0  0  0  0  0  0  0  0  0  0  0
    8.0561    1.0011   -3.3542 C   0  0  0  0  0  0  0  0  0  0  0  0
    6.9084    1.3669   -2.6512 C   0  0  0  0  0  0  0  0  0  0  0  0
    5.6625    1.3233   -3.3211 C   0  0  0  0  0  0  0  0  0  0  0  0
    4.6530    0.8989   -5.1533 H   0  0  0  0  0  0  0  0  0  0  0  0
    6.7196    0.2477   -6.3753 H   0  0  0  0  0  0  0  0  0  0  0  0
    9.0138    1.0374   -2.8389 H   0  0  0  0  0  0  0  0  0  0  0  0
    7.0841    1.6679   -1.6104 H   0  0  0  0  0  0  0  0  0  0  0  0
    4.0579    1.7597   -2.5771 S   0  0  0  0  0  0  0  0  0  0  0  0
    4.1873    3.2157   -2.2000 O   0  0  0  0  0  0  0  0  0  0  0  0
    3.8973    0.8705   -1.3909 O   0  0  0  0  0  0  0  0  0  0  0  0
    2.9734    1.5590   -3.6022 O   0  0  0  0  0  0  0  0  0  0  0  0
    9.2877    0.1816   -5.4101 C   0  0  0  0  0  0  0  0  0  0  0  0
    9.6368   -0.8010   -5.0695 H   0  0  0  0  0  0  0  0  0  0  0  0
    9.1338    0.1190   -6.4914 H   0  0  0  0  0  0  0  0  0  0  0  0
   10.1002    0.8925   -5.2241 H   0  0  0  0  0  0  0  0  0  0  0  0
   -2.3672   -0.7357   -1.6373 O   0  0  0  0  0  0  0  0  0  0  0  0
   -3.7545   -0.5720   -1.9346 C   0  0  0  0  0  0  0  0  0  0  0  0
   -4.2103   -1.5448   -1.7522 H   0  0  0  0  0  0  0  0  0  0  0  0
   -3.9043   -0.2895   -2.9824 H   0  0  0  0  0  0  0  0  0  0  0  0
   -4.2151    0.1751   -1.2789 H   0  0  0  0  0  0  0  0  0  0  0  0
  1  7  1  0  0  0  0
  2  1  1  0  0  0  0
  2  8  1  0  0  0  0
  3  2  2  0  0  0  0
  4  5  2  0  0  0  0
  4  3  1  0  0  0  0
  5  6  1  0  0  0  0
  6 31  1  0  0  0  0
  6  1  2  0  0  0  0
  9  4  1  0  0  0  0
 10  5  1  0  0  0  0
 11  3  1  0  0  0  0
 12 11  1  0  0  0  0
 13 18  2  0  0  0  0
 14 15  2  0  0  0  0
 14 13  1  0  0  0  0
 15 16  1  0  0  0  0
 16 21  1  0  0  0  0
 16 17  2  0  0  0  0
 17 22  1  0  0  0  0
 18 17  1  0  0  0  0
 18 23  1  0  0  0  0
 19 13  1  0  0  0  0
 20 14  1  0  0  0  0
 23 24  2  0  0  0  0
 23 25  1  0  0  0  0
 26 23  2  0  0  0  0
 27 30  1  0  0  0  0
 27 28  1  0  0  0  0
 27 15  1  0  0  0  0
 29 27  1  0  0  0  0
 32 33  1  0  0  0  0
 32 31  1  0  0  0  0
 32 35  1  0  0  0  0
 34 32  1  0  0  0  0
M  RAD  3  11   2  12   3  25   2
M  END
