Coordinates from ORCA-job p-CH3O-Ph-N2-X-OTs-B3LYPG-6-31G_dp-scan-d09-49-n400
 OpenBabel08281821023D

 35 35  0  0  0  0  0  0  0  0999 V2000
   -0.2948   -0.1109   -1.8209 C   0  0  0  0  0  0  0  0  0  0  0  0
    0.7694    0.7524   -1.6636 C   0  0  0  0  0  0  0  0  0  0  0  0
    0.4880    2.1376   -1.6719 C   0  0  0  0  0  0  0  0  0  0  0  0
   -0.8118    2.6452   -1.8403 C   0  0  0  0  0  0  0  0  0  0  0  0
   -1.8621    1.7609   -2.0114 C   0  0  0  0  0  0  0  0  0  0  0  0
   -1.6073    0.3732   -2.0017 C   0  0  0  0  0  0  0  0  0  0  0  0
   -0.1367   -1.1837   -1.8218 H   0  0  0  0  0  0  0  0  0  0  0  0
    1.7911    0.3905   -1.5438 H   0  0  0  0  0  0  0  0  0  0  0  0
   -0.9821    3.7164   -1.8421 H   0  0  0  0  0  0  0  0  0  0  0  0
   -2.8636    2.1466   -2.1505 H   0  0  0  0  0  0  0  0  0  0  0  0
    1.5014    3.0478   -1.4941 N   0  0  0  0  0  0  0  0  0  0  0  0
    2.3734    3.7341   -1.3202 N   0  0  0  0  0  0  0  0  0  0  0  0
    5.8455   -0.0790   -3.9797 C   0  0  0  0  0  0  0  0  0  0  0  0
    7.0100   -0.2740   -4.7173 C   0  0  0  0  0  0  0  0  0  0  0  0
    8.0029    0.7159   -4.7801 C   0  0  0  0  0  0  0  0  0  0  0  0
    7.7931    1.9103   -4.0806 C   0  0  0  0  0  0  0  0  0  0  0  0
    6.6287    2.1205   -3.3399 C   0  0  0  0  0  0  0  0  0  0  0  0
    5.6544    1.1242   -3.2951 C   0  0  0  0  0  0  0  0  0  0  0  0
    5.0893   -0.8551   -3.9212 H   0  0  0  0  0  0  0  0  0  0  0  0
    7.1548   -1.2110   -5.2503 H   0  0  0  0  0  0  0  0  0  0  0  0
    8.5526    2.6886   -4.1128 H   0  0  0  0  0  0  0  0  0  0  0  0
    6.4763    3.0424   -2.7893 H   0  0  0  0  0  0  0  0  0  0  0  0
    4.1213    1.3812   -2.3931 S   0  0  0  0  0  0  0  0  0  0  0  0
    4.3795    2.5664   -1.4967 O   0  0  0  0  0  0  0  0  0  0  0  0
    3.8649    0.1196   -1.6408 O   0  0  0  0  0  0  0  0  0  0  0  0
    3.0512    1.6742   -3.3915 O   0  0  0  0  0  0  0  0  0  0  0  0
    9.2770    0.4812   -5.5576 C   0  0  0  0  0  0  0  0  0  0  0  0
    9.9930   -0.1140   -4.9761 H   0  0  0  0  0  0  0  0  0  0  0  0
    9.0847   -0.0644   -6.4871 H   0  0  0  0  0  0  0  0  0  0  0  0
    9.7687    1.4238   -5.8148 H   0  0  0  0  0  0  0  0  0  0  0  0
   -2.5539   -0.5672   -2.1546 O   0  0  0  0  0  0  0  0  0  0  0  0
   -3.9120   -0.1736   -2.3558 C   0  0  0  0  0  0  0  0  0  0  0  0
   -4.4748   -1.1012   -2.4535 H   0  0  0  0  0  0  0  0  0  0  0  0
   -4.0205    0.4183   -3.2714 H   0  0  0  0  0  0  0  0  0  0  0  0
   -4.2911    0.3944   -1.4986 H   0  0  0  0  0  0  0  0  0  0  0  0
  1  2  2  0  0  0  0
  2  8  1  0  0  0  0
  3  2  1  0  0  0  0
  3 11  1  0  0  0  0
  4  3  2  0  0  0  0
  5  6  2  0  0  0  0
  5  4  1  0  0  0  0
  6  1  1  0  0  0  0
  7  1  1  0  0  0  0
  9  4  1  0  0  0  0
 10  5  1  0  0  0  0
 11 12  1  0  0  0  0
 13 19  1  0  0  0  0
 13 18  2  0  0  0  0
 14 13  1  0  0  0  0
 15 14  2  0  0  0  0
 15 16  1  0  0  0  0
 16 17  2  0  0  0  0
 17 18  1  0  0  0  0
 17 22  1  0  0  0  0
 18 23  1  0  0  0  0
 20 14  1  0  0  0  0
 21 16  1  0  0  0  0
 23 25  2  0  0  0  0
 23 24  1  0  0  0  0
 26 23  2  0  0  0  0
 27 28  1  0  0  0  0
 27 15  1  0  0  0  0
 29 27  1  0  0  0  0
 30 27  1  0  0  0  0
 31  6  1  0  0  0  0
 32 31  1  0  0  0  0
 32 35  1  0  0  0  0
 33 32  1  0  0  0  0
 34 32  1  0  0  0  0
M  RAD  3  11   2  12   3  24   2
M  END
