Coordinates from ORCA-job p-CH3O-Ph-N2-X-OTs-B3LYPG-6-31G_dp-scan-d09-49-n400
 OpenBabel08281821023D

 35 35  0  0  0  0  0  0  0  0999 V2000
   -0.3282   -0.0966   -2.3524 C   0  0  0  0  0  0  0  0  0  0  0  0
    0.7979    0.4548   -1.7775 C   0  0  0  0  0  0  0  0  0  0  0  0
    0.6807    1.7564   -1.2392 C   0  0  0  0  0  0  0  0  0  0  0  0
   -0.5180    2.4896   -1.2814 C   0  0  0  0  0  0  0  0  0  0  0  0
   -1.6306    1.9230   -1.8780 C   0  0  0  0  0  0  0  0  0  0  0  0
   -1.5404    0.6221   -2.4172 C   0  0  0  0  0  0  0  0  0  0  0  0
   -0.2966   -1.0922   -2.7792 H   0  0  0  0  0  0  0  0  0  0  0  0
    1.7482   -0.0787   -1.7359 H   0  0  0  0  0  0  0  0  0  0  0  0
   -0.5619    3.4865   -0.8579 H   0  0  0  0  0  0  0  0  0  0  0  0
   -2.5539    2.4858   -1.9227 H   0  0  0  0  0  0  0  0  0  0  0  0
    1.7606    2.3488   -0.6311 N   0  0  0  0  0  0  0  0  0  0  0  0
    2.6658    2.7800   -0.1253 N   0  0  0  0  0  0  0  0  0  0  0  0
    6.9440    0.0998   -2.6809 C   0  0  0  0  0  0  0  0  0  0  0  0
    7.9421    0.1661   -3.6539 C   0  0  0  0  0  0  0  0  0  0  0  0
    7.7405    0.8472   -4.8679 C   0  0  0  0  0  0  0  0  0  0  0  0
    6.5044    1.4689   -5.1056 C   0  0  0  0  0  0  0  0  0  0  0  0
    5.4986    1.4143   -4.1442 C   0  0  0  0  0  0  0  0  0  0  0  0
    5.7362    0.7336   -2.9551 C   0  0  0  0  0  0  0  0  0  0  0  0
    7.1067   -0.4308   -1.7481 H   0  0  0  0  0  0  0  0  0  0  0  0
    8.8977   -0.3209   -3.4730 H   0  0  0  0  0  0  0  0  0  0  0  0
    6.3434    1.9895   -6.0472 H   0  0  0  0  0  0  0  0  0  0  0  0
    4.4539    1.8040   -4.0823 H   0  0  0  0  0  0  0  0  0  0  0  0
    4.2697    0.8218   -1.9336 S   0  0  0  0  0  0  0  0  0  0  0  0
    4.6038    1.5767   -0.6756 O   0  0  0  0  0  0  0  0  0  0  0  0
    3.7616   -0.5536   -1.6672 O   0  0  0  0  0  0  0  0  0  0  0  0
    3.3736    1.6200   -2.8463 O   0  0  0  0  0  0  0  0  0  0  0  0
    8.8524    0.9229   -5.8889 C   0  0  0  0  0  0  0  0  0  0  0  0
    9.5988    1.6775   -5.6090 H   0  0  0  0  0  0  0  0  0  0  0  0
    9.3802   -0.0323   -5.9808 H   0  0  0  0  0  0  0  0  0  0  0  0
    8.4701    1.1937   -6.8773 H   0  0  0  0  0  0  0  0  0  0  0  0
   -2.5594   -0.0185   -3.0121 O   0  0  0  0  0  0  0  0  0  0  0  0
   -3.8242    0.6334   -3.1410 C   0  0  0  0  0  0  0  0  0  0  0  0
   -4.4696   -0.0784   -3.6552 H   0  0  0  0  0  0  0  0  0  0  0  0
   -3.7382    1.5477   -3.7381 H   0  0  0  0  0  0  0  0  0  0  0  0
   -4.2497    0.8695   -2.1594 H   0  0  0  0  0  0  0  0  0  0  0  0
  1  2  1  0  0  0  0
  2  8  1  0  0  0  0
  2  3  2  0  0  0  0
  3 11  1  0  0  0  0
  4  3  1  0  0  0  0
  4  9  1  0  0  0  0
  5  4  2  0  0  0  0
  6  1  2  0  0  0  0
  6  5  1  0  0  0  0
  7  1  1  0  0  0  0
 10  5  1  0  0  0  0
 11 12  1  0  0  0  0
 13 19  1  0  0  0  0
 14 20  1  0  0  0  0
 14 13  2  0  0  0  0
 15 14  1  0  0  0  0
 16 15  2  0  0  0  0
 16 17  1  0  0  0  0
 17 22  1  0  0  0  0
 17 18  2  0  0  0  0
 18 13  1  0  0  0  0
 18 23  1  0  0  0  0
 21 16  1  0  0  0  0
 23 25  2  0  0  0  0
 23 24  1  0  0  0  0
 26 23  2  0  0  0  0
 27 28  1  0  0  0  0
 27 15  1  0  0  0  0
 29 27  1  0  0  0  0
 30 27  1  0  0  0  0
 31  6  1  0  0  0  0
 32 31  1  0  0  0  0
 32 35  1  0  0  0  0
 33 32  1  0  0  0  0
 34 32  1  0  0  0  0
M  RAD  3  11   2  12   3  24   2
M  END
