Coordinates from ORCA-job p-CH3O-Ph-N2-X-OTs-B3LYPG-6-31G_dp-scan-d09-49-n400
 OpenBabel08281821023D

 35 35  0  0  0  0  0  0  0  0999 V2000
   -0.4295    0.0086   -2.4938 C   0  0  0  0  0  0  0  0  0  0  0  0
    0.7048    0.5983   -1.9784 C   0  0  0  0  0  0  0  0  0  0  0  0
    0.5534    1.8445   -1.3221 C   0  0  0  0  0  0  0  0  0  0  0  0
   -0.6990    2.4778   -1.1808 C   0  0  0  0  0  0  0  0  0  0  0  0
   -1.8212    1.8636   -1.7030 C   0  0  0  0  0  0  0  0  0  0  0  0
   -1.6937    0.6237   -2.3681 C   0  0  0  0  0  0  0  0  0  0  0  0
   -0.3683   -0.9442   -3.0066 H   0  0  0  0  0  0  0  0  0  0  0  0
    1.6845    0.1293   -2.0634 H   0  0  0  0  0  0  0  0  0  0  0  0
   -0.7729    3.4328   -0.6732 H   0  0  0  0  0  0  0  0  0  0  0  0
   -2.7846    2.3454   -1.5982 H   0  0  0  0  0  0  0  0  0  0  0  0
    1.6483    2.4735   -0.8016 N   0  0  0  0  0  0  0  0  0  0  0  0
    2.5687    2.9698   -0.3868 N   0  0  0  0  0  0  0  0  0  0  0  0
    6.9463    0.0294   -2.8092 C   0  0  0  0  0  0  0  0  0  0  0  0
    8.0432    0.0458   -3.6613 C   0  0  0  0  0  0  0  0  0  0  0  0
    8.0162    0.8074   -4.8478 C   0  0  0  0  0  0  0  0  0  0  0  0
    6.8666    1.5482   -5.1594 C   0  0  0  0  0  0  0  0  0  0  0  0
    5.7255    1.5790   -4.3369 C   0  0  0  0  0  0  0  0  0  0  0  0
    5.8409    0.7995   -3.1940 C   0  0  0  0  0  0  0  0  0  0  0  0
    6.9579   -0.5556   -1.8927 H   0  0  0  0  0  0  0  0  0  0  0  0
    8.9302   -0.5323   -3.4116 H   0  0  0  0  0  0  0  0  0  0  0  0
    6.8813    2.1243   -6.0876 H   0  0  0  0  0  0  0  0  0  0  0  0
    4.0216    2.0365   -3.7779 H   0  0  0  0  0  0  0  0  0  0  0  0
    4.3759    0.8444   -2.1588 S   0  0  0  0  0  0  0  0  0  0  0  0
    4.5860    1.5105   -0.8526 O   0  0  0  0  0  0  0  0  0  0  0  0
    3.6558   -0.4477   -2.0934 O   0  0  0  0  0  0  0  0  0  0  0  0
    3.4717    1.8482   -3.0647 O   0  0  0  0  0  0  0  0  0  0  0  0
    9.2223    0.8184   -5.7600 C   0  0  0  0  0  0  0  0  0  0  0  0
   10.1066    1.2230   -5.2525 H   0  0  0  0  0  0  0  0  0  0  0  0
    9.4824   -0.1925   -6.0951 H   0  0  0  0  0  0  0  0  0  0  0  0
    9.0405    1.4291   -6.6490 H   0  0  0  0  0  0  0  0  0  0  0  0
   -2.7197   -0.0487   -2.9113 O   0  0  0  0  0  0  0  0  0  0  0  0
   -4.0394    0.4962   -2.8416 C   0  0  0  0  0  0  0  0  0  0  0  0
   -4.6807   -0.2250   -3.3471 H   0  0  0  0  0  0  0  0  0  0  0  0
   -4.0959    1.4605   -3.3578 H   0  0  0  0  0  0  0  0  0  0  0  0
   -4.3655    0.6099   -1.8019 H   0  0  0  0  0  0  0  0  0  0  0  0
  1  6  2  0  0  0  0
  1  2  1  0  0  0  0
  2  3  2  0  0  0  0
  3  4  1  0  0  0  0
  3 11  1  0  0  0  0
  4  9  1  0  0  0  0
  5 10  1  0  0  0  0
  5  4  2  0  0  0  0
  6  5  1  0  0  0  0
  7  1  1  0  0  0  0
  8  2  1  0  0  0  0
 11 12  1  0  0  0  0
 13 19  1  0  0  0  0
 14 20  1  0  0  0  0
 14 13  2  0  0  0  0
 15 14  1  0  0  0  0
 16 15  2  0  0  0  0
 16 17  1  0  0  0  0
 17 18  2  0  0  0  0
 18 13  1  0  0  0  0
 18 23  1  0  0  0  0
 21 16  1  0  0  0  0
 22 26  1  0  0  0  0
 23 25  2  0  0  0  0
 23 24  2  0  0  0  0
 26 23  1  0  0  0  0
 27 28  1  0  0  0  0
 27 15  1  0  0  0  0
 29 27  1  0  0  0  0
 30 27  1  0  0  0  0
 31 32  1  0  0  0  0
 31  6  1  0  0  0  0
 32 35  1  0  0  0  0
 33 32  1  0  0  0  0
 34 32  1  0  0  0  0
M  RAD  3  11   2  12   3  17   2
M  END
