Coordinates from ORCA-job p-CH3O-Ph-N2-X-OTs-B3LYPG-6-31G_dp-scan-d09-49-n400
 OpenBabel08281821023D

 35 35  0  0  0  0  0  0  0  0999 V2000
   -0.2894   -0.1018   -2.3532 C   0  0  0  0  0  0  0  0  0  0  0  0
    0.8263    0.4479   -1.7573 C   0  0  0  0  0  0  0  0  0  0  0  0
    0.7046    1.7547   -1.2329 C   0  0  0  0  0  0  0  0  0  0  0  0
   -0.4880    2.4954   -1.3089 C   0  0  0  0  0  0  0  0  0  0  0  0
   -1.5897    1.9302   -1.9262 C   0  0  0  0  0  0  0  0  0  0  0  0
   -1.4954    0.6238   -2.4522 C   0  0  0  0  0  0  0  0  0  0  0  0
   -0.2542   -1.1011   -2.7708 H   0  0  0  0  0  0  0  0  0  0  0  0
    1.7727   -0.0897   -1.6878 H   0  0  0  0  0  0  0  0  0  0  0  0
   -0.5354    3.4964   -0.8954 H   0  0  0  0  0  0  0  0  0  0  0  0
   -2.5081    2.4982   -1.9974 H   0  0  0  0  0  0  0  0  0  0  0  0
    1.7741    2.3452   -0.6052 N   0  0  0  0  0  0  0  0  0  0  0  0
    2.6553    2.7917   -0.0726 N   0  0  0  0  0  0  0  0  0  0  0  0
    6.9821    0.1018   -2.6547 C   0  0  0  0  0  0  0  0  0  0  0  0
    7.9347    0.1762   -3.6719 C   0  0  0  0  0  0  0  0  0  0  0  0
    7.6679    0.8477   -4.8795 C   0  0  0  0  0  0  0  0  0  0  0  0
    6.4143    1.4526   -5.0673 C   0  0  0  0  0  0  0  0  0  0  0  0
    5.4474    1.3948   -4.0652 C   0  0  0  0  0  0  0  0  0  0  0  0
    5.7588    0.7206   -2.8882 C   0  0  0  0  0  0  0  0  0  0  0  0
    7.1934   -0.4209   -1.7269 H   0  0  0  0  0  0  0  0  0  0  0  0
    8.9044   -0.2962   -3.5323 H   0  0  0  0  0  0  0  0  0  0  0  0
    6.2117    1.9644   -6.0065 H   0  0  0  0  0  0  0  0  0  0  0  0
    4.3590    1.7431   -3.8605 H   0  0  0  0  0  0  0  0  0  0  0  0
    4.3142    0.8163   -1.8315 S   0  0  0  0  0  0  0  0  0  0  0  0
    4.6408    1.5959   -0.5913 O   0  0  0  0  0  0  0  0  0  0  0  0
    3.7806   -0.5455   -1.5493 O   0  0  0  0  0  0  0  0  0  0  0  0
    3.4223    1.6118   -2.7730 O   0  0  0  0  0  0  0  0  0  0  0  0
    8.7324    0.9270   -5.9502 C   0  0  0  0  0  0  0  0  0  0  0  0
    9.5156    1.6474   -5.6814 H   0  0  0  0  0  0  0  0  0  0  0  0
    9.2245   -0.0400   -6.1012 H   0  0  0  0  0  0  0  0  0  0  0  0
    8.3115    1.2440   -6.9085 H   0  0  0  0  0  0  0  0  0  0  0  0
   -2.5040   -0.0153   -3.0648 O   0  0  0  0  0  0  0  0  0  0  0  0
   -3.7615    0.6431   -3.2298 C   0  0  0  0  0  0  0  0  0  0  0  0
   -4.3988   -0.0697   -3.7526 H   0  0  0  0  0  0  0  0  0  0  0  0
   -3.6554    1.5511   -3.8330 H   0  0  0  0  0  0  0  0  0  0  0  0
   -4.2084    0.8907   -2.2607 H   0  0  0  0  0  0  0  0  0  0  0  0
  1  2  1  0  0  0  0
  2  8  1  0  0  0  0
  2  3  2  0  0  0  0
  3 11  1  0  0  0  0
  4  3  1  0  0  0  0
  4  9  1  0  0  0  0
  5  4  2  0  0  0  0
  6  1  2  0  0  0  0
  6  5  1  0  0  0  0
  7  1  1  0  0  0  0
 10  5  1  0  0  0  0
 11 12  1  0  0  0  0
 13 19  1  0  0  0  0
 14 20  1  0  0  0  0
 14 13  2  0  0  0  0
 15 14  1  0  0  0  0
 16 15  2  0  0  0  0
 16 17  1  0  0  0  0
 17 22  1  0  0  0  0
 17 18  2  0  0  0  0
 18 13  1  0  0  0  0
 18 23  1  0  0  0  0
 21 16  1  0  0  0  0
 23 25  2  0  0  0  0
 23 24  1  0  0  0  0
 26 23  2  0  0  0  0
 27 28  1  0  0  0  0
 27 15  1  0  0  0  0
 29 27  1  0  0  0  0
 30 27  1  0  0  0  0
 31  6  1  0  0  0  0
 32 31  1  0  0  0  0
 32 35  1  0  0  0  0
 33 32  1  0  0  0  0
 34 32  1  0  0  0  0
M  RAD  3  11   2  12   3  24   2
M  END
