Coordinates from ORCA-job p-CH3O-Ph-N2-X-OTs-B3LYPG-6-31G_dp-scan-d09-49-n400
 OpenBabel08281821023D

 35 35  0  0  0  0  0  0  0  0999 V2000
   -0.3483   -0.1219   -2.1270 C   0  0  0  0  0  0  0  0  0  0  0  0
    0.7522    0.6362   -1.7840 C   0  0  0  0  0  0  0  0  0  0  0  0
    0.5290    1.9902   -1.4465 C   0  0  0  0  0  0  0  0  0  0  0  0
   -0.7514    2.5703   -1.4534 C   0  0  0  0  0  0  0  0  0  0  0  0
   -1.8392    1.7947   -1.8137 C   0  0  0  0  0  0  0  0  0  0  0  0
   -1.6414    0.4401   -2.1551 C   0  0  0  0  0  0  0  0  0  0  0  0
   -0.2344   -1.1658   -2.3958 H   0  0  0  0  0  0  0  0  0  0  0  0
    1.7600    0.2204   -1.7700 H   0  0  0  0  0  0  0  0  0  0  0  0
   -0.8781    3.6132   -1.1846 H   0  0  0  0  0  0  0  0  0  0  0  0
   -2.8265    2.2384   -1.8270 H   0  0  0  0  0  0  0  0  0  0  0  0
    1.5822    2.7915   -1.0768 N   0  0  0  0  0  0  0  0  0  0  0  0
    2.4898    3.3824   -0.7734 N   0  0  0  0  0  0  0  0  0  0  0  0
    6.2281   -0.1944   -3.4131 C   0  0  0  0  0  0  0  0  0  0  0  0
    7.3954   -0.3579   -4.1575 C   0  0  0  0  0  0  0  0  0  0  0  0
    8.0035    0.7293   -4.8000 C   0  0  0  0  0  0  0  0  0  0  0  0
    7.4053    1.9916   -4.6788 C   0  0  0  0  0  0  0  0  0  0  0  0
    6.2379    2.1690   -3.9385 C   0  0  0  0  0  0  0  0  0  0  0  0
    5.6499    1.0711   -3.3077 C   0  0  0  0  0  0  0  0  0  0  0  0
    5.7548   -1.0308   -2.9112 H   0  0  0  0  0  0  0  0  0  0  0  0
    7.8428   -1.3461   -4.2392 H   0  0  0  0  0  0  0  0  0  0  0  0
    7.8618    2.8472   -5.1702 H   0  0  0  0  0  0  0  0  0  0  0  0
    5.7885    3.1527   -3.8498 H   0  0  0  0  0  0  0  0  0  0  0  0
    4.1378    1.2869   -2.3621 S   0  0  0  0  0  0  0  0  0  0  0  0
    4.4691    2.3211   -1.3140 O   0  0  0  0  0  0  0  0  0  0  0  0
    3.8123   -0.0481   -1.7820 O   0  0  0  0  0  0  0  0  0  0  0  0
    3.0892    1.7866   -3.2966 O   0  0  0  0  0  0  0  0  0  0  0  0
    9.2801    0.5437   -5.5859 C   0  0  0  0  0  0  0  0  0  0  0  0
   10.1310    0.3500   -4.9214 H   0  0  0  0  0  0  0  0  0  0  0  0
    9.2080   -0.3083   -6.2711 H   0  0  0  0  0  0  0  0  0  0  0  0
    9.5193    1.4321   -6.1773 H   0  0  0  0  0  0  0  0  0  0  0  0
   -2.6274   -0.3969   -2.5176 O   0  0  0  0  0  0  0  0  0  0  0  0
   -3.9699    0.0849   -2.5907 C   0  0  0  0  0  0  0  0  0  0  0  0
   -4.5690   -0.7647   -2.9171 H   0  0  0  0  0  0  0  0  0  0  0  0
   -4.0594    0.8976   -3.3201 H   0  0  0  0  0  0  0  0  0  0  0  0
   -4.3228    0.4253   -1.6110 H   0  0  0  0  0  0  0  0  0  0  0  0
  1  2  1  0  0  0  0
  2  8  1  0  0  0  0
  2  3  2  0  0  0  0
  3 11  1  0  0  0  0
  4  3  1  0  0  0  0
  4  9  1  0  0  0  0
  5  4  2  0  0  0  0
  6  1  2  0  0  0  0
  6  5  1  0  0  0  0
  7  1  1  0  0  0  0
 10  5  1  0  0  0  0
 11 12  1  0  0  0  0
 13 18  1  0  0  0  0
 13 19  1  0  0  0  0
 14 13  2  0  0  0  0
 15 16  2  0  0  0  0
 15 14  1  0  0  0  0
 16 17  1  0  0  0  0
 17 22  1  0  0  0  0
 17 18  2  0  0  0  0
 18 23  1  0  0  0  0
 20 14  1  0  0  0  0
 21 16  1  0  0  0  0
 23 25  2  0  0  0  0
 23 24  1  0  0  0  0
 26 23  2  0  0  0  0
 27 28  1  0  0  0  0
 27 15  1  0  0  0  0
 29 27  1  0  0  0  0
 30 27  1  0  0  0  0
 31  6  1  0  0  0  0
 32 31  1  0  0  0  0
 32 35  1  0  0  0  0
 33 32  1  0  0  0  0
 34 32  1  0  0  0  0
M  RAD  3  11   2  12   3  24   2
M  END
