Coordinates from ORCA-job p-CH3O-Ph-N2-X-OTs-B3LYPG-6-31G_dp-scan-d09-49-n400
 OpenBabel08281821023D

 35 35  0  0  0  0  0  0  0  0999 V2000
   -0.3414   -0.1231   -2.1112 C   0  0  0  0  0  0  0  0  0  0  0  0
    0.7559    0.6429   -1.7756 C   0  0  0  0  0  0  0  0  0  0  0  0
    0.5276    2.0004   -1.4565 C   0  0  0  0  0  0  0  0  0  0  0  0
   -0.7545    2.5765   -1.4738 C   0  0  0  0  0  0  0  0  0  0  0  0
   -1.8391    1.7927   -1.8263 C   0  0  0  0  0  0  0  0  0  0  0  0
   -1.6362    0.4345   -2.1497 C   0  0  0  0  0  0  0  0  0  0  0  0
   -0.2237   -1.1701   -2.3661 H   0  0  0  0  0  0  0  0  0  0  0  0
    1.7650    0.2305   -1.7533 H   0  0  0  0  0  0  0  0  0  0  0  0
   -0.8852    3.6223   -1.2188 H   0  0  0  0  0  0  0  0  0  0  0  0
   -2.8277    2.2331   -1.8478 H   0  0  0  0  0  0  0  0  0  0  0  0
    1.5775    2.8099   -1.0953 N   0  0  0  0  0  0  0  0  0  0  0  0
    2.4815    3.4090   -0.7976 N   0  0  0  0  0  0  0  0  0  0  0  0
    6.2013   -0.1988   -3.4426 C   0  0  0  0  0  0  0  0  0  0  0  0
    7.3646   -0.3661   -4.1926 C   0  0  0  0  0  0  0  0  0  0  0  0
    7.9975    0.7258   -4.8022 C   0  0  0  0  0  0  0  0  0  0  0  0
    7.4291    1.9975   -4.6422 C   0  0  0  0  0  0  0  0  0  0  0  0
    6.2661    2.1791   -3.8960 C   0  0  0  0  0  0  0  0  0  0  0  0
    5.6528    1.0760   -3.2986 C   0  0  0  0  0  0  0  0  0  0  0  0
    5.7103   -1.0387   -2.9642 H   0  0  0  0  0  0  0  0  0  0  0  0
    7.7894   -1.3613   -4.3045 H   0  0  0  0  0  0  0  0  0  0  0  0
    7.9059    2.8568   -5.1072 H   0  0  0  0  0  0  0  0  0  0  0  0
    5.8392    3.1690   -3.7733 H   0  0  0  0  0  0  0  0  0  0  0  0
    4.1399    1.2987   -2.3565 S   0  0  0  0  0  0  0  0  0  0  0  0
    4.4678    2.3479   -1.3224 O   0  0  0  0  0  0  0  0  0  0  0  0
    3.8180   -0.0298   -1.7597 O   0  0  0  0  0  0  0  0  0  0  0  0
    3.0899    1.7829   -3.2977 O   0  0  0  0  0  0  0  0  0  0  0  0
    9.2711    0.5354   -5.5917 C   0  0  0  0  0  0  0  0  0  0  0  0
   10.1234    0.3405   -4.9293 H   0  0  0  0  0  0  0  0  0  0  0  0
    9.1947   -0.3171   -6.2755 H   0  0  0  0  0  0  0  0  0  0  0  0
    9.5114    1.4227   -6.1844 H   0  0  0  0  0  0  0  0  0  0  0  0
   -2.6187   -0.4103   -2.5036 O   0  0  0  0  0  0  0  0  0  0  0  0
   -3.9626    0.0660   -2.5855 C   0  0  0  0  0  0  0  0  0  0  0  0
   -4.5584   -0.7899   -2.9014 H   0  0  0  0  0  0  0  0  0  0  0  0
   -4.0536    0.8683   -3.3262 H   0  0  0  0  0  0  0  0  0  0  0  0
   -4.3183    0.4184   -1.6112 H   0  0  0  0  0  0  0  0  0  0  0  0
  1  2  1  0  0  0  0
  2  8  1  0  0  0  0
  2  3  2  0  0  0  0
  3 11  1  0  0  0  0
  4  3  1  0  0  0  0
  4  9  1  0  0  0  0
  5  4  2  0  0  0  0
  6  1  2  0  0  0  0
  6  5  1  0  0  0  0
  7  1  1  0  0  0  0
 10  5  1  0  0  0  0
 11 12  1  0  0  0  0
 13 18  1  0  0  0  0
 13 19  1  0  0  0  0
 14 13  2  0  0  0  0
 15 16  2  0  0  0  0
 15 14  1  0  0  0  0
 16 17  1  0  0  0  0
 17 22  1  0  0  0  0
 17 18  2  0  0  0  0
 18 23  1  0  0  0  0
 20 14  1  0  0  0  0
 21 16  1  0  0  0  0
 23 25  2  0  0  0  0
 23 24  1  0  0  0  0
 26 23  2  0  0  0  0
 27 28  1  0  0  0  0
 27 15  1  0  0  0  0
 29 27  1  0  0  0  0
 30 27  1  0  0  0  0
 31  6  1  0  0  0  0
 32 31  1  0  0  0  0
 32 35  1  0  0  0  0
 33 32  1  0  0  0  0
 34 32  1  0  0  0  0
M  RAD  3  11   2  12   3  24   2
M  END
