Coordinates from ORCA-job p-CH3O-Ph-N2-X-OTs-B3LYPG-6-31G_dp-scan-d09-49-n400
 OpenBabel08281821023D

 35 35  0  0  0  0  0  0  0  0999 V2000
   -0.1492    0.0740   -1.4290 C   0  0  0  0  0  0  0  0  0  0  0  0
    0.8011    1.0565   -1.6160 C   0  0  0  0  0  0  0  0  0  0  0  0
    0.3544    2.3108   -2.0895 C   0  0  0  0  0  0  0  0  0  0  0  0
   -0.9967    2.5750   -2.3727 C   0  0  0  0  0  0  0  0  0  0  0  0
   -1.9305    1.5696   -2.1933 C   0  0  0  0  0  0  0  0  0  0  0  0
   -1.5089    0.3094   -1.7194 C   0  0  0  0  0  0  0  0  0  0  0  0
    0.1380   -0.9065   -1.0668 H   0  0  0  0  0  0  0  0  0  0  0  0
    1.8588    0.8856   -1.4135 H   0  0  0  0  0  0  0  0  0  0  0  0
   -1.2961    3.5522   -2.7348 H   0  0  0  0  0  0  0  0  0  0  0  0
   -2.9706    1.7648   -2.4201 H   0  0  0  0  0  0  0  0  0  0  0  0
    1.2503    3.3357   -2.2777 N   0  0  0  0  0  0  0  0  0  0  0  0
    2.0431    4.1243   -2.3991 N   0  0  0  0  0  0  0  0  0  0  0  0
    5.6519    1.0873   -4.8164 C   0  0  0  0  0  0  0  0  0  0  0  0
    6.8623    0.7395   -5.4178 C   0  0  0  0  0  0  0  0  0  0  0  0
    8.0319    0.5986   -4.6613 C   0  0  0  0  0  0  0  0  0  0  0  0
    7.9584    0.8166   -3.2767 C   0  0  0  0  0  0  0  0  0  0  0  0
    6.7570    1.1612   -2.6623 C   0  0  0  0  0  0  0  0  0  0  0  0
    5.6025    1.2965   -3.4393 C   0  0  0  0  0  0  0  0  0  0  0  0
    4.7417    1.1904   -5.3971 H   0  0  0  0  0  0  0  0  0  0  0  0
    6.8975    0.5720   -6.4918 H   0  0  0  0  0  0  0  0  0  0  0  0
    8.8565    0.7121   -2.6721 H   0  0  0  0  0  0  0  0  0  0  0  0
    6.7161    1.3166   -1.5884 H   0  0  0  0  0  0  0  0  0  0  0  0
    4.0498    1.7774   -2.6745 S   0  0  0  0  0  0  0  0  0  0  0  0
    4.1762    3.2549   -2.3883 O   0  0  0  0  0  0  0  0  0  0  0  0
    3.9281    0.9677   -1.4283 O   0  0  0  0  0  0  0  0  0  0  0  0
    2.9696    1.5048   -3.6666 O   0  0  0  0  0  0  0  0  0  0  0  0
    9.3354    0.1955   -5.3101 C   0  0  0  0  0  0  0  0  0  0  0  0
    9.5257   -0.8783   -5.1859 H   0  0  0  0  0  0  0  0  0  0  0  0
    9.3295    0.4047   -6.3841 H   0  0  0  0  0  0  0  0  0  0  0  0
   10.1842    0.7261   -4.8673 H   0  0  0  0  0  0  0  0  0  0  0  0
   -2.3330   -0.7309   -1.5114 O   0  0  0  0  0  0  0  0  0  0  0  0
   -3.7263   -0.5927   -1.7935 C   0  0  0  0  0  0  0  0  0  0  0  0
   -4.1704   -1.5596   -1.5581 H   0  0  0  0  0  0  0  0  0  0  0  0
   -3.8946   -0.3609   -2.8508 H   0  0  0  0  0  0  0  0  0  0  0  0
   -4.1831    0.1808   -1.1665 H   0  0  0  0  0  0  0  0  0  0  0  0
  1  7  1  0  0  0  0
  2  1  1  0  0  0  0
  2  8  1  0  0  0  0
  3  2  2  0  0  0  0
  4  5  2  0  0  0  0
  4  3  1  0  0  0  0
  5  6  1  0  0  0  0
  6 31  1  0  0  0  0
  6  1  2  0  0  0  0
  9  4  1  0  0  0  0
 10  5  1  0  0  0  0
 11  3  1  0  0  0  0
 12 11  1  0  0  0  0
 13 18  1  0  0  0  0
 14 13  2  0  0  0  0
 14 15  1  0  0  0  0
 15 16  2  0  0  0  0
 16 21  1  0  0  0  0
 16 17  1  0  0  0  0
 17 22  1  0  0  0  0
 18 23  1  0  0  0  0
 18 17  2  0  0  0  0
 19 13  1  0  0  0  0
 20 14  1  0  0  0  0
 23 24  2  0  0  0  0
 23 25  1  0  0  0  0
 26 23  2  0  0  0  0
 27 28  1  0  0  0  0
 27 30  1  0  0  0  0
 27 15  1  0  0  0  0
 29 27  1  0  0  0  0
 32 33  1  0  0  0  0
 32 31  1  0  0  0  0
 32 35  1  0  0  0  0
 34 32  1  0  0  0  0
M  RAD  3  11   2  12   3  25   2
M  END
