Coordinates from ORCA-job p-CH3O-Ph-N2-X-OTs-B3LYPG-6-31G_dp-scan-d09-49-n400
 OpenBabel08281821023D

 35 35  0  0  0  0  0  0  0  0999 V2000
   -0.2991   -0.1159   -1.8537 C   0  0  0  0  0  0  0  0  0  0  0  0
    0.7687    0.7386   -1.6740 C   0  0  0  0  0  0  0  0  0  0  0  0
    0.4932    2.1246   -1.6458 C   0  0  0  0  0  0  0  0  0  0  0  0
   -0.8045    2.6420   -1.8003 C   0  0  0  0  0  0  0  0  0  0  0  0
   -1.8586    1.7669   -1.9943 C   0  0  0  0  0  0  0  0  0  0  0  0
   -1.6096    0.3784   -2.0212 C   0  0  0  0  0  0  0  0  0  0  0  0
   -0.1456   -1.1889   -1.8831 H   0  0  0  0  0  0  0  0  0  0  0  0
    1.7889    0.3699   -1.5629 H   0  0  0  0  0  0  0  0  0  0  0  0
   -0.9703    3.7136   -1.7734 H   0  0  0  0  0  0  0  0  0  0  0  0
   -2.8585    2.1603   -2.1228 H   0  0  0  0  0  0  0  0  0  0  0  0
    1.5107    3.0255   -1.4445 N   0  0  0  0  0  0  0  0  0  0  0  0
    2.3857    3.7036   -1.2538 N   0  0  0  0  0  0  0  0  0  0  0  0
    5.8796   -0.1092   -3.9179 C   0  0  0  0  0  0  0  0  0  0  0  0
    7.0410   -0.3009   -4.6619 C   0  0  0  0  0  0  0  0  0  0  0  0
    7.9990    0.7167   -4.7857 C   0  0  0  0  0  0  0  0  0  0  0  0
    7.7581    1.9362   -4.1408 C   0  0  0  0  0  0  0  0  0  0  0  0
    6.5969    2.1430   -3.3948 C   0  0  0  0  0  0  0  0  0  0  0  0
    5.6569    1.1184   -3.2891 C   0  0  0  0  0  0  0  0  0  0  0  0
    5.1507   -0.9056   -3.8093 H   0  0  0  0  0  0  0  0  0  0  0  0
    7.2106   -1.2573   -5.1513 H   0  0  0  0  0  0  0  0  0  0  0  0
    8.4911    2.7361   -4.2202 H   0  0  0  0  0  0  0  0  0  0  0  0
    6.4222    3.0840   -2.8846 H   0  0  0  0  0  0  0  0  0  0  0  0
    4.1249    1.3732   -2.3847 S   0  0  0  0  0  0  0  0  0  0  0  0
    4.3920    2.5442   -1.4723 O   0  0  0  0  0  0  0  0  0  0  0  0
    3.8603    0.1026   -1.6505 O   0  0  0  0  0  0  0  0  0  0  0  0
    3.0561    1.6889   -3.3775 O   0  0  0  0  0  0  0  0  0  0  0  0
    9.2710    0.4873   -5.5680 C   0  0  0  0  0  0  0  0  0  0  0  0
   10.0176   -0.0454   -4.9648 H   0  0  0  0  0  0  0  0  0  0  0  0
    9.0883   -0.1175   -6.4620 H   0  0  0  0  0  0  0  0  0  0  0  0
    9.7220    1.4319   -5.8852 H   0  0  0  0  0  0  0  0  0  0  0  0
   -2.5602   -0.5538   -2.1981 O   0  0  0  0  0  0  0  0  0  0  0  0
   -3.9171   -0.1499   -2.3861 C   0  0  0  0  0  0  0  0  0  0  0  0
   -4.4840   -1.0725   -2.5049 H   0  0  0  0  0  0  0  0  0  0  0  0
   -4.0256    0.4646   -3.2867 H   0  0  0  0  0  0  0  0  0  0  0  0
   -4.2918    0.3985   -1.5144 H   0  0  0  0  0  0  0  0  0  0  0  0
  1  2  2  0  0  0  0
  2  3  1  0  0  0  0
  2  8  1  0  0  0  0
  3 11  1  0  0  0  0
  4  9  1  0  0  0  0
  4  3  2  0  0  0  0
  5  4  1  0  0  0  0
  6  5  2  0  0  0  0
  6  1  1  0  0  0  0
  7  1  1  0  0  0  0
 10  5  1  0  0  0  0
 11 12  1  0  0  0  0
 13 19  1  0  0  0  0
 13 18  2  0  0  0  0
 14 13  1  0  0  0  0
 15 14  2  0  0  0  0
 15 16  1  0  0  0  0
 16 17  2  0  0  0  0
 17 18  1  0  0  0  0
 17 22  1  0  0  0  0
 18 23  1  0  0  0  0
 20 14  1  0  0  0  0
 21 16  1  0  0  0  0
 23 25  2  0  0  0  0
 23 24  1  0  0  0  0
 26 23  2  0  0  0  0
 27 28  1  0  0  0  0
 27 15  1  0  0  0  0
 29 27  1  0  0  0  0
 30 27  1  0  0  0  0
 31  6  1  0  0  0  0
 32 31  1  0  0  0  0
 32 35  1  0  0  0  0
 33 32  1  0  0  0  0
 34 32  1  0  0  0  0
M  RAD  3  11   2  12   3  24   2
M  END
