Coordinates from ORCA-job p-CH3O-Ph-N2-X-OTs-B3LYPG-6-31G_dp-scan-d09-49-n400
 OpenBabel08281821023D

 35 35  0  0  0  0  0  0  0  0999 V2000
   -0.3440   -0.0954   -2.3522 C   0  0  0  0  0  0  0  0  0  0  0  0
    0.7859    0.4567   -1.7855 C   0  0  0  0  0  0  0  0  0  0  0  0
    0.6700    1.7554   -1.2397 C   0  0  0  0  0  0  0  0  0  0  0  0
   -0.5313    2.4847   -1.2669 C   0  0  0  0  0  0  0  0  0  0  0  0
   -1.6479    1.9177   -1.8554 C   0  0  0  0  0  0  0  0  0  0  0  0
   -1.5589    0.6198   -2.4019 C   0  0  0  0  0  0  0  0  0  0  0  0
   -0.3134   -1.0888   -2.7842 H   0  0  0  0  0  0  0  0  0  0  0  0
    1.7380   -0.0745   -1.7562 H   0  0  0  0  0  0  0  0  0  0  0  0
   -0.5741    3.4794   -0.8380 H   0  0  0  0  0  0  0  0  0  0  0  0
   -2.5734    2.4779   -1.8884 H   0  0  0  0  0  0  0  0  0  0  0  0
    1.7540    2.3484   -0.6395 N   0  0  0  0  0  0  0  0  0  0  0  0
    2.6673    2.7753   -0.1439 N   0  0  0  0  0  0  0  0  0  0  0  0
    6.9236    0.1032   -2.6950 C   0  0  0  0  0  0  0  0  0  0  0  0
    7.9425    0.1623   -3.6461 C   0  0  0  0  0  0  0  0  0  0  0  0
    7.7719    0.8462   -4.8629 C   0  0  0  0  0  0  0  0  0  0  0  0
    6.5457    1.4770   -5.1240 C   0  0  0  0  0  0  0  0  0  0  0  0
    5.5200    1.4286   -4.1835 C   0  0  0  0  0  0  0  0  0  0  0  0
    5.7248    0.7458   -2.9899 C   0  0  0  0  0  0  0  0  0  0  0  0
    7.0623   -0.4297   -1.7597 H   0  0  0  0  0  0  0  0  0  0  0  0
    8.8901   -0.3325   -3.4455 H   0  0  0  0  0  0  0  0  0  0  0  0
    6.4060    2.0003   -6.0674 H   0  0  0  0  0  0  0  0  0  0  0  0
    4.4918    1.8371   -4.1773 H   0  0  0  0  0  0  0  0  0  0  0  0
    4.2528    0.8298   -1.9784 S   0  0  0  0  0  0  0  0  0  0  0  0
    4.5912    1.5748   -0.7144 O   0  0  0  0  0  0  0  0  0  0  0  0
    3.7550   -0.5507   -1.7187 O   0  0  0  0  0  0  0  0  0  0  0  0
    3.3506    1.6295   -2.8774 O   0  0  0  0  0  0  0  0  0  0  0  0
    8.9048    0.9156   -5.8610 C   0  0  0  0  0  0  0  0  0  0  0  0
    9.6477    1.6685   -5.5676 H   0  0  0  0  0  0  0  0  0  0  0  0
    9.4310   -0.0416   -5.9392 H   0  0  0  0  0  0  0  0  0  0  0  0
    8.5440    1.1850   -6.8578 H   0  0  0  0  0  0  0  0  0  0  0  0
   -2.5818   -0.0211   -2.9902 O   0  0  0  0  0  0  0  0  0  0  0  0
   -3.8496    0.6277   -3.1036 C   0  0  0  0  0  0  0  0  0  0  0  0
   -4.4979   -0.0834   -3.6152 H   0  0  0  0  0  0  0  0  0  0  0  0
   -3.7721    1.5452   -3.6968 H   0  0  0  0  0  0  0  0  0  0  0  0
   -4.2664    0.8576   -2.1168 H   0  0  0  0  0  0  0  0  0  0  0  0
  1  2  1  0  0  0  0
  2  8  1  0  0  0  0
  2  3  2  0  0  0  0
  3 11  1  0  0  0  0
  4  3  1  0  0  0  0
  4  9  1  0  0  0  0
  5  4  2  0  0  0  0
  6  1  2  0  0  0  0
  6  5  1  0  0  0  0
  7  1  1  0  0  0  0
 10  5  1  0  0  0  0
 11 12  1  0  0  0  0
 13 19  1  0  0  0  0
 14 20  1  0  0  0  0
 14 13  2  0  0  0  0
 15 14  1  0  0  0  0
 16 15  2  0  0  0  0
 16 17  1  0  0  0  0
 17 22  1  0  0  0  0
 17 18  2  0  0  0  0
 18 13  1  0  0  0  0
 18 23  1  0  0  0  0
 21 16  1  0  0  0  0
 23 25  2  0  0  0  0
 23 24  1  0  0  0  0
 26 23  2  0  0  0  0
 27 28  1  0  0  0  0
 27 15  1  0  0  0  0
 29 27  1  0  0  0  0
 30 27  1  0  0  0  0
 31  6  1  0  0  0  0
 32 31  1  0  0  0  0
 32 35  1  0  0  0  0
 33 32  1  0  0  0  0
 34 32  1  0  0  0  0
M  RAD  3  11   2  12   3  24   2
M  END
