Coordinates from ORCA-job p-CH3O-Ph-N2-X-OTs-B3LYPG-6-31G_dp-scan-d09-49-n400
 OpenBabel08281821023D

 35 35  0  0  0  0  0  0  0  0999 V2000
   -0.3061   -0.1242   -1.9353 C   0  0  0  0  0  0  0  0  0  0  0  0
    0.7688    0.7081   -1.7009 C   0  0  0  0  0  0  0  0  0  0  0  0
    0.5047    2.0914   -1.5815 C   0  0  0  0  0  0  0  0  0  0  0  0
   -0.7891    2.6282   -1.6985 C   0  0  0  0  0  0  0  0  0  0  0  0
   -1.8504    1.7761   -1.9480 C   0  0  0  0  0  0  0  0  0  0  0  0
   -1.6126    0.3905   -2.0676 C   0  0  0  0  0  0  0  0  0  0  0  0
   -0.1613   -1.1940   -2.0360 H   0  0  0  0  0  0  0  0  0  0  0  0
    1.7864    0.3262   -1.6123 H   0  0  0  0  0  0  0  0  0  0  0  0
   -0.9464    3.6967   -1.5993 H   0  0  0  0  0  0  0  0  0  0  0  0
   -2.8475    2.1851   -2.0479 H   0  0  0  0  0  0  0  0  0  0  0  0
    1.5301    2.9689   -1.3246 N   0  0  0  0  0  0  0  0  0  0  0  0
    2.4109    3.6282   -1.0963 N   0  0  0  0  0  0  0  0  0  0  0  0
    5.9572   -0.1583   -3.7783 C   0  0  0  0  0  0  0  0  0  0  0  0
    7.1125   -0.3478   -4.5340 C   0  0  0  0  0  0  0  0  0  0  0  0
    7.9887    0.7147   -4.7977 C   0  0  0  0  0  0  0  0  0  0  0  0
    7.6734    1.9788   -4.2815 C   0  0  0  0  0  0  0  0  0  0  0  0
    6.5193    2.1831   -3.5259 C   0  0  0  0  0  0  0  0  0  0  0  0
    5.6600    1.1115   -3.2797 C   0  0  0  0  0  0  0  0  0  0  0  0
    5.2901   -0.9848   -3.5585 H   0  0  0  0  0  0  0  0  0  0  0  0
    7.3409   -1.3378   -4.9222 H   0  0  0  0  0  0  0  0  0  0  0  0
    8.3433    2.8146   -4.4707 H   0  0  0  0  0  0  0  0  0  0  0  0
    6.2908    3.1595   -3.1127 H   0  0  0  0  0  0  0  0  0  0  0  0
    4.1337    1.3644   -2.3659 S   0  0  0  0  0  0  0  0  0  0  0  0
    4.4222    2.5072   -1.4247 O   0  0  0  0  0  0  0  0  0  0  0  0
    3.8525    0.0786   -1.6643 O   0  0  0  0  0  0  0  0  0  0  0  0
    3.0665    1.7250   -3.3446 O   0  0  0  0  0  0  0  0  0  0  0  0
    9.2570    0.4924   -5.5874 C   0  0  0  0  0  0  0  0  0  0  0  0
   10.0707    0.1408   -4.9401 H   0  0  0  0  0  0  0  0  0  0  0  0
    9.1159   -0.2618   -6.3681 H   0  0  0  0  0  0  0  0  0  0  0  0
    9.5990    1.4153   -6.0649 H   0  0  0  0  0  0  0  0  0  0  0  0
   -2.5708   -0.5204   -2.3043 O   0  0  0  0  0  0  0  0  0  0  0  0
   -3.9253   -0.0952   -2.4599 C   0  0  0  0  0  0  0  0  0  0  0  0
   -4.4998   -1.0043   -2.6337 H   0  0  0  0  0  0  0  0  0  0  0  0
   -4.0333    0.5754   -3.3196 H   0  0  0  0  0  0  0  0  0  0  0  0
   -4.2919    0.3997   -1.5536 H   0  0  0  0  0  0  0  0  0  0  0  0
  1  2  2  0  0  0  0
  2  8  1  0  0  0  0
  2  3  1  0  0  0  0
  3 11  1  0  0  0  0
  4  9  1  0  0  0  0
  4  3  2  0  0  0  0
  5  4  1  0  0  0  0
  6  5  2  0  0  0  0
  6  1  1  0  0  0  0
  7  1  1  0  0  0  0
 10  5  1  0  0  0  0
 11 12  1  0  0  0  0
 13 19  1  0  0  0  0
 13 18  2  0  0  0  0
 14 13  1  0  0  0  0
 15 14  2  0  0  0  0
 15 16  1  0  0  0  0
 16 17  2  0  0  0  0
 17 18  1  0  0  0  0
 17 22  1  0  0  0  0
 18 23  1  0  0  0  0
 20 14  1  0  0  0  0
 21 16  1  0  0  0  0
 23 25  2  0  0  0  0
 23 24  1  0  0  0  0
 26 23  2  0  0  0  0
 27 28  1  0  0  0  0
 27 15  1  0  0  0  0
 29 27  1  0  0  0  0
 30 27  1  0  0  0  0
 31  6  1  0  0  0  0
 32 31  1  0  0  0  0
 32 35  1  0  0  0  0
 33 32  1  0  0  0  0
 34 32  1  0  0  0  0
M  RAD  3  11   2  12   3  24   2
M  END
