Coordinates from ORCA-job p-CH3O-Ph-N2-X-OTs-B3LYPG-6-31G_dp-scan-d09-49-n400
 OpenBabel08281821023D

 35 35  0  0  0  0  0  0  0  0999 V2000
   -0.3234   -0.1259   -2.0437 C   0  0  0  0  0  0  0  0  0  0  0  0
    0.7634    0.6703   -1.7466 C   0  0  0  0  0  0  0  0  0  0  0  0
    0.5180    2.0411   -1.5062 C   0  0  0  0  0  0  0  0  0  0  0  0
   -0.7702    2.6008   -1.5633 C   0  0  0  0  0  0  0  0  0  0  0  0
   -1.8440    1.7860   -1.8761 C   0  0  0  0  0  0  0  0  0  0  0  0
   -1.6242    0.4138   -2.1197 C   0  0  0  0  0  0  0  0  0  0  0  0
   -0.1927   -1.1843   -2.2382 H   0  0  0  0  0  0  0  0  0  0  0  0
    1.7769    0.2712   -1.6962 H   0  0  0  0  0  0  0  0  0  0  0  0
   -0.9138    3.6581   -1.3690 H   0  0  0  0  0  0  0  0  0  0  0  0
   -2.8371    2.2134   -1.9286 H   0  0  0  0  0  0  0  0  0  0  0  0
    1.5567    2.8814   -1.1857 N   0  0  0  0  0  0  0  0  0  0  0  0
    2.4497    3.5085   -0.9152 N   0  0  0  0  0  0  0  0  0  0  0  0
    6.0862   -0.1983   -3.5905 C   0  0  0  0  0  0  0  0  0  0  0  0
    7.2427   -0.3787   -4.3483 C   0  0  0  0  0  0  0  0  0  0  0  0
    7.9888    0.7165   -4.8042 C   0  0  0  0  0  0  0  0  0  0  0  0
    7.5419    2.0059   -4.4812 C   0  0  0  0  0  0  0  0  0  0  0  0
    6.3873    2.2005   -3.7258 C   0  0  0  0  0  0  0  0  0  0  0  0
    5.6592    1.0940   -3.2842 C   0  0  0  0  0  0  0  0  0  0  0  0
    5.5135   -1.0431   -3.2247 H   0  0  0  0  0  0  0  0  0  0  0  0
    7.5734   -1.3870   -4.5870 H   0  0  0  0  0  0  0  0  0  0  0  0
    8.1089    2.8681   -4.8240 H   0  0  0  0  0  0  0  0  0  0  0  0
    6.0567    3.2006   -3.4665 H   0  0  0  0  0  0  0  0  0  0  0  0
    4.1399    1.3350   -2.3572 S   0  0  0  0  0  0  0  0  0  0  0  0
    4.4526    2.4295   -1.3671 O   0  0  0  0  0  0  0  0  0  0  0  0
    3.8335    0.0263   -1.7103 O   0  0  0  0  0  0  0  0  0  0  0  0
    3.0826    1.7645   -3.3174 O   0  0  0  0  0  0  0  0  0  0  0  0
    9.2598    0.5109   -5.5939 C   0  0  0  0  0  0  0  0  0  0  0  0
   10.1162    0.3410   -4.9292 H   0  0  0  0  0  0  0  0  0  0  0  0
    9.1852   -0.3600   -6.2530 H   0  0  0  0  0  0  0  0  0  0  0  0
    9.4948    1.3838   -6.2102 H   0  0  0  0  0  0  0  0  0  0  0  0
   -2.5953   -0.4614   -2.4281 O   0  0  0  0  0  0  0  0  0  0  0  0
   -3.9451   -0.0076   -2.5376 C   0  0  0  0  0  0  0  0  0  0  0  0
   -4.5307   -0.8894   -2.7956 H   0  0  0  0  0  0  0  0  0  0  0  0
   -4.0474    0.7434   -3.3288 H   0  0  0  0  0  0  0  0  0  0  0  0
   -4.3036    0.4026   -1.5871 H   0  0  0  0  0  0  0  0  0  0  0  0
  1  2  1  0  0  0  0
  2  8  1  0  0  0  0
  2  3  2  0  0  0  0
  3 11  1  0  0  0  0
  4  3  1  0  0  0  0
  4  9  1  0  0  0  0
  5  4  2  0  0  0  0
  6  1  2  0  0  0  0
  6  5  1  0  0  0  0
  7  1  1  0  0  0  0
 10  5  1  0  0  0  0
 11 12  1  0  0  0  0
 13 18  1  0  0  0  0
 13 19  1  0  0  0  0
 14 13  2  0  0  0  0
 15 16  2  0  0  0  0
 15 14  1  0  0  0  0
 16 17  1  0  0  0  0
 17 22  1  0  0  0  0
 17 18  2  0  0  0  0
 18 23  1  0  0  0  0
 20 14  1  0  0  0  0
 21 16  1  0  0  0  0
 23 25  2  0  0  0  0
 23 24  1  0  0  0  0
 26 23  2  0  0  0  0
 27 28  1  0  0  0  0
 27 15  1  0  0  0  0
 29 27  1  0  0  0  0
 30 27  1  0  0  0  0
 31  6  1  0  0  0  0
 32 31  1  0  0  0  0
 32 35  1  0  0  0  0
 33 32  1  0  0  0  0
 34 32  1  0  0  0  0
M  RAD  3  11   2  12   3  24   2
M  END
