Coordinates from ORCA-job p-CH3O-Ph-N2-X-OTs-B3LYPG-6-31G_dp-scan-d09-49-n400
 OpenBabel08281821023D

 35 35  0  0  0  0  0  0  0  0999 V2000
   -0.2771   -0.1049   -2.3519 C   0  0  0  0  0  0  0  0  0  0  0  0
    0.8348    0.4441   -1.7483 C   0  0  0  0  0  0  0  0  0  0  0  0
    0.7113    1.7520   -1.2276 C   0  0  0  0  0  0  0  0  0  0  0  0
   -0.4791    2.4952   -1.3144 C   0  0  0  0  0  0  0  0  0  0  0  0
   -1.5769    1.9307   -1.9393 C   0  0  0  0  0  0  0  0  0  0  0  0
   -1.4809    0.6231   -2.4619 C   0  0  0  0  0  0  0  0  0  0  0  0
   -0.2406   -1.1050   -2.7673 H   0  0  0  0  0  0  0  0  0  0  0  0
    1.7799   -0.0945   -1.6697 H   0  0  0  0  0  0  0  0  0  0  0  0
   -0.5278    3.4971   -0.9034 H   0  0  0  0  0  0  0  0  0  0  0  0
   -2.4936    2.5004   -2.0190 H   0  0  0  0  0  0  0  0  0  0  0  0
    1.7772    2.3416   -0.5930 N   0  0  0  0  0  0  0  0  0  0  0  0
    2.6497    2.7936   -0.0514 N   0  0  0  0  0  0  0  0  0  0  0  0
    6.9895    0.1064   -2.6494 C   0  0  0  0  0  0  0  0  0  0  0  0
    7.9302    0.1800   -3.6774 C   0  0  0  0  0  0  0  0  0  0  0  0
    7.6467    0.8474   -4.8838 C   0  0  0  0  0  0  0  0  0  0  0  0
    6.3896    1.4488   -5.0589 C   0  0  0  0  0  0  0  0  0  0  0  0
    5.4313    1.3939   -4.0472 C   0  0  0  0  0  0  0  0  0  0  0  0
    5.7630    0.7224   -2.8736 C   0  0  0  0  0  0  0  0  0  0  0  0
    7.2125   -0.4128   -1.7222 H   0  0  0  0  0  0  0  0  0  0  0  0
    8.9028   -0.2892   -3.5477 H   0  0  0  0  0  0  0  0  0  0  0  0
    6.1774    1.9572   -5.9982 H   0  0  0  0  0  0  0  0  0  0  0  0
    4.3257    1.7325   -3.7964 H   0  0  0  0  0  0  0  0  0  0  0  0
    4.3284    0.8187   -1.8025 S   0  0  0  0  0  0  0  0  0  0  0  0
    4.6539    1.6053   -0.5681 O   0  0  0  0  0  0  0  0  0  0  0  0
    3.7871   -0.5388   -1.5160 O   0  0  0  0  0  0  0  0  0  0  0  0
    3.4325    1.6144   -2.7494 O   0  0  0  0  0  0  0  0  0  0  0  0
    8.6982    0.9237   -5.9677 C   0  0  0  0  0  0  0  0  0  0  0  0
    9.5013    1.6208   -5.6968 H   0  0  0  0  0  0  0  0  0  0  0  0
    9.1662   -0.0510   -6.1441 H   0  0  0  0  0  0  0  0  0  0  0  0
    8.2710    1.2678   -6.9138 H   0  0  0  0  0  0  0  0  0  0  0  0
   -2.4857   -0.0151   -3.0813 O   0  0  0  0  0  0  0  0  0  0  0  0
   -3.7406    0.6454   -3.2581 C   0  0  0  0  0  0  0  0  0  0  0  0
   -4.3748   -0.0674   -3.7847 H   0  0  0  0  0  0  0  0  0  0  0  0
   -3.6275    1.5518   -3.8625 H   0  0  0  0  0  0  0  0  0  0  0  0
   -4.1950    0.8959   -2.2933 H   0  0  0  0  0  0  0  0  0  0  0  0
  1  2  1  0  0  0  0
  2  8  1  0  0  0  0
  2  3  2  0  0  0  0
  3 11  1  0  0  0  0
  4  3  1  0  0  0  0
  4  9  1  0  0  0  0
  5  4  2  0  0  0  0
  6  1  2  0  0  0  0
  6  5  1  0  0  0  0
  7  1  1  0  0  0  0
 10  5  1  0  0  0  0
 11 12  1  0  0  0  0
 13 19  1  0  0  0  0
 14 20  1  0  0  0  0
 14 13  2  0  0  0  0
 15 14  1  0  0  0  0
 16 15  2  0  0  0  0
 16 17  1  0  0  0  0
 17 22  1  0  0  0  0
 17 18  2  0  0  0  0
 18 13  1  0  0  0  0
 18 23  1  0  0  0  0
 21 16  1  0  0  0  0
 23 25  2  0  0  0  0
 23 24  1  0  0  0  0
 26 23  2  0  0  0  0
 27 28  1  0  0  0  0
 27 15  1  0  0  0  0
 29 27  1  0  0  0  0
 30 27  1  0  0  0  0
 31  6  1  0  0  0  0
 32 31  1  0  0  0  0
 32 35  1  0  0  0  0
 33 32  1  0  0  0  0
 34 32  1  0  0  0  0
M  RAD  3  11   2  12   3  24   2
M  END
