Coordinates from ORCA-job p-CH3O-Ph-N2-X-OTs-B3LYPG-6-31G_dp-scan-d09-49-n400
 OpenBabel08281821023D

 35 35  0  0  0  0  0  0  0  0999 V2000
   -0.3338   -0.1243   -2.0895 C   0  0  0  0  0  0  0  0  0  0  0  0
    0.7593    0.6528   -1.7663 C   0  0  0  0  0  0  0  0  0  0  0  0
    0.5241    2.0149   -1.4724 C   0  0  0  0  0  0  0  0  0  0  0  0
   -0.7607    2.5845   -1.5021 C   0  0  0  0  0  0  0  0  0  0  0  0
   -1.8410    1.7894   -1.8418 C   0  0  0  0  0  0  0  0  0  0  0  0
   -1.6312    0.4264   -2.1400 C   0  0  0  0  0  0  0  0  0  0  0  0
   -0.2108   -1.1752   -2.3253 H   0  0  0  0  0  0  0  0  0  0  0  0
    1.7704    0.2458   -1.7348 H   0  0  0  0  0  0  0  0  0  0  0  0
   -0.8966    3.6343   -1.2663 H   0  0  0  0  0  0  0  0  0  0  0  0
   -2.8316    2.2246   -1.8728 H   0  0  0  0  0  0  0  0  0  0  0  0
    1.5697    2.8359   -1.1249 N   0  0  0  0  0  0  0  0  0  0  0  0
    2.4691    3.4460   -0.8365 N   0  0  0  0  0  0  0  0  0  0  0  0
    6.1584   -0.2011   -3.4947 C   0  0  0  0  0  0  0  0  0  0  0  0
    7.3184   -0.3750   -4.2485 C   0  0  0  0  0  0  0  0  0  0  0  0
    7.9929    0.7208   -4.8039 C   0  0  0  0  0  0  0  0  0  0  0  0
    7.4699    2.0034   -4.5855 C   0  0  0  0  0  0  0  0  0  0  0  0
    6.3110    2.1914   -3.8350 C   0  0  0  0  0  0  0  0  0  0  0  0
    5.6556    1.0845   -3.2925 C   0  0  0  0  0  0  0  0  0  0  0  0
    5.6371   -1.0443   -3.0558 H   0  0  0  0  0  0  0  0  0  0  0  0
    7.7078   -1.3784   -4.4060 H   0  0  0  0  0  0  0  0  0  0  0  0
    7.9799    2.8659   -5.0076 H   0  0  0  0  0  0  0  0  0  0  0  0
    5.9207    3.1890   -3.6629 H   0  0  0  0  0  0  0  0  0  0  0  0
    4.1408    1.3154   -2.3557 S   0  0  0  0  0  0  0  0  0  0  0  0
    4.4637    2.3839   -1.3403 O   0  0  0  0  0  0  0  0  0  0  0  0
    3.8251   -0.0048   -1.7374 O   0  0  0  0  0  0  0  0  0  0  0  0
    3.0873    1.7774   -3.3045 O   0  0  0  0  0  0  0  0  0  0  0  0
    9.2656    0.5238   -5.5933 C   0  0  0  0  0  0  0  0  0  0  0  0
   10.1210    0.3481   -4.9290 H   0  0  0  0  0  0  0  0  0  0  0  0
    9.1935   -0.3420   -6.2601 H   0  0  0  0  0  0  0  0  0  0  0  0
    9.4993    1.4017   -6.2025 H   0  0  0  0  0  0  0  0  0  0  0  0
   -2.6091   -0.4294   -2.4797 O   0  0  0  0  0  0  0  0  0  0  0  0
   -3.9554    0.0386   -2.5711 C   0  0  0  0  0  0  0  0  0  0  0  0
   -4.5468   -0.8264   -2.8701 H   0  0  0  0  0  0  0  0  0  0  0  0
   -4.0503    0.8256   -3.3274 H   0  0  0  0  0  0  0  0  0  0  0  0
   -4.3130    0.4081   -1.6038 H   0  0  0  0  0  0  0  0  0  0  0  0
  1  2  1  0  0  0  0
  2  8  1  0  0  0  0
  2  3  2  0  0  0  0
  3 11  1  0  0  0  0
  4  3  1  0  0  0  0
  4  9  1  0  0  0  0
  5  4  2  0  0  0  0
  6  1  2  0  0  0  0
  6  5  1  0  0  0  0
  7  1  1  0  0  0  0
 10  5  1  0  0  0  0
 11 12  1  0  0  0  0
 13 18  1  0  0  0  0
 13 19  1  0  0  0  0
 14 13  2  0  0  0  0
 15 16  2  0  0  0  0
 15 14  1  0  0  0  0
 16 17  1  0  0  0  0
 17 22  1  0  0  0  0
 17 18  2  0  0  0  0
 18 23  1  0  0  0  0
 20 14  1  0  0  0  0
 21 16  1  0  0  0  0
 23 25  2  0  0  0  0
 23 24  1  0  0  0  0
 26 23  2  0  0  0  0
 27 28  1  0  0  0  0
 27 15  1  0  0  0  0
 29 27  1  0  0  0  0
 30 27  1  0  0  0  0
 31  6  1  0  0  0  0
 32 31  1  0  0  0  0
 32 35  1  0  0  0  0
 33 32  1  0  0  0  0
 34 32  1  0  0  0  0
M  RAD  3  11   2  12   3  24   2
M  END
