Coordinates from ORCA-job p-CH3O-Ph-N2-X-OTs-B3LYPG-6-31G_dp-scan-d09-49-n400
 OpenBabel08281821023D

 35 35  0  0  0  0  0  0  0  0999 V2000
   -0.1811    0.0445   -1.4801 C   0  0  0  0  0  0  0  0  0  0  0  0
    0.7803    1.0264   -1.6020 C   0  0  0  0  0  0  0  0  0  0  0  0
    0.3519    2.3056   -2.0230 C   0  0  0  0  0  0  0  0  0  0  0  0
   -0.9912    2.5947   -2.3193 C   0  0  0  0  0  0  0  0  0  0  0  0
   -1.9359    1.5901   -2.2057 C   0  0  0  0  0  0  0  0  0  0  0  0
   -1.5333    0.3053   -1.7842 C   0  0  0  0  0  0  0  0  0  0  0  0
    0.0913   -0.9545   -1.1595 H   0  0  0  0  0  0  0  0  0  0  0  0
    1.8331    0.8364   -1.3891 H   0  0  0  0  0  0  0  0  0  0  0  0
   -1.2758    3.5905   -2.6407 H   0  0  0  0  0  0  0  0  0  0  0  0
   -2.9698    1.8046   -2.4430 H   0  0  0  0  0  0  0  0  0  0  0  0
    1.2596    3.3301   -2.1446 N   0  0  0  0  0  0  0  0  0  0  0  0
    2.0617    4.1154   -2.2117 N   0  0  0  0  0  0  0  0  0  0  0  0
    5.6191    0.9215   -4.6448 C   0  0  0  0  0  0  0  0  0  0  0  0
    6.7789    0.5564   -5.3302 C   0  0  0  0  0  0  0  0  0  0  0  0
    8.0225    0.5890   -4.6974 C   0  0  0  0  0  0  0  0  0  0  0  0
    8.0629    1.0028   -3.3573 C   0  0  0  0  0  0  0  0  0  0  0  0
    6.9203    1.3710   -2.6465 C   0  0  0  0  0  0  0  0  0  0  0  0
    5.6693    1.3263   -3.3103 C   0  0  0  0  0  0  0  0  0  0  0  0
    4.6527    0.8977   -5.1370 H   0  0  0  0  0  0  0  0  0  0  0  0
    6.7104    0.2433   -6.3691 H   0  0  0  0  0  0  0  0  0  0  0  0
    9.0235    1.0399   -2.8472 H   0  0  0  0  0  0  0  0  0  0  0  0
    7.1164    1.6723   -1.6077 H   0  0  0  0  0  0  0  0  0  0  0  0
    4.0571    1.7613   -2.5725 S   0  0  0  0  0  0  0  0  0  0  0  0
    4.1845    3.2176   -2.1961 O   0  0  0  0  0  0  0  0  0  0  0  0
    3.8940    0.8714   -1.3872 O   0  0  0  0  0  0  0  0  0  0  0  0
    2.9720    1.5604   -3.5989 O   0  0  0  0  0  0  0  0  0  0  0  0
    9.2852    0.1794   -5.4172 C   0  0  0  0  0  0  0  0  0  0  0  0
    9.6425   -0.7974   -5.0686 H   0  0  0  0  0  0  0  0  0  0  0  0
    9.1234    0.1044   -6.4966 H   0  0  0  0  0  0  0  0  0  0  0  0
   10.0952    0.8968   -5.2452 H   0  0  0  0  0  0  0  0  0  0  0  0
   -2.3692   -0.7364   -1.6407 O   0  0  0  0  0  0  0  0  0  0  0  0
   -3.7563   -0.5729   -1.9391 C   0  0  0  0  0  0  0  0  0  0  0  0
   -4.2119   -1.5460   -1.7575 H   0  0  0  0  0  0  0  0  0  0  0  0
   -3.9052   -0.2901   -2.9870 H   0  0  0  0  0  0  0  0  0  0  0  0
   -4.2177    0.1738   -1.2836 H   0  0  0  0  0  0  0  0  0  0  0  0
  1  7  1  0  0  0  0
  2  1  1  0  0  0  0
  2  8  1  0  0  0  0
  3  2  2  0  0  0  0
  4  5  2  0  0  0  0
  4  3  1  0  0  0  0
  5  6  1  0  0  0  0
  6 31  1  0  0  0  0
  6  1  2  0  0  0  0
  9  4  1  0  0  0  0
 10  5  1  0  0  0  0
 11  3  1  0  0  0  0
 12 11  1  0  0  0  0
 13 18  2  0  0  0  0
 14 15  2  0  0  0  0
 14 13  1  0  0  0  0
 15 16  1  0  0  0  0
 16 21  1  0  0  0  0
 16 17  2  0  0  0  0
 17 22  1  0  0  0  0
 18 17  1  0  0  0  0
 18 23  1  0  0  0  0
 19 13  1  0  0  0  0
 20 14  1  0  0  0  0
 23 24  2  0  0  0  0
 23 25  1  0  0  0  0
 26 23  2  0  0  0  0
 27 30  1  0  0  0  0
 27 28  1  0  0  0  0
 27 15  1  0  0  0  0
 29 27  1  0  0  0  0
 32 33  1  0  0  0  0
 32 31  1  0  0  0  0
 32 35  1  0  0  0  0
 34 32  1  0  0  0  0
M  RAD  3  11   2  12   3  25   2
M  END
