Coordinates from ORCA-job p-CH3O-Ph-N2-X-OTs-B3LYPG-6-31G_dp-scan-d09-49-n400
 OpenBabel08281821023D

 35 35  0  0  0  0  0  0  0  0999 V2000
   -0.1625    0.0495   -1.4660 C   0  0  0  0  0  0  0  0  0  0  0  0
    0.7974    1.0303   -1.6072 C   0  0  0  0  0  0  0  0  0  0  0  0
    0.3648    2.3055   -2.0362 C   0  0  0  0  0  0  0  0  0  0  0  0
   -0.9814    2.5915   -2.3212 C   0  0  0  0  0  0  0  0  0  0  0  0
   -1.9248    1.5880   -2.1884 C   0  0  0  0  0  0  0  0  0  0  0  0
   -1.5177    0.3073   -1.7590 C   0  0  0  0  0  0  0  0  0  0  0  0
    0.1134   -0.9464   -1.1387 H   0  0  0  0  0  0  0  0  0  0  0  0
    1.8522    0.8425   -1.4032 H   0  0  0  0  0  0  0  0  0  0  0  0
   -1.2695    3.5842   -2.6491 H   0  0  0  0  0  0  0  0  0  0  0  0
   -2.9611    1.8002   -2.4171 H   0  0  0  0  0  0  0  0  0  0  0  0
    1.2709    3.3287   -2.1774 N   0  0  0  0  0  0  0  0  0  0  0  0
    2.0719    4.1136   -2.2614 N   0  0  0  0  0  0  0  0  0  0  0  0
    5.6164    0.9546   -4.7455 C   0  0  0  0  0  0  0  0  0  0  0  0
    6.8100    0.6027   -5.3780 C   0  0  0  0  0  0  0  0  0  0  0  0
    8.0219    0.5974   -4.6795 C   0  0  0  0  0  0  0  0  0  0  0  0
    8.0061    0.9594   -3.3234 C   0  0  0  0  0  0  0  0  0  0  0  0
    6.8240    1.3105   -2.6754 C   0  0  0  0  0  0  0  0  0  0  0  0
    5.6213    1.3056   -3.3965 C   0  0  0  0  0  0  0  0  0  0  0  0
    4.6739    0.9598   -5.2821 H   0  0  0  0  0  0  0  0  0  0  0  0
    6.7974    0.3275   -6.4298 H   0  0  0  0  0  0  0  0  0  0  0  0
    8.9390    0.9658   -2.7640 H   0  0  0  0  0  0  0  0  0  0  0  0
    6.8666    1.5819   -1.6225 H   0  0  0  0  0  0  0  0  0  0  0  0
    4.0580    1.7586   -2.6224 S   0  0  0  0  0  0  0  0  0  0  0  0
    4.1969    3.2185   -2.2633 O   0  0  0  0  0  0  0  0  0  0  0  0
    3.9176    0.8891   -1.4192 O   0  0  0  0  0  0  0  0  0  0  0  0
    2.9767    1.5437   -3.6325 O   0  0  0  0  0  0  0  0  0  0  0  0
    9.3111    0.1919   -5.3544 C   0  0  0  0  0  0  0  0  0  0  0  0
    9.5807   -0.8424   -5.1063 H   0  0  0  0  0  0  0  0  0  0  0  0
    9.2298    0.2568   -6.4438 H   0  0  0  0  0  0  0  0  0  0  0  0
   10.1456    0.8261   -5.0384 H   0  0  0  0  0  0  0  0  0  0  0  0
   -2.3518   -0.7332   -1.5975 O   0  0  0  0  0  0  0  0  0  0  0  0
   -3.7417   -0.5729   -1.8848 C   0  0  0  0  0  0  0  0  0  0  0  0
   -4.1952   -1.5445   -1.6903 H   0  0  0  0  0  0  0  0  0  0  0  0
   -3.9000   -0.2996   -2.9338 H   0  0  0  0  0  0  0  0  0  0  0  0
   -4.1974    0.1795   -1.2320 H   0  0  0  0  0  0  0  0  0  0  0  0
  1  7  1  0  0  0  0
  2  1  1  0  0  0  0
  2  8  1  0  0  0  0
  3  2  2  0  0  0  0
  4  5  2  0  0  0  0
  4  3  1  0  0  0  0
  5  6  1  0  0  0  0
  6 31  1  0  0  0  0
  6  1  2  0  0  0  0
  9  4  1  0  0  0  0
 10  5  1  0  0  0  0
 11  3  1  0  0  0  0
 12 11  1  0  0  0  0
 13 18  1  0  0  0  0
 14 13  2  0  0  0  0
 14 15  1  0  0  0  0
 15 16  2  0  0  0  0
 16 21  1  0  0  0  0
 16 17  1  0  0  0  0
 17 22  1  0  0  0  0
 18 17  2  0  0  0  0
 18 23  1  0  0  0  0
 19 13  1  0  0  0  0
 20 14  1  0  0  0  0
 23 24  2  0  0  0  0
 23 25  1  0  0  0  0
 26 23  2  0  0  0  0
 27 28  1  0  0  0  0
 27 30  1  0  0  0  0
 27 15  1  0  0  0  0
 29 27  1  0  0  0  0
 32 33  1  0  0  0  0
 32 31  1  0  0  0  0
 32 35  1  0  0  0  0
 34 32  1  0  0  0  0
M  RAD  3  11   2  12   3  25   2
M  END
