Coordinates from ORCA-job p-CH3O-Ph-N2-X-OTs-B3LYPG-6-31G_dp-scan-d09-49-n400
 OpenBabel08281821023D

 35 35  0  0  0  0  0  0  0  0999 V2000
   -0.4091   -0.1047   -2.2811 C   0  0  0  0  0  0  0  0  0  0  0  0
    0.7254    0.5382   -1.8307 C   0  0  0  0  0  0  0  0  0  0  0  0
    0.5697    1.8427   -1.3098 C   0  0  0  0  0  0  0  0  0  0  0  0
   -0.6776    2.4875   -1.2448 C   0  0  0  0  0  0  0  0  0  0  0  0
   -1.8001    1.8300   -1.7166 C   0  0  0  0  0  0  0  0  0  0  0  0
   -1.6699    0.5261   -2.2393 C   0  0  0  0  0  0  0  0  0  0  0  0
   -0.3479   -1.1064   -2.6900 H   0  0  0  0  0  0  0  0  0  0  0  0
    1.7098    0.0713   -1.8717 H   0  0  0  0  0  0  0  0  0  0  0  0
   -0.7513    3.4892   -0.8367 H   0  0  0  0  0  0  0  0  0  0  0  0
   -2.7617    2.3252   -1.6774 H   0  0  0  0  0  0  0  0  0  0  0  0
    1.6590    2.5273   -0.8272 N   0  0  0  0  0  0  0  0  0  0  0  0
    2.5981    3.0155   -0.4462 N   0  0  0  0  0  0  0  0  0  0  0  0
    6.5547   -0.0402   -3.0383 C   0  0  0  0  0  0  0  0  0  0  0  0
    7.7344   -0.1201   -3.7734 C   0  0  0  0  0  0  0  0  0  0  0  0
    8.0097    0.7916   -4.8048 C   0  0  0  0  0  0  0  0  0  0  0  0
    7.0627    1.7850   -5.0831 C   0  0  0  0  0  0  0  0  0  0  0  0
    5.8770    1.8780   -4.3525 C   0  0  0  0  0  0  0  0  0  0  0  0
    5.6278    0.9640   -3.3301 C   0  0  0  0  0  0  0  0  0  0  0  0
    6.3353   -0.7552   -2.2526 H   0  0  0  0  0  0  0  0  0  0  0  0
    8.4537   -0.9044   -3.5479 H   0  0  0  0  0  0  0  0  0  0  0  0
    7.2541    2.4939   -5.8851 H   0  0  0  0  0  0  0  0  0  0  0  0
    5.1398    2.6410   -4.5786 H   0  0  0  0  0  0  0  0  0  0  0  0
    4.1328    1.1026   -2.3458 S   0  0  0  0  0  0  0  0  0  0  0  0
    4.5075    1.9484   -1.1515 O   0  0  0  0  0  0  0  0  0  0  0  0
    3.7558   -0.2878   -1.9610 O   0  0  0  0  0  0  0  0  0  0  0  0
    3.1102    1.7813   -3.1915 O   0  0  0  0  0  0  0  0  0  0  0  0
    9.2962    0.6955   -5.5913 C   0  0  0  0  0  0  0  0  0  0  0  0
   10.1697    0.8421   -4.9452 H   0  0  0  0  0  0  0  0  0  0  0  0
    9.4061   -0.2896   -6.0591 H   0  0  0  0  0  0  0  0  0  0  0  0
    9.3381    1.4480   -6.3841 H   0  0  0  0  0  0  0  0  0  0  0  0
   -2.6942   -0.1981   -2.7200 O   0  0  0  0  0  0  0  0  0  0  0  0
   -4.0081    0.3617   -2.7335 C   0  0  0  0  0  0  0  0  0  0  0  0
   -4.6483   -0.4034   -3.1720 H   0  0  0  0  0  0  0  0  0  0  0  0
   -4.0462    1.2670   -3.3491 H   0  0  0  0  0  0  0  0  0  0  0  0
   -4.3529    0.5885   -1.7186 H   0  0  0  0  0  0  0  0  0  0  0  0
  1  6  2  0  0  0  0
  1  2  1  0  0  0  0
  2  3  2  0  0  0  0
  3  4  1  0  0  0  0
  3 11  1  0  0  0  0
  4  9  1  0  0  0  0
  5 10  1  0  0  0  0
  5  4  2  0  0  0  0
  6  5  1  0  0  0  0
  7  1  1  0  0  0  0
  8  2  1  0  0  0  0
 11 12  1  0  0  0  0
 13 19  1  0  0  0  0
 14 20  1  0  0  0  0
 14 13  2  0  0  0  0
 15 14  1  0  0  0  0
 16 15  2  0  0  0  0
 16 17  1  0  0  0  0
 17 18  2  0  0  0  0
 18 13  1  0  0  0  0
 18 23  1  0  0  0  0
 21 16  1  0  0  0  0
 22 17  1  0  0  0  0
 23 25  2  0  0  0  0
 23 24  1  0  0  0  0
 26 23  2  0  0  0  0
 27 28  1  0  0  0  0
 27 15  1  0  0  0  0
 29 27  1  0  0  0  0
 30 27  1  0  0  0  0
 31  6  1  0  0  0  0
 32 31  1  0  0  0  0
 32 35  1  0  0  0  0
 33 32  1  0  0  0  0
 34 32  1  0  0  0  0
M  RAD  3  11   2  12   3  24   2
M  END
