Coordinates from ORCA-job p-CH3O-Ph-N2-X-OTs-B3LYPG-6-31G_dp-scan-d09-49-n400
 OpenBabel08281821023D

 35 35  0  0  0  0  0  0  0  0999 V2000
   -0.1682    0.0456   -1.4737 C   0  0  0  0  0  0  0  0  0  0  0  0
    0.7934    1.0258   -1.6067 C   0  0  0  0  0  0  0  0  0  0  0  0
    0.3634    2.3041   -2.0289 C   0  0  0  0  0  0  0  0  0  0  0  0
   -0.9816    2.5938   -2.3155 C   0  0  0  0  0  0  0  0  0  0  0  0
   -1.9267    1.5908   -2.1909 C   0  0  0  0  0  0  0  0  0  0  0  0
   -1.5224    0.3070   -1.7682 C   0  0  0  0  0  0  0  0  0  0  0  0
    0.1055   -0.9527   -1.1518 H   0  0  0  0  0  0  0  0  0  0  0  0
    1.8475    0.8352   -1.4015 H   0  0  0  0  0  0  0  0  0  0  0  0
   -1.2676    3.5888   -2.6382 H   0  0  0  0  0  0  0  0  0  0  0  0
   -2.9622    1.8059   -2.4208 H   0  0  0  0  0  0  0  0  0  0  0  0
    1.2713    3.3271   -2.1616 N   0  0  0  0  0  0  0  0  0  0  0  0
    2.0739    4.1110   -2.2384 N   0  0  0  0  0  0  0  0  0  0  0  0
    5.6139    0.9338   -4.7180 C   0  0  0  0  0  0  0  0  0  0  0  0
    6.7996    0.5797   -5.3640 C   0  0  0  0  0  0  0  0  0  0  0  0
    8.0216    0.5961   -4.6849 C   0  0  0  0  0  0  0  0  0  0  0  0
    8.0218    0.9826   -3.3355 C   0  0  0  0  0  0  0  0  0  0  0  0
    6.8489    1.3370   -2.6720 C   0  0  0  0  0  0  0  0  0  0  0  0
    5.6324    1.3096   -3.3754 C   0  0  0  0  0  0  0  0  0  0  0  0
    4.6638    0.9230   -5.2409 H   0  0  0  0  0  0  0  0  0  0  0  0
    6.7719    0.2864   -6.4106 H   0  0  0  0  0  0  0  0  0  0  0  0
    8.9632    1.0067   -2.7909 H   0  0  0  0  0  0  0  0  0  0  0  0
    6.9289    1.6263   -1.6239 H   0  0  0  0  0  0  0  0  0  0  0  0
    4.0590    1.7548   -2.6071 S   0  0  0  0  0  0  0  0  0  0  0  0
    4.1967    3.2115   -2.2350 O   0  0  0  0  0  0  0  0  0  0  0  0
    3.9117    0.8737   -1.4132 O   0  0  0  0  0  0  0  0  0  0  0  0
    2.9776    1.5498   -3.6229 O   0  0  0  0  0  0  0  0  0  0  0  0
    9.3047    0.1911   -5.3711 C   0  0  0  0  0  0  0  0  0  0  0  0
    9.6063   -0.8235   -5.0823 H   0  0  0  0  0  0  0  0  0  0  0  0
    9.1971    0.2037   -6.4600 H   0  0  0  0  0  0  0  0  0  0  0  0
   10.1301    0.8595   -5.1043 H   0  0  0  0  0  0  0  0  0  0  0  0
   -2.3583   -0.7332   -1.6147 O   0  0  0  0  0  0  0  0  0  0  0  0
   -3.7475   -0.5691   -1.9036 C   0  0  0  0  0  0  0  0  0  0  0  0
   -4.2028   -1.5411   -1.7155 H   0  0  0  0  0  0  0  0  0  0  0  0
   -3.9036   -0.2895   -2.9512 H   0  0  0  0  0  0  0  0  0  0  0  0
   -4.2032    0.1802   -1.2471 H   0  0  0  0  0  0  0  0  0  0  0  0
  1  7  1  0  0  0  0
  2  1  1  0  0  0  0
  2  8  1  0  0  0  0
  3  2  2  0  0  0  0
  4  5  2  0  0  0  0
  4  3  1  0  0  0  0
  5  6  1  0  0  0  0
  6 31  1  0  0  0  0
  6  1  2  0  0  0  0
  9  4  1  0  0  0  0
 10  5  1  0  0  0  0
 11  3  1  0  0  0  0
 12 11  1  0  0  0  0
 13 18  1  0  0  0  0
 14 13  2  0  0  0  0
 14 15  1  0  0  0  0
 15 16  2  0  0  0  0
 16 21  1  0  0  0  0
 16 17  1  0  0  0  0
 17 22  1  0  0  0  0
 18 17  2  0  0  0  0
 18 23  1  0  0  0  0
 19 13  1  0  0  0  0
 20 14  1  0  0  0  0
 23 24  2  0  0  0  0
 23 25  1  0  0  0  0
 26 23  2  0  0  0  0
 27 30  1  0  0  0  0
 27 28  1  0  0  0  0
 27 15  1  0  0  0  0
 29 27  1  0  0  0  0
 32 33  1  0  0  0  0
 32 31  1  0  0  0  0
 32 35  1  0  0  0  0
 34 32  1  0  0  0  0
M  RAD  3  11   2  12   3  25   2
M  END
