Coordinates from ORCA-job p-CH3O-Ph-N2-X-OTs-B3LYPG-6-31G_dp-scan-d09-49-n400
 OpenBabel08281821023D

 35 35  0  0  0  0  0  0  0  0999 V2000
   -0.2525   -0.1181   -2.3461 C   0  0  0  0  0  0  0  0  0  0  0  0
    0.8472    0.4263   -1.7182 C   0  0  0  0  0  0  0  0  0  0  0  0
    0.7170    1.7326   -1.1956 C   0  0  0  0  0  0  0  0  0  0  0  0
   -0.4688    2.4811   -1.3046 C   0  0  0  0  0  0  0  0  0  0  0  0
   -1.5544    1.9212   -1.9540 C   0  0  0  0  0  0  0  0  0  0  0  0
   -1.4520    0.6145   -2.4785 C   0  0  0  0  0  0  0  0  0  0  0  0
   -0.2102   -1.1165   -2.7651 H   0  0  0  0  0  0  0  0  0  0  0  0
    1.7910   -0.1114   -1.6224 H   0  0  0  0  0  0  0  0  0  0  0  0
   -0.5228    3.4824   -0.8926 H   0  0  0  0  0  0  0  0  0  0  0  0
   -2.4672    2.4942   -2.0517 H   0  0  0  0  0  0  0  0  0  0  0  0
    1.7731    2.3152   -0.5390 N   0  0  0  0  0  0  0  0  0  0  0  0
    2.6125    2.7880    0.0350 N   0  0  0  0  0  0  0  0  0  0  0  0
    6.9868    0.1324   -2.6600 C   0  0  0  0  0  0  0  0  0  0  0  0
    7.9176    0.1807   -3.6951 C   0  0  0  0  0  0  0  0  0  0  0  0
    7.6208    0.8383   -4.9053 C   0  0  0  0  0  0  0  0  0  0  0  0
    6.3677    1.4500   -5.0679 C   0  0  0  0  0  0  0  0  0  0  0  0
    5.3977    1.4347   -4.0559 C   0  0  0  0  0  0  0  0  0  0  0  0
    5.7665    0.7646   -2.8909 C   0  0  0  0  0  0  0  0  0  0  0  0
    7.2116   -0.3771   -1.7272 H   0  0  0  0  0  0  0  0  0  0  0  0
    8.8868   -0.2968   -3.5704 H   0  0  0  0  0  0  0  0  0  0  0  0
    6.1625    1.9479   -6.0165 H   0  0  0  0  0  0  0  0  0  0  0  0
    4.1349    1.7673   -3.5873 H   0  0  0  0  0  0  0  0  0  0  0  0
    4.3859    0.8491   -1.7484 S   0  0  0  0  0  0  0  0  0  0  0  0
    4.7024    1.6554   -0.5339 O   0  0  0  0  0  0  0  0  0  0  0  0
    3.8022   -0.4870   -1.4579 O   0  0  0  0  0  0  0  0  0  0  0  0
    3.4356    1.6655   -2.6920 O   0  0  0  0  0  0  0  0  0  0  0  0
    8.6565    0.8854   -6.0064 C   0  0  0  0  0  0  0  0  0  0  0  0
    9.5198    1.4986   -5.7190 H   0  0  0  0  0  0  0  0  0  0  0  0
    9.0397   -0.1139   -6.2425 H   0  0  0  0  0  0  0  0  0  0  0  0
    8.2410    1.3107   -6.9244 H   0  0  0  0  0  0  0  0  0  0  0  0
   -2.4447   -0.0181   -3.1201 O   0  0  0  0  0  0  0  0  0  0  0  0
   -3.6938    0.6471   -3.3246 C   0  0  0  0  0  0  0  0  0  0  0  0
   -4.3177   -0.0633   -3.8665 H   0  0  0  0  0  0  0  0  0  0  0  0
   -3.5634    1.5535   -3.9252 H   0  0  0  0  0  0  0  0  0  0  0  0
   -4.1688    0.8973   -2.3699 H   0  0  0  0  0  0  0  0  0  0  0  0
  1  2  1  0  0  0  0
  2  8  1  0  0  0  0
  2  3  2  0  0  0  0
  3 11  1  0  0  0  0
  4  3  1  0  0  0  0
  4  9  1  0  0  0  0
  5  4  2  0  0  0  0
  6  1  2  0  0  0  0
  6  5  1  0  0  0  0
  7  1  1  0  0  0  0
 10  5  1  0  0  0  0
 11 12  1  0  0  0  0
 13 19  1  0  0  0  0
 14 20  1  0  0  0  0
 14 13  2  0  0  0  0
 15 14  1  0  0  0  0
 16 15  2  0  0  0  0
 16 17  1  0  0  0  0
 17 18  2  0  0  0  0
 18 13  1  0  0  0  0
 18 23  1  0  0  0  0
 21 16  1  0  0  0  0
 22 26  1  0  0  0  0
 23 25  2  0  0  0  0
 23 24  2  0  0  0  0
 26 23  1  0  0  0  0
 27 28  1  0  0  0  0
 27 15  1  0  0  0  0
 29 27  1  0  0  0  0
 30 27  1  0  0  0  0
 31  6  1  0  0  0  0
 32 31  1  0  0  0  0
 32 35  1  0  0  0  0
 33 32  1  0  0  0  0
 34 32  1  0  0  0  0
M  RAD  3  11   2  12   3  17   2
M  END
