Coordinates from ORCA-job p-CH3O-Ph-N2-X-OTs-B3LYPG-6-31G_dp-scan-d09-49-n400
 OpenBabel08281821023D

 35 35  0  0  0  0  0  0  0  0999 V2000
   -0.3489   -0.0953   -2.3517 C   0  0  0  0  0  0  0  0  0  0  0  0
    0.7820    0.4570   -1.7873 C   0  0  0  0  0  0  0  0  0  0  0  0
    0.6663    1.7545   -1.2387 C   0  0  0  0  0  0  0  0  0  0  0  0
   -0.5361    2.4824   -1.2607 C   0  0  0  0  0  0  0  0  0  0  0  0
   -1.6538    1.9152   -1.8469 C   0  0  0  0  0  0  0  0  0  0  0  0
   -1.5649    0.6184   -2.3963 C   0  0  0  0  0  0  0  0  0  0  0  0
   -0.3184   -1.0878   -2.7856 H   0  0  0  0  0  0  0  0  0  0  0  0
    1.7348   -0.0732   -1.7620 H   0  0  0  0  0  0  0  0  0  0  0  0
   -0.5788    3.4762   -0.8297 H   0  0  0  0  0  0  0  0  0  0  0  0
   -2.5801    2.4742   -1.8758 H   0  0  0  0  0  0  0  0  0  0  0  0
    1.7514    2.3479   -0.6408 N   0  0  0  0  0  0  0  0  0  0  0  0
    2.6676    2.7730   -0.1489 N   0  0  0  0  0  0  0  0  0  0  0  0
    6.9141    0.1053   -2.7013 C   0  0  0  0  0  0  0  0  0  0  0  0
    7.9410    0.1605   -3.6438 C   0  0  0  0  0  0  0  0  0  0  0  0
    7.7831    0.8456   -4.8616 C   0  0  0  0  0  0  0  0  0  0  0  0
    6.5615    1.4810   -5.1315 C   0  0  0  0  0  0  0  0  0  0  0  0
    5.5282    1.4361   -4.1990 C   0  0  0  0  0  0  0  0  0  0  0  0
    5.7193    0.7523   -3.0037 C   0  0  0  0  0  0  0  0  0  0  0  0
    7.0430   -0.4287   -1.7652 H   0  0  0  0  0  0  0  0  0  0  0  0
    8.8849   -0.3383   -3.4355 H   0  0  0  0  0  0  0  0  0  0  0  0
    6.4306    2.0056   -6.0754 H   0  0  0  0  0  0  0  0  0  0  0  0
    4.5071    1.8539   -4.2146 H   0  0  0  0  0  0  0  0  0  0  0  0
    4.2456    0.8346   -1.9948 S   0  0  0  0  0  0  0  0  0  0  0  0
    4.5865    1.5766   -0.7292 O   0  0  0  0  0  0  0  0  0  0  0  0
    3.7528   -0.5480   -1.7363 O   0  0  0  0  0  0  0  0  0  0  0  0
    3.3386    1.6339   -2.8869 O   0  0  0  0  0  0  0  0  0  0  0  0
    8.9241    0.9111   -5.8507 C   0  0  0  0  0  0  0  0  0  0  0  0
    9.6683    1.6599   -5.5502 H   0  0  0  0  0  0  0  0  0  0  0  0
    9.4462   -0.0486   -5.9262 H   0  0  0  0  0  0  0  0  0  0  0  0
    8.5724    1.1837   -6.8499 H   0  0  0  0  0  0  0  0  0  0  0  0
   -2.5888   -0.0225   -2.9827 O   0  0  0  0  0  0  0  0  0  0  0  0
   -3.8577    0.6249   -3.0908 C   0  0  0  0  0  0  0  0  0  0  0  0
   -4.5067   -0.0858   -3.6019 H   0  0  0  0  0  0  0  0  0  0  0  0
   -3.7832    1.5438   -3.6823 H   0  0  0  0  0  0  0  0  0  0  0  0
   -4.2717    0.8522   -2.1023 H   0  0  0  0  0  0  0  0  0  0  0  0
  1  2  1  0  0  0  0
  2  8  1  0  0  0  0
  2  3  2  0  0  0  0
  3 11  1  0  0  0  0
  4  3  1  0  0  0  0
  4  9  1  0  0  0  0
  5  4  2  0  0  0  0
  6  1  2  0  0  0  0
  6  5  1  0  0  0  0
  7  1  1  0  0  0  0
 10  5  1  0  0  0  0
 11 12  1  0  0  0  0
 13 19  1  0  0  0  0
 14 20  1  0  0  0  0
 14 13  2  0  0  0  0
 15 14  1  0  0  0  0
 16 15  2  0  0  0  0
 16 17  1  0  0  0  0
 17 18  2  0  0  0  0
 18 13  1  0  0  0  0
 18 23  1  0  0  0  0
 21 16  1  0  0  0  0
 22 17  1  0  0  0  0
 23 25  2  0  0  0  0
 23 24  1  0  0  0  0
 26 23  2  0  0  0  0
 27 28  1  0  0  0  0
 27 15  1  0  0  0  0
 29 27  1  0  0  0  0
 30 27  1  0  0  0  0
 31  6  1  0  0  0  0
 32 31  1  0  0  0  0
 32 35  1  0  0  0  0
 33 32  1  0  0  0  0
 34 32  1  0  0  0  0
M  RAD  3  11   2  12   3  24   2
M  END
