Coordinates from ORCA-job p-CH3O-Ph-N2-X-OTs-B3LYPG-6-31G_dp-scan-d09-49-n400
 OpenBabel08281821023D

 35 35  0  0  0  0  0  0  0  0999 V2000
   -0.3514   -0.1214   -2.1349 C   0  0  0  0  0  0  0  0  0  0  0  0
    0.7509    0.6320   -1.7871 C   0  0  0  0  0  0  0  0  0  0  0  0
    0.5309    1.9841   -1.4405 C   0  0  0  0  0  0  0  0  0  0  0  0
   -0.7481    2.5673   -1.4434 C   0  0  0  0  0  0  0  0  0  0  0  0
   -1.8378    1.7966   -1.8087 C   0  0  0  0  0  0  0  0  0  0  0  0
   -1.6431    0.4438   -2.1590 C   0  0  0  0  0  0  0  0  0  0  0  0
   -0.2399   -1.1637   -2.4106 H   0  0  0  0  0  0  0  0  0  0  0  0
    1.7578    0.2138   -1.7761 H   0  0  0  0  0  0  0  0  0  0  0  0
   -0.8724    3.6086   -1.1677 H   0  0  0  0  0  0  0  0  0  0  0  0
   -2.8241    2.2426   -1.8191 H   0  0  0  0  0  0  0  0  0  0  0  0
    1.5860    2.7806   -1.0654 N   0  0  0  0  0  0  0  0  0  0  0  0
    2.4951    3.3671   -0.7583 N   0  0  0  0  0  0  0  0  0  0  0  0
    6.2451   -0.1930   -3.3930 C   0  0  0  0  0  0  0  0  0  0  0  0
    7.4133   -0.3526   -4.1369 C   0  0  0  0  0  0  0  0  0  0  0  0
    8.0044    0.7319   -4.7997 C   0  0  0  0  0  0  0  0  0  0  0  0
    7.3883    1.9873   -4.6998 C   0  0  0  0  0  0  0  0  0  0  0  0
    6.2197    2.1608   -3.9603 C   0  0  0  0  0  0  0  0  0  0  0  0
    5.6490    1.0658   -3.3087 C   0  0  0  0  0  0  0  0  0  0  0  0
    5.7845   -1.0274   -2.8762 H   0  0  0  0  0  0  0  0  0  0  0  0
    7.8747   -1.3355   -4.2023 H   0  0  0  0  0  0  0  0  0  0  0  0
    7.8312    2.8404   -5.2077 H   0  0  0  0  0  0  0  0  0  0  0  0
    5.7548    3.1387   -3.8892 H   0  0  0  0  0  0  0  0  0  0  0  0
    4.1380    1.2786   -2.3610 S   0  0  0  0  0  0  0  0  0  0  0  0
    4.4714    2.3045   -1.3052 O   0  0  0  0  0  0  0  0  0  0  0  0
    3.8092   -0.0595   -1.7899 O   0  0  0  0  0  0  0  0  0  0  0  0
    3.0914    1.7878   -3.2925 O   0  0  0  0  0  0  0  0  0  0  0  0
    9.2813    0.5502   -5.5862 C   0  0  0  0  0  0  0  0  0  0  0  0
   10.1339    0.3640   -4.9219 H   0  0  0  0  0  0  0  0  0  0  0  0
    9.2133   -0.3051   -6.2678 H   0  0  0  0  0  0  0  0  0  0  0  0
    9.5146    1.4373   -6.1818 H   0  0  0  0  0  0  0  0  0  0  0  0
   -2.6311   -0.3885   -2.5270 O   0  0  0  0  0  0  0  0  0  0  0  0
   -3.9725    0.0970   -2.5970 C   0  0  0  0  0  0  0  0  0  0  0  0
   -4.5736   -0.7490   -2.9292 H   0  0  0  0  0  0  0  0  0  0  0  0
   -4.0599    0.9147   -3.3210 H   0  0  0  0  0  0  0  0  0  0  0  0
   -4.3246    0.4317   -1.6152 H   0  0  0  0  0  0  0  0  0  0  0  0
  1  2  1  0  0  0  0
  2  8  1  0  0  0  0
  2  3  2  0  0  0  0
  3 11  1  0  0  0  0
  4  3  1  0  0  0  0
  4  9  1  0  0  0  0
  5  4  2  0  0  0  0
  6  1  2  0  0  0  0
  6  5  1  0  0  0  0
  7  1  1  0  0  0  0
 10  5  1  0  0  0  0
 11 12  1  0  0  0  0
 13 18  1  0  0  0  0
 13 19  1  0  0  0  0
 14 13  2  0  0  0  0
 15 16  2  0  0  0  0
 15 14  1  0  0  0  0
 16 17  1  0  0  0  0
 17 22  1  0  0  0  0
 17 18  2  0  0  0  0
 18 23  1  0  0  0  0
 20 14  1  0  0  0  0
 21 16  1  0  0  0  0
 23 25  2  0  0  0  0
 23 24  1  0  0  0  0
 26 23  2  0  0  0  0
 27 28  1  0  0  0  0
 27 15  1  0  0  0  0
 29 27  1  0  0  0  0
 30 27  1  0  0  0  0
 31  6  1  0  0  0  0
 32 31  1  0  0  0  0
 32 35  1  0  0  0  0
 33 32  1  0  0  0  0
 34 32  1  0  0  0  0
M  RAD  3  11   2  12   3  24   2
M  END
