Coordinates from ORCA-job p-CH3O-Ph-N2-X-OTs-B3LYPG-6-31G_dp-scan-d09-49-n400
 OpenBabel08281821023D

 35 35  0  0  0  0  0  0  0  0999 V2000
   -0.4232   -0.0936   -2.3337 C   0  0  0  0  0  0  0  0  0  0  0  0
    0.7192    0.5108   -1.8508 C   0  0  0  0  0  0  0  0  0  0  0  0
    0.5816    1.7946   -1.2761 C   0  0  0  0  0  0  0  0  0  0  0  0
   -0.6552    2.4568   -1.1903 C   0  0  0  0  0  0  0  0  0  0  0  0
   -1.7856    1.8384   -1.6948 C   0  0  0  0  0  0  0  0  0  0  0  0
   -1.6737    0.5556   -2.2714 C   0  0  0  0  0  0  0  0  0  0  0  0
   -0.3762   -1.0783   -2.7837 H   0  0  0  0  0  0  0  0  0  0  0  0
    1.6962    0.0298   -1.9062 H   0  0  0  0  0  0  0  0  0  0  0  0
   -0.7147    3.4416   -0.7410 H   0  0  0  0  0  0  0  0  0  0  0  0
   -2.7391    2.3474   -1.6393 H   0  0  0  0  0  0  0  0  0  0  0  0
    1.6790    2.4406   -0.7599 N   0  0  0  0  0  0  0  0  0  0  0  0
    2.6238    2.8970   -0.3543 N   0  0  0  0  0  0  0  0  0  0  0  0
    6.6508    0.0493   -2.9318 C   0  0  0  0  0  0  0  0  0  0  0  0
    7.8221   -0.0055   -3.6816 C   0  0  0  0  0  0  0  0  0  0  0  0
    7.9997    0.8092   -4.8120 C   0  0  0  0  0  0  0  0  0  0  0  0
    6.9643    1.6790   -5.1732 C   0  0  0  0  0  0  0  0  0  0  0  0
    5.7852    1.7466   -4.4278 C   0  0  0  0  0  0  0  0  0  0  0  0
    5.6344    0.9315   -3.3086 C   0  0  0  0  0  0  0  0  0  0  0  0
    6.5133   -0.5919   -2.0676 H   0  0  0  0  0  0  0  0  0  0  0  0
    8.6130   -0.6929   -3.3896 H   0  0  0  0  0  0  0  0  0  0  0  0
    7.0798    2.3101   -6.0511 H   0  0  0  0  0  0  0  0  0  0  0  0
    4.9739    2.4104   -4.7067 H   0  0  0  0  0  0  0  0  0  0  0  0
    4.1375    1.0425   -2.3262 S   0  0  0  0  0  0  0  0  0  0  0  0
    4.5173    1.8261   -1.0918 O   0  0  0  0  0  0  0  0  0  0  0  0
    3.7371   -0.3574   -2.0056 O   0  0  0  0  0  0  0  0  0  0  0  0
    3.1327    1.7736   -3.1497 O   0  0  0  0  0  0  0  0  0  0  0  0
    9.2794    0.7414   -5.6127 C   0  0  0  0  0  0  0  0  0  0  0  0
   10.1433    1.0443   -5.0091 H   0  0  0  0  0  0  0  0  0  0  0  0
    9.4770   -0.2771   -5.9650 H   0  0  0  0  0  0  0  0  0  0  0  0
    9.2389    1.3958   -6.4878 H   0  0  0  0  0  0  0  0  0  0  0  0
   -2.7071   -0.1308   -2.7867 O   0  0  0  0  0  0  0  0  0  0  0  0
   -4.0118    0.4504   -2.7817 C   0  0  0  0  0  0  0  0  0  0  0  0
   -4.6625   -0.2853   -3.2538 H   0  0  0  0  0  0  0  0  0  0  0  0
   -4.0327    1.3809   -3.3593 H   0  0  0  0  0  0  0  0  0  0  0  0
   -4.3572    0.6405   -1.7594 H   0  0  0  0  0  0  0  0  0  0  0  0
  1  6  2  0  0  0  0
  1  2  1  0  0  0  0
  2  3  2  0  0  0  0
  3  4  1  0  0  0  0
  3 11  1  0  0  0  0
  4  9  1  0  0  0  0
  5 10  1  0  0  0  0
  5  4  2  0  0  0  0
  6  5  1  0  0  0  0
  7  1  1  0  0  0  0
  8  2  1  0  0  0  0
 11 12  1  0  0  0  0
 13 19  1  0  0  0  0
 14 20  1  0  0  0  0
 14 13  2  0  0  0  0
 15 14  1  0  0  0  0
 16 15  2  0  0  0  0
 16 17  1  0  0  0  0
 17 18  2  0  0  0  0
 18 13  1  0  0  0  0
 18 23  1  0  0  0  0
 21 16  1  0  0  0  0
 22 17  1  0  0  0  0
 23 25  2  0  0  0  0
 23 24  1  0  0  0  0
 26 23  2  0  0  0  0
 27 28  1  0  0  0  0
 27 15  1  0  0  0  0
 29 27  1  0  0  0  0
 30 27  1  0  0  0  0
 31 32  1  0  0  0  0
 31  6  1  0  0  0  0
 32 35  1  0  0  0  0
 33 32  1  0  0  0  0
 34 32  1  0  0  0  0
M  RAD  3  11   2  12   3  24   2
M  END
