Coordinates from ORCA-job p-CH3O-Ph-N2-X-OTs-B3LYPG-6-31G_dp-scan-d09-49-n400
 OpenBabel08281821023D

 35 35  0  0  0  0  0  0  0  0999 V2000
   -0.1832    0.0448   -1.4804 C   0  0  0  0  0  0  0  0  0  0  0  0
    0.7778    1.0272   -1.6016 C   0  0  0  0  0  0  0  0  0  0  0  0
    0.3493    2.3060   -2.0234 C   0  0  0  0  0  0  0  0  0  0  0  0
   -0.9936    2.5944   -2.3211 C   0  0  0  0  0  0  0  0  0  0  0  0
   -1.9381    1.5894   -2.2082 C   0  0  0  0  0  0  0  0  0  0  0  0
   -1.5352    0.3049   -1.7860 C   0  0  0  0  0  0  0  0  0  0  0  0
    0.0894   -0.9540   -1.1592 H   0  0  0  0  0  0  0  0  0  0  0  0
    1.8305    0.8378   -1.3875 H   0  0  0  0  0  0  0  0  0  0  0  0
   -1.2784    3.5900   -2.6432 H   0  0  0  0  0  0  0  0  0  0  0  0
   -2.9718    1.8033   -2.4466 H   0  0  0  0  0  0  0  0  0  0  0  0
    1.2566    3.3309   -2.1443 N   0  0  0  0  0  0  0  0  0  0  0  0
    2.0583    4.1167   -2.2108 N   0  0  0  0  0  0  0  0  0  0  0  0
    5.6213    0.9230   -4.6339 C   0  0  0  0  0  0  0  0  0  0  0  0
    6.7769    0.5559   -5.3252 C   0  0  0  0  0  0  0  0  0  0  0  0
    8.0232    0.5878   -4.6990 C   0  0  0  0  0  0  0  0  0  0  0  0
    8.0699    1.0030   -3.3596 C   0  0  0  0  0  0  0  0  0  0  0  0
    6.9325    1.3737   -2.6411 C   0  0  0  0  0  0  0  0  0  0  0  0
    5.6758    1.3295   -3.2999 C   0  0  0  0  0  0  0  0  0  0  0  0
    4.6528    0.8993   -5.1221 H   0  0  0  0  0  0  0  0  0  0  0  0
    6.7024    0.2419   -6.3634 H   0  0  0  0  0  0  0  0  0  0  0  0
    9.0332    1.0395   -2.8546 H   0  0  0  0  0  0  0  0  0  0  0  0
    7.1469    1.6741   -1.6037 H   0  0  0  0  0  0  0  0  0  0  0  0
    4.0563    1.7634   -2.5681 S   0  0  0  0  0  0  0  0  0  0  0  0
    4.1815    3.2201   -2.1929 O   0  0  0  0  0  0  0  0  0  0  0  0
    3.8909    0.8737   -1.3830 O   0  0  0  0  0  0  0  0  0  0  0  0
    2.9698    1.5616   -3.5961 O   0  0  0  0  0  0  0  0  0  0  0  0
    9.2824    0.1769   -5.4241 C   0  0  0  0  0  0  0  0  0  0  0  0
    9.6447   -0.7965   -5.0713 H   0  0  0  0  0  0  0  0  0  0  0  0
    9.1138    0.0942   -6.5019 H   0  0  0  0  0  0  0  0  0  0  0  0
   10.0915    0.8977   -5.2622 H   0  0  0  0  0  0  0  0  0  0  0  0
   -2.3707   -0.7371   -1.6430 O   0  0  0  0  0  0  0  0  0  0  0  0
   -3.7576   -0.5744   -1.9427 C   0  0  0  0  0  0  0  0  0  0  0  0
   -4.2130   -1.5476   -1.7612 H   0  0  0  0  0  0  0  0  0  0  0  0
   -3.9057   -0.2920   -2.9908 H   0  0  0  0  0  0  0  0  0  0  0  0
   -4.2200    0.1723   -1.2879 H   0  0  0  0  0  0  0  0  0  0  0  0
  1  7  1  0  0  0  0
  2  1  1  0  0  0  0
  2  8  1  0  0  0  0
  3  2  2  0  0  0  0
  4  5  2  0  0  0  0
  4  3  1  0  0  0  0
  5  6  1  0  0  0  0
  6 31  1  0  0  0  0
  6  1  2  0  0  0  0
  9  4  1  0  0  0  0
 10  5  1  0  0  0  0
 11  3  1  0  0  0  0
 12 11  1  0  0  0  0
 13 18  2  0  0  0  0
 14 15  2  0  0  0  0
 14 13  1  0  0  0  0
 15 16  1  0  0  0  0
 16 21  1  0  0  0  0
 16 17  2  0  0  0  0
 17 22  1  0  0  0  0
 18 17  1  0  0  0  0
 18 23  1  0  0  0  0
 19 13  1  0  0  0  0
 20 14  1  0  0  0  0
 23 24  2  0  0  0  0
 23 25  1  0  0  0  0
 26 23  2  0  0  0  0
 27 30  1  0  0  0  0
 27 28  1  0  0  0  0
 27 15  1  0  0  0  0
 29 27  1  0  0  0  0
 32 33  1  0  0  0  0
 32 31  1  0  0  0  0
 32 35  1  0  0  0  0
 34 32  1  0  0  0  0
M  RAD  3  11   2  12   3  25   2
M  END
