Coordinates from ORCA-job p-CH3O-Ph-N2-X-OTs-B3LYPG-6-31G_dp-scan-d09-49-n400
 OpenBabel08281821023D

 35 35  0  0  0  0  0  0  0  0999 V2000
   -0.4057   -0.1077   -2.2676 C   0  0  0  0  0  0  0  0  0  0  0  0
    0.7267    0.5445   -1.8253 C   0  0  0  0  0  0  0  0  0  0  0  0
    0.5664    1.8540   -1.3184 C   0  0  0  0  0  0  0  0  0  0  0  0
   -0.6834    2.4946   -1.2592 C   0  0  0  0  0  0  0  0  0  0  0  0
   -1.8037    1.8275   -1.7227 C   0  0  0  0  0  0  0  0  0  0  0  0
   -1.6689    0.5185   -2.2315 C   0  0  0  0  0  0  0  0  0  0  0  0
   -0.3408   -1.1135   -2.6657 H   0  0  0  0  0  0  0  0  0  0  0  0
    1.7130    0.0811   -1.8622 H   0  0  0  0  0  0  0  0  0  0  0  0
   -0.7608    3.5003   -0.8619 H   0  0  0  0  0  0  0  0  0  0  0  0
   -2.7673    2.3192   -1.6879 H   0  0  0  0  0  0  0  0  0  0  0  0
    1.6534    2.5479   -0.8442 N   0  0  0  0  0  0  0  0  0  0  0  0
    2.5906    3.0443   -0.4690 N   0  0  0  0  0  0  0  0  0  0  0  0
    6.5304   -0.0589   -3.0658 C   0  0  0  0  0  0  0  0  0  0  0  0
    7.7113   -0.1460   -3.7985 C   0  0  0  0  0  0  0  0  0  0  0  0
    8.0117    0.7869   -4.8034 C   0  0  0  0  0  0  0  0  0  0  0  0
    7.0885    1.8090   -5.0577 C   0  0  0  0  0  0  0  0  0  0  0  0
    5.9021    1.9092   -4.3295 C   0  0  0  0  0  0  0  0  0  0  0  0
    5.6274    0.9732   -3.3336 C   0  0  0  0  0  0  0  0  0  0  0  0
    6.2904   -0.7892   -2.3006 H   0  0  0  0  0  0  0  0  0  0  0  0
    8.4114   -0.9524   -3.5918 H   0  0  0  0  0  0  0  0  0  0  0  0
    7.2996    2.5354   -5.8388 H   0  0  0  0  0  0  0  0  0  0  0  0
    5.1852    2.6960   -4.5388 H   0  0  0  0  0  0  0  0  0  0  0  0
    4.1324    1.1183   -2.3500 S   0  0  0  0  0  0  0  0  0  0  0  0
    4.5052    1.9781   -1.1653 O   0  0  0  0  0  0  0  0  0  0  0  0
    3.7599   -0.2694   -1.9510 O   0  0  0  0  0  0  0  0  0  0  0  0
    3.1065    1.7847   -3.2015 O   0  0  0  0  0  0  0  0  0  0  0  0
    9.2988    0.6830   -5.5878 C   0  0  0  0  0  0  0  0  0  0  0  0
   10.1728    0.7922   -4.9350 H   0  0  0  0  0  0  0  0  0  0  0  0
    9.3882   -0.2913   -6.0820 H   0  0  0  0  0  0  0  0  0  0  0  0
    9.3610    1.4556   -6.3597 H   0  0  0  0  0  0  0  0  0  0  0  0
   -2.6907   -0.2148   -2.7034 O   0  0  0  0  0  0  0  0  0  0  0  0
   -4.0067    0.3398   -2.7221 C   0  0  0  0  0  0  0  0  0  0  0  0
   -4.6443   -0.4324   -3.1520 H   0  0  0  0  0  0  0  0  0  0  0  0
   -4.0486    1.2384   -3.3472 H   0  0  0  0  0  0  0  0  0  0  0  0
   -4.3519    0.5760   -1.7095 H   0  0  0  0  0  0  0  0  0  0  0  0
  1  6  2  0  0  0  0
  1  2  1  0  0  0  0
  2  3  2  0  0  0  0
  3  4  1  0  0  0  0
  3 11  1  0  0  0  0
  4  9  1  0  0  0  0
  5 10  1  0  0  0  0
  5  4  2  0  0  0  0
  6  5  1  0  0  0  0
  7  1  1  0  0  0  0
  8  2  1  0  0  0  0
 11 12  1  0  0  0  0
 13 19  1  0  0  0  0
 14 20  1  0  0  0  0
 14 13  2  0  0  0  0
 15 14  1  0  0  0  0
 16 15  2  0  0  0  0
 16 17  1  0  0  0  0
 17 18  2  0  0  0  0
 18 13  1  0  0  0  0
 18 23  1  0  0  0  0
 21 16  1  0  0  0  0
 22 17  1  0  0  0  0
 23 25  2  0  0  0  0
 23 24  1  0  0  0  0
 26 23  2  0  0  0  0
 27 28  1  0  0  0  0
 27 15  1  0  0  0  0
 29 27  1  0  0  0  0
 30 27  1  0  0  0  0
 31  6  1  0  0  0  0
 32 31  1  0  0  0  0
 32 35  1  0  0  0  0
 33 32  1  0  0  0  0
 34 32  1  0  0  0  0
M  RAD  3  11   2  12   3  24   2
M  END
