Coordinates from ORCA-job p-CH3O-Ph-N2-X-OTs-B3LYPG-6-31G_dp-scan-d09-49-n400
 OpenBabel08281821023D

 35 35  0  0  0  0  0  0  0  0999 V2000
   -0.3335   -0.0965   -2.3514 C   0  0  0  0  0  0  0  0  0  0  0  0
    0.7939    0.4553   -1.7794 C   0  0  0  0  0  0  0  0  0  0  0  0
    0.6773    1.7563   -1.2395 C   0  0  0  0  0  0  0  0  0  0  0  0
   -0.5221    2.4885   -1.2774 C   0  0  0  0  0  0  0  0  0  0  0  0
   -1.6361    1.9216   -1.8711 C   0  0  0  0  0  0  0  0  0  0  0  0
   -1.5465    0.6213   -2.4119 C   0  0  0  0  0  0  0  0  0  0  0  0
   -0.3023   -1.0916   -2.7793 H   0  0  0  0  0  0  0  0  0  0  0  0
    1.7447   -0.0777   -1.7413 H   0  0  0  0  0  0  0  0  0  0  0  0
   -0.5655    3.4849   -0.8527 H   0  0  0  0  0  0  0  0  0  0  0  0
   -2.5600    2.4837   -1.9125 H   0  0  0  0  0  0  0  0  0  0  0  0
    1.7586    2.3491   -0.6341 N   0  0  0  0  0  0  0  0  0  0  0  0
    2.6668    2.7786   -0.1320 N   0  0  0  0  0  0  0  0  0  0  0  0
    6.9371    0.1001   -2.6858 C   0  0  0  0  0  0  0  0  0  0  0  0
    7.9421    0.1643   -3.6516 C   0  0  0  0  0  0  0  0  0  0  0  0
    7.7508    0.8471   -4.8663 C   0  0  0  0  0  0  0  0  0  0  0  0
    6.5180    1.4721   -5.1114 C   0  0  0  0  0  0  0  0  0  0  0  0
    5.5057    1.4192   -4.1567 C   0  0  0  0  0  0  0  0  0  0  0  0
    5.7323    0.7371   -2.9664 C   0  0  0  0  0  0  0  0  0  0  0  0
    7.0919   -0.4319   -1.7524 H   0  0  0  0  0  0  0  0  0  0  0  0
    8.8950   -0.3255   -3.4646 H   0  0  0  0  0  0  0  0  0  0  0  0
    6.3640    1.9942   -6.0533 H   0  0  0  0  0  0  0  0  0  0  0  0
    4.4666    1.8153   -4.1134 H   0  0  0  0  0  0  0  0  0  0  0  0
    4.2638    0.8239   -1.9484 S   0  0  0  0  0  0  0  0  0  0  0  0
    4.5991    1.5754   -0.6883 O   0  0  0  0  0  0  0  0  0  0  0  0
    3.7591   -0.5533   -1.6842 O   0  0  0  0  0  0  0  0  0  0  0  0
    3.3657    1.6226   -2.8564 O   0  0  0  0  0  0  0  0  0  0  0  0
    8.8697    0.9211   -5.8797 C   0  0  0  0  0  0  0  0  0  0  0  0
    9.6143    1.6759   -5.5956 H   0  0  0  0  0  0  0  0  0  0  0  0
    9.3977   -0.0344   -5.9667 H   0  0  0  0  0  0  0  0  0  0  0  0
    8.4943    1.1908   -6.8711 H   0  0  0  0  0  0  0  0  0  0  0  0
   -2.5668   -0.0196   -3.0043 O   0  0  0  0  0  0  0  0  0  0  0  0
   -3.8324    0.6315   -3.1287 C   0  0  0  0  0  0  0  0  0  0  0  0
   -4.4788   -0.0803   -3.6417 H   0  0  0  0  0  0  0  0  0  0  0  0
   -3.7490    1.5464   -3.7251 H   0  0  0  0  0  0  0  0  0  0  0  0
   -4.2551    0.8662   -2.1456 H   0  0  0  0  0  0  0  0  0  0  0  0
  1  2  1  0  0  0  0
  2  8  1  0  0  0  0
  2  3  2  0  0  0  0
  3 11  1  0  0  0  0
  4  3  1  0  0  0  0
  4  9  1  0  0  0  0
  5  4  2  0  0  0  0
  6  1  2  0  0  0  0
  6  5  1  0  0  0  0
  7  1  1  0  0  0  0
 10  5  1  0  0  0  0
 11 12  1  0  0  0  0
 13 19  1  0  0  0  0
 14 20  1  0  0  0  0
 14 13  2  0  0  0  0
 15 14  1  0  0  0  0
 16 15  2  0  0  0  0
 16 17  1  0  0  0  0
 17 22  1  0  0  0  0
 17 18  2  0  0  0  0
 18 13  1  0  0  0  0
 18 23  1  0  0  0  0
 21 16  1  0  0  0  0
 23 25  2  0  0  0  0
 23 24  1  0  0  0  0
 26 23  2  0  0  0  0
 27 28  1  0  0  0  0
 27 15  1  0  0  0  0
 29 27  1  0  0  0  0
 30 27  1  0  0  0  0
 31  6  1  0  0  0  0
 32 31  1  0  0  0  0
 32 35  1  0  0  0  0
 33 32  1  0  0  0  0
 34 32  1  0  0  0  0
M  RAD  3  11   2  12   3  24   2
M  END
