Coordinates from ORCA-job p-CH3O-Ph-N2-X-OTs-B3LYPG-6-31G_dp-scan-d09-49-n400
 OpenBabel08281821023D

 35 35  0  0  0  0  0  0  0  0999 V2000
   -0.2872   -0.1038   -1.7790 C   0  0  0  0  0  0  0  0  0  0  0  0
    0.7717    0.7704   -1.6480 C   0  0  0  0  0  0  0  0  0  0  0  0
    0.4822    2.1529   -1.7018 C   0  0  0  0  0  0  0  0  0  0  0  0
   -0.8201    2.6471   -1.8891 C   0  0  0  0  0  0  0  0  0  0  0  0
   -1.8649    1.7516   -2.0334 C   0  0  0  0  0  0  0  0  0  0  0  0
   -1.6021    0.3666   -1.9782 C   0  0  0  0  0  0  0  0  0  0  0  0
   -0.1229   -1.1750   -1.7445 H   0  0  0  0  0  0  0  0  0  0  0  0
    1.7952    0.4182   -1.5160 H   0  0  0  0  0  0  0  0  0  0  0  0
   -0.9965    3.7167   -1.9265 H   0  0  0  0  0  0  0  0  0  0  0  0
   -2.8683    2.1267   -2.1869 H   0  0  0  0  0  0  0  0  0  0  0  0
    1.4899    3.0744   -1.5524 N   0  0  0  0  0  0  0  0  0  0  0  0
    2.3566    3.7719   -1.3987 N   0  0  0  0  0  0  0  0  0  0  0  0
    5.8022   -0.0338   -4.0550 C   0  0  0  0  0  0  0  0  0  0  0  0
    6.9700   -0.2351   -4.7850 C   0  0  0  0  0  0  0  0  0  0  0  0
    8.0051    0.7131   -4.7735 C   0  0  0  0  0  0  0  0  0  0  0  0
    7.8333    1.8721   -4.0078 C   0  0  0  0  0  0  0  0  0  0  0  0
    6.6658    2.0881   -3.2730 C   0  0  0  0  0  0  0  0  0  0  0  0
    5.6505    1.1338   -3.3017 C   0  0  0  0  0  0  0  0  0  0  0  0
    5.0118   -0.7776   -4.0596 H   0  0  0  0  0  0  0  0  0  0  0  0
    7.0843   -1.1438   -5.3718 H   0  0  0  0  0  0  0  0  0  0  0  0
    8.6246    2.6184   -3.9834 H   0  0  0  0  0  0  0  0  0  0  0  0
    6.5392    2.9833   -2.6739 H   0  0  0  0  0  0  0  0  0  0  0  0
    4.1182    1.3954   -2.3997 S   0  0  0  0  0  0  0  0  0  0  0  0
    4.3667    2.6006   -1.5277 O   0  0  0  0  0  0  0  0  0  0  0  0
    3.8728    0.1482   -1.6207 O   0  0  0  0  0  0  0  0  0  0  0  0
    3.0458    1.6574   -3.4043 O   0  0  0  0  0  0  0  0  0  0  0  0
    9.2807    0.4698   -5.5458 C   0  0  0  0  0  0  0  0  0  0  0  0
    9.9548   -0.2011   -4.9977 H   0  0  0  0  0  0  0  0  0  0  0  0
    9.0796    0.0027   -6.5154 H   0  0  0  0  0  0  0  0  0  0  0  0
    9.8237    1.4022   -5.7267 H   0  0  0  0  0  0  0  0  0  0  0  0
   -2.5429   -0.5837   -2.1030 O   0  0  0  0  0  0  0  0  0  0  0  0
   -3.9022   -0.2044   -2.3228 C   0  0  0  0  0  0  0  0  0  0  0  0
   -4.4592   -1.1378   -2.3954 H   0  0  0  0  0  0  0  0  0  0  0  0
   -4.0091    0.3589   -3.2565 H   0  0  0  0  0  0  0  0  0  0  0  0
   -4.2890    0.3871   -1.4852 H   0  0  0  0  0  0  0  0  0  0  0  0
  1  7  1  0  0  0  0
  1  2  2  0  0  0  0
  2  8  1  0  0  0  0
  3  2  1  0  0  0  0
  3 11  1  0  0  0  0
  4  3  2  0  0  0  0
  5  6  2  0  0  0  0
  5  4  1  0  0  0  0
  6  1  1  0  0  0  0
  9  4  1  0  0  0  0
 10  5  1  0  0  0  0
 11 12  1  0  0  0  0
 13 18  2  0  0  0  0
 14 15  2  0  0  0  0
 14 13  1  0  0  0  0
 15 16  1  0  0  0  0
 16 21  1  0  0  0  0
 16 17  2  0  0  0  0
 17 22  1  0  0  0  0
 18 17  1  0  0  0  0
 18 23  1  0  0  0  0
 19 13  1  0  0  0  0
 20 14  1  0  0  0  0
 23 25  2  0  0  0  0
 23 24  1  0  0  0  0
 26 23  2  0  0  0  0
 27 28  1  0  0  0  0
 27 15  1  0  0  0  0
 29 27  1  0  0  0  0
 30 27  1  0  0  0  0
 31  6  1  0  0  0  0
 32 31  1  0  0  0  0
 32 35  1  0  0  0  0
 33 32  1  0  0  0  0
 34 32  1  0  0  0  0
M  RAD  3  11   2  12   3  24   2
M  END
