Coordinates from ORCA-job p-CH3O-Ph-N2-X-OTs-B3LYPG-6-31G_dp-scan-d09-49-n400
 OpenBabel08281821023D

 35 35  0  0  0  0  0  0  0  0999 V2000
   -0.3725   -0.1180   -2.1951 C   0  0  0  0  0  0  0  0  0  0  0  0
    0.7433    0.5907   -1.7999 C   0  0  0  0  0  0  0  0  0  0  0  0
    0.5498    1.9250   -1.3767 C   0  0  0  0  0  0  0  0  0  0  0  0
   -0.7165    2.5347   -1.3524 C   0  0  0  0  0  0  0  0  0  0  0  0
   -1.8200    1.8099   -1.7671 C   0  0  0  0  0  0  0  0  0  0  0  0
   -1.6518    0.4754   -2.1931 C   0  0  0  0  0  0  0  0  0  0  0  0
   -0.2816   -1.1449   -2.5294 H   0  0  0  0  0  0  0  0  0  0  0  0
    1.7414    0.1517   -1.8104 H   0  0  0  0  0  0  0  0  0  0  0  0
   -0.8202    3.5610   -1.0186 H   0  0  0  0  0  0  0  0  0  0  0  0
   -2.7964    2.2770   -1.7578 H   0  0  0  0  0  0  0  0  0  0  0  0
    1.6192    2.6758   -0.9515 N   0  0  0  0  0  0  0  0  0  0  0  0
    2.5412    3.2220   -0.6096 N   0  0  0  0  0  0  0  0  0  0  0  0
    6.3766   -0.1478   -3.2334 C   0  0  0  0  0  0  0  0  0  0  0  0
    7.5533   -0.2789   -3.9681 C   0  0  0  0  0  0  0  0  0  0  0  0
    8.0071    0.7546   -4.8005 C   0  0  0  0  0  0  0  0  0  0  0  0
    7.2424    1.9266   -4.8800 C   0  0  0  0  0  0  0  0  0  0  0  0
    6.0628    2.0709   -4.1505 C   0  0  0  0  0  0  0  0  0  0  0  0
    5.6318    1.0295   -3.3277 C   0  0  0  0  0  0  0  0  0  0  0  0
    6.0176   -0.9473   -2.5949 H   0  0  0  0  0  0  0  0  0  0  0  0
    8.1290   -1.1991   -3.8954 H   0  0  0  0  0  0  0  0  0  0  0  0
    7.5748    2.7376   -5.5233 H   0  0  0  0  0  0  0  0  0  0  0  0
    5.4781    2.9816   -4.2286 H   0  0  0  0  0  0  0  0  0  0  0  0
    4.1336    1.2128   -2.3530 S   0  0  0  0  0  0  0  0  0  0  0  0
    4.4899    2.1678   -1.2390 O   0  0  0  0  0  0  0  0  0  0  0  0
    3.7909   -0.1508   -1.8551 O   0  0  0  0  0  0  0  0  0  0  0  0
    3.0888    1.7912   -3.2448 O   0  0  0  0  0  0  0  0  0  0  0  0
    9.2890    0.6034   -5.5855 C   0  0  0  0  0  0  0  0  0  0  0  0
   10.1548    0.5087   -4.9196 H   0  0  0  0  0  0  0  0  0  0  0  0
    9.2691   -0.2943   -6.2143 H   0  0  0  0  0  0  0  0  0  0  0  0
    9.4638    1.4643   -6.2372 H   0  0  0  0  0  0  0  0  0  0  0  0
   -2.6551   -0.3130   -2.6131 O   0  0  0  0  0  0  0  0  0  0  0  0
   -3.9851    0.2051   -2.6630 C   0  0  0  0  0  0  0  0  0  0  0  0
   -4.6023   -0.6079   -3.0447 H   0  0  0  0  0  0  0  0  0  0  0  0
   -4.0501    1.0632   -3.3410 H   0  0  0  0  0  0  0  0  0  0  0  0
   -4.3363    0.4929   -1.6660 H   0  0  0  0  0  0  0  0  0  0  0  0
  1  6  2  0  0  0  0
  1  2  1  0  0  0  0
  2  3  2  0  0  0  0
  3  4  1  0  0  0  0
  3 11  1  0  0  0  0
  4  9  1  0  0  0  0
  5 10  1  0  0  0  0
  5  4  2  0  0  0  0
  6  5  1  0  0  0  0
  7  1  1  0  0  0  0
  8  2  1  0  0  0  0
 11 12  1  0  0  0  0
 13 19  1  0  0  0  0
 14 20  1  0  0  0  0
 14 13  2  0  0  0  0
 15 14  1  0  0  0  0
 16 15  2  0  0  0  0
 16 17  1  0  0  0  0
 17 18  2  0  0  0  0
 18 13  1  0  0  0  0
 18 23  1  0  0  0  0
 21 16  1  0  0  0  0
 22 17  1  0  0  0  0
 23 25  2  0  0  0  0
 23 24  1  0  0  0  0
 26 23  2  0  0  0  0
 27 28  1  0  0  0  0
 27 15  1  0  0  0  0
 29 27  1  0  0  0  0
 30 27  1  0  0  0  0
 31  6  1  0  0  0  0
 32 31  1  0  0  0  0
 32 35  1  0  0  0  0
 33 32  1  0  0  0  0
 34 32  1  0  0  0  0
M  RAD  3  11   2  12   3  24   2
M  END
