Coordinates from ORCA-job p-CH3O-Ph-N2-X-OTs-B3LYPG-6-31G_dp-scan-d09-49-n400
 OpenBabel08281821023D

 35 35  0  0  0  0  0  0  0  0999 V2000
   -0.1503    0.0703   -1.4340 C   0  0  0  0  0  0  0  0  0  0  0  0
    0.8013    1.0529   -1.6136 C   0  0  0  0  0  0  0  0  0  0  0  0
    0.3566    2.3105   -2.0805 C   0  0  0  0  0  0  0  0  0  0  0  0
   -0.9937    2.5778   -2.3643 C   0  0  0  0  0  0  0  0  0  0  0  0
   -1.9288    1.5724   -2.1923 C   0  0  0  0  0  0  0  0  0  0  0  0
   -1.5094    0.3089   -1.7253 C   0  0  0  0  0  0  0  0  0  0  0  0
    0.1352   -0.9126   -1.0770 H   0  0  0  0  0  0  0  0  0  0  0  0
    1.8585    0.8798   -1.4106 H   0  0  0  0  0  0  0  0  0  0  0  0
   -1.2915    3.5575   -2.7212 H   0  0  0  0  0  0  0  0  0  0  0  0
   -2.9684    1.7700   -2.4197 H   0  0  0  0  0  0  0  0  0  0  0  0
    1.2540    3.3354   -2.2613 N   0  0  0  0  0  0  0  0  0  0  0  0
    2.0480    4.1236   -2.3770 N   0  0  0  0  0  0  0  0  0  0  0  0
    5.6448    1.0661   -4.8080 C   0  0  0  0  0  0  0  0  0  0  0  0
    6.8532    0.7177   -5.4133 C   0  0  0  0  0  0  0  0  0  0  0  0
    8.0296    0.5983   -4.6639 C   0  0  0  0  0  0  0  0  0  0  0  0
    7.9650    0.8390   -3.2826 C   0  0  0  0  0  0  0  0  0  0  0  0
    6.7660    1.1844   -2.6641 C   0  0  0  0  0  0  0  0  0  0  0  0
    5.6041    1.2976   -3.4342 C   0  0  0  0  0  0  0  0  0  0  0  0
    4.7294    1.1536   -5.3830 H   0  0  0  0  0  0  0  0  0  0  0  0
    6.8813    0.5330   -6.4847 H   0  0  0  0  0  0  0  0  0  0  0  0
    8.8687    0.7521   -2.6836 H   0  0  0  0  0  0  0  0  0  0  0  0
    6.7354    1.3582   -1.5926 H   0  0  0  0  0  0  0  0  0  0  0  0
    4.0511    1.7754   -2.6669 S   0  0  0  0  0  0  0  0  0  0  0  0
    4.1801    3.2507   -2.3707 O   0  0  0  0  0  0  0  0  0  0  0  0
    3.9275    0.9577   -1.4261 O   0  0  0  0  0  0  0  0  0  0  0  0
    2.9704    1.5110   -3.6610 O   0  0  0  0  0  0  0  0  0  0  0  0
    9.3311    0.1945   -5.3161 C   0  0  0  0  0  0  0  0  0  0  0  0
    9.5292   -0.8762   -5.1780 H   0  0  0  0  0  0  0  0  0  0  0  0
    9.3162    0.3881   -6.3931 H   0  0  0  0  0  0  0  0  0  0  0  0
   10.1795    0.7367   -4.8870 H   0  0  0  0  0  0  0  0  0  0  0  0
   -2.3349   -0.7317   -1.5247 O   0  0  0  0  0  0  0  0  0  0  0  0
   -3.7276   -0.5905   -1.8083 C   0  0  0  0  0  0  0  0  0  0  0  0
   -4.1730   -1.5584   -1.5796 H   0  0  0  0  0  0  0  0  0  0  0  0
   -3.8939   -0.3521   -2.8645 H   0  0  0  0  0  0  0  0  0  0  0  0
   -4.1846    0.1796   -1.1774 H   0  0  0  0  0  0  0  0  0  0  0  0
  1  7  1  0  0  0  0
  2  1  1  0  0  0  0
  2  8  1  0  0  0  0
  3  2  2  0  0  0  0
  4  5  2  0  0  0  0
  4  3  1  0  0  0  0
  5  6  1  0  0  0  0
  6 31  1  0  0  0  0
  6  1  2  0  0  0  0
  9  4  1  0  0  0  0
 10  5  1  0  0  0  0
 11  3  1  0  0  0  0
 12 11  1  0  0  0  0
 13 18  1  0  0  0  0
 14 13  2  0  0  0  0
 14 15  1  0  0  0  0
 15 16  2  0  0  0  0
 16 21  1  0  0  0  0
 16 17  1  0  0  0  0
 17 22  1  0  0  0  0
 18 23  1  0  0  0  0
 18 17  2  0  0  0  0
 19 13  1  0  0  0  0
 20 14  1  0  0  0  0
 23 24  2  0  0  0  0
 23 25  1  0  0  0  0
 26 23  2  0  0  0  0
 27 28  1  0  0  0  0
 27 30  1  0  0  0  0
 27 15  1  0  0  0  0
 29 27  1  0  0  0  0
 32 33  1  0  0  0  0
 32 31  1  0  0  0  0
 32 35  1  0  0  0  0
 34 32  1  0  0  0  0
M  RAD  3  11   2  12   3  25   2
M  END
