Coordinates from ORCA-job p-CH3O-Ph-N2-X-OTs-B3LYPG-6-31G_dp-scan-d09-49-n400
 OpenBabel08281821023D

 35 35  0  0  0  0  0  0  0  0999 V2000
   -0.3723   -0.1176   -2.1891 C   0  0  0  0  0  0  0  0  0  0  0  0
    0.7415    0.6002   -1.8046 C   0  0  0  0  0  0  0  0  0  0  0  0
    0.5427    1.9366   -1.3907 C   0  0  0  0  0  0  0  0  0  0  0  0
   -0.7269    2.5394   -1.3647 C   0  0  0  0  0  0  0  0  0  0  0  0
   -1.8283    1.8054   -1.7685 C   0  0  0  0  0  0  0  0  0  0  0  0
   -1.6548    0.4688   -2.1853 C   0  0  0  0  0  0  0  0  0  0  0  0
   -0.2773   -1.1465   -2.5161 H   0  0  0  0  0  0  0  0  0  0  0  0
    1.7419    0.1667   -1.8163 H   0  0  0  0  0  0  0  0  0  0  0  0
   -0.8346    3.5677   -1.0380 H   0  0  0  0  0  0  0  0  0  0  0  0
   -2.8073    2.2671   -1.7577 H   0  0  0  0  0  0  0  0  0  0  0  0
    1.6100    2.6965   -0.9765 N   0  0  0  0  0  0  0  0  0  0  0  0
    2.5299    3.2509   -0.6424 N   0  0  0  0  0  0  0  0  0  0  0  0
    6.3524   -0.1575   -3.2658 C   0  0  0  0  0  0  0  0  0  0  0  0
    7.5297   -0.2962   -3.9985 C   0  0  0  0  0  0  0  0  0  0  0  0
    8.0132    0.7492   -4.7983 C   0  0  0  0  0  0  0  0  0  0  0  0
    7.2780    1.9415   -4.8475 C   0  0  0  0  0  0  0  0  0  0  0  0
    6.0983    2.0938   -4.1201 C   0  0  0  0  0  0  0  0  0  0  0  0
    5.6368    1.0397   -3.3298 C   0  0  0  0  0  0  0  0  0  0  0  0
    5.9712   -0.9650   -2.6510 H   0  0  0  0  0  0  0  0  0  0  0  0
    8.0825   -1.2318   -3.9490 H   0  0  0  0  0  0  0  0  0  0  0  0
    7.6342    2.7626   -5.4649 H   0  0  0  0  0  0  0  0  0  0  0  0
    5.5384    3.0217   -4.1741 H   0  0  0  0  0  0  0  0  0  0  0  0
    4.1340    1.2287   -2.3628 S   0  0  0  0  0  0  0  0  0  0  0  0
    4.4848    2.1953   -1.2573 O   0  0  0  0  0  0  0  0  0  0  0  0
    3.7917   -0.1309   -1.8538 O   0  0  0  0  0  0  0  0  0  0  0  0
    3.0905    1.7965   -3.2632 O   0  0  0  0  0  0  0  0  0  0  0  0
    9.2962    0.5898   -5.5799 C   0  0  0  0  0  0  0  0  0  0  0  0
   10.1570    0.4698   -4.9115 H   0  0  0  0  0  0  0  0  0  0  0  0
    9.2647   -0.2968   -6.2236 H   0  0  0  0  0  0  0  0  0  0  0  0
    9.4885    1.4585   -6.2160 H   0  0  0  0  0  0  0  0  0  0  0  0
   -2.6557   -0.3282   -2.5945 O   0  0  0  0  0  0  0  0  0  0  0  0
   -3.9887    0.1822   -2.6421 C   0  0  0  0  0  0  0  0  0  0  0  0
   -4.6032   -0.6367   -3.0155 H   0  0  0  0  0  0  0  0  0  0  0  0
   -4.0614    1.0353   -3.3257 H   0  0  0  0  0  0  0  0  0  0  0  0
   -4.3371    0.4750   -1.6456 H   0  0  0  0  0  0  0  0  0  0  0  0
  1  6  2  0  0  0  0
  1  2  1  0  0  0  0
  2  3  2  0  0  0  0
  3  4  1  0  0  0  0
  3 11  1  0  0  0  0
  4  9  1  0  0  0  0
  5 10  1  0  0  0  0
  5  4  2  0  0  0  0
  6  5  1  0  0  0  0
  7  1  1  0  0  0  0
  8  2  1  0  0  0  0
 11 12  1  0  0  0  0
 13 19  1  0  0  0  0
 14 20  1  0  0  0  0
 14 13  2  0  0  0  0
 15 14  1  0  0  0  0
 16 15  2  0  0  0  0
 16 17  1  0  0  0  0
 17 18  2  0  0  0  0
 18 13  1  0  0  0  0
 18 23  1  0  0  0  0
 21 16  1  0  0  0  0
 22 17  1  0  0  0  0
 23 25  2  0  0  0  0
 23 24  1  0  0  0  0
 26 23  2  0  0  0  0
 27 28  1  0  0  0  0
 27 15  1  0  0  0  0
 29 27  1  0  0  0  0
 30 27  1  0  0  0  0
 31  6  1  0  0  0  0
 32 31  1  0  0  0  0
 32 35  1  0  0  0  0
 33 32  1  0  0  0  0
 34 32  1  0  0  0  0
M  RAD  3  11   2  12   3  24   2
M  END
