Coordinates from ORCA-job p-CH3O-Ph-N2-X-OTs-B3LYPG-6-31G_dp-scan-d09-49-n400
 OpenBabel08281821023D

 35 35  0  0  0  0  0  0  0  0999 V2000
   -0.2641   -0.1092   -2.3489 C   0  0  0  0  0  0  0  0  0  0  0  0
    0.8433    0.4390   -1.7370 C   0  0  0  0  0  0  0  0  0  0  0  0
    0.7181    1.7485   -1.2206 C   0  0  0  0  0  0  0  0  0  0  0  0
   -0.4696    2.4945   -1.3198 C   0  0  0  0  0  0  0  0  0  0  0  0
   -1.5629    1.9306   -1.9530 C   0  0  0  0  0  0  0  0  0  0  0  0
   -1.4653    0.6214   -2.4715 C   0  0  0  0  0  0  0  0  0  0  0  0
   -0.2262   -1.1103   -2.7618 H   0  0  0  0  0  0  0  0  0  0  0  0
    1.7870   -0.1005   -1.6484 H   0  0  0  0  0  0  0  0  0  0  0  0
   -0.5197    3.4977   -0.9121 H   0  0  0  0  0  0  0  0  0  0  0  0
   -2.4775    2.5022   -2.0425 H   0  0  0  0  0  0  0  0  0  0  0  0
    1.7802    2.3370   -0.5787 N   0  0  0  0  0  0  0  0  0  0  0  0
    2.6415    2.7965   -0.0263 N   0  0  0  0  0  0  0  0  0  0  0  0
    6.9949    0.1120   -2.6468 C   0  0  0  0  0  0  0  0  0  0  0  0
    7.9246    0.1829   -3.6843 C   0  0  0  0  0  0  0  0  0  0  0  0
    7.6257    0.8467   -4.8894 C   0  0  0  0  0  0  0  0  0  0  0  0
    6.3661    1.4466   -5.0518 C   0  0  0  0  0  0  0  0  0  0  0  0
    5.4131    1.3980   -4.0325 C   0  0  0  0  0  0  0  0  0  0  0  0
    5.7666    0.7278   -2.8638 C   0  0  0  0  0  0  0  0  0  0  0  0
    7.2278   -0.4039   -1.7200 H   0  0  0  0  0  0  0  0  0  0  0  0
    8.8991   -0.2847   -3.5638 H   0  0  0  0  0  0  0  0  0  0  0  0
    6.1470    1.9516   -5.9919 H   0  0  0  0  0  0  0  0  0  0  0  0
    4.2754    1.7267   -3.7163 H   0  0  0  0  0  0  0  0  0  0  0  0
    4.3471    0.8221   -1.7715 S   0  0  0  0  0  0  0  0  0  0  0  0
    4.6699    1.6171   -0.5444 O   0  0  0  0  0  0  0  0  0  0  0  0
    3.7945   -0.5294   -1.4813 O   0  0  0  0  0  0  0  0  0  0  0  0
    3.4417    1.6202   -2.7233 O   0  0  0  0  0  0  0  0  0  0  0  0
    8.6642    0.9180   -5.9863 C   0  0  0  0  0  0  0  0  0  0  0  0
    9.4915    1.5843   -5.7112 H   0  0  0  0  0  0  0  0  0  0  0  0
    9.1007   -0.0656   -6.1922 H   0  0  0  0  0  0  0  0  0  0  0  0
    8.2339    1.2961   -6.9179 H   0  0  0  0  0  0  0  0  0  0  0  0
   -2.4657   -0.0159   -3.0981 O   0  0  0  0  0  0  0  0  0  0  0  0
   -3.7175    0.6470   -3.2889 C   0  0  0  0  0  0  0  0  0  0  0  0
   -4.3482   -0.0659   -3.8194 H   0  0  0  0  0  0  0  0  0  0  0  0
   -3.5963    1.5513   -3.8950 H   0  0  0  0  0  0  0  0  0  0  0  0
   -4.1804    0.9014   -2.3292 H   0  0  0  0  0  0  0  0  0  0  0  0
  1  2  1  0  0  0  0
  2  8  1  0  0  0  0
  2  3  2  0  0  0  0
  3 11  1  0  0  0  0
  4  3  1  0  0  0  0
  4  9  1  0  0  0  0
  5  4  2  0  0  0  0
  6  1  2  0  0  0  0
  6  5  1  0  0  0  0
  7  1  1  0  0  0  0
 10  5  1  0  0  0  0
 11 12  1  0  0  0  0
 13 19  1  0  0  0  0
 14 20  1  0  0  0  0
 14 13  2  0  0  0  0
 15 14  1  0  0  0  0
 16 15  2  0  0  0  0
 16 17  1  0  0  0  0
 17 22  1  0  0  0  0
 17 18  2  0  0  0  0
 18 13  1  0  0  0  0
 18 23  1  0  0  0  0
 21 16  1  0  0  0  0
 23 25  2  0  0  0  0
 23 24  1  0  0  0  0
 26 23  2  0  0  0  0
 27 28  1  0  0  0  0
 27 15  1  0  0  0  0
 29 27  1  0  0  0  0
 30 27  1  0  0  0  0
 31  6  1  0  0  0  0
 32 31  1  0  0  0  0
 32 35  1  0  0  0  0
 33 32  1  0  0  0  0
 34 32  1  0  0  0  0
M  RAD  3  11   2  12   3  24   2
M  END
