Coordinates from ORCA-job p-CH3O-Ph-N2-X-OTs-B3LYPG-6-31G_dp-scan-d09-49-n400
 OpenBabel08281821023D

 35 35  0  0  0  0  0  0  0  0999 V2000
   -0.1516    0.0669   -1.4390 C   0  0  0  0  0  0  0  0  0  0  0  0
    0.8013    1.0494   -1.6120 C   0  0  0  0  0  0  0  0  0  0  0  0
    0.3586    2.3100   -2.0725 C   0  0  0  0  0  0  0  0  0  0  0  0
   -0.9910    2.5803   -2.3566 C   0  0  0  0  0  0  0  0  0  0  0  0
   -1.9275    1.5750   -2.1915 C   0  0  0  0  0  0  0  0  0  0  0  0
   -1.5100    0.3085   -1.7308 C   0  0  0  0  0  0  0  0  0  0  0  0
    0.1323   -0.9183   -1.0871 H   0  0  0  0  0  0  0  0  0  0  0  0
    1.8581    0.8739   -1.4088 H   0  0  0  0  0  0  0  0  0  0  0  0
   -1.2873    3.5622   -2.7087 H   0  0  0  0  0  0  0  0  0  0  0  0
   -2.9665    1.7749   -2.4192 H   0  0  0  0  0  0  0  0  0  0  0  0
    1.2573    3.3348   -2.2465 N   0  0  0  0  0  0  0  0  0  0  0  0
    2.0524    4.1226   -2.3569 N   0  0  0  0  0  0  0  0  0  0  0  0
    5.6387    1.0466   -4.7996 C   0  0  0  0  0  0  0  0  0  0  0  0
    6.8451    0.6977   -5.4086 C   0  0  0  0  0  0  0  0  0  0  0  0
    8.0277    0.5981   -4.6663 C   0  0  0  0  0  0  0  0  0  0  0  0
    7.9713    0.8599   -3.2885 C   0  0  0  0  0  0  0  0  0  0  0  0
    6.7746    1.2061   -2.6660 C   0  0  0  0  0  0  0  0  0  0  0  0
    5.6059    1.2987   -3.4292 C   0  0  0  0  0  0  0  0  0  0  0  0
    4.7186    1.1198   -5.3690 H   0  0  0  0  0  0  0  0  0  0  0  0
    6.8667    0.4971   -6.4773 H   0  0  0  0  0  0  0  0  0  0  0  0
    8.8801    0.7893   -2.6950 H   0  0  0  0  0  0  0  0  0  0  0  0
    6.7540    1.3970   -1.5969 H   0  0  0  0  0  0  0  0  0  0  0  0
    4.0524    1.7733   -2.6598 S   0  0  0  0  0  0  0  0  0  0  0  0
    4.1835    3.2463   -2.3538 O   0  0  0  0  0  0  0  0  0  0  0  0
    3.9266    0.9475   -1.4246 O   0  0  0  0  0  0  0  0  0  0  0  0
    2.9713    1.5167   -3.6561 O   0  0  0  0  0  0  0  0  0  0  0  0
    9.3274    0.1936   -5.3218 C   0  0  0  0  0  0  0  0  0  0  0  0
    9.5335   -0.8737   -5.1698 H   0  0  0  0  0  0  0  0  0  0  0  0
    9.3036    0.3718   -6.4012 H   0  0  0  0  0  0  0  0  0  0  0  0
   10.1751    0.7474   -4.9063 H   0  0  0  0  0  0  0  0  0  0  0  0
   -2.3369   -0.7323   -1.5370 O   0  0  0  0  0  0  0  0  0  0  0  0
   -3.7291   -0.5881   -1.8216 C   0  0  0  0  0  0  0  0  0  0  0  0
   -4.1757   -1.5568   -1.5989 H   0  0  0  0  0  0  0  0  0  0  0  0
   -3.8938   -0.3436   -2.8767 H   0  0  0  0  0  0  0  0  0  0  0  0
   -4.1862    0.1789   -1.1870 H   0  0  0  0  0  0  0  0  0  0  0  0
  1  7  1  0  0  0  0
  2  1  1  0  0  0  0
  2  8  1  0  0  0  0
  3  2  2  0  0  0  0
  4  5  2  0  0  0  0
  4  3  1  0  0  0  0
  5  6  1  0  0  0  0
  6 31  1  0  0  0  0
  6  1  2  0  0  0  0
  9  4  1  0  0  0  0
 10  5  1  0  0  0  0
 11  3  1  0  0  0  0
 12 11  1  0  0  0  0
 13 18  1  0  0  0  0
 14 13  2  0  0  0  0
 14 15  1  0  0  0  0
 15 16  2  0  0  0  0
 16 21  1  0  0  0  0
 16 17  1  0  0  0  0
 17 22  1  0  0  0  0
 18 17  2  0  0  0  0
 18 23  1  0  0  0  0
 19 13  1  0  0  0  0
 20 14  1  0  0  0  0
 23 24  2  0  0  0  0
 23 25  1  0  0  0  0
 26 23  2  0  0  0  0
 27 28  1  0  0  0  0
 27 30  1  0  0  0  0
 27 15  1  0  0  0  0
 29 27  1  0  0  0  0
 32 33  1  0  0  0  0
 32 31  1  0  0  0  0
 32 35  1  0  0  0  0
 34 32  1  0  0  0  0
M  RAD  3  11   2  12   3  25   2
M  END
