Coordinates from ORCA-job p-CH3O-Ph-N2-X-OTs-B3LYPG-6-31G_dp-scan-d09-49-n400
 OpenBabel08281821023D

 35 35  0  0  0  0  0  0  0  0999 V2000
   -0.3663   -0.0934   -2.3548 C   0  0  0  0  0  0  0  0  0  0  0  0
    0.7686    0.4599   -1.7992 C   0  0  0  0  0  0  0  0  0  0  0  0
    0.6532    1.7523   -1.2386 C   0  0  0  0  0  0  0  0  0  0  0  0
   -0.5531    2.4740   -1.2401 C   0  0  0  0  0  0  0  0  0  0  0  0
   -1.6750    1.9062   -1.8178 C   0  0  0  0  0  0  0  0  0  0  0  0
   -1.5862    0.6146   -2.3790 C   0  0  0  0  0  0  0  0  0  0  0  0
   -0.3361   -1.0821   -2.7973 H   0  0  0  0  0  0  0  0  0  0  0  0
    1.7240   -0.0660   -1.7898 H   0  0  0  0  0  0  0  0  0  0  0  0
   -0.5955    3.4640   -0.8004 H   0  0  0  0  0  0  0  0  0  0  0  0
   -2.6043    2.4607   -1.8307 H   0  0  0  0  0  0  0  0  0  0  0  0
    1.7424    2.3466   -0.6490 N   0  0  0  0  0  0  0  0  0  0  0  0
    2.6664    2.7682   -0.1681 N   0  0  0  0  0  0  0  0  0  0  0  0
    6.8873    0.1130   -2.7203 C   0  0  0  0  0  0  0  0  0  0  0  0
    7.9391    0.1560   -3.6348 C   0  0  0  0  0  0  0  0  0  0  0  0
    7.8207    0.8432   -4.8557 C   0  0  0  0  0  0  0  0  0  0  0  0
    6.6133    1.4916   -5.1543 C   0  0  0  0  0  0  0  0  0  0  0  0
    5.5554    1.4582   -4.2487 C   0  0  0  0  0  0  0  0  0  0  0  0
    5.7054    0.7728   -3.0486 C   0  0  0  0  0  0  0  0  0  0  0  0
    6.9854   -0.4227   -1.7815 H   0  0  0  0  0  0  0  0  0  0  0  0
    8.8712   -0.3538   -3.4017 H   0  0  0  0  0  0  0  0  0  0  0  0
    6.5102    2.0184   -6.1002 H   0  0  0  0  0  0  0  0  0  0  0  0
    4.5550    1.8997   -4.3265 H   0  0  0  0  0  0  0  0  0  0  0  0
    4.2265    0.8514   -2.0486 S   0  0  0  0  0  0  0  0  0  0  0  0
    4.5738    1.5827   -0.7773 O   0  0  0  0  0  0  0  0  0  0  0  0
    3.7449   -0.5366   -1.7969 O   0  0  0  0  0  0  0  0  0  0  0  0
    3.3095    1.6522   -2.9233 O   0  0  0  0  0  0  0  0  0  0  0  0
    8.9863    0.8958   -5.8162 C   0  0  0  0  0  0  0  0  0  0  0  0
    9.7379    1.6261   -5.4898 H   0  0  0  0  0  0  0  0  0  0  0  0
    9.4905   -0.0735   -5.8893 H   0  0  0  0  0  0  0  0  0  0  0  0
    8.6645    1.1857   -6.8207 H   0  0  0  0  0  0  0  0  0  0  0  0
   -2.6139   -0.0266   -2.9588 O   0  0  0  0  0  0  0  0  0  0  0  0
   -3.8871    0.6154   -3.0460 C   0  0  0  0  0  0  0  0  0  0  0  0
   -4.5388   -0.0941   -3.5554 H   0  0  0  0  0  0  0  0  0  0  0  0
   -3.8245    1.5397   -3.6303 H   0  0  0  0  0  0  0  0  0  0  0  0
   -4.2904    0.8321   -2.0506 H   0  0  0  0  0  0  0  0  0  0  0  0
  1  2  1  0  0  0  0
  2  8  1  0  0  0  0
  2  3  2  0  0  0  0
  3 11  1  0  0  0  0
  4  3  1  0  0  0  0
  4  9  1  0  0  0  0
  5  4  2  0  0  0  0
  6  1  2  0  0  0  0
  6  5  1  0  0  0  0
  7  1  1  0  0  0  0
 10  5  1  0  0  0  0
 11 12  1  0  0  0  0
 13 19  1  0  0  0  0
 14 20  1  0  0  0  0
 14 13  2  0  0  0  0
 15 14  1  0  0  0  0
 16 15  2  0  0  0  0
 16 17  1  0  0  0  0
 17 18  2  0  0  0  0
 18 13  1  0  0  0  0
 18 23  1  0  0  0  0
 21 16  1  0  0  0  0
 22 17  1  0  0  0  0
 23 25  2  0  0  0  0
 23 24  1  0  0  0  0
 26 23  2  0  0  0  0
 27 28  1  0  0  0  0
 27 15  1  0  0  0  0
 29 27  1  0  0  0  0
 30 27  1  0  0  0  0
 31  6  1  0  0  0  0
 32 31  1  0  0  0  0
 32 35  1  0  0  0  0
 33 32  1  0  0  0  0
 34 32  1  0  0  0  0
M  RAD  3  11   2  12   3  24   2
M  END
