Coordinates from ORCA-job p-CH3O-Ph-N2-X-OTs-B3LYPG-6-31G_dp-scan-d09-49-n400
 OpenBabel08281821023D

 35 35  0  0  0  0  0  0  0  0999 V2000
   -0.4064   -0.1040   -2.2741 C   0  0  0  0  0  0  0  0  0  0  0  0
    0.7257    0.5518   -1.8362 C   0  0  0  0  0  0  0  0  0  0  0  0
    0.5629    1.8595   -1.3256 C   0  0  0  0  0  0  0  0  0  0  0  0
   -0.6891    2.4950   -1.2586 C   0  0  0  0  0  0  0  0  0  0  0  0
   -1.8092    1.8245   -1.7178 C   0  0  0  0  0  0  0  0  0  0  0  0
   -1.6718    0.5172   -2.2301 C   0  0  0  0  0  0  0  0  0  0  0  0
   -0.3396   -1.1086   -2.6749 H   0  0  0  0  0  0  0  0  0  0  0  0
    1.7136    0.0924   -1.8796 H   0  0  0  0  0  0  0  0  0  0  0  0
   -0.7684    3.4995   -0.8586 H   0  0  0  0  0  0  0  0  0  0  0  0
   -2.7744    2.3124   -1.6770 H   0  0  0  0  0  0  0  0  0  0  0  0
    1.6496    2.5567   -0.8553 N   0  0  0  0  0  0  0  0  0  0  0  0
    2.5864    3.0558   -0.4828 N   0  0  0  0  0  0  0  0  0  0  0  0
    6.5240   -0.0639   -3.0742 C   0  0  0  0  0  0  0  0  0  0  0  0
    7.7065   -0.1541   -3.8039 C   0  0  0  0  0  0  0  0  0  0  0  0
    8.0169    0.7841   -4.8008 C   0  0  0  0  0  0  0  0  0  0  0  0
    7.1021    1.8149   -5.0501 C   0  0  0  0  0  0  0  0  0  0  0  0
    5.9141    1.9182   -4.3250 C   0  0  0  0  0  0  0  0  0  0  0  0
    5.6293    0.9768   -3.3370 C   0  0  0  0  0  0  0  0  0  0  0  0
    6.2762   -0.7980   -2.3152 H   0  0  0  0  0  0  0  0  0  0  0  0
    8.4000   -0.9673   -3.6012 H   0  0  0  0  0  0  0  0  0  0  0  0
    7.3210    2.5458   -5.8249 H   0  0  0  0  0  0  0  0  0  0  0  0
    5.2043    2.7122   -4.5311 H   0  0  0  0  0  0  0  0  0  0  0  0
    4.1323    1.1245   -2.3564 S   0  0  0  0  0  0  0  0  0  0  0  0
    4.5030    1.9882   -1.1737 O   0  0  0  0  0  0  0  0  0  0  0  0
    3.7596   -0.2622   -1.9539 O   0  0  0  0  0  0  0  0  0  0  0  0
    3.1074    1.7880   -3.2113 O   0  0  0  0  0  0  0  0  0  0  0  0
    9.3057    0.6767   -5.5821 C   0  0  0  0  0  0  0  0  0  0  0  0
   10.1784    0.7745   -4.9258 H   0  0  0  0  0  0  0  0  0  0  0  0
    9.3894   -0.2945   -6.0833 H   0  0  0  0  0  0  0  0  0  0  0  0
    9.3759    1.4546   -6.3478 H   0  0  0  0  0  0  0  0  0  0  0  0
   -2.6932   -0.2191   -2.6984 O   0  0  0  0  0  0  0  0  0  0  0  0
   -4.0114    0.3303   -2.7092 C   0  0  0  0  0  0  0  0  0  0  0  0
   -4.6481   -0.4434   -3.1378 H   0  0  0  0  0  0  0  0  0  0  0  0
   -4.0600    1.2302   -3.3321 H   0  0  0  0  0  0  0  0  0  0  0  0
   -4.3524    0.5629   -1.6944 H   0  0  0  0  0  0  0  0  0  0  0  0
  1  6  2  0  0  0  0
  1  2  1  0  0  0  0
  2  3  2  0  0  0  0
  3  4  1  0  0  0  0
  3 11  1  0  0  0  0
  4  9  1  0  0  0  0
  5 10  1  0  0  0  0
  5  4  2  0  0  0  0
  6  5  1  0  0  0  0
  7  1  1  0  0  0  0
  8  2  1  0  0  0  0
 11 12  1  0  0  0  0
 13 19  1  0  0  0  0
 14 20  1  0  0  0  0
 14 13  2  0  0  0  0
 15 14  1  0  0  0  0
 16 15  2  0  0  0  0
 16 17  1  0  0  0  0
 17 18  2  0  0  0  0
 18 13  1  0  0  0  0
 18 23  1  0  0  0  0
 21 16  1  0  0  0  0
 22 17  1  0  0  0  0
 23 25  2  0  0  0  0
 23 24  1  0  0  0  0
 26 23  2  0  0  0  0
 27 28  1  0  0  0  0
 27 15  1  0  0  0  0
 29 27  1  0  0  0  0
 30 27  1  0  0  0  0
 31  6  1  0  0  0  0
 32 31  1  0  0  0  0
 32 35  1  0  0  0  0
 33 32  1  0  0  0  0
 34 32  1  0  0  0  0
M  RAD  3  11   2  12   3  24   2
M  END
