Coordinates from ORCA-job p-CH3O-Ph-N2-X-OTs-B3LYPG-6-31G_dp-scan-d09-49-n400
 OpenBabel08281821023D

 35 35  0  0  0  0  0  0  0  0999 V2000
   -0.2499   -0.1277   -2.3441 C   0  0  0  0  0  0  0  0  0  0  0  0
    0.8444    0.4102   -1.7019 C   0  0  0  0  0  0  0  0  0  0  0  0
    0.7110    1.7110   -1.1671 C   0  0  0  0  0  0  0  0  0  0  0  0
   -0.4728    2.4625   -1.2796 C   0  0  0  0  0  0  0  0  0  0  0  0
   -1.5528    1.9096   -1.9444 C   0  0  0  0  0  0  0  0  0  0  0  0
   -1.4477    0.6076   -2.4799 C   0  0  0  0  0  0  0  0  0  0  0  0
   -0.2046   -1.1216   -2.7733 H   0  0  0  0  0  0  0  0  0  0  0  0
    1.7890   -0.1255   -1.6056 H   0  0  0  0  0  0  0  0  0  0  0  0
   -0.5296    3.4599   -0.8589 H   0  0  0  0  0  0  0  0  0  0  0  0
   -2.4639    2.4848   -2.0454 H   0  0  0  0  0  0  0  0  0  0  0  0
    1.7628    2.2846   -0.4958 N   0  0  0  0  0  0  0  0  0  0  0  0
    2.5851    2.7620    0.0991 N   0  0  0  0  0  0  0  0  0  0  0  0
    6.9741    0.1561   -2.6727 C   0  0  0  0  0  0  0  0  0  0  0  0
    7.9116    0.1805   -3.7005 C   0  0  0  0  0  0  0  0  0  0  0  0
    7.6267    0.8286   -4.9195 C   0  0  0  0  0  0  0  0  0  0  0  0
    6.3813    1.4517   -5.0929 C   0  0  0  0  0  0  0  0  0  0  0  0
    5.3974    1.4660   -4.0901 C   0  0  0  0  0  0  0  0  0  0  0  0
    5.7619    0.8020   -2.9214 C   0  0  0  0  0  0  0  0  0  0  0  0
    7.1860   -0.3455   -1.7322 H   0  0  0  0  0  0  0  0  0  0  0  0
    8.8745   -0.3067   -3.5646 H   0  0  0  0  0  0  0  0  0  0  0  0
    6.1908    1.9409   -6.0499 H   0  0  0  0  0  0  0  0  0  0  0  0
    4.0405    1.8214   -3.5361 H   0  0  0  0  0  0  0  0  0  0  0  0
    4.4084    0.8853   -1.7469 S   0  0  0  0  0  0  0  0  0  0  0  0
    4.7293    1.6965   -0.5417 O   0  0  0  0  0  0  0  0  0  0  0  0
    3.8087   -0.4415   -1.4531 O   0  0  0  0  0  0  0  0  0  0  0  0
    3.4174    1.7139   -2.6724 O   0  0  0  0  0  0  0  0  0  0  0  0
    8.6676    0.8521   -6.0163 C   0  0  0  0  0  0  0  0  0  0  0  0
    9.5428    1.4470   -5.7264 H   0  0  0  0  0  0  0  0  0  0  0  0
    9.0306   -0.1555   -6.2495 H   0  0  0  0  0  0  0  0  0  0  0  0
    8.2645    1.2846   -6.9364 H   0  0  0  0  0  0  0  0  0  0  0  0
   -2.4351   -0.0177   -3.1362 O   0  0  0  0  0  0  0  0  0  0  0  0
   -3.6810    0.6513   -3.3477 C   0  0  0  0  0  0  0  0  0  0  0  0
   -4.3005   -0.0534   -3.9018 H   0  0  0  0  0  0  0  0  0  0  0  0
   -3.5430    1.5625   -3.9395 H   0  0  0  0  0  0  0  0  0  0  0  0
   -4.1653    0.8942   -2.3957 H   0  0  0  0  0  0  0  0  0  0  0  0
  1  2  1  0  0  0  0
  2  8  1  0  0  0  0
  2  3  2  0  0  0  0
  3 11  1  0  0  0  0
  4  3  1  0  0  0  0
  4  9  1  0  0  0  0
  5  4  2  0  0  0  0
  6  1  2  0  0  0  0
  6  5  1  0  0  0  0
  7  1  1  0  0  0  0
 10  5  1  0  0  0  0
 11 12  1  0  0  0  0
 13 19  1  0  0  0  0
 14 20  1  0  0  0  0
 14 13  2  0  0  0  0
 15 14  1  0  0  0  0
 16 15  2  0  0  0  0
 16 17  1  0  0  0  0
 17 18  2  0  0  0  0
 18 13  1  0  0  0  0
 18 23  1  0  0  0  0
 21 16  1  0  0  0  0
 22 26  1  0  0  0  0
 23 25  2  0  0  0  0
 23 24  2  0  0  0  0
 26 23  1  0  0  0  0
 27 28  1  0  0  0  0
 27 15  1  0  0  0  0
 29 27  1  0  0  0  0
 30 27  1  0  0  0  0
 31  6  1  0  0  0  0
 32 31  1  0  0  0  0
 32 35  1  0  0  0  0
 33 32  1  0  0  0  0
 34 32  1  0  0  0  0
M  RAD  3  11   2  12   3  17   2
M  END
