Coordinates from ORCA-job p-CH3O-Ph-N2-X-OTs-B3LYPG-6-31G_dp-scan-d09-49-n400
 OpenBabel08281821023D

 35 35  0  0  0  0  0  0  0  0999 V2000
   -0.3394   -0.1238   -2.1043 C   0  0  0  0  0  0  0  0  0  0  0  0
    0.7567    0.6454   -1.7722 C   0  0  0  0  0  0  0  0  0  0  0  0
    0.5266    2.0044   -1.4608 C   0  0  0  0  0  0  0  0  0  0  0  0
   -0.7563    2.5788   -1.4820 C   0  0  0  0  0  0  0  0  0  0  0  0
   -1.8397    1.7918   -1.8309 C   0  0  0  0  0  0  0  0  0  0  0  0
   -1.6348    0.4320   -2.1467 C   0  0  0  0  0  0  0  0  0  0  0  0
   -0.2202   -1.1720   -2.3534 H   0  0  0  0  0  0  0  0  0  0  0  0
    1.7664    0.2345   -1.7469 H   0  0  0  0  0  0  0  0  0  0  0  0
   -0.8884    3.6259   -1.2328 H   0  0  0  0  0  0  0  0  0  0  0  0
   -2.8288    2.2308   -1.8553 H   0  0  0  0  0  0  0  0  0  0  0  0
    1.5753    2.8172   -1.1035 N   0  0  0  0  0  0  0  0  0  0  0  0
    2.4779    3.4196   -0.8085 N   0  0  0  0  0  0  0  0  0  0  0  0
    6.1886   -0.1998   -3.4581 C   0  0  0  0  0  0  0  0  0  0  0  0
    7.3511   -0.3692   -4.2091 C   0  0  0  0  0  0  0  0  0  0  0  0
    7.9962    0.7243   -4.8028 C   0  0  0  0  0  0  0  0  0  0  0  0
    7.4410    1.9997   -4.6258 C   0  0  0  0  0  0  0  0  0  0  0  0
    6.2792    2.1831   -3.8785 C   0  0  0  0  0  0  0  0  0  0  0  0
    5.6536    1.0786   -3.2972 C   0  0  0  0  0  0  0  0  0  0  0  0
    5.6886   -1.0409   -2.9913 H   0  0  0  0  0  0  0  0  0  0  0  0
    7.7655   -1.3671   -4.3343 H   0  0  0  0  0  0  0  0  0  0  0  0
    7.9276    2.8602   -5.0783 H   0  0  0  0  0  0  0  0  0  0  0  0
    5.8630    3.1757   -3.7414 H   0  0  0  0  0  0  0  0  0  0  0  0
    4.1403    1.3039   -2.3566 S   0  0  0  0  0  0  0  0  0  0  0  0
    4.4669    2.3586   -1.3280 O   0  0  0  0  0  0  0  0  0  0  0  0
    3.8200   -0.0223   -1.7535 O   0  0  0  0  0  0  0  0  0  0  0  0
    3.0893    1.7816   -3.3000 O   0  0  0  0  0  0  0  0  0  0  0  0
    9.2697    0.5321   -5.5920 C   0  0  0  0  0  0  0  0  0  0  0  0
   10.1230    0.3438   -4.9288 H   0  0  0  0  0  0  0  0  0  0  0  0
    9.1951   -0.3250   -6.2702 H   0  0  0  0  0  0  0  0  0  0  0  0
    9.5077    1.4163   -6.1902 H   0  0  0  0  0  0  0  0  0  0  0  0
   -2.6161   -0.4159   -2.4965 O   0  0  0  0  0  0  0  0  0  0  0  0
   -3.9606    0.0582   -2.5815 C   0  0  0  0  0  0  0  0  0  0  0  0
   -4.5552   -0.8004   -2.8926 H   0  0  0  0  0  0  0  0  0  0  0  0
   -4.0525    0.8561   -3.3268 H   0  0  0  0  0  0  0  0  0  0  0  0
   -4.3171    0.4157   -1.6093 H   0  0  0  0  0  0  0  0  0  0  0  0
  1  2  1  0  0  0  0
  2  8  1  0  0  0  0
  2  3  2  0  0  0  0
  3 11  1  0  0  0  0
  4  3  1  0  0  0  0
  4  9  1  0  0  0  0
  5  4  2  0  0  0  0
  6  1  2  0  0  0  0
  6  5  1  0  0  0  0
  7  1  1  0  0  0  0
 10  5  1  0  0  0  0
 11 12  1  0  0  0  0
 13 18  1  0  0  0  0
 13 19  1  0  0  0  0
 14 13  2  0  0  0  0
 15 16  2  0  0  0  0
 15 14  1  0  0  0  0
 16 17  1  0  0  0  0
 17 22  1  0  0  0  0
 17 18  2  0  0  0  0
 18 23  1  0  0  0  0
 20 14  1  0  0  0  0
 21 16  1  0  0  0  0
 23 25  2  0  0  0  0
 23 24  1  0  0  0  0
 26 23  2  0  0  0  0
 27 28  1  0  0  0  0
 27 15  1  0  0  0  0
 29 27  1  0  0  0  0
 30 27  1  0  0  0  0
 31  6  1  0  0  0  0
 32 31  1  0  0  0  0
 32 35  1  0  0  0  0
 33 32  1  0  0  0  0
 34 32  1  0  0  0  0
M  RAD  3  11   2  12   3  24   2
M  END
