Coordinates from ORCA-job p-CH3O-Ph-N2-X-OTs-B3LYPG-6-31G_dp-scan-d09-49-n400
 OpenBabel08281821023D

 35 35  0  0  0  0  0  0  0  0999 V2000
   -0.3288   -0.1250   -2.0716 C   0  0  0  0  0  0  0  0  0  0  0  0
    0.7615    0.6601   -1.7583 C   0  0  0  0  0  0  0  0  0  0  0  0
    0.5217    2.0257   -1.4853 C   0  0  0  0  0  0  0  0  0  0  0  0
   -0.7647    2.5911   -1.5257 C   0  0  0  0  0  0  0  0  0  0  0  0
   -1.8421    1.7877   -1.8552 C   0  0  0  0  0  0  0  0  0  0  0  0
   -1.6277    0.4210   -2.1323 C   0  0  0  0  0  0  0  0  0  0  0  0
   -0.2023   -1.1790   -2.2914 H   0  0  0  0  0  0  0  0  0  0  0  0
    1.7737    0.2566   -1.7191 H   0  0  0  0  0  0  0  0  0  0  0  0
   -0.9041    3.6439   -1.3060 H   0  0  0  0  0  0  0  0  0  0  0  0
   -2.8339    2.2196   -1.8947 H   0  0  0  0  0  0  0  0  0  0  0  0
    1.5643    2.8548   -1.1482 N   0  0  0  0  0  0  0  0  0  0  0  0
    2.4608    3.4722   -0.8669 N   0  0  0  0  0  0  0  0  0  0  0  0
    6.1279   -0.2011   -3.5333 C   0  0  0  0  0  0  0  0  0  0  0  0
    7.2859   -0.3783   -4.2896 C   0  0  0  0  0  0  0  0  0  0  0  0
    7.9901    0.7183   -4.8047 C   0  0  0  0  0  0  0  0  0  0  0  0
    7.4995    2.0057   -4.5431 C   0  0  0  0  0  0  0  0  0  0  0  0
    6.3430    2.1971   -3.7898 C   0  0  0  0  0  0  0  0  0  0  0  0
    5.6574    1.0891   -3.2881 C   0  0  0  0  0  0  0  0  0  0  0  0
    5.5853   -1.0456   -3.1239 H   0  0  0  0  0  0  0  0  0  0  0  0
    7.6504   -1.3852   -4.4807 H   0  0  0  0  0  0  0  0  0  0  0  0
    8.0332    2.8690   -4.9331 H   0  0  0  0  0  0  0  0  0  0  0  0
    5.9781    3.1973   -3.5813 H   0  0  0  0  0  0  0  0  0  0  0  0
    4.1409    1.3250   -2.3552 S   0  0  0  0  0  0  0  0  0  0  0  0
    4.4599    2.4053   -1.3513 O   0  0  0  0  0  0  0  0  0  0  0  0
    3.8292    0.0100   -1.7238 O   0  0  0  0  0  0  0  0  0  0  0  0
    3.0855    1.7727   -3.3089 O   0  0  0  0  0  0  0  0  0  0  0  0
    9.2619    0.5173   -5.5944 C   0  0  0  0  0  0  0  0  0  0  0  0
   10.1189    0.3503   -4.9298 H   0  0  0  0  0  0  0  0  0  0  0  0
    9.1908   -0.3545   -6.2531 H   0  0  0  0  0  0  0  0  0  0  0  0
    9.4930    1.3905   -6.2115 H   0  0  0  0  0  0  0  0  0  0  0  0
   -2.6026   -0.4429   -2.4602 O   0  0  0  0  0  0  0  0  0  0  0  0
   -3.9503    0.0191   -2.5592 C   0  0  0  0  0  0  0  0  0  0  0  0
   -4.5390   -0.8528   -2.8430 H   0  0  0  0  0  0  0  0  0  0  0  0
   -4.0482    0.7927   -3.3290 H   0  0  0  0  0  0  0  0  0  0  0  0
   -4.3089    0.4040   -1.5983 H   0  0  0  0  0  0  0  0  0  0  0  0
  1  2  1  0  0  0  0
  2  8  1  0  0  0  0
  2  3  2  0  0  0  0
  3 11  1  0  0  0  0
  4  3  1  0  0  0  0
  4  9  1  0  0  0  0
  5  4  2  0  0  0  0
  6  1  2  0  0  0  0
  6  5  1  0  0  0  0
  7  1  1  0  0  0  0
 10  5  1  0  0  0  0
 11 12  1  0  0  0  0
 13 18  1  0  0  0  0
 13 19  1  0  0  0  0
 14 13  2  0  0  0  0
 15 16  2  0  0  0  0
 15 14  1  0  0  0  0
 16 17  1  0  0  0  0
 17 22  1  0  0  0  0
 17 18  2  0  0  0  0
 18 23  1  0  0  0  0
 20 14  1  0  0  0  0
 21 16  1  0  0  0  0
 23 25  2  0  0  0  0
 23 24  1  0  0  0  0
 26 23  2  0  0  0  0
 27 28  1  0  0  0  0
 27 15  1  0  0  0  0
 29 27  1  0  0  0  0
 30 27  1  0  0  0  0
 31  6  1  0  0  0  0
 32 31  1  0  0  0  0
 32 35  1  0  0  0  0
 33 32  1  0  0  0  0
 34 32  1  0  0  0  0
M  RAD  3  11   2  12   3  24   2
M  END
