Coordinates from ORCA-job p-CH3O-Ph-N2-X-OTs-B3LYPG-6-31G_dp-scan-d09-49-n400
 OpenBabel08281821023D

 35 35  0  0  0  0  0  0  0  0999 V2000
   -0.3409   -0.0951   -2.3529 C   0  0  0  0  0  0  0  0  0  0  0  0
    0.7882    0.4567   -1.7845 C   0  0  0  0  0  0  0  0  0  0  0  0
    0.6719    1.7555   -1.2391 C   0  0  0  0  0  0  0  0  0  0  0  0
   -0.5292    2.4852   -1.2681 C   0  0  0  0  0  0  0  0  0  0  0  0
   -1.6451    1.9184   -1.8584 C   0  0  0  0  0  0  0  0  0  0  0  0
   -1.5556    0.6204   -2.4046 C   0  0  0  0  0  0  0  0  0  0  0  0
   -0.3100   -1.0885   -2.7847 H   0  0  0  0  0  0  0  0  0  0  0  0
    1.7401   -0.0747   -1.7536 H   0  0  0  0  0  0  0  0  0  0  0  0
   -0.5724    3.4800   -0.8395 H   0  0  0  0  0  0  0  0  0  0  0  0
   -2.5703    2.4789   -1.8928 H   0  0  0  0  0  0  0  0  0  0  0  0
    1.7551    2.3483   -0.6373 N   0  0  0  0  0  0  0  0  0  0  0  0
    2.6675    2.7753   -0.1402 N   0  0  0  0  0  0  0  0  0  0  0  0
    6.9264    0.1036   -2.6926 C   0  0  0  0  0  0  0  0  0  0  0  0
    7.9423    0.1636   -3.6470 C   0  0  0  0  0  0  0  0  0  0  0  0
    7.7669    0.8463   -4.8639 C   0  0  0  0  0  0  0  0  0  0  0  0
    6.5389    1.4750   -5.1219 C   0  0  0  0  0  0  0  0  0  0  0  0
    5.5162    1.4258   -4.1781 C   0  0  0  0  0  0  0  0  0  0  0  0
    5.7259    0.7441   -2.9846 C   0  0  0  0  0  0  0  0  0  0  0  0
    7.0689   -0.4285   -1.7573 H   0  0  0  0  0  0  0  0  0  0  0  0
    8.8912   -0.3296   -3.4489 H   0  0  0  0  0  0  0  0  0  0  0  0
    6.3958    1.9973   -6.0654 H   0  0  0  0  0  0  0  0  0  0  0  0
    4.4856    1.8315   -4.1650 H   0  0  0  0  0  0  0  0  0  0  0  0
    4.2546    0.8283   -1.9713 S   0  0  0  0  0  0  0  0  0  0  0  0
    4.5926    1.5750   -0.7084 O   0  0  0  0  0  0  0  0  0  0  0  0
    3.7563   -0.5518   -1.7100 O   0  0  0  0  0  0  0  0  0  0  0  0
    3.3521    1.6272   -2.8714 O   0  0  0  0  0  0  0  0  0  0  0  0
    8.8967    0.9165   -5.8653 C   0  0  0  0  0  0  0  0  0  0  0  0
    9.6393    1.6707   -5.5747 H   0  0  0  0  0  0  0  0  0  0  0  0
    9.4241   -0.0401   -5.9443 H   0  0  0  0  0  0  0  0  0  0  0  0
    8.5326    1.1845   -6.8613 H   0  0  0  0  0  0  0  0  0  0  0  0
   -2.5777   -0.0202   -2.9943 O   0  0  0  0  0  0  0  0  0  0  0  0
   -3.8452    0.6289   -3.1098 C   0  0  0  0  0  0  0  0  0  0  0  0
   -4.4928   -0.0821   -3.6223 H   0  0  0  0  0  0  0  0  0  0  0  0
   -3.7665    1.5463   -3.7030 H   0  0  0  0  0  0  0  0  0  0  0  0
   -4.2634    0.8590   -2.1237 H   0  0  0  0  0  0  0  0  0  0  0  0
  1  2  1  0  0  0  0
  2  8  1  0  0  0  0
  2  3  2  0  0  0  0
  3 11  1  0  0  0  0
  4  3  1  0  0  0  0
  4  9  1  0  0  0  0
  5  4  2  0  0  0  0
  6  1  2  0  0  0  0
  6  5  1  0  0  0  0
  7  1  1  0  0  0  0
 10  5  1  0  0  0  0
 11 12  1  0  0  0  0
 13 19  1  0  0  0  0
 14 20  1  0  0  0  0
 14 13  2  0  0  0  0
 15 14  1  0  0  0  0
 16 15  2  0  0  0  0
 16 17  1  0  0  0  0
 17 22  1  0  0  0  0
 17 18  2  0  0  0  0
 18 13  1  0  0  0  0
 18 23  1  0  0  0  0
 21 16  1  0  0  0  0
 23 25  2  0  0  0  0
 23 24  1  0  0  0  0
 26 23  2  0  0  0  0
 27 28  1  0  0  0  0
 27 15  1  0  0  0  0
 29 27  1  0  0  0  0
 30 27  1  0  0  0  0
 31  6  1  0  0  0  0
 32 31  1  0  0  0  0
 32 35  1  0  0  0  0
 33 32  1  0  0  0  0
 34 32  1  0  0  0  0
M  RAD  3  11   2  12   3  24   2
M  END
