Coordinates from ORCA-job p-CH3O-Ph-N2-X-OTs-B3LYPG-6-31G_dp-scan-d09-49-n400
 OpenBabel08281821023D

 35 35  0  0  0  0  0  0  0  0999 V2000
   -0.1782    0.0444   -1.4790 C   0  0  0  0  0  0  0  0  0  0  0  0
    0.7835    1.0259   -1.6025 C   0  0  0  0  0  0  0  0  0  0  0  0
    0.3552    2.3052   -2.0233 C   0  0  0  0  0  0  0  0  0  0  0  0
   -0.9882    2.5948   -2.3177 C   0  0  0  0  0  0  0  0  0  0  0  0
   -1.9333    1.5907   -2.2025 C   0  0  0  0  0  0  0  0  0  0  0  0
   -1.5306    0.3058   -1.7813 C   0  0  0  0  0  0  0  0  0  0  0  0
    0.0942   -0.9547   -1.1585 H   0  0  0  0  0  0  0  0  0  0  0  0
    1.8365    0.8353   -1.3910 H   0  0  0  0  0  0  0  0  0  0  0  0
   -1.2728    3.5906   -2.6391 H   0  0  0  0  0  0  0  0  0  0  0  0
   -2.9674    1.8056   -2.4384 H   0  0  0  0  0  0  0  0  0  0  0  0
    1.2632    3.3291   -2.1465 N   0  0  0  0  0  0  0  0  0  0  0  0
    2.0657    4.1139   -2.2151 N   0  0  0  0  0  0  0  0  0  0  0  0
    5.6167    0.9217   -4.6605 C   0  0  0  0  0  0  0  0  0  0  0  0
    6.7824    0.5592   -5.3373 C   0  0  0  0  0  0  0  0  0  0  0  0
    8.0217    0.5906   -4.6950 C   0  0  0  0  0  0  0  0  0  0  0  0
    8.0536    1.0006   -3.3533 C   0  0  0  0  0  0  0  0  0  0  0  0
    6.9040    1.3656   -2.6530 C   0  0  0  0  0  0  0  0  0  0  0  0
    5.6605    1.3223   -3.3248 C   0  0  0  0  0  0  0  0  0  0  0  0
    4.6535    0.8991   -5.1588 H   0  0  0  0  0  0  0  0  0  0  0  0
    6.7227    0.2488   -6.3776 H   0  0  0  0  0  0  0  0  0  0  0  0
    9.0102    1.0369   -2.8360 H   0  0  0  0  0  0  0  0  0  0  0  0
    7.0739    1.6664   -1.6120 H   0  0  0  0  0  0  0  0  0  0  0  0
    4.0580    1.7590   -2.5791 S   0  0  0  0  0  0  0  0  0  0  0  0
    4.1881    3.2148   -2.2017 O   0  0  0  0  0  0  0  0  0  0  0  0
    3.8982    0.8696   -1.3928 O   0  0  0  0  0  0  0  0  0  0  0  0
    2.9742    1.5585   -3.6034 O   0  0  0  0  0  0  0  0  0  0  0  0
    9.2891    0.1825   -5.4074 C   0  0  0  0  0  0  0  0  0  0  0  0
    9.6371   -0.8007   -5.0676 H   0  0  0  0  0  0  0  0  0  0  0  0
    9.1375    0.1216   -6.4892 H   0  0  0  0  0  0  0  0  0  0  0  0
   10.1014    0.8928   -5.2186 H   0  0  0  0  0  0  0  0  0  0  0  0
   -2.3668   -0.7355   -1.6364 O   0  0  0  0  0  0  0  0  0  0  0  0
   -3.7543   -0.5714   -1.9329 C   0  0  0  0  0  0  0  0  0  0  0  0
   -4.2101   -1.5442   -1.7505 H   0  0  0  0  0  0  0  0  0  0  0  0
   -3.9045   -0.2888   -2.9807 H   0  0  0  0  0  0  0  0  0  0  0  0
   -4.2144    0.1756   -1.2769 H   0  0  0  0  0  0  0  0  0  0  0  0
  1  7  1  0  0  0  0
  2  1  1  0  0  0  0
  2  8  1  0  0  0  0
  3  2  2  0  0  0  0
  4  5  2  0  0  0  0
  4  3  1  0  0  0  0
  5  6  1  0  0  0  0
  6 31  1  0  0  0  0
  6  1  2  0  0  0  0
  9  4  1  0  0  0  0
 10  5  1  0  0  0  0
 11  3  1  0  0  0  0
 12 11  1  0  0  0  0
 13 18  2  0  0  0  0
 14 15  2  0  0  0  0
 14 13  1  0  0  0  0
 15 16  1  0  0  0  0
 16 21  1  0  0  0  0
 16 17  2  0  0  0  0
 17 22  1  0  0  0  0
 18 17  1  0  0  0  0
 18 23  1  0  0  0  0
 19 13  1  0  0  0  0
 20 14  1  0  0  0  0
 23 24  2  0  0  0  0
 23 25  1  0  0  0  0
 26 23  2  0  0  0  0
 27 30  1  0  0  0  0
 27 28  1  0  0  0  0
 27 15  1  0  0  0  0
 29 27  1  0  0  0  0
 32 33  1  0  0  0  0
 32 31  1  0  0  0  0
 32 35  1  0  0  0  0
 34 32  1  0  0  0  0
M  RAD  3  11   2  12   3  25   2
M  END
