Coordinates from ORCA-job p-CH3O-Ph-N2-X-OTs-B3LYPG-6-31G_dp-scan-d09-49-n400
 OpenBabel08281821023D

 35 35  0  0  0  0  0  0  0  0999 V2000
   -0.3000   -0.1177   -1.8641 C   0  0  0  0  0  0  0  0  0  0  0  0
    0.7689    0.7337   -1.6758 C   0  0  0  0  0  0  0  0  0  0  0  0
    0.4952    2.1198   -1.6354 C   0  0  0  0  0  0  0  0  0  0  0  0
   -0.8017    2.6404   -1.7860 C   0  0  0  0  0  0  0  0  0  0  0  0
   -1.8568    1.7685   -1.9887 C   0  0  0  0  0  0  0  0  0  0  0  0
   -1.6096    0.3799   -2.0281 C   0  0  0  0  0  0  0  0  0  0  0  0
   -0.1479   -1.1905   -1.9031 H   0  0  0  0  0  0  0  0  0  0  0  0
    1.7886    0.3629   -1.5668 H   0  0  0  0  0  0  0  0  0  0  0  0
   -0.9661    3.7119   -1.7494 H   0  0  0  0  0  0  0  0  0  0  0  0
   -2.8561    2.1644   -2.1144 H   0  0  0  0  0  0  0  0  0  0  0  0
    1.5139    3.0174   -1.4252 N   0  0  0  0  0  0  0  0  0  0  0  0
    2.3897    3.6927   -1.2285 N   0  0  0  0  0  0  0  0  0  0  0  0
    5.8907   -0.1178   -3.8962 C   0  0  0  0  0  0  0  0  0  0  0  0
    7.0507   -0.3091   -4.6425 C   0  0  0  0  0  0  0  0  0  0  0  0
    7.9968    0.7166   -4.7880 C   0  0  0  0  0  0  0  0  0  0  0  0
    7.7455    1.9441   -4.1623 C   0  0  0  0  0  0  0  0  0  0  0  0
    6.5858    2.1507   -3.4143 C   0  0  0  0  0  0  0  0  0  0  0  0
    5.6573    1.1176   -3.2869 C   0  0  0  0  0  0  0  0  0  0  0  0
    5.1710   -0.9199   -3.7701 H   0  0  0  0  0  0  0  0  0  0  0  0
    7.2286   -1.2717   -5.1166 H   0  0  0  0  0  0  0  0  0  0  0  0
    8.4695    2.7504   -4.2586 H   0  0  0  0  0  0  0  0  0  0  0  0
    6.4038    3.0980   -2.9185 H   0  0  0  0  0  0  0  0  0  0  0  0
    4.1261    1.3719   -2.3811 S   0  0  0  0  0  0  0  0  0  0  0  0
    4.3967    2.5382   -1.4636 O   0  0  0  0  0  0  0  0  0  0  0  0
    3.8590    0.0986   -1.6524 O   0  0  0  0  0  0  0  0  0  0  0  0
    3.0573    1.6950   -3.3715 O   0  0  0  0  0  0  0  0  0  0  0  0
    9.2677    0.4881   -5.5722 C   0  0  0  0  0  0  0  0  0  0  0  0
   10.0241   -0.0229   -4.9624 H   0  0  0  0  0  0  0  0  0  0  0  0
    9.0884   -0.1366   -6.4531 H   0  0  0  0  0  0  0  0  0  0  0  0
    9.7050    1.4320   -5.9101 H   0  0  0  0  0  0  0  0  0  0  0  0
   -2.5613   -0.5494   -2.2140 O   0  0  0  0  0  0  0  0  0  0  0  0
   -3.9177   -0.1421   -2.3987 C   0  0  0  0  0  0  0  0  0  0  0  0
   -4.4858   -1.0630   -2.5252 H   0  0  0  0  0  0  0  0  0  0  0  0
   -4.0254    0.4800   -3.2941 H   0  0  0  0  0  0  0  0  0  0  0  0
   -4.2917    0.3994   -1.5224 H   0  0  0  0  0  0  0  0  0  0  0  0
  1  2  2  0  0  0  0
  2  3  1  0  0  0  0
  2  8  1  0  0  0  0
  3 11  1  0  0  0  0
  4  9  1  0  0  0  0
  4  3  2  0  0  0  0
  5  4  1  0  0  0  0
  6  5  2  0  0  0  0
  6  1  1  0  0  0  0
  7  1  1  0  0  0  0
 10  5  1  0  0  0  0
 11 12  1  0  0  0  0
 13 19  1  0  0  0  0
 13 18  2  0  0  0  0
 14 13  1  0  0  0  0
 15 14  2  0  0  0  0
 15 16  1  0  0  0  0
 16 17  2  0  0  0  0
 17 18  1  0  0  0  0
 17 22  1  0  0  0  0
 18 23  1  0  0  0  0
 20 14  1  0  0  0  0
 21 16  1  0  0  0  0
 23 25  2  0  0  0  0
 23 24  1  0  0  0  0
 26 23  2  0  0  0  0
 27 28  1  0  0  0  0
 27 15  1  0  0  0  0
 29 27  1  0  0  0  0
 30 27  1  0  0  0  0
 31  6  1  0  0  0  0
 32 31  1  0  0  0  0
 32 35  1  0  0  0  0
 33 32  1  0  0  0  0
 34 32  1  0  0  0  0
M  RAD  3  11   2  12   3  24   2
M  END
