Coordinates from ORCA-job p-CH3O-Ph-N2-X-OTs-B3LYPG-6-31G_dp-scan-d09-49-n400
 OpenBabel08281821023D

 35 35  0  0  0  0  0  0  0  0999 V2000
   -0.2692   -0.0817   -1.6889 C   0  0  0  0  0  0  0  0  0  0  0  0
    0.7767    0.8150   -1.6224 C   0  0  0  0  0  0  0  0  0  0  0  0
    0.4670    2.1855   -1.7772 C   0  0  0  0  0  0  0  0  0  0  0  0
   -0.8419    2.6456   -2.0012 C   0  0  0  0  0  0  0  0  0  0  0  0
   -1.8733    1.7267   -2.0796 C   0  0  0  0  0  0  0  0  0  0  0  0
   -1.5905    0.3536   -1.9224 C   0  0  0  0  0  0  0  0  0  0  0  0
   -0.0892   -1.1449   -1.5755 H   0  0  0  0  0  0  0  0  0  0  0  0
    1.8053    0.4874   -1.4673 H   0  0  0  0  0  0  0  0  0  0  0  0
   -1.0336    3.7067   -2.1183 H   0  0  0  0  0  0  0  0  0  0  0  0
   -2.8817    2.0747   -2.2613 H   0  0  0  0  0  0  0  0  0  0  0  0
    1.4612    3.1299   -1.6948 N   0  0  0  0  0  0  0  0  0  0  0  0
    2.3175    3.8485   -1.5907 N   0  0  0  0  0  0  0  0  0  0  0  0
    5.7098    0.1020   -4.2473 C   0  0  0  0  0  0  0  0  0  0  0  0
    6.8917   -0.1160   -4.9491 C   0  0  0  0  0  0  0  0  0  0  0  0
    8.0151    0.7029   -4.7523 C   0  0  0  0  0  0  0  0  0  0  0  0
    7.9163    1.7545   -3.8341 C   0  0  0  0  0  0  0  0  0  0  0  0
    6.7361    1.9847   -3.1242 C   0  0  0  0  0  0  0  0  0  0  0  0
    5.6365    1.1560   -3.3323 C   0  0  0  0  0  0  0  0  0  0  0  0
    4.8450   -0.5329   -4.4113 H   0  0  0  0  0  0  0  0  0  0  0  0
    6.9463   -0.9341   -5.6641 H   0  0  0  0  0  0  0  0  0  0  0  0
    8.7728    2.4051   -3.6719 H   0  0  0  0  0  0  0  0  0  0  0  0
    6.6495    2.8012   -2.4161 H   0  0  0  0  0  0  0  0  0  0  0  0
    4.1076    1.4314   -2.4312 S   0  0  0  0  0  0  0  0  0  0  0  0
    4.3371    2.6791   -1.6158 O   0  0  0  0  0  0  0  0  0  0  0  0
    3.8805    0.2221   -1.5896 O   0  0  0  0  0  0  0  0  0  0  0  0
    3.0359    1.6278   -3.4504 O   0  0  0  0  0  0  0  0  0  0  0  0
    9.3013    0.4372   -5.4991 C   0  0  0  0  0  0  0  0  0  0  0  0
    9.8704   -0.3763   -5.0314 H   0  0  0  0  0  0  0  0  0  0  0  0
    9.1100    0.1414   -6.5358 H   0  0  0  0  0  0  0  0  0  0  0  0
    9.9463    1.3211   -5.5140 H   0  0  0  0  0  0  0  0  0  0  0  0
   -2.5171   -0.6168   -1.9776 O   0  0  0  0  0  0  0  0  0  0  0  0
   -3.8813   -0.2746   -2.2267 C   0  0  0  0  0  0  0  0  0  0  0  0
   -4.4241   -1.2191   -2.2340 H   0  0  0  0  0  0  0  0  0  0  0  0
   -3.9938    0.2189   -3.1984 H   0  0  0  0  0  0  0  0  0  0  0  0
   -4.2796    0.3690   -1.4341 H   0  0  0  0  0  0  0  0  0  0  0  0
  1  2  1  0  0  0  0
  1  7  1  0  0  0  0
  2  8  1  0  0  0  0
  3 11  1  0  0  0  0
  3  2  2  0  0  0  0
  4  3  1  0  0  0  0
  5  4  2  0  0  0  0
  5  6  1  0  0  0  0
  6  1  2  0  0  0  0
  9  4  1  0  0  0  0
 10  5  1  0  0  0  0
 11 12  1  0  0  0  0
 13 18  2  0  0  0  0
 14 15  2  0  0  0  0
 14 13  1  0  0  0  0
 15 16  1  0  0  0  0
 16 21  1  0  0  0  0
 16 17  2  0  0  0  0
 17 22  1  0  0  0  0
 18 17  1  0  0  0  0
 18 23  1  0  0  0  0
 19 13  1  0  0  0  0
 20 14  1  0  0  0  0
 23 24  2  0  0  0  0
 23 25  1  0  0  0  0
 26 23  2  0  0  0  0
 27 28  1  0  0  0  0
 27 15  1  0  0  0  0
 29 27  1  0  0  0  0
 30 27  1  0  0  0  0
 31  6  1  0  0  0  0
 32 31  1  0  0  0  0
 32 35  1  0  0  0  0
 33 32  1  0  0  0  0
 34 32  1  0  0  0  0
M  RAD  3  11   2  12   3  25   2
M  END
