Coordinates from ORCA-job p-CH3O-Ph-N2-X-OTs-B3LYPG-6-31G_dp-scan-d09-49-n400
 OpenBabel08281821023D

 35 35  0  0  0  0  0  0  0  0999 V2000
   -0.2174   -0.0182   -1.5542 C   0  0  0  0  0  0  0  0  0  0  0  0
    0.7872    0.9253   -1.6086 C   0  0  0  0  0  0  0  0  0  0  0  0
    0.4151    2.2517   -1.9252 C   0  0  0  0  0  0  0  0  0  0  0  0
   -0.9144    2.6226   -2.1891 C   0  0  0  0  0  0  0  0  0  0  0  0
   -1.9037    1.6563   -2.1442 C   0  0  0  0  0  0  0  0  0  0  0  0
   -1.5583    0.3264   -1.8243 C   0  0  0  0  0  0  0  0  0  0  0  0
    0.0110   -1.0504   -1.3143 H   0  0  0  0  0  0  0  0  0  0  0  0
    1.8308    0.6657   -1.4256 H   0  0  0  0  0  0  0  0  0  0  0  0
   -1.1544    3.6518   -2.4325 H   0  0  0  0  0  0  0  0  0  0  0  0
   -2.9277    1.9347   -2.3567 H   0  0  0  0  0  0  0  0  0  0  0  0
    1.3669    3.2414   -1.9710 N   0  0  0  0  0  0  0  0  0  0  0  0
    2.2030    3.9918   -1.9710 N   0  0  0  0  0  0  0  0  0  0  0  0
    5.6009    0.5220   -4.5994 C   0  0  0  0  0  0  0  0  0  0  0  0
    6.8045    0.2336   -5.2409 C   0  0  0  0  0  0  0  0  0  0  0  0
    8.0309    0.6519   -4.7049 C   0  0  0  0  0  0  0  0  0  0  0  0
    8.0195    1.3823   -3.5083 C   0  0  0  0  0  0  0  0  0  0  0  0
    6.8228    1.6774   -2.8575 C   0  0  0  0  0  0  0  0  0  0  0  0
    5.6173    1.2409   -3.4040 C   0  0  0  0  0  0  0  0  0  0  0  0
    4.6505    0.2156   -5.0223 H   0  0  0  0  0  0  0  0  0  0  0  0
    6.7922   -0.3176   -6.1784 H   0  0  0  0  0  0  0  0  0  0  0  0
    8.9591    1.7300   -3.0858 H   0  0  0  0  0  0  0  0  0  0  0  0
    6.8035    2.2600   -1.9437 H   0  0  0  0  0  0  0  0  0  0  0  0
    4.0801    1.5759   -2.5410 S   0  0  0  0  0  0  0  0  0  0  0  0
    4.2637    2.9353   -1.9114 O   0  0  0  0  0  0  0  0  0  0  0  0
    3.9019    0.5010   -1.5230 O   0  0  0  0  0  0  0  0  0  0  0  0
    3.0058    1.5810   -3.5739 O   0  0  0  0  0  0  0  0  0  0  0  0
    9.3316    0.3089   -5.3923 C   0  0  0  0  0  0  0  0  0  0  0  0
    9.6762   -0.6942   -5.1101 H   0  0  0  0  0  0  0  0  0  0  0  0
    9.2242    0.3179   -6.4820 H   0  0  0  0  0  0  0  0  0  0  0  0
   10.1248    1.0127   -5.1231 H   0  0  0  0  0  0  0  0  0  0  0  0
   -2.4401   -0.6837   -1.7513 O   0  0  0  0  0  0  0  0  0  0  0  0
   -3.8208   -0.4349   -2.0194 C   0  0  0  0  0  0  0  0  0  0  0  0
   -4.3200   -1.3964   -1.9036 H   0  0  0  0  0  0  0  0  0  0  0  0
   -3.9662   -0.0697   -3.0420 H   0  0  0  0  0  0  0  0  0  0  0  0
   -4.2404    0.2823   -1.3051 H   0  0  0  0  0  0  0  0  0  0  0  0
  1  7  1  0  0  0  0
  2  1  1  0  0  0  0
  2  8  1  0  0  0  0
  3  2  2  0  0  0  0
  4  5  2  0  0  0  0
  4  3  1  0  0  0  0
  5  6  1  0  0  0  0
  6 31  1  0  0  0  0
  6  1  2  0  0  0  0
  9  4  1  0  0  0  0
 10  5  1  0  0  0  0
 11 12  1  0  0  0  0
 11  3  1  0  0  0  0
 13 18  2  0  0  0  0
 14 15  2  0  0  0  0
 14 13  1  0  0  0  0
 15 16  1  0  0  0  0
 16 21  1  0  0  0  0
 16 17  2  0  0  0  0
 17 22  1  0  0  0  0
 18 17  1  0  0  0  0
 18 23  1  0  0  0  0
 19 13  1  0  0  0  0
 20 14  1  0  0  0  0
 23 24  2  0  0  0  0
 23 25  1  0  0  0  0
 26 23  2  0  0  0  0
 27 30  1  0  0  0  0
 27 28  1  0  0  0  0
 27 15  1  0  0  0  0
 29 27  1  0  0  0  0
 32 33  1  0  0  0  0
 32 31  1  0  0  0  0
 32 35  1  0  0  0  0
 34 32  1  0  0  0  0
M  RAD  3  11   2  12   3  25   2
M  END
