Coordinates from ORCA-job p-CH3O-Ph-N2-X-OTs-B3LYPG-6-31G_dp-scan-d09-49-n400
 OpenBabel08281821023D

 35 35  0  0  0  0  0  0  0  0999 V2000
   -0.3979   -0.1095   -2.2498 C   0  0  0  0  0  0  0  0  0  0  0  0
    0.7304    0.5597   -1.8226 C   0  0  0  0  0  0  0  0  0  0  0  0
    0.5606    1.8762   -1.3375 C   0  0  0  0  0  0  0  0  0  0  0  0
   -0.6943    2.5072   -1.2851 C   0  0  0  0  0  0  0  0  0  0  0  0
   -1.8105    1.8228   -1.7332 C   0  0  0  0  0  0  0  0  0  0  0  0
   -1.6663    0.5065   -2.2200 C   0  0  0  0  0  0  0  0  0  0  0  0
   -0.3257   -1.1213   -2.6312 H   0  0  0  0  0  0  0  0  0  0  0  0
    1.7203    0.1039   -1.8548 H   0  0  0  0  0  0  0  0  0  0  0  0
   -0.7791    3.5188   -0.9046 H   0  0  0  0  0  0  0  0  0  0  0  0
   -2.7781    2.3069   -1.7033 H   0  0  0  0  0  0  0  0  0  0  0  0
    1.6433    2.5868   -0.8781 N   0  0  0  0  0  0  0  0  0  0  0  0
    2.5768    3.0972   -0.5128 N   0  0  0  0  0  0  0  0  0  0  0  0
    6.4890   -0.0900   -3.1124 C   0  0  0  0  0  0  0  0  0  0  0  0
    7.6704   -0.1889   -3.8433 C   0  0  0  0  0  0  0  0  0  0  0  0
    8.0140    0.7780   -4.8006 C   0  0  0  0  0  0  0  0  0  0  0  0
    7.1336    1.8474   -5.0096 C   0  0  0  0  0  0  0  0  0  0  0  0
    5.9472    1.9593   -4.2838 C   0  0  0  0  0  0  0  0  0  0  0  0
    5.6287    0.9880   -3.3349 C   0  0  0  0  0  0  0  0  0  0  0  0
    6.2146   -0.8442   -2.3829 H   0  0  0  0  0  0  0  0  0  0  0  0
    8.3367   -1.0316   -3.6721 H   0  0  0  0  0  0  0  0  0  0  0  0
    7.3788    2.6021   -5.7530 H   0  0  0  0  0  0  0  0  0  0  0  0
    5.2649    2.7839   -4.4607 H   0  0  0  0  0  0  0  0  0  0  0  0
    4.1323    1.1445   -2.3543 S   0  0  0  0  0  0  0  0  0  0  0  0
    4.5001    2.0287   -1.1863 O   0  0  0  0  0  0  0  0  0  0  0  0
    3.7658   -0.2376   -1.9305 O   0  0  0  0  0  0  0  0  0  0  0  0
    3.1030    1.7901   -3.2176 O   0  0  0  0  0  0  0  0  0  0  0  0
    9.3010    0.6606   -5.5833 C   0  0  0  0  0  0  0  0  0  0  0  0
   10.1744    0.7020   -4.9220 H   0  0  0  0  0  0  0  0  0  0  0  0
    9.3541   -0.2911   -6.1247 H   0  0  0  0  0  0  0  0  0  0  0  0
    9.3995    1.4672   -6.3156 H   0  0  0  0  0  0  0  0  0  0  0  0
   -2.6834   -0.2435   -2.6757 O   0  0  0  0  0  0  0  0  0  0  0  0
   -4.0041    0.2996   -2.6996 C   0  0  0  0  0  0  0  0  0  0  0  0
   -4.6363   -0.4849   -3.1149 H   0  0  0  0  0  0  0  0  0  0  0  0
   -4.0553    1.1874   -3.3394 H   0  0  0  0  0  0  0  0  0  0  0  0
   -4.3484    0.5496   -1.6901 H   0  0  0  0  0  0  0  0  0  0  0  0
  1  6  2  0  0  0  0
  1  2  1  0  0  0  0
  2  3  2  0  0  0  0
  3  4  1  0  0  0  0
  3 11  1  0  0  0  0
  4  9  1  0  0  0  0
  5 10  1  0  0  0  0
  5  4  2  0  0  0  0
  6  5  1  0  0  0  0
  7  1  1  0  0  0  0
  8  2  1  0  0  0  0
 11 12  1  0  0  0  0
 13 19  1  0  0  0  0
 14 20  1  0  0  0  0
 14 13  2  0  0  0  0
 15 14  1  0  0  0  0
 16 15  2  0  0  0  0
 16 17  1  0  0  0  0
 17 18  2  0  0  0  0
 18 13  1  0  0  0  0
 18 23  1  0  0  0  0
 21 16  1  0  0  0  0
 22 17  1  0  0  0  0
 23 25  2  0  0  0  0
 23 24  1  0  0  0  0
 26 23  2  0  0  0  0
 27 28  1  0  0  0  0
 27 15  1  0  0  0  0
 29 27  1  0  0  0  0
 30 27  1  0  0  0  0
 31  6  1  0  0  0  0
 32 31  1  0  0  0  0
 32 35  1  0  0  0  0
 33 32  1  0  0  0  0
 34 32  1  0  0  0  0
M  RAD  3  11   2  12   3  24   2
M  END
