Coordinates from ORCA-job p-CH3O-Ph-N2-X-OTs-B3LYPG-6-31G_dp-scan-d09-49-n400
 OpenBabel08281821023D

 35 35  0  0  0  0  0  0  0  0999 V2000
   -0.1817    0.0447   -1.4799 C   0  0  0  0  0  0  0  0  0  0  0  0
    0.7795    1.0269   -1.6017 C   0  0  0  0  0  0  0  0  0  0  0  0
    0.3511    2.3058   -2.0233 C   0  0  0  0  0  0  0  0  0  0  0  0
   -0.9919    2.5945   -2.3203 C   0  0  0  0  0  0  0  0  0  0  0  0
   -1.9366    1.5897   -2.2067 C   0  0  0  0  0  0  0  0  0  0  0  0
   -1.5337    0.3052   -1.7847 C   0  0  0  0  0  0  0  0  0  0  0  0
    0.0909   -0.9541   -1.1589 H   0  0  0  0  0  0  0  0  0  0  0  0
    1.8323    0.8372   -1.3883 H   0  0  0  0  0  0  0  0  0  0  0  0
   -1.2767    3.5901   -2.6422 H   0  0  0  0  0  0  0  0  0  0  0  0
   -2.9704    1.8039   -2.4445 H   0  0  0  0  0  0  0  0  0  0  0  0
    1.2585    3.3304   -2.1449 N   0  0  0  0  0  0  0  0  0  0  0  0
    2.0605    4.1159   -2.2119 N   0  0  0  0  0  0  0  0  0  0  0  0
    5.6197    0.9225   -4.6413 C   0  0  0  0  0  0  0  0  0  0  0  0
    6.7782    0.5567   -5.3285 C   0  0  0  0  0  0  0  0  0  0  0  0
    8.0226    0.5886   -4.6979 C   0  0  0  0  0  0  0  0  0  0  0  0
    8.0653    1.0025   -3.3579 C   0  0  0  0  0  0  0  0  0  0  0  0
    6.9245    1.3716   -2.6445 C   0  0  0  0  0  0  0  0  0  0  0  0
    5.6713    1.3275   -3.3068 C   0  0  0  0  0  0  0  0  0  0  0  0
    4.6527    0.8990   -5.1322 H   0  0  0  0  0  0  0  0  0  0  0  0
    6.7078    0.2436   -6.3673 H   0  0  0  0  0  0  0  0  0  0  0  0
    9.0268    1.0390   -2.8495 H   0  0  0  0  0  0  0  0  0  0  0  0
    7.1262    1.6723   -1.6059 H   0  0  0  0  0  0  0  0  0  0  0  0
    4.0569    1.7623   -2.5709 S   0  0  0  0  0  0  0  0  0  0  0  0
    4.1835    3.2187   -2.1950 O   0  0  0  0  0  0  0  0  0  0  0  0
    3.8931    0.8726   -1.3855 O   0  0  0  0  0  0  0  0  0  0  0  0
    2.9711    1.5608   -3.5980 O   0  0  0  0  0  0  0  0  0  0  0  0
    9.2840    0.1783   -5.4196 C   0  0  0  0  0  0  0  0  0  0  0  0
    9.6419   -0.7981   -5.0707 H   0  0  0  0  0  0  0  0  0  0  0  0
    9.1202    0.1023   -6.4986 H   0  0  0  0  0  0  0  0  0  0  0  0
   10.0943    0.8959   -5.2498 H   0  0  0  0  0  0  0  0  0  0  0  0
   -2.3695   -0.7367   -1.6412 O   0  0  0  0  0  0  0  0  0  0  0  0
   -3.7565   -0.5736   -1.9402 C   0  0  0  0  0  0  0  0  0  0  0  0
   -4.2120   -1.5467   -1.7584 H   0  0  0  0  0  0  0  0  0  0  0  0
   -3.9051   -0.2912   -2.9882 H   0  0  0  0  0  0  0  0  0  0  0  0
   -4.2183    0.1732   -1.2851 H   0  0  0  0  0  0  0  0  0  0  0  0
  1  7  1  0  0  0  0
  2  1  1  0  0  0  0
  2  8  1  0  0  0  0
  3  2  2  0  0  0  0
  4  5  2  0  0  0  0
  4  3  1  0  0  0  0
  5  6  1  0  0  0  0
  6 31  1  0  0  0  0
  6  1  2  0  0  0  0
  9  4  1  0  0  0  0
 10  5  1  0  0  0  0
 11  3  1  0  0  0  0
 12 11  1  0  0  0  0
 13 18  2  0  0  0  0
 14 15  2  0  0  0  0
 14 13  1  0  0  0  0
 15 16  1  0  0  0  0
 16 21  1  0  0  0  0
 16 17  2  0  0  0  0
 17 22  1  0  0  0  0
 18 17  1  0  0  0  0
 18 23  1  0  0  0  0
 19 13  1  0  0  0  0
 20 14  1  0  0  0  0
 23 24  2  0  0  0  0
 23 25  1  0  0  0  0
 26 23  2  0  0  0  0
 27 30  1  0  0  0  0
 27 28  1  0  0  0  0
 27 15  1  0  0  0  0
 29 27  1  0  0  0  0
 32 33  1  0  0  0  0
 32 31  1  0  0  0  0
 32 35  1  0  0  0  0
 34 32  1  0  0  0  0
M  RAD  3  11   2  12   3  25   2
M  END
