Coordinates from ORCA-job p-CH3O-Ph-N2-X-OTs-B3LYPG-6-31G_dp-scan-d09-49-n400
 OpenBabel08281821023D

 35 35  0  0  0  0  0  0  0  0999 V2000
   -0.3238   -0.0967   -2.3544 C   0  0  0  0  0  0  0  0  0  0  0  0
    0.8011    0.4544   -1.7770 C   0  0  0  0  0  0  0  0  0  0  0  0
    0.6831    1.7559   -1.2387 C   0  0  0  0  0  0  0  0  0  0  0  0
   -0.5152    2.4895   -1.2834 C   0  0  0  0  0  0  0  0  0  0  0  0
   -1.6267    1.9234   -1.8824 C   0  0  0  0  0  0  0  0  0  0  0  0
   -1.5357    0.6224   -2.4217 C   0  0  0  0  0  0  0  0  0  0  0  0
   -0.2917   -1.0922   -2.7813 H   0  0  0  0  0  0  0  0  0  0  0  0
    1.7514   -0.0792   -1.7332 H   0  0  0  0  0  0  0  0  0  0  0  0
   -0.5597    3.4864   -0.8599 H   0  0  0  0  0  0  0  0  0  0  0  0
   -2.5497    2.4865   -1.9291 H   0  0  0  0  0  0  0  0  0  0  0  0
    1.7619    2.3477   -0.6282 N   0  0  0  0  0  0  0  0  0  0  0  0
    2.6641    2.7808   -0.1188 N   0  0  0  0  0  0  0  0  0  0  0  0
    6.9486    0.1004   -2.6773 C   0  0  0  0  0  0  0  0  0  0  0  0
    7.9416    0.1672   -3.6554 C   0  0  0  0  0  0  0  0  0  0  0  0
    7.7327    0.8468   -4.8691 C   0  0  0  0  0  0  0  0  0  0  0  0
    6.4947    1.4666   -5.1016 C   0  0  0  0  0  0  0  0  0  0  0  0
    5.4935    1.4118   -4.1352 C   0  0  0  0  0  0  0  0  0  0  0  0
    5.7389    0.7324   -2.9469 C   0  0  0  0  0  0  0  0  0  0  0  0
    7.1168   -0.4290   -1.7447 H   0  0  0  0  0  0  0  0  0  0  0  0
    8.8988   -0.3182   -3.4791 H   0  0  0  0  0  0  0  0  0  0  0  0
    6.3287    1.9859   -6.0431 H   0  0  0  0  0  0  0  0  0  0  0  0
    4.4454    1.7975   -4.0605 H   0  0  0  0  0  0  0  0  0  0  0  0
    4.2745    0.8225   -1.9221 S   0  0  0  0  0  0  0  0  0  0  0  0
    4.6085    1.5801   -0.6662 O   0  0  0  0  0  0  0  0  0  0  0  0
    3.7638   -0.5515   -1.6533 O   0  0  0  0  0  0  0  0  0  0  0  0
    3.3792    1.6200   -2.8379 O   0  0  0  0  0  0  0  0  0  0  0  0
    8.8395    0.9226   -5.8958 C   0  0  0  0  0  0  0  0  0  0  0  0
    9.5886    1.6754   -5.6184 H   0  0  0  0  0  0  0  0  0  0  0  0
    9.3652   -0.0333   -5.9923 H   0  0  0  0  0  0  0  0  0  0  0  0
    8.4523    1.1959   -6.8816 H   0  0  0  0  0  0  0  0  0  0  0  0
   -2.5536   -0.0177   -3.0187 O   0  0  0  0  0  0  0  0  0  0  0  0
   -3.8180    0.6346   -3.1503 C   0  0  0  0  0  0  0  0  0  0  0  0
   -4.4625   -0.0770   -3.6659 H   0  0  0  0  0  0  0  0  0  0  0  0
   -3.7304    1.5488   -3.7472 H   0  0  0  0  0  0  0  0  0  0  0  0
   -4.2454    0.8708   -2.1696 H   0  0  0  0  0  0  0  0  0  0  0  0
  1  2  1  0  0  0  0
  2  8  1  0  0  0  0
  2  3  2  0  0  0  0
  3 11  1  0  0  0  0
  4  3  1  0  0  0  0
  4  9  1  0  0  0  0
  5  4  2  0  0  0  0
  6  1  2  0  0  0  0
  6  5  1  0  0  0  0
  7  1  1  0  0  0  0
 10  5  1  0  0  0  0
 11 12  1  0  0  0  0
 13 19  1  0  0  0  0
 14 20  1  0  0  0  0
 14 13  2  0  0  0  0
 15 14  1  0  0  0  0
 16 15  2  0  0  0  0
 16 17  1  0  0  0  0
 17 22  1  0  0  0  0
 17 18  2  0  0  0  0
 18 13  1  0  0  0  0
 18 23  1  0  0  0  0
 21 16  1  0  0  0  0
 23 25  2  0  0  0  0
 23 24  1  0  0  0  0
 26 23  2  0  0  0  0
 27 28  1  0  0  0  0
 27 15  1  0  0  0  0
 29 27  1  0  0  0  0
 30 27  1  0  0  0  0
 31  6  1  0  0  0  0
 32 31  1  0  0  0  0
 32 35  1  0  0  0  0
 33 32  1  0  0  0  0
 34 32  1  0  0  0  0
M  RAD  3  11   2  12   3  24   2
M  END
