Coordinates from ORCA-job p-CH3O-Ph-N2-X-OTs-B3LYPG-6-31G_dp-scan-d09-49-n400
 OpenBabel08281821023D

 35 35  0  0  0  0  0  0  0  0999 V2000
   -0.3117   -0.1259   -1.9774 C   0  0  0  0  0  0  0  0  0  0  0  0
    0.7673    0.6936   -1.7181 C   0  0  0  0  0  0  0  0  0  0  0  0
    0.5096    2.0733   -1.5523 C   0  0  0  0  0  0  0  0  0  0  0  0
   -0.7823    2.6190   -1.6470 C   0  0  0  0  0  0  0  0  0  0  0  0
   -1.8479    1.7802   -1.9216 C   0  0  0  0  0  0  0  0  0  0  0  0
   -1.6163    0.3985   -2.0887 C   0  0  0  0  0  0  0  0  0  0  0  0
   -0.1719   -1.1923   -2.1142 H   0  0  0  0  0  0  0  0  0  0  0  0
    1.7835    0.3053   -1.6434 H   0  0  0  0  0  0  0  0  0  0  0  0
   -0.9348    3.6842   -1.5112 H   0  0  0  0  0  0  0  0  0  0  0  0
   -2.8437    2.1964   -2.0041 H   0  0  0  0  0  0  0  0  0  0  0  0
    1.5397    2.9376   -1.2703 N   0  0  0  0  0  0  0  0  0  0  0  0
    2.4247    3.5856   -1.0253 N   0  0  0  0  0  0  0  0  0  0  0  0
    6.0021   -0.1772   -3.7092 C   0  0  0  0  0  0  0  0  0  0  0  0
    7.1569   -0.3642   -4.4671 C   0  0  0  0  0  0  0  0  0  0  0  0
    7.9874    0.7145   -4.8011 C   0  0  0  0  0  0  0  0  0  0  0  0
    7.6273    1.9933   -4.3538 C   0  0  0  0  0  0  0  0  0  0  0  0
    6.4743    2.1949   -3.5968 C   0  0  0  0  0  0  0  0  0  0  0  0
    5.6607    1.1060   -3.2794 C   0  0  0  0  0  0  0  0  0  0  0  0
    5.3686   -1.0136   -3.4350 H   0  0  0  0  0  0  0  0  0  0  0  0
    7.4204   -1.3649   -4.8018 H   0  0  0  0  0  0  0  0  0  0  0  0
    8.2615    2.8423   -4.5988 H   0  0  0  0  0  0  0  0  0  0  0  0
    6.2118    3.1839   -3.2371 H   0  0  0  0  0  0  0  0  0  0  0  0
    4.1366    1.3557   -2.3615 S   0  0  0  0  0  0  0  0  0  0  0  0
    4.4345    2.4822   -1.4033 O   0  0  0  0  0  0  0  0  0  0  0  0
    3.8461    0.0618   -1.6786 O   0  0  0  0  0  0  0  0  0  0  0  0
    3.0725    1.7410   -3.3336 O   0  0  0  0  0  0  0  0  0  0  0  0
    9.2560    0.4975   -5.5917 C   0  0  0  0  0  0  0  0  0  0  0  0
   10.0926    0.2311   -4.9332 H   0  0  0  0  0  0  0  0  0  0  0  0
    9.1425   -0.3155   -6.3159 H   0  0  0  0  0  0  0  0  0  0  0  0
    9.5481    1.3998   -6.1372 H   0  0  0  0  0  0  0  0  0  0  0  0
   -2.5790   -0.5000   -2.3533 O   0  0  0  0  0  0  0  0  0  0  0  0
   -3.9321   -0.0643   -2.4906 C   0  0  0  0  0  0  0  0  0  0  0  0
   -4.5107   -0.9646   -2.6941 H   0  0  0  0  0  0  0  0  0  0  0  0
   -4.0397    0.6359   -3.3265 H   0  0  0  0  0  0  0  0  0  0  0  0
   -4.2945    0.4006   -1.5670 H   0  0  0  0  0  0  0  0  0  0  0  0
  1  2  1  0  0  0  0
  2  8  1  0  0  0  0
  2  3  2  0  0  0  0
  3 11  1  0  0  0  0
  4  3  1  0  0  0  0
  4  9  1  0  0  0  0
  5  4  2  0  0  0  0
  6  1  2  0  0  0  0
  6  5  1  0  0  0  0
  7  1  1  0  0  0  0
 10  5  1  0  0  0  0
 11 12  1  0  0  0  0
 13 19  1  0  0  0  0
 13 18  2  0  0  0  0
 14 13  1  0  0  0  0
 15 14  2  0  0  0  0
 15 16  1  0  0  0  0
 16 17  2  0  0  0  0
 17 18  1  0  0  0  0
 17 22  1  0  0  0  0
 18 23  1  0  0  0  0
 20 14  1  0  0  0  0
 21 16  1  0  0  0  0
 23 25  2  0  0  0  0
 23 24  1  0  0  0  0
 26 23  2  0  0  0  0
 27 28  1  0  0  0  0
 27 15  1  0  0  0  0
 29 27  1  0  0  0  0
 30 27  1  0  0  0  0
 31  6  1  0  0  0  0
 32 31  1  0  0  0  0
 32 35  1  0  0  0  0
 33 32  1  0  0  0  0
 34 32  1  0  0  0  0
M  RAD  3  11   2  12   3  24   2
M  END
