Coordinates from ORCA-job p-CH3O-Ph-N2-X-OTs-B3LYPG-6-31G_dp-scan-d09-49-n400
 OpenBabel08281821023D

 35 35  0  0  0  0  0  0  0  0999 V2000
   -0.3957   -0.0925   -2.3574 C   0  0  0  0  0  0  0  0  0  0  0  0
    0.7456    0.4638   -1.8179 C   0  0  0  0  0  0  0  0  0  0  0  0
    0.6300    1.7472   -1.2367 C   0  0  0  0  0  0  0  0  0  0  0  0
   -0.5830    2.4564   -1.2020 C   0  0  0  0  0  0  0  0  0  0  0  0
   -1.7117    1.8858   -1.7634 C   0  0  0  0  0  0  0  0  0  0  0  0
   -1.6225    0.6035   -2.3454 C   0  0  0  0  0  0  0  0  0  0  0  0
   -0.3654   -1.0747   -2.8143 H   0  0  0  0  0  0  0  0  0  0  0  0
    1.7055   -0.0535   -1.8357 H   0  0  0  0  0  0  0  0  0  0  0  0
   -0.6254    3.4396   -0.7472 H   0  0  0  0  0  0  0  0  0  0  0  0
   -2.6464    2.4311   -1.7477 H   0  0  0  0  0  0  0  0  0  0  0  0
    1.7260    2.3445   -0.6627 N   0  0  0  0  0  0  0  0  0  0  0  0
    2.6625    2.7627   -0.2023 N   0  0  0  0  0  0  0  0  0  0  0  0
    6.8239    0.1291   -2.7664 C   0  0  0  0  0  0  0  0  0  0  0  0
    7.9234    0.1429   -3.6221 C   0  0  0  0  0  0  0  0  0  0  0  0
    7.8894    0.8376   -4.8435 C   0  0  0  0  0  0  0  0  0  0  0  0
    6.7176    1.5206   -5.1959 C   0  0  0  0  0  0  0  0  0  0  0  0
    5.6111    1.5162   -4.3472 C   0  0  0  0  0  0  0  0  0  0  0  0
    5.6744    0.8230   -3.1435 C   0  0  0  0  0  0  0  0  0  0  0  0
    6.8564   -0.4131   -1.8270 H   0  0  0  0  0  0  0  0  0  0  0  0
    8.8260   -0.3955   -3.3415 H   0  0  0  0  0  0  0  0  0  0  0  0
    6.6751    2.0550   -6.1419 H   0  0  0  0  0  0  0  0  0  0  0  0
    4.6596    2.0095   -4.5368 H   0  0  0  0  0  0  0  0  0  0  0  0
    4.1880    0.8948   -2.1527 S   0  0  0  0  0  0  0  0  0  0  0  0
    4.5516    1.6120   -0.8760 O   0  0  0  0  0  0  0  0  0  0  0  0
    3.7324   -0.5034   -1.9079 O   0  0  0  0  0  0  0  0  0  0  0  0
    3.2408    1.6923   -2.9896 O   0  0  0  0  0  0  0  0  0  0  0  0
    9.1016    0.8572   -5.7458 C   0  0  0  0  0  0  0  0  0  0  0  0
    9.8813    1.5204   -5.3503 H   0  0  0  0  0  0  0  0  0  0  0  0
    9.5457   -0.1390   -5.8423 H   0  0  0  0  0  0  0  0  0  0  0  0
    8.8474    1.2118   -6.7488 H   0  0  0  0  0  0  0  0  0  0  0  0
   -2.6564   -0.0395   -2.9124 O   0  0  0  0  0  0  0  0  0  0  0  0
   -3.9374    0.5907   -2.9615 C   0  0  0  0  0  0  0  0  0  0  0  0
   -4.5934   -0.1175   -3.4671 H   0  0  0  0  0  0  0  0  0  0  0  0
   -3.8971    1.5243   -3.5330 H   0  0  0  0  0  0  0  0  0  0  0  0
   -4.3206    0.7884   -1.9543 H   0  0  0  0  0  0  0  0  0  0  0  0
  1  6  2  0  0  0  0
  1  2  1  0  0  0  0
  2  3  2  0  0  0  0
  3  4  1  0  0  0  0
  3 11  1  0  0  0  0
  4  9  1  0  0  0  0
  5 10  1  0  0  0  0
  5  4  2  0  0  0  0
  6  5  1  0  0  0  0
  7  1  1  0  0  0  0
  8  2  1  0  0  0  0
 11 12  1  0  0  0  0
 13 19  1  0  0  0  0
 14 20  1  0  0  0  0
 14 13  2  0  0  0  0
 15 14  1  0  0  0  0
 16 15  2  0  0  0  0
 16 17  1  0  0  0  0
 17 18  2  0  0  0  0
 18 13  1  0  0  0  0
 18 23  1  0  0  0  0
 21 16  1  0  0  0  0
 22 17  1  0  0  0  0
 23 25  2  0  0  0  0
 23 24  1  0  0  0  0
 26 23  2  0  0  0  0
 27 28  1  0  0  0  0
 27 15  1  0  0  0  0
 29 27  1  0  0  0  0
 30 27  1  0  0  0  0
 31  6  1  0  0  0  0
 32 31  1  0  0  0  0
 32 35  1  0  0  0  0
 33 32  1  0  0  0  0
 34 32  1  0  0  0  0
M  RAD  3  11   2  12   3  24   2
M  END
