Coordinates from ORCA-job p-CH3O-Ph-N2-X-OTs-B3LYPG-6-31G_dp-scan-d09-49-n400
 OpenBabel08281821023D

 35 35  0  0  0  0  0  0  0  0999 V2000
   -0.3687   -0.1191   -2.1854 C   0  0  0  0  0  0  0  0  0  0  0  0
    0.7451    0.5965   -1.7967 C   0  0  0  0  0  0  0  0  0  0  0  0
    0.5474    1.9338   -1.3850 C   0  0  0  0  0  0  0  0  0  0  0  0
   -0.7208    2.5396   -1.3654 C   0  0  0  0  0  0  0  0  0  0  0  0
   -1.8222    1.8077   -1.7733 C   0  0  0  0  0  0  0  0  0  0  0  0
   -1.6499    0.4702   -2.1879 C   0  0  0  0  0  0  0  0  0  0  0  0
   -0.2747   -1.1486   -2.5109 H   0  0  0  0  0  0  0  0  0  0  0  0
    1.7444    0.1606   -1.8036 H   0  0  0  0  0  0  0  0  0  0  0  0
   -0.8276    3.5684   -1.0403 H   0  0  0  0  0  0  0  0  0  0  0  0
   -2.8001    2.2717   -1.7673 H   0  0  0  0  0  0  0  0  0  0  0  0
    1.6146    2.6916   -0.9669 N   0  0  0  0  0  0  0  0  0  0  0  0
    2.5346    3.2443   -0.6299 N   0  0  0  0  0  0  0  0  0  0  0  0
    6.3562   -0.1565   -3.2568 C   0  0  0  0  0  0  0  0  0  0  0  0
    7.5319   -0.2927   -3.9925 C   0  0  0  0  0  0  0  0  0  0  0  0
    8.0062    0.7508   -4.8004 C   0  0  0  0  0  0  0  0  0  0  0  0
    7.2633    1.9382   -4.8544 C   0  0  0  0  0  0  0  0  0  0  0  0
    6.0852    2.0875   -4.1238 C   0  0  0  0  0  0  0  0  0  0  0  0
    5.6333    1.0359   -3.3258 C   0  0  0  0  0  0  0  0  0  0  0  0
    5.9817   -0.9628   -2.6360 H   0  0  0  0  0  0  0  0  0  0  0  0
    8.0906   -1.2246   -3.9392 H   0  0  0  0  0  0  0  0  0  0  0  0
    7.6120    2.7577   -5.4781 H   0  0  0  0  0  0  0  0  0  0  0  0
    5.5188    3.0113   -4.1811 H   0  0  0  0  0  0  0  0  0  0  0  0
    4.1341    1.2239   -2.3536 S   0  0  0  0  0  0  0  0  0  0  0  0
    4.4876    2.1912   -1.2496 O   0  0  0  0  0  0  0  0  0  0  0  0
    3.7949   -0.1358   -1.8429 O   0  0  0  0  0  0  0  0  0  0  0  0
    3.0878    1.7903   -3.2513 O   0  0  0  0  0  0  0  0  0  0  0  0
    9.2873    0.5945   -5.5857 C   0  0  0  0  0  0  0  0  0  0  0  0
   10.1510    0.4813   -4.9198 H   0  0  0  0  0  0  0  0  0  0  0  0
    9.2579   -0.2950   -6.2257 H   0  0  0  0  0  0  0  0  0  0  0  0
    9.4732    1.4615   -6.2261 H   0  0  0  0  0  0  0  0  0  0  0  0
   -2.6508   -0.3249   -2.6007 O   0  0  0  0  0  0  0  0  0  0  0  0
   -3.9824    0.1885   -2.6547 C   0  0  0  0  0  0  0  0  0  0  0  0
   -4.5972   -0.6294   -3.0297 H   0  0  0  0  0  0  0  0  0  0  0  0
   -4.0502    1.0409   -3.3397 H   0  0  0  0  0  0  0  0  0  0  0  0
   -4.3344    0.4833   -1.6601 H   0  0  0  0  0  0  0  0  0  0  0  0
  1  2  1  0  0  0  0
  2  3  2  0  0  0  0
  3  4  1  0  0  0  0
  3 11  1  0  0  0  0
  4  9  1  0  0  0  0
  5 10  1  0  0  0  0
  5  4  2  0  0  0  0
  6  1  2  0  0  0  0
  6  5  1  0  0  0  0
  7  1  1  0  0  0  0
  8  2  1  0  0  0  0
 11 12  1  0  0  0  0
 13 19  1  0  0  0  0
 14 20  1  0  0  0  0
 14 13  2  0  0  0  0
 15 14  1  0  0  0  0
 16 15  2  0  0  0  0
 16 17  1  0  0  0  0
 17 18  2  0  0  0  0
 18 13  1  0  0  0  0
 18 23  1  0  0  0  0
 21 16  1  0  0  0  0
 22 17  1  0  0  0  0
 23 25  2  0  0  0  0
 23 24  1  0  0  0  0
 26 23  2  0  0  0  0
 27 28  1  0  0  0  0
 27 15  1  0  0  0  0
 29 27  1  0  0  0  0
 30 27  1  0  0  0  0
 31  6  1  0  0  0  0
 32 31  1  0  0  0  0
 32 35  1  0  0  0  0
 33 32  1  0  0  0  0
 34 32  1  0  0  0  0
M  RAD  3  11   2  12   3  24   2
M  END
