Coordinates from ORCA-job p-CH3O-Ph-N2-X-OTs-B3LYPG-6-31G_dp-scan-d09-49-n400
 OpenBabel08281821023D

 35 35  0  0  0  0  0  0  0  0999 V2000
   -0.3678   -0.1193   -2.1748 C   0  0  0  0  0  0  0  0  0  0  0  0
    0.7433    0.6075   -1.7996 C   0  0  0  0  0  0  0  0  0  0  0  0
    0.5394    1.9482   -1.4027 C   0  0  0  0  0  0  0  0  0  0  0  0
   -0.7325    2.5464   -1.3839 C   0  0  0  0  0  0  0  0  0  0  0  0
   -1.8312    1.8031   -1.7779 C   0  0  0  0  0  0  0  0  0  0  0  0
   -1.6526    0.4620   -2.1780 C   0  0  0  0  0  0  0  0  0  0  0  0
   -0.2688   -1.1519   -2.4888 H   0  0  0  0  0  0  0  0  0  0  0  0
    1.7453    0.1776   -1.8056 H   0  0  0  0  0  0  0  0  0  0  0  0
   -0.8442    3.5783   -1.0700 H   0  0  0  0  0  0  0  0  0  0  0  0
   -2.8120    2.2611   -1.7723 H   0  0  0  0  0  0  0  0  0  0  0  0
    1.6038    2.7174   -0.9982 N   0  0  0  0  0  0  0  0  0  0  0  0
    2.5212    3.2800   -0.6710 N   0  0  0  0  0  0  0  0  0  0  0  0
    6.3254   -0.1682   -3.2983 C   0  0  0  0  0  0  0  0  0  0  0  0
    7.5010   -0.3129   -4.0327 C   0  0  0  0  0  0  0  0  0  0  0  0
    8.0121    0.7446   -4.7984 C   0  0  0  0  0  0  0  0  0  0  0  0
    7.3066    1.9558   -4.8116 C   0  0  0  0  0  0  0  0  0  0  0  0
    6.1291    2.1141   -4.0822 C   0  0  0  0  0  0  0  0  0  0  0  0
    5.6396    1.0473   -3.3264 C   0  0  0  0  0  0  0  0  0  0  0  0
    5.9236   -0.9840   -2.7079 H   0  0  0  0  0  0  0  0  0  0  0  0
    8.0309   -1.2627   -4.0110 H   0  0  0  0  0  0  0  0  0  0  0  0
    7.6848    2.7869   -5.4017 H   0  0  0  0  0  0  0  0  0  0  0  0
    5.5934    3.0575   -4.1066 H   0  0  0  0  0  0  0  0  0  0  0  0
    4.1346    1.2420   -2.3639 S   0  0  0  0  0  0  0  0  0  0  0  0
    4.4812    2.2235   -1.2704 O   0  0  0  0  0  0  0  0  0  0  0  0
    3.7958   -0.1126   -1.8397 O   0  0  0  0  0  0  0  0  0  0  0  0
    3.0901    1.7955   -3.2720 O   0  0  0  0  0  0  0  0  0  0  0  0
    9.2941    0.5792   -5.5803 C   0  0  0  0  0  0  0  0  0  0  0  0
   10.1523    0.4391   -4.9123 H   0  0  0  0  0  0  0  0  0  0  0  0
    9.2522   -0.2982   -6.2359 H   0  0  0  0  0  0  0  0  0  0  0  0
    9.4988    1.4540   -6.2041 H   0  0  0  0  0  0  0  0  0  0  0  0
   -2.6505   -0.3440   -2.5768 O   0  0  0  0  0  0  0  0  0  0  0  0
   -3.9855    0.1606   -2.6303 C   0  0  0  0  0  0  0  0  0  0  0  0
   -4.5968   -0.6651   -2.9937 H   0  0  0  0  0  0  0  0  0  0  0  0
   -4.0616    1.0051   -3.3241 H   0  0  0  0  0  0  0  0  0  0  0  0
   -4.3349    0.4639   -1.6373 H   0  0  0  0  0  0  0  0  0  0  0  0
  1  2  1  0  0  0  0
  2  3  2  0  0  0  0
  3  4  1  0  0  0  0
  3 11  1  0  0  0  0
  4  9  1  0  0  0  0
  5 10  1  0  0  0  0
  5  4  2  0  0  0  0
  6  1  2  0  0  0  0
  6  5  1  0  0  0  0
  7  1  1  0  0  0  0
  8  2  1  0  0  0  0
 11 12  1  0  0  0  0
 13 19  1  0  0  0  0
 14 20  1  0  0  0  0
 14 13  2  0  0  0  0
 15 14  1  0  0  0  0
 16 15  2  0  0  0  0
 16 17  1  0  0  0  0
 17 18  2  0  0  0  0
 18 13  1  0  0  0  0
 18 23  1  0  0  0  0
 21 16  1  0  0  0  0
 22 17  1  0  0  0  0
 23 25  2  0  0  0  0
 23 24  1  0  0  0  0
 26 23  2  0  0  0  0
 27 28  1  0  0  0  0
 27 15  1  0  0  0  0
 29 27  1  0  0  0  0
 30 27  1  0  0  0  0
 31  6  1  0  0  0  0
 32 31  1  0  0  0  0
 32 35  1  0  0  0  0
 33 32  1  0  0  0  0
 34 32  1  0  0  0  0
M  RAD  3  11   2  12   3  24   2
M  END
