Coordinates from ORCA-job p-CH3O-Ph-N2-X-OTs-B3LYPG-6-31G_dp-scan-d09-49-n400
 OpenBabel08281821023D

 35 35  0  0  0  0  0  0  0  0999 V2000
   -0.3097   -0.1255   -1.9632 C   0  0  0  0  0  0  0  0  0  0  0  0
    0.7678    0.6987   -1.7125 C   0  0  0  0  0  0  0  0  0  0  0  0
    0.5077    2.0797   -1.5625 C   0  0  0  0  0  0  0  0  0  0  0  0
   -0.7850    2.6223   -1.6646 C   0  0  0  0  0  0  0  0  0  0  0  0
   -1.8490    1.7787   -1.9306 C   0  0  0  0  0  0  0  0  0  0  0  0
   -1.6150    0.3955   -2.0815 C   0  0  0  0  0  0  0  0  0  0  0  0
   -0.1680   -1.1931   -2.0878 H   0  0  0  0  0  0  0  0  0  0  0  0
    1.7846    0.3127   -1.6331 H   0  0  0  0  0  0  0  0  0  0  0  0
   -0.9394    3.6887   -1.5413 H   0  0  0  0  0  0  0  0  0  0  0  0
   -2.8453    2.1923   -2.0189 H   0  0  0  0  0  0  0  0  0  0  0  0
    1.5361    2.9489   -1.2893 N   0  0  0  0  0  0  0  0  0  0  0  0
    2.4194    3.6011   -1.0500 N   0  0  0  0  0  0  0  0  0  0  0  0
    5.9857   -0.1707   -3.7340 C   0  0  0  0  0  0  0  0  0  0  0  0
    7.1406   -0.3590   -4.4912 C   0  0  0  0  0  0  0  0  0  0  0  0
    7.9879    0.7144   -4.8000 C   0  0  0  0  0  0  0  0  0  0  0  0
    7.6445    1.9887   -4.3279 C   0  0  0  0  0  0  0  0  0  0  0  0
    6.4912    2.1915   -3.5713 C   0  0  0  0  0  0  0  0  0  0  0  0
    5.6606    1.1084   -3.2795 C   0  0  0  0  0  0  0  0  0  0  0  0
    5.3398   -1.0039   -3.4792 H   0  0  0  0  0  0  0  0  0  0  0  0
    7.3910   -1.3564   -4.8451 H   0  0  0  0  0  0  0  0  0  0  0  0
    8.2919    2.8332   -4.5528 H   0  0  0  0  0  0  0  0  0  0  0  0
    6.2416    3.1766   -3.1921 H   0  0  0  0  0  0  0  0  0  0  0  0
    4.1357    1.3595   -2.3631 S   0  0  0  0  0  0  0  0  0  0  0  0
    4.4302    2.4922   -1.4114 O   0  0  0  0  0  0  0  0  0  0  0  0
    3.8486    0.0686   -1.6732 O   0  0  0  0  0  0  0  0  0  0  0  0
    3.0703    1.7355   -3.3377 O   0  0  0  0  0  0  0  0  0  0  0  0
    9.2564    0.4951   -5.5902 C   0  0  0  0  0  0  0  0  0  0  0  0
   10.0860    0.2012   -4.9344 H   0  0  0  0  0  0  0  0  0  0  0  0
    9.1334   -0.2998   -6.3327 H   0  0  0  0  0  0  0  0  0  0  0  0
    9.5648    1.4045   -6.1144 H   0  0  0  0  0  0  0  0  0  0  0  0
   -2.5761   -0.5075   -2.3365 O   0  0  0  0  0  0  0  0  0  0  0  0
   -3.9298   -0.0756   -2.4797 C   0  0  0  0  0  0  0  0  0  0  0  0
   -4.5069   -0.9792   -2.6728 H   0  0  0  0  0  0  0  0  0  0  0  0
   -4.0379    0.6144   -3.3240 H   0  0  0  0  0  0  0  0  0  0  0  0
   -4.2934    0.3997   -1.5620 H   0  0  0  0  0  0  0  0  0  0  0  0
  1  2  1  0  0  0  0
  2  8  1  0  0  0  0
  2  3  2  0  0  0  0
  3 11  1  0  0  0  0
  4  3  1  0  0  0  0
  4  9  1  0  0  0  0
  5  4  2  0  0  0  0
  6  1  2  0  0  0  0
  6  5  1  0  0  0  0
  7  1  1  0  0  0  0
 10  5  1  0  0  0  0
 11 12  1  0  0  0  0
 13 19  1  0  0  0  0
 13 18  2  0  0  0  0
 14 13  1  0  0  0  0
 15 14  2  0  0  0  0
 15 16  1  0  0  0  0
 16 17  2  0  0  0  0
 17 18  1  0  0  0  0
 17 22  1  0  0  0  0
 18 23  1  0  0  0  0
 20 14  1  0  0  0  0
 21 16  1  0  0  0  0
 23 25  2  0  0  0  0
 23 24  1  0  0  0  0
 26 23  2  0  0  0  0
 27 28  1  0  0  0  0
 27 15  1  0  0  0  0
 29 27  1  0  0  0  0
 30 27  1  0  0  0  0
 31  6  1  0  0  0  0
 32 31  1  0  0  0  0
 32 35  1  0  0  0  0
 33 32  1  0  0  0  0
 34 32  1  0  0  0  0
M  RAD  3  11   2  12   3  24   2
M  END
