Coordinates from ORCA-job p-CH3O-Ph-N2-X-OTs-B3LYPG-6-31G_dp-scan-d09-49-n400
 OpenBabel08281821023D

 35 35  0  0  0  0  0  0  0  0999 V2000
   -0.4107   -0.0881   -2.3658 C   0  0  0  0  0  0  0  0  0  0  0  0
    0.7338    0.4721   -1.8371 C   0  0  0  0  0  0  0  0  0  0  0  0
    0.6171    1.7498   -1.2438 C   0  0  0  0  0  0  0  0  0  0  0  0
   -0.6005    2.4496   -1.1864 C   0  0  0  0  0  0  0  0  0  0  0  0
   -1.7327    1.8754   -1.7370 C   0  0  0  0  0  0  0  0  0  0  0  0
   -1.6422    0.5988   -2.3310 C   0  0  0  0  0  0  0  0  0  0  0  0
   -0.3796   -1.0662   -2.8312 H   0  0  0  0  0  0  0  0  0  0  0  0
    1.6970   -0.0381   -1.8720 H   0  0  0  0  0  0  0  0  0  0  0  0
   -0.6438    3.4286   -0.7228 H   0  0  0  0  0  0  0  0  0  0  0  0
   -2.6711    2.4135   -1.7036 H   0  0  0  0  0  0  0  0  0  0  0  0
    1.7164    2.3507   -0.6799 N   0  0  0  0  0  0  0  0  0  0  0  0
    2.6575    2.7702   -0.2300 N   0  0  0  0  0  0  0  0  0  0  0  0
    6.7997    0.1299   -2.7888 C   0  0  0  0  0  0  0  0  0  0  0  0
    7.9185    0.1310   -3.6185 C   0  0  0  0  0  0  0  0  0  0  0  0
    7.9230    0.8333   -4.8358 C   0  0  0  0  0  0  0  0  0  0  0  0
    6.7699    1.5359   -5.2086 C   0  0  0  0  0  0  0  0  0  0  0  0
    5.6434    1.5444   -4.3855 C   0  0  0  0  0  0  0  0  0  0  0  0
    5.6675    0.8435   -3.1845 C   0  0  0  0  0  0  0  0  0  0  0  0
    6.8022   -0.4187   -1.8526 H   0  0  0  0  0  0  0  0  0  0  0  0
    8.8057   -0.4232   -3.3204 H   0  0  0  0  0  0  0  0  0  0  0  0
    6.7558    2.0768   -6.1518 H   0  0  0  0  0  0  0  0  0  0  0  0
    4.7137    2.0600   -4.6122 H   0  0  0  0  0  0  0  0  0  0  0  0
    4.1747    0.9167   -2.2016 S   0  0  0  0  0  0  0  0  0  0  0  0
    4.5411    1.6287   -0.9221 O   0  0  0  0  0  0  0  0  0  0  0  0
    3.7238   -0.4838   -1.9608 O   0  0  0  0  0  0  0  0  0  0  0  0
    3.2214    1.7153   -3.0284 O   0  0  0  0  0  0  0  0  0  0  0  0
    9.1546    0.8384   -5.7118 C   0  0  0  0  0  0  0  0  0  0  0  0
    9.9460    1.4653   -5.2821 H   0  0  0  0  0  0  0  0  0  0  0  0
    9.5692   -0.1687   -5.8260 H   0  0  0  0  0  0  0  0  0  0  0  0
    8.9332    1.2269   -6.7098 H   0  0  0  0  0  0  0  0  0  0  0  0
   -2.6793   -0.0472   -2.8891 O   0  0  0  0  0  0  0  0  0  0  0  0
   -3.9655    0.5737   -2.9144 C   0  0  0  0  0  0  0  0  0  0  0  0
   -4.6234   -0.1350   -3.4168 H   0  0  0  0  0  0  0  0  0  0  0  0
   -3.9405    1.5125   -3.4782 H   0  0  0  0  0  0  0  0  0  0  0  0
   -4.3357    0.7597   -1.9001 H   0  0  0  0  0  0  0  0  0  0  0  0
  1  6  2  0  0  0  0
  1  2  1  0  0  0  0
  2  3  2  0  0  0  0
  3  4  1  0  0  0  0
  3 11  1  0  0  0  0
  4  9  1  0  0  0  0
  5 10  1  0  0  0  0
  5  4  2  0  0  0  0
  6  5  1  0  0  0  0
  7  1  1  0  0  0  0
  8  2  1  0  0  0  0
 11 12  1  0  0  0  0
 13 19  1  0  0  0  0
 14 20  1  0  0  0  0
 14 13  2  0  0  0  0
 15 14  1  0  0  0  0
 16 15  2  0  0  0  0
 16 17  1  0  0  0  0
 17 18  2  0  0  0  0
 18 13  1  0  0  0  0
 18 23  1  0  0  0  0
 21 16  1  0  0  0  0
 22 17  1  0  0  0  0
 23 25  2  0  0  0  0
 23 24  1  0  0  0  0
 26 23  2  0  0  0  0
 27 28  1  0  0  0  0
 27 15  1  0  0  0  0
 29 27  1  0  0  0  0
 30 27  1  0  0  0  0
 31  6  1  0  0  0  0
 32 31  1  0  0  0  0
 32 35  1  0  0  0  0
 33 32  1  0  0  0  0
 34 32  1  0  0  0  0
M  RAD  3  11   2  12   3  24   2
M  END
