Coordinates from ORCA-job p-CH3O-Ph-N2-X-OTs-B3LYPG-6-31G_dp-scan-d09-49-n400
 OpenBabel08281821023D

 35 35  0  0  0  0  0  0  0  0999 V2000
   -0.3746   -0.0924   -2.3566 C   0  0  0  0  0  0  0  0  0  0  0  0
    0.7621    0.4619   -1.8056 C   0  0  0  0  0  0  0  0  0  0  0  0
    0.6465    1.7519   -1.2394 C   0  0  0  0  0  0  0  0  0  0  0  0
   -0.5617    2.4701   -1.2310 C   0  0  0  0  0  0  0  0  0  0  0  0
   -1.6855    1.9014   -1.8040 C   0  0  0  0  0  0  0  0  0  0  0  0
   -1.5965    0.6123   -2.3708 C   0  0  0  0  0  0  0  0  0  0  0  0
   -0.3443   -1.0793   -2.8029 H   0  0  0  0  0  0  0  0  0  0  0  0
    1.7189   -0.0616   -1.8039 H   0  0  0  0  0  0  0  0  0  0  0  0
   -0.6042    3.4583   -0.7872 H   0  0  0  0  0  0  0  0  0  0  0  0
   -2.6164    2.4534   -1.8092 H   0  0  0  0  0  0  0  0  0  0  0  0
    1.7377    2.3471   -0.6543 N   0  0  0  0  0  0  0  0  0  0  0  0
    2.6650    2.7679   -0.1787 N   0  0  0  0  0  0  0  0  0  0  0  0
    6.8743    0.1156   -2.7303 C   0  0  0  0  0  0  0  0  0  0  0  0
    7.9375    0.1523   -3.6315 C   0  0  0  0  0  0  0  0  0  0  0  0
    7.8387    0.8418   -4.8527 C   0  0  0  0  0  0  0  0  0  0  0  0
    6.6394    1.4983   -5.1639 C   0  0  0  0  0  0  0  0  0  0  0  0
    5.5700    1.4711   -4.2711 C   0  0  0  0  0  0  0  0  0  0  0  0
    5.6998    0.7834   -3.0701 C   0  0  0  0  0  0  0  0  0  0  0  0
    6.9572   -0.4221   -1.7912 H   0  0  0  0  0  0  0  0  0  0  0  0
    8.8631   -0.3643   -3.3874 H   0  0  0  0  0  0  0  0  0  0  0  0
    6.5502    2.0273   -6.1099 H   0  0  0  0  0  0  0  0  0  0  0  0
    4.5802    1.9250   -4.3756 H   0  0  0  0  0  0  0  0  0  0  0  0
    4.2182    0.8609   -2.0741 S   0  0  0  0  0  0  0  0  0  0  0  0
    4.5680    1.5876   -0.8004 O   0  0  0  0  0  0  0  0  0  0  0  0
    3.7408   -0.5291   -1.8255 O   0  0  0  0  0  0  0  0  0  0  0  0
    3.2966    1.6626   -2.9412 O   0  0  0  0  0  0  0  0  0  0  0  0
    9.0157    0.8873   -5.7997 C   0  0  0  0  0  0  0  0  0  0  0  0
    9.7734    1.6041   -5.4582 H   0  0  0  0  0  0  0  0  0  0  0  0
    9.5073   -0.0882   -5.8761 H   0  0  0  0  0  0  0  0  0  0  0  0
    8.7090    1.1905   -6.8049 H   0  0  0  0  0  0  0  0  0  0  0  0
   -2.6260   -0.0296   -2.9469 O   0  0  0  0  0  0  0  0  0  0  0  0
   -3.9014    0.6092   -3.0239 C   0  0  0  0  0  0  0  0  0  0  0  0
   -4.5543   -0.1001   -3.5321 H   0  0  0  0  0  0  0  0  0  0  0  0
   -3.8449    1.5360   -3.6049 H   0  0  0  0  0  0  0  0  0  0  0  0
   -4.2993    0.8209   -2.0252 H   0  0  0  0  0  0  0  0  0  0  0  0
  1  2  1  0  0  0  0
  2  8  1  0  0  0  0
  2  3  2  0  0  0  0
  3  4  1  0  0  0  0
  3 11  1  0  0  0  0
  4  9  1  0  0  0  0
  5  4  2  0  0  0  0
  6  1  2  0  0  0  0
  6  5  1  0  0  0  0
  7  1  1  0  0  0  0
 10  5  1  0  0  0  0
 11 12  1  0  0  0  0
 13 19  1  0  0  0  0
 14 20  1  0  0  0  0
 14 13  2  0  0  0  0
 15 14  1  0  0  0  0
 16 15  2  0  0  0  0
 16 17  1  0  0  0  0
 17 18  2  0  0  0  0
 18 13  1  0  0  0  0
 18 23  1  0  0  0  0
 21 16  1  0  0  0  0
 22 17  1  0  0  0  0
 23 25  2  0  0  0  0
 23 24  1  0  0  0  0
 26 23  2  0  0  0  0
 27 28  1  0  0  0  0
 27 15  1  0  0  0  0
 29 27  1  0  0  0  0
 30 27  1  0  0  0  0
 31  6  1  0  0  0  0
 32 31  1  0  0  0  0
 32 35  1  0  0  0  0
 33 32  1  0  0  0  0
 34 32  1  0  0  0  0
M  RAD  3  11   2  12   3  24   2
M  END
