Coordinates from ORCA-job p-CH3O-Ph-N2-X-OTs-B3LYPG-6-31G_dp-scan-d09-49-n400
 OpenBabel08281821023D

 35 35  0  0  0  0  0  0  0  0999 V2000
   -0.3905   -0.1119   -2.2309 C   0  0  0  0  0  0  0  0  0  0  0  0
    0.7334    0.5742   -1.8190 C   0  0  0  0  0  0  0  0  0  0  0  0
    0.5540    1.8975   -1.3567 C   0  0  0  0  0  0  0  0  0  0  0  0
   -0.7061    2.5187   -1.3113 C   0  0  0  0  0  0  0  0  0  0  0  0
   -1.8178    1.8170   -1.7435 C   0  0  0  0  0  0  0  0  0  0  0  0
   -1.6639    0.4936   -2.2077 C   0  0  0  0  0  0  0  0  0  0  0  0
   -0.3107   -1.1296   -2.5947 H   0  0  0  0  0  0  0  0  0  0  0  0
    1.7270    0.1260   -1.8460 H   0  0  0  0  0  0  0  0  0  0  0  0
   -0.7985    3.5360   -0.9481 H   0  0  0  0  0  0  0  0  0  0  0  0
   -2.7895    2.2933   -1.7185 H   0  0  0  0  0  0  0  0  0  0  0  0
    1.6320    2.6250   -0.9128 N   0  0  0  0  0  0  0  0  0  0  0  0
    2.5615    3.1499   -0.5582 N   0  0  0  0  0  0  0  0  0  0  0  0
    6.4444   -0.1167   -3.1629 C   0  0  0  0  0  0  0  0  0  0  0  0
    7.6261   -0.2290   -3.8920 C   0  0  0  0  0  0  0  0  0  0  0  0
    8.0166    0.7684   -4.7981 C   0  0  0  0  0  0  0  0  0  0  0  0
    7.1830    1.8833   -4.9579 C   0  0  0  0  0  0  0  0  0  0  0  0
    5.9971    2.0086   -4.2342 C   0  0  0  0  0  0  0  0  0  0  0  0
    5.6308    1.0052   -3.3365 C   0  0  0  0  0  0  0  0  0  0  0  0
    6.1337   -0.8919   -2.4711 H   0  0  0  0  0  0  0  0  0  0  0  0
    8.2556   -1.1061   -3.7586 H   0  0  0  0  0  0  0  0  0  0  0  0
    7.4652    2.6637   -5.6604 H   0  0  0  0  0  0  0  0  0  0  0  0
    5.3536    2.8708   -4.3746 H   0  0  0  0  0  0  0  0  0  0  0  0
    4.1321    1.1732   -2.3605 S   0  0  0  0  0  0  0  0  0  0  0  0
    4.4944    2.0829   -1.2106 O   0  0  0  0  0  0  0  0  0  0  0  0
    3.7721   -0.2025   -1.9107 O   0  0  0  0  0  0  0  0  0  0  0  0
    3.0993    1.7959   -3.2363 O   0  0  0  0  0  0  0  0  0  0  0  0
    9.3032    0.6364   -5.5789 C   0  0  0  0  0  0  0  0  0  0  0  0
   10.1729    0.6094   -4.9119 H   0  0  0  0  0  0  0  0  0  0  0  0
    9.3213   -0.2892   -6.1660 H   0  0  0  0  0  0  0  0  0  0  0  0
    9.4401    1.4730   -6.2702 H   0  0  0  0  0  0  0  0  0  0  0  0
   -2.6761   -0.2727   -2.6468 O   0  0  0  0  0  0  0  0  0  0  0  0
   -4.0013    0.2588   -2.6764 C   0  0  0  0  0  0  0  0  0  0  0  0
   -4.6279   -0.5378   -3.0770 H   0  0  0  0  0  0  0  0  0  0  0  0
   -4.0615    1.1354   -3.3307 H   0  0  0  0  0  0  0  0  0  0  0  0
   -4.3453    0.5227   -1.6703 H   0  0  0  0  0  0  0  0  0  0  0  0
  1  6  2  0  0  0  0
  1  2  1  0  0  0  0
  2  3  2  0  0  0  0
  3  4  1  0  0  0  0
  3 11  1  0  0  0  0
  4  9  1  0  0  0  0
  5 10  1  0  0  0  0
  5  4  2  0  0  0  0
  6  5  1  0  0  0  0
  7  1  1  0  0  0  0
  8  2  1  0  0  0  0
 11 12  1  0  0  0  0
 13 19  1  0  0  0  0
 14 20  1  0  0  0  0
 14 13  2  0  0  0  0
 15 14  1  0  0  0  0
 16 15  2  0  0  0  0
 16 17  1  0  0  0  0
 17 18  2  0  0  0  0
 18 13  1  0  0  0  0
 18 23  1  0  0  0  0
 21 16  1  0  0  0  0
 22 17  1  0  0  0  0
 23 25  2  0  0  0  0
 23 24  1  0  0  0  0
 26 23  2  0  0  0  0
 27 28  1  0  0  0  0
 27 15  1  0  0  0  0
 29 27  1  0  0  0  0
 30 27  1  0  0  0  0
 31  6  1  0  0  0  0
 32 31  1  0  0  0  0
 32 35  1  0  0  0  0
 33 32  1  0  0  0  0
 34 32  1  0  0  0  0
M  RAD  3  11   2  12   3  24   2
M  END
