Coordinates from ORCA-job p-CH3O-Ph-N2-X-OTs-B3LYPG-6-31G_dp-scan-d09-49-n400
 OpenBabel08281821023D

 35 35  0  0  0  0  0  0  0  0999 V2000
   -0.4167   -0.0879   -2.3614 C   0  0  0  0  0  0  0  0  0  0  0  0
    0.7284    0.4793   -1.8415 C   0  0  0  0  0  0  0  0  0  0  0  0
    0.6090    1.7574   -1.2496 C   0  0  0  0  0  0  0  0  0  0  0  0
   -0.6122    2.4501   -1.1842 C   0  0  0  0  0  0  0  0  0  0  0  0
   -1.7452    1.8688   -1.7258 C   0  0  0  0  0  0  0  0  0  0  0  0
   -1.6518    0.5920   -2.3188 C   0  0  0  0  0  0  0  0  0  0  0  0
   -0.3834   -1.0665   -2.8257 H   0  0  0  0  0  0  0  0  0  0  0  0
    1.6938   -0.0263   -1.8828 H   0  0  0  0  0  0  0  0  0  0  0  0
   -0.6576    3.4295   -0.7216 H   0  0  0  0  0  0  0  0  0  0  0  0
   -2.6863    2.4017   -1.6861 H   0  0  0  0  0  0  0  0  0  0  0  0
    1.7089    2.3658   -0.6947 N   0  0  0  0  0  0  0  0  0  0  0  0
    2.6559    2.7870   -0.2581 N   0  0  0  0  0  0  0  0  0  0  0  0
    6.7852    0.1405   -2.7987 C   0  0  0  0  0  0  0  0  0  0  0  0
    7.9171    0.1358   -3.6095 C   0  0  0  0  0  0  0  0  0  0  0  0
    7.9441    0.8365   -4.8276 C   0  0  0  0  0  0  0  0  0  0  0  0
    6.8008    1.5449   -5.2172 C   0  0  0  0  0  0  0  0  0  0  0  0
    5.6605    1.5596   -4.4125 C   0  0  0  0  0  0  0  0  0  0  0  0
    5.6613    0.8588   -3.2113 C   0  0  0  0  0  0  0  0  0  0  0  0
    6.7708   -0.4057   -1.8613 H   0  0  0  0  0  0  0  0  0  0  0  0
    8.7977   -0.4202   -3.2955 H   0  0  0  0  0  0  0  0  0  0  0  0
    6.8047    2.0878   -6.1593 H   0  0  0  0  0  0  0  0  0  0  0  0
    4.7439    2.0858   -4.6637 H   0  0  0  0  0  0  0  0  0  0  0  0
    4.1638    0.9327   -2.2345 S   0  0  0  0  0  0  0  0  0  0  0  0
    4.5296    1.6497   -0.9568 O   0  0  0  0  0  0  0  0  0  0  0  0
    3.7214   -0.4695   -1.9882 O   0  0  0  0  0  0  0  0  0  0  0  0
    3.2039    1.7241   -3.0590 O   0  0  0  0  0  0  0  0  0  0  0  0
    9.1838    0.8195   -5.6917 C   0  0  0  0  0  0  0  0  0  0  0  0
   10.0460    1.2407   -5.1614 H   0  0  0  0  0  0  0  0  0  0  0  0
    9.4544   -0.2019   -5.9820 H   0  0  0  0  0  0  0  0  0  0  0  0
    9.0403    1.3997   -6.6072 H   0  0  0  0  0  0  0  0  0  0  0  0
   -2.6892   -0.0605   -2.8686 O   0  0  0  0  0  0  0  0  0  0  0  0
   -3.9791    0.5530   -2.8848 C   0  0  0  0  0  0  0  0  0  0  0  0
   -4.6367   -0.1600   -3.3817 H   0  0  0  0  0  0  0  0  0  0  0  0
   -3.9638    1.4914   -3.4496 H   0  0  0  0  0  0  0  0  0  0  0  0
   -4.3428    0.7378   -1.8679 H   0  0  0  0  0  0  0  0  0  0  0  0
  1  6  2  0  0  0  0
  1  2  1  0  0  0  0
  2  3  2  0  0  0  0
  3  4  1  0  0  0  0
  3 11  1  0  0  0  0
  4  9  1  0  0  0  0
  5 10  1  0  0  0  0
  5  4  2  0  0  0  0
  6  5  1  0  0  0  0
  7  1  1  0  0  0  0
  8  2  1  0  0  0  0
 11 12  1  0  0  0  0
 13 19  1  0  0  0  0
 14 20  1  0  0  0  0
 14 13  2  0  0  0  0
 15 14  1  0  0  0  0
 16 15  2  0  0  0  0
 16 17  1  0  0  0  0
 17 18  2  0  0  0  0
 18 13  1  0  0  0  0
 18 23  1  0  0  0  0
 21 16  1  0  0  0  0
 22 17  1  0  0  0  0
 23 25  2  0  0  0  0
 23 24  1  0  0  0  0
 26 23  2  0  0  0  0
 27 28  1  0  0  0  0
 27 15  1  0  0  0  0
 29 27  1  0  0  0  0
 30 27  1  0  0  0  0
 31  6  1  0  0  0  0
 32 31  1  0  0  0  0
 32 35  1  0  0  0  0
 33 32  1  0  0  0  0
 34 32  1  0  0  0  0
M  RAD  3  11   2  12   3  24   2
M  END
