Coordinates from ORCA-job p-CH3O-Ph-N2-X-OTs-B3LYPG-6-31G_dp-scan-d09-49-n400
 OpenBabel08281821023D

 35 35  0  0  0  0  0  0  0  0999 V2000
   -0.3212   -0.0965   -2.3580 C   0  0  0  0  0  0  0  0  0  0  0  0
    0.8033    0.4538   -1.7790 C   0  0  0  0  0  0  0  0  0  0  0  0
    0.6846    1.7545   -1.2387 C   0  0  0  0  0  0  0  0  0  0  0  0
   -0.5139    2.4880   -1.2832 C   0  0  0  0  0  0  0  0  0  0  0  0
   -1.6248    1.9226   -1.8840 C   0  0  0  0  0  0  0  0  0  0  0  0
   -1.5332    0.6225   -2.4252 C   0  0  0  0  0  0  0  0  0  0  0  0
   -0.2886   -1.0913   -2.7864 H   0  0  0  0  0  0  0  0  0  0  0  0
    1.7535   -0.0797   -1.7353 H   0  0  0  0  0  0  0  0  0  0  0  0
   -0.5589    3.4842   -0.8580 H   0  0  0  0  0  0  0  0  0  0  0  0
   -2.5478    2.4857   -1.9305 H   0  0  0  0  0  0  0  0  0  0  0  0
    1.7624    2.3456   -0.6257 N   0  0  0  0  0  0  0  0  0  0  0  0
    2.6620    2.7803   -0.1132 N   0  0  0  0  0  0  0  0  0  0  0  0
    6.9511    0.1024   -2.6747 C   0  0  0  0  0  0  0  0  0  0  0  0
    7.9412    0.1682   -3.6558 C   0  0  0  0  0  0  0  0  0  0  0  0
    7.7283    0.8458   -4.8699 C   0  0  0  0  0  0  0  0  0  0  0  0
    6.4894    1.4648   -5.0998 C   0  0  0  0  0  0  0  0  0  0  0  0
    5.4908    1.4114   -4.1307 C   0  0  0  0  0  0  0  0  0  0  0  0
    5.7406    0.7336   -2.9423 C   0  0  0  0  0  0  0  0  0  0  0  0
    7.1222   -0.4255   -1.7418 H   0  0  0  0  0  0  0  0  0  0  0  0
    8.8992   -0.3165   -3.4816 H   0  0  0  0  0  0  0  0  0  0  0  0
    6.3210    1.9826   -6.0418 H   0  0  0  0  0  0  0  0  0  0  0  0
    4.4409    1.7952   -4.0487 H   0  0  0  0  0  0  0  0  0  0  0  0
    4.2782    0.8254   -1.9147 S   0  0  0  0  0  0  0  0  0  0  0  0
    4.6129    1.5853   -0.6607 O   0  0  0  0  0  0  0  0  0  0  0  0
    3.7660   -0.5474   -1.6435 O   0  0  0  0  0  0  0  0  0  0  0  0
    3.3826    1.6221   -2.8320 O   0  0  0  0  0  0  0  0  0  0  0  0
    8.8320    0.9205   -5.9000 C   0  0  0  0  0  0  0  0  0  0  0  0
    9.5833    1.6718   -5.6246 H   0  0  0  0  0  0  0  0  0  0  0  0
    9.3558   -0.0363   -5.9987 H   0  0  0  0  0  0  0  0  0  0  0  0
    8.4422    1.1949   -6.8844 H   0  0  0  0  0  0  0  0  0  0  0  0
   -2.5505   -0.0168   -3.0240 O   0  0  0  0  0  0  0  0  0  0  0  0
   -3.8149    0.6354   -3.1554 C   0  0  0  0  0  0  0  0  0  0  0  0
   -4.4590   -0.0755   -3.6725 H   0  0  0  0  0  0  0  0  0  0  0  0
   -3.7272    1.5506   -3.7509 H   0  0  0  0  0  0  0  0  0  0  0  0
   -4.2431    0.8700   -2.1747 H   0  0  0  0  0  0  0  0  0  0  0  0
  1  2  1  0  0  0  0
  2  8  1  0  0  0  0
  2  3  2  0  0  0  0
  3 11  1  0  0  0  0
  4  3  1  0  0  0  0
  4  9  1  0  0  0  0
  5  4  2  0  0  0  0
  6  1  2  0  0  0  0
  6  5  1  0  0  0  0
  7  1  1  0  0  0  0
 10  5  1  0  0  0  0
 11 12  1  0  0  0  0
 13 19  1  0  0  0  0
 14 20  1  0  0  0  0
 14 13  2  0  0  0  0
 15 14  1  0  0  0  0
 16 15  2  0  0  0  0
 16 17  1  0  0  0  0
 17 22  1  0  0  0  0
 17 18  2  0  0  0  0
 18 13  1  0  0  0  0
 18 23  1  0  0  0  0
 21 16  1  0  0  0  0
 23 25  2  0  0  0  0
 23 24  1  0  0  0  0
 26 23  2  0  0  0  0
 27 28  1  0  0  0  0
 27 15  1  0  0  0  0
 29 27  1  0  0  0  0
 30 27  1  0  0  0  0
 31  6  1  0  0  0  0
 32 31  1  0  0  0  0
 32 35  1  0  0  0  0
 33 32  1  0  0  0  0
 34 32  1  0  0  0  0
M  RAD  3  11   2  12   3  24   2
M  END
