Coordinates from ORCA-job p-CH3O-Ph-N2-X-OTs-B3LYPG-6-31G_dp-scan-d09-49-n400
 OpenBabel08281821023D

 35 35  0  0  0  0  0  0  0  0999 V2000
   -0.3279   -0.1251   -2.0675 C   0  0  0  0  0  0  0  0  0  0  0  0
    0.7619    0.6617   -1.7567 C   0  0  0  0  0  0  0  0  0  0  0  0
    0.5212    2.0282   -1.4887 C   0  0  0  0  0  0  0  0  0  0  0  0
   -0.7654    2.5928   -1.5318 C   0  0  0  0  0  0  0  0  0  0  0  0
   -1.8423    1.7876   -1.8587 C   0  0  0  0  0  0  0  0  0  0  0  0
   -1.6271    0.4200   -2.1306 C   0  0  0  0  0  0  0  0  0  0  0  0
   -0.2008   -1.1798   -2.2834 H   0  0  0  0  0  0  0  0  0  0  0  0
    1.7743    0.2589   -1.7158 H   0  0  0  0  0  0  0  0  0  0  0  0
   -0.9054    3.6463   -1.3160 H   0  0  0  0  0  0  0  0  0  0  0  0
   -2.8343    2.2189   -1.9002 H   0  0  0  0  0  0  0  0  0  0  0  0
    1.5632    2.8591   -1.1543 N   0  0  0  0  0  0  0  0  0  0  0  0
    2.4591    3.4781   -0.8746 N   0  0  0  0  0  0  0  0  0  0  0  0
    6.1215   -0.2014   -3.5421 C   0  0  0  0  0  0  0  0  0  0  0  0
    7.2791   -0.3788   -4.2990 C   0  0  0  0  0  0  0  0  0  0  0  0
    7.9896    0.7181   -4.8048 C   0  0  0  0  0  0  0  0  0  0  0  0
    7.5059    2.0060   -4.5332 C   0  0  0  0  0  0  0  0  0  0  0  0
    6.3500    2.1976   -3.7791 C   0  0  0  0  0  0  0  0  0  0  0  0
    5.6579    1.0893   -3.2868 C   0  0  0  0  0  0  0  0  0  0  0  0
    5.5743   -1.0463   -3.1395 H   0  0  0  0  0  0  0  0  0  0  0  0
    7.6382   -1.3860   -4.4981 H   0  0  0  0  0  0  0  0  0  0  0  0
    8.0448    2.8695   -4.9157 H   0  0  0  0  0  0  0  0  0  0  0  0
    5.9901    3.1978   -3.5620 H   0  0  0  0  0  0  0  0  0  0  0  0
    4.1410    1.3261   -2.3549 S   0  0  0  0  0  0  0  0  0  0  0  0
    4.4590    2.4086   -1.3531 O   0  0  0  0  0  0  0  0  0  0  0  0
    3.8299    0.0121   -1.7211 O   0  0  0  0  0  0  0  0  0  0  0  0
    3.0856    1.7711   -3.3098 O   0  0  0  0  0  0  0  0  0  0  0  0
    9.2612    0.5166   -5.5947 C   0  0  0  0  0  0  0  0  0  0  0  0
   10.1191    0.3540   -4.9301 H   0  0  0  0  0  0  0  0  0  0  0  0
    9.1913   -0.3576   -6.2501 H   0  0  0  0  0  0  0  0  0  0  0  0
    9.4902    1.3881   -6.2151 H   0  0  0  0  0  0  0  0  0  0  0  0
   -2.6014   -0.4456   -2.4554 O   0  0  0  0  0  0  0  0  0  0  0  0
   -3.9495    0.0151   -2.5559 C   0  0  0  0  0  0  0  0  0  0  0  0
   -4.5378   -0.8584   -2.8355 H   0  0  0  0  0  0  0  0  0  0  0  0
   -4.0482    0.7850   -3.3292 H   0  0  0  0  0  0  0  0  0  0  0  0
   -4.3079    0.4041   -1.5966 H   0  0  0  0  0  0  0  0  0  0  0  0
  1  2  1  0  0  0  0
  2  8  1  0  0  0  0
  2  3  2  0  0  0  0
  3 11  1  0  0  0  0
  4  3  1  0  0  0  0
  4  9  1  0  0  0  0
  5  4  2  0  0  0  0
  6  1  2  0  0  0  0
  6  5  1  0  0  0  0
  7  1  1  0  0  0  0
 10  5  1  0  0  0  0
 11 12  1  0  0  0  0
 13 18  1  0  0  0  0
 13 19  1  0  0  0  0
 14 13  2  0  0  0  0
 15 16  2  0  0  0  0
 15 14  1  0  0  0  0
 16 17  1  0  0  0  0
 17 22  1  0  0  0  0
 17 18  2  0  0  0  0
 18 23  1  0  0  0  0
 20 14  1  0  0  0  0
 21 16  1  0  0  0  0
 23 25  2  0  0  0  0
 23 24  1  0  0  0  0
 26 23  2  0  0  0  0
 27 28  1  0  0  0  0
 27 15  1  0  0  0  0
 29 27  1  0  0  0  0
 30 27  1  0  0  0  0
 31  6  1  0  0  0  0
 32 31  1  0  0  0  0
 32 35  1  0  0  0  0
 33 32  1  0  0  0  0
 34 32  1  0  0  0  0
M  RAD  3  11   2  12   3  24   2
M  END
