Coordinates from ORCA-job p-CH3O-Ph-N2-X-OTs-B3LYPG-6-31G_dp-scan-d09-49-n400
 OpenBabel08281821023D

 35 35  0  0  0  0  0  0  0  0999 V2000
   -0.1701    0.0448   -1.4756 C   0  0  0  0  0  0  0  0  0  0  0  0
    0.7917    1.0250   -1.6065 C   0  0  0  0  0  0  0  0  0  0  0  0
    0.3624    2.3039   -2.0276 C   0  0  0  0  0  0  0  0  0  0  0  0
   -0.9824    2.5942   -2.3149 C   0  0  0  0  0  0  0  0  0  0  0  0
   -1.9278    1.5913   -2.1923 C   0  0  0  0  0  0  0  0  0  0  0  0
   -1.5240    0.3069   -1.7708 C   0  0  0  0  0  0  0  0  0  0  0  0
    0.1031   -0.9539   -1.1547 H   0  0  0  0  0  0  0  0  0  0  0  0
    1.8457    0.8338   -1.4008 H   0  0  0  0  0  0  0  0  0  0  0  0
   -1.2679    3.5897   -2.6366 H   0  0  0  0  0  0  0  0  0  0  0  0
   -2.9630    1.8068   -2.4228 H   0  0  0  0  0  0  0  0  0  0  0  0
    1.2705    3.3268   -2.1581 N   0  0  0  0  0  0  0  0  0  0  0  0
    2.0734    4.1107   -2.2331 N   0  0  0  0  0  0  0  0  0  0  0  0
    5.6140    0.9296   -4.7084 C   0  0  0  0  0  0  0  0  0  0  0  0
    6.7966    0.5745   -5.3593 C   0  0  0  0  0  0  0  0  0  0  0  0
    8.0217    0.5955   -4.6866 C   0  0  0  0  0  0  0  0  0  0  0  0
    8.0272    0.9877   -3.3390 C   0  0  0  0  0  0  0  0  0  0  0  0
    6.8578    1.3436   -2.6697 C   0  0  0  0  0  0  0  0  0  0  0  0
    5.6369    1.3114   -3.3674 C   0  0  0  0  0  0  0  0  0  0  0  0
    4.6615    0.9154   -5.2270 H   0  0  0  0  0  0  0  0  0  0  0  0
    6.7637    0.2769   -6.4046 H   0  0  0  0  0  0  0  0  0  0  0  0
    8.9713    1.0155   -2.7991 H   0  0  0  0  0  0  0  0  0  0  0  0
    6.9522    1.6365   -1.6228 H   0  0  0  0  0  0  0  0  0  0  0  0
    4.0591    1.7545   -2.6023 S   0  0  0  0  0  0  0  0  0  0  0  0
    4.1958    3.2106   -2.2276 O   0  0  0  0  0  0  0  0  0  0  0  0
    3.9094    0.8707   -1.4106 O   0  0  0  0  0  0  0  0  0  0  0  0
    2.9777    1.5514   -3.6199 O   0  0  0  0  0  0  0  0  0  0  0  0
    9.3025    0.1904   -5.3770 C   0  0  0  0  0  0  0  0  0  0  0  0
    9.6136   -0.8181   -5.0770 H   0  0  0  0  0  0  0  0  0  0  0  0
    9.1868    0.1877   -6.4651 H   0  0  0  0  0  0  0  0  0  0  0  0
   10.1252    0.8680   -5.1252 H   0  0  0  0  0  0  0  0  0  0  0  0
   -2.3603   -0.7333   -1.6192 O   0  0  0  0  0  0  0  0  0  0  0  0
   -3.7492   -0.5686   -1.9088 C   0  0  0  0  0  0  0  0  0  0  0  0
   -4.2049   -1.5407   -1.7221 H   0  0  0  0  0  0  0  0  0  0  0  0
   -3.9046   -0.2878   -2.9562 H   0  0  0  0  0  0  0  0  0  0  0  0
   -4.2052    0.1800   -1.2517 H   0  0  0  0  0  0  0  0  0  0  0  0
  1  7  1  0  0  0  0
  2  1  1  0  0  0  0
  2  8  1  0  0  0  0
  3  2  2  0  0  0  0
  4  5  2  0  0  0  0
  4  3  1  0  0  0  0
  5  6  1  0  0  0  0
  6 31  1  0  0  0  0
  6  1  2  0  0  0  0
  9  4  1  0  0  0  0
 10  5  1  0  0  0  0
 11  3  1  0  0  0  0
 12 11  1  0  0  0  0
 13 18  1  0  0  0  0
 14 13  2  0  0  0  0
 14 15  1  0  0  0  0
 15 16  2  0  0  0  0
 16 21  1  0  0  0  0
 16 17  1  0  0  0  0
 17 22  1  0  0  0  0
 18 17  2  0  0  0  0
 18 23  1  0  0  0  0
 19 13  1  0  0  0  0
 20 14  1  0  0  0  0
 23 24  2  0  0  0  0
 23 25  1  0  0  0  0
 26 23  2  0  0  0  0
 27 30  1  0  0  0  0
 27 28  1  0  0  0  0
 27 15  1  0  0  0  0
 29 27  1  0  0  0  0
 32 33  1  0  0  0  0
 32 31  1  0  0  0  0
 32 35  1  0  0  0  0
 34 32  1  0  0  0  0
M  RAD  3  11   2  12   3  25   2
M  END
