35
Coordinates from ORCA-job p-CH3O-Ph-N2-OTs-B3LYP-6-31G_dp-scan-d09-49-n400
  C   -0.11875098701212      0.45617172580985     -3.11661445315619
  C   0.72255637189816      1.58033441342173     -2.96409409671781
  C   0.27163357909175      2.31097563785082     -1.96214046120361
  C   -0.72938946013022      2.30976298217421     -1.04967141836819
  C   -1.53307069218638      1.16661060666927     -1.24286503306048
  C   -1.22748259210506      0.24967300072354     -2.26965341910837
  H   0.09505010164882     -0.26888264847366     -3.89629962249426
  H   1.68172514908201      1.76444956001296     -3.64501746407591
  H   -0.91229592738542      3.04811958976648     -0.28084175461971
  H   -2.38081212626805      1.02398171037009     -0.58410868693649
  N   1.38265770496313      4.15390254330306     -1.65887489606708
  N   1.77932787488431      5.17482066167113     -1.51915923865123
  C   5.68089397545604      0.68488041328347     -2.94891714536807
  C   6.82410233714527     -0.08831392936204     -3.13716166329021
  C   7.71867814073774      0.18232237951704     -4.18494773417581
  C   7.43942815372763      1.25981338988717     -5.03548003322557
  C   6.29828100663575      2.04388488774380     -4.85779163938753
  C   5.42021390227435      1.74913228717627     -3.81557268366208
  H   4.99976952220684      0.48846237657845     -2.12749136067510
  H   7.03047464428779     -0.91257773399556     -2.45755827887906
  H   8.12736491581534      1.49180020349517     -5.84545050238742
  H   6.09241668394985      2.88945803126450     -5.50551581532265
  S   3.92858421075728      2.72936935470854     -3.60891589604173
  O   3.57062451767458      2.66476478710155     -2.16634962642960
  O   2.87502189729675      1.97815642359262     -4.43975847781710
  O   4.21003460108001      4.06740580993039     -4.15591672572451
  C   8.94846764747959     -0.67320281749637     -4.38419199723932
  H   9.53288221833341     -0.75503183104494     -3.46033849802619
  H   8.67892301624433     -1.69333194361596     -4.68435714410700
  H   9.60107640264574     -0.26158404621990     -5.15974850649534
  O   -1.94679800482273     -0.87040477571309     -2.52324796195813
  C   -3.07880722881312     -1.15849276909968     -1.71093346462133
  H   -3.48973982694534     -2.09312619027607     -2.09310285188292
  H   -3.83860660621435     -0.36999985649114     -1.78848341389061
  H   -2.79413512343384     -1.29150423426368     -0.65962803493351
