35
Coordinates from ORCA-job p-CH3O-Ph-N2-OTs-B3LYP-6-31G_dp-scan-d09-49-n400
  C   -0.77129604349794     -0.40721736516706     -2.83399276601308
  C   0.41553118777851      0.30030442415450     -2.63352829273613
  C   0.36712582729840      1.38104215231871     -1.98979171091960
  C   -0.60912673361567      2.13031788095438     -1.39726751211123
  C   -1.83568035128592      1.44891670729290     -1.57665214036857
  C   -1.91634274097398      0.21740604085480     -2.27421704157166
  H   -0.87595049601416     -1.34637109816368     -3.36673279006448
  H   2.31744264156402      0.13031965000505     -3.33922157390730
  H   -0.51159222207533      3.07043264216966     -0.87067031622563
  H   -2.72928835587152      1.89766304479860     -1.15875321923304
  N   2.34861962052669      3.54350306273619      0.12648560675568
  N   3.42372684012466      3.42902467452634      0.35489228398383
  C   6.28850884897816      1.28802212712711     -2.85894409216099
  C   7.65384964148377      1.04129283706083     -2.97412955508286
  C   8.24898777663262      0.82020944872478     -4.22664263078445
  C   7.43906270807022      0.86366354583729     -5.36988748984347
  C   6.07013858525132      1.11101622092894     -5.27558668459166
  C   5.50711000916945      1.31482412893111     -4.01620152552478
  H   5.83106830130510      1.47485085900542     -1.89325343378493
  H   8.27000731207771      1.02522551498051     -2.07850974697935
  H   7.88615220697833      0.70659969190519     -6.34797720286821
  H   5.44543638450161      1.15927248831268     -6.16096924296776
  S   3.75904201897021      1.63539098885833     -3.88400307688251
  O   3.48707901578084      2.37413486042850     -2.64563981964754
  O   3.24520610192638      0.10113677454783     -3.68628317118104
  O   3.26702905729051      2.15226896808854     -5.15976916101254
  C   9.72714932244351      0.52975143528317     -4.33227319699285
  H   10.31156144682075      1.19010443826196     -3.68387705101744
  H   9.94628429817119     -0.50062872053570     -4.02583017502636
  H   10.08758987323469      0.65259166095888     -5.35726735829541
  O   -3.08332131115389     -0.46206972055313     -2.46698558315162
  C   -4.29287142816280      0.09408340142348     -1.97423789468897
  H   -5.08240755979258     -0.60419651118594     -2.25717695296823
  H   -4.50029594115290      1.07364537950113     -2.42443091348024
  H   -4.27523584278209      0.19526836562873     -0.88087456865578
