35
Coordinates from ORCA-job p-CH3O-Ph-N2-OTs-B3LYP-6-31G_dp-scan-d09-49-n400
  C   -0.66778949589535     -0.73382225868912     -2.19474056212642
  C   0.68673611862342     -0.58944219587341     -2.46406515539104
  C   1.20424125450653      0.68510074950298     -2.70693855011276
  C   0.38258387703829      1.80624760779102     -2.69281609244518
  C   -0.98118411543349      1.66306120957638     -2.42318210649637
  C   -1.51011216918061      0.39003862720711     -2.17245227200083
  H   -1.10086664075989     -1.70925912504131     -1.99906567365665
  H   1.34699956562282     -1.44924751846949     -2.48968583917224
  H   0.80828982539916      2.78314466906859     -2.89362475192118
  H   -1.61224798088830      2.54394808975887     -2.41475562504422
  N   4.91699014452771      2.38135942260336     -0.10648723193137
  N   5.31690841685041      1.37944870136654     -0.34750884311552
  C   5.61922563258570     -0.15447129158964     -3.88312640876669
  C   6.98035375331207      0.00715559310258     -3.64507851433124
  C   7.58241661224807      1.27523330266356     -3.70083675021958
  C   6.78157593602411      2.38459278586238     -4.00380440347672
  C   5.41463381697042      2.24454497888685     -4.24321716186015
  C   4.84744759067870      0.97282846929566     -4.17650258078330
  H   5.15742309485449     -1.13556874242704     -3.85438381346070
  H   7.58816501183130     -0.86435105436610     -3.41597992881882
  H   7.23331312962480      3.37138723632916     -4.05870733307777
  H   4.79618352726725      3.10065303618373     -4.48976696123691
  S   3.10683461748412      0.77615590551774     -4.49799052779817
  O   2.58807011388236      0.84145804112019     -2.90770788668736
  O   2.84477022535423     -0.56746121117927     -5.01022576507038
  O   2.59621750453047      1.95278033898865     -5.19914098851561
  C   9.06321014523931      1.42772277250452     -3.44851021372976
  H   9.64913249173755      0.88682562240509     -4.20061050814256
  H   9.36953440719476      2.47654828306872     -3.47563824238218
  H   9.34149070983511      1.01904156993401     -2.47050131281268
  O   -2.82181836122508      0.13665665542621     -1.89625633548832
  C   -3.72739421845321      1.22871025770662     -1.87240211498106
  H   -4.70568638302230      0.80411043137743     -1.64104516451976
  H   -3.77539572461912      1.73634825686684     -2.84483433253226
  H   -3.45995243374607      1.96032078352061     -1.09861004789437
