35
Coordinates from ORCA-job p-CH3O-Ph-N2-OTs-B3LYP-6-31G_dp-scan-d09-49-n400
  C   -0.65860659756437     -0.73260922357335     -2.19771213139671
  C   0.69600804831824     -0.59070522258935     -2.46790226818944
  C   1.21697521003941      0.68373130303962     -2.70399330407614
  C   0.39866014411538      1.80718246233250     -2.68217298278987
  C   -0.96514609505385      1.66652708446401     -2.41146938140966
  C   -1.49753803395050      0.39360421065037     -2.16763456288053
  H   -1.09435812531240     -1.70789397631071     -2.00727269419839
  H   1.35363539074217     -1.45231783905392     -2.49945569898729
  H   0.82709008507161      2.78398218555366     -2.87763595396930
  H   -1.59357377063141      2.54922029091445     -2.39696459129350
  N   4.69310806691310      2.35834301083695     -0.09206475099941
  N   5.13456627490702      1.37289221972024     -0.32841613321463
  C   5.63153975956950     -0.15590952432501     -3.88377618944548
  C   6.99315484672544      0.00756994963930     -3.65014800952882
  C   7.59418172740357      1.27583815020154     -3.71245678636150
  C   6.79181040415537      2.38343824977676     -4.01774976146559
  C   5.42431456145326      2.24157407238269     -4.25271314045950
  C   4.85819229414201      0.96979147369333     -4.17938442579929
  H   5.17054370990244     -1.13722426574343     -3.85006861714966
  H   7.60221541840693     -0.86263868514271     -3.41940089484546
  H   7.24276020910532      3.37028802617826     -4.07786866357602
  H   4.80457395476968      3.09625318743644     -4.50095337056404
  S   3.11729764015794      0.77094999724699     -4.49745633581075
  O   2.60070047189351      0.83767506881214     -2.90618240295225
  O   2.85570640456168     -0.57361185683971     -5.00746082359034
  O   2.60418966268932      1.94614628590193     -5.19914015469637
  C   9.07540130862843      1.43038722568099     -3.46390064582672
  H   9.66013233077681      0.88069481996001     -4.21045611591946
  H   9.38218861117436      2.47869736573293     -3.50311738406260
  H   9.35467177198517      1.03271338421504     -2.48160537351419
  O   -2.80962793472386      0.14249396021850     -1.89121273142275
  C   -3.71199988665294      1.23701163322307     -1.86015677994722
  H   -4.69123186457408      0.81396546608813     -1.62994869661606
  H   -3.75970735503575      1.75018143206603     -2.82970948717231
  H   -3.44152864410869      1.96355807761229     -1.08263875586888
