35
Coordinates from ORCA-job p-CH3O-Ph-N2-OTs-B3LYP-6-31G_dp-scan-d09-49-n400
  C   0.08265134890941      0.56568427218799     -3.34592421683733
  C   0.81902919860889      1.79104837737995     -3.71394650412817
  C   0.50660973977264      2.91462703585713     -2.78014734930112
  C   -0.03659640062582      2.69217081433240     -1.47087350248584
  C   -0.49482642732945      1.45961212062607     -1.13090927441468
  C   -0.47026314003147      0.39259836488779     -2.11512603331564
  H   0.05674471634639     -0.24551943633318     -4.06429210481028
  H   0.67652639407706      2.06285646695380     -4.76188328384527
  H   -0.07912330602334      3.52223726756571     -0.77235768935979
  H   -0.89587124014750      1.28968897950570     -0.14043027596783
  N   0.82059250928758      4.14463145335805     -3.14577558361765
  N   1.09116317448093      5.20118418660978     -3.46743117290582
  C   5.16759023873071     -0.00964119169616     -4.67323436241306
  C   6.39891010545471     -0.51268798527342     -4.25805232567308
  C   7.28411917280232      0.26860837706413     -3.50074229399072
  C   6.90882833129579      1.58089615789602     -3.17369691168089
  C   5.68170418671751      2.10172190749162     -3.57812889254457
  C   4.81879312117386      1.29528886172167     -4.32218689920007
  H   4.48946704344571     -0.60795908824263     -5.27247167778680
  H   6.68092331128584     -1.52545659629177     -4.53281108848002
  H   7.59057673333696      2.20557002240676     -2.60161512529222
  H   5.39714104883954      3.12061876349561     -3.33977268544457
  S   3.24941095114199      1.95122475024039     -4.85552648359785
  O   2.33373113980393      1.45669979471860     -3.60450823593236
  O   2.81298608782630      1.25702949842104     -6.07135610093527
  O   3.30403648886462      3.41897015329512     -4.85301756557135
  C   8.60532261555158     -0.29364774877781     -3.03285033446750
  H   8.52756291284038     -0.67196513563148     -2.00583449284809
  H   8.93322686636180     -1.12500403629948     -3.66356360216217
  H   9.38965396126967      0.46992525268041     -3.03816763383042
  O   -1.02835445696642     -0.82732788189185     -1.86092744682092
  C   -1.78718287172877     -1.02053770645037     -0.67551118932247
  H   -2.18582094219002     -2.03421294979582     -0.74248799073664
  H   -2.62201302967152     -0.31244622631406     -0.60132014660645
  H   -1.16694958351182     -0.94468689569771      0.22668047632691
