35
Coordinates from ORCA-job p-CH3O-Ph-N2-OTs-B3LYP-6-31G_dp-scan-d09-49-n400
  C   -0.62567966403442     -0.71409887647054     -2.21450091695521
  C   0.72818731463313     -0.60490747440507     -2.50312995354234
  C   1.28332597227052      0.65958297510505     -2.71606515751930
  C   0.49807348287283      1.80477302017801     -2.65271578207101
  C   -0.86445860181313      1.69755240946606     -2.36198277838586
  C   -1.43043444376292      0.43474727042560     -2.14182698082440
  H   -1.08695254141747     -1.68089972466637     -2.04171332839671
  H   1.35923504472972     -1.48441713485383     -2.56715690358920
  H   0.95200259613005      2.77358377444285     -2.82985028113471
  H   -1.46610117990726      2.59758762526043     -2.31436076818331
  N   3.62362880177886      2.05349335735018     -0.02750392244126
  N   4.29332217088015      1.17422297414969     -0.02988766124796
  C   5.71123519843299     -0.17560766149584     -3.92223361540248
  C   7.06818803516403      0.02912841496852     -3.69236421465410
  C   7.63277975500994      1.31318090391515     -3.76862761535992
  C   6.79971867716531      2.39354887224016     -4.08970656530523
  C   5.43695853711290      2.21022094217185     -4.32212603404754
  C   4.90663643941727      0.92409139985440     -4.23065312745517
  H   5.27812435127216     -1.16911210919792     -3.87722783187721
  H   7.70211686883933     -0.82093345515516     -3.45363220964973
  H   7.22283906714748      3.39170370259720     -4.16424719179042
  H   4.79380895918526      3.04354541883218     -4.58295667378207
  S   3.16965754681763      0.67632793575875     -4.53248685332624
  O   2.66666687480829      0.78201647909593     -2.93815320376489
  O   2.93480522635652     -0.68937510631973     -4.99738216722802
  O   2.62345136599253      1.81690956946374     -5.26518723674286
  C   9.10550468368523      1.51595362264676     -3.50507665093566
  H   9.71463870384715      0.83737796494567     -4.11145700561726
  H   9.41635173371034      2.53998936161075     -3.72812336539213
  H   9.34781515768365      1.31420535889807     -2.45473379133646
  O   -2.74480810605553      0.21498388106182     -1.85004192005945
  C   -3.61454127811607      1.33381634961121     -1.78034641400216
  H   -4.60216845409889      0.93375443732743     -1.54501411871237
  H   -3.66128752428493      1.87051380908181     -2.73716529969413
  H   -3.31234077145294      2.03433971210519     -0.99056245957344
