35
Coordinates from ORCA-job p-CH3O-Ph-N2-OTs-B3LYP-6-31G_dp-scan-d09-49-n400
  C   -0.57412937562064      0.02824558302565     -2.81176850269253
  C   0.53998733169815      0.85939179994881     -2.90770040965543
  C   0.46848225052208      1.98138992905454     -2.11799161392923
  C   -0.53306258486675      2.38070127790832     -1.26405151851347
  C   -1.63074634815878      1.51655738134044     -1.18590523005915
  C   -1.65058416104225      0.34119293035158     -1.95842440386246
  H   -0.62605204615921     -0.88150511639494     -3.39986757285742
  H   1.38066539271496      0.64584340576658     -3.57030376986380
  H   -0.48523754202389      3.29695462791077     -0.68903350756184
  H   -2.45083551029363      1.77522468955605     -0.52735950062644
  N   1.79026480206636      3.11378391550543     -2.19219058453473
  N   2.07927895971207      4.17753589690775     -2.01073610133520
  C   5.80585366595227     -0.02341842897195     -4.29246587339147
  C   7.15431590435743     -0.38150276746850     -4.29374320401871
  C   8.16113000588604      0.58374376577492     -4.15900393832071
  C   7.78195921596591      1.92945320212495     -4.03292114734617
  C   6.43985997750978      2.30253208980858     -4.03104317149437
  C   5.45550242677811      1.31980511668893     -4.15773896000792
  H   5.02686110965728     -0.76803266343355     -4.41610889946995
  H   7.42915769061579     -1.42750906841783     -4.40985541294513
  H   8.54940160276392      2.69499599432855     -3.94295200071695
  H   6.14841032285533      3.34502666904107     -3.95469544229379
  S   3.72469051749442      1.79583801037392     -4.12965457967970
  O   3.37489999445941      1.74944630137582     -2.63241056339520
  O   2.97741862652501      0.74074507626869     -4.86287918760541
  O   3.62375447714661      3.16827762636816     -4.66363161810394
  C   9.61962208234693      0.18990154504321     -4.13633155734944
  H   10.01653519127716      0.20042170692836     -3.11314840012775
  H   9.76880333279392     -0.81802224217438     -4.53466936148845
  H   10.23134632761198      0.88103423782646     -4.72585500848830
  O   -2.66395214130269     -0.55480770960924     -1.95367740420021
  C   -3.79338742809467     -0.31460861479238     -1.12046888387881
  H   -4.46672087216625     -1.15719626384714     -1.28301985576035
  H   -4.30430449998870      0.61626071378354     -1.39698962704443
  H   -3.50888869899354     -0.27590061790115     -0.06160318738131
