35
Coordinates from ORCA-job p-CH3O-Ph-N2-OTs-B3LYP-6-31G_dp-scan-d09-49-n400
  C   -0.65757397482800     -0.73133683077629     -2.18965395692813
  C   0.69581821310510     -0.59629797997033     -2.46934839768333
  C   1.22039524091924      0.67453544122736     -2.71662426089100
  C   0.40653501024352      1.80128646018756     -2.69679773311000
  C   -0.95610785910187      1.66753373568601     -2.41683233479133
  C   -1.49193422789889      0.39830275265278     -2.16147573284932
  H   -1.09579327672234     -1.70372673614333     -1.99036656330031
  H   1.35000585660794     -1.46061997977550     -2.49974541144694
  H   0.83718120956889      2.77521927082710     -2.90137525484487
  H   -1.58104353522007      2.55275003837056     -2.40418670559875
  N   4.72287468583251      2.33692578445810     -0.11419983335457
  N   5.16088648362681      1.35019908817716     -0.35166718570274
  C   5.63196676882326     -0.16162944910890     -3.90231568947973
  C   6.98973404412502      0.01021576503670     -3.65235890843143
  C   7.58225980933456      1.28309254901087     -3.70027534020801
  C   6.77579719544596      2.38652898588413     -4.00992326338411
  C   5.41215298318021      2.23631575052874     -4.26124491599264
  C   4.85425281408990      0.96026138891847     -4.20026545912845
  H   5.17726234013428     -1.14617445684207     -3.87822377493737
  H   7.60224072609914     -0.85680240284841     -3.41879805829281
  H   7.22035115732376      3.37689325149653     -4.05904312085269
  H   4.78900905742488      3.08800055103412     -4.51121503291019
  S   3.11475366190828      0.75427721431402     -4.51961844054378
  O   2.60398396638958      0.82080409336728     -2.92690703245585
  O   2.85670773432883     -0.59146849739373     -5.02816674448420
  O   2.59601308870548      1.92714006033457     -5.22106460672101
  C   9.05905400552625      1.44700679231049     -3.43204652846802
  H   9.65727142731181      0.91062563755114     -4.17764461822257
  H   9.35753274476703      2.49818370842867     -3.45594356673018
  H   9.32985303406756      1.04054583727131     -2.45102722860088
  O   -2.80323096295674      0.15412800973793     -1.87530931941769
  C   -3.70121209549117      1.25232017739517     -1.84598654819330
  H   -4.68074184817204      0.83450460109365     -1.60763596631627
  H   -3.75237602532629      1.75965620583932     -2.81840120863686
  H   -3.42357945317255      1.98260318171880     -1.07451125709080
