x2-4-Br-Ph-N2-OTf-v2.log
 OpenBabel05181815563D
Gaussian home/ubuntu/g09/g09 #p Temperature=298.15 opt freq rb3lyp/6-31G(d,p)
 34 33  0  0  0  0  0  0  0  0999 V2000
   -3.7033   -0.2124   -0.3217 C   0  0  0  0  0  0  0  0  0  0  0  0
   -3.6126   -0.3069    1.0788 C   0  0  0  0  0  0  0  0  0  0  0  0
   -4.6569   -0.7936    1.8936 C   0  0  0  0  0  0  0  0  0  0  0  0
   -5.8245   -1.2001    1.2754 C   0  0  0  0  0  0  0  0  0  0  0  0
   -5.9351   -1.1161   -0.1231 C   0  0  0  0  0  0  0  0  0  0  0  0
   -4.8862   -0.6265   -0.9138 C   0  0  0  0  0  0  0  0  0  0  0  0
   -2.8692    0.1941   -0.8847 H   0  0  0  0  0  0  0  0  0  0  0  0
   -4.5430   -0.8467    2.9705 H   0  0  0  0  0  0  0  0  0  0  0  0
   -6.6502   -1.5804    1.8643 H   0  0  0  0  0  0  0  0  0  0  0  0
   -5.0007   -0.5668   -1.9894 H   0  0  0  0  0  0  0  0  0  0  0  0
   -2.4550    0.0812    1.7199 N   0  0  0  0  0  0  0  0  0  0  0  0
   -1.5545    0.3552    2.3214 N   0  0  0  0  0  0  0  0  0  0  0  0
    0.1445    1.5291   -0.2446 S   0  0  0  0  0  0  0  0  0  0  0  0
    0.5606    0.5881    0.8388 O   0  0  0  0  0  0  0  0  0  0  0  0
    1.1076    1.5981   -1.3656 O   0  0  0  0  0  0  0  0  0  0  0  0
   -1.2877    1.4217   -0.6040 O   0  0  0  0  0  0  0  0  0  0  0  0
    0.2706    3.2017    0.5584 C   0  0  0  0  0  0  0  0  0  0  0  0
    1.5599    3.4524    0.8692 F   0  0  0  0  0  0  0  0  0  0  0  0
   -0.4503    3.2310    1.6876 F   0  0  0  0  0  0  0  0  0  0  0  0
   -0.1603    4.1611   -0.2590 F   0  0  0  0  0  0  0  0  0  0  0  0
    2.5482    0.1874    0.1962 H   0  0  0  0  0  0  0  0  0  0  0  0
    3.5751   -0.0374   -0.0870 C   0  0  0  0  0  0  0  0  0  0  0  0
    4.3582    0.8847   -0.8088 C   0  0  0  0  0  0  0  0  0  0  0  0
    4.1713   -1.2440    0.2447 C   0  0  0  0  0  0  0  0  0  0  0  0
    5.6915    0.6421   -1.2008 C   0  0  0  0  0  0  0  0  0  0  0  0
    5.4941   -1.5091   -0.1370 C   0  0  0  0  0  0  0  0  0  0  0  0
    3.6084   -1.9840    0.8007 H   0  0  0  0  0  0  0  0  0  0  0  0
    6.2546   -0.5723   -0.8578 C   0  0  0  0  0  0  0  0  0  0  0  0
    6.2522    1.3864   -1.7550 H   0  0  0  0  0  0  0  0  0  0  0  0
    7.2747   -0.8012   -1.1412 H   0  0  0  0  0  0  0  0  0  0  0  0
    3.8136    2.1010   -1.1453 N   0  0  0  0  0  0  0  0  0  0  0  0
    3.3715    3.0877   -1.4125 N   0  0  0  0  0  0  0  0  0  0  0  0
   -7.5309   -1.6722   -0.9474 Br  0  0  0  0  0  0  0  0  0  0  0  0
    6.2757   -3.1550    0.3254 Br  0  0  0  0  0  0  0  0  0  0  0  0
  1  2  1  0  0  0  0
  2 11  1  0  0  0  0
  2  3  2  0  0  0  0
  3  8  1  0  0  0  0
  4  9  1  0  0  0  0
  4  3  1  0  0  0  0
  5  4  2  0  0  0  0
  6  1  2  0  0  0  0
  6  5  1  0  0  0  0
  7  1  1  0  0  0  0
 10  6  1  0  0  0  0
 11 12  1  0  0  0  0
 13 17  1  0  0  0  0
 13 14  1  0  0  0  0
 15 13  2  0  0  0  0
 16 13  2  0  0  0  0
 17 18  1  0  0  0  0
 17 19  1  0  0  0  0
 20 17  1  0  0  0  0
 22 21  1  0  0  0  0
 22 24  1  0  0  0  0
 23 22  2  0  0  0  0
 24 27  1  0  0  0  0
 25 28  2  0  0  0  0
 25 23  1  0  0  0  0
 26 24  2  0  0  0  0
 26 34  1  0  0  0  0
 28 26  1  0  0  0  0
 29 25  1  0  0  0  0
 30 28  1  0  0  0  0
 31 23  1  0  0  0  0
 32 31  1  0  0  0  0
 33  5  1  0  0  0  0
M  RAD  5  11   2  12   3  14   2  31   2  32   3
M  END
