Coordinates from ORCA-job p-CH3O-Ph-N2-X-BF4-B3LYPG-6-31G_dp-scan-d09-49-n400
 OpenBabel08281820543D

 22 21  0  0  0  0  0  0  0  0999 V2000
   -1.0930    0.9416    1.6057 C   0  0  0  0  0  0  0  0  0  0  0  0
    0.2488    1.2508    1.4584 C   0  0  0  0  0  0  0  0  0  0  0  0
    0.6813    1.7487    0.2197 C   0  0  0  0  0  0  0  0  0  0  0  0
   -0.1913    1.9351   -0.8721 C   0  0  0  0  0  0  0  0  0  0  0  0
   -1.5192    1.6090   -0.7104 C   0  0  0  0  0  0  0  0  0  0  0  0
   -1.9839    1.1109    0.5278 C   0  0  0  0  0  0  0  0  0  0  0  0
   -1.4362    0.5534    2.5557 H   0  0  0  0  0  0  0  0  0  0  0  0
    0.9615    1.0918    2.2559 H   0  0  0  0  0  0  0  0  0  0  0  0
    0.1858    2.3090   -1.8168 H   0  0  0  0  0  0  0  0  0  0  0  0
   -2.2274    1.7223   -1.5229 H   0  0  0  0  0  0  0  0  0  0  0  0
    1.9915    2.1296    0.0512 N   0  0  0  0  0  0  0  0  0  0  0  0
    3.0156    2.5249   -0.1422 N   0  0  0  0  0  0  0  0  0  0  0  0
    3.4988   -0.3314    0.4228 B   0  0  0  0  0  0  0  0  0  0  0  0
    2.6367   -0.2844   -0.7014 F   0  0  0  0  0  0  0  0  0  0  0  0
    3.9926   -1.5931    0.6364 F   0  0  0  0  0  0  0  0  0  0  0  0
    4.5231    0.6211    0.2295 F   0  0  0  0  0  0  0  0  0  0  0  0
    2.7331    0.1117    1.5574 F   0  0  0  0  0  0  0  0  0  0  0  0
   -3.2942    0.8297    0.5754 O   0  0  0  0  0  0  0  0  0  0  0  0
   -3.8549    0.2944    1.7789 C   0  0  0  0  0  0  0  0  0  0  0  0
   -4.9131    0.1463    1.5669 H   0  0  0  0  0  0  0  0  0  0  0  0
   -3.7417    0.9969    2.6119 H   0  0  0  0  0  0  0  0  0  0  0  0
   -3.3939   -0.6650    2.0339 H   0  0  0  0  0  0  0  0  0  0  0  0
  1  7  1  0  0  0  0
  2  1  1  0  0  0  0
  2  8  1  0  0  0  0
  3  2  2  0  0  0  0
  4  5  2  0  0  0  0
  4  3  1  0  0  0  0
  5  6  1  0  0  0  0
  6 18  1  0  0  0  0
  6  1  2  0  0  0  0
  9  4  1  0  0  0  0
 10  5  1  0  0  0  0
 11  3  1  0  0  0  0
 12 11  1  0  0  0  0
 13 15  1  0  0  0  0
 13 17  1  0  0  0  0
 14 13  1  0  0  0  0
 16 13  1  0  0  0  0
 18 19  1  0  0  0  0
 19 22  1  0  0  0  0
 19 21  1  0  0  0  0
 20 19  1  0  0  0  0
M  RAD  2  11   2  12   3
M  END
