Coordinates from ORCA-job p-CH3O-Ph-N2-X-BF4-B3LYPG-6-31G_dp-scan-d09-49-n400
 OpenBabel08281820543D

 22 21  0  0  0  0  0  0  0  0999 V2000
   -1.0628    0.7811    1.4506 C   0  0  0  0  0  0  0  0  0  0  0  0
    0.2812    1.0225    1.2190 C   0  0  0  0  0  0  0  0  0  0  0  0
    0.6359    1.6882    0.0340 C   0  0  0  0  0  0  0  0  0  0  0  0
   -0.3179    2.1102   -0.9185 C   0  0  0  0  0  0  0  0  0  0  0  0
   -1.6468    1.8491   -0.6740 C   0  0  0  0  0  0  0  0  0  0  0  0
   -2.0330    1.1815    0.5116 C   0  0  0  0  0  0  0  0  0  0  0  0
   -1.3477    0.2692    2.3605 H   0  0  0  0  0  0  0  0  0  0  0  0
    1.0605    0.7095    1.9065 H   0  0  0  0  0  0  0  0  0  0  0  0
   -0.0026    2.6169   -1.8237 H   0  0  0  0  0  0  0  0  0  0  0  0
   -2.4162    2.1440   -1.3778 H   0  0  0  0  0  0  0  0  0  0  0  0
    1.9514    1.9917   -0.2286 N   0  0  0  0  0  0  0  0  0  0  0  0
    2.9783    2.3346   -0.4988 N   0  0  0  0  0  0  0  0  0  0  0  0
    3.6004   -0.2901    0.7327 B   0  0  0  0  0  0  0  0  0  0  0  0
    2.6058   -0.5142   -0.2547 F   0  0  0  0  0  0  0  0  0  0  0  0
    4.1785   -1.4614    1.1479 F   0  0  0  0  0  0  0  0  0  0  0  0
    4.5423    0.6172    0.1983 F   0  0  0  0  0  0  0  0  0  0  0  0
    2.9614    0.3820    1.8320 F   0  0  0  0  0  0  0  0  0  0  0  0
   -3.3509    0.9786    0.6478 O   0  0  0  0  0  0  0  0  0  0  0  0
   -3.8411    0.2888    1.8029 C   0  0  0  0  0  0  0  0  0  0  0  0
   -4.9220    0.2373    1.6745 H   0  0  0  0  0  0  0  0  0  0  0  0
   -3.6059    0.8404    2.7195 H   0  0  0  0  0  0  0  0  0  0  0  0
   -3.4289   -0.7237    1.8599 H   0  0  0  0  0  0  0  0  0  0  0  0
  1  7  1  0  0  0  0
  2  1  1  0  0  0  0
  2  8  1  0  0  0  0
  3  2  2  0  0  0  0
  4  5  2  0  0  0  0
  4  3  1  0  0  0  0
  5  6  1  0  0  0  0
  6 18  1  0  0  0  0
  6  1  2  0  0  0  0
  9  4  1  0  0  0  0
 10  5  1  0  0  0  0
 11  3  1  0  0  0  0
 12 11  1  0  0  0  0
 13 15  1  0  0  0  0
 13 17  1  0  0  0  0
 14 13  1  0  0  0  0
 16 13  1  0  0  0  0
 18 19  1  0  0  0  0
 19 22  1  0  0  0  0
 19 21  1  0  0  0  0
 20 19  1  0  0  0  0
M  RAD  2  11   2  12   3
M  END
