Coordinates from ORCA-job p-CH3O-Ph-N2-X-BF4-B3LYPG-6-31G_dp-scan-d09-49-n400
 OpenBabel08281820543D

 22 21  0  0  0  0  0  0  0  0999 V2000
   -1.0896    1.0573    1.6836 C   0  0  0  0  0  0  0  0  0  0  0  0
    0.2392    1.4314    1.5827 C   0  0  0  0  0  0  0  0  0  0  0  0
    0.7219    1.8333    0.3289 C   0  0  0  0  0  0  0  0  0  0  0  0
   -0.0723    1.8281   -0.8331 C   0  0  0  0  0  0  0  0  0  0  0  0
   -1.3897    1.4452   -0.7162 C   0  0  0  0  0  0  0  0  0  0  0  0
   -1.9117    1.0591    0.5391 C   0  0  0  0  0  0  0  0  0  0  0  0
   -1.4728    0.7410    2.6448 H   0  0  0  0  0  0  0  0  0  0  0  0
    0.9065    1.3869    2.4330 H   0  0  0  0  0  0  0  0  0  0  0  0
    0.3586    2.0949   -1.7902 H   0  0  0  0  0  0  0  0  0  0  0  0
   -2.0430    1.4142   -1.5803 H   0  0  0  0  0  0  0  0  0  0  0  0
    2.0297    2.2377    0.2184 N   0  0  0  0  0  0  0  0  0  0  0  0
    3.0641    2.6380    0.1153 N   0  0  0  0  0  0  0  0  0  0  0  0
    3.3140   -0.3387    0.2475 B   0  0  0  0  0  0  0  0  0  0  0  0
    2.4749   -0.0349   -0.8634 F   0  0  0  0  0  0  0  0  0  0  0  0
    3.6521   -1.6685    0.2714 F   0  0  0  0  0  0  0  0  0  0  0  0
    4.4384    0.5066    0.1832 F   0  0  0  0  0  0  0  0  0  0  0  0
    2.5836    0.0218    1.4298 F   0  0  0  0  0  0  0  0  0  0  0  0
   -3.2049    0.7035    0.5360 O   0  0  0  0  0  0  0  0  0  0  0  0
   -3.8150    0.2599    1.7520 C   0  0  0  0  0  0  0  0  0  0  0  0
   -4.8455    0.0222    1.4919 H   0  0  0  0  0  0  0  0  0  0  0  0
   -3.8008    1.0504    2.5105 H   0  0  0  0  0  0  0  0  0  0  0  0
   -3.3177   -0.6362    2.1367 H   0  0  0  0  0  0  0  0  0  0  0  0
  1  7  1  0  0  0  0
  2  1  1  0  0  0  0
  2  8  1  0  0  0  0
  3  2  2  0  0  0  0
  4  5  2  0  0  0  0
  4  3  1  0  0  0  0
  5  6  1  0  0  0  0
  6  1  2  0  0  0  0
  9  4  1  0  0  0  0
 10  5  1  0  0  0  0
 11  3  1  0  0  0  0
 12 11  1  0  0  0  0
 13 15  1  0  0  0  0
 13 17  1  0  0  0  0
 14 13  1  0  0  0  0
 16 13  1  0  0  0  0
 18  6  1  0  0  0  0
 18 19  1  0  0  0  0
 19 22  1  0  0  0  0
 19 21  1  0  0  0  0
 20 19  1  0  0  0  0
M  RAD  2  11   2  12   3
M  END
