Coordinates from ORCA-job p-CH3O-Ph-N2-X-BF4-B3LYPG-6-31G_dp-scan-d09-49-n400
 OpenBabel08281820543D

 22 21  0  0  0  0  0  0  0  0999 V2000
   -1.1255    1.1310    1.7458 C   0  0  0  0  0  0  0  0  0  0  0  0
    0.1981    1.5306    1.6819 C   0  0  0  0  0  0  0  0  0  0  0  0
    0.7404    1.8402    0.4280 C   0  0  0  0  0  0  0  0  0  0  0  0
    0.0194    1.7029   -0.7722 C   0  0  0  0  0  0  0  0  0  0  0  0
   -1.2966    1.3062   -0.6919 C   0  0  0  0  0  0  0  0  0  0  0  0
   -1.8823    1.0198    0.5616 C   0  0  0  0  0  0  0  0  0  0  0  0
   -1.5538    0.8824    2.7078 H   0  0  0  0  0  0  0  0  0  0  0  0
    0.8176    1.5751    2.5685 H   0  0  0  0  0  0  0  0  0  0  0  0
    0.5099    1.8723   -1.7217 H   0  0  0  0  0  0  0  0  0  0  0  0
   -1.8979    1.1784   -1.5843 H   0  0  0  0  0  0  0  0  0  0  0  0
    2.0467    2.2582    0.3645 N   0  0  0  0  0  0  0  0  0  0  0  0
    3.0813    2.6679    0.3160 N   0  0  0  0  0  0  0  0  0  0  0  0
    3.2698   -0.3143    0.0747 B   0  0  0  0  0  0  0  0  0  0  0  0
    2.4212    0.1177   -0.9922 F   0  0  0  0  0  0  0  0  0  0  0  0
    3.5757   -1.6462   -0.0464 F   0  0  0  0  0  0  0  0  0  0  0  0
    4.4117    0.5089    0.0679 F   0  0  0  0  0  0  0  0  0  0  0  0
    2.5653   -0.0575    1.2939 F   0  0  0  0  0  0  0  0  0  0  0  0
   -3.1669    0.6364    0.5184 O   0  0  0  0  0  0  0  0  0  0  0  0
   -3.8376    0.2813    1.7305 C   0  0  0  0  0  0  0  0  0  0  0  0
   -4.8471   -0.0002    1.4342 H   0  0  0  0  0  0  0  0  0  0  0  0
   -3.8816    1.1315    2.4202 H   0  0  0  0  0  0  0  0  0  0  0  0
   -3.3478   -0.5691    2.2164 H   0  0  0  0  0  0  0  0  0  0  0  0
  1  7  1  0  0  0  0
  2  1  1  0  0  0  0
  2  8  1  0  0  0  0
  3  2  2  0  0  0  0
  4  5  2  0  0  0  0
  4  3  1  0  0  0  0
  5  6  1  0  0  0  0
  6  1  2  0  0  0  0
  9  4  1  0  0  0  0
 10  5  1  0  0  0  0
 11  3  1  0  0  0  0
 12 11  1  0  0  0  0
 13 17  1  0  0  0  0
 14 13  1  0  0  0  0
 15 13  1  0  0  0  0
 16 13  1  0  0  0  0
 18  6  1  0  0  0  0
 18 19  1  0  0  0  0
 19 22  1  0  0  0  0
 19 21  1  0  0  0  0
 20 19  1  0  0  0  0
M  RAD  2  11   2  12   3
M  END
