Coordinates from ORCA-job p-CH3O-Ph-N2-X-BF4-B3LYPG-6-31G_dp-scan-d09-49-n400
 OpenBabel08281820543D

 22 21  0  0  0  0  0  0  0  0999 V2000
   -1.2019    1.2123    1.8074 C   0  0  0  0  0  0  0  0  0  0  0  0
    0.1226    1.6126    1.7742 C   0  0  0  0  0  0  0  0  0  0  0  0
    0.7434    1.7778    0.5297 C   0  0  0  0  0  0  0  0  0  0  0  0
    0.0939    1.5141   -0.6906 C   0  0  0  0  0  0  0  0  0  0  0  0
   -1.2275    1.1291   -0.6410 C   0  0  0  0  0  0  0  0  0  0  0  0
   -1.8879    0.9755    0.5984 C   0  0  0  0  0  0  0  0  0  0  0  0
   -1.6868    1.0713    2.7644 H   0  0  0  0  0  0  0  0  0  0  0  0
    0.6912    1.7665    2.6824 H   0  0  0  0  0  0  0  0  0  0  0  0
    0.6498    1.5685   -1.6158 H   0  0  0  0  0  0  0  0  0  0  0  0
   -1.7770    0.9066   -1.5481 H   0  0  0  0  0  0  0  0  0  0  0  0
    2.0487    2.2068    0.5244 N   0  0  0  0  0  0  0  0  0  0  0  0
    3.0794    2.6271    0.5652 N   0  0  0  0  0  0  0  0  0  0  0  0
    3.3430   -0.2612   -0.1441 B   0  0  0  0  0  0  0  0  0  0  0  0
    2.5055    0.3277   -1.1516 F   0  0  0  0  0  0  0  0  0  0  0  0
    3.6974   -1.5404   -0.4897 F   0  0  0  0  0  0  0  0  0  0  0  0
    4.4559    0.5853    0.0152 F   0  0  0  0  0  0  0  0  0  0  0  0
    2.5926   -0.2342    1.0654 F   0  0  0  0  0  0  0  0  0  0  0  0
   -3.1699    0.5884    0.5207 O   0  0  0  0  0  0  0  0  0  0  0  0
   -3.9095    0.3538    1.7212 C   0  0  0  0  0  0  0  0  0  0  0  0
   -4.9004    0.0381    1.3975 H   0  0  0  0  0  0  0  0  0  0  0  0
   -3.9938    1.2685    2.3184 H   0  0  0  0  0  0  0  0  0  0  0  0
   -3.4487   -0.4406    2.3182 H   0  0  0  0  0  0  0  0  0  0  0  0
  1  7  1  0  0  0  0
  2  1  1  0  0  0  0
  2  8  1  0  0  0  0
  3  2  2  0  0  0  0
  4  5  2  0  0  0  0
  4  3  1  0  0  0  0
  5  6  1  0  0  0  0
  6  1  2  0  0  0  0
  9  4  1  0  0  0  0
 10  5  1  0  0  0  0
 11  3  1  0  0  0  0
 11 12  1  0  0  0  0
 13 16  1  0  0  0  0
 13 17  1  0  0  0  0
 14 13  1  0  0  0  0
 15 13  1  0  0  0  0
 18  6  1  0  0  0  0
 18 19  1  0  0  0  0
 19 22  1  0  0  0  0
 19 21  1  0  0  0  0
 20 19  1  0  0  0  0
M  RAD  2  11   2  12   3
M  END
