Coordinates from ORCA-job p-CH3O-Ph-N2-X-BF4-B3LYPG-6-31G_dp-scan-d09-49-n400
 OpenBabel08281820543D

 22 20  0  0  0  0  0  0  0  0999 V2000
   -0.9204    0.4321    0.8963 C   0  0  0  0  0  0  0  0  0  0  0  0
    0.3668    0.5833    0.3873 C   0  0  0  0  0  0  0  0  0  0  0  0
    0.5336    1.6681   -0.5009 C   0  0  0  0  0  0  0  0  0  0  0  0
   -0.4913    2.5720   -0.8878 C   0  0  0  0  0  0  0  0  0  0  0  0
   -1.7397    2.3814   -0.3539 C   0  0  0  0  0  0  0  0  0  0  0  0
   -1.9647    1.3073    0.5487 C   0  0  0  0  0  0  0  0  0  0  0  0
   -1.1032   -0.3842    1.5863 H   0  0  0  0  0  0  0  0  0  0  0  0
    1.3029   -0.1700    0.7055 H   0  0  0  0  0  0  0  0  0  0  0  0
   -0.2887    3.3859   -1.5764 H   0  0  0  0  0  0  0  0  0  0  0  0
   -2.5683    3.0350   -0.6006 H   0  0  0  0  0  0  0  0  0  0  0  0
    1.7715    1.8701   -1.0449 N   0  0  0  0  0  0  0  0  0  0  0  0
    2.7770    2.0429   -1.5002 N   0  0  0  0  0  0  0  0  0  0  0  0
    3.4572   -0.1571    1.4721 B   0  0  0  0  0  0  0  0  0  0  0  0
    2.1908   -0.8858    1.0478 F   0  0  0  0  0  0  0  0  0  0  0  0
    3.4930   -0.1891    2.8389 F   0  0  0  0  0  0  0  0  0  0  0  0
    4.4984   -0.7938    0.8535 F   0  0  0  0  0  0  0  0  0  0  0  0
    3.2689    1.1458    0.9788 F   0  0  0  0  0  0  0  0  0  0  0  0
   -3.2205    1.2213    1.0095 O   0  0  0  0  0  0  0  0  0  0  0  0
   -3.5572    0.1860    1.9401 C   0  0  0  0  0  0  0  0  0  0  0  0
   -4.6127    0.3307    2.1676 H   0  0  0  0  0  0  0  0  0  0  0  0
   -2.9661    0.2753    2.8570 H   0  0  0  0  0  0  0  0  0  0  0  0
   -3.4072   -0.8039    1.4969 H   0  0  0  0  0  0  0  0  0  0  0  0
  1  7  1  0  0  0  0
  2  1  2  0  0  0  0
  3  2  1  0  0  0  0
  4  3  2  0  0  0  0
  4  5  1  0  0  0  0
  5  6  2  0  0  0  0
  6  1  1  0  0  0  0
  6 18  1  0  0  0  0
  8 14  1  0  0  0  0
  9  4  1  0  0  0  0
 10  5  1  0  0  0  0
 11  3  1  0  0  0  0
 12 11  1  0  0  0  0
 13 15  1  0  0  0  0
 16 13  1  0  0  0  0
 17 13  1  0  0  0  0
 18 19  1  0  0  0  0
 19 20  1  0  0  0  0
 19 21  1  0  0  0  0
 22 19  1  0  0  0  0
M  RAD  3   2   2  11   2  12   3
M  END
