Coordinates from ORCA-job p-CH3O-Ph-N2-X-BF4-B3LYPG-6-31G_dp-scan-d09-49-n400
 OpenBabel08281820543D

 22 21  0  0  0  0  0  0  0  0999 V2000
   -1.1289    1.1354    1.7503 C   0  0  0  0  0  0  0  0  0  0  0  0
    0.1944    1.5361    1.6884 C   0  0  0  0  0  0  0  0  0  0  0  0
    0.7411    1.8393    0.4347 C   0  0  0  0  0  0  0  0  0  0  0  0
    0.0256    1.6926   -0.7677 C   0  0  0  0  0  0  0  0  0  0  0  0
   -1.2905    1.2957   -0.6894 C   0  0  0  0  0  0  0  0  0  0  0  0
   -1.8810    1.0172    0.5636 C   0  0  0  0  0  0  0  0  0  0  0  0
   -1.5604    0.8915    2.7121 H   0  0  0  0  0  0  0  0  0  0  0  0
    0.8133    1.5838    2.5753 H   0  0  0  0  0  0  0  0  0  0  0  0
    0.5208    1.8540   -1.7160 H   0  0  0  0  0  0  0  0  0  0  0  0
   -1.8880    1.1607   -1.5833 H   0  0  0  0  0  0  0  0  0  0  0  0
    2.0471    2.2589    0.3753 N   0  0  0  0  0  0  0  0  0  0  0  0
    3.0816    2.6690    0.3299 N   0  0  0  0  0  0  0  0  0  0  0  0
    3.2693   -0.3113    0.0625 B   0  0  0  0  0  0  0  0  0  0  0  0
    2.4172    0.1300   -0.9984 F   0  0  0  0  0  0  0  0  0  0  0  0
    3.5754   -1.6420   -0.0705 F   0  0  0  0  0  0  0  0  0  0  0  0
    4.4114    0.5118    0.0585 F   0  0  0  0  0  0  0  0  0  0  0  0
    2.5673   -0.0642    1.2846 F   0  0  0  0  0  0  0  0  0  0  0  0
   -3.1653    0.6331    0.5175 O   0  0  0  0  0  0  0  0  0  0  0  0
   -3.8407    0.2847    1.7289 C   0  0  0  0  0  0  0  0  0  0  0  0
   -4.8489    0.0008    1.4301 H   0  0  0  0  0  0  0  0  0  0  0  0
   -3.8882    1.1389    2.4134 H   0  0  0  0  0  0  0  0  0  0  0  0
   -3.3525   -0.5625    2.2218 H   0  0  0  0  0  0  0  0  0  0  0  0
  1  7  1  0  0  0  0
  2  1  1  0  0  0  0
  2  8  1  0  0  0  0
  3  2  2  0  0  0  0
  4  5  2  0  0  0  0
  4  3  1  0  0  0  0
  5  6  1  0  0  0  0
  6  1  2  0  0  0  0
  9  4  1  0  0  0  0
 10  5  1  0  0  0  0
 11  3  1  0  0  0  0
 12 11  1  0  0  0  0
 13 17  1  0  0  0  0
 14 13  1  0  0  0  0
 15 13  1  0  0  0  0
 16 13  1  0  0  0  0
 18  6  1  0  0  0  0
 18 19  1  0  0  0  0
 19 22  1  0  0  0  0
 19 21  1  0  0  0  0
 20 19  1  0  0  0  0
M  RAD  2  11   2  12   3
M  END
