Coordinates from ORCA-job p-CH3O-Ph-N2-X-BF4-B3LYPG-6-31G_dp-scan-d09-49-n400
 OpenBabel08281820543D

 22 21  0  0  0  0  0  0  0  0999 V2000
   -1.0831    0.9315    1.5882 C   0  0  0  0  0  0  0  0  0  0  0  0
    0.2589    1.2360    1.4325 C   0  0  0  0  0  0  0  0  0  0  0  0
    0.6795    1.7585    0.1994 C   0  0  0  0  0  0  0  0  0  0  0  0
   -0.2078    1.9827   -0.8739 C   0  0  0  0  0  0  0  0  0  0  0  0
   -1.5361    1.6635   -0.7028 C   0  0  0  0  0  0  0  0  0  0  0  0
   -1.9868    1.1312    0.5264 C   0  0  0  0  0  0  0  0  0  0  0  0
   -1.4165    0.5225    2.5330 H   0  0  0  0  0  0  0  0  0  0  0  0
    0.9815    1.0533    2.2161 H   0  0  0  0  0  0  0  0  0  0  0  0
    0.1584    2.3798   -1.8135 H   0  0  0  0  0  0  0  0  0  0  0  0
   -2.2544    1.8052   -1.5017 H   0  0  0  0  0  0  0  0  0  0  0  0
    1.9936    2.1173    0.0090 N   0  0  0  0  0  0  0  0  0  0  0  0
    3.0174    2.5007   -0.2075 N   0  0  0  0  0  0  0  0  0  0  0  0
    3.4909   -0.3362    0.4725 B   0  0  0  0  0  0  0  0  0  0  0  0
    2.5673   -0.3528   -0.6026 F   0  0  0  0  0  0  0  0  0  0  0  0
    3.9433   -1.5944    0.7777 F   0  0  0  0  0  0  0  0  0  0  0  0
    4.5343    0.5499    0.1391 F   0  0  0  0  0  0  0  0  0  0  0  0
    2.8092    0.2409    1.6045 F   0  0  0  0  0  0  0  0  0  0  0  0
   -3.2964    0.8492    0.5815 O   0  0  0  0  0  0  0  0  0  0  0  0
   -3.8404    0.2643    1.7697 C   0  0  0  0  0  0  0  0  0  0  0  0
   -4.8993    0.1142    1.5623 H   0  0  0  0  0  0  0  0  0  0  0  0
   -3.7254    0.9360    2.6273 H   0  0  0  0  0  0  0  0  0  0  0  0
   -3.3680   -0.6997    1.9839 H   0  0  0  0  0  0  0  0  0  0  0  0
  1  7  1  0  0  0  0
  2  1  1  0  0  0  0
  2  8  1  0  0  0  0
  3  2  2  0  0  0  0
  4  5  2  0  0  0  0
  4  3  1  0  0  0  0
  5  6  1  0  0  0  0
  6 18  1  0  0  0  0
  6  1  2  0  0  0  0
  9  4  1  0  0  0  0
 10  5  1  0  0  0  0
 11  3  1  0  0  0  0
 12 11  1  0  0  0  0
 13 15  1  0  0  0  0
 13 17  1  0  0  0  0
 14 13  1  0  0  0  0
 16 13  1  0  0  0  0
 18 19  1  0  0  0  0
 19 22  1  0  0  0  0
 19 21  1  0  0  0  0
 20 19  1  0  0  0  0
M  RAD  2  11   2  12   3
M  END
