Coordinates from ORCA-job p-CH3O-Ph-N2-X-BF4-B3LYPG-6-31G_dp-scan-d09-49-n400
 OpenBabel08281820543D

 22 21  0  0  0  0  0  0  0  0999 V2000
   -1.0901    0.9353    1.5992 C   0  0  0  0  0  0  0  0  0  0  0  0
    0.2515    1.2435    1.4487 C   0  0  0  0  0  0  0  0  0  0  0  0
    0.6800    1.7485    0.2114 C   0  0  0  0  0  0  0  0  0  0  0  0
   -0.1964    1.9430   -0.8759 C   0  0  0  0  0  0  0  0  0  0  0  0
   -1.5241    1.6177   -0.7111 C   0  0  0  0  0  0  0  0  0  0  0  0
   -1.9849    1.1128    0.5259 C   0  0  0  0  0  0  0  0  0  0  0  0
   -1.4301    0.5418    2.5482 H   0  0  0  0  0  0  0  0  0  0  0  0
    0.9684    1.0770    2.2410 H   0  0  0  0  0  0  0  0  0  0  0  0
    0.1772    2.3228   -1.8197 H   0  0  0  0  0  0  0  0  0  0  0  0
   -2.2353    1.7372   -1.5201 H   0  0  0  0  0  0  0  0  0  0  0  0
    1.9903    2.1285    0.0409 N   0  0  0  0  0  0  0  0  0  0  0  0
    3.0147    2.5221   -0.1544 N   0  0  0  0  0  0  0  0  0  0  0  0
    3.4990   -0.3312    0.4370 B   0  0  0  0  0  0  0  0  0  0  0  0
    2.6269   -0.2906   -0.6801 F   0  0  0  0  0  0  0  0  0  0  0  0
    3.9942   -1.5919    0.6531 F   0  0  0  0  0  0  0  0  0  0  0  0
    4.5216    0.6197    0.2287 F   0  0  0  0  0  0  0  0  0  0  0  0
    2.7436    0.1189    1.5755 F   0  0  0  0  0  0  0  0  0  0  0  0
   -3.2954    0.8335    0.5770 O   0  0  0  0  0  0  0  0  0  0  0  0
   -3.8525    0.2934    1.7801 C   0  0  0  0  0  0  0  0  0  0  0  0
   -4.9118    0.1481    1.5714 H   0  0  0  0  0  0  0  0  0  0  0  0
   -3.7348    0.9916    2.6159 H   0  0  0  0  0  0  0  0  0  0  0  0
   -3.3921   -0.6681    2.0287 H   0  0  0  0  0  0  0  0  0  0  0  0
  1  7  1  0  0  0  0
  2  1  1  0  0  0  0
  2  8  1  0  0  0  0
  3  2  2  0  0  0  0
  4  5  2  0  0  0  0
  4  3  1  0  0  0  0
  5  6  1  0  0  0  0
  6 18  1  0  0  0  0
  6  1  2  0  0  0  0
  9  4  1  0  0  0  0
 10  5  1  0  0  0  0
 11  3  1  0  0  0  0
 12 11  1  0  0  0  0
 13 15  1  0  0  0  0
 13 17  1  0  0  0  0
 14 13  1  0  0  0  0
 16 13  1  0  0  0  0
 18 19  1  0  0  0  0
 19 22  1  0  0  0  0
 19 21  1  0  0  0  0
 20 19  1  0  0  0  0
M  RAD  2  11   2  12   3
M  END
