Coordinates from ORCA-job p-CH3O-Ph-N2-X-BF4-B3LYPG-6-31G_dp-scan-d09-49-n400
 OpenBabel08281820543D

 22 21  0  0  0  0  0  0  0  0999 V2000
   -1.0789    0.8419    1.5173 C   0  0  0  0  0  0  0  0  0  0  0  0
    0.2672    1.1042    1.3230 C   0  0  0  0  0  0  0  0  0  0  0  0
    0.6539    1.7092    0.1162 C   0  0  0  0  0  0  0  0  0  0  0  0
   -0.2718    2.0546   -0.8923 C   0  0  0  0  0  0  0  0  0  0  0  0
   -1.6032    1.7749   -0.6839 C   0  0  0  0  0  0  0  0  0  0  0  0
   -2.0205    1.1631    0.5204 C   0  0  0  0  0  0  0  0  0  0  0  0
   -1.3872    0.3732    2.4427 H   0  0  0  0  0  0  0  0  0  0  0  0
    1.0214    0.8384    2.0539 H   0  0  0  0  0  0  0  0  0  0  0  0
    0.0673    2.5170   -1.8123 H   0  0  0  0  0  0  0  0  0  0  0  0
   -2.3504    2.0113   -1.4323 H   0  0  0  0  0  0  0  0  0  0  0  0
    1.9700    2.0362   -0.1173 N   0  0  0  0  0  0  0  0  0  0  0  0
    2.9897    2.4068   -0.3744 N   0  0  0  0  0  0  0  0  0  0  0  0
    3.5775   -0.3093    0.6098 B   0  0  0  0  0  0  0  0  0  0  0  0
    2.6013   -0.4829   -0.4028 F   0  0  0  0  0  0  0  0  0  0  0  0
    4.1135   -1.5042    1.0153 F   0  0  0  0  0  0  0  0  0  0  0  0
    4.5543    0.5865    0.1261 F   0  0  0  0  0  0  0  0  0  0  0  0
    2.9267    0.3531    1.7122 F   0  0  0  0  0  0  0  0  0  0  0  0
   -3.3373    0.9313    0.6160 O   0  0  0  0  0  0  0  0  0  0  0  0
   -3.8550    0.2832    1.7832 C   0  0  0  0  0  0  0  0  0  0  0  0
   -4.9271    0.1899    1.6132 H   0  0  0  0  0  0  0  0  0  0  0  0
   -3.6764    0.8865    2.6798 H   0  0  0  0  0  0  0  0  0  0  0  0
   -3.4148   -0.7114    1.9077 H   0  0  0  0  0  0  0  0  0  0  0  0
  1  7  1  0  0  0  0
  2  1  1  0  0  0  0
  2  8  1  0  0  0  0
  3  2  2  0  0  0  0
  4  5  2  0  0  0  0
  4  3  1  0  0  0  0
  5  6  1  0  0  0  0
  6 18  1  0  0  0  0
  6  1  2  0  0  0  0
  9  4  1  0  0  0  0
 10  5  1  0  0  0  0
 11  3  1  0  0  0  0
 12 11  1  0  0  0  0
 13 15  1  0  0  0  0
 13 17  1  0  0  0  0
 14 13  1  0  0  0  0
 16 13  1  0  0  0  0
 18 19  1  0  0  0  0
 19 22  1  0  0  0  0
 19 21  1  0  0  0  0
 20 19  1  0  0  0  0
M  RAD  2  11   2  12   3
M  END
