Coordinates from ORCA-job p-CH3O-Ph-N2-X-BF4-B3LYPG-6-31G_dp-scan-d09-49-n400
 OpenBabel08281820543D

 22 21  0  0  0  0  0  0  0  0999 V2000
   -1.0822    0.9247    1.5828 C   0  0  0  0  0  0  0  0  0  0  0  0
    0.2602    1.2259    1.4242 C   0  0  0  0  0  0  0  0  0  0  0  0
    0.6778    1.7554    0.1929 C   0  0  0  0  0  0  0  0  0  0  0  0
   -0.2133    1.9903   -0.8752 C   0  0  0  0  0  0  0  0  0  0  0  0
   -1.5418    1.6744   -0.7012 C   0  0  0  0  0  0  0  0  0  0  0  0
   -1.9895    1.1346    0.5260 C   0  0  0  0  0  0  0  0  0  0  0  0
   -1.4134    0.5104    2.5261 H   0  0  0  0  0  0  0  0  0  0  0  0
    0.9858    1.0359    2.2035 H   0  0  0  0  0  0  0  0  0  0  0  0
    0.1504    2.3934   -1.8133 H   0  0  0  0  0  0  0  0  0  0  0  0
   -2.2630    1.8245   -1.4961 H   0  0  0  0  0  0  0  0  0  0  0  0
    1.9922    2.1110   -0.0020 N   0  0  0  0  0  0  0  0  0  0  0  0
    3.0152    2.4938   -0.2235 N   0  0  0  0  0  0  0  0  0  0  0  0
    3.4970   -0.3348    0.4848 B   0  0  0  0  0  0  0  0  0  0  0  0
    2.5650   -0.3670   -0.5827 F   0  0  0  0  0  0  0  0  0  0  0  0
    3.9541   -1.5882    0.8023 F   0  0  0  0  0  0  0  0  0  0  0  0
    4.5358    0.5490    0.1321 F   0  0  0  0  0  0  0  0  0  0  0  0
    2.8228    0.2554    1.6148 F   0  0  0  0  0  0  0  0  0  0  0  0
   -3.2997    0.8561    0.5839 O   0  0  0  0  0  0  0  0  0  0  0  0
   -3.8410    0.2640    1.7698 C   0  0  0  0  0  0  0  0  0  0  0  0
   -4.9009    0.1179    1.5650 H   0  0  0  0  0  0  0  0  0  0  0  0
   -3.7214    0.9293    2.6318 H   0  0  0  0  0  0  0  0  0  0  0  0
   -3.3702   -0.7026    1.9755 H   0  0  0  0  0  0  0  0  0  0  0  0
  1  7  1  0  0  0  0
  2  1  1  0  0  0  0
  2  8  1  0  0  0  0
  3  2  2  0  0  0  0
  4  5  2  0  0  0  0
  4  3  1  0  0  0  0
  5  6  1  0  0  0  0
  6 18  1  0  0  0  0
  6  1  2  0  0  0  0
  9  4  1  0  0  0  0
 10  5  1  0  0  0  0
 11  3  1  0  0  0  0
 12 11  1  0  0  0  0
 13 15  1  0  0  0  0
 13 17  1  0  0  0  0
 14 13  1  0  0  0  0
 16 13  1  0  0  0  0
 18 19  1  0  0  0  0
 19 22  1  0  0  0  0
 19 21  1  0  0  0  0
 20 19  1  0  0  0  0
M  RAD  2  11   2  12   3
M  END
