Coordinates from ORCA-job p-CH3O-Ph-N2-X-BF4-B3LYPG-6-31G_dp-scan-d09-49-n400
 OpenBabel08281820543D

 22 21  0  0  0  0  0  0  0  0999 V2000
   -1.0890    0.4000    1.0409 C   0  0  0  0  0  0  0  0  0  0  0  0
    0.2309    0.4943    0.6327 C   0  0  0  0  0  0  0  0  0  0  0  0
    0.5683    1.5081   -0.2819 C   0  0  0  0  0  0  0  0  0  0  0  0
   -0.3821    2.4240   -0.7876 C   0  0  0  0  0  0  0  0  0  0  0  0
   -1.6857    2.3188   -0.3610 C   0  0  0  0  0  0  0  0  0  0  0  0
   -2.0528    1.3060    0.5570 C   0  0  0  0  0  0  0  0  0  0  0  0
   -1.3589   -0.3778    1.7437 H   0  0  0  0  0  0  0  0  0  0  0  0
    0.9936   -0.1799    0.9985 H   0  0  0  0  0  0  0  0  0  0  0  0
   -0.0825    3.1925   -1.4918 H   0  0  0  0  0  0  0  0  0  0  0  0
   -2.4510    2.9997   -0.7147 H   0  0  0  0  0  0  0  0  0  0  0  0
    1.8557    1.6190   -0.7463 N   0  0  0  0  0  0  0  0  0  0  0  0
    2.8749    1.7282   -1.1909 N   0  0  0  0  0  0  0  0  0  0  0  0
    3.7145   -0.0532    1.2274 B   0  0  0  0  0  0  0  0  0  0  0  0
    2.9472   -1.2316    1.1415 F   0  0  0  0  0  0  0  0  0  0  0  0
    4.6979   -0.1479    2.1808 F   0  0  0  0  0  0  0  0  0  0  0  0
    4.2642    0.2266   -0.0559 F   0  0  0  0  0  0  0  0  0  0  0  0
    2.8189    1.0241    1.5323 F   0  0  0  0  0  0  0  0  0  0  0  0
   -3.3465    1.2931    0.9023 O   0  0  0  0  0  0  0  0  0  0  0  0
   -3.8199    0.3062    1.8264 C   0  0  0  0  0  0  0  0  0  0  0  0
   -4.8830    0.5095    1.9501 H   0  0  0  0  0  0  0  0  0  0  0  0
   -3.3126    0.3973    2.7922 H   0  0  0  0  0  0  0  0  0  0  0  0
   -3.6820   -0.7036    1.4258 H   0  0  0  0  0  0  0  0  0  0  0  0
  1  7  1  0  0  0  0
  2  8  1  0  0  0  0
  2  1  1  0  0  0  0
  3  2  2  0  0  0  0
  4  5  2  0  0  0  0
  4  3  1  0  0  0  0
  5  6  1  0  0  0  0
  6 18  1  0  0  0  0
  6  1  2  0  0  0  0
  9  4  1  0  0  0  0
 10  5  1  0  0  0  0
 11  3  1  0  0  0  0
 12 11  1  0  0  0  0
 13 17  1  0  0  0  0
 13 15  1  0  0  0  0
 14 13  1  0  0  0  0
 16 13  1  0  0  0  0
 18 19  1  0  0  0  0
 19 20  1  0  0  0  0
 19 21  1  0  0  0  0
 22 19  1  0  0  0  0
M  RAD  2  11   2  12   3
M  END
