Coordinates from ORCA-job p-CH3O-Ph-N2-X-BF4-B3LYPG-6-31G_dp-scan-d09-49-n400
 OpenBabel08281820543D

 22 21  0  0  0  0  0  0  0  0999 V2000
   -1.1542    1.1680    1.7753 C   0  0  0  0  0  0  0  0  0  0  0  0
    0.1685    1.5730    1.7280 C   0  0  0  0  0  0  0  0  0  0  0  0
    0.7450    1.8268    0.4770 C   0  0  0  0  0  0  0  0  0  0  0  0
    0.0582    1.6325   -0.7356 C   0  0  0  0  0  0  0  0  0  0  0  0
   -1.2588    1.2364   -0.6718 C   0  0  0  0  0  0  0  0  0  0  0  0
   -1.8779    1.0025    0.5765 C   0  0  0  0  0  0  0  0  0  0  0  0
   -1.6076    0.9609    2.7357 H   0  0  0  0  0  0  0  0  0  0  0  0
    0.7645    1.6631    2.6275 H   0  0  0  0  0  0  0  0  0  0  0  0
    0.5786    1.7534   -1.6760 H   0  0  0  0  0  0  0  0  0  0  0  0
   -1.8350    1.0658   -1.5735 H   0  0  0  0  0  0  0  0  0  0  0  0
    2.0510    2.2491    0.4370 N   0  0  0  0  0  0  0  0  0  0  0  0
    3.0853    2.6617    0.4151 N   0  0  0  0  0  0  0  0  0  0  0  0
    3.2808   -0.2980   -0.0174 B   0  0  0  0  0  0  0  0  0  0  0  0
    2.4227    0.1909   -1.0549 F   0  0  0  0  0  0  0  0  0  0  0  0
    3.5901   -1.6197   -0.2164 F   0  0  0  0  0  0  0  0  0  0  0  0
    4.4201    0.5286    0.0088 F   0  0  0  0  0  0  0  0  0  0  0  0
    2.5818   -0.1106    1.2140 F   0  0  0  0  0  0  0  0  0  0  0  0
   -3.1596    0.6120    0.5146 O   0  0  0  0  0  0  0  0  0  0  0  0
   -3.8617    0.3018    1.7208 C   0  0  0  0  0  0  0  0  0  0  0  0
   -4.8606    0.0004    1.4082 H   0  0  0  0  0  0  0  0  0  0  0  0
   -3.9313    1.1790    2.3735 H   0  0  0  0  0  0  0  0  0  0  0  0
   -3.3801   -0.5241    2.2549 H   0  0  0  0  0  0  0  0  0  0  0  0
  1  7  1  0  0  0  0
  2  1  1  0  0  0  0
  2  8  1  0  0  0  0
  3  2  2  0  0  0  0
  4  5  2  0  0  0  0
  4  3  1  0  0  0  0
  5  6  1  0  0  0  0
  6  1  2  0  0  0  0
  9  4  1  0  0  0  0
 10  5  1  0  0  0  0
 11  3  1  0  0  0  0
 12 11  1  0  0  0  0
 13 16  1  0  0  0  0
 13 17  1  0  0  0  0
 14 13  1  0  0  0  0
 15 13  1  0  0  0  0
 18  6  1  0  0  0  0
 18 19  1  0  0  0  0
 19 22  1  0  0  0  0
 19 21  1  0  0  0  0
 20 19  1  0  0  0  0
M  RAD  2  11   2  12   3
M  END
