Coordinates from ORCA-job p-CH3O-Ph-N2-X-BF4-B3LYPG-6-31G_dp-scan-d09-49-n400
 OpenBabel08281820543D

 22 21  0  0  0  0  0  0  0  0999 V2000
   -1.4538    1.4890    1.9141 C   0  0  0  0  0  0  0  0  0  0  0  0
   -0.0992    1.7135    2.0764 C   0  0  0  0  0  0  0  0  0  0  0  0
    0.7989    1.1004    1.1811 C   0  0  0  0  0  0  0  0  0  0  0  0
    0.3784    0.2447    0.1399 C   0  0  0  0  0  0  0  0  0  0  0  0
   -0.9765    0.0305    0.0037 C   0  0  0  0  0  0  0  0  0  0  0  0
   -1.9022    0.6496    0.8701 C   0  0  0  0  0  0  0  0  0  0  0  0
   -2.1528    1.9613    2.5918 H   0  0  0  0  0  0  0  0  0  0  0  0
    0.2594    2.3509    2.8790 H   0  0  0  0  0  0  0  0  0  0  0  0
    1.1296   -0.2191   -0.4924 H   0  0  0  0  0  0  0  0  0  0  0  0
   -1.3575   -0.6165   -0.7787 H   0  0  0  0  0  0  0  0  0  0  0  0
    2.1372    1.3513    1.3624 N   0  0  0  0  0  0  0  0  0  0  0  0
    3.2083    1.5884    1.5751 N   0  0  0  0  0  0  0  0  0  0  0  0
    3.5586    0.5476   -1.2321 B   0  0  0  0  0  0  0  0  0  0  0  0
    2.5030    1.4957   -1.3002 F   0  0  0  0  0  0  0  0  0  0  0  0
    4.1140    0.3170   -2.4643 F   0  0  0  0  0  0  0  0  0  0  0  0
    4.5142    1.0353   -0.3054 F   0  0  0  0  0  0  0  0  0  0  0  0
    2.9983   -0.6446   -0.6804 F   0  0  0  0  0  0  0  0  0  0  0  0
   -3.1917    0.3753    0.6295 O   0  0  0  0  0  0  0  0  0  0  0  0
   -4.2073    0.9670    1.4437 C   0  0  0  0  0  0  0  0  0  0  0  0
   -5.1520    0.6034    1.0417 H   0  0  0  0  0  0  0  0  0  0  0  0
   -4.1775    2.0602    1.3782 H   0  0  0  0  0  0  0  0  0  0  0  0
   -4.1094    0.6525    2.4883 H   0  0  0  0  0  0  0  0  0  0  0  0
  1  2  1  0  0  0  0
  1  7  1  0  0  0  0
  2  8  1  0  0  0  0
  3 11  1  0  0  0  0
  3  2  2  0  0  0  0
  4  3  1  0  0  0  0
  5  4  2  0  0  0  0
  5  6  1  0  0  0  0
  6  1  2  0  0  0  0
  9  4  1  0  0  0  0
 10  5  1  0  0  0  0
 11 12  1  0  0  0  0
 13 17  1  0  0  0  0
 13 16  1  0  0  0  0
 14 13  1  0  0  0  0
 15 13  1  0  0  0  0
 18  6  1  0  0  0  0
 18 19  1  0  0  0  0
 19 22  1  0  0  0  0
 20 19  1  0  0  0  0
 21 19  1  0  0  0  0
M  RAD  2  11   2  12   3
M  END
