Coordinates from ORCA-job p-CH3O-Ph-N2-X-BF4-B3LYPG-6-31G_dp-scan-d09-49-n400
 OpenBabel08281820543D

 22 21  0  0  0  0  0  0  0  0999 V2000
   -1.0232    0.3743    0.9908 C   0  0  0  0  0  0  0  0  0  0  0  0
    0.2865    0.4713    0.5492 C   0  0  0  0  0  0  0  0  0  0  0  0
    0.5894    1.5050   -0.3579 C   0  0  0  0  0  0  0  0  0  0  0  0
   -0.3715    2.4287   -0.8294 C   0  0  0  0  0  0  0  0  0  0  0  0
   -1.6620    2.3130   -0.3697 C   0  0  0  0  0  0  0  0  0  0  0  0
   -1.9993    1.2875    0.5477 C   0  0  0  0  0  0  0  0  0  0  0  0
   -1.2760   -0.4130    1.6899 H   0  0  0  0  0  0  0  0  0  0  0  0
    1.0824   -0.2159    0.8711 H   0  0  0  0  0  0  0  0  0  0  0  0
   -0.0906    3.2085   -1.5290 H   0  0  0  0  0  0  0  0  0  0  0  0
   -2.4394    2.9956   -0.6920 H   0  0  0  0  0  0  0  0  0  0  0  0
    1.8709    1.6225   -0.8296 N   0  0  0  0  0  0  0  0  0  0  0  0
    2.9068    1.7072   -1.2392 N   0  0  0  0  0  0  0  0  0  0  0  0
    3.5386    0.0076    1.3043 B   0  0  0  0  0  0  0  0  0  0  0  0
    2.5561   -1.0242    1.1386 F   0  0  0  0  0  0  0  0  0  0  0  0
    4.4033   -0.2980    2.3213 F   0  0  0  0  0  0  0  0  0  0  0  0
    4.2058    0.1694    0.0673 F   0  0  0  0  0  0  0  0  0  0  0  0
    2.8220    1.2067    1.5671 F   0  0  0  0  0  0  0  0  0  0  0  0
   -3.2826    1.2731    0.9318 O   0  0  0  0  0  0  0  0  0  0  0  0
   -3.7256    0.2872    1.8714 C   0  0  0  0  0  0  0  0  0  0  0  0
   -4.7830    0.4934    2.0330 H   0  0  0  0  0  0  0  0  0  0  0  0
   -3.1836    0.3764    2.8183 H   0  0  0  0  0  0  0  0  0  0  0  0
   -3.6049   -0.7230    1.4664 H   0  0  0  0  0  0  0  0  0  0  0  0
  1  7  1  0  0  0  0
  2  8  1  0  0  0  0
  2  1  1  0  0  0  0
  3  2  2  0  0  0  0
  4  5  2  0  0  0  0
  4  3  1  0  0  0  0
  5  6  1  0  0  0  0
  6 18  1  0  0  0  0
  6  1  2  0  0  0  0
  9  4  1  0  0  0  0
 10  5  1  0  0  0  0
 11  3  1  0  0  0  0
 12 11  1  0  0  0  0
 13 17  1  0  0  0  0
 13 15  1  0  0  0  0
 14 13  1  0  0  0  0
 16 13  1  0  0  0  0
 18 19  1  0  0  0  0
 19 20  1  0  0  0  0
 19 21  1  0  0  0  0
 22 19  1  0  0  0  0
M  RAD  2  11   2  12   3
M  END
