Coordinates from ORCA-job p-CH3O-Ph-N2-X-BF4-B3LYPG-6-31G_dp-scan-d09-49-n400
 OpenBabel08281820543D

 22 21  0  0  0  0  0  0  0  0999 V2000
   -1.0276    0.7431    1.3770 C   0  0  0  0  0  0  0  0  0  0  0  0
    0.3093    0.9746    1.0995 C   0  0  0  0  0  0  0  0  0  0  0  0
    0.6223    1.6915   -0.0685 C   0  0  0  0  0  0  0  0  0  0  0  0
   -0.3632    2.1760   -0.9575 C   0  0  0  0  0  0  0  0  0  0  0  0
   -1.6843    1.9238   -0.6673 C   0  0  0  0  0  0  0  0  0  0  0  0
   -2.0297    1.2035    0.5009 C   0  0  0  0  0  0  0  0  0  0  0  0
   -1.2824    0.1936    2.2739 H   0  0  0  0  0  0  0  0  0  0  0  0
    1.1141    0.6274    1.7441 H   0  0  0  0  0  0  0  0  0  0  0  0
   -0.0783    2.7218   -1.8501 H   0  0  0  0  0  0  0  0  0  0  0  0
   -2.4789    2.2646   -1.3204 H   0  0  0  0  0  0  0  0  0  0  0  0
    1.9331    1.9676   -0.3707 N   0  0  0  0  0  0  0  0  0  0  0  0
    2.9733    2.2592   -0.6536 N   0  0  0  0  0  0  0  0  0  0  0  0
    3.5723   -0.2851    0.8843 B   0  0  0  0  0  0  0  0  0  0  0  0
    2.5484   -0.5158   -0.0763 F   0  0  0  0  0  0  0  0  0  0  0  0
    4.2065   -1.4497    1.2313 F   0  0  0  0  0  0  0  0  0  0  0  0
    4.4658    0.6649    0.3341 F   0  0  0  0  0  0  0  0  0  0  0  0
    2.9525    0.3236    2.0211 F   0  0  0  0  0  0  0  0  0  0  0  0
   -3.3434    1.0136    0.6839 O   0  0  0  0  0  0  0  0  0  0  0  0
   -3.7962    0.2754    1.8247 C   0  0  0  0  0  0  0  0  0  0  0  0
   -4.8824    0.2484    1.7417 H   0  0  0  0  0  0  0  0  0  0  0  0
   -3.5107    0.7766    2.7556 H   0  0  0  0  0  0  0  0  0  0  0  0
   -3.4007   -0.7452    1.8139 H   0  0  0  0  0  0  0  0  0  0  0  0
  1  7  1  0  0  0  0
  2  1  1  0  0  0  0
  2  8  1  0  0  0  0
  3  2  2  0  0  0  0
  4  5  2  0  0  0  0
  4  3  1  0  0  0  0
  5  6  1  0  0  0  0
  6 18  1  0  0  0  0
  6  1  2  0  0  0  0
  9  4  1  0  0  0  0
 10  5  1  0  0  0  0
 11  3  1  0  0  0  0
 12 11  1  0  0  0  0
 13 15  1  0  0  0  0
 13 17  1  0  0  0  0
 14 13  1  0  0  0  0
 16 13  1  0  0  0  0
 18 19  1  0  0  0  0
 19 21  1  0  0  0  0
 20 19  1  0  0  0  0
 22 19  1  0  0  0  0
M  RAD  2  11   2  12   3
M  END
