Coordinates from ORCA-job p-CH3O-Ph-N2-X-BF4-B3LYPG-6-31G_dp-scan-d09-49-n400
 OpenBabel08281820543D

 22 21  0  0  0  0  0  0  0  0999 V2000
   -0.9731    0.4063    0.9875 C   0  0  0  0  0  0  0  0  0  0  0  0
    0.3401    0.5204    0.5483 C   0  0  0  0  0  0  0  0  0  0  0  0
    0.5961    1.5574   -0.3732 C   0  0  0  0  0  0  0  0  0  0  0  0
   -0.3855    2.4577   -0.8555 C   0  0  0  0  0  0  0  0  0  0  0  0
   -1.6701    2.3128   -0.3930 C   0  0  0  0  0  0  0  0  0  0  0  0
   -1.9751    1.2847    0.5357 C   0  0  0  0  0  0  0  0  0  0  0  0
   -1.2106   -0.3755    1.6994 H   0  0  0  0  0  0  0  0  0  0  0  0
    1.2047   -0.1732    0.9175 H   0  0  0  0  0  0  0  0  0  0  0  0
   -0.1249    3.2369   -1.5640 H   0  0  0  0  0  0  0  0  0  0  0  0
   -2.4673    2.9703   -0.7194 H   0  0  0  0  0  0  0  0  0  0  0  0
    1.8720    1.7019   -0.8493 N   0  0  0  0  0  0  0  0  0  0  0  0
    2.9136    1.7934   -1.2418 N   0  0  0  0  0  0  0  0  0  0  0  0
    3.4637   -0.0166    1.3287 B   0  0  0  0  0  0  0  0  0  0  0  0
    2.2599   -0.8721    1.3297 F   0  0  0  0  0  0  0  0  0  0  0  0
    4.3189   -0.4445    2.3017 F   0  0  0  0  0  0  0  0  0  0  0  0
    4.0041   -0.0938    0.0392 F   0  0  0  0  0  0  0  0  0  0  0  0
    2.9863    1.2880    1.5503 F   0  0  0  0  0  0  0  0  0  0  0  0
   -3.2590    1.2392    0.9196 O   0  0  0  0  0  0  0  0  0  0  0  0
   -3.6749    0.2461    1.8632 C   0  0  0  0  0  0  0  0  0  0  0  0
   -4.7388    0.4203    2.0202 H   0  0  0  0  0  0  0  0  0  0  0  0
   -3.1392    0.3564    2.8115 H   0  0  0  0  0  0  0  0  0  0  0  0
   -3.5210   -0.7625    1.4651 H   0  0  0  0  0  0  0  0  0  0  0  0
  1  7  1  0  0  0  0
  2  8  1  0  0  0  0
  2  1  1  0  0  0  0
  3  2  2  0  0  0  0
  4  5  2  0  0  0  0
  4  3  1  0  0  0  0
  5  6  1  0  0  0  0
  6 18  1  0  0  0  0
  6  1  2  0  0  0  0
  9  4  1  0  0  0  0
 10  5  1  0  0  0  0
 11  3  1  0  0  0  0
 12 11  1  0  0  0  0
 13 14  1  0  0  0  0
 13 17  1  0  0  0  0
 13 15  1  0  0  0  0
 16 13  1  0  0  0  0
 18 19  1  0  0  0  0
 19 20  1  0  0  0  0
 19 21  1  0  0  0  0
 22 19  1  0  0  0  0
M  RAD  2  11   2  12   3
M  END
