Coordinates from ORCA-job p-CH3O-Ph-N2-X-BF4-B3LYPG-6-31G_dp-scan-d09-49-n400
 OpenBabel08281820543D

 22 21  0  0  0  0  0  0  0  0999 V2000
   -1.0953    0.9498    1.6131 C   0  0  0  0  0  0  0  0  0  0  0  0
    0.2464    1.2614    1.4698 C   0  0  0  0  0  0  0  0  0  0  0  0
    0.6834    1.7511    0.2295 C   0  0  0  0  0  0  0  0  0  0  0  0
   -0.1843    1.9265   -0.8678 C   0  0  0  0  0  0  0  0  0  0  0  0
   -1.5122    1.5985   -0.7100 C   0  0  0  0  0  0  0  0  0  0  0  0
   -1.9815    1.1084    0.5297 C   0  0  0  0  0  0  0  0  0  0  0  0
   -1.4420    0.5678    2.5644 H   0  0  0  0  0  0  0  0  0  0  0  0
    0.9543    1.1116    2.2733 H   0  0  0  0  0  0  0  0  0  0  0  0
    0.1967    2.2933   -1.8137 H   0  0  0  0  0  0  0  0  0  0  0  0
   -2.2167    1.7036   -1.5268 H   0  0  0  0  0  0  0  0  0  0  0  0
    1.9936    2.1331    0.0637 N   0  0  0  0  0  0  0  0  0  0  0  0
    3.0175    2.5301   -0.1270 N   0  0  0  0  0  0  0  0  0  0  0  0
    3.4943   -0.3323    0.4068 B   0  0  0  0  0  0  0  0  0  0  0  0
    2.6399   -0.2760   -0.7225 F   0  0  0  0  0  0  0  0  0  0  0  0
    3.9845   -1.5964    0.6155 F   0  0  0  0  0  0  0  0  0  0  0  0
    4.5216    0.6196    0.2272 F   0  0  0  0  0  0  0  0  0  0  0  0
    2.7218    0.1043    1.5395 F   0  0  0  0  0  0  0  0  0  0  0  0
   -3.2912    0.8239    0.5730 O   0  0  0  0  0  0  0  0  0  0  0  0
   -3.8560    0.2941    1.7770 C   0  0  0  0  0  0  0  0  0  0  0  0
   -4.9127    0.1416    1.5608 H   0  0  0  0  0  0  0  0  0  0  0  0
   -3.7488    1.0017    2.6064 H   0  0  0  0  0  0  0  0  0  0  0  0
   -3.3934   -0.6625    2.0397 H   0  0  0  0  0  0  0  0  0  0  0  0
  1  7  1  0  0  0  0
  2  1  1  0  0  0  0
  2  8  1  0  0  0  0
  3  2  2  0  0  0  0
  4  5  2  0  0  0  0
  4  3  1  0  0  0  0
  5  6  1  0  0  0  0
  6 18  1  0  0  0  0
  6  1  2  0  0  0  0
  9  4  1  0  0  0  0
 10  5  1  0  0  0  0
 11  3  1  0  0  0  0
 12 11  1  0  0  0  0
 13 15  1  0  0  0  0
 13 17  1  0  0  0  0
 14 13  1  0  0  0  0
 16 13  1  0  0  0  0
 18 19  1  0  0  0  0
 19 22  1  0  0  0  0
 19 21  1  0  0  0  0
 20 19  1  0  0  0  0
M  RAD  2  11   2  12   3
M  END
