Coordinates from ORCA-job p-CH3O-Ph-N2-X-BF4-B3LYPG-6-31G_dp-scan-d09-49-n400
 OpenBabel08281820543D

 22 21  0  0  0  0  0  0  0  0999 V2000
   -1.1806    1.1955    1.7950 C   0  0  0  0  0  0  0  0  0  0  0  0
    0.1428    1.6000    1.7588 C   0  0  0  0  0  0  0  0  0  0  0  0
    0.7458    1.8052    0.5117 C   0  0  0  0  0  0  0  0  0  0  0  0
    0.0819    1.5722   -0.7070 C   0  0  0  0  0  0  0  0  0  0  0  0
   -1.2372    1.1807   -0.6541 C   0  0  0  0  0  0  0  0  0  0  0  0
   -1.8809    0.9890    0.5886 C   0  0  0  0  0  0  0  0  0  0  0  0
   -1.6535    1.0246    2.7532 H   0  0  0  0  0  0  0  0  0  0  0  0
    0.7174    1.7295    2.6672 H   0  0  0  0  0  0  0  0  0  0  0  0
    0.6240    1.6564   -1.6385 H   0  0  0  0  0  0  0  0  0  0  0  0
   -1.7965    0.9813   -1.5606 H   0  0  0  0  0  0  0  0  0  0  0  0
    2.0518    2.2299    0.4893 N   0  0  0  0  0  0  0  0  0  0  0  0
    3.0849    2.6461    0.4951 N   0  0  0  0  0  0  0  0  0  0  0  0
    3.3088   -0.2820   -0.0900 B   0  0  0  0  0  0  0  0  0  0  0  0
    2.4501    0.2516   -1.1078 F   0  0  0  0  0  0  0  0  0  0  0  0
    3.6332   -1.5876   -0.3584 F   0  0  0  0  0  0  0  0  0  0  0  0
    4.4379    0.5547   -0.0176 F   0  0  0  0  0  0  0  0  0  0  0  0
    2.5993   -0.1658    1.1416 F   0  0  0  0  0  0  0  0  0  0  0  0
   -3.1617    0.5975    0.5154 O   0  0  0  0  0  0  0  0  0  0  0  0
   -3.8861    0.3245    1.7172 C   0  0  0  0  0  0  0  0  0  0  0  0
   -4.8789    0.0127    1.3956 H   0  0  0  0  0  0  0  0  0  0  0  0
   -3.9683    1.2214    2.3411 H   0  0  0  0  0  0  0  0  0  0  0  0
   -3.4143   -0.4840    2.2857 H   0  0  0  0  0  0  0  0  0  0  0  0
  1  7  1  0  0  0  0
  2  1  1  0  0  0  0
  2  8  1  0  0  0  0
  3  2  2  0  0  0  0
  4  5  2  0  0  0  0
  4  3  1  0  0  0  0
  5  6  1  0  0  0  0
  6  1  2  0  0  0  0
  9  4  1  0  0  0  0
 10  5  1  0  0  0  0
 11 12  1  0  0  0  0
 11  3  1  0  0  0  0
 13 16  1  0  0  0  0
 13 17  1  0  0  0  0
 14 13  1  0  0  0  0
 15 13  1  0  0  0  0
 18  6  1  0  0  0  0
 18 19  1  0  0  0  0
 19 22  1  0  0  0  0
 19 21  1  0  0  0  0
 20 19  1  0  0  0  0
M  RAD  2  11   2  12   3
M  END
