Coordinates from ORCA-job p-CH3O-Ph-N2-X-BF4-B3LYPG-6-31G_dp-scan-d09-49-n400
 OpenBabel08281820543D

 22 21  0  0  0  0  0  0  0  0999 V2000
   -1.0770    0.3945    1.0331 C   0  0  0  0  0  0  0  0  0  0  0  0
    0.2410    0.4891    0.6183 C   0  0  0  0  0  0  0  0  0  0  0  0
    0.5732    1.5071   -0.2937 C   0  0  0  0  0  0  0  0  0  0  0  0
   -0.3786    2.4266   -0.7903 C   0  0  0  0  0  0  0  0  0  0  0  0
   -1.6797    2.3207   -0.3569 C   0  0  0  0  0  0  0  0  0  0  0  0
   -2.0424    1.3037    0.5585 C   0  0  0  0  0  0  0  0  0  0  0  0
   -1.3440   -0.3862    1.7337 H   0  0  0  0  0  0  0  0  0  0  0  0
    1.0058   -0.1903    0.9743 H   0  0  0  0  0  0  0  0  0  0  0  0
   -0.0817    3.1983   -1.4923 H   0  0  0  0  0  0  0  0  0  0  0  0
   -2.4465    3.0037   -0.7029 H   0  0  0  0  0  0  0  0  0  0  0  0
    1.8583    1.6170   -0.7634 N   0  0  0  0  0  0  0  0  0  0  0  0
    2.8787    1.7178   -1.2070 N   0  0  0  0  0  0  0  0  0  0  0  0
    3.6819   -0.0389    1.2385 B   0  0  0  0  0  0  0  0  0  0  0  0
    2.8702   -1.1912    1.1460 F   0  0  0  0  0  0  0  0  0  0  0  0
    4.6507   -0.1720    2.2019 F   0  0  0  0  0  0  0  0  0  0  0  0
    4.2535    0.2150   -0.0393 F   0  0  0  0  0  0  0  0  0  0  0  0
    2.8211    1.0662    1.5336 F   0  0  0  0  0  0  0  0  0  0  0  0
   -3.3343    1.2904    0.9105 O   0  0  0  0  0  0  0  0  0  0  0  0
   -3.8039    0.3000    1.8327 C   0  0  0  0  0  0  0  0  0  0  0  0
   -4.8661    0.5037    1.9628 H   0  0  0  0  0  0  0  0  0  0  0  0
   -3.2915    0.3864    2.7962 H   0  0  0  0  0  0  0  0  0  0  0  0
   -3.6689   -0.7082    1.4270 H   0  0  0  0  0  0  0  0  0  0  0  0
  1  7  1  0  0  0  0
  2  8  1  0  0  0  0
  2  1  1  0  0  0  0
  3  2  2  0  0  0  0
  4  5  2  0  0  0  0
  4  3  1  0  0  0  0
  5  6  1  0  0  0  0
  6 18  1  0  0  0  0
  6  1  2  0  0  0  0
  9  4  1  0  0  0  0
 10  5  1  0  0  0  0
 11  3  1  0  0  0  0
 12 11  1  0  0  0  0
 13 17  1  0  0  0  0
 13 15  1  0  0  0  0
 14 13  1  0  0  0  0
 16 13  1  0  0  0  0
 18 19  1  0  0  0  0
 19 20  1  0  0  0  0
 19 21  1  0  0  0  0
 22 19  1  0  0  0  0
M  RAD  2  11   2  12   3
M  END
