Coordinates from ORCA-job p-CH3O-Ph-N2-X-BF4-B3LYPG-6-31G_dp-scan-d09-49-n400
 OpenBabel08281820543D

 22 21  0  0  0  0  0  0  0  0999 V2000
   -1.0824    0.8631    1.5374 C   0  0  0  0  0  0  0  0  0  0  0  0
    0.2637    1.1337    1.3546 C   0  0  0  0  0  0  0  0  0  0  0  0
    0.6602    1.7181    0.1410 C   0  0  0  0  0  0  0  0  0  0  0  0
   -0.2558    2.0365   -0.8847 C   0  0  0  0  0  0  0  0  0  0  0  0
   -1.5873    1.7493   -0.6872 C   0  0  0  0  0  0  0  0  0  0  0  0
   -2.0142    1.1564    0.5229 C   0  0  0  0  0  0  0  0  0  0  0  0
   -1.3981    0.4091    2.4677 H   0  0  0  0  0  0  0  0  0  0  0  0
    1.0090    0.8866    2.1001 H   0  0  0  0  0  0  0  0  0  0  0  0
    0.0909    2.4836   -1.8093 H   0  0  0  0  0  0  0  0  0  0  0  0
   -2.3271    1.9649   -1.4493 H   0  0  0  0  0  0  0  0  0  0  0  0
    1.9761    2.0530   -0.0829 N   0  0  0  0  0  0  0  0  0  0  0  0
    2.9944    2.4306   -0.3350 N   0  0  0  0  0  0  0  0  0  0  0  0
    3.5635   -0.3159    0.5719 B   0  0  0  0  0  0  0  0  0  0  0  0
    2.5959   -0.4664   -0.4523 F   0  0  0  0  0  0  0  0  0  0  0  0
    4.0842   -1.5213    0.9663 F   0  0  0  0  0  0  0  0  0  0  0  0
    4.5524    0.5777    0.1114 F   0  0  0  0  0  0  0  0  0  0  0  0
    2.9077    0.3367    1.6788 F   0  0  0  0  0  0  0  0  0  0  0  0
   -3.3301    0.9138    0.6064 O   0  0  0  0  0  0  0  0  0  0  0  0
   -3.8559    0.2798    1.7775 C   0  0  0  0  0  0  0  0  0  0  0  0
   -4.9249    0.1733    1.5961 H   0  0  0  0  0  0  0  0  0  0  0  0
   -3.6941    0.8992    2.6664 H   0  0  0  0  0  0  0  0  0  0  0  0
   -3.4080   -0.7084    1.9235 H   0  0  0  0  0  0  0  0  0  0  0  0
  1  7  1  0  0  0  0
  2  1  1  0  0  0  0
  2  8  1  0  0  0  0
  3  2  2  0  0  0  0
  4  5  2  0  0  0  0
  4  3  1  0  0  0  0
  5  6  1  0  0  0  0
  6 18  1  0  0  0  0
  6  1  2  0  0  0  0
  9  4  1  0  0  0  0
 10  5  1  0  0  0  0
 11  3  1  0  0  0  0
 12 11  1  0  0  0  0
 13 15  1  0  0  0  0
 13 17  1  0  0  0  0
 14 13  1  0  0  0  0
 16 13  1  0  0  0  0
 18 19  1  0  0  0  0
 19 22  1  0  0  0  0
 19 21  1  0  0  0  0
 20 19  1  0  0  0  0
M  RAD  2  11   2  12   3
M  END
