Coordinates from ORCA-job p-CH3O-Ph-N2-X-BF4-B3LYPG-6-31G_dp-scan-d09-49-n400
 OpenBabel08281820543D

 22 21  0  0  0  0  0  0  0  0999 V2000
   -1.0608    0.3727    1.0044 C   0  0  0  0  0  0  0  0  0  0  0  0
    0.2520    0.4616    0.5721 C   0  0  0  0  0  0  0  0  0  0  0  0
    0.5780    1.4936   -0.3270 C   0  0  0  0  0  0  0  0  0  0  0  0
   -0.3716    2.4294   -0.7962 C   0  0  0  0  0  0  0  0  0  0  0  0
   -1.6670    2.3269   -0.3457 C   0  0  0  0  0  0  0  0  0  0  0  0
   -2.0243    1.2990    0.5598 C   0  0  0  0  0  0  0  0  0  0  0  0
   -1.3254   -0.4173    1.6956 H   0  0  0  0  0  0  0  0  0  0  0  0
    1.0196   -0.2334    0.9005 H   0  0  0  0  0  0  0  0  0  0  0  0
   -0.0774    3.2105   -1.4888 H   0  0  0  0  0  0  0  0  0  0  0  0
   -2.4331    3.0218   -0.6691 H   0  0  0  0  0  0  0  0  0  0  0  0
    1.8602    1.6020   -0.8021 N   0  0  0  0  0  0  0  0  0  0  0  0
    2.8864    1.6957   -1.2337 N   0  0  0  0  0  0  0  0  0  0  0  0
    3.6275   -0.0056    1.2681 B   0  0  0  0  0  0  0  0  0  0  0  0
    2.7704   -1.1297    1.1509 F   0  0  0  0  0  0  0  0  0  0  0  0
    4.5596   -0.1820    2.2592 F   0  0  0  0  0  0  0  0  0  0  0  0
    4.2431    0.2189    0.0077 F   0  0  0  0  0  0  0  0  0  0  0  0
    2.7999    1.1270    1.5381 F   0  0  0  0  0  0  0  0  0  0  0  0
   -3.3107    1.2930    0.9321 O   0  0  0  0  0  0  0  0  0  0  0  0
   -3.7741    0.2976    1.8520 C   0  0  0  0  0  0  0  0  0  0  0  0
   -4.8314    0.5114    2.0039 H   0  0  0  0  0  0  0  0  0  0  0  0
   -3.2431    0.3679    2.8067 H   0  0  0  0  0  0  0  0  0  0  0  0
   -3.6580   -0.7075    1.4331 H   0  0  0  0  0  0  0  0  0  0  0  0
  1  7  1  0  0  0  0
  2  8  1  0  0  0  0
  2  1  1  0  0  0  0
  3  2  2  0  0  0  0
  4  5  2  0  0  0  0
  4  3  1  0  0  0  0
  5  6  1  0  0  0  0
  6 18  1  0  0  0  0
  6  1  2  0  0  0  0
  9  4  1  0  0  0  0
 10  5  1  0  0  0  0
 11  3  1  0  0  0  0
 12 11  1  0  0  0  0
 13 17  1  0  0  0  0
 13 15  1  0  0  0  0
 14 13  1  0  0  0  0
 16 13  1  0  0  0  0
 18 19  1  0  0  0  0
 19 20  1  0  0  0  0
 19 21  1  0  0  0  0
 22 19  1  0  0  0  0
M  RAD  2  11   2  12   3
M  END
