Coordinates from ORCA-job p-CH3O-Ph-N2-X-BF4-B3LYPG-6-31G_dp-scan-d09-49-n400
 OpenBabel08281820543D

 22 21  0  0  0  0  0  0  0  0999 V2000
   -1.0973    0.9971    1.6495 C   0  0  0  0  0  0  0  0  0  0  0  0
    0.2408    1.3328    1.5289 C   0  0  0  0  0  0  0  0  0  0  0  0
    0.7011    1.7789    0.2811 C   0  0  0  0  0  0  0  0  0  0  0  0
   -0.1356    1.8810   -0.8476 C   0  0  0  0  0  0  0  0  0  0  0  0
   -1.4605    1.5319   -0.7116 C   0  0  0  0  0  0  0  0  0  0  0  0
   -1.9548    1.0875    0.5352 C   0  0  0  0  0  0  0  0  0  0  0  0
   -1.4630    0.6478    2.6061 H   0  0  0  0  0  0  0  0  0  0  0  0
    0.9238    1.2371    2.3621 H   0  0  0  0  0  0  0  0  0  0  0  0
    0.2679    2.2061   -1.7992 H   0  0  0  0  0  0  0  0  0  0  0  0
   -2.1425    1.5814   -1.5523 H   0  0  0  0  0  0  0  0  0  0  0  0
    2.0096    2.1745    0.1387 N   0  0  0  0  0  0  0  0  0  0  0  0
    3.0365    2.5761   -0.0219 N   0  0  0  0  0  0  0  0  0  0  0  0
    3.4293   -0.3377    0.3260 B   0  0  0  0  0  0  0  0  0  0  0  0
    2.5770   -0.2018   -0.7999 F   0  0  0  0  0  0  0  0  0  0  0  0
    3.8763   -1.6260    0.4747 F   0  0  0  0  0  0  0  0  0  0  0  0
    4.4871    0.5859    0.1867 F   0  0  0  0  0  0  0  0  0  0  0  0
    2.6710    0.0714    1.4781 F   0  0  0  0  0  0  0  0  0  0  0  0
   -3.2589    0.7752    0.5548 O   0  0  0  0  0  0  0  0  0  0  0  0
   -3.8462    0.2826    1.7635 C   0  0  0  0  0  0  0  0  0  0  0  0
   -4.8927    0.0971    1.5246 H   0  0  0  0  0  0  0  0  0  0  0  0
   -3.7787    1.0261    2.5653 H   0  0  0  0  0  0  0  0  0  0  0  0
   -3.3705   -0.6515    2.0786 H   0  0  0  0  0  0  0  0  0  0  0  0
  1  7  1  0  0  0  0
  2  1  1  0  0  0  0
  2  8  1  0  0  0  0
  3  2  2  0  0  0  0
  4  5  2  0  0  0  0
  4  3  1  0  0  0  0
  5  6  1  0  0  0  0
  6 18  1  0  0  0  0
  6  1  2  0  0  0  0
  9  4  1  0  0  0  0
 10  5  1  0  0  0  0
 11  3  1  0  0  0  0
 12 11  1  0  0  0  0
 13 15  1  0  0  0  0
 13 17  1  0  0  0  0
 14 13  1  0  0  0  0
 16 13  1  0  0  0  0
 18 19  1  0  0  0  0
 19 22  1  0  0  0  0
 19 21  1  0  0  0  0
 20 19  1  0  0  0  0
M  RAD  2  11   2  12   3
M  END
