Coordinates from ORCA-job p-CH3O-Ph-N2-X-BF4-B3LYPG-6-31G_dp-scan-d09-49-n400
 OpenBabel08281820543D

 22 21  0  0  0  0  0  0  0  0999 V2000
   -1.0156    0.7318    1.3521 C   0  0  0  0  0  0  0  0  0  0  0  0
    0.3186    0.9577    1.0575 C   0  0  0  0  0  0  0  0  0  0  0  0
    0.6179    1.6895   -0.1054 C   0  0  0  0  0  0  0  0  0  0  0  0
   -0.3779    2.1949   -0.9715 C   0  0  0  0  0  0  0  0  0  0  0  0
   -1.6958    1.9479   -0.6642 C   0  0  0  0  0  0  0  0  0  0  0  0
   -2.0278    1.2118    0.4984 C   0  0  0  0  0  0  0  0  0  0  0  0
   -1.2605    0.1709    2.2447 H   0  0  0  0  0  0  0  0  0  0  0  0
    1.1305    0.5945    1.6854 H   0  0  0  0  0  0  0  0  0  0  0  0
   -0.1029    2.7523   -1.8601 H   0  0  0  0  0  0  0  0  0  0  0  0
   -2.4983    2.3042   -1.2991 H   0  0  0  0  0  0  0  0  0  0  0  0
    1.9261    1.9561   -0.4239 N   0  0  0  0  0  0  0  0  0  0  0  0
    2.9702    2.2313   -0.7094 N   0  0  0  0  0  0  0  0  0  0  0  0
    3.5625   -0.2813    0.9367 B   0  0  0  0  0  0  0  0  0  0  0  0
    2.5364   -0.5106   -0.0241 F   0  0  0  0  0  0  0  0  0  0  0  0
    4.2222   -1.4417    1.2494 F   0  0  0  0  0  0  0  0  0  0  0  0
    4.4338    0.6971    0.3996 F   0  0  0  0  0  0  0  0  0  0  0  0
    2.9372    0.2845    2.0893 F   0  0  0  0  0  0  0  0  0  0  0  0
   -3.3396    1.0272    0.6982 O   0  0  0  0  0  0  0  0  0  0  0  0
   -3.7803    0.2732    1.8336 C   0  0  0  0  0  0  0  0  0  0  0  0
   -4.8677    0.2543    1.7662 H   0  0  0  0  0  0  0  0  0  0  0  0
   -3.4778    0.7573    2.7681 H   0  0  0  0  0  0  0  0  0  0  0  0
   -3.3913   -0.7494    1.8002 H   0  0  0  0  0  0  0  0  0  0  0  0
  1  7  1  0  0  0  0
  2  1  1  0  0  0  0
  2  8  1  0  0  0  0
  3  2  2  0  0  0  0
  4  5  2  0  0  0  0
  4  3  1  0  0  0  0
  5  6  1  0  0  0  0
  6 18  1  0  0  0  0
  6  1  2  0  0  0  0
  9  4  1  0  0  0  0
 10  5  1  0  0  0  0
 11  3  1  0  0  0  0
 12 11  1  0  0  0  0
 13 15  1  0  0  0  0
 13 17  1  0  0  0  0
 14 13  1  0  0  0  0
 16 13  1  0  0  0  0
 18 19  1  0  0  0  0
 19 21  1  0  0  0  0
 20 19  1  0  0  0  0
 22 19  1  0  0  0  0
M  RAD  2  11   2  12   3
M  END
