Coordinates from ORCA-job p-CH3O-Ph-N2-X-BF4-B3LYPG-6-31G_dp-scan-d09-49-n400
 OpenBabel08281820543D

 22 21  0  0  0  0  0  0  0  0999 V2000
   -1.0662    0.7910    1.4632 C   0  0  0  0  0  0  0  0  0  0  0  0
    0.2785    1.0356    1.2389 C   0  0  0  0  0  0  0  0  0  0  0  0
    0.6394    1.6908    0.0502 C   0  0  0  0  0  0  0  0  0  0  0  0
   -0.3093    2.0997   -0.9130 C   0  0  0  0  0  0  0  0  0  0  0  0
   -1.6389    1.8357   -0.6756 C   0  0  0  0  0  0  0  0  0  0  0  0
   -2.0312    1.1780    0.5133 C   0  0  0  0  0  0  0  0  0  0  0  0
   -1.3557    0.2866    2.3759 H   0  0  0  0  0  0  0  0  0  0  0  0
    1.0530    0.7299    1.9343 H   0  0  0  0  0  0  0  0  0  0  0  0
    0.0106    2.5985   -1.8209 H   0  0  0  0  0  0  0  0  0  0  0  0
   -2.4042    2.1208   -1.3880 H   0  0  0  0  0  0  0  0  0  0  0  0
    1.9551    1.9987   -0.2071 N   0  0  0  0  0  0  0  0  0  0  0  0
    2.9801    2.3485   -0.4745 N   0  0  0  0  0  0  0  0  0  0  0  0
    3.5979   -0.2925    0.7088 B   0  0  0  0  0  0  0  0  0  0  0  0
    2.6049   -0.5095   -0.2810 F   0  0  0  0  0  0  0  0  0  0  0  0
    4.1666   -1.4674    1.1272 F   0  0  0  0  0  0  0  0  0  0  0  0
    4.5477    0.6094    0.1802 F   0  0  0  0  0  0  0  0  0  0  0  0
    2.9577    0.3829    1.8057 F   0  0  0  0  0  0  0  0  0  0  0  0
   -3.3492    0.9706    0.6417 O   0  0  0  0  0  0  0  0  0  0  0  0
   -3.8449    0.2884    1.7990 C   0  0  0  0  0  0  0  0  0  0  0  0
   -4.9243    0.2297    1.6625 H   0  0  0  0  0  0  0  0  0  0  0  0
   -3.6201    0.8495    2.7124 H   0  0  0  0  0  0  0  0  0  0  0  0
   -3.4277   -0.7213    1.8682 H   0  0  0  0  0  0  0  0  0  0  0  0
  1  7  1  0  0  0  0
  2  1  1  0  0  0  0
  2  8  1  0  0  0  0
  3  2  2  0  0  0  0
  4  5  2  0  0  0  0
  4  3  1  0  0  0  0
  5  6  1  0  0  0  0
  6 18  1  0  0  0  0
  6  1  2  0  0  0  0
  9  4  1  0  0  0  0
 10  5  1  0  0  0  0
 11  3  1  0  0  0  0
 12 11  1  0  0  0  0
 13 15  1  0  0  0  0
 13 17  1  0  0  0  0
 14 13  1  0  0  0  0
 16 13  1  0  0  0  0
 18 19  1  0  0  0  0
 19 22  1  0  0  0  0
 19 21  1  0  0  0  0
 20 19  1  0  0  0  0
M  RAD  2  11   2  12   3
M  END
