Coordinates from ORCA-job p-CH3O-Ph-N2-X-BF4-B3LYPG-6-31G_dp-scan-d09-49-n400
 OpenBabel08281820543D

 22 21  0  0  0  0  0  0  0  0999 V2000
   -1.0675    0.7915    1.4644 C   0  0  0  0  0  0  0  0  0  0  0  0
    0.2774    1.0357    1.2407 C   0  0  0  0  0  0  0  0  0  0  0  0
    0.6391    1.6899    0.0515 C   0  0  0  0  0  0  0  0  0  0  0  0
   -0.3090    2.0980   -0.9125 C   0  0  0  0  0  0  0  0  0  0  0  0
   -1.6388    1.8345   -0.6757 C   0  0  0  0  0  0  0  0  0  0  0  0
   -2.0319    1.1779    0.5136 C   0  0  0  0  0  0  0  0  0  0  0  0
   -1.3576    0.2879    2.3774 H   0  0  0  0  0  0  0  0  0  0  0  0
    1.0515    0.7302    1.9366 H   0  0  0  0  0  0  0  0  0  0  0  0
    0.0114    2.5962   -1.8206 H   0  0  0  0  0  0  0  0  0  0  0  0
   -2.4037    2.1190   -1.3887 H   0  0  0  0  0  0  0  0  0  0  0  0
    1.9549    1.9982   -0.2051 N   0  0  0  0  0  0  0  0  0  0  0  0
    2.9797    2.3489   -0.4723 N   0  0  0  0  0  0  0  0  0  0  0  0
    3.6005   -0.2925    0.7064 B   0  0  0  0  0  0  0  0  0  0  0  0
    2.6108   -0.5095   -0.2868 F   0  0  0  0  0  0  0  0  0  0  0  0
    4.1696   -1.4673    1.1243 F   0  0  0  0  0  0  0  0  0  0  0  0
    4.5498    0.6114    0.1809 F   0  0  0  0  0  0  0  0  0  0  0  0
    2.9579    0.3814    1.8039 F   0  0  0  0  0  0  0  0  0  0  0  0
   -3.3500    0.9707    0.6414 O   0  0  0  0  0  0  0  0  0  0  0  0
   -3.8465    0.2895    1.7989 C   0  0  0  0  0  0  0  0  0  0  0  0
   -4.9259    0.2308    1.6618 H   0  0  0  0  0  0  0  0  0  0  0  0
   -3.6223    0.8514    2.7120 H   0  0  0  0  0  0  0  0  0  0  0  0
   -3.4294   -0.7202    1.8694 H   0  0  0  0  0  0  0  0  0  0  0  0
  1  7  1  0  0  0  0
  2  1  1  0  0  0  0
  2  8  1  0  0  0  0
  3  2  2  0  0  0  0
  4  5  2  0  0  0  0
  4  3  1  0  0  0  0
  5  6  1  0  0  0  0
  6 18  1  0  0  0  0
  6  1  2  0  0  0  0
  9  4  1  0  0  0  0
 10  5  1  0  0  0  0
 11  3  1  0  0  0  0
 12 11  1  0  0  0  0
 13 15  1  0  0  0  0
 13 17  1  0  0  0  0
 14 13  1  0  0  0  0
 16 13  1  0  0  0  0
 18 19  1  0  0  0  0
 19 22  1  0  0  0  0
 19 21  1  0  0  0  0
 20 19  1  0  0  0  0
M  RAD  2  11   2  12   3
M  END
