Coordinates from ORCA-job p-CH3O-Ph-N2-X-BF4-B3LYPG-6-31G_dp-scan-d09-49-n400
 OpenBabel08281820543D

 22 21  0  0  0  0  0  0  0  0999 V2000
   -0.9776    0.4025    0.9884 C   0  0  0  0  0  0  0  0  0  0  0  0
    0.3343    0.5148    0.5475 C   0  0  0  0  0  0  0  0  0  0  0  0
    0.5973    1.5508   -0.3725 C   0  0  0  0  0  0  0  0  0  0  0  0
   -0.3816    2.4549   -0.8515 C   0  0  0  0  0  0  0  0  0  0  0  0
   -1.6668    2.3143   -0.3882 C   0  0  0  0  0  0  0  0  0  0  0  0
   -1.9762    1.2859    0.5383 C   0  0  0  0  0  0  0  0  0  0  0  0
   -1.2160   -0.3803    1.6986 H   0  0  0  0  0  0  0  0  0  0  0  0
    1.1844   -0.1742    0.9066 H   0  0  0  0  0  0  0  0  0  0  0  0
   -0.1186    3.2345   -1.5586 H   0  0  0  0  0  0  0  0  0  0  0  0
   -2.4612    2.9758   -0.7131 H   0  0  0  0  0  0  0  0  0  0  0  0
    1.8736    1.6888   -0.8497 N   0  0  0  0  0  0  0  0  0  0  0  0
    2.9147    1.7743   -1.2444 N   0  0  0  0  0  0  0  0  0  0  0  0
    3.4666   -0.0125    1.3285 B   0  0  0  0  0  0  0  0  0  0  0  0
    2.2892   -0.8896    1.3255 F   0  0  0  0  0  0  0  0  0  0  0  0
    4.3316   -0.4126    2.3060 F   0  0  0  0  0  0  0  0  0  0  0  0
    4.0197   -0.0753    0.0409 F   0  0  0  0  0  0  0  0  0  0  0  0
    2.9628    1.2866    1.5438 F   0  0  0  0  0  0  0  0  0  0  0  0
   -3.2599    1.2439    0.9222 O   0  0  0  0  0  0  0  0  0  0  0  0
   -3.6798    0.2489    1.8622 C   0  0  0  0  0  0  0  0  0  0  0  0
   -4.7433    0.4259    2.0188 H   0  0  0  0  0  0  0  0  0  0  0  0
   -3.1447    0.3546    2.8114 H   0  0  0  0  0  0  0  0  0  0  0  0
   -3.5286   -0.7587    1.4607 H   0  0  0  0  0  0  0  0  0  0  0  0
  1  7  1  0  0  0  0
  2  8  1  0  0  0  0
  2  1  1  0  0  0  0
  3  2  2  0  0  0  0
  4  5  2  0  0  0  0
  4  3  1  0  0  0  0
  5  6  1  0  0  0  0
  6 18  1  0  0  0  0
  6  1  2  0  0  0  0
  9  4  1  0  0  0  0
 10  5  1  0  0  0  0
 11  3  1  0  0  0  0
 12 11  1  0  0  0  0
 13 17  1  0  0  0  0
 13 15  1  0  0  0  0
 14 13  1  0  0  0  0
 16 13  1  0  0  0  0
 18 19  1  0  0  0  0
 19 20  1  0  0  0  0
 19 21  1  0  0  0  0
 22 19  1  0  0  0  0
M  RAD  2  11   2  12   3
M  END
