Coordinates from ORCA-job p-CH3O-Ph-N2-X-BF4-B3LYPG-6-31G_dp-scan-d09-49-n400
 OpenBabel08281820543D

 22 21  0  0  0  0  0  0  0  0999 V2000
   -1.4555    1.4876    1.9167 C   0  0  0  0  0  0  0  0  0  0  0  0
   -0.1010    1.7129    2.0790 C   0  0  0  0  0  0  0  0  0  0  0  0
    0.7970    1.1053    1.1796 C   0  0  0  0  0  0  0  0  0  0  0  0
    0.3764    0.2543    0.1348 C   0  0  0  0  0  0  0  0  0  0  0  0
   -0.9785    0.0399   -0.0020 C   0  0  0  0  0  0  0  0  0  0  0  0
   -1.9040    0.6534    0.8684 C   0  0  0  0  0  0  0  0  0  0  0  0
   -2.1543    1.9551    2.5978 H   0  0  0  0  0  0  0  0  0  0  0  0
    0.2569    2.3460    2.8854 H   0  0  0  0  0  0  0  0  0  0  0  0
    1.1276   -0.2090   -0.4978 H   0  0  0  0  0  0  0  0  0  0  0  0
   -1.3593   -0.6042   -0.7868 H   0  0  0  0  0  0  0  0  0  0  0  0
    2.1352    1.3579    1.3594 N   0  0  0  0  0  0  0  0  0  0  0  0
    3.2067    1.5965    1.5690 N   0  0  0  0  0  0  0  0  0  0  0  0
    3.5643    0.5409   -1.2322 B   0  0  0  0  0  0  0  0  0  0  0  0
    2.5141    1.4920   -1.3214 F   0  0  0  0  0  0  0  0  0  0  0  0
    4.1302    0.2914   -2.4558 F   0  0  0  0  0  0  0  0  0  0  0  0
    4.5148    1.0355   -0.3032 F   0  0  0  0  0  0  0  0  0  0  0  0
    2.9946   -0.6419   -0.6696 F   0  0  0  0  0  0  0  0  0  0  0  0
   -3.1934    0.3787    0.6279 O   0  0  0  0  0  0  0  0  0  0  0  0
   -4.2088    0.9629    1.4478 C   0  0  0  0  0  0  0  0  0  0  0  0
   -5.1534    0.5997    1.0453 H   0  0  0  0  0  0  0  0  0  0  0  0
   -4.1816    2.0566    1.3892 H   0  0  0  0  0  0  0  0  0  0  0  0
   -4.1081    0.6419    2.4901 H   0  0  0  0  0  0  0  0  0  0  0  0
  1  2  1  0  0  0  0
  1  7  1  0  0  0  0
  2  8  1  0  0  0  0
  3 11  1  0  0  0  0
  3  2  2  0  0  0  0
  4  3  1  0  0  0  0
  5  4  2  0  0  0  0
  5  6  1  0  0  0  0
  6  1  2  0  0  0  0
  9  4  1  0  0  0  0
 10  5  1  0  0  0  0
 11 12  1  0  0  0  0
 13 17  1  0  0  0  0
 13 16  1  0  0  0  0
 14 13  1  0  0  0  0
 15 13  1  0  0  0  0
 18  6  1  0  0  0  0
 18 19  1  0  0  0  0
 19 22  1  0  0  0  0
 20 19  1  0  0  0  0
 21 19  1  0  0  0  0
M  RAD  2  11   2  12   3
M  END
