Coordinates from ORCA-job p-CH3O-Ph-N2-X-BF4-B3LYPG-6-31G_dp-scan-d09-49-n400
 OpenBabel08281820543D

 22 21  0  0  0  0  0  0  0  0999 V2000
   -0.9767    0.4032    0.9884 C   0  0  0  0  0  0  0  0  0  0  0  0
    0.3354    0.5158    0.5477 C   0  0  0  0  0  0  0  0  0  0  0  0
    0.5970    1.5520   -0.3725 C   0  0  0  0  0  0  0  0  0  0  0  0
   -0.3823    2.4555   -0.8521 C   0  0  0  0  0  0  0  0  0  0  0  0
   -1.6673    2.3142   -0.3888 C   0  0  0  0  0  0  0  0  0  0  0  0
   -1.9760    1.2858    0.5380 C   0  0  0  0  0  0  0  0  0  0  0  0
   -1.2149   -0.3794    1.6989 H   0  0  0  0  0  0  0  0  0  0  0  0
    1.1883   -0.1740    0.9085 H   0  0  0  0  0  0  0  0  0  0  0  0
   -0.1197    3.2350   -1.5594 H   0  0  0  0  0  0  0  0  0  0  0  0
   -2.4623    2.9749   -0.7139 H   0  0  0  0  0  0  0  0  0  0  0  0
    1.8733    1.6911   -0.8497 N   0  0  0  0  0  0  0  0  0  0  0  0
    2.9145    1.7776   -1.2440 N   0  0  0  0  0  0  0  0  0  0  0  0
    3.4660   -0.0132    1.3282 B   0  0  0  0  0  0  0  0  0  0  0  0
    2.2834   -0.8859    1.3257 F   0  0  0  0  0  0  0  0  0  0  0  0
    4.3288   -0.4186    2.3053 F   0  0  0  0  0  0  0  0  0  0  0  0
    4.0172   -0.0790    0.0405 F   0  0  0  0  0  0  0  0  0  0  0  0
    2.9674    1.2871    1.5445 F   0  0  0  0  0  0  0  0  0  0  0  0
   -3.2597    1.2431    0.9219 O   0  0  0  0  0  0  0  0  0  0  0  0
   -3.6789    0.2482    1.8624 C   0  0  0  0  0  0  0  0  0  0  0  0
   -4.7425    0.4246    2.0189 H   0  0  0  0  0  0  0  0  0  0  0  0
   -3.1438    0.3546    2.8115 H   0  0  0  0  0  0  0  0  0  0  0  0
   -3.5271   -0.7594    1.4613 H   0  0  0  0  0  0  0  0  0  0  0  0
  1  7  1  0  0  0  0
  2  8  1  0  0  0  0
  2  1  1  0  0  0  0
  3  2  2  0  0  0  0
  4  5  2  0  0  0  0
  4  3  1  0  0  0  0
  5  6  1  0  0  0  0
  6 18  1  0  0  0  0
  6  1  2  0  0  0  0
  9  4  1  0  0  0  0
 10  5  1  0  0  0  0
 11  3  1  0  0  0  0
 12 11  1  0  0  0  0
 13 17  1  0  0  0  0
 13 15  1  0  0  0  0
 14 13  1  0  0  0  0
 16 13  1  0  0  0  0
 18 19  1  0  0  0  0
 19 20  1  0  0  0  0
 19 21  1  0  0  0  0
 22 19  1  0  0  0  0
M  RAD  2  11   2  12   3
M  END
