Coordinates from ORCA-job p-CH3O-Ph-N2-X-BF4-B3LYPG-6-31G_dp-scan-d09-49-n400
 OpenBabel08281820543D

 22 21  0  0  0  0  0  0  0  0999 V2000
   -1.0906    1.0586    1.6845 C   0  0  0  0  0  0  0  0  0  0  0  0
    0.2384    1.4321    1.5841 C   0  0  0  0  0  0  0  0  0  0  0  0
    0.7222    1.8318    0.3302 C   0  0  0  0  0  0  0  0  0  0  0  0
   -0.0715    1.8259   -0.8321 C   0  0  0  0  0  0  0  0  0  0  0  0
   -1.3891    1.4434   -0.7159 C   0  0  0  0  0  0  0  0  0  0  0  0
   -1.9120    1.0588    0.5393 C   0  0  0  0  0  0  0  0  0  0  0  0
   -1.4746    0.7439    2.6458 H   0  0  0  0  0  0  0  0  0  0  0  0
    0.9033    1.3904    2.4362 H   0  0  0  0  0  0  0  0  0  0  0  0
    0.3601    2.0916   -1.7892 H   0  0  0  0  0  0  0  0  0  0  0  0
   -2.0419    1.4117   -1.5803 H   0  0  0  0  0  0  0  0  0  0  0  0
    2.0298    2.2365    0.2202 N   0  0  0  0  0  0  0  0  0  0  0  0
    3.0641    2.6376    0.1192 N   0  0  0  0  0  0  0  0  0  0  0  0
    3.3154   -0.3384    0.2442 B   0  0  0  0  0  0  0  0  0  0  0  0
    2.4783   -0.0336   -0.8679 F   0  0  0  0  0  0  0  0  0  0  0  0
    3.6543   -1.6679    0.2665 F   0  0  0  0  0  0  0  0  0  0  0  0
    4.4391    0.5077    0.1833 F   0  0  0  0  0  0  0  0  0  0  0  0
    2.5831    0.0200    1.4262 F   0  0  0  0  0  0  0  0  0  0  0  0
   -3.2052    0.7031    0.5360 O   0  0  0  0  0  0  0  0  0  0  0  0
   -3.8159    0.2606    1.7521 C   0  0  0  0  0  0  0  0  0  0  0  0
   -4.8461    0.0220    1.4915 H   0  0  0  0  0  0  0  0  0  0  0  0
   -3.8028    1.0522    2.5096 H   0  0  0  0  0  0  0  0  0  0  0  0
   -3.3183   -0.6346    2.1383 H   0  0  0  0  0  0  0  0  0  0  0  0
  1  7  1  0  0  0  0
  2  1  1  0  0  0  0
  2  8  1  0  0  0  0
  3  2  2  0  0  0  0
  4  5  2  0  0  0  0
  4  3  1  0  0  0  0
  5  6  1  0  0  0  0
  6  1  2  0  0  0  0
  9  4  1  0  0  0  0
 10  5  1  0  0  0  0
 11  3  1  0  0  0  0
 12 11  1  0  0  0  0
 13 15  1  0  0  0  0
 13 17  1  0  0  0  0
 14 13  1  0  0  0  0
 16 13  1  0  0  0  0
 18  6  1  0  0  0  0
 18 19  1  0  0  0  0
 19 22  1  0  0  0  0
 19 21  1  0  0  0  0
 20 19  1  0  0  0  0
M  RAD  2  11   2  12   3
M  END
