Coordinates from ORCA-job p-CH3O-Ph-N2-X-BF4-B3LYPG-6-31G_dp-scan-d09-49-n400
 OpenBabel08281820543D

 22 21  0  0  0  0  0  0  0  0999 V2000
   -1.0634    0.7836    1.4538 C   0  0  0  0  0  0  0  0  0  0  0  0
    0.2808    1.0258    1.2241 C   0  0  0  0  0  0  0  0  0  0  0  0
    0.6371    1.6888    0.0382 C   0  0  0  0  0  0  0  0  0  0  0  0
   -0.3154    2.1076   -0.9170 C   0  0  0  0  0  0  0  0  0  0  0  0
   -1.6445    1.8458   -0.6744 C   0  0  0  0  0  0  0  0  0  0  0  0
   -2.0323    1.1806    0.5120 C   0  0  0  0  0  0  0  0  0  0  0  0
   -1.3495    0.2736    2.3644 H   0  0  0  0  0  0  0  0  0  0  0  0
    1.0588    0.7145    1.9135 H   0  0  0  0  0  0  0  0  0  0  0  0
    0.0010    2.6123   -1.8229 H   0  0  0  0  0  0  0  0  0  0  0  0
   -2.4129    2.1382   -1.3803 H   0  0  0  0  0  0  0  0  0  0  0  0
    1.9526    1.9934   -0.2232 N   0  0  0  0  0  0  0  0  0  0  0  0
    2.9789    2.3380   -0.4927 N   0  0  0  0  0  0  0  0  0  0  0  0
    3.5990   -0.2905    0.7265 B   0  0  0  0  0  0  0  0  0  0  0  0
    2.6034   -0.5126   -0.2598 F   0  0  0  0  0  0  0  0  0  0  0  0
    4.1745   -1.4626    1.1431 F   0  0  0  0  0  0  0  0  0  0  0  0
    4.5432    0.6149    0.1928 F   0  0  0  0  0  0  0  0  0  0  0  0
    2.9602    0.3829    1.8248 F   0  0  0  0  0  0  0  0  0  0  0  0
   -3.3502    0.9766    0.6462 O   0  0  0  0  0  0  0  0  0  0  0  0
   -3.8418    0.2884    1.8018 C   0  0  0  0  0  0  0  0  0  0  0  0
   -4.9223    0.2351    1.6713 H   0  0  0  0  0  0  0  0  0  0  0  0
   -3.6093    0.8423    2.7177 H   0  0  0  0  0  0  0  0  0  0  0  0
   -3.4283   -0.7234    1.8617 H   0  0  0  0  0  0  0  0  0  0  0  0
  1  7  1  0  0  0  0
  2  1  1  0  0  0  0
  2  8  1  0  0  0  0
  3  2  2  0  0  0  0
  4  5  2  0  0  0  0
  4  3  1  0  0  0  0
  5  6  1  0  0  0  0
  6 18  1  0  0  0  0
  6  1  2  0  0  0  0
  9  4  1  0  0  0  0
 10  5  1  0  0  0  0
 11  3  1  0  0  0  0
 12 11  1  0  0  0  0
 13 15  1  0  0  0  0
 13 17  1  0  0  0  0
 14 13  1  0  0  0  0
 16 13  1  0  0  0  0
 18 19  1  0  0  0  0
 19 22  1  0  0  0  0
 19 21  1  0  0  0  0
 20 19  1  0  0  0  0
M  RAD  2  11   2  12   3
M  END
