Coordinates from ORCA-job p-CH3O-Ph-N2-X-BF4-B3LYPG-6-31G_dp-scan-d09-49-n400
 OpenBabel08281820543D

 22 21  0  0  0  0  0  0  0  0999 V2000
   -1.0441    0.7570    1.4102 C   0  0  0  0  0  0  0  0  0  0  0  0
    0.2964    0.9932    1.1547 C   0  0  0  0  0  0  0  0  0  0  0  0
    0.6289    1.6892   -0.0196 C   0  0  0  0  0  0  0  0  0  0  0  0
   -0.3420    2.1474   -0.9380 C   0  0  0  0  0  0  0  0  0  0  0  0
   -1.6670    1.8908   -0.6698 C   0  0  0  0  0  0  0  0  0  0  0  0
   -2.0316    1.1925    0.5055 C   0  0  0  0  0  0  0  0  0  0  0  0
   -1.3130    0.2230    2.3123 H   0  0  0  0  0  0  0  0  0  0  0  0
    1.0903    0.6621    1.8188 H   0  0  0  0  0  0  0  0  0  0  0  0
   -0.0428    2.6770   -1.8355 H   0  0  0  0  0  0  0  0  0  0  0  0
   -2.4501    2.2123   -1.3463 H   0  0  0  0  0  0  0  0  0  0  0  0
    1.9425    1.9780   -0.3018 N   0  0  0  0  0  0  0  0  0  0  0  0
    2.9763    2.2933   -0.5814 N   0  0  0  0  0  0  0  0  0  0  0  0
    3.5858   -0.2858    0.8133 B   0  0  0  0  0  0  0  0  0  0  0  0
    2.5712   -0.5185   -0.1538 F   0  0  0  0  0  0  0  0  0  0  0  0
    4.1890   -1.4524    1.2049 F   0  0  0  0  0  0  0  0  0  0  0  0
    4.5057    0.6337    0.2581 F   0  0  0  0  0  0  0  0  0  0  0  0
    2.9623    0.3693    1.9266 F   0  0  0  0  0  0  0  0  0  0  0  0
   -3.3477    0.9977    0.6666 O   0  0  0  0  0  0  0  0  0  0  0  0
   -3.8179    0.2812    1.8140 C   0  0  0  0  0  0  0  0  0  0  0  0
   -4.9021    0.2450    1.7106 H   0  0  0  0  0  0  0  0  0  0  0  0
   -3.5542    0.8043    2.7393 H   0  0  0  0  0  0  0  0  0  0  0  0
   -3.4159   -0.7368    1.8330 H   0  0  0  0  0  0  0  0  0  0  0  0
  1  7  1  0  0  0  0
  2  1  1  0  0  0  0
  2  8  1  0  0  0  0
  3  2  2  0  0  0  0
  4  5  2  0  0  0  0
  4  3  1  0  0  0  0
  5  6  1  0  0  0  0
  6 18  1  0  0  0  0
  6  1  2  0  0  0  0
  9  4  1  0  0  0  0
 10  5  1  0  0  0  0
 11  3  1  0  0  0  0
 12 11  1  0  0  0  0
 13 15  1  0  0  0  0
 13 17  1  0  0  0  0
 14 13  1  0  0  0  0
 16 13  1  0  0  0  0
 18 19  1  0  0  0  0
 19 22  1  0  0  0  0
 19 21  1  0  0  0  0
 20 19  1  0  0  0  0
M  RAD  2  11   2  12   3
M  END
