Coordinates from ORCA-job p-CH3O-Ph-N2-X-BF4-B3LYPG-6-31G_dp-scan-d09-49-n400
 OpenBabel08281820543D

 22 21  0  0  0  0  0  0  0  0999 V2000
   -1.0749    0.3924    1.0307 C   0  0  0  0  0  0  0  0  0  0  0  0
    0.2425    0.4864    0.6143 C   0  0  0  0  0  0  0  0  0  0  0  0
    0.5740    1.5056   -0.2968 C   0  0  0  0  0  0  0  0  0  0  0  0
   -0.3776    2.4267   -0.7908 C   0  0  0  0  0  0  0  0  0  0  0  0
   -1.6782    2.3210   -0.3557 C   0  0  0  0  0  0  0  0  0  0  0  0
   -2.0402    1.3031    0.5588 C   0  0  0  0  0  0  0  0  0  0  0  0
   -1.3417   -0.3891    1.7306 H   0  0  0  0  0  0  0  0  0  0  0  0
    1.0078   -0.1943    0.9677 H   0  0  0  0  0  0  0  0  0  0  0  0
   -0.0811    3.1991   -1.4921 H   0  0  0  0  0  0  0  0  0  0  0  0
   -2.4450    3.0051   -0.6997 H   0  0  0  0  0  0  0  0  0  0  0  0
    1.8587    1.6152   -0.7673 N   0  0  0  0  0  0  0  0  0  0  0  0
    2.8794    1.7149   -1.2106 N   0  0  0  0  0  0  0  0  0  0  0  0
    3.6755   -0.0348    1.2411 B   0  0  0  0  0  0  0  0  0  0  0  0
    2.8560   -1.1821    1.1442 F   0  0  0  0  0  0  0  0  0  0  0  0
    4.6394   -0.1764    2.2082 F   0  0  0  0  0  0  0  0  0  0  0  0
    4.2532    0.2158   -0.0343 F   0  0  0  0  0  0  0  0  0  0  0  0
    2.8209    1.0751    1.5343 F   0  0  0  0  0  0  0  0  0  0  0  0
   -3.3317    1.2904    0.9127 O   0  0  0  0  0  0  0  0  0  0  0  0
   -3.8007    0.2994    1.8346 C   0  0  0  0  0  0  0  0  0  0  0  0
   -4.8625    0.5039    1.9666 H   0  0  0  0  0  0  0  0  0  0  0  0
   -3.2867    0.3843    2.7974 H   0  0  0  0  0  0  0  0  0  0  0  0
   -3.6673   -0.7085    1.4276 H   0  0  0  0  0  0  0  0  0  0  0  0
  1  7  1  0  0  0  0
  2  8  1  0  0  0  0
  2  1  1  0  0  0  0
  3  2  2  0  0  0  0
  4  5  2  0  0  0  0
  4  3  1  0  0  0  0
  5  6  1  0  0  0  0
  6 18  1  0  0  0  0
  6  1  2  0  0  0  0
  9  4  1  0  0  0  0
 10  5  1  0  0  0  0
 11  3  1  0  0  0  0
 12 11  1  0  0  0  0
 13 17  1  0  0  0  0
 13 15  1  0  0  0  0
 14 13  1  0  0  0  0
 16 13  1  0  0  0  0
 18 19  1  0  0  0  0
 19 20  1  0  0  0  0
 19 21  1  0  0  0  0
 22 19  1  0  0  0  0
M  RAD  2  11   2  12   3
M  END
