Coordinates from ORCA-job p-CH3O-Ph-N2-X-BF4-B3LYPG-6-31G_dp-scan-d09-49-n400
 OpenBabel08281820543D

 22 21  0  0  0  0  0  0  0  0999 V2000
   -1.0840    0.9039    1.5679 C   0  0  0  0  0  0  0  0  0  0  0  0
    0.2603    1.1928    1.4008 C   0  0  0  0  0  0  0  0  0  0  0  0
    0.6706    1.7415    0.1755 C   0  0  0  0  0  0  0  0  0  0  0  0
   -0.2303    2.0093   -0.8770 C   0  0  0  0  0  0  0  0  0  0  0  0
   -1.5605    1.7056   -0.6947 C   0  0  0  0  0  0  0  0  0  0  0  0
   -2.0005    1.1452    0.5260 C   0  0  0  0  0  0  0  0  0  0  0  0
   -1.4097    0.4754    2.5067 H   0  0  0  0  0  0  0  0  0  0  0  0
    0.9923    0.9824    2.1693 H   0  0  0  0  0  0  0  0  0  0  0  0
    0.1272    2.4290   -1.8102 H   0  0  0  0  0  0  0  0  0  0  0  0
   -2.2887    1.8818   -1.4777 H   0  0  0  0  0  0  0  0  0  0  0  0
    1.9861    2.0864   -0.0330 N   0  0  0  0  0  0  0  0  0  0  0  0
    3.0072    2.4659   -0.2691 N   0  0  0  0  0  0  0  0  0  0  0  0
    3.5267   -0.3299    0.5154 B   0  0  0  0  0  0  0  0  0  0  0  0
    2.5820   -0.4177   -0.5365 F   0  0  0  0  0  0  0  0  0  0  0  0
    4.0136   -1.5616    0.8712 F   0  0  0  0  0  0  0  0  0  0  0  0
    4.5439    0.5612    0.1181 F   0  0  0  0  0  0  0  0  0  0  0  0
    2.8566    0.2877    1.6336 F   0  0  0  0  0  0  0  0  0  0  0  0
   -3.3130    0.8800    0.5924 O   0  0  0  0  0  0  0  0  0  0  0  0
   -3.8486    0.2688    1.7712 C   0  0  0  0  0  0  0  0  0  0  0  0
   -4.9117    0.1364    1.5735 H   0  0  0  0  0  0  0  0  0  0  0  0
   -3.7150    0.9153    2.6452 H   0  0  0  0  0  0  0  0  0  0  0  0
   -3.3848   -0.7060    1.9527 H   0  0  0  0  0  0  0  0  0  0  0  0
  1  7  1  0  0  0  0
  2  1  1  0  0  0  0
  2  8  1  0  0  0  0
  3  2  2  0  0  0  0
  4  5  2  0  0  0  0
  4  3  1  0  0  0  0
  5  6  1  0  0  0  0
  6 18  1  0  0  0  0
  6  1  2  0  0  0  0
  9  4  1  0  0  0  0
 10  5  1  0  0  0  0
 11  3  1  0  0  0  0
 12 11  1  0  0  0  0
 13 15  1  0  0  0  0
 13 17  1  0  0  0  0
 14 13  1  0  0  0  0
 16 13  1  0  0  0  0
 18 19  1  0  0  0  0
 19 22  1  0  0  0  0
 19 21  1  0  0  0  0
 20 19  1  0  0  0  0
M  RAD  2  11   2  12   3
M  END
