Coordinates from ORCA-job p-CH3O-Ph-N2-X-BF4-B3LYPG-6-31G_dp-scan-d09-49-n400
 OpenBabel08281820543D

 22 21  0  0  0  0  0  0  0  0999 V2000
   -1.4578    1.4853    1.9164 C   0  0  0  0  0  0  0  0  0  0  0  0
   -0.1031    1.7143    2.0711 C   0  0  0  0  0  0  0  0  0  0  0  0
    0.7911    1.1230    1.1569 C   0  0  0  0  0  0  0  0  0  0  0  0
    0.3654    0.2873    0.1020 C   0  0  0  0  0  0  0  0  0  0  0  0
   -0.9896    0.0694   -0.0279 C   0  0  0  0  0  0  0  0  0  0  0  0
   -1.9109    0.6637    0.8601 C   0  0  0  0  0  0  0  0  0  0  0  0
   -2.1532    1.9400    2.6096 H   0  0  0  0  0  0  0  0  0  0  0  0
    0.2589    2.3377    2.8832 H   0  0  0  0  0  0  0  0  0  0  0  0
    1.1137   -0.1613   -0.5433 H   0  0  0  0  0  0  0  0  0  0  0  0
   -1.3738   -0.5638   -0.8199 H   0  0  0  0  0  0  0  0  0  0  0  0
    2.1297    1.3750    1.3369 N   0  0  0  0  0  0  0  0  0  0  0  0
    3.1980    1.6195    1.5554 N   0  0  0  0  0  0  0  0  0  0  0  0
    3.5841    0.5171   -1.2114 B   0  0  0  0  0  0  0  0  0  0  0  0
    2.5498    1.4814   -1.3396 F   0  0  0  0  0  0  0  0  0  0  0  0
    4.1565    0.2204   -2.4212 F   0  0  0  0  0  0  0  0  0  0  0  0
    4.5333    1.0240   -0.2882 F   0  0  0  0  0  0  0  0  0  0  0  0
    2.9890   -0.6379   -0.6177 F   0  0  0  0  0  0  0  0  0  0  0  0
   -3.2007    0.3848    0.6270 O   0  0  0  0  0  0  0  0  0  0  0  0
   -4.2118    0.9454    1.4686 C   0  0  0  0  0  0  0  0  0  0  0  0
   -5.1577    0.5797    1.0713 H   0  0  0  0  0  0  0  0  0  0  0  0
   -4.1958    2.0401    1.4281 H   0  0  0  0  0  0  0  0  0  0  0  0
   -4.0954    0.6082    2.5041 H   0  0  0  0  0  0  0  0  0  0  0  0
  1  2  1  0  0  0  0
  1  7  1  0  0  0  0
  2  8  1  0  0  0  0
  3 11  1  0  0  0  0
  3  2  2  0  0  0  0
  4  3  1  0  0  0  0
  5  4  2  0  0  0  0
  5  6  1  0  0  0  0
  6  1  2  0  0  0  0
  9  4  1  0  0  0  0
 10  5  1  0  0  0  0
 11 12  1  0  0  0  0
 13 17  1  0  0  0  0
 13 16  1  0  0  0  0
 14 13  1  0  0  0  0
 15 13  1  0  0  0  0
 18  6  1  0  0  0  0
 18 19  1  0  0  0  0
 19 22  1  0  0  0  0
 20 19  1  0  0  0  0
 21 19  1  0  0  0  0
M  RAD  2  11   2  12   3
M  END
