Coordinates from ORCA-job p-CH3O-Ph-N2-X-BF4-B3LYPG-6-31G_dp-scan-d09-49-n400
 OpenBabel08281820543D

 22 21  0  0  0  0  0  0  0  0999 V2000
   -1.0833    0.8838    1.5525 C   0  0  0  0  0  0  0  0  0  0  0  0
    0.2620    1.1634    1.3773 C   0  0  0  0  0  0  0  0  0  0  0  0
    0.6649    1.7304    0.1576 C   0  0  0  0  0  0  0  0  0  0  0  0
   -0.2444    2.0251   -0.8808 C   0  0  0  0  0  0  0  0  0  0  0  0
   -1.5753    1.7302   -0.6904 C   0  0  0  0  0  0  0  0  0  0  0  0
   -2.0081    1.1521    0.5247 C   0  0  0  0  0  0  0  0  0  0  0  0
   -1.4036    0.4422    2.4871 H   0  0  0  0  0  0  0  0  0  0  0  0
    1.0009    0.9348    2.1344 H   0  0  0  0  0  0  0  0  0  0  0  0
    0.1073    2.4593   -1.8096 H   0  0  0  0  0  0  0  0  0  0  0  0
   -2.3099    1.9275   -1.4624 H   0  0  0  0  0  0  0  0  0  0  0  0
    1.9808    2.0683   -0.0605 N   0  0  0  0  0  0  0  0  0  0  0  0
    3.0008    2.4451   -0.3064 N   0  0  0  0  0  0  0  0  0  0  0  0
    3.5468   -0.3241    0.5455 B   0  0  0  0  0  0  0  0  0  0  0  0
    2.5896   -0.4480   -0.4915 F   0  0  0  0  0  0  0  0  0  0  0  0
    4.0542   -1.5407    0.9230 F   0  0  0  0  0  0  0  0  0  0  0  0
    4.5476    0.5701    0.1133 F   0  0  0  0  0  0  0  0  0  0  0  0
    2.8837    0.3120    1.6576 F   0  0  0  0  0  0  0  0  0  0  0  0
   -3.3223    0.8982    0.5998 O   0  0  0  0  0  0  0  0  0  0  0  0
   -3.8524    0.2733    1.7739 C   0  0  0  0  0  0  0  0  0  0  0  0
   -4.9186    0.1537    1.5840 H   0  0  0  0  0  0  0  0  0  0  0  0
   -3.7050    0.9050    2.6565 H   0  0  0  0  0  0  0  0  0  0  0  0
   -3.3959   -0.7083    1.9359 H   0  0  0  0  0  0  0  0  0  0  0  0
  1  7  1  0  0  0  0
  2  1  1  0  0  0  0
  2  8  1  0  0  0  0
  3  2  2  0  0  0  0
  4  5  2  0  0  0  0
  4  3  1  0  0  0  0
  5  6  1  0  0  0  0
  6 18  1  0  0  0  0
  6  1  2  0  0  0  0
  9  4  1  0  0  0  0
 10  5  1  0  0  0  0
 11  3  1  0  0  0  0
 12 11  1  0  0  0  0
 13 15  1  0  0  0  0
 13 17  1  0  0  0  0
 14 13  1  0  0  0  0
 16 13  1  0  0  0  0
 18 19  1  0  0  0  0
 19 22  1  0  0  0  0
 19 21  1  0  0  0  0
 20 19  1  0  0  0  0
M  RAD  2  11   2  12   3
M  END
