Coordinates from ORCA-job p-CH3O-Ph-N2-X-BF4-B3LYPG-6-31G_dp-scan-d09-49-n400
 OpenBabel08281820543D

 22 20  0  0  0  0  0  0  0  0999 V2000
   -0.9208    0.4350    0.8967 C   0  0  0  0  0  0  0  0  0  0  0  0
    0.3676    0.5861    0.3889 C   0  0  0  0  0  0  0  0  0  0  0  0
    0.5310    1.6707   -0.5007 C   0  0  0  0  0  0  0  0  0  0  0  0
   -0.4947    2.5730   -0.8902 C   0  0  0  0  0  0  0  0  0  0  0  0
   -1.7429    2.3812   -0.3569 C   0  0  0  0  0  0  0  0  0  0  0  0
   -1.9663    1.3078    0.5472 C   0  0  0  0  0  0  0  0  0  0  0  0
   -1.1040   -0.3804    1.5878 H   0  0  0  0  0  0  0  0  0  0  0  0
    1.3153   -0.1748    0.7135 H   0  0  0  0  0  0  0  0  0  0  0  0
   -0.2929    3.3861   -1.5801 H   0  0  0  0  0  0  0  0  0  0  0  0
   -2.5726    3.0328   -0.6050 H   0  0  0  0  0  0  0  0  0  0  0  0
    1.7691    1.8742   -1.0442 N   0  0  0  0  0  0  0  0  0  0  0  0
    2.7756    2.0467   -1.4975 N   0  0  0  0  0  0  0  0  0  0  0  0
    3.4638   -0.1579    1.4740 B   0  0  0  0  0  0  0  0  0  0  0  0
    2.1860   -0.8810    1.0506 F   0  0  0  0  0  0  0  0  0  0  0  0
    3.4966   -0.1900    2.8399 F   0  0  0  0  0  0  0  0  0  0  0  0
    4.4957   -0.8082    0.8555 F   0  0  0  0  0  0  0  0  0  0  0  0
    3.2830    1.1424    0.9768 F   0  0  0  0  0  0  0  0  0  0  0  0
   -3.2226    1.2208    1.0074 O   0  0  0  0  0  0  0  0  0  0  0  0
   -3.5583    0.1862    1.9389 C   0  0  0  0  0  0  0  0  0  0  0  0
   -4.6143    0.3292    2.1652 H   0  0  0  0  0  0  0  0  0  0  0  0
   -2.9683    0.2777    2.8563 H   0  0  0  0  0  0  0  0  0  0  0  0
   -3.4061   -0.8041    1.4973 H   0  0  0  0  0  0  0  0  0  0  0  0
  1  7  1  0  0  0  0
  2  1  2  0  0  0  0
  3  2  1  0  0  0  0
  4  3  2  0  0  0  0
  4  5  1  0  0  0  0
  5  6  2  0  0  0  0
  6  1  1  0  0  0  0
  6 18  1  0  0  0  0
  8 14  1  0  0  0  0
  9  4  1  0  0  0  0
 10  5  1  0  0  0  0
 11  3  1  0  0  0  0
 12 11  1  0  0  0  0
 13 15  1  0  0  0  0
 16 13  1  0  0  0  0
 17 13  1  0  0  0  0
 18 19  1  0  0  0  0
 19 20  1  0  0  0  0
 19 21  1  0  0  0  0
 22 19  1  0  0  0  0
M  RAD  3   2   2  11   2  12   3
M  END
