Coordinates from ORCA-job p-CH3O-Ph-N2-X-BF4-B3LYPG-6-31G_dp-scan-d09-49-n400
 OpenBabel08281820543D

 22 21  0  0  0  0  0  0  0  0999 V2000
   -1.1751    1.1906    1.7914 C   0  0  0  0  0  0  0  0  0  0  0  0
    0.1481    1.5957    1.7534 C   0  0  0  0  0  0  0  0  0  0  0  0
    0.7461    1.8109    0.5055 C   0  0  0  0  0  0  0  0  0  0  0  0
    0.0778    1.5853   -0.7123 C   0  0  0  0  0  0  0  0  0  0  0  0
   -1.2407    1.1927   -0.6576 C   0  0  0  0  0  0  0  0  0  0  0  0
   -1.8797    0.9921    0.5861 C   0  0  0  0  0  0  0  0  0  0  0  0
   -1.6442    1.0121    2.7500 H   0  0  0  0  0  0  0  0  0  0  0  0
    0.7261    1.7179    2.6607 H   0  0  0  0  0  0  0  0  0  0  0  0
    0.6157    1.6770   -1.6456 H   0  0  0  0  0  0  0  0  0  0  0  0
   -1.8031    0.9988   -1.5634 H   0  0  0  0  0  0  0  0  0  0  0  0
    2.0522    2.2346    0.4791 N   0  0  0  0  0  0  0  0  0  0  0  0
    3.0857    2.6497    0.4781 N   0  0  0  0  0  0  0  0  0  0  0  0
    3.3013   -0.2859   -0.0756 B   0  0  0  0  0  0  0  0  0  0  0  0
    2.4421    0.2375   -1.0975 F   0  0  0  0  0  0  0  0  0  0  0  0
    3.6206   -1.5961   -0.3280 F   0  0  0  0  0  0  0  0  0  0  0  0
    4.4334    0.5479   -0.0156 F   0  0  0  0  0  0  0  0  0  0  0  0
    2.5961   -0.1523    1.1575 F   0  0  0  0  0  0  0  0  0  0  0  0
   -3.1604    0.6000    0.5148 O   0  0  0  0  0  0  0  0  0  0  0  0
   -3.8805    0.3186    1.7173 C   0  0  0  0  0  0  0  0  0  0  0  0
   -4.8742    0.0083    1.3971 H   0  0  0  0  0  0  0  0  0  0  0  0
   -3.9611    1.2114    2.3473 H   0  0  0  0  0  0  0  0  0  0  0  0
   -3.4062   -0.4933    2.2788 H   0  0  0  0  0  0  0  0  0  0  0  0
  1  7  1  0  0  0  0
  2  1  1  0  0  0  0
  2  8  1  0  0  0  0
  3  2  2  0  0  0  0
  4  5  2  0  0  0  0
  4  3  1  0  0  0  0
  5  6  1  0  0  0  0
  6  1  2  0  0  0  0
  9  4  1  0  0  0  0
 10  5  1  0  0  0  0
 11  3  1  0  0  0  0
 12 11  1  0  0  0  0
 13 16  1  0  0  0  0
 13 17  1  0  0  0  0
 14 13  1  0  0  0  0
 15 13  1  0  0  0  0
 18  6  1  0  0  0  0
 18 19  1  0  0  0  0
 19 22  1  0  0  0  0
 19 21  1  0  0  0  0
 20 19  1  0  0  0  0
M  RAD  2  11   2  12   3
M  END
