Coordinates from ORCA-job p-CH3O-Ph-N2-X-BF4-B3LYPG-6-31G_dp-scan-d09-49-n400
 OpenBabel08281820543D

 22 21  0  0  0  0  0  0  0  0999 V2000
   -1.0562    0.7709    1.4354 C   0  0  0  0  0  0  0  0  0  0  0  0
    0.2866    1.0100    1.1951 C   0  0  0  0  0  0  0  0  0  0  0  0
    0.6332    1.6877    0.0143 C   0  0  0  0  0  0  0  0  0  0  0  0
   -0.3268    2.1236   -0.9257 C   0  0  0  0  0  0  0  0  0  0  0  0
   -1.6545    1.8643   -0.6726 C   0  0  0  0  0  0  0  0  0  0  0  0
   -2.0329    1.1852    0.5091 C   0  0  0  0  0  0  0  0  0  0  0  0
   -1.3353    0.2504    2.3423 H   0  0  0  0  0  0  0  0  0  0  0  0
    1.0714    0.6902    1.8738 H   0  0  0  0  0  0  0  0  0  0  0  0
   -0.0175    2.6391   -1.8280 H   0  0  0  0  0  0  0  0  0  0  0  0
   -2.4289    2.1696   -1.3663 H   0  0  0  0  0  0  0  0  0  0  0  0
    1.9482    1.9860   -0.2548 N   0  0  0  0  0  0  0  0  0  0  0  0
    2.9776    2.3196   -0.5279 N   0  0  0  0  0  0  0  0  0  0  0  0
    3.5960   -0.2877    0.7621 B   0  0  0  0  0  0  0  0  0  0  0  0
    2.5945   -0.5155   -0.2184 F   0  0  0  0  0  0  0  0  0  0  0  0
    4.1826   -1.4573    1.1700 F   0  0  0  0  0  0  0  0  0  0  0  0
    4.5302    0.6233    0.2194 F   0  0  0  0  0  0  0  0  0  0  0  0
    2.9630    0.3798    1.8663 F   0  0  0  0  0  0  0  0  0  0  0  0
   -3.3502    0.9859    0.6546 O   0  0  0  0  0  0  0  0  0  0  0  0
   -3.8333    0.2867    1.8073 C   0  0  0  0  0  0  0  0  0  0  0  0
   -4.9155    0.2419    1.6884 H   0  0  0  0  0  0  0  0  0  0  0  0
   -3.5867    0.8278    2.7271 H   0  0  0  0  0  0  0  0  0  0  0  0
   -3.4256   -0.7283    1.8502 H   0  0  0  0  0  0  0  0  0  0  0  0
  1  7  1  0  0  0  0
  2  1  1  0  0  0  0
  2  8  1  0  0  0  0
  3  2  2  0  0  0  0
  4  5  2  0  0  0  0
  4  3  1  0  0  0  0
  5  6  1  0  0  0  0
  6 18  1  0  0  0  0
  6  1  2  0  0  0  0
  9  4  1  0  0  0  0
 10  5  1  0  0  0  0
 11  3  1  0  0  0  0
 12 11  1  0  0  0  0
 13 15  1  0  0  0  0
 13 17  1  0  0  0  0
 14 13  1  0  0  0  0
 16 13  1  0  0  0  0
 18 19  1  0  0  0  0
 19 22  1  0  0  0  0
 19 21  1  0  0  0  0
 20 19  1  0  0  0  0
M  RAD  2  11   2  12   3
M  END
