Coordinates from ORCA-job p-CH3O-Ph-N2-X-BF4-B3LYPG-6-31G_dp-scan-d09-49-n400
 OpenBabel08281820543D

 22 20  0  0  0  0  0  0  0  0999 V2000
   -0.9330    0.4402    0.8399 C   0  0  0  0  0  0  0  0  0  0  0  0
    0.3554    0.5799    0.3038 C   0  0  0  0  0  0  0  0  0  0  0  0
    0.4688    1.7030   -0.5508 C   0  0  0  0  0  0  0  0  0  0  0  0
   -0.5538    2.6356   -0.8863 C   0  0  0  0  0  0  0  0  0  0  0  0
   -1.7846    2.4345   -0.3220 C   0  0  0  0  0  0  0  0  0  0  0  0
   -1.9812    1.3293    0.5534 C   0  0  0  0  0  0  0  0  0  0  0  0
   -1.1205   -0.3926    1.5113 H   0  0  0  0  0  0  0  0  0  0  0  0
    1.5397   -0.3893    0.6576 H   0  0  0  0  0  0  0  0  0  0  0  0
   -0.3646    3.4695   -1.5556 H   0  0  0  0  0  0  0  0  0  0  0  0
   -2.6197    3.0965   -0.5202 H   0  0  0  0  0  0  0  0  0  0  0  0
    1.6946    1.9173   -1.1195 N   0  0  0  0  0  0  0  0  0  0  0  0
    2.7027    2.0792   -1.5791 N   0  0  0  0  0  0  0  0  0  0  0  0
    3.5618   -0.1277    1.5622 B   0  0  0  0  0  0  0  0  0  0  0  0
    2.2486   -0.9611    0.8906 F   0  0  0  0  0  0  0  0  0  0  0  0
    3.1660    0.0608    2.8391 F   0  0  0  0  0  0  0  0  0  0  0  0
    4.5688   -0.9968    1.3517 F   0  0  0  0  0  0  0  0  0  0  0  0
    3.5724    0.9982    0.7833 F   0  0  0  0  0  0  0  0  0  0  0  0
   -3.2284    1.2393    1.0492 O   0  0  0  0  0  0  0  0  0  0  0  0
   -3.5435    0.1795    1.9556 C   0  0  0  0  0  0  0  0  0  0  0  0
   -4.5910    0.3221    2.2201 H   0  0  0  0  0  0  0  0  0  0  0  0
   -2.9250    0.2346    2.8573 H   0  0  0  0  0  0  0  0  0  0  0  0
   -3.4135   -0.7984    1.4799 H   0  0  0  0  0  0  0  0  0  0  0  0
  1  7  1  0  0  0  0
  2  1  2  0  0  0  0
  3  2  1  0  0  0  0
  4  3  2  0  0  0  0
  4  5  1  0  0  0  0
  5  6  2  0  0  0  0
  6  1  1  0  0  0  0
  6 18  1  0  0  0  0
  8 14  1  0  0  0  0
  9  4  1  0  0  0  0
 10  5  1  0  0  0  0
 11  3  1  0  0  0  0
 12 11  1  0  0  0  0
 13 15  1  0  0  0  0
 16 13  1  0  0  0  0
 17 13  1  0  0  0  0
 18 19  1  0  0  0  0
 19 20  1  0  0  0  0
 19 21  1  0  0  0  0
 22 19  1  0  0  0  0
M  RAD  3   2   2  11   2  12   3
M  END
