Coordinates from ORCA-job p-CH3O-Ph-N2-X-BF4-B3LYPG-6-31G_dp-scan-d09-49-n400
 OpenBabel08281820543D

 22 21  0  0  0  0  0  0  0  0999 V2000
   -1.0855    0.3987    1.0389 C   0  0  0  0  0  0  0  0  0  0  0  0
    0.2339    0.4932    0.6289 C   0  0  0  0  0  0  0  0  0  0  0  0
    0.5699    1.5082   -0.2850 C   0  0  0  0  0  0  0  0  0  0  0  0
   -0.3810    2.4251   -0.7881 C   0  0  0  0  0  0  0  0  0  0  0  0
   -1.6840    2.3196   -0.3595 C   0  0  0  0  0  0  0  0  0  0  0  0
   -2.0497    1.3055    0.5576 C   0  0  0  0  0  0  0  0  0  0  0  0
   -1.3545   -0.3801    1.7409 H   0  0  0  0  0  0  0  0  0  0  0  0
    0.9970   -0.1827    0.9919 H   0  0  0  0  0  0  0  0  0  0  0  0
   -0.0822    3.1945   -1.4916 H   0  0  0  0  0  0  0  0  0  0  0  0
   -2.4497    3.0010   -0.7111 H   0  0  0  0  0  0  0  0  0  0  0  0
    1.8565    1.6188   -0.7510 N   0  0  0  0  0  0  0  0  0  0  0  0
    2.8761    1.7246   -1.1955 N   0  0  0  0  0  0  0  0  0  0  0  0
    3.7051   -0.0491    1.2304 B   0  0  0  0  0  0  0  0  0  0  0  0
    2.9235   -1.2195    1.1459 F   0  0  0  0  0  0  0  0  0  0  0  0
    4.6860   -0.1541    2.1853 F   0  0  0  0  0  0  0  0  0  0  0  0
    4.2596    0.2207   -0.0525 F   0  0  0  0  0  0  0  0  0  0  0  0
    2.8206    1.0373    1.5322 F   0  0  0  0  0  0  0  0  0  0  0  0
   -3.3430    1.2922    0.9046 O   0  0  0  0  0  0  0  0  0  0  0  0
   -3.8154    0.3040    1.8277 C   0  0  0  0  0  0  0  0  0  0  0  0
   -4.8783    0.5071    1.9530 H   0  0  0  0  0  0  0  0  0  0  0  0
   -3.3069    0.3935    2.7931 H   0  0  0  0  0  0  0  0  0  0  0  0
   -3.6779   -0.7052    1.4254 H   0  0  0  0  0  0  0  0  0  0  0  0
  1  7  1  0  0  0  0
  2  8  1  0  0  0  0
  2  1  1  0  0  0  0
  3  2  2  0  0  0  0
  4  5  2  0  0  0  0
  4  3  1  0  0  0  0
  5  6  1  0  0  0  0
  6 18  1  0  0  0  0
  6  1  2  0  0  0  0
  9  4  1  0  0  0  0
 10  5  1  0  0  0  0
 11  3  1  0  0  0  0
 12 11  1  0  0  0  0
 13 17  1  0  0  0  0
 13 15  1  0  0  0  0
 14 13  1  0  0  0  0
 16 13  1  0  0  0  0
 18 19  1  0  0  0  0
 19 20  1  0  0  0  0
 19 21  1  0  0  0  0
 22 19  1  0  0  0  0
M  RAD  2  11   2  12   3
M  END
