Coordinates from ORCA-job p-CH3O-Ph-N2-X-BF4-B3LYPG-6-31G_dp-scan-d09-49-n400
 OpenBabel08281820543D

 22 20  0  0  0  0  0  0  0  0999 V2000
   -0.9181    0.4414    0.8615 C   0  0  0  0  0  0  0  0  0  0  0  0
    0.3691    0.5885    0.3338 C   0  0  0  0  0  0  0  0  0  0  0  0
    0.4955    1.6969   -0.5358 C   0  0  0  0  0  0  0  0  0  0  0  0
   -0.5320    2.6153   -0.8896 C   0  0  0  0  0  0  0  0  0  0  0  0
   -1.7677    2.4145   -0.3344 C   0  0  0  0  0  0  0  0  0  0  0  0
   -1.9693    1.3208    0.5526 C   0  0  0  0  0  0  0  0  0  0  0  0
   -1.1002   -0.3849    1.5414 H   0  0  0  0  0  0  0  0  0  0  0  0
    1.4490   -0.2893    0.6736 H   0  0  0  0  0  0  0  0  0  0  0  0
   -0.3419    3.4417   -1.5675 H   0  0  0  0  0  0  0  0  0  0  0  0
   -2.6034    3.0703   -0.5502 H   0  0  0  0  0  0  0  0  0  0  0  0
    1.7233    1.9106   -1.0996 N   0  0  0  0  0  0  0  0  0  0  0  0
    2.7292    2.0783   -1.5597 N   0  0  0  0  0  0  0  0  0  0  0  0
    3.5021   -0.1494    1.5294 B   0  0  0  0  0  0  0  0  0  0  0  0
    2.2099   -0.9156    0.9378 F   0  0  0  0  0  0  0  0  0  0  0  0
    3.2279   -0.0035    2.8512 F   0  0  0  0  0  0  0  0  0  0  0  0
    4.5317   -0.9731    1.2184 F   0  0  0  0  0  0  0  0  0  0  0  0
    3.4825    1.0362    0.8192 F   0  0  0  0  0  0  0  0  0  0  0  0
   -3.2190    1.2273    1.0365 O   0  0  0  0  0  0  0  0  0  0  0  0
   -3.5370    0.1750    1.9521 C   0  0  0  0  0  0  0  0  0  0  0  0
   -4.5883    0.3134    2.2027 H   0  0  0  0  0  0  0  0  0  0  0  0
   -2.9290    0.2457    2.8597 H   0  0  0  0  0  0  0  0  0  0  0  0
   -3.3945   -0.8068    1.4884 H   0  0  0  0  0  0  0  0  0  0  0  0
  1  7  1  0  0  0  0
  2  1  2  0  0  0  0
  3  2  1  0  0  0  0
  4  3  2  0  0  0  0
  4  5  1  0  0  0  0
  5  6  2  0  0  0  0
  6  1  1  0  0  0  0
  6 18  1  0  0  0  0
  8 14  1  0  0  0  0
  9  4  1  0  0  0  0
 10  5  1  0  0  0  0
 11  3  1  0  0  0  0
 12 11  1  0  0  0  0
 13 15  1  0  0  0  0
 16 13  1  0  0  0  0
 17 13  1  0  0  0  0
 18 19  1  0  0  0  0
 19 20  1  0  0  0  0
 19 21  1  0  0  0  0
 22 19  1  0  0  0  0
M  RAD  3   2   2  11   2  12   3
M  END
