Coordinates from ORCA-job p-CH3O-Ph-N2-X-BF4-B3LYPG-6-31G_dp-scan-d09-49-n400
 OpenBabel08281820543D

 22 21  0  0  0  0  0  0  0  0999 V2000
   -1.0290    0.7439    1.3790 C   0  0  0  0  0  0  0  0  0  0  0  0
    0.3082    0.9748    1.1024 C   0  0  0  0  0  0  0  0  0  0  0  0
    0.6225    1.6900   -0.0661 C   0  0  0  0  0  0  0  0  0  0  0  0
   -0.3622    2.1736   -0.9566 C   0  0  0  0  0  0  0  0  0  0  0  0
   -1.6835    1.9220   -0.6674 C   0  0  0  0  0  0  0  0  0  0  0  0
   -2.0302    1.2033    0.5014 C   0  0  0  0  0  0  0  0  0  0  0  0
   -1.2847    0.1954    2.2763 H   0  0  0  0  0  0  0  0  0  0  0  0
    1.1124    0.6275    1.7476 H   0  0  0  0  0  0  0  0  0  0  0  0
   -0.0763    2.7184   -1.8495 H   0  0  0  0  0  0  0  0  0  0  0  0
   -2.4774    2.2622   -1.3216 H   0  0  0  0  0  0  0  0  0  0  0  0
    1.9335    1.9668   -0.3673 N   0  0  0  0  0  0  0  0  0  0  0  0
    2.9734    2.2598   -0.6499 N   0  0  0  0  0  0  0  0  0  0  0  0
    3.5742   -0.2845    0.8803 B   0  0  0  0  0  0  0  0  0  0  0  0
    2.5526   -0.5155   -0.0824 F   0  0  0  0  0  0  0  0  0  0  0  0
    4.2089   -1.4485    1.2283 F   0  0  0  0  0  0  0  0  0  0  0  0
    4.4678    0.6668    0.3325 F   0  0  0  0  0  0  0  0  0  0  0  0
    2.9520    0.3234    2.0165 F   0  0  0  0  0  0  0  0  0  0  0  0
   -3.3441    1.0136    0.6833 O   0  0  0  0  0  0  0  0  0  0  0  0
   -3.7981    0.2765    1.8243 C   0  0  0  0  0  0  0  0  0  0  0  0
   -4.8842    0.2495    1.7403 H   0  0  0  0  0  0  0  0  0  0  0  0
   -3.5135    0.7785    2.7551 H   0  0  0  0  0  0  0  0  0  0  0  0
   -3.4025   -0.7441    1.8148 H   0  0  0  0  0  0  0  0  0  0  0  0
  1  7  1  0  0  0  0
  2  1  1  0  0  0  0
  2  8  1  0  0  0  0
  3  2  2  0  0  0  0
  4  5  2  0  0  0  0
  4  3  1  0  0  0  0
  5  6  1  0  0  0  0
  6 18  1  0  0  0  0
  6  1  2  0  0  0  0
  9  4  1  0  0  0  0
 10  5  1  0  0  0  0
 11  3  1  0  0  0  0
 12 11  1  0  0  0  0
 13 15  1  0  0  0  0
 13 17  1  0  0  0  0
 14 13  1  0  0  0  0
 16 13  1  0  0  0  0
 18 19  1  0  0  0  0
 19 21  1  0  0  0  0
 20 19  1  0  0  0  0
 22 19  1  0  0  0  0
M  RAD  2  11   2  12   3
M  END
