Coordinates from ORCA-job p-CH3O-Ph-N2-X-BF4-B3LYPG-6-31G_dp-scan-d09-49-n400
 OpenBabel08281820543D

 22 20  0  0  0  0  0  0  0  0999 V2000
   -0.9242    0.4457    0.8951 C   0  0  0  0  0  0  0  0  0  0  0  0
    0.3679    0.5955    0.3893 C   0  0  0  0  0  0  0  0  0  0  0  0
    0.5177    1.6808   -0.5034 C   0  0  0  0  0  0  0  0  0  0  0  0
   -0.5102    2.5799   -0.8981 C   0  0  0  0  0  0  0  0  0  0  0  0
   -1.7572    2.3841   -0.3649 C   0  0  0  0  0  0  0  0  0  0  0  0
   -1.9738    1.3117    0.5428 C   0  0  0  0  0  0  0  0  0  0  0  0
   -1.1097   -0.3676    1.5888 H   0  0  0  0  0  0  0  0  0  0  0  0
    1.3665   -0.2039    0.7359 H   0  0  0  0  0  0  0  0  0  0  0  0
   -0.3112    3.3911   -1.5912 H   0  0  0  0  0  0  0  0  0  0  0  0
   -2.5908    3.0300   -0.6153 H   0  0  0  0  0  0  0  0  0  0  0  0
    1.7552    1.8897   -1.0469 N   0  0  0  0  0  0  0  0  0  0  0  0
    2.7646    2.0610   -1.4955 N   0  0  0  0  0  0  0  0  0  0  0  0
    3.4974   -0.1602    1.4860 B   0  0  0  0  0  0  0  0  0  0  0  0
    2.1810   -0.8754    1.0472 F   0  0  0  0  0  0  0  0  0  0  0  0
    3.4943   -0.1852    2.8482 F   0  0  0  0  0  0  0  0  0  0  0  0
    4.5019   -0.8610    0.8886 F   0  0  0  0  0  0  0  0  0  0  0  0
    3.3427    1.1240    0.9638 F   0  0  0  0  0  0  0  0  0  0  0  0
   -3.2313    1.2205    1.0023 O   0  0  0  0  0  0  0  0  0  0  0  0
   -3.5626    0.1874    1.9359 C   0  0  0  0  0  0  0  0  0  0  0  0
   -4.6194    0.3257    2.1616 H   0  0  0  0  0  0  0  0  0  0  0  0
   -2.9735    0.2834    2.8536 H   0  0  0  0  0  0  0  0  0  0  0  0
   -3.4054   -0.8037    1.4976 H   0  0  0  0  0  0  0  0  0  0  0  0
  1  7  1  0  0  0  0
  2  1  2  0  0  0  0
  3  2  1  0  0  0  0
  4  3  2  0  0  0  0
  4  5  1  0  0  0  0
  5  6  2  0  0  0  0
  6  1  1  0  0  0  0
  6 18  1  0  0  0  0
  8 14  1  0  0  0  0
  9  4  1  0  0  0  0
 10  5  1  0  0  0  0
 11  3  1  0  0  0  0
 12 11  1  0  0  0  0
 13 15  1  0  0  0  0
 16 13  1  0  0  0  0
 17 13  1  0  0  0  0
 18 19  1  0  0  0  0
 19 20  1  0  0  0  0
 19 21  1  0  0  0  0
 22 19  1  0  0  0  0
M  RAD  3   2   2  11   2  12   3
M  END
