Coordinates from ORCA-job p-CH3O-Ph-N2-X-BF4-B3LYPG-6-31G_dp-scan-d09-49-n400
 OpenBabel08281820543D

 22 21  0  0  0  0  0  0  0  0999 V2000
   -1.0715    0.3901    1.0280 C   0  0  0  0  0  0  0  0  0  0  0  0
    0.2453    0.4837    0.6094 C   0  0  0  0  0  0  0  0  0  0  0  0
    0.5754    1.5043   -0.3008 C   0  0  0  0  0  0  0  0  0  0  0  0
   -0.3765    2.4265   -0.7922 C   0  0  0  0  0  0  0  0  0  0  0  0
   -1.6763    2.3210   -0.3549 C   0  0  0  0  0  0  0  0  0  0  0  0
   -2.0371    1.3020    0.5591 C   0  0  0  0  0  0  0  0  0  0  0  0
   -1.3377   -0.3922    1.7272 H   0  0  0  0  0  0  0  0  0  0  0  0
    1.0115   -0.1986    0.9598 H   0  0  0  0  0  0  0  0  0  0  0  0
   -0.0807    3.1997   -1.4929 H   0  0  0  0  0  0  0  0  0  0  0  0
   -2.4434    3.0059   -0.6966 H   0  0  0  0  0  0  0  0  0  0  0  0
    1.8595    1.6138   -0.7725 N   0  0  0  0  0  0  0  0  0  0  0  0
    2.8808    1.7123   -1.2146 N   0  0  0  0  0  0  0  0  0  0  0  0
    3.6658   -0.0299    1.2443 B   0  0  0  0  0  0  0  0  0  0  0  0
    2.8343   -1.1693    1.1386 F   0  0  0  0  0  0  0  0  0  0  0  0
    4.6218   -0.1850    2.2170 F   0  0  0  0  0  0  0  0  0  0  0  0
    4.2537    0.2176   -0.0264 F   0  0  0  0  0  0  0  0  0  0  0  0
    2.8197    1.0862    1.5356 F   0  0  0  0  0  0  0  0  0  0  0  0
   -3.3280    1.2898    0.9154 O   0  0  0  0  0  0  0  0  0  0  0  0
   -3.7957    0.2985    1.8374 C   0  0  0  0  0  0  0  0  0  0  0  0
   -4.8571    0.5037    1.9719 H   0  0  0  0  0  0  0  0  0  0  0  0
   -3.2796    0.3822    2.7992 H   0  0  0  0  0  0  0  0  0  0  0  0
   -3.6640   -0.7092    1.4294 H   0  0  0  0  0  0  0  0  0  0  0  0
  1  7  1  0  0  0  0
  2  8  1  0  0  0  0
  2  1  1  0  0  0  0
  3  2  2  0  0  0  0
  4  5  2  0  0  0  0
  4  3  1  0  0  0  0
  5  6  1  0  0  0  0
  6 18  1  0  0  0  0
  6  1  2  0  0  0  0
  9  4  1  0  0  0  0
 10  5  1  0  0  0  0
 11  3  1  0  0  0  0
 12 11  1  0  0  0  0
 13 17  1  0  0  0  0
 13 15  1  0  0  0  0
 14 13  1  0  0  0  0
 16 13  1  0  0  0  0
 18 19  1  0  0  0  0
 19 20  1  0  0  0  0
 19 21  1  0  0  0  0
 22 19  1  0  0  0  0
M  RAD  2  11   2  12   3
M  END
