Coordinates from ORCA-job p-CH3O-Ph-N2-X-BF4-B3LYPG-6-31G_dp-scan-d09-49-n400
 OpenBabel08281820543D

 22 21  0  0  0  0  0  0  0  0999 V2000
   -1.1176    1.1194    1.7360 C   0  0  0  0  0  0  0  0  0  0  0  0
    0.2065    1.5161    1.6662 C   0  0  0  0  0  0  0  0  0  0  0  0
    0.7383    1.8423    0.4118 C   0  0  0  0  0  0  0  0  0  0  0  0
    0.0055    1.7251   -0.7833 C   0  0  0  0  0  0  0  0  0  0  0  0
   -1.3104    1.3293   -0.6973 C   0  0  0  0  0  0  0  0  0  0  0  0
   -1.8853    1.0260    0.5573 C   0  0  0  0  0  0  0  0  0  0  0  0
   -1.5381    0.8585    2.6982 H   0  0  0  0  0  0  0  0  0  0  0  0
    0.8339    1.5457    2.5478 H   0  0  0  0  0  0  0  0  0  0  0  0
    0.4858    1.9108   -1.7352 H   0  0  0  0  0  0  0  0  0  0  0  0
   -1.9202    1.2163   -1.5859 H   0  0  0  0  0  0  0  0  0  0  0  0
    2.0448    2.2585    0.3405 N   0  0  0  0  0  0  0  0  0  0  0  0
    3.0794    2.6667    0.2830 N   0  0  0  0  0  0  0  0  0  0  0  0
    3.2709   -0.3193    0.1039 B   0  0  0  0  0  0  0  0  0  0  0  0
    2.4265    0.0932   -0.9729 F   0  0  0  0  0  0  0  0  0  0  0  0
    3.5778   -1.6531    0.0087 F   0  0  0  0  0  0  0  0  0  0  0  0
    4.4126    0.5041    0.0889 F   0  0  0  0  0  0  0  0  0  0  0  0
    2.5617   -0.0415    1.3169 F   0  0  0  0  0  0  0  0  0  0  0  0
   -3.1711    0.6458    0.5205 O   0  0  0  0  0  0  0  0  0  0  0  0
   -3.8312    0.2755    1.7339 C   0  0  0  0  0  0  0  0  0  0  0  0
   -4.8442    0.0006    1.4433 H   0  0  0  0  0  0  0  0  0  0  0  0
   -3.8665    1.1163    2.4357 H   0  0  0  0  0  0  0  0  0  0  0  0
   -3.3390   -0.5826    2.2033 H   0  0  0  0  0  0  0  0  0  0  0  0
  1  7  1  0  0  0  0
  2  1  1  0  0  0  0
  2  8  1  0  0  0  0
  3  2  2  0  0  0  0
  4  5  2  0  0  0  0
  4  3  1  0  0  0  0
  5  6  1  0  0  0  0
  6  1  2  0  0  0  0
  9  4  1  0  0  0  0
 10  5  1  0  0  0  0
 11  3  1  0  0  0  0
 12 11  1  0  0  0  0
 13 17  1  0  0  0  0
 14 13  1  0  0  0  0
 15 13  1  0  0  0  0
 16 13  1  0  0  0  0
 18  6  1  0  0  0  0
 18 19  1  0  0  0  0
 19 22  1  0  0  0  0
 19 21  1  0  0  0  0
 20 19  1  0  0  0  0
M  RAD  2  11   2  12   3
M  END
