Coordinates from ORCA-job p-CH3O-Ph-N2-X-BF4-B3LYPG-6-31G_dp-scan-d09-49-n400
 OpenBabel08281820543D

 22 20  0  0  0  0  0  0  0  0999 V2000
   -0.9224    0.4338    0.9028 C   0  0  0  0  0  0  0  0  0  0  0  0
    0.3656    0.5865    0.3978 C   0  0  0  0  0  0  0  0  0  0  0  0
    0.5364    1.6674   -0.4939 C   0  0  0  0  0  0  0  0  0  0  0  0
   -0.4888    2.5676   -0.8879 C   0  0  0  0  0  0  0  0  0  0  0  0
   -1.7390    2.3770   -0.3581 C   0  0  0  0  0  0  0  0  0  0  0  0
   -1.9666    1.3063    0.5476 C   0  0  0  0  0  0  0  0  0  0  0  0
   -1.1053   -0.3806    1.5949 H   0  0  0  0  0  0  0  0  0  0  0  0
    1.2902   -0.1571    0.7179 H   0  0  0  0  0  0  0  0  0  0  0  0
   -0.2849    3.3791   -1.5788 H   0  0  0  0  0  0  0  0  0  0  0  0
   -2.5674    3.0285   -0.6108 H   0  0  0  0  0  0  0  0  0  0  0  0
    1.7763    1.8688   -1.0337 N   0  0  0  0  0  0  0  0  0  0  0  0
    2.7824    2.0424   -1.4869 N   0  0  0  0  0  0  0  0  0  0  0  0
    3.4595   -0.1600    1.4633 B   0  0  0  0  0  0  0  0  0  0  0  0
    2.1902   -0.8860    1.0713 F   0  0  0  0  0  0  0  0  0  0  0  0
    3.5463   -0.2102    2.8278 F   0  0  0  0  0  0  0  0  0  0  0  0
    4.4872   -0.7768    0.7998 F   0  0  0  0  0  0  0  0  0  0  0  0
    3.2514    1.1524    0.9973 F   0  0  0  0  0  0  0  0  0  0  0  0
   -3.2238    1.2200    1.0038 O   0  0  0  0  0  0  0  0  0  0  0  0
   -3.5628    0.1871    1.9363 C   0  0  0  0  0  0  0  0  0  0  0  0
   -4.6194    0.3310    2.1591 H   0  0  0  0  0  0  0  0  0  0  0  0
   -2.9755    0.2802    2.8553 H   0  0  0  0  0  0  0  0  0  0  0  0
   -3.4096   -0.8040    1.4967 H   0  0  0  0  0  0  0  0  0  0  0  0
  1  7  1  0  0  0  0
  2  1  2  0  0  0  0
  3  2  1  0  0  0  0
  4  3  2  0  0  0  0
  4  5  1  0  0  0  0
  5  6  2  0  0  0  0
  6  1  1  0  0  0  0
  6 18  1  0  0  0  0
  8 14  1  0  0  0  0
  9  4  1  0  0  0  0
 10  5  1  0  0  0  0
 11  3  1  0  0  0  0
 12 11  1  0  0  0  0
 13 15  1  0  0  0  0
 16 13  1  0  0  0  0
 17 13  1  0  0  0  0
 18 19  1  0  0  0  0
 19 20  1  0  0  0  0
 19 21  1  0  0  0  0
 22 19  1  0  0  0  0
M  RAD  3   2   2  11   2  12   3
M  END
