Coordinates from ORCA-job p-CH3O-Ph-N2-X-BF4-B3LYPG-6-31G_dp-scan-d09-49-n400
 OpenBabel08281820543D

 22 20  0  0  0  0  0  0  0  0999 V2000
   -0.9280    0.4387    0.8436 C   0  0  0  0  0  0  0  0  0  0  0  0
    0.3596    0.5798    0.3085 C   0  0  0  0  0  0  0  0  0  0  0  0
    0.4762    1.7002   -0.5489 C   0  0  0  0  0  0  0  0  0  0  0  0
   -0.5472    2.6303   -0.8871 C   0  0  0  0  0  0  0  0  0  0  0  0
   -1.7789    2.4296   -0.3241 C   0  0  0  0  0  0  0  0  0  0  0  0
   -1.9766    1.3266    0.5535 C   0  0  0  0  0  0  0  0  0  0  0  0
   -1.1143   -0.3929    1.5165 H   0  0  0  0  0  0  0  0  0  0  0  0
    1.5175   -0.3642    0.6558 H   0  0  0  0  0  0  0  0  0  0  0  0
   -0.3579    3.4628   -1.5580 H   0  0  0  0  0  0  0  0  0  0  0  0
   -2.6139    3.0909   -0.5252 H   0  0  0  0  0  0  0  0  0  0  0  0
    1.7023    1.9141   -1.1168 N   0  0  0  0  0  0  0  0  0  0  0  0
    2.7098    2.0771   -1.5767 N   0  0  0  0  0  0  0  0  0  0  0  0
    3.5403   -0.1319    1.5552 B   0  0  0  0  0  0  0  0  0  0  0  0
    2.2414   -0.9483    0.8936 F   0  0  0  0  0  0  0  0  0  0  0  0
    3.1648    0.0437    2.8424 F   0  0  0  0  0  0  0  0  0  0  0  0
    4.5580   -0.9872    1.3268 F   0  0  0  0  0  0  0  0  0  0  0  0
    3.5470    1.0110    0.7956 F   0  0  0  0  0  0  0  0  0  0  0  0
   -3.2239    1.2365    1.0478 O   0  0  0  0  0  0  0  0  0  0  0  0
   -3.5393    0.1786    1.9568 C   0  0  0  0  0  0  0  0  0  0  0  0
   -4.5872    0.3212    2.2195 H   0  0  0  0  0  0  0  0  0  0  0  0
   -2.9219    0.2368    2.8590 H   0  0  0  0  0  0  0  0  0  0  0  0
   -3.4079   -0.8003    1.4836 H   0  0  0  0  0  0  0  0  0  0  0  0
  1  7  1  0  0  0  0
  2  1  2  0  0  0  0
  3  2  1  0  0  0  0
  4  3  2  0  0  0  0
  4  5  1  0  0  0  0
  5  6  2  0  0  0  0
  6  1  1  0  0  0  0
  6 18  1  0  0  0  0
  8 14  1  0  0  0  0
  9  4  1  0  0  0  0
 10  5  1  0  0  0  0
 11  3  1  0  0  0  0
 12 11  1  0  0  0  0
 13 15  1  0  0  0  0
 16 13  1  0  0  0  0
 17 13  1  0  0  0  0
 18 19  1  0  0  0  0
 19 20  1  0  0  0  0
 19 21  1  0  0  0  0
 22 19  1  0  0  0  0
M  RAD  3   2   2  11   2  12   3
M  END
