Coordinates from ORCA-job p-CH3O-Ph-N2-X-BF4-B3LYPG-6-31G_dp-scan-d09-49-n400
 OpenBabel08281820543D

 22 21  0  0  0  0  0  0  0  0999 V2000
   -1.0170    0.7324    1.3540 C   0  0  0  0  0  0  0  0  0  0  0  0
    0.3175    0.9578    1.0604 C   0  0  0  0  0  0  0  0  0  0  0  0
    0.6181    1.6883   -0.1030 C   0  0  0  0  0  0  0  0  0  0  0  0
   -0.3768    2.1928   -0.9706 C   0  0  0  0  0  0  0  0  0  0  0  0
   -1.6951    1.9463   -0.6643 C   0  0  0  0  0  0  0  0  0  0  0  0
   -2.0283    1.2115    0.4988 C   0  0  0  0  0  0  0  0  0  0  0  0
   -1.2627    0.1724    2.2470 H   0  0  0  0  0  0  0  0  0  0  0  0
    1.1287    0.5947    1.6892 H   0  0  0  0  0  0  0  0  0  0  0  0
   -0.1009    2.7493   -1.8594 H   0  0  0  0  0  0  0  0  0  0  0  0
   -2.4969    2.3020   -1.3004 H   0  0  0  0  0  0  0  0  0  0  0  0
    1.9265    1.9554   -0.4204 N   0  0  0  0  0  0  0  0  0  0  0  0
    2.9704    2.2320   -0.7057 N   0  0  0  0  0  0  0  0  0  0  0  0
    3.5644   -0.2808    0.9328 B   0  0  0  0  0  0  0  0  0  0  0  0
    2.5404   -0.5107   -0.0299 F   0  0  0  0  0  0  0  0  0  0  0  0
    4.2245   -1.4406    1.2468 F   0  0  0  0  0  0  0  0  0  0  0  0
    4.4360    0.6983    0.3975 F   0  0  0  0  0  0  0  0  0  0  0  0
    2.9370    0.2850    2.0846 F   0  0  0  0  0  0  0  0  0  0  0  0
   -3.3404    1.0272    0.6976 O   0  0  0  0  0  0  0  0  0  0  0  0
   -3.7821    0.2742    1.8332 C   0  0  0  0  0  0  0  0  0  0  0  0
   -4.8695    0.2552    1.7647 H   0  0  0  0  0  0  0  0  0  0  0  0
   -3.4806    0.7592    2.7676 H   0  0  0  0  0  0  0  0  0  0  0  0
   -3.3931   -0.7484    1.8011 H   0  0  0  0  0  0  0  0  0  0  0  0
  1  7  1  0  0  0  0
  2  1  1  0  0  0  0
  2  8  1  0  0  0  0
  3  2  2  0  0  0  0
  4  5  2  0  0  0  0
  4  3  1  0  0  0  0
  5  6  1  0  0  0  0
  6 18  1  0  0  0  0
  6  1  2  0  0  0  0
  9  4  1  0  0  0  0
 10  5  1  0  0  0  0
 11  3  1  0  0  0  0
 12 11  1  0  0  0  0
 13 15  1  0  0  0  0
 13 17  1  0  0  0  0
 14 13  1  0  0  0  0
 16 13  1  0  0  0  0
 18 19  1  0  0  0  0
 19 21  1  0  0  0  0
 20 19  1  0  0  0  0
 22 19  1  0  0  0  0
M  RAD  2  11   2  12   3
M  END
