Coordinates from ORCA-job p-CH3O-Ph-N2-X-BF4-B3LYPG-6-31G_dp-scan-d09-49-n400
 OpenBabel08281820543D

 22 21  0  0  0  0  0  0  0  0999 V2000
   -1.0874    0.9361    1.5985 C   0  0  0  0  0  0  0  0  0  0  0  0
    0.2540    1.2457    1.4489 C   0  0  0  0  0  0  0  0  0  0  0  0
    0.6821    1.7536    0.2128 C   0  0  0  0  0  0  0  0  0  0  0  0
   -0.1946    1.9506   -0.8739 C   0  0  0  0  0  0  0  0  0  0  0  0
   -1.5221    1.6243   -0.7098 C   0  0  0  0  0  0  0  0  0  0  0  0
   -1.9824    1.1149    0.5256 C   0  0  0  0  0  0  0  0  0  0  0  0
   -1.4270    0.5400    2.5465 H   0  0  0  0  0  0  0  0  0  0  0  0
    0.9714    1.0778    2.2402 H   0  0  0  0  0  0  0  0  0  0  0  0
    0.1787    2.3327   -1.8169 H   0  0  0  0  0  0  0  0  0  0  0  0
   -2.2335    1.7454   -1.5185 H   0  0  0  0  0  0  0  0  0  0  0  0
    1.9931    2.1309    0.0408 N   0  0  0  0  0  0  0  0  0  0  0  0
    3.0171    2.5241   -0.1568 N   0  0  0  0  0  0  0  0  0  0  0  0
    3.4886   -0.3317    0.4406 B   0  0  0  0  0  0  0  0  0  0  0  0
    2.5939   -0.3004   -0.6589 F   0  0  0  0  0  0  0  0  0  0  0  0
    3.9592   -1.5975    0.6801 F   0  0  0  0  0  0  0  0  0  0  0  0
    4.5246    0.5912    0.1880 F   0  0  0  0  0  0  0  0  0  0  0  0
    2.7662    0.1636    1.5829 F   0  0  0  0  0  0  0  0  0  0  0  0
   -3.2923    0.8328    0.5756 O   0  0  0  0  0  0  0  0  0  0  0  0
   -3.8475    0.2837    1.7756 C   0  0  0  0  0  0  0  0  0  0  0  0
   -4.9060    0.1346    1.5656 H   0  0  0  0  0  0  0  0  0  0  0  0
   -3.7335    0.9780    2.6152 H   0  0  0  0  0  0  0  0  0  0  0  0
   -3.3828   -0.6769    2.0192 H   0  0  0  0  0  0  0  0  0  0  0  0
  1  7  1  0  0  0  0
  2  1  1  0  0  0  0
  2  8  1  0  0  0  0
  3  2  2  0  0  0  0
  4  5  2  0  0  0  0
  4  3  1  0  0  0  0
  5  6  1  0  0  0  0
  6 18  1  0  0  0  0
  6  1  2  0  0  0  0
  9  4  1  0  0  0  0
 10  5  1  0  0  0  0
 11  3  1  0  0  0  0
 12 11  1  0  0  0  0
 13 15  1  0  0  0  0
 13 17  1  0  0  0  0
 14 13  1  0  0  0  0
 16 13  1  0  0  0  0
 18 19  1  0  0  0  0
 19 22  1  0  0  0  0
 19 21  1  0  0  0  0
 20 19  1  0  0  0  0
M  RAD  2  11   2  12   3
M  END
