Coordinates from ORCA-job p-CH3O-Ph-N2-X-BF4-B3LYPG-6-31G_dp-scan-d09-49-n400
 OpenBabel08281820543D

 22 21  0  0  0  0  0  0  0  0999 V2000
   -0.9953    0.3650    0.9589 C   0  0  0  0  0  0  0  0  0  0  0  0
    0.3103    0.4632    0.5026 C   0  0  0  0  0  0  0  0  0  0  0  0
    0.5942    1.5089   -0.3983 C   0  0  0  0  0  0  0  0  0  0  0  0
   -0.3706    2.4393   -0.8500 C   0  0  0  0  0  0  0  0  0  0  0  0
   -1.6543    2.3175   -0.3747 C   0  0  0  0  0  0  0  0  0  0  0  0
   -1.9771    1.2826    0.5387 C   0  0  0  0  0  0  0  0  0  0  0  0
   -1.2405   -0.4278    1.6548 H   0  0  0  0  0  0  0  0  0  0  0  0
    1.1321   -0.2307    0.8167 H   0  0  0  0  0  0  0  0  0  0  0  0
   -0.0984    3.2270   -1.5442 H   0  0  0  0  0  0  0  0  0  0  0  0
   -2.4369    3.0026   -0.6787 H   0  0  0  0  0  0  0  0  0  0  0  0
    1.8739    1.6327   -0.8706 N   0  0  0  0  0  0  0  0  0  0  0  0
    2.9169    1.7067   -1.2636 N   0  0  0  0  0  0  0  0  0  0  0  0
    3.4664    0.0237    1.3512 B   0  0  0  0  0  0  0  0  0  0  0  0
    2.4094   -0.9585    1.2090 F   0  0  0  0  0  0  0  0  0  0  0  0
    4.2899   -0.3152    2.3897 F   0  0  0  0  0  0  0  0  0  0  0  0
    4.1460    0.0892    0.1191 F   0  0  0  0  0  0  0  0  0  0  0  0
    2.8202    1.2652    1.5654 F   0  0  0  0  0  0  0  0  0  0  0  0
   -3.2548    1.2663    0.9420 O   0  0  0  0  0  0  0  0  0  0  0  0
   -3.6822    0.2781    1.8862 C   0  0  0  0  0  0  0  0  0  0  0  0
   -4.7361    0.4857    2.0680 H   0  0  0  0  0  0  0  0  0  0  0  0
   -3.1226    0.3632    2.8232 H   0  0  0  0  0  0  0  0  0  0  0  0
   -3.5707   -0.7310    1.4761 H   0  0  0  0  0  0  0  0  0  0  0  0
  1  7  1  0  0  0  0
  2  8  1  0  0  0  0
  2  1  2  0  0  0  0
  3  2  1  0  0  0  0
  4  3  2  0  0  0  0
  4  5  1  0  0  0  0
  5  6  2  0  0  0  0
  6 18  1  0  0  0  0
  6  1  1  0  0  0  0
  9  4  1  0  0  0  0
 10  5  1  0  0  0  0
 11  3  1  0  0  0  0
 12 11  1  0  0  0  0
 13 17  1  0  0  0  0
 13 15  1  0  0  0  0
 14 13  1  0  0  0  0
 16 13  1  0  0  0  0
 18 19  1  0  0  0  0
 19 20  1  0  0  0  0
 19 21  1  0  0  0  0
 22 19  1  0  0  0  0
M  RAD  2  11   2  12   3
M  END
