Coordinates from ORCA-job p-CH3O-Ph-N2-X-BF4-B3LYPG-6-31G_dp-scan-d09-49-n400
 OpenBabel08281820543D

 22 21  0  0  0  0  0  0  0  0999 V2000
   -1.0647    0.3852    1.0214 C   0  0  0  0  0  0  0  0  0  0  0  0
    0.2510    0.4787    0.5988 C   0  0  0  0  0  0  0  0  0  0  0  0
    0.5780    1.5025   -0.3090 C   0  0  0  0  0  0  0  0  0  0  0  0
   -0.3745    2.4270   -0.7949 C   0  0  0  0  0  0  0  0  0  0  0  0
   -1.6729    2.3209   -0.3538 C   0  0  0  0  0  0  0  0  0  0  0  0
   -2.0310    1.2996    0.5588 C   0  0  0  0  0  0  0  0  0  0  0  0
   -1.3294   -0.3990    1.7191 H   0  0  0  0  0  0  0  0  0  0  0  0
    1.0195   -0.2060    0.9430 H   0  0  0  0  0  0  0  0  0  0  0  0
   -0.0802    3.2023   -1.4940 H   0  0  0  0  0  0  0  0  0  0  0  0
   -2.4407    3.0073   -0.6908 H   0  0  0  0  0  0  0  0  0  0  0  0
    1.8613    1.6133   -0.7817 N   0  0  0  0  0  0  0  0  0  0  0  0
    2.8834    1.7086   -1.2225 N   0  0  0  0  0  0  0  0  0  0  0  0
    3.6459   -0.0207    1.2519 B   0  0  0  0  0  0  0  0  0  0  0  0
    2.7901   -1.1441    1.1342 F   0  0  0  0  0  0  0  0  0  0  0  0
    4.5887   -0.2022    2.2321 F   0  0  0  0  0  0  0  0  0  0  0  0
    4.2486    0.2160   -0.0129 F   0  0  0  0  0  0  0  0  0  0  0  0
    2.8202    1.1099    1.5399 F   0  0  0  0  0  0  0  0  0  0  0  0
   -3.3206    1.2878    0.9198 O   0  0  0  0  0  0  0  0  0  0  0  0
   -3.7854    0.2963    1.8431 C   0  0  0  0  0  0  0  0  0  0  0  0
   -4.8458    0.5031    1.9829 H   0  0  0  0  0  0  0  0  0  0  0  0
   -3.2644    0.3783    2.8024 H   0  0  0  0  0  0  0  0  0  0  0  0
   -3.6573   -0.7112    1.4336 H   0  0  0  0  0  0  0  0  0  0  0  0
  1  7  1  0  0  0  0
  2  8  1  0  0  0  0
  2  1  1  0  0  0  0
  3  2  2  0  0  0  0
  4  5  2  0  0  0  0
  4  3  1  0  0  0  0
  5  6  1  0  0  0  0
  6 18  1  0  0  0  0
  6  1  2  0  0  0  0
  9  4  1  0  0  0  0
 10  5  1  0  0  0  0
 11  3  1  0  0  0  0
 12 11  1  0  0  0  0
 13 17  1  0  0  0  0
 13 15  1  0  0  0  0
 14 13  1  0  0  0  0
 16 13  1  0  0  0  0
 18 19  1  0  0  0  0
 19 20  1  0  0  0  0
 19 21  1  0  0  0  0
 22 19  1  0  0  0  0
M  RAD  2  11   2  12   3
M  END
