Coordinates from ORCA-job p-CH3O-Ph-N2-X-BF4-B3LYPG-6-31G_dp-scan-d09-49-n400
 OpenBabel08281820543D

 22 21  0  0  0  0  0  0  0  0999 V2000
   -0.9842    0.3967    0.9871 C   0  0  0  0  0  0  0  0  0  0  0  0
    0.3262    0.5066    0.5444 C   0  0  0  0  0  0  0  0  0  0  0  0
    0.5980    1.5419   -0.3729 C   0  0  0  0  0  0  0  0  0  0  0  0
   -0.3773    2.4507   -0.8481 C   0  0  0  0  0  0  0  0  0  0  0  0
   -1.6633    2.3154   -0.3842 C   0  0  0  0  0  0  0  0  0  0  0  0
   -1.9784    1.2869    0.5396 C   0  0  0  0  0  0  0  0  0  0  0  0
   -1.2241   -0.3875    1.6949 H   0  0  0  0  0  0  0  0  0  0  0  0
    1.1594   -0.1790    0.8928 H   0  0  0  0  0  0  0  0  0  0  0  0
   -0.1111    3.2310   -1.5531 H   0  0  0  0  0  0  0  0  0  0  0  0
   -2.4542    2.9820   -0.7073 H   0  0  0  0  0  0  0  0  0  0  0  0
    1.8752    1.6733   -0.8500 N   0  0  0  0  0  0  0  0  0  0  0  0
    2.9161    1.7529   -1.2463 N   0  0  0  0  0  0  0  0  0  0  0  0
    3.4723   -0.0076    1.3308 B   0  0  0  0  0  0  0  0  0  0  0  0
    2.3327   -0.9172    1.3229 F   0  0  0  0  0  0  0  0  0  0  0  0
    4.3514   -0.3698    2.3120 F   0  0  0  0  0  0  0  0  0  0  0  0
    4.0393   -0.0469    0.0449 F   0  0  0  0  0  0  0  0  0  0  0  0
    2.9294    1.2806    1.5408 F   0  0  0  0  0  0  0  0  0  0  0  0
   -3.2617    1.2500    0.9240 O   0  0  0  0  0  0  0  0  0  0  0  0
   -3.6862    0.2545    1.8618 C   0  0  0  0  0  0  0  0  0  0  0  0
   -4.7487    0.4366    2.0192 H   0  0  0  0  0  0  0  0  0  0  0  0
   -3.1502    0.3551    2.8109 H   0  0  0  0  0  0  0  0  0  0  0  0
   -3.5406   -0.7527    1.4573 H   0  0  0  0  0  0  0  0  0  0  0  0
  1  7  1  0  0  0  0
  2  8  1  0  0  0  0
  2  1  1  0  0  0  0
  3  2  2  0  0  0  0
  4  5  2  0  0  0  0
  4  3  1  0  0  0  0
  5  6  1  0  0  0  0
  6 18  1  0  0  0  0
  6  1  2  0  0  0  0
  9  4  1  0  0  0  0
 10  5  1  0  0  0  0
 11  3  1  0  0  0  0
 12 11  1  0  0  0  0
 13 17  1  0  0  0  0
 13 15  1  0  0  0  0
 14 13  1  0  0  0  0
 16 13  1  0  0  0  0
 18 19  1  0  0  0  0
 19 20  1  0  0  0  0
 19 21  1  0  0  0  0
 22 19  1  0  0  0  0
M  RAD  2  11   2  12   3
M  END
