Coordinates from ORCA-job p-CH3O-Ph-N2-X-BF4-B3LYPG-6-31G_dp-scan-d09-49-n400
 OpenBabel08281820543D

 22 21  0  0  0  0  0  0  0  0999 V2000
   -1.0927    1.0382    1.6733 C   0  0  0  0  0  0  0  0  0  0  0  0
    0.2397    1.3981    1.5665 C   0  0  0  0  0  0  0  0  0  0  0  0
    0.7157    1.8130    0.3138 C   0  0  0  0  0  0  0  0  0  0  0  0
   -0.0936    1.8450   -0.8376 C   0  0  0  0  0  0  0  0  0  0  0  0
   -1.4139    1.4735   -0.7149 C   0  0  0  0  0  0  0  0  0  0  0  0
   -1.9267    1.0685    0.5378 C   0  0  0  0  0  0  0  0  0  0  0  0
   -1.4707    0.7127    2.6335 H   0  0  0  0  0  0  0  0  0  0  0  0
    0.9086    1.3402    2.4144 H   0  0  0  0  0  0  0  0  0  0  0  0
    0.3277    2.1317   -1.7934 H   0  0  0  0  0  0  0  0  0  0  0  0
   -2.0771    1.4698   -1.5720 H   0  0  0  0  0  0  0  0  0  0  0  0
    2.0236    2.2152    0.1922 N   0  0  0  0  0  0  0  0  0  0  0  0
    3.0555    2.6176    0.0725 N   0  0  0  0  0  0  0  0  0  0  0  0
    3.3546   -0.3394    0.2707 B   0  0  0  0  0  0  0  0  0  0  0  0
    2.5109   -0.0940   -0.8481 F   0  0  0  0  0  0  0  0  0  0  0  0
    3.7346   -1.6559    0.3375 F   0  0  0  0  0  0  0  0  0  0  0  0
    4.4546    0.5372    0.1847 F   0  0  0  0  0  0  0  0  0  0  0  0
    2.6126    0.0357    1.4436 F   0  0  0  0  0  0  0  0  0  0  0  0
   -3.2238    0.7275    0.5418 O   0  0  0  0  0  0  0  0  0  0  0  0
   -3.8264    0.2681    1.7559 C   0  0  0  0  0  0  0  0  0  0  0  0
   -4.8622    0.0468    1.5020 H   0  0  0  0  0  0  0  0  0  0  0  0
   -3.7956    1.0443    2.5286 H   0  0  0  0  0  0  0  0  0  0  0  0
   -3.3354   -0.6403    2.1187 H   0  0  0  0  0  0  0  0  0  0  0  0
  1  7  1  0  0  0  0
  2  1  1  0  0  0  0
  2  8  1  0  0  0  0
  3  2  2  0  0  0  0
  4  5  2  0  0  0  0
  4  3  1  0  0  0  0
  5  6  1  0  0  0  0
  6 18  1  0  0  0  0
  6  1  2  0  0  0  0
  9  4  1  0  0  0  0
 10  5  1  0  0  0  0
 11  3  1  0  0  0  0
 12 11  1  0  0  0  0
 13 15  1  0  0  0  0
 13 17  1  0  0  0  0
 14 13  1  0  0  0  0
 16 13  1  0  0  0  0
 18 19  1  0  0  0  0
 19 22  1  0  0  0  0
 19 21  1  0  0  0  0
 20 19  1  0  0  0  0
M  RAD  2  11   2  12   3
M  END
