Coordinates from ORCA-job p-CH3O-Ph-N2-X-BF4-B3LYPG-6-31G_dp-scan-d09-49-n400
 OpenBabel08281820543D

 22 21  0  0  0  0  0  0  0  0999 V2000
   -1.0948    0.9469    1.6108 C   0  0  0  0  0  0  0  0  0  0  0  0
    0.2469    1.2574    1.4662 C   0  0  0  0  0  0  0  0  0  0  0  0
    0.6826    1.7497    0.2262 C   0  0  0  0  0  0  0  0  0  0  0  0
   -0.1868    1.9290   -0.8691 C   0  0  0  0  0  0  0  0  0  0  0  0
   -1.5147    1.6020   -0.7100 C   0  0  0  0  0  0  0  0  0  0  0  0
   -1.9826    1.1093    0.5292 C   0  0  0  0  0  0  0  0  0  0  0  0
   -1.4404    0.5629    2.5616 H   0  0  0  0  0  0  0  0  0  0  0  0
    0.9558    1.1050    2.2682 H   0  0  0  0  0  0  0  0  0  0  0  0
    0.1929    2.2982   -1.8147 H   0  0  0  0  0  0  0  0  0  0  0  0
   -2.2205    1.7100   -1.5253 H   0  0  0  0  0  0  0  0  0  0  0  0
    1.9929    2.1315    0.0596 N   0  0  0  0  0  0  0  0  0  0  0  0
    3.0168    2.5280   -0.1320 N   0  0  0  0  0  0  0  0  0  0  0  0
    3.4969   -0.3319    0.4116 B   0  0  0  0  0  0  0  0  0  0  0  0
    2.6410   -0.2792   -0.7170 F   0  0  0  0  0  0  0  0  0  0  0  0
    3.9887   -1.5949    0.6222 F   0  0  0  0  0  0  0  0  0  0  0  0
    4.5228    0.6208    0.2284 F   0  0  0  0  0  0  0  0  0  0  0  0
    2.7257    0.1065    1.5450 F   0  0  0  0  0  0  0  0  0  0  0  0
   -3.2925    0.8261    0.5739 O   0  0  0  0  0  0  0  0  0  0  0  0
   -3.8562    0.2946    1.7777 C   0  0  0  0  0  0  0  0  0  0  0  0
   -4.9134    0.1438    1.5629 H   0  0  0  0  0  0  0  0  0  0  0  0
   -3.7469    1.0005    2.6083 H   0  0  0  0  0  0  0  0  0  0  0  0
   -3.3943   -0.6630    2.0379 H   0  0  0  0  0  0  0  0  0  0  0  0
  1  7  1  0  0  0  0
  2  1  1  0  0  0  0
  2  8  1  0  0  0  0
  3  2  2  0  0  0  0
  4  5  2  0  0  0  0
  4  3  1  0  0  0  0
  5  6  1  0  0  0  0
  6 18  1  0  0  0  0
  6  1  2  0  0  0  0
  9  4  1  0  0  0  0
 10  5  1  0  0  0  0
 11  3  1  0  0  0  0
 12 11  1  0  0  0  0
 13 15  1  0  0  0  0
 13 17  1  0  0  0  0
 14 13  1  0  0  0  0
 16 13  1  0  0  0  0
 18 19  1  0  0  0  0
 19 22  1  0  0  0  0
 19 21  1  0  0  0  0
 20 19  1  0  0  0  0
M  RAD  2  11   2  12   3
M  END
