Coordinates from ORCA-job p-CH3O-Ph-N2-X-BF4-B3LYPG-6-31G_dp-scan-d09-49-n400
 OpenBabel08281820543D

 22 21  0  0  0  0  0  0  0  0999 V2000
   -1.0615    0.7805    1.4495 C   0  0  0  0  0  0  0  0  0  0  0  0
    0.2824    1.0223    1.2174 C   0  0  0  0  0  0  0  0  0  0  0  0
    0.6364    1.6887    0.0328 C   0  0  0  0  0  0  0  0  0  0  0  0
   -0.3179    2.1113   -0.9190 C   0  0  0  0  0  0  0  0  0  0  0  0
   -1.6466    1.8500   -0.6740 C   0  0  0  0  0  0  0  0  0  0  0  0
   -2.0322    1.1815    0.5113 C   0  0  0  0  0  0  0  0  0  0  0  0
   -1.3460    0.2681    2.3593 H   0  0  0  0  0  0  0  0  0  0  0  0
    1.0619    0.7091    1.9045 H   0  0  0  0  0  0  0  0  0  0  0  0
   -0.0030    2.6185   -1.8241 H   0  0  0  0  0  0  0  0  0  0  0  0
   -2.4164    2.1453   -1.3772 H   0  0  0  0  0  0  0  0  0  0  0  0
    1.9518    1.9919   -0.2303 N   0  0  0  0  0  0  0  0  0  0  0  0
    2.9788    2.3341   -0.5005 N   0  0  0  0  0  0  0  0  0  0  0  0
    3.5977   -0.2897    0.7346 B   0  0  0  0  0  0  0  0  0  0  0  0
    2.5998   -0.5128   -0.2495 F   0  0  0  0  0  0  0  0  0  0  0  0
    4.1751   -1.4614    1.1495 F   0  0  0  0  0  0  0  0  0  0  0  0
    4.5400    0.6161    0.1981 F   0  0  0  0  0  0  0  0  0  0  0  0
    2.9609    0.3830    1.8340 F   0  0  0  0  0  0  0  0  0  0  0  0
   -3.3500    0.9785    0.6480 O   0  0  0  0  0  0  0  0  0  0  0  0
   -3.8396    0.2879    1.8030 C   0  0  0  0  0  0  0  0  0  0  0  0
   -4.9205    0.2365    1.6752 H   0  0  0  0  0  0  0  0  0  0  0  0
   -3.6038    0.8389    2.7198 H   0  0  0  0  0  0  0  0  0  0  0  0
   -3.4274   -0.7247    1.8591 H   0  0  0  0  0  0  0  0  0  0  0  0
  1  7  1  0  0  0  0
  2  1  1  0  0  0  0
  2  8  1  0  0  0  0
  3  2  2  0  0  0  0
  4  5  2  0  0  0  0
  4  3  1  0  0  0  0
  5  6  1  0  0  0  0
  6 18  1  0  0  0  0
  6  1  2  0  0  0  0
  9  4  1  0  0  0  0
 10  5  1  0  0  0  0
 11  3  1  0  0  0  0
 12 11  1  0  0  0  0
 13 15  1  0  0  0  0
 13 17  1  0  0  0  0
 14 13  1  0  0  0  0
 16 13  1  0  0  0  0
 18 19  1  0  0  0  0
 19 22  1  0  0  0  0
 19 21  1  0  0  0  0
 20 19  1  0  0  0  0
M  RAD  2  11   2  12   3
M  END
