Coordinates from ORCA-job p-CH3O-Ph-N2-X-BF4-B3LYPG-6-31G_dp-scan-d09-49-n400
 OpenBabel08281820543D

 22 21  0  0  0  0  0  0  0  0999 V2000
   -1.0130    0.3735    0.9833 C   0  0  0  0  0  0  0  0  0  0  0  0
    0.2958    0.4705    0.5380 C   0  0  0  0  0  0  0  0  0  0  0  0
    0.5923    1.5045   -0.3711 C   0  0  0  0  0  0  0  0  0  0  0  0
   -0.3707    2.4266   -0.8421 C   0  0  0  0  0  0  0  0  0  0  0  0
   -1.6594    2.3095   -0.3785 C   0  0  0  0  0  0  0  0  0  0  0  0
   -1.9918    1.2847    0.5421 C   0  0  0  0  0  0  0  0  0  0  0  0
   -1.2633   -0.4126    1.6847 H   0  0  0  0  0  0  0  0  0  0  0  0
    1.1006   -0.2161    0.8611 H   0  0  0  0  0  0  0  0  0  0  0  0
   -0.0928    3.2059   -1.5435 H   0  0  0  0  0  0  0  0  0  0  0  0
   -2.4391    2.9903   -0.6992 H   0  0  0  0  0  0  0  0  0  0  0  0
    1.8735    1.6234   -0.8422 N   0  0  0  0  0  0  0  0  0  0  0  0
    2.9125    1.7075   -1.2435 N   0  0  0  0  0  0  0  0  0  0  0  0
    3.5130    0.0145    1.3230 B   0  0  0  0  0  0  0  0  0  0  0  0
    2.5021   -0.9974    1.1584 F   0  0  0  0  0  0  0  0  0  0  0  0
    4.3584   -0.3089    2.3500 F   0  0  0  0  0  0  0  0  0  0  0  0
    4.1907    0.1455    0.0909 F   0  0  0  0  0  0  0  0  0  0  0  0
    2.8224    1.2301    1.5700 F   0  0  0  0  0  0  0  0  0  0  0  0
   -3.2738    1.2696    0.9307 O   0  0  0  0  0  0  0  0  0  0  0  0
   -3.7117    0.2863    1.8754 C   0  0  0  0  0  0  0  0  0  0  0  0
   -4.7686    0.4920    2.0411 H   0  0  0  0  0  0  0  0  0  0  0  0
   -3.1656    0.3791    2.8196 H   0  0  0  0  0  0  0  0  0  0  0  0
   -3.5917   -0.7251    1.4733 H   0  0  0  0  0  0  0  0  0  0  0  0
  1  7  1  0  0  0  0
  2  8  1  0  0  0  0
  2  1  1  0  0  0  0
  3  2  2  0  0  0  0
  4  5  2  0  0  0  0
  4  3  1  0  0  0  0
  5  6  1  0  0  0  0
  6 18  1  0  0  0  0
  6  1  2  0  0  0  0
  9  4  1  0  0  0  0
 10  5  1  0  0  0  0
 11  3  1  0  0  0  0
 12 11  1  0  0  0  0
 13 17  1  0  0  0  0
 13 15  1  0  0  0  0
 14 13  1  0  0  0  0
 16 13  1  0  0  0  0
 18 19  1  0  0  0  0
 19 20  1  0  0  0  0
 19 21  1  0  0  0  0
 22 19  1  0  0  0  0
M  RAD  2  11   2  12   3
M  END
