Coordinates from ORCA-job p-CH3O-Ph-N2-X-BF4-B3LYPG-6-31G_dp-scan-d09-49-n400
 OpenBabel08281820543D

 22 21  0  0  0  0  0  0  0  0999 V2000
   -1.0141    0.7311    1.3505 C   0  0  0  0  0  0  0  0  0  0  0  0
    0.3198    0.9576    1.0553 C   0  0  0  0  0  0  0  0  0  0  0  0
    0.6181    1.6907   -0.1072 C   0  0  0  0  0  0  0  0  0  0  0  0
   -0.3783    2.1965   -0.9723 C   0  0  0  0  0  0  0  0  0  0  0  0
   -1.6960    1.9488   -0.6643 C   0  0  0  0  0  0  0  0  0  0  0  0
   -2.0269    1.2116    0.4979 C   0  0  0  0  0  0  0  0  0  0  0  0
   -1.2582    0.1695    2.2430 H   0  0  0  0  0  0  0  0  0  0  0  0
    1.1323    0.5948    1.6828 H   0  0  0  0  0  0  0  0  0  0  0  0
   -0.1040    2.7547   -1.8606 H   0  0  0  0  0  0  0  0  0  0  0  0
   -2.4990    2.3055   -1.2984 H   0  0  0  0  0  0  0  0  0  0  0  0
    1.9262    1.9568   -0.4263 N   0  0  0  0  0  0  0  0  0  0  0  0
    2.9708    2.2309   -0.7117 N   0  0  0  0  0  0  0  0  0  0  0  0
    3.5593   -0.2813    0.9397 B   0  0  0  0  0  0  0  0  0  0  0  0
    2.5308   -0.5088   -0.0192 F   0  0  0  0  0  0  0  0  0  0  0  0
    4.2175   -1.4430    1.2506 F   0  0  0  0  0  0  0  0  0  0  0  0
    4.4313    0.6952    0.4005 F   0  0  0  0  0  0  0  0  0  0  0  0
    2.9371    0.2856    2.0934 F   0  0  0  0  0  0  0  0  0  0  0  0
   -3.3386    1.0267    0.6985 O   0  0  0  0  0  0  0  0  0  0  0  0
   -3.7783    0.2721    1.8339 C   0  0  0  0  0  0  0  0  0  0  0  0
   -4.8658    0.2531    1.7673 H   0  0  0  0  0  0  0  0  0  0  0  0
   -3.4752    0.7559    2.7684 H   0  0  0  0  0  0  0  0  0  0  0  0
   -3.3892   -0.7504    1.7998 H   0  0  0  0  0  0  0  0  0  0  0  0
  1  7  1  0  0  0  0
  2  1  1  0  0  0  0
  2  8  1  0  0  0  0
  3  2  2  0  0  0  0
  4  5  2  0  0  0  0
  4  3  1  0  0  0  0
  5  6  1  0  0  0  0
  6 18  1  0  0  0  0
  6  1  2  0  0  0  0
  9  4  1  0  0  0  0
 10  5  1  0  0  0  0
 11  3  1  0  0  0  0
 12 11  1  0  0  0  0
 13 15  1  0  0  0  0
 13 17  1  0  0  0  0
 14 13  1  0  0  0  0
 16 13  1  0  0  0  0
 18 19  1  0  0  0  0
 19 21  1  0  0  0  0
 20 19  1  0  0  0  0
 22 19  1  0  0  0  0
M  RAD  2  11   2  12   3
M  END
