Coordinates from ORCA-job p-CH3O-Ph-N2-X-BF4-B3LYPG-6-31G_dp-scan-d09-49-n400
 OpenBabel08281820543D

 22 21  0  0  0  0  0  0  0  0999 V2000
   -1.4573    1.4859    1.9153 C   0  0  0  0  0  0  0  0  0  0  0  0
   -0.1025    1.7146    2.0700 C   0  0  0  0  0  0  0  0  0  0  0  0
    0.7916    1.1216    1.1569 C   0  0  0  0  0  0  0  0  0  0  0  0
    0.3658    0.2846    0.1030 C   0  0  0  0  0  0  0  0  0  0  0  0
   -0.9892    0.0669   -0.0267 C   0  0  0  0  0  0  0  0  0  0  0  0
   -1.9104    0.6628    0.8603 C   0  0  0  0  0  0  0  0  0  0  0  0
   -2.1527    1.9422    2.6075 H   0  0  0  0  0  0  0  0  0  0  0  0
    0.2600    2.3393    2.8807 H   0  0  0  0  0  0  0  0  0  0  0  0
    1.1143   -0.1638   -0.5422 H   0  0  0  0  0  0  0  0  0  0  0  0
   -1.3735   -0.5670   -0.8180 H   0  0  0  0  0  0  0  0  0  0  0  0
    2.1303    1.3728    1.3377 N   0  0  0  0  0  0  0  0  0  0  0  0
    3.1984    1.6168    1.5575 N   0  0  0  0  0  0  0  0  0  0  0  0
    3.5825    0.5190   -1.2109 B   0  0  0  0  0  0  0  0  0  0  0  0
    2.5464    1.4826   -1.3329 F   0  0  0  0  0  0  0  0  0  0  0  0
    4.1518    0.2277   -2.4234 F   0  0  0  0  0  0  0  0  0  0  0  0
    4.5332    1.0240   -0.2884 F   0  0  0  0  0  0  0  0  0  0  0  0
    2.9902   -0.6389   -0.6201 F   0  0  0  0  0  0  0  0  0  0  0  0
   -3.2003    0.3840    0.6274 O   0  0  0  0  0  0  0  0  0  0  0  0
   -4.2113    0.9464    1.4678 C   0  0  0  0  0  0  0  0  0  0  0  0
   -5.1573    0.5803    1.0710 H   0  0  0  0  0  0  0  0  0  0  0  0
   -4.1949    2.0410    1.4254 H   0  0  0  0  0  0  0  0  0  0  0  0
   -4.0952    0.6108    2.5039 H   0  0  0  0  0  0  0  0  0  0  0  0
  1  2  1  0  0  0  0
  1  7  1  0  0  0  0
  2  8  1  0  0  0  0
  3 11  1  0  0  0  0
  3  2  2  0  0  0  0
  4  3  1  0  0  0  0
  5  4  2  0  0  0  0
  5  6  1  0  0  0  0
  6  1  2  0  0  0  0
  9  4  1  0  0  0  0
 10  5  1  0  0  0  0
 11 12  1  0  0  0  0
 13 17  1  0  0  0  0
 13 16  1  0  0  0  0
 14 13  1  0  0  0  0
 15 13  1  0  0  0  0
 18  6  1  0  0  0  0
 18 19  1  0  0  0  0
 19 22  1  0  0  0  0
 20 19  1  0  0  0  0
 21 19  1  0  0  0  0
M  RAD  2  11   2  12   3
M  END
