Coordinates from ORCA-job p-CH3O-Ph-N2-X-BF4-B3LYPG-6-31G_dp-scan-d09-49-n400
 OpenBabel08281820543D

 22 21  0  0  0  0  0  0  0  0999 V2000
   -1.0466    0.7586    1.4139 C   0  0  0  0  0  0  0  0  0  0  0  0
    0.2943    0.9941    1.1602 C   0  0  0  0  0  0  0  0  0  0  0  0
    0.6292    1.6873   -0.0151 C   0  0  0  0  0  0  0  0  0  0  0  0
   -0.3401    2.1434   -0.9361 C   0  0  0  0  0  0  0  0  0  0  0  0
   -1.6657    1.8875   -0.6698 C   0  0  0  0  0  0  0  0  0  0  0  0
   -2.0325    1.1920    0.5063 C   0  0  0  0  0  0  0  0  0  0  0  0
   -1.3172    0.2265    2.3166 H   0  0  0  0  0  0  0  0  0  0  0  0
    1.0868    0.6635    1.8258 H   0  0  0  0  0  0  0  0  0  0  0  0
   -0.0394    2.6711   -1.8343 H   0  0  0  0  0  0  0  0  0  0  0  0
   -2.4475    2.2075   -1.3485 H   0  0  0  0  0  0  0  0  0  0  0  0
    1.9431    1.9771   -0.2957 N   0  0  0  0  0  0  0  0  0  0  0  0
    2.9761    2.2951   -0.5748 N   0  0  0  0  0  0  0  0  0  0  0  0
    3.5896   -0.2853    0.8060 B   0  0  0  0  0  0  0  0  0  0  0  0
    2.5791   -0.5187   -0.1650 F   0  0  0  0  0  0  0  0  0  0  0  0
    4.1925   -1.4512    1.1999 F   0  0  0  0  0  0  0  0  0  0  0  0
    4.5102    0.6359    0.2548 F   0  0  0  0  0  0  0  0  0  0  0  0
    2.9619    0.3693    1.9178 F   0  0  0  0  0  0  0  0  0  0  0  0
   -3.3489    0.9973    0.6654 O   0  0  0  0  0  0  0  0  0  0  0  0
   -3.8212    0.2829    1.8132 C   0  0  0  0  0  0  0  0  0  0  0  0
   -4.9052    0.2463    1.7078 H   0  0  0  0  0  0  0  0  0  0  0  0
   -3.5594    0.8079    2.7381 H   0  0  0  0  0  0  0  0  0  0  0  0
   -3.4190   -0.7349    1.8349 H   0  0  0  0  0  0  0  0  0  0  0  0
  1  7  1  0  0  0  0
  2  1  1  0  0  0  0
  2  8  1  0  0  0  0
  3  2  2  0  0  0  0
  4  5  2  0  0  0  0
  4  3  1  0  0  0  0
  5  6  1  0  0  0  0
  6 18  1  0  0  0  0
  6  1  2  0  0  0  0
  9  4  1  0  0  0  0
 10  5  1  0  0  0  0
 11  3  1  0  0  0  0
 12 11  1  0  0  0  0
 13 15  1  0  0  0  0
 13 17  1  0  0  0  0
 14 13  1  0  0  0  0
 16 13  1  0  0  0  0
 18 19  1  0  0  0  0
 19 22  1  0  0  0  0
 19 21  1  0  0  0  0
 20 19  1  0  0  0  0
M  RAD  2  11   2  12   3
M  END
