Coordinates from ORCA-job p-CH3O-Ph-N2-X-BF4-B3LYPG-6-31G_dp-scan-d09-49-n400
 OpenBabel08281820543D

 22 21  0  0  0  0  0  0  0  0999 V2000
   -1.1045    1.0970    1.7166 C   0  0  0  0  0  0  0  0  0  0  0  0
    0.2210    1.4868    1.6354 C   0  0  0  0  0  0  0  0  0  0  0  0
    0.7333    1.8431    0.3806 C   0  0  0  0  0  0  0  0  0  0  0  0
   -0.0222    1.7655   -0.8037 C   0  0  0  0  0  0  0  0  0  0  0  0
   -1.3383    1.3726   -0.7063 C   0  0  0  0  0  0  0  0  0  0  0  0
   -1.8928    1.0381    0.5496 C   0  0  0  0  0  0  0  0  0  0  0  0
   -1.5103    0.8141    2.6789 H   0  0  0  0  0  0  0  0  0  0  0  0
    0.8637    1.4883    2.5061 H   0  0  0  0  0  0  0  0  0  0  0  0
    0.4392    1.9817   -1.7588 H   0  0  0  0  0  0  0  0  0  0  0  0
   -1.9644    1.2887   -1.5868 H   0  0  0  0  0  0  0  0  0  0  0  0
    2.0402    2.2554    0.2947 N   0  0  0  0  0  0  0  0  0  0  0  0
    3.0750    2.6607    0.2208 N   0  0  0  0  0  0  0  0  0  0  0  0
    3.2788   -0.3277    0.1592 B   0  0  0  0  0  0  0  0  0  0  0  0
    2.4396    0.0483   -0.9331 F   0  0  0  0  0  0  0  0  0  0  0  0
    3.5907   -1.6630    0.1090 F   0  0  0  0  0  0  0  0  0  0  0  0
    4.4179    0.4987    0.1281 F   0  0  0  0  0  0  0  0  0  0  0  0
    2.5614   -0.0151    1.3606 F   0  0  0  0  0  0  0  0  0  0  0  0
   -3.1810    0.6653    0.5253 O   0  0  0  0  0  0  0  0  0  0  0  0
   -3.8215    0.2667    1.7407 C   0  0  0  0  0  0  0  0  0  0  0  0
   -4.8409    0.0045    1.4613 H   0  0  0  0  0  0  0  0  0  0  0  0
   -3.8395    1.0893    2.4644 H   0  0  0  0  0  0  0  0  0  0  0  0
   -3.3254   -0.6056    2.1787 H   0  0  0  0  0  0  0  0  0  0  0  0
  1  7  1  0  0  0  0
  2  1  1  0  0  0  0
  2  8  1  0  0  0  0
  3  2  2  0  0  0  0
  4  5  2  0  0  0  0
  4  3  1  0  0  0  0
  5  6  1  0  0  0  0
  6  1  2  0  0  0  0
  9  4  1  0  0  0  0
 10  5  1  0  0  0  0
 11  3  1  0  0  0  0
 12 11  1  0  0  0  0
 13 17  1  0  0  0  0
 14 13  1  0  0  0  0
 15 13  1  0  0  0  0
 16 13  1  0  0  0  0
 18  6  1  0  0  0  0
 18 19  1  0  0  0  0
 19 22  1  0  0  0  0
 19 21  1  0  0  0  0
 20 19  1  0  0  0  0
M  RAD  2  11   2  12   3
M  END
