Coordinates from ORCA-job p-CH3O-Ph-N2-X-BF4-B3LYPG-6-31G_dp-scan-d09-49-n400
 OpenBabel08281820543D

 22 21  0  0  0  0  0  0  0  0999 V2000
   -1.0172    0.7345    1.3579 C   0  0  0  0  0  0  0  0  0  0  0  0
    0.3175    0.9632    1.0680 C   0  0  0  0  0  0  0  0  0  0  0  0
    0.6197    1.6919   -0.0959 C   0  0  0  0  0  0  0  0  0  0  0  0
   -0.3737    2.1912   -0.9681 C   0  0  0  0  0  0  0  0  0  0  0  0
   -1.6923    1.9417   -0.6654 C   0  0  0  0  0  0  0  0  0  0  0  0
   -2.0272    1.2090    0.4985 C   0  0  0  0  0  0  0  0  0  0  0  0
   -1.2643    0.1765    2.2517 H   0  0  0  0  0  0  0  0  0  0  0  0
    1.1276    0.6055    1.7013 H   0  0  0  0  0  0  0  0  0  0  0  0
   -0.0965    2.7460   -1.8575 H   0  0  0  0  0  0  0  0  0  0  0  0
   -2.4930    2.2936   -1.3050 H   0  0  0  0  0  0  0  0  0  0  0  0
    1.9287    1.9608   -0.4103 N   0  0  0  0  0  0  0  0  0  0  0  0
    2.9721    2.2397   -0.6950 N   0  0  0  0  0  0  0  0  0  0  0  0
    3.5609   -0.2827    0.9243 B   0  0  0  0  0  0  0  0  0  0  0  0
    2.5310   -0.5098   -0.0327 F   0  0  0  0  0  0  0  0  0  0  0  0
    4.2108   -1.4462    1.2456 F   0  0  0  0  0  0  0  0  0  0  0  0
    4.4408    0.6828    0.3782 F   0  0  0  0  0  0  0  0  0  0  0  0
    2.9425    0.2996    2.0731 F   0  0  0  0  0  0  0  0  0  0  0  0
   -3.3394    1.0223    0.6941 O   0  0  0  0  0  0  0  0  0  0  0  0
   -3.7825    0.2721    1.8310 C   0  0  0  0  0  0  0  0  0  0  0  0
   -4.8696    0.2500    1.7595 H   0  0  0  0  0  0  0  0  0  0  0  0
   -3.4851    0.7611    2.7646 H   0  0  0  0  0  0  0  0  0  0  0  0
   -3.3908   -0.7496    1.8036 H   0  0  0  0  0  0  0  0  0  0  0  0
  1  7  1  0  0  0  0
  2  1  1  0  0  0  0
  2  8  1  0  0  0  0
  3  2  2  0  0  0  0
  4  5  2  0  0  0  0
  4  3  1  0  0  0  0
  5  6  1  0  0  0  0
  6 18  1  0  0  0  0
  6  1  2  0  0  0  0
  9  4  1  0  0  0  0
 10  5  1  0  0  0  0
 11  3  1  0  0  0  0
 12 11  1  0  0  0  0
 13 15  1  0  0  0  0
 13 17  1  0  0  0  0
 14 13  1  0  0  0  0
 16 13  1  0  0  0  0
 18 19  1  0  0  0  0
 19 21  1  0  0  0  0
 20 19  1  0  0  0  0
 22 19  1  0  0  0  0
M  RAD  2  11   2  12   3
M  END
