Coordinates from ORCA-job p-CH3O-Ph-N2-X-BF4-B3LYPG-6-31G_dp-scan-d09-49-n400
 OpenBabel08281820543D

 22 21  0  0  0  0  0  0  0  0999 V2000
   -0.9813    0.3995    0.9880 C   0  0  0  0  0  0  0  0  0  0  0  0
    0.3297    0.5104    0.5461 C   0  0  0  0  0  0  0  0  0  0  0  0
    0.5978    1.5459   -0.3725 C   0  0  0  0  0  0  0  0  0  0  0  0
   -0.3791    2.4525   -0.8495 C   0  0  0  0  0  0  0  0  0  0  0  0
   -1.6647    2.3149   -0.3859 C   0  0  0  0  0  0  0  0  0  0  0  0
   -1.9774    1.2865    0.5391 C   0  0  0  0  0  0  0  0  0  0  0  0
   -1.2204   -0.3840    1.6970 H   0  0  0  0  0  0  0  0  0  0  0  0
    1.1698   -0.1761    0.8989 H   0  0  0  0  0  0  0  0  0  0  0  0
   -0.1143    3.2324   -1.5555 H   0  0  0  0  0  0  0  0  0  0  0  0
   -2.4572    2.9792   -0.7099 H   0  0  0  0  0  0  0  0  0  0  0  0
    1.8746    1.6799   -0.8498 N   0  0  0  0  0  0  0  0  0  0  0  0
    2.9157    1.7618   -1.2455 N   0  0  0  0  0  0  0  0  0  0  0  0
    3.4696   -0.0099    1.3296 B   0  0  0  0  0  0  0  0  0  0  0  0
    2.3134   -0.9049    1.3246 F   0  0  0  0  0  0  0  0  0  0  0  0
    4.3431   -0.3882    2.3091 F   0  0  0  0  0  0  0  0  0  0  0  0
    4.0303   -0.0601    0.0428 F   0  0  0  0  0  0  0  0  0  0  0  0
    2.9441    1.2836    1.5415 F   0  0  0  0  0  0  0  0  0  0  0  0
   -3.2609    1.2473    0.9232 O   0  0  0  0  0  0  0  0  0  0  0  0
   -3.6834    0.2518    1.8618 C   0  0  0  0  0  0  0  0  0  0  0  0
   -4.7465    0.4316    2.0186 H   0  0  0  0  0  0  0  0  0  0  0  0
   -3.1480    0.3547    2.8111 H   0  0  0  0  0  0  0  0  0  0  0  0
   -3.5351   -0.7555    1.4586 H   0  0  0  0  0  0  0  0  0  0  0  0
  1  7  1  0  0  0  0
  2  8  1  0  0  0  0
  2  1  1  0  0  0  0
  3  2  2  0  0  0  0
  4  5  2  0  0  0  0
  4  3  1  0  0  0  0
  5  6  1  0  0  0  0
  6 18  1  0  0  0  0
  6  1  2  0  0  0  0
  9  4  1  0  0  0  0
 10  5  1  0  0  0  0
 11  3  1  0  0  0  0
 12 11  1  0  0  0  0
 13 17  1  0  0  0  0
 13 15  1  0  0  0  0
 14 13  1  0  0  0  0
 16 13  1  0  0  0  0
 18 19  1  0  0  0  0
 19 20  1  0  0  0  0
 19 21  1  0  0  0  0
 22 19  1  0  0  0  0
M  RAD  2  11   2  12   3
M  END
