Coordinates from ORCA-job p-CH3O-Ph-N2-X-BF4-B3LYPG-6-31G_dp-scan-d09-49-n400
 OpenBabel08281820543D

 22 21  0  0  0  0  0  0  0  0999 V2000
   -0.9701    0.4098    0.9865 C   0  0  0  0  0  0  0  0  0  0  0  0
    0.3447    0.5241    0.5487 C   0  0  0  0  0  0  0  0  0  0  0  0
    0.5939    1.5617   -0.3747 C   0  0  0  0  0  0  0  0  0  0  0  0
   -0.3894    2.4592   -0.8603 C   0  0  0  0  0  0  0  0  0  0  0  0
   -1.6735    2.3115   -0.3981 C   0  0  0  0  0  0  0  0  0  0  0  0
   -1.9747    1.2840    0.5330 C   0  0  0  0  0  0  0  0  0  0  0  0
   -1.2077   -0.3707    1.7000 H   0  0  0  0  0  0  0  0  0  0  0  0
    1.2271   -0.1768    0.9291 H   0  0  0  0  0  0  0  0  0  0  0  0
   -0.1306    3.2376   -1.5705 H   0  0  0  0  0  0  0  0  0  0  0  0
   -2.4729    2.9655   -0.7260 H   0  0  0  0  0  0  0  0  0  0  0  0
    1.8695    1.7115   -0.8503 N   0  0  0  0  0  0  0  0  0  0  0  0
    2.9110    1.8086   -1.2416 N   0  0  0  0  0  0  0  0  0  0  0  0
    3.4647   -0.0181    1.3308 B   0  0  0  0  0  0  0  0  0  0  0  0
    2.2350   -0.8551    1.3351 F   0  0  0  0  0  0  0  0  0  0  0  0
    4.3071   -0.4712    2.3020 F   0  0  0  0  0  0  0  0  0  0  0  0
    3.9940   -0.1111    0.0409 F   0  0  0  0  0  0  0  0  0  0  0  0
    3.0101    1.2902    1.5560 F   0  0  0  0  0  0  0  0  0  0  0  0
   -3.2588    1.2362    0.9170 O   0  0  0  0  0  0  0  0  0  0  0  0
   -3.6718    0.2449    1.8635 C   0  0  0  0  0  0  0  0  0  0  0  0
   -4.7362    0.4167    2.0204 H   0  0  0  0  0  0  0  0  0  0  0  0
   -3.1361    0.3593    2.8114 H   0  0  0  0  0  0  0  0  0  0  0  0
   -3.5153   -0.7644    1.4685 H   0  0  0  0  0  0  0  0  0  0  0  0
  1  7  1  0  0  0  0
  2  8  1  0  0  0  0
  2  1  1  0  0  0  0
  3  2  2  0  0  0  0
  4  5  2  0  0  0  0
  4  3  1  0  0  0  0
  5  6  1  0  0  0  0
  6 18  1  0  0  0  0
  6  1  2  0  0  0  0
  9  4  1  0  0  0  0
 10  5  1  0  0  0  0
 11  3  1  0  0  0  0
 12 11  1  0  0  0  0
 13 14  1  0  0  0  0
 13 17  1  0  0  0  0
 13 15  1  0  0  0  0
 16 13  1  0  0  0  0
 18 19  1  0  0  0  0
 19 20  1  0  0  0  0
 19 21  1  0  0  0  0
 22 19  1  0  0  0  0
M  RAD  2  11   2  12   3
M  END
