Coordinates from ORCA-job p-CH3O-Ph-N2-X-BF4-B3LYPG-6-31G_dp-scan-d09-49-n400
 OpenBabel08281820543D

 22 21  0  0  0  0  0  0  0  0999 V2000
   -1.4588    1.4840    1.9185 C   0  0  0  0  0  0  0  0  0  0  0  0
   -0.1042    1.7136    2.0736 C   0  0  0  0  0  0  0  0  0  0  0  0
    0.7901    1.1260    1.1570 C   0  0  0  0  0  0  0  0  0  0  0  0
    0.3645    0.2931    0.0998 C   0  0  0  0  0  0  0  0  0  0  0  0
   -0.9904    0.0748   -0.0305 C   0  0  0  0  0  0  0  0  0  0  0  0
   -1.9118    0.6657    0.8596 C   0  0  0  0  0  0  0  0  0  0  0  0
   -2.1543    1.9357    2.6136 H   0  0  0  0  0  0  0  0  0  0  0  0
    0.2568    2.3344    2.8883 H   0  0  0  0  0  0  0  0  0  0  0  0
    1.1127   -0.1553   -0.5457 H   0  0  0  0  0  0  0  0  0  0  0  0
   -1.3742   -0.5567   -0.8240 H   0  0  0  0  0  0  0  0  0  0  0  0
    2.1287    1.3795    1.3355 N   0  0  0  0  0  0  0  0  0  0  0  0
    3.1974    1.6247    1.5514 N   0  0  0  0  0  0  0  0  0  0  0  0
    3.5873    0.5131   -1.2124 B   0  0  0  0  0  0  0  0  0  0  0  0
    2.5563    1.4785   -1.3531 F   0  0  0  0  0  0  0  0  0  0  0  0
    4.1653    0.2049   -2.4165 F   0  0  0  0  0  0  0  0  0  0  0  0
    4.5337    1.0246   -0.2882 F   0  0  0  0  0  0  0  0  0  0  0  0
    2.9866   -0.6356   -0.6117 F   0  0  0  0  0  0  0  0  0  0  0  0
   -3.2015    0.3866    0.6262 O   0  0  0  0  0  0  0  0  0  0  0  0
   -4.2127    0.9433    1.4702 C   0  0  0  0  0  0  0  0  0  0  0  0
   -5.1584    0.5779    1.0722 H   0  0  0  0  0  0  0  0  0  0  0  0
   -4.1978    2.0381    1.4334 H   0  0  0  0  0  0  0  0  0  0  0  0
   -4.0954    0.6026    2.5045 H   0  0  0  0  0  0  0  0  0  0  0  0
  1  2  1  0  0  0  0
  1  7  1  0  0  0  0
  2  8  1  0  0  0  0
  3 11  1  0  0  0  0
  3  2  2  0  0  0  0
  4  3  1  0  0  0  0
  5  4  2  0  0  0  0
  5  6  1  0  0  0  0
  6  1  2  0  0  0  0
  9  4  1  0  0  0  0
 10  5  1  0  0  0  0
 11 12  1  0  0  0  0
 13 17  1  0  0  0  0
 13 16  1  0  0  0  0
 14 13  1  0  0  0  0
 15 13  1  0  0  0  0
 18  6  1  0  0  0  0
 18 19  1  0  0  0  0
 19 22  1  0  0  0  0
 20 19  1  0  0  0  0
 21 19  1  0  0  0  0
M  RAD  2  11   2  12   3
M  END
