Coordinates from ORCA-job p-CH3O-Ph-N2-X-BF4-B3LYPG-6-31G_dp-scan-d09-49-n400
 OpenBabel08281820543D

 22 20  0  0  0  0  0  0  0  0999 V2000
   -0.9417    0.4447    0.8367 C   0  0  0  0  0  0  0  0  0  0  0  0
    0.3482    0.5835    0.3004 C   0  0  0  0  0  0  0  0  0  0  0  0
    0.4565    1.7099   -0.5512 C   0  0  0  0  0  0  0  0  0  0  0  0
   -0.5655    2.6446   -0.8844 C   0  0  0  0  0  0  0  0  0  0  0  0
   -1.7955    2.4420   -0.3194 C   0  0  0  0  0  0  0  0  0  0  0  0
   -1.9903    1.3339    0.5532 C   0  0  0  0  0  0  0  0  0  0  0  0
   -1.1308   -0.3893    1.5064 H   0  0  0  0  0  0  0  0  0  0  0  0
    1.5716   -0.4269    0.6665 H   0  0  0  0  0  0  0  0  0  0  0  0
   -0.3768    3.4802   -1.5520 H   0  0  0  0  0  0  0  0  0  0  0  0
   -2.6313    3.1040   -0.5149 H   0  0  0  0  0  0  0  0  0  0  0  0
    1.6820    1.9252   -1.1205 N   0  0  0  0  0  0  0  0  0  0  0  0
    2.6911    2.0863   -1.5788 N   0  0  0  0  0  0  0  0  0  0  0  0
    3.6035   -0.1232    1.5701 B   0  0  0  0  0  0  0  0  0  0  0  0
    2.2556   -0.9821    0.8943 F   0  0  0  0  0  0  0  0  0  0  0  0
    3.1824    0.0974    2.8300 F   0  0  0  0  0  0  0  0  0  0  0  0
    4.5857   -1.0219    1.3899 F   0  0  0  0  0  0  0  0  0  0  0  0
    3.6232    0.9681    0.7529 F   0  0  0  0  0  0  0  0  0  0  0  0
   -3.2380    1.2427    1.0494 O   0  0  0  0  0  0  0  0  0  0  0  0
   -3.5528    0.1794    1.9513 C   0  0  0  0  0  0  0  0  0  0  0  0
   -4.6005    0.3205    2.2163 H   0  0  0  0  0  0  0  0  0  0  0  0
   -2.9345    0.2308    2.8534 H   0  0  0  0  0  0  0  0  0  0  0  0
   -3.4223   -0.7967    1.4720 H   0  0  0  0  0  0  0  0  0  0  0  0
  1  7  1  0  0  0  0
  2  1  2  0  0  0  0
  3  2  1  0  0  0  0
  4  3  2  0  0  0  0
  4  5  1  0  0  0  0
  5  6  2  0  0  0  0
  6  1  1  0  0  0  0
  6 18  1  0  0  0  0
  8 14  1  0  0  0  0
  9  4  1  0  0  0  0
 10  5  1  0  0  0  0
 11  3  1  0  0  0  0
 12 11  1  0  0  0  0
 13 15  1  0  0  0  0
 16 13  1  0  0  0  0
 17 13  1  0  0  0  0
 18 19  1  0  0  0  0
 19 20  1  0  0  0  0
 19 21  1  0  0  0  0
 22 19  1  0  0  0  0
M  RAD  3   2   2  11   2  12   3
M  END
