Coordinates from ORCA-job p-CH3O-Ph-N2-X-BF4-B3LYPG-6-31G_dp-scan-d09-49-n400
 OpenBabel08281820543D

 22 21  0  0  0  0  0  0  0  0999 V2000
   -1.1297    1.1369    1.7506 C   0  0  0  0  0  0  0  0  0  0  0  0
    0.1938    1.5376    1.6895 C   0  0  0  0  0  0  0  0  0  0  0  0
    0.7414    1.8386    0.4360 C   0  0  0  0  0  0  0  0  0  0  0  0
    0.0261    1.6917   -0.7665 C   0  0  0  0  0  0  0  0  0  0  0  0
   -1.2900    1.2947   -0.6890 C   0  0  0  0  0  0  0  0  0  0  0  0
   -1.8811    1.0167    0.5638 C   0  0  0  0  0  0  0  0  0  0  0  0
   -1.5620    0.8946    2.7125 H   0  0  0  0  0  0  0  0  0  0  0  0
    0.8091    1.5897    2.5785 H   0  0  0  0  0  0  0  0  0  0  0  0
    0.5216    1.8530   -1.7147 H   0  0  0  0  0  0  0  0  0  0  0  0
   -1.8871    1.1596   -1.5831 H   0  0  0  0  0  0  0  0  0  0  0  0
    2.0476    2.2575    0.3763 N   0  0  0  0  0  0  0  0  0  0  0  0
    3.0821    2.6679    0.3325 N   0  0  0  0  0  0  0  0  0  0  0  0
    3.2701   -0.3117    0.0600 B   0  0  0  0  0  0  0  0  0  0  0  0
    2.4194    0.1301   -1.0017 F   0  0  0  0  0  0  0  0  0  0  0  0
    3.5758   -1.6424   -0.0743 F   0  0  0  0  0  0  0  0  0  0  0  0
    4.4120    0.5116    0.0577 F   0  0  0  0  0  0  0  0  0  0  0  0
    2.5677   -0.0660    1.2821 F   0  0  0  0  0  0  0  0  0  0  0  0
   -3.1652    0.6319    0.5175 O   0  0  0  0  0  0  0  0  0  0  0  0
   -3.8410    0.2844    1.7288 C   0  0  0  0  0  0  0  0  0  0  0  0
   -4.8489   -0.0004    1.4297 H   0  0  0  0  0  0  0  0  0  0  0  0
   -3.8894    1.1393    2.4124 H   0  0  0  0  0  0  0  0  0  0  0  0
   -3.3525   -0.5620    2.2229 H   0  0  0  0  0  0  0  0  0  0  0  0
  1  7  1  0  0  0  0
  2  1  1  0  0  0  0
  2  8  1  0  0  0  0
  3  2  2  0  0  0  0
  4  5  2  0  0  0  0
  4  3  1  0  0  0  0
  5  6  1  0  0  0  0
  6  1  2  0  0  0  0
  9  4  1  0  0  0  0
 10  5  1  0  0  0  0
 11  3  1  0  0  0  0
 12 11  1  0  0  0  0
 13 17  1  0  0  0  0
 14 13  1  0  0  0  0
 15 13  1  0  0  0  0
 16 13  1  0  0  0  0
 18  6  1  0  0  0  0
 18 19  1  0  0  0  0
 19 22  1  0  0  0  0
 19 21  1  0  0  0  0
 20 19  1  0  0  0  0
M  RAD  2  11   2  12   3
M  END
