Coordinates from ORCA-job p-CH3O-Ph-N2-X-BF4-B3LYPG-6-31G_dp-scan-d09-49-n400
 OpenBabel08281820543D

 22 21  0  0  0  0  0  0  0  0999 V2000
   -1.1638    1.1789    1.7834 C   0  0  0  0  0  0  0  0  0  0  0  0
    0.1590    1.5844    1.7405 C   0  0  0  0  0  0  0  0  0  0  0  0
    0.7457    1.8204    0.4908 C   0  0  0  0  0  0  0  0  0  0  0  0
    0.0684    1.6102   -0.7246 C   0  0  0  0  0  0  0  0  0  0  0  0
   -1.2493    1.2155   -0.6651 C   0  0  0  0  0  0  0  0  0  0  0  0
   -1.8781    0.9977    0.5811 C   0  0  0  0  0  0  0  0  0  0  0  0
   -1.6247    0.9848    2.7429 H   0  0  0  0  0  0  0  0  0  0  0  0
    0.7475    1.6885    2.6434 H   0  0  0  0  0  0  0  0  0  0  0  0
    0.5975    1.7168   -1.6616 H   0  0  0  0  0  0  0  0  0  0  0  0
   -1.8186    1.0331   -1.5689 H   0  0  0  0  0  0  0  0  0  0  0  0
    2.0517    2.2437    0.4577 N   0  0  0  0  0  0  0  0  0  0  0  0
    3.0858    2.6571    0.4447 N   0  0  0  0  0  0  0  0  0  0  0  0
    3.2885   -0.2924   -0.0450 B   0  0  0  0  0  0  0  0  0  0  0  0
    2.4286    0.2131   -1.0742 F   0  0  0  0  0  0  0  0  0  0  0  0
    3.6014   -1.6092   -0.2688 F   0  0  0  0  0  0  0  0  0  0  0  0
    4.4251    0.5369   -0.0050 F   0  0  0  0  0  0  0  0  0  0  0  0
    2.5882   -0.1290    1.1885 F   0  0  0  0  0  0  0  0  0  0  0  0
   -3.1592    0.6061    0.5144 O   0  0  0  0  0  0  0  0  0  0  0  0
   -3.8701    0.3093    1.7186 C   0  0  0  0  0  0  0  0  0  0  0  0
   -4.8664    0.0034    1.4020 H   0  0  0  0  0  0  0  0  0  0  0  0
   -3.9455    1.1939    2.3607 H   0  0  0  0  0  0  0  0  0  0  0  0
   -3.3919   -0.5100    2.2659 H   0  0  0  0  0  0  0  0  0  0  0  0
  1  7  1  0  0  0  0
  2  1  1  0  0  0  0
  2  8  1  0  0  0  0
  3  2  2  0  0  0  0
  4  5  2  0  0  0  0
  4  3  1  0  0  0  0
  5  6  1  0  0  0  0
  6  1  2  0  0  0  0
  9  4  1  0  0  0  0
 10  5  1  0  0  0  0
 11  3  1  0  0  0  0
 12 11  1  0  0  0  0
 13 16  1  0  0  0  0
 13 17  1  0  0  0  0
 14 13  1  0  0  0  0
 15 13  1  0  0  0  0
 18  6  1  0  0  0  0
 18 19  1  0  0  0  0
 19 22  1  0  0  0  0
 19 21  1  0  0  0  0
 20 19  1  0  0  0  0
M  RAD  2  11   2  12   3
M  END
