Coordinates from ORCA-job p-CH3O-Ph-N2-X-BF4-B3LYPG-6-31G_dp-scan-d09-49-n400
 OpenBabel08281820543D

 22 21  0  0  0  0  0  0  0  0999 V2000
   -1.0835    0.9379    1.5959 C   0  0  0  0  0  0  0  0  0  0  0  0
    0.2574    1.2491    1.4452 C   0  0  0  0  0  0  0  0  0  0  0  0
    0.6830    1.7597    0.2090 C   0  0  0  0  0  0  0  0  0  0  0  0
   -0.1961    1.9600   -0.8752 C   0  0  0  0  0  0  0  0  0  0  0  0
   -1.5232    1.6329   -0.7095 C   0  0  0  0  0  0  0  0  0  0  0  0
   -1.9805    1.1184    0.5249 C   0  0  0  0  0  0  0  0  0  0  0  0
   -1.4212    0.5389    2.5433 H   0  0  0  0  0  0  0  0  0  0  0  0
    0.9764    1.0785    2.2347 H   0  0  0  0  0  0  0  0  0  0  0  0
    0.1752    2.3451   -1.8177 H   0  0  0  0  0  0  0  0  0  0  0  0
   -2.2362    1.7563   -1.5162 H   0  0  0  0  0  0  0  0  0  0  0  0
    1.9948    2.1331    0.0331 N   0  0  0  0  0  0  0  0  0  0  0  0
    3.0195    2.5229   -0.1676 N   0  0  0  0  0  0  0  0  0  0  0  0
    3.4792   -0.3350    0.4506 B   0  0  0  0  0  0  0  0  0  0  0  0
    2.5707   -0.3088   -0.6385 F   0  0  0  0  0  0  0  0  0  0  0  0
    3.9416   -1.6021    0.6985 F   0  0  0  0  0  0  0  0  0  0  0  0
    4.5189    0.5759    0.1738 F   0  0  0  0  0  0  0  0  0  0  0  0
    2.7754    0.1796    1.5967 F   0  0  0  0  0  0  0  0  0  0  0  0
   -3.2897    0.8330    0.5758 O   0  0  0  0  0  0  0  0  0  0  0  0
   -3.8413    0.2751    1.7734 C   0  0  0  0  0  0  0  0  0  0  0  0
   -4.8994    0.1232    1.5638 H   0  0  0  0  0  0  0  0  0  0  0  0
   -3.7288    0.9649    2.6169 H   0  0  0  0  0  0  0  0  0  0  0  0
   -3.3726   -0.6852    2.0109 H   0  0  0  0  0  0  0  0  0  0  0  0
  1  7  1  0  0  0  0
  2  1  1  0  0  0  0
  2  8  1  0  0  0  0
  3  2  2  0  0  0  0
  4  5  2  0  0  0  0
  4  3  1  0  0  0  0
  5  6  1  0  0  0  0
  6 18  1  0  0  0  0
  6  1  2  0  0  0  0
  9  4  1  0  0  0  0
 10  5  1  0  0  0  0
 11  3  1  0  0  0  0
 12 11  1  0  0  0  0
 13 15  1  0  0  0  0
 13 17  1  0  0  0  0
 14 13  1  0  0  0  0
 16 13  1  0  0  0  0
 18 19  1  0  0  0  0
 19 22  1  0  0  0  0
 19 21  1  0  0  0  0
 20 19  1  0  0  0  0
M  RAD  2  11   2  12   3
M  END
