Coordinates from ORCA-job p-CH3O-Ph-N2-X-BF4-B3LYPG-6-31G_dp-scan-d09-49-n400
 OpenBabel08281820543D

 22 21  0  0  0  0  0  0  0  0999 V2000
   -1.0806    0.8599    1.5340 C   0  0  0  0  0  0  0  0  0  0  0  0
    0.2653    1.1305    1.3496 C   0  0  0  0  0  0  0  0  0  0  0  0
    0.6599    1.7185    0.1371 C   0  0  0  0  0  0  0  0  0  0  0  0
   -0.2576    2.0398   -0.8864 C   0  0  0  0  0  0  0  0  0  0  0  0
   -1.5889    1.7525   -0.6874 C   0  0  0  0  0  0  0  0  0  0  0  0
   -2.0140    1.1566    0.5219 C   0  0  0  0  0  0  0  0  0  0  0  0
   -1.3949    0.4035    2.4636 H   0  0  0  0  0  0  0  0  0  0  0  0
    1.0122    0.8818    2.0932 H   0  0  0  0  0  0  0  0  0  0  0  0
    0.0877    2.4894   -1.8103 H   0  0  0  0  0  0  0  0  0  0  0  0
   -2.3299    1.9705   -1.4475 H   0  0  0  0  0  0  0  0  0  0  0  0
    1.9757    2.0529   -0.0875 N   0  0  0  0  0  0  0  0  0  0  0  0
    2.9943    2.4299   -0.3391 N   0  0  0  0  0  0  0  0  0  0  0  0
    3.5619   -0.3154    0.5783 B   0  0  0  0  0  0  0  0  0  0  0  0
    2.5893   -0.4674   -0.4414 F   0  0  0  0  0  0  0  0  0  0  0  0
    4.0829   -1.5208    0.9728 F   0  0  0  0  0  0  0  0  0  0  0  0
    4.5497    0.5756    0.1110 F   0  0  0  0  0  0  0  0  0  0  0  0
    2.9116    0.3404    1.6863 F   0  0  0  0  0  0  0  0  0  0  0  0
   -3.3299    0.9148    0.6072 O   0  0  0  0  0  0  0  0  0  0  0  0
   -3.8542    0.2792    1.7782 C   0  0  0  0  0  0  0  0  0  0  0  0
   -4.9236    0.1741    1.5986 H   0  0  0  0  0  0  0  0  0  0  0  0
   -3.6901    0.8968    2.6678 H   0  0  0  0  0  0  0  0  0  0  0  0
   -3.4070   -0.7097    1.9216 H   0  0  0  0  0  0  0  0  0  0  0  0
  1  7  1  0  0  0  0
  2  1  1  0  0  0  0
  2  8  1  0  0  0  0
  3  2  2  0  0  0  0
  4  5  2  0  0  0  0
  4  3  1  0  0  0  0
  5  6  1  0  0  0  0
  6 18  1  0  0  0  0
  6  1  2  0  0  0  0
  9  4  1  0  0  0  0
 10  5  1  0  0  0  0
 11  3  1  0  0  0  0
 12 11  1  0  0  0  0
 13 15  1  0  0  0  0
 13 17  1  0  0  0  0
 14 13  1  0  0  0  0
 16 13  1  0  0  0  0
 18 19  1  0  0  0  0
 19 22  1  0  0  0  0
 19 21  1  0  0  0  0
 20 19  1  0  0  0  0
M  RAD  2  11   2  12   3
M  END
