Coordinates from ORCA-job p-CH3O-Ph-N2-X-BF4-B3LYPG-6-31G_dp-scan-d09-49-n400
 OpenBabel08281820543D

 22 20  0  0  0  0  0  0  0  0999 V2000
   -0.9138    0.4394    0.8656 C   0  0  0  0  0  0  0  0  0  0  0  0
    0.3721    0.5885    0.3389 C   0  0  0  0  0  0  0  0  0  0  0  0
    0.5040    1.6936   -0.5332 C   0  0  0  0  0  0  0  0  0  0  0  0
   -0.5242    2.6094   -0.8898 C   0  0  0  0  0  0  0  0  0  0  0  0
   -1.7611    2.4092   -0.3363 C   0  0  0  0  0  0  0  0  0  0  0  0
   -1.9648    1.3179    0.5527 C   0  0  0  0  0  0  0  0  0  0  0  0
   -1.0940   -0.3860    1.5468 H   0  0  0  0  0  0  0  0  0  0  0  0
    1.4186   -0.2615    0.6717 H   0  0  0  0  0  0  0  0  0  0  0  0
   -0.3335    3.4344   -1.5690 H   0  0  0  0  0  0  0  0  0  0  0  0
   -2.5962    3.0646   -0.5554 H   0  0  0  0  0  0  0  0  0  0  0  0
    1.7326    1.9064   -1.0953 N   0  0  0  0  0  0  0  0  0  0  0  0
    2.7377    2.0755   -1.5560 N   0  0  0  0  0  0  0  0  0  0  0  0
    3.4815   -0.1533    1.5216 B   0  0  0  0  0  0  0  0  0  0  0  0
    2.1999   -0.9063    0.9497 F   0  0  0  0  0  0  0  0  0  0  0  0
    3.2414   -0.0237    2.8542 F   0  0  0  0  0  0  0  0  0  0  0  0
    4.5218   -0.9559    1.1807 F   0  0  0  0  0  0  0  0  0  0  0  0
    3.4487    1.0506    0.8344 F   0  0  0  0  0  0  0  0  0  0  0  0
   -3.2146    1.2247    1.0347 O   0  0  0  0  0  0  0  0  0  0  0  0
   -3.5337    0.1741    1.9525 C   0  0  0  0  0  0  0  0  0  0  0  0
   -4.5855    0.3126    2.2009 H   0  0  0  0  0  0  0  0  0  0  0  0
   -2.9273    0.2477    2.8609 H   0  0  0  0  0  0  0  0  0  0  0  0
   -3.3898   -0.8085    1.4912 H   0  0  0  0  0  0  0  0  0  0  0  0
  1  7  1  0  0  0  0
  2  1  2  0  0  0  0
  3  2  1  0  0  0  0
  4  3  2  0  0  0  0
  4  5  1  0  0  0  0
  5  6  2  0  0  0  0
  6  1  1  0  0  0  0
  6 18  1  0  0  0  0
  8 14  1  0  0  0  0
  9  4  1  0  0  0  0
 10  5  1  0  0  0  0
 11  3  1  0  0  0  0
 12 11  1  0  0  0  0
 13 15  1  0  0  0  0
 16 13  1  0  0  0  0
 17 13  1  0  0  0  0
 18 19  1  0  0  0  0
 19 20  1  0  0  0  0
 19 21  1  0  0  0  0
 22 19  1  0  0  0  0
M  RAD  3   2   2  11   2  12   3
M  END
