Coordinates from ORCA-job p-CH3O-Ph-N2-X-BF4-B3LYPG-6-31G_dp-scan-d09-49-n400
 OpenBabel08281820543D

 22 21  0  0  0  0  0  0  0  0999 V2000
   -1.2042    1.2161    1.8081 C   0  0  0  0  0  0  0  0  0  0  0  0
    0.1204    1.6164    1.7764 C   0  0  0  0  0  0  0  0  0  0  0  0
    0.7434    1.7764    0.5325 C   0  0  0  0  0  0  0  0  0  0  0  0
    0.0947    1.5111   -0.6878 C   0  0  0  0  0  0  0  0  0  0  0  0
   -1.2268    1.1260   -0.6395 C   0  0  0  0  0  0  0  0  0  0  0  0
   -1.8886    0.9745    0.5992 C   0  0  0  0  0  0  0  0  0  0  0  0
   -1.6910    1.0794    2.7649 H   0  0  0  0  0  0  0  0  0  0  0  0
    0.6818    1.7779    2.6876 H   0  0  0  0  0  0  0  0  0  0  0  0
    0.6517    1.5646   -1.6126 H   0  0  0  0  0  0  0  0  0  0  0  0
   -1.7752    0.9026   -1.5471 H   0  0  0  0  0  0  0  0  0  0  0  0
    2.0490    2.2043    0.5271 N   0  0  0  0  0  0  0  0  0  0  0  0
    3.0796    2.6246    0.5710 N   0  0  0  0  0  0  0  0  0  0  0  0
    3.3467   -0.2623   -0.1504 B   0  0  0  0  0  0  0  0  0  0  0  0
    2.5135    0.3317   -1.1587 F   0  0  0  0  0  0  0  0  0  0  0  0
    3.7025   -1.5394   -0.5020 F   0  0  0  0  0  0  0  0  0  0  0  0
    4.4587    0.5836    0.0179 F   0  0  0  0  0  0  0  0  0  0  0  0
    2.5919   -0.2418    1.0567 F   0  0  0  0  0  0  0  0  0  0  0  0
   -3.1701    0.5860    0.5213 O   0  0  0  0  0  0  0  0  0  0  0  0
   -3.9108    0.3539    1.7217 C   0  0  0  0  0  0  0  0  0  0  0  0
   -4.9009    0.0360    1.3978 H   0  0  0  0  0  0  0  0  0  0  0  0
   -3.9968    1.2701    2.3162 H   0  0  0  0  0  0  0  0  0  0  0  0
   -3.4496   -0.4383    2.3213 H   0  0  0  0  0  0  0  0  0  0  0  0
  1  7  1  0  0  0  0
  2  1  1  0  0  0  0
  2  8  1  0  0  0  0
  3  2  2  0  0  0  0
  4  5  2  0  0  0  0
  4  3  1  0  0  0  0
  5  6  1  0  0  0  0
  6  1  2  0  0  0  0
  9  4  1  0  0  0  0
 10  5  1  0  0  0  0
 11  3  1  0  0  0  0
 11 12  1  0  0  0  0
 13 16  1  0  0  0  0
 13 17  1  0  0  0  0
 14 13  1  0  0  0  0
 15 13  1  0  0  0  0
 18  6  1  0  0  0  0
 18 19  1  0  0  0  0
 19 21  1  0  0  0  0
 19 22  1  0  0  0  0
 20 19  1  0  0  0  0
M  RAD  2  11   2  12   3
M  END
