Coordinates from ORCA-job p-CH3O-Ph-N2-X-BF4-B3LYPG-6-31G_dp-scan-d09-49-n400
 OpenBabel08281820543D

 22 21  0  0  0  0  0  0  0  0999 V2000
   -1.0333    0.7479    1.3883 C   0  0  0  0  0  0  0  0  0  0  0  0
    0.3048    0.9807    1.1180 C   0  0  0  0  0  0  0  0  0  0  0  0
    0.6244    1.6904   -0.0522 C   0  0  0  0  0  0  0  0  0  0  0  0
   -0.3563    2.1665   -0.9510 C   0  0  0  0  0  0  0  0  0  0  0  0
   -1.6788    1.9131   -0.6681 C   0  0  0  0  0  0  0  0  0  0  0  0
   -2.0306    1.2001    0.5026 C   0  0  0  0  0  0  0  0  0  0  0  0
   -1.2929    0.2035    2.2869 H   0  0  0  0  0  0  0  0  0  0  0  0
    1.1063    0.6385    1.7687 H   0  0  0  0  0  0  0  0  0  0  0  0
   -0.0666    2.7069   -1.8453 H   0  0  0  0  0  0  0  0  0  0  0  0
   -2.4696    2.2477   -1.3290 H   0  0  0  0  0  0  0  0  0  0  0  0
    1.9362    1.9706   -0.3475 N   0  0  0  0  0  0  0  0  0  0  0  0
    2.9744    2.2699   -0.6294 N   0  0  0  0  0  0  0  0  0  0  0  0
    3.5775   -0.2853    0.8605 B   0  0  0  0  0  0  0  0  0  0  0  0
    2.5568   -0.5175   -0.1019 F   0  0  0  0  0  0  0  0  0  0  0  0
    4.2023   -1.4502    1.2229 F   0  0  0  0  0  0  0  0  0  0  0  0
    4.4794    0.6550    0.3081 F   0  0  0  0  0  0  0  0  0  0  0  0
    2.9564    0.3390    1.9894 F   0  0  0  0  0  0  0  0  0  0  0  0
   -3.3452    1.0087    0.6782 O   0  0  0  0  0  0  0  0  0  0  0  0
   -3.8039    0.2774    1.8210 C   0  0  0  0  0  0  0  0  0  0  0  0
   -4.8894    0.2476    1.7312 H   0  0  0  0  0  0  0  0  0  0  0  0
   -3.5255    0.7856    2.7504 H   0  0  0  0  0  0  0  0  0  0  0  0
   -3.4063   -0.7425    1.8197 H   0  0  0  0  0  0  0  0  0  0  0  0
  1  7  1  0  0  0  0
  2  1  1  0  0  0  0
  2  8  1  0  0  0  0
  3  2  2  0  0  0  0
  4  5  2  0  0  0  0
  4  3  1  0  0  0  0
  5  6  1  0  0  0  0
  6 18  1  0  0  0  0
  6  1  2  0  0  0  0
  9  4  1  0  0  0  0
 10  5  1  0  0  0  0
 11  3  1  0  0  0  0
 12 11  1  0  0  0  0
 13 15  1  0  0  0  0
 13 17  1  0  0  0  0
 14 13  1  0  0  0  0
 16 13  1  0  0  0  0
 18 19  1  0  0  0  0
 19 21  1  0  0  0  0
 20 19  1  0  0  0  0
 22 19  1  0  0  0  0
M  RAD  2  11   2  12   3
M  END
