Coordinates from ORCA-job p-CH3O-Ph-N2-X-BF4-B3LYPG-6-31G_dp-scan-d09-49-n400
 OpenBabel08281820543D

 22 21  0  0  0  0  0  0  0  0999 V2000
   -1.4533    1.4896    1.9132 C   0  0  0  0  0  0  0  0  0  0  0  0
   -0.0986    1.7137    2.0755 C   0  0  0  0  0  0  0  0  0  0  0  0
    0.7995    1.0989    1.1814 C   0  0  0  0  0  0  0  0  0  0  0  0
    0.3790    0.2418    0.1414 C   0  0  0  0  0  0  0  0  0  0  0  0
   -0.9759    0.0277    0.0053 C   0  0  0  0  0  0  0  0  0  0  0  0
   -1.9016    0.6484    0.8705 C   0  0  0  0  0  0  0  0  0  0  0  0
   -2.1523    1.9634    2.5898 H   0  0  0  0  0  0  0  0  0  0  0  0
    0.2604    2.3525    2.8768 H   0  0  0  0  0  0  0  0  0  0  0  0
    1.1303   -0.2218   -0.4909 H   0  0  0  0  0  0  0  0  0  0  0  0
   -1.3570   -0.6202   -0.7763 H   0  0  0  0  0  0  0  0  0  0  0  0
    2.1378    1.3491    1.3634 N   0  0  0  0  0  0  0  0  0  0  0  0
    3.2088    1.5857    1.5772 N   0  0  0  0  0  0  0  0  0  0  0  0
    3.5567    0.5496   -1.2319 B   0  0  0  0  0  0  0  0  0  0  0  0
    2.4994    1.4967   -1.2931 F   0  0  0  0  0  0  0  0  0  0  0  0
    4.1085    0.3249   -2.4668 F   0  0  0  0  0  0  0  0  0  0  0  0
    4.5140    1.0351   -0.3062 F   0  0  0  0  0  0  0  0  0  0  0  0
    2.9994   -0.6454   -0.6835 F   0  0  0  0  0  0  0  0  0  0  0  0
   -3.1912    0.3743    0.6299 O   0  0  0  0  0  0  0  0  0  0  0  0
   -4.2068    0.9682    1.4425 C   0  0  0  0  0  0  0  0  0  0  0  0
   -5.1515    0.6043    1.0408 H   0  0  0  0  0  0  0  0  0  0  0  0
   -4.1763    2.0612    1.3747 H   0  0  0  0  0  0  0  0  0  0  0  0
   -4.1095    0.6557    2.4878 H   0  0  0  0  0  0  0  0  0  0  0  0
  1  2  1  0  0  0  0
  1  7  1  0  0  0  0
  2  8  1  0  0  0  0
  3 11  1  0  0  0  0
  3  2  2  0  0  0  0
  4  3  1  0  0  0  0
  5  4  2  0  0  0  0
  5  6  1  0  0  0  0
  6  1  2  0  0  0  0
  9  4  1  0  0  0  0
 10  5  1  0  0  0  0
 11 12  1  0  0  0  0
 13 17  1  0  0  0  0
 13 16  1  0  0  0  0
 14 13  1  0  0  0  0
 15 13  1  0  0  0  0
 18  6  1  0  0  0  0
 18 19  1  0  0  0  0
 19 22  1  0  0  0  0
 20 19  1  0  0  0  0
 21 19  1  0  0  0  0
M  RAD  2  11   2  12   3
M  END
