Coordinates from ORCA-job p-CH3O-Ph-N2-X-BF4-B3LYPG-6-31G_dp-scan-d09-49-n400
 OpenBabel08281820543D

 22 21  0  0  0  0  0  0  0  0999 V2000
   -1.0608    0.7782    1.4464 C   0  0  0  0  0  0  0  0  0  0  0  0
    0.2828    1.0192    1.2126 C   0  0  0  0  0  0  0  0  0  0  0  0
    0.6353    1.6883    0.0288 C   0  0  0  0  0  0  0  0  0  0  0  0
   -0.3202    2.1139   -0.9205 C   0  0  0  0  0  0  0  0  0  0  0  0
   -1.6487    1.8531   -0.6737 C   0  0  0  0  0  0  0  0  0  0  0  0
   -2.0328    1.1823    0.5108 C   0  0  0  0  0  0  0  0  0  0  0  0
   -1.3442    0.2640    2.3555 H   0  0  0  0  0  0  0  0  0  0  0  0
    1.0636    0.7045    1.8978 H   0  0  0  0  0  0  0  0  0  0  0  0
   -0.0066    2.6230   -1.8249 H   0  0  0  0  0  0  0  0  0  0  0  0
   -2.4195    2.1507   -1.3749 H   0  0  0  0  0  0  0  0  0  0  0  0
    1.9507    1.9906   -0.2355 N   0  0  0  0  0  0  0  0  0  0  0  0
    2.9782    2.3311   -0.5063 N   0  0  0  0  0  0  0  0  0  0  0  0
    3.5987   -0.2895    0.7406 B   0  0  0  0  0  0  0  0  0  0  0  0
    2.6015   -0.5142   -0.2444 F   0  0  0  0  0  0  0  0  0  0  0  0
    4.1784   -1.4606    1.1540 F   0  0  0  0  0  0  0  0  0  0  0  0
    4.5389    0.6179    0.2033 F   0  0  0  0  0  0  0  0  0  0  0  0
    2.9621    0.3822    1.8412 F   0  0  0  0  0  0  0  0  0  0  0  0
   -3.3505    0.9803    0.6495 O   0  0  0  0  0  0  0  0  0  0  0  0
   -3.8388    0.2881    1.8041 C   0  0  0  0  0  0  0  0  0  0  0  0
   -4.9200    0.2384    1.6783 H   0  0  0  0  0  0  0  0  0  0  0  0
   -3.6005    0.8370    2.7214 H   0  0  0  0  0  0  0  0  0  0  0  0
   -3.4278   -0.7251    1.8574 H   0  0  0  0  0  0  0  0  0  0  0  0
  1  7  1  0  0  0  0
  2  1  1  0  0  0  0
  2  8  1  0  0  0  0
  3  2  2  0  0  0  0
  4  5  2  0  0  0  0
  4  3  1  0  0  0  0
  5  6  1  0  0  0  0
  6 18  1  0  0  0  0
  6  1  2  0  0  0  0
  9  4  1  0  0  0  0
 10  5  1  0  0  0  0
 11  3  1  0  0  0  0
 12 11  1  0  0  0  0
 13 15  1  0  0  0  0
 13 17  1  0  0  0  0
 14 13  1  0  0  0  0
 16 13  1  0  0  0  0
 18 19  1  0  0  0  0
 19 22  1  0  0  0  0
 19 21  1  0  0  0  0
 20 19  1  0  0  0  0
M  RAD  2  11   2  12   3
M  END
