Coordinates from ORCA-job p-CH3O-Ph-N2-X-BF4-B3LYPG-6-31G_dp-scan-d09-49-n400
 OpenBabel08281820543D

 22 21  0  0  0  0  0  0  0  0999 V2000
   -1.0188    0.7350    1.3590 C   0  0  0  0  0  0  0  0  0  0  0  0
    0.3162    0.9629    1.0695 C   0  0  0  0  0  0  0  0  0  0  0  0
    0.6192    1.6907   -0.0948 C   0  0  0  0  0  0  0  0  0  0  0  0
   -0.3737    2.1899   -0.9675 C   0  0  0  0  0  0  0  0  0  0  0  0
   -1.6926    1.9410   -0.6653 C   0  0  0  0  0  0  0  0  0  0  0  0
   -2.0282    1.2092    0.4989 C   0  0  0  0  0  0  0  0  0  0  0  0
   -1.2664    0.1773    2.2530 H   0  0  0  0  0  0  0  0  0  0  0  0
    1.1260    0.6048    1.7027 H   0  0  0  0  0  0  0  0  0  0  0  0
   -0.0959    2.7441   -1.8572 H   0  0  0  0  0  0  0  0  0  0  0  0
   -2.4929    2.2928   -1.3054 H   0  0  0  0  0  0  0  0  0  0  0  0
    1.9282    1.9600   -0.4085 N   0  0  0  0  0  0  0  0  0  0  0  0
    2.9713    2.2399   -0.6933 N   0  0  0  0  0  0  0  0  0  0  0  0
    3.5647   -0.2827    0.9219 B   0  0  0  0  0  0  0  0  0  0  0  0
    2.5380   -0.5119   -0.0377 F   0  0  0  0  0  0  0  0  0  0  0  0
    4.2159   -1.4451    1.2446 F   0  0  0  0  0  0  0  0  0  0  0  0
    4.4432    0.6858    0.3791 F   0  0  0  0  0  0  0  0  0  0  0  0
    2.9429    0.2975    2.0702 F   0  0  0  0  0  0  0  0  0  0  0  0
   -3.3406    1.0229    0.6939 O   0  0  0  0  0  0  0  0  0  0  0  0
   -3.7845    0.2734    1.8309 C   0  0  0  0  0  0  0  0  0  0  0  0
   -4.8716    0.2518    1.7590 H   0  0  0  0  0  0  0  0  0  0  0  0
   -3.4871    0.7626    2.7644 H   0  0  0  0  0  0  0  0  0  0  0  0
   -3.3933   -0.7486    1.8041 H   0  0  0  0  0  0  0  0  0  0  0  0
  1  7  1  0  0  0  0
  2  1  1  0  0  0  0
  2  8  1  0  0  0  0
  3  2  2  0  0  0  0
  4  5  2  0  0  0  0
  4  3  1  0  0  0  0
  5  6  1  0  0  0  0
  6 18  1  0  0  0  0
  6  1  2  0  0  0  0
  9  4  1  0  0  0  0
 10  5  1  0  0  0  0
 11  3  1  0  0  0  0
 12 11  1  0  0  0  0
 13 15  1  0  0  0  0
 13 17  1  0  0  0  0
 14 13  1  0  0  0  0
 16 13  1  0  0  0  0
 18 19  1  0  0  0  0
 19 21  1  0  0  0  0
 20 19  1  0  0  0  0
 22 19  1  0  0  0  0
M  RAD  2  11   2  12   3
M  END
