Coordinates from ORCA-job p-CH3O-Ph-N2-X-BF4-B3LYPG-6-31G_dp-scan-d09-49-n400
 OpenBabel08281820543D

 22 21  0  0  0  0  0  0  0  0999 V2000
   -1.0937    0.9429    1.6071 C   0  0  0  0  0  0  0  0  0  0  0  0
    0.2481    1.2523    1.4605 C   0  0  0  0  0  0  0  0  0  0  0  0
    0.6816    1.7486    0.2214 C   0  0  0  0  0  0  0  0  0  0  0  0
   -0.1902    1.9333   -0.8713 C   0  0  0  0  0  0  0  0  0  0  0  0
   -1.5181    1.6071   -0.7102 C   0  0  0  0  0  0  0  0  0  0  0  0
   -1.9838    1.1105    0.5282 C   0  0  0  0  0  0  0  0  0  0  0  0
   -1.4375    0.5558    2.5574 H   0  0  0  0  0  0  0  0  0  0  0  0
    0.9593    1.0953    2.2596 H   0  0  0  0  0  0  0  0  0  0  0  0
    0.1876    2.3059   -1.8162 H   0  0  0  0  0  0  0  0  0  0  0  0
   -2.2257    1.7191   -1.5235 H   0  0  0  0  0  0  0  0  0  0  0  0
    1.9919    2.1298    0.0534 N   0  0  0  0  0  0  0  0  0  0  0  0
    3.0159    2.5255   -0.1394 N   0  0  0  0  0  0  0  0  0  0  0  0
    3.4990   -0.3315    0.4195 B   0  0  0  0  0  0  0  0  0  0  0  0
    2.6392   -0.2832   -0.7065 F   0  0  0  0  0  0  0  0  0  0  0  0
    3.9925   -1.5933    0.6325 F   0  0  0  0  0  0  0  0  0  0  0  0
    4.5234    0.6215    0.2295 F   0  0  0  0  0  0  0  0  0  0  0  0
    2.7313    0.1102    1.5539 F   0  0  0  0  0  0  0  0  0  0  0  0
   -3.2940    0.8290    0.5751 O   0  0  0  0  0  0  0  0  0  0  0  0
   -3.8556    0.2948    1.7787 C   0  0  0  0  0  0  0  0  0  0  0  0
   -4.9135    0.1461    1.5658 H   0  0  0  0  0  0  0  0  0  0  0  0
   -3.7433    0.9981    2.6110 H   0  0  0  0  0  0  0  0  0  0  0  0
   -3.3944   -0.6643    2.0350 H   0  0  0  0  0  0  0  0  0  0  0  0
  1  7  1  0  0  0  0
  2  1  1  0  0  0  0
  2  8  1  0  0  0  0
  3  2  2  0  0  0  0
  4  5  2  0  0  0  0
  4  3  1  0  0  0  0
  5  6  1  0  0  0  0
  6 18  1  0  0  0  0
  6  1  2  0  0  0  0
  9  4  1  0  0  0  0
 10  5  1  0  0  0  0
 11  3  1  0  0  0  0
 12 11  1  0  0  0  0
 13 15  1  0  0  0  0
 13 17  1  0  0  0  0
 14 13  1  0  0  0  0
 16 13  1  0  0  0  0
 18 19  1  0  0  0  0
 19 22  1  0  0  0  0
 19 21  1  0  0  0  0
 20 19  1  0  0  0  0
M  RAD  2  11   2  12   3
M  END
