Coordinates from ORCA-job p-CH3O-Ph-N2-X-BF4-B3LYPG-6-31G_dp-scan-d09-49-n400
 OpenBabel08281820543D

 22 20  0  0  0  0  0  0  0  0999 V2000
   -0.9255    0.4442    0.8921 C   0  0  0  0  0  0  0  0  0  0  0  0
    0.3666    0.5915    0.3848 C   0  0  0  0  0  0  0  0  0  0  0  0
    0.5154    1.6790   -0.5058 C   0  0  0  0  0  0  0  0  0  0  0  0
   -0.5111    2.5815   -0.8967 C   0  0  0  0  0  0  0  0  0  0  0  0
   -1.7576    2.3871   -0.3618 C   0  0  0  0  0  0  0  0  0  0  0  0
   -1.9742    1.3126    0.5436 C   0  0  0  0  0  0  0  0  0  0  0  0
   -1.1124   -0.3700    1.5845 H   0  0  0  0  0  0  0  0  0  0  0  0
    1.3756   -0.2143    0.7308 H   0  0  0  0  0  0  0  0  0  0  0  0
   -0.3117    3.3943   -1.5880 H   0  0  0  0  0  0  0  0  0  0  0  0
   -2.5904    3.0353   -0.6086 H   0  0  0  0  0  0  0  0  0  0  0  0
    1.7519    1.8871   -1.0519 N   0  0  0  0  0  0  0  0  0  0  0  0
    2.7609    2.0572   -1.5022 N   0  0  0  0  0  0  0  0  0  0  0  0
    3.5015   -0.1560    1.4899 B   0  0  0  0  0  0  0  0  0  0  0  0
    2.1862   -0.8769    1.0357 F   0  0  0  0  0  0  0  0  0  0  0  0
    3.4767   -0.1754    2.8514 F   0  0  0  0  0  0  0  0  0  0  0  0
    4.5103   -0.8630    0.9098 F   0  0  0  0  0  0  0  0  0  0  0  0
    3.3512    1.1232    0.9584 F   0  0  0  0  0  0  0  0  0  0  0  0
   -3.2314    1.2224    1.0048 O   0  0  0  0  0  0  0  0  0  0  0  0
   -3.5628    0.1878    1.9367 C   0  0  0  0  0  0  0  0  0  0  0  0
   -4.6190    0.3276    2.1647 H   0  0  0  0  0  0  0  0  0  0  0  0
   -2.9719    0.2805    2.8536 H   0  0  0  0  0  0  0  0  0  0  0  0
   -3.4083   -0.8026    1.4959 H   0  0  0  0  0  0  0  0  0  0  0  0
  1  7  1  0  0  0  0
  2  1  2  0  0  0  0
  3  2  1  0  0  0  0
  4  3  2  0  0  0  0
  4  5  1  0  0  0  0
  5  6  2  0  0  0  0
  6  1  1  0  0  0  0
  6 18  1  0  0  0  0
  8 14  1  0  0  0  0
  9  4  1  0  0  0  0
 10  5  1  0  0  0  0
 11  3  1  0  0  0  0
 12 11  1  0  0  0  0
 13 15  1  0  0  0  0
 16 13  1  0  0  0  0
 17 13  1  0  0  0  0
 18 19  1  0  0  0  0
 19 20  1  0  0  0  0
 19 21  1  0  0  0  0
 22 19  1  0  0  0  0
M  RAD  3   2   2  11   2  12   3
M  END
