Coordinates from ORCA-job p-CH3O-Ph-N2-X-BF4-B3LYPG-6-31G_dp-scan-d09-49-n400
 OpenBabel08281820543D

 22 21  0  0  0  0  0  0  0  0999 V2000
   -1.0539    0.7690    1.4318 C   0  0  0  0  0  0  0  0  0  0  0  0
    0.2885    1.0086    1.1897 C   0  0  0  0  0  0  0  0  0  0  0  0
    0.6330    1.6890    0.0100 C   0  0  0  0  0  0  0  0  0  0  0  0
   -0.3286    2.1274   -0.9273 C   0  0  0  0  0  0  0  0  0  0  0  0
   -1.6558    1.8679   -0.6724 C   0  0  0  0  0  0  0  0  0  0  0  0
   -2.0322    1.1858    0.5084 C   0  0  0  0  0  0  0  0  0  0  0  0
   -1.3315    0.2466    2.3380 H   0  0  0  0  0  0  0  0  0  0  0  0
    1.0746    0.6877    1.8666 H   0  0  0  0  0  0  0  0  0  0  0  0
   -0.0208    2.6450   -1.8290 H   0  0  0  0  0  0  0  0  0  0  0  0
   -2.4315    2.1750   -1.3639 H   0  0  0  0  0  0  0  0  0  0  0  0
    1.9477    1.9863   -0.2609 N   0  0  0  0  0  0  0  0  0  0  0  0
    2.9777    2.3175   -0.5345 N   0  0  0  0  0  0  0  0  0  0  0  0
    3.5929   -0.2879    0.7691 B   0  0  0  0  0  0  0  0  0  0  0  0
    2.5871   -0.5158   -0.2071 F   0  0  0  0  0  0  0  0  0  0  0  0
    4.1799   -1.4575    1.1761 F   0  0  0  0  0  0  0  0  0  0  0  0
    4.5264    0.6214    0.2220 F   0  0  0  0  0  0  0  0  0  0  0  0
    2.9635    0.3807    1.8736 F   0  0  0  0  0  0  0  0  0  0  0  0
   -3.3493    0.9866    0.6559 O   0  0  0  0  0  0  0  0  0  0  0  0
   -3.8303    0.2851    1.8079 C   0  0  0  0  0  0  0  0  0  0  0  0
   -4.9128    0.2412    1.6913 H   0  0  0  0  0  0  0  0  0  0  0  0
   -3.5815    0.8240    2.7285 H   0  0  0  0  0  0  0  0  0  0  0  0
   -3.4232   -0.7302    1.8477 H   0  0  0  0  0  0  0  0  0  0  0  0
  1  7  1  0  0  0  0
  2  1  1  0  0  0  0
  2  8  1  0  0  0  0
  3  2  2  0  0  0  0
  4  5  2  0  0  0  0
  4  3  1  0  0  0  0
  5  6  1  0  0  0  0
  6 18  1  0  0  0  0
  6  1  2  0  0  0  0
  9  4  1  0  0  0  0
 10  5  1  0  0  0  0
 11  3  1  0  0  0  0
 12 11  1  0  0  0  0
 13 15  1  0  0  0  0
 13 17  1  0  0  0  0
 14 13  1  0  0  0  0
 16 13  1  0  0  0  0
 18 19  1  0  0  0  0
 19 22  1  0  0  0  0
 19 21  1  0  0  0  0
 20 19  1  0  0  0  0
M  RAD  2  11   2  12   3
M  END
