Coordinates from ORCA-job p-CH3O-Ph-N2-X-BF4-B3LYPG-6-31G_dp-scan-d09-49-n400
 OpenBabel08281820543D

 22 21  0  0  0  0  0  0  0  0999 V2000
   -1.1107    1.1083    1.7264 C   0  0  0  0  0  0  0  0  0  0  0  0
    0.2141    1.5018    1.6509 C   0  0  0  0  0  0  0  0  0  0  0  0
    0.7359    1.8433    0.3962 C   0  0  0  0  0  0  0  0  0  0  0  0
   -0.0082    1.7456   -0.7937 C   0  0  0  0  0  0  0  0  0  0  0  0
   -1.3241    1.3510   -0.7020 C   0  0  0  0  0  0  0  0  0  0  0  0
   -1.8887    1.0320    0.5533 C   0  0  0  0  0  0  0  0  0  0  0  0
   -1.5237    0.8361    2.6887 H   0  0  0  0  0  0  0  0  0  0  0  0
    0.8492    1.5173    2.5272 H   0  0  0  0  0  0  0  0  0  0  0  0
    0.4626    1.9467   -1.7474 H   0  0  0  0  0  0  0  0  0  0  0  0
   -1.9421    1.2524   -1.5868 H   0  0  0  0  0  0  0  0  0  0  0  0
    2.0426    2.2576    0.3176 N   0  0  0  0  0  0  0  0  0  0  0  0
    3.0773    2.6645    0.2519 N   0  0  0  0  0  0  0  0  0  0  0  0
    3.2737   -0.3237    0.1318 B   0  0  0  0  0  0  0  0  0  0  0  0
    2.4323    0.0707   -0.9532 F   0  0  0  0  0  0  0  0  0  0  0  0
    3.5823   -1.6587    0.0595 F   0  0  0  0  0  0  0  0  0  0  0  0
    4.4146    0.5005    0.1087 F   0  0  0  0  0  0  0  0  0  0  0  0
    2.5605   -0.0277    1.3390 F   0  0  0  0  0  0  0  0  0  0  0  0
   -3.1756    0.6552    0.5227 O   0  0  0  0  0  0  0  0  0  0  0  0
   -3.8259    0.2707    1.7373 C   0  0  0  0  0  0  0  0  0  0  0  0
   -4.8421    0.0021    1.4522 H   0  0  0  0  0  0  0  0  0  0  0  0
   -3.8526    1.1024    2.4502 H   0  0  0  0  0  0  0  0  0  0  0  0
   -3.3316   -0.5946    2.1909 H   0  0  0  0  0  0  0  0  0  0  0  0
  1  7  1  0  0  0  0
  2  1  1  0  0  0  0
  2  8  1  0  0  0  0
  3  2  2  0  0  0  0
  4  5  2  0  0  0  0
  4  3  1  0  0  0  0
  5  6  1  0  0  0  0
  6  1  2  0  0  0  0
  9  4  1  0  0  0  0
 10  5  1  0  0  0  0
 11  3  1  0  0  0  0
 12 11  1  0  0  0  0
 13 17  1  0  0  0  0
 14 13  1  0  0  0  0
 15 13  1  0  0  0  0
 16 13  1  0  0  0  0
 18  6  1  0  0  0  0
 18 19  1  0  0  0  0
 19 22  1  0  0  0  0
 19 21  1  0  0  0  0
 20 19  1  0  0  0  0
M  RAD  2  11   2  12   3
M  END
