Coordinates from ORCA-job p-CH3O-Ph-N2-X-BF4-B3LYPG-6-31G_dp-scan-d09-49-n400
 OpenBabel08281820543D

 22 21  0  0  0  0  0  0  0  0999 V2000
   -1.0770    0.8294    1.5046 C   0  0  0  0  0  0  0  0  0  0  0  0
    0.2690    1.0868    1.3031 C   0  0  0  0  0  0  0  0  0  0  0  0
    0.6495    1.7041    0.1004 C   0  0  0  0  0  0  0  0  0  0  0  0
   -0.2821    2.0656   -0.8973 C   0  0  0  0  0  0  0  0  0  0  0  0
   -1.6132    1.7903   -0.6818 C   0  0  0  0  0  0  0  0  0  0  0  0
   -2.0244    1.1672    0.5189 C   0  0  0  0  0  0  0  0  0  0  0  0
   -1.3807    0.3519    2.4271 H   0  0  0  0  0  0  0  0  0  0  0  0
    1.0287    0.8105    2.0249 H   0  0  0  0  0  0  0  0  0  0  0  0
    0.0523    2.5371   -1.8145 H   0  0  0  0  0  0  0  0  0  0  0  0
   -2.3650    2.0391   -1.4216 H   0  0  0  0  0  0  0  0  0  0  0  0
    1.9657    2.0261   -0.1389 N   0  0  0  0  0  0  0  0  0  0  0  0
    2.9868    2.3915   -0.3988 N   0  0  0  0  0  0  0  0  0  0  0  0
    3.5863   -0.3057    0.6336 B   0  0  0  0  0  0  0  0  0  0  0  0
    2.6087   -0.4921   -0.3761 F   0  0  0  0  0  0  0  0  0  0  0  0
    4.1318   -1.4948    1.0433 F   0  0  0  0  0  0  0  0  0  0  0  0
    4.5555    0.5934    0.1396 F   0  0  0  0  0  0  0  0  0  0  0  0
    2.9364    0.3599    1.7345 F   0  0  0  0  0  0  0  0  0  0  0  0
   -3.3418    0.9418    0.6223 O   0  0  0  0  0  0  0  0  0  0  0  0
   -3.8542    0.2854    1.7871 C   0  0  0  0  0  0  0  0  0  0  0  0
   -4.9283    0.2004    1.6248 H   0  0  0  0  0  0  0  0  0  0  0  0
   -3.6648    0.8787    2.6881 H   0  0  0  0  0  0  0  0  0  0  0  0
   -3.4194   -0.7131    1.8983 H   0  0  0  0  0  0  0  0  0  0  0  0
  1  7  1  0  0  0  0
  2  1  1  0  0  0  0
  2  8  1  0  0  0  0
  3  2  2  0  0  0  0
  4  5  2  0  0  0  0
  4  3  1  0  0  0  0
  5  6  1  0  0  0  0
  6 18  1  0  0  0  0
  6  1  2  0  0  0  0
  9  4  1  0  0  0  0
 10  5  1  0  0  0  0
 11  3  1  0  0  0  0
 12 11  1  0  0  0  0
 13 15  1  0  0  0  0
 13 17  1  0  0  0  0
 14 13  1  0  0  0  0
 16 13  1  0  0  0  0
 18 19  1  0  0  0  0
 19 22  1  0  0  0  0
 19 21  1  0  0  0  0
 20 19  1  0  0  0  0
M  RAD  2  11   2  12   3
M  END
