Coordinates from ORCA-job p-CH3O-Ph-N2-X-BF4-B3LYPG-6-31G_dp-scan-d09-49-n400
 OpenBabel08281820543D

 22 21  0  0  0  0  0  0  0  0999 V2000
   -1.0258    0.7404    1.3715 C   0  0  0  0  0  0  0  0  0  0  0  0
    0.3106    0.9691    1.0896 C   0  0  0  0  0  0  0  0  0  0  0  0
    0.6209    1.6888   -0.0776 C   0  0  0  0  0  0  0  0  0  0  0  0
   -0.3669    2.1790   -0.9611 C   0  0  0  0  0  0  0  0  0  0  0  0
   -1.6874    1.9294   -0.6665 C   0  0  0  0  0  0  0  0  0  0  0  0
   -2.0301    1.2060    0.5008 C   0  0  0  0  0  0  0  0  0  0  0  0
   -1.2786    0.1886    2.2676 H   0  0  0  0  0  0  0  0  0  0  0  0
    1.1169    0.6167    1.7298 H   0  0  0  0  0  0  0  0  0  0  0  0
   -0.0841    2.7273   -1.8528 H   0  0  0  0  0  0  0  0  0  0  0  0
   -2.4838    2.2746   -1.3152 H   0  0  0  0  0  0  0  0  0  0  0  0
    1.9312    1.9625   -0.3838 N   0  0  0  0  0  0  0  0  0  0  0  0
    2.9724    2.2505   -0.6673 N   0  0  0  0  0  0  0  0  0  0  0  0
    3.5724   -0.2832    0.8965 B   0  0  0  0  0  0  0  0  0  0  0  0
    2.5525   -0.5142   -0.0689 F   0  0  0  0  0  0  0  0  0  0  0  0
    4.2166   -1.4457    1.2324 F   0  0  0  0  0  0  0  0  0  0  0  0
    4.4583    0.6790    0.3549 F   0  0  0  0  0  0  0  0  0  0  0  0
    2.9469    0.3092    2.0386 F   0  0  0  0  0  0  0  0  0  0  0  0
   -3.3435    1.0183    0.6878 O   0  0  0  0  0  0  0  0  0  0  0  0
   -3.7938    0.2765    1.8273 C   0  0  0  0  0  0  0  0  0  0  0  0
   -4.8804    0.2522    1.7480 H   0  0  0  0  0  0  0  0  0  0  0  0
   -3.5040    0.7732    2.7592 H   0  0  0  0  0  0  0  0  0  0  0  0
   -3.4005   -0.7449    1.8108 H   0  0  0  0  0  0  0  0  0  0  0  0
  1  7  1  0  0  0  0
  2  1  1  0  0  0  0
  2  8  1  0  0  0  0
  3  2  2  0  0  0  0
  4  5  2  0  0  0  0
  4  3  1  0  0  0  0
  5  6  1  0  0  0  0
  6 18  1  0  0  0  0
  6  1  2  0  0  0  0
  9  4  1  0  0  0  0
 10  5  1  0  0  0  0
 11  3  1  0  0  0  0
 12 11  1  0  0  0  0
 13 15  1  0  0  0  0
 13 17  1  0  0  0  0
 14 13  1  0  0  0  0
 16 13  1  0  0  0  0
 18 19  1  0  0  0  0
 19 21  1  0  0  0  0
 20 19  1  0  0  0  0
 22 19  1  0  0  0  0
M  RAD  2  11   2  12   3
M  END
