Coordinates from ORCA-job p-CH3O-Ph-N2-X-BF4-B3LYPG-6-31G_dp-scan-d09-49-n400
 OpenBabel08281820543D

 22 21  0  0  0  0  0  0  0  0999 V2000
   -1.0513    0.7668    1.4281 C   0  0  0  0  0  0  0  0  0  0  0  0
    0.2906    1.0070    1.1844 C   0  0  0  0  0  0  0  0  0  0  0  0
    0.6330    1.6906    0.0058 C   0  0  0  0  0  0  0  0  0  0  0  0
   -0.3301    2.1311   -0.9290 C   0  0  0  0  0  0  0  0  0  0  0  0
   -1.6568    1.8709   -0.6725 C   0  0  0  0  0  0  0  0  0  0  0  0
   -2.0312    1.1860    0.5074 C   0  0  0  0  0  0  0  0  0  0  0  0
   -1.3274    0.2424    2.3336 H   0  0  0  0  0  0  0  0  0  0  0  0
    1.0779    0.6858    1.8602 H   0  0  0  0  0  0  0  0  0  0  0  0
   -0.0237    2.6507   -1.8300 H   0  0  0  0  0  0  0  0  0  0  0  0
   -2.4338    2.1796   -1.3619 H   0  0  0  0  0  0  0  0  0  0  0  0
    1.9476    1.9871   -0.2663 N   0  0  0  0  0  0  0  0  0  0  0  0
    2.9783    2.3163   -0.5400 N   0  0  0  0  0  0  0  0  0  0  0  0
    3.5886   -0.2879    0.7760 B   0  0  0  0  0  0  0  0  0  0  0  0
    2.5784   -0.5150   -0.1964 F   0  0  0  0  0  0  0  0  0  0  0  0
    4.1750   -1.4584    1.1815 F   0  0  0  0  0  0  0  0  0  0  0  0
    4.5221    0.6180    0.2235 F   0  0  0  0  0  0  0  0  0  0  0  0
    2.9643    0.3834    1.8817 F   0  0  0  0  0  0  0  0  0  0  0  0
   -3.3480    0.9869    0.6570 O   0  0  0  0  0  0  0  0  0  0  0  0
   -3.8271    0.2834    1.8087 C   0  0  0  0  0  0  0  0  0  0  0  0
   -4.9098    0.2399    1.6939 H   0  0  0  0  0  0  0  0  0  0  0  0
   -3.5766    0.8207    2.7297 H   0  0  0  0  0  0  0  0  0  0  0  0
   -3.4200   -0.7320    1.8460 H   0  0  0  0  0  0  0  0  0  0  0  0
  1  7  1  0  0  0  0
  2  1  1  0  0  0  0
  2  8  1  0  0  0  0
  3  2  2  0  0  0  0
  4  5  2  0  0  0  0
  4  3  1  0  0  0  0
  5  6  1  0  0  0  0
  6 18  1  0  0  0  0
  6  1  2  0  0  0  0
  9  4  1  0  0  0  0
 10  5  1  0  0  0  0
 11  3  1  0  0  0  0
 12 11  1  0  0  0  0
 13 15  1  0  0  0  0
 13 17  1  0  0  0  0
 14 13  1  0  0  0  0
 16 13  1  0  0  0  0
 18 19  1  0  0  0  0
 19 22  1  0  0  0  0
 19 21  1  0  0  0  0
 20 19  1  0  0  0  0
M  RAD  2  11   2  12   3
M  END
