Coordinates from ORCA-job p-CH3O-Ph-N2-X-BF4-B3LYPG-6-31G_dp-scan-d09-49-n400
 OpenBabel08281820543D

 22 21  0  0  0  0  0  0  0  0999 V2000
   -1.1647    1.1803    1.7837 C   0  0  0  0  0  0  0  0  0  0  0  0
    0.1582    1.5858    1.7416 C   0  0  0  0  0  0  0  0  0  0  0  0
    0.7459    1.8196    0.4921 C   0  0  0  0  0  0  0  0  0  0  0  0
    0.0688    1.6093   -0.7233 C   0  0  0  0  0  0  0  0  0  0  0  0
   -1.2490    1.2145   -0.6645 C   0  0  0  0  0  0  0  0  0  0  0  0
   -1.8783    0.9972    0.5813 C   0  0  0  0  0  0  0  0  0  0  0  0
   -1.6265    0.9880    2.7432 H   0  0  0  0  0  0  0  0  0  0  0  0
    0.7432    1.6940    2.6462 H   0  0  0  0  0  0  0  0  0  0  0  0
    0.5981    1.7157   -1.6602 H   0  0  0  0  0  0  0  0  0  0  0  0
   -1.8179    1.0320   -1.5686 H   0  0  0  0  0  0  0  0  0  0  0  0
    2.0521    2.2422    0.4587 N   0  0  0  0  0  0  0  0  0  0  0  0
    3.0862    2.6558    0.4472 N   0  0  0  0  0  0  0  0  0  0  0  0
    3.2899   -0.2927   -0.0476 B   0  0  0  0  0  0  0  0  0  0  0  0
    2.4315    0.2133   -1.0777 F   0  0  0  0  0  0  0  0  0  0  0  0
    3.6028   -1.6094   -0.2727 F   0  0  0  0  0  0  0  0  0  0  0  0
    4.4261    0.5368   -0.0055 F   0  0  0  0  0  0  0  0  0  0  0  0
    2.5889   -0.1309    1.1856 F   0  0  0  0  0  0  0  0  0  0  0  0
   -3.1593    0.6051    0.5145 O   0  0  0  0  0  0  0  0  0  0  0  0
   -3.8706    0.3092    1.7187 C   0  0  0  0  0  0  0  0  0  0  0  0
   -4.8666    0.0025    1.4019 H   0  0  0  0  0  0  0  0  0  0  0  0
   -3.9467    1.1944    2.3598 H   0  0  0  0  0  0  0  0  0  0  0  0
   -3.3923   -0.5093    2.2670 H   0  0  0  0  0  0  0  0  0  0  0  0
  1  7  1  0  0  0  0
  2  1  1  0  0  0  0
  2  8  1  0  0  0  0
  3  2  2  0  0  0  0
  4  5  2  0  0  0  0
  4  3  1  0  0  0  0
  5  6  1  0  0  0  0
  6  1  2  0  0  0  0
  9  4  1  0  0  0  0
 10  5  1  0  0  0  0
 11  3  1  0  0  0  0
 12 11  1  0  0  0  0
 13 16  1  0  0  0  0
 13 17  1  0  0  0  0
 14 13  1  0  0  0  0
 15 13  1  0  0  0  0
 18  6  1  0  0  0  0
 18 19  1  0  0  0  0
 19 22  1  0  0  0  0
 19 21  1  0  0  0  0
 20 19  1  0  0  0  0
M  RAD  2  11   2  12   3
M  END
