Coordinates from ORCA-job p-CH3O-Ph-N2-X-BF4-B3LYPG-6-31G_dp-scan-d09-49-n400
 OpenBabel08281820543D

 22 21  0  0  0  0  0  0  0  0999 V2000
   -1.0646    0.7842    1.4550 C   0  0  0  0  0  0  0  0  0  0  0  0
    0.2797    1.0260    1.2258 C   0  0  0  0  0  0  0  0  0  0  0  0
    0.6368    1.6880    0.0396 C   0  0  0  0  0  0  0  0  0  0  0  0
   -0.3152    2.1061   -0.9165 C   0  0  0  0  0  0  0  0  0  0  0  0
   -1.6444    1.8446   -0.6744 C   0  0  0  0  0  0  0  0  0  0  0  0
   -2.0330    1.1805    0.5124 C   0  0  0  0  0  0  0  0  0  0  0  0
   -1.3513    0.2749    2.3659 H   0  0  0  0  0  0  0  0  0  0  0  0
    1.0573    0.7149    1.9158 H   0  0  0  0  0  0  0  0  0  0  0  0
    0.0018    2.6101   -1.8226 H   0  0  0  0  0  0  0  0  0  0  0  0
   -2.4123    2.1366   -1.3810 H   0  0  0  0  0  0  0  0  0  0  0  0
    1.9525    1.9930   -0.2212 N   0  0  0  0  0  0  0  0  0  0  0  0
    2.9786    2.3385   -0.4906 N   0  0  0  0  0  0  0  0  0  0  0  0
    3.6013   -0.2905    0.7242 B   0  0  0  0  0  0  0  0  0  0  0  0
    2.6090   -0.5130   -0.2655 F   0  0  0  0  0  0  0  0  0  0  0  0
    4.1772   -1.4625    1.1406 F   0  0  0  0  0  0  0  0  0  0  0  0
    4.5453    0.6165    0.1932 F   0  0  0  0  0  0  0  0  0  0  0  0
    2.9603    0.3818    1.8227 F   0  0  0  0  0  0  0  0  0  0  0  0
   -3.3509    0.9766    0.6459 O   0  0  0  0  0  0  0  0  0  0  0  0
   -3.8433    0.2894    1.8017 C   0  0  0  0  0  0  0  0  0  0  0  0
   -4.9237    0.2360    1.6706 H   0  0  0  0  0  0  0  0  0  0  0  0
   -3.6114    0.8441    2.7173 H   0  0  0  0  0  0  0  0  0  0  0  0
   -3.4298   -0.7223    1.8628 H   0  0  0  0  0  0  0  0  0  0  0  0
  1  7  1  0  0  0  0
  2  1  1  0  0  0  0
  2  8  1  0  0  0  0
  3  2  2  0  0  0  0
  4  5  2  0  0  0  0
  4  3  1  0  0  0  0
  5  6  1  0  0  0  0
  6 18  1  0  0  0  0
  6  1  2  0  0  0  0
  9  4  1  0  0  0  0
 10  5  1  0  0  0  0
 11  3  1  0  0  0  0
 12 11  1  0  0  0  0
 13 15  1  0  0  0  0
 13 17  1  0  0  0  0
 14 13  1  0  0  0  0
 16 13  1  0  0  0  0
 18 19  1  0  0  0  0
 19 22  1  0  0  0  0
 19 21  1  0  0  0  0
 20 19  1  0  0  0  0
M  RAD  2  11   2  12   3
M  END
