Coordinates from ORCA-job p-CH3O-Ph-N2-X-BF4-B3LYPG-6-31G_dp-scan-d09-49-n400
 OpenBabel08281820543D

 22 21  0  0  0  0  0  0  0  0999 V2000
   -0.9822    0.3986    0.9878 C   0  0  0  0  0  0  0  0  0  0  0  0
    0.3286    0.5092    0.5456 C   0  0  0  0  0  0  0  0  0  0  0  0
    0.5979    1.5446   -0.3726 C   0  0  0  0  0  0  0  0  0  0  0  0
   -0.3785    2.4519   -0.8490 C   0  0  0  0  0  0  0  0  0  0  0  0
   -1.6643    2.3151   -0.3853 C   0  0  0  0  0  0  0  0  0  0  0  0
   -1.9777    1.2866    0.5393 C   0  0  0  0  0  0  0  0  0  0  0  0
   -1.2216   -0.3851    1.6964 H   0  0  0  0  0  0  0  0  0  0  0  0
    1.1663   -0.1769    0.8970 H   0  0  0  0  0  0  0  0  0  0  0  0
   -0.1133    3.2319   -1.5548 H   0  0  0  0  0  0  0  0  0  0  0  0
   -2.4562    2.9801   -0.7091 H   0  0  0  0  0  0  0  0  0  0  0  0
    1.8749    1.6777   -0.8498 N   0  0  0  0  0  0  0  0  0  0  0  0
    2.9158    1.7588   -1.2457 N   0  0  0  0  0  0  0  0  0  0  0  0
    3.4705   -0.0092    1.3300 B   0  0  0  0  0  0  0  0  0  0  0  0
    2.3197   -0.9089    1.3242 F   0  0  0  0  0  0  0  0  0  0  0  0
    4.3460   -0.3821    2.3100 F   0  0  0  0  0  0  0  0  0  0  0  0
    4.0332   -0.0559    0.0434 F   0  0  0  0  0  0  0  0  0  0  0  0
    2.9393    1.2827    1.5412 F   0  0  0  0  0  0  0  0  0  0  0  0
   -3.2612    1.2481    0.9234 O   0  0  0  0  0  0  0  0  0  0  0  0
   -3.6844    0.2527    1.8617 C   0  0  0  0  0  0  0  0  0  0  0  0
   -4.7472    0.4331    2.0187 H   0  0  0  0  0  0  0  0  0  0  0  0
   -3.1488    0.3548    2.8110 H   0  0  0  0  0  0  0  0  0  0  0  0
   -3.5369   -0.7546    1.4581 H   0  0  0  0  0  0  0  0  0  0  0  0
  1  7  1  0  0  0  0
  2  8  1  0  0  0  0
  2  1  1  0  0  0  0
  3  2  2  0  0  0  0
  4  5  2  0  0  0  0
  4  3  1  0  0  0  0
  5  6  1  0  0  0  0
  6 18  1  0  0  0  0
  6  1  2  0  0  0  0
  9  4  1  0  0  0  0
 10  5  1  0  0  0  0
 11  3  1  0  0  0  0
 12 11  1  0  0  0  0
 13 17  1  0  0  0  0
 13 15  1  0  0  0  0
 14 13  1  0  0  0  0
 16 13  1  0  0  0  0
 18 19  1  0  0  0  0
 19 20  1  0  0  0  0
 19 21  1  0  0  0  0
 22 19  1  0  0  0  0
M  RAD  2  11   2  12   3
M  END
