Coordinates from ORCA-job p-CH3O-Ph-N2-X-BF4-B3LYPG-6-31G_dp-scan-d09-49-n400
 OpenBabel08281820543D

 22 21  0  0  0  0  0  0  0  0999 V2000
   -1.1133    1.1124    1.7307 C   0  0  0  0  0  0  0  0  0  0  0  0
    0.2110    1.5074    1.6574 C   0  0  0  0  0  0  0  0  0  0  0  0
    0.7367    1.8436    0.4027 C   0  0  0  0  0  0  0  0  0  0  0  0
   -0.0019    1.7365   -0.7898 C   0  0  0  0  0  0  0  0  0  0  0  0
   -1.3179    1.3413   -0.7001 C   0  0  0  0  0  0  0  0  0  0  0  0
   -1.8870    1.0296    0.5551 C   0  0  0  0  0  0  0  0  0  0  0  0
   -1.5291    0.8440    2.6929 H   0  0  0  0  0  0  0  0  0  0  0  0
    0.8456    1.5255    2.5340 H   0  0  0  0  0  0  0  0  0  0  0  0
    0.4732    1.9301   -1.7427 H   0  0  0  0  0  0  0  0  0  0  0  0
   -1.9323    1.2357   -1.5865 H   0  0  0  0  0  0  0  0  0  0  0  0
    2.0431    2.2595    0.3279 N   0  0  0  0  0  0  0  0  0  0  0  0
    3.0779    2.6667    0.2648 N   0  0  0  0  0  0  0  0  0  0  0  0
    3.2714   -0.3212    0.1206 B   0  0  0  0  0  0  0  0  0  0  0  0
    2.4275    0.0816   -0.9598 F   0  0  0  0  0  0  0  0  0  0  0  0
    3.5795   -1.6557    0.0383 F   0  0  0  0  0  0  0  0  0  0  0  0
    4.4131    0.5022    0.0998 F   0  0  0  0  0  0  0  0  0  0  0  0
    2.5604   -0.0328    1.3306 F   0  0  0  0  0  0  0  0  0  0  0  0
   -3.1735    0.6518    0.5217 O   0  0  0  0  0  0  0  0  0  0  0  0
   -3.8282    0.2733    1.7358 C   0  0  0  0  0  0  0  0  0  0  0  0
   -4.8431    0.0025    1.4482 H   0  0  0  0  0  0  0  0  0  0  0  0
   -3.8582    1.1087    2.4441 H   0  0  0  0  0  0  0  0  0  0  0  0
   -3.3351   -0.5893    2.1959 H   0  0  0  0  0  0  0  0  0  0  0  0
  1  7  1  0  0  0  0
  2  1  1  0  0  0  0
  2  8  1  0  0  0  0
  3  2  2  0  0  0  0
  4  5  2  0  0  0  0
  4  3  1  0  0  0  0
  5  6  1  0  0  0  0
  6  1  2  0  0  0  0
  9  4  1  0  0  0  0
 10  5  1  0  0  0  0
 11  3  1  0  0  0  0
 12 11  1  0  0  0  0
 13 17  1  0  0  0  0
 14 13  1  0  0  0  0
 15 13  1  0  0  0  0
 16 13  1  0  0  0  0
 18  6  1  0  0  0  0
 18 19  1  0  0  0  0
 19 22  1  0  0  0  0
 19 21  1  0  0  0  0
 20 19  1  0  0  0  0
M  RAD  2  11   2  12   3
M  END
