Coordinates from ORCA-job p-CH3O-Ph-N2-X-BF4-B3LYPG-6-31G_dp-scan-d09-49-n400
 OpenBabel08281820543D

 22 21  0  0  0  0  0  0  0  0999 V2000
   -1.0959    0.9938    1.6467 C   0  0  0  0  0  0  0  0  0  0  0  0
    0.2422    1.3289    1.5245 C   0  0  0  0  0  0  0  0  0  0  0  0
    0.7003    1.7789    0.2771 C   0  0  0  0  0  0  0  0  0  0  0  0
   -0.1384    1.8850   -0.8499 C   0  0  0  0  0  0  0  0  0  0  0  0
   -1.4633    1.5364   -0.7121 C   0  0  0  0  0  0  0  0  0  0  0  0
   -1.9555    1.0888    0.5345 C   0  0  0  0  0  0  0  0  0  0  0  0
   -1.4599    0.6415    2.6029 H   0  0  0  0  0  0  0  0  0  0  0  0
    0.9288    1.2278    2.3542 H   0  0  0  0  0  0  0  0  0  0  0  0
    0.2633    2.2129   -1.8012 H   0  0  0  0  0  0  0  0  0  0  0  0
   -2.1469    1.5891   -1.5514 H   0  0  0  0  0  0  0  0  0  0  0  0
    2.0089    2.1739    0.1334 N   0  0  0  0  0  0  0  0  0  0  0  0
    3.0356    2.5754   -0.0288 N   0  0  0  0  0  0  0  0  0  0  0  0
    3.4300   -0.3376    0.3334 B   0  0  0  0  0  0  0  0  0  0  0  0
    2.5740   -0.2054   -0.7902 F   0  0  0  0  0  0  0  0  0  0  0  0
    3.8784   -1.6254    0.4846 F   0  0  0  0  0  0  0  0  0  0  0  0
    4.4871    0.5861    0.1881 F   0  0  0  0  0  0  0  0  0  0  0  0
    2.6743    0.0743    1.4856 F   0  0  0  0  0  0  0  0  0  0  0  0
   -3.2599    0.7777    0.5557 O   0  0  0  0  0  0  0  0  0  0  0  0
   -3.8454    0.2823    1.7641 C   0  0  0  0  0  0  0  0  0  0  0  0
   -4.8925    0.0988    1.5269 H   0  0  0  0  0  0  0  0  0  0  0  0
   -3.7752    1.0234    2.5680 H   0  0  0  0  0  0  0  0  0  0  0  0
   -3.3702   -0.6532    2.0756 H   0  0  0  0  0  0  0  0  0  0  0  0
  1  7  1  0  0  0  0
  2  1  1  0  0  0  0
  2  8  1  0  0  0  0
  3  2  2  0  0  0  0
  4  5  2  0  0  0  0
  4  3  1  0  0  0  0
  5  6  1  0  0  0  0
  6 18  1  0  0  0  0
  6  1  2  0  0  0  0
  9  4  1  0  0  0  0
 10  5  1  0  0  0  0
 11  3  1  0  0  0  0
 12 11  1  0  0  0  0
 13 15  1  0  0  0  0
 13 17  1  0  0  0  0
 14 13  1  0  0  0  0
 16 13  1  0  0  0  0
 18 19  1  0  0  0  0
 19 22  1  0  0  0  0
 19 21  1  0  0  0  0
 20 19  1  0  0  0  0
M  RAD  2  11   2  12   3
M  END
