Coordinates from ORCA-job p-CH3O-Ph-N2-X-BF4-B3LYPG-6-31G_dp-scan-d09-49-n400
 OpenBabel08281820543D

 22 21  0  0  0  0  0  0  0  0999 V2000
   -1.0773    0.8322    1.5077 C   0  0  0  0  0  0  0  0  0  0  0  0
    0.2688    1.0905    1.3078 C   0  0  0  0  0  0  0  0  0  0  0  0
    0.6508    1.7048    0.1043 C   0  0  0  0  0  0  0  0  0  0  0  0
   -0.2793    2.0628   -0.8959 C   0  0  0  0  0  0  0  0  0  0  0  0
   -1.6106    1.7867   -0.6822 C   0  0  0  0  0  0  0  0  0  0  0  0
   -2.0233    1.1663    0.5193 C   0  0  0  0  0  0  0  0  0  0  0  0
   -1.3822    0.3568    2.4309 H   0  0  0  0  0  0  0  0  0  0  0  0
    1.0270    0.8162    2.0318 H   0  0  0  0  0  0  0  0  0  0  0  0
    0.0563    2.5321   -1.8137 H   0  0  0  0  0  0  0  0  0  0  0  0
   -2.3612    2.0329   -1.4240 H   0  0  0  0  0  0  0  0  0  0  0  0
    1.9670    2.0279   -0.1339 N   0  0  0  0  0  0  0  0  0  0  0  0
    2.9876    2.3947   -0.3933 N   0  0  0  0  0  0  0  0  0  0  0  0
    3.5837   -0.3059    0.6277 B   0  0  0  0  0  0  0  0  0  0  0  0
    2.6057   -0.4897   -0.3815 F   0  0  0  0  0  0  0  0  0  0  0  0
    4.1272   -1.4960    1.0373 F   0  0  0  0  0  0  0  0  0  0  0  0
    4.5550    0.5922    0.1358 F   0  0  0  0  0  0  0  0  0  0  0  0
    2.9332    0.3590    1.7281 F   0  0  0  0  0  0  0  0  0  0  0  0
   -3.3406    0.9396    0.6209 O   0  0  0  0  0  0  0  0  0  0  0  0
   -3.8543    0.2849    1.7861 C   0  0  0  0  0  0  0  0  0  0  0  0
   -4.9279    0.1980    1.6219 H   0  0  0  0  0  0  0  0  0  0  0  0
   -3.6674    0.8803    2.6863 H   0  0  0  0  0  0  0  0  0  0  0  0
   -3.4182   -0.7127    1.9001 H   0  0  0  0  0  0  0  0  0  0  0  0
  1  7  1  0  0  0  0
  2  1  1  0  0  0  0
  2  8  1  0  0  0  0
  3  2  2  0  0  0  0
  4  5  2  0  0  0  0
  4  3  1  0  0  0  0
  5  6  1  0  0  0  0
  6 18  1  0  0  0  0
  6  1  2  0  0  0  0
  9  4  1  0  0  0  0
 10  5  1  0  0  0  0
 11  3  1  0  0  0  0
 12 11  1  0  0  0  0
 13 15  1  0  0  0  0
 13 17  1  0  0  0  0
 14 13  1  0  0  0  0
 16 13  1  0  0  0  0
 18 19  1  0  0  0  0
 19 22  1  0  0  0  0
 19 21  1  0  0  0  0
 20 19  1  0  0  0  0
M  RAD  2  11   2  12   3
M  END
