Coordinates from ORCA-job p-CH3O-Ph-N2-X-BF4-B3LYPG-6-31G_dp-scan-d09-49-n400
 OpenBabel08281820543D

 22 21  0  0  0  0  0  0  0  0999 V2000
   -1.1598    1.1749    1.7798 C   0  0  0  0  0  0  0  0  0  0  0  0
    0.1630    1.5803    1.7355 C   0  0  0  0  0  0  0  0  0  0  0  0
    0.7456    1.8231    0.4854 C   0  0  0  0  0  0  0  0  0  0  0  0
    0.0639    1.6203   -0.7288 C   0  0  0  0  0  0  0  0  0  0  0  0
   -1.2534    1.2248   -0.6679 C   0  0  0  0  0  0  0  0  0  0  0  0
   -1.8780    0.9996    0.5790 C   0  0  0  0  0  0  0  0  0  0  0  0
   -1.6179    0.9760    2.7397 H   0  0  0  0  0  0  0  0  0  0  0  0
    0.7517    1.6814    2.6385 H   0  0  0  0  0  0  0  0  0  0  0  0
    0.5891    1.7337   -1.6673 H   0  0  0  0  0  0  0  0  0  0  0  0
   -1.8257    1.0479   -1.5709 H   0  0  0  0  0  0  0  0  0  0  0  0
    2.0518    2.2452    0.4486 N   0  0  0  0  0  0  0  0  0  0  0  0
    3.0860    2.6583    0.4326 N   0  0  0  0  0  0  0  0  0  0  0  0
    3.2856   -0.2955   -0.0340 B   0  0  0  0  0  0  0  0  0  0  0  0
    2.4278    0.2023   -1.0681 F   0  0  0  0  0  0  0  0  0  0  0  0
    3.5963   -1.6147   -0.2468 F   0  0  0  0  0  0  0  0  0  0  0  0
    4.4232    0.5325    0.0010 F   0  0  0  0  0  0  0  0  0  0  0  0
    2.5855   -0.1215    1.1986 F   0  0  0  0  0  0  0  0  0  0  0  0
   -3.1592    0.6079    0.5145 O   0  0  0  0  0  0  0  0  0  0  0  0
   -3.8663    0.3054    1.7197 C   0  0  0  0  0  0  0  0  0  0  0  0
   -4.8635    0.0009    1.4048 H   0  0  0  0  0  0  0  0  0  0  0  0
   -3.9396    1.1870    2.3661 H   0  0  0  0  0  0  0  0  0  0  0  0
   -3.3863   -0.5165    2.2615 H   0  0  0  0  0  0  0  0  0  0  0  0
  1  7  1  0  0  0  0
  2  1  1  0  0  0  0
  2  8  1  0  0  0  0
  3  2  2  0  0  0  0
  4  5  2  0  0  0  0
  4  3  1  0  0  0  0
  5  6  1  0  0  0  0
  6  1  2  0  0  0  0
  9  4  1  0  0  0  0
 10  5  1  0  0  0  0
 11  3  1  0  0  0  0
 12 11  1  0  0  0  0
 13 16  1  0  0  0  0
 13 17  1  0  0  0  0
 14 13  1  0  0  0  0
 15 13  1  0  0  0  0
 18  6  1  0  0  0  0
 18 19  1  0  0  0  0
 19 22  1  0  0  0  0
 19 21  1  0  0  0  0
 20 19  1  0  0  0  0
M  RAD  2  11   2  12   3
M  END
