Coordinates from ORCA-job p-CH3O-Ph-N2-X-BF4-B3LYPG-6-31G_dp-scan-d09-49-n400
 OpenBabel08281820543D

 22 21  0  0  0  0  0  0  0  0999 V2000
   -1.0805    0.3978    1.0371 C   0  0  0  0  0  0  0  0  0  0  0  0
    0.2382    0.4931    0.6253 C   0  0  0  0  0  0  0  0  0  0  0  0
    0.5719    1.5094   -0.2883 C   0  0  0  0  0  0  0  0  0  0  0  0
   -0.3800    2.4265   -0.7892 C   0  0  0  0  0  0  0  0  0  0  0  0
   -1.6821    2.3198   -0.3587 C   0  0  0  0  0  0  0  0  0  0  0  0
   -2.0459    1.3045    0.5579 C   0  0  0  0  0  0  0  0  0  0  0  0
   -1.3482   -0.3816    1.7390 H   0  0  0  0  0  0  0  0  0  0  0  0
    1.0027   -0.1836    0.9855 H   0  0  0  0  0  0  0  0  0  0  0  0
   -0.0826    3.1968   -1.4924 H   0  0  0  0  0  0  0  0  0  0  0  0
   -2.4489    3.0011   -0.7084 H   0  0  0  0  0  0  0  0  0  0  0  0
    1.8578    1.6203   -0.7560 N   0  0  0  0  0  0  0  0  0  0  0  0
    2.8774    1.7215   -1.2016 N   0  0  0  0  0  0  0  0  0  0  0  0
    3.6929   -0.0450    1.2338 B   0  0  0  0  0  0  0  0  0  0  0  0
    2.8918   -1.2038    1.1485 F   0  0  0  0  0  0  0  0  0  0  0  0
    4.6694   -0.1668    2.1912 F   0  0  0  0  0  0  0  0  0  0  0  0
    4.2538    0.2135   -0.0482 F   0  0  0  0  0  0  0  0  0  0  0  0
    2.8244    1.0536    1.5333 F   0  0  0  0  0  0  0  0  0  0  0  0
   -3.3387    1.2902    0.9066 O   0  0  0  0  0  0  0  0  0  0  0  0
   -3.8094    0.3009    1.8294 C   0  0  0  0  0  0  0  0  0  0  0  0
   -4.8723    0.5032    1.9562 H   0  0  0  0  0  0  0  0  0  0  0  0
   -3.2998    0.3898    2.7942 H   0  0  0  0  0  0  0  0  0  0  0  0
   -3.6718   -0.7079    1.4260 H   0  0  0  0  0  0  0  0  0  0  0  0
  1  7  1  0  0  0  0
  2  8  1  0  0  0  0
  2  1  1  0  0  0  0
  3  2  2  0  0  0  0
  4  5  2  0  0  0  0
  4  3  1  0  0  0  0
  5  6  1  0  0  0  0
  6 18  1  0  0  0  0
  6  1  2  0  0  0  0
  9  4  1  0  0  0  0
 10  5  1  0  0  0  0
 11  3  1  0  0  0  0
 12 11  1  0  0  0  0
 13 17  1  0  0  0  0
 13 15  1  0  0  0  0
 14 13  1  0  0  0  0
 16 13  1  0  0  0  0
 18 19  1  0  0  0  0
 19 20  1  0  0  0  0
 19 21  1  0  0  0  0
 22 19  1  0  0  0  0
M  RAD  2  11   2  12   3
M  END
