Coordinates from ORCA-job p-CH3O-Ph-N2-X-BF4-B3LYPG-6-31G_dp-scan-d09-49-n400
 OpenBabel08281820543D

 22 21  0  0  0  0  0  0  0  0999 V2000
   -1.0593    0.3726    1.0041 C   0  0  0  0  0  0  0  0  0  0  0  0
    0.2533    0.4618    0.5714 C   0  0  0  0  0  0  0  0  0  0  0  0
    0.5787    1.4941   -0.3279 C   0  0  0  0  0  0  0  0  0  0  0  0
   -0.3713    2.4296   -0.7967 C   0  0  0  0  0  0  0  0  0  0  0  0
   -1.6666    2.3268   -0.3458 C   0  0  0  0  0  0  0  0  0  0  0  0
   -2.0232    1.2987    0.5598 C   0  0  0  0  0  0  0  0  0  0  0  0
   -1.3236   -0.4175    1.6953 H   0  0  0  0  0  0  0  0  0  0  0  0
    1.0214   -0.2332    0.8998 H   0  0  0  0  0  0  0  0  0  0  0  0
   -0.0776    3.2107   -1.4894 H   0  0  0  0  0  0  0  0  0  0  0  0
   -2.4330    3.0215   -0.6689 H   0  0  0  0  0  0  0  0  0  0  0  0
    1.8606    1.6027   -0.8035 N   0  0  0  0  0  0  0  0  0  0  0  0
    2.8869    1.6959   -1.2349 N   0  0  0  0  0  0  0  0  0  0  0  0
    3.6240   -0.0051    1.2689 B   0  0  0  0  0  0  0  0  0  0  0  0
    2.7625   -1.1261    1.1501 F   0  0  0  0  0  0  0  0  0  0  0  0
    4.5546   -0.1849    2.2607 F   0  0  0  0  0  0  0  0  0  0  0  0
    4.2415    0.2176    0.0091 F   0  0  0  0  0  0  0  0  0  0  0  0
    2.8000    1.1294    1.5388 F   0  0  0  0  0  0  0  0  0  0  0  0
   -3.3095    1.2924    0.9325 O   0  0  0  0  0  0  0  0  0  0  0  0
   -3.7724    0.2969    1.8526 C   0  0  0  0  0  0  0  0  0  0  0  0
   -4.8297    0.5104    2.0048 H   0  0  0  0  0  0  0  0  0  0  0  0
   -3.2411    0.3673    2.8070 H   0  0  0  0  0  0  0  0  0  0  0  0
   -3.6562   -0.7082    1.4337 H   0  0  0  0  0  0  0  0  0  0  0  0
  1  7  1  0  0  0  0
  2  8  1  0  0  0  0
  2  1  1  0  0  0  0
  3  2  2  0  0  0  0
  4  5  2  0  0  0  0
  4  3  1  0  0  0  0
  5  6  1  0  0  0  0
  6 18  1  0  0  0  0
  6  1  2  0  0  0  0
  9  4  1  0  0  0  0
 10  5  1  0  0  0  0
 11  3  1  0  0  0  0
 12 11  1  0  0  0  0
 13 17  1  0  0  0  0
 13 15  1  0  0  0  0
 14 13  1  0  0  0  0
 16 13  1  0  0  0  0
 18 19  1  0  0  0  0
 19 20  1  0  0  0  0
 19 21  1  0  0  0  0
 22 19  1  0  0  0  0
M  RAD  2  11   2  12   3
M  END
