Coordinates from ORCA-job p-CH3O-Ph-N2-X-BF4-B3LYPG-6-31G_dp-scan-d09-49-n400
 OpenBabel08281820543D

 22 21  0  0  0  0  0  0  0  0999 V2000
   -1.1075    1.1027    1.7216 C   0  0  0  0  0  0  0  0  0  0  0  0
    0.2176    1.4945    1.6433 C   0  0  0  0  0  0  0  0  0  0  0  0
    0.7347    1.8434    0.3885 C   0  0  0  0  0  0  0  0  0  0  0  0
   -0.0150    1.7555   -0.7987 C   0  0  0  0  0  0  0  0  0  0  0  0
   -1.3310    1.3617   -0.7042 C   0  0  0  0  0  0  0  0  0  0  0  0
   -1.8906    1.0350    0.5515 C   0  0  0  0  0  0  0  0  0  0  0  0
   -1.5169    0.8252    2.6839 H   0  0  0  0  0  0  0  0  0  0  0  0
    0.8565    1.5030    2.5167 H   0  0  0  0  0  0  0  0  0  0  0  0
    0.4511    1.9640   -1.7532 H   0  0  0  0  0  0  0  0  0  0  0  0
   -1.9530    1.2702   -1.5869 H   0  0  0  0  0  0  0  0  0  0  0  0
    2.0414    2.2567    0.3063 N   0  0  0  0  0  0  0  0  0  0  0  0
    3.0762    2.6629    0.2366 N   0  0  0  0  0  0  0  0  0  0  0  0
    3.2758   -0.3258    0.1454 B   0  0  0  0  0  0  0  0  0  0  0  0
    2.4357    0.0598   -0.9432 F   0  0  0  0  0  0  0  0  0  0  0  0
    3.5858   -1.6609    0.0840 F   0  0  0  0  0  0  0  0  0  0  0  0
    4.4160    0.4994    0.1184 F   0  0  0  0  0  0  0  0  0  0  0  0
    2.5606   -0.0214    1.3498 F   0  0  0  0  0  0  0  0  0  0  0  0
   -3.1781    0.6601    0.5240 O   0  0  0  0  0  0  0  0  0  0  0  0
   -3.8235    0.2686    1.7390 C   0  0  0  0  0  0  0  0  0  0  0  0
   -4.8414    0.0031    1.4567 H   0  0  0  0  0  0  0  0  0  0  0  0
   -3.8460    1.0958    2.4572 H   0  0  0  0  0  0  0  0  0  0  0  0
   -3.3283   -0.6002    2.1849 H   0  0  0  0  0  0  0  0  0  0  0  0
  1  7  1  0  0  0  0
  2  1  1  0  0  0  0
  2  8  1  0  0  0  0
  3  2  2  0  0  0  0
  4  5  2  0  0  0  0
  4  3  1  0  0  0  0
  5  6  1  0  0  0  0
  6  1  2  0  0  0  0
  9  4  1  0  0  0  0
 10  5  1  0  0  0  0
 11  3  1  0  0  0  0
 12 11  1  0  0  0  0
 13 17  1  0  0  0  0
 14 13  1  0  0  0  0
 15 13  1  0  0  0  0
 16 13  1  0  0  0  0
 18  6  1  0  0  0  0
 18 19  1  0  0  0  0
 19 22  1  0  0  0  0
 19 21  1  0  0  0  0
 20 19  1  0  0  0  0
M  RAD  2  11   2  12   3
M  END
