Coordinates from ORCA-job p-CH3O-Ph-N2-X-BF4-B3LYPG-6-31G_dp-scan-d09-49-n400
 OpenBabel08281820543D

 22 21  0  0  0  0  0  0  0  0999 V2000
   -1.0717    0.8217    1.4956 C   0  0  0  0  0  0  0  0  0  0  0  0
    0.2734    1.0800    1.2903 C   0  0  0  0  0  0  0  0  0  0  0  0
    0.6488    1.7060    0.0905 C   0  0  0  0  0  0  0  0  0  0  0  0
   -0.2862    2.0739   -0.9015 C   0  0  0  0  0  0  0  0  0  0  0  0
   -1.6166    1.7976   -0.6823 C   0  0  0  0  0  0  0  0  0  0  0  0
   -2.0231    1.1673    0.5163 C   0  0  0  0  0  0  0  0  0  0  0  0
   -1.3719    0.3384    2.4162 H   0  0  0  0  0  0  0  0  0  0  0  0
    1.0367    0.8010    2.0076 H   0  0  0  0  0  0  0  0  0  0  0  0
    0.0447    2.5509   -1.8171 H   0  0  0  0  0  0  0  0  0  0  0  0
   -2.3714    2.0516   -1.4172 H   0  0  0  0  0  0  0  0  0  0  0  0
    1.9648    2.0266   -0.1506 N   0  0  0  0  0  0  0  0  0  0  0  0
    2.9871    2.3895   -0.4098 N   0  0  0  0  0  0  0  0  0  0  0  0
    3.5803   -0.3044    0.6496 B   0  0  0  0  0  0  0  0  0  0  0  0
    2.5913   -0.4905   -0.3503 F   0  0  0  0  0  0  0  0  0  0  0  0
    4.1229   -1.4951    1.0583 F   0  0  0  0  0  0  0  0  0  0  0  0
    4.5489    0.5870    0.1420 F   0  0  0  0  0  0  0  0  0  0  0  0
    2.9433    0.3683    1.7529 F   0  0  0  0  0  0  0  0  0  0  0  0
   -3.3403    0.9432    0.6244 O   0  0  0  0  0  0  0  0  0  0  0  0
   -3.8486    0.2832    1.7890 C   0  0  0  0  0  0  0  0  0  0  0  0
   -4.9237    0.2018    1.6319 H   0  0  0  0  0  0  0  0  0  0  0  0
   -3.6530    0.8723    2.6915 H   0  0  0  0  0  0  0  0  0  0  0  0
   -3.4159   -0.7169    1.8941 H   0  0  0  0  0  0  0  0  0  0  0  0
  1  7  1  0  0  0  0
  2  1  1  0  0  0  0
  2  8  1  0  0  0  0
  3  2  2  0  0  0  0
  4  5  2  0  0  0  0
  4  3  1  0  0  0  0
  5  6  1  0  0  0  0
  6 18  1  0  0  0  0
  6  1  2  0  0  0  0
  9  4  1  0  0  0  0
 10  5  1  0  0  0  0
 11  3  1  0  0  0  0
 12 11  1  0  0  0  0
 13 15  1  0  0  0  0
 13 17  1  0  0  0  0
 14 13  1  0  0  0  0
 16 13  1  0  0  0  0
 18 19  1  0  0  0  0
 19 22  1  0  0  0  0
 19 21  1  0  0  0  0
 20 19  1  0  0  0  0
M  RAD  2  11   2  12   3
M  END
