Coordinates from ORCA-job p-CH3O-Ph-N2-X-BF4-B3LYPG-6-31G_dp-scan-d09-49-n400
 OpenBabel08281820543D

 22 21  0  0  0  0  0  0  0  0999 V2000
   -1.0758    0.8286    1.5035 C   0  0  0  0  0  0  0  0  0  0  0  0
    0.2701    1.0864    1.3015 C   0  0  0  0  0  0  0  0  0  0  0  0
    0.6498    1.7046    0.0992 C   0  0  0  0  0  0  0  0  0  0  0  0
   -0.2821    2.0668   -0.8978 C   0  0  0  0  0  0  0  0  0  0  0  0
   -1.6132    1.7912   -0.6819 C   0  0  0  0  0  0  0  0  0  0  0  0
   -2.0237    1.1672    0.5185 C   0  0  0  0  0  0  0  0  0  0  0  0
   -1.3790    0.3504    2.4257 H   0  0  0  0  0  0  0  0  0  0  0  0
    1.0301    0.8098    2.0228 H   0  0  0  0  0  0  0  0  0  0  0  0
    0.0518    2.5390   -1.8148 H   0  0  0  0  0  0  0  0  0  0  0  0
   -2.3653    2.0406   -1.4211 H   0  0  0  0  0  0  0  0  0  0  0  0
    1.9660    2.0264   -0.1405 N   0  0  0  0  0  0  0  0  0  0  0  0
    2.9872    2.3913   -0.4004 N   0  0  0  0  0  0  0  0  0  0  0  0
    3.5839   -0.3054    0.6357 B   0  0  0  0  0  0  0  0  0  0  0  0
    2.6029   -0.4913   -0.3706 F   0  0  0  0  0  0  0  0  0  0  0  0
    4.1289   -1.4947    1.0454 F   0  0  0  0  0  0  0  0  0  0  0  0
    4.5534    0.5919    0.1390 F   0  0  0  0  0  0  0  0  0  0  0  0
    2.9365    0.3613    1.7365 F   0  0  0  0  0  0  0  0  0  0  0  0
   -3.3410    0.9417    0.6225 O   0  0  0  0  0  0  0  0  0  0  0  0
   -3.8528    0.2845    1.7871 C   0  0  0  0  0  0  0  0  0  0  0  0
   -4.9270    0.1997    1.6254 H   0  0  0  0  0  0  0  0  0  0  0  0
   -3.6628    0.8772    2.6885 H   0  0  0  0  0  0  0  0  0  0  0  0
   -3.4180   -0.7140    1.8975 H   0  0  0  0  0  0  0  0  0  0  0  0
  1  7  1  0  0  0  0
  2  1  1  0  0  0  0
  2  8  1  0  0  0  0
  3  2  2  0  0  0  0
  4  5  2  0  0  0  0
  4  3  1  0  0  0  0
  5  6  1  0  0  0  0
  6 18  1  0  0  0  0
  6  1  2  0  0  0  0
  9  4  1  0  0  0  0
 10  5  1  0  0  0  0
 11  3  1  0  0  0  0
 12 11  1  0  0  0  0
 13 15  1  0  0  0  0
 13 17  1  0  0  0  0
 14 13  1  0  0  0  0
 16 13  1  0  0  0  0
 18 19  1  0  0  0  0
 19 22  1  0  0  0  0
 19 21  1  0  0  0  0
 20 19  1  0  0  0  0
M  RAD  2  11   2  12   3
M  END
