Coordinates from ORCA-job p-CH3O-Ph-N2-X-BF4-B3LYPG-6-31G_dp-scan-d09-49-n400
 OpenBabel08281820543D

 22 21  0  0  0  0  0  0  0  0999 V2000
   -0.9688    0.4138    0.9857 C   0  0  0  0  0  0  0  0  0  0  0  0
    0.3482    0.5279    0.5505 C   0  0  0  0  0  0  0  0  0  0  0  0
    0.5904    1.5663   -0.3748 C   0  0  0  0  0  0  0  0  0  0  0  0
   -0.3944    2.4613   -0.8641 C   0  0  0  0  0  0  0  0  0  0  0  0
   -1.6781    2.3107   -0.4031 C   0  0  0  0  0  0  0  0  0  0  0  0
   -1.9758    1.2837    0.5303 C   0  0  0  0  0  0  0  0  0  0  0  0
   -1.2074   -0.3654    1.7007 H   0  0  0  0  0  0  0  0  0  0  0  0
    1.2523   -0.1834    0.9441 H   0  0  0  0  0  0  0  0  0  0  0  0
   -0.1369    3.2389   -1.5757 H   0  0  0  0  0  0  0  0  0  0  0  0
   -2.4796    2.9613   -0.7327 H   0  0  0  0  0  0  0  0  0  0  0  0
    1.8655    1.7220   -0.8498 N   0  0  0  0  0  0  0  0  0  0  0  0
    2.9067    1.8251   -1.2409 N   0  0  0  0  0  0  0  0  0  0  0  0
    3.4714   -0.0200    1.3310 B   0  0  0  0  0  0  0  0  0  0  0  0
    2.2149   -0.8397    1.3411 F   0  0  0  0  0  0  0  0  0  0  0  0
    4.3013   -0.4984    2.2987 F   0  0  0  0  0  0  0  0  0  0  0  0
    3.9859   -0.1284    0.0401 F   0  0  0  0  0  0  0  0  0  0  0  0
    3.0382    1.2908    1.5613 F   0  0  0  0  0  0  0  0  0  0  0  0
   -3.2604    1.2334    0.9139 O   0  0  0  0  0  0  0  0  0  0  0  0
   -3.6707    0.2441    1.8631 C   0  0  0  0  0  0  0  0  0  0  0  0
   -4.7357    0.4134    2.0196 H   0  0  0  0  0  0  0  0  0  0  0  0
   -3.1356    0.3624    2.8108 H   0  0  0  0  0  0  0  0  0  0  0  0
   -3.5114   -0.7662    1.4715 H   0  0  0  0  0  0  0  0  0  0  0  0
  1  7  1  0  0  0  0
  2  8  1  0  0  0  0
  2  1  1  0  0  0  0
  3  2  2  0  0  0  0
  4  5  2  0  0  0  0
  4  3  1  0  0  0  0
  5  6  1  0  0  0  0
  6 18  1  0  0  0  0
  6  1  2  0  0  0  0
  9  4  1  0  0  0  0
 10  5  1  0  0  0  0
 11  3  1  0  0  0  0
 12 11  1  0  0  0  0
 13 14  1  0  0  0  0
 13 17  1  0  0  0  0
 13 15  1  0  0  0  0
 16 13  1  0  0  0  0
 18 19  1  0  0  0  0
 19 20  1  0  0  0  0
 19 21  1  0  0  0  0
 22 19  1  0  0  0  0
M  RAD  2  11   2  12   3
M  END
