Coordinates from ORCA-job p-CH3O-Ph-N2-X-BF4-B3LYPG-6-31G_dp-scan-d09-49-n400
 OpenBabel08281820543D

 22 21  0  0  0  0  0  0  0  0999 V2000
   -1.0839    0.9129    1.5745 C   0  0  0  0  0  0  0  0  0  0  0  0
    0.2598    1.2065    1.4111 C   0  0  0  0  0  0  0  0  0  0  0  0
    0.6733    1.7469    0.1832 C   0  0  0  0  0  0  0  0  0  0  0  0
   -0.2235    2.0015   -0.8758 C   0  0  0  0  0  0  0  0  0  0  0  0
   -1.5532    1.6931   -0.6971 C   0  0  0  0  0  0  0  0  0  0  0  0
   -1.9965    1.1412    0.5262 C   0  0  0  0  0  0  0  0  0  0  0  0
   -1.4120    0.4905    2.5153 H   0  0  0  0  0  0  0  0  0  0  0  0
    0.9888    1.0048    2.1843 H   0  0  0  0  0  0  0  0  0  0  0  0
    0.1367    2.4143   -1.8111 H   0  0  0  0  0  0  0  0  0  0  0  0
   -2.2784    1.8588   -1.4851 H   0  0  0  0  0  0  0  0  0  0  0  0
    1.9885    2.0958   -0.0200 N   0  0  0  0  0  0  0  0  0  0  0  0
    3.0104    2.4765   -0.2506 N   0  0  0  0  0  0  0  0  0  0  0  0
    3.5159   -0.3323    0.5018 B   0  0  0  0  0  0  0  0  0  0  0  0
    2.5781   -0.3990   -0.5578 F   0  0  0  0  0  0  0  0  0  0  0  0
    3.9913   -1.5722    0.8443 F   0  0  0  0  0  0  0  0  0  0  0  0
    4.5420    0.5568    0.1239 F   0  0  0  0  0  0  0  0  0  0  0  0
    2.8421    0.2747    1.6235 F   0  0  0  0  0  0  0  0  0  0  0  0
   -3.3081    0.8707    0.5890 O   0  0  0  0  0  0  0  0  0  0  0  0
   -3.8461    0.2669    1.7705 C   0  0  0  0  0  0  0  0  0  0  0  0
   -4.9078    0.1286    1.5696 H   0  0  0  0  0  0  0  0  0  0  0  0
   -3.7186    0.9210    2.6399 H   0  0  0  0  0  0  0  0  0  0  0  0
   -3.3791   -0.7046    1.9618 H   0  0  0  0  0  0  0  0  0  0  0  0
  1  7  1  0  0  0  0
  2  1  1  0  0  0  0
  2  8  1  0  0  0  0
  3  2  2  0  0  0  0
  4  5  2  0  0  0  0
  4  3  1  0  0  0  0
  5  6  1  0  0  0  0
  6 18  1  0  0  0  0
  6  1  2  0  0  0  0
  9  4  1  0  0  0  0
 10  5  1  0  0  0  0
 11  3  1  0  0  0  0
 12 11  1  0  0  0  0
 13 15  1  0  0  0  0
 13 17  1  0  0  0  0
 14 13  1  0  0  0  0
 16 13  1  0  0  0  0
 18 19  1  0  0  0  0
 19 22  1  0  0  0  0
 19 21  1  0  0  0  0
 20 19  1  0  0  0  0
M  RAD  2  11   2  12   3
M  END
