Coordinates from ORCA-job p-CH3O-Ph-N2-X-BF4-B3LYPG-6-31G_dp-scan-d09-49-n400
 OpenBabel08281820543D

 22 21  0  0  0  0  0  0  0  0999 V2000
   -1.0403    0.3718    0.9958 C   0  0  0  0  0  0  0  0  0  0  0  0
    0.2702    0.4665    0.5571 C   0  0  0  0  0  0  0  0  0  0  0  0
    0.5835    1.5022   -0.3430 C   0  0  0  0  0  0  0  0  0  0  0  0
   -0.3728    2.4328   -0.8096 C   0  0  0  0  0  0  0  0  0  0  0  0
   -1.6653    2.3217   -0.3535 C   0  0  0  0  0  0  0  0  0  0  0  0
   -2.0110    1.2926    0.5559 C   0  0  0  0  0  0  0  0  0  0  0  0
   -1.2977   -0.4192    1.6886 H   0  0  0  0  0  0  0  0  0  0  0  0
    1.0511   -0.2257    0.8781 H   0  0  0  0  0  0  0  0  0  0  0  0
   -0.0863    3.2153   -1.5038 H   0  0  0  0  0  0  0  0  0  0  0  0
   -2.4378    3.0109   -0.6739 H   0  0  0  0  0  0  0  0  0  0  0  0
    1.8652    1.6179   -0.8162 N   0  0  0  0  0  0  0  0  0  0  0  0
    2.8965    1.7076   -1.2361 N   0  0  0  0  0  0  0  0  0  0  0  0
    3.5794   -0.0001    1.2819 B   0  0  0  0  0  0  0  0  0  0  0  0
    2.6545   -1.0753    1.1326 F   0  0  0  0  0  0  0  0  0  0  0  0
    4.4779   -0.2508    2.2859 F   0  0  0  0  0  0  0  0  0  0  0  0
    4.2243    0.1994    0.0351 F   0  0  0  0  0  0  0  0  0  0  0  0
    2.8101    1.1684    1.5539 F   0  0  0  0  0  0  0  0  0  0  0  0
   -3.2952    1.2809    0.9359 O   0  0  0  0  0  0  0  0  0  0  0  0
   -3.7464    0.2889    1.8653 C   0  0  0  0  0  0  0  0  0  0  0  0
   -4.8035    0.4982    2.0242 H   0  0  0  0  0  0  0  0  0  0  0  0
   -3.2081    0.3678    2.8153 H   0  0  0  0  0  0  0  0  0  0  0  0
   -3.6283   -0.7183    1.4520 H   0  0  0  0  0  0  0  0  0  0  0  0
  1  7  1  0  0  0  0
  2  8  1  0  0  0  0
  2  1  1  0  0  0  0
  3  2  2  0  0  0  0
  4  5  2  0  0  0  0
  4  3  1  0  0  0  0
  5  6  1  0  0  0  0
  6 18  1  0  0  0  0
  6  1  2  0  0  0  0
  9  4  1  0  0  0  0
 10  5  1  0  0  0  0
 11  3  1  0  0  0  0
 12 11  1  0  0  0  0
 13 17  1  0  0  0  0
 13 15  1  0  0  0  0
 14 13  1  0  0  0  0
 16 13  1  0  0  0  0
 18 19  1  0  0  0  0
 19 20  1  0  0  0  0
 19 21  1  0  0  0  0
 22 19  1  0  0  0  0
M  RAD  2  11   2  12   3
M  END
