Coordinates from ORCA-job p-CH3O-Ph-N2-X-BF4-B3LYPG-6-31G_dp-scan-d09-49-n400
 OpenBabel08281820543D

 22 21  0  0  0  0  0  0  0  0999 V2000
   -0.9964    0.3647    0.9594 C   0  0  0  0  0  0  0  0  0  0  0  0
    0.3092    0.4624    0.5032 C   0  0  0  0  0  0  0  0  0  0  0  0
    0.5944    1.5077   -0.3975 C   0  0  0  0  0  0  0  0  0  0  0  0
   -0.3700    2.4383   -0.8496 C   0  0  0  0  0  0  0  0  0  0  0  0
   -1.6538    2.3173   -0.3747 C   0  0  0  0  0  0  0  0  0  0  0  0
   -1.9775    1.2828    0.5389 C   0  0  0  0  0  0  0  0  0  0  0  0
   -1.2420   -0.4280    1.6553 H   0  0  0  0  0  0  0  0  0  0  0  0
    1.1288   -0.2317    0.8169 H   0  0  0  0  0  0  0  0  0  0  0  0
   -0.0971    3.2257   -1.5438 H   0  0  0  0  0  0  0  0  0  0  0  0
   -2.4360    3.0027   -0.6792 H   0  0  0  0  0  0  0  0  0  0  0  0
    1.8744    1.6311   -0.8692 N   0  0  0  0  0  0  0  0  0  0  0  0
    2.9173    1.7065   -1.2622 N   0  0  0  0  0  0  0  0  0  0  0  0
    3.4681    0.0238    1.3505 B   0  0  0  0  0  0  0  0  0  0  0  0
    2.4160   -0.9626    1.2101 F   0  0  0  0  0  0  0  0  0  0  0  0
    4.2962   -0.3111    2.3866 F   0  0  0  0  0  0  0  0  0  0  0  0
    4.1448    0.0944    0.1168 F   0  0  0  0  0  0  0  0  0  0  0  0
    2.8168    1.2628    1.5671 F   0  0  0  0  0  0  0  0  0  0  0  0
   -3.2553    1.2673    0.9419 O   0  0  0  0  0  0  0  0  0  0  0  0
   -3.6837    0.2790    1.8857 C   0  0  0  0  0  0  0  0  0  0  0  0
   -4.7377    0.4865    2.0665 H   0  0  0  0  0  0  0  0  0  0  0  0
   -3.1250    0.3640    2.8232 H   0  0  0  0  0  0  0  0  0  0  0  0
   -3.5717   -0.7301    1.4755 H   0  0  0  0  0  0  0  0  0  0  0  0
  1  7  1  0  0  0  0
  2  8  1  0  0  0  0
  2  1  2  0  0  0  0
  3  2  1  0  0  0  0
  4  3  2  0  0  0  0
  4  5  1  0  0  0  0
  5  6  2  0  0  0  0
  6 18  1  0  0  0  0
  6  1  1  0  0  0  0
  9  4  1  0  0  0  0
 10  5  1  0  0  0  0
 11  3  1  0  0  0  0
 12 11  1  0  0  0  0
 13 17  1  0  0  0  0
 13 15  1  0  0  0  0
 14 13  1  0  0  0  0
 16 13  1  0  0  0  0
 18 19  1  0  0  0  0
 19 20  1  0  0  0  0
 19 21  1  0  0  0  0
 22 19  1  0  0  0  0
M  RAD  2  11   2  12   3
M  END
