Coordinates from ORCA-job p-CH3O-Ph-N2-X-BF4-B3LYPG-6-31G_dp-scan-d09-49-n400
 OpenBabel08281820543D

 22 21  0  0  0  0  0  0  0  0999 V2000
   -1.0717    0.8067    1.4811 C   0  0  0  0  0  0  0  0  0  0  0  0
    0.2738    1.0561    1.2666 C   0  0  0  0  0  0  0  0  0  0  0  0
    0.6431    1.6954    0.0718 C   0  0  0  0  0  0  0  0  0  0  0  0
   -0.2983    2.0848   -0.9063 C   0  0  0  0  0  0  0  0  0  0  0  0
   -1.6288    1.8166   -0.6783 C   0  0  0  0  0  0  0  0  0  0  0  0
   -2.0293    1.1736    0.5158 C   0  0  0  0  0  0  0  0  0  0  0  0
   -1.3673    0.3136    2.3980 H   0  0  0  0  0  0  0  0  0  0  0  0
    1.0422    0.7622    1.9729 H   0  0  0  0  0  0  0  0  0  0  0  0
    0.0278    2.5721   -1.8181 H   0  0  0  0  0  0  0  0  0  0  0  0
   -2.3883    2.0867   -1.4024 H   0  0  0  0  0  0  0  0  0  0  0  0
    1.9593    2.0093   -0.1777 N   0  0  0  0  0  0  0  0  0  0  0  0
    2.9825    2.3663   -0.4418 N   0  0  0  0  0  0  0  0  0  0  0  0
    3.5959   -0.2979    0.6763 B   0  0  0  0  0  0  0  0  0  0  0  0
    2.6110   -0.5030   -0.3235 F   0  0  0  0  0  0  0  0  0  0  0  0
    4.1552   -1.4784    1.0919 F   0  0  0  0  0  0  0  0  0  0  0  0
    4.5535    0.6036    0.1629 F   0  0  0  0  0  0  0  0  0  0  0  0
    2.9507    0.3737    1.7748 F   0  0  0  0  0  0  0  0  0  0  0  0
   -3.3472    0.9591    0.6334 O   0  0  0  0  0  0  0  0  0  0  0  0
   -3.8503    0.2881    1.7940 C   0  0  0  0  0  0  0  0  0  0  0  0
   -4.9276    0.2187    1.6463 H   0  0  0  0  0  0  0  0  0  0  0  0
   -3.6405    0.8631    2.7024 H   0  0  0  0  0  0  0  0  0  0  0  0
   -3.4258   -0.7171    1.8813 H   0  0  0  0  0  0  0  0  0  0  0  0
  1  7  1  0  0  0  0
  2  1  1  0  0  0  0
  2  8  1  0  0  0  0
  3  2  2  0  0  0  0
  4  5  2  0  0  0  0
  4  3  1  0  0  0  0
  5  6  1  0  0  0  0
  6 18  1  0  0  0  0
  6  1  2  0  0  0  0
  9  4  1  0  0  0  0
 10  5  1  0  0  0  0
 11  3  1  0  0  0  0
 12 11  1  0  0  0  0
 13 15  1  0  0  0  0
 13 17  1  0  0  0  0
 14 13  1  0  0  0  0
 16 13  1  0  0  0  0
 18 19  1  0  0  0  0
 19 22  1  0  0  0  0
 19 21  1  0  0  0  0
 20 19  1  0  0  0  0
M  RAD  2  11   2  12   3
M  END
