Coordinates from ORCA-job p-CH3O-Ph-N2-X-BF4-B3LYPG-6-31G_dp-scan-d09-49-n400
 OpenBabel08281820543D

 22 21  0  0  0  0  0  0  0  0999 V2000
   -1.0045    0.3610    0.9581 C   0  0  0  0  0  0  0  0  0  0  0  0
    0.3005    0.4571    0.5016 C   0  0  0  0  0  0  0  0  0  0  0  0
    0.5926    1.5026   -0.3959 C   0  0  0  0  0  0  0  0  0  0  0  0
   -0.3692    2.4362   -0.8459 C   0  0  0  0  0  0  0  0  0  0  0  0
   -1.6541    2.3186   -0.3719 C   0  0  0  0  0  0  0  0  0  0  0  0
   -1.9822    1.2839    0.5394 C   0  0  0  0  0  0  0  0  0  0  0  0
   -1.2520   -0.4332    1.6513 H   0  0  0  0  0  0  0  0  0  0  0  0
    1.1079   -0.2386    0.8101 H   0  0  0  0  0  0  0  0  0  0  0  0
   -0.0936    3.2243   -1.5383 H   0  0  0  0  0  0  0  0  0  0  0  0
   -2.4335    3.0073   -0.6757 H   0  0  0  0  0  0  0  0  0  0  0  0
    1.8734    1.6236   -0.8663 N   0  0  0  0  0  0  0  0  0  0  0  0
    2.9164    1.6989   -1.2591 N   0  0  0  0  0  0  0  0  0  0  0  0
    3.4824    0.0238    1.3498 B   0  0  0  0  0  0  0  0  0  0  0  0
    2.4641   -0.9883    1.2151 F   0  0  0  0  0  0  0  0  0  0  0  0
    4.3286   -0.2800    2.3816 F   0  0  0  0  0  0  0  0  0  0  0  0
    4.1555    0.1171    0.1121 F   0  0  0  0  0  0  0  0  0  0  0  0
    2.8000    1.2484    1.5669 F   0  0  0  0  0  0  0  0  0  0  0  0
   -3.2599    1.2718    0.9422 O   0  0  0  0  0  0  0  0  0  0  0  0
   -3.6917    0.2837    1.8848 C   0  0  0  0  0  0  0  0  0  0  0  0
   -4.7449    0.4948    2.0660 H   0  0  0  0  0  0  0  0  0  0  0  0
   -3.1325    0.3656    2.8223 H   0  0  0  0  0  0  0  0  0  0  0  0
   -3.5835   -0.7252    1.4732 H   0  0  0  0  0  0  0  0  0  0  0  0
  1  7  1  0  0  0  0
  2  8  1  0  0  0  0
  2  1  2  0  0  0  0
  3  2  1  0  0  0  0
  4  3  2  0  0  0  0
  4  5  1  0  0  0  0
  5  6  2  0  0  0  0
  6 18  1  0  0  0  0
  6  1  1  0  0  0  0
  9  4  1  0  0  0  0
 10  5  1  0  0  0  0
 11  3  1  0  0  0  0
 12 11  1  0  0  0  0
 13 17  1  0  0  0  0
 13 15  1  0  0  0  0
 14 13  1  0  0  0  0
 16 13  1  0  0  0  0
 18 19  1  0  0  0  0
 19 20  1  0  0  0  0
 19 21  1  0  0  0  0
 22 19  1  0  0  0  0
M  RAD  2  11   2  12   3
M  END
