Coordinates from ORCA-job p-CH3O-Ph-N2-X-BF4-B3LYPG-6-31G_dp-scan-d09-49-n400
 OpenBabel08281820543D

 22 21  0  0  0  0  0  0  0  0999 V2000
   -1.1339    1.1426    1.7552 C   0  0  0  0  0  0  0  0  0  0  0  0
    0.1894    1.5444    1.6968 C   0  0  0  0  0  0  0  0  0  0  0  0
    0.7422    1.8369    0.4436 C   0  0  0  0  0  0  0  0  0  0  0  0
    0.0324    1.6808   -0.7609 C   0  0  0  0  0  0  0  0  0  0  0  0
   -1.2838    1.2837   -0.6861 C   0  0  0  0  0  0  0  0  0  0  0  0
   -1.8801    1.0138    0.5660 C   0  0  0  0  0  0  0  0  0  0  0  0
   -1.5701    0.9067    2.7169 H   0  0  0  0  0  0  0  0  0  0  0  0
    0.8008    1.6039    2.5881 H   0  0  0  0  0  0  0  0  0  0  0  0
    0.5327    1.8345   -1.7078 H   0  0  0  0  0  0  0  0  0  0  0  0
   -1.8769    1.1418   -1.5818 H   0  0  0  0  0  0  0  0  0  0  0  0
    2.0484    2.2565    0.3877 N   0  0  0  0  0  0  0  0  0  0  0  0
    3.0828    2.6675    0.3484 N   0  0  0  0  0  0  0  0  0  0  0  0
    3.2710   -0.3093    0.0457 B   0  0  0  0  0  0  0  0  0  0  0  0
    2.4184    0.1419   -1.0112 F   0  0  0  0  0  0  0  0  0  0  0  0
    3.5766   -1.6385   -0.1012 F   0  0  0  0  0  0  0  0  0  0  0  0
    4.4127    0.5143    0.0480 F   0  0  0  0  0  0  0  0  0  0  0  0
    2.5703   -0.0743    1.2704 F   0  0  0  0  0  0  0  0  0  0  0  0
   -3.1637    0.6277    0.5167 O   0  0  0  0  0  0  0  0  0  0  0  0
   -3.8445    0.2874    1.7272 C   0  0  0  0  0  0  0  0  0  0  0  0
   -4.8507   -0.0006    1.4256 H   0  0  0  0  0  0  0  0  0  0  0  0
   -3.8970    1.1467    2.4050 H   0  0  0  0  0  0  0  0  0  0  0  0
   -3.3572   -0.5551    2.2292 H   0  0  0  0  0  0  0  0  0  0  0  0
  1  7  1  0  0  0  0
  2  1  1  0  0  0  0
  2  8  1  0  0  0  0
  3  2  2  0  0  0  0
  4  5  2  0  0  0  0
  4  3  1  0  0  0  0
  5  6  1  0  0  0  0
  6  1  2  0  0  0  0
  9  4  1  0  0  0  0
 10  5  1  0  0  0  0
 11  3  1  0  0  0  0
 12 11  1  0  0  0  0
 13 16  1  0  0  0  0
 13 17  1  0  0  0  0
 14 13  1  0  0  0  0
 15 13  1  0  0  0  0
 18  6  1  0  0  0  0
 18 19  1  0  0  0  0
 19 22  1  0  0  0  0
 19 21  1  0  0  0  0
 20 19  1  0  0  0  0
M  RAD  2  11   2  12   3
M  END
