Coordinates from ORCA-job p-CH3O-Ph-N2-X-BF4-B3LYPG-6-31G_dp-scan-d09-49-n400
 OpenBabel08281820543D

 22 21  0  0  0  0  0  0  0  0999 V2000
   -1.0743    0.8244    1.4988 C   0  0  0  0  0  0  0  0  0  0  0  0
    0.2713    1.0816    1.2944 C   0  0  0  0  0  0  0  0  0  0  0  0
    0.6485    1.7043    0.0935 C   0  0  0  0  0  0  0  0  0  0  0  0
   -0.2855    2.0712   -0.8999 C   0  0  0  0  0  0  0  0  0  0  0  0
   -1.6162    1.7962   -0.6816 C   0  0  0  0  0  0  0  0  0  0  0  0
   -2.0244    1.1681    0.5176 C   0  0  0  0  0  0  0  0  0  0  0  0
   -1.3758    0.3430    2.4200 H   0  0  0  0  0  0  0  0  0  0  0  0
    1.0334    0.8023    2.0127 H   0  0  0  0  0  0  0  0  0  0  0  0
    0.0466    2.5465   -1.8159 H   0  0  0  0  0  0  0  0  0  0  0  0
   -2.3701    2.0492   -1.4178 H   0  0  0  0  0  0  0  0  0  0  0  0
    1.9646    2.0247   -0.1478 N   0  0  0  0  0  0  0  0  0  0  0  0
    2.9865    2.3877   -0.4080 N   0  0  0  0  0  0  0  0  0  0  0  0
    3.5849   -0.3048    0.6444 B   0  0  0  0  0  0  0  0  0  0  0  0
    2.6020   -0.4937   -0.3600 F   0  0  0  0  0  0  0  0  0  0  0  0
    4.1316   -1.4932    1.0547 F   0  0  0  0  0  0  0  0  0  0  0  0
    4.5525    0.5920    0.1431 F   0  0  0  0  0  0  0  0  0  0  0  0
    2.9399    0.3638    1.7455 F   0  0  0  0  0  0  0  0  0  0  0  0
   -3.3417    0.9441    0.6243 O   0  0  0  0  0  0  0  0  0  0  0  0
   -3.8515    0.2845    1.7885 C   0  0  0  0  0  0  0  0  0  0  0  0
   -4.9263    0.2025    1.6297 H   0  0  0  0  0  0  0  0  0  0  0  0
   -3.6576    0.8741    2.6910 H   0  0  0  0  0  0  0  0  0  0  0  0
   -3.4184   -0.7153    1.8946 H   0  0  0  0  0  0  0  0  0  0  0  0
  1  7  1  0  0  0  0
  2  1  1  0  0  0  0
  2  8  1  0  0  0  0
  3  2  2  0  0  0  0
  4  5  2  0  0  0  0
  4  3  1  0  0  0  0
  5  6  1  0  0  0  0
  6 18  1  0  0  0  0
  6  1  2  0  0  0  0
  9  4  1  0  0  0  0
 10  5  1  0  0  0  0
 11  3  1  0  0  0  0
 12 11  1  0  0  0  0
 13 15  1  0  0  0  0
 13 17  1  0  0  0  0
 14 13  1  0  0  0  0
 16 13  1  0  0  0  0
 18 19  1  0  0  0  0
 19 22  1  0  0  0  0
 19 21  1  0  0  0  0
 20 19  1  0  0  0  0
M  RAD  2  11   2  12   3
M  END
