Coordinates from ORCA-job p-CH3O-Ph-N2-X-BF4-B3LYPG-6-31G_dp-scan-d09-49-n400
 OpenBabel08281820543D

 22 21  0  0  0  0  0  0  0  0999 V2000
   -1.1970    1.2050    1.8033 C   0  0  0  0  0  0  0  0  0  0  0  0
    0.1279    1.6043    1.7677 C   0  0  0  0  0  0  0  0  0  0  0  0
    0.7432    1.7791    0.5222 C   0  0  0  0  0  0  0  0  0  0  0  0
    0.0884    1.5243   -0.6971 C   0  0  0  0  0  0  0  0  0  0  0  0
   -1.2331    1.1404   -0.6455 C   0  0  0  0  0  0  0  0  0  0  0  0
   -1.8884    0.9781    0.5956 C   0  0  0  0  0  0  0  0  0  0  0  0
   -1.6778    1.0567    2.7612 H   0  0  0  0  0  0  0  0  0  0  0  0
    0.6997    1.7508    2.6751 H   0  0  0  0  0  0  0  0  0  0  0  0
    0.6403    1.5855   -1.6245 H   0  0  0  0  0  0  0  0  0  0  0  0
   -1.7864    0.9252   -1.5521 H   0  0  0  0  0  0  0  0  0  0  0  0
    2.0483    2.2089    0.5127 N   0  0  0  0  0  0  0  0  0  0  0  0
    3.0776    2.6327    0.5511 N   0  0  0  0  0  0  0  0  0  0  0  0
    3.3413   -0.2639   -0.1279 B   0  0  0  0  0  0  0  0  0  0  0  0
    2.4935    0.3134   -1.1339 F   0  0  0  0  0  0  0  0  0  0  0  0
    3.6940   -1.5459   -0.4646 F   0  0  0  0  0  0  0  0  0  0  0  0
    4.4545    0.5858    0.0112 F   0  0  0  0  0  0  0  0  0  0  0  0
    2.6026   -0.2254    1.0882 F   0  0  0  0  0  0  0  0  0  0  0  0
   -3.1711    0.5927    0.5202 O   0  0  0  0  0  0  0  0  0  0  0  0
   -3.9066    0.3514    1.7219 C   0  0  0  0  0  0  0  0  0  0  0  0
   -4.8993    0.0399    1.3998 H   0  0  0  0  0  0  0  0  0  0  0  0
   -3.9867    1.2622    2.3256 H   0  0  0  0  0  0  0  0  0  0  0  0
   -3.4451   -0.4479    2.3116 H   0  0  0  0  0  0  0  0  0  0  0  0
  1  7  1  0  0  0  0
  2  1  1  0  0  0  0
  2  8  1  0  0  0  0
  3  2  2  0  0  0  0
  4  5  2  0  0  0  0
  4  3  1  0  0  0  0
  5  6  1  0  0  0  0
  6  1  2  0  0  0  0
  9  4  1  0  0  0  0
 10  5  1  0  0  0  0
 11  3  1  0  0  0  0
 11 12  1  0  0  0  0
 13 16  1  0  0  0  0
 13 17  1  0  0  0  0
 14 13  1  0  0  0  0
 15 13  1  0  0  0  0
 18  6  1  0  0  0  0
 18 19  1  0  0  0  0
 19 22  1  0  0  0  0
 19 21  1  0  0  0  0
 20 19  1  0  0  0  0
M  RAD  2  11   2  12   3
M  END
