Coordinates from ORCA-job p-CH3O-Ph-N2-X-BF4-B3LYPG-6-31G_dp-scan-d09-49-n400
 OpenBabel08281820543D

 22 21  0  0  0  0  0  0  0  0999 V2000
   -1.0988    1.0858    1.7069 C   0  0  0  0  0  0  0  0  0  0  0  0
    0.2274    1.4718    1.6200 C   0  0  0  0  0  0  0  0  0  0  0  0
    0.7306    1.8420    0.3653 C   0  0  0  0  0  0  0  0  0  0  0  0
   -0.0361    1.7844   -0.8130 C   0  0  0  0  0  0  0  0  0  0  0  0
   -1.3524    1.3935   -0.7100 C   0  0  0  0  0  0  0  0  0  0  0  0
   -1.8971    1.0439    0.5461 C   0  0  0  0  0  0  0  0  0  0  0  0
   -1.4978    0.7927    2.6690 H   0  0  0  0  0  0  0  0  0  0  0  0
    0.8773    1.4601    2.4850 H   0  0  0  0  0  0  0  0  0  0  0  0
    0.4163    2.0153   -1.7691 H   0  0  0  0  0  0  0  0  0  0  0  0
   -1.9864    1.3241   -1.5861 H   0  0  0  0  0  0  0  0  0  0  0  0
    2.0377    2.2521    0.2723 N   0  0  0  0  0  0  0  0  0  0  0  0
    3.0724    2.6562    0.1905 N   0  0  0  0  0  0  0  0  0  0  0  0
    3.2850   -0.3312    0.1858 B   0  0  0  0  0  0  0  0  0  0  0  0
    2.4470    0.0267   -0.9126 F   0  0  0  0  0  0  0  0  0  0  0  0
    3.6011   -1.6661    0.1558 F   0  0  0  0  0  0  0  0  0  0  0  0
    4.4216    0.4983    0.1465 F   0  0  0  0  0  0  0  0  0  0  0  0
    2.5644   -0.0040    1.3821 F   0  0  0  0  0  0  0  0  0  0  0  0
   -3.1865    0.6751    0.5280 O   0  0  0  0  0  0  0  0  0  0  0  0
   -3.8178    0.2634    1.7440 C   0  0  0  0  0  0  0  0  0  0  0  0
   -4.8404    0.0078    1.4703 H   0  0  0  0  0  0  0  0  0  0  0  0
   -3.8269    1.0771    2.4778 H   0  0  0  0  0  0  0  0  0  0  0  0
   -3.3206   -0.6156    2.1668 H   0  0  0  0  0  0  0  0  0  0  0  0
  1  7  1  0  0  0  0
  2  1  1  0  0  0  0
  2  8  1  0  0  0  0
  3  2  2  0  0  0  0
  4  5  2  0  0  0  0
  4  3  1  0  0  0  0
  5  6  1  0  0  0  0
  6  1  2  0  0  0  0
  9  4  1  0  0  0  0
 10  5  1  0  0  0  0
 11  3  1  0  0  0  0
 12 11  1  0  0  0  0
 13 17  1  0  0  0  0
 14 13  1  0  0  0  0
 15 13  1  0  0  0  0
 16 13  1  0  0  0  0
 18  6  1  0  0  0  0
 18 19  1  0  0  0  0
 19 22  1  0  0  0  0
 19 21  1  0  0  0  0
 20 19  1  0  0  0  0
M  RAD  2  11   2  12   3
M  END
