Coordinates from ORCA-job p-CH3O-Ph-N2-X-BF4-B3LYPG-6-31G_dp-scan-d09-49-n400
 OpenBabel08281820543D

 22 21  0  0  0  0  0  0  0  0999 V2000
   -1.0698    0.8038    1.4774 C   0  0  0  0  0  0  0  0  0  0  0  0
    0.2754    1.0532    1.2610 C   0  0  0  0  0  0  0  0  0  0  0  0
    0.6427    1.6958    0.0675 C   0  0  0  0  0  0  0  0  0  0  0  0
   -0.3002    2.0884   -0.9078 C   0  0  0  0  0  0  0  0  0  0  0  0
   -1.6304    1.8203   -0.6780 C   0  0  0  0  0  0  0  0  0  0  0  0
   -2.0290    1.1741    0.5150 C   0  0  0  0  0  0  0  0  0  0  0  0
   -1.3640    0.3084    2.3935 H   0  0  0  0  0  0  0  0  0  0  0  0
    1.0452    0.7575    1.9653 H   0  0  0  0  0  0  0  0  0  0  0  0
    0.0244    2.5781   -1.8189 H   0  0  0  0  0  0  0  0  0  0  0  0
   -2.3913    2.0929   -1.3999 H   0  0  0  0  0  0  0  0  0  0  0  0
    1.9587    2.0086   -0.1834 N   0  0  0  0  0  0  0  0  0  0  0  0
    2.9824    2.3640   -0.4479 N   0  0  0  0  0  0  0  0  0  0  0  0
    3.5944   -0.2974    0.6831 B   0  0  0  0  0  0  0  0  0  0  0  0
    2.6054   -0.5038   -0.3125 F   0  0  0  0  0  0  0  0  0  0  0  0
    4.1543   -1.4774    1.0991 F   0  0  0  0  0  0  0  0  0  0  0  0
    4.5511    0.6025    0.1649 F   0  0  0  0  0  0  0  0  0  0  0  0
    2.9524    0.3761    1.7815 F   0  0  0  0  0  0  0  0  0  0  0  0
   -3.3469    0.9604    0.6347 O   0  0  0  0  0  0  0  0  0  0  0  0
   -3.8482    0.2873    1.7948 C   0  0  0  0  0  0  0  0  0  0  0  0
   -4.9259    0.2196    1.6493 H   0  0  0  0  0  0  0  0  0  0  0  0
   -3.6357    0.8598    2.7041 H   0  0  0  0  0  0  0  0  0  0  0  0
   -3.4248   -0.7187    1.8787 H   0  0  0  0  0  0  0  0  0  0  0  0
  1  7  1  0  0  0  0
  2  1  1  0  0  0  0
  2  8  1  0  0  0  0
  3  2  2  0  0  0  0
  4  5  2  0  0  0  0
  4  3  1  0  0  0  0
  5  6  1  0  0  0  0
  6 18  1  0  0  0  0
  6  1  2  0  0  0  0
  9  4  1  0  0  0  0
 10  5  1  0  0  0  0
 11  3  1  0  0  0  0
 12 11  1  0  0  0  0
 13 15  1  0  0  0  0
 13 17  1  0  0  0  0
 14 13  1  0  0  0  0
 16 13  1  0  0  0  0
 18 19  1  0  0  0  0
 19 22  1  0  0  0  0
 19 21  1  0  0  0  0
 20 19  1  0  0  0  0
M  RAD  2  11   2  12   3
M  END
