Coordinates from ORCA-job p-CH3O-Ph-N2-X-BF4-B3LYPG-6-31G_dp-scan-d09-49-n400
 OpenBabel08281820543D

 22 21  0  0  0  0  0  0  0  0999 V2000
   -1.0492    0.7625    1.4208 C   0  0  0  0  0  0  0  0  0  0  0  0
    0.2923    1.0001    1.1719 C   0  0  0  0  0  0  0  0  0  0  0  0
    0.6308    1.6886   -0.0050 C   0  0  0  0  0  0  0  0  0  0  0  0
   -0.3355    2.1375   -0.9326 C   0  0  0  0  0  0  0  0  0  0  0  0
   -1.6617    1.8797   -0.6710 C   0  0  0  0  0  0  0  0  0  0  0  0
   -2.0322    1.1892    0.5069 C   0  0  0  0  0  0  0  0  0  0  0  0
   -1.3225    0.2340    2.3248 H   0  0  0  0  0  0  0  0  0  0  0  0
    1.0823    0.6736    1.8422 H   0  0  0  0  0  0  0  0  0  0  0  0
   -0.0320    2.6613   -1.8321 H   0  0  0  0  0  0  0  0  0  0  0  0
   -2.4411    2.1945   -1.3548 H   0  0  0  0  0  0  0  0  0  0  0  0
    1.9451    1.9815   -0.2815 N   0  0  0  0  0  0  0  0  0  0  0  0
    2.9769    2.3051   -0.5582 N   0  0  0  0  0  0  0  0  0  0  0  0
    3.5901   -0.2865    0.7914 B   0  0  0  0  0  0  0  0  0  0  0  0
    2.5803   -0.5177   -0.1805 F   0  0  0  0  0  0  0  0  0  0  0  0
    4.1853   -1.4543    1.1918 F   0  0  0  0  0  0  0  0  0  0  0  0
    4.5169    0.6277    0.2398 F   0  0  0  0  0  0  0  0  0  0  0  0
    2.9633    0.3762    1.8997 F   0  0  0  0  0  0  0  0  0  0  0  0
   -3.3488    0.9926    0.6614 O   0  0  0  0  0  0  0  0  0  0  0  0
   -3.8245    0.2834    1.8111 C   0  0  0  0  0  0  0  0  0  0  0  0
   -4.9079    0.2438    1.7012 H   0  0  0  0  0  0  0  0  0  0  0  0
   -3.5678    0.8140    2.7342 H   0  0  0  0  0  0  0  0  0  0  0  0
   -3.4202   -0.7334    1.8400 H   0  0  0  0  0  0  0  0  0  0  0  0
  1  7  1  0  0  0  0
  2  1  1  0  0  0  0
  2  8  1  0  0  0  0
  3  2  2  0  0  0  0
  4  5  2  0  0  0  0
  4  3  1  0  0  0  0
  5  6  1  0  0  0  0
  6 18  1  0  0  0  0
  6  1  2  0  0  0  0
  9  4  1  0  0  0  0
 10  5  1  0  0  0  0
 11  3  1  0  0  0  0
 12 11  1  0  0  0  0
 13 15  1  0  0  0  0
 13 17  1  0  0  0  0
 14 13  1  0  0  0  0
 16 13  1  0  0  0  0
 18 19  1  0  0  0  0
 19 22  1  0  0  0  0
 19 21  1  0  0  0  0
 20 19  1  0  0  0  0
M  RAD  2  11   2  12   3
M  END
