Coordinates from ORCA-job p-CH3O-Ph-N2-X-BF4-B3LYPG-6-31G_dp-scan-d09-49-n400
 OpenBabel08281820543D

 22 21  0  0  0  0  0  0  0  0999 V2000
   -1.0013    0.7233    1.3292 C   0  0  0  0  0  0  0  0  0  0  0  0
    0.3297    0.9475    1.0192 C   0  0  0  0  0  0  0  0  0  0  0  0
    0.6153    1.6924   -0.1395 C   0  0  0  0  0  0  0  0  0  0  0  0
   -0.3899    2.2127   -0.9858 C   0  0  0  0  0  0  0  0  0  0  0  0
   -1.7043    1.9676   -0.6628 C   0  0  0  0  0  0  0  0  0  0  0  0
   -2.0229    1.2178    0.4952 C   0  0  0  0  0  0  0  0  0  0  0  0
   -1.2360    0.1531    2.2186 H   0  0  0  0  0  0  0  0  0  0  0  0
    1.1494    0.5738    1.6317 H   0  0  0  0  0  0  0  0  0  0  0  0
   -0.1249    2.7799   -1.8712 H   0  0  0  0  0  0  0  0  0  0  0  0
   -2.5143    2.3352   -1.2815 H   0  0  0  0  0  0  0  0  0  0  0  0
    1.9210    1.9500   -0.4723 N   0  0  0  0  0  0  0  0  0  0  0  0
    2.9695    2.2094   -0.7572 N   0  0  0  0  0  0  0  0  0  0  0  0
    3.5437   -0.2799    0.9853 B   0  0  0  0  0  0  0  0  0  0  0  0
    2.5113   -0.5015    0.0267 F   0  0  0  0  0  0  0  0  0  0  0  0
    4.2232   -1.4385    1.2601 F   0  0  0  0  0  0  0  0  0  0  0  0
    4.3951    0.7230    0.4617 F   0  0  0  0  0  0  0  0  0  0  0  0
    2.9180    0.2439    2.1546 F   0  0  0  0  0  0  0  0  0  0  0  0
   -3.3325    1.0355    0.7103 O   0  0  0  0  0  0  0  0  0  0  0  0
   -3.7609    0.2687    1.8419 C   0  0  0  0  0  0  0  0  0  0  0  0
   -4.8492    0.2547    1.7888 H   0  0  0  0  0  0  0  0  0  0  0  0
   -3.4439    0.7397    2.7783 H   0  0  0  0  0  0  0  0  0  0  0  0
   -3.3762   -0.7548    1.7902 H   0  0  0  0  0  0  0  0  0  0  0  0
  1  7  1  0  0  0  0
  2  1  1  0  0  0  0
  2  8  1  0  0  0  0
  3  2  2  0  0  0  0
  4  5  2  0  0  0  0
  4  3  1  0  0  0  0
  5  6  1  0  0  0  0
  6 18  1  0  0  0  0
  6  1  2  0  0  0  0
  9  4  1  0  0  0  0
 10  5  1  0  0  0  0
 11  3  1  0  0  0  0
 12 11  1  0  0  0  0
 13 15  1  0  0  0  0
 13 17  1  0  0  0  0
 14 13  1  0  0  0  0
 16 13  1  0  0  0  0
 18 19  1  0  0  0  0
 19 21  1  0  0  0  0
 20 19  1  0  0  0  0
 22 19  1  0  0  0  0
M  RAD  2  11   2  12   3
M  END
