Coordinates from ORCA-job p-CH3O-Ph-N2-X-BF4-B3LYPG-6-31G_dp-scan-d09-49-n400
 OpenBabel08281820543D

 22 21  0  0  0  0  0  0  0  0999 V2000
   -1.0202    0.7357    1.3609 C   0  0  0  0  0  0  0  0  0  0  0  0
    0.3150    0.9629    1.0721 C   0  0  0  0  0  0  0  0  0  0  0  0
    0.6193    1.6893   -0.0927 C   0  0  0  0  0  0  0  0  0  0  0  0
   -0.3729    2.1878   -0.9668 C   0  0  0  0  0  0  0  0  0  0  0  0
   -1.6920    1.9396   -0.6653 C   0  0  0  0  0  0  0  0  0  0  0  0
   -2.0289    1.2092    0.4994 C   0  0  0  0  0  0  0  0  0  0  0  0
   -1.2687    0.1788    2.2551 H   0  0  0  0  0  0  0  0  0  0  0  0
    1.1243    0.6046    1.7058 H   0  0  0  0  0  0  0  0  0  0  0  0
   -0.0943    2.7411   -1.8567 H   0  0  0  0  0  0  0  0  0  0  0  0
   -2.4917    2.2909   -1.3064 H   0  0  0  0  0  0  0  0  0  0  0  0
    1.9285    1.9591   -0.4056 N   0  0  0  0  0  0  0  0  0  0  0  0
    2.9712    2.2402   -0.6902 N   0  0  0  0  0  0  0  0  0  0  0  0
    3.5670   -0.2822    0.9184 B   0  0  0  0  0  0  0  0  0  0  0  0
    2.5429   -0.5122   -0.0436 F   0  0  0  0  0  0  0  0  0  0  0  0
    4.2192   -1.4437    1.2421 F   0  0  0  0  0  0  0  0  0  0  0  0
    4.4453    0.6881    0.3783 F   0  0  0  0  0  0  0  0  0  0  0  0
    2.9423    0.2966    2.0660 F   0  0  0  0  0  0  0  0  0  0  0  0
   -3.3414    1.0232    0.6934 O   0  0  0  0  0  0  0  0  0  0  0  0
   -3.7864    0.2745    1.8306 C   0  0  0  0  0  0  0  0  0  0  0  0
   -4.8735    0.2531    1.7578 H   0  0  0  0  0  0  0  0  0  0  0  0
   -3.4897    0.7643    2.7640 H   0  0  0  0  0  0  0  0  0  0  0  0
   -3.3954   -0.7475    1.8048 H   0  0  0  0  0  0  0  0  0  0  0  0
  1  7  1  0  0  0  0
  2  1  1  0  0  0  0
  2  8  1  0  0  0  0
  3  2  2  0  0  0  0
  4  5  2  0  0  0  0
  4  3  1  0  0  0  0
  5  6  1  0  0  0  0
  6 18  1  0  0  0  0
  6  1  2  0  0  0  0
  9  4  1  0  0  0  0
 10  5  1  0  0  0  0
 11  3  1  0  0  0  0
 12 11  1  0  0  0  0
 13 15  1  0  0  0  0
 13 17  1  0  0  0  0
 14 13  1  0  0  0  0
 16 13  1  0  0  0  0
 18 19  1  0  0  0  0
 19 21  1  0  0  0  0
 20 19  1  0  0  0  0
 22 19  1  0  0  0  0
M  RAD  2  11   2  12   3
M  END
