Coordinates from ORCA-job p-CH3O-Ph-N2-X-BF4-B3LYPG-6-31G_dp-scan-d09-49-n400
 OpenBabel08281820543D

 22 21  0  0  0  0  0  0  0  0999 V2000
   -1.2058    1.2374    1.8087 C   0  0  0  0  0  0  0  0  0  0  0  0
    0.1168    1.6430    1.7741 C   0  0  0  0  0  0  0  0  0  0  0  0
    0.7447    1.7840    0.5306 C   0  0  0  0  0  0  0  0  0  0  0  0
    0.1021    1.4974   -0.6879 C   0  0  0  0  0  0  0  0  0  0  0  0
   -1.2182    1.1078   -0.6374 C   0  0  0  0  0  0  0  0  0  0  0  0
   -1.8839    0.9718    0.6011 C   0  0  0  0  0  0  0  0  0  0  0  0
   -1.6953    1.1143    2.7659 H   0  0  0  0  0  0  0  0  0  0  0  0
    0.6781    1.8197    2.6823 H   0  0  0  0  0  0  0  0  0  0  0  0
    0.6636    1.5363   -1.6106 H   0  0  0  0  0  0  0  0  0  0  0  0
   -1.7621    0.8666   -1.5432 H   0  0  0  0  0  0  0  0  0  0  0  0
    2.0517    2.2085    0.5322 N   0  0  0  0  0  0  0  0  0  0  0  0
    3.0829    2.6248    0.5946 N   0  0  0  0  0  0  0  0  0  0  0  0
    3.3296   -0.2617   -0.1621 B   0  0  0  0  0  0  0  0  0  0  0  0
    2.5663    0.4159   -1.1759 F   0  0  0  0  0  0  0  0  0  0  0  0
    3.6572   -1.5299   -0.5686 F   0  0  0  0  0  0  0  0  0  0  0  0
    4.4583    0.5335    0.1054 F   0  0  0  0  0  0  0  0  0  0  0  0
    2.5178   -0.2781    1.0063 F   0  0  0  0  0  0  0  0  0  0  0  0
   -3.1622    0.5727    0.5253 O   0  0  0  0  0  0  0  0  0  0  0  0
   -3.9019    0.3452    1.7272 C   0  0  0  0  0  0  0  0  0  0  0  0
   -4.8876    0.0113    1.4056 H   0  0  0  0  0  0  0  0  0  0  0  0
   -4.0004    1.2669    2.3113 H   0  0  0  0  0  0  0  0  0  0  0  0
   -3.4316   -0.4341    2.3366 H   0  0  0  0  0  0  0  0  0  0  0  0
  1  7  1  0  0  0  0
  2  1  1  0  0  0  0
  2  8  1  0  0  0  0
  3 11  1  0  0  0  0
  3  2  2  0  0  0  0
  4  5  2  0  0  0  0
  4  3  1  0  0  0  0
  5  6  1  0  0  0  0
  6  1  2  0  0  0  0
  9  4  1  0  0  0  0
 10  5  1  0  0  0  0
 11 12  1  0  0  0  0
 13 16  1  0  0  0  0
 13 17  1  0  0  0  0
 14 13  1  0  0  0  0
 15 13  1  0  0  0  0
 18  6  1  0  0  0  0
 18 19  1  0  0  0  0
 19 21  1  0  0  0  0
 19 22  1  0  0  0  0
 20 19  1  0  0  0  0
M  RAD  2  11   2  12   3
M  END
