Coordinates from ORCA-job p-CH3O-Ph-N2-X-BF4-B3LYPG-6-31G_dp-scan-d09-49-n400
 OpenBabel08281820543D

 22 21  0  0  0  0  0  0  0  0999 V2000
   -1.1373    1.1467    1.7593 C   0  0  0  0  0  0  0  0  0  0  0  0
    0.1857    1.5494    1.7026 C   0  0  0  0  0  0  0  0  0  0  0  0
    0.7427    1.8357    0.4497 C   0  0  0  0  0  0  0  0  0  0  0  0
    0.0378    1.6713   -0.7567 C   0  0  0  0  0  0  0  0  0  0  0  0
   -1.2785    1.2742   -0.6836 C   0  0  0  0  0  0  0  0  0  0  0  0
   -1.8792    1.0116    0.5679 C   0  0  0  0  0  0  0  0  0  0  0  0
   -1.5764    0.9153    2.7207 H   0  0  0  0  0  0  0  0  0  0  0  0
    0.7966    1.6119    2.5942 H   0  0  0  0  0  0  0  0  0  0  0  0
    0.5422    1.8180   -1.7024 H   0  0  0  0  0  0  0  0  0  0  0  0
   -1.8683    1.1260   -1.5805 H   0  0  0  0  0  0  0  0  0  0  0  0
    2.0487    2.2565    0.3974 N   0  0  0  0  0  0  0  0  0  0  0  0
    3.0830    2.6679    0.3609 N   0  0  0  0  0  0  0  0  0  0  0  0
    3.2715   -0.3065    0.0345 B   0  0  0  0  0  0  0  0  0  0  0  0
    2.4161    0.1527   -1.0172 F   0  0  0  0  0  0  0  0  0  0  0  0
    3.5775   -1.6345   -0.1230 F   0  0  0  0  0  0  0  0  0  0  0  0
    4.4131    0.5172    0.0398 F   0  0  0  0  0  0  0  0  0  0  0  0
    2.5723   -0.0805    1.2613 F   0  0  0  0  0  0  0  0  0  0  0  0
   -3.1625    0.6250    0.5161 O   0  0  0  0  0  0  0  0  0  0  0  0
   -3.8477    0.2906    1.7258 C   0  0  0  0  0  0  0  0  0  0  0  0
   -4.8525    0.0004    1.4219 H   0  0  0  0  0  0  0  0  0  0  0  0
   -3.9032    1.1534    2.3989 H   0  0  0  0  0  0  0  0  0  0  0  0
   -3.3617   -0.5490    2.2340 H   0  0  0  0  0  0  0  0  0  0  0  0
  1  7  1  0  0  0  0
  2  1  1  0  0  0  0
  2  8  1  0  0  0  0
  3  2  2  0  0  0  0
  4  5  2  0  0  0  0
  4  3  1  0  0  0  0
  5  6  1  0  0  0  0
  6  1  2  0  0  0  0
  9  4  1  0  0  0  0
 10  5  1  0  0  0  0
 11  3  1  0  0  0  0
 12 11  1  0  0  0  0
 13 16  1  0  0  0  0
 13 17  1  0  0  0  0
 14 13  1  0  0  0  0
 15 13  1  0  0  0  0
 18  6  1  0  0  0  0
 18 19  1  0  0  0  0
 19 22  1  0  0  0  0
 19 21  1  0  0  0  0
 20 19  1  0  0  0  0
M  RAD  2  11   2  12   3
M  END
