Coordinates from ORCA-job p-CH3O-Ph-N2-X-BF4-B3LYPG-6-31G_dp-scan-d09-49-n400
 OpenBabel08281820543D

 22 20  0  0  0  0  0  0  0  0999 V2000
   -0.9213    0.4384    0.8969 C   0  0  0  0  0  0  0  0  0  0  0  0
    0.3682    0.5894    0.3900 C   0  0  0  0  0  0  0  0  0  0  0  0
    0.5278    1.6738   -0.5011 C   0  0  0  0  0  0  0  0  0  0  0  0
   -0.4988    2.5744   -0.8930 C   0  0  0  0  0  0  0  0  0  0  0  0
   -1.7468    2.3812   -0.3600 C   0  0  0  0  0  0  0  0  0  0  0  0
   -1.9682    1.3086    0.5457 C   0  0  0  0  0  0  0  0  0  0  0  0
   -1.1049   -0.3761    1.5892 H   0  0  0  0  0  0  0  0  0  0  0  0
    1.3287   -0.1807    0.7212 H   0  0  0  0  0  0  0  0  0  0  0  0
   -0.2979    3.3867   -1.5842 H   0  0  0  0  0  0  0  0  0  0  0  0
   -2.5778    3.0307   -0.6095 H   0  0  0  0  0  0  0  0  0  0  0  0
    1.7659    1.8790   -1.0441 N   0  0  0  0  0  0  0  0  0  0  0  0
    2.7735    2.0513   -1.4955 N   0  0  0  0  0  0  0  0  0  0  0  0
    3.4718   -0.1592    1.4769 B   0  0  0  0  0  0  0  0  0  0  0  0
    2.1823   -0.8776    1.0521 F   0  0  0  0  0  0  0  0  0  0  0  0
    3.4991   -0.1912    2.8417 F   0  0  0  0  0  0  0  0  0  0  0  0
    4.4945   -0.8234    0.8603 F   0  0  0  0  0  0  0  0  0  0  0  0
    3.2987    1.1379    0.9749 F   0  0  0  0  0  0  0  0  0  0  0  0
   -3.2249    1.2202    1.0052 O   0  0  0  0  0  0  0  0  0  0  0  0
   -3.5593    0.1864    1.9379 C   0  0  0  0  0  0  0  0  0  0  0  0
   -4.6157    0.3278    2.1636 H   0  0  0  0  0  0  0  0  0  0  0  0
   -2.9699    0.2799    2.8555 H   0  0  0  0  0  0  0  0  0  0  0  0
   -3.4051   -0.8043    1.4978 H   0  0  0  0  0  0  0  0  0  0  0  0
  1  7  1  0  0  0  0
  2  1  2  0  0  0  0
  3  2  1  0  0  0  0
  4  3  2  0  0  0  0
  4  5  1  0  0  0  0
  5  6  2  0  0  0  0
  6  1  1  0  0  0  0
  6 18  1  0  0  0  0
  8 14  1  0  0  0  0
  9  4  1  0  0  0  0
 10  5  1  0  0  0  0
 11  3  1  0  0  0  0
 12 11  1  0  0  0  0
 13 15  1  0  0  0  0
 16 13  1  0  0  0  0
 17 13  1  0  0  0  0
 18 19  1  0  0  0  0
 19 20  1  0  0  0  0
 19 21  1  0  0  0  0
 22 19  1  0  0  0  0
M  RAD  3   2   2  11   2  12   3
M  END
