Coordinates from ORCA-job p-CH3O-Ph-N2-X-BF4-B3LYPG-6-31G_dp-scan-d09-49-n400
 OpenBabel08281820543D

 22 21  0  0  0  0  0  0  0  0999 V2000
   -1.0069    0.7264    1.3387 C   0  0  0  0  0  0  0  0  0  0  0  0
    0.3256    0.9517    1.0358 C   0  0  0  0  0  0  0  0  0  0  0  0
    0.6170    1.6916   -0.1244 C   0  0  0  0  0  0  0  0  0  0  0  0
   -0.3842    2.2055   -0.9793 C   0  0  0  0  0  0  0  0  0  0  0  0
   -1.7002    1.9591   -0.6635 C   0  0  0  0  0  0  0  0  0  0  0  0
   -2.0245    1.2147    0.4963 C   0  0  0  0  0  0  0  0  0  0  0  0
   -1.2460    0.1601    2.2295 H   0  0  0  0  0  0  0  0  0  0  0  0
    1.1412    0.5832    1.6561 H   0  0  0  0  0  0  0  0  0  0  0  0
   -0.1148    2.7689   -1.8658 H   0  0  0  0  0  0  0  0  0  0  0  0
   -2.5070    2.3218   -1.2893 H   0  0  0  0  0  0  0  0  0  0  0  0
    1.9238    1.9535   -0.4510 N   0  0  0  0  0  0  0  0  0  0  0  0
    2.9702    2.2198   -0.7373 N   0  0  0  0  0  0  0  0  0  0  0  0
    3.5499   -0.2799    0.9651 B   0  0  0  0  0  0  0  0  0  0  0  0
    2.5155   -0.5021    0.0094 F   0  0  0  0  0  0  0  0  0  0  0  0
    4.2169   -1.4420    1.2557 F   0  0  0  0  0  0  0  0  0  0  0  0
    4.4131    0.7065    0.4294 F   0  0  0  0  0  0  0  0  0  0  0  0
    2.9304    0.2678    2.1276 F   0  0  0  0  0  0  0  0  0  0  0  0
   -3.3351    1.0312    0.7047 O   0  0  0  0  0  0  0  0  0  0  0  0
   -3.7686    0.2696    1.8378 C   0  0  0  0  0  0  0  0  0  0  0  0
   -4.8565    0.2532    1.7785 H   0  0  0  0  0  0  0  0  0  0  0  0
   -3.4582    0.7463    2.7735 H   0  0  0  0  0  0  0  0  0  0  0  0
   -3.3817   -0.7534    1.7940 H   0  0  0  0  0  0  0  0  0  0  0  0
  1  7  1  0  0  0  0
  2  1  1  0  0  0  0
  2  8  1  0  0  0  0
  3  2  2  0  0  0  0
  4  5  2  0  0  0  0
  4  3  1  0  0  0  0
  5  6  1  0  0  0  0
  6 18  1  0  0  0  0
  6  1  2  0  0  0  0
  9  4  1  0  0  0  0
 10  5  1  0  0  0  0
 11  3  1  0  0  0  0
 12 11  1  0  0  0  0
 13 15  1  0  0  0  0
 13 17  1  0  0  0  0
 14 13  1  0  0  0  0
 16 13  1  0  0  0  0
 18 19  1  0  0  0  0
 19 21  1  0  0  0  0
 20 19  1  0  0  0  0
 22 19  1  0  0  0  0
M  RAD  2  11   2  12   3
M  END
