Coordinates from ORCA-job p-CH3O-Ph-N2-X-BF4-B3LYPG-6-31G_dp-scan-d09-49-n400
 OpenBabel08281820543D

 22 21  0  0  0  0  0  0  0  0999 V2000
   -1.0516    0.3717    1.0007 C   0  0  0  0  0  0  0  0  0  0  0  0
    0.2601    0.4627    0.5652 C   0  0  0  0  0  0  0  0  0  0  0  0
    0.5808    1.4964   -0.3343 C   0  0  0  0  0  0  0  0  0  0  0  0
   -0.3715    2.4302   -0.8020 C   0  0  0  0  0  0  0  0  0  0  0  0
   -1.6656    2.3245   -0.3487 C   0  0  0  0  0  0  0  0  0  0  0  0
   -2.0179    1.2961    0.5585 C   0  0  0  0  0  0  0  0  0  0  0  0
   -1.3132   -0.4188    1.6925 H   0  0  0  0  0  0  0  0  0  0  0  0
    1.0330   -0.2316    0.8899 H   0  0  0  0  0  0  0  0  0  0  0  0
   -0.0806    3.2118   -1.4954 H   0  0  0  0  0  0  0  0  0  0  0  0
   -2.4343    3.0173   -0.6704 H   0  0  0  0  0  0  0  0  0  0  0  0
    1.8626    1.6073   -0.8093 N   0  0  0  0  0  0  0  0  0  0  0  0
    2.8909    1.6993   -1.2360 N   0  0  0  0  0  0  0  0  0  0  0  0
    3.6052   -0.0017    1.2742 B   0  0  0  0  0  0  0  0  0  0  0  0
    2.7171   -1.1035    1.1380 F   0  0  0  0  0  0  0  0  0  0  0  0
    4.5209   -0.2133    2.2727 F   0  0  0  0  0  0  0  0  0  0  0  0
    4.2373    0.2144    0.0217 F   0  0  0  0  0  0  0  0  0  0  0  0
    2.8033    1.1467    1.5458 F   0  0  0  0  0  0  0  0  0  0  0  0
   -3.3034    1.2881    0.9345 O   0  0  0  0  0  0  0  0  0  0  0  0
   -3.7617    0.2940    1.8582 C   0  0  0  0  0  0  0  0  0  0  0  0
   -4.8189    0.5063    2.0134 H   0  0  0  0  0  0  0  0  0  0  0  0
   -3.2274    0.3675    2.8108 H   0  0  0  0  0  0  0  0  0  0  0  0
   -3.6453   -0.7119    1.4414 H   0  0  0  0  0  0  0  0  0  0  0  0
  1  7  1  0  0  0  0
  2  8  1  0  0  0  0
  2  1  1  0  0  0  0
  3  2  2  0  0  0  0
  4  5  2  0  0  0  0
  4  3  1  0  0  0  0
  5  6  1  0  0  0  0
  6 18  1  0  0  0  0
  6  1  2  0  0  0  0
  9  4  1  0  0  0  0
 10  5  1  0  0  0  0
 11  3  1  0  0  0  0
 12 11  1  0  0  0  0
 13 17  1  0  0  0  0
 13 15  1  0  0  0  0
 14 13  1  0  0  0  0
 16 13  1  0  0  0  0
 18 19  1  0  0  0  0
 19 20  1  0  0  0  0
 19 21  1  0  0  0  0
 22 19  1  0  0  0  0
M  RAD  2  11   2  12   3
M  END
