Coordinates from ORCA-job p-CH3O-Ph-N2-X-BF4-B3LYPG-6-31G_dp-scan-d09-49-n400
 OpenBabel08281820543D

 22 21  0  0  0  0  0  0  0  0999 V2000
   -1.0125    0.7307    1.3494 C   0  0  0  0  0  0  0  0  0  0  0  0
    0.3212    0.9580    1.0539 C   0  0  0  0  0  0  0  0  0  0  0  0
    0.6187    1.6920   -0.1082 C   0  0  0  0  0  0  0  0  0  0  0  0
   -0.3782    2.1977   -0.9728 C   0  0  0  0  0  0  0  0  0  0  0  0
   -1.6957    1.9494   -0.6645 C   0  0  0  0  0  0  0  0  0  0  0  0
   -2.0259    1.2113    0.4975 C   0  0  0  0  0  0  0  0  0  0  0  0
   -1.2561    0.1688    2.2418 H   0  0  0  0  0  0  0  0  0  0  0  0
    1.1339    0.5957    1.6816 H   0  0  0  0  0  0  0  0  0  0  0  0
   -0.1045    2.7565   -1.8609 H   0  0  0  0  0  0  0  0  0  0  0  0
   -2.4991    2.3062   -1.2980 H   0  0  0  0  0  0  0  0  0  0  0  0
    1.9266    1.9577   -0.4280 N   0  0  0  0  0  0  0  0  0  0  0  0
    2.9715    2.2309   -0.7134 N   0  0  0  0  0  0  0  0  0  0  0  0
    3.5557   -0.2813    0.9419 B   0  0  0  0  0  0  0  0  0  0  0  0
    2.5236   -0.5067   -0.0140 F   0  0  0  0  0  0  0  0  0  0  0  0
    4.2119   -1.4445    1.2516 F   0  0  0  0  0  0  0  0  0  0  0  0
    4.4289    0.6921    0.3993 F   0  0  0  0  0  0  0  0  0  0  0  0
    2.9372    0.2879    2.0962 F   0  0  0  0  0  0  0  0  0  0  0  0
   -3.3374    1.0260    0.6987 O   0  0  0  0  0  0  0  0  0  0  0  0
   -3.7763    0.2708    1.8339 C   0  0  0  0  0  0  0  0  0  0  0  0
   -4.8638    0.2512    1.7678 H   0  0  0  0  0  0  0  0  0  0  0  0
   -3.4731    0.7544    2.7685 H   0  0  0  0  0  0  0  0  0  0  0  0
   -3.3867   -0.7515    1.7993 H   0  0  0  0  0  0  0  0  0  0  0  0
  1  7  1  0  0  0  0
  2  1  1  0  0  0  0
  2  8  1  0  0  0  0
  3  2  2  0  0  0  0
  4  5  2  0  0  0  0
  4  3  1  0  0  0  0
  5  6  1  0  0  0  0
  6 18  1  0  0  0  0
  6  1  2  0  0  0  0
  9  4  1  0  0  0  0
 10  5  1  0  0  0  0
 11  3  1  0  0  0  0
 12 11  1  0  0  0  0
 13 15  1  0  0  0  0
 13 17  1  0  0  0  0
 14 13  1  0  0  0  0
 16 13  1  0  0  0  0
 18 19  1  0  0  0  0
 19 21  1  0  0  0  0
 20 19  1  0  0  0  0
 22 19  1  0  0  0  0
M  RAD  2  11   2  12   3
M  END
