Coordinates from ORCA-job p-CH3O-Ph-N2-X-BF4-B3LYPG-6-31G_dp-scan-d09-49-n400
 OpenBabel08281820543D

 22 21  0  0  0  0  0  0  0  0999 V2000
   -1.0649    0.7871    1.4587 C   0  0  0  0  0  0  0  0  0  0  0  0
    0.2796    1.0302    1.2318 C   0  0  0  0  0  0  0  0  0  0  0  0
    0.6385    1.6891    0.0445 C   0  0  0  0  0  0  0  0  0  0  0  0
   -0.3119    2.1029   -0.9149 C   0  0  0  0  0  0  0  0  0  0  0  0
   -1.6414    1.8403   -0.6750 C   0  0  0  0  0  0  0  0  0  0  0  0
   -2.0317    1.1791    0.5127 C   0  0  0  0  0  0  0  0  0  0  0  0
   -1.3529    0.2801    2.3704 H   0  0  0  0  0  0  0  0  0  0  0  0
    1.0557    0.7215    1.9243 H   0  0  0  0  0  0  0  0  0  0  0  0
    0.0064    2.6046   -1.8218 H   0  0  0  0  0  0  0  0  0  0  0  0
   -2.4081    2.1291   -1.3843 H   0  0  0  0  0  0  0  0  0  0  0  0
    1.9541    1.9954   -0.2147 N   0  0  0  0  0  0  0  0  0  0  0  0
    2.9797    2.3429   -0.4830 N   0  0  0  0  0  0  0  0  0  0  0  0
    3.5983   -0.2908    0.7170 B   0  0  0  0  0  0  0  0  0  0  0  0
    2.6040   -0.5096   -0.2711 F   0  0  0  0  0  0  0  0  0  0  0  0
    4.1704   -1.4644    1.1341 F   0  0  0  0  0  0  0  0  0  0  0  0
    4.5455    0.6131    0.1865 F   0  0  0  0  0  0  0  0  0  0  0  0
    2.9586    0.3830    1.8147 F   0  0  0  0  0  0  0  0  0  0  0  0
   -3.3497    0.9737    0.6439 O   0  0  0  0  0  0  0  0  0  0  0  0
   -3.8436    0.2888    1.8004 C   0  0  0  0  0  0  0  0  0  0  0  0
   -4.9235    0.2329    1.6668 H   0  0  0  0  0  0  0  0  0  0  0  0
   -3.6150    0.8464    2.7150 H   0  0  0  0  0  0  0  0  0  0  0  0
   -3.4283   -0.7220    1.8652 H   0  0  0  0  0  0  0  0  0  0  0  0
  1  7  1  0  0  0  0
  2  1  1  0  0  0  0
  2  8  1  0  0  0  0
  3  2  2  0  0  0  0
  4  5  2  0  0  0  0
  4  3  1  0  0  0  0
  5  6  1  0  0  0  0
  6 18  1  0  0  0  0
  6  1  2  0  0  0  0
  9  4  1  0  0  0  0
 10  5  1  0  0  0  0
 11  3  1  0  0  0  0
 12 11  1  0  0  0  0
 13 15  1  0  0  0  0
 13 17  1  0  0  0  0
 14 13  1  0  0  0  0
 16 13  1  0  0  0  0
 18 19  1  0  0  0  0
 19 22  1  0  0  0  0
 19 21  1  0  0  0  0
 20 19  1  0  0  0  0
M  RAD  2  11   2  12   3
M  END
