Coordinates from ORCA-job p-CH3O-Ph-N2-X-BF4-B3LYPG-6-31G_dp-scan-d09-49-n400
 OpenBabel08281820543D

 22 21  0  0  0  0  0  0  0  0999 V2000
   -1.0839    0.9099    1.5723 C   0  0  0  0  0  0  0  0  0  0  0  0
    0.2599    1.2019    1.4077 C   0  0  0  0  0  0  0  0  0  0  0  0
    0.6724    1.7451    0.1807 C   0  0  0  0  0  0  0  0  0  0  0  0
   -0.2258    2.0042   -0.8762 C   0  0  0  0  0  0  0  0  0  0  0  0
   -1.5557    1.6974   -0.6962 C   0  0  0  0  0  0  0  0  0  0  0  0
   -1.9979    1.1426    0.5262 C   0  0  0  0  0  0  0  0  0  0  0  0
   -1.4112    0.4854    2.5124 H   0  0  0  0  0  0  0  0  0  0  0  0
    0.9899    0.9972    2.1793 H   0  0  0  0  0  0  0  0  0  0  0  0
    0.1335    2.4193   -1.8107 H   0  0  0  0  0  0  0  0  0  0  0  0
   -2.2819    1.8667   -1.4826 H   0  0  0  0  0  0  0  0  0  0  0  0
    1.9877    2.0926   -0.0244 N   0  0  0  0  0  0  0  0  0  0  0  0
    3.0093    2.4729   -0.2570 N   0  0  0  0  0  0  0  0  0  0  0  0
    3.5197   -0.3315    0.5064 B   0  0  0  0  0  0  0  0  0  0  0  0
    2.5794   -0.4056   -0.5506 F   0  0  0  0  0  0  0  0  0  0  0  0
    3.9990   -1.5686    0.8536 F   0  0  0  0  0  0  0  0  0  0  0  0
    4.5427    0.5582    0.1216 F   0  0  0  0  0  0  0  0  0  0  0  0
    2.8471    0.2793    1.6269 F   0  0  0  0  0  0  0  0  0  0  0  0
   -3.3098    0.8739    0.5902 O   0  0  0  0  0  0  0  0  0  0  0  0
   -3.8469    0.2675    1.7707 C   0  0  0  0  0  0  0  0  0  0  0  0
   -4.9092    0.1312    1.5708 H   0  0  0  0  0  0  0  0  0  0  0  0
   -3.7175    0.9190    2.6417 H   0  0  0  0  0  0  0  0  0  0  0  0
   -3.3810   -0.7051    1.9587 H   0  0  0  0  0  0  0  0  0  0  0  0
  1  7  1  0  0  0  0
  2  1  1  0  0  0  0
  2  8  1  0  0  0  0
  3  2  2  0  0  0  0
  4  5  2  0  0  0  0
  4  3  1  0  0  0  0
  5  6  1  0  0  0  0
  6 18  1  0  0  0  0
  6  1  2  0  0  0  0
  9  4  1  0  0  0  0
 10  5  1  0  0  0  0
 11  3  1  0  0  0  0
 12 11  1  0  0  0  0
 13 15  1  0  0  0  0
 13 17  1  0  0  0  0
 14 13  1  0  0  0  0
 16 13  1  0  0  0  0
 18 19  1  0  0  0  0
 19 22  1  0  0  0  0
 19 21  1  0  0  0  0
 20 19  1  0  0  0  0
M  RAD  2  11   2  12   3
M  END
