Coordinates from ORCA-job p-CH3O-Ph-N2-X-BF4-B3LYPG-6-31G_dp-scan-d09-49-n400
 OpenBabel08281820543D

 22 21  0  0  0  0  0  0  0  0999 V2000
   -1.0530    0.3717    1.0011 C   0  0  0  0  0  0  0  0  0  0  0  0
    0.2587    0.4623    0.5659 C   0  0  0  0  0  0  0  0  0  0  0  0
    0.5802    1.4957   -0.3335 C   0  0  0  0  0  0  0  0  0  0  0  0
   -0.3717    2.4299   -0.8014 C   0  0  0  0  0  0  0  0  0  0  0  0
   -1.6660    2.3247   -0.3485 C   0  0  0  0  0  0  0  0  0  0  0  0
   -2.0190    1.2964    0.5586 C   0  0  0  0  0  0  0  0  0  0  0  0
   -1.3151   -0.4187    1.6929 H   0  0  0  0  0  0  0  0  0  0  0  0
    1.0312   -0.2319    0.8906 H   0  0  0  0  0  0  0  0  0  0  0  0
   -0.0803    3.2115   -1.4946 H   0  0  0  0  0  0  0  0  0  0  0  0
   -2.4343    3.0177   -0.6705 H   0  0  0  0  0  0  0  0  0  0  0  0
    1.8622    1.6065   -0.8080 N   0  0  0  0  0  0  0  0  0  0  0  0
    2.8905    1.6989   -1.2348 N   0  0  0  0  0  0  0  0  0  0  0  0
    3.6087   -0.0021    1.2733 B   0  0  0  0  0  0  0  0  0  0  0  0
    2.7250   -1.1070    1.1385 F   0  0  0  0  0  0  0  0  0  0  0  0
    4.5259   -0.2103    2.2712 F   0  0  0  0  0  0  0  0  0  0  0  0
    4.2391    0.2161    0.0203 F   0  0  0  0  0  0  0  0  0  0  0  0
    2.8031    1.1444    1.5450 F   0  0  0  0  0  0  0  0  0  0  0  0
   -3.3045    1.2887    0.9341 O   0  0  0  0  0  0  0  0  0  0  0  0
   -3.7635    0.2947    1.8577 C   0  0  0  0  0  0  0  0  0  0  0  0
   -4.8206    0.5073    2.0124 H   0  0  0  0  0  0  0  0  0  0  0  0
   -3.2295    0.3681    2.8104 H   0  0  0  0  0  0  0  0  0  0  0  0
   -3.6472   -0.7112    1.4408 H   0  0  0  0  0  0  0  0  0  0  0  0
  1  7  1  0  0  0  0
  2  8  1  0  0  0  0
  2  1  1  0  0  0  0
  3  2  2  0  0  0  0
  4  5  2  0  0  0  0
  4  3  1  0  0  0  0
  5  6  1  0  0  0  0
  6 18  1  0  0  0  0
  6  1  2  0  0  0  0
  9  4  1  0  0  0  0
 10  5  1  0  0  0  0
 11  3  1  0  0  0  0
 12 11  1  0  0  0  0
 13 17  1  0  0  0  0
 13 15  1  0  0  0  0
 14 13  1  0  0  0  0
 16 13  1  0  0  0  0
 18 19  1  0  0  0  0
 19 20  1  0  0  0  0
 19 21  1  0  0  0  0
 22 19  1  0  0  0  0
M  RAD  2  11   2  12   3
M  END
