Coordinates from ORCA-job p-CH3O-Ph-N2-X-BF4-B3LYPG-6-31G_dp-scan-d09-49-n400
 OpenBabel08281820543D

 22 21  0  0  0  0  0  0  0  0999 V2000
   -1.1003    0.4078    1.0525 C   0  0  0  0  0  0  0  0  0  0  0  0
    0.2224    0.5037    0.6534 C   0  0  0  0  0  0  0  0  0  0  0  0
    0.5640    1.5107   -0.2668 C   0  0  0  0  0  0  0  0  0  0  0  0
   -0.3869    2.4169   -0.7894 C   0  0  0  0  0  0  0  0  0  0  0  0
   -1.6936    2.3100   -0.3728 C   0  0  0  0  0  0  0  0  0  0  0  0
   -2.0638    1.3053    0.5527 C   0  0  0  0  0  0  0  0  0  0  0  0
   -1.3725   -0.3645    1.7604 H   0  0  0  0  0  0  0  0  0  0  0  0
    0.9859   -0.1606    1.0334 H   0  0  0  0  0  0  0  0  0  0  0  0
   -0.0850    3.1797   -1.4988 H   0  0  0  0  0  0  0  0  0  0  0  0
   -2.4588    2.9839   -0.7397 H   0  0  0  0  0  0  0  0  0  0  0  0
    1.8548    1.6280   -0.7213 N   0  0  0  0  0  0  0  0  0  0  0  0
    2.8731    1.7524   -1.1643 N   0  0  0  0  0  0  0  0  0  0  0  0
    3.7467   -0.0725    1.2111 B   0  0  0  0  0  0  0  0  0  0  0  0
    3.0248   -1.2729    1.1008 F   0  0  0  0  0  0  0  0  0  0  0  0
    4.7350   -0.1462    2.1616 F   0  0  0  0  0  0  0  0  0  0  0  0
    4.2841    0.2584   -0.0664 F   0  0  0  0  0  0  0  0  0  0  0  0
    2.8133    0.9684    1.5388 F   0  0  0  0  0  0  0  0  0  0  0  0
   -3.3597    1.2917    0.8893 O   0  0  0  0  0  0  0  0  0  0  0  0
   -3.8359    0.3152    1.8229 C   0  0  0  0  0  0  0  0  0  0  0  0
   -4.9002    0.5174    1.9382 H   0  0  0  0  0  0  0  0  0  0  0  0
   -3.3342    0.4196    2.7903 H   0  0  0  0  0  0  0  0  0  0  0  0
   -3.6933   -0.6992    1.4357 H   0  0  0  0  0  0  0  0  0  0  0  0
  1  7  1  0  0  0  0
  2  8  1  0  0  0  0
  2  1  1  0  0  0  0
  3  2  2  0  0  0  0
  4  5  2  0  0  0  0
  4  3  1  0  0  0  0
  5  6  1  0  0  0  0
  6 18  1  0  0  0  0
  6  1  2  0  0  0  0
  9  4  1  0  0  0  0
 10  5  1  0  0  0  0
 11  3  1  0  0  0  0
 12 11  1  0  0  0  0
 13 17  1  0  0  0  0
 13 15  1  0  0  0  0
 14 13  1  0  0  0  0
 16 13  1  0  0  0  0
 18 19  1  0  0  0  0
 19 20  1  0  0  0  0
 19 21  1  0  0  0  0
 22 19  1  0  0  0  0
M  RAD  2  11   2  12   3
M  END
