Coordinates from ORCA-job p-CH3O-Ph-N2-X-BF4-B3LYPG-6-31G_dp-scan-d09-49-n400
 OpenBabel08281820543D

 22 21  0  0  0  0  0  0  0  0999 V2000
   -1.0059    0.7237    1.3334 C   0  0  0  0  0  0  0  0  0  0  0  0
    0.3260    0.9461    1.0260 C   0  0  0  0  0  0  0  0  0  0  0  0
    0.6149    1.6884   -0.1335 C   0  0  0  0  0  0  0  0  0  0  0  0
   -0.3882    2.2076   -0.9830 C   0  0  0  0  0  0  0  0  0  0  0  0
   -1.7035    1.9641   -0.6626 C   0  0  0  0  0  0  0  0  0  0  0  0
   -2.0254    1.2173    0.4963 C   0  0  0  0  0  0  0  0  0  0  0  0
   -1.2431    0.1551    2.2233 H   0  0  0  0  0  0  0  0  0  0  0  0
    1.1437    0.5714    1.6404 H   0  0  0  0  0  0  0  0  0  0  0  0
   -0.1207    2.7730   -1.8688 H   0  0  0  0  0  0  0  0  0  0  0  0
   -2.5118    2.3309   -1.2841 H   0  0  0  0  0  0  0  0  0  0  0  0
    1.9211    1.9481   -0.4634 N   0  0  0  0  0  0  0  0  0  0  0  0
    2.9687    2.2109   -0.7485 N   0  0  0  0  0  0  0  0  0  0  0  0
    3.5524   -0.2787    0.9753 B   0  0  0  0  0  0  0  0  0  0  0  0
    2.5278   -0.5049    0.0107 F   0  0  0  0  0  0  0  0  0  0  0  0
    4.2347   -1.4340    1.2573 F   0  0  0  0  0  0  0  0  0  0  0  0
    4.4041    0.7270    0.4568 F   0  0  0  0  0  0  0  0  0  0  0  0
    2.9181    0.2452    2.1404 F   0  0  0  0  0  0  0  0  0  0  0  0
   -3.3356    1.0366    0.7090 O   0  0  0  0  0  0  0  0  0  0  0  0
   -3.7671    0.2725    1.8411 C   0  0  0  0  0  0  0  0  0  0  0  0
   -4.8553    0.2593    1.7857 H   0  0  0  0  0  0  0  0  0  0  0  0
   -3.4518    0.7450    2.7772 H   0  0  0  0  0  0  0  0  0  0  0  0
   -3.3832   -0.7515    1.7924 H   0  0  0  0  0  0  0  0  0  0  0  0
  1  7  1  0  0  0  0
  2  1  1  0  0  0  0
  2  8  1  0  0  0  0
  3  2  2  0  0  0  0
  4  5  2  0  0  0  0
  4  3  1  0  0  0  0
  5  6  1  0  0  0  0
  6 18  1  0  0  0  0
  6  1  2  0  0  0  0
  9  4  1  0  0  0  0
 10  5  1  0  0  0  0
 11  3  1  0  0  0  0
 12 11  1  0  0  0  0
 13 15  1  0  0  0  0
 13 17  1  0  0  0  0
 14 13  1  0  0  0  0
 16 13  1  0  0  0  0
 18 19  1  0  0  0  0
 19 21  1  0  0  0  0
 20 19  1  0  0  0  0
 22 19  1  0  0  0  0
M  RAD  2  11   2  12   3
M  END
