Coordinates from ORCA-job p-CH3O-Ph-N2-X-BF4-B3LYPG-6-31G_dp-scan-d09-49-n400
 OpenBabel08281820543D

 22 21  0  0  0  0  0  0  0  0999 V2000
   -1.0022    0.3623    0.9588 C   0  0  0  0  0  0  0  0  0  0  0  0
    0.3030    0.4588    0.5025 C   0  0  0  0  0  0  0  0  0  0  0  0
    0.5933    1.5040   -0.3961 C   0  0  0  0  0  0  0  0  0  0  0  0
   -0.3693    2.4366   -0.8471 C   0  0  0  0  0  0  0  0  0  0  0  0
   -1.6540    2.3179   -0.3731 C   0  0  0  0  0  0  0  0  0  0  0  0
   -1.9809    1.2835    0.5391 C   0  0  0  0  0  0  0  0  0  0  0  0
   -1.2492   -0.4315    1.6528 H   0  0  0  0  0  0  0  0  0  0  0  0
    1.1137   -0.2362    0.8127 H   0  0  0  0  0  0  0  0  0  0  0  0
   -0.0944    3.2243   -1.5402 H   0  0  0  0  0  0  0  0  0  0  0  0
   -2.4342    3.0055   -0.6776 H   0  0  0  0  0  0  0  0  0  0  0  0
    1.8740    1.6258   -0.8664 N   0  0  0  0  0  0  0  0  0  0  0  0
    2.9171    1.7014   -1.2588 N   0  0  0  0  0  0  0  0  0  0  0  0
    3.4782    0.0237    1.3497 B   0  0  0  0  0  0  0  0  0  0  0  0
    2.4500   -0.9811    1.2141 F   0  0  0  0  0  0  0  0  0  0  0  0
    4.3204   -0.2896    2.3817 F   0  0  0  0  0  0  0  0  0  0  0  0
    4.1511    0.1113    0.1126 F   0  0  0  0  0  0  0  0  0  0  0  0
    2.8051    1.2526    1.5681 F   0  0  0  0  0  0  0  0  0  0  0  0
   -3.2587    1.2703    0.9417 O   0  0  0  0  0  0  0  0  0  0  0  0
   -3.6895    0.2824    1.8848 C   0  0  0  0  0  0  0  0  0  0  0  0
   -4.7431    0.4924    2.0656 H   0  0  0  0  0  0  0  0  0  0  0  0
   -3.1307    0.3658    2.8224 H   0  0  0  0  0  0  0  0  0  0  0  0
   -3.5800   -0.7267    1.4741 H   0  0  0  0  0  0  0  0  0  0  0  0
  1  7  1  0  0  0  0
  2  8  1  0  0  0  0
  2  1  2  0  0  0  0
  3  2  1  0  0  0  0
  4  3  2  0  0  0  0
  4  5  1  0  0  0  0
  5  6  2  0  0  0  0
  6 18  1  0  0  0  0
  6  1  1  0  0  0  0
  9  4  1  0  0  0  0
 10  5  1  0  0  0  0
 11  3  1  0  0  0  0
 12 11  1  0  0  0  0
 13 17  1  0  0  0  0
 13 15  1  0  0  0  0
 14 13  1  0  0  0  0
 16 13  1  0  0  0  0
 18 19  1  0  0  0  0
 19 20  1  0  0  0  0
 19 21  1  0  0  0  0
 22 19  1  0  0  0  0
M  RAD  2  11   2  12   3
M  END
