Coordinates from ORCA-job p-CH3O-Ph-N2-X-BF4-B3LYPG-6-31G_dp-scan-d09-49-n400
 OpenBabel08281820543D

 22 21  0  0  0  0  0  0  0  0999 V2000
   -0.9739    0.4057    0.9879 C   0  0  0  0  0  0  0  0  0  0  0  0
    0.3390    0.5196    0.5483 C   0  0  0  0  0  0  0  0  0  0  0  0
    0.5964    1.5566   -0.3727 C   0  0  0  0  0  0  0  0  0  0  0  0
   -0.3848    2.4574   -0.8545 C   0  0  0  0  0  0  0  0  0  0  0  0
   -1.6696    2.3131   -0.3919 C   0  0  0  0  0  0  0  0  0  0  0  0
   -1.9754    1.2849    0.5363 C   0  0  0  0  0  0  0  0  0  0  0  0
   -1.2114   -0.3763    1.6994 H   0  0  0  0  0  0  0  0  0  0  0  0
    1.2006   -0.1728    0.9155 H   0  0  0  0  0  0  0  0  0  0  0  0
   -0.1238    3.2367   -1.5626 H   0  0  0  0  0  0  0  0  0  0  0  0
   -2.4663    2.9713   -0.7180 H   0  0  0  0  0  0  0  0  0  0  0  0
    1.8724    1.7000   -0.8491 N   0  0  0  0  0  0  0  0  0  0  0  0
    2.9139    1.7903   -1.2418 N   0  0  0  0  0  0  0  0  0  0  0  0
    3.4641   -0.0162    1.3281 B   0  0  0  0  0  0  0  0  0  0  0  0
    2.2654   -0.8757    1.3285 F   0  0  0  0  0  0  0  0  0  0  0  0
    4.3218   -0.4391    2.3015 F   0  0  0  0  0  0  0  0  0  0  0  0
    4.0066   -0.0902    0.0387 F   0  0  0  0  0  0  0  0  0  0  0  0
    2.9819    1.2874    1.5491 F   0  0  0  0  0  0  0  0  0  0  0  0
   -3.2592    1.2398    0.9202 O   0  0  0  0  0  0  0  0  0  0  0  0
   -3.6757    0.2463    1.8630 C   0  0  0  0  0  0  0  0  0  0  0  0
   -4.7396    0.4210    2.0201 H   0  0  0  0  0  0  0  0  0  0  0  0
   -3.1402    0.3558    2.8115 H   0  0  0  0  0  0  0  0  0  0  0  0
   -3.5223   -0.7620    1.4643 H   0  0  0  0  0  0  0  0  0  0  0  0
  1  7  1  0  0  0  0
  2  8  1  0  0  0  0
  2  1  1  0  0  0  0
  3  2  2  0  0  0  0
  4  5  2  0  0  0  0
  4  3  1  0  0  0  0
  5  6  1  0  0  0  0
  6 18  1  0  0  0  0
  6  1  2  0  0  0  0
  9  4  1  0  0  0  0
 10  5  1  0  0  0  0
 11  3  1  0  0  0  0
 12 11  1  0  0  0  0
 13 14  1  0  0  0  0
 13 17  1  0  0  0  0
 13 15  1  0  0  0  0
 16 13  1  0  0  0  0
 18 19  1  0  0  0  0
 19 20  1  0  0  0  0
 19 21  1  0  0  0  0
 22 19  1  0  0  0  0
M  RAD  2  11   2  12   3
M  END
