Coordinates from ORCA-job p-CH3O-Ph-N2-X-BF4-B3LYPG-6-31G_dp-scan-d09-49-n400
 OpenBabel08281820543D

 22 21  0  0  0  0  0  0  0  0999 V2000
   -0.9749    0.4049    0.9882 C   0  0  0  0  0  0  0  0  0  0  0  0
    0.3377    0.5182    0.5482 C   0  0  0  0  0  0  0  0  0  0  0  0
    0.5965    1.5549   -0.3726 C   0  0  0  0  0  0  0  0  0  0  0  0
   -0.3839    2.4568   -0.8534 C   0  0  0  0  0  0  0  0  0  0  0  0
   -1.6687    2.3138   -0.3904 C   0  0  0  0  0  0  0  0  0  0  0  0
   -1.9755    1.2854    0.5372 C   0  0  0  0  0  0  0  0  0  0  0  0
   -1.2127   -0.3775    1.6992 H   0  0  0  0  0  0  0  0  0  0  0  0
    1.1964   -0.1733    0.9127 H   0  0  0  0  0  0  0  0  0  0  0  0
   -0.1223    3.2363   -1.5612 H   0  0  0  0  0  0  0  0  0  0  0  0
   -2.4648    2.9729   -0.7160 H   0  0  0  0  0  0  0  0  0  0  0  0
    1.8726    1.6964   -0.8495 N   0  0  0  0  0  0  0  0  0  0  0  0
    2.9139    1.7852   -1.2431 N   0  0  0  0  0  0  0  0  0  0  0  0
    3.4650   -0.0150    1.3279 B   0  0  0  0  0  0  0  0  0  0  0  0
    2.2716   -0.8791    1.3266 F   0  0  0  0  0  0  0  0  0  0  0  0
    4.3233   -0.4314    2.3037 F   0  0  0  0  0  0  0  0  0  0  0  0
    4.0116   -0.0868    0.0398 F   0  0  0  0  0  0  0  0  0  0  0  0
    2.9769    1.2876    1.5464 F   0  0  0  0  0  0  0  0  0  0  0  0
   -3.2593    1.2412    0.9211 O   0  0  0  0  0  0  0  0  0  0  0  0
   -3.6769    0.2469    1.8628 C   0  0  0  0  0  0  0  0  0  0  0  0
   -4.7408    0.4221    2.0195 H   0  0  0  0  0  0  0  0  0  0  0  0
   -3.1417    0.3550    2.8116 H   0  0  0  0  0  0  0  0  0  0  0  0
   -3.5240   -0.7611    1.4629 H   0  0  0  0  0  0  0  0  0  0  0  0
  1  7  1  0  0  0  0
  2  8  1  0  0  0  0
  2  1  1  0  0  0  0
  3  2  2  0  0  0  0
  4  5  2  0  0  0  0
  4  3  1  0  0  0  0
  5  6  1  0  0  0  0
  6 18  1  0  0  0  0
  6  1  2  0  0  0  0
  9  4  1  0  0  0  0
 10  5  1  0  0  0  0
 11  3  1  0  0  0  0
 12 11  1  0  0  0  0
 13 17  1  0  0  0  0
 13 15  1  0  0  0  0
 14 13  1  0  0  0  0
 16 13  1  0  0  0  0
 18 19  1  0  0  0  0
 19 20  1  0  0  0  0
 19 21  1  0  0  0  0
 22 19  1  0  0  0  0
M  RAD  2  11   2  12   3
M  END
