Coordinates from ORCA-job p-CH3O-Ph-N2-X-BF4-B3LYPG-6-31G_dp-scan-d09-49-n400
 OpenBabel08281820543D

 22 21  0  0  0  0  0  0  0  0999 V2000
   -1.0346    0.7481    1.3898 C   0  0  0  0  0  0  0  0  0  0  0  0
    0.3037    0.9802    1.1202 C   0  0  0  0  0  0  0  0  0  0  0  0
    0.6244    1.6888   -0.0505 C   0  0  0  0  0  0  0  0  0  0  0  0
   -0.3555    2.1643   -0.9504 C   0  0  0  0  0  0  0  0  0  0  0  0
   -1.6783    1.9115   -0.6682 C   0  0  0  0  0  0  0  0  0  0  0  0
   -2.0312    1.1998    0.5029 C   0  0  0  0  0  0  0  0  0  0  0  0
   -1.2950    0.2045    2.2887 H   0  0  0  0  0  0  0  0  0  0  0  0
    1.1047    0.6380    1.7714 H   0  0  0  0  0  0  0  0  0  0  0  0
   -0.0651    2.7040   -1.8449 H   0  0  0  0  0  0  0  0  0  0  0  0
   -2.4685    2.2457   -1.3299 H   0  0  0  0  0  0  0  0  0  0  0  0
    1.9366    1.9696   -0.3448 N   0  0  0  0  0  0  0  0  0  0  0  0
    2.9745    2.2702   -0.6262 N   0  0  0  0  0  0  0  0  0  0  0  0
    3.5793   -0.2845    0.8575 B   0  0  0  0  0  0  0  0  0  0  0  0
    2.5621   -0.5170   -0.1087 F   0  0  0  0  0  0  0  0  0  0  0  0
    4.2047   -1.4491    1.2198 F   0  0  0  0  0  0  0  0  0  0  0  0
    4.4811    0.6574    0.3080 F   0  0  0  0  0  0  0  0  0  0  0  0
    2.9557    0.3387    1.9865 F   0  0  0  0  0  0  0  0  0  0  0  0
   -3.3459    1.0088    0.6778 O   0  0  0  0  0  0  0  0  0  0  0  0
   -3.8056    0.2787    1.8210 C   0  0  0  0  0  0  0  0  0  0  0  0
   -4.8911    0.2491    1.7304 H   0  0  0  0  0  0  0  0  0  0  0  0
   -3.5279    0.7877    2.7501 H   0  0  0  0  0  0  0  0  0  0  0  0
   -3.4082   -0.7412    1.8209 H   0  0  0  0  0  0  0  0  0  0  0  0
  1  7  1  0  0  0  0
  2  1  1  0  0  0  0
  2  8  1  0  0  0  0
  3  2  2  0  0  0  0
  4  5  2  0  0  0  0
  4  3  1  0  0  0  0
  5  6  1  0  0  0  0
  6 18  1  0  0  0  0
  6  1  2  0  0  0  0
  9  4  1  0  0  0  0
 10  5  1  0  0  0  0
 11  3  1  0  0  0  0
 12 11  1  0  0  0  0
 13 15  1  0  0  0  0
 13 17  1  0  0  0  0
 14 13  1  0  0  0  0
 16 13  1  0  0  0  0
 18 19  1  0  0  0  0
 19 21  1  0  0  0  0
 20 19  1  0  0  0  0
 22 19  1  0  0  0  0
M  RAD  2  11   2  12   3
M  END
