Coordinates from ORCA-job p-CH3O-Ph-N2-X-BF4-B3LYPG-6-31G_dp-scan-d09-49-n400
 OpenBabel08281820543D

 22 21  0  0  0  0  0  0  0  0999 V2000
   -1.0577    0.7748    1.4411 C   0  0  0  0  0  0  0  0  0  0  0  0
    0.2855    1.0154    1.2044 C   0  0  0  0  0  0  0  0  0  0  0  0
    0.6351    1.6885    0.0222 C   0  0  0  0  0  0  0  0  0  0  0  0
   -0.3226    2.1187   -0.9229 C   0  0  0  0  0  0  0  0  0  0  0  0
   -1.6506    1.8582   -0.6734 C   0  0  0  0  0  0  0  0  0  0  0  0
   -2.0320    1.1833    0.5099 C   0  0  0  0  0  0  0  0  0  0  0  0
   -1.3390    0.2576    2.3492 H   0  0  0  0  0  0  0  0  0  0  0  0
    1.0680    0.6985    1.8867 H   0  0  0  0  0  0  0  0  0  0  0  0
   -0.0110    2.6308   -1.8263 H   0  0  0  0  0  0  0  0  0  0  0  0
   -2.4232    2.1592   -1.3711 H   0  0  0  0  0  0  0  0  0  0  0  0
    1.9502    1.9890   -0.2445 N   0  0  0  0  0  0  0  0  0  0  0  0
    2.9786    2.3261   -0.5162 N   0  0  0  0  0  0  0  0  0  0  0  0
    3.5946   -0.2883    0.7508 B   0  0  0  0  0  0  0  0  0  0  0  0
    2.5920   -0.5129   -0.2287 F   0  0  0  0  0  0  0  0  0  0  0  0
    4.1765   -1.4592    1.1617 F   0  0  0  0  0  0  0  0  0  0  0  0
    4.5331    0.6184    0.2087 F   0  0  0  0  0  0  0  0  0  0  0  0
    2.9620    0.3829    1.8526 F   0  0  0  0  0  0  0  0  0  0  0  0
   -3.3495    0.9824    0.6517 O   0  0  0  0  0  0  0  0  0  0  0  0
   -3.8351    0.2866    1.8053 C   0  0  0  0  0  0  0  0  0  0  0  0
   -4.9168    0.2387    1.6827 H   0  0  0  0  0  0  0  0  0  0  0  0
   -3.5933    0.8320    2.7239 H   0  0  0  0  0  0  0  0  0  0  0  0
   -3.4251   -0.7272    1.8538 H   0  0  0  0  0  0  0  0  0  0  0  0
  1  7  1  0  0  0  0
  2  1  1  0  0  0  0
  2  8  1  0  0  0  0
  3  2  2  0  0  0  0
  4  5  2  0  0  0  0
  4  3  1  0  0  0  0
  5  6  1  0  0  0  0
  6 18  1  0  0  0  0
  6  1  2  0  0  0  0
  9  4  1  0  0  0  0
 10  5  1  0  0  0  0
 11  3  1  0  0  0  0
 12 11  1  0  0  0  0
 13 15  1  0  0  0  0
 13 17  1  0  0  0  0
 14 13  1  0  0  0  0
 16 13  1  0  0  0  0
 18 19  1  0  0  0  0
 19 22  1  0  0  0  0
 19 21  1  0  0  0  0
 20 19  1  0  0  0  0
M  RAD  2  11   2  12   3
M  END
