Coordinates from ORCA-job p-CH3O-Ph-N2-X-BF4-B3LYPG-6-31G_dp-scan-d09-49-n400
 OpenBabel08281820543D

 22 21  0  0  0  0  0  0  0  0999 V2000
   -1.0862    0.9368    1.5977 C   0  0  0  0  0  0  0  0  0  0  0  0
    0.2551    1.2469    1.4476 C   0  0  0  0  0  0  0  0  0  0  0  0
    0.6824    1.7558    0.2116 C   0  0  0  0  0  0  0  0  0  0  0  0
   -0.1952    1.9541   -0.8742 C   0  0  0  0  0  0  0  0  0  0  0  0
   -1.5226    1.6276   -0.7096 C   0  0  0  0  0  0  0  0  0  0  0  0
   -1.9818    1.1163    0.5255 C   0  0  0  0  0  0  0  0  0  0  0  0
   -1.4251    0.5396    2.5455 H   0  0  0  0  0  0  0  0  0  0  0  0
    0.9731    1.0781    2.2383 H   0  0  0  0  0  0  0  0  0  0  0  0
    0.1774    2.3373   -1.8170 H   0  0  0  0  0  0  0  0  0  0  0  0
   -2.2345    1.7497   -1.5175 H   0  0  0  0  0  0  0  0  0  0  0  0
    1.9937    2.1314    0.0380 N   0  0  0  0  0  0  0  0  0  0  0  0
    3.0180    2.5231   -0.1608 N   0  0  0  0  0  0  0  0  0  0  0  0
    3.4855   -0.3329    0.4440 B   0  0  0  0  0  0  0  0  0  0  0  0
    2.5860   -0.3040   -0.6517 F   0  0  0  0  0  0  0  0  0  0  0  0
    3.9527   -1.5992    0.6877 F   0  0  0  0  0  0  0  0  0  0  0  0
    4.5233    0.5852    0.1821 F   0  0  0  0  0  0  0  0  0  0  0  0
    2.7701    0.1706    1.5873 F   0  0  0  0  0  0  0  0  0  0  0  0
   -3.2915    0.8332    0.5758 O   0  0  0  0  0  0  0  0  0  0  0  0
   -3.8454    0.2805    1.7747 C   0  0  0  0  0  0  0  0  0  0  0  0
   -4.9037    0.1303    1.5648 H   0  0  0  0  0  0  0  0  0  0  0  0
   -3.7321    0.9729    2.6159 H   0  0  0  0  0  0  0  0  0  0  0  0
   -3.3791   -0.6800    2.0159 H   0  0  0  0  0  0  0  0  0  0  0  0
  1  7  1  0  0  0  0
  2  1  1  0  0  0  0
  2  8  1  0  0  0  0
  3  2  2  0  0  0  0
  4  5  2  0  0  0  0
  4  3  1  0  0  0  0
  5  6  1  0  0  0  0
  6 18  1  0  0  0  0
  6  1  2  0  0  0  0
  9  4  1  0  0  0  0
 10  5  1  0  0  0  0
 11  3  1  0  0  0  0
 12 11  1  0  0  0  0
 13 15  1  0  0  0  0
 13 17  1  0  0  0  0
 14 13  1  0  0  0  0
 16 13  1  0  0  0  0
 18 19  1  0  0  0  0
 19 22  1  0  0  0  0
 19 21  1  0  0  0  0
 20 19  1  0  0  0  0
M  RAD  2  11   2  12   3
M  END
