Coordinates from ORCA-job p-CH3O-Ph-N2-X-BF4-B3LYPG-6-31G_dp-scan-d09-49-n400
 OpenBabel08281820543D

 22 21  0  0  0  0  0  0  0  0999 V2000
   -1.0704    0.8060    1.4799 C   0  0  0  0  0  0  0  0  0  0  0  0
    0.2748    1.0559    1.2648 C   0  0  0  0  0  0  0  0  0  0  0  0
    0.6434    1.6962    0.0705 C   0  0  0  0  0  0  0  0  0  0  0  0
   -0.2985    2.0862   -0.9068 C   0  0  0  0  0  0  0  0  0  0  0  0
   -1.6288    1.8177   -0.6783 C   0  0  0  0  0  0  0  0  0  0  0  0
   -2.0286    1.1736    0.5154 C   0  0  0  0  0  0  0  0  0  0  0  0
   -1.3655    0.3122    2.3965 H   0  0  0  0  0  0  0  0  0  0  0  0
    1.0437    0.7618    1.9707 H   0  0  0  0  0  0  0  0  0  0  0  0
    0.0271    2.5743   -1.8184 H   0  0  0  0  0  0  0  0  0  0  0  0
   -2.3889    2.0883   -1.4018 H   0  0  0  0  0  0  0  0  0  0  0  0
    1.9594    2.0099   -0.1794 N   0  0  0  0  0  0  0  0  0  0  0  0
    2.9828    2.3662   -0.4436 N   0  0  0  0  0  0  0  0  0  0  0  0
    3.5937   -0.2979    0.6786 B   0  0  0  0  0  0  0  0  0  0  0  0
    2.6053   -0.5026   -0.3177 F   0  0  0  0  0  0  0  0  0  0  0  0
    4.1524   -1.4786    1.0943 F   0  0  0  0  0  0  0  0  0  0  0  0
    4.5515    0.6017    0.1622 F   0  0  0  0  0  0  0  0  0  0  0  0
    2.9510    0.3751    1.7769 F   0  0  0  0  0  0  0  0  0  0  0  0
   -3.3465    0.9590    0.6336 O   0  0  0  0  0  0  0  0  0  0  0  0
   -3.8488    0.2871    1.7941 C   0  0  0  0  0  0  0  0  0  0  0  0
   -4.9262    0.2178    1.6470 H   0  0  0  0  0  0  0  0  0  0  0  0
   -3.6385    0.8615    2.7028 H   0  0  0  0  0  0  0  0  0  0  0  0
   -3.4243   -0.7182    1.8804 H   0  0  0  0  0  0  0  0  0  0  0  0
  1  7  1  0  0  0  0
  2  1  1  0  0  0  0
  2  8  1  0  0  0  0
  3  2  2  0  0  0  0
  4  5  2  0  0  0  0
  4  3  1  0  0  0  0
  5  6  1  0  0  0  0
  6 18  1  0  0  0  0
  6  1  2  0  0  0  0
  9  4  1  0  0  0  0
 10  5  1  0  0  0  0
 11  3  1  0  0  0  0
 12 11  1  0  0  0  0
 13 15  1  0  0  0  0
 13 17  1  0  0  0  0
 14 13  1  0  0  0  0
 16 13  1  0  0  0  0
 18 19  1  0  0  0  0
 19 22  1  0  0  0  0
 19 21  1  0  0  0  0
 20 19  1  0  0  0  0
M  RAD  2  11   2  12   3
M  END
