Coordinates from ORCA-job p-CH3O-Ph-N2-X-BF4-B3LYPG-6-31G_dp-scan-d09-49-n400
 OpenBabel08281820543D

 22 21  0  0  0  0  0  0  0  0999 V2000
   -1.0992    0.4069    1.0513 C   0  0  0  0  0  0  0  0  0  0  0  0
    0.2232    0.5026    0.6512 C   0  0  0  0  0  0  0  0  0  0  0  0
    0.5645    1.5103   -0.2684 C   0  0  0  0  0  0  0  0  0  0  0  0
   -0.3862    2.4179   -0.7888 C   0  0  0  0  0  0  0  0  0  0  0  0
   -1.6926    2.3114   -0.3710 C   0  0  0  0  0  0  0  0  0  0  0  0
   -2.0626    1.3056    0.5534 C   0  0  0  0  0  0  0  0  0  0  0  0
   -1.3713   -0.3661    1.7584 H   0  0  0  0  0  0  0  0  0  0  0  0
    0.9862   -0.1631    1.0296 H   0  0  0  0  0  0  0  0  0  0  0  0
   -0.0845    3.1814   -1.4976 H   0  0  0  0  0  0  0  0  0  0  0  0
   -2.4577    2.9862   -0.7363 H   0  0  0  0  0  0  0  0  0  0  0  0
    1.8549    1.6268   -0.7239 N   0  0  0  0  0  0  0  0  0  0  0  0
    2.8732    1.7489   -1.1674 N   0  0  0  0  0  0  0  0  0  0  0  0
    3.7436   -0.0703    1.2128 B   0  0  0  0  0  0  0  0  0  0  0  0
    3.0170   -1.2688    1.1075 F   0  0  0  0  0  0  0  0  0  0  0  0
    4.7325   -0.1440    2.1626 F   0  0  0  0  0  0  0  0  0  0  0  0
    4.2813    0.2537   -0.0662 F   0  0  0  0  0  0  0  0  0  0  0  0
    2.8135    0.9742    1.5374 F   0  0  0  0  0  0  0  0  0  0  0  0
   -3.3583    1.2922    0.8909 O   0  0  0  0  0  0  0  0  0  0  0  0
   -3.8344    0.3141    1.8229 C   0  0  0  0  0  0  0  0  0  0  0  0
   -4.8985    0.5165    1.9391 H   0  0  0  0  0  0  0  0  0  0  0  0
   -3.3322    0.4166    2.7902 H   0  0  0  0  0  0  0  0  0  0  0  0
   -3.6924   -0.6996    1.4338 H   0  0  0  0  0  0  0  0  0  0  0  0
  1  7  1  0  0  0  0
  2  8  1  0  0  0  0
  2  1  1  0  0  0  0
  3  2  2  0  0  0  0
  4  5  2  0  0  0  0
  4  3  1  0  0  0  0
  5  6  1  0  0  0  0
  6 18  1  0  0  0  0
  6  1  2  0  0  0  0
  9  4  1  0  0  0  0
 10  5  1  0  0  0  0
 11  3  1  0  0  0  0
 12 11  1  0  0  0  0
 13 17  1  0  0  0  0
 13 15  1  0  0  0  0
 14 13  1  0  0  0  0
 16 13  1  0  0  0  0
 18 19  1  0  0  0  0
 19 20  1  0  0  0  0
 19 21  1  0  0  0  0
 22 19  1  0  0  0  0
M  RAD  2  11   2  12   3
M  END
