Coordinates from ORCA-job p-CH3O-Ph-N2-X-BF4-B3LYPG-6-31G_dp-scan-d09-49-n400
 OpenBabel08281820543D

 22 21  0  0  0  0  0  0  0  0999 V2000
   -1.4528    1.4902    1.9123 C   0  0  0  0  0  0  0  0  0  0  0  0
   -0.0980    1.7139    2.0746 C   0  0  0  0  0  0  0  0  0  0  0  0
    0.8001    1.0973    1.1818 C   0  0  0  0  0  0  0  0  0  0  0  0
    0.3796    0.2391    0.1428 C   0  0  0  0  0  0  0  0  0  0  0  0
   -0.9753    0.0250    0.0068 C   0  0  0  0  0  0  0  0  0  0  0  0
   -1.9010    0.6474    0.8709 C   0  0  0  0  0  0  0  0  0  0  0  0
   -2.1518    1.9656    2.5876 H   0  0  0  0  0  0  0  0  0  0  0  0
    0.2615    2.3542    2.8745 H   0  0  0  0  0  0  0  0  0  0  0  0
    1.1311   -0.2241   -0.4896 H   0  0  0  0  0  0  0  0  0  0  0  0
   -1.3565   -0.6235   -0.7741 H   0  0  0  0  0  0  0  0  0  0  0  0
    2.1385    1.3468    1.3645 N   0  0  0  0  0  0  0  0  0  0  0  0
    3.2093    1.5828    1.5794 N   0  0  0  0  0  0  0  0  0  0  0  0
    3.5548    0.5515   -1.2317 B   0  0  0  0  0  0  0  0  0  0  0  0
    2.4959    1.4977   -1.2862 F   0  0  0  0  0  0  0  0  0  0  0  0
    4.1030    0.3324   -2.4691 F   0  0  0  0  0  0  0  0  0  0  0  0
    4.5138    1.0351   -0.3069 F   0  0  0  0  0  0  0  0  0  0  0  0
    3.0005   -0.6463   -0.6863 F   0  0  0  0  0  0  0  0  0  0  0  0
   -3.1906    0.3733    0.6303 O   0  0  0  0  0  0  0  0  0  0  0  0
   -4.2063    0.9692    1.4413 C   0  0  0  0  0  0  0  0  0  0  0  0
   -5.1510    0.6048    1.0401 H   0  0  0  0  0  0  0  0  0  0  0  0
   -4.1754    2.0621    1.3713 H   0  0  0  0  0  0  0  0  0  0  0  0
   -4.1094    0.6589    2.4873 H   0  0  0  0  0  0  0  0  0  0  0  0
  1  2  1  0  0  0  0
  1  7  1  0  0  0  0
  2  8  1  0  0  0  0
  3 11  1  0  0  0  0
  3  2  2  0  0  0  0
  4  3  1  0  0  0  0
  5  4  2  0  0  0  0
  5  6  1  0  0  0  0
  6  1  2  0  0  0  0
  9  4  1  0  0  0  0
 10  5  1  0  0  0  0
 11 12  1  0  0  0  0
 13 17  1  0  0  0  0
 13 16  1  0  0  0  0
 14 13  1  0  0  0  0
 15 13  1  0  0  0  0
 18  6  1  0  0  0  0
 18 19  1  0  0  0  0
 19 22  1  0  0  0  0
 20 19  1  0  0  0  0
 21 19  1  0  0  0  0
M  RAD  2  11   2  12   3
M  END
