Coordinates from ORCA-job p-CH3O-Ph-N2-X-BF4-B3LYPG-6-31G_dp-scan-d09-49-n400
 OpenBabel08281820543D

 22 21  0  0  0  0  0  0  0  0999 V2000
   -1.1010    1.0898    1.7111 C   0  0  0  0  0  0  0  0  0  0  0  0
    0.2248    1.4772    1.6261 C   0  0  0  0  0  0  0  0  0  0  0  0
    0.7314    1.8427    0.3712 C   0  0  0  0  0  0  0  0  0  0  0  0
   -0.0304    1.7763   -0.8098 C   0  0  0  0  0  0  0  0  0  0  0  0
   -1.3466    1.3848   -0.7086 C   0  0  0  0  0  0  0  0  0  0  0  0
   -1.8954    1.0419    0.5477 C   0  0  0  0  0  0  0  0  0  0  0  0
   -1.5024    0.7999    2.6732 H   0  0  0  0  0  0  0  0  0  0  0  0
    0.8745    1.4675    2.4915 H   0  0  0  0  0  0  0  0  0  0  0  0
    0.4259    2.0005   -1.7656 H   0  0  0  0  0  0  0  0  0  0  0  0
   -1.9775    1.3089   -1.5865 H   0  0  0  0  0  0  0  0  0  0  0  0
    2.0381    2.2548    0.2817 N   0  0  0  0  0  0  0  0  0  0  0  0
    3.0729    2.6591    0.2026 N   0  0  0  0  0  0  0  0  0  0  0  0
    3.2823   -0.3294    0.1756 B   0  0  0  0  0  0  0  0  0  0  0  0
    2.4428    0.0362   -0.9195 F   0  0  0  0  0  0  0  0  0  0  0  0
    3.5974   -1.6643    0.1376 F   0  0  0  0  0  0  0  0  0  0  0  0
    4.4201    0.4988    0.1389 F   0  0  0  0  0  0  0  0  0  0  0  0
    2.5629   -0.0078    1.3739 F   0  0  0  0  0  0  0  0  0  0  0  0
   -3.1845    0.6722    0.5270 O   0  0  0  0  0  0  0  0  0  0  0  0
   -3.8195    0.2654    1.7427 C   0  0  0  0  0  0  0  0  0  0  0  0
   -4.8410    0.0075    1.4666 H   0  0  0  0  0  0  0  0  0  0  0  0
   -3.8320    1.0824    2.4728 H   0  0  0  0  0  0  0  0  0  0  0  0
   -3.3229   -0.6112    2.1712 H   0  0  0  0  0  0  0  0  0  0  0  0
  1  7  1  0  0  0  0
  2  1  1  0  0  0  0
  2  8  1  0  0  0  0
  3  2  2  0  0  0  0
  4  5  2  0  0  0  0
  4  3  1  0  0  0  0
  5  6  1  0  0  0  0
  6  1  2  0  0  0  0
  9  4  1  0  0  0  0
 10  5  1  0  0  0  0
 11  3  1  0  0  0  0
 12 11  1  0  0  0  0
 13 17  1  0  0  0  0
 14 13  1  0  0  0  0
 15 13  1  0  0  0  0
 16 13  1  0  0  0  0
 18  6  1  0  0  0  0
 18 19  1  0  0  0  0
 19 22  1  0  0  0  0
 19 21  1  0  0  0  0
 20 19  1  0  0  0  0
M  RAD  2  11   2  12   3
M  END
