Coordinates from ORCA-job p-CH3O-Ph-N2-X-BF4-B3LYPG-6-31G_dp-scan-d09-49-n400
 OpenBabel08281820543D

 22 21  0  0  0  0  0  0  0  0999 V2000
   -1.0469    0.7606    1.4170 C   0  0  0  0  0  0  0  0  0  0  0  0
    0.2942    0.9984    1.1661 C   0  0  0  0  0  0  0  0  0  0  0  0
    0.6305    1.6898   -0.0096 C   0  0  0  0  0  0  0  0  0  0  0  0
   -0.3374    2.1414   -0.9343 C   0  0  0  0  0  0  0  0  0  0  0  0
   -1.6631    1.8834   -0.6708 C   0  0  0  0  0  0  0  0  0  0  0  0
   -2.0315    1.1901    0.5062 C   0  0  0  0  0  0  0  0  0  0  0  0
   -1.3186    0.2301    2.3204 H   0  0  0  0  0  0  0  0  0  0  0  0
    1.0855    0.6709    1.8349 H   0  0  0  0  0  0  0  0  0  0  0  0
   -0.0355    2.6673   -1.8331 H   0  0  0  0  0  0  0  0  0  0  0  0
   -2.4438    2.2002   -1.3521 H   0  0  0  0  0  0  0  0  0  0  0  0
    1.9445    1.9815   -0.2881 N   0  0  0  0  0  0  0  0  0  0  0  0
    2.9771    2.3023   -0.5656 N   0  0  0  0  0  0  0  0  0  0  0  0
    3.5869   -0.2866    0.7990 B   0  0  0  0  0  0  0  0  0  0  0  0
    2.5733   -0.5178   -0.1693 F   0  0  0  0  0  0  0  0  0  0  0  0
    4.1833   -1.4545    1.1973 F   0  0  0  0  0  0  0  0  0  0  0  0
    4.5125    0.6263    0.2432 F   0  0  0  0  0  0  0  0  0  0  0  0
    2.9635    0.3766    1.9083 F   0  0  0  0  0  0  0  0  0  0  0  0
   -3.3479    0.9937    0.6629 O   0  0  0  0  0  0  0  0  0  0  0  0
   -3.8215    0.2819    1.8118 C   0  0  0  0  0  0  0  0  0  0  0  0
   -4.9051    0.2427    1.7040 H   0  0  0  0  0  0  0  0  0  0  0  0
   -3.5629    0.8103    2.7357 H   0  0  0  0  0  0  0  0  0  0  0  0
   -3.4173   -0.7351    1.8377 H   0  0  0  0  0  0  0  0  0  0  0  0
  1  7  1  0  0  0  0
  2  1  1  0  0  0  0
  2  8  1  0  0  0  0
  3  2  2  0  0  0  0
  4  5  2  0  0  0  0
  4  3  1  0  0  0  0
  5  6  1  0  0  0  0
  6 18  1  0  0  0  0
  6  1  2  0  0  0  0
  9  4  1  0  0  0  0
 10  5  1  0  0  0  0
 11  3  1  0  0  0  0
 12 11  1  0  0  0  0
 13 15  1  0  0  0  0
 13 17  1  0  0  0  0
 14 13  1  0  0  0  0
 16 13  1  0  0  0  0
 18 19  1  0  0  0  0
 19 22  1  0  0  0  0
 19 21  1  0  0  0  0
 20 19  1  0  0  0  0
M  RAD  2  11   2  12   3
M  END
