Coordinates from ORCA-job p-CH3O-Ph-N2-X-BF4-B3LYPG-6-31G_dp-scan-d09-49-n400
 OpenBabel08281820543D

 22 21  0  0  0  0  0  0  0  0999 V2000
   -1.0793    0.8587    1.5324 C   0  0  0  0  0  0  0  0  0  0  0  0
    0.2664    1.1302    1.3474 C   0  0  0  0  0  0  0  0  0  0  0  0
    0.6599    1.7200    0.1354 C   0  0  0  0  0  0  0  0  0  0  0  0
   -0.2584    2.0420   -0.8872 C   0  0  0  0  0  0  0  0  0  0  0  0
   -1.5894    1.7540   -0.6876 C   0  0  0  0  0  0  0  0  0  0  0  0
   -2.0135    1.1566    0.5214 C   0  0  0  0  0  0  0  0  0  0  0  0
   -1.3927    0.4012    2.4616 H   0  0  0  0  0  0  0  0  0  0  0  0
    1.0141    0.8811    2.0904 H   0  0  0  0  0  0  0  0  0  0  0  0
    0.0862    2.4926   -1.8110 H   0  0  0  0  0  0  0  0  0  0  0  0
   -2.3310    1.9727   -1.4469 H   0  0  0  0  0  0  0  0  0  0  0  0
    1.9757    2.0540   -0.0899 N   0  0  0  0  0  0  0  0  0  0  0  0
    2.9946    2.4303   -0.3415 N   0  0  0  0  0  0  0  0  0  0  0  0
    3.5596   -0.3158    0.5818 B   0  0  0  0  0  0  0  0  0  0  0  0
    2.5844   -0.4675   -0.4358 F   0  0  0  0  0  0  0  0  0  0  0  0
    4.0797   -1.5217    0.9762 F   0  0  0  0  0  0  0  0  0  0  0  0
    4.5480    0.5725    0.1106 F   0  0  0  0  0  0  0  0  0  0  0  0
    2.9126    0.3424    1.6901 F   0  0  0  0  0  0  0  0  0  0  0  0
   -3.3292    0.9147    0.6075 O   0  0  0  0  0  0  0  0  0  0  0  0
   -3.8525    0.2781    1.7784 C   0  0  0  0  0  0  0  0  0  0  0  0
   -4.9221    0.1730    1.5995 H   0  0  0  0  0  0  0  0  0  0  0  0
   -3.6879    0.8951    2.6683 H   0  0  0  0  0  0  0  0  0  0  0  0
   -3.4051   -0.7108    1.9207 H   0  0  0  0  0  0  0  0  0  0  0  0
  1  7  1  0  0  0  0
  2  1  1  0  0  0  0
  2  8  1  0  0  0  0
  3  2  2  0  0  0  0
  4  5  2  0  0  0  0
  4  3  1  0  0  0  0
  5  6  1  0  0  0  0
  6 18  1  0  0  0  0
  6  1  2  0  0  0  0
  9  4  1  0  0  0  0
 10  5  1  0  0  0  0
 11  3  1  0  0  0  0
 12 11  1  0  0  0  0
 13 15  1  0  0  0  0
 13 17  1  0  0  0  0
 14 13  1  0  0  0  0
 16 13  1  0  0  0  0
 18 19  1  0  0  0  0
 19 22  1  0  0  0  0
 19 21  1  0  0  0  0
 20 19  1  0  0  0  0
M  RAD  2  11   2  12   3
M  END
