Coordinates from ORCA-job p-CH3O-Ph-N2-BF4-B3LYPG-aug-cc-pVDZ-scan-d09-49-n400
 OpenBabel01151817063D

 22 20  0  0  0  0  0  0  0  0999 V2000
   -0.9996    0.1881    1.1015 C   0  0  0  0  0  0  0  0  0  0  0  0
    0.3849    0.3927    1.0248 C   0  0  0  0  0  0  0  0  0  0  0  0
    0.8592    1.6334    0.6341 C   0  0  0  0  0  0  0  0  0  0  0  0
    0.0075    2.7014    0.3686 C   0  0  0  0  0  0  0  0  0  0  0  0
   -1.3669    2.4978    0.4473 C   0  0  0  0  0  0  0  0  0  0  0  0
   -1.8795    1.2392    0.8072 C   0  0  0  0  0  0  0  0  0  0  0  0
   -1.3681   -0.7908    1.3968 H   0  0  0  0  0  0  0  0  0  0  0  0
    1.0799   -0.4128    1.2535 H   0  0  0  0  0  0  0  0  0  0  0  0
    0.4185    3.6719    0.0957 H   0  0  0  0  0  0  0  0  0  0  0  0
   -2.0638    3.3075    0.2359 H   0  0  0  0  0  0  0  0  0  0  0  0
    1.2105    1.0104   -1.8074 N   0  0  0  0  0  0  0  0  0  0  0  0
    0.5127    0.6186   -2.5700 N   0  0  0  0  0  0  0  0  0  0  0  0
    4.1914    0.3551    1.1865 B   0  0  0  0  0  0  0  0  0  0  0  0
    3.7560   -0.6122    0.3839 F   0  0  0  0  0  0  0  0  0  0  0  0
    3.8567    0.3362    2.4723 F   0  0  0  0  0  0  0  0  0  0  0  0
    5.0274    1.2762    0.7269 F   0  0  0  0  0  0  0  0  0  0  0  0
    2.2111    1.8543    0.5931 F   0  0  0  0  0  0  0  0  0  0  0  0
   -3.2421    1.1453    0.8513 O   0  0  0  0  0  0  0  0  0  0  0  0
   -3.8182   -0.1057    1.2122 C   0  0  0  0  0  0  0  0  0  0  0  0
   -4.9013    0.0447    1.1772 H   0  0  0  0  0  0  0  0  0  0  0  0
   -3.5223   -0.4024    2.2304 H   0  0  0  0  0  0  0  0  0  0  0  0
   -3.5343   -0.8956    0.4997 H   0  0  0  0  0  0  0  0  0  0  0  0
  1  7  1  0  0  0  0
  2  1  1  0  0  0  0
  2  8  1  0  0  0  0
  3  2  2  0  0  0  0
  4  5  2  0  0  0  0
  4  3  1  0  0  0  0
  5  6  1  0  0  0  0
  6 18  1  0  0  0  0
  6  1  2  0  0  0  0
  9  4  1  0  0  0  0
 10  5  1  0  0  0  0
 12 11  3  0  0  0  0
 13 15  1  0  0  0  0
 14 13  1  0  0  0  0
 16 13  1  0  0  0  0
 17  3  1  0  0  0  0
 18 19  1  0  0  0  0
 19 21  1  0  0  0  0
 20 19  1  0  0  0  0
 22 19  1  0  0  0  0
M  END
