Coordinates from ORCA-job p-CH3O-Ph-N2-BF4-B3LYPG-aug-cc-pVDZ-scan-d09-49-n400
 OpenBabel01151817063D

 22 20  0  0  0  0  0  0  0  0999 V2000
   -1.1191   -0.1088    0.5283 C   0  0  0  0  0  0  0  0  0  0  0  0
    0.0892   -0.1272   -0.2168 C   0  0  0  0  0  0  0  0  0  0  0  0
    0.3796    1.1348   -0.5397 C   0  0  0  0  0  0  0  0  0  0  0  0
   -0.0027    2.3993   -0.2915 C   0  0  0  0  0  0  0  0  0  0  0  0
   -1.1971    2.3400    0.4513 C   0  0  0  0  0  0  0  0  0  0  0  0
   -1.7465    1.1056    0.8604 C   0  0  0  0  0  0  0  0  0  0  0  0
   -1.5042   -1.0722    0.8522 H   0  0  0  0  0  0  0  0  0  0  0  0
    0.6788   -1.0145   -0.4172 H   0  0  0  0  0  0  0  0  0  0  0  0
    0.5138    3.3122   -0.5651 H   0  0  0  0  0  0  0  0  0  0  0  0
   -1.6799    3.2736    0.7372 H   0  0  0  0  0  0  0  0  0  0  0  0
    2.3061    1.1289   -1.9940 N   0  0  0  0  0  0  0  0  0  0  0  0
    3.2273    1.1345   -2.5996 N   0  0  0  0  0  0  0  0  0  0  0  0
    2.8080    1.0398    1.4022 B   0  0  0  0  0  0  0  0  0  0  0  0
    2.8186   -0.1093    0.5366 F   0  0  0  0  0  0  0  0  0  0  0  0
    1.6294    0.9899    2.1917 F   0  0  0  0  0  0  0  0  0  0  0  0
    3.9546    1.0814    2.1802 F   0  0  0  0  0  0  0  0  0  0  0  0
    2.7235    2.1995    0.5500 F   0  0  0  0  0  0  0  0  0  0  0  0
   -2.8833    1.1968    1.5848 O   0  0  0  0  0  0  0  0  0  0  0  0
   -3.4291    0.0017    2.1540 C   0  0  0  0  0  0  0  0  0  0  0  0
   -4.3049    0.3232    2.7236 H   0  0  0  0  0  0  0  0  0  0  0  0
   -2.7024   -0.4751    2.8269 H   0  0  0  0  0  0  0  0  0  0  0  0
   -3.7399   -0.7006    1.3661 H   0  0  0  0  0  0  0  0  0  0  0  0
  1  7  1  0  0  0  0
  1  6  1  0  0  0  0
  2  1  2  0  0  0  0
  3  4  2  0  0  0  0
  3  2  1  0  0  0  0
  4  5  1  0  0  0  0
  5 10  1  0  0  0  0
  5  6  2  0  0  0  0
  6 18  1  0  0  0  0
  8  2  1  0  0  0  0
  9  4  1  0  0  0  0
 12 11  3  0  0  0  0
 13 16  1  0  0  0  0
 13 15  1  0  0  0  0
 14 13  1  0  0  0  0
 17 13  1  0  0  0  0
 18 19  1  0  0  0  0
 19 20  1  0  0  0  0
 19 21  1  0  0  0  0
 22 19  1  0  0  0  0
M  RAD  1   3   2
M  END
