Coordinates from ORCA-job p-CH3O-Ph-N2-BF4-B3LYPG-aug-cc-pVDZ-scan-d09-49-n400
 OpenBabel01151817073D

 22 20  0  0  0  0  0  0  0  0999 V2000
   -1.0433    0.2315    1.2698 C   0  0  0  0  0  0  0  0  0  0  0  0
    0.3418    0.4499    1.2512 C   0  0  0  0  0  0  0  0  0  0  0  0
    0.8137    1.7161    0.9514 C   0  0  0  0  0  0  0  0  0  0  0  0
   -0.0345    2.7799    0.6604 C   0  0  0  0  0  0  0  0  0  0  0  0
   -1.4095    2.5589    0.6794 C   0  0  0  0  0  0  0  0  0  0  0  0
   -1.9212    1.2864    0.9847 C   0  0  0  0  0  0  0  0  0  0  0  0
   -1.4129   -0.7627    1.5069 H   0  0  0  0  0  0  0  0  0  0  0  0
    1.0385   -0.3581    1.4663 H   0  0  0  0  0  0  0  0  0  0  0  0
    0.3790    3.7584    0.4220 H   0  0  0  0  0  0  0  0  0  0  0  0
   -2.1063    3.3658    0.4573 H   0  0  0  0  0  0  0  0  0  0  0  0
    1.5250    0.5501   -3.4718 N   0  0  0  0  0  0  0  0  0  0  0  0
    0.8833    0.0954   -4.2475 N   0  0  0  0  0  0  0  0  0  0  0  0
    4.1900    0.4064    1.2848 B   0  0  0  0  0  0  0  0  0  0  0  0
    3.8503   -0.4038    0.2873 F   0  0  0  0  0  0  0  0  0  0  0  0
    3.7909    0.1228    2.5211 F   0  0  0  0  0  0  0  0  0  0  0  0
    4.9953    1.4365    1.0636 F   0  0  0  0  0  0  0  0  0  0  0  0
    2.1705    1.9377    0.9222 F   0  0  0  0  0  0  0  0  0  0  0  0
   -3.2847    1.1794    0.9763 O   0  0  0  0  0  0  0  0  0  0  0  0
   -3.8605   -0.0869    1.2779 C   0  0  0  0  0  0  0  0  0  0  0  0
   -4.9435    0.0563    1.2154 H   0  0  0  0  0  0  0  0  0  0  0  0
   -3.5925   -0.4157    2.2940 H   0  0  0  0  0  0  0  0  0  0  0  0
   -3.5495   -0.8510    0.5486 H   0  0  0  0  0  0  0  0  0  0  0  0
  1  7  1  0  0  0  0
  2  1  1  0  0  0  0
  2  8  1  0  0  0  0
  3  2  2  0  0  0  0
  4  5  2  0  0  0  0
  4  3  1  0  0  0  0
  5  6  1  0  0  0  0
  6  1  2  0  0  0  0
  9  4  1  0  0  0  0
 10  5  1  0  0  0  0
 12 11  3  0  0  0  0
 13 15  1  0  0  0  0
 14 13  1  0  0  0  0
 16 13  1  0  0  0  0
 17  3  1  0  0  0  0
 18  6  1  0  0  0  0
 18 19  1  0  0  0  0
 19 21  1  0  0  0  0
 20 19  1  0  0  0  0
 22 19  1  0  0  0  0
M  END
