Coordinates from ORCA-job p-CH3O-Ph-N2-BF4-B3LYPG-aug-cc-pVDZ-scan-d09-49-n400
 OpenBabel01151817063D

 22 20  0  0  0  0  0  0  0  0999 V2000
   -1.0132    0.1925    1.1361 C   0  0  0  0  0  0  0  0  0  0  0  0
    0.3725    0.3972    1.0719 C   0  0  0  0  0  0  0  0  0  0  0  0
    0.8474    1.6485    0.7194 C   0  0  0  0  0  0  0  0  0  0  0  0
    0.0000    2.7135    0.4307 C   0  0  0  0  0  0  0  0  0  0  0  0
   -1.3756    2.5070    0.4952 C   0  0  0  0  0  0  0  0  0  0  0  0
   -1.8901    1.2474    0.8469 C   0  0  0  0  0  0  0  0  0  0  0  0
   -1.3848   -0.7907    1.4125 H   0  0  0  0  0  0  0  0  0  0  0  0
    1.0670   -0.4113    1.2916 H   0  0  0  0  0  0  0  0  0  0  0  0
    0.4149    3.6824    0.1583 H   0  0  0  0  0  0  0  0  0  0  0  0
   -2.0714    3.3155    0.2755 H   0  0  0  0  0  0  0  0  0  0  0  0
    1.2965    0.9378   -2.1659 N   0  0  0  0  0  0  0  0  0  0  0  0
    0.6030    0.5209   -2.9177 N   0  0  0  0  0  0  0  0  0  0  0  0
    4.1929    0.3701    1.2056 B   0  0  0  0  0  0  0  0  0  0  0  0
    3.7805   -0.5884    0.3805 F   0  0  0  0  0  0  0  0  0  0  0  0
    3.8507    0.3174    2.4888 F   0  0  0  0  0  0  0  0  0  0  0  0
    5.0150    1.3153    0.7711 F   0  0  0  0  0  0  0  0  0  0  0  0
    2.2027    1.8600    0.6567 F   0  0  0  0  0  0  0  0  0  0  0  0
   -3.2537    1.1535    0.8804 O   0  0  0  0  0  0  0  0  0  0  0  0
   -3.8321   -0.0992    1.2303 C   0  0  0  0  0  0  0  0  0  0  0  0
   -4.9151    0.0527    1.1937 H   0  0  0  0  0  0  0  0  0  0  0  0
   -3.5393   -0.4042    2.2470 H   0  0  0  0  0  0  0  0  0  0  0  0
   -3.5479   -0.8845    0.5129 H   0  0  0  0  0  0  0  0  0  0  0  0
  1  7  1  0  0  0  0
  2  1  1  0  0  0  0
  2  8  1  0  0  0  0
  3  2  2  0  0  0  0
  4  5  2  0  0  0  0
  4  3  1  0  0  0  0
  5  6  1  0  0  0  0
  6 18  1  0  0  0  0
  6  1  2  0  0  0  0
  9  4  1  0  0  0  0
 10  5  1  0  0  0  0
 12 11  3  0  0  0  0
 13 15  1  0  0  0  0
 14 13  1  0  0  0  0
 16 13  1  0  0  0  0
 17  3  1  0  0  0  0
 18 19  1  0  0  0  0
 19 21  1  0  0  0  0
 20 19  1  0  0  0  0
 22 19  1  0  0  0  0
M  END
