Coordinates from ORCA-job p-CH3O-Ph-N2-BF4-B3LYPG-aug-cc-pVDZ-scan-d09-49-n400
 OpenBabel01151817063D

 22 20  0  0  0  0  0  0  0  0999 V2000
   -1.1316   -0.1270    0.4888 C   0  0  0  0  0  0  0  0  0  0  0  0
    0.0500   -0.1470   -0.2776 C   0  0  0  0  0  0  0  0  0  0  0  0
    0.4201    1.1075   -0.6178 C   0  0  0  0  0  0  0  0  0  0  0  0
   -0.0034    2.3660   -0.3313 C   0  0  0  0  0  0  0  0  0  0  0  0
   -1.1761    2.3238    0.4313 C   0  0  0  0  0  0  0  0  0  0  0  0
   -1.7364    1.0947    0.8393 C   0  0  0  0  0  0  0  0  0  0  0  0
   -1.5281   -1.0817    0.8225 H   0  0  0  0  0  0  0  0  0  0  0  0
    0.6052   -1.0503   -0.5046 H   0  0  0  0  0  0  0  0  0  0  0  0
    0.5102    3.2817   -0.6026 H   0  0  0  0  0  0  0  0  0  0  0  0
   -1.6429    3.2560    0.7445 H   0  0  0  0  0  0  0  0  0  0  0  0
    2.1068    1.1172   -1.6977 N   0  0  0  0  0  0  0  0  0  0  0  0
    2.9833    1.1247   -2.3653 N   0  0  0  0  0  0  0  0  0  0  0  0
    2.8991    1.0859    1.3939 B   0  0  0  0  0  0  0  0  0  0  0  0
    2.9080   -0.0657    0.5248 F   0  0  0  0  0  0  0  0  0  0  0  0
    1.6941    1.0673    2.1380 F   0  0  0  0  0  0  0  0  0  0  0  0
    4.0192    1.0897    2.2115 F   0  0  0  0  0  0  0  0  0  0  0  0
    2.8850    2.2492    0.5426 F   0  0  0  0  0  0  0  0  0  0  0  0
   -2.8588    1.1966    1.5843 O   0  0  0  0  0  0  0  0  0  0  0  0
   -3.4270    0.0050    2.1378 C   0  0  0  0  0  0  0  0  0  0  0  0
   -4.2890    0.3374    2.7221 H   0  0  0  0  0  0  0  0  0  0  0  0
   -2.7058   -0.5009    2.7952 H   0  0  0  0  0  0  0  0  0  0  0  0
   -3.7620   -0.6764    1.3418 H   0  0  0  0  0  0  0  0  0  0  0  0
  1  7  1  0  0  0  0
  1  6  1  0  0  0  0
  2  1  2  0  0  0  0
  3  4  2  0  0  0  0
  3  2  1  0  0  0  0
  4  5  1  0  0  0  0
  5 10  1  0  0  0  0
  5  6  2  0  0  0  0
  6 18  1  0  0  0  0
  8  2  1  0  0  0  0
  9  4  1  0  0  0  0
 12 11  3  0  0  0  0
 13 15  1  0  0  0  0
 13 16  1  0  0  0  0
 14 13  1  0  0  0  0
 17 13  1  0  0  0  0
 18 19  1  0  0  0  0
 19 20  1  0  0  0  0
 19 21  1  0  0  0  0
 22 19  1  0  0  0  0
M  RAD  1   3   2
M  END
