Coordinates from ORCA-job p-CH3O-Ph-N2-BF4-B3LYPG-aug-cc-pVDZ-scan-d09-49-n400
 OpenBabel01151817063D

 22 21  0  0  0  0  0  0  0  0999 V2000
   -1.1342   -0.1310    0.4797 C   0  0  0  0  0  0  0  0  0  0  0  0
    0.0425   -0.1484   -0.2864 C   0  0  0  0  0  0  0  0  0  0  0  0
    0.4448    1.1022   -0.6346 C   0  0  0  0  0  0  0  0  0  0  0  0
   -0.0004    2.3569   -0.3302 C   0  0  0  0  0  0  0  0  0  0  0  0
   -1.1695    2.3204    0.4310 C   0  0  0  0  0  0  0  0  0  0  0  0
   -1.7339    1.0920    0.8357 C   0  0  0  0  0  0  0  0  0  0  0  0
   -1.5375   -1.0836    0.8107 H   0  0  0  0  0  0  0  0  0  0  0  0
    0.5856   -1.0571   -0.5221 H   0  0  0  0  0  0  0  0  0  0  0  0
    0.5106    3.2749   -0.6000 H   0  0  0  0  0  0  0  0  0  0  0  0
   -1.6354    3.2510    0.7495 H   0  0  0  0  0  0  0  0  0  0  0  0
    2.0425    1.1088   -1.6301 N   0  0  0  0  0  0  0  0  0  0  0  0
    2.9146    1.1124   -2.3035 N   0  0  0  0  0  0  0  0  0  0  0  0
    2.9281    1.1000    1.3913 B   0  0  0  0  0  0  0  0  0  0  0  0
    2.9304   -0.0580    0.5289 F   0  0  0  0  0  0  0  0  0  0  0  0
    1.7263    1.0931    2.1375 F   0  0  0  0  0  0  0  0  0  0  0  0
    4.0516    1.1057    2.2035 F   0  0  0  0  0  0  0  0  0  0  0  0
    2.9178    2.2556    0.5275 F   0  0  0  0  0  0  0  0  0  0  0  0
   -2.8545    1.1953    1.5823 O   0  0  0  0  0  0  0  0  0  0  0  0
   -3.4318    0.0043    2.1277 C   0  0  0  0  0  0  0  0  0  0  0  0
   -4.2916    0.3394    2.7136 H   0  0  0  0  0  0  0  0  0  0  0  0
   -2.7148   -0.5111    2.7823 H   0  0  0  0  0  0  0  0  0  0  0  0
   -3.7710   -0.6696    1.3273 H   0  0  0  0  0  0  0  0  0  0  0  0
  1  7  1  0  0  0  0
  1  6  1  0  0  0  0
  2  1  2  0  0  0  0
  3  4  2  0  0  0  0
  3  2  1  0  0  0  0
  4  5  1  0  0  0  0
  5 10  1  0  0  0  0
  5  6  2  0  0  0  0
  6 18  1  0  0  0  0
  8  2  1  0  0  0  0
  9  4  1  0  0  0  0
 11  3  1  0  0  0  0
 12 11  1  0  0  0  0
 13 15  1  0  0  0  0
 13 16  1  0  0  0  0
 14 13  1  0  0  0  0
 17 13  1  0  0  0  0
 18 19  1  0  0  0  0
 19 20  1  0  0  0  0
 19 21  1  0  0  0  0
 22 19  1  0  0  0  0
M  RAD  2  11   2  12   3
M  END
