Coordinates from ORCA-job p-CH3O-Ph-N2-BF4-B3LYPG-aug-cc-pVDZ-scan-d09-49-n400
 OpenBabel01151817073D

 22 20  0  0  0  0  0  0  0  0999 V2000
   -1.0434    0.2317    1.2705 C   0  0  0  0  0  0  0  0  0  0  0  0
    0.3417    0.4502    1.2521 C   0  0  0  0  0  0  0  0  0  0  0  0
    0.8136    1.7166    0.9529 C   0  0  0  0  0  0  0  0  0  0  0  0
   -0.0347    2.7804    0.6621 C   0  0  0  0  0  0  0  0  0  0  0  0
   -1.4096    2.5593    0.6808 C   0  0  0  0  0  0  0  0  0  0  0  0
   -1.9213    1.2867    0.9856 C   0  0  0  0  0  0  0  0  0  0  0  0
   -1.4130   -0.7626    1.5071 H   0  0  0  0  0  0  0  0  0  0  0  0
    1.0384   -0.3579    1.4671 H   0  0  0  0  0  0  0  0  0  0  0  0
    0.3789    3.7590    0.4241 H   0  0  0  0  0  0  0  0  0  0  0  0
   -2.1064    3.3663    0.4590 H   0  0  0  0  0  0  0  0  0  0  0  0
    1.5255    0.5470   -3.4799 N   0  0  0  0  0  0  0  0  0  0  0  0
    0.8845    0.0922   -4.2560 N   0  0  0  0  0  0  0  0  0  0  0  0
    4.1900    0.4069    1.2855 B   0  0  0  0  0  0  0  0  0  0  0  0
    3.8504   -0.4025    0.2873 F   0  0  0  0  0  0  0  0  0  0  0  0
    3.7908    0.1221    2.5216 F   0  0  0  0  0  0  0  0  0  0  0  0
    4.9951    1.4373    1.0653 F   0  0  0  0  0  0  0  0  0  0  0  0
    2.1704    1.9381    0.9240 F   0  0  0  0  0  0  0  0  0  0  0  0
   -3.2848    1.1797    0.9769 O   0  0  0  0  0  0  0  0  0  0  0  0
   -3.8606   -0.0868    1.2779 C   0  0  0  0  0  0  0  0  0  0  0  0
   -4.9436    0.0564    1.2153 H   0  0  0  0  0  0  0  0  0  0  0  0
   -3.5928   -0.4160    2.2940 H   0  0  0  0  0  0  0  0  0  0  0  0
   -3.5494   -0.8506    0.5484 H   0  0  0  0  0  0  0  0  0  0  0  0
  1  7  1  0  0  0  0
  2  1  1  0  0  0  0
  2  8  1  0  0  0  0
  3  2  2  0  0  0  0
  4  5  2  0  0  0  0
  4  3  1  0  0  0  0
  5  6  1  0  0  0  0
  6  1  2  0  0  0  0
  9  4  1  0  0  0  0
 10  5  1  0  0  0  0
 12 11  3  0  0  0  0
 13 15  1  0  0  0  0
 14 13  1  0  0  0  0
 16 13  1  0  0  0  0
 17  3  1  0  0  0  0
 18  6  1  0  0  0  0
 18 19  1  0  0  0  0
 19 21  1  0  0  0  0
 20 19  1  0  0  0  0
 22 19  1  0  0  0  0
M  END
