Coordinates from ORCA-job p-CH3O-Ph-N2-BF4-B3LYPG-aug-cc-pVDZ-scan-d09-49-n400
 OpenBabel01151817063D

 22 21  0  0  0  0  0  0  0  0999 V2000
   -1.1050   -0.1389    0.4106 C   0  0  0  0  0  0  0  0  0  0  0  0
    0.0327   -0.1445   -0.3849 C   0  0  0  0  0  0  0  0  0  0  0  0
    0.5408    1.0948   -0.7591 C   0  0  0  0  0  0  0  0  0  0  0  0
    0.0335    2.3374   -0.3724 C   0  0  0  0  0  0  0  0  0  0  0  0
   -1.1017    2.3171    0.4134 C   0  0  0  0  0  0  0  0  0  0  0  0
   -1.6707    1.0881    0.8175 C   0  0  0  0  0  0  0  0  0  0  0  0
   -1.5219   -1.0875    0.7345 H   0  0  0  0  0  0  0  0  0  0  0  0
    0.5258   -1.0692   -0.6701 H   0  0  0  0  0  0  0  0  0  0  0  0
    0.5340    3.2633   -0.6405 H   0  0  0  0  0  0  0  0  0  0  0  0
   -1.5471    3.2431    0.7706 H   0  0  0  0  0  0  0  0  0  0  0  0
    1.8249    1.0910   -1.5564 N   0  0  0  0  0  0  0  0  0  0  0  0
    2.7390    1.0844   -2.1833 N   0  0  0  0  0  0  0  0  0  0  0  0
    2.8443    1.1242    1.4544 B   0  0  0  0  0  0  0  0  0  0  0  0
    2.8376   -0.0756    0.6562 F   0  0  0  0  0  0  0  0  0  0  0  0
    1.6058    1.2128    2.1362 F   0  0  0  0  0  0  0  0  0  0  0  0
    3.9228    1.1295    2.3260 F   0  0  0  0  0  0  0  0  0  0  0  0
    2.9299    2.2293    0.5307 F   0  0  0  0  0  0  0  0  0  0  0  0
   -2.7537    1.1917    1.6054 O   0  0  0  0  0  0  0  0  0  0  0  0
   -3.3418    0.0017    2.1486 C   0  0  0  0  0  0  0  0  0  0  0  0
   -4.1680    0.3479    2.7747 H   0  0  0  0  0  0  0  0  0  0  0  0
   -2.6122   -0.5440    2.7623 H   0  0  0  0  0  0  0  0  0  0  0  0
   -3.7290   -0.6434    1.3472 H   0  0  0  0  0  0  0  0  0  0  0  0
  1  7  1  0  0  0  0
  1  6  2  0  0  0  0
  2  1  1  0  0  0  0
  3  2  2  0  0  0  0
  3  4  1  0  0  0  0
  4  5  2  0  0  0  0
  5 10  1  0  0  0  0
  5  6  1  0  0  0  0
  6 18  1  0  0  0  0
  8  2  1  0  0  0  0
  9  4  1  0  0  0  0
 11  3  1  0  0  0  0
 12 11  1  0  0  0  0
 13 15  1  0  0  0  0
 13 16  1  0  0  0  0
 14 13  1  0  0  0  0
 17 13  1  0  0  0  0
 18 19  1  0  0  0  0
 19 21  1  0  0  0  0
 19 20  1  0  0  0  0
 22 19  1  0  0  0  0
M  RAD  2  11   2  12   3
M  END
