Coordinates from ORCA-job p-CH3O-Ph-N2-BF4-B3LYPG-aug-cc-pVDZ-scan-d09-49-n400
 OpenBabel01151817063D

 22 20  0  0  0  0  0  0  0  0999 V2000
   -1.0200    0.1966    1.1533 C   0  0  0  0  0  0  0  0  0  0  0  0
    0.3658    0.4023    1.0919 C   0  0  0  0  0  0  0  0  0  0  0  0
    0.8400    1.6563    0.7477 C   0  0  0  0  0  0  0  0  0  0  0  0
   -0.0074    2.7210    0.4580 C   0  0  0  0  0  0  0  0  0  0  0  0
   -1.3830    2.5130    0.5197 C   0  0  0  0  0  0  0  0  0  0  0  0
   -1.8970    1.2521    0.8670 C   0  0  0  0  0  0  0  0  0  0  0  0
   -1.3913   -0.7882    1.4246 H   0  0  0  0  0  0  0  0  0  0  0  0
    1.0607   -0.4066    1.3092 H   0  0  0  0  0  0  0  0  0  0  0  0
    0.4072    3.6909    0.1890 H   0  0  0  0  0  0  0  0  0  0  0  0
   -2.0791    3.3214    0.3005 H   0  0  0  0  0  0  0  0  0  0  0  0
    1.3557    0.8966   -2.3447 N   0  0  0  0  0  0  0  0  0  0  0  0
    0.6671    0.4692   -3.0950 N   0  0  0  0  0  0  0  0  0  0  0  0
    4.1897    0.3742    1.2148 B   0  0  0  0  0  0  0  0  0  0  0  0
    3.7884   -0.5677    0.3656 F   0  0  0  0  0  0  0  0  0  0  0  0
    3.8371    0.2920    2.4937 F   0  0  0  0  0  0  0  0  0  0  0  0
    5.0111    1.3322    0.8080 F   0  0  0  0  0  0  0  0  0  0  0  0
    2.1960    1.8679    0.6839 F   0  0  0  0  0  0  0  0  0  0  0  0
   -3.2607    1.1572    0.8983 O   0  0  0  0  0  0  0  0  0  0  0  0
   -3.8387   -0.0969    1.2441 C   0  0  0  0  0  0  0  0  0  0  0  0
   -4.9217    0.0545    1.2072 H   0  0  0  0  0  0  0  0  0  0  0  0
   -3.5464   -0.4048    2.2600 H   0  0  0  0  0  0  0  0  0  0  0  0
   -3.5536   -0.8800    0.5245 H   0  0  0  0  0  0  0  0  0  0  0  0
  1  7  1  0  0  0  0
  2  1  1  0  0  0  0
  2  8  1  0  0  0  0
  3  2  2  0  0  0  0
  4  5  2  0  0  0  0
  4  3  1  0  0  0  0
  5  6  1  0  0  0  0
  6 18  1  0  0  0  0
  6  1  2  0  0  0  0
  9  4  1  0  0  0  0
 10  5  1  0  0  0  0
 12 11  3  0  0  0  0
 13 15  1  0  0  0  0
 14 13  1  0  0  0  0
 16 13  1  0  0  0  0
 17  3  1  0  0  0  0
 18 19  1  0  0  0  0
 19 21  1  0  0  0  0
 20 19  1  0  0  0  0
 22 19  1  0  0  0  0
M  END
