Coordinates from ORCA-job p-CH3O-Ph-N2-BF4-B3LYPG-aug-cc-pVDZ-scan-d09-49-n400
 OpenBabel01151817073D

 22 20  0  0  0  0  0  0  0  0999 V2000
   -1.0444    0.2343    1.2781 C   0  0  0  0  0  0  0  0  0  0  0  0
    0.3406    0.4536    1.2631 C   0  0  0  0  0  0  0  0  0  0  0  0
    0.8123    1.7214    0.9694 C   0  0  0  0  0  0  0  0  0  0  0  0
   -0.0360    2.7861    0.6821 C   0  0  0  0  0  0  0  0  0  0  0  0
   -1.4109    2.5642    0.6975 C   0  0  0  0  0  0  0  0  0  0  0  0
   -1.9224    1.2900    0.9959 C   0  0  0  0  0  0  0  0  0  0  0  0
   -1.4139   -0.7612    1.5098 H   0  0  0  0  0  0  0  0  0  0  0  0
    1.0374   -0.3549    1.4763 H   0  0  0  0  0  0  0  0  0  0  0  0
    0.3773    3.7661    0.4494 H   0  0  0  0  0  0  0  0  0  0  0  0
   -2.1078    3.3718    0.4781 H   0  0  0  0  0  0  0  0  0  0  0  0
    1.5317    0.5112   -3.5772 N   0  0  0  0  0  0  0  0  0  0  0  0
    0.8995    0.0550   -4.3597 N   0  0  0  0  0  0  0  0  0  0  0  0
    4.1891    0.4120    1.2945 B   0  0  0  0  0  0  0  0  0  0  0  0
    3.8515   -0.3874    0.2875 F   0  0  0  0  0  0  0  0  0  0  0  0
    3.7890    0.1140    2.5271 F   0  0  0  0  0  0  0  0  0  0  0  0
    4.9933    1.4455    1.0858 F   0  0  0  0  0  0  0  0  0  0  0  0
    2.1690    1.9438    0.9446 F   0  0  0  0  0  0  0  0  0  0  0  0
   -3.2858    1.1822    0.9844 O   0  0  0  0  0  0  0  0  0  0  0  0
   -3.8614   -0.0858    1.2789 C   0  0  0  0  0  0  0  0  0  0  0  0
   -4.9444    0.0570    1.2149 H   0  0  0  0  0  0  0  0  0  0  0  0
   -3.5954   -0.4191    2.2941 H   0  0  0  0  0  0  0  0  0  0  0  0
   -3.5485   -0.8464    0.5468 H   0  0  0  0  0  0  0  0  0  0  0  0
  1  7  1  0  0  0  0
  2  1  1  0  0  0  0
  2  8  1  0  0  0  0
  3  2  2  0  0  0  0
  4  5  2  0  0  0  0
  4  3  1  0  0  0  0
  5  6  1  0  0  0  0
  6  1  2  0  0  0  0
  9  4  1  0  0  0  0
 10  5  1  0  0  0  0
 12 11  3  0  0  0  0
 13 15  1  0  0  0  0
 14 13  1  0  0  0  0
 16 13  1  0  0  0  0
 17  3  1  0  0  0  0
 18  6  1  0  0  0  0
 18 19  1  0  0  0  0
 19 21  1  0  0  0  0
 20 19  1  0  0  0  0
 22 19  1  0  0  0  0
M  END
