Coordinates from ORCA-job p-CH3O-Ph-N2-BF4-B3LYPG-aug-cc-pVDZ-scan-d09-49-n400
 OpenBabel01151817073D

 22 20  0  0  0  0  0  0  0  0999 V2000
   -1.0442    0.2337    1.2759 C   0  0  0  0  0  0  0  0  0  0  0  0
    0.3408    0.4528    1.2602 C   0  0  0  0  0  0  0  0  0  0  0  0
    0.8126    1.7204    0.9659 C   0  0  0  0  0  0  0  0  0  0  0  0
   -0.0357    2.7848    0.6776 C   0  0  0  0  0  0  0  0  0  0  0  0
   -1.4105    2.5631    0.6936 C   0  0  0  0  0  0  0  0  0  0  0  0
   -1.9222    1.2892    0.9934 C   0  0  0  0  0  0  0  0  0  0  0  0
   -1.4137   -0.7616    1.5087 H   0  0  0  0  0  0  0  0  0  0  0  0
    1.0376   -0.3557    1.4735 H   0  0  0  0  0  0  0  0  0  0  0  0
    0.3777    3.7644    0.4435 H   0  0  0  0  0  0  0  0  0  0  0  0
   -2.1074    3.3705    0.4735 H   0  0  0  0  0  0  0  0  0  0  0  0
    1.5297    0.5195   -3.5521 N   0  0  0  0  0  0  0  0  0  0  0  0
    0.8951    0.0634   -4.3327 N   0  0  0  0  0  0  0  0  0  0  0  0
    4.1897    0.4109    1.2920 B   0  0  0  0  0  0  0  0  0  0  0  0
    3.8515   -0.3912    0.2874 F   0  0  0  0  0  0  0  0  0  0  0  0
    3.7901    0.1162    2.5256 F   0  0  0  0  0  0  0  0  0  0  0  0
    4.9940    1.4437    1.0802 F   0  0  0  0  0  0  0  0  0  0  0  0
    2.1693    1.9426    0.9397 F   0  0  0  0  0  0  0  0  0  0  0  0
   -3.2856    1.1817    0.9825 O   0  0  0  0  0  0  0  0  0  0  0  0
   -3.8613   -0.0860    1.2783 C   0  0  0  0  0  0  0  0  0  0  0  0
   -4.9442    0.0568    1.2146 H   0  0  0  0  0  0  0  0  0  0  0  0
   -3.5948   -0.4186    2.2936 H   0  0  0  0  0  0  0  0  0  0  0  0
   -3.5487   -0.8472    0.5466 H   0  0  0  0  0  0  0  0  0  0  0  0
  1  7  1  0  0  0  0
  2  1  1  0  0  0  0
  2  8  1  0  0  0  0
  3  2  2  0  0  0  0
  4  5  2  0  0  0  0
  4  3  1  0  0  0  0
  5  6  1  0  0  0  0
  6  1  2  0  0  0  0
  9  4  1  0  0  0  0
 10  5  1  0  0  0  0
 12 11  3  0  0  0  0
 13 15  1  0  0  0  0
 14 13  1  0  0  0  0
 16 13  1  0  0  0  0
 17  3  1  0  0  0  0
 18  6  1  0  0  0  0
 18 19  1  0  0  0  0
 19 21  1  0  0  0  0
 20 19  1  0  0  0  0
 22 19  1  0  0  0  0
M  END
