Coordinates from ORCA-job p-CH3O-Ph-N2-BF4-B3LYPG-aug-cc-pVDZ-scan-d09-49-n400
 OpenBabel01151817063D

 22 21  0  0  0  0  0  0  0  0999 V2000
   -1.1328   -0.1336    0.4699 C   0  0  0  0  0  0  0  0  0  0  0  0
    0.0383   -0.1486   -0.2984 C   0  0  0  0  0  0  0  0  0  0  0  0
    0.4661    1.0988   -0.6532 C   0  0  0  0  0  0  0  0  0  0  0  0
    0.0042    2.3505   -0.3328 C   0  0  0  0  0  0  0  0  0  0  0  0
   -1.1604    2.3186    0.4295 C   0  0  0  0  0  0  0  0  0  0  0  0
   -1.7273    1.0904    0.8326 C   0  0  0  0  0  0  0  0  0  0  0  0
   -1.5407   -1.0846    0.7990 H   0  0  0  0  0  0  0  0  0  0  0  0
    0.5712   -1.0615   -0.5423 H   0  0  0  0  0  0  0  0  0  0  0  0
    0.5127    3.2703   -0.6021 H   0  0  0  0  0  0  0  0  0  0  0  0
   -1.6245    3.2480    0.7535 H   0  0  0  0  0  0  0  0  0  0  0  0
    1.9922    1.1027   -1.5928 N   0  0  0  0  0  0  0  0  0  0  0  0
    2.8681    1.1044   -2.2619 N   0  0  0  0  0  0  0  0  0  0  0  0
    2.9346    1.1087    1.3950 B   0  0  0  0  0  0  0  0  0  0  0  0
    2.9346   -0.0547    0.5395 F   0  0  0  0  0  0  0  0  0  0  0  0
    1.7310    1.1131    2.1369 F   0  0  0  0  0  0  0  0  0  0  0  0
    4.0562    1.1158    2.2094 F   0  0  0  0  0  0  0  0  0  0  0  0
    2.9325    2.2575    0.5208 F   0  0  0  0  0  0  0  0  0  0  0  0
   -2.8440    1.1946    1.5834 O   0  0  0  0  0  0  0  0  0  0  0  0
   -3.4267    0.0040    2.1246 C   0  0  0  0  0  0  0  0  0  0  0  0
   -4.2828    0.3414    2.7145 H   0  0  0  0  0  0  0  0  0  0  0  0
   -2.7108   -0.5187    2.7745 H   0  0  0  0  0  0  0  0  0  0  0  0
   -3.7719   -0.6638    1.3218 H   0  0  0  0  0  0  0  0  0  0  0  0
  1  7  1  0  0  0  0
  1  6  1  0  0  0  0
  2  1  2  0  0  0  0
  3  4  2  0  0  0  0
  3  2  1  0  0  0  0
  4  5  1  0  0  0  0
  5 10  1  0  0  0  0
  5  6  2  0  0  0  0
  6 18  1  0  0  0  0
  8  2  1  0  0  0  0
  9  4  1  0  0  0  0
 11  3  1  0  0  0  0
 12 11  1  0  0  0  0
 13 15  1  0  0  0  0
 13 16  1  0  0  0  0
 14 13  1  0  0  0  0
 17 13  1  0  0  0  0
 18 19  1  0  0  0  0
 19 20  1  0  0  0  0
 19 21  1  0  0  0  0
 22 19  1  0  0  0  0
M  RAD  2  11   2  12   3
M  END
