Coordinates from ORCA-job p-CH3O-Ph-N2-BF4-B3LYPG-aug-cc-pVDZ-scan-d09-49-n400
 OpenBabel01151817073D

 22 20  0  0  0  0  0  0  0  0999 V2000
   -1.0275    0.2084    1.1908 C   0  0  0  0  0  0  0  0  0  0  0  0
    0.3581    0.4184    1.1424 C   0  0  0  0  0  0  0  0  0  0  0  0
    0.8311    1.6773    0.8149 C   0  0  0  0  0  0  0  0  0  0  0  0
   -0.0168    2.7409    0.5222 C   0  0  0  0  0  0  0  0  0  0  0  0
   -1.3922    2.5280    0.5706 C   0  0  0  0  0  0  0  0  0  0  0  0
   -1.9051    1.2635    0.9056 C   0  0  0  0  0  0  0  0  0  0  0  0
   -1.3979   -0.7800    1.4503 H   0  0  0  0  0  0  0  0  0  0  0  0
    1.0541   -0.3904    1.3568 H   0  0  0  0  0  0  0  0  0  0  0  0
    0.3975    3.7130    0.2605 H   0  0  0  0  0  0  0  0  0  0  0  0
   -2.0887    3.3355    0.3494 H   0  0  0  0  0  0  0  0  0  0  0  0
    1.4264    0.7889   -2.7136 N   0  0  0  0  0  0  0  0  0  0  0  0
    0.7363    0.3440   -3.4523 N   0  0  0  0  0  0  0  0  0  0  0  0
    4.1868    0.3839    1.2366 B   0  0  0  0  0  0  0  0  0  0  0  0
    3.8062   -0.5127    0.3309 F   0  0  0  0  0  0  0  0  0  0  0  0
    3.8159    0.2285    2.5037 F   0  0  0  0  0  0  0  0  0  0  0  0
    5.0052    1.3699    0.8961 F   0  0  0  0  0  0  0  0  0  0  0  0
    2.1878    1.8910    0.7560 F   0  0  0  0  0  0  0  0  0  0  0  0
   -3.2689    1.1643    0.9249 O   0  0  0  0  0  0  0  0  0  0  0  0
   -3.8459   -0.0940    1.2568 C   0  0  0  0  0  0  0  0  0  0  0  0
   -4.9290    0.0545    1.2127 H   0  0  0  0  0  0  0  0  0  0  0  0
   -3.5604   -0.4087    2.2726 H   0  0  0  0  0  0  0  0  0  0  0  0
   -3.5530   -0.8709    0.5336 H   0  0  0  0  0  0  0  0  0  0  0  0
  1  7  1  0  0  0  0
  2  1  1  0  0  0  0
  2  8  1  0  0  0  0
  3  2  2  0  0  0  0
  4  5  2  0  0  0  0
  4  3  1  0  0  0  0
  5  6  1  0  0  0  0
  6 18  1  0  0  0  0
  6  1  2  0  0  0  0
  9  4  1  0  0  0  0
 10  5  1  0  0  0  0
 12 11  3  0  0  0  0
 13 15  1  0  0  0  0
 14 13  1  0  0  0  0
 16 13  1  0  0  0  0
 17  3  1  0  0  0  0
 18 19  1  0  0  0  0
 19 21  1  0  0  0  0
 20 19  1  0  0  0  0
 22 19  1  0  0  0  0
M  END
