Coordinates from ORCA-job p-CH3O-Ph-N2-BF4-B3LYPG-aug-cc-pVDZ-scan-d09-49-n400
 OpenBabel01151817063D

 22 20  0  0  0  0  0  0  0  0999 V2000
   -1.1195   -0.1087    0.5293 C   0  0  0  0  0  0  0  0  0  0  0  0
    0.0892   -0.1267   -0.2150 C   0  0  0  0  0  0  0  0  0  0  0  0
    0.3784    1.1355   -0.5374 C   0  0  0  0  0  0  0  0  0  0  0  0
   -0.0029    2.3995   -0.2903 C   0  0  0  0  0  0  0  0  0  0  0  0
   -1.1978    2.3399    0.4522 C   0  0  0  0  0  0  0  0  0  0  0  0
   -1.7474    1.1055    0.8610 C   0  0  0  0  0  0  0  0  0  0  0  0
   -1.5046   -1.0723    0.8527 H   0  0  0  0  0  0  0  0  0  0  0  0
    0.6799   -1.0134   -0.4153 H   0  0  0  0  0  0  0  0  0  0  0  0
    0.5135    3.3126   -0.5636 H   0  0  0  0  0  0  0  0  0  0  0  0
   -1.6808    3.2735    0.7378 H   0  0  0  0  0  0  0  0  0  0  0  0
    2.3119    1.1288   -1.9990 N   0  0  0  0  0  0  0  0  0  0  0  0
    3.2335    1.1344   -2.6040 N   0  0  0  0  0  0  0  0  0  0  0  0
    2.8076    1.0395    1.4015 B   0  0  0  0  0  0  0  0  0  0  0  0
    2.8177   -0.1100    0.5365 F   0  0  0  0  0  0  0  0  0  0  0  0
    1.6299    0.9896    2.1924 F   0  0  0  0  0  0  0  0  0  0  0  0
    3.9552    1.0818    2.1780 F   0  0  0  0  0  0  0  0  0  0  0  0
    2.7216    2.1986    0.5487 F   0  0  0  0  0  0  0  0  0  0  0  0
   -2.8846    1.1967    1.5849 O   0  0  0  0  0  0  0  0  0  0  0  0
   -3.4303    0.0015    2.1541 C   0  0  0  0  0  0  0  0  0  0  0  0
   -4.3063    0.3230    2.7233 H   0  0  0  0  0  0  0  0  0  0  0  0
   -2.7037   -0.4750    2.8274 H   0  0  0  0  0  0  0  0  0  0  0  0
   -3.7406   -0.7009    1.3663 H   0  0  0  0  0  0  0  0  0  0  0  0
  1  7  1  0  0  0  0
  1  6  1  0  0  0  0
  2  1  2  0  0  0  0
  3  4  2  0  0  0  0
  3  2  1  0  0  0  0
  4  5  1  0  0  0  0
  5 10  1  0  0  0  0
  5  6  2  0  0  0  0
  6 18  1  0  0  0  0
  8  2  1  0  0  0  0
  9  4  1  0  0  0  0
 12 11  3  0  0  0  0
 13 16  1  0  0  0  0
 13 15  1  0  0  0  0
 14 13  1  0  0  0  0
 17 13  1  0  0  0  0
 18 19  1  0  0  0  0
 19 20  1  0  0  0  0
 19 21  1  0  0  0  0
 22 19  1  0  0  0  0
M  RAD  1   3   2
M  END
