Coordinates from ORCA-job p-CH3O-Ph-N2-BF4-B3LYPG-aug-cc-pVDZ-scan-d09-49-n400
 OpenBabel01151817073D

 22 20  0  0  0  0  0  0  0  0999 V2000
   -1.0289    0.2136    1.2076 C   0  0  0  0  0  0  0  0  0  0  0  0
    0.3566    0.4259    1.1662 C   0  0  0  0  0  0  0  0  0  0  0  0
    0.8291    1.6862    0.8429 C   0  0  0  0  0  0  0  0  0  0  0  0
   -0.0192    2.7489    0.5479 C   0  0  0  0  0  0  0  0  0  0  0  0
   -1.3945    2.5337    0.5895 C   0  0  0  0  0  0  0  0  0  0  0  0
   -1.9069    1.2678    0.9202 C   0  0  0  0  0  0  0  0  0  0  0  0
   -1.3990   -0.7758    1.4636 H   0  0  0  0  0  0  0  0  0  0  0  0
    1.0529   -0.3821    1.3822 H   0  0  0  0  0  0  0  0  0  0  0  0
    0.3948    3.7220    0.2894 H   0  0  0  0  0  0  0  0  0  0  0  0
   -2.0912    3.3404    0.3662 H   0  0  0  0  0  0  0  0  0  0  0  0
    1.4428    0.7431   -2.8677 N   0  0  0  0  0  0  0  0  0  0  0  0
    0.7519    0.2950   -3.6037 N   0  0  0  0  0  0  0  0  0  0  0  0
    4.1856    0.3874    1.2472 B   0  0  0  0  0  0  0  0  0  0  0  0
    3.8137   -0.4857    0.3155 F   0  0  0  0  0  0  0  0  0  0  0  0
    3.8060    0.1977    2.5072 F   0  0  0  0  0  0  0  0  0  0  0  0
    5.0037    1.3843    0.9389 F   0  0  0  0  0  0  0  0  0  0  0  0
    2.1859    1.9021    0.7906 F   0  0  0  0  0  0  0  0  0  0  0  0
   -3.2706    1.1664    0.9329 O   0  0  0  0  0  0  0  0  0  0  0  0
   -3.8470   -0.0933    1.2600 C   0  0  0  0  0  0  0  0  0  0  0  0
   -4.9302    0.0535    1.2111 H   0  0  0  0  0  0  0  0  0  0  0  0
   -3.5658   -0.4092    2.2767 H   0  0  0  0  0  0  0  0  0  0  0  0
   -3.5496   -0.8686    0.5369 H   0  0  0  0  0  0  0  0  0  0  0  0
  1  7  1  0  0  0  0
  2  1  1  0  0  0  0
  2  8  1  0  0  0  0
  3  2  2  0  0  0  0
  4  5  2  0  0  0  0
  4  3  1  0  0  0  0
  5  6  1  0  0  0  0
  6 18  1  0  0  0  0
  6  1  2  0  0  0  0
  9  4  1  0  0  0  0
 10  5  1  0  0  0  0
 12 11  3  0  0  0  0
 13 15  1  0  0  0  0
 14 13  1  0  0  0  0
 16 13  1  0  0  0  0
 17  3  1  0  0  0  0
 18 19  1  0  0  0  0
 19 21  1  0  0  0  0
 20 19  1  0  0  0  0
 22 19  1  0  0  0  0
M  END
