Coordinates from ORCA-job p-CH3O-Ph-N2-BF4-B3LYPG-aug-cc-pVDZ-scan-d09-49-n400
 OpenBabel01151817063D

 22 20  0  0  0  0  0  0  0  0999 V2000
   -1.0129    0.1924    1.1353 C   0  0  0  0  0  0  0  0  0  0  0  0
    0.3728    0.3970    1.0709 C   0  0  0  0  0  0  0  0  0  0  0  0
    0.8477    1.6481    0.7179 C   0  0  0  0  0  0  0  0  0  0  0  0
    0.0003    2.7132    0.4294 C   0  0  0  0  0  0  0  0  0  0  0  0
   -1.3753    2.5067    0.4941 C   0  0  0  0  0  0  0  0  0  0  0  0
   -1.8898    1.2472    0.8459 C   0  0  0  0  0  0  0  0  0  0  0  0
   -1.3845   -0.7909    1.4119 H   0  0  0  0  0  0  0  0  0  0  0  0
    1.0673   -0.4116    1.2907 H   0  0  0  0  0  0  0  0  0  0  0  0
    0.4151    3.6821    0.1568 H   0  0  0  0  0  0  0  0  0  0  0  0
   -2.0711    3.3152    0.2745 H   0  0  0  0  0  0  0  0  0  0  0  0
    1.2939    0.9397   -2.1580 N   0  0  0  0  0  0  0  0  0  0  0  0
    0.6001    0.5233   -2.9098 N   0  0  0  0  0  0  0  0  0  0  0  0
    4.1931    0.3699    1.2054 B   0  0  0  0  0  0  0  0  0  0  0  0
    3.7802   -0.5894    0.3812 F   0  0  0  0  0  0  0  0  0  0  0  0
    3.8514    0.3185    2.4887 F   0  0  0  0  0  0  0  0  0  0  0  0
    5.0152    1.3145    0.7696 F   0  0  0  0  0  0  0  0  0  0  0  0
    2.2030    1.8597    0.6554 F   0  0  0  0  0  0  0  0  0  0  0  0
   -3.2534    1.1534    0.8796 O   0  0  0  0  0  0  0  0  0  0  0  0
   -3.8318   -0.0993    1.2298 C   0  0  0  0  0  0  0  0  0  0  0  0
   -4.9148    0.0526    1.1932 H   0  0  0  0  0  0  0  0  0  0  0  0
   -3.5389   -0.4041    2.2465 H   0  0  0  0  0  0  0  0  0  0  0  0
   -3.5477   -0.8847    0.5124 H   0  0  0  0  0  0  0  0  0  0  0  0
  1  7  1  0  0  0  0
  2  1  1  0  0  0  0
  2  8  1  0  0  0  0
  3  2  2  0  0  0  0
  4  5  2  0  0  0  0
  4  3  1  0  0  0  0
  5  6  1  0  0  0  0
  6 18  1  0  0  0  0
  6  1  2  0  0  0  0
  9  4  1  0  0  0  0
 10  5  1  0  0  0  0
 12 11  3  0  0  0  0
 13 15  1  0  0  0  0
 14 13  1  0  0  0  0
 16 13  1  0  0  0  0
 17  3  1  0  0  0  0
 18 19  1  0  0  0  0
 19 21  1  0  0  0  0
 20 19  1  0  0  0  0
 22 19  1  0  0  0  0
M  END
