Coordinates from ORCA-job p-CH3O-Ph-N2-BF4-B3LYPG-aug-cc-pVDZ-scan-d09-49-n400
 OpenBabel01151817073D

 22 20  0  0  0  0  0  0  0  0999 V2000
   -1.0266    0.2053    1.1809 C   0  0  0  0  0  0  0  0  0  0  0  0
    0.3591    0.4141    1.1287 C   0  0  0  0  0  0  0  0  0  0  0  0
    0.8324    1.6722    0.7987 C   0  0  0  0  0  0  0  0  0  0  0  0
   -0.0154    2.7364    0.5076 C   0  0  0  0  0  0  0  0  0  0  0  0
   -1.3909    2.5249    0.5599 C   0  0  0  0  0  0  0  0  0  0  0  0
   -1.9041    1.2610    0.8972 C   0  0  0  0  0  0  0  0  0  0  0  0
   -1.3972   -0.7824    1.4424 H   0  0  0  0  0  0  0  0  0  0  0  0
    1.0549   -0.3952    1.3420 H   0  0  0  0  0  0  0  0  0  0  0  0
    0.3991    3.7080    0.2443 H   0  0  0  0  0  0  0  0  0  0  0  0
   -2.0873    3.3328    0.3401 H   0  0  0  0  0  0  0  0  0  0  0  0
    1.4164    0.8146   -2.6242 N   0  0  0  0  0  0  0  0  0  0  0  0
    0.7265    0.3718   -3.3643 N   0  0  0  0  0  0  0  0  0  0  0  0
    4.1875    0.3820    1.2303 B   0  0  0  0  0  0  0  0  0  0  0  0
    3.8017   -0.5279    0.3402 F   0  0  0  0  0  0  0  0  0  0  0  0
    3.8219    0.2468    2.5013 F   0  0  0  0  0  0  0  0  0  0  0  0
    5.0062    1.3612    0.8710 F   0  0  0  0  0  0  0  0  0  0  0  0
    2.1890    1.8848    0.7363 F   0  0  0  0  0  0  0  0  0  0  0  0
   -3.2679    1.1631    0.9202 O   0  0  0  0  0  0  0  0  0  0  0  0
   -3.8451   -0.0944    1.2546 C   0  0  0  0  0  0  0  0  0  0  0  0
   -4.9282    0.0550    1.2132 H   0  0  0  0  0  0  0  0  0  0  0  0
   -3.5573   -0.4086    2.2699 H   0  0  0  0  0  0  0  0  0  0  0  0
   -3.5548   -0.8721    0.5312 H   0  0  0  0  0  0  0  0  0  0  0  0
  1  7  1  0  0  0  0
  2  1  1  0  0  0  0
  2  8  1  0  0  0  0
  3  2  2  0  0  0  0
  4  5  2  0  0  0  0
  4  3  1  0  0  0  0
  5  6  1  0  0  0  0
  6 18  1  0  0  0  0
  6  1  2  0  0  0  0
  9  4  1  0  0  0  0
 10  5  1  0  0  0  0
 12 11  3  0  0  0  0
 13 15  1  0  0  0  0
 14 13  1  0  0  0  0
 16 13  1  0  0  0  0
 17  3  1  0  0  0  0
 18 19  1  0  0  0  0
 19 21  1  0  0  0  0
 20 19  1  0  0  0  0
 22 19  1  0  0  0  0
M  END
