Coordinates from ORCA-job p-CH3O-Ph-N2-BF4-B3LYPG-aug-cc-pVDZ-scan-d09-49-n400
 OpenBabel01151817063D

 22 20  0  0  0  0  0  0  0  0999 V2000
   -1.0209    0.1972    1.1556 C   0  0  0  0  0  0  0  0  0  0  0  0
    0.3649    0.4031    1.0945 C   0  0  0  0  0  0  0  0  0  0  0  0
    0.8391    1.6573    0.7517 C   0  0  0  0  0  0  0  0  0  0  0  0
   -0.0083    2.7220    0.4620 C   0  0  0  0  0  0  0  0  0  0  0  0
   -1.3840    2.5139    0.5232 C   0  0  0  0  0  0  0  0  0  0  0  0
   -1.8979    1.2528    0.8698 C   0  0  0  0  0  0  0  0  0  0  0  0
   -1.3922   -0.7878    1.4261 H   0  0  0  0  0  0  0  0  0  0  0  0
    1.0598   -0.4060    1.3112 H   0  0  0  0  0  0  0  0  0  0  0  0
    0.4063    3.6921    0.1934 H   0  0  0  0  0  0  0  0  0  0  0  0
   -2.0801    3.3223    0.3042 H   0  0  0  0  0  0  0  0  0  0  0  0
    1.3633    0.8905   -2.3689 N   0  0  0  0  0  0  0  0  0  0  0  0
    0.6750    0.4616   -3.1186 N   0  0  0  0  0  0  0  0  0  0  0  0
    4.1895    0.3749    1.2161 B   0  0  0  0  0  0  0  0  0  0  0  0
    3.7896   -0.5648    0.3637 F   0  0  0  0  0  0  0  0  0  0  0  0
    3.8357    0.2887    2.4944 F   0  0  0  0  0  0  0  0  0  0  0  0
    5.0106    1.3347    0.8129 F   0  0  0  0  0  0  0  0  0  0  0  0
    2.1951    1.8690    0.6877 F   0  0  0  0  0  0  0  0  0  0  0  0
   -3.2617    1.1577    0.9007 O   0  0  0  0  0  0  0  0  0  0  0  0
   -3.8396   -0.0965    1.2457 C   0  0  0  0  0  0  0  0  0  0  0  0
   -4.9226    0.0547    1.2087 H   0  0  0  0  0  0  0  0  0  0  0  0
   -3.5474   -0.4050    2.2615 H   0  0  0  0  0  0  0  0  0  0  0  0
   -3.5543   -0.8792    0.5257 H   0  0  0  0  0  0  0  0  0  0  0  0
  1  7  1  0  0  0  0
  2  1  1  0  0  0  0
  2  8  1  0  0  0  0
  3  2  2  0  0  0  0
  4  5  2  0  0  0  0
  4  3  1  0  0  0  0
  5  6  1  0  0  0  0
  6 18  1  0  0  0  0
  6  1  2  0  0  0  0
  9  4  1  0  0  0  0
 10  5  1  0  0  0  0
 12 11  3  0  0  0  0
 13 15  1  0  0  0  0
 14 13  1  0  0  0  0
 16 13  1  0  0  0  0
 17  3  1  0  0  0  0
 18 19  1  0  0  0  0
 19 21  1  0  0  0  0
 20 19  1  0  0  0  0
 22 19  1  0  0  0  0
M  END
