Coordinates from ORCA-job p-CH3O-Ph-N2-BF4-B3LYPG-aug-cc-pVDZ-scan-d09-49-n400
 OpenBabel01151817063D

 22 21  0  0  0  0  0  0  0  0999 V2000
   -1.1340   -0.1301    0.4823 C   0  0  0  0  0  0  0  0  0  0  0  0
    0.0441   -0.1481   -0.2837 C   0  0  0  0  0  0  0  0  0  0  0  0
    0.4382    1.1034   -0.6298 C   0  0  0  0  0  0  0  0  0  0  0  0
   -0.0015    2.3592   -0.3301 C   0  0  0  0  0  0  0  0  0  0  0  0
   -1.1717    2.3212    0.4312 C   0  0  0  0  0  0  0  0  0  0  0  0
   -1.7352    1.0926    0.8366 C   0  0  0  0  0  0  0  0  0  0  0  0
   -1.5357   -1.0831    0.8140 H   0  0  0  0  0  0  0  0  0  0  0  0
    0.5904   -1.0554   -0.5170 H   0  0  0  0  0  0  0  0  0  0  0  0
    0.5102    3.2765   -0.6002 H   0  0  0  0  0  0  0  0  0  0  0  0
   -1.6379    3.2522    0.7482 H   0  0  0  0  0  0  0  0  0  0  0  0
    2.0590    1.1109   -1.6451 N   0  0  0  0  0  0  0  0  0  0  0  0
    2.9310    1.1151   -2.3185 N   0  0  0  0  0  0  0  0  0  0  0  0
    2.9227    1.0967    1.3912 B   0  0  0  0  0  0  0  0  0  0  0  0
    2.9263   -0.0596    0.5270 F   0  0  0  0  0  0  0  0  0  0  0  0
    1.7205    1.0868    2.1375 F   0  0  0  0  0  0  0  0  0  0  0  0
    4.0459    1.1019    2.2042 F   0  0  0  0  0  0  0  0  0  0  0  0
    2.9111    2.2544    0.5307 F   0  0  0  0  0  0  0  0  0  0  0  0
   -2.8564    1.1956    1.5825 O   0  0  0  0  0  0  0  0  0  0  0  0
   -3.4316    0.0045    2.1297 C   0  0  0  0  0  0  0  0  0  0  0  0
   -4.2922    0.3388    2.7149 H   0  0  0  0  0  0  0  0  0  0  0  0
   -2.7138   -0.5087    2.7852 H   0  0  0  0  0  0  0  0  0  0  0  0
   -3.7695   -0.6713    1.3303 H   0  0  0  0  0  0  0  0  0  0  0  0
  1  7  1  0  0  0  0
  1  6  1  0  0  0  0
  2  1  2  0  0  0  0
  3  4  2  0  0  0  0
  3  2  1  0  0  0  0
  4  5  1  0  0  0  0
  5 10  1  0  0  0  0
  5  6  2  0  0  0  0
  6 18  1  0  0  0  0
  8  2  1  0  0  0  0
  9  4  1  0  0  0  0
 11  3  1  0  0  0  0
 12 11  1  0  0  0  0
 13 15  1  0  0  0  0
 13 16  1  0  0  0  0
 14 13  1  0  0  0  0
 17 13  1  0  0  0  0
 18 19  1  0  0  0  0
 19 20  1  0  0  0  0
 19 21  1  0  0  0  0
 22 19  1  0  0  0  0
M  RAD  2  11   2  12   3
M  END
