Coordinates from ORCA-job p-CH3O-Ph-N2-BF4-B3LYPG-aug-cc-pVDZ-scan-d09-49-n400
 OpenBabel01151817063D

 22 21  0  0  0  0  0  0  0  0999 V2000
   -1.1217   -0.1370    0.4421 C   0  0  0  0  0  0  0  0  0  0  0  0
    0.0333   -0.1473   -0.3388 C   0  0  0  0  0  0  0  0  0  0  0  0
    0.5042    1.0952   -0.7045 C   0  0  0  0  0  0  0  0  0  0  0  0
    0.0175    2.3418   -0.3498 C   0  0  0  0  0  0  0  0  0  0  0  0
   -1.1332    2.3170    0.4229 C   0  0  0  0  0  0  0  0  0  0  0  0
   -1.7021    1.0888    0.8258 C   0  0  0  0  0  0  0  0  0  0  0  0
   -1.5357   -1.0863    0.7681 H   0  0  0  0  0  0  0  0  0  0  0  0
    0.5448   -1.0672   -0.6039 H   0  0  0  0  0  0  0  0  0  0  0  0
    0.5211    3.2649   -0.6192 H   0  0  0  0  0  0  0  0  0  0  0  0
   -1.5896    3.2445    0.7620 H   0  0  0  0  0  0  0  0  0  0  0  0
    1.9053    1.0946   -1.5603 N   0  0  0  0  0  0  0  0  0  0  0  0
    2.8000    1.0927   -2.2079 N   0  0  0  0  0  0  0  0  0  0  0  0
    2.9025    1.1194    1.4192 B   0  0  0  0  0  0  0  0  0  0  0  0
    2.9028   -0.0595    0.5868 F   0  0  0  0  0  0  0  0  0  0  0  0
    1.6824    1.1591    2.1335 F   0  0  0  0  0  0  0  0  0  0  0  0
    4.0048    1.1257    2.2598 F   0  0  0  0  0  0  0  0  0  0  0  0
    2.9393    2.2497    0.5221 F   0  0  0  0  0  0  0  0  0  0  0  0
   -2.8040    1.1934    1.5934 O   0  0  0  0  0  0  0  0  0  0  0  0
   -3.3913    0.0033    2.1335 C   0  0  0  0  0  0  0  0  0  0  0  0
   -4.2338    0.3453    2.7399 H   0  0  0  0  0  0  0  0  0  0  0  0
   -2.6703   -0.5320    2.7667 H   0  0  0  0  0  0  0  0  0  0  0  0
   -3.7562   -0.6527    1.3300 H   0  0  0  0  0  0  0  0  0  0  0  0
  1  7  1  0  0  0  0
  1  6  1  0  0  0  0
  2  1  2  0  0  0  0
  3  4  2  0  0  0  0
  3  2  1  0  0  0  0
  4  5  1  0  0  0  0
  5 10  1  0  0  0  0
  5  6  2  0  0  0  0
  6 18  1  0  0  0  0
  8  2  1  0  0  0  0
  9  4  1  0  0  0  0
 11  3  1  0  0  0  0
 12 11  1  0  0  0  0
 13 15  1  0  0  0  0
 13 16  1  0  0  0  0
 14 13  1  0  0  0  0
 17 13  1  0  0  0  0
 18 19  1  0  0  0  0
 19 20  1  0  0  0  0
 19 21  1  0  0  0  0
 22 19  1  0  0  0  0
M  RAD  2  11   2  12   3
M  END
