Coordinates from ORCA-job p-CH3O-Ph-N2-BF4-B3LYPG-aug-cc-pVDZ-scan-d09-49-n400
 OpenBabel01151817073D

 22 20  0  0  0  0  0  0  0  0999 V2000
   -1.0452    0.2371    1.2878 C   0  0  0  0  0  0  0  0  0  0  0  0
    0.3396    0.4574    1.2765 C   0  0  0  0  0  0  0  0  0  0  0  0
    0.8111    1.7262    0.9871 C   0  0  0  0  0  0  0  0  0  0  0  0
   -0.0373    2.7912    0.7011 C   0  0  0  0  0  0  0  0  0  0  0  0
   -1.4120    2.5683    0.7129 C   0  0  0  0  0  0  0  0  0  0  0  0
   -1.9234    1.2929    1.0066 C   0  0  0  0  0  0  0  0  0  0  0  0
   -1.4146   -0.7593    1.5160 H   0  0  0  0  0  0  0  0  0  0  0  0
    1.0365   -0.3512    1.4892 H   0  0  0  0  0  0  0  0  0  0  0  0
    0.3758    3.7722    0.4723 H   0  0  0  0  0  0  0  0  0  0  0  0
   -2.1090    3.3761    0.4944 H   0  0  0  0  0  0  0  0  0  0  0  0
    1.5389    0.4771   -3.6843 N   0  0  0  0  0  0  0  0  0  0  0  0
    0.9165    0.0215   -4.4749 N   0  0  0  0  0  0  0  0  0  0  0  0
    4.1868    0.4164    1.3051 B   0  0  0  0  0  0  0  0  0  0  0  0
    3.8509   -0.3717    0.2888 F   0  0  0  0  0  0  0  0  0  0  0  0
    3.7851    0.1044    2.5338 F   0  0  0  0  0  0  0  0  0  0  0  0
    4.9911    1.4524    1.1092 F   0  0  0  0  0  0  0  0  0  0  0  0
    2.1677    1.9499    0.9666 F   0  0  0  0  0  0  0  0  0  0  0  0
   -3.2867    1.1843    0.9917 O   0  0  0  0  0  0  0  0  0  0  0  0
   -3.8620   -0.0849    1.2816 C   0  0  0  0  0  0  0  0  0  0  0  0
   -4.9449    0.0573    1.2156 H   0  0  0  0  0  0  0  0  0  0  0  0
   -3.5980   -0.4208    2.2964 H   0  0  0  0  0  0  0  0  0  0  0  0
   -3.5469   -0.8433    0.5481 H   0  0  0  0  0  0  0  0  0  0  0  0
  1  7  1  0  0  0  0
  2  1  1  0  0  0  0
  2  8  1  0  0  0  0
  3  2  2  0  0  0  0
  4  5  2  0  0  0  0
  4  3  1  0  0  0  0
  5  6  1  0  0  0  0
  6  1  2  0  0  0  0
  9  4  1  0  0  0  0
 10  5  1  0  0  0  0
 12 11  3  0  0  0  0
 13 15  1  0  0  0  0
 14 13  1  0  0  0  0
 16 13  1  0  0  0  0
 17  3  1  0  0  0  0
 18  6  1  0  0  0  0
 18 19  1  0  0  0  0
 19 21  1  0  0  0  0
 20 19  1  0  0  0  0
 22 19  1  0  0  0  0
M  END
