Coordinates from ORCA-job p-CH3O-Ph-N2-BF4-B3LYPG-aug-cc-pVDZ-scan-d09-49-n400
 OpenBabel01151817073D

 22 20  0  0  0  0  0  0  0  0999 V2000
   -1.0441    0.2335    1.2753 C   0  0  0  0  0  0  0  0  0  0  0  0
    0.3409    0.4525    1.2593 C   0  0  0  0  0  0  0  0  0  0  0  0
    0.8127    1.7199    0.9644 C   0  0  0  0  0  0  0  0  0  0  0  0
   -0.0356    2.7843    0.6758 C   0  0  0  0  0  0  0  0  0  0  0  0
   -1.4104    2.5626    0.6922 C   0  0  0  0  0  0  0  0  0  0  0  0
   -1.9221    1.2889    0.9925 C   0  0  0  0  0  0  0  0  0  0  0  0
   -1.4137   -0.7617    1.5086 H   0  0  0  0  0  0  0  0  0  0  0  0
    1.0377   -0.3560    1.4728 H   0  0  0  0  0  0  0  0  0  0  0  0
    0.3779    3.7638    0.4414 H   0  0  0  0  0  0  0  0  0  0  0  0
   -2.1073    3.3701    0.4719 H   0  0  0  0  0  0  0  0  0  0  0  0
    1.5292    0.5226   -3.5441 N   0  0  0  0  0  0  0  0  0  0  0  0
    0.8939    0.0666   -4.3242 N   0  0  0  0  0  0  0  0  0  0  0  0
    4.1898    0.4104    1.2913 B   0  0  0  0  0  0  0  0  0  0  0  0
    3.8514   -0.3924    0.2874 F   0  0  0  0  0  0  0  0  0  0  0  0
    3.7902    0.1169    2.5252 F   0  0  0  0  0  0  0  0  0  0  0  0
    4.9941    1.4430    1.0785 F   0  0  0  0  0  0  0  0  0  0  0  0
    2.1695    1.9421    0.9380 F   0  0  0  0  0  0  0  0  0  0  0  0
   -3.2855    1.1815    0.9819 O   0  0  0  0  0  0  0  0  0  0  0  0
   -3.8612   -0.0861    1.2782 C   0  0  0  0  0  0  0  0  0  0  0  0
   -4.9441    0.0568    1.2147 H   0  0  0  0  0  0  0  0  0  0  0  0
   -3.5946   -0.4183    2.2936 H   0  0  0  0  0  0  0  0  0  0  0  0
   -3.5488   -0.8476    0.5468 H   0  0  0  0  0  0  0  0  0  0  0  0
  1  7  1  0  0  0  0
  2  1  1  0  0  0  0
  2  8  1  0  0  0  0
  3  2  2  0  0  0  0
  4  5  2  0  0  0  0
  4  3  1  0  0  0  0
  5  6  1  0  0  0  0
  6  1  2  0  0  0  0
  9  4  1  0  0  0  0
 10  5  1  0  0  0  0
 12 11  3  0  0  0  0
 13 15  1  0  0  0  0
 14 13  1  0  0  0  0
 16 13  1  0  0  0  0
 17  3  1  0  0  0  0
 18  6  1  0  0  0  0
 18 19  1  0  0  0  0
 19 21  1  0  0  0  0
 20 19  1  0  0  0  0
 22 19  1  0  0  0  0
M  END
