Coordinates from ORCA-job p-CH3O-Ph-N2-BF4-B3LYPG-aug-cc-pVDZ-scan-d09-49-n400
 OpenBabel01151817063D

 22 21  0  0  0  0  0  0  0  0999 V2000
   -1.1334   -0.1330    0.4724 C   0  0  0  0  0  0  0  0  0  0  0  0
    0.0391   -0.1486   -0.2952 C   0  0  0  0  0  0  0  0  0  0  0  0
    0.4612    1.0995   -0.6485 C   0  0  0  0  0  0  0  0  0  0  0  0
    0.0030    2.3519   -0.3319 C   0  0  0  0  0  0  0  0  0  0  0  0
   -1.1628    2.3189    0.4300 C   0  0  0  0  0  0  0  0  0  0  0  0
   -1.7292    1.0907    0.8334 C   0  0  0  0  0  0  0  0  0  0  0  0
   -1.5404   -1.0844    0.8019 H   0  0  0  0  0  0  0  0  0  0  0  0
    0.5744   -1.0605   -0.5371 H   0  0  0  0  0  0  0  0  0  0  0  0
    0.5121    3.2712   -0.6012 H   0  0  0  0  0  0  0  0  0  0  0  0
   -1.6274    3.2486    0.7525 H   0  0  0  0  0  0  0  0  0  0  0  0
    2.0036    1.1040   -1.6000 N   0  0  0  0  0  0  0  0  0  0  0  0
    2.8781    1.1061   -2.2706 N   0  0  0  0  0  0  0  0  0  0  0  0
    2.9345    1.1069    1.3936 B   0  0  0  0  0  0  0  0  0  0  0  0
    2.9348   -0.0552    0.5364 F   0  0  0  0  0  0  0  0  0  0  0  0
    1.7318    1.1084    2.1372 F   0  0  0  0  0  0  0  0  0  0  0  0
    4.0570    1.1138    2.2069 F   0  0  0  0  0  0  0  0  0  0  0  0
    2.9299    2.2574    0.5219 F   0  0  0  0  0  0  0  0  0  0  0  0
   -2.8470    1.1948    1.5829 O   0  0  0  0  0  0  0  0  0  0  0  0
   -3.4286    0.0041    2.1249 C   0  0  0  0  0  0  0  0  0  0  0  0
   -4.2858    0.3409    2.7137 H   0  0  0  0  0  0  0  0  0  0  0  0
   -2.7127   -0.5170    2.7760 H   0  0  0  0  0  0  0  0  0  0  0  0
   -3.7723   -0.6651    1.3225 H   0  0  0  0  0  0  0  0  0  0  0  0
  1  7  1  0  0  0  0
  1  6  1  0  0  0  0
  2  1  2  0  0  0  0
  3  4  2  0  0  0  0
  3  2  1  0  0  0  0
  4  5  1  0  0  0  0
  5 10  1  0  0  0  0
  5  6  2  0  0  0  0
  6 18  1  0  0  0  0
  8  2  1  0  0  0  0
  9  4  1  0  0  0  0
 11  3  1  0  0  0  0
 12 11  1  0  0  0  0
 13 15  1  0  0  0  0
 13 16  1  0  0  0  0
 14 13  1  0  0  0  0
 17 13  1  0  0  0  0
 18 19  1  0  0  0  0
 19 20  1  0  0  0  0
 19 21  1  0  0  0  0
 22 19  1  0  0  0  0
M  RAD  2  11   2  12   3
M  END
