Coordinates from ORCA-job p-CH3O-Ph-N2-BF4-B3LYPG-aug-cc-pVDZ-scan-d09-49-n400
 OpenBabel01151817073D

 22 20  0  0  0  0  0  0  0  0999 V2000
   -1.0292    0.2147    1.2111 C   0  0  0  0  0  0  0  0  0  0  0  0
    0.3562    0.4275    1.1711 C   0  0  0  0  0  0  0  0  0  0  0  0
    0.8286    1.6880    0.8488 C   0  0  0  0  0  0  0  0  0  0  0  0
   -0.0197    2.7506    0.5534 C   0  0  0  0  0  0  0  0  0  0  0  0
   -1.3949    2.5349    0.5935 C   0  0  0  0  0  0  0  0  0  0  0  0
   -1.9072    1.2687    0.9232 C   0  0  0  0  0  0  0  0  0  0  0  0
   -1.3992   -0.7749    1.4664 H   0  0  0  0  0  0  0  0  0  0  0  0
    1.0526   -0.3804    1.3875 H   0  0  0  0  0  0  0  0  0  0  0  0
    0.3942    3.7239    0.2955 H   0  0  0  0  0  0  0  0  0  0  0  0
   -2.0918    3.3414    0.3698 H   0  0  0  0  0  0  0  0  0  0  0  0
    1.4461    0.7334   -2.9001 N   0  0  0  0  0  0  0  0  0  0  0  0
    0.7550    0.2847   -3.6355 N   0  0  0  0  0  0  0  0  0  0  0  0
    4.1854    0.3882    1.2495 B   0  0  0  0  0  0  0  0  0  0  0  0
    3.8153   -0.4801    0.3126 F   0  0  0  0  0  0  0  0  0  0  0  0
    3.8042    0.1914    2.5080 F   0  0  0  0  0  0  0  0  0  0  0  0
    5.0034    1.3871    0.9478 F   0  0  0  0  0  0  0  0  0  0  0  0
    2.1854    1.9044    0.7979 F   0  0  0  0  0  0  0  0  0  0  0  0
   -3.2710    1.1669    0.9345 O   0  0  0  0  0  0  0  0  0  0  0  0
   -3.8473   -0.0931    1.2607 C   0  0  0  0  0  0  0  0  0  0  0  0
   -4.9305    0.0533    1.2107 H   0  0  0  0  0  0  0  0  0  0  0  0
   -3.5670   -0.4093    2.2774 H   0  0  0  0  0  0  0  0  0  0  0  0
   -3.5489   -0.8681    0.5376 H   0  0  0  0  0  0  0  0  0  0  0  0
  1  7  1  0  0  0  0
  2  1  1  0  0  0  0
  2  8  1  0  0  0  0
  3  2  2  0  0  0  0
  4  5  2  0  0  0  0
  4  3  1  0  0  0  0
  5  6  1  0  0  0  0
  6 18  1  0  0  0  0
  6  1  2  0  0  0  0
  9  4  1  0  0  0  0
 10  5  1  0  0  0  0
 12 11  3  0  0  0  0
 13 15  1  0  0  0  0
 14 13  1  0  0  0  0
 16 13  1  0  0  0  0
 17  3  1  0  0  0  0
 18 19  1  0  0  0  0
 19 21  1  0  0  0  0
 20 19  1  0  0  0  0
 22 19  1  0  0  0  0
M  END
