Coordinates from ORCA-job p-CH3O-Ph-N2-BF4-B3LYPG-aug-cc-pVDZ-scan-d09-49-n400
 OpenBabel01151817063D

 22 20  0  0  0  0  0  0  0  0999 V2000
   -1.1251   -0.1215    0.4987 C   0  0  0  0  0  0  0  0  0  0  0  0
    0.0622   -0.1436   -0.2681 C   0  0  0  0  0  0  0  0  0  0  0  0
    0.3954    1.1151   -0.5992 C   0  0  0  0  0  0  0  0  0  0  0  0
   -0.0033    2.3774   -0.3314 C   0  0  0  0  0  0  0  0  0  0  0  0
   -1.1797    2.3285    0.4333 C   0  0  0  0  0  0  0  0  0  0  0  0
   -1.7348    1.0985    0.8452 C   0  0  0  0  0  0  0  0  0  0  0  0
   -1.5142   -1.0792    0.8331 H   0  0  0  0  0  0  0  0  0  0  0  0
    0.6308   -1.0404   -0.4863 H   0  0  0  0  0  0  0  0  0  0  0  0
    0.5118    3.2910   -0.6058 H   0  0  0  0  0  0  0  0  0  0  0  0
   -1.6481    3.2626    0.7396 H   0  0  0  0  0  0  0  0  0  0  0  0
    2.1880    1.1276   -1.8099 N   0  0  0  0  0  0  0  0  0  0  0  0
    3.0851    1.1394   -2.4502 N   0  0  0  0  0  0  0  0  0  0  0  0
    2.8463    1.0667    1.4026 B   0  0  0  0  0  0  0  0  0  0  0  0
    2.8644   -0.0784    0.5276 F   0  0  0  0  0  0  0  0  0  0  0  0
    1.6377    1.0340    2.1449 F   0  0  0  0  0  0  0  0  0  0  0  0
    3.9624    1.0723    2.2262 F   0  0  0  0  0  0  0  0  0  0  0  0
    2.8244    2.2363    0.5628 F   0  0  0  0  0  0  0  0  0  0  0  0
   -2.8583    1.1982    1.5893 O   0  0  0  0  0  0  0  0  0  0  0  0
   -3.4146    0.0061    2.1539 C   0  0  0  0  0  0  0  0  0  0  0  0
   -4.2778    0.3353    2.7381 H   0  0  0  0  0  0  0  0  0  0  0  0
   -2.6868   -0.4882    2.8130 H   0  0  0  0  0  0  0  0  0  0  0  0
   -3.7461   -0.6842    1.3640 H   0  0  0  0  0  0  0  0  0  0  0  0
  1  7  1  0  0  0  0
  1  6  1  0  0  0  0
  2  1  2  0  0  0  0
  3  4  2  0  0  0  0
  3  2  1  0  0  0  0
  4  5  1  0  0  0  0
  5 10  1  0  0  0  0
  5  6  2  0  0  0  0
  6 18  1  0  0  0  0
  8  2  1  0  0  0  0
  9  4  1  0  0  0  0
 12 11  3  0  0  0  0
 13 15  1  0  0  0  0
 13 16  1  0  0  0  0
 14 13  1  0  0  0  0
 17 13  1  0  0  0  0
 18 19  1  0  0  0  0
 19 20  1  0  0  0  0
 19 21  1  0  0  0  0
 22 19  1  0  0  0  0
M  RAD  1   3   2
M  END
