Coordinates from ORCA-job p-CH3O-Ph-N2-BF4-B3LYPG-aug-cc-pVDZ-scan-d09-49-n400
 OpenBabel01151817073D

 22 20  0  0  0  0  0  0  0  0999 V2000
   -1.0278    0.2095    1.1944 C   0  0  0  0  0  0  0  0  0  0  0  0
    0.3578    0.4200    1.1475 C   0  0  0  0  0  0  0  0  0  0  0  0
    0.8307    1.6791    0.8208 C   0  0  0  0  0  0  0  0  0  0  0  0
   -0.0173    2.7426    0.5276 C   0  0  0  0  0  0  0  0  0  0  0  0
   -1.3927    2.5292    0.5746 C   0  0  0  0  0  0  0  0  0  0  0  0
   -1.9055    1.2644    0.9087 C   0  0  0  0  0  0  0  0  0  0  0  0
   -1.3981   -0.7791    1.4532 H   0  0  0  0  0  0  0  0  0  0  0  0
    1.0539   -0.3887    1.3621 H   0  0  0  0  0  0  0  0  0  0  0  0
    0.3969    3.7149    0.2665 H   0  0  0  0  0  0  0  0  0  0  0  0
   -2.0893    3.3365    0.3529 H   0  0  0  0  0  0  0  0  0  0  0  0
    1.4299    0.7793   -2.7461 N   0  0  0  0  0  0  0  0  0  0  0  0
    0.7397    0.3338   -3.4842 N   0  0  0  0  0  0  0  0  0  0  0  0
    4.1865    0.3847    1.2388 B   0  0  0  0  0  0  0  0  0  0  0  0
    3.8078   -0.5070    0.3275 F   0  0  0  0  0  0  0  0  0  0  0  0
    3.8136    0.2219    2.5045 F   0  0  0  0  0  0  0  0  0  0  0  0
    5.0048    1.3731    0.9052 F   0  0  0  0  0  0  0  0  0  0  0  0
    2.1875    1.8933    0.7632 F   0  0  0  0  0  0  0  0  0  0  0  0
   -3.2693    1.1647    0.9266 O   0  0  0  0  0  0  0  0  0  0  0  0
   -3.8461   -0.0938    1.2575 C   0  0  0  0  0  0  0  0  0  0  0  0
   -4.9293    0.0543    1.2124 H   0  0  0  0  0  0  0  0  0  0  0  0
   -3.5616   -0.4088    2.2735 H   0  0  0  0  0  0  0  0  0  0  0  0
   -3.5523   -0.8704    0.5343 H   0  0  0  0  0  0  0  0  0  0  0  0
  1  7  1  0  0  0  0
  2  1  1  0  0  0  0
  2  8  1  0  0  0  0
  3  2  2  0  0  0  0
  4  5  2  0  0  0  0
  4  3  1  0  0  0  0
  5  6  1  0  0  0  0
  6 18  1  0  0  0  0
  6  1  2  0  0  0  0
  9  4  1  0  0  0  0
 10  5  1  0  0  0  0
 12 11  3  0  0  0  0
 13 15  1  0  0  0  0
 14 13  1  0  0  0  0
 16 13  1  0  0  0  0
 17  3  1  0  0  0  0
 18 19  1  0  0  0  0
 19 21  1  0  0  0  0
 20 19  1  0  0  0  0
 22 19  1  0  0  0  0
M  END
