Coordinates from ORCA-job p-CH3O-Ph-N2-BF4-B3LYPG-aug-cc-pVDZ-scan-d09-49-n400
 OpenBabel01151817063D

 22 21  0  0  0  0  0  0  0  0999 V2000
   -1.1078   -0.1386    0.4149 C   0  0  0  0  0  0  0  0  0  0  0  0
    0.0325   -0.1449   -0.3785 C   0  0  0  0  0  0  0  0  0  0  0  0
    0.5350    1.0949   -0.7512 C   0  0  0  0  0  0  0  0  0  0  0  0
    0.0308    2.3380   -0.3696 C   0  0  0  0  0  0  0  0  0  0  0  0
   -1.1066    2.3171    0.4146 C   0  0  0  0  0  0  0  0  0  0  0  0
   -1.6756    1.0882    0.8185 C   0  0  0  0  0  0  0  0  0  0  0  0
   -1.5243   -1.0873    0.7392 H   0  0  0  0  0  0  0  0  0  0  0  0
    0.5283   -1.0689   -0.6607 H   0  0  0  0  0  0  0  0  0  0  0  0
    0.5317    3.2635   -0.6378 H   0  0  0  0  0  0  0  0  0  0  0  0
   -1.5535    3.2433    0.7693 H   0  0  0  0  0  0  0  0  0  0  0  0
    1.8376    1.0915   -1.5567 N   0  0  0  0  0  0  0  0  0  0  0  0
    2.7495    1.0856   -2.1855 N   0  0  0  0  0  0  0  0  0  0  0  0
    2.8527    1.1235    1.4491 B   0  0  0  0  0  0  0  0  0  0  0  0
    2.8479   -0.0728    0.6450 F   0  0  0  0  0  0  0  0  0  0  0  0
    1.6165    1.2045    2.1351 F   0  0  0  0  0  0  0  0  0  0  0  0
    3.9343    1.1283    2.3168 F   0  0  0  0  0  0  0  0  0  0  0  0
    2.9317    2.2329    0.5298 F   0  0  0  0  0  0  0  0  0  0  0  0
   -2.7613    1.1920    1.6037 O   0  0  0  0  0  0  0  0  0  0  0  0
   -3.3489    0.0020    2.1468 C   0  0  0  0  0  0  0  0  0  0  0  0
   -4.1773    0.3475    2.7704 H   0  0  0  0  0  0  0  0  0  0  0  0
   -2.6202   -0.5421    2.7631 H   0  0  0  0  0  0  0  0  0  0  0  0
   -3.7331   -0.6448    1.3453 H   0  0  0  0  0  0  0  0  0  0  0  0
  1  7  1  0  0  0  0
  1  6  2  0  0  0  0
  2  1  1  0  0  0  0
  3  2  2  0  0  0  0
  3  4  1  0  0  0  0
  4  5  2  0  0  0  0
  5 10  1  0  0  0  0
  5  6  1  0  0  0  0
  6 18  1  0  0  0  0
  8  2  1  0  0  0  0
  9  4  1  0  0  0  0
 11  3  1  0  0  0  0
 12 11  1  0  0  0  0
 13 15  1  0  0  0  0
 13 16  1  0  0  0  0
 14 13  1  0  0  0  0
 17 13  1  0  0  0  0
 18 19  1  0  0  0  0
 19 21  1  0  0  0  0
 19 20  1  0  0  0  0
 22 19  1  0  0  0  0
M  RAD  2  11   2  12   3
M  END
