Coordinates from ORCA-job p-CH3O-Ph-N2-BF4-B3LYPG-aug-cc-pVDZ-scan-d09-49-n400
 OpenBabel01151817073D

 22 20  0  0  0  0  0  0  0  0999 V2000
   -1.0419    0.2295    1.2636 C   0  0  0  0  0  0  0  0  0  0  0  0
    0.3432    0.4474    1.2422 C   0  0  0  0  0  0  0  0  0  0  0  0
    0.8150    1.7124    0.9368 C   0  0  0  0  0  0  0  0  0  0  0  0
   -0.0333    2.7750    0.6420 C   0  0  0  0  0  0  0  0  0  0  0  0
   -1.4083    2.5544    0.6638 C   0  0  0  0  0  0  0  0  0  0  0  0
   -1.9200    1.2834    0.9752 C   0  0  0  0  0  0  0  0  0  0  0  0
   -1.4115   -0.7636    1.5052 H   0  0  0  0  0  0  0  0  0  0  0  0
    1.0400   -0.3600    1.4594 H   0  0  0  0  0  0  0  0  0  0  0  0
    0.3802    3.7523    0.3986 H   0  0  0  0  0  0  0  0  0  0  0  0
   -2.1052    3.3606    0.4391 H   0  0  0  0  0  0  0  0  0  0  0  0
    1.5184    0.5834   -3.3821 N   0  0  0  0  0  0  0  0  0  0  0  0
    0.8686    0.1303   -4.1518 N   0  0  0  0  0  0  0  0  0  0  0  0
    4.1902    0.4010    1.2763 B   0  0  0  0  0  0  0  0  0  0  0  0
    3.8480   -0.4185    0.2872 F   0  0  0  0  0  0  0  0  0  0  0  0
    3.7919    0.1303    2.5158 F   0  0  0  0  0  0  0  0  0  0  0  0
    4.9970    1.4274    1.0439 F   0  0  0  0  0  0  0  0  0  0  0  0
    2.1718    1.9330    0.9028 F   0  0  0  0  0  0  0  0  0  0  0  0
   -3.2835    1.1767    0.9689 O   0  0  0  0  0  0  0  0  0  0  0  0
   -3.8592   -0.0882    1.2764 C   0  0  0  0  0  0  0  0  0  0  0  0
   -4.9422    0.0550    1.2147 H   0  0  0  0  0  0  0  0  0  0  0  0
   -3.5900   -0.4129    2.2935 H   0  0  0  0  0  0  0  0  0  0  0  0
   -3.5493   -0.8554    0.5499 H   0  0  0  0  0  0  0  0  0  0  0  0
  1  7  1  0  0  0  0
  2  1  1  0  0  0  0
  2  8  1  0  0  0  0
  3  2  2  0  0  0  0
  4  5  2  0  0  0  0
  4  3  1  0  0  0  0
  5  6  1  0  0  0  0
  6  1  2  0  0  0  0
  9  4  1  0  0  0  0
 10  5  1  0  0  0  0
 12 11  3  0  0  0  0
 13 15  1  0  0  0  0
 14 13  1  0  0  0  0
 16 13  1  0  0  0  0
 17  3  1  0  0  0  0
 18  6  1  0  0  0  0
 18 19  1  0  0  0  0
 19 21  1  0  0  0  0
 20 19  1  0  0  0  0
 22 19  1  0  0  0  0
M  END
