Coordinates from ORCA-job p-CH3O-Ph-N2-BF4-B3LYPG-aug-cc-pVDZ-scan-d09-49-n400
 OpenBabel01151817073D

 22 20  0  0  0  0  0  0  0  0999 V2000
   -1.0279    0.2097    1.1952 C   0  0  0  0  0  0  0  0  0  0  0  0
    0.3577    0.4203    1.1487 C   0  0  0  0  0  0  0  0  0  0  0  0
    0.8306    1.6796    0.8223 C   0  0  0  0  0  0  0  0  0  0  0  0
   -0.0174    2.7430    0.5289 C   0  0  0  0  0  0  0  0  0  0  0  0
   -1.3928    2.5295    0.5756 C   0  0  0  0  0  0  0  0  0  0  0  0
   -1.9056    1.2646    0.9095 C   0  0  0  0  0  0  0  0  0  0  0  0
   -1.3982   -0.7789    1.4539 H   0  0  0  0  0  0  0  0  0  0  0  0
    1.0538   -0.3883    1.3635 H   0  0  0  0  0  0  0  0  0  0  0  0
    0.3968    3.7154    0.2680 H   0  0  0  0  0  0  0  0  0  0  0  0
   -2.0894    3.3367    0.3538 H   0  0  0  0  0  0  0  0  0  0  0  0
    1.4308    0.7769   -2.7542 N   0  0  0  0  0  0  0  0  0  0  0  0
    0.7406    0.3312   -3.4922 N   0  0  0  0  0  0  0  0  0  0  0  0
    4.1864    0.3848    1.2394 B   0  0  0  0  0  0  0  0  0  0  0  0
    3.8082   -0.5056    0.3267 F   0  0  0  0  0  0  0  0  0  0  0  0
    3.8131    0.2203    2.5047 F   0  0  0  0  0  0  0  0  0  0  0  0
    5.0048    1.3739    0.9075 F   0  0  0  0  0  0  0  0  0  0  0  0
    2.1874    1.8939    0.7650 F   0  0  0  0  0  0  0  0  0  0  0  0
   -3.2694    1.1648    0.9270 O   0  0  0  0  0  0  0  0  0  0  0  0
   -3.8462   -0.0938    1.2577 C   0  0  0  0  0  0  0  0  0  0  0  0
   -4.9293    0.0543    1.2123 H   0  0  0  0  0  0  0  0  0  0  0  0
   -3.5618   -0.4088    2.2737 H   0  0  0  0  0  0  0  0  0  0  0  0
   -3.5521   -0.8703    0.5345 H   0  0  0  0  0  0  0  0  0  0  0  0
  1  7  1  0  0  0  0
  2  1  1  0  0  0  0
  2  8  1  0  0  0  0
  3  2  2  0  0  0  0
  4  5  2  0  0  0  0
  4  3  1  0  0  0  0
  5  6  1  0  0  0  0
  6 18  1  0  0  0  0
  6  1  2  0  0  0  0
  9  4  1  0  0  0  0
 10  5  1  0  0  0  0
 12 11  3  0  0  0  0
 13 15  1  0  0  0  0
 14 13  1  0  0  0  0
 16 13  1  0  0  0  0
 17  3  1  0  0  0  0
 18 19  1  0  0  0  0
 19 21  1  0  0  0  0
 20 19  1  0  0  0  0
 22 19  1  0  0  0  0
M  END
