Coordinates from ORCA-job p-CH3O-Ph-N2-BF4-B3LYPG-aug-cc-pVDZ-scan-d09-49-n400
 OpenBabel01151817073D

 22 20  0  0  0  0  0  0  0  0999 V2000
   -1.0410    0.2285    1.2600 C   0  0  0  0  0  0  0  0  0  0  0  0
    0.3441    0.4462    1.2377 C   0  0  0  0  0  0  0  0  0  0  0  0
    0.8161    1.7108    0.9307 C   0  0  0  0  0  0  0  0  0  0  0  0
   -0.0324    2.7729    0.6341 C   0  0  0  0  0  0  0  0  0  0  0  0
   -1.4073    2.5525    0.6568 C   0  0  0  0  0  0  0  0  0  0  0  0
   -1.9191    1.2820    0.9705 C   0  0  0  0  0  0  0  0  0  0  0  0
   -1.4105   -0.7643    1.5029 H   0  0  0  0  0  0  0  0  0  0  0  0
    1.0410   -0.3611    1.4552 H   0  0  0  0  0  0  0  0  0  0  0  0
    0.3810    3.7496    0.3883 H   0  0  0  0  0  0  0  0  0  0  0  0
   -2.1042    3.3584    0.4311 H   0  0  0  0  0  0  0  0  0  0  0  0
    1.5116    0.5976   -3.3411 N   0  0  0  0  0  0  0  0  0  0  0  0
    0.8577    0.1451   -4.1076 N   0  0  0  0  0  0  0  0  0  0  0  0
    4.1909    0.3990    1.2736 B   0  0  0  0  0  0  0  0  0  0  0  0
    3.8468   -0.4248    0.2887 F   0  0  0  0  0  0  0  0  0  0  0  0
    3.7936    0.1344    2.5148 F   0  0  0  0  0  0  0  0  0  0  0  0
    4.9984    1.4235    1.0356 F   0  0  0  0  0  0  0  0  0  0  0  0
    2.1728    1.9309    0.8950 F   0  0  0  0  0  0  0  0  0  0  0  0
   -3.2826    1.1756    0.9652 O   0  0  0  0  0  0  0  0  0  0  0  0
   -3.8583   -0.0888    1.2748 C   0  0  0  0  0  0  0  0  0  0  0  0
   -4.9413    0.0545    1.2136 H   0  0  0  0  0  0  0  0  0  0  0  0
   -3.5885   -0.4121    2.2923 H   0  0  0  0  0  0  0  0  0  0  0  0
   -3.5490   -0.8571    0.5492 H   0  0  0  0  0  0  0  0  0  0  0  0
  1  7  1  0  0  0  0
  2  1  1  0  0  0  0
  2  8  1  0  0  0  0
  3  2  2  0  0  0  0
  4  5  2  0  0  0  0
  4  3  1  0  0  0  0
  5  6  1  0  0  0  0
  6  1  2  0  0  0  0
  9  4  1  0  0  0  0
 10  5  1  0  0  0  0
 12 11  3  0  0  0  0
 13 15  1  0  0  0  0
 14 13  1  0  0  0  0
 16 13  1  0  0  0  0
 17  3  1  0  0  0  0
 18  6  1  0  0  0  0
 18 19  1  0  0  0  0
 19 21  1  0  0  0  0
 20 19  1  0  0  0  0
 22 19  1  0  0  0  0
M  END
