Coordinates from ORCA-job p-CH3O-Ph-N2-BF4-B3LYPG-aug-cc-pVDZ-scan-d09-49-n400
 OpenBabel01151817063D

 22 20  0  0  0  0  0  0  0  0999 V2000
   -1.0050    0.1902    1.1180 C   0  0  0  0  0  0  0  0  0  0  0  0
    0.3803    0.3953    1.0492 C   0  0  0  0  0  0  0  0  0  0  0  0
    0.8539    1.6418    0.6809 C   0  0  0  0  0  0  0  0  0  0  0  0
    0.0057    2.7067    0.3966 C   0  0  0  0  0  0  0  0  0  0  0  0
   -1.3696    2.5008    0.4659 C   0  0  0  0  0  0  0  0  0  0  0  0
   -1.8833    1.2427    0.8243 C   0  0  0  0  0  0  0  0  0  0  0  0
   -1.3753   -0.7911    1.4028 H   0  0  0  0  0  0  0  0  0  0  0  0
    1.0755   -0.4119    1.2714 H   0  0  0  0  0  0  0  0  0  0  0  0
    0.4206    3.6736    0.1175 H   0  0  0  0  0  0  0  0  0  0  0  0
   -2.0658    3.3087    0.2459 H   0  0  0  0  0  0  0  0  0  0  0  0
    1.2375    0.9815   -1.9449 N   0  0  0  0  0  0  0  0  0  0  0  0
    0.5542    0.5791   -2.7143 N   0  0  0  0  0  0  0  0  0  0  0  0
    4.1908    0.3615    1.1898 B   0  0  0  0  0  0  0  0  0  0  0  0
    3.7659   -0.6043    0.3798 F   0  0  0  0  0  0  0  0  0  0  0  0
    3.8541    0.3291    2.4752 F   0  0  0  0  0  0  0  0  0  0  0  0
    5.0186    1.2935    0.7382 F   0  0  0  0  0  0  0  0  0  0  0  0
    2.2081    1.8569    0.6245 F   0  0  0  0  0  0  0  0  0  0  0  0
   -3.2465    1.1487    0.8617 O   0  0  0  0  0  0  0  0  0  0  0  0
   -3.8237   -0.1030    1.2179 C   0  0  0  0  0  0  0  0  0  0  0  0
   -4.9068    0.0479    1.1816 H   0  0  0  0  0  0  0  0  0  0  0  0
   -3.5297   -0.4030    2.2357 H   0  0  0  0  0  0  0  0  0  0  0  0
   -3.5394   -0.8912    0.5037 H   0  0  0  0  0  0  0  0  0  0  0  0
  1  7  1  0  0  0  0
  2  1  1  0  0  0  0
  2  8  1  0  0  0  0
  3  2  2  0  0  0  0
  4  5  2  0  0  0  0
  4  3  1  0  0  0  0
  5  6  1  0  0  0  0
  6 18  1  0  0  0  0
  6  1  2  0  0  0  0
  9  4  1  0  0  0  0
 10  5  1  0  0  0  0
 12 11  3  0  0  0  0
 13 15  1  0  0  0  0
 14 13  1  0  0  0  0
 16 13  1  0  0  0  0
 17  3  1  0  0  0  0
 18 19  1  0  0  0  0
 19 21  1  0  0  0  0
 20 19  1  0  0  0  0
 22 19  1  0  0  0  0
M  END
