Coordinates from ORCA-job p-CH3O-Ph-N2-BF4-B3LYPG-aug-cc-pVDZ-scan-d09-49-n400
 OpenBabel01151817073D

 22 20  0  0  0  0  0  0  0  0999 V2000
   -1.0440    0.2333    1.2747 C   0  0  0  0  0  0  0  0  0  0  0  0
    0.3410    0.4522    1.2584 C   0  0  0  0  0  0  0  0  0  0  0  0
    0.8128    1.7195    0.9630 C   0  0  0  0  0  0  0  0  0  0  0  0
   -0.0355    2.7838    0.6741 C   0  0  0  0  0  0  0  0  0  0  0  0
   -1.4103    2.5622    0.6908 C   0  0  0  0  0  0  0  0  0  0  0  0
   -1.9220    1.2887    0.9916 C   0  0  0  0  0  0  0  0  0  0  0  0
   -1.4136   -0.7618    1.5084 H   0  0  0  0  0  0  0  0  0  0  0  0
    1.0378   -0.3562    1.4721 H   0  0  0  0  0  0  0  0  0  0  0  0
    0.3780    3.7632    0.4392 H   0  0  0  0  0  0  0  0  0  0  0  0
   -2.1072    3.3696    0.4703 H   0  0  0  0  0  0  0  0  0  0  0  0
    1.5288    0.5257   -3.5361 N   0  0  0  0  0  0  0  0  0  0  0  0
    0.8928    0.0698   -4.3157 N   0  0  0  0  0  0  0  0  0  0  0  0
    4.1898    0.4100    1.2906 B   0  0  0  0  0  0  0  0  0  0  0  0
    3.8513   -0.3937    0.2873 F   0  0  0  0  0  0  0  0  0  0  0  0
    3.7903    0.1175    2.5247 F   0  0  0  0  0  0  0  0  0  0  0  0
    4.9943    1.4423    1.0769 F   0  0  0  0  0  0  0  0  0  0  0  0
    2.1696    1.9416    0.9362 F   0  0  0  0  0  0  0  0  0  0  0  0
   -3.2854    1.1812    0.9812 O   0  0  0  0  0  0  0  0  0  0  0  0
   -3.8611   -0.0862    1.2782 C   0  0  0  0  0  0  0  0  0  0  0  0
   -4.9441    0.0567    1.2148 H   0  0  0  0  0  0  0  0  0  0  0  0
   -3.5944   -0.4180    2.2937 H   0  0  0  0  0  0  0  0  0  0  0  0
   -3.5489   -0.8480    0.5470 H   0  0  0  0  0  0  0  0  0  0  0  0
  1  7  1  0  0  0  0
  2  1  1  0  0  0  0
  2  8  1  0  0  0  0
  3  2  2  0  0  0  0
  4  5  2  0  0  0  0
  4  3  1  0  0  0  0
  5  6  1  0  0  0  0
  6  1  2  0  0  0  0
  9  4  1  0  0  0  0
 10  5  1  0  0  0  0
 12 11  3  0  0  0  0
 13 15  1  0  0  0  0
 14 13  1  0  0  0  0
 16 13  1  0  0  0  0
 17  3  1  0  0  0  0
 18  6  1  0  0  0  0
 18 19  1  0  0  0  0
 19 21  1  0  0  0  0
 20 19  1  0  0  0  0
 22 19  1  0  0  0  0
M  END
