Coordinates from ORCA-job p-CH3O-Ph-N2-BF4-B3LYPG-aug-cc-pVDZ-scan-d09-49-n400
 OpenBabel01151817073D

 22 20  0  0  0  0  0  0  0  0999 V2000
   -1.0352    0.2227    1.2368 C   0  0  0  0  0  0  0  0  0  0  0  0
    0.3500    0.4388    1.2065 C   0  0  0  0  0  0  0  0  0  0  0  0
    0.8216    1.7016    0.8917 C   0  0  0  0  0  0  0  0  0  0  0  0
   -0.0272    2.7632    0.5945 C   0  0  0  0  0  0  0  0  0  0  0  0
   -1.4023    2.5443    0.6251 C   0  0  0  0  0  0  0  0  0  0  0  0
   -1.9137    1.2758    0.9471 C   0  0  0  0  0  0  0  0  0  0  0  0
   -1.4044   -0.7687    1.4861 H   0  0  0  0  0  0  0  0  0  0  0  0
    1.0470   -0.3683    1.4240 H   0  0  0  0  0  0  0  0  0  0  0  0
    0.3860    3.7383    0.3423 H   0  0  0  0  0  0  0  0  0  0  0  0
   -2.0995    3.3499    0.3994 H   0  0  0  0  0  0  0  0  0  0  0  0
    1.4809    0.6656   -3.1230 N   0  0  0  0  0  0  0  0  0  0  0  0
    0.8061    0.2134   -3.8713 N   0  0  0  0  0  0  0  0  0  0  0  0
    4.1895    0.3909    1.2600 B   0  0  0  0  0  0  0  0  0  0  0  0
    3.8335   -0.4551    0.2983 F   0  0  0  0  0  0  0  0  0  0  0  0
    3.7982    0.1605    2.5097 F   0  0  0  0  0  0  0  0  0  0  0  0
    5.0029    1.4031    0.9912 F   0  0  0  0  0  0  0  0  0  0  0  0
    2.1784    1.9204    0.8481 F   0  0  0  0  0  0  0  0  0  0  0  0
   -3.2773    1.1707    0.9492 O   0  0  0  0  0  0  0  0  0  0  0  0
   -3.8527   -0.0918    1.2671 C   0  0  0  0  0  0  0  0  0  0  0  0
   -4.9359    0.0523    1.2107 H   0  0  0  0  0  0  0  0  0  0  0  0
   -3.5782   -0.4110    2.2846 H   0  0  0  0  0  0  0  0  0  0  0  0
   -3.5478   -0.8634    0.5433 H   0  0  0  0  0  0  0  0  0  0  0  0
  1  7  1  0  0  0  0
  2  1  1  0  0  0  0
  2  8  1  0  0  0  0
  3  2  2  0  0  0  0
  4  5  2  0  0  0  0
  4  3  1  0  0  0  0
  5  6  1  0  0  0  0
  6 18  1  0  0  0  0
  6  1  2  0  0  0  0
  9  4  1  0  0  0  0
 10  5  1  0  0  0  0
 12 11  3  0  0  0  0
 13 15  1  0  0  0  0
 14 13  1  0  0  0  0
 16 13  1  0  0  0  0
 17  3  1  0  0  0  0
 18 19  1  0  0  0  0
 19 21  1  0  0  0  0
 20 19  1  0  0  0  0
 22 19  1  0  0  0  0
M  END
