Coordinates from ORCA-job p-CH3O-Ph-N2-BF4-B3LYPG-aug-cc-pVDZ-scan-d09-49-n400
 OpenBabel01151817063D

 22 20  0  0  0  0  0  0  0  0999 V2000
   -1.0065    0.1907    1.1210 C   0  0  0  0  0  0  0  0  0  0  0  0
    0.3789    0.3957    1.0532 C   0  0  0  0  0  0  0  0  0  0  0  0
    0.8526    1.6433    0.6883 C   0  0  0  0  0  0  0  0  0  0  0  0
    0.0047    2.7078    0.4021 C   0  0  0  0  0  0  0  0  0  0  0  0
   -1.3707    2.5017    0.4704 C   0  0  0  0  0  0  0  0  0  0  0  0
   -1.8845    1.2435    0.8280 C   0  0  0  0  0  0  0  0  0  0  0  0
   -1.3769   -0.7911    1.4042 H   0  0  0  0  0  0  0  0  0  0  0  0
    1.0742   -0.4117    1.2744 H   0  0  0  0  0  0  0  0  0  0  0  0
    0.4198    3.6747    0.1233 H   0  0  0  0  0  0  0  0  0  0  0  0
   -2.0669    3.3095    0.2497 H   0  0  0  0  0  0  0  0  0  0  0  0
    1.2456    0.9753   -1.9760 N   0  0  0  0  0  0  0  0  0  0  0  0
    0.5664    0.5697   -2.7472 N   0  0  0  0  0  0  0  0  0  0  0  0
    4.1907    0.3627    1.1913 B   0  0  0  0  0  0  0  0  0  0  0  0
    3.7679   -0.6021    0.3790 F   0  0  0  0  0  0  0  0  0  0  0  0
    3.8533    0.3270    2.4764 F   0  0  0  0  0  0  0  0  0  0  0  0
    5.0175    1.2969    0.7422 F   0  0  0  0  0  0  0  0  0  0  0  0
    2.2070    1.8575    0.6299 F   0  0  0  0  0  0  0  0  0  0  0  0
   -3.2478    1.1494    0.8647 O   0  0  0  0  0  0  0  0  0  0  0  0
   -3.8251   -0.1024    1.2201 C   0  0  0  0  0  0  0  0  0  0  0  0
   -4.9082    0.0487    1.1837 H   0  0  0  0  0  0  0  0  0  0  0  0
   -3.5312   -0.4032    2.2376 H   0  0  0  0  0  0  0  0  0  0  0  0
   -3.5409   -0.8902    0.5053 H   0  0  0  0  0  0  0  0  0  0  0  0
  1  7  1  0  0  0  0
  2  1  1  0  0  0  0
  2  8  1  0  0  0  0
  3  2  2  0  0  0  0
  4  5  2  0  0  0  0
  4  3  1  0  0  0  0
  5  6  1  0  0  0  0
  6 18  1  0  0  0  0
  6  1  2  0  0  0  0
  9  4  1  0  0  0  0
 10  5  1  0  0  0  0
 12 11  3  0  0  0  0
 13 15  1  0  0  0  0
 14 13  1  0  0  0  0
 16 13  1  0  0  0  0
 17  3  1  0  0  0  0
 18 19  1  0  0  0  0
 19 21  1  0  0  0  0
 20 19  1  0  0  0  0
 22 19  1  0  0  0  0
M  END
