Coordinates from ORCA-job p-CH3O-Ph-N2-BF4-B3LYPG-aug-cc-pVDZ-scan-d09-49-n400
 OpenBabel01151817073D

 22 20  0  0  0  0  0  0  0  0999 V2000
   -1.0404    0.2279    1.2574 C   0  0  0  0  0  0  0  0  0  0  0  0
    0.3447    0.4454    1.2342 C   0  0  0  0  0  0  0  0  0  0  0  0
    0.8166    1.7097    0.9264 C   0  0  0  0  0  0  0  0  0  0  0  0
   -0.0318    2.7718    0.6298 C   0  0  0  0  0  0  0  0  0  0  0  0
   -1.4068    2.5516    0.6533 C   0  0  0  0  0  0  0  0  0  0  0  0
   -1.9185    1.2814    0.9679 C   0  0  0  0  0  0  0  0  0  0  0  0
   -1.4099   -0.7648    1.5010 H   0  0  0  0  0  0  0  0  0  0  0  0
    1.0416   -0.3619    1.4517 H   0  0  0  0  0  0  0  0  0  0  0  0
    0.3816    3.7483    0.3833 H   0  0  0  0  0  0  0  0  0  0  0  0
   -2.1037    3.3574    0.4276 H   0  0  0  0  0  0  0  0  0  0  0  0
    1.5082    0.6052   -3.3169 N   0  0  0  0  0  0  0  0  0  0  0  0
    0.8519    0.1527   -4.0814 N   0  0  0  0  0  0  0  0  0  0  0  0
    4.1910    0.3981    1.2721 B   0  0  0  0  0  0  0  0  0  0  0  0
    3.8458   -0.4285    0.2899 F   0  0  0  0  0  0  0  0  0  0  0  0
    3.7942    0.1374    2.5143 F   0  0  0  0  0  0  0  0  0  0  0  0
    4.9989    1.4214    1.0306 F   0  0  0  0  0  0  0  0  0  0  0  0
    2.1734    1.9297    0.8899 F   0  0  0  0  0  0  0  0  0  0  0  0
   -3.2820    1.1750    0.9634 O   0  0  0  0  0  0  0  0  0  0  0  0
   -3.8577   -0.0891    1.2740 C   0  0  0  0  0  0  0  0  0  0  0  0
   -4.9408    0.0542    1.2133 H   0  0  0  0  0  0  0  0  0  0  0  0
   -3.5875   -0.4119    2.2914 H   0  0  0  0  0  0  0  0  0  0  0  0
   -3.5490   -0.8578    0.5486 H   0  0  0  0  0  0  0  0  0  0  0  0
  1  7  1  0  0  0  0
  2  1  1  0  0  0  0
  2  8  1  0  0  0  0
  3  2  2  0  0  0  0
  4  5  2  0  0  0  0
  4  3  1  0  0  0  0
  5  6  1  0  0  0  0
  6  1  2  0  0  0  0
  9  4  1  0  0  0  0
 10  5  1  0  0  0  0
 12 11  3  0  0  0  0
 13 15  1  0  0  0  0
 14 13  1  0  0  0  0
 16 13  1  0  0  0  0
 17  3  1  0  0  0  0
 18  6  1  0  0  0  0
 18 19  1  0  0  0  0
 19 21  1  0  0  0  0
 20 19  1  0  0  0  0
 22 19  1  0  0  0  0
M  END
