Coordinates from ORCA-job p-CH3O-Ph-N2-BF4-B3LYPG-aug-cc-pVDZ-scan-d09-49-n400
 OpenBabel01151817063D

 22 20  0  0  0  0  0  0  0  0999 V2000
   -1.1212   -0.1081    0.5341 C   0  0  0  0  0  0  0  0  0  0  0  0
    0.0902   -0.1251   -0.2069 C   0  0  0  0  0  0  0  0  0  0  0  0
    0.3745    1.1379   -0.5279 C   0  0  0  0  0  0  0  0  0  0  0  0
   -0.0040    2.4018   -0.2837 C   0  0  0  0  0  0  0  0  0  0  0  0
   -1.2016    2.3406    0.4564 C   0  0  0  0  0  0  0  0  0  0  0  0
   -1.7510    1.1059    0.8641 C   0  0  0  0  0  0  0  0  0  0  0  0
   -1.5065   -1.0723    0.8553 H   0  0  0  0  0  0  0  0  0  0  0  0
    0.6845   -1.0097   -0.4059 H   0  0  0  0  0  0  0  0  0  0  0  0
    0.5118    3.3156   -0.5556 H   0  0  0  0  0  0  0  0  0  0  0  0
   -1.6861    3.2741    0.7398 H   0  0  0  0  0  0  0  0  0  0  0  0
    2.3349    1.1279   -2.0204 N   0  0  0  0  0  0  0  0  0  0  0  0
    3.2586    1.1331   -2.6224 N   0  0  0  0  0  0  0  0  0  0  0  0
    2.8070    1.0376    1.3979 B   0  0  0  0  0  0  0  0  0  0  0  0
    2.8147   -0.1134    0.5356 F   0  0  0  0  0  0  0  0  0  0  0  0
    1.6333    0.9879    2.1950 F   0  0  0  0  0  0  0  0  0  0  0  0
    3.9583    1.0843    2.1684 F   0  0  0  0  0  0  0  0  0  0  0  0
    2.7139    2.1946    0.5427 F   0  0  0  0  0  0  0  0  0  0  0  0
   -2.8901    1.1961    1.5851 O   0  0  0  0  0  0  0  0  0  0  0  0
   -3.4355    0.0006    2.1539 C   0  0  0  0  0  0  0  0  0  0  0  0
   -4.3133    0.3212    2.7208 H   0  0  0  0  0  0  0  0  0  0  0  0
   -2.7098   -0.4743    2.8293 H   0  0  0  0  0  0  0  0  0  0  0  0
   -3.7428   -0.7029    1.3658 H   0  0  0  0  0  0  0  0  0  0  0  0
  1  7  1  0  0  0  0
  1  6  1  0  0  0  0
  2  1  2  0  0  0  0
  3  4  2  0  0  0  0
  3  2  1  0  0  0  0
  4  5  1  0  0  0  0
  5 10  1  0  0  0  0
  5  6  2  0  0  0  0
  6 18  1  0  0  0  0
  8  2  1  0  0  0  0
  9  4  1  0  0  0  0
 12 11  3  0  0  0  0
 13 16  1  0  0  0  0
 13 15  1  0  0  0  0
 14 13  1  0  0  0  0
 17 13  1  0  0  0  0
 18 19  1  0  0  0  0
 19 20  1  0  0  0  0
 19 21  1  0  0  0  0
 22 19  1  0  0  0  0
M  RAD  1   3   2
M  END
