Coordinates from ORCA-job p-CH3O-Ph-N2-BF4-B3LYPG-aug-cc-pVDZ-scan-d09-49-n400
 OpenBabel01151817063D

 22 20  0  0  0  0  0  0  0  0999 V2000
   -1.0223    0.1983    1.1589 C   0  0  0  0  0  0  0  0  0  0  0  0
    0.3635    0.4044    1.0986 C   0  0  0  0  0  0  0  0  0  0  0  0
    0.8376    1.6594    0.7584 C   0  0  0  0  0  0  0  0  0  0  0  0
   -0.0099    2.7242    0.4692 C   0  0  0  0  0  0  0  0  0  0  0  0
   -1.3855    2.5158    0.5296 C   0  0  0  0  0  0  0  0  0  0  0  0
   -1.8993    1.2541    0.8744 C   0  0  0  0  0  0  0  0  0  0  0  0
   -1.3935   -0.7872    1.4277 H   0  0  0  0  0  0  0  0  0  0  0  0
    1.0584   -0.4050    1.3142 H   0  0  0  0  0  0  0  0  0  0  0  0
    0.4048    3.6946    0.2017 H   0  0  0  0  0  0  0  0  0  0  0  0
   -2.0816    3.3243    0.3111 H   0  0  0  0  0  0  0  0  0  0  0  0
    1.3749    0.8786   -2.4088 N   0  0  0  0  0  0  0  0  0  0  0  0
    0.6865    0.4466   -3.1566 N   0  0  0  0  0  0  0  0  0  0  0  0
    4.1893    0.3763    1.2182 B   0  0  0  0  0  0  0  0  0  0  0  0
    3.7920   -0.5595    0.3604 F   0  0  0  0  0  0  0  0  0  0  0  0
    3.8336    0.2833    2.4955 F   0  0  0  0  0  0  0  0  0  0  0  0
    5.0098    1.3393    0.8212 F   0  0  0  0  0  0  0  0  0  0  0  0
    2.1937    1.8712    0.6943 F   0  0  0  0  0  0  0  0  0  0  0  0
   -3.2631    1.1589    0.9048 O   0  0  0  0  0  0  0  0  0  0  0  0
   -3.8409   -0.0960    1.2478 C   0  0  0  0  0  0  0  0  0  0  0  0
   -4.9240    0.0552    1.2108 H   0  0  0  0  0  0  0  0  0  0  0  0
   -3.5489   -0.4058    2.2633 H   0  0  0  0  0  0  0  0  0  0  0  0
   -3.5554   -0.8776    0.5268 H   0  0  0  0  0  0  0  0  0  0  0  0
  1  7  1  0  0  0  0
  2  1  1  0  0  0  0
  2  8  1  0  0  0  0
  3  2  2  0  0  0  0
  4  5  2  0  0  0  0
  4  3  1  0  0  0  0
  5  6  1  0  0  0  0
  6 18  1  0  0  0  0
  6  1  2  0  0  0  0
  9  4  1  0  0  0  0
 10  5  1  0  0  0  0
 12 11  3  0  0  0  0
 13 15  1  0  0  0  0
 14 13  1  0  0  0  0
 16 13  1  0  0  0  0
 17  3  1  0  0  0  0
 18 19  1  0  0  0  0
 19 21  1  0  0  0  0
 20 19  1  0  0  0  0
 22 19  1  0  0  0  0
M  END
