Coordinates from ORCA-job p-CH3O-Ph-N2-BF4-B3LYPG-aug-cc-pVDZ-scan-d09-49-n400
 OpenBabel01151817063D

 22 20  0  0  0  0  0  0  0  0999 V2000
   -1.1337   -0.1294    0.4839 C   0  0  0  0  0  0  0  0  0  0  0  0
    0.0453   -0.1479   -0.2821 C   0  0  0  0  0  0  0  0  0  0  0  0
    0.4340    1.1043   -0.6268 C   0  0  0  0  0  0  0  0  0  0  0  0
   -0.0021    2.3607   -0.3302 C   0  0  0  0  0  0  0  0  0  0  0  0
   -1.1730    2.3217    0.4313 C   0  0  0  0  0  0  0  0  0  0  0  0
   -1.7357    1.0930    0.8372 C   0  0  0  0  0  0  0  0  0  0  0  0
   -1.5343   -1.0829    0.8160 H   0  0  0  0  0  0  0  0  0  0  0  0
    0.5936   -1.0543   -0.5139 H   0  0  0  0  0  0  0  0  0  0  0  0
    0.5101    3.2776   -0.6005 H   0  0  0  0  0  0  0  0  0  0  0  0
   -1.6394    3.2530    0.7474 H   0  0  0  0  0  0  0  0  0  0  0  0
    2.0698    1.1124   -1.6558 N   0  0  0  0  0  0  0  0  0  0  0  0
    2.9422    1.1170   -2.3287 N   0  0  0  0  0  0  0  0  0  0  0  0
    2.9185    1.0944    1.3915 B   0  0  0  0  0  0  0  0  0  0  0  0
    2.9230   -0.0608    0.5262 F   0  0  0  0  0  0  0  0  0  0  0  0
    1.7158    1.0825    2.1376 F   0  0  0  0  0  0  0  0  0  0  0  0
    4.0411    1.0992    2.2053 F   0  0  0  0  0  0  0  0  0  0  0  0
    2.9062    2.2534    0.5331 F   0  0  0  0  0  0  0  0  0  0  0  0
   -2.8574    1.1958    1.5828 O   0  0  0  0  0  0  0  0  0  0  0  0
   -3.4311    0.0046    2.1313 C   0  0  0  0  0  0  0  0  0  0  0  0
   -4.2921    0.3384    2.7162 H   0  0  0  0  0  0  0  0  0  0  0  0
   -2.7126   -0.5070    2.7873 H   0  0  0  0  0  0  0  0  0  0  0  0
   -3.7682   -0.6725    1.3326 H   0  0  0  0  0  0  0  0  0  0  0  0
  1  7  1  0  0  0  0
  1  6  1  0  0  0  0
  2  1  2  0  0  0  0
  3  4  2  0  0  0  0
  3  2  1  0  0  0  0
  4  5  1  0  0  0  0
  5 10  1  0  0  0  0
  5  6  2  0  0  0  0
  6 18  1  0  0  0  0
  8  2  1  0  0  0  0
  9  4  1  0  0  0  0
 12 11  3  0  0  0  0
 13 15  1  0  0  0  0
 13 16  1  0  0  0  0
 14 13  1  0  0  0  0
 17 13  1  0  0  0  0
 18 19  1  0  0  0  0
 19 20  1  0  0  0  0
 19 21  1  0  0  0  0
 22 19  1  0  0  0  0
M  RAD  1   3   2
M  END
