Coordinates from ORCA-job p-CH3O-Ph-N2-BF4-B3LYPG-aug-cc-pVDZ-scan-d09-49-n400
 OpenBabel01151817063D

 22 20  0  0  0  0  0  0  0  0999 V2000
   -1.0163    0.1944    1.1440 C   0  0  0  0  0  0  0  0  0  0  0  0
    0.3694    0.3995    1.0812 C   0  0  0  0  0  0  0  0  0  0  0  0
    0.8440    1.6521    0.7328 C   0  0  0  0  0  0  0  0  0  0  0  0
   -0.0033    2.7169    0.4432 C   0  0  0  0  0  0  0  0  0  0  0  0
   -1.3789    2.5097    0.5063 C   0  0  0  0  0  0  0  0  0  0  0  0
   -1.8932    1.2495    0.8560 C   0  0  0  0  0  0  0  0  0  0  0  0
   -1.3878   -0.7896    1.4179 H   0  0  0  0  0  0  0  0  0  0  0  0
    1.0642   -0.4092    1.2997 H   0  0  0  0  0  0  0  0  0  0  0  0
    0.4115    3.6863    0.1724 H   0  0  0  0  0  0  0  0  0  0  0  0
   -2.0748    3.3181    0.2867 H   0  0  0  0  0  0  0  0  0  0  0  0
    1.3234    0.9189   -2.2466 N   0  0  0  0  0  0  0  0  0  0  0  0
    0.6322    0.4973   -2.9979 N   0  0  0  0  0  0  0  0  0  0  0  0
    4.1914    0.3721    1.2095 B   0  0  0  0  0  0  0  0  0  0  0  0
    3.7841   -0.5789    0.3733 F   0  0  0  0  0  0  0  0  0  0  0  0
    3.8444    0.3061    2.4908 F   0  0  0  0  0  0  0  0  0  0  0  0
    5.0135    1.3230    0.7876 F   0  0  0  0  0  0  0  0  0  0  0  0
    2.1997    1.8635    0.6692 F   0  0  0  0  0  0  0  0  0  0  0  0
   -3.2569    1.1552    0.8884 O   0  0  0  0  0  0  0  0  0  0  0  0
   -3.8352   -0.0981    1.2365 C   0  0  0  0  0  0  0  0  0  0  0  0
   -4.9181    0.0535    1.1997 H   0  0  0  0  0  0  0  0  0  0  0  0
   -3.5426   -0.4044    2.2528 H   0  0  0  0  0  0  0  0  0  0  0  0
   -3.5505   -0.8825    0.5181 H   0  0  0  0  0  0  0  0  0  0  0  0
  1  7  1  0  0  0  0
  2  1  1  0  0  0  0
  2  8  1  0  0  0  0
  3  2  2  0  0  0  0
  4  5  2  0  0  0  0
  4  3  1  0  0  0  0
  5  6  1  0  0  0  0
  6 18  1  0  0  0  0
  6  1  2  0  0  0  0
  9  4  1  0  0  0  0
 10  5  1  0  0  0  0
 12 11  3  0  0  0  0
 13 15  1  0  0  0  0
 14 13  1  0  0  0  0
 16 13  1  0  0  0  0
 17  3  1  0  0  0  0
 18 19  1  0  0  0  0
 19 21  1  0  0  0  0
 20 19  1  0  0  0  0
 22 19  1  0  0  0  0
M  END
