Coordinates from ORCA-job p-CH3O-Ph-N2-BF4-B3LYPG-aug-cc-pVDZ-scan-d09-49-n400
 OpenBabel01151817063D

 22 20  0  0  0  0  0  0  0  0999 V2000
   -1.1205   -0.1155    0.5135 C   0  0  0  0  0  0  0  0  0  0  0  0
    0.0774   -0.1369   -0.2435 C   0  0  0  0  0  0  0  0  0  0  0  0
    0.3821    1.1246   -0.5691 C   0  0  0  0  0  0  0  0  0  0  0  0
   -0.0005    2.3889   -0.3141 C   0  0  0  0  0  0  0  0  0  0  0  0
   -1.1859    2.3339    0.4423 C   0  0  0  0  0  0  0  0  0  0  0  0
   -1.7380    1.1022    0.8539 C   0  0  0  0  0  0  0  0  0  0  0  0
   -1.5066   -1.0764    0.8431 H   0  0  0  0  0  0  0  0  0  0  0  0
    0.6587   -1.0279   -0.4517 H   0  0  0  0  0  0  0  0  0  0  0  0
    0.5155    3.3015   -0.5893 H   0  0  0  0  0  0  0  0  0  0  0  0
   -1.6605    3.2687    0.7376 H   0  0  0  0  0  0  0  0  0  0  0  0
    2.2645    1.1326   -1.9313 N   0  0  0  0  0  0  0  0  0  0  0  0
    3.1816    1.1440   -2.5433 N   0  0  0  0  0  0  0  0  0  0  0  0
    2.8092    1.0498    1.4066 B   0  0  0  0  0  0  0  0  0  0  0  0
    2.8287   -0.0936    0.5321 F   0  0  0  0  0  0  0  0  0  0  0  0
    1.6108    1.0034    2.1665 F   0  0  0  0  0  0  0  0  0  0  0  0
    3.9359    1.0724    2.2145 F   0  0  0  0  0  0  0  0  0  0  0  0
    2.7585    2.2182    0.5658 F   0  0  0  0  0  0  0  0  0  0  0  0
   -2.8671    1.1983    1.5898 O   0  0  0  0  0  0  0  0  0  0  0  0
   -3.4156    0.0052    2.1603 C   0  0  0  0  0  0  0  0  0  0  0  0
   -4.2839    0.3309    2.7389 H   0  0  0  0  0  0  0  0  0  0  0  0
   -2.6860   -0.4784    2.8252 H   0  0  0  0  0  0  0  0  0  0  0  0
   -3.7383   -0.6927    1.3735 H   0  0  0  0  0  0  0  0  0  0  0  0
  1  7  1  0  0  0  0
  1  6  1  0  0  0  0
  2  1  2  0  0  0  0
  3  4  2  0  0  0  0
  3  2  1  0  0  0  0
  4  5  1  0  0  0  0
  5 10  1  0  0  0  0
  5  6  2  0  0  0  0
  6 18  1  0  0  0  0
  8  2  1  0  0  0  0
  9  4  1  0  0  0  0
 12 11  3  0  0  0  0
 13 15  1  0  0  0  0
 13 16  1  0  0  0  0
 14 13  1  0  0  0  0
 17 13  1  0  0  0  0
 18 19  1  0  0  0  0
 19 20  1  0  0  0  0
 19 21  1  0  0  0  0
 22 19  1  0  0  0  0
M  RAD  1   3   2
M  END
