Coordinates from ORCA-job p-CH3O-Ph-N2-BF4-B3LYPG-aug-cc-pVDZ-scan-d09-49-n400
 OpenBabel01151817063D

 22 20  0  0  0  0  0  0  0  0999 V2000
   -1.0089    0.1910    1.1258 C   0  0  0  0  0  0  0  0  0  0  0  0
    0.3766    0.3958    1.0590 C   0  0  0  0  0  0  0  0  0  0  0  0
    0.8512    1.6445    0.6971 C   0  0  0  0  0  0  0  0  0  0  0  0
    0.0030    2.7095    0.4108 C   0  0  0  0  0  0  0  0  0  0  0  0
   -1.3724    2.5033    0.4781 C   0  0  0  0  0  0  0  0  0  0  0  0
   -1.8864    1.2445    0.8337 C   0  0  0  0  0  0  0  0  0  0  0  0
   -1.3799   -0.7910    1.4073 H   0  0  0  0  0  0  0  0  0  0  0  0
    1.0712   -0.4120    1.2811 H   0  0  0  0  0  0  0  0  0  0  0  0
    0.4172    3.6778    0.1353 H   0  0  0  0  0  0  0  0  0  0  0  0
   -2.0685    3.3115    0.2582 H   0  0  0  0  0  0  0  0  0  0  0  0
    1.2623    0.9638   -2.0343 N   0  0  0  0  0  0  0  0  0  0  0  0
    0.5805    0.5543   -2.8011 N   0  0  0  0  0  0  0  0  0  0  0  0
    4.1920    0.3651    1.1951 B   0  0  0  0  0  0  0  0  0  0  0  0
    3.7734   -0.5982    0.3788 F   0  0  0  0  0  0  0  0  0  0  0  0
    3.8529    0.3240    2.4795 F   0  0  0  0  0  0  0  0  0  0  0  0
    5.0166    1.3035    0.7509 F   0  0  0  0  0  0  0  0  0  0  0  0
    2.2057    1.8575    0.6377 F   0  0  0  0  0  0  0  0  0  0  0  0
   -3.2499    1.1507    0.8693 O   0  0  0  0  0  0  0  0  0  0  0  0
   -3.8278   -0.1011    1.2234 C   0  0  0  0  0  0  0  0  0  0  0  0
   -4.9108    0.0503    1.1869 H   0  0  0  0  0  0  0  0  0  0  0  0
   -3.5343   -0.4029    2.2408 H   0  0  0  0  0  0  0  0  0  0  0  0
   -3.5437   -0.8885    0.5081 H   0  0  0  0  0  0  0  0  0  0  0  0
  1  7  1  0  0  0  0
  2  1  1  0  0  0  0
  2  8  1  0  0  0  0
  3  2  2  0  0  0  0
  4  5  2  0  0  0  0
  4  3  1  0  0  0  0
  5  6  1  0  0  0  0
  6 18  1  0  0  0  0
  6  1  2  0  0  0  0
  9  4  1  0  0  0  0
 10  5  1  0  0  0  0
 12 11  3  0  0  0  0
 13 15  1  0  0  0  0
 14 13  1  0  0  0  0
 16 13  1  0  0  0  0
 17  3  1  0  0  0  0
 18 19  1  0  0  0  0
 19 21  1  0  0  0  0
 20 19  1  0  0  0  0
 22 19  1  0  0  0  0
M  END
