Coordinates from ORCA-job p-CH3O-Ph-N2-BF4-B3LYPG-aug-cc-pVDZ-scan-d09-49-n400
 OpenBabel01151817063D

 22 20  0  0  0  0  0  0  0  0999 V2000
   -1.0086    0.1910    1.1252 C   0  0  0  0  0  0  0  0  0  0  0  0
    0.3769    0.3958    1.0582 C   0  0  0  0  0  0  0  0  0  0  0  0
    0.8515    1.6443    0.6958 C   0  0  0  0  0  0  0  0  0  0  0  0
    0.0032    2.7093    0.4095 C   0  0  0  0  0  0  0  0  0  0  0  0
   -1.3722    2.5031    0.4770 C   0  0  0  0  0  0  0  0  0  0  0  0
   -1.8862    1.2444    0.8329 C   0  0  0  0  0  0  0  0  0  0  0  0
   -1.3795   -0.7910    1.4070 H   0  0  0  0  0  0  0  0  0  0  0  0
    1.0715   -0.4119    1.2804 H   0  0  0  0  0  0  0  0  0  0  0  0
    0.4174    3.6775    0.1338 H   0  0  0  0  0  0  0  0  0  0  0  0
   -2.0683    3.3112    0.2571 H   0  0  0  0  0  0  0  0  0  0  0  0
    1.2600    0.9654   -2.0261 N   0  0  0  0  0  0  0  0  0  0  0  0
    0.5792    0.5564   -2.7939 N   0  0  0  0  0  0  0  0  0  0  0  0
    4.1917    0.3647    1.1945 B   0  0  0  0  0  0  0  0  0  0  0  0
    3.7726   -0.5988    0.3787 F   0  0  0  0  0  0  0  0  0  0  0  0
    3.8529    0.3244    2.4789 F   0  0  0  0  0  0  0  0  0  0  0  0
    5.0167    1.3026    0.7497 F   0  0  0  0  0  0  0  0  0  0  0  0
    2.2059    1.8575    0.6365 F   0  0  0  0  0  0  0  0  0  0  0  0
   -3.2496    1.1505    0.8687 O   0  0  0  0  0  0  0  0  0  0  0  0
   -3.8274   -0.1013    1.2230 C   0  0  0  0  0  0  0  0  0  0  0  0
   -4.9105    0.0501    1.1865 H   0  0  0  0  0  0  0  0  0  0  0  0
   -3.5339   -0.4029    2.2404 H   0  0  0  0  0  0  0  0  0  0  0  0
   -3.5433   -0.8888    0.5078 H   0  0  0  0  0  0  0  0  0  0  0  0
  1  7  1  0  0  0  0
  2  1  1  0  0  0  0
  2  8  1  0  0  0  0
  3  2  2  0  0  0  0
  4  5  2  0  0  0  0
  4  3  1  0  0  0  0
  5  6  1  0  0  0  0
  6 18  1  0  0  0  0
  6  1  2  0  0  0  0
  9  4  1  0  0  0  0
 10  5  1  0  0  0  0
 12 11  3  0  0  0  0
 13 15  1  0  0  0  0
 14 13  1  0  0  0  0
 16 13  1  0  0  0  0
 17  3  1  0  0  0  0
 18 19  1  0  0  0  0
 19 21  1  0  0  0  0
 20 19  1  0  0  0  0
 22 19  1  0  0  0  0
M  END
