Coordinates from ORCA-job p-CH3O-Ph-N2-BF4-B3LYPG-aug-cc-pVDZ-scan-d09-49-n400
 OpenBabel01151817063D

 22 21  0  0  0  0  0  0  0  0999 V2000
   -1.0847   -0.1425    0.4199 C   0  0  0  0  0  0  0  0  0  0  0  0
    0.0349   -0.1441   -0.3949 C   0  0  0  0  0  0  0  0  0  0  0  0
    0.5595    1.0934   -0.7808 C   0  0  0  0  0  0  0  0  0  0  0  0
    0.0435    2.3341   -0.3720 C   0  0  0  0  0  0  0  0  0  0  0  0
   -1.0762    2.3146    0.4306 C   0  0  0  0  0  0  0  0  0  0  0  0
   -1.6437    1.0848    0.8382 C   0  0  0  0  0  0  0  0  0  0  0  0
   -1.4959   -1.0916    0.7498 H   0  0  0  0  0  0  0  0  0  0  0  0
    0.5171   -1.0708   -0.6938 H   0  0  0  0  0  0  0  0  0  0  0  0
    0.5350    3.2620   -0.6507 H   0  0  0  0  0  0  0  0  0  0  0  0
   -1.5203    3.2396    0.7918 H   0  0  0  0  0  0  0  0  0  0  0  0
    1.7721    1.0827   -1.5598 N   0  0  0  0  0  0  0  0  0  0  0  0
    2.6857    1.0655   -2.1906 N   0  0  0  0  0  0  0  0  0  0  0  0
    2.8358    1.1377    1.4624 B   0  0  0  0  0  0  0  0  0  0  0  0
    2.8108   -0.0810    0.6966 F   0  0  0  0  0  0  0  0  0  0  0  0
    1.5965    1.2630    2.1402 F   0  0  0  0  0  0  0  0  0  0  0  0
    3.9126    1.1504    2.3365 F   0  0  0  0  0  0  0  0  0  0  0  0
    2.9348    2.2200    0.5143 F   0  0  0  0  0  0  0  0  0  0  0  0
   -2.7158    1.1882    1.6366 O   0  0  0  0  0  0  0  0  0  0  0  0
   -3.3423   -0.0027    2.1358 C   0  0  0  0  0  0  0  0  0  0  0  0
   -4.1687    0.3474    2.7593 H   0  0  0  0  0  0  0  0  0  0  0  0
   -2.6387   -0.5862    2.7445 H   0  0  0  0  0  0  0  0  0  0  0  0
   -3.7323   -0.6112    1.3079 H   0  0  0  0  0  0  0  0  0  0  0  0
  1  7  1  0  0  0  0
  1  6  2  0  0  0  0
  2  1  1  0  0  0  0
  3  2  2  0  0  0  0
  3  4  1  0  0  0  0
  4  5  2  0  0  0  0
  5 10  1  0  0  0  0
  5  6  1  0  0  0  0
  6 18  1  0  0  0  0
  8  2  1  0  0  0  0
  9  4  1  0  0  0  0
 11  3  1  0  0  0  0
 12 11  1  0  0  0  0
 13 15  1  0  0  0  0
 13 16  1  0  0  0  0
 14 13  1  0  0  0  0
 17 13  1  0  0  0  0
 18 19  1  0  0  0  0
 19 21  1  0  0  0  0
 19 20  1  0  0  0  0
 22 19  1  0  0  0  0
M  RAD  2  11   2  12   3
M  END
