Coordinates from ORCA-job p-CH3O-Ph-N2-BF4-B3LYPG-aug-cc-pVDZ-scan-d09-49-n400
 OpenBabel01151817073D

 22 20  0  0  0  0  0  0  0  0999 V2000
   -1.0274    0.2078    1.1890 C   0  0  0  0  0  0  0  0  0  0  0  0
    0.3583    0.4176    1.1399 C   0  0  0  0  0  0  0  0  0  0  0  0
    0.8314    1.6764    0.8119 C   0  0  0  0  0  0  0  0  0  0  0  0
   -0.0166    2.7401    0.5195 C   0  0  0  0  0  0  0  0  0  0  0  0
   -1.3920    2.5275    0.5687 C   0  0  0  0  0  0  0  0  0  0  0  0
   -1.9049    1.2630    0.9041 C   0  0  0  0  0  0  0  0  0  0  0  0
   -1.3978   -0.7804    1.4488 H   0  0  0  0  0  0  0  0  0  0  0  0
    1.0542   -0.3913    1.3541 H   0  0  0  0  0  0  0  0  0  0  0  0
    0.3977    3.7121    0.2575 H   0  0  0  0  0  0  0  0  0  0  0  0
   -2.0885    3.3350    0.3477 H   0  0  0  0  0  0  0  0  0  0  0  0
    1.4246    0.7936   -2.6974 N   0  0  0  0  0  0  0  0  0  0  0  0
    0.7346    0.3491   -3.4363 N   0  0  0  0  0  0  0  0  0  0  0  0
    4.1869    0.3836    1.2355 B   0  0  0  0  0  0  0  0  0  0  0  0
    3.8054   -0.5155    0.3326 F   0  0  0  0  0  0  0  0  0  0  0  0
    3.8170    0.2318    2.5033 F   0  0  0  0  0  0  0  0  0  0  0  0
    5.0054    1.3684    0.8915 F   0  0  0  0  0  0  0  0  0  0  0  0
    2.1881    1.8899    0.7524 F   0  0  0  0  0  0  0  0  0  0  0  0
   -3.2688    1.1641    0.9241 O   0  0  0  0  0  0  0  0  0  0  0  0
   -3.8457   -0.0940    1.2564 C   0  0  0  0  0  0  0  0  0  0  0  0
   -4.9289    0.0546    1.2128 H   0  0  0  0  0  0  0  0  0  0  0  0
   -3.5598   -0.4087    2.2721 H   0  0  0  0  0  0  0  0  0  0  0  0
   -3.5534   -0.8711    0.5332 H   0  0  0  0  0  0  0  0  0  0  0  0
  1  7  1  0  0  0  0
  2  1  1  0  0  0  0
  2  8  1  0  0  0  0
  3  2  2  0  0  0  0
  4  5  2  0  0  0  0
  4  3  1  0  0  0  0
  5  6  1  0  0  0  0
  6 18  1  0  0  0  0
  6  1  2  0  0  0  0
  9  4  1  0  0  0  0
 10  5  1  0  0  0  0
 12 11  3  0  0  0  0
 13 15  1  0  0  0  0
 14 13  1  0  0  0  0
 16 13  1  0  0  0  0
 17  3  1  0  0  0  0
 18 19  1  0  0  0  0
 19 21  1  0  0  0  0
 20 19  1  0  0  0  0
 22 19  1  0  0  0  0
M  END
