Coordinates from ORCA-job p-CH3O-Ph-N2-BF4-B3LYPG-aug-cc-pVDZ-scan-d09-49-n400
 OpenBabel01151817063D

 22 20  0  0  0  0  0  0  0  0999 V2000
   -1.1174   -0.1120    0.5222 C   0  0  0  0  0  0  0  0  0  0  0  0
    0.0876   -0.1314   -0.2254 C   0  0  0  0  0  0  0  0  0  0  0  0
    0.3845    1.1306   -0.5511 C   0  0  0  0  0  0  0  0  0  0  0  0
    0.0017    2.3946   -0.3007 C   0  0  0  0  0  0  0  0  0  0  0  0
   -1.1897    2.3370    0.4471 C   0  0  0  0  0  0  0  0  0  0  0  0
   -1.7409    1.1040    0.8569 C   0  0  0  0  0  0  0  0  0  0  0  0
   -1.5037   -1.0743    0.8478 H   0  0  0  0  0  0  0  0  0  0  0  0
    0.6742   -1.0203   -0.4280 H   0  0  0  0  0  0  0  0  0  0  0  0
    0.5174    3.3078   -0.5748 H   0  0  0  0  0  0  0  0  0  0  0  0
   -1.6694    3.2712    0.7359 H   0  0  0  0  0  0  0  0  0  0  0  0
    2.2757    1.1319   -1.9689 N   0  0  0  0  0  0  0  0  0  0  0  0
    3.1947    1.1402   -2.5757 N   0  0  0  0  0  0  0  0  0  0  0  0
    2.8083    1.0431    1.4059 B   0  0  0  0  0  0  0  0  0  0  0  0
    2.8211   -0.1040    0.5374 F   0  0  0  0  0  0  0  0  0  0  0  0
    1.6236    0.9937    2.1858 F   0  0  0  0  0  0  0  0  0  0  0  0
    3.9490    1.0798    2.1930 F   0  0  0  0  0  0  0  0  0  0  0  0
    2.7330    2.2055    0.5573 F   0  0  0  0  0  0  0  0  0  0  0  0
   -2.8756    1.1977    1.5845 O   0  0  0  0  0  0  0  0  0  0  0  0
   -3.4232    0.0038    2.1542 C   0  0  0  0  0  0  0  0  0  0  0  0
   -4.2964    0.3274    2.7265 H   0  0  0  0  0  0  0  0  0  0  0  0
   -2.6961   -0.4757    2.8248 H   0  0  0  0  0  0  0  0  0  0  0  0
   -3.7382   -0.6970    1.3667 H   0  0  0  0  0  0  0  0  0  0  0  0
  1  7  1  0  0  0  0
  1  6  1  0  0  0  0
  2  1  2  0  0  0  0
  3  4  2  0  0  0  0
  3  2  1  0  0  0  0
  4  5  1  0  0  0  0
  5 10  1  0  0  0  0
  5  6  2  0  0  0  0
  6 18  1  0  0  0  0
  8  2  1  0  0  0  0
  9  4  1  0  0  0  0
 12 11  3  0  0  0  0
 13 15  1  0  0  0  0
 13 16  1  0  0  0  0
 14 13  1  0  0  0  0
 17 13  1  0  0  0  0
 18 19  1  0  0  0  0
 19 20  1  0  0  0  0
 19 21  1  0  0  0  0
 22 19  1  0  0  0  0
M  RAD  1   3   2
M  END
