Coordinates from ORCA-job p-CH3O-Ph-N2-BF4-B3LYPG-aug-cc-pVDZ-scan-d09-49-n400
 OpenBabel01151817073D

 22 20  0  0  0  0  0  0  0  0999 V2000
   -1.0285    0.2120    1.2023 C   0  0  0  0  0  0  0  0  0  0  0  0
    0.3571    0.4235    1.1587 C   0  0  0  0  0  0  0  0  0  0  0  0
    0.8297    1.6834    0.8340 C   0  0  0  0  0  0  0  0  0  0  0  0
   -0.0184    2.7464    0.5398 C   0  0  0  0  0  0  0  0  0  0  0  0
   -1.3937    2.5319    0.5836 C   0  0  0  0  0  0  0  0  0  0  0  0
   -1.9063    1.2664    0.9156 C   0  0  0  0  0  0  0  0  0  0  0  0
   -1.3986   -0.7771    1.4595 H   0  0  0  0  0  0  0  0  0  0  0  0
    1.0533   -0.3847    1.3742 H   0  0  0  0  0  0  0  0  0  0  0  0
    0.3956    3.7191    0.2801 H   0  0  0  0  0  0  0  0  0  0  0  0
   -2.0904    3.3388    0.3608 H   0  0  0  0  0  0  0  0  0  0  0  0
    1.4377    0.7576   -2.8190 N   0  0  0  0  0  0  0  0  0  0  0  0
    0.7471    0.3105   -3.5559 N   0  0  0  0  0  0  0  0  0  0  0  0
    4.1859    0.3863    1.2439 B   0  0  0  0  0  0  0  0  0  0  0  0
    3.8113   -0.4942    0.3202 F   0  0  0  0  0  0  0  0  0  0  0  0
    3.8089    0.2072    2.5062 F   0  0  0  0  0  0  0  0  0  0  0  0
    5.0041    1.3799    0.9255 F   0  0  0  0  0  0  0  0  0  0  0  0
    2.1865    1.8986    0.7796 F   0  0  0  0  0  0  0  0  0  0  0  0
   -3.2701    1.1657    0.9304 O   0  0  0  0  0  0  0  0  0  0  0  0
   -3.8467   -0.0935    1.2591 C   0  0  0  0  0  0  0  0  0  0  0  0
   -4.9298    0.0538    1.2117 H   0  0  0  0  0  0  0  0  0  0  0  0
   -3.5641   -0.4091    2.2754 H   0  0  0  0  0  0  0  0  0  0  0  0
   -3.5507   -0.8693    0.5359 H   0  0  0  0  0  0  0  0  0  0  0  0
  1  7  1  0  0  0  0
  2  1  1  0  0  0  0
  2  8  1  0  0  0  0
  3  2  2  0  0  0  0
  4  5  2  0  0  0  0
  4  3  1  0  0  0  0
  5  6  1  0  0  0  0
  6 18  1  0  0  0  0
  6  1  2  0  0  0  0
  9  4  1  0  0  0  0
 10  5  1  0  0  0  0
 12 11  3  0  0  0  0
 13 15  1  0  0  0  0
 14 13  1  0  0  0  0
 16 13  1  0  0  0  0
 17  3  1  0  0  0  0
 18 19  1  0  0  0  0
 19 21  1  0  0  0  0
 20 19  1  0  0  0  0
 22 19  1  0  0  0  0
M  END
