Coordinates from ORCA-job p-CH3O-Ph-N2-BF4-B3LYPG-aug-cc-pVDZ-scan-d09-49-n400
 OpenBabel01151817063D

 22 21  0  0  0  0  0  0  0  0999 V2000
   -1.1340   -0.1322    0.4758 C   0  0  0  0  0  0  0  0  0  0  0  0
    0.0404   -0.1485   -0.2910 C   0  0  0  0  0  0  0  0  0  0  0  0
    0.4540    1.1006   -0.6421 C   0  0  0  0  0  0  0  0  0  0  0  0
    0.0013    2.3540   -0.3309 C   0  0  0  0  0  0  0  0  0  0  0  0
   -1.1660    2.3195    0.4305 C   0  0  0  0  0  0  0  0  0  0  0  0
   -1.7316    1.0912    0.8344 C   0  0  0  0  0  0  0  0  0  0  0  0
   -1.5395   -1.0841    0.8059 H   0  0  0  0  0  0  0  0  0  0  0  0
    0.5792   -1.0591   -0.5301 H   0  0  0  0  0  0  0  0  0  0  0  0
    0.5113    3.2727   -0.6004 H   0  0  0  0  0  0  0  0  0  0  0  0
   -1.6312    3.2496    0.7512 H   0  0  0  0  0  0  0  0  0  0  0  0
    2.0204    1.1060   -1.6120 N   0  0  0  0  0  0  0  0  0  0  0  0
    2.8935    1.1087   -2.2843 N   0  0  0  0  0  0  0  0  0  0  0  0
    2.9328    1.1041    1.3922 B   0  0  0  0  0  0  0  0  0  0  0  0
    2.9338   -0.0562    0.5326 F   0  0  0  0  0  0  0  0  0  0  0  0
    1.7308    1.1018    2.1373 F   0  0  0  0  0  0  0  0  0  0  0  0
    4.0561    1.1105    2.2045 F   0  0  0  0  0  0  0  0  0  0  0  0
    2.9253    2.2568    0.5239 F   0  0  0  0  0  0  0  0  0  0  0  0
   -2.8507    1.1950    1.5825 O   0  0  0  0  0  0  0  0  0  0  0  0
   -3.4306    0.0042    2.1258 C   0  0  0  0  0  0  0  0  0  0  0  0
   -4.2890    0.3402    2.7131 H   0  0  0  0  0  0  0  0  0  0  0  0
   -2.7144   -0.5145    2.7785 H   0  0  0  0  0  0  0  0  0  0  0  0
   -3.7722   -0.6670    1.3242 H   0  0  0  0  0  0  0  0  0  0  0  0
  1  7  1  0  0  0  0
  1  6  1  0  0  0  0
  2  1  2  0  0  0  0
  3  4  2  0  0  0  0
  3  2  1  0  0  0  0
  4  5  1  0  0  0  0
  5 10  1  0  0  0  0
  5  6  2  0  0  0  0
  6 18  1  0  0  0  0
  8  2  1  0  0  0  0
  9  4  1  0  0  0  0
 11  3  1  0  0  0  0
 12 11  1  0  0  0  0
 13 15  1  0  0  0  0
 13 16  1  0  0  0  0
 14 13  1  0  0  0  0
 17 13  1  0  0  0  0
 18 19  1  0  0  0  0
 19 20  1  0  0  0  0
 19 21  1  0  0  0  0
 22 19  1  0  0  0  0
M  RAD  2  11   2  12   3
M  END
