Coordinates from ORCA-job p-CH3O-Ph-N2-BF4-B3LYPG-aug-cc-pVDZ-scan-d09-49-n400
 OpenBabel01151817063D

 22 20  0  0  0  0  0  0  0  0999 V2000
   -1.0157    0.1940    1.1424 C   0  0  0  0  0  0  0  0  0  0  0  0
    0.3701    0.3991    1.0794 C   0  0  0  0  0  0  0  0  0  0  0  0
    0.8447    1.6514    0.7302 C   0  0  0  0  0  0  0  0  0  0  0  0
   -0.0026    2.7162    0.4408 C   0  0  0  0  0  0  0  0  0  0  0  0
   -1.3783    2.5092    0.5041 C   0  0  0  0  0  0  0  0  0  0  0  0
   -1.8926    1.2491    0.8542 C   0  0  0  0  0  0  0  0  0  0  0  0
   -1.3872   -0.7898    1.4168 H   0  0  0  0  0  0  0  0  0  0  0  0
    1.0647   -0.4096    1.2982 H   0  0  0  0  0  0  0  0  0  0  0  0
    0.4122    3.6855    0.1696 H   0  0  0  0  0  0  0  0  0  0  0  0
   -2.0741    3.3176    0.2844 H   0  0  0  0  0  0  0  0  0  0  0  0
    1.3180    0.9226   -2.2303 N   0  0  0  0  0  0  0  0  0  0  0  0
    0.6264    0.5020   -2.9817 N   0  0  0  0  0  0  0  0  0  0  0  0
    4.1917    0.3717    1.2086 B   0  0  0  0  0  0  0  0  0  0  0  0
    3.7833   -0.5808    0.3746 F   0  0  0  0  0  0  0  0  0  0  0  0
    3.8455    0.3084    2.4903 F   0  0  0  0  0  0  0  0  0  0  0  0
    5.0138    1.3215    0.7842 F   0  0  0  0  0  0  0  0  0  0  0  0
    2.2003    1.8628    0.6668 F   0  0  0  0  0  0  0  0  0  0  0  0
   -3.2562    1.1549    0.8868 O   0  0  0  0  0  0  0  0  0  0  0  0
   -3.8345   -0.0983    1.2352 C   0  0  0  0  0  0  0  0  0  0  0  0
   -4.9175    0.0534    1.1984 H   0  0  0  0  0  0  0  0  0  0  0  0
   -3.5419   -0.4043    2.2516 H   0  0  0  0  0  0  0  0  0  0  0  0
   -3.5500   -0.8829    0.5170 H   0  0  0  0  0  0  0  0  0  0  0  0
  1  7  1  0  0  0  0
  2  1  1  0  0  0  0
  2  8  1  0  0  0  0
  3  2  2  0  0  0  0
  4  5  2  0  0  0  0
  4  3  1  0  0  0  0
  5  6  1  0  0  0  0
  6 18  1  0  0  0  0
  6  1  2  0  0  0  0
  9  4  1  0  0  0  0
 10  5  1  0  0  0  0
 12 11  3  0  0  0  0
 13 15  1  0  0  0  0
 14 13  1  0  0  0  0
 16 13  1  0  0  0  0
 17  3  1  0  0  0  0
 18 19  1  0  0  0  0
 19 21  1  0  0  0  0
 20 19  1  0  0  0  0
 22 19  1  0  0  0  0
M  END
