Coordinates from ORCA-job p-CH3O-Ph-N2-BF4-B3LYPG-aug-cc-pVDZ-scan-d09-49-n400
 OpenBabel01151817063D

 22 21  0  0  0  0  0  0  0  0999 V2000
   -0.7852   -0.0067    0.2338 C   0  0  0  0  0  0  0  0  0  0  0  0
    0.2459    0.0510   -0.6758 C   0  0  0  0  0  0  0  0  0  0  0  0
    0.5735    1.3079   -1.2282 C   0  0  0  0  0  0  0  0  0  0  0  0
   -0.1325    2.4990   -0.9268 C   0  0  0  0  0  0  0  0  0  0  0  0
   -1.1630    2.4163   -0.0259 C   0  0  0  0  0  0  0  0  0  0  0  0
   -1.4566    1.1796    0.6107 C   0  0  0  0  0  0  0  0  0  0  0  0
   -1.0048   -0.9513    0.7183 H   0  0  0  0  0  0  0  0  0  0  0  0
    0.8345   -0.8288   -0.9163 H   0  0  0  0  0  0  0  0  0  0  0  0
    0.1650    3.4473   -1.3690 H   0  0  0  0  0  0  0  0  0  0  0  0
   -1.7193    3.3014    0.2746 H   0  0  0  0  0  0  0  0  0  0  0  0
    1.7093    1.3936   -1.9915 N   0  0  0  0  0  0  0  0  0  0  0  0
    2.6478    1.4636   -2.5985 N   0  0  0  0  0  0  0  0  0  0  0  0
    1.9550    0.5860    2.0665 B   0  0  0  0  0  0  0  0  0  0  0  0
    2.3258   -0.3317    1.0277 F   0  0  0  0  0  0  0  0  0  0  0  0
    0.7394    0.1198    2.6651 F   0  0  0  0  0  0  0  0  0  0  0  0
    2.9650    0.6902    3.0150 F   0  0  0  0  0  0  0  0  0  0  0  0
    1.6934    1.8495    1.4515 F   0  0  0  0  0  0  0  0  0  0  0  0
   -2.3774    1.2368    1.5652 O   0  0  0  0  0  0  0  0  0  0  0  0
   -2.5557    0.0989    2.4422 C   0  0  0  0  0  0  0  0  0  0  0  0
   -3.2459    0.4470    3.2141 H   0  0  0  0  0  0  0  0  0  0  0  0
   -1.5885   -0.1786    2.8782 H   0  0  0  0  0  0  0  0  0  0  0  0
   -3.0058   -0.7373    1.8905 H   0  0  0  0  0  0  0  0  0  0  0  0
  1  6  1  0  0  0  0
  1  7  1  0  0  0  0
  2  1  2  0  0  0  0
  3  4  2  0  0  0  0
  3  2  1  0  0  0  0
  4  5  1  0  0  0  0
  5 10  1  0  0  0  0
  5  6  2  0  0  0  0
  6 18  1  0  0  0  0
  8  2  1  0  0  0  0
  9  4  1  0  0  0  0
 11  3  1  0  0  0  0
 12 11  1  0  0  0  0
 13 15  1  0  0  0  0
 13 16  1  0  0  0  0
 14 13  1  0  0  0  0
 17 13  1  0  0  0  0
 18 19  1  0  0  0  0
 19 21  1  0  0  0  0
 19 20  1  0  0  0  0
 22 19  1  0  0  0  0
M  RAD  2  11   2  12   3
M  END
