Coordinates from ORCA-job p-CH3O-Ph-N2-BF4-B3LYPG-aug-cc-pVDZ-scan-d09-49-n400
 OpenBabel01151817063D

 22 21  0  0  0  0  0  0  0  0999 V2000
   -1.1087   -0.1385    0.4168 C   0  0  0  0  0  0  0  0  0  0  0  0
    0.0320   -0.1450   -0.3764 C   0  0  0  0  0  0  0  0  0  0  0  0
    0.5329    1.0949   -0.7489 C   0  0  0  0  0  0  0  0  0  0  0  0
    0.0296    2.3382   -0.3683 C   0  0  0  0  0  0  0  0  0  0  0  0
   -1.1083    2.3171    0.4155 C   0  0  0  0  0  0  0  0  0  0  0  0
   -1.6771    1.0882    0.8195 C   0  0  0  0  0  0  0  0  0  0  0  0
   -1.5251   -1.0871    0.7412 H   0  0  0  0  0  0  0  0  0  0  0  0
    0.5284   -1.0688   -0.6581 H   0  0  0  0  0  0  0  0  0  0  0  0
    0.5306    3.2635   -0.6368 H   0  0  0  0  0  0  0  0  0  0  0  0
   -1.5561    3.2432    0.7691 H   0  0  0  0  0  0  0  0  0  0  0  0
    1.8443    1.0917   -1.5592 N   0  0  0  0  0  0  0  0  0  0  0  0
    2.7552    1.0862   -2.1873 N   0  0  0  0  0  0  0  0  0  0  0  0
    2.8552    1.1233    1.4472 B   0  0  0  0  0  0  0  0  0  0  0  0
    2.8512   -0.0722    0.6415 F   0  0  0  0  0  0  0  0  0  0  0  0
    1.6196    1.2020    2.1345 F   0  0  0  0  0  0  0  0  0  0  0  0
    3.9371    1.1281    2.3143 F   0  0  0  0  0  0  0  0  0  0  0  0
    2.9327    2.2340    0.5291 F   0  0  0  0  0  0  0  0  0  0  0  0
   -2.7638    1.1920    1.6036 O   0  0  0  0  0  0  0  0  0  0  0  0
   -3.3514    0.0020    2.1465 C   0  0  0  0  0  0  0  0  0  0  0  0
   -4.1806    0.3474    2.7691 H   0  0  0  0  0  0  0  0  0  0  0  0
   -2.6232   -0.5415    2.7638 H   0  0  0  0  0  0  0  0  0  0  0  0
   -3.7346   -0.6453    1.3449 H   0  0  0  0  0  0  0  0  0  0  0  0
  1  7  1  0  0  0  0
  1  6  2  0  0  0  0
  2  1  1  0  0  0  0
  3  2  2  0  0  0  0
  3  4  1  0  0  0  0
  4  5  2  0  0  0  0
  5 10  1  0  0  0  0
  5  6  1  0  0  0  0
  6 18  1  0  0  0  0
  8  2  1  0  0  0  0
  9  4  1  0  0  0  0
 11  3  1  0  0  0  0
 12 11  1  0  0  0  0
 13 15  1  0  0  0  0
 13 16  1  0  0  0  0
 14 13  1  0  0  0  0
 17 13  1  0  0  0  0
 18 19  1  0  0  0  0
 19 21  1  0  0  0  0
 19 20  1  0  0  0  0
 22 19  1  0  0  0  0
M  RAD  2  11   2  12   3
M  END
