Coordinates from ORCA-job p-CH3O-Ph-N2-BF4-B3LYPG-aug-cc-pVDZ-scan-d09-49-n400
 OpenBabel01151817063D

 22 20  0  0  0  0  0  0  0  0999 V2000
   -1.0079    0.1908    1.1240 C   0  0  0  0  0  0  0  0  0  0  0  0
    0.3776    0.3957    1.0567 C   0  0  0  0  0  0  0  0  0  0  0  0
    0.8520    1.6441    0.6933 C   0  0  0  0  0  0  0  0  0  0  0  0
    0.0035    2.7090    0.4071 C   0  0  0  0  0  0  0  0  0  0  0  0
   -1.3718    2.5027    0.4748 C   0  0  0  0  0  0  0  0  0  0  0  0
   -1.8856    1.2441    0.8313 C   0  0  0  0  0  0  0  0  0  0  0  0
   -1.3787   -0.7910    1.4062 H   0  0  0  0  0  0  0  0  0  0  0  0
    1.0724   -0.4119    1.2788 H   0  0  0  0  0  0  0  0  0  0  0  0
    0.4178    3.6769    0.1304 H   0  0  0  0  0  0  0  0  0  0  0  0
   -2.0680    3.3106    0.2547 H   0  0  0  0  0  0  0  0  0  0  0  0
    1.2553    0.9687   -2.0093 N   0  0  0  0  0  0  0  0  0  0  0  0
    0.5763    0.5606   -2.7794 N   0  0  0  0  0  0  0  0  0  0  0  0
    4.1912    0.3640    1.1932 B   0  0  0  0  0  0  0  0  0  0  0  0
    3.7708   -0.6000    0.3785 F   0  0  0  0  0  0  0  0  0  0  0  0
    3.8528    0.3252    2.4778 F   0  0  0  0  0  0  0  0  0  0  0  0
    5.0169    1.3006    0.7471 F   0  0  0  0  0  0  0  0  0  0  0  0
    2.2063    1.8576    0.6343 F   0  0  0  0  0  0  0  0  0  0  0  0
   -3.2490    1.1501    0.8674 O   0  0  0  0  0  0  0  0  0  0  0  0
   -3.8267   -0.1017    1.2221 C   0  0  0  0  0  0  0  0  0  0  0  0
   -4.9097    0.0496    1.1857 H   0  0  0  0  0  0  0  0  0  0  0  0
   -3.5330   -0.4031    2.2395 H   0  0  0  0  0  0  0  0  0  0  0  0
   -3.5426   -0.8892    0.5070 H   0  0  0  0  0  0  0  0  0  0  0  0
  1  7  1  0  0  0  0
  2  1  1  0  0  0  0
  2  8  1  0  0  0  0
  3  2  2  0  0  0  0
  4  5  2  0  0  0  0
  4  3  1  0  0  0  0
  5  6  1  0  0  0  0
  6 18  1  0  0  0  0
  6  1  2  0  0  0  0
  9  4  1  0  0  0  0
 10  5  1  0  0  0  0
 12 11  3  0  0  0  0
 13 15  1  0  0  0  0
 14 13  1  0  0  0  0
 16 13  1  0  0  0  0
 17  3  1  0  0  0  0
 18 19  1  0  0  0  0
 19 21  1  0  0  0  0
 20 19  1  0  0  0  0
 22 19  1  0  0  0  0
M  END
