Coordinates from ORCA-job p-CH3O-Ph-N2-BF4-B3LYPG-aug-cc-pVDZ-scan-d09-49-n400
 OpenBabel01151817063D

 22 20  0  0  0  0  0  0  0  0999 V2000
   -1.1227   -0.1189    0.5040 C   0  0  0  0  0  0  0  0  0  0  0  0
    0.0682   -0.1413   -0.2606 C   0  0  0  0  0  0  0  0  0  0  0  0
    0.3879    1.1188   -0.5887 C   0  0  0  0  0  0  0  0  0  0  0  0
   -0.0023    2.3822   -0.3270 C   0  0  0  0  0  0  0  0  0  0  0  0
   -1.1817    2.3308    0.4359 C   0  0  0  0  0  0  0  0  0  0  0  0
   -1.7352    1.1001    0.8485 C   0  0  0  0  0  0  0  0  0  0  0  0
   -1.5095   -1.0780    0.8377 H   0  0  0  0  0  0  0  0  0  0  0  0
    0.6423   -1.0355   -0.4747 H   0  0  0  0  0  0  0  0  0  0  0  0
    0.5133    3.2952   -0.6021 H   0  0  0  0  0  0  0  0  0  0  0  0
   -1.6518    3.2654    0.7382 H   0  0  0  0  0  0  0  0  0  0  0  0
    2.2223    1.1308   -1.8624 N   0  0  0  0  0  0  0  0  0  0  0  0
    3.1289    1.1432   -2.4896 N   0  0  0  0  0  0  0  0  0  0  0  0
    2.8264    1.0589    1.4055 B   0  0  0  0  0  0  0  0  0  0  0  0
    2.8468   -0.0844    0.5296 F   0  0  0  0  0  0  0  0  0  0  0  0
    1.6197    1.0200    2.1518 F   0  0  0  0  0  0  0  0  0  0  0  0
    3.9443    1.0693    2.2265 F   0  0  0  0  0  0  0  0  0  0  0  0
    2.7959    2.2294    0.5675 F   0  0  0  0  0  0  0  0  0  0  0  0
   -2.8600    1.1985    1.5907 O   0  0  0  0  0  0  0  0  0  0  0  0
   -3.4122    0.0060    2.1588 C   0  0  0  0  0  0  0  0  0  0  0  0
   -4.2768    0.3339    2.7417 H   0  0  0  0  0  0  0  0  0  0  0  0
   -2.6828   -0.4835    2.8194 H   0  0  0  0  0  0  0  0  0  0  0  0
   -3.7410   -0.6876    1.3707 H   0  0  0  0  0  0  0  0  0  0  0  0
  1  7  1  0  0  0  0
  1  6  1  0  0  0  0
  2  1  2  0  0  0  0
  3  4  2  0  0  0  0
  3  2  1  0  0  0  0
  4  5  1  0  0  0  0
  5 10  1  0  0  0  0
  5  6  2  0  0  0  0
  6 18  1  0  0  0  0
  8  2  1  0  0  0  0
  9  4  1  0  0  0  0
 12 11  3  0  0  0  0
 13 15  1  0  0  0  0
 13 16  1  0  0  0  0
 14 13  1  0  0  0  0
 17 13  1  0  0  0  0
 18 19  1  0  0  0  0
 19 20  1  0  0  0  0
 19 21  1  0  0  0  0
 22 19  1  0  0  0  0
M  RAD  1   3   2
M  END
