Coordinates from ORCA-job p-CH3O-Ph-N2-BF4-B3LYPG-aug-cc-pVDZ-scan-d09-49-n400
 OpenBabel01151817073D

 22 20  0  0  0  0  0  0  0  0999 V2000
   -1.0421    0.2296    1.2641 C   0  0  0  0  0  0  0  0  0  0  0  0
    0.3430    0.4475    1.2428 C   0  0  0  0  0  0  0  0  0  0  0  0
    0.8149    1.7126    0.9378 C   0  0  0  0  0  0  0  0  0  0  0  0
   -0.0335    2.7754    0.6436 C   0  0  0  0  0  0  0  0  0  0  0  0
   -1.4084    2.5548    0.6652 C   0  0  0  0  0  0  0  0  0  0  0  0
   -1.9201    1.2836    0.9760 C   0  0  0  0  0  0  0  0  0  0  0  0
   -1.4117   -0.7636    1.5053 H   0  0  0  0  0  0  0  0  0  0  0  0
    1.0398   -0.3599    1.4598 H   0  0  0  0  0  0  0  0  0  0  0  0
    0.3801    3.7528    0.4007 H   0  0  0  0  0  0  0  0  0  0  0  0
   -2.1053    3.3611    0.4409 H   0  0  0  0  0  0  0  0  0  0  0  0
    1.5192    0.5804   -3.3906 N   0  0  0  0  0  0  0  0  0  0  0  0
    0.8702    0.1272   -4.1609 N   0  0  0  0  0  0  0  0  0  0  0  0
    4.1903    0.4015    1.2773 B   0  0  0  0  0  0  0  0  0  0  0  0
    3.8484   -0.4171    0.2873 F   0  0  0  0  0  0  0  0  0  0  0  0
    3.7917    0.1296    2.5164 F   0  0  0  0  0  0  0  0  0  0  0  0
    4.9968    1.4284    1.0461 F   0  0  0  0  0  0  0  0  0  0  0  0
    2.1717    1.9333    0.9046 F   0  0  0  0  0  0  0  0  0  0  0  0
   -3.2836    1.1770    0.9697 O   0  0  0  0  0  0  0  0  0  0  0  0
   -3.8594   -0.0880    1.2767 C   0  0  0  0  0  0  0  0  0  0  0  0
   -4.9424    0.0552    1.2151 H   0  0  0  0  0  0  0  0  0  0  0  0
   -3.5902   -0.4131    2.2937 H   0  0  0  0  0  0  0  0  0  0  0  0
   -3.5495   -0.8549    0.5499 H   0  0  0  0  0  0  0  0  0  0  0  0
  1  7  1  0  0  0  0
  2  1  1  0  0  0  0
  2  8  1  0  0  0  0
  3  2  2  0  0  0  0
  4  5  2  0  0  0  0
  4  3  1  0  0  0  0
  5  6  1  0  0  0  0
  6  1  2  0  0  0  0
  9  4  1  0  0  0  0
 10  5  1  0  0  0  0
 12 11  3  0  0  0  0
 13 15  1  0  0  0  0
 14 13  1  0  0  0  0
 16 13  1  0  0  0  0
 17  3  1  0  0  0  0
 18  6  1  0  0  0  0
 18 19  1  0  0  0  0
 19 21  1  0  0  0  0
 20 19  1  0  0  0  0
 22 19  1  0  0  0  0
M  END
