Coordinates from ORCA-job p-CH3O-Ph-N2-BF4-B3LYPG-aug-cc-pVDZ-scan-d09-49-n400
 OpenBabel01151817073D

 22 20  0  0  0  0  0  0  0  0999 V2000
   -1.0368    0.2242    1.2428 C   0  0  0  0  0  0  0  0  0  0  0  0
    0.3484    0.4408    1.2145 C   0  0  0  0  0  0  0  0  0  0  0  0
    0.8201    1.7040    0.9018 C   0  0  0  0  0  0  0  0  0  0  0  0
   -0.0287    2.7658    0.6049 C   0  0  0  0  0  0  0  0  0  0  0  0
   -1.4037    2.5465    0.6333 C   0  0  0  0  0  0  0  0  0  0  0  0
   -1.9152    1.2774    0.9531 C   0  0  0  0  0  0  0  0  0  0  0  0
   -1.4061   -0.7676    1.4903 H   0  0  0  0  0  0  0  0  0  0  0  0
    1.0454   -0.3663    1.4321 H   0  0  0  0  0  0  0  0  0  0  0  0
    0.3846    3.7413    0.3543 H   0  0  0  0  0  0  0  0  0  0  0  0
   -2.1008    3.3521    0.4077 H   0  0  0  0  0  0  0  0  0  0  0  0
    1.4887    0.6481   -3.1795 N   0  0  0  0  0  0  0  0  0  0  0  0
    0.8192    0.1957   -3.9325 N   0  0  0  0  0  0  0  0  0  0  0  0
    4.1904    0.3928    1.2635 B   0  0  0  0  0  0  0  0  0  0  0  0
    3.8381   -0.4481    0.2960 F   0  0  0  0  0  0  0  0  0  0  0  0
    3.7972    0.1540    2.5111 F   0  0  0  0  0  0  0  0  0  0  0  0
    5.0019    1.4085    1.0025 F   0  0  0  0  0  0  0  0  0  0  0  0
    2.1768    1.9232    0.8604 F   0  0  0  0  0  0  0  0  0  0  0  0
   -3.2788    1.1720    0.9532 O   0  0  0  0  0  0  0  0  0  0  0  0
   -3.8543   -0.0910    1.2691 C   0  0  0  0  0  0  0  0  0  0  0  0
   -4.9374    0.0529    1.2114 H   0  0  0  0  0  0  0  0  0  0  0  0
   -3.5810   -0.4112    2.2865 H   0  0  0  0  0  0  0  0  0  0  0  0
   -3.5483   -0.8618    0.5448 H   0  0  0  0  0  0  0  0  0  0  0  0
  1  7  1  0  0  0  0
  2  1  1  0  0  0  0
  2  8  1  0  0  0  0
  3  2  2  0  0  0  0
  4  5  2  0  0  0  0
  4  3  1  0  0  0  0
  5  6  1  0  0  0  0
  6 18  1  0  0  0  0
  6  1  2  0  0  0  0
  9  4  1  0  0  0  0
 10  5  1  0  0  0  0
 12 11  3  0  0  0  0
 13 15  1  0  0  0  0
 14 13  1  0  0  0  0
 16 13  1  0  0  0  0
 17  3  1  0  0  0  0
 18 19  1  0  0  0  0
 19 21  1  0  0  0  0
 20 19  1  0  0  0  0
 22 19  1  0  0  0  0
M  END
