Coordinates from ORCA-job p-CH3O-Ph-N2-BF4-B3LYPG-aug-cc-pVDZ-scan-d09-49-n400
 OpenBabel01151817073D

 22 20  0  0  0  0  0  0  0  0999 V2000
   -1.0425    0.2301    1.2657 C   0  0  0  0  0  0  0  0  0  0  0  0
    0.3426    0.4481    1.2450 C   0  0  0  0  0  0  0  0  0  0  0  0
    0.8145    1.7135    0.9415 C   0  0  0  0  0  0  0  0  0  0  0  0
   -0.0338    2.7766    0.6484 C   0  0  0  0  0  0  0  0  0  0  0  0
   -1.4087    2.5560    0.6695 C   0  0  0  0  0  0  0  0  0  0  0  0
   -1.9205    1.2844    0.9786 C   0  0  0  0  0  0  0  0  0  0  0  0
   -1.4121   -0.7634    1.5057 H   0  0  0  0  0  0  0  0  0  0  0  0
    1.0394   -0.3595    1.4615 H   0  0  0  0  0  0  0  0  0  0  0  0
    0.3797    3.7544    0.4070 H   0  0  0  0  0  0  0  0  0  0  0  0
   -2.1056    3.3625    0.4460 H   0  0  0  0  0  0  0  0  0  0  0  0
    1.5212    0.5713   -3.4153 N   0  0  0  0  0  0  0  0  0  0  0  0
    0.8745    0.1177   -4.1874 N   0  0  0  0  0  0  0  0  0  0  0  0
    4.1902    0.4031    1.2798 B   0  0  0  0  0  0  0  0  0  0  0  0
    3.8492   -0.4130    0.2874 F   0  0  0  0  0  0  0  0  0  0  0  0
    3.7914    0.1275    2.5180 F   0  0  0  0  0  0  0  0  0  0  0  0
    4.9963    1.4310    1.0517 F   0  0  0  0  0  0  0  0  0  0  0  0
    2.1713    1.9345    0.9098 F   0  0  0  0  0  0  0  0  0  0  0  0
   -3.2840    1.1778    0.9719 O   0  0  0  0  0  0  0  0  0  0  0  0
   -3.8598   -0.0876    1.2773 C   0  0  0  0  0  0  0  0  0  0  0  0
   -4.9428    0.0557    1.2156 H   0  0  0  0  0  0  0  0  0  0  0  0
   -3.5909   -0.4138    2.2941 H   0  0  0  0  0  0  0  0  0  0  0  0
   -3.5497   -0.8537    0.5498 H   0  0  0  0  0  0  0  0  0  0  0  0
  1  7  1  0  0  0  0
  2  1  1  0  0  0  0
  2  8  1  0  0  0  0
  3  2  2  0  0  0  0
  4  5  2  0  0  0  0
  4  3  1  0  0  0  0
  5  6  1  0  0  0  0
  6  1  2  0  0  0  0
  9  4  1  0  0  0  0
 10  5  1  0  0  0  0
 12 11  3  0  0  0  0
 13 15  1  0  0  0  0
 14 13  1  0  0  0  0
 16 13  1  0  0  0  0
 17  3  1  0  0  0  0
 18  6  1  0  0  0  0
 18 19  1  0  0  0  0
 19 21  1  0  0  0  0
 20 19  1  0  0  0  0
 22 19  1  0  0  0  0
M  END
