Coordinates from ORCA-job p-CH3O-Ph-N2-BF4-B3LYPG-aug-cc-pVDZ-scan-d09-49-n400
 OpenBabel01151817073D

 22 20  0  0  0  0  0  0  0  0999 V2000
   -1.0274    0.2081    1.1899 C   0  0  0  0  0  0  0  0  0  0  0  0
    0.3582    0.4180    1.1412 C   0  0  0  0  0  0  0  0  0  0  0  0
    0.8313    1.6768    0.8134 C   0  0  0  0  0  0  0  0  0  0  0  0
   -0.0167    2.7405    0.5209 C   0  0  0  0  0  0  0  0  0  0  0  0
   -1.3921    2.5277    0.5697 C   0  0  0  0  0  0  0  0  0  0  0  0
   -1.9050    1.2632    0.9049 C   0  0  0  0  0  0  0  0  0  0  0  0
   -1.3978   -0.7802    1.4496 H   0  0  0  0  0  0  0  0  0  0  0  0
    1.0542   -0.3909    1.3554 H   0  0  0  0  0  0  0  0  0  0  0  0
    0.3976    3.7126    0.2590 H   0  0  0  0  0  0  0  0  0  0  0  0
   -2.0886    3.3352    0.3486 H   0  0  0  0  0  0  0  0  0  0  0  0
    1.4255    0.7912   -2.7055 N   0  0  0  0  0  0  0  0  0  0  0  0
    0.7354    0.3466   -3.4443 N   0  0  0  0  0  0  0  0  0  0  0  0
    4.1869    0.3837    1.2360 B   0  0  0  0  0  0  0  0  0  0  0  0
    3.8058   -0.5141    0.3317 F   0  0  0  0  0  0  0  0  0  0  0  0
    3.8164    0.2302    2.5035 F   0  0  0  0  0  0  0  0  0  0  0  0
    5.0053    1.3692    0.8938 F   0  0  0  0  0  0  0  0  0  0  0  0
    2.1880    1.8904    0.7542 F   0  0  0  0  0  0  0  0  0  0  0  0
   -3.2689    1.1642    0.9245 O   0  0  0  0  0  0  0  0  0  0  0  0
   -3.8458   -0.0940    1.2566 C   0  0  0  0  0  0  0  0  0  0  0  0
   -4.9290    0.0546    1.2127 H   0  0  0  0  0  0  0  0  0  0  0  0
   -3.5601   -0.4087    2.2724 H   0  0  0  0  0  0  0  0  0  0  0  0
   -3.5532   -0.8710    0.5334 H   0  0  0  0  0  0  0  0  0  0  0  0
  1  7  1  0  0  0  0
  2  1  1  0  0  0  0
  2  8  1  0  0  0  0
  3  2  2  0  0  0  0
  4  5  2  0  0  0  0
  4  3  1  0  0  0  0
  5  6  1  0  0  0  0
  6 18  1  0  0  0  0
  6  1  2  0  0  0  0
  9  4  1  0  0  0  0
 10  5  1  0  0  0  0
 12 11  3  0  0  0  0
 13 15  1  0  0  0  0
 14 13  1  0  0  0  0
 16 13  1  0  0  0  0
 17  3  1  0  0  0  0
 18 19  1  0  0  0  0
 19 21  1  0  0  0  0
 20 19  1  0  0  0  0
 22 19  1  0  0  0  0
M  END
