Coordinates from ORCA-job p-CH3O-Ph-N2-BF4-B3LYPG-aug-cc-pVDZ-scan-d09-49-n400
 OpenBabel01151817063D

 22 20  0  0  0  0  0  0  0  0999 V2000
   -1.0255    0.2013    1.1674 C   0  0  0  0  0  0  0  0  0  0  0  0
    0.3603    0.4080    1.1093 C   0  0  0  0  0  0  0  0  0  0  0  0
    0.8339    1.6648    0.7747 C   0  0  0  0  0  0  0  0  0  0  0  0
   -0.0136    2.7302    0.4880 C   0  0  0  0  0  0  0  0  0  0  0  0
   -1.3893    2.5209    0.5465 C   0  0  0  0  0  0  0  0  0  0  0  0
   -1.9028    1.2578    0.8863 C   0  0  0  0  0  0  0  0  0  0  0  0
   -1.3965   -0.7855    1.4320 H   0  0  0  0  0  0  0  0  0  0  0  0
    1.0555   -0.4018    1.3222 H   0  0  0  0  0  0  0  0  0  0  0  0
    0.4009    3.7015    0.2240 H   0  0  0  0  0  0  0  0  0  0  0  0
   -2.0856    3.3298    0.3300 H   0  0  0  0  0  0  0  0  0  0  0  0
    1.4048    0.8471   -2.5137 N   0  0  0  0  0  0  0  0  0  0  0  0
    0.7158    0.4069   -3.2562 N   0  0  0  0  0  0  0  0  0  0  0  0
    4.1880    0.3799    1.2239 B   0  0  0  0  0  0  0  0  0  0  0  0
    3.7971   -0.5455    0.3522 F   0  0  0  0  0  0  0  0  0  0  0  0
    3.8271    0.2689    2.4984 F   0  0  0  0  0  0  0  0  0  0  0  0
    5.0072    1.3505    0.8433 F   0  0  0  0  0  0  0  0  0  0  0  0
    2.1903    1.8770    0.7113 F   0  0  0  0  0  0  0  0  0  0  0  0
   -3.2666    1.1617    0.9152 O   0  0  0  0  0  0  0  0  0  0  0  0
   -3.8440   -0.0947    1.2533 C   0  0  0  0  0  0  0  0  0  0  0  0
   -4.9271    0.0561    1.2160 H   0  0  0  0  0  0  0  0  0  0  0  0
   -3.5526   -0.4081    2.2678 H   0  0  0  0  0  0  0  0  0  0  0  0
   -3.5576   -0.8735    0.5296 H   0  0  0  0  0  0  0  0  0  0  0  0
  1  7  1  0  0  0  0
  2  1  1  0  0  0  0
  2  8  1  0  0  0  0
  3  2  2  0  0  0  0
  4  5  2  0  0  0  0
  4  3  1  0  0  0  0
  5  6  1  0  0  0  0
  6 18  1  0  0  0  0
  6  1  2  0  0  0  0
  9  4  1  0  0  0  0
 10  5  1  0  0  0  0
 12 11  3  0  0  0  0
 13 15  1  0  0  0  0
 14 13  1  0  0  0  0
 16 13  1  0  0  0  0
 17  3  1  0  0  0  0
 18 19  1  0  0  0  0
 19 21  1  0  0  0  0
 20 19  1  0  0  0  0
 22 19  1  0  0  0  0
M  END
