Coordinates from ORCA-job p-CH3O-Ph-N2-BF4-B3LYPG-aug-cc-pVDZ-scan-d09-49-n400
 OpenBabel01151817063D

 22 20  0  0  0  0  0  0  0  0999 V2000
   -1.1182   -0.1099    0.5263 C   0  0  0  0  0  0  0  0  0  0  0  0
    0.0889   -0.1287   -0.2196 C   0  0  0  0  0  0  0  0  0  0  0  0
    0.3820    1.1332   -0.5440 C   0  0  0  0  0  0  0  0  0  0  0  0
   -0.0011    2.3975   -0.2950 C   0  0  0  0  0  0  0  0  0  0  0  0
   -1.1945    2.3388    0.4495 C   0  0  0  0  0  0  0  0  0  0  0  0
   -1.7445    1.1051    0.8589 C   0  0  0  0  0  0  0  0  0  0  0  0
   -1.5035   -1.0727    0.8515 H   0  0  0  0  0  0  0  0  0  0  0  0
    0.6768   -1.0171   -0.4199 H   0  0  0  0  0  0  0  0  0  0  0  0
    0.5148    3.3106   -0.5688 H   0  0  0  0  0  0  0  0  0  0  0  0
   -1.6762    3.2726    0.7364 H   0  0  0  0  0  0  0  0  0  0  0  0
    2.2937    1.1307   -1.9845 N   0  0  0  0  0  0  0  0  0  0  0  0
    3.2139    1.1377   -2.5916 N   0  0  0  0  0  0  0  0  0  0  0  0
    2.8088    1.0406    1.4039 B   0  0  0  0  0  0  0  0  0  0  0  0
    2.8201   -0.1078    0.5372 F   0  0  0  0  0  0  0  0  0  0  0  0
    1.6284    0.9908    2.1906 F   0  0  0  0  0  0  0  0  0  0  0  0
    3.9537    1.0807    2.1845 F   0  0  0  0  0  0  0  0  0  0  0  0
    2.7271    2.2012    0.5527 F   0  0  0  0  0  0  0  0  0  0  0  0
   -2.8808    1.1972    1.5842 O   0  0  0  0  0  0  0  0  0  0  0  0
   -3.4273    0.0025    2.1536 C   0  0  0  0  0  0  0  0  0  0  0  0
   -4.3022    0.3248    2.7239 H   0  0  0  0  0  0  0  0  0  0  0  0
   -2.7006   -0.4751    2.8259 H   0  0  0  0  0  0  0  0  0  0  0  0
   -3.7394   -0.6993    1.3659 H   0  0  0  0  0  0  0  0  0  0  0  0
  1  7  1  0  0  0  0
  1  6  1  0  0  0  0
  2  1  2  0  0  0  0
  3  4  2  0  0  0  0
  3  2  1  0  0  0  0
  4  5  1  0  0  0  0
  5 10  1  0  0  0  0
  5  6  2  0  0  0  0
  6 18  1  0  0  0  0
  8  2  1  0  0  0  0
  9  4  1  0  0  0  0
 12 11  3  0  0  0  0
 13 16  1  0  0  0  0
 13 15  1  0  0  0  0
 14 13  1  0  0  0  0
 17 13  1  0  0  0  0
 18 19  1  0  0  0  0
 19 20  1  0  0  0  0
 19 21  1  0  0  0  0
 22 19  1  0  0  0  0
M  RAD  1   3   2
M  END
