Coordinates from ORCA-job p-CH3O-Ph-N2-BF4-B3LYPG-aug-cc-pVDZ-scan-d09-49-n400
 OpenBabel01151817063D

 22 20  0  0  0  0  0  0  0  0999 V2000
   -1.0004    0.1889    1.1065 C   0  0  0  0  0  0  0  0  0  0  0  0
    0.3843    0.3938    1.0327 C   0  0  0  0  0  0  0  0  0  0  0  0
    0.8580    1.6363    0.6492 C   0  0  0  0  0  0  0  0  0  0  0  0
    0.0079    2.7035    0.3773 C   0  0  0  0  0  0  0  0  0  0  0  0
   -1.3668    2.4983    0.4520 C   0  0  0  0  0  0  0  0  0  0  0  0
   -1.8799    1.2402    0.8115 C   0  0  0  0  0  0  0  0  0  0  0  0
   -1.3697   -0.7907    1.3985 H   0  0  0  0  0  0  0  0  0  0  0  0
    1.0784   -0.4128    1.2601 H   0  0  0  0  0  0  0  0  0  0  0  0
    0.4194    3.6728    0.1014 H   0  0  0  0  0  0  0  0  0  0  0  0
   -2.0636    3.3074    0.2377 H   0  0  0  0  0  0  0  0  0  0  0  0
    1.2151    1.0016   -1.8407 N   0  0  0  0  0  0  0  0  0  0  0  0
    0.5200    0.6077   -2.6044 N   0  0  0  0  0  0  0  0  0  0  0  0
    4.1910    0.3571    1.1858 B   0  0  0  0  0  0  0  0  0  0  0  0
    3.7580   -0.6108    0.3826 F   0  0  0  0  0  0  0  0  0  0  0  0
    3.8565    0.3354    2.4719 F   0  0  0  0  0  0  0  0  0  0  0  0
    5.0241    1.2809    0.7269 F   0  0  0  0  0  0  0  0  0  0  0  0
    2.2110    1.8549    0.6022 F   0  0  0  0  0  0  0  0  0  0  0  0
   -3.2428    1.1461    0.8526 O   0  0  0  0  0  0  0  0  0  0  0  0
   -3.8192   -0.1051    1.2121 C   0  0  0  0  0  0  0  0  0  0  0  0
   -4.9023    0.0453    1.1760 H   0  0  0  0  0  0  0  0  0  0  0  0
   -3.5244   -0.4026    2.2303 H   0  0  0  0  0  0  0  0  0  0  0  0
   -3.5348   -0.8946    0.4993 H   0  0  0  0  0  0  0  0  0  0  0  0
  1  7  1  0  0  0  0
  2  1  1  0  0  0  0
  2  8  1  0  0  0  0
  3  2  2  0  0  0  0
  4  5  2  0  0  0  0
  4  3  1  0  0  0  0
  5  6  1  0  0  0  0
  6 18  1  0  0  0  0
  6  1  2  0  0  0  0
  9  4  1  0  0  0  0
 10  5  1  0  0  0  0
 12 11  3  0  0  0  0
 13 15  1  0  0  0  0
 14 13  1  0  0  0  0
 16 13  1  0  0  0  0
 17  3  1  0  0  0  0
 18 19  1  0  0  0  0
 19 21  1  0  0  0  0
 20 19  1  0  0  0  0
 22 19  1  0  0  0  0
M  END
