Coordinates from ORCA-job p-CH3O-Ph-N2-BF4-B3LYPG-aug-cc-pVDZ-scan-d09-49-n400
 OpenBabel01151817063D

 22 20  0  0  0  0  0  0  0  0999 V2000
   -1.1212   -0.1167    0.5098 C   0  0  0  0  0  0  0  0  0  0  0  0
    0.0741   -0.1385   -0.2503 C   0  0  0  0  0  0  0  0  0  0  0  0
    0.3834    1.1225   -0.5766 C   0  0  0  0  0  0  0  0  0  0  0  0
   -0.0012    2.3866   -0.3195 C   0  0  0  0  0  0  0  0  0  0  0  0
   -1.1843    2.3328    0.4397 C   0  0  0  0  0  0  0  0  0  0  0  0
   -1.7368    1.1015    0.8519 C   0  0  0  0  0  0  0  0  0  0  0  0
   -1.5072   -1.0769    0.8412 H   0  0  0  0  0  0  0  0  0  0  0  0
    0.6530   -1.0306   -0.4606 H   0  0  0  0  0  0  0  0  0  0  0  0
    0.5148    3.2993   -0.5948 H   0  0  0  0  0  0  0  0  0  0  0  0
   -1.6571    3.2676    0.7375 H   0  0  0  0  0  0  0  0  0  0  0  0
    2.2508    1.1324   -1.9081 N   0  0  0  0  0  0  0  0  0  0  0  0
    3.1646    1.1445   -2.5249 N   0  0  0  0  0  0  0  0  0  0  0  0
    2.8136    1.0527    1.4066 B   0  0  0  0  0  0  0  0  0  0  0  0
    2.8342   -0.0903    0.5311 F   0  0  0  0  0  0  0  0  0  0  0  0
    1.6113    1.0086    2.1604 F   0  0  0  0  0  0  0  0  0  0  0  0
    3.9362    1.0701    2.2207 F   0  0  0  0  0  0  0  0  0  0  0  0
    2.7711    2.2223    0.5676 F   0  0  0  0  0  0  0  0  0  0  0  0
   -2.8641    1.1985    1.5904 O   0  0  0  0  0  0  0  0  0  0  0  0
   -3.4134    0.0056    2.1606 C   0  0  0  0  0  0  0  0  0  0  0  0
   -4.2801    0.3321    2.7411 H   0  0  0  0  0  0  0  0  0  0  0  0
   -2.6834   -0.4798    2.8238 H   0  0  0  0  0  0  0  0  0  0  0  0
   -3.7385   -0.6910    1.3737 H   0  0  0  0  0  0  0  0  0  0  0  0
  1  7  1  0  0  0  0
  1  6  1  0  0  0  0
  2  1  2  0  0  0  0
  3  4  2  0  0  0  0
  3  2  1  0  0  0  0
  4  5  1  0  0  0  0
  5 10  1  0  0  0  0
  5  6  2  0  0  0  0
  6 18  1  0  0  0  0
  8  2  1  0  0  0  0
  9  4  1  0  0  0  0
 12 11  3  0  0  0  0
 13 15  1  0  0  0  0
 13 16  1  0  0  0  0
 14 13  1  0  0  0  0
 17 13  1  0  0  0  0
 18 19  1  0  0  0  0
 19 20  1  0  0  0  0
 19 21  1  0  0  0  0
 22 19  1  0  0  0  0
M  RAD  1   3   2
M  END
