Coordinates from ORCA-job p-CH3O-Ph-N2-BF4-B3LYPG-aug-cc-pVDZ-scan-d09-49-n400
 OpenBabel01151817063D

 22 20  0  0  0  0  0  0  0  0999 V2000
   -1.1258   -0.1222    0.4974 C   0  0  0  0  0  0  0  0  0  0  0  0
    0.0606   -0.1441   -0.2697 C   0  0  0  0  0  0  0  0  0  0  0  0
    0.3979    1.1141   -0.6018 C   0  0  0  0  0  0  0  0  0  0  0  0
   -0.0035    2.3761   -0.3321 C   0  0  0  0  0  0  0  0  0  0  0  0
   -1.1793    2.3279    0.4327 C   0  0  0  0  0  0  0  0  0  0  0  0
   -1.7349    1.0980    0.8444 C   0  0  0  0  0  0  0  0  0  0  0  0
   -1.5157   -1.0795    0.8320 H   0  0  0  0  0  0  0  0  0  0  0  0
    0.6277   -1.0417   -0.4889 H   0  0  0  0  0  0  0  0  0  0  0  0
    0.5114    3.2899   -0.6062 H   0  0  0  0  0  0  0  0  0  0  0  0
   -1.6473    3.2618    0.7400 H   0  0  0  0  0  0  0  0  0  0  0  0
    2.1780    1.1265   -1.7952 N   0  0  0  0  0  0  0  0  0  0  0  0
    3.0723    1.1381   -2.4392 N   0  0  0  0  0  0  0  0  0  0  0  0
    2.8526    1.0689    1.4016 B   0  0  0  0  0  0  0  0  0  0  0  0
    2.8699   -0.0767    0.5270 F   0  0  0  0  0  0  0  0  0  0  0  0
    1.6441    1.0378    2.1435 F   0  0  0  0  0  0  0  0  0  0  0  0
    3.9687    1.0737    2.2251 F   0  0  0  0  0  0  0  0  0  0  0  0
    2.8323    2.2381    0.5609 F   0  0  0  0  0  0  0  0  0  0  0  0
   -2.8581    1.1980    1.5888 O   0  0  0  0  0  0  0  0  0  0  0  0
   -3.4158    0.0060    2.1522 C   0  0  0  0  0  0  0  0  0  0  0  0
   -4.2787    0.3356    2.7365 H   0  0  0  0  0  0  0  0  0  0  0  0
   -2.6887   -0.4897    2.8109 H   0  0  0  0  0  0  0  0  0  0  0  0
   -3.7478   -0.6832    1.3616 H   0  0  0  0  0  0  0  0  0  0  0  0
  1  7  1  0  0  0  0
  1  6  1  0  0  0  0
  2  1  2  0  0  0  0
  3  4  2  0  0  0  0
  3  2  1  0  0  0  0
  4  5  1  0  0  0  0
  5 10  1  0  0  0  0
  5  6  2  0  0  0  0
  6 18  1  0  0  0  0
  8  2  1  0  0  0  0
  9  4  1  0  0  0  0
 12 11  3  0  0  0  0
 13 15  1  0  0  0  0
 13 16  1  0  0  0  0
 14 13  1  0  0  0  0
 17 13  1  0  0  0  0
 18 19  1  0  0  0  0
 19 20  1  0  0  0  0
 19 21  1  0  0  0  0
 22 19  1  0  0  0  0
M  RAD  1   3   2
M  END
