Coordinates from ORCA-job p-CH3O-Ph-N2-BF4-B3LYPG-aug-cc-pVDZ-scan-d09-49-n400
 OpenBabel01151817063D

 22 20  0  0  0  0  0  0  0  0999 V2000
   -1.1339   -0.1297    0.4831 C   0  0  0  0  0  0  0  0  0  0  0  0
    0.0447   -0.1480   -0.2828 C   0  0  0  0  0  0  0  0  0  0  0  0
    0.4361    1.1039   -0.6283 C   0  0  0  0  0  0  0  0  0  0  0  0
   -0.0018    2.3599   -0.3302 C   0  0  0  0  0  0  0  0  0  0  0  0
   -1.1723    2.3215    0.4312 C   0  0  0  0  0  0  0  0  0  0  0  0
   -1.7355    1.0928    0.8369 C   0  0  0  0  0  0  0  0  0  0  0  0
   -1.5350   -1.0830    0.8150 H   0  0  0  0  0  0  0  0  0  0  0  0
    0.5920   -1.0549   -0.5154 H   0  0  0  0  0  0  0  0  0  0  0  0
    0.5102    3.2771   -0.6003 H   0  0  0  0  0  0  0  0  0  0  0  0
   -1.6387    3.2526    0.7478 H   0  0  0  0  0  0  0  0  0  0  0  0
    2.0644    1.1117   -1.6504 N   0  0  0  0  0  0  0  0  0  0  0  0
    2.9366    1.1161   -2.3236 N   0  0  0  0  0  0  0  0  0  0  0  0
    2.9207    1.0956    1.3914 B   0  0  0  0  0  0  0  0  0  0  0  0
    2.9247   -0.0602    0.5266 F   0  0  0  0  0  0  0  0  0  0  0  0
    1.7183    1.0846    2.1375 F   0  0  0  0  0  0  0  0  0  0  0  0
    4.0436    1.1006    2.2047 F   0  0  0  0  0  0  0  0  0  0  0  0
    2.9087    2.2539    0.5319 F   0  0  0  0  0  0  0  0  0  0  0  0
   -2.8569    1.1957    1.5826 O   0  0  0  0  0  0  0  0  0  0  0  0
   -3.4314    0.0045    2.1305 C   0  0  0  0  0  0  0  0  0  0  0  0
   -4.2922    0.3386    2.7155 H   0  0  0  0  0  0  0  0  0  0  0  0
   -2.7133   -0.5078    2.7863 H   0  0  0  0  0  0  0  0  0  0  0  0
   -3.7689   -0.6719    1.3314 H   0  0  0  0  0  0  0  0  0  0  0  0
  1  7  1  0  0  0  0
  1  6  1  0  0  0  0
  2  1  2  0  0  0  0
  3  4  2  0  0  0  0
  3  2  1  0  0  0  0
  4  5  1  0  0  0  0
  5 10  1  0  0  0  0
  5  6  2  0  0  0  0
  6 18  1  0  0  0  0
  8  2  1  0  0  0  0
  9  4  1  0  0  0  0
 12 11  3  0  0  0  0
 13 15  1  0  0  0  0
 13 16  1  0  0  0  0
 14 13  1  0  0  0  0
 17 13  1  0  0  0  0
 18 19  1  0  0  0  0
 19 20  1  0  0  0  0
 19 21  1  0  0  0  0
 22 19  1  0  0  0  0
M  RAD  1   3   2
M  END
