Coordinates from ORCA-job p-CH3O-Ph-N2-BF4-B3LYPG-aug-cc-pVDZ-scan-d09-49-n400
 OpenBabel01151817063D

 22 21  0  0  0  0  0  0  0  0999 V2000
   -1.1128   -0.1380    0.4253 C   0  0  0  0  0  0  0  0  0  0  0  0
    0.0326   -0.1458   -0.3640 C   0  0  0  0  0  0  0  0  0  0  0  0
    0.5235    1.0949   -0.7341 C   0  0  0  0  0  0  0  0  0  0  0  0
    0.0258    2.3392   -0.3623 C   0  0  0  0  0  0  0  0  0  0  0  0
   -1.1165    2.3171    0.4177 C   0  0  0  0  0  0  0  0  0  0  0  0
   -1.6854    1.0885    0.8213 C   0  0  0  0  0  0  0  0  0  0  0  0
   -1.5285   -1.0868    0.7502 H   0  0  0  0  0  0  0  0  0  0  0  0
    0.5336   -1.0685   -0.6406 H   0  0  0  0  0  0  0  0  0  0  0  0
    0.5274    3.2638   -0.6315 H   0  0  0  0  0  0  0  0  0  0  0  0
   -1.5678    3.2438    0.7656 H   0  0  0  0  0  0  0  0  0  0  0  0
    1.8623    1.0926   -1.5574 N   0  0  0  0  0  0  0  0  0  0  0  0
    2.7687    1.0887   -2.1918 N   0  0  0  0  0  0  0  0  0  0  0  0
    2.8716    1.1219    1.4378 B   0  0  0  0  0  0  0  0  0  0  0  0
    2.8697   -0.0674    0.6222 F   0  0  0  0  0  0  0  0  0  0  0  0
    1.6408    1.1863    2.1338 F   0  0  0  0  0  0  0  0  0  0  0  0
    3.9604    1.1270    2.2961 F   0  0  0  0  0  0  0  0  0  0  0  0
    2.9350    2.2397    0.5273 F   0  0  0  0  0  0  0  0  0  0  0  0
   -2.7774    1.1926    1.5999 O   0  0  0  0  0  0  0  0  0  0  0  0
   -3.3646    0.0027    2.1420 C   0  0  0  0  0  0  0  0  0  0  0  0
   -4.1983    0.3468    2.7593 H   0  0  0  0  0  0  0  0  0  0  0  0
   -2.6387   -0.5380    2.7648 H   0  0  0  0  0  0  0  0  0  0  0  0
   -3.7417   -0.6478    1.3399 H   0  0  0  0  0  0  0  0  0  0  0  0
  1  7  1  0  0  0  0
  1  6  2  0  0  0  0
  2  1  1  0  0  0  0
  3  2  2  0  0  0  0
  3  4  1  0  0  0  0
  4  5  2  0  0  0  0
  5 10  1  0  0  0  0
  5  6  1  0  0  0  0
  6 18  1  0  0  0  0
  8  2  1  0  0  0  0
  9  4  1  0  0  0  0
 11  3  1  0  0  0  0
 12 11  1  0  0  0  0
 13 15  1  0  0  0  0
 13 16  1  0  0  0  0
 14 13  1  0  0  0  0
 17 13  1  0  0  0  0
 18 19  1  0  0  0  0
 19 20  1  0  0  0  0
 19 21  1  0  0  0  0
 22 19  1  0  0  0  0
M  RAD  2  11   2  12   3
M  END
