Coordinates from ORCA-job p-CH3O-Ph-N2-BF4-B3LYPG-aug-cc-pVDZ-scan-d09-49-n400
 OpenBabel01151817063D

 22 21  0  0  0  0  0  0  0  0999 V2000
   -1.1342   -0.1316    0.4778 C   0  0  0  0  0  0  0  0  0  0  0  0
    0.0414   -0.1485   -0.2886 C   0  0  0  0  0  0  0  0  0  0  0  0
    0.4494    1.1013   -0.6382 C   0  0  0  0  0  0  0  0  0  0  0  0
    0.0004    2.3555   -0.3305 C   0  0  0  0  0  0  0  0  0  0  0  0
   -1.1678    2.3200    0.4308 C   0  0  0  0  0  0  0  0  0  0  0  0
   -1.7329    1.0916    0.8350 C   0  0  0  0  0  0  0  0  0  0  0  0
   -1.5386   -1.0838    0.8084 H   0  0  0  0  0  0  0  0  0  0  0  0
    0.5824   -1.0581   -0.5259 H   0  0  0  0  0  0  0  0  0  0  0  0
    0.5109    3.2738   -0.6001 H   0  0  0  0  0  0  0  0  0  0  0  0
   -1.6334    3.2503    0.7503 H   0  0  0  0  0  0  0  0  0  0  0  0
    2.0315    1.1074   -1.6208 N   0  0  0  0  0  0  0  0  0  0  0  0
    2.9039    1.1105   -2.2938 N   0  0  0  0  0  0  0  0  0  0  0  0
    2.9308    1.1021    1.3916 B   0  0  0  0  0  0  0  0  0  0  0  0
    2.9324   -0.0570    0.5306 F   0  0  0  0  0  0  0  0  0  0  0  0
    1.7290    1.0974    2.1374 F   0  0  0  0  0  0  0  0  0  0  0  0
    4.0543    1.1082    2.2037 F   0  0  0  0  0  0  0  0  0  0  0  0
    2.9217    2.2563    0.5256 F   0  0  0  0  0  0  0  0  0  0  0  0
   -2.8528    1.1952    1.5823 O   0  0  0  0  0  0  0  0  0  0  0  0
   -3.4314    0.0043    2.1266 C   0  0  0  0  0  0  0  0  0  0  0  0
   -4.2905    0.3398    2.7132 H   0  0  0  0  0  0  0  0  0  0  0  0
   -2.7148   -0.5129    2.7803 H   0  0  0  0  0  0  0  0  0  0  0  0
   -3.7718   -0.6683    1.3256 H   0  0  0  0  0  0  0  0  0  0  0  0
  1  7  1  0  0  0  0
  1  6  1  0  0  0  0
  2  1  2  0  0  0  0
  3  4  2  0  0  0  0
  3  2  1  0  0  0  0
  4  5  1  0  0  0  0
  5 10  1  0  0  0  0
  5  6  2  0  0  0  0
  6 18  1  0  0  0  0
  8  2  1  0  0  0  0
  9  4  1  0  0  0  0
 11  3  1  0  0  0  0
 12 11  1  0  0  0  0
 13 15  1  0  0  0  0
 13 16  1  0  0  0  0
 14 13  1  0  0  0  0
 17 13  1  0  0  0  0
 18 19  1  0  0  0  0
 19 20  1  0  0  0  0
 19 21  1  0  0  0  0
 22 19  1  0  0  0  0
M  RAD  2  11   2  12   3
M  END
