Coordinates from ORCA-job p-CH3O-Ph-N2-BF4-B3LYPG-aug-cc-pVDZ-scan-d09-49-n400
 OpenBabel01151817063D

 22 20  0  0  0  0  0  0  0  0999 V2000
   -1.0141    0.1931    1.1385 C   0  0  0  0  0  0  0  0  0  0  0  0
    0.3716    0.3979    1.0748 C   0  0  0  0  0  0  0  0  0  0  0  0
    0.8464    1.6496    0.7236 C   0  0  0  0  0  0  0  0  0  0  0  0
   -0.0009    2.7146    0.4345 C   0  0  0  0  0  0  0  0  0  0  0  0
   -1.3766    2.5078    0.4986 C   0  0  0  0  0  0  0  0  0  0  0  0
   -1.8910    1.2480    0.8496 C   0  0  0  0  0  0  0  0  0  0  0  0
   -1.3857   -0.7904    1.4141 H   0  0  0  0  0  0  0  0  0  0  0  0
    1.0662   -0.4107    1.2941 H   0  0  0  0  0  0  0  0  0  0  0  0
    0.4139    3.6836    0.1626 H   0  0  0  0  0  0  0  0  0  0  0  0
   -2.0724    3.3162    0.2788 H   0  0  0  0  0  0  0  0  0  0  0  0
    1.3045    0.9320   -2.1899 N   0  0  0  0  0  0  0  0  0  0  0  0
    0.6117    0.5137   -2.9415 N   0  0  0  0  0  0  0  0  0  0  0  0
    4.1924    0.3708    1.2066 B   0  0  0  0  0  0  0  0  0  0  0  0
    3.7814   -0.5855    0.3782 F   0  0  0  0  0  0  0  0  0  0  0  0
    3.8487    0.3141    2.4893 F   0  0  0  0  0  0  0  0  0  0  0  0
    5.0145    1.3176    0.7759 F   0  0  0  0  0  0  0  0  0  0  0  0
    2.2019    1.8610    0.6605 F   0  0  0  0  0  0  0  0  0  0  0  0
   -3.2546    1.1540    0.8827 O   0  0  0  0  0  0  0  0  0  0  0  0
   -3.8330   -0.0988    1.2321 C   0  0  0  0  0  0  0  0  0  0  0  0
   -4.9160    0.0529    1.1954 H   0  0  0  0  0  0  0  0  0  0  0  0
   -3.5403   -0.4042    2.2487 H   0  0  0  0  0  0  0  0  0  0  0  0
   -3.5487   -0.8839    0.5144 H   0  0  0  0  0  0  0  0  0  0  0  0
  1  7  1  0  0  0  0
  2  1  1  0  0  0  0
  2  8  1  0  0  0  0
  3  2  2  0  0  0  0
  4  5  2  0  0  0  0
  4  3  1  0  0  0  0
  5  6  1  0  0  0  0
  6 18  1  0  0  0  0
  6  1  2  0  0  0  0
  9  4  1  0  0  0  0
 10  5  1  0  0  0  0
 12 11  3  0  0  0  0
 13 15  1  0  0  0  0
 14 13  1  0  0  0  0
 16 13  1  0  0  0  0
 17  3  1  0  0  0  0
 18 19  1  0  0  0  0
 19 21  1  0  0  0  0
 20 19  1  0  0  0  0
 22 19  1  0  0  0  0
M  END
