Coordinates from ORCA-job p-CH3O-Ph-N2-BF4-B3LYPG-aug-cc-pVDZ-scan-d09-49-n400
 OpenBabel01151817063D

 22 21  0  0  0  0  0  0  0  0999 V2000
   -0.7367   -0.0088    0.2180 C   0  0  0  0  0  0  0  0  0  0  0  0
    0.2791    0.0508   -0.6904 C   0  0  0  0  0  0  0  0  0  0  0  0
    0.6833    1.3161   -1.2871 C   0  0  0  0  0  0  0  0  0  0  0  0
   -0.0921    2.5007   -0.9265 C   0  0  0  0  0  0  0  0  0  0  0  0
   -1.1038    2.4202   -0.0238 C   0  0  0  0  0  0  0  0  0  0  0  0
   -1.3962    1.1803    0.6184 C   0  0  0  0  0  0  0  0  0  0  0  0
   -0.9603   -0.9580    0.6925 H   0  0  0  0  0  0  0  0  0  0  0  0
    0.8511   -0.8339   -0.9582 H   0  0  0  0  0  0  0  0  0  0  0  0
    0.1993    3.4477   -1.3788 H   0  0  0  0  0  0  0  0  0  0  0  0
   -1.6571    3.3061    0.2813 H   0  0  0  0  0  0  0  0  0  0  0  0
    1.5331    1.3793   -1.9350 N   0  0  0  0  0  0  0  0  0  0  0  0
    2.4411    1.4492   -2.6281 N   0  0  0  0  0  0  0  0  0  0  0  0
    1.8919    0.5973    2.1005 B   0  0  0  0  0  0  0  0  0  0  0  0
    2.2691   -0.3372    1.0833 F   0  0  0  0  0  0  0  0  0  0  0  0
    0.6612    0.1440    2.6889 F   0  0  0  0  0  0  0  0  0  0  0  0
    2.8818    0.7157    3.0641 F   0  0  0  0  0  0  0  0  0  0  0  0
    1.6350    1.8505    1.4617 F   0  0  0  0  0  0  0  0  0  0  0  0
   -2.2976    1.2392    1.5753 O   0  0  0  0  0  0  0  0  0  0  0  0
   -2.5163    0.0880    2.4338 C   0  0  0  0  0  0  0  0  0  0  0  0
   -3.2065    0.4444    3.2012 H   0  0  0  0  0  0  0  0  0  0  0  0
   -1.5588   -0.2153    2.8720 H   0  0  0  0  0  0  0  0  0  0  0  0
   -2.9807   -0.7228    1.8581 H   0  0  0  0  0  0  0  0  0  0  0  0
  1  6  1  0  0  0  0
  1  7  1  0  0  0  0
  2  1  2  0  0  0  0
  3  4  2  0  0  0  0
  3  2  1  0  0  0  0
  4  5  1  0  0  0  0
  5 10  1  0  0  0  0
  5  6  2  0  0  0  0
  6 18  1  0  0  0  0
  8  2  1  0  0  0  0
  9  4  1  0  0  0  0
 11  3  1  0  0  0  0
 12 11  1  0  0  0  0
 13 15  1  0  0  0  0
 13 16  1  0  0  0  0
 14 13  1  0  0  0  0
 17 13  1  0  0  0  0
 18 19  1  0  0  0  0
 19 21  1  0  0  0  0
 19 20  1  0  0  0  0
 22 19  1  0  0  0  0
M  RAD  2  11   2  12   3
M  END
