Coordinates from ORCA-job p-CH3O-Ph-N2-BF4-B3LYPG-aug-cc-pVDZ-scan-d09-49-n400
 OpenBabel01151817063D

 22 20  0  0  0  0  0  0  0  0999 V2000
   -1.1254   -0.1218    0.4980 C   0  0  0  0  0  0  0  0  0  0  0  0
    0.0614   -0.1438   -0.2689 C   0  0  0  0  0  0  0  0  0  0  0  0
    0.3967    1.1146   -0.6005 C   0  0  0  0  0  0  0  0  0  0  0  0
   -0.0034    2.3767   -0.3317 C   0  0  0  0  0  0  0  0  0  0  0  0
   -1.1795    2.3282    0.4330 C   0  0  0  0  0  0  0  0  0  0  0  0
   -1.7349    1.0982    0.8448 C   0  0  0  0  0  0  0  0  0  0  0  0
   -1.5150   -1.0794    0.8325 H   0  0  0  0  0  0  0  0  0  0  0  0
    0.6293   -1.0410   -0.4876 H   0  0  0  0  0  0  0  0  0  0  0  0
    0.5116    3.2904   -0.6060 H   0  0  0  0  0  0  0  0  0  0  0  0
   -1.6477    3.2622    0.7398 H   0  0  0  0  0  0  0  0  0  0  0  0
    2.1830    1.1270   -1.8026 N   0  0  0  0  0  0  0  0  0  0  0  0
    3.0787    1.1388   -2.4447 N   0  0  0  0  0  0  0  0  0  0  0  0
    2.8494    1.0678    1.4021 B   0  0  0  0  0  0  0  0  0  0  0  0
    2.8671   -0.0776    0.5273 F   0  0  0  0  0  0  0  0  0  0  0  0
    1.6409    1.0359    2.1442 F   0  0  0  0  0  0  0  0  0  0  0  0
    3.9655    1.0730    2.2257 F   0  0  0  0  0  0  0  0  0  0  0  0
    2.8284    2.2372    0.5619 F   0  0  0  0  0  0  0  0  0  0  0  0
   -2.8582    1.1981    1.5891 O   0  0  0  0  0  0  0  0  0  0  0  0
   -3.4152    0.0060    2.1531 C   0  0  0  0  0  0  0  0  0  0  0  0
   -4.2782    0.3355    2.7373 H   0  0  0  0  0  0  0  0  0  0  0  0
   -2.6877   -0.4889    2.8120 H   0  0  0  0  0  0  0  0  0  0  0  0
   -3.7469   -0.6837    1.3628 H   0  0  0  0  0  0  0  0  0  0  0  0
  1  7  1  0  0  0  0
  1  6  1  0  0  0  0
  2  1  2  0  0  0  0
  3  4  2  0  0  0  0
  3  2  1  0  0  0  0
  4  5  1  0  0  0  0
  5 10  1  0  0  0  0
  5  6  2  0  0  0  0
  6 18  1  0  0  0  0
  8  2  1  0  0  0  0
  9  4  1  0  0  0  0
 12 11  3  0  0  0  0
 13 15  1  0  0  0  0
 13 16  1  0  0  0  0
 14 13  1  0  0  0  0
 17 13  1  0  0  0  0
 18 19  1  0  0  0  0
 19 20  1  0  0  0  0
 19 21  1  0  0  0  0
 22 19  1  0  0  0  0
M  RAD  1   3   2
M  END
