Coordinates from ORCA-job p-CH3O-Ph-N2-BF4-B3LYPG-aug-cc-pVDZ-scan-d09-49-n400
 OpenBabel01151817063D

 22 21  0  0  0  0  0  0  0  0999 V2000
   -0.7644   -0.0072    0.2239 C   0  0  0  0  0  0  0  0  0  0  0  0
    0.2579    0.0532   -0.6881 C   0  0  0  0  0  0  0  0  0  0  0  0
    0.6136    1.3128   -1.2563 C   0  0  0  0  0  0  0  0  0  0  0  0
   -0.1173    2.5002   -0.9298 C   0  0  0  0  0  0  0  0  0  0  0  0
   -1.1377    2.4189   -0.0252 C   0  0  0  0  0  0  0  0  0  0  0  0
   -1.4299    1.1802    0.6127 C   0  0  0  0  0  0  0  0  0  0  0  0
   -0.9848   -0.9539    0.7043 H   0  0  0  0  0  0  0  0  0  0  0  0
    0.8372   -0.8301   -0.9408 H   0  0  0  0  0  0  0  0  0  0  0  0
    0.1745    3.4495   -1.3751 H   0  0  0  0  0  0  0  0  0  0  0  0
   -1.6916    3.3040    0.2801 H   0  0  0  0  0  0  0  0  0  0  0  0
    1.6361    1.3893   -1.9902 N   0  0  0  0  0  0  0  0  0  0  0  0
    2.5573    1.4595   -2.6367 N   0  0  0  0  0  0  0  0  0  0  0  0
    1.9289    0.5897    2.0966 B   0  0  0  0  0  0  0  0  0  0  0  0
    2.2984   -0.3433    1.0728 F   0  0  0  0  0  0  0  0  0  0  0  0
    0.7026    0.1406    2.6913 F   0  0  0  0  0  0  0  0  0  0  0  0
    2.9292    0.6978    3.0534 F   0  0  0  0  0  0  0  0  0  0  0  0
    1.6791    1.8478    1.4656 F   0  0  0  0  0  0  0  0  0  0  0  0
   -2.3409    1.2375    1.5700 O   0  0  0  0  0  0  0  0  0  0  0  0
   -2.5363    0.0925    2.4373 C   0  0  0  0  0  0  0  0  0  0  0  0
   -3.2257    0.4431    3.2084 H   0  0  0  0  0  0  0  0  0  0  0  0
   -1.5729   -0.1971    2.8729 H   0  0  0  0  0  0  0  0  0  0  0  0
   -2.9935   -0.7318    1.8743 H   0  0  0  0  0  0  0  0  0  0  0  0
  1  6  1  0  0  0  0
  1  7  1  0  0  0  0
  2  1  2  0  0  0  0
  3  4  2  0  0  0  0
  3  2  1  0  0  0  0
  4  5  1  0  0  0  0
  5 10  1  0  0  0  0
  5  6  2  0  0  0  0
  6 18  1  0  0  0  0
  8  2  1  0  0  0  0
  9  4  1  0  0  0  0
 11  3  1  0  0  0  0
 12 11  1  0  0  0  0
 13 15  1  0  0  0  0
 13 16  1  0  0  0  0
 14 13  1  0  0  0  0
 17 13  1  0  0  0  0
 18 19  1  0  0  0  0
 19 21  1  0  0  0  0
 19 20  1  0  0  0  0
 22 19  1  0  0  0  0
M  RAD  2  11   2  12   3
M  END
