Coordinates from ORCA-job p-CH3O-Ph-N2-BF4-B3LYPG-aug-cc-pVDZ-scan-d09-49-n400
 OpenBabel01151817073D

 22 20  0  0  0  0  0  0  0  0999 V2000
   -1.0260    0.2031    1.1734 C   0  0  0  0  0  0  0  0  0  0  0  0
    0.3598    0.4108    1.1182 C   0  0  0  0  0  0  0  0  0  0  0  0
    0.8333    1.6683    0.7861 C   0  0  0  0  0  0  0  0  0  0  0  0
   -0.0144    2.7331    0.4968 C   0  0  0  0  0  0  0  0  0  0  0  0
   -1.3899    2.5225    0.5521 C   0  0  0  0  0  0  0  0  0  0  0  0
   -1.9033    1.2592    0.8910 C   0  0  0  0  0  0  0  0  0  0  0  0
   -1.3967   -0.7842    1.4364 H   0  0  0  0  0  0  0  0  0  0  0  0
    1.0554   -0.3988    1.3308 H   0  0  0  0  0  0  0  0  0  0  0  0
    0.4002    3.7044    0.2326 H   0  0  0  0  0  0  0  0  0  0  0  0
   -2.0861    3.3310    0.3338 H   0  0  0  0  0  0  0  0  0  0  0  0
    1.4091    0.8331   -2.5600 N   0  0  0  0  0  0  0  0  0  0  0  0
    0.7193    0.3918   -3.3010 N   0  0  0  0  0  0  0  0  0  0  0  0
    4.1881    0.3808    1.2263 B   0  0  0  0  0  0  0  0  0  0  0  0
    3.7987   -0.5385    0.3472 F   0  0  0  0  0  0  0  0  0  0  0  0
    3.8258    0.2599    2.4996 F   0  0  0  0  0  0  0  0  0  0  0  0
    5.0068    1.3549    0.8539 F   0  0  0  0  0  0  0  0  0  0  0  0
    2.1898    1.8802    0.7223 F   0  0  0  0  0  0  0  0  0  0  0  0
   -3.2671    1.1623    0.9170 O   0  0  0  0  0  0  0  0  0  0  0  0
   -3.8445   -0.0946    1.2533 C   0  0  0  0  0  0  0  0  0  0  0  0
   -4.9276    0.0556    1.2140 H   0  0  0  0  0  0  0  0  0  0  0  0
   -3.5548   -0.4085    2.2681 H   0  0  0  0  0  0  0  0  0  0  0  0
   -3.5563   -0.8729    0.5297 H   0  0  0  0  0  0  0  0  0  0  0  0
  1  7  1  0  0  0  0
  2  1  1  0  0  0  0
  2  8  1  0  0  0  0
  3  2  2  0  0  0  0
  4  5  2  0  0  0  0
  4  3  1  0  0  0  0
  5  6  1  0  0  0  0
  6 18  1  0  0  0  0
  6  1  2  0  0  0  0
  9  4  1  0  0  0  0
 10  5  1  0  0  0  0
 12 11  3  0  0  0  0
 13 15  1  0  0  0  0
 14 13  1  0  0  0  0
 16 13  1  0  0  0  0
 17  3  1  0  0  0  0
 18 19  1  0  0  0  0
 19 21  1  0  0  0  0
 20 19  1  0  0  0  0
 22 19  1  0  0  0  0
M  END
