Coordinates from ORCA-job p-CH3O-Ph-N2-BF4-B3LYPG-aug-cc-pVDZ-scan-d09-49-n400
 OpenBabel01151817063D

 22 20  0  0  0  0  0  0  0  0999 V2000
   -1.0075    0.1908    1.1233 C   0  0  0  0  0  0  0  0  0  0  0  0
    0.3779    0.3957    1.0560 C   0  0  0  0  0  0  0  0  0  0  0  0
    0.8522    1.6440    0.6924 C   0  0  0  0  0  0  0  0  0  0  0  0
    0.0037    2.7088    0.4059 C   0  0  0  0  0  0  0  0  0  0  0  0
   -1.3716    2.5025    0.4737 C   0  0  0  0  0  0  0  0  0  0  0  0
   -1.8853    1.2439    0.8306 C   0  0  0  0  0  0  0  0  0  0  0  0
   -1.3783   -0.7911    1.4057 H   0  0  0  0  0  0  0  0  0  0  0  0
    1.0729   -0.4120    1.2776 H   0  0  0  0  0  0  0  0  0  0  0  0
    0.4183    3.6764    0.1284 H   0  0  0  0  0  0  0  0  0  0  0  0
   -2.0679    3.3103    0.2532 H   0  0  0  0  0  0  0  0  0  0  0  0
    1.2527    0.9704   -2.0007 N   0  0  0  0  0  0  0  0  0  0  0  0
    0.5747    0.5627   -2.7718 N   0  0  0  0  0  0  0  0  0  0  0  0
    4.1910    0.3636    1.1926 B   0  0  0  0  0  0  0  0  0  0  0  0
    3.7698   -0.6005    0.3786 F   0  0  0  0  0  0  0  0  0  0  0  0
    3.8529    0.3256    2.4774 F   0  0  0  0  0  0  0  0  0  0  0  0
    5.0170    1.2995    0.7458 F   0  0  0  0  0  0  0  0  0  0  0  0
    2.2065    1.8577    0.6334 F   0  0  0  0  0  0  0  0  0  0  0  0
   -3.2487    1.1500    0.8669 O   0  0  0  0  0  0  0  0  0  0  0  0
   -3.8263   -0.1018    1.2216 C   0  0  0  0  0  0  0  0  0  0  0  0
   -4.9093    0.0494    1.1854 H   0  0  0  0  0  0  0  0  0  0  0  0
   -3.5325   -0.4032    2.2391 H   0  0  0  0  0  0  0  0  0  0  0  0
   -3.5423   -0.8894    0.5066 H   0  0  0  0  0  0  0  0  0  0  0  0
  1  7  1  0  0  0  0
  2  1  1  0  0  0  0
  2  8  1  0  0  0  0
  3  2  2  0  0  0  0
  4  5  2  0  0  0  0
  4  3  1  0  0  0  0
  5  6  1  0  0  0  0
  6 18  1  0  0  0  0
  6  1  2  0  0  0  0
  9  4  1  0  0  0  0
 10  5  1  0  0  0  0
 12 11  3  0  0  0  0
 13 15  1  0  0  0  0
 14 13  1  0  0  0  0
 16 13  1  0  0  0  0
 17  3  1  0  0  0  0
 18 19  1  0  0  0  0
 19 21  1  0  0  0  0
 20 19  1  0  0  0  0
 22 19  1  0  0  0  0
M  END
