Coordinates from ORCA-job p-CH3O-Ph-N2-BF4-B3LYPG-aug-cc-pVDZ-scan-d09-49-n400
 OpenBabel01151817063D

 22 21  0  0  0  0  0  0  0  0999 V2000
   -0.7297   -0.0093    0.2174 C   0  0  0  0  0  0  0  0  0  0  0  0
    0.2848    0.0488   -0.6900 C   0  0  0  0  0  0  0  0  0  0  0  0
    0.7014    1.3160   -1.2952 C   0  0  0  0  0  0  0  0  0  0  0  0
   -0.0850    2.5013   -0.9255 C   0  0  0  0  0  0  0  0  0  0  0  0
   -1.0944    2.4208   -0.0231 C   0  0  0  0  0  0  0  0  0  0  0  0
   -1.3872    1.1807    0.6201 C   0  0  0  0  0  0  0  0  0  0  0  0
   -0.9546   -0.9588    0.6909 H   0  0  0  0  0  0  0  0  0  0  0  0
    0.8559   -0.8354   -0.9621 H   0  0  0  0  0  0  0  0  0  0  0  0
    0.2080    3.4467   -1.3809 H   0  0  0  0  0  0  0  0  0  0  0  0
   -1.6474    3.3069    0.2819 H   0  0  0  0  0  0  0  0  0  0  0  0
    1.5072    1.3754   -1.9183 N   0  0  0  0  0  0  0  0  0  0  0  0
    2.4137    1.4450   -2.6224 N   0  0  0  0  0  0  0  0  0  0  0  0
    1.8807    0.5992    2.0993 B   0  0  0  0  0  0  0  0  0  0  0  0
    2.2647   -0.3283    1.0785 F   0  0  0  0  0  0  0  0  0  0  0  0
    0.6536    0.1330    2.6863 F   0  0  0  0  0  0  0  0  0  0  0  0
    2.8693    0.7231    3.0628 F   0  0  0  0  0  0  0  0  0  0  0  0
    1.6112    1.8519    1.4646 F   0  0  0  0  0  0  0  0  0  0  0  0
   -2.2865    1.2404    1.5768 O   0  0  0  0  0  0  0  0  0  0  0  0
   -2.5113    0.0880    2.4334 C   0  0  0  0  0  0  0  0  0  0  0  0
   -3.2013    0.4463    3.2001 H   0  0  0  0  0  0  0  0  0  0  0  0
   -1.5553   -0.2192    2.8721 H   0  0  0  0  0  0  0  0  0  0  0  0
   -2.9780   -0.7193    1.8549 H   0  0  0  0  0  0  0  0  0  0  0  0
  1  6  1  0  0  0  0
  1  7  1  0  0  0  0
  2  1  2  0  0  0  0
  3  4  2  0  0  0  0
  3  2  1  0  0  0  0
  4  5  1  0  0  0  0
  5 10  1  0  0  0  0
  5  6  2  0  0  0  0
  6 18  1  0  0  0  0
  8  2  1  0  0  0  0
  9  4  1  0  0  0  0
 11  3  1  0  0  0  0
 12 11  1  0  0  0  0
 13 15  1  0  0  0  0
 13 16  1  0  0  0  0
 14 13  1  0  0  0  0
 17 13  1  0  0  0  0
 18 19  1  0  0  0  0
 19 21  1  0  0  0  0
 19 20  1  0  0  0  0
 22 19  1  0  0  0  0
M  RAD  2  11   2  12   3
M  END
