Coordinates from ORCA-job p-CH3O-Ph-N2-BF4-B3LYPG-aug-cc-pVDZ-scan-d09-49-n400
 OpenBabel01151817063D

 22 21  0  0  0  0  0  0  0  0999 V2000
   -1.1339   -0.1325    0.4747 C   0  0  0  0  0  0  0  0  0  0  0  0
    0.0400   -0.1486   -0.2923 C   0  0  0  0  0  0  0  0  0  0  0  0
    0.4564    1.1002   -0.6442 C   0  0  0  0  0  0  0  0  0  0  0  0
    0.0018    2.3533   -0.3312 C   0  0  0  0  0  0  0  0  0  0  0  0
   -1.1650    2.3193    0.4303 C   0  0  0  0  0  0  0  0  0  0  0  0
   -1.7308    1.0911    0.8340 C   0  0  0  0  0  0  0  0  0  0  0  0
   -1.5398   -1.0842    0.8046 H   0  0  0  0  0  0  0  0  0  0  0  0
    0.5776   -1.0596   -0.5323 H   0  0  0  0  0  0  0  0  0  0  0  0
    0.5116    3.2722   -0.6006 H   0  0  0  0  0  0  0  0  0  0  0  0
   -1.6300    3.2493    0.7516 H   0  0  0  0  0  0  0  0  0  0  0  0
    2.0148    1.1053   -1.6079 N   0  0  0  0  0  0  0  0  0  0  0  0
    2.8883    1.1078   -2.2797 N   0  0  0  0  0  0  0  0  0  0  0  0
    2.9335    1.1050    1.3926 B   0  0  0  0  0  0  0  0  0  0  0  0
    2.9343   -0.0558    0.5338 F   0  0  0  0  0  0  0  0  0  0  0  0
    1.7314    1.1040    2.1373 F   0  0  0  0  0  0  0  0  0  0  0  0
    4.0567    1.1116    2.2051 F   0  0  0  0  0  0  0  0  0  0  0  0
    2.9269    2.2570    0.5232 F   0  0  0  0  0  0  0  0  0  0  0  0
   -2.8496    1.1949    1.5826 O   0  0  0  0  0  0  0  0  0  0  0  0
   -3.4300    0.0042    2.1254 C   0  0  0  0  0  0  0  0  0  0  0  0
   -4.2881    0.3404    2.7132 H   0  0  0  0  0  0  0  0  0  0  0  0
   -2.7140   -0.5154    2.7776 H   0  0  0  0  0  0  0  0  0  0  0  0
   -3.7723   -0.6664    1.3235 H   0  0  0  0  0  0  0  0  0  0  0  0
  1  7  1  0  0  0  0
  1  6  1  0  0  0  0
  2  1  2  0  0  0  0
  3  4  2  0  0  0  0
  3  2  1  0  0  0  0
  4  5  1  0  0  0  0
  5 10  1  0  0  0  0
  5  6  2  0  0  0  0
  6 18  1  0  0  0  0
  8  2  1  0  0  0  0
  9  4  1  0  0  0  0
 11  3  1  0  0  0  0
 12 11  1  0  0  0  0
 13 15  1  0  0  0  0
 13 16  1  0  0  0  0
 14 13  1  0  0  0  0
 17 13  1  0  0  0  0
 18 19  1  0  0  0  0
 19 20  1  0  0  0  0
 19 21  1  0  0  0  0
 22 19  1  0  0  0  0
M  RAD  2  11   2  12   3
M  END
