Coordinates from ORCA-job p-CH3O-Ph-N2-BF4-B3LYPG-aug-cc-pVDZ-scan-d09-49-n400
 OpenBabel01151817063D

 22 20  0  0  0  0  0  0  0  0999 V2000
   -1.1185   -0.1132    0.5197 C   0  0  0  0  0  0  0  0  0  0  0  0
    0.0844   -0.1334   -0.2309 C   0  0  0  0  0  0  0  0  0  0  0  0
    0.3835    1.1285   -0.5565 C   0  0  0  0  0  0  0  0  0  0  0  0
    0.0012    2.3928   -0.3045 C   0  0  0  0  0  0  0  0  0  0  0  0
   -1.1884    2.3360    0.4460 C   0  0  0  0  0  0  0  0  0  0  0  0
   -1.7400    1.1035    0.8562 C   0  0  0  0  0  0  0  0  0  0  0  0
   -1.5047   -1.0750    0.8466 H   0  0  0  0  0  0  0  0  0  0  0  0
    0.6692   -1.0230   -0.4352 H   0  0  0  0  0  0  0  0  0  0  0  0
    0.5170    3.3058   -0.5790 H   0  0  0  0  0  0  0  0  0  0  0  0
   -1.6663    3.2704    0.7370 H   0  0  0  0  0  0  0  0  0  0  0  0
    2.2729    1.1322   -1.9600 N   0  0  0  0  0  0  0  0  0  0  0  0
    3.1930    1.1416   -2.5683 N   0  0  0  0  0  0  0  0  0  0  0  0
    2.8080    1.0450    1.4068 B   0  0  0  0  0  0  0  0  0  0  0  0
    2.8232   -0.1008    0.5363 F   0  0  0  0  0  0  0  0  0  0  0  0
    1.6192    0.9960    2.1810 F   0  0  0  0  0  0  0  0  0  0  0  0
    3.9448    1.0788    2.1996 F   0  0  0  0  0  0  0  0  0  0  0  0
    2.7395    2.2094    0.5603 F   0  0  0  0  0  0  0  0  0  0  0  0
   -2.8730    1.1980    1.5863 O   0  0  0  0  0  0  0  0  0  0  0  0
   -3.4210    0.0043    2.1561 C   0  0  0  0  0  0  0  0  0  0  0  0
   -4.2925    0.3286    2.7306 H   0  0  0  0  0  0  0  0  0  0  0  0
   -2.6931   -0.4767    2.8247 H   0  0  0  0  0  0  0  0  0  0  0  0
   -3.7386   -0.6954    1.3688 H   0  0  0  0  0  0  0  0  0  0  0  0
  1  7  1  0  0  0  0
  1  6  1  0  0  0  0
  2  1  2  0  0  0  0
  3  4  2  0  0  0  0
  3  2  1  0  0  0  0
  4  5  1  0  0  0  0
  5 10  1  0  0  0  0
  5  6  2  0  0  0  0
  6 18  1  0  0  0  0
  8  2  1  0  0  0  0
  9  4  1  0  0  0  0
 12 11  3  0  0  0  0
 13 15  1  0  0  0  0
 13 16  1  0  0  0  0
 14 13  1  0  0  0  0
 17 13  1  0  0  0  0
 18 19  1  0  0  0  0
 19 20  1  0  0  0  0
 19 21  1  0  0  0  0
 22 19  1  0  0  0  0
M  RAD  1   3   2
M  END
