Coordinates from ORCA-job p-CH3O-Ph-N2-BF4-B3LYPG-aug-cc-pVDZ-scan-d09-49-n400
 OpenBabel01151817063D

 22 20  0  0  0  0  0  0  0  0999 V2000
   -1.1282   -0.1242    0.4938 C   0  0  0  0  0  0  0  0  0  0  0  0
    0.0559   -0.1455   -0.2736 C   0  0  0  0  0  0  0  0  0  0  0  0
    0.4065    1.1112   -0.6091 C   0  0  0  0  0  0  0  0  0  0  0  0
   -0.0038    2.3718   -0.3329 C   0  0  0  0  0  0  0  0  0  0  0  0
   -1.1781    2.3262    0.4316 C   0  0  0  0  0  0  0  0  0  0  0  0
   -1.7355    1.0966    0.8420 C   0  0  0  0  0  0  0  0  0  0  0  0
   -1.5205   -1.0804    0.8286 H   0  0  0  0  0  0  0  0  0  0  0  0
    0.6182   -1.0454   -0.4958 H   0  0  0  0  0  0  0  0  0  0  0  0
    0.5106    3.2864   -0.6059 H   0  0  0  0  0  0  0  0  0  0  0  0
   -1.6454    3.2594    0.7415 H   0  0  0  0  0  0  0  0  0  0  0  0
    2.1477    1.1228   -1.7522 N   0  0  0  0  0  0  0  0  0  0  0  0
    3.0340    1.1336   -2.4071 N   0  0  0  0  0  0  0  0  0  0  0  0
    2.8723    1.0757    1.3983 B   0  0  0  0  0  0  0  0  0  0  0  0
    2.8866   -0.0720    0.5255 F   0  0  0  0  0  0  0  0  0  0  0  0
    1.6647    1.0495    2.1403 F   0  0  0  0  0  0  0  0  0  0  0  0
    3.9895    1.0794    2.2203 F   0  0  0  0  0  0  0  0  0  0  0  0
    2.8555    2.2430    0.5541 F   0  0  0  0  0  0  0  0  0  0  0  0
   -2.8582    1.1975    1.5869 O   0  0  0  0  0  0  0  0  0  0  0  0
   -3.4202    0.0057    2.1463 C   0  0  0  0  0  0  0  0  0  0  0  0
   -4.2828    0.3365    2.7307 H   0  0  0  0  0  0  0  0  0  0  0  0
   -2.6955   -0.4941    2.8046 H   0  0  0  0  0  0  0  0  0  0  0  0
   -3.7535   -0.6804    1.3536 H   0  0  0  0  0  0  0  0  0  0  0  0
  1  7  1  0  0  0  0
  1  6  1  0  0  0  0
  2  1  2  0  0  0  0
  3  4  2  0  0  0  0
  3  2  1  0  0  0  0
  4  5  1  0  0  0  0
  5 10  1  0  0  0  0
  5  6  2  0  0  0  0
  6 18  1  0  0  0  0
  8  2  1  0  0  0  0
  9  4  1  0  0  0  0
 12 11  3  0  0  0  0
 13 15  1  0  0  0  0
 13 16  1  0  0  0  0
 14 13  1  0  0  0  0
 17 13  1  0  0  0  0
 18 19  1  0  0  0  0
 19 20  1  0  0  0  0
 19 21  1  0  0  0  0
 22 19  1  0  0  0  0
M  RAD  1   3   2
M  END
