Coordinates from ORCA-job p-CH3O-Ph-N2-BF4-B3LYPG-aug-cc-pVDZ-scan-d09-49-n400
 OpenBabel01151817073D

 22 20  0  0  0  0  0  0  0  0999 V2000
   -1.0396    0.2270    1.2540 C   0  0  0  0  0  0  0  0  0  0  0  0
    0.3456    0.4443    1.2296 C   0  0  0  0  0  0  0  0  0  0  0  0
    0.8174    1.7084    0.9206 C   0  0  0  0  0  0  0  0  0  0  0  0
   -0.0311    2.7704    0.6239 C   0  0  0  0  0  0  0  0  0  0  0  0
   -1.4061    2.5504    0.6486 C   0  0  0  0  0  0  0  0  0  0  0  0
   -1.9178    1.2804    0.9644 C   0  0  0  0  0  0  0  0  0  0  0  0
   -1.4090   -0.7655    1.4985 H   0  0  0  0  0  0  0  0  0  0  0  0
    1.0424   -0.3629    1.4471 H   0  0  0  0  0  0  0  0  0  0  0  0
    0.3823    3.7467    0.3765 H   0  0  0  0  0  0  0  0  0  0  0  0
   -2.1030    3.3562    0.4230 H   0  0  0  0  0  0  0  0  0  0  0  0
    1.5036    0.6153   -3.2846 N   0  0  0  0  0  0  0  0  0  0  0  0
    0.8441    0.1628   -4.0464 N   0  0  0  0  0  0  0  0  0  0  0  0
    4.1910    0.3968    1.2701 B   0  0  0  0  0  0  0  0  0  0  0  0
    3.8444   -0.4333    0.2914 F   0  0  0  0  0  0  0  0  0  0  0  0
    3.7950    0.1414    2.5136 F   0  0  0  0  0  0  0  0  0  0  0  0
    4.9997    1.4184    1.0239 F   0  0  0  0  0  0  0  0  0  0  0  0
    2.1742    1.9282    0.8830 F   0  0  0  0  0  0  0  0  0  0  0  0
   -3.2813    1.1743    0.9610 O   0  0  0  0  0  0  0  0  0  0  0  0
   -3.8570   -0.0895    1.2728 C   0  0  0  0  0  0  0  0  0  0  0  0
   -4.9400    0.0539    1.2128 H   0  0  0  0  0  0  0  0  0  0  0  0
   -3.5860   -0.4118    2.2902 H   0  0  0  0  0  0  0  0  0  0  0  0
   -3.5488   -0.8587    0.5476 H   0  0  0  0  0  0  0  0  0  0  0  0
  1  7  1  0  0  0  0
  2  1  1  0  0  0  0
  2  8  1  0  0  0  0
  3  2  2  0  0  0  0
  4  5  2  0  0  0  0
  4  3  1  0  0  0  0
  5  6  1  0  0  0  0
  6  1  2  0  0  0  0
  9  4  1  0  0  0  0
 10  5  1  0  0  0  0
 12 11  3  0  0  0  0
 13 15  1  0  0  0  0
 14 13  1  0  0  0  0
 16 13  1  0  0  0  0
 17  3  1  0  0  0  0
 18  6  1  0  0  0  0
 18 19  1  0  0  0  0
 19 21  1  0  0  0  0
 20 19  1  0  0  0  0
 22 19  1  0  0  0  0
M  END
