Coordinates from ORCA-job p-CH3O-Ph-N2-BF4-B3LYPG-aug-cc-pVDZ-scan-d09-49-n400
 OpenBabel01151817063D

 22 21  0  0  0  0  0  0  0  0999 V2000
   -0.7706   -0.0070    0.2275 C   0  0  0  0  0  0  0  0  0  0  0  0
    0.2549    0.0529   -0.6828 C   0  0  0  0  0  0  0  0  0  0  0  0
    0.6037    1.3118   -1.2468 C   0  0  0  0  0  0  0  0  0  0  0  0
   -0.1226    2.4997   -0.9288 C   0  0  0  0  0  0  0  0  0  0  0  0
   -1.1467    2.4180   -0.0265 C   0  0  0  0  0  0  0  0  0  0  0  0
   -1.4387    1.1800    0.6118 C   0  0  0  0  0  0  0  0  0  0  0  0
   -0.9907   -0.9528    0.7094 H   0  0  0  0  0  0  0  0  0  0  0  0
    0.8374   -0.8294   -0.9308 H   0  0  0  0  0  0  0  0  0  0  0  0
    0.1703    3.4488   -1.3733 H   0  0  0  0  0  0  0  0  0  0  0  0
   -1.7025    3.3026    0.2764 H   0  0  0  0  0  0  0  0  0  0  0  0
    1.6585    1.3914   -1.9869 N   0  0  0  0  0  0  0  0  0  0  0  0
    2.5863    1.4619   -2.6201 N   0  0  0  0  0  0  0  0  0  0  0  0
    1.9371    0.5876    2.0848 B   0  0  0  0  0  0  0  0  0  0  0  0
    2.3061   -0.3412    1.0565 F   0  0  0  0  0  0  0  0  0  0  0  0
    0.7135    0.1344    2.6805 F   0  0  0  0  0  0  0  0  0  0  0  0
    2.9403    0.6936    3.0392 F   0  0  0  0  0  0  0  0  0  0  0  0
    1.6850    1.8475    1.4584 F   0  0  0  0  0  0  0  0  0  0  0  0
   -2.3528    1.2373    1.5680 O   0  0  0  0  0  0  0  0  0  0  0  0
   -2.5422    0.0950    2.4392 C   0  0  0  0  0  0  0  0  0  0  0  0
   -3.2317    0.4452    3.2106 H   0  0  0  0  0  0  0  0  0  0  0  0
   -1.5774   -0.1904    2.8748 H   0  0  0  0  0  0  0  0  0  0  0  0
   -2.9973   -0.7336    1.8805 H   0  0  0  0  0  0  0  0  0  0  0  0
  1  6  1  0  0  0  0
  1  7  1  0  0  0  0
  2  1  2  0  0  0  0
  3  4  2  0  0  0  0
  3  2  1  0  0  0  0
  4  5  1  0  0  0  0
  5 10  1  0  0  0  0
  5  6  2  0  0  0  0
  6 18  1  0  0  0  0
  8  2  1  0  0  0  0
  9  4  1  0  0  0  0
 11  3  1  0  0  0  0
 12 11  1  0  0  0  0
 13 15  1  0  0  0  0
 13 16  1  0  0  0  0
 14 13  1  0  0  0  0
 17 13  1  0  0  0  0
 18 19  1  0  0  0  0
 19 21  1  0  0  0  0
 19 20  1  0  0  0  0
 22 19  1  0  0  0  0
M  RAD  2  11   2  12   3
M  END
