Coordinates from ORCA-job p-CH3O-Ph-N2-BF4-B3LYPG-aug-cc-pVDZ-scan-d09-49-n400
 OpenBabel01151817063D

 22 21  0  0  0  0  0  0  0  0999 V2000
   -1.1268   -0.1361    0.4535 C   0  0  0  0  0  0  0  0  0  0  0  0
    0.0349   -0.1480   -0.3213 C   0  0  0  0  0  0  0  0  0  0  0  0
    0.4911    1.0959   -0.6838 C   0  0  0  0  0  0  0  0  0  0  0  0
    0.0123    2.3443   -0.3416 C   0  0  0  0  0  0  0  0  0  0  0  0
   -1.1442    2.3172    0.4260 C   0  0  0  0  0  0  0  0  0  0  0  0
   -1.7129    1.0892    0.8284 C   0  0  0  0  0  0  0  0  0  0  0  0
   -1.5392   -1.0858    0.7805 H   0  0  0  0  0  0  0  0  0  0  0  0
    0.5544   -1.0657   -0.5778 H   0  0  0  0  0  0  0  0  0  0  0  0
    0.5178    3.2662   -0.6107 H   0  0  0  0  0  0  0  0  0  0  0  0
   -1.6041    3.2454    0.7588 H   0  0  0  0  0  0  0  0  0  0  0  0
    1.9349    1.0968   -1.5660 N   0  0  0  0  0  0  0  0  0  0  0  0
    2.8209    1.0965   -2.2235 N   0  0  0  0  0  0  0  0  0  0  0  0
    2.9207    1.1166    1.4077 B   0  0  0  0  0  0  0  0  0  0  0  0
    2.9207   -0.0558    0.5651 F   0  0  0  0  0  0  0  0  0  0  0  0
    1.7082    1.1408    2.1346 F   0  0  0  0  0  0  0  0  0  0  0  0
    4.0321    1.1236    2.2359 F   0  0  0  0  0  0  0  0  0  0  0  0
    2.9397    2.2547    0.5196 F   0  0  0  0  0  0  0  0  0  0  0  0
   -2.8214    1.1939    1.5886 O   0  0  0  0  0  0  0  0  0  0  0  0
   -3.4080    0.0037    2.1279 C   0  0  0  0  0  0  0  0  0  0  0  0
   -4.2565    0.3440    2.7270 H   0  0  0  0  0  0  0  0  0  0  0  0
   -2.6900   -0.5273    2.7684 H   0  0  0  0  0  0  0  0  0  0  0  0
   -3.7645   -0.6567    1.3241 H   0  0  0  0  0  0  0  0  0  0  0  0
  1  7  1  0  0  0  0
  1  6  1  0  0  0  0
  2  1  2  0  0  0  0
  3  4  2  0  0  0  0
  3  2  1  0  0  0  0
  4  5  1  0  0  0  0
  5 10  1  0  0  0  0
  5  6  2  0  0  0  0
  6 18  1  0  0  0  0
  8  2  1  0  0  0  0
  9  4  1  0  0  0  0
 11  3  1  0  0  0  0
 12 11  1  0  0  0  0
 13 15  1  0  0  0  0
 13 16  1  0  0  0  0
 14 13  1  0  0  0  0
 17 13  1  0  0  0  0
 18 19  1  0  0  0  0
 19 20  1  0  0  0  0
 19 21  1  0  0  0  0
 22 19  1  0  0  0  0
M  RAD  2  11   2  12   3
M  END
