Coordinates from ORCA-job p-CH3O-Ph-N2-BF4-B3LYPG-aug-cc-pVDZ-scan-d09-49-n400
 OpenBabel01151817063D

 22 21  0  0  0  0  0  0  0  0999 V2000
   -0.7565   -0.0080    0.2231 C   0  0  0  0  0  0  0  0  0  0  0  0
    0.2638    0.0533   -0.6882 C   0  0  0  0  0  0  0  0  0  0  0  0
    0.6309    1.3138   -1.2628 C   0  0  0  0  0  0  0  0  0  0  0  0
   -0.1100    2.4997   -0.9272 C   0  0  0  0  0  0  0  0  0  0  0  0
   -1.1277    2.4191   -0.0226 C   0  0  0  0  0  0  0  0  0  0  0  0
   -1.4202    1.1798    0.6160 C   0  0  0  0  0  0  0  0  0  0  0  0
   -0.9776   -0.9557    0.7011 H   0  0  0  0  0  0  0  0  0  0  0  0
    0.8410   -0.8305   -0.9451 H   0  0  0  0  0  0  0  0  0  0  0  0
    0.1813    3.4488   -1.3738 H   0  0  0  0  0  0  0  0  0  0  0  0
   -1.6809    3.3045    0.2833 H   0  0  0  0  0  0  0  0  0  0  0  0
    1.6146    1.3874   -1.9820 N   0  0  0  0  0  0  0  0  0  0  0  0
    2.5308    1.4575   -2.6409 N   0  0  0  0  0  0  0  0  0  0  0  0
    1.9159    0.5930    2.0963 B   0  0  0  0  0  0  0  0  0  0  0  0
    2.2854   -0.3455    1.0785 F   0  0  0  0  0  0  0  0  0  0  0  0
    0.6858    0.1495    2.6892 F   0  0  0  0  0  0  0  0  0  0  0  0
    2.9124    0.7037    3.0561 F   0  0  0  0  0  0  0  0  0  0  0  0
    1.6695    1.8482    1.4583 F   0  0  0  0  0  0  0  0  0  0  0  0
   -2.3286    1.2372    1.5732 O   0  0  0  0  0  0  0  0  0  0  0  0
   -2.5307    0.0899    2.4373 C   0  0  0  0  0  0  0  0  0  0  0  0
   -3.2206    0.4417    3.2074 H   0  0  0  0  0  0  0  0  0  0  0  0
   -1.5690   -0.2036    2.8739 H   0  0  0  0  0  0  0  0  0  0  0  0
   -2.9898   -0.7304    1.8702 H   0  0  0  0  0  0  0  0  0  0  0  0
  1  6  1  0  0  0  0
  1  7  1  0  0  0  0
  2  1  2  0  0  0  0
  3  4  2  0  0  0  0
  3  2  1  0  0  0  0
  4  5  1  0  0  0  0
  5 10  1  0  0  0  0
  5  6  2  0  0  0  0
  6 18  1  0  0  0  0
  8  2  1  0  0  0  0
  9  4  1  0  0  0  0
 11  3  1  0  0  0  0
 12 11  1  0  0  0  0
 13 15  1  0  0  0  0
 13 16  1  0  0  0  0
 14 13  1  0  0  0  0
 17 13  1  0  0  0  0
 18 19  1  0  0  0  0
 19 21  1  0  0  0  0
 19 20  1  0  0  0  0
 22 19  1  0  0  0  0
M  RAD  2  11   2  12   3
M  END
