Coordinates from ORCA-job p-CH3O-Ph-N2-BF4-B3LYPG-aug-cc-pVDZ-scan-d09-49-n400
 OpenBabel01151817063D

 22 20  0  0  0  0  0  0  0  0999 V2000
   -1.1308   -0.1263    0.4901 C   0  0  0  0  0  0  0  0  0  0  0  0
    0.0514   -0.1467   -0.2767 C   0  0  0  0  0  0  0  0  0  0  0  0
    0.4165    1.1084   -0.6156 C   0  0  0  0  0  0  0  0  0  0  0  0
   -0.0036    2.3674   -0.3318 C   0  0  0  0  0  0  0  0  0  0  0  0
   -1.1767    2.3243    0.4313 C   0  0  0  0  0  0  0  0  0  0  0  0
   -1.7362    1.0951    0.8399 C   0  0  0  0  0  0  0  0  0  0  0  0
   -1.5261   -1.0814    0.8242 H   0  0  0  0  0  0  0  0  0  0  0  0
    0.6085   -1.0491   -0.5023 H   0  0  0  0  0  0  0  0  0  0  0  0
    0.5103    3.2828   -0.6035 H   0  0  0  0  0  0  0  0  0  0  0  0
   -1.6436    3.2568    0.7436 H   0  0  0  0  0  0  0  0  0  0  0  0
    2.1171    1.1186   -1.7109 N   0  0  0  0  0  0  0  0  0  0  0  0
    2.9959    1.1273   -2.3756 N   0  0  0  0  0  0  0  0  0  0  0  0
    2.8925    1.0833    1.3949 B   0  0  0  0  0  0  0  0  0  0  0  0
    2.9029   -0.0673    0.5248 F   0  0  0  0  0  0  0  0  0  0  0  0
    1.6868    1.0627    2.1383 F   0  0  0  0  0  0  0  0  0  0  0  0
    4.0118    1.0869    2.2138 F   0  0  0  0  0  0  0  0  0  0  0  0
    2.8779    2.2477    0.5456 F   0  0  0  0  0  0  0  0  0  0  0  0
   -2.8587    1.1969    1.5849 O   0  0  0  0  0  0  0  0  0  0  0  0
   -3.4254    0.0053    2.1399 C   0  0  0  0  0  0  0  0  0  0  0  0
   -4.2875    0.3372    2.7242 H   0  0  0  0  0  0  0  0  0  0  0  0
   -2.7033   -0.4991    2.7976 H   0  0  0  0  0  0  0  0  0  0  0  0
   -3.7599   -0.6774    1.3448 H   0  0  0  0  0  0  0  0  0  0  0  0
  1  7  1  0  0  0  0
  1  6  1  0  0  0  0
  2  1  2  0  0  0  0
  3  4  2  0  0  0  0
  3  2  1  0  0  0  0
  4  5  1  0  0  0  0
  5 10  1  0  0  0  0
  5  6  2  0  0  0  0
  6 18  1  0  0  0  0
  8  2  1  0  0  0  0
  9  4  1  0  0  0  0
 12 11  3  0  0  0  0
 13 15  1  0  0  0  0
 13 16  1  0  0  0  0
 14 13  1  0  0  0  0
 17 13  1  0  0  0  0
 18 19  1  0  0  0  0
 19 20  1  0  0  0  0
 19 21  1  0  0  0  0
 22 19  1  0  0  0  0
M  RAD  1   3   2
M  END
