Coordinates from ORCA-job p-CH3O-Ph-N2-BF4-B3LYPG-aug-cc-pVDZ-scan-d09-49-n400
 OpenBabel01151817063D

 22 20  0  0  0  0  0  0  0  0999 V2000
   -1.0239    0.1996    1.1629 C   0  0  0  0  0  0  0  0  0  0  0  0
    0.3620    0.4060    1.1034 C   0  0  0  0  0  0  0  0  0  0  0  0
    0.8359    1.6618    0.7658 C   0  0  0  0  0  0  0  0  0  0  0  0
   -0.0117    2.7269    0.4777 C   0  0  0  0  0  0  0  0  0  0  0  0
   -1.3873    2.5181    0.5373 C   0  0  0  0  0  0  0  0  0  0  0  0
   -1.9010    1.2558    0.8799 C   0  0  0  0  0  0  0  0  0  0  0  0
   -1.3950   -0.7865    1.4298 H   0  0  0  0  0  0  0  0  0  0  0  0
    1.0570   -0.4036    1.3177 H   0  0  0  0  0  0  0  0  0  0  0  0
    0.4029    3.6977    0.2119 H   0  0  0  0  0  0  0  0  0  0  0  0
   -2.0835    3.3268    0.3197 H   0  0  0  0  0  0  0  0  0  0  0  0
    1.3892    0.8643   -2.4574 N   0  0  0  0  0  0  0  0  0  0  0  0
    0.7006    0.4286   -3.2028 N   0  0  0  0  0  0  0  0  0  0  0  0
    4.1888    0.3780    1.2209 B   0  0  0  0  0  0  0  0  0  0  0  0
    3.7947   -0.5531    0.3566 F   0  0  0  0  0  0  0  0  0  0  0  0
    3.8306    0.2766    2.4969 F   0  0  0  0  0  0  0  0  0  0  0  0
    5.0086    1.3446    0.8315 F   0  0  0  0  0  0  0  0  0  0  0  0
    2.1921    1.8738    0.7021 F   0  0  0  0  0  0  0  0  0  0  0  0
   -3.2648    1.1602    0.9097 O   0  0  0  0  0  0  0  0  0  0  0  0
   -3.8425   -0.0953    1.2506 C   0  0  0  0  0  0  0  0  0  0  0  0
   -4.9255    0.0558    1.2135 H   0  0  0  0  0  0  0  0  0  0  0  0
   -3.5507   -0.4068    2.2656 H   0  0  0  0  0  0  0  0  0  0  0  0
   -3.5566   -0.8757    0.5283 H   0  0  0  0  0  0  0  0  0  0  0  0
  1  7  1  0  0  0  0
  2  1  1  0  0  0  0
  2  8  1  0  0  0  0
  3  2  2  0  0  0  0
  4  5  2  0  0  0  0
  4  3  1  0  0  0  0
  5  6  1  0  0  0  0
  6 18  1  0  0  0  0
  6  1  2  0  0  0  0
  9  4  1  0  0  0  0
 10  5  1  0  0  0  0
 12 11  3  0  0  0  0
 13 15  1  0  0  0  0
 14 13  1  0  0  0  0
 16 13  1  0  0  0  0
 17  3  1  0  0  0  0
 18 19  1  0  0  0  0
 19 21  1  0  0  0  0
 20 19  1  0  0  0  0
 22 19  1  0  0  0  0
M  END
