Coordinates from ORCA-job p-CH3O-Ph-N2-BF4-B3LYPG-aug-cc-pVDZ-scan-d09-49-n400
 OpenBabel01151817073D

 22 20  0  0  0  0  0  0  0  0999 V2000
   -1.0322    0.2198    1.2265 C   0  0  0  0  0  0  0  0  0  0  0  0
    0.3531    0.4349    1.1924 C   0  0  0  0  0  0  0  0  0  0  0  0
    0.8247    1.6968    0.8741 C   0  0  0  0  0  0  0  0  0  0  0  0
   -0.0242    2.7584    0.5769 C   0  0  0  0  0  0  0  0  0  0  0  0
   -1.3993    2.5404    0.6112 C   0  0  0  0  0  0  0  0  0  0  0  0
   -1.9108    1.2728    0.9367 C   0  0  0  0  0  0  0  0  0  0  0  0
   -1.4015   -0.7709    1.4785 H   0  0  0  0  0  0  0  0  0  0  0  0
    1.0500   -0.3722    1.4100 H   0  0  0  0  0  0  0  0  0  0  0  0
    0.3891    3.7327    0.3219 H   0  0  0  0  0  0  0  0  0  0  0  0
   -2.0965    3.3461    0.3856 H   0  0  0  0  0  0  0  0  0  0  0  0
    1.4674    0.6951   -3.0263 N   0  0  0  0  0  0  0  0  0  0  0  0
    0.7837    0.2436   -3.7670 N   0  0  0  0  0  0  0  0  0  0  0  0
    4.1867    0.3887    1.2541 B   0  0  0  0  0  0  0  0  0  0  0  0
    3.8224   -0.4647    0.3020 F   0  0  0  0  0  0  0  0  0  0  0  0
    3.7998    0.1719    2.5077 F   0  0  0  0  0  0  0  0  0  0  0  0
    5.0040    1.3942    0.9725 F   0  0  0  0  0  0  0  0  0  0  0  0
    2.1814    1.9148    0.8268 F   0  0  0  0  0  0  0  0  0  0  0  0
   -3.2744    1.1686    0.9422 O   0  0  0  0  0  0  0  0  0  0  0  0
   -3.8499   -0.0929    1.2639 C   0  0  0  0  0  0  0  0  0  0  0  0
   -4.9331    0.0518    1.2097 H   0  0  0  0  0  0  0  0  0  0  0  0
   -3.5732   -0.4103    2.2813 H   0  0  0  0  0  0  0  0  0  0  0  0
   -3.5472   -0.8661    0.5408 H   0  0  0  0  0  0  0  0  0  0  0  0
  1  7  1  0  0  0  0
  2  1  1  0  0  0  0
  2  8  1  0  0  0  0
  3  2  2  0  0  0  0
  4  5  2  0  0  0  0
  4  3  1  0  0  0  0
  5  6  1  0  0  0  0
  6 18  1  0  0  0  0
  6  1  2  0  0  0  0
  9  4  1  0  0  0  0
 10  5  1  0  0  0  0
 12 11  3  0  0  0  0
 13 15  1  0  0  0  0
 14 13  1  0  0  0  0
 16 13  1  0  0  0  0
 17  3  1  0  0  0  0
 18 19  1  0  0  0  0
 19 21  1  0  0  0  0
 20 19  1  0  0  0  0
 22 19  1  0  0  0  0
M  END
