Coordinates from ORCA-job p-CH3O-Ph-N2-BF4-B3LYPG-aug-cc-pVDZ-scan-d09-49-n400
 OpenBabel01151817073D

 22 20  0  0  0  0  0  0  0  0999 V2000
   -1.0452    0.2369    1.2870 C   0  0  0  0  0  0  0  0  0  0  0  0
    0.3396    0.4570    1.2754 C   0  0  0  0  0  0  0  0  0  0  0  0
    0.8112    1.7258    0.9857 C   0  0  0  0  0  0  0  0  0  0  0  0
   -0.0372    2.7908    0.6996 C   0  0  0  0  0  0  0  0  0  0  0  0
   -1.4120    2.5680    0.7117 C   0  0  0  0  0  0  0  0  0  0  0  0
   -1.9233    1.2927    1.0058 C   0  0  0  0  0  0  0  0  0  0  0  0
   -1.4146   -0.7594    1.5155 H   0  0  0  0  0  0  0  0  0  0  0  0
    1.0365   -0.3515    1.4882 H   0  0  0  0  0  0  0  0  0  0  0  0
    0.3759    3.7717    0.4705 H   0  0  0  0  0  0  0  0  0  0  0  0
   -2.1089    3.3757    0.4931 H   0  0  0  0  0  0  0  0  0  0  0  0
    1.5385    0.4797   -3.6761 N   0  0  0  0  0  0  0  0  0  0  0  0
    0.9154    0.0240   -4.4661 N   0  0  0  0  0  0  0  0  0  0  0  0
    4.1870    0.4161    1.3043 B   0  0  0  0  0  0  0  0  0  0  0  0
    3.8510   -0.3729    0.2887 F   0  0  0  0  0  0  0  0  0  0  0  0
    3.7853    0.1051    2.5332 F   0  0  0  0  0  0  0  0  0  0  0  0
    4.9912    1.4519    1.1074 F   0  0  0  0  0  0  0  0  0  0  0  0
    2.1678    1.9494    0.9649 F   0  0  0  0  0  0  0  0  0  0  0  0
   -3.2866    1.1841    0.9912 O   0  0  0  0  0  0  0  0  0  0  0  0
   -3.8620   -0.0850    1.2814 C   0  0  0  0  0  0  0  0  0  0  0  0
   -4.9449    0.0573    1.2156 H   0  0  0  0  0  0  0  0  0  0  0  0
   -3.5978   -0.4207    2.2963 H   0  0  0  0  0  0  0  0  0  0  0  0
   -3.5471   -0.8435    0.5480 H   0  0  0  0  0  0  0  0  0  0  0  0
  1  7  1  0  0  0  0
  2  1  1  0  0  0  0
  2  8  1  0  0  0  0
  3  2  2  0  0  0  0
  4  5  2  0  0  0  0
  4  3  1  0  0  0  0
  5  6  1  0  0  0  0
  6  1  2  0  0  0  0
  9  4  1  0  0  0  0
 10  5  1  0  0  0  0
 12 11  3  0  0  0  0
 13 15  1  0  0  0  0
 14 13  1  0  0  0  0
 16 13  1  0  0  0  0
 17  3  1  0  0  0  0
 18  6  1  0  0  0  0
 18 19  1  0  0  0  0
 19 21  1  0  0  0  0
 20 19  1  0  0  0  0
 22 19  1  0  0  0  0
M  END
