Coordinates from ORCA-job p-CH3O-Ph-N2-BF4-B3LYPG-aug-cc-pVDZ-scan-d09-49-n400
 OpenBabel01151817063D

 22 20  0  0  0  0  0  0  0  0999 V2000
   -1.1262   -0.1225    0.4967 C   0  0  0  0  0  0  0  0  0  0  0  0
    0.0598   -0.1443   -0.2704 C   0  0  0  0  0  0  0  0  0  0  0  0
    0.3993    1.1136   -0.6031 C   0  0  0  0  0  0  0  0  0  0  0  0
   -0.0036    2.3754   -0.3323 C   0  0  0  0  0  0  0  0  0  0  0  0
   -1.1791    2.3276    0.4325 C   0  0  0  0  0  0  0  0  0  0  0  0
   -1.7350    1.0978    0.8440 C   0  0  0  0  0  0  0  0  0  0  0  0
   -1.5165   -1.0797    0.8314 H   0  0  0  0  0  0  0  0  0  0  0  0
    0.6261   -1.0423   -0.4901 H   0  0  0  0  0  0  0  0  0  0  0  0
    0.5112    3.2893   -0.6063 H   0  0  0  0  0  0  0  0  0  0  0  0
   -1.6470    3.2614    0.7402 H   0  0  0  0  0  0  0  0  0  0  0  0
    2.1730    1.1259   -1.7879 N   0  0  0  0  0  0  0  0  0  0  0  0
    3.0660    1.1374   -2.4338 N   0  0  0  0  0  0  0  0  0  0  0  0
    2.8558    1.0700    1.4011 B   0  0  0  0  0  0  0  0  0  0  0  0
    2.8727   -0.0759    0.5267 F   0  0  0  0  0  0  0  0  0  0  0  0
    1.6474    1.0398    2.1428 F   0  0  0  0  0  0  0  0  0  0  0  0
    3.9721    1.0746    2.2245 F   0  0  0  0  0  0  0  0  0  0  0  0
    2.8363    2.2389    0.5599 F   0  0  0  0  0  0  0  0  0  0  0  0
   -2.8581    1.1980    1.5885 O   0  0  0  0  0  0  0  0  0  0  0  0
   -3.4164    0.0060    2.1512 C   0  0  0  0  0  0  0  0  0  0  0  0
   -4.2793    0.3357    2.7356 H   0  0  0  0  0  0  0  0  0  0  0  0
   -2.6897   -0.4904    2.8099 H   0  0  0  0  0  0  0  0  0  0  0  0
   -3.7487   -0.6827    1.3603 H   0  0  0  0  0  0  0  0  0  0  0  0
  1  7  1  0  0  0  0
  1  6  1  0  0  0  0
  2  1  2  0  0  0  0
  3  4  2  0  0  0  0
  3  2  1  0  0  0  0
  4  5  1  0  0  0  0
  5 10  1  0  0  0  0
  5  6  2  0  0  0  0
  6 18  1  0  0  0  0
  8  2  1  0  0  0  0
  9  4  1  0  0  0  0
 12 11  3  0  0  0  0
 13 15  1  0  0  0  0
 13 16  1  0  0  0  0
 14 13  1  0  0  0  0
 17 13  1  0  0  0  0
 18 19  1  0  0  0  0
 19 20  1  0  0  0  0
 19 21  1  0  0  0  0
 22 19  1  0  0  0  0
M  RAD  1   3   2
M  END
