Coordinates from ORCA-job p-CH3O-Ph-N2-BF4-B3LYPG-aug-cc-pVDZ-scan-d09-49-n400
 OpenBabel01151817063D

 22 20  0  0  0  0  0  0  0  0999 V2000
   -1.1327   -0.1281    0.4868 C   0  0  0  0  0  0  0  0  0  0  0  0
    0.0478   -0.1474   -0.2794 C   0  0  0  0  0  0  0  0  0  0  0  0
    0.4258    1.1062   -0.6215 C   0  0  0  0  0  0  0  0  0  0  0  0
   -0.0030    2.3637   -0.3307 C   0  0  0  0  0  0  0  0  0  0  0  0
   -1.1750    2.3229    0.4314 C   0  0  0  0  0  0  0  0  0  0  0  0
   -1.7364    1.0939    0.8384 C   0  0  0  0  0  0  0  0  0  0  0  0
   -1.5309   -1.0822    0.8198 H   0  0  0  0  0  0  0  0  0  0  0  0
    0.6002   -1.0520   -0.5084 H   0  0  0  0  0  0  0  0  0  0  0  0
    0.5100    3.2800   -0.6015 H   0  0  0  0  0  0  0  0  0  0  0  0
   -1.6417    3.2547    0.7458 H   0  0  0  0  0  0  0  0  0  0  0  0
    2.0912    1.1154   -1.6788 N   0  0  0  0  0  0  0  0  0  0  0  0
    2.9651    1.1207   -2.3498 N   0  0  0  0  0  0  0  0  0  0  0  0
    2.9083    1.0897    1.3927 B   0  0  0  0  0  0  0  0  0  0  0  0
    2.9151   -0.0635    0.5252 F   0  0  0  0  0  0  0  0  0  0  0  0
    1.7044    1.0741    2.1378 F   0  0  0  0  0  0  0  0  0  0  0  0
    4.0296    1.0938    2.2085 F   0  0  0  0  0  0  0  0  0  0  0  0
    2.8950    2.2511    0.5384 F   0  0  0  0  0  0  0  0  0  0  0  0
   -2.8586    1.1962    1.5835 O   0  0  0  0  0  0  0  0  0  0  0  0
   -3.4292    0.0048    2.1348 C   0  0  0  0  0  0  0  0  0  0  0  0
   -4.2908    0.3377    2.7192 H   0  0  0  0  0  0  0  0  0  0  0  0
   -2.7093   -0.5036    2.7917 H   0  0  0  0  0  0  0  0  0  0  0  0
   -3.7650   -0.6748    1.3376 H   0  0  0  0  0  0  0  0  0  0  0  0
  1  7  1  0  0  0  0
  1  6  1  0  0  0  0
  2  1  2  0  0  0  0
  3  4  2  0  0  0  0
  3  2  1  0  0  0  0
  4  5  1  0  0  0  0
  5 10  1  0  0  0  0
  5  6  2  0  0  0  0
  6 18  1  0  0  0  0
  8  2  1  0  0  0  0
  9  4  1  0  0  0  0
 12 11  3  0  0  0  0
 13 15  1  0  0  0  0
 13 16  1  0  0  0  0
 14 13  1  0  0  0  0
 17 13  1  0  0  0  0
 18 19  1  0  0  0  0
 19 20  1  0  0  0  0
 19 21  1  0  0  0  0
 22 19  1  0  0  0  0
M  RAD  1   3   2
M  END
