Coordinates from ORCA-job p-CH3O-Ph-N2-BF4-B3LYPG-aug-cc-pVDZ-scan-d09-49-n400
 OpenBabel01151817063D

 22 21  0  0  0  0  0  0  0  0999 V2000
   -1.1342   -0.1307    0.4806 C   0  0  0  0  0  0  0  0  0  0  0  0
    0.0430   -0.1483   -0.2854 C   0  0  0  0  0  0  0  0  0  0  0  0
    0.4426    1.1026   -0.6329 C   0  0  0  0  0  0  0  0  0  0  0  0
   -0.0008    2.3577   -0.3301 C   0  0  0  0  0  0  0  0  0  0  0  0
   -1.1703    2.3207    0.4311 C   0  0  0  0  0  0  0  0  0  0  0  0
   -1.7344    1.0922    0.8360 C   0  0  0  0  0  0  0  0  0  0  0  0
   -1.5370   -1.0834    0.8119 H   0  0  0  0  0  0  0  0  0  0  0  0
    0.5872   -1.0565   -0.5203 H   0  0  0  0  0  0  0  0  0  0  0  0
    0.5105    3.2754   -0.6000 H   0  0  0  0  0  0  0  0  0  0  0  0
   -1.6363    3.2514    0.7490 H   0  0  0  0  0  0  0  0  0  0  0  0
    2.0480    1.1095   -1.6349 N   0  0  0  0  0  0  0  0  0  0  0  0
    2.9200    1.1132   -2.3084 N   0  0  0  0  0  0  0  0  0  0  0  0
    2.9264    1.0989    1.3912 B   0  0  0  0  0  0  0  0  0  0  0  0
    2.9291   -0.0585    0.5282 F   0  0  0  0  0  0  0  0  0  0  0  0
    1.7245    1.0910    2.1375 F   0  0  0  0  0  0  0  0  0  0  0  0
    4.0499    1.1045    2.2036 F   0  0  0  0  0  0  0  0  0  0  0  0
    2.9157    2.2552    0.5285 F   0  0  0  0  0  0  0  0  0  0  0  0
   -2.8552    1.1954    1.5824 O   0  0  0  0  0  0  0  0  0  0  0  0
   -3.4318    0.0044    2.1283 C   0  0  0  0  0  0  0  0  0  0  0  0
   -4.2919    0.3392    2.7140 H   0  0  0  0  0  0  0  0  0  0  0  0
   -2.7145   -0.5104    2.7832 H   0  0  0  0  0  0  0  0  0  0  0  0
   -3.7706   -0.6701    1.3282 H   0  0  0  0  0  0  0  0  0  0  0  0
  1  7  1  0  0  0  0
  1  6  1  0  0  0  0
  2  1  2  0  0  0  0
  3  4  2  0  0  0  0
  3  2  1  0  0  0  0
  4  5  1  0  0  0  0
  5 10  1  0  0  0  0
  5  6  2  0  0  0  0
  6 18  1  0  0  0  0
  8  2  1  0  0  0  0
  9  4  1  0  0  0  0
 11  3  1  0  0  0  0
 12 11  1  0  0  0  0
 13 15  1  0  0  0  0
 13 16  1  0  0  0  0
 14 13  1  0  0  0  0
 17 13  1  0  0  0  0
 18 19  1  0  0  0  0
 19 20  1  0  0  0  0
 19 21  1  0  0  0  0
 22 19  1  0  0  0  0
M  RAD  2  11   2  12   3
M  END
