Coordinates from ORCA-job p-CH3O-Ph-N2-BF4-B3LYPG-aug-cc-pVDZ-scan-d09-49-n400
 OpenBabel01151817073D

 22 20  0  0  0  0  0  0  0  0999 V2000
   -1.0370    0.2244    1.2436 C   0  0  0  0  0  0  0  0  0  0  0  0
    0.3482    0.4411    1.2157 C   0  0  0  0  0  0  0  0  0  0  0  0
    0.8199    1.7044    0.9033 C   0  0  0  0  0  0  0  0  0  0  0  0
   -0.0289    2.7661    0.6063 C   0  0  0  0  0  0  0  0  0  0  0  0
   -1.4039    2.5468    0.6345 C   0  0  0  0  0  0  0  0  0  0  0  0
   -1.9154    1.2777    0.9540 C   0  0  0  0  0  0  0  0  0  0  0  0
   -1.4063   -0.7674    1.4909 H   0  0  0  0  0  0  0  0  0  0  0  0
    1.0451   -0.3661    1.4332 H   0  0  0  0  0  0  0  0  0  0  0  0
    0.3844    3.7417    0.3561 H   0  0  0  0  0  0  0  0  0  0  0  0
   -2.1010    3.3525    0.4088 H   0  0  0  0  0  0  0  0  0  0  0  0
    1.4898    0.6456   -3.1876 N   0  0  0  0  0  0  0  0  0  0  0  0
    0.8211    0.1932   -3.9413 N   0  0  0  0  0  0  0  0  0  0  0  0
    4.1905    0.3931    1.2640 B   0  0  0  0  0  0  0  0  0  0  0  0
    3.8387   -0.4470    0.2957 F   0  0  0  0  0  0  0  0  0  0  0  0
    3.7970    0.1530    2.5113 F   0  0  0  0  0  0  0  0  0  0  0  0
    5.0017    1.4093    1.0041 F   0  0  0  0  0  0  0  0  0  0  0  0
    2.1766    1.9236    0.8621 F   0  0  0  0  0  0  0  0  0  0  0  0
   -3.2790    1.1722    0.9538 O   0  0  0  0  0  0  0  0  0  0  0  0
   -3.8545   -0.0909    1.2694 C   0  0  0  0  0  0  0  0  0  0  0  0
   -4.9376    0.0530    1.2115 H   0  0  0  0  0  0  0  0  0  0  0  0
   -3.5814   -0.4113    2.2868 H   0  0  0  0  0  0  0  0  0  0  0  0
   -3.5483   -0.8616    0.5450 H   0  0  0  0  0  0  0  0  0  0  0  0
  1  7  1  0  0  0  0
  2  1  1  0  0  0  0
  2  8  1  0  0  0  0
  3  2  2  0  0  0  0
  4  5  2  0  0  0  0
  4  3  1  0  0  0  0
  5  6  1  0  0  0  0
  6  1  2  0  0  0  0
  9  4  1  0  0  0  0
 10  5  1  0  0  0  0
 12 11  3  0  0  0  0
 13 15  1  0  0  0  0
 14 13  1  0  0  0  0
 16 13  1  0  0  0  0
 17  3  1  0  0  0  0
 18  6  1  0  0  0  0
 18 19  1  0  0  0  0
 19 21  1  0  0  0  0
 20 19  1  0  0  0  0
 22 19  1  0  0  0  0
M  END
