Coordinates from ORCA-job p-CH3O-Ph-N2-BF4-B3LYPG-aug-cc-pVDZ-scan-d09-49-n400
 OpenBabel01151817063D

 22 21  0  0  0  0  0  0  0  0999 V2000
   -0.7490   -0.0084    0.2205 C   0  0  0  0  0  0  0  0  0  0  0  0
    0.2703    0.0527   -0.6887 C   0  0  0  0  0  0  0  0  0  0  0  0
    0.6535    1.3154   -1.2714 C   0  0  0  0  0  0  0  0  0  0  0  0
   -0.1030    2.5001   -0.9264 C   0  0  0  0  0  0  0  0  0  0  0  0
   -1.1195    2.4192   -0.0240 C   0  0  0  0  0  0  0  0  0  0  0  0
   -1.4119    1.1796    0.6157 C   0  0  0  0  0  0  0  0  0  0  0  0
   -0.9710   -0.9567    0.6972 H   0  0  0  0  0  0  0  0  0  0  0  0
    0.8456   -0.8318   -0.9484 H   0  0  0  0  0  0  0  0  0  0  0  0
    0.1878    3.4491   -1.3741 H   0  0  0  0  0  0  0  0  0  0  0  0
   -1.6737    3.3044    0.2808 H   0  0  0  0  0  0  0  0  0  0  0  0
    1.5766    1.3849   -1.9548 N   0  0  0  0  0  0  0  0  0  0  0  0
    2.4907    1.4551   -2.6261 N   0  0  0  0  0  0  0  0  0  0  0  0
    1.9101    0.5949    2.0955 B   0  0  0  0  0  0  0  0  0  0  0  0
    2.2774   -0.3494    1.0827 F   0  0  0  0  0  0  0  0  0  0  0  0
    0.6761    0.1585    2.6872 F   0  0  0  0  0  0  0  0  0  0  0  0
    2.9036    0.7064    3.0575 F   0  0  0  0  0  0  0  0  0  0  0  0
    1.6690    1.8481    1.4510 F   0  0  0  0  0  0  0  0  0  0  0  0
   -2.3181    1.2371    1.5722 O   0  0  0  0  0  0  0  0  0  0  0  0
   -2.5260    0.0885    2.4347 C   0  0  0  0  0  0  0  0  0  0  0  0
   -3.2165    0.4419    3.2034 H   0  0  0  0  0  0  0  0  0  0  0  0
   -1.5658   -0.2077    2.8724 H   0  0  0  0  0  0  0  0  0  0  0  0
   -2.9863   -0.7288    1.8646 H   0  0  0  0  0  0  0  0  0  0  0  0
  1  6  1  0  0  0  0
  1  7  1  0  0  0  0
  2  1  2  0  0  0  0
  3  4  2  0  0  0  0
  3  2  1  0  0  0  0
  4  5  1  0  0  0  0
  5 10  1  0  0  0  0
  5  6  2  0  0  0  0
  6 18  1  0  0  0  0
  8  2  1  0  0  0  0
  9  4  1  0  0  0  0
 11  3  1  0  0  0  0
 12 11  1  0  0  0  0
 13 15  1  0  0  0  0
 13 16  1  0  0  0  0
 14 13  1  0  0  0  0
 17 13  1  0  0  0  0
 18 19  1  0  0  0  0
 19 21  1  0  0  0  0
 19 20  1  0  0  0  0
 22 19  1  0  0  0  0
M  RAD  2  11   2  12   3
M  END
