Coordinates from ORCA-job p-CH3O-Ph-N2-BF4-B3LYPG-aug-cc-pVDZ-scan-d09-49-n400
 OpenBabel01151817073D

 22 20  0  0  0  0  0  0  0  0999 V2000
   -1.0340    0.2215    1.2326 C   0  0  0  0  0  0  0  0  0  0  0  0
    0.3512    0.4373    1.2007 C   0  0  0  0  0  0  0  0  0  0  0  0
    0.8228    1.6997    0.8844 C   0  0  0  0  0  0  0  0  0  0  0  0
   -0.0261    2.7613    0.5871 C   0  0  0  0  0  0  0  0  0  0  0  0
   -1.4011    2.5427    0.6193 C   0  0  0  0  0  0  0  0  0  0  0  0
   -1.9126    1.2746    0.9428 C   0  0  0  0  0  0  0  0  0  0  0  0
   -1.4032   -0.7696    1.4830 H   0  0  0  0  0  0  0  0  0  0  0  0
    1.0483   -0.3698    1.4182 H   0  0  0  0  0  0  0  0  0  0  0  0
    0.3871    3.7361    0.3338 H   0  0  0  0  0  0  0  0  0  0  0  0
   -2.0984    3.3483    0.3936 H   0  0  0  0  0  0  0  0  0  0  0  0
    1.4754    0.6781   -3.0826 N   0  0  0  0  0  0  0  0  0  0  0  0
    0.7969    0.2261   -3.8277 N   0  0  0  0  0  0  0  0  0  0  0  0
    4.1886    0.3897    1.2574 B   0  0  0  0  0  0  0  0  0  0  0  0
    3.8294   -0.4596    0.2999 F   0  0  0  0  0  0  0  0  0  0  0  0
    3.7989    0.1652    2.5088 F   0  0  0  0  0  0  0  0  0  0  0  0
    5.0035    1.3992    0.9833 F   0  0  0  0  0  0  0  0  0  0  0  0
    2.1795    1.9182    0.8393 F   0  0  0  0  0  0  0  0  0  0  0  0
   -3.2762    1.1698    0.9462 O   0  0  0  0  0  0  0  0  0  0  0  0
   -3.8516   -0.0923    1.2658 C   0  0  0  0  0  0  0  0  0  0  0  0
   -4.9348    0.0520    1.2103 H   0  0  0  0  0  0  0  0  0  0  0  0
   -3.5762   -0.4107    2.2832 H   0  0  0  0  0  0  0  0  0  0  0  0
   -3.5476   -0.8646    0.5422 H   0  0  0  0  0  0  0  0  0  0  0  0
  1  7  1  0  0  0  0
  2  1  1  0  0  0  0
  2  8  1  0  0  0  0
  3  2  2  0  0  0  0
  4  5  2  0  0  0  0
  4  3  1  0  0  0  0
  5  6  1  0  0  0  0
  6 18  1  0  0  0  0
  6  1  2  0  0  0  0
  9  4  1  0  0  0  0
 10  5  1  0  0  0  0
 12 11  3  0  0  0  0
 13 15  1  0  0  0  0
 14 13  1  0  0  0  0
 16 13  1  0  0  0  0
 17  3  1  0  0  0  0
 18 19  1  0  0  0  0
 19 21  1  0  0  0  0
 20 19  1  0  0  0  0
 22 19  1  0  0  0  0
M  END
