Coordinates from ORCA-job p-CH3O-Ph-N2-BF4-B3LYPG-aug-cc-pVDZ-scan-d09-49-n400
 OpenBabel01151817063D

 22 21  0  0  0  0  0  0  0  0999 V2000
   -1.1205   -0.1372    0.4394 C   0  0  0  0  0  0  0  0  0  0  0  0
    0.0328   -0.1471   -0.3429 C   0  0  0  0  0  0  0  0  0  0  0  0
    0.5072    1.0951   -0.7095 C   0  0  0  0  0  0  0  0  0  0  0  0
    0.0185    2.3414   -0.3518 C   0  0  0  0  0  0  0  0  0  0  0  0
   -1.1307    2.3169    0.4222 C   0  0  0  0  0  0  0  0  0  0  0  0
   -1.6996    1.0887    0.8251 C   0  0  0  0  0  0  0  0  0  0  0  0
   -1.5349   -1.0863    0.7652 H   0  0  0  0  0  0  0  0  0  0  0  0
    0.5426   -1.0675   -0.6099 H   0  0  0  0  0  0  0  0  0  0  0  0
    0.5217    3.2648   -0.6211 H   0  0  0  0  0  0  0  0  0  0  0  0
   -1.5864    3.2442    0.7627 H   0  0  0  0  0  0  0  0  0  0  0  0
    1.8996    1.0942   -1.5604 N   0  0  0  0  0  0  0  0  0  0  0  0
    2.7959    1.0920   -2.2049 N   0  0  0  0  0  0  0  0  0  0  0  0
    2.8978    1.1199    1.4221 B   0  0  0  0  0  0  0  0  0  0  0  0
    2.8982   -0.0607    0.5921 F   0  0  0  0  0  0  0  0  0  0  0  0
    1.6758    1.1634    2.1333 F   0  0  0  0  0  0  0  0  0  0  0  0
    3.9976    1.1260    2.2659 F   0  0  0  0  0  0  0  0  0  0  0  0
    2.9390    2.2484    0.5227 F   0  0  0  0  0  0  0  0  0  0  0  0
   -2.7998    1.1933    1.5946 O   0  0  0  0  0  0  0  0  0  0  0  0
   -3.3872    0.0032    2.1350 C   0  0  0  0  0  0  0  0  0  0  0  0
   -4.2282    0.3456    2.7433 H   0  0  0  0  0  0  0  0  0  0  0  0
   -2.6654   -0.5331    2.7665 H   0  0  0  0  0  0  0  0  0  0  0  0
   -3.7542   -0.6518    1.3318 H   0  0  0  0  0  0  0  0  0  0  0  0
  1  7  1  0  0  0  0
  1  6  1  0  0  0  0
  2  1  2  0  0  0  0
  3  4  2  0  0  0  0
  3  2  1  0  0  0  0
  4  5  1  0  0  0  0
  5 10  1  0  0  0  0
  5  6  2  0  0  0  0
  6 18  1  0  0  0  0
  8  2  1  0  0  0  0
  9  4  1  0  0  0  0
 11  3  1  0  0  0  0
 12 11  1  0  0  0  0
 13 15  1  0  0  0  0
 13 16  1  0  0  0  0
 14 13  1  0  0  0  0
 17 13  1  0  0  0  0
 18 19  1  0  0  0  0
 19 20  1  0  0  0  0
 19 21  1  0  0  0  0
 22 19  1  0  0  0  0
M  RAD  2  11   2  12   3
M  END
