Coordinates from ORCA-job p-CH3O-Ph-N2-BF4-B3LYPG-aug-cc-pVDZ-scan-d09-49-n400
 OpenBabel01151817073D

 22 20  0  0  0  0  0  0  0  0999 V2000
   -1.0309    0.2180    1.2209 C   0  0  0  0  0  0  0  0  0  0  0  0
    0.3544    0.4323    1.1848 C   0  0  0  0  0  0  0  0  0  0  0  0
    0.8263    1.6937    0.8650 C   0  0  0  0  0  0  0  0  0  0  0  0
   -0.0224    2.7556    0.5682 C   0  0  0  0  0  0  0  0  0  0  0  0
   -1.3975    2.5384    0.6044 C   0  0  0  0  0  0  0  0  0  0  0  0
   -1.9093    1.2713    0.9315 C   0  0  0  0  0  0  0  0  0  0  0  0
   -1.4004   -0.7723    1.4742 H   0  0  0  0  0  0  0  0  0  0  0  0
    1.0511   -0.3750    1.4021 H   0  0  0  0  0  0  0  0  0  0  0  0
    0.3911    3.7295    0.3121 H   0  0  0  0  0  0  0  0  0  0  0  0
   -2.0946    3.3443    0.3793 H   0  0  0  0  0  0  0  0  0  0  0  0
    1.4586    0.7095   -2.9787 N   0  0  0  0  0  0  0  0  0  0  0  0
    0.7712    0.2589   -3.7164 N   0  0  0  0  0  0  0  0  0  0  0  0
    4.1862    0.3883    1.2522 B   0  0  0  0  0  0  0  0  0  0  0  0
    3.8195   -0.4702    0.3056 F   0  0  0  0  0  0  0  0  0  0  0  0
    3.8014    0.1790    2.5077 F   0  0  0  0  0  0  0  0  0  0  0  0
    5.0041    1.3913    0.9635 F   0  0  0  0  0  0  0  0  0  0  0  0
    2.1831    1.9111    0.8160 F   0  0  0  0  0  0  0  0  0  0  0  0
   -3.2730    1.1678    0.9389 O   0  0  0  0  0  0  0  0  0  0  0  0
   -3.8487   -0.0931    1.2622 C   0  0  0  0  0  0  0  0  0  0  0  0
   -4.9319    0.0521    1.2094 H   0  0  0  0  0  0  0  0  0  0  0  0
   -3.5709   -0.4100    2.2795 H   0  0  0  0  0  0  0  0  0  0  0  0
   -3.5474   -0.8670    0.5392 H   0  0  0  0  0  0  0  0  0  0  0  0
  1  7  1  0  0  0  0
  2  1  1  0  0  0  0
  2  8  1  0  0  0  0
  3  2  2  0  0  0  0
  4  5  2  0  0  0  0
  4  3  1  0  0  0  0
  5  6  1  0  0  0  0
  6 18  1  0  0  0  0
  6  1  2  0  0  0  0
  9  4  1  0  0  0  0
 10  5  1  0  0  0  0
 12 11  3  0  0  0  0
 13 15  1  0  0  0  0
 14 13  1  0  0  0  0
 16 13  1  0  0  0  0
 17  3  1  0  0  0  0
 18 19  1  0  0  0  0
 19 21  1  0  0  0  0
 20 19  1  0  0  0  0
 22 19  1  0  0  0  0
M  END
