Coordinates from ORCA-job p-CH3O-Ph-N2-BF4-B3LYPG-aug-cc-pVDZ-scan-d09-49-n400
 OpenBabel01151817063D

 22 21  0  0  0  0  0  0  0  0999 V2000
   -0.7783   -0.0068    0.2302 C   0  0  0  0  0  0  0  0  0  0  0  0
    0.2492    0.0526   -0.6801 C   0  0  0  0  0  0  0  0  0  0  0  0
    0.5880    1.3102   -1.2387 C   0  0  0  0  0  0  0  0  0  0  0  0
   -0.1285    2.4992   -0.9278 C   0  0  0  0  0  0  0  0  0  0  0  0
   -1.1549    2.4173   -0.0255 C   0  0  0  0  0  0  0  0  0  0  0  0
   -1.4476    1.1799    0.6121 C   0  0  0  0  0  0  0  0  0  0  0  0
   -0.9979   -0.9524    0.7129 H   0  0  0  0  0  0  0  0  0  0  0  0
    0.8345   -0.8284   -0.9255 H   0  0  0  0  0  0  0  0  0  0  0  0
    0.1664    3.4478   -1.3716 H   0  0  0  0  0  0  0  0  0  0  0  0
   -1.7106    3.3023    0.2766 H   0  0  0  0  0  0  0  0  0  0  0  0
    1.6896    1.3933   -1.9990 N   0  0  0  0  0  0  0  0  0  0  0  0
    2.6209    1.4635   -2.6216 N   0  0  0  0  0  0  0  0  0  0  0  0
    1.9445    0.5867    2.0798 B   0  0  0  0  0  0  0  0  0  0  0  0
    2.3148   -0.3370    1.0467 F   0  0  0  0  0  0  0  0  0  0  0  0
    0.7244    0.1274    2.6767 F   0  0  0  0  0  0  0  0  0  0  0  0
    2.9505    0.6919    3.0318 F   0  0  0  0  0  0  0  0  0  0  0  0
    1.6878    1.8482    1.4588 F   0  0  0  0  0  0  0  0  0  0  0  0
   -2.3638    1.2371    1.5682 O   0  0  0  0  0  0  0  0  0  0  0  0
   -2.5481    0.0963    2.4416 C   0  0  0  0  0  0  0  0  0  0  0  0
   -3.2374    0.4455    3.2137 H   0  0  0  0  0  0  0  0  0  0  0  0
   -1.5820   -0.1859    2.8766 H   0  0  0  0  0  0  0  0  0  0  0  0
   -3.0016   -0.7351    1.8858 H   0  0  0  0  0  0  0  0  0  0  0  0
  1  6  1  0  0  0  0
  1  7  1  0  0  0  0
  2  1  2  0  0  0  0
  3  4  2  0  0  0  0
  3  2  1  0  0  0  0
  4  5  1  0  0  0  0
  5 10  1  0  0  0  0
  5  6  2  0  0  0  0
  6 18  1  0  0  0  0
  8  2  1  0  0  0  0
  9  4  1  0  0  0  0
 11  3  1  0  0  0  0
 12 11  1  0  0  0  0
 13 15  1  0  0  0  0
 13 16  1  0  0  0  0
 14 13  1  0  0  0  0
 17 13  1  0  0  0  0
 18 19  1  0  0  0  0
 19 21  1  0  0  0  0
 19 20  1  0  0  0  0
 22 19  1  0  0  0  0
M  RAD  2  11   2  12   3
M  END
