Coordinates from ORCA-job p-CH3O-Ph-N2-BF4-B3LYPG-aug-cc-pVDZ-scan-d09-49-n400
 OpenBabel01151817073D

 22 20  0  0  0  0  0  0  0  0999 V2000
   -1.0282    0.2108    1.1988 C   0  0  0  0  0  0  0  0  0  0  0  0
    0.3574    0.4219    1.1537 C   0  0  0  0  0  0  0  0  0  0  0  0
    0.8302    1.6815    0.8281 C   0  0  0  0  0  0  0  0  0  0  0  0
   -0.0179    2.7447    0.5343 C   0  0  0  0  0  0  0  0  0  0  0  0
   -1.3933    2.5307    0.5796 C   0  0  0  0  0  0  0  0  0  0  0  0
   -1.9059    1.2655    0.9126 C   0  0  0  0  0  0  0  0  0  0  0  0
   -1.3984   -0.7780    1.4567 H   0  0  0  0  0  0  0  0  0  0  0  0
    1.0535   -0.3865    1.3689 H   0  0  0  0  0  0  0  0  0  0  0  0
    0.3962    3.7172    0.2740 H   0  0  0  0  0  0  0  0  0  0  0  0
   -2.0899    3.3378    0.3573 H   0  0  0  0  0  0  0  0  0  0  0  0
    1.4343    0.7673   -2.7866 N   0  0  0  0  0  0  0  0  0  0  0  0
    0.7439    0.3209   -3.5241 N   0  0  0  0  0  0  0  0  0  0  0  0
    4.1861    0.3856    1.2416 B   0  0  0  0  0  0  0  0  0  0  0  0
    3.8097   -0.4999    0.3234 F   0  0  0  0  0  0  0  0  0  0  0  0
    3.8110    0.2137    2.5054 F   0  0  0  0  0  0  0  0  0  0  0  0
    5.0044    1.3769    0.9165 F   0  0  0  0  0  0  0  0  0  0  0  0
    2.1869    1.8962    0.7723 F   0  0  0  0  0  0  0  0  0  0  0  0
   -3.2697    1.1653    0.9288 O   0  0  0  0  0  0  0  0  0  0  0  0
   -3.8464   -0.0936    1.2584 C   0  0  0  0  0  0  0  0  0  0  0  0
   -4.9296    0.0541    1.2120 H   0  0  0  0  0  0  0  0  0  0  0  0
   -3.5630   -0.4090    2.2746 H   0  0  0  0  0  0  0  0  0  0  0  0
   -3.5514   -0.8698    0.5352 H   0  0  0  0  0  0  0  0  0  0  0  0
  1  7  1  0  0  0  0
  2  1  1  0  0  0  0
  2  8  1  0  0  0  0
  3  2  2  0  0  0  0
  4  5  2  0  0  0  0
  4  3  1  0  0  0  0
  5  6  1  0  0  0  0
  6 18  1  0  0  0  0
  6  1  2  0  0  0  0
  9  4  1  0  0  0  0
 10  5  1  0  0  0  0
 12 11  3  0  0  0  0
 13 15  1  0  0  0  0
 14 13  1  0  0  0  0
 16 13  1  0  0  0  0
 17  3  1  0  0  0  0
 18 19  1  0  0  0  0
 19 21  1  0  0  0  0
 20 19  1  0  0  0  0
 22 19  1  0  0  0  0
M  END
