Coordinates from ORCA-job p-CH3O-Ph-N2-BF4-B3LYPG-aug-cc-pVDZ-scan-d09-49-n400
 OpenBabel01151817063D

 22 20  0  0  0  0  0  0  0  0999 V2000
   -1.0047    0.1901    1.1172 C   0  0  0  0  0  0  0  0  0  0  0  0
    0.3806    0.3952    1.0482 C   0  0  0  0  0  0  0  0  0  0  0  0
    0.8542    1.6415    0.6789 C   0  0  0  0  0  0  0  0  0  0  0  0
    0.0059    2.7064    0.3952 C   0  0  0  0  0  0  0  0  0  0  0  0
   -1.3693    2.5005    0.4648 C   0  0  0  0  0  0  0  0  0  0  0  0
   -1.8830    1.2425    0.8233 C   0  0  0  0  0  0  0  0  0  0  0  0
   -1.3749   -0.7911    1.4025 H   0  0  0  0  0  0  0  0  0  0  0  0
    1.0758   -0.4119    1.2708 H   0  0  0  0  0  0  0  0  0  0  0  0
    0.4208    3.6734    0.1162 H   0  0  0  0  0  0  0  0  0  0  0  0
   -2.0656    3.3086    0.2450 H   0  0  0  0  0  0  0  0  0  0  0  0
    1.2355    0.9830   -1.9372 N   0  0  0  0  0  0  0  0  0  0  0  0
    0.5512    0.5815   -2.7061 N   0  0  0  0  0  0  0  0  0  0  0  0
    4.1907    0.3612    1.1894 B   0  0  0  0  0  0  0  0  0  0  0  0
    3.7653   -0.6049    0.3800 F   0  0  0  0  0  0  0  0  0  0  0  0
    3.8543    0.3295    2.4749 F   0  0  0  0  0  0  0  0  0  0  0  0
    5.0189    1.2927    0.7373 F   0  0  0  0  0  0  0  0  0  0  0  0
    2.2083    1.8567    0.6230 F   0  0  0  0  0  0  0  0  0  0  0  0
   -3.2462    1.1485    0.8609 O   0  0  0  0  0  0  0  0  0  0  0  0
   -3.8233   -0.1031    1.2174 C   0  0  0  0  0  0  0  0  0  0  0  0
   -4.9064    0.0477    1.1810 H   0  0  0  0  0  0  0  0  0  0  0  0
   -3.5293   -0.4030    2.2353 H   0  0  0  0  0  0  0  0  0  0  0  0
   -3.5390   -0.8915    0.5034 H   0  0  0  0  0  0  0  0  0  0  0  0
  1  7  1  0  0  0  0
  2  1  1  0  0  0  0
  2  8  1  0  0  0  0
  3  2  2  0  0  0  0
  4  5  2  0  0  0  0
  4  3  1  0  0  0  0
  5  6  1  0  0  0  0
  6 18  1  0  0  0  0
  6  1  2  0  0  0  0
  9  4  1  0  0  0  0
 10  5  1  0  0  0  0
 12 11  3  0  0  0  0
 13 15  1  0  0  0  0
 14 13  1  0  0  0  0
 16 13  1  0  0  0  0
 17  3  1  0  0  0  0
 18 19  1  0  0  0  0
 19 21  1  0  0  0  0
 20 19  1  0  0  0  0
 22 19  1  0  0  0  0
M  END
