Coordinates from ORCA-job p-CH3O-Ph-N2-BF4-B3LYPG-aug-cc-pVDZ-scan-d09-49-n400
 OpenBabel01151817073D

 22 20  0  0  0  0  0  0  0  0999 V2000
   -1.0319    0.2195    1.2256 C   0  0  0  0  0  0  0  0  0  0  0  0
    0.3533    0.4345    1.1912 C   0  0  0  0  0  0  0  0  0  0  0  0
    0.8250    1.6963    0.8726 C   0  0  0  0  0  0  0  0  0  0  0  0
   -0.0239    2.7579    0.5755 C   0  0  0  0  0  0  0  0  0  0  0  0
   -1.3989    2.5401    0.6100 C   0  0  0  0  0  0  0  0  0  0  0  0
   -1.9105    1.2726    0.9359 C   0  0  0  0  0  0  0  0  0  0  0  0
   -1.4013   -0.7711    1.4779 H   0  0  0  0  0  0  0  0  0  0  0  0
    1.0502   -0.3727    1.4088 H   0  0  0  0  0  0  0  0  0  0  0  0
    0.3894    3.7322    0.3203 H   0  0  0  0  0  0  0  0  0  0  0  0
   -2.0961    3.3457    0.3846 H   0  0  0  0  0  0  0  0  0  0  0  0
    1.4663    0.6975   -3.0183 N   0  0  0  0  0  0  0  0  0  0  0  0
    0.7819    0.2460   -3.7583 N   0  0  0  0  0  0  0  0  0  0  0  0
    4.1863    0.3887    1.2536 B   0  0  0  0  0  0  0  0  0  0  0  0
    3.8211   -0.4652    0.3022 F   0  0  0  0  0  0  0  0  0  0  0  0
    3.7999    0.1730    2.5075 F   0  0  0  0  0  0  0  0  0  0  0  0
    5.0039    1.3936    0.9709 F   0  0  0  0  0  0  0  0  0  0  0  0
    2.1817    1.9142    0.8251 F   0  0  0  0  0  0  0  0  0  0  0  0
   -3.2741    1.1685    0.9416 O   0  0  0  0  0  0  0  0  0  0  0  0
   -3.8496   -0.0929    1.2636 C   0  0  0  0  0  0  0  0  0  0  0  0
   -4.9329    0.0518    1.2096 H   0  0  0  0  0  0  0  0  0  0  0  0
   -3.5728   -0.4103    2.2810 H   0  0  0  0  0  0  0  0  0  0  0  0
   -3.5471   -0.8663    0.5405 H   0  0  0  0  0  0  0  0  0  0  0  0
  1  7  1  0  0  0  0
  2  1  1  0  0  0  0
  2  8  1  0  0  0  0
  3  2  2  0  0  0  0
  4  5  2  0  0  0  0
  4  3  1  0  0  0  0
  5  6  1  0  0  0  0
  6 18  1  0  0  0  0
  6  1  2  0  0  0  0
  9  4  1  0  0  0  0
 10  5  1  0  0  0  0
 12 11  3  0  0  0  0
 13 15  1  0  0  0  0
 14 13  1  0  0  0  0
 16 13  1  0  0  0  0
 17  3  1  0  0  0  0
 18 19  1  0  0  0  0
 19 21  1  0  0  0  0
 20 19  1  0  0  0  0
 22 19  1  0  0  0  0
M  END
