Coordinates from ORCA-job p-CH3O-Ph-N2-BF4-B3LYPG-aug-cc-pVDZ-scan-d09-49-n400
 OpenBabel01151817073D

 22 20  0  0  0  0  0  0  0  0999 V2000
   -1.0297    0.2159    1.2148 C   0  0  0  0  0  0  0  0  0  0  0  0
    0.3557    0.4293    1.1765 C   0  0  0  0  0  0  0  0  0  0  0  0
    0.8280    1.6901    0.8551 C   0  0  0  0  0  0  0  0  0  0  0  0
   -0.0204    2.7524    0.5591 C   0  0  0  0  0  0  0  0  0  0  0  0
   -1.3957    2.5362    0.5977 C   0  0  0  0  0  0  0  0  0  0  0  0
   -1.9078    1.2697    0.9263 C   0  0  0  0  0  0  0  0  0  0  0  0
   -1.3995   -0.7739    1.4693 H   0  0  0  0  0  0  0  0  0  0  0  0
    1.0522   -0.3785    1.3932 H   0  0  0  0  0  0  0  0  0  0  0  0
    0.3933    3.7260    0.3020 H   0  0  0  0  0  0  0  0  0  0  0  0
   -2.0925    3.3425    0.3733 H   0  0  0  0  0  0  0  0  0  0  0  0
    1.4499    0.7238   -2.9320 N   0  0  0  0  0  0  0  0  0  0  0  0
    0.7591    0.2743   -3.6673 N   0  0  0  0  0  0  0  0  0  0  0  0
    4.1856    0.3885    1.2512 B   0  0  0  0  0  0  0  0  0  0  0  0
    3.8171   -0.4752    0.3098 F   0  0  0  0  0  0  0  0  0  0  0  0
    3.8030    0.1858    2.5084 F   0  0  0  0  0  0  0  0  0  0  0  0
    5.0035    1.3894    0.9555 F   0  0  0  0  0  0  0  0  0  0  0  0
    2.1848    1.9069    0.8052 F   0  0  0  0  0  0  0  0  0  0  0  0
   -3.2715    1.1673    0.9361 O   0  0  0  0  0  0  0  0  0  0  0  0
   -3.8477   -0.0931    1.2611 C   0  0  0  0  0  0  0  0  0  0  0  0
   -4.9309    0.0530    1.2101 H   0  0  0  0  0  0  0  0  0  0  0  0
   -3.5683   -0.4095    2.2781 H   0  0  0  0  0  0  0  0  0  0  0  0
   -3.5482   -0.8676    0.5381 H   0  0  0  0  0  0  0  0  0  0  0  0
  1  7  1  0  0  0  0
  2  1  1  0  0  0  0
  2  8  1  0  0  0  0
  3  2  2  0  0  0  0
  4  5  2  0  0  0  0
  4  3  1  0  0  0  0
  5  6  1  0  0  0  0
  6 18  1  0  0  0  0
  6  1  2  0  0  0  0
  9  4  1  0  0  0  0
 10  5  1  0  0  0  0
 12 11  3  0  0  0  0
 13 15  1  0  0  0  0
 14 13  1  0  0  0  0
 16 13  1  0  0  0  0
 17  3  1  0  0  0  0
 18 19  1  0  0  0  0
 19 21  1  0  0  0  0
 20 19  1  0  0  0  0
 22 19  1  0  0  0  0
M  END
