Coordinates from ORCA-job p-CH3O-Ph-N2-BF4-B3LYPG-aug-cc-pVDZ-scan-d09-49-n400
 OpenBabel01151817063D

 22 20  0  0  0  0  0  0  0  0999 V2000
   -1.1224   -0.1075    0.5379 C   0  0  0  0  0  0  0  0  0  0  0  0
    0.0911   -0.1239   -0.1999 C   0  0  0  0  0  0  0  0  0  0  0  0
    0.3721    1.1396   -0.5201 C   0  0  0  0  0  0  0  0  0  0  0  0
   -0.0051    2.4035   -0.2778 C   0  0  0  0  0  0  0  0  0  0  0  0
   -1.2047    2.3413    0.4597 C   0  0  0  0  0  0  0  0  0  0  0  0
   -1.7539    1.1063    0.8665 C   0  0  0  0  0  0  0  0  0  0  0  0
   -1.5082   -1.0722    0.8574 H   0  0  0  0  0  0  0  0  0  0  0  0
    0.6879   -1.0071   -0.3977 H   0  0  0  0  0  0  0  0  0  0  0  0
    0.5128    3.3160   -0.5500 H   0  0  0  0  0  0  0  0  0  0  0  0
   -1.6909    3.2748    0.7407 H   0  0  0  0  0  0  0  0  0  0  0  0
    2.3516    1.1282   -2.0371 N   0  0  0  0  0  0  0  0  0  0  0  0
    3.2771    1.1334   -2.6363 N   0  0  0  0  0  0  0  0  0  0  0  0
    2.8069    1.0360    1.3951 B   0  0  0  0  0  0  0  0  0  0  0  0
    2.8127   -0.1162    0.5350 F   0  0  0  0  0  0  0  0  0  0  0  0
    1.6366    0.9863    2.1972 F   0  0  0  0  0  0  0  0  0  0  0  0
    3.9614    1.0867    2.1603 F   0  0  0  0  0  0  0  0  0  0  0  0
    2.7078    2.1910    0.5376 F   0  0  0  0  0  0  0  0  0  0  0  0
   -2.8947    1.1957    1.5849 O   0  0  0  0  0  0  0  0  0  0  0  0
   -3.4397   -0.0001    2.1536 C   0  0  0  0  0  0  0  0  0  0  0  0
   -4.3190    0.3199    2.7185 H   0  0  0  0  0  0  0  0  0  0  0  0
   -2.7148   -0.4737    2.8307 H   0  0  0  0  0  0  0  0  0  0  0  0
   -3.7447   -0.7045    1.3654 H   0  0  0  0  0  0  0  0  0  0  0  0
  1  7  1  0  0  0  0
  1  6  1  0  0  0  0
  2  1  2  0  0  0  0
  3  4  2  0  0  0  0
  3  2  1  0  0  0  0
  4  5  1  0  0  0  0
  5 10  1  0  0  0  0
  5  6  2  0  0  0  0
  6 18  1  0  0  0  0
  8  2  1  0  0  0  0
  9  4  1  0  0  0  0
 12 11  3  0  0  0  0
 13 16  1  0  0  0  0
 13 15  1  0  0  0  0
 14 13  1  0  0  0  0
 17 13  1  0  0  0  0
 18 19  1  0  0  0  0
 19 20  1  0  0  0  0
 19 21  1  0  0  0  0
 22 19  1  0  0  0  0
M  RAD  1   3   2
M  END
