Coordinates from ORCA-job p-CH3O-Ph-N2-BF4-B3LYPG-aug-cc-pVDZ-scan-d09-49-n400
 OpenBabel01151817073D

 22 20  0  0  0  0  0  0  0  0999 V2000
   -1.0432    0.2313    1.2692 C   0  0  0  0  0  0  0  0  0  0  0  0
    0.3419    0.4496    1.2503 C   0  0  0  0  0  0  0  0  0  0  0  0
    0.8138    1.7157    0.9500 C   0  0  0  0  0  0  0  0  0  0  0  0
   -0.0344    2.7794    0.6586 C   0  0  0  0  0  0  0  0  0  0  0  0
   -1.4094    2.5584    0.6780 C   0  0  0  0  0  0  0  0  0  0  0  0
   -1.9211    1.2861    0.9838 C   0  0  0  0  0  0  0  0  0  0  0  0
   -1.4128   -0.7628    1.5068 H   0  0  0  0  0  0  0  0  0  0  0  0
    1.0386   -0.3584    1.4656 H   0  0  0  0  0  0  0  0  0  0  0  0
    0.3791    3.7578    0.4199 H   0  0  0  0  0  0  0  0  0  0  0  0
   -2.1062    3.3653    0.4557 H   0  0  0  0  0  0  0  0  0  0  0  0
    1.5245    0.5531   -3.4638 N   0  0  0  0  0  0  0  0  0  0  0  0
    0.8821    0.0986   -4.2389 N   0  0  0  0  0  0  0  0  0  0  0  0
    4.1901    0.4060    1.2841 B   0  0  0  0  0  0  0  0  0  0  0  0
    3.8502   -0.4051    0.2873 F   0  0  0  0  0  0  0  0  0  0  0  0
    3.7909    0.1235    2.5207 F   0  0  0  0  0  0  0  0  0  0  0  0
    4.9954    1.4358    1.0619 F   0  0  0  0  0  0  0  0  0  0  0  0
    2.1706    1.9372    0.9204 F   0  0  0  0  0  0  0  0  0  0  0  0
   -3.2846    1.1792    0.9757 O   0  0  0  0  0  0  0  0  0  0  0  0
   -3.8604   -0.0870    1.2778 C   0  0  0  0  0  0  0  0  0  0  0  0
   -4.9434    0.0562    1.2155 H   0  0  0  0  0  0  0  0  0  0  0  0
   -3.5923   -0.4154    2.2941 H   0  0  0  0  0  0  0  0  0  0  0  0
   -3.5495   -0.8514    0.5488 H   0  0  0  0  0  0  0  0  0  0  0  0
  1  7  1  0  0  0  0
  2  1  1  0  0  0  0
  2  8  1  0  0  0  0
  3  2  2  0  0  0  0
  4  5  2  0  0  0  0
  4  3  1  0  0  0  0
  5  6  1  0  0  0  0
  6  1  2  0  0  0  0
  9  4  1  0  0  0  0
 10  5  1  0  0  0  0
 12 11  3  0  0  0  0
 13 15  1  0  0  0  0
 14 13  1  0  0  0  0
 16 13  1  0  0  0  0
 17  3  1  0  0  0  0
 18  6  1  0  0  0  0
 18 19  1  0  0  0  0
 19 21  1  0  0  0  0
 20 19  1  0  0  0  0
 22 19  1  0  0  0  0
M  END
