Coordinates from ORCA-job p-CH3O-Ph-N2-BF4-B3LYPG-aug-cc-pVDZ-scan-d09-49-n400
 OpenBabel01151817073D

 22 20  0  0  0  0  0  0  0  0999 V2000
   -1.0269    0.2062    1.1836 C   0  0  0  0  0  0  0  0  0  0  0  0
    0.3588    0.4152    1.1325 C   0  0  0  0  0  0  0  0  0  0  0  0
    0.8320    1.6736    0.8031 C   0  0  0  0  0  0  0  0  0  0  0  0
   -0.0158    2.7377    0.5116 C   0  0  0  0  0  0  0  0  0  0  0  0
   -1.3913    2.5257    0.5628 C   0  0  0  0  0  0  0  0  0  0  0  0
   -1.9044    1.2616    0.8995 C   0  0  0  0  0  0  0  0  0  0  0  0
   -1.3974   -0.7817    1.4445 H   0  0  0  0  0  0  0  0  0  0  0  0
    1.0546   -0.3939    1.3460 H   0  0  0  0  0  0  0  0  0  0  0  0
    0.3986    3.7094    0.2487 H   0  0  0  0  0  0  0  0  0  0  0  0
   -2.0877    3.3335    0.3426 H   0  0  0  0  0  0  0  0  0  0  0  0
    1.4192    0.8077   -2.6486 N   0  0  0  0  0  0  0  0  0  0  0  0
    0.7292    0.3643   -3.3883 N   0  0  0  0  0  0  0  0  0  0  0  0
    4.1873    0.3825    1.2321 B   0  0  0  0  0  0  0  0  0  0  0  0
    3.8029   -0.5238    0.3377 F   0  0  0  0  0  0  0  0  0  0  0  0
    3.8202    0.2418    2.5020 F   0  0  0  0  0  0  0  0  0  0  0  0
    5.0059    1.3636    0.8778 F   0  0  0  0  0  0  0  0  0  0  0  0
    2.1887    1.8864    0.7417 F   0  0  0  0  0  0  0  0  0  0  0  0
   -3.2682    1.1634    0.9215 O   0  0  0  0  0  0  0  0  0  0  0  0
   -3.8453   -0.0943    1.2552 C   0  0  0  0  0  0  0  0  0  0  0  0
   -4.9284    0.0549    1.2131 H   0  0  0  0  0  0  0  0  0  0  0  0
   -3.5581   -0.4086    2.2706 H   0  0  0  0  0  0  0  0  0  0  0  0
   -3.5543   -0.8718    0.5319 H   0  0  0  0  0  0  0  0  0  0  0  0
  1  7  1  0  0  0  0
  2  1  1  0  0  0  0
  2  8  1  0  0  0  0
  3  2  2  0  0  0  0
  4  5  2  0  0  0  0
  4  3  1  0  0  0  0
  5  6  1  0  0  0  0
  6 18  1  0  0  0  0
  6  1  2  0  0  0  0
  9  4  1  0  0  0  0
 10  5  1  0  0  0  0
 12 11  3  0  0  0  0
 13 15  1  0  0  0  0
 14 13  1  0  0  0  0
 16 13  1  0  0  0  0
 17  3  1  0  0  0  0
 18 19  1  0  0  0  0
 19 21  1  0  0  0  0
 20 19  1  0  0  0  0
 22 19  1  0  0  0  0
M  END
