Coordinates from ORCA-job p-CH3O-Ph-N2-BF4-B3LYPG-aug-cc-pVDZ-scan-d09-49-n400
 OpenBabel01151817063D

 22 21  0  0  0  0  0  0  0  0999 V2000
   -1.1178   -0.1374    0.4343 C   0  0  0  0  0  0  0  0  0  0  0  0
    0.0326   -0.1467   -0.3507 C   0  0  0  0  0  0  0  0  0  0  0  0
    0.5123    1.0950   -0.7181 C   0  0  0  0  0  0  0  0  0  0  0  0
    0.0212    2.3406   -0.3557 C   0  0  0  0  0  0  0  0  0  0  0  0
   -1.1256    2.3170    0.4207 C   0  0  0  0  0  0  0  0  0  0  0  0
   -1.6945    1.0886    0.8239 C   0  0  0  0  0  0  0  0  0  0  0  0
   -1.5327   -1.0865    0.7598 H   0  0  0  0  0  0  0  0  0  0  0  0
    0.5392   -1.0679   -0.6215 H   0  0  0  0  0  0  0  0  0  0  0  0
    0.5239    3.2643   -0.6252 H   0  0  0  0  0  0  0  0  0  0  0  0
   -1.5795    3.2442    0.7640 H   0  0  0  0  0  0  0  0  0  0  0  0
    1.8870    1.0936   -1.5595 N   0  0  0  0  0  0  0  0  0  0  0  0
    2.7876    1.0907   -2.2001 N   0  0  0  0  0  0  0  0  0  0  0  0
    2.8880    1.1207    1.4277 B   0  0  0  0  0  0  0  0  0  0  0  0
    2.8879   -0.0629    0.6028 F   0  0  0  0  0  0  0  0  0  0  0  0
    1.6626    1.1717    2.1330 F   0  0  0  0  0  0  0  0  0  0  0  0
    3.9838    1.1263    2.2769 F   0  0  0  0  0  0  0  0  0  0  0  0
    2.9375    2.2453    0.5243 F   0  0  0  0  0  0  0  0  0  0  0  0
   -2.7918    1.1931    1.5968 O   0  0  0  0  0  0  0  0  0  0  0  0
   -3.3790    0.0030    2.1377 C   0  0  0  0  0  0  0  0  0  0  0  0
   -4.2174    0.3459    2.7493 H   0  0  0  0  0  0  0  0  0  0  0  0
   -2.6557   -0.5349    2.7660 H   0  0  0  0  0  0  0  0  0  0  0  0
   -3.7496   -0.6504    1.3349 H   0  0  0  0  0  0  0  0  0  0  0  0
  1  7  1  0  0  0  0
  1  6  1  0  0  0  0
  2  1  2  0  0  0  0
  3  4  2  0  0  0  0
  3  2  1  0  0  0  0
  4  5  1  0  0  0  0
  5 10  1  0  0  0  0
  5  6  2  0  0  0  0
  6 18  1  0  0  0  0
  8  2  1  0  0  0  0
  9  4  1  0  0  0  0
 11  3  1  0  0  0  0
 12 11  1  0  0  0  0
 13 15  1  0  0  0  0
 13 16  1  0  0  0  0
 14 13  1  0  0  0  0
 17 13  1  0  0  0  0
 18 19  1  0  0  0  0
 19 20  1  0  0  0  0
 19 21  1  0  0  0  0
 22 19  1  0  0  0  0
M  RAD  2  11   2  12   3
M  END
