Coordinates from ORCA-job p-CH3O-Ph-N2-BF4-B3LYPG-aug-cc-pVDZ-scan-d09-49-n400
 OpenBabel01151817063D

 22 20  0  0  0  0  0  0  0  0999 V2000
   -1.1278   -0.1239    0.4944 C   0  0  0  0  0  0  0  0  0  0  0  0
    0.0567   -0.1453   -0.2729 C   0  0  0  0  0  0  0  0  0  0  0  0
    0.4050    1.1117   -0.6079 C   0  0  0  0  0  0  0  0  0  0  0  0
   -0.0038    2.3725   -0.3328 C   0  0  0  0  0  0  0  0  0  0  0  0
   -1.1783    2.3264    0.4317 C   0  0  0  0  0  0  0  0  0  0  0  0
   -1.7354    1.0969    0.8424 C   0  0  0  0  0  0  0  0  0  0  0  0
   -1.5197   -1.0803    0.8291 H   0  0  0  0  0  0  0  0  0  0  0  0
    0.6198   -1.0448   -0.4947 H   0  0  0  0  0  0  0  0  0  0  0  0
    0.5107    3.2869   -0.6061 H   0  0  0  0  0  0  0  0  0  0  0  0
   -1.6457    3.2598    0.7412 H   0  0  0  0  0  0  0  0  0  0  0  0
    2.1528    1.1234   -1.7592 N   0  0  0  0  0  0  0  0  0  0  0  0
    3.0404    1.1344   -2.4124 N   0  0  0  0  0  0  0  0  0  0  0  0
    2.8690    1.0746    1.3989 B   0  0  0  0  0  0  0  0  0  0  0  0
    2.8839   -0.0728    0.5257 F   0  0  0  0  0  0  0  0  0  0  0  0
    1.6612    1.0475    2.1407 F   0  0  0  0  0  0  0  0  0  0  0  0
    3.9860    1.0784    2.2212 F   0  0  0  0  0  0  0  0  0  0  0  0
    2.8517    2.2422    0.5553 F   0  0  0  0  0  0  0  0  0  0  0  0
   -2.8582    1.1976    1.5872 O   0  0  0  0  0  0  0  0  0  0  0  0
   -3.4194    0.0058    2.1473 C   0  0  0  0  0  0  0  0  0  0  0  0
   -4.2820    0.3363    2.7317 H   0  0  0  0  0  0  0  0  0  0  0  0
   -2.6943   -0.4934    2.8056 H   0  0  0  0  0  0  0  0  0  0  0  0
   -3.7525   -0.6808    1.3550 H   0  0  0  0  0  0  0  0  0  0  0  0
  1  7  1  0  0  0  0
  1  6  1  0  0  0  0
  2  1  2  0  0  0  0
  3  4  2  0  0  0  0
  3  2  1  0  0  0  0
  4  5  1  0  0  0  0
  5 10  1  0  0  0  0
  5  6  2  0  0  0  0
  6 18  1  0  0  0  0
  8  2  1  0  0  0  0
  9  4  1  0  0  0  0
 12 11  3  0  0  0  0
 13 15  1  0  0  0  0
 13 16  1  0  0  0  0
 14 13  1  0  0  0  0
 17 13  1  0  0  0  0
 18 19  1  0  0  0  0
 19 20  1  0  0  0  0
 19 21  1  0  0  0  0
 22 19  1  0  0  0  0
M  RAD  1   3   2
M  END
