Coordinates from ORCA-job p-CH3O-Ph-N2-BF4-B3LYPG-aug-cc-pVDZ-scan-d09-49-n400
 OpenBabel01151817073D

 22 20  0  0  0  0  0  0  0  0999 V2000
   -1.0272    0.2073    1.1872 C   0  0  0  0  0  0  0  0  0  0  0  0
    0.3585    0.4168    1.1374 C   0  0  0  0  0  0  0  0  0  0  0  0
    0.8316    1.6754    0.8090 C   0  0  0  0  0  0  0  0  0  0  0  0
   -0.0163    2.7393    0.5169 C   0  0  0  0  0  0  0  0  0  0  0  0
   -1.3917    2.5269    0.5667 C   0  0  0  0  0  0  0  0  0  0  0  0
   -1.9048    1.2625    0.9026 C   0  0  0  0  0  0  0  0  0  0  0  0
   -1.3977   -0.7809    1.4474 H   0  0  0  0  0  0  0  0  0  0  0  0
    1.0544   -0.3921    1.3514 H   0  0  0  0  0  0  0  0  0  0  0  0
    0.3980    3.7112    0.2545 H   0  0  0  0  0  0  0  0  0  0  0  0
   -2.0882    3.3345    0.3460 H   0  0  0  0  0  0  0  0  0  0  0  0
    1.4228    0.7983   -2.6811 N   0  0  0  0  0  0  0  0  0  0  0  0
    0.7328    0.3542   -3.4203 N   0  0  0  0  0  0  0  0  0  0  0  0
    4.1871    0.3832    1.2343 B   0  0  0  0  0  0  0  0  0  0  0  0
    3.8046   -0.5183    0.3343 F   0  0  0  0  0  0  0  0  0  0  0  0
    3.8181    0.2351    2.5029 F   0  0  0  0  0  0  0  0  0  0  0  0
    5.0056    1.3668    0.8870 F   0  0  0  0  0  0  0  0  0  0  0  0
    2.1883    1.8887    0.7488 F   0  0  0  0  0  0  0  0  0  0  0  0
   -3.2686    1.1638    0.9232 O   0  0  0  0  0  0  0  0  0  0  0  0
   -3.8456   -0.0941    1.2560 C   0  0  0  0  0  0  0  0  0  0  0  0
   -4.9287    0.0547    1.2129 H   0  0  0  0  0  0  0  0  0  0  0  0
   -3.5593   -0.4087    2.2716 H   0  0  0  0  0  0  0  0  0  0  0  0
   -3.5537   -0.8713    0.5327 H   0  0  0  0  0  0  0  0  0  0  0  0
  1  7  1  0  0  0  0
  2  1  1  0  0  0  0
  2  8  1  0  0  0  0
  3  2  2  0  0  0  0
  4  5  2  0  0  0  0
  4  3  1  0  0  0  0
  5  6  1  0  0  0  0
  6 18  1  0  0  0  0
  6  1  2  0  0  0  0
  9  4  1  0  0  0  0
 10  5  1  0  0  0  0
 12 11  3  0  0  0  0
 13 15  1  0  0  0  0
 14 13  1  0  0  0  0
 16 13  1  0  0  0  0
 17  3  1  0  0  0  0
 18 19  1  0  0  0  0
 19 21  1  0  0  0  0
 20 19  1  0  0  0  0
 22 19  1  0  0  0  0
M  END
