Coordinates from ORCA-job p-CH3O-Ph-N2-BF4-B3LYPG-aug-cc-pVDZ-scan-d09-49-n400
 OpenBabel01151817063D

 22 21  0  0  0  0  0  0  0  0999 V2000
   -0.7688   -0.0070    0.2272 C   0  0  0  0  0  0  0  0  0  0  0  0
    0.2565    0.0528   -0.6833 C   0  0  0  0  0  0  0  0  0  0  0  0
    0.6058    1.3118   -1.2476 C   0  0  0  0  0  0  0  0  0  0  0  0
   -0.1208    2.4997   -0.9290 C   0  0  0  0  0  0  0  0  0  0  0  0
   -1.1445    2.4181   -0.0264 C   0  0  0  0  0  0  0  0  0  0  0  0
   -1.4367    1.1800    0.6118 C   0  0  0  0  0  0  0  0  0  0  0  0
   -0.9889   -0.9529    0.7090 H   0  0  0  0  0  0  0  0  0  0  0  0
    0.8386   -0.8296   -0.9318 H   0  0  0  0  0  0  0  0  0  0  0  0
    0.1721    3.4488   -1.3735 H   0  0  0  0  0  0  0  0  0  0  0  0
   -1.7001    3.3028    0.2767 H   0  0  0  0  0  0  0  0  0  0  0  0
    1.6517    1.3906   -1.9830 N   0  0  0  0  0  0  0  0  0  0  0  0
    2.5789    1.4611   -2.6175 N   0  0  0  0  0  0  0  0  0  0  0  0
    1.9349    0.5881    2.0846 B   0  0  0  0  0  0  0  0  0  0  0  0
    2.3042   -0.3413    1.0570 F   0  0  0  0  0  0  0  0  0  0  0  0
    0.7110    0.1353    2.6800 F   0  0  0  0  0  0  0  0  0  0  0  0
    2.9376    0.6946    3.0394 F   0  0  0  0  0  0  0  0  0  0  0  0
    1.6831    1.8476    1.4573 F   0  0  0  0  0  0  0  0  0  0  0  0
   -2.3506    1.2374    1.5679 O   0  0  0  0  0  0  0  0  0  0  0  0
   -2.5409    0.0947    2.4387 C   0  0  0  0  0  0  0  0  0  0  0  0
   -3.2307    0.4450    3.2098 H   0  0  0  0  0  0  0  0  0  0  0  0
   -1.5765   -0.1911    2.8747 H   0  0  0  0  0  0  0  0  0  0  0  0
   -2.9960   -0.7333    1.8794 H   0  0  0  0  0  0  0  0  0  0  0  0
  1  6  1  0  0  0  0
  1  7  1  0  0  0  0
  2  1  2  0  0  0  0
  3  4  2  0  0  0  0
  3  2  1  0  0  0  0
  4  5  1  0  0  0  0
  5 10  1  0  0  0  0
  5  6  2  0  0  0  0
  6 18  1  0  0  0  0
  8  2  1  0  0  0  0
  9  4  1  0  0  0  0
 11  3  1  0  0  0  0
 12 11  1  0  0  0  0
 13 15  1  0  0  0  0
 13 16  1  0  0  0  0
 14 13  1  0  0  0  0
 17 13  1  0  0  0  0
 18 19  1  0  0  0  0
 19 21  1  0  0  0  0
 19 20  1  0  0  0  0
 22 19  1  0  0  0  0
M  RAD  2  11   2  12   3
M  END
