Coordinates from ORCA-job p-CH3O-Ph-N2-BF4-B3LYPG-aug-cc-pVDZ-scan-d09-49-n400
 OpenBabel01151817063D

 22 21  0  0  0  0  0  0  0  0999 V2000
   -1.1022   -0.1392    0.4064 C   0  0  0  0  0  0  0  0  0  0  0  0
    0.0328   -0.1442   -0.3913 C   0  0  0  0  0  0  0  0  0  0  0  0
    0.5466    1.0948   -0.7668 C   0  0  0  0  0  0  0  0  0  0  0  0
    0.0364    2.3368   -0.3749 C   0  0  0  0  0  0  0  0  0  0  0  0
   -1.0966    2.3171    0.4126 C   0  0  0  0  0  0  0  0  0  0  0  0
   -1.6657    1.0879    0.8168 C   0  0  0  0  0  0  0  0  0  0  0  0
   -1.5194   -1.0878    0.7299 H   0  0  0  0  0  0  0  0  0  0  0  0
    0.5233   -1.0694   -0.6795 H   0  0  0  0  0  0  0  0  0  0  0  0
    0.5363    3.2631   -0.6430 H   0  0  0  0  0  0  0  0  0  0  0  0
   -1.5405    3.2428    0.7722 H   0  0  0  0  0  0  0  0  0  0  0  0
    1.8120    1.0904   -1.5562 N   0  0  0  0  0  0  0  0  0  0  0  0
    2.7280    1.0831   -2.1817 N   0  0  0  0  0  0  0  0  0  0  0  0
    2.8361    1.1251    1.4596 B   0  0  0  0  0  0  0  0  0  0  0  0
    2.8271   -0.0786    0.6679 F   0  0  0  0  0  0  0  0  0  0  0  0
    1.5957    1.2219    2.1375 F   0  0  0  0  0  0  0  0  0  0  0  0
    3.9118    1.1314    2.3347 F   0  0  0  0  0  0  0  0  0  0  0  0
    2.9283    2.2255    0.5312 F   0  0  0  0  0  0  0  0  0  0  0  0
   -2.7459    1.1913    1.6075 O   0  0  0  0  0  0  0  0  0  0  0  0
   -3.3350    0.0013    2.1502 C   0  0  0  0  0  0  0  0  0  0  0  0
   -4.1594    0.3481    2.7782 H   0  0  0  0  0  0  0  0  0  0  0  0
   -2.6051   -0.5463    2.7617 H   0  0  0  0  0  0  0  0  0  0  0  0
   -3.7247   -0.6417    1.3484 H   0  0  0  0  0  0  0  0  0  0  0  0
  1  7  1  0  0  0  0
  1  6  2  0  0  0  0
  2  1  1  0  0  0  0
  3  2  2  0  0  0  0
  3  4  1  0  0  0  0
  4  5  2  0  0  0  0
  5 10  1  0  0  0  0
  5  6  1  0  0  0  0
  6 18  1  0  0  0  0
  8  2  1  0  0  0  0
  9  4  1  0  0  0  0
 11  3  1  0  0  0  0
 12 11  1  0  0  0  0
 13 15  1  0  0  0  0
 13 16  1  0  0  0  0
 14 13  1  0  0  0  0
 17 13  1  0  0  0  0
 18 19  1  0  0  0  0
 19 21  1  0  0  0  0
 19 20  1  0  0  0  0
 22 19  1  0  0  0  0
M  RAD  2  11   2  12   3
M  END
