Coordinates from ORCA-job p-CH3O-Ph-N2-BF4-B3LYPG-aug-cc-pVDZ-scan-d09-49-n400
 OpenBabel01151817073D

 22 20  0  0  0  0  0  0  0  0999 V2000
   -1.0281    0.2106    1.1979 C   0  0  0  0  0  0  0  0  0  0  0  0
    0.3575    0.4215    1.1525 C   0  0  0  0  0  0  0  0  0  0  0  0
    0.8303    1.6810    0.8267 C   0  0  0  0  0  0  0  0  0  0  0  0
   -0.0178    2.7443    0.5330 C   0  0  0  0  0  0  0  0  0  0  0  0
   -1.3932    2.5304    0.5786 C   0  0  0  0  0  0  0  0  0  0  0  0
   -1.9059    1.2653    0.9118 C   0  0  0  0  0  0  0  0  0  0  0  0
   -1.3983   -0.7782    1.4560 H   0  0  0  0  0  0  0  0  0  0  0  0
    1.0536   -0.3869    1.3675 H   0  0  0  0  0  0  0  0  0  0  0  0
    0.3964    3.7168    0.2725 H   0  0  0  0  0  0  0  0  0  0  0  0
   -2.0898    3.3375    0.3564 H   0  0  0  0  0  0  0  0  0  0  0  0
    1.4334    0.7697   -2.7785 N   0  0  0  0  0  0  0  0  0  0  0  0
    0.7431    0.3235   -3.5161 N   0  0  0  0  0  0  0  0  0  0  0  0
    4.1862    0.3854    1.2411 B   0  0  0  0  0  0  0  0  0  0  0  0
    3.8093   -0.5013    0.3242 F   0  0  0  0  0  0  0  0  0  0  0  0
    3.8115    0.2153    2.5053 F   0  0  0  0  0  0  0  0  0  0  0  0
    5.0045    1.3761    0.9143 F   0  0  0  0  0  0  0  0  0  0  0  0
    2.1870    1.8956    0.7705 F   0  0  0  0  0  0  0  0  0  0  0  0
   -3.2697    1.1652    0.9283 O   0  0  0  0  0  0  0  0  0  0  0  0
   -3.8464   -0.0937    1.2582 C   0  0  0  0  0  0  0  0  0  0  0  0
   -4.9295    0.0541    1.2121 H   0  0  0  0  0  0  0  0  0  0  0  0
   -3.5627   -0.4089    2.2744 H   0  0  0  0  0  0  0  0  0  0  0  0
   -3.5516   -0.8699    0.5351 H   0  0  0  0  0  0  0  0  0  0  0  0
  1  7  1  0  0  0  0
  2  1  1  0  0  0  0
  2  8  1  0  0  0  0
  3  2  2  0  0  0  0
  4  5  2  0  0  0  0
  4  3  1  0  0  0  0
  5  6  1  0  0  0  0
  6 18  1  0  0  0  0
  6  1  2  0  0  0  0
  9  4  1  0  0  0  0
 10  5  1  0  0  0  0
 12 11  3  0  0  0  0
 13 15  1  0  0  0  0
 14 13  1  0  0  0  0
 16 13  1  0  0  0  0
 17  3  1  0  0  0  0
 18 19  1  0  0  0  0
 19 21  1  0  0  0  0
 20 19  1  0  0  0  0
 22 19  1  0  0  0  0
M  END
