Coordinates from ORCA-job p-CH3O-Ph-N2-BF4-B3LYPG-aug-cc-pVDZ-scan-d09-49-n400
 OpenBabel01151817073D

 22 20  0  0  0  0  0  0  0  0999 V2000
   -1.0349    0.2225    1.2360 C   0  0  0  0  0  0  0  0  0  0  0  0
    0.3503    0.4385    1.2053 C   0  0  0  0  0  0  0  0  0  0  0  0
    0.8219    1.7012    0.8902 C   0  0  0  0  0  0  0  0  0  0  0  0
   -0.0270    2.7628    0.5931 C   0  0  0  0  0  0  0  0  0  0  0  0
   -1.4020    2.5440    0.6240 C   0  0  0  0  0  0  0  0  0  0  0  0
   -1.9135    1.2756    0.9462 C   0  0  0  0  0  0  0  0  0  0  0  0
   -1.4042   -0.7688    1.4855 H   0  0  0  0  0  0  0  0  0  0  0  0
    1.0473   -0.3685    1.4229 H   0  0  0  0  0  0  0  0  0  0  0  0
    0.3862    3.7379    0.3406 H   0  0  0  0  0  0  0  0  0  0  0  0
   -2.0992    3.3496    0.3983 H   0  0  0  0  0  0  0  0  0  0  0  0
    1.4798    0.6681   -3.1149 N   0  0  0  0  0  0  0  0  0  0  0  0
    0.8042    0.2159   -3.8625 N   0  0  0  0  0  0  0  0  0  0  0  0
    4.1894    0.3907    1.2594 B   0  0  0  0  0  0  0  0  0  0  0  0
    3.8327   -0.4561    0.2986 F   0  0  0  0  0  0  0  0  0  0  0  0
    3.7984    0.1615    2.5095 F   0  0  0  0  0  0  0  0  0  0  0  0
    5.0030    1.4023    0.9896 F   0  0  0  0  0  0  0  0  0  0  0  0
    2.1786    1.9200    0.8463 F   0  0  0  0  0  0  0  0  0  0  0  0
   -3.2771    1.1705    0.9486 O   0  0  0  0  0  0  0  0  0  0  0  0
   -3.8525   -0.0919    1.2668 C   0  0  0  0  0  0  0  0  0  0  0  0
   -4.9357    0.0523    1.2106 H   0  0  0  0  0  0  0  0  0  0  0  0
   -3.5778   -0.4109    2.2843 H   0  0  0  0  0  0  0  0  0  0  0  0
   -3.5478   -0.8637    0.5430 H   0  0  0  0  0  0  0  0  0  0  0  0
  1  7  1  0  0  0  0
  2  1  1  0  0  0  0
  2  8  1  0  0  0  0
  3  2  2  0  0  0  0
  4  5  2  0  0  0  0
  4  3  1  0  0  0  0
  5  6  1  0  0  0  0
  6 18  1  0  0  0  0
  6  1  2  0  0  0  0
  9  4  1  0  0  0  0
 10  5  1  0  0  0  0
 12 11  3  0  0  0  0
 13 15  1  0  0  0  0
 14 13  1  0  0  0  0
 16 13  1  0  0  0  0
 17  3  1  0  0  0  0
 18 19  1  0  0  0  0
 19 21  1  0  0  0  0
 20 19  1  0  0  0  0
 22 19  1  0  0  0  0
M  END
