Coordinates from ORCA-job p-CH3O-Ph-N2-BF4-B3LYPG-aug-cc-pVDZ-scan-d09-49-n400
 OpenBabel01151817063D

 22 20  0  0  0  0  0  0  0  0999 V2000
   -1.1178   -0.1105    0.5254 C   0  0  0  0  0  0  0  0  0  0  0  0
    0.0887   -0.1295   -0.2210 C   0  0  0  0  0  0  0  0  0  0  0  0
    0.3830    1.1326   -0.5460 C   0  0  0  0  0  0  0  0  0  0  0  0
   -0.0003    2.3968   -0.2966 C   0  0  0  0  0  0  0  0  0  0  0  0
   -1.1932    2.3383    0.4486 C   0  0  0  0  0  0  0  0  0  0  0  0
   -1.7435    1.1048    0.8582 C   0  0  0  0  0  0  0  0  0  0  0  0
   -1.5032   -1.0731    0.8510 H   0  0  0  0  0  0  0  0  0  0  0  0
    0.6763   -1.0179   -0.4218 H   0  0  0  0  0  0  0  0  0  0  0  0
    0.5154    3.3100   -0.5704 H   0  0  0  0  0  0  0  0  0  0  0  0
   -1.6745    3.2722    0.7361 H   0  0  0  0  0  0  0  0  0  0  0  0
    2.2874    1.1312   -1.9796 N   0  0  0  0  0  0  0  0  0  0  0  0
    3.2071    1.1384   -2.5871 N   0  0  0  0  0  0  0  0  0  0  0  0
    2.8093    1.0411    1.4046 B   0  0  0  0  0  0  0  0  0  0  0  0
    2.8208   -0.1071    0.5375 F   0  0  0  0  0  0  0  0  0  0  0  0
    1.6280    0.9915    2.1900 F   0  0  0  0  0  0  0  0  0  0  0  0
    3.9533    1.0806    2.1864 F   0  0  0  0  0  0  0  0  0  0  0  0
    2.7289    2.2021    0.5539 F   0  0  0  0  0  0  0  0  0  0  0  0
   -2.8795    1.1973    1.5839 O   0  0  0  0  0  0  0  0  0  0  0  0
   -3.4264    0.0029    2.1533 C   0  0  0  0  0  0  0  0  0  0  0  0
   -4.3010    0.3256    2.7241 H   0  0  0  0  0  0  0  0  0  0  0  0
   -2.6997   -0.4752    2.8253 H   0  0  0  0  0  0  0  0  0  0  0  0
   -3.7392   -0.6987    1.3657 H   0  0  0  0  0  0  0  0  0  0  0  0
  1  7  1  0  0  0  0
  1  6  1  0  0  0  0
  2  1  2  0  0  0  0
  3  4  2  0  0  0  0
  3  2  1  0  0  0  0
  4  5  1  0  0  0  0
  5 10  1  0  0  0  0
  5  6  2  0  0  0  0
  6 18  1  0  0  0  0
  8  2  1  0  0  0  0
  9  4  1  0  0  0  0
 12 11  3  0  0  0  0
 13 16  1  0  0  0  0
 13 15  1  0  0  0  0
 14 13  1  0  0  0  0
 17 13  1  0  0  0  0
 18 19  1  0  0  0  0
 19 20  1  0  0  0  0
 19 21  1  0  0  0  0
 22 19  1  0  0  0  0
M  RAD  1   3   2
M  END
