Coordinates from ORCA-job p-CH3O-Ph-N2-BF4-B3LYPG-aug-cc-pVDZ-scan-d09-49-n400
 OpenBabel01151817063D

 22 21  0  0  0  0  0  0  0  0999 V2000
   -0.7996   -0.0066    0.2361 C   0  0  0  0  0  0  0  0  0  0  0  0
    0.2371    0.0497   -0.6698 C   0  0  0  0  0  0  0  0  0  0  0  0
    0.5561    1.3054   -1.2173 C   0  0  0  0  0  0  0  0  0  0  0  0
   -0.1419    2.4981   -0.9261 C   0  0  0  0  0  0  0  0  0  0  0  0
   -1.1773    2.4151   -0.0280 C   0  0  0  0  0  0  0  0  0  0  0  0
   -1.4730    1.1795    0.6078 C   0  0  0  0  0  0  0  0  0  0  0  0
   -1.0200   -0.9507    0.7214 H   0  0  0  0  0  0  0  0  0  0  0  0
    0.8306   -0.8284   -0.9032 H   0  0  0  0  0  0  0  0  0  0  0  0
    0.1582    3.4456   -1.3676 H   0  0  0  0  0  0  0  0  0  0  0  0
   -1.7350    3.3005    0.2691 H   0  0  0  0  0  0  0  0  0  0  0  0
    1.7377    1.3947   -1.9837 N   0  0  0  0  0  0  0  0  0  0  0  0
    2.6862    1.4640   -2.5704 N   0  0  0  0  0  0  0  0  0  0  0  0
    1.9792    0.5843    2.0541 B   0  0  0  0  0  0  0  0  0  0  0  0
    2.3515   -0.3231    1.0053 F   0  0  0  0  0  0  0  0  0  0  0  0
    0.7700    0.1065    2.6542 F   0  0  0  0  0  0  0  0  0  0  0  0
    2.9940    0.6867    2.9978 F   0  0  0  0  0  0  0  0  0  0  0  0
    1.7085    1.8511    1.4498 F   0  0  0  0  0  0  0  0  0  0  0  0
   -2.3981    1.2369    1.5607 O   0  0  0  0  0  0  0  0  0  0  0  0
   -2.5690    0.1026    2.4424 C   0  0  0  0  0  0  0  0  0  0  0  0
   -3.2588    0.4502    3.2150 H   0  0  0  0  0  0  0  0  0  0  0  0
   -1.6000   -0.1700    2.8778 H   0  0  0  0  0  0  0  0  0  0  0  0
   -3.0166   -0.7387    1.8962 H   0  0  0  0  0  0  0  0  0  0  0  0
  1  6  1  0  0  0  0
  1  7  1  0  0  0  0
  2  1  2  0  0  0  0
  3  4  2  0  0  0  0
  3  2  1  0  0  0  0
  4  5  1  0  0  0  0
  5 10  1  0  0  0  0
  5  6  2  0  0  0  0
  6 18  1  0  0  0  0
  8  2  1  0  0  0  0
  9  4  1  0  0  0  0
 11  3  1  0  0  0  0
 12 11  1  0  0  0  0
 13 15  1  0  0  0  0
 13 16  1  0  0  0  0
 14 13  1  0  0  0  0
 17 13  1  0  0  0  0
 18 19  1  0  0  0  0
 19 21  1  0  0  0  0
 19 20  1  0  0  0  0
 22 19  1  0  0  0  0
M  RAD  2  11   2  12   3
M  END
