Coordinates from ORCA-job p-CH3O-Ph-N2-BF4-B3LYPG-aug-cc-pVDZ-scan-d09-49-n400
 OpenBabel01151817073D

 22 20  0  0  0  0  0  0  0  0999 V2000
   -1.0430    0.2309    1.2680 C   0  0  0  0  0  0  0  0  0  0  0  0
    0.3421    0.4491    1.2485 C   0  0  0  0  0  0  0  0  0  0  0  0
    0.8141    1.7149    0.9471 C   0  0  0  0  0  0  0  0  0  0  0  0
   -0.0342    2.7785    0.6552 C   0  0  0  0  0  0  0  0  0  0  0  0
   -1.4091    2.5576    0.6751 C   0  0  0  0  0  0  0  0  0  0  0  0
   -1.9209    1.2855    0.9821 C   0  0  0  0  0  0  0  0  0  0  0  0
   -1.4126   -0.7630    1.5064 H   0  0  0  0  0  0  0  0  0  0  0  0
    1.0389   -0.3588    1.4642 H   0  0  0  0  0  0  0  0  0  0  0  0
    0.3793    3.7567    0.4156 H   0  0  0  0  0  0  0  0  0  0  0  0
   -2.1060    3.3644    0.4525 H   0  0  0  0  0  0  0  0  0  0  0  0
    1.5234    0.5592   -3.4477 N   0  0  0  0  0  0  0  0  0  0  0  0
    0.8796    0.1050   -4.2218 N   0  0  0  0  0  0  0  0  0  0  0  0
    4.1901    0.4051    1.2827 B   0  0  0  0  0  0  0  0  0  0  0  0
    3.8499   -0.4077    0.2873 F   0  0  0  0  0  0  0  0  0  0  0  0
    3.7911    0.1248    2.5198 F   0  0  0  0  0  0  0  0  0  0  0  0
    4.9957    1.4342    1.0586 F   0  0  0  0  0  0  0  0  0  0  0  0
    2.1708    1.9363    0.9169 F   0  0  0  0  0  0  0  0  0  0  0  0
   -3.2844    1.1787    0.9745 O   0  0  0  0  0  0  0  0  0  0  0  0
   -3.8602   -0.0871    1.2777 C   0  0  0  0  0  0  0  0  0  0  0  0
   -4.9432    0.0560    1.2156 H   0  0  0  0  0  0  0  0  0  0  0  0
   -3.5918   -0.4149    2.2941 H   0  0  0  0  0  0  0  0  0  0  0  0
   -3.5496   -0.8521    0.5492 H   0  0  0  0  0  0  0  0  0  0  0  0
  1  7  1  0  0  0  0
  2  1  1  0  0  0  0
  2  8  1  0  0  0  0
  3  2  2  0  0  0  0
  4  5  2  0  0  0  0
  4  3  1  0  0  0  0
  5  6  1  0  0  0  0
  6  1  2  0  0  0  0
  9  4  1  0  0  0  0
 10  5  1  0  0  0  0
 12 11  3  0  0  0  0
 13 15  1  0  0  0  0
 14 13  1  0  0  0  0
 16 13  1  0  0  0  0
 17  3  1  0  0  0  0
 18  6  1  0  0  0  0
 18 19  1  0  0  0  0
 19 21  1  0  0  0  0
 20 19  1  0  0  0  0
 22 19  1  0  0  0  0
M  END
