Coordinates from ORCA-job p-CH3O-Ph-N2-BF4-B3LYPG-aug-cc-pVDZ-scan-d09-49-n400
 OpenBabel01151817073D

 22 20  0  0  0  0  0  0  0  0999 V2000
   -1.0317    0.2192    1.2247 C   0  0  0  0  0  0  0  0  0  0  0  0
    0.3536    0.4341    1.1900 C   0  0  0  0  0  0  0  0  0  0  0  0
    0.8253    1.6958    0.8711 C   0  0  0  0  0  0  0  0  0  0  0  0
   -0.0236    2.7575    0.5740 C   0  0  0  0  0  0  0  0  0  0  0  0
   -1.3987    2.5397    0.6089 C   0  0  0  0  0  0  0  0  0  0  0  0
   -1.9102    1.2723    0.9350 C   0  0  0  0  0  0  0  0  0  0  0  0
   -1.4011   -0.7713    1.4772 H   0  0  0  0  0  0  0  0  0  0  0  0
    1.0504   -0.3731    1.4075 H   0  0  0  0  0  0  0  0  0  0  0  0
    0.3898    3.7317    0.3187 H   0  0  0  0  0  0  0  0  0  0  0  0
   -2.0958    3.3454    0.3835 H   0  0  0  0  0  0  0  0  0  0  0  0
    1.4647    0.6999   -3.0103 N   0  0  0  0  0  0  0  0  0  0  0  0
    0.7797    0.2486   -3.7499 N   0  0  0  0  0  0  0  0  0  0  0  0
    4.1863    0.3886    1.2533 B   0  0  0  0  0  0  0  0  0  0  0  0
    3.8208   -0.4663    0.3029 F   0  0  0  0  0  0  0  0  0  0  0  0
    3.8002    0.1742    2.5076 F   0  0  0  0  0  0  0  0  0  0  0  0
    5.0040    1.3931    0.9694 F   0  0  0  0  0  0  0  0  0  0  0  0
    2.1820    1.9136    0.8232 F   0  0  0  0  0  0  0  0  0  0  0  0
   -3.2739    1.1683    0.9410 O   0  0  0  0  0  0  0  0  0  0  0  0
   -3.8495   -0.0930    1.2633 C   0  0  0  0  0  0  0  0  0  0  0  0
   -4.9327    0.0519    1.2095 H   0  0  0  0  0  0  0  0  0  0  0  0
   -3.5724   -0.4102    2.2807 H   0  0  0  0  0  0  0  0  0  0  0  0
   -3.5472   -0.8665    0.5403 H   0  0  0  0  0  0  0  0  0  0  0  0
  1  7  1  0  0  0  0
  2  1  1  0  0  0  0
  2  8  1  0  0  0  0
  3  2  2  0  0  0  0
  4  5  2  0  0  0  0
  4  3  1  0  0  0  0
  5  6  1  0  0  0  0
  6 18  1  0  0  0  0
  6  1  2  0  0  0  0
  9  4  1  0  0  0  0
 10  5  1  0  0  0  0
 12 11  3  0  0  0  0
 13 15  1  0  0  0  0
 14 13  1  0  0  0  0
 16 13  1  0  0  0  0
 17  3  1  0  0  0  0
 18 19  1  0  0  0  0
 19 21  1  0  0  0  0
 20 19  1  0  0  0  0
 22 19  1  0  0  0  0
M  END
