Coordinates from ORCA-job p-CH3O-Ph-N2-BF4-B3LYPG-aug-cc-pVDZ-scan-d09-49-n400
 OpenBabel01151817063D

 22 21  0  0  0  0  0  0  0  0999 V2000
   -0.7361   -0.0089    0.2171 C   0  0  0  0  0  0  0  0  0  0  0  0
    0.2795    0.0505   -0.6912 C   0  0  0  0  0  0  0  0  0  0  0  0
    0.6848    1.3160   -1.2892 C   0  0  0  0  0  0  0  0  0  0  0  0
   -0.0912    2.5007   -0.9270 C   0  0  0  0  0  0  0  0  0  0  0  0
   -1.1027    2.4203   -0.0244 C   0  0  0  0  0  0  0  0  0  0  0  0
   -1.3954    1.1804    0.6177 C   0  0  0  0  0  0  0  0  0  0  0  0
   -0.9599   -0.9581    0.6916 H   0  0  0  0  0  0  0  0  0  0  0  0
    0.8514   -0.8342   -0.9593 H   0  0  0  0  0  0  0  0  0  0  0  0
    0.2006    3.4477   -1.3793 H   0  0  0  0  0  0  0  0  0  0  0  0
   -1.6558    3.3063    0.2808 H   0  0  0  0  0  0  0  0  0  0  0  0
    1.5266    1.3785   -1.9309 N   0  0  0  0  0  0  0  0  0  0  0  0
    2.4349    1.4484   -2.6244 N   0  0  0  0  0  0  0  0  0  0  0  0
    1.8921    0.5976    2.1015 B   0  0  0  0  0  0  0  0  0  0  0  0
    2.2699   -0.3362    1.0839 F   0  0  0  0  0  0  0  0  0  0  0  0
    0.6616    0.1431    2.6897 F   0  0  0  0  0  0  0  0  0  0  0  0
    2.8818    0.7163    3.0652 F   0  0  0  0  0  0  0  0  0  0  0  0
    1.6341    1.8508    1.4632 F   0  0  0  0  0  0  0  0  0  0  0  0
   -2.2964    1.2394    1.5747 O   0  0  0  0  0  0  0  0  0  0  0  0
   -2.5156    0.0881    2.4331 C   0  0  0  0  0  0  0  0  0  0  0  0
   -3.2055    0.4447    3.2007 H   0  0  0  0  0  0  0  0  0  0  0  0
   -1.5581   -0.2158    2.8710 H   0  0  0  0  0  0  0  0  0  0  0  0
   -2.9805   -0.7223    1.8572 H   0  0  0  0  0  0  0  0  0  0  0  0
  1  6  1  0  0  0  0
  1  7  1  0  0  0  0
  2  1  2  0  0  0  0
  3  4  2  0  0  0  0
  3  2  1  0  0  0  0
  4  5  1  0  0  0  0
  5 10  1  0  0  0  0
  5  6  2  0  0  0  0
  6 18  1  0  0  0  0
  8  2  1  0  0  0  0
  9  4  1  0  0  0  0
 11  3  1  0  0  0  0
 12 11  1  0  0  0  0
 13 15  1  0  0  0  0
 13 16  1  0  0  0  0
 14 13  1  0  0  0  0
 17 13  1  0  0  0  0
 18 19  1  0  0  0  0
 19 21  1  0  0  0  0
 19 20  1  0  0  0  0
 22 19  1  0  0  0  0
M  RAD  2  11   2  12   3
M  END
