Coordinates from ORCA-job p-CH3O-Ph-N2-BF4-B3LYPG-aug-cc-pVDZ-scan-d09-49-n400
 OpenBabel01151817073D

 22 20  0  0  0  0  0  0  0  0999 V2000
   -1.0363    0.2238    1.2411 C   0  0  0  0  0  0  0  0  0  0  0  0
    0.3489    0.4402    1.2122 C   0  0  0  0  0  0  0  0  0  0  0  0
    0.8205    1.7033    0.8989 C   0  0  0  0  0  0  0  0  0  0  0  0
   -0.0283    2.7650    0.6019 C   0  0  0  0  0  0  0  0  0  0  0  0
   -1.4033    2.5458    0.6310 C   0  0  0  0  0  0  0  0  0  0  0  0
   -1.9148    1.2770    0.9514 C   0  0  0  0  0  0  0  0  0  0  0  0
   -1.4056   -0.7679    1.4891 H   0  0  0  0  0  0  0  0  0  0  0  0
    1.0458   -0.3669    1.4298 H   0  0  0  0  0  0  0  0  0  0  0  0
    0.3850    3.7405    0.3509 H   0  0  0  0  0  0  0  0  0  0  0  0
   -2.1004    3.3515    0.4053 H   0  0  0  0  0  0  0  0  0  0  0  0
    1.4865    0.6531   -3.1634 N   0  0  0  0  0  0  0  0  0  0  0  0
    0.8155    0.2008   -3.9150 N   0  0  0  0  0  0  0  0  0  0  0  0
    4.1902    0.3923    1.2625 B   0  0  0  0  0  0  0  0  0  0  0  0
    3.8369   -0.4502    0.2967 F   0  0  0  0  0  0  0  0  0  0  0  0
    3.7975    0.1559    2.5107 F   0  0  0  0  0  0  0  0  0  0  0  0
    5.0022    1.4070    0.9993 F   0  0  0  0  0  0  0  0  0  0  0  0
    2.1773    1.9224    0.8569 F   0  0  0  0  0  0  0  0  0  0  0  0
   -3.2784    1.1716    0.9521 O   0  0  0  0  0  0  0  0  0  0  0  0
   -3.8538   -0.0912    1.2685 C   0  0  0  0  0  0  0  0  0  0  0  0
   -4.9370    0.0527    1.2113 H   0  0  0  0  0  0  0  0  0  0  0  0
   -3.5802   -0.4111    2.2860 H   0  0  0  0  0  0  0  0  0  0  0  0
   -3.5482   -0.8623    0.5444 H   0  0  0  0  0  0  0  0  0  0  0  0
  1  7  1  0  0  0  0
  2  1  1  0  0  0  0
  2  8  1  0  0  0  0
  3  2  2  0  0  0  0
  4  5  2  0  0  0  0
  4  3  1  0  0  0  0
  5  6  1  0  0  0  0
  6 18  1  0  0  0  0
  6  1  2  0  0  0  0
  9  4  1  0  0  0  0
 10  5  1  0  0  0  0
 12 11  3  0  0  0  0
 13 15  1  0  0  0  0
 14 13  1  0  0  0  0
 16 13  1  0  0  0  0
 17  3  1  0  0  0  0
 18 19  1  0  0  0  0
 19 21  1  0  0  0  0
 20 19  1  0  0  0  0
 22 19  1  0  0  0  0
M  END
