Coordinates from ORCA-job p-CH3O-Ph-N2-BF4-B3LYPG-aug-cc-pVDZ-scan-d09-49-n400
 OpenBabel01151817063D

 22 20  0  0  0  0  0  0  0  0999 V2000
   -1.0112    0.1916    1.1306 C   0  0  0  0  0  0  0  0  0  0  0  0
    0.3745    0.3962    1.0651 C   0  0  0  0  0  0  0  0  0  0  0  0
    0.8494    1.6462    0.7082 C   0  0  0  0  0  0  0  0  0  0  0  0
    0.0017    2.7113    0.4206 C   0  0  0  0  0  0  0  0  0  0  0  0
   -1.3739    2.5050    0.4865 C   0  0  0  0  0  0  0  0  0  0  0  0
   -1.8883    1.2459    0.8401 C   0  0  0  0  0  0  0  0  0  0  0  0
   -1.3826   -0.7911    1.4094 H   0  0  0  0  0  0  0  0  0  0  0  0
    1.0689   -0.4122    1.2859 H   0  0  0  0  0  0  0  0  0  0  0  0
    0.4162    3.6799    0.1468 H   0  0  0  0  0  0  0  0  0  0  0  0
   -2.0697    3.3134    0.2668 H   0  0  0  0  0  0  0  0  0  0  0  0
    1.2791    0.9512   -2.1005 N   0  0  0  0  0  0  0  0  0  0  0  0
    0.5896    0.5381   -2.8582 N   0  0  0  0  0  0  0  0  0  0  0  0
    4.1932    0.3679    1.2008 B   0  0  0  0  0  0  0  0  0  0  0  0
    3.7779   -0.5937    0.3809 F   0  0  0  0  0  0  0  0  0  0  0  0
    3.8529    0.3216    2.4848 F   0  0  0  0  0  0  0  0  0  0  0  0
    5.0159    1.3099    0.7606 F   0  0  0  0  0  0  0  0  0  0  0  0
    2.2043    1.8583    0.6471 F   0  0  0  0  0  0  0  0  0  0  0  0
   -3.2518    1.1522    0.8747 O   0  0  0  0  0  0  0  0  0  0  0  0
   -3.8301   -0.1000    1.2268 C   0  0  0  0  0  0  0  0  0  0  0  0
   -4.9131    0.0518    1.1903 H   0  0  0  0  0  0  0  0  0  0  0  0
   -3.5369   -0.4035    2.2438 H   0  0  0  0  0  0  0  0  0  0  0  0
   -3.5461   -0.8864    0.5103 H   0  0  0  0  0  0  0  0  0  0  0  0
  1  7  1  0  0  0  0
  2  1  1  0  0  0  0
  2  8  1  0  0  0  0
  3  2  2  0  0  0  0
  4  5  2  0  0  0  0
  4  3  1  0  0  0  0
  5  6  1  0  0  0  0
  6 18  1  0  0  0  0
  6  1  2  0  0  0  0
  9  4  1  0  0  0  0
 10  5  1  0  0  0  0
 12 11  3  0  0  0  0
 13 15  1  0  0  0  0
 14 13  1  0  0  0  0
 16 13  1  0  0  0  0
 17  3  1  0  0  0  0
 18 19  1  0  0  0  0
 19 21  1  0  0  0  0
 20 19  1  0  0  0  0
 22 19  1  0  0  0  0
M  END
