Coordinates from ORCA-job p-CH3O-Ph-N2-BF4-B3LYPG-aug-cc-pVDZ-scan-d09-49-n400
 OpenBabel01151817073D

 22 20  0  0  0  0  0  0  0  0999 V2000
   -1.0356    0.2231    1.2385 C   0  0  0  0  0  0  0  0  0  0  0  0
    0.3496    0.4394    1.2088 C   0  0  0  0  0  0  0  0  0  0  0  0
    0.8212    1.7023    0.8946 C   0  0  0  0  0  0  0  0  0  0  0  0
   -0.0277    2.7639    0.5975 C   0  0  0  0  0  0  0  0  0  0  0  0
   -1.4027    2.5449    0.6275 C   0  0  0  0  0  0  0  0  0  0  0  0
   -1.9141    1.2763    0.9488 C   0  0  0  0  0  0  0  0  0  0  0  0
   -1.4049   -0.7684    1.4873 H   0  0  0  0  0  0  0  0  0  0  0  0
    1.0466   -0.3677    1.4263 H   0  0  0  0  0  0  0  0  0  0  0  0
    0.3855    3.7392    0.3458 H   0  0  0  0  0  0  0  0  0  0  0  0
   -2.0998    3.3506    0.4018 H   0  0  0  0  0  0  0  0  0  0  0  0
    1.4832    0.6607   -3.1391 N   0  0  0  0  0  0  0  0  0  0  0  0
    0.8098    0.2083   -3.8888 N   0  0  0  0  0  0  0  0  0  0  0  0
    4.1898    0.3914    1.2610 B   0  0  0  0  0  0  0  0  0  0  0  0
    3.8349   -0.4532    0.2977 F   0  0  0  0  0  0  0  0  0  0  0  0
    3.7979    0.1587    2.5101 F   0  0  0  0  0  0  0  0  0  0  0  0
    5.0026    1.4046    0.9944 F   0  0  0  0  0  0  0  0  0  0  0  0
    2.1779    1.9212    0.8516 F   0  0  0  0  0  0  0  0  0  0  0  0
   -3.2777    1.1711    0.9503 O   0  0  0  0  0  0  0  0  0  0  0  0
   -3.8532   -0.0915    1.2677 C   0  0  0  0  0  0  0  0  0  0  0  0
   -4.9364    0.0525    1.2109 H   0  0  0  0  0  0  0  0  0  0  0  0
   -3.5790   -0.4110    2.2851 H   0  0  0  0  0  0  0  0  0  0  0  0
   -3.5480   -0.8630    0.5437 H   0  0  0  0  0  0  0  0  0  0  0  0
  1  7  1  0  0  0  0
  2  1  1  0  0  0  0
  2  8  1  0  0  0  0
  3  2  2  0  0  0  0
  4  5  2  0  0  0  0
  4  3  1  0  0  0  0
  5  6  1  0  0  0  0
  6 18  1  0  0  0  0
  6  1  2  0  0  0  0
  9  4  1  0  0  0  0
 10  5  1  0  0  0  0
 12 11  3  0  0  0  0
 13 15  1  0  0  0  0
 14 13  1  0  0  0  0
 16 13  1  0  0  0  0
 17  3  1  0  0  0  0
 18 19  1  0  0  0  0
 19 21  1  0  0  0  0
 20 19  1  0  0  0  0
 22 19  1  0  0  0  0
M  END
