Coordinates from ORCA-job p-CH3O-Ph-N2-BF4-B3LYPG-aug-cc-pVDZ-scan-d09-49-n400
 OpenBabel01151817073D

 22 20  0  0  0  0  0  0  0  0999 V2000
   -1.0447    0.2354    1.2818 C   0  0  0  0  0  0  0  0  0  0  0  0
    0.3402    0.4550    1.2681 C   0  0  0  0  0  0  0  0  0  0  0  0
    0.8118    1.7231    0.9760 C   0  0  0  0  0  0  0  0  0  0  0  0
   -0.0365    2.7880    0.6893 C   0  0  0  0  0  0  0  0  0  0  0  0
   -1.4113    2.5657    0.7035 C   0  0  0  0  0  0  0  0  0  0  0  0
   -1.9228    1.2911    1.0001 C   0  0  0  0  0  0  0  0  0  0  0  0
   -1.4142   -0.7605    1.5122 H   0  0  0  0  0  0  0  0  0  0  0  0
    1.0370   -0.3536    1.4812 H   0  0  0  0  0  0  0  0  0  0  0  0
    0.3768    3.7684    0.4582 H   0  0  0  0  0  0  0  0  0  0  0  0
   -2.1082    3.3734    0.4845 H   0  0  0  0  0  0  0  0  0  0  0  0
    1.5349    0.4980   -3.6186 N   0  0  0  0  0  0  0  0  0  0  0  0
    0.9066    0.0421   -4.4044 N   0  0  0  0  0  0  0  0  0  0  0  0
    4.1880    0.4138    1.2986 B   0  0  0  0  0  0  0  0  0  0  0  0
    3.8512   -0.3811    0.2879 F   0  0  0  0  0  0  0  0  0  0  0  0
    3.7872    0.1102    2.5296 F   0  0  0  0  0  0  0  0  0  0  0  0
    4.9923    1.4483    1.0950 F   0  0  0  0  0  0  0  0  0  0  0  0
    2.1685    1.9461    0.9530 F   0  0  0  0  0  0  0  0  0  0  0  0
   -3.2861    1.1830    0.9873 O   0  0  0  0  0  0  0  0  0  0  0  0
   -3.8617   -0.0854    1.2801 C   0  0  0  0  0  0  0  0  0  0  0  0
   -4.9446    0.0572    1.2154 H   0  0  0  0  0  0  0  0  0  0  0  0
   -3.5963   -0.4197    2.2952 H   0  0  0  0  0  0  0  0  0  0  0  0
   -3.5480   -0.8452    0.5475 H   0  0  0  0  0  0  0  0  0  0  0  0
  1  7  1  0  0  0  0
  2  1  1  0  0  0  0
  2  8  1  0  0  0  0
  3  2  2  0  0  0  0
  4  5  2  0  0  0  0
  4  3  1  0  0  0  0
  5  6  1  0  0  0  0
  6  1  2  0  0  0  0
  9  4  1  0  0  0  0
 10  5  1  0  0  0  0
 12 11  3  0  0  0  0
 13 15  1  0  0  0  0
 14 13  1  0  0  0  0
 16 13  1  0  0  0  0
 17  3  1  0  0  0  0
 18  6  1  0  0  0  0
 18 19  1  0  0  0  0
 19 21  1  0  0  0  0
 20 19  1  0  0  0  0
 22 19  1  0  0  0  0
M  END
