Coordinates from ORCA-job p-CH3O-Ph-N2-BF4-B3LYPG-aug-cc-pVDZ-scan-d09-49-n400
 OpenBabel01151817063D

 22 21  0  0  0  0  0  0  0  0999 V2000
   -0.7557   -0.0080    0.2223 C   0  0  0  0  0  0  0  0  0  0  0  0
    0.2644    0.0534   -0.6887 C   0  0  0  0  0  0  0  0  0  0  0  0
    0.6340    1.3141   -1.2646 C   0  0  0  0  0  0  0  0  0  0  0  0
   -0.1092    2.4998   -0.9274 C   0  0  0  0  0  0  0  0  0  0  0  0
   -1.1266    2.4192   -0.0230 C   0  0  0  0  0  0  0  0  0  0  0  0
   -1.4192    1.1798    0.6157 C   0  0  0  0  0  0  0  0  0  0  0  0
   -0.9770   -0.9559    0.6999 H   0  0  0  0  0  0  0  0  0  0  0  0
    0.8412   -0.8305   -0.9462 H   0  0  0  0  0  0  0  0  0  0  0  0
    0.1820    3.4489   -1.3742 H   0  0  0  0  0  0  0  0  0  0  0  0
   -1.6798    3.3046    0.2829 H   0  0  0  0  0  0  0  0  0  0  0  0
    1.6085    1.3870   -1.9794 N   0  0  0  0  0  0  0  0  0  0  0  0
    2.5241    1.4571   -2.6405 N   0  0  0  0  0  0  0  0  0  0  0  0
    1.9159    0.5932    2.0978 B   0  0  0  0  0  0  0  0  0  0  0  0
    2.2851   -0.3462    1.0807 F   0  0  0  0  0  0  0  0  0  0  0  0
    0.6851    0.1508    2.6905 F   0  0  0  0  0  0  0  0  0  0  0  0
    2.9118    0.7039    3.0580 F   0  0  0  0  0  0  0  0  0  0  0  0
    1.6703    1.8482    1.4590 F   0  0  0  0  0  0  0  0  0  0  0  0
   -2.3271    1.2372    1.5729 O   0  0  0  0  0  0  0  0  0  0  0  0
   -2.5300    0.0896    2.4367 C   0  0  0  0  0  0  0  0  0  0  0  0
   -3.2198    0.4417    3.2067 H   0  0  0  0  0  0  0  0  0  0  0  0
   -1.5685   -0.2045    2.8732 H   0  0  0  0  0  0  0  0  0  0  0  0
   -2.9894   -0.7300    1.8691 H   0  0  0  0  0  0  0  0  0  0  0  0
  1  6  1  0  0  0  0
  1  7  1  0  0  0  0
  2  1  2  0  0  0  0
  3  4  2  0  0  0  0
  3  2  1  0  0  0  0
  4  5  1  0  0  0  0
  5 10  1  0  0  0  0
  5  6  2  0  0  0  0
  6 18  1  0  0  0  0
  8  2  1  0  0  0  0
  9  4  1  0  0  0  0
 11  3  1  0  0  0  0
 12 11  1  0  0  0  0
 13 15  1  0  0  0  0
 13 16  1  0  0  0  0
 14 13  1  0  0  0  0
 17 13  1  0  0  0  0
 18 19  1  0  0  0  0
 19 21  1  0  0  0  0
 19 20  1  0  0  0  0
 22 19  1  0  0  0  0
M  RAD  2  11   2  12   3
M  END
