Coordinates from ORCA-job p-CH3O-Ph-N2-BF4-B3LYPG-aug-cc-pVDZ-scan-d09-49-n400
 OpenBabel01151817073D

 22 20  0  0  0  0  0  0  0  0999 V2000
   -1.0280    0.2100    1.1961 C   0  0  0  0  0  0  0  0  0  0  0  0
    0.3577    0.4207    1.1500 C   0  0  0  0  0  0  0  0  0  0  0  0
    0.8305    1.6801    0.8237 C   0  0  0  0  0  0  0  0  0  0  0  0
   -0.0175    2.7434    0.5303 C   0  0  0  0  0  0  0  0  0  0  0  0
   -1.3929    2.5298    0.5766 C   0  0  0  0  0  0  0  0  0  0  0  0
   -1.9057    1.2648    0.9103 C   0  0  0  0  0  0  0  0  0  0  0  0
   -1.3982   -0.7786    1.4546 H   0  0  0  0  0  0  0  0  0  0  0  0
    1.0537   -0.3878    1.3648 H   0  0  0  0  0  0  0  0  0  0  0  0
    0.3966    3.7158    0.2695 H   0  0  0  0  0  0  0  0  0  0  0  0
   -2.0895    3.3370    0.3547 H   0  0  0  0  0  0  0  0  0  0  0  0
    1.4317    0.7745   -2.7623 N   0  0  0  0  0  0  0  0  0  0  0  0
    0.7414    0.3286   -3.5001 N   0  0  0  0  0  0  0  0  0  0  0  0
    4.1863    0.3850    1.2399 B   0  0  0  0  0  0  0  0  0  0  0  0
    3.8086   -0.5041    0.3258 F   0  0  0  0  0  0  0  0  0  0  0  0
    3.8125    0.2186    2.5049 F   0  0  0  0  0  0  0  0  0  0  0  0
    5.0047    1.3746    0.9097 F   0  0  0  0  0  0  0  0  0  0  0  0
    2.1872    1.8945    0.7668 F   0  0  0  0  0  0  0  0  0  0  0  0
   -3.2695    1.1649    0.9275 O   0  0  0  0  0  0  0  0  0  0  0  0
   -3.8462   -0.0937    1.2579 C   0  0  0  0  0  0  0  0  0  0  0  0
   -4.9294    0.0542    1.2122 H   0  0  0  0  0  0  0  0  0  0  0  0
   -3.5621   -0.4089    2.2739 H   0  0  0  0  0  0  0  0  0  0  0  0
   -3.5519   -0.8701    0.5347 H   0  0  0  0  0  0  0  0  0  0  0  0
  1  7  1  0  0  0  0
  2  1  1  0  0  0  0
  2  8  1  0  0  0  0
  3  2  2  0  0  0  0
  4  5  2  0  0  0  0
  4  3  1  0  0  0  0
  5  6  1  0  0  0  0
  6 18  1  0  0  0  0
  6  1  2  0  0  0  0
  9  4  1  0  0  0  0
 10  5  1  0  0  0  0
 12 11  3  0  0  0  0
 13 15  1  0  0  0  0
 14 13  1  0  0  0  0
 16 13  1  0  0  0  0
 17  3  1  0  0  0  0
 18 19  1  0  0  0  0
 19 21  1  0  0  0  0
 20 19  1  0  0  0  0
 22 19  1  0  0  0  0
M  END
