Coordinates from ORCA-job p-CH3O-Ph-N2-BF4-B3LYPG-aug-cc-pVDZ-scan-d09-49-n400
 OpenBabel01151817063D

 22 20  0  0  0  0  0  0  0  0999 V2000
   -1.1187   -0.1093    0.5273 C   0  0  0  0  0  0  0  0  0  0  0  0
    0.0890   -0.1279   -0.2183 C   0  0  0  0  0  0  0  0  0  0  0  0
    0.3807    1.1339   -0.5419 C   0  0  0  0  0  0  0  0  0  0  0  0
   -0.0020    2.3983   -0.2933 C   0  0  0  0  0  0  0  0  0  0  0  0
   -1.1958    2.3394    0.4503 C   0  0  0  0  0  0  0  0  0  0  0  0
   -1.7455    1.1054    0.8596 C   0  0  0  0  0  0  0  0  0  0  0  0
   -1.5039   -1.0724    0.8518 H   0  0  0  0  0  0  0  0  0  0  0  0
    0.6778   -1.0157   -0.4187 H   0  0  0  0  0  0  0  0  0  0  0  0
    0.5142    3.3114   -0.5670 H   0  0  0  0  0  0  0  0  0  0  0  0
   -1.6781    3.2731    0.7367 H   0  0  0  0  0  0  0  0  0  0  0  0
    2.2999    1.1298   -1.9892 N   0  0  0  0  0  0  0  0  0  0  0  0
    3.2206    1.1361   -2.5955 N   0  0  0  0  0  0  0  0  0  0  0  0
    2.8084    1.0402    1.4031 B   0  0  0  0  0  0  0  0  0  0  0  0
    2.8194   -0.1085    0.5369 F   0  0  0  0  0  0  0  0  0  0  0  0
    1.6289    0.9904    2.1912 F   0  0  0  0  0  0  0  0  0  0  0  0
    3.9541    1.0810    2.1824 F   0  0  0  0  0  0  0  0  0  0  0  0
    2.7254    2.2003    0.5514 F   0  0  0  0  0  0  0  0  0  0  0  0
   -2.8821    1.1970    1.5845 O   0  0  0  0  0  0  0  0  0  0  0  0
   -3.4282    0.0021    2.1538 C   0  0  0  0  0  0  0  0  0  0  0  0
   -4.3035    0.3240    2.7238 H   0  0  0  0  0  0  0  0  0  0  0  0
   -2.7015   -0.4751    2.8264 H   0  0  0  0  0  0  0  0  0  0  0  0
   -3.7396   -0.7000    1.3660 H   0  0  0  0  0  0  0  0  0  0  0  0
  1  7  1  0  0  0  0
  1  6  1  0  0  0  0
  2  1  2  0  0  0  0
  3  4  2  0  0  0  0
  3  2  1  0  0  0  0
  4  5  1  0  0  0  0
  5 10  1  0  0  0  0
  5  6  2  0  0  0  0
  6 18  1  0  0  0  0
  8  2  1  0  0  0  0
  9  4  1  0  0  0  0
 12 11  3  0  0  0  0
 13 16  1  0  0  0  0
 13 15  1  0  0  0  0
 14 13  1  0  0  0  0
 17 13  1  0  0  0  0
 18 19  1  0  0  0  0
 19 20  1  0  0  0  0
 19 21  1  0  0  0  0
 22 19  1  0  0  0  0
M  RAD  1   3   2
M  END
