Coordinates from ORCA-job p-CH3O-Ph-N2-BF4-B3LYPG-aug-cc-pVDZ-scan-d09-49-n400
 OpenBabel01151817063D

 22 20  0  0  0  0  0  0  0  0999 V2000
   -1.1266   -0.1229    0.4962 C   0  0  0  0  0  0  0  0  0  0  0  0
    0.0590   -0.1446   -0.2710 C   0  0  0  0  0  0  0  0  0  0  0  0
    0.4007    1.1131   -0.6043 C   0  0  0  0  0  0  0  0  0  0  0  0
   -0.0037    2.3746   -0.3325 C   0  0  0  0  0  0  0  0  0  0  0  0
   -1.1789    2.3273    0.4323 C   0  0  0  0  0  0  0  0  0  0  0  0
   -1.7352    1.0976    0.8436 C   0  0  0  0  0  0  0  0  0  0  0  0
   -1.5173   -1.0798    0.8309 H   0  0  0  0  0  0  0  0  0  0  0  0
    0.6245   -1.0429   -0.4913 H   0  0  0  0  0  0  0  0  0  0  0  0
    0.5111    3.2887   -0.6063 H   0  0  0  0  0  0  0  0  0  0  0  0
   -1.6466    3.2610    0.7405 H   0  0  0  0  0  0  0  0  0  0  0  0
    2.1680    1.1253   -1.7807 N   0  0  0  0  0  0  0  0  0  0  0  0
    3.0596    1.1366   -2.4284 N   0  0  0  0  0  0  0  0  0  0  0  0
    2.8592    1.0712    1.4005 B   0  0  0  0  0  0  0  0  0  0  0  0
    2.8755   -0.0751    0.5264 F   0  0  0  0  0  0  0  0  0  0  0  0
    1.6509    1.0417    2.1422 F   0  0  0  0  0  0  0  0  0  0  0  0
    3.9756    1.0755    2.2237 F   0  0  0  0  0  0  0  0  0  0  0  0
    2.8403    2.2398    0.5587 F   0  0  0  0  0  0  0  0  0  0  0  0
   -2.8581    1.1979    1.5883 O   0  0  0  0  0  0  0  0  0  0  0  0
   -3.4172    0.0059    2.1503 C   0  0  0  0  0  0  0  0  0  0  0  0
   -4.2801    0.3359    2.7346 H   0  0  0  0  0  0  0  0  0  0  0  0
   -2.6910   -0.4912    2.8088 H   0  0  0  0  0  0  0  0  0  0  0  0
   -3.7497   -0.6822    1.3589 H   0  0  0  0  0  0  0  0  0  0  0  0
  1  7  1  0  0  0  0
  1  6  1  0  0  0  0
  2  1  2  0  0  0  0
  3  4  2  0  0  0  0
  3  2  1  0  0  0  0
  4  5  1  0  0  0  0
  5 10  1  0  0  0  0
  5  6  2  0  0  0  0
  6 18  1  0  0  0  0
  8  2  1  0  0  0  0
  9  4  1  0  0  0  0
 12 11  3  0  0  0  0
 13 15  1  0  0  0  0
 13 16  1  0  0  0  0
 14 13  1  0  0  0  0
 17 13  1  0  0  0  0
 18 19  1  0  0  0  0
 19 20  1  0  0  0  0
 19 21  1  0  0  0  0
 22 19  1  0  0  0  0
M  RAD  1   3   2
M  END
