Coordinates from ORCA-job p-CH3O-Ph-N2-BF4-B3LYPG-aug-cc-pVDZ-scan-d09-49-n400
 OpenBabel01151817063D

 22 21  0  0  0  0  0  0  0  0999 V2000
   -0.7806   -0.0067    0.2301 C   0  0  0  0  0  0  0  0  0  0  0  0
    0.2474    0.0525   -0.6803 C   0  0  0  0  0  0  0  0  0  0  0  0
    0.5838    1.3099   -1.2377 C   0  0  0  0  0  0  0  0  0  0  0  0
   -0.1303    2.4993   -0.9282 C   0  0  0  0  0  0  0  0  0  0  0  0
   -1.1571    2.4173   -0.0259 C   0  0  0  0  0  0  0  0  0  0  0  0
   -1.4500    1.1799    0.6115 C   0  0  0  0  0  0  0  0  0  0  0  0
   -1.0001   -0.9521    0.7131 H   0  0  0  0  0  0  0  0  0  0  0  0
    0.8332   -0.8283   -0.9250 H   0  0  0  0  0  0  0  0  0  0  0  0
    0.1651    3.4478   -1.3717 H   0  0  0  0  0  0  0  0  0  0  0  0
   -1.7127    3.3023    0.2762 H   0  0  0  0  0  0  0  0  0  0  0  0
    1.6950    1.3936   -2.0018 N   0  0  0  0  0  0  0  0  0  0  0  0
    2.6271    1.4637   -2.6220 N   0  0  0  0  0  0  0  0  0  0  0  0
    1.9481    0.5862    2.0805 B   0  0  0  0  0  0  0  0  0  0  0  0
    2.3184   -0.3362    1.0461 F   0  0  0  0  0  0  0  0  0  0  0  0
    0.7289    0.1255    2.6778 F   0  0  0  0  0  0  0  0  0  0  0  0
    2.9549    0.6911    3.0318 F   0  0  0  0  0  0  0  0  0  0  0  0
    1.6902    1.8483    1.4611 F   0  0  0  0  0  0  0  0  0  0  0  0
   -2.3667    1.2371    1.5676 O   0  0  0  0  0  0  0  0  0  0  0  0
   -2.5497    0.0967    2.4416 C   0  0  0  0  0  0  0  0  0  0  0  0
   -3.2388    0.4457    3.2140 H   0  0  0  0  0  0  0  0  0  0  0  0
   -1.5832   -0.1848    2.8763 H   0  0  0  0  0  0  0  0  0  0  0  0
   -3.0028   -0.7354    1.8865 H   0  0  0  0  0  0  0  0  0  0  0  0
  1  6  1  0  0  0  0
  1  7  1  0  0  0  0
  2  1  2  0  0  0  0
  3  4  2  0  0  0  0
  3  2  1  0  0  0  0
  4  5  1  0  0  0  0
  5 10  1  0  0  0  0
  5  6  2  0  0  0  0
  6 18  1  0  0  0  0
  8  2  1  0  0  0  0
  9  4  1  0  0  0  0
 11  3  1  0  0  0  0
 12 11  1  0  0  0  0
 13 15  1  0  0  0  0
 13 16  1  0  0  0  0
 14 13  1  0  0  0  0
 17 13  1  0  0  0  0
 18 19  1  0  0  0  0
 19 21  1  0  0  0  0
 19 20  1  0  0  0  0
 22 19  1  0  0  0  0
M  RAD  2  11   2  12   3
M  END
