Coordinates from ORCA-job p-CH3O-Ph-N2-BF4-B3LYPG-aug-cc-pVDZ-scan-d09-49-n400
 OpenBabel01151817063D

 22 21  0  0  0  0  0  0  0  0999 V2000
   -0.7463   -0.0087    0.2218 C   0  0  0  0  0  0  0  0  0  0  0  0
    0.2727    0.0523   -0.6874 C   0  0  0  0  0  0  0  0  0  0  0  0
    0.6578    1.3152   -1.2706 C   0  0  0  0  0  0  0  0  0  0  0  0
   -0.1004    2.4998   -0.9250 C   0  0  0  0  0  0  0  0  0  0  0  0
   -1.1169    2.4190   -0.0229 C   0  0  0  0  0  0  0  0  0  0  0  0
   -1.4093    1.1794    0.6171 C   0  0  0  0  0  0  0  0  0  0  0  0
   -0.9683   -0.9570    0.6985 H   0  0  0  0  0  0  0  0  0  0  0  0
    0.8478   -0.8321   -0.9479 H   0  0  0  0  0  0  0  0  0  0  0  0
    0.1907    3.4486   -1.3729 H   0  0  0  0  0  0  0  0  0  0  0  0
   -1.6712    3.3043    0.2815 H   0  0  0  0  0  0  0  0  0  0  0  0
    1.5731    1.3843   -1.9476 N   0  0  0  0  0  0  0  0  0  0  0  0
    2.4867    1.4544   -2.6205 N   0  0  0  0  0  0  0  0  0  0  0  0
    1.9048    0.5961    2.0902 B   0  0  0  0  0  0  0  0  0  0  0  0
    2.2723   -0.3490    1.0786 F   0  0  0  0  0  0  0  0  0  0  0  0
    0.6705    0.1598    2.6816 F   0  0  0  0  0  0  0  0  0  0  0  0
    2.8976    0.7087    3.0527 F   0  0  0  0  0  0  0  0  0  0  0  0
    1.6637    1.8485    1.4440 F   0  0  0  0  0  0  0  0  0  0  0  0
   -2.3153    1.2371    1.5734 O   0  0  0  0  0  0  0  0  0  0  0  0
   -2.5246    0.0882    2.4354 C   0  0  0  0  0  0  0  0  0  0  0  0
   -3.2155    0.4418    3.2036 H   0  0  0  0  0  0  0  0  0  0  0  0
   -1.5650   -0.2088    2.8736 H   0  0  0  0  0  0  0  0  0  0  0  0
   -2.9851   -0.7285    1.8644 H   0  0  0  0  0  0  0  0  0  0  0  0
  1  6  1  0  0  0  0
  1  7  1  0  0  0  0
  2  1  2  0  0  0  0
  3  4  2  0  0  0  0
  3  2  1  0  0  0  0
  4  5  1  0  0  0  0
  5 10  1  0  0  0  0
  5  6  2  0  0  0  0
  6 18  1  0  0  0  0
  8  2  1  0  0  0  0
  9  4  1  0  0  0  0
 11  3  1  0  0  0  0
 12 11  1  0  0  0  0
 13 15  1  0  0  0  0
 13 16  1  0  0  0  0
 14 13  1  0  0  0  0
 17 13  1  0  0  0  0
 18 19  1  0  0  0  0
 19 21  1  0  0  0  0
 19 20  1  0  0  0  0
 22 19  1  0  0  0  0
M  RAD  2  11   2  12   3
M  END
