Coordinates from ORCA-job p-CH3O-Ph-N2-BF4-B3LYPG-aug-cc-pVDZ-scan-d09-49-n400
 OpenBabel01151817063D

 22 21  0  0  0  0  0  0  0  0999 V2000
   -0.7319   -0.0091    0.2165 C   0  0  0  0  0  0  0  0  0  0  0  0
    0.2826    0.0493   -0.6911 C   0  0  0  0  0  0  0  0  0  0  0  0
    0.6968    1.3162   -1.2951 C   0  0  0  0  0  0  0  0  0  0  0  0
   -0.0874    2.5013   -0.9266 C   0  0  0  0  0  0  0  0  0  0  0  0
   -1.0972    2.4208   -0.0242 C   0  0  0  0  0  0  0  0  0  0  0  0
   -1.3898    1.1807    0.6189 C   0  0  0  0  0  0  0  0  0  0  0  0
   -0.9565   -0.9586    0.6902 H   0  0  0  0  0  0  0  0  0  0  0  0
    0.8539   -0.8350   -0.9624 H   0  0  0  0  0  0  0  0  0  0  0  0
    0.2052    3.4470   -1.3813 H   0  0  0  0  0  0  0  0  0  0  0  0
   -1.6502    3.3069    0.2810 H   0  0  0  0  0  0  0  0  0  0  0  0
    1.5116    1.3764   -1.9229 N   0  0  0  0  0  0  0  0  0  0  0  0
    2.4187    1.4462   -2.6243 N   0  0  0  0  0  0  0  0  0  0  0  0
    1.8851    0.5983    2.1023 B   0  0  0  0  0  0  0  0  0  0  0  0
    2.2673   -0.3305    1.0820 F   0  0  0  0  0  0  0  0  0  0  0  0
    0.6569    0.1353    2.6894 F   0  0  0  0  0  0  0  0  0  0  0  0
    2.8739    0.7204    3.0659 F   0  0  0  0  0  0  0  0  0  0  0  0
    1.6188    1.8515    1.4672 F   0  0  0  0  0  0  0  0  0  0  0  0
   -2.2892    1.2402    1.5760 O   0  0  0  0  0  0  0  0  0  0  0  0
   -2.5123    0.0881    2.4331 C   0  0  0  0  0  0  0  0  0  0  0  0
   -3.2021    0.4461    3.2002 H   0  0  0  0  0  0  0  0  0  0  0  0
   -1.5558   -0.2182    2.8713 H   0  0  0  0  0  0  0  0  0  0  0  0
   -2.9787   -0.7199    1.8554 H   0  0  0  0  0  0  0  0  0  0  0  0
  1  6  1  0  0  0  0
  1  7  1  0  0  0  0
  2  1  2  0  0  0  0
  3  4  2  0  0  0  0
  3  2  1  0  0  0  0
  4  5  1  0  0  0  0
  5 10  1  0  0  0  0
  5  6  2  0  0  0  0
  6 18  1  0  0  0  0
  8  2  1  0  0  0  0
  9  4  1  0  0  0  0
 11  3  1  0  0  0  0
 12 11  1  0  0  0  0
 13 15  1  0  0  0  0
 13 16  1  0  0  0  0
 14 13  1  0  0  0  0
 17 13  1  0  0  0  0
 18 19  1  0  0  0  0
 19 21  1  0  0  0  0
 19 20  1  0  0  0  0
 22 19  1  0  0  0  0
M  RAD  2  11   2  12   3
M  END
