Coordinates from ORCA-job p-CH3O-Ph-N2-BF4-B3LYPG-aug-cc-pVDZ-scan-d09-49-n400
 OpenBabel01151817063D

 22 20  0  0  0  0  0  0  0  0999 V2000
   -0.9996    0.1884    1.1026 C   0  0  0  0  0  0  0  0  0  0  0  0
    0.3849    0.3930    1.0265 C   0  0  0  0  0  0  0  0  0  0  0  0
    0.8589    1.6340    0.6376 C   0  0  0  0  0  0  0  0  0  0  0  0
    0.0077    2.7020    0.3706 C   0  0  0  0  0  0  0  0  0  0  0  0
   -1.3668    2.4977    0.4481 C   0  0  0  0  0  0  0  0  0  0  0  0
   -1.8795    1.2394    0.8080 C   0  0  0  0  0  0  0  0  0  0  0  0
   -1.3683   -0.7907    1.3972 H   0  0  0  0  0  0  0  0  0  0  0  0
    1.0796   -0.4129    1.2548 H   0  0  0  0  0  0  0  0  0  0  0  0
    0.4188    3.6720    0.0965 H   0  0  0  0  0  0  0  0  0  0  0  0
   -2.0637    3.3073    0.2361 H   0  0  0  0  0  0  0  0  0  0  0  0
    1.2112    1.0086   -1.8136 N   0  0  0  0  0  0  0  0  0  0  0  0
    0.5138    0.6165   -2.5764 N   0  0  0  0  0  0  0  0  0  0  0  0
    4.1913    0.3555    1.1862 B   0  0  0  0  0  0  0  0  0  0  0  0
    3.7562   -0.6119    0.3835 F   0  0  0  0  0  0  0  0  0  0  0  0
    3.8566    0.3361    2.4721 F   0  0  0  0  0  0  0  0  0  0  0  0
    5.0266    1.2771    0.7266 F   0  0  0  0  0  0  0  0  0  0  0  0
    2.2112    1.8544    0.5951 F   0  0  0  0  0  0  0  0  0  0  0  0
   -3.2422    1.1455    0.8513 O   0  0  0  0  0  0  0  0  0  0  0  0
   -3.8183   -0.1056    1.2120 C   0  0  0  0  0  0  0  0  0  0  0  0
   -4.9014    0.0448    1.1767 H   0  0  0  0  0  0  0  0  0  0  0  0
   -3.5227   -0.4024    2.2303 H   0  0  0  0  0  0  0  0  0  0  0  0
   -3.5343   -0.8955    0.4996 H   0  0  0  0  0  0  0  0  0  0  0  0
  1  7  1  0  0  0  0
  2  1  1  0  0  0  0
  2  8  1  0  0  0  0
  3  2  2  0  0  0  0
  4  5  2  0  0  0  0
  4  3  1  0  0  0  0
  5  6  1  0  0  0  0
  6 18  1  0  0  0  0
  6  1  2  0  0  0  0
  9  4  1  0  0  0  0
 10  5  1  0  0  0  0
 12 11  3  0  0  0  0
 13 15  1  0  0  0  0
 14 13  1  0  0  0  0
 16 13  1  0  0  0  0
 17  3  1  0  0  0  0
 18 19  1  0  0  0  0
 19 21  1  0  0  0  0
 20 19  1  0  0  0  0
 22 19  1  0  0  0  0
M  END
