Coordinates from ORCA-job p-CH3O-Ph-N2-BF4-B3LYPG-aug-cc-pVDZ-scan-d09-49-n400
 OpenBabel01151817073D

 22 20  0  0  0  0  0  0  0  0999 V2000
   -1.0427    0.2305    1.2668 C   0  0  0  0  0  0  0  0  0  0  0  0
    0.3424    0.4486    1.2467 C   0  0  0  0  0  0  0  0  0  0  0  0
    0.8143    1.7142    0.9443 C   0  0  0  0  0  0  0  0  0  0  0  0
   -0.0340    2.7775    0.6518 C   0  0  0  0  0  0  0  0  0  0  0  0
   -1.4089    2.5568    0.6723 C   0  0  0  0  0  0  0  0  0  0  0  0
   -1.9207    1.2850    0.9804 C   0  0  0  0  0  0  0  0  0  0  0  0
   -1.4124   -0.7632    1.5060 H   0  0  0  0  0  0  0  0  0  0  0  0
    1.0391   -0.3592    1.4628 H   0  0  0  0  0  0  0  0  0  0  0  0
    0.3795    3.7555    0.4113 H   0  0  0  0  0  0  0  0  0  0  0  0
   -2.1058    3.3635    0.4493 H   0  0  0  0  0  0  0  0  0  0  0  0
    1.5223    0.5653   -3.4316 N   0  0  0  0  0  0  0  0  0  0  0  0
    0.8771    0.1114   -4.2047 N   0  0  0  0  0  0  0  0  0  0  0  0
    4.1902    0.4041    1.2813 B   0  0  0  0  0  0  0  0  0  0  0  0
    3.8496   -0.4103    0.2874 F   0  0  0  0  0  0  0  0  0  0  0  0
    3.7912    0.1261    2.5189 F   0  0  0  0  0  0  0  0  0  0  0  0
    4.9960    1.4327    1.0552 F   0  0  0  0  0  0  0  0  0  0  0  0
    2.1711    1.9354    0.9134 F   0  0  0  0  0  0  0  0  0  0  0  0
   -3.2842    1.1783    0.9732 O   0  0  0  0  0  0  0  0  0  0  0  0
   -3.8600   -0.0873    1.2775 C   0  0  0  0  0  0  0  0  0  0  0  0
   -4.9430    0.0559    1.2156 H   0  0  0  0  0  0  0  0  0  0  0  0
   -3.5914   -0.4143    2.2941 H   0  0  0  0  0  0  0  0  0  0  0  0
   -3.5497   -0.8529    0.5495 H   0  0  0  0  0  0  0  0  0  0  0  0
  1  7  1  0  0  0  0
  2  1  1  0  0  0  0
  2  8  1  0  0  0  0
  3  2  2  0  0  0  0
  4  5  2  0  0  0  0
  4  3  1  0  0  0  0
  5  6  1  0  0  0  0
  6  1  2  0  0  0  0
  9  4  1  0  0  0  0
 10  5  1  0  0  0  0
 12 11  3  0  0  0  0
 13 15  1  0  0  0  0
 14 13  1  0  0  0  0
 16 13  1  0  0  0  0
 17  3  1  0  0  0  0
 18  6  1  0  0  0  0
 18 19  1  0  0  0  0
 19 21  1  0  0  0  0
 20 19  1  0  0  0  0
 22 19  1  0  0  0  0
M  END
