Coordinates from ORCA-job p-CH3O-Ph-N2-BF4-B3LYPG-aug-cc-pVDZ-scan-d09-49-n400
 OpenBabel01151817073D

 22 20  0  0  0  0  0  0  0  0999 V2000
   -1.0330    0.2205    1.2291 C   0  0  0  0  0  0  0  0  0  0  0  0
    0.3523    0.4360    1.1959 C   0  0  0  0  0  0  0  0  0  0  0  0
    0.8238    1.6981    0.8785 C   0  0  0  0  0  0  0  0  0  0  0  0
   -0.0251    2.7597    0.5813 C   0  0  0  0  0  0  0  0  0  0  0  0
   -1.4001    2.5414    0.6146 C   0  0  0  0  0  0  0  0  0  0  0  0
   -1.9116    1.2736    0.9393 C   0  0  0  0  0  0  0  0  0  0  0  0
   -1.4023   -0.7703    1.4804 H   0  0  0  0  0  0  0  0  0  0  0  0
    1.0492   -0.3711    1.4135 H   0  0  0  0  0  0  0  0  0  0  0  0
    0.3881    3.7342    0.3270 H   0  0  0  0  0  0  0  0  0  0  0  0
   -2.0974    3.3470    0.3890 H   0  0  0  0  0  0  0  0  0  0  0  0
    1.4709    0.6879   -3.0504 N   0  0  0  0  0  0  0  0  0  0  0  0
    0.7894    0.2361   -3.7929 N   0  0  0  0  0  0  0  0  0  0  0  0
    4.1876    0.3890    1.2555 B   0  0  0  0  0  0  0  0  0  0  0  0
    3.8256   -0.4627    0.3011 F   0  0  0  0  0  0  0  0  0  0  0  0
    3.7995    0.1690    2.5082 F   0  0  0  0  0  0  0  0  0  0  0  0
    5.0039    1.3963    0.9771 F   0  0  0  0  0  0  0  0  0  0  0  0
    2.1806    1.9164    0.8322 F   0  0  0  0  0  0  0  0  0  0  0  0
   -3.2752    1.1691    0.9439 O   0  0  0  0  0  0  0  0  0  0  0  0
   -3.8506   -0.0926    1.2647 C   0  0  0  0  0  0  0  0  0  0  0  0
   -4.9339    0.0519    1.2100 H   0  0  0  0  0  0  0  0  0  0  0  0
   -3.5745   -0.4105    2.2821 H   0  0  0  0  0  0  0  0  0  0  0  0
   -3.5474   -0.8655    0.5414 H   0  0  0  0  0  0  0  0  0  0  0  0
  1  7  1  0  0  0  0
  2  1  1  0  0  0  0
  2  8  1  0  0  0  0
  3  2  2  0  0  0  0
  4  5  2  0  0  0  0
  4  3  1  0  0  0  0
  5  6  1  0  0  0  0
  6 18  1  0  0  0  0
  6  1  2  0  0  0  0
  9  4  1  0  0  0  0
 10  5  1  0  0  0  0
 12 11  3  0  0  0  0
 13 15  1  0  0  0  0
 14 13  1  0  0  0  0
 16 13  1  0  0  0  0
 17  3  1  0  0  0  0
 18 19  1  0  0  0  0
 19 21  1  0  0  0  0
 20 19  1  0  0  0  0
 22 19  1  0  0  0  0
M  END
