Coordinates from ORCA-job p-CH3O-Ph-N2-BF4-B3LYPG-aug-cc-pVDZ-scan-d09-49-n400
 OpenBabel01151817063D

 22 20  0  0  0  0  0  0  0  0999 V2000
   -1.0119    0.1918    1.1324 C   0  0  0  0  0  0  0  0  0  0  0  0
    0.3738    0.3964    1.0673 C   0  0  0  0  0  0  0  0  0  0  0  0
    0.8488    1.6469    0.7121 C   0  0  0  0  0  0  0  0  0  0  0  0
    0.0012    2.7120    0.4243 C   0  0  0  0  0  0  0  0  0  0  0  0
   -1.3744    2.5057    0.4897 C   0  0  0  0  0  0  0  0  0  0  0  0
   -1.8888    1.2464    0.8425 C   0  0  0  0  0  0  0  0  0  0  0  0
   -1.3834   -0.7911    1.4102 H   0  0  0  0  0  0  0  0  0  0  0  0
    1.0682   -0.4121    1.2876 H   0  0  0  0  0  0  0  0  0  0  0  0
    0.4158    3.6807    0.1510 H   0  0  0  0  0  0  0  0  0  0  0  0
   -2.0702    3.3142    0.2701 H   0  0  0  0  0  0  0  0  0  0  0  0
    1.2849    0.9466   -2.1255 N   0  0  0  0  0  0  0  0  0  0  0  0
    0.5926    0.5321   -2.8798 N   0  0  0  0  0  0  0  0  0  0  0  0
    4.1935    0.3687    1.2032 B   0  0  0  0  0  0  0  0  0  0  0  0
    3.7791   -0.5922    0.3821 F   0  0  0  0  0  0  0  0  0  0  0  0
    3.8528    0.3208    2.4870 F   0  0  0  0  0  0  0  0  0  0  0  0
    5.0156    1.3119    0.7644 F   0  0  0  0  0  0  0  0  0  0  0  0
    2.2038    1.8587    0.6505 F   0  0  0  0  0  0  0  0  0  0  0  0
   -3.2524    1.1527    0.8768 O   0  0  0  0  0  0  0  0  0  0  0  0
   -3.8308   -0.0997    1.2280 C   0  0  0  0  0  0  0  0  0  0  0  0
   -4.9138    0.0522    1.1916 H   0  0  0  0  0  0  0  0  0  0  0  0
   -3.5377   -0.4038    2.2448 H   0  0  0  0  0  0  0  0  0  0  0  0
   -3.5468   -0.8856    0.5111 H   0  0  0  0  0  0  0  0  0  0  0  0
  1  7  1  0  0  0  0
  2  1  1  0  0  0  0
  2  8  1  0  0  0  0
  3  2  2  0  0  0  0
  4  5  2  0  0  0  0
  4  3  1  0  0  0  0
  5  6  1  0  0  0  0
  6 18  1  0  0  0  0
  6  1  2  0  0  0  0
  9  4  1  0  0  0  0
 10  5  1  0  0  0  0
 12 11  3  0  0  0  0
 13 15  1  0  0  0  0
 14 13  1  0  0  0  0
 16 13  1  0  0  0  0
 17  3  1  0  0  0  0
 18 19  1  0  0  0  0
 19 21  1  0  0  0  0
 20 19  1  0  0  0  0
 22 19  1  0  0  0  0
M  END
