Coordinates from ORCA-job p-CH3O-Ph-N2-BF4-B3LYPG-aug-cc-pVDZ-scan-d09-49-n400
 OpenBabel01151817063D

 22 20  0  0  0  0  0  0  0  0999 V2000
   -1.0000    0.1887    1.1046 C   0  0  0  0  0  0  0  0  0  0  0  0
    0.3846    0.3934    1.0297 C   0  0  0  0  0  0  0  0  0  0  0  0
    0.8584    1.6352    0.6437 C   0  0  0  0  0  0  0  0  0  0  0  0
    0.0079    2.7028    0.3741 C   0  0  0  0  0  0  0  0  0  0  0  0
   -1.3668    2.4979    0.4500 C   0  0  0  0  0  0  0  0  0  0  0  0
   -1.8797    1.2398    0.8098 C   0  0  0  0  0  0  0  0  0  0  0  0
   -1.3690   -0.7907    1.3978 H   0  0  0  0  0  0  0  0  0  0  0  0
    1.0789   -0.4129    1.2575 H   0  0  0  0  0  0  0  0  0  0  0  0
    0.4192    3.6724    0.0987 H   0  0  0  0  0  0  0  0  0  0  0  0
   -2.0636    3.3073    0.2368 H   0  0  0  0  0  0  0  0  0  0  0  0
    1.2130    1.0051   -1.8269 N   0  0  0  0  0  0  0  0  0  0  0  0
    0.5167    0.6122   -2.5901 N   0  0  0  0  0  0  0  0  0  0  0  0
    4.1912    0.3563    1.1859 B   0  0  0  0  0  0  0  0  0  0  0  0
    3.7570   -0.6114    0.3831 F   0  0  0  0  0  0  0  0  0  0  0  0
    3.8565    0.3358    2.4719 F   0  0  0  0  0  0  0  0  0  0  0  0
    5.0252    1.2790    0.7265 F   0  0  0  0  0  0  0  0  0  0  0  0
    2.2111    1.8546    0.5988 F   0  0  0  0  0  0  0  0  0  0  0  0
   -3.2425    1.1458    0.8518 O   0  0  0  0  0  0  0  0  0  0  0  0
   -3.8187   -0.1053    1.2120 C   0  0  0  0  0  0  0  0  0  0  0  0
   -4.9018    0.0450    1.1763 H   0  0  0  0  0  0  0  0  0  0  0  0
   -3.5235   -0.4025    2.2302 H   0  0  0  0  0  0  0  0  0  0  0  0
   -3.5345   -0.8951    0.4994 H   0  0  0  0  0  0  0  0  0  0  0  0
  1  7  1  0  0  0  0
  2  1  1  0  0  0  0
  2  8  1  0  0  0  0
  3  2  2  0  0  0  0
  4  5  2  0  0  0  0
  4  3  1  0  0  0  0
  5  6  1  0  0  0  0
  6 18  1  0  0  0  0
  6  1  2  0  0  0  0
  9  4  1  0  0  0  0
 10  5  1  0  0  0  0
 12 11  3  0  0  0  0
 13 15  1  0  0  0  0
 14 13  1  0  0  0  0
 16 13  1  0  0  0  0
 17  3  1  0  0  0  0
 18 19  1  0  0  0  0
 19 21  1  0  0  0  0
 20 19  1  0  0  0  0
 22 19  1  0  0  0  0
M  END
