Coordinates from ORCA-job p-CH3O-Ph-N2-BF4-B3LYPG-aug-cc-pVDZ-scan-d09-49-n400
 OpenBabel01151817063D

 22 21  0  0  0  0  0  0  0  0999 V2000
   -0.7165   -0.0093    0.2159 C   0  0  0  0  0  0  0  0  0  0  0  0
    0.2939    0.0443   -0.6899 C   0  0  0  0  0  0  0  0  0  0  0  0
    0.7384    1.3171   -1.3190 C   0  0  0  0  0  0  0  0  0  0  0  0
   -0.0769    2.5050   -0.9281 C   0  0  0  0  0  0  0  0  0  0  0  0
   -1.0801    2.4229   -0.0259 C   0  0  0  0  0  0  0  0  0  0  0  0
   -1.3711    1.1825    0.6221 C   0  0  0  0  0  0  0  0  0  0  0  0
   -0.9419   -0.9586    0.6904 H   0  0  0  0  0  0  0  0  0  0  0  0
    0.8667   -0.8362   -0.9718 H   0  0  0  0  0  0  0  0  0  0  0  0
    0.2204    3.4444   -1.3937 H   0  0  0  0  0  0  0  0  0  0  0  0
   -1.6346    3.3088    0.2785 H   0  0  0  0  0  0  0  0  0  0  0  0
    1.4589    1.3699   -1.8887 N   0  0  0  0  0  0  0  0  0  0  0  0
    2.3676    1.4406   -2.6136 N   0  0  0  0  0  0  0  0  0  0  0  0
    1.8593    0.5967    2.1025 B   0  0  0  0  0  0  0  0  0  0  0  0
    2.2594   -0.3086    1.0688 F   0  0  0  0  0  0  0  0  0  0  0  0
    0.6443    0.0948    2.6876 F   0  0  0  0  0  0  0  0  0  0  0  0
    2.8469    0.7330    3.0637 F   0  0  0  0  0  0  0  0  0  0  0  0
    1.5553    1.8498    1.4832 F   0  0  0  0  0  0  0  0  0  0  0  0
   -2.2641    1.2447    1.5800 O   0  0  0  0  0  0  0  0  0  0  0  0
   -2.4999    0.0910    2.4347 C   0  0  0  0  0  0  0  0  0  0  0  0
   -3.1894    0.4537    3.1994 H   0  0  0  0  0  0  0  0  0  0  0  0
   -1.5464   -0.2226    2.8739 H   0  0  0  0  0  0  0  0  0  0  0  0
   -2.9705   -0.7104    1.8515 H   0  0  0  0  0  0  0  0  0  0  0  0
  1  6  1  0  0  0  0
  1  7  1  0  0  0  0
  2  1  2  0  0  0  0
  3  4  2  0  0  0  0
  3  2  1  0  0  0  0
  4  5  1  0  0  0  0
  5 10  1  0  0  0  0
  5  6  2  0  0  0  0
  6 18  1  0  0  0  0
  8  2  1  0  0  0  0
  9  4  1  0  0  0  0
 11  3  1  0  0  0  0
 12 11  1  0  0  0  0
 13 15  1  0  0  0  0
 13 16  1  0  0  0  0
 14 13  1  0  0  0  0
 17 13  1  0  0  0  0
 18 19  1  0  0  0  0
 19 21  1  0  0  0  0
 19 20  1  0  0  0  0
 22 19  1  0  0  0  0
M  RAD  2  11   2  12   3
M  END
