Coordinates from ORCA-job p-CH3O-Ph-N2-BF4-B3LYPG-aug-cc-pVDZ-scan-d09-49-n400
 OpenBabel01151817073D

 22 20  0  0  0  0  0  0  0  0999 V2000
   -1.0307    0.2177    1.2199 C   0  0  0  0  0  0  0  0  0  0  0  0
    0.3546    0.4319    1.1835 C   0  0  0  0  0  0  0  0  0  0  0  0
    0.8266    1.6932    0.8634 C   0  0  0  0  0  0  0  0  0  0  0  0
   -0.0221    2.7551    0.5667 C   0  0  0  0  0  0  0  0  0  0  0  0
   -1.3972    2.5380    0.6033 C   0  0  0  0  0  0  0  0  0  0  0  0
   -1.9091    1.2710    0.9307 C   0  0  0  0  0  0  0  0  0  0  0  0
   -1.4003   -0.7725    1.4734 H   0  0  0  0  0  0  0  0  0  0  0  0
    1.0513   -0.3755    1.4008 H   0  0  0  0  0  0  0  0  0  0  0  0
    0.3914    3.7290    0.3104 H   0  0  0  0  0  0  0  0  0  0  0  0
   -2.0943    3.3440    0.3783 H   0  0  0  0  0  0  0  0  0  0  0  0
    1.4571    0.7119   -2.9709 N   0  0  0  0  0  0  0  0  0  0  0  0
    0.7691    0.2614   -3.7081 N   0  0  0  0  0  0  0  0  0  0  0  0
    4.1862    0.3883    1.2520 B   0  0  0  0  0  0  0  0  0  0  0  0
    3.8191   -0.4712    0.3062 F   0  0  0  0  0  0  0  0  0  0  0  0
    3.8017    0.1802    2.5078 F   0  0  0  0  0  0  0  0  0  0  0  0
    5.0041    1.3909    0.9621 F   0  0  0  0  0  0  0  0  0  0  0  0
    2.1833    1.9104    0.8142 F   0  0  0  0  0  0  0  0  0  0  0  0
   -3.2727    1.1677    0.9384 O   0  0  0  0  0  0  0  0  0  0  0  0
   -3.8486   -0.0931    1.2620 C   0  0  0  0  0  0  0  0  0  0  0  0
   -4.9318    0.0522    1.2094 H   0  0  0  0  0  0  0  0  0  0  0  0
   -3.5705   -0.4099    2.2792 H   0  0  0  0  0  0  0  0  0  0  0  0
   -3.5475   -0.8671    0.5390 H   0  0  0  0  0  0  0  0  0  0  0  0
  1  7  1  0  0  0  0
  2  1  1  0  0  0  0
  2  8  1  0  0  0  0
  3  2  2  0  0  0  0
  4  5  2  0  0  0  0
  4  3  1  0  0  0  0
  5  6  1  0  0  0  0
  6 18  1  0  0  0  0
  6  1  2  0  0  0  0
  9  4  1  0  0  0  0
 10  5  1  0  0  0  0
 12 11  3  0  0  0  0
 13 15  1  0  0  0  0
 14 13  1  0  0  0  0
 16 13  1  0  0  0  0
 17  3  1  0  0  0  0
 18 19  1  0  0  0  0
 19 21  1  0  0  0  0
 20 19  1  0  0  0  0
 22 19  1  0  0  0  0
M  END
