Coordinates from ORCA-job p-CH3O-Ph-N2-BF4-B3LYPG-aug-cc-pVDZ-scan-d09-49-n400
 OpenBabel01151817073D

 22 20  0  0  0  0  0  0  0  0999 V2000
   -1.0365    0.2240    1.2419 C   0  0  0  0  0  0  0  0  0  0  0  0
    0.3486    0.4405    1.2134 C   0  0  0  0  0  0  0  0  0  0  0  0
    0.8203    1.7037    0.9004 C   0  0  0  0  0  0  0  0  0  0  0  0
   -0.0285    2.7654    0.6034 C   0  0  0  0  0  0  0  0  0  0  0  0
   -1.4035    2.5462    0.6322 C   0  0  0  0  0  0  0  0  0  0  0  0
   -1.9150    1.2772    0.9523 C   0  0  0  0  0  0  0  0  0  0  0  0
   -1.4059   -0.7677    1.4897 H   0  0  0  0  0  0  0  0  0  0  0  0
    1.0456   -0.3666    1.4309 H   0  0  0  0  0  0  0  0  0  0  0  0
    0.3848    3.7409    0.3526 H   0  0  0  0  0  0  0  0  0  0  0  0
   -2.1006    3.3518    0.4065 H   0  0  0  0  0  0  0  0  0  0  0  0
    1.4876    0.6506   -3.1714 N   0  0  0  0  0  0  0  0  0  0  0  0
    0.8173    0.1982   -3.9237 N   0  0  0  0  0  0  0  0  0  0  0  0
    4.1903    0.3925    1.2630 B   0  0  0  0  0  0  0  0  0  0  0  0
    3.8375   -0.4491    0.2964 F   0  0  0  0  0  0  0  0  0  0  0  0
    3.7973    0.1549    2.5109 F   0  0  0  0  0  0  0  0  0  0  0  0
    5.0020    1.4078    1.0009 F   0  0  0  0  0  0  0  0  0  0  0  0
    2.1771    1.9228    0.8587 F   0  0  0  0  0  0  0  0  0  0  0  0
   -3.2786    1.1718    0.9526 O   0  0  0  0  0  0  0  0  0  0  0  0
   -3.8541   -0.0911    1.2688 C   0  0  0  0  0  0  0  0  0  0  0  0
   -4.9372    0.0528    1.2113 H   0  0  0  0  0  0  0  0  0  0  0  0
   -3.5806   -0.4112    2.2862 H   0  0  0  0  0  0  0  0  0  0  0  0
   -3.5482   -0.8620    0.5446 H   0  0  0  0  0  0  0  0  0  0  0  0
  1  7  1  0  0  0  0
  2  1  1  0  0  0  0
  2  8  1  0  0  0  0
  3  2  2  0  0  0  0
  4  5  2  0  0  0  0
  4  3  1  0  0  0  0
  5  6  1  0  0  0  0
  6 18  1  0  0  0  0
  6  1  2  0  0  0  0
  9  4  1  0  0  0  0
 10  5  1  0  0  0  0
 12 11  3  0  0  0  0
 13 15  1  0  0  0  0
 14 13  1  0  0  0  0
 16 13  1  0  0  0  0
 17  3  1  0  0  0  0
 18 19  1  0  0  0  0
 19 21  1  0  0  0  0
 20 19  1  0  0  0  0
 22 19  1  0  0  0  0
M  END
