Coordinates from ORCA-job p-CH3O-Ph-N2-BF4-B3LYPG-aug-cc-pVDZ-scan-d09-49-n400
 OpenBabel01151817073D

 22 20  0  0  0  0  0  0  0  0999 V2000
   -1.0315    0.2189    1.2237 C   0  0  0  0  0  0  0  0  0  0  0  0
    0.3538    0.4337    1.1887 C   0  0  0  0  0  0  0  0  0  0  0  0
    0.8255    1.6953    0.8696 C   0  0  0  0  0  0  0  0  0  0  0  0
   -0.0233    2.7570    0.5726 C   0  0  0  0  0  0  0  0  0  0  0  0
   -1.3984    2.5394    0.6078 C   0  0  0  0  0  0  0  0  0  0  0  0
   -1.9100    1.2721    0.9341 C   0  0  0  0  0  0  0  0  0  0  0  0
   -1.4009   -0.7716    1.4764 H   0  0  0  0  0  0  0  0  0  0  0  0
    1.0506   -0.3736    1.4062 H   0  0  0  0  0  0  0  0  0  0  0  0
    0.3901    3.7312    0.3170 H   0  0  0  0  0  0  0  0  0  0  0  0
   -2.0955    3.3451    0.3824 H   0  0  0  0  0  0  0  0  0  0  0  0
    1.4632    0.7023   -3.0024 N   0  0  0  0  0  0  0  0  0  0  0  0
    0.7776    0.2512   -3.7415 N   0  0  0  0  0  0  0  0  0  0  0  0
    4.1863    0.3885    1.2531 B   0  0  0  0  0  0  0  0  0  0  0  0
    3.8205   -0.4673    0.3035 F   0  0  0  0  0  0  0  0  0  0  0  0
    3.8005    0.1754    2.5076 F   0  0  0  0  0  0  0  0  0  0  0  0
    5.0040    1.3926    0.9679 F   0  0  0  0  0  0  0  0  0  0  0  0
    2.1823    1.9130    0.8214 F   0  0  0  0  0  0  0  0  0  0  0  0
   -3.2737    1.1682    0.9405 O   0  0  0  0  0  0  0  0  0  0  0  0
   -3.8493   -0.0930    1.2630 C   0  0  0  0  0  0  0  0  0  0  0  0
   -4.9325    0.0519    1.2095 H   0  0  0  0  0  0  0  0  0  0  0  0
   -3.5720   -0.4101    2.2804 H   0  0  0  0  0  0  0  0  0  0  0  0
   -3.5472   -0.8666    0.5400 H   0  0  0  0  0  0  0  0  0  0  0  0
  1  7  1  0  0  0  0
  2  1  1  0  0  0  0
  2  8  1  0  0  0  0
  3  2  2  0  0  0  0
  4  5  2  0  0  0  0
  4  3  1  0  0  0  0
  5  6  1  0  0  0  0
  6 18  1  0  0  0  0
  6  1  2  0  0  0  0
  9  4  1  0  0  0  0
 10  5  1  0  0  0  0
 12 11  3  0  0  0  0
 13 15  1  0  0  0  0
 14 13  1  0  0  0  0
 16 13  1  0  0  0  0
 17  3  1  0  0  0  0
 18 19  1  0  0  0  0
 19 21  1  0  0  0  0
 20 19  1  0  0  0  0
 22 19  1  0  0  0  0
M  END
