Coordinates from ORCA-job p-CH3O-Ph-N2-BF4-B3LYPG-aug-cc-pVDZ-scan-d09-49-n400
 OpenBabel01151817063D

 22 21  0  0  0  0  0  0  0  0999 V2000
   -0.7914   -0.0067    0.2351 C   0  0  0  0  0  0  0  0  0  0  0  0
    0.2419    0.0506   -0.6728 C   0  0  0  0  0  0  0  0  0  0  0  0
    0.5670    1.3071   -1.2235 C   0  0  0  0  0  0  0  0  0  0  0  0
   -0.1371    2.4985   -0.9259 C   0  0  0  0  0  0  0  0  0  0  0  0
   -1.1699    2.4156   -0.0269 C   0  0  0  0  0  0  0  0  0  0  0  0
   -1.4641    1.1793    0.6096 C   0  0  0  0  0  0  0  0  0  0  0  0
   -1.0110   -0.9511    0.7201 H   0  0  0  0  0  0  0  0  0  0  0  0
    0.8324   -0.8285   -0.9106 H   0  0  0  0  0  0  0  0  0  0  0  0
    0.1616    3.4466   -1.3674 H   0  0  0  0  0  0  0  0  0  0  0  0
   -1.7272    3.3007    0.2719 H   0  0  0  0  0  0  0  0  0  0  0  0
    1.7244    1.3948   -1.9903 N   0  0  0  0  0  0  0  0  0  0  0  0
    2.6670    1.4648   -2.5891 N   0  0  0  0  0  0  0  0  0  0  0  0
    1.9649    0.5852    2.0611 B   0  0  0  0  0  0  0  0  0  0  0  0
    2.3348   -0.3295    1.0186 F   0  0  0  0  0  0  0  0  0  0  0  0
    0.7513    0.1162    2.6608 F   0  0  0  0  0  0  0  0  0  0  0  0
    2.9772    0.6877    3.0074 F   0  0  0  0  0  0  0  0  0  0  0  0
    1.7014    1.8500    1.4498 F   0  0  0  0  0  0  0  0  0  0  0  0
   -2.3865    1.2365    1.5635 O   0  0  0  0  0  0  0  0  0  0  0  0
   -2.5615    0.1003    2.4428 C   0  0  0  0  0  0  0  0  0  0  0  0
   -3.2515    0.4483    3.2150 H   0  0  0  0  0  0  0  0  0  0  0  0
   -1.5934   -0.1749    2.8786 H   0  0  0  0  0  0  0  0  0  0  0  0
   -3.0104   -0.7382    1.8937 H   0  0  0  0  0  0  0  0  0  0  0  0
  1  6  1  0  0  0  0
  1  7  1  0  0  0  0
  2  1  2  0  0  0  0
  3  4  2  0  0  0  0
  3  2  1  0  0  0  0
  4  5  1  0  0  0  0
  5 10  1  0  0  0  0
  5  6  2  0  0  0  0
  6 18  1  0  0  0  0
  8  2  1  0  0  0  0
  9  4  1  0  0  0  0
 11  3  1  0  0  0  0
 12 11  1  0  0  0  0
 13 15  1  0  0  0  0
 13 16  1  0  0  0  0
 14 13  1  0  0  0  0
 17 13  1  0  0  0  0
 18 19  1  0  0  0  0
 19 21  1  0  0  0  0
 19 20  1  0  0  0  0
 22 19  1  0  0  0  0
M  RAD  2  11   2  12   3
M  END
