Coordinates from ORCA-job p-CH3O-Ph-N2-BF4-B3LYPG-aug-cc-pVDZ-scan-d09-49-n400
 OpenBabel01151817063D

 22 21  0  0  0  0  0  0  0  0999 V2000
   -1.1291   -0.1354    0.4593 C   0  0  0  0  0  0  0  0  0  0  0  0
    0.0359   -0.1483   -0.3128 C   0  0  0  0  0  0  0  0  0  0  0  0
    0.4835    1.0966   -0.6731 C   0  0  0  0  0  0  0  0  0  0  0  0
    0.0095    2.3460   -0.3381 C   0  0  0  0  0  0  0  0  0  0  0  0
   -1.1499    2.3175    0.4274 C   0  0  0  0  0  0  0  0  0  0  0  0
   -1.7182    1.0895    0.8298 C   0  0  0  0  0  0  0  0  0  0  0  0
   -1.5402   -1.0855    0.7870 H   0  0  0  0  0  0  0  0  0  0  0  0
    0.5598   -1.0645   -0.5650 H   0  0  0  0  0  0  0  0  0  0  0  0
    0.5160    3.2673   -0.6071 H   0  0  0  0  0  0  0  0  0  0  0  0
   -1.6113    3.2461    0.7571 H   0  0  0  0  0  0  0  0  0  0  0  0
    1.9521    1.0984   -1.5724 N   0  0  0  0  0  0  0  0  0  0  0  0
    2.8346    1.0987   -2.2340 N   0  0  0  0  0  0  0  0  0  0  0  0
    2.9277    1.1145    1.4026 B   0  0  0  0  0  0  0  0  0  0  0  0
    2.9276   -0.0547    0.5552 F   0  0  0  0  0  0  0  0  0  0  0  0
    1.7189    1.1314    2.1355 F   0  0  0  0  0  0  0  0  0  0  0  0
    4.0434    1.1217    2.2251 F   0  0  0  0  0  0  0  0  0  0  0  0
    2.9384    2.2563    0.5192 F   0  0  0  0  0  0  0  0  0  0  0  0
   -2.8297    1.1941    1.5864 O   0  0  0  0  0  0  0  0  0  0  0  0
   -3.4155    0.0038    2.1259 C   0  0  0  0  0  0  0  0  0  0  0  0
   -4.2669    0.3432    2.7215 H   0  0  0  0  0  0  0  0  0  0  0  0
   -2.6987   -0.5246    2.7698 H   0  0  0  0  0  0  0  0  0  0  0  0
   -3.7680   -0.6589    1.3221 H   0  0  0  0  0  0  0  0  0  0  0  0
  1  7  1  0  0  0  0
  1  6  1  0  0  0  0
  2  1  2  0  0  0  0
  3  4  2  0  0  0  0
  3  2  1  0  0  0  0
  4  5  1  0  0  0  0
  5 10  1  0  0  0  0
  5  6  2  0  0  0  0
  6 18  1  0  0  0  0
  8  2  1  0  0  0  0
  9  4  1  0  0  0  0
 11  3  1  0  0  0  0
 12 11  1  0  0  0  0
 13 15  1  0  0  0  0
 13 16  1  0  0  0  0
 14 13  1  0  0  0  0
 17 13  1  0  0  0  0
 18 19  1  0  0  0  0
 19 20  1  0  0  0  0
 19 21  1  0  0  0  0
 22 19  1  0  0  0  0
M  RAD  2  11   2  12   3
M  END
