Coordinates from ORCA-job p-CH3O-Ph-N2-BF4-B3LYPG-aug-cc-pVDZ-scan-d09-49-n400
 OpenBabel01151817073D

 22 20  0  0  0  0  0  0  0  0999 V2000
   -1.0267    0.2056    1.1818 C   0  0  0  0  0  0  0  0  0  0  0  0
    0.3590    0.4145    1.1300 C   0  0  0  0  0  0  0  0  0  0  0  0
    0.8323    1.6727    0.8001 C   0  0  0  0  0  0  0  0  0  0  0  0
   -0.0155    2.7369    0.5089 C   0  0  0  0  0  0  0  0  0  0  0  0
   -1.3910    2.5251    0.5609 C   0  0  0  0  0  0  0  0  0  0  0  0
   -1.9042    1.2612    0.8980 C   0  0  0  0  0  0  0  0  0  0  0  0
   -1.3973   -0.7822    1.4431 H   0  0  0  0  0  0  0  0  0  0  0  0
    1.0548   -0.3947    1.3434 H   0  0  0  0  0  0  0  0  0  0  0  0
    0.3989    3.7085    0.2457 H   0  0  0  0  0  0  0  0  0  0  0  0
   -2.0874    3.3330    0.3410 H   0  0  0  0  0  0  0  0  0  0  0  0
    1.4173    0.8123   -2.6323 N   0  0  0  0  0  0  0  0  0  0  0  0
    0.7274    0.3693   -3.3723 N   0  0  0  0  0  0  0  0  0  0  0  0
    4.1875    0.3822    1.2309 B   0  0  0  0  0  0  0  0  0  0  0  0
    3.8021   -0.5266    0.3394 F   0  0  0  0  0  0  0  0  0  0  0  0
    3.8213    0.2451    2.5015 F   0  0  0  0  0  0  0  0  0  0  0  0
    5.0061    1.3620    0.8733 F   0  0  0  0  0  0  0  0  0  0  0  0
    2.1889    1.8853    0.7381 F   0  0  0  0  0  0  0  0  0  0  0  0
   -3.2680    1.1632    0.9206 O   0  0  0  0  0  0  0  0  0  0  0  0
   -3.8451   -0.0943    1.2548 C   0  0  0  0  0  0  0  0  0  0  0  0
   -4.9283    0.0550    1.2131 H   0  0  0  0  0  0  0  0  0  0  0  0
   -3.5575   -0.4086    2.2701 H   0  0  0  0  0  0  0  0  0  0  0  0
   -3.5547   -0.8720    0.5314 H   0  0  0  0  0  0  0  0  0  0  0  0
  1  7  1  0  0  0  0
  2  1  1  0  0  0  0
  2  8  1  0  0  0  0
  3  2  2  0  0  0  0
  4  5  2  0  0  0  0
  4  3  1  0  0  0  0
  5  6  1  0  0  0  0
  6 18  1  0  0  0  0
  6  1  2  0  0  0  0
  9  4  1  0  0  0  0
 10  5  1  0  0  0  0
 12 11  3  0  0  0  0
 13 15  1  0  0  0  0
 14 13  1  0  0  0  0
 16 13  1  0  0  0  0
 17  3  1  0  0  0  0
 18 19  1  0  0  0  0
 19 21  1  0  0  0  0
 20 19  1  0  0  0  0
 22 19  1  0  0  0  0
M  END
