Coordinates from ORCA-job p-CH3O-Ph-N2-BF4-B3LYPG-aug-cc-pVDZ-scan-d09-49-n400
 OpenBabel01151817063D

 22 20  0  0  0  0  0  0  0  0999 V2000
   -1.0009    0.1892    1.1082 C   0  0  0  0  0  0  0  0  0  0  0  0
    0.3839    0.3941    1.0354 C   0  0  0  0  0  0  0  0  0  0  0  0
    0.8577    1.6373    0.6542 C   0  0  0  0  0  0  0  0  0  0  0  0
    0.0078    2.7041    0.3804 C   0  0  0  0  0  0  0  0  0  0  0  0
   -1.3670    2.4987    0.4541 C   0  0  0  0  0  0  0  0  0  0  0  0
   -1.8802    1.2405    0.8133 C   0  0  0  0  0  0  0  0  0  0  0  0
   -1.3704   -0.7907    1.3993 H   0  0  0  0  0  0  0  0  0  0  0  0
    1.0779   -0.4127    1.2626 H   0  0  0  0  0  0  0  0  0  0  0  0
    0.4195    3.6733    0.1042 H   0  0  0  0  0  0  0  0  0  0  0  0
   -2.0637    3.3076    0.2389 H   0  0  0  0  0  0  0  0  0  0  0  0
    1.2176    0.9981   -1.8550 N   0  0  0  0  0  0  0  0  0  0  0  0
    0.5237    0.6032   -2.6192 N   0  0  0  0  0  0  0  0  0  0  0  0
    4.1909    0.3578    1.1859 B   0  0  0  0  0  0  0  0  0  0  0  0
    3.7590   -0.6102    0.3822 F   0  0  0  0  0  0  0  0  0  0  0  0
    3.8563    0.3349    2.4721 F   0  0  0  0  0  0  0  0  0  0  0  0
    5.0231    1.2827    0.7276 F   0  0  0  0  0  0  0  0  0  0  0  0
    2.2108    1.8552    0.6054 F   0  0  0  0  0  0  0  0  0  0  0  0
   -3.2432    1.1464    0.8535 O   0  0  0  0  0  0  0  0  0  0  0  0
   -3.8197   -0.1048    1.2123 C   0  0  0  0  0  0  0  0  0  0  0  0
   -4.9028    0.0456    1.1760 H   0  0  0  0  0  0  0  0  0  0  0  0
   -3.5252   -0.4027    2.2306 H   0  0  0  0  0  0  0  0  0  0  0  0
   -3.5351   -0.8942    0.4995 H   0  0  0  0  0  0  0  0  0  0  0  0
  1  7  1  0  0  0  0
  2  1  1  0  0  0  0
  2  8  1  0  0  0  0
  3  2  2  0  0  0  0
  4  5  2  0  0  0  0
  4  3  1  0  0  0  0
  5  6  1  0  0  0  0
  6 18  1  0  0  0  0
  6  1  2  0  0  0  0
  9  4  1  0  0  0  0
 10  5  1  0  0  0  0
 12 11  3  0  0  0  0
 13 15  1  0  0  0  0
 14 13  1  0  0  0  0
 16 13  1  0  0  0  0
 17  3  1  0  0  0  0
 18 19  1  0  0  0  0
 19 21  1  0  0  0  0
 20 19  1  0  0  0  0
 22 19  1  0  0  0  0
M  END
