14
Coordinates from ORCA-job Ph-N2-X-Cl-B3LYPG-6-31G_dp-scan-d09-49-n400
  C   -1.30779657883814     -1.28329062827956     -1.51489657970212
  C   0.06110435995238     -1.08548457441799     -1.34143724452989
  C   0.47910783124145     -0.10733345223614     -0.43827490600142
  C   -0.42045031253958      0.64445210751470      0.31835234917695
  C   -1.78473133965931      0.42943433919233      0.12846059945139
  C   -2.22906503049525     -0.53033858607129     -0.78377139769168
  H   -1.65230174856728     -2.02892262124830     -2.22483839439342
  H   0.79125824819516     -1.66004315087645     -1.89994405289208
  H   -0.05717552483947      1.38476447651983      1.02279800016787
  H   -2.49951172669363      1.01611287261629      0.69656429900744
  N   1.87662140099393      0.07106865046781     -0.21962500675692
  N   2.70215207762254      0.76198076365531     -0.69297041586298
  Cl  2.04282737977809      2.02094602410805     -2.18620083582291
  H   -3.29333903615089     -0.69334622094465     -0.92301641415021
