16
Coordinates from ORCA-job p-NO2-Ph-N2-Cl-B3LYPG-6-31G_dp-scan-d09-49-n400
  C   -0.89561188972863     -1.41644359052226     -0.67704163110464
  C   0.47472433893839     -0.88935210131392     -0.71134007381432
  C   0.50426460011026      0.56779582924281     -0.48636950519952
  C   -0.61126376320914      1.40429179214272     -0.87898988049747
  C   -1.81215090223901      0.82441543709931     -1.12747870202918
  C   -1.94146259544084     -0.59373510719343     -0.92578736919283
  H   -1.05273267519312     -2.47854707666616     -0.53962304954303
  H   1.20295053292844     -1.45132387478282     -0.13556910217978
  H   -0.47577464247037      2.47928229035581     -0.93412340692104
  H   -2.68015394735118      1.39764918978053     -1.42251863697508
  N   -3.29580439972752     -1.17775092202616     -0.97980146181313
  O   -4.21958026654741     -0.41644471391831     -1.26317229058345
  O   -3.41729221245778     -2.37585146250620     -0.73707314874122
  N   1.46153751757192      1.15376080522312      0.22886982102736
  N   2.18131231171461      1.74744627867420      0.88665625616066
  Cl  1.05823799310137     -1.51729277358921     -2.59043781859335
