16
Coordinates from ORCA-job p-NO2-Ph-N2-Cl-B3LYPG-6-31G_dp-scan-d09-49-n400
  C   -1.05695211111995     -1.32649999510056     -0.98451709133542
  C   0.21936246727191     -0.79595545401877     -0.79798025552359
  C   0.28777993034163      0.58749786912912     -0.55564444292959
  C   -0.82305139490675      1.45185617645696     -0.49112076032739
  C   -2.07343944912183      0.89293190324241     -0.68097163167764
  C   -2.16296175975733     -0.48448019444615     -0.92402262620508
  H   -1.19323538764704     -2.38408419703045     -1.17626662407644
  H   1.15170367640537     -1.40016843632777     -0.82834658784734
  H   -0.69643032684439      2.51115492228967     -0.29794661716797
  H   -2.97654663086772      1.48799813225192     -0.64628079246369
  N   -3.51229843478932     -1.06567968270233     -1.12575717849530
  O   -4.46642024554095     -0.29447790618329     -1.06160306451240
  O   -3.57668753781502     -2.27070721170769     -1.34148817095474
  N   1.55370210322013      1.11453166450667     -0.37004502413155
  N   2.65454439041772      1.30289828391683     -0.25060319008125
  Cl  3.15213071075350     -2.06891587427656     -0.76120594227062
