16
Coordinates from ORCA-job p-NO2-Ph-N2-Cl-B3LYPG-6-31G_dp-scan-d09-49-n400
  C   -1.09057878519529     -1.33520780018979     -0.99039762760255
  C   0.18747241552177     -0.81334649909084     -0.80469563391474
  C   0.28410792911221      0.56221352945118     -0.56051248454086
  C   -0.81429043232885      1.42835102072289     -0.49444505307840
  C   -2.08001361972393      0.89008048832183     -0.68157704543768
  C   -2.18880367070365     -0.48015098948767     -0.92550060286185
  H   -1.24202016112325     -2.38997440172664     -1.18412594292733
  H   1.09841916520274     -1.41991795063176     -0.83897509948370
  H   -0.67027513814214      2.48525766529625     -0.30045065445270
  H   -2.97330646530703      1.49958147312275     -0.64293043992874
  N   -3.54420247012615     -1.04906317284910     -1.12460040073034
  O   -4.49195236602802     -0.27126436167144     -1.05887910142395
  O   -3.62007619097457     -2.25378310867084     -1.34050451183183
  N   1.56614636221515      1.11542270221703     -0.36881613227987
  N   2.69679523257839      0.98346224075075     -0.30012770174592
  Cl  3.36377819502261     -1.69376083556458     -0.67726156775951
