16
Coordinates from ORCA-job p-NO2-Ph-N2-Cl-B3LYPG-6-31G_dp-scan-d09-49-n400
  C   -0.91693760390365     -1.42112521835519     -0.67786209687657
  C   0.45725436512169     -0.88866990059650     -0.66986100466140
  C   0.47359694709260      0.57292878281741     -0.45351184355270
  C   -0.64315120416280      1.40576031953615     -0.83327659888642
  C   -1.84026555823531      0.82524642113659     -1.09959717413152
  C   -1.95991482618472     -0.59908969601469     -0.93350177100652
  H   -1.07293551329547     -2.48519497157998     -0.55569506651321
  H   1.14794084234725     -1.43806959021613     -0.03654197143475
  H   -0.51252584084175      2.48202574736918     -0.87231311189743
  H   -2.71079974142400      1.39940744376033     -1.38412435071505
  N   -3.31102392842263     -1.19128623719820     -1.02338924491788
  O   -4.23570273205134     -0.42871709986495     -1.29927871334060
  O   -3.42774303870097     -2.39656495512558     -0.81738735314292
  N   1.50775439639626      1.15041227458597      0.13808626604956
  N   2.34768432458596      1.69786339878415      0.68033752046712
  Cl  1.17796911167888     -1.42702671903853     -2.45588348543971
