Coordinates from ORCA-job Ph-N2-OTf-B3LYPG-aug-cc-pVDZ-scan-d29-49-n200
 OpenBabel01151817073D

 21 19  0  0  0  0  0  0  0  0999 V2000
   -1.7152   -1.0241   -5.7995 C   0  0  0  0  0  0  0  0  0  0  0  0
   -0.9022    0.1358   -5.8427 C   0  0  0  0  0  0  0  0  0  0  0  0
   -1.3257    1.1154   -5.1654 C   0  0  0  0  0  0  0  0  0  0  0  0
   -2.3831    1.4279   -4.3600 C   0  0  0  0  0  0  0  0  0  0  0  0
   -3.2011    0.2679   -4.3120 C   0  0  0  0  0  0  0  0  0  0  0  0
   -2.8742   -0.9109   -5.0082 C   0  0  0  0  0  0  0  0  0  0  0  0
   -1.4764   -1.9430   -6.3341 H   0  0  0  0  0  0  0  0  0  0  0  0
    0.6626    0.1385   -6.8789 H   0  0  0  0  0  0  0  0  0  0  0  0
   -2.6022    2.3543   -3.8384 H   0  0  0  0  0  0  0  0  0  0  0  0
   -4.1109    0.3095   -3.7106 H   0  0  0  0  0  0  0  0  0  0  0  0
    0.0378    4.1443   -4.9003 N   0  0  0  0  0  0  0  0  0  0  0  0
    0.7310    5.0003   -4.9704 N   0  0  0  0  0  0  0  0  0  0  0  0
    2.7341    0.8202   -7.0952 S   0  0  0  0  0  0  0  0  0  0  0  0
    3.5939   -0.4915   -6.0243 C   0  0  0  0  0  0  0  0  0  0  0  0
    3.5602    0.9958   -8.2965 O   0  0  0  0  0  0  0  0  0  0  0  0
    2.3765    1.9313   -6.1921 O   0  0  0  0  0  0  0  0  0  0  0  0
    1.4099   -0.0148   -7.5323 O   0  0  0  0  0  0  0  0  0  0  0  0
    3.8732   -1.5719   -6.7575 F   0  0  0  0  0  0  0  0  0  0  0  0
    4.7266    0.0275   -5.5404 F   0  0  0  0  0  0  0  0  0  0  0  0
    2.7920   -0.8378   -5.0077 F   0  0  0  0  0  0  0  0  0  0  0  0
   -3.5452   -1.7679   -4.9310 H   0  0  0  0  0  0  0  0  0  0  0  0
  1  6  1  0  0  0  0
  2  1  2  0  0  0  0
  2  3  1  0  0  0  0
  3  4  2  0  0  0  0
  4  5  1  0  0  0  0
  4  9  1  0  0  0  0
  5 10  1  0  0  0  0
  6 21  1  0  0  0  0
  6  5  2  0  0  0  0
  7  1  1  0  0  0  0
 12 11  3  0  0  0  0
 13 16  2  0  0  0  0
 13 14  1  0  0  0  0
 14 19  1  0  0  0  0
 14 20  1  0  0  0  0
 15 13  2  0  0  0  0
 17 13  1  0  0  0  0
 17  8  1  0  0  0  0
 18 14  1  0  0  0  0
M  RAD  2   2   2   3   2
M  END
