Coordinates from ORCA-job Ph-N2-OTf-B3LYPG-aug-cc-pVDZ-scan-d09-29-n200
 OpenBabel01151817073D

 21 20  0  0  0  0  0  0  0  0999 V2000
   -1.6575   -0.9274   -5.6162 C   0  0  0  0  0  0  0  0  0  0  0  0
   -0.8261    0.1537   -5.9816 C   0  0  0  0  0  0  0  0  0  0  0  0
   -1.2038    1.2878   -5.3441 C   0  0  0  0  0  0  0  0  0  0  0  0
   -2.1822    1.6021   -4.4387 C   0  0  0  0  0  0  0  0  0  0  0  0
   -2.9665    0.4803   -4.1145 C   0  0  0  0  0  0  0  0  0  0  0  0
   -2.7025   -0.7639   -4.7005 C   0  0  0  0  0  0  0  0  0  0  0  0
   -1.4518   -1.9000   -6.0625 H   0  0  0  0  0  0  0  0  0  0  0  0
    0.0339    0.0724   -6.6762 H   0  0  0  0  0  0  0  0  0  0  0  0
   -2.3440    2.5867   -4.0109 H   0  0  0  0  0  0  0  0  0  0  0  0
   -3.7786    0.6030   -3.3986 H   0  0  0  0  0  0  0  0  0  0  0  0
   -0.2201    2.7940   -5.7956 N   0  0  0  0  0  0  0  0  0  0  0  0
    0.0553    3.8384   -6.0229 N   0  0  0  0  0  0  0  0  0  0  0  0
    2.5353    0.9525   -6.8577 S   0  0  0  0  0  0  0  0  0  0  0  0
    3.6719   -0.3993   -6.1676 C   0  0  0  0  0  0  0  0  0  0  0  0
    3.4318    1.8722   -7.6021 O   0  0  0  0  0  0  0  0  0  0  0  0
    1.8988    1.5179   -5.6010 O   0  0  0  0  0  0  0  0  0  0  0  0
    1.5397    0.1724   -7.6919 O   0  0  0  0  0  0  0  0  0  0  0  0
    4.3051   -1.0375   -7.1652 F   0  0  0  0  0  0  0  0  0  0  0  0
    4.5916    0.1294   -5.3434 F   0  0  0  0  0  0  0  0  0  0  0  0
    2.9517   -1.3072   -5.4729 F   0  0  0  0  0  0  0  0  0  0  0  0
   -3.3203   -1.6207   -4.4330 H   0  0  0  0  0  0  0  0  0  0  0  0
  1  6  1  0  0  0  0
  2  1  2  0  0  0  0
  2  3  1  0  0  0  0
  3  4  2  0  0  0  0
  4  5  1  0  0  0  0
  4  9  1  0  0  0  0
  5 10  1  0  0  0  0
  6 21  1  0  0  0  0
  6  5  2  0  0  0  0
  7  1  1  0  0  0  0
  8  2  1  0  0  0  0
 11  3  1  0  0  0  0
 12 11  1  0  0  0  0
 13 14  1  0  0  0  0
 13 16  1  0  0  0  0
 14 20  1  0  0  0  0
 14 19  1  0  0  0  0
 15 13  2  0  0  0  0
 17 13  2  0  0  0  0
 18 14  1  0  0  0  0
M  RAD  3  11   2  12   3  16   2
M  END
