Coordinates from ORCA-job Ph-N2-OTf-B3LYPG-aug-cc-pVDZ-scan-d09-29-n200
 OpenBabel01151817073D

 21 19  0  0  0  0  0  0  0  0999 V2000
   -1.5298   -0.9154   -5.6314 C   0  0  0  0  0  0  0  0  0  0  0  0
   -0.7780    0.2407   -5.9990 C   0  0  0  0  0  0  0  0  0  0  0  0
   -1.2728    1.2684   -5.3259 C   0  0  0  0  0  0  0  0  0  0  0  0
   -2.2341    1.5661   -4.4193 C   0  0  0  0  0  0  0  0  0  0  0  0
   -2.9305    0.3739   -4.1062 C   0  0  0  0  0  0  0  0  0  0  0  0
   -2.5775   -0.8403   -4.7088 C   0  0  0  0  0  0  0  0  0  0  0  0
   -1.2400   -1.8611   -6.0906 H   0  0  0  0  0  0  0  0  0  0  0  0
    0.1224    0.2112   -6.7050 H   0  0  0  0  0  0  0  0  0  0  0  0
   -2.4589    2.5355   -3.9872 H   0  0  0  0  0  0  0  0  0  0  0  0
   -3.7456    0.4353   -3.3849 H   0  0  0  0  0  0  0  0  0  0  0  0
   -0.2964    3.1633   -5.8557 N   0  0  0  0  0  0  0  0  0  0  0  0
    0.0633    4.1719   -6.1183 N   0  0  0  0  0  0  0  0  0  0  0  0
    2.5508    0.9625   -6.8367 S   0  0  0  0  0  0  0  0  0  0  0  0
    3.5336   -0.4945   -6.1266 C   0  0  0  0  0  0  0  0  0  0  0  0
    3.5142    1.7036   -7.6850 O   0  0  0  0  0  0  0  0  0  0  0  0
    2.0151    1.6564   -5.6163 O   0  0  0  0  0  0  0  0  0  0  0  0
    1.4395    0.2496   -7.6167 O   0  0  0  0  0  0  0  0  0  0  0  0
    4.0493   -1.2479   -7.1108 F   0  0  0  0  0  0  0  0  0  0  0  0
    4.5365   -0.0520   -5.3515 F   0  0  0  0  0  0  0  0  0  0  0  0
    2.7274   -1.2761   -5.3727 F   0  0  0  0  0  0  0  0  0  0  0  0
   -3.1269   -1.7444   -4.4485 H   0  0  0  0  0  0  0  0  0  0  0  0
  1  6  1  0  0  0  0
  2  1  2  0  0  0  0
  2  3  1  0  0  0  0
  3  4  2  0  0  0  0
  4  5  1  0  0  0  0
  4  9  1  0  0  0  0
  5 10  1  0  0  0  0
  6 21  1  0  0  0  0
  6  5  2  0  0  0  0
  7  1  1  0  0  0  0
  8  2  1  0  0  0  0
 12 11  3  0  0  0  0
 13 14  1  0  0  0  0
 13 16  1  0  0  0  0
 14 20  1  0  0  0  0
 14 19  1  0  0  0  0
 15 13  2  0  0  0  0
 17 13  2  0  0  0  0
 18 14  1  0  0  0  0
M  RAD  2   3   2  16   2
M  END
