Coordinates from ORCA-job Ph-N2-OTf-B3LYPG-aug-cc-pVDZ-scan-d09-29-n200
 OpenBabel01151817073D

 21 19  0  0  0  0  0  0  0  0999 V2000
   -1.5108   -0.9175   -5.6405 C   0  0  0  0  0  0  0  0  0  0  0  0
   -0.7712    0.2504   -6.0042 C   0  0  0  0  0  0  0  0  0  0  0  0
   -1.2780    1.2592   -5.3212 C   0  0  0  0  0  0  0  0  0  0  0  0
   -2.2331    1.5539   -4.4108 C   0  0  0  0  0  0  0  0  0  0  0  0
   -2.9170    0.3512   -4.1021 C   0  0  0  0  0  0  0  0  0  0  0  0
   -2.5553   -0.8565   -4.7131 C   0  0  0  0  0  0  0  0  0  0  0  0
   -1.2124   -1.8575   -6.1063 H   0  0  0  0  0  0  0  0  0  0  0  0
    0.1361    0.2304   -6.7159 H   0  0  0  0  0  0  0  0  0  0  0  0
   -2.4649    2.5193   -3.9737 H   0  0  0  0  0  0  0  0  0  0  0  0
   -3.7300    0.4016   -3.3774 H   0  0  0  0  0  0  0  0  0  0  0  0
   -0.3081    3.2455   -5.8669 N   0  0  0  0  0  0  0  0  0  0  0  0
    0.0689    4.2463   -6.1356 N   0  0  0  0  0  0  0  0  0  0  0  0
    2.5531    0.9627   -6.8410 S   0  0  0  0  0  0  0  0  0  0  0  0
    3.5019   -0.5065   -6.1101 C   0  0  0  0  0  0  0  0  0  0  0  0
    3.5294    1.6629   -7.7083 O   0  0  0  0  0  0  0  0  0  0  0  0
    2.0336    1.6888   -5.6348 O   0  0  0  0  0  0  0  0  0  0  0  0
    1.4239    0.2590   -7.6102 O   0  0  0  0  0  0  0  0  0  0  0  0
    3.9989   -1.2863   -7.0831 F   0  0  0  0  0  0  0  0  0  0  0  0
    4.5149   -0.0759   -5.3420 F   0  0  0  0  0  0  0  0  0  0  0  0
    2.6773   -1.2573   -5.3447 F   0  0  0  0  0  0  0  0  0  0  0  0
   -3.0955   -1.7669   -4.4556 H   0  0  0  0  0  0  0  0  0  0  0  0
  1  6  1  0  0  0  0
  2  1  2  0  0  0  0
  2  3  1  0  0  0  0
  3  4  2  0  0  0  0
  4  5  1  0  0  0  0
  4  9  1  0  0  0  0
  5 10  1  0  0  0  0
  6 21  1  0  0  0  0
  6  5  2  0  0  0  0
  7  1  1  0  0  0  0
  8  2  1  0  0  0  0
 12 11  3  0  0  0  0
 13 14  1  0  0  0  0
 13 16  1  0  0  0  0
 14 20  1  0  0  0  0
 14 19  1  0  0  0  0
 15 13  2  0  0  0  0
 17 13  2  0  0  0  0
 18 14  1  0  0  0  0
M  RAD  2   3   2  16   2
M  END
