Coordinates from ORCA-job Ph-N2-OTf-B3LYPG-aug-cc-pVDZ-scan-d29-49-n200
 OpenBabel01151817073D

 21 19  0  0  0  0  0  0  0  0999 V2000
   -1.7631   -1.0864   -5.8269 C   0  0  0  0  0  0  0  0  0  0  0  0
   -0.9210    0.0505   -5.8796 C   0  0  0  0  0  0  0  0  0  0  0  0
   -1.3020    1.0441   -5.2000 C   0  0  0  0  0  0  0  0  0  0  0  0
   -2.3370    1.3859   -4.3771 C   0  0  0  0  0  0  0  0  0  0  0  0
   -3.1878    0.2500   -4.3175 C   0  0  0  0  0  0  0  0  0  0  0  0
   -2.9063   -0.9381   -5.0179 C   0  0  0  0  0  0  0  0  0  0  0  0
   -1.5585   -2.0121   -6.3639 H   0  0  0  0  0  0  0  0  0  0  0  0
    0.6589    0.0596   -6.9147 H   0  0  0  0  0  0  0  0  0  0  0  0
   -2.5227    2.3177   -3.8520 H   0  0  0  0  0  0  0  0  0  0  0  0
   -4.0871    0.3182   -3.7029 H   0  0  0  0  0  0  0  0  0  0  0  0
    0.1091    4.3762   -4.7721 N   0  0  0  0  0  0  0  0  0  0  0  0
    0.8333    5.2032   -4.8731 N   0  0  0  0  0  0  0  0  0  0  0  0
    2.7114    0.7953   -7.1321 S   0  0  0  0  0  0  0  0  0  0  0  0
    3.5845   -0.4519   -5.9966 C   0  0  0  0  0  0  0  0  0  0  0  0
    3.5513    0.9434   -8.3274 O   0  0  0  0  0  0  0  0  0  0  0  0
    2.3135    1.9324   -6.2795 O   0  0  0  0  0  0  0  0  0  0  0  0
    1.4149   -0.0894   -7.5570 O   0  0  0  0  0  0  0  0  0  0  0  0
    3.9034   -1.5522   -6.6822 F   0  0  0  0  0  0  0  0  0  0  0  0
    4.6950    0.1141   -5.5143 F   0  0  0  0  0  0  0  0  0  0  0  0
    2.7730   -0.7787   -4.9810 F   0  0  0  0  0  0  0  0  0  0  0  0
   -3.6010   -1.7750   -4.9296 H   0  0  0  0  0  0  0  0  0  0  0  0
  1  6  1  0  0  0  0
  2  1  2  0  0  0  0
  2  3  1  0  0  0  0
  3  4  2  0  0  0  0
  4  5  1  0  0  0  0
  4  9  1  0  0  0  0
  5 10  1  0  0  0  0
  6 21  1  0  0  0  0
  6  5  2  0  0  0  0
  7  1  1  0  0  0  0
 12 11  3  0  0  0  0
 13 16  2  0  0  0  0
 13 14  1  0  0  0  0
 14 19  1  0  0  0  0
 14 20  1  0  0  0  0
 15 13  2  0  0  0  0
 17 13  1  0  0  0  0
 17  8  1  0  0  0  0
 18 14  1  0  0  0  0
M  RAD  2   2   2   3   2
M  END
