Coordinates from ORCA-job Ph-N2-OTf-B3LYPG-aug-cc-pVDZ-scan-d09-29-n200
 OpenBabel01151817073D

 21 20  0  0  0  0  0  0  0  0999 V2000
   -1.0882   -0.7439   -5.6758 C   0  0  0  0  0  0  0  0  0  0  0  0
   -0.6599    0.4530   -6.2325 C   0  0  0  0  0  0  0  0  0  0  0  0
   -1.2297    1.7467   -5.7674 C   0  0  0  0  0  0  0  0  0  0  0  0
   -2.1963    1.6276   -4.6323 C   0  0  0  0  0  0  0  0  0  0  0  0
   -2.5648    0.4217   -4.1156 C   0  0  0  0  0  0  0  0  0  0  0  0
   -2.0207   -0.7760   -4.6445 C   0  0  0  0  0  0  0  0  0  0  0  0
   -0.6499   -1.6663   -6.0527 H   0  0  0  0  0  0  0  0  0  0  0  0
    0.0649    0.5002   -7.0621 H   0  0  0  0  0  0  0  0  0  0  0  0
   -2.5775    2.5798   -4.2605 H   0  0  0  0  0  0  0  0  0  0  0  0
   -3.2788    0.3867   -3.2932 H   0  0  0  0  0  0  0  0  0  0  0  0
   -1.0019    2.5509   -6.1010 N   0  0  0  0  0  0  0  0  0  0  0  0
   -0.7113    3.5954   -6.5180 N   0  0  0  0  0  0  0  0  0  0  0  0
    2.5000    1.0363   -6.5531 S   0  0  0  0  0  0  0  0  0  0  0  0
    3.1650   -0.6447   -5.9692 C   0  0  0  0  0  0  0  0  0  0  0  0
    3.7054    1.8824   -6.7084 O   0  0  0  0  0  0  0  0  0  0  0  0
    1.5629    1.4232   -5.4159 O   0  0  0  0  0  0  0  0  0  0  0  0
    1.7286    0.6806   -7.8024 O   0  0  0  0  0  0  0  0  0  0  0  0
    3.7732   -1.2941   -6.9739 F   0  0  0  0  0  0  0  0  0  0  0  0
    4.0373   -0.4996   -4.9613 F   0  0  0  0  0  0  0  0  0  0  0  0
    2.1391   -1.4212   -5.5325 F   0  0  0  0  0  0  0  0  0  0  0  0
   -2.3357   -1.7320   -4.2252 H   0  0  0  0  0  0  0  0  0  0  0  0
  1  6  2  0  0  0  0
  2  3  2  0  0  0  0
  2  1  1  0  0  0  0
  3  4  1  0  0  0  0
  4  9  1  0  0  0  0
  4  5  2  0  0  0  0
  5 10  1  0  0  0  0
  6 21  1  0  0  0  0
  6  5  1  0  0  0  0
  7  1  1  0  0  0  0
  8  2  1  0  0  0  0
 11  3  1  0  0  0  0
 12 11  1  0  0  0  0
 13 14  1  0  0  0  0
 13 16  1  0  0  0  0
 14 20  1  0  0  0  0
 14 19  1  0  0  0  0
 15 13  2  0  0  0  0
 17 13  2  0  0  0  0
 18 14  1  0  0  0  0
M  RAD  3  11   2  12   3  16   2
M  END
