Coordinates from ORCA-job Ph-N2-OTf-B3LYPG-aug-cc-pVDZ-scan-d09-29-n200
 OpenBabel01151817073D

 21 19  0  0  0  0  0  0  0  0999 V2000
   -1.5514   -0.9174   -5.6224 C   0  0  0  0  0  0  0  0  0  0  0  0
   -0.7847    0.2266   -5.9889 C   0  0  0  0  0  0  0  0  0  0  0  0
   -1.2689    1.2705   -5.3255 C   0  0  0  0  0  0  0  0  0  0  0  0
   -2.2368    1.5750   -4.4260 C   0  0  0  0  0  0  0  0  0  0  0  0
   -2.9486    0.3932   -4.1127 C   0  0  0  0  0  0  0  0  0  0  0  0
   -2.6048   -0.8272   -4.7076 C   0  0  0  0  0  0  0  0  0  0  0  0
   -1.2709   -1.8686   -6.0759 H   0  0  0  0  0  0  0  0  0  0  0  0
    0.1121    0.1881   -6.6885 H   0  0  0  0  0  0  0  0  0  0  0  0
   -2.4544    2.5481   -3.9984 H   0  0  0  0  0  0  0  0  0  0  0  0
   -3.7679    0.4660   -3.3973 H   0  0  0  0  0  0  0  0  0  0  0  0
   -0.2788    3.1039   -5.8400 N   0  0  0  0  0  0  0  0  0  0  0  0
    0.0678    4.1194   -6.0931 N   0  0  0  0  0  0  0  0  0  0  0  0
    2.5492    0.9590   -6.8372 S   0  0  0  0  0  0  0  0  0  0  0  0
    3.5686   -0.4800   -6.1421 C   0  0  0  0  0  0  0  0  0  0  0  0
    3.4943    1.7332   -7.6774 O   0  0  0  0  0  0  0  0  0  0  0  0
    2.0044    1.6305   -5.6061 O   0  0  0  0  0  0  0  0  0  0  0  0
    1.4518    0.2309   -7.6172 O   0  0  0  0  0  0  0  0  0  0  0  0
    4.0972   -1.2136   -7.1346 F   0  0  0  0  0  0  0  0  0  0  0  0
    4.5650   -0.0206   -5.3681 F   0  0  0  0  0  0  0  0  0  0  0  0
    2.7848   -1.2861   -5.3907 F   0  0  0  0  0  0  0  0  0  0  0  0
   -3.1661   -1.7240   -4.4475 H   0  0  0  0  0  0  0  0  0  0  0  0
  1  6  1  0  0  0  0
  2  1  2  0  0  0  0
  2  3  1  0  0  0  0
  3  4  2  0  0  0  0
  4  5  1  0  0  0  0
  4  9  1  0  0  0  0
  5 10  1  0  0  0  0
  6 21  1  0  0  0  0
  6  5  2  0  0  0  0
  7  1  1  0  0  0  0
  8  2  1  0  0  0  0
 12 11  3  0  0  0  0
 13 14  1  0  0  0  0
 13 16  1  0  0  0  0
 14 20  1  0  0  0  0
 14 19  1  0  0  0  0
 15 13  2  0  0  0  0
 17 13  2  0  0  0  0
 18 14  1  0  0  0  0
M  RAD  2   3   2  16   2
M  END
