Coordinates from ORCA-job Ph-N2-OTf-B3LYPG-aug-cc-pVDZ-scan-d29-49-n200
 OpenBabel01151817073D

 21 19  0  0  0  0  0  0  0  0999 V2000
   -2.0099   -1.3280   -5.9014 C   0  0  0  0  0  0  0  0  0  0  0  0
   -0.9428   -0.4071   -6.0172 C   0  0  0  0  0  0  0  0  0  0  0  0
   -1.0618    0.6614   -5.3549 C   0  0  0  0  0  0  0  0  0  0  0  0
   -1.9628    1.2464   -4.5108 C   0  0  0  0  0  0  0  0  0  0  0  0
   -3.0402    0.3292   -4.3879 C   0  0  0  0  0  0  0  0  0  0  0  0
   -3.0582   -0.9085   -5.0592 C   0  0  0  0  0  0  0  0  0  0  0  0
   -2.0388   -2.2877   -6.4163 H   0  0  0  0  0  0  0  0  0  0  0  0
    0.6794   -0.4093   -7.0391 H   0  0  0  0  0  0  0  0  0  0  0  0
   -1.9162    2.2088   -4.0102 H   0  0  0  0  0  0  0  0  0  0  0  0
   -3.8769    0.6095   -3.7455 H   0  0  0  0  0  0  0  0  0  0  0  0
    0.1650    4.9293   -4.3264 N   0  0  0  0  0  0  0  0  0  0  0  0
    0.9498    5.6771   -4.5357 N   0  0  0  0  0  0  0  0  0  0  0  0
    2.5428    0.7147   -7.1687 S   0  0  0  0  0  0  0  0  0  0  0  0
    3.5895   -0.2543   -5.9148 C   0  0  0  0  0  0  0  0  0  0  0  0
    3.4102    0.9963   -8.3189 O   0  0  0  0  0  0  0  0  0  0  0  0
    1.8450    1.7708   -6.4075 O   0  0  0  0  0  0  0  0  0  0  0  0
    1.5014   -0.4527   -7.6106 O   0  0  0  0  0  0  0  0  0  0  0  0
    4.1829   -1.2882   -6.5147 F   0  0  0  0  0  0  0  0  0  0  0  0
    4.5170    0.5661   -5.4111 F   0  0  0  0  0  0  0  0  0  0  0  0
    2.8048   -0.7014   -4.9251 F   0  0  0  0  0  0  0  0  0  0  0  0
   -3.9185   -1.5654   -4.9212 H   0  0  0  0  0  0  0  0  0  0  0  0
  1  6  1  0  0  0  0
  2  1  2  0  0  0  0
  2  3  1  0  0  0  0
  3  4  2  0  0  0  0
  4  5  1  0  0  0  0
  4  9  1  0  0  0  0
  5 10  1  0  0  0  0
  6 21  1  0  0  0  0
  6  5  2  0  0  0  0
  7  1  1  0  0  0  0
 12 11  3  0  0  0  0
 13 16  2  0  0  0  0
 13 14  1  0  0  0  0
 14 19  1  0  0  0  0
 14 20  1  0  0  0  0
 15 13  2  0  0  0  0
 17 13  1  0  0  0  0
 17  8  1  0  0  0  0
 18 14  1  0  0  0  0
M  RAD  2   2   2   3   2
M  END
