Coordinates from ORCA-job Ph-N2-OTf-B3LYPG-aug-cc-pVDZ-scan-d29-49-n200
 OpenBabel01151817073D

 21 19  0  0  0  0  0  0  0  0999 V2000
   -1.7482   -1.0653   -5.8222 C   0  0  0  0  0  0  0  0  0  0  0  0
   -0.9167    0.0804   -5.8705 C   0  0  0  0  0  0  0  0  0  0  0  0
   -1.3125    1.0672   -5.1879 C   0  0  0  0  0  0  0  0  0  0  0  0
   -2.3546    1.3966   -4.3689 C   0  0  0  0  0  0  0  0  0  0  0  0
   -3.1925    0.2509   -4.3141 C   0  0  0  0  0  0  0  0  0  0  0  0
   -2.8955   -0.9321   -5.0166 C   0  0  0  0  0  0  0  0  0  0  0  0
   -1.5322   -1.9872   -6.3611 H   0  0  0  0  0  0  0  0  0  0  0  0
    0.6572    0.0834   -6.9047 H   0  0  0  0  0  0  0  0  0  0  0  0
   -2.5511    2.3254   -3.8427 H   0  0  0  0  0  0  0  0  0  0  0  0
   -4.0946    0.3075   -3.7022 H   0  0  0  0  0  0  0  0  0  0  0  0
    0.1040    4.3045   -4.8147 N   0  0  0  0  0  0  0  0  0  0  0  0
    0.8211    5.1386   -4.9066 N   0  0  0  0  0  0  0  0  0  0  0  0
    2.7150    0.8028   -7.1226 S   0  0  0  0  0  0  0  0  0  0  0  0
    3.5844   -0.4595   -6.0011 C   0  0  0  0  0  0  0  0  0  0  0  0
    3.5519    0.9556   -8.3194 O   0  0  0  0  0  0  0  0  0  0  0  0
    2.3272    1.9348   -6.2588 O   0  0  0  0  0  0  0  0  0  0  0  0
    1.4110   -0.0693   -7.5496 O   0  0  0  0  0  0  0  0  0  0  0  0
    3.8927   -1.5564   -6.6971 F   0  0  0  0  0  0  0  0  0  0  0  0
    4.7009    0.0950   -5.5192 F   0  0  0  0  0  0  0  0  0  0  0  0
    2.7753   -0.7892   -4.9845 F   0  0  0  0  0  0  0  0  0  0  0  0
   -3.5812   -1.7769   -4.9329 H   0  0  0  0  0  0  0  0  0  0  0  0
  1  6  1  0  0  0  0
  2  1  2  0  0  0  0
  2  3  1  0  0  0  0
  3  4  2  0  0  0  0
  4  5  1  0  0  0  0
  4  9  1  0  0  0  0
  5 10  1  0  0  0  0
  6 21  1  0  0  0  0
  6  5  2  0  0  0  0
  7  1  1  0  0  0  0
 12 11  3  0  0  0  0
 13 16  2  0  0  0  0
 13 14  1  0  0  0  0
 14 19  1  0  0  0  0
 14 20  1  0  0  0  0
 15 13  2  0  0  0  0
 17 13  1  0  0  0  0
 17  8  1  0  0  0  0
 18 14  1  0  0  0  0
M  RAD  2   2   2   3   2
M  END
