Coordinates from ORCA-job Ph-N2-OTf-B3LYPG-aug-cc-pVDZ-scan-d09-29-n200
 OpenBabel01151817073D

 21 19  0  0  0  0  0  0  0  0999 V2000
   -1.5702   -0.9183   -5.6158 C   0  0  0  0  0  0  0  0  0  0  0  0
   -0.7899    0.2149   -5.9805 C   0  0  0  0  0  0  0  0  0  0  0  0
   -1.2631    1.2733   -5.3250 C   0  0  0  0  0  0  0  0  0  0  0  0
   -2.2371    1.5831   -4.4313 C   0  0  0  0  0  0  0  0  0  0  0  0
   -2.9629    0.4110   -4.1185 C   0  0  0  0  0  0  0  0  0  0  0  0
   -2.6282   -0.8147   -4.7076 C   0  0  0  0  0  0  0  0  0  0  0  0
   -1.2987   -1.8741   -6.0651 H   0  0  0  0  0  0  0  0  0  0  0  0
    0.1042    0.1674   -6.6749 H   0  0  0  0  0  0  0  0  0  0  0  0
   -2.4479    2.5591   -4.0069 H   0  0  0  0  0  0  0  0  0  0  0  0
   -3.7855    0.4936   -3.4081 H   0  0  0  0  0  0  0  0  0  0  0  0
   -0.2668    3.0489   -5.8226 N   0  0  0  0  0  0  0  0  0  0  0  0
    0.0698    4.0699   -6.0674 N   0  0  0  0  0  0  0  0  0  0  0  0
    2.5470    0.9544   -6.8397 S   0  0  0  0  0  0  0  0  0  0  0  0
    3.5984   -0.4662   -6.1543 C   0  0  0  0  0  0  0  0  0  0  0  0
    3.4755    1.7566   -7.6728 O   0  0  0  0  0  0  0  0  0  0  0  0
    1.9927    1.6069   -5.6006 O   0  0  0  0  0  0  0  0  0  0  0  0
    1.4631    0.2117   -7.6201 O   0  0  0  0  0  0  0  0  0  0  0  0
    4.1400   -1.1830   -7.1522 F   0  0  0  0  0  0  0  0  0  0  0  0
    4.5873    0.0100   -5.3804 F   0  0  0  0  0  0  0  0  0  0  0  0
    2.8344   -1.2929   -5.4052 F   0  0  0  0  0  0  0  0  0  0  0  0
   -3.2003   -1.7048   -4.4482 H   0  0  0  0  0  0  0  0  0  0  0  0
  1  6  1  0  0  0  0
  2  1  2  0  0  0  0
  2  3  1  0  0  0  0
  3  4  2  0  0  0  0
  4  5  1  0  0  0  0
  4  9  1  0  0  0  0
  5 10  1  0  0  0  0
  6 21  1  0  0  0  0
  6  5  2  0  0  0  0
  7  1  1  0  0  0  0
  8  2  1  0  0  0  0
 12 11  3  0  0  0  0
 13 14  1  0  0  0  0
 13 16  1  0  0  0  0
 14 20  1  0  0  0  0
 14 19  1  0  0  0  0
 15 13  2  0  0  0  0
 17 13  2  0  0  0  0
 18 14  1  0  0  0  0
M  RAD  2   3   2  16   2
M  END
