Coordinates from ORCA-job Ph-N2-OTf-B3LYPG-aug-cc-pVDZ-scan-d09-29-n200
 OpenBabel01151817073D

 21 21  0  0  1  0  0  0  0  0999 V2000
   -0.8765   -0.7368   -5.4009 C   0  0  0  0  0  0  0  0  0  0  0  0
   -0.3432    0.4853   -6.0555 C   0  0  1  0  0  0  0  0  0  0  0  0
   -1.2059    1.7049   -5.8188 C   0  0  0  0  0  0  0  0  0  0  0  0
   -2.1213    1.7277   -4.6791 C   0  0  0  0  0  0  0  0  0  0  0  0
   -2.3927    0.5875   -3.9997 C   0  0  0  0  0  0  0  0  0  0  0  0
   -1.8024   -0.6691   -4.4175 C   0  0  0  0  0  0  0  0  0  0  0  0
   -0.4558   -1.6898   -5.7176 H   0  0  0  0  0  0  0  0  0  0  0  0
   -0.1207    0.3571   -7.1181 H   0  0  0  0  0  0  0  0  0  0  0  0
   -2.5793    2.6816   -4.4182 H   0  0  0  0  0  0  0  0  0  0  0  0
   -3.0815    0.6045   -3.1565 H   0  0  0  0  0  0  0  0  0  0  0  0
   -1.0949    2.6116   -6.5196 N   0  0  0  0  0  0  0  0  0  0  0  0
   -0.9793    3.5144   -7.2207 N   0  0  0  0  0  0  0  0  0  0  0  0
    2.3555    0.9806   -6.3303 S   0  0  0  0  0  0  0  0  0  0  0  0
    3.0991   -0.7661   -6.2494 C   0  0  0  0  0  0  0  0  0  0  0  0
    3.2791    1.8655   -5.6071 O   0  0  0  0  0  0  0  0  0  0  0  0
    1.0332    0.7631   -5.3968 O   0  0  0  0  0  0  0  0  0  0  0  0
    1.9700    1.2028   -7.7403 O   0  0  0  0  0  0  0  0  0  0  0  0
    4.2111   -0.7936   -6.9877 F   0  0  0  0  0  0  0  0  0  0  0  0
    3.3881   -1.0872   -4.9876 F   0  0  0  0  0  0  0  0  0  0  0  0
    2.2158   -1.6499   -6.7429 F   0  0  0  0  0  0  0  0  0  0  0  0
   -2.1367   -1.5874   -3.9329 H   0  0  0  0  0  0  0  0  0  0  0  0
  1  6  2  0  0  0  0
  2  8  1  6  0  0  0
  2  3  1  0  0  0  0
  2  1  1  0  0  0  0
  2 16  1  0  0  0  0
  3  4  2  0  0  0  0
  4  9  1  0  0  0  0
  4  5  1  0  0  0  0
  5 10  1  0  0  0  0
  6  5  1  0  0  0  0
  6 21  1  0  0  0  0
  7  1  1  0  0  0  0
 11  3  1  0  0  0  0
 12 11  1  0  0  0  0
 13 14  1  0  0  0  0
 13 15  2  0  0  0  0
 13 16  1  0  0  0  0
 14 19  1  0  0  0  0
 17 13  2  0  0  0  0
 18 14  1  0  0  0  0
 20 14  1  0  0  0  0
M  RAD  3   5   2  11   2  12   3
M  END
