Coordinates from ORCA-job Ph-N2-OTf-B3LYPG-aug-cc-pVDZ-scan-d09-29-n200
 OpenBabel01151817073D

 21 19  0  0  0  0  0  0  0  0999 V2000
   -1.6104   -0.9927   -5.7097 C   0  0  0  0  0  0  0  0  0  0  0  0
   -0.8858    0.2194   -5.8538 C   0  0  0  0  0  0  0  0  0  0  0  0
   -1.3317    1.1782   -5.1600 C   0  0  0  0  0  0  0  0  0  0  0  0
   -2.3280    1.4350   -4.2647 C   0  0  0  0  0  0  0  0  0  0  0  0
   -3.0516    0.2220   -4.1195 C   0  0  0  0  0  0  0  0  0  0  0  0
   -2.7003   -0.9470   -4.8204 C   0  0  0  0  0  0  0  0  0  0  0  0
   -1.3492   -1.9067   -6.2428 H   0  0  0  0  0  0  0  0  0  0  0  0
    0.6406    0.1936   -6.9074 H   0  0  0  0  0  0  0  0  0  0  0  0
   -2.5674    2.3582   -3.7468 H   0  0  0  0  0  0  0  0  0  0  0  0
   -3.9067    0.2149   -3.4414 H   0  0  0  0  0  0  0  0  0  0  0  0
   -0.3587    3.8822   -5.3484 N   0  0  0  0  0  0  0  0  0  0  0  0
    0.2782    4.6906   -5.7473 N   0  0  0  0  0  0  0  0  0  0  0  0
    2.7224    0.8408   -7.1677 S   0  0  0  0  0  0  0  0  0  0  0  0
    3.5467   -0.3779   -5.9669 C   0  0  0  0  0  0  0  0  0  0  0  0
    3.5687    0.8930   -8.3669 O   0  0  0  0  0  0  0  0  0  0  0  0
    2.3729    2.0368   -6.3764 O   0  0  0  0  0  0  0  0  0  0  0  0
    1.3918   -0.0088   -7.5473 O   0  0  0  0  0  0  0  0  0  0  0  0
    3.8186   -1.5261   -6.5921 F   0  0  0  0  0  0  0  0  0  0  0  0
    4.6809    0.1668   -5.5160 F   0  0  0  0  0  0  0  0  0  0  0  0
    2.7256   -0.6166   -4.9344 F   0  0  0  0  0  0  0  0  0  0  0  0
   -3.2950   -1.8489   -4.6673 H   0  0  0  0  0  0  0  0  0  0  0  0
  1  6  1  0  0  0  0
  2  1  2  0  0  0  0
  2  3  1  0  0  0  0
  3  4  2  0  0  0  0
  4  5  1  0  0  0  0
  4  9  1  0  0  0  0
  5 10  1  0  0  0  0
  6 21  1  0  0  0  0
  6  5  2  0  0  0  0
  7  1  1  0  0  0  0
 12 11  3  0  0  0  0
 13 16  2  0  0  0  0
 13 14  1  0  0  0  0
 14 19  1  0  0  0  0
 14 20  1  0  0  0  0
 15 13  2  0  0  0  0
 17 13  1  0  0  0  0
 17  8  1  0  0  0  0
 18 14  1  0  0  0  0
M  RAD  2   2   2   3   2
M  END
