Coordinates from ORCA-job Ph-N2-OTf-B3LYPG-aug-cc-pVDZ-scan-d29-49-n200
 OpenBabel01151817073D

 21 19  0  0  0  0  0  0  0  0999 V2000
   -1.9964   -1.3081   -5.9003 C   0  0  0  0  0  0  0  0  0  0  0  0
   -0.9448   -0.3670   -5.9992 C   0  0  0  0  0  0  0  0  0  0  0  0
   -1.0911    0.6922   -5.3270 C   0  0  0  0  0  0  0  0  0  0  0  0
   -2.0084    1.2520   -4.4840 C   0  0  0  0  0  0  0  0  0  0  0  0
   -3.0695    0.3137   -4.3785 C   0  0  0  0  0  0  0  0  0  0  0  0
   -3.0590   -0.9170   -5.0624 C   0  0  0  0  0  0  0  0  0  0  0  0
   -2.0034   -2.2631   -6.4247 H   0  0  0  0  0  0  0  0  0  0  0  0
    0.6729   -0.3628   -7.0201 H   0  0  0  0  0  0  0  0  0  0  0  0
   -1.9828    2.2101   -3.9739 H   0  0  0  0  0  0  0  0  0  0  0  0
   -3.9161    0.5717   -3.7397 H   0  0  0  0  0  0  0  0  0  0  0  0
    0.2267    4.8169   -4.4028 N   0  0  0  0  0  0  0  0  0  0  0  0
    1.0147    5.5633   -4.6047 N   0  0  0  0  0  0  0  0  0  0  0  0
    2.5506    0.7374   -7.1641 S   0  0  0  0  0  0  0  0  0  0  0  0
    3.5915   -0.2411   -5.9128 C   0  0  0  0  0  0  0  0  0  0  0  0
    3.4150    1.0031   -8.3203 O   0  0  0  0  0  0  0  0  0  0  0  0
    1.8714    1.8053   -6.4028 O   0  0  0  0  0  0  0  0  0  0  0  0
    1.4915   -0.4177   -7.5959 O   0  0  0  0  0  0  0  0  0  0  0  0
    4.1675   -1.2851   -6.5122 F   0  0  0  0  0  0  0  0  0  0  0  0
    4.5328    0.5684   -5.4172 F   0  0  0  0  0  0  0  0  0  0  0  0
    2.8065   -0.6742   -4.9170 F   0  0  0  0  0  0  0  0  0  0  0  0
   -3.9077   -1.5914   -4.9376 H   0  0  0  0  0  0  0  0  0  0  0  0
  1  6  1  0  0  0  0
  2  1  2  0  0  0  0
  2  3  1  0  0  0  0
  3  4  2  0  0  0  0
  4  5  1  0  0  0  0
  4  9  1  0  0  0  0
  5 10  1  0  0  0  0
  6 21  1  0  0  0  0
  6  5  2  0  0  0  0
  7  1  1  0  0  0  0
 12 11  3  0  0  0  0
 13 16  2  0  0  0  0
 13 14  1  0  0  0  0
 14 19  1  0  0  0  0
 14 20  1  0  0  0  0
 15 13  2  0  0  0  0
 17 13  1  0  0  0  0
 17  8  1  0  0  0  0
 18 14  1  0  0  0  0
M  RAD  2   2   2   3   2
M  END
