Coordinates from ORCA-job Ph-N2-OTf-B3LYPG-aug-cc-pVDZ-scan-d29-49-n200
 OpenBabel01151817073D

 21 19  0  0  0  0  0  0  0  0999 V2000
   -1.9819   -1.2862   -5.9007 C   0  0  0  0  0  0  0  0  0  0  0  0
   -0.9447   -0.3280   -5.9882 C   0  0  0  0  0  0  0  0  0  0  0  0
   -1.1110    0.7225   -5.3080 C   0  0  0  0  0  0  0  0  0  0  0  0
   -2.0383    1.2622   -4.4626 C   0  0  0  0  0  0  0  0  0  0  0  0
   -3.0851    0.3063   -4.3690 C   0  0  0  0  0  0  0  0  0  0  0  0
   -3.0532   -0.9185   -5.0631 C   0  0  0  0  0  0  0  0  0  0  0  0
   -1.9721   -2.2369   -6.4328 H   0  0  0  0  0  0  0  0  0  0  0  0
    0.6670   -0.3241   -7.0091 H   0  0  0  0  0  0  0  0  0  0  0  0
   -2.0289    2.2165   -3.9449 H   0  0  0  0  0  0  0  0  0  0  0  0
   -3.9377    0.5456   -3.7309 H   0  0  0  0  0  0  0  0  0  0  0  0
    0.2525    4.7085   -4.4615 N   0  0  0  0  0  0  0  0  0  0  0  0
    1.0397    5.4578   -4.6557 N   0  0  0  0  0  0  0  0  0  0  0  0
    2.5591    0.7529   -7.1632 S   0  0  0  0  0  0  0  0  0  0  0  0
    3.5895   -0.2339   -5.9098 C   0  0  0  0  0  0  0  0  0  0  0  0
    3.4240    1.0011   -8.3230 O   0  0  0  0  0  0  0  0  0  0  0  0
    1.8968    1.8339   -6.4053 O   0  0  0  0  0  0  0  0  0  0  0  0
    1.4836   -0.3902   -7.5871 O   0  0  0  0  0  0  0  0  0  0  0  0
    4.1502   -1.2883   -6.5058 F   0  0  0  0  0  0  0  0  0  0  0  0
    4.5428    0.5650   -5.4199 F   0  0  0  0  0  0  0  0  0  0  0  0
    2.8011   -0.6521   -4.9103 F   0  0  0  0  0  0  0  0  0  0  0  0
   -3.8915   -1.6072   -4.9466 H   0  0  0  0  0  0  0  0  0  0  0  0
  1  6  1  0  0  0  0
  2  1  2  0  0  0  0
  2  3  1  0  0  0  0
  3  4  2  0  0  0  0
  4  5  1  0  0  0  0
  4  9  1  0  0  0  0
  5 10  1  0  0  0  0
  6 21  1  0  0  0  0
  6  5  2  0  0  0  0
  7  1  1  0  0  0  0
 12 11  3  0  0  0  0
 13 16  2  0  0  0  0
 13 14  1  0  0  0  0
 14 19  1  0  0  0  0
 14 20  1  0  0  0  0
 15 13  2  0  0  0  0
 17 13  1  0  0  0  0
 17  8  1  0  0  0  0
 18 14  1  0  0  0  0
M  RAD  2   2   2   3   2
M  END
