Coordinates from ORCA-job Ph-N2-OTf-B3LYPG-aug-cc-pVDZ-scan-d09-29-n200
 OpenBabel01151817073D

 21 19  0  0  0  0  0  0  0  0999 V2000
   -1.5110   -0.9156   -5.6400 C   0  0  0  0  0  0  0  0  0  0  0  0
   -0.7715    0.2521   -6.0040 C   0  0  0  0  0  0  0  0  0  0  0  0
   -1.2773    1.2623   -5.3215 C   0  0  0  0  0  0  0  0  0  0  0  0
   -2.2337    1.5544   -4.4103 C   0  0  0  0  0  0  0  0  0  0  0  0
   -2.9176    0.3524   -4.1018 C   0  0  0  0  0  0  0  0  0  0  0  0
   -2.5556   -0.8551   -4.7128 C   0  0  0  0  0  0  0  0  0  0  0  0
   -1.2126   -1.8555   -6.1058 H   0  0  0  0  0  0  0  0  0  0  0  0
    0.1350    0.2307   -6.7156 H   0  0  0  0  0  0  0  0  0  0  0  0
   -2.4654    2.5199   -3.9733 H   0  0  0  0  0  0  0  0  0  0  0  0
   -3.7307    0.4027   -3.3771 H   0  0  0  0  0  0  0  0  0  0  0  0
   -0.3085    3.2378   -5.8671 N   0  0  0  0  0  0  0  0  0  0  0  0
    0.0680    4.2384   -6.1369 N   0  0  0  0  0  0  0  0  0  0  0  0
    2.5529    0.9625   -6.8407 S   0  0  0  0  0  0  0  0  0  0  0  0
    3.5032   -0.5063   -6.1109 C   0  0  0  0  0  0  0  0  0  0  0  0
    3.5291    1.6654   -7.7059 O   0  0  0  0  0  0  0  0  0  0  0  0
    2.0317    1.6860   -5.6335 O   0  0  0  0  0  0  0  0  0  0  0  0
    1.4251    0.2590   -7.6115 O   0  0  0  0  0  0  0  0  0  0  0  0
    4.0019   -1.2842   -7.0845 F   0  0  0  0  0  0  0  0  0  0  0  0
    4.5151   -0.0753   -5.3416 F   0  0  0  0  0  0  0  0  0  0  0  0
    2.6792   -1.2591   -5.3469 F   0  0  0  0  0  0  0  0  0  0  0  0
   -3.0955   -1.7658   -4.4556 H   0  0  0  0  0  0  0  0  0  0  0  0
  1  6  1  0  0  0  0
  2  1  2  0  0  0  0
  2  3  1  0  0  0  0
  3  4  2  0  0  0  0
  4  5  1  0  0  0  0
  4  9  1  0  0  0  0
  5 10  1  0  0  0  0
  6 21  1  0  0  0  0
  6  5  2  0  0  0  0
  7  1  1  0  0  0  0
  8  2  1  0  0  0  0
 12 11  3  0  0  0  0
 13 14  1  0  0  0  0
 13 16  1  0  0  0  0
 14 20  1  0  0  0  0
 14 19  1  0  0  0  0
 15 13  2  0  0  0  0
 17 13  2  0  0  0  0
 18 14  1  0  0  0  0
M  RAD  2   3   2  16   2
M  END
