Coordinates from ORCA-job Ph-N2-OTf-B3LYPG-aug-cc-pVDZ-scan-d09-29-n200
 OpenBabel01151817073D

 21 20  0  0  0  0  0  0  0  0999 V2000
   -1.5136   -1.0074   -5.5875 C   0  0  0  0  0  0  0  0  0  0  0  0
   -0.8014    0.0661   -6.1310 C   0  0  0  0  0  0  0  0  0  0  0  0
   -1.1051    1.2953   -5.5773 C   0  0  0  0  0  0  0  0  0  0  0  0
   -2.0028    1.5843   -4.5592 C   0  0  0  0  0  0  0  0  0  0  0  0
   -2.6852    0.4785   -4.0455 C   0  0  0  0  0  0  0  0  0  0  0  0
   -2.4419   -0.8023   -4.5592 C   0  0  0  0  0  0  0  0  0  0  0  0
   -1.3230   -2.0104   -5.9662 H   0  0  0  0  0  0  0  0  0  0  0  0
   -0.0309   -0.0177   -6.8996 H   0  0  0  0  0  0  0  0  0  0  0  0
   -2.1571    2.5924   -4.1828 H   0  0  0  0  0  0  0  0  0  0  0  0
   -3.4035    0.6245   -3.2401 H   0  0  0  0  0  0  0  0  0  0  0  0
   -0.3815    2.5543   -6.1831 N   0  0  0  0  0  0  0  0  0  0  0  0
   -0.0816    3.5303   -6.6047 N   0  0  0  0  0  0  0  0  0  0  0  0
    2.5728    1.2717   -6.5629 S   0  0  0  0  0  0  0  0  0  0  0  0
    3.2501   -0.4564   -6.1682 C   0  0  0  0  0  0  0  0  0  0  0  0
    3.7717    2.0734   -6.9137 O   0  0  0  0  0  0  0  0  0  0  0  0
    1.8600    1.6587   -5.2824 O   0  0  0  0  0  0  0  0  0  0  0  0
    1.5896    1.0091   -7.6858 O   0  0  0  0  0  0  0  0  0  0  0  0
    3.9070   -0.9643   -7.2231 F   0  0  0  0  0  0  0  0  0  0  0  0
    4.0856   -0.4169   -5.1185 F   0  0  0  0  0  0  0  0  0  0  0  0
    2.2325   -1.3022   -5.8626 F   0  0  0  0  0  0  0  0  0  0  0  0
   -2.9798   -1.6542   -4.1437 H   0  0  0  0  0  0  0  0  0  0  0  0
  1  6  1  0  0  0  0
  2  1  2  0  0  0  0
  2  3  1  0  0  0  0
  3  4  2  0  0  0  0
  4  9  1  0  0  0  0
  4  5  1  0  0  0  0
  5 10  1  0  0  0  0
  6 21  1  0  0  0  0
  6  5  2  0  0  0  0
  7  1  1  0  0  0  0
  8  2  1  0  0  0  0
 11  3  1  0  0  0  0
 12 11  1  0  0  0  0
 13 14  1  0  0  0  0
 13 16  1  0  0  0  0
 14 20  1  0  0  0  0
 14 19  1  0  0  0  0
 15 13  2  0  0  0  0
 17 13  2  0  0  0  0
 18 14  1  0  0  0  0
M  RAD  3  11   2  12   3  16   2
M  END
