Coordinates from ORCA-job Ph-N2-OTf-B3LYPG-aug-cc-pVDZ-scan-d29-49-n200
 OpenBabel01151817073D

 21 19  0  0  0  0  0  0  0  0999 V2000
   -2.0178   -1.3387   -5.9007 C   0  0  0  0  0  0  0  0  0  0  0  0
   -0.9419   -0.4295   -6.0265 C   0  0  0  0  0  0  0  0  0  0  0  0
   -1.0477    0.6442   -5.3704 C   0  0  0  0  0  0  0  0  0  0  0  0
   -1.9391    1.2438   -4.5265 C   0  0  0  0  0  0  0  0  0  0  0  0
   -3.0251    0.3381   -4.3934 C   0  0  0  0  0  0  0  0  0  0  0  0
   -3.0584   -0.9035   -5.0569 C   0  0  0  0  0  0  0  0  0  0  0  0
   -2.0585   -2.3013   -6.4094 H   0  0  0  0  0  0  0  0  0  0  0  0
    0.6835   -0.4321   -7.0487 H   0  0  0  0  0  0  0  0  0  0  0  0
   -1.8821    2.2086   -4.0318 H   0  0  0  0  0  0  0  0  0  0  0  0
   -3.8563    0.6308   -3.7493 H   0  0  0  0  0  0  0  0  0  0  0  0
    0.1308    4.9867   -4.2849 N   0  0  0  0  0  0  0  0  0  0  0  0
    0.9095    5.7406   -4.4952 N   0  0  0  0  0  0  0  0  0  0  0  0
    2.5406    0.7026   -7.1716 S   0  0  0  0  0  0  0  0  0  0  0  0
    3.5900   -0.2624   -5.9169 C   0  0  0  0  0  0  0  0  0  0  0  0
    3.4090    0.9913   -8.3192 O   0  0  0  0  0  0  0  0  0  0  0  0
    1.8350    1.7535   -6.4102 O   0  0  0  0  0  0  0  0  0  0  0  0
    1.5071   -0.4700   -7.6180 O   0  0  0  0  0  0  0  0  0  0  0  0
    4.1908   -1.2919   -6.5171 F   0  0  0  0  0  0  0  0  0  0  0  0
    4.5115    0.5626   -5.4097 F   0  0  0  0  0  0  0  0  0  0  0  0
    2.8055   -0.7157   -4.9298 F   0  0  0  0  0  0  0  0  0  0  0  0
   -3.9246   -1.5509   -4.9111 H   0  0  0  0  0  0  0  0  0  0  0  0
  1  6  1  0  0  0  0
  2  1  2  0  0  0  0
  2  3  1  0  0  0  0
  3  4  2  0  0  0  0
  4  5  1  0  0  0  0
  4  9  1  0  0  0  0
  5 10  1  0  0  0  0
  6 21  1  0  0  0  0
  6  5  2  0  0  0  0
  7  1  1  0  0  0  0
 12 11  3  0  0  0  0
 13 16  2  0  0  0  0
 13 14  1  0  0  0  0
 14 19  1  0  0  0  0
 14 20  1  0  0  0  0
 15 13  2  0  0  0  0
 17 13  1  0  0  0  0
 17  8  1  0  0  0  0
 18 14  1  0  0  0  0
M  RAD  2   2   2   3   2
M  END
