Coordinates from ORCA-job Ph-N2-OTf-B3LYPG-aug-cc-pVDZ-scan-d09-29-n200
 OpenBabel01151817073D

 21 19  0  0  0  0  0  0  0  0999 V2000
   -1.6115   -0.9747   -5.7270 C   0  0  0  0  0  0  0  0  0  0  0  0
   -0.8905    0.2390   -5.8705 C   0  0  0  0  0  0  0  0  0  0  0  0
   -1.3289    1.1933   -5.1644 C   0  0  0  0  0  0  0  0  0  0  0  0
   -2.3126    1.4404   -4.2530 C   0  0  0  0  0  0  0  0  0  0  0  0
   -3.0333    0.2252   -4.1090 C   0  0  0  0  0  0  0  0  0  0  0  0
   -2.6904   -0.9376   -4.8236 C   0  0  0  0  0  0  0  0  0  0  0  0
   -1.3552   -1.8844   -6.2698 H   0  0  0  0  0  0  0  0  0  0  0  0
    0.6380    0.2068   -6.9136 H   0  0  0  0  0  0  0  0  0  0  0  0
   -2.5473    2.3583   -3.7238 H   0  0  0  0  0  0  0  0  0  0  0  0
   -3.8802    0.2117   -3.4206 H   0  0  0  0  0  0  0  0  0  0  0  0
   -0.3890    3.8218   -5.3760 N   0  0  0  0  0  0  0  0  0  0  0  0
    0.2446    4.6341   -5.7723 N   0  0  0  0  0  0  0  0  0  0  0  0
    2.7255    0.8448   -7.1602 S   0  0  0  0  0  0  0  0  0  0  0  0
    3.5373   -0.3808   -5.9580 C   0  0  0  0  0  0  0  0  0  0  0  0
    3.5786    0.8969   -8.3545 O   0  0  0  0  0  0  0  0  0  0  0  0
    2.3776    2.0410   -6.3678 O   0  0  0  0  0  0  0  0  0  0  0  0
    1.3934    0.0016   -7.5487 O   0  0  0  0  0  0  0  0  0  0  0  0
    3.8071   -1.5287   -6.5846 F   0  0  0  0  0  0  0  0  0  0  0  0
    4.6717    0.1572   -5.4994 F   0  0  0  0  0  0  0  0  0  0  0  0
    2.7094   -0.6181   -4.9306 F   0  0  0  0  0  0  0  0  0  0  0  0
   -3.2825   -1.8411   -4.6700 H   0  0  0  0  0  0  0  0  0  0  0  0
  1  6  1  0  0  0  0
  2  1  2  0  0  0  0
  2  3  1  0  0  0  0
  3  4  2  0  0  0  0
  4  5  1  0  0  0  0
  4  9  1  0  0  0  0
  5 10  1  0  0  0  0
  6 21  1  0  0  0  0
  6  5  2  0  0  0  0
  7  1  1  0  0  0  0
 12 11  3  0  0  0  0
 13 16  2  0  0  0  0
 13 14  1  0  0  0  0
 14 19  1  0  0  0  0
 14 20  1  0  0  0  0
 15 13  2  0  0  0  0
 17 13  1  0  0  0  0
 17  8  1  0  0  0  0
 18 14  1  0  0  0  0
M  RAD  2   2   2   3   2
M  END
