Coordinates from ORCA-job Ph-N2-OTf-B3LYPG-aug-cc-pVDZ-scan-d09-29-n200
 OpenBabel01151817073D

 21 20  0  0  0  0  0  0  0  0999 V2000
   -1.4235   -0.9743   -5.5019 C   0  0  0  0  0  0  0  0  0  0  0  0
   -0.7722    0.1111   -6.0801 C   0  0  0  0  0  0  0  0  0  0  0  0
   -1.1408    1.3845   -5.6184 C   0  0  0  0  0  0  0  0  0  0  0  0
   -2.1077    1.6230   -4.6247 C   0  0  0  0  0  0  0  0  0  0  0  0
   -2.7333    0.5127   -4.0716 C   0  0  0  0  0  0  0  0  0  0  0  0
   -2.3919   -0.7765   -4.5096 C   0  0  0  0  0  0  0  0  0  0  0  0
   -1.1587   -1.9814   -5.8199 H   0  0  0  0  0  0  0  0  0  0  0  0
    0.0161    0.0312   -6.8305 H   0  0  0  0  0  0  0  0  0  0  0  0
   -2.3409    2.6362   -4.3032 H   0  0  0  0  0  0  0  0  0  0  0  0
   -3.4836    0.6496   -3.2946 H   0  0  0  0  0  0  0  0  0  0  0  0
   -0.5215    2.4882   -6.1747 N   0  0  0  0  0  0  0  0  0  0  0  0
   -0.0543    3.3935   -6.6145 N   0  0  0  0  0  0  0  0  0  0  0  0
    2.5982    1.2679   -6.4957 S   0  0  0  0  0  0  0  0  0  0  0  0
    3.2485   -0.5009   -6.2658 C   0  0  0  0  0  0  0  0  0  0  0  0
    3.8124    2.0775   -6.7692 O   0  0  0  0  0  0  0  0  0  0  0  0
    1.8824    1.5425   -5.1934 O   0  0  0  0  0  0  0  0  0  0  0  0
    1.6221    1.1179   -7.6473 O   0  0  0  0  0  0  0  0  0  0  0  0
    3.9201   -0.9131   -7.3529 F   0  0  0  0  0  0  0  0  0  0  0  0
    4.0628   -0.5818   -5.2013 F   0  0  0  0  0  0  0  0  0  0  0  0
    2.2141   -1.3619   -6.0655 F   0  0  0  0  0  0  0  0  0  0  0  0
   -2.8866   -1.6391   -4.0626 H   0  0  0  0  0  0  0  0  0  0  0  0
  1  6  2  0  0  0  0
  2  3  2  0  0  0  0
  2  1  1  0  0  0  0
  3  4  1  0  0  0  0
  4  9  1  0  0  0  0
  4  5  2  0  0  0  0
  5 10  1  0  0  0  0
  6  5  1  0  0  0  0
  6 21  1  0  0  0  0
  7  1  1  0  0  0  0
  8  2  1  0  0  0  0
 11  3  1  0  0  0  0
 12 11  1  0  0  0  0
 13 14  1  0  0  0  0
 13 16  1  0  0  0  0
 14 20  1  0  0  0  0
 14 19  1  0  0  0  0
 15 13  2  0  0  0  0
 17 13  2  0  0  0  0
 18 14  1  0  0  0  0
M  RAD  3  11   2  12   3  16   2
M  END
