Coordinates from ORCA-job Ph-N2-OTf-B3LYPG-aug-cc-pVDZ-scan-d29-49-n200
 OpenBabel01151817073D

 21 19  0  0  0  0  0  0  0  0999 V2000
   -1.9873   -1.2944   -5.9006 C   0  0  0  0  0  0  0  0  0  0  0  0
   -0.9443   -0.3428   -5.9923 C   0  0  0  0  0  0  0  0  0  0  0  0
   -1.1025    0.7113   -5.3150 C   0  0  0  0  0  0  0  0  0  0  0  0
   -2.0267    1.2577   -4.4706 C   0  0  0  0  0  0  0  0  0  0  0  0
   -3.0791    0.3088   -4.3725 C   0  0  0  0  0  0  0  0  0  0  0  0
   -3.0554   -0.9180   -5.0629 C   0  0  0  0  0  0  0  0  0  0  0  0
   -1.9840   -2.2466   -6.4300 H   0  0  0  0  0  0  0  0  0  0  0  0
    0.6694   -0.3390   -7.0133 H   0  0  0  0  0  0  0  0  0  0  0  0
   -2.0112    2.2132   -3.9555 H   0  0  0  0  0  0  0  0  0  0  0  0
   -3.9295    0.5553   -3.7341 H   0  0  0  0  0  0  0  0  0  0  0  0
    0.2431    4.7512   -4.4392 N   0  0  0  0  0  0  0  0  0  0  0  0
    1.0309    5.4990   -4.6370 N   0  0  0  0  0  0  0  0  0  0  0  0
    2.5555    0.7469   -7.1635 S   0  0  0  0  0  0  0  0  0  0  0  0
    3.5898   -0.2367   -5.9108 C   0  0  0  0  0  0  0  0  0  0  0  0
    3.4206    1.0021   -8.3217 O   0  0  0  0  0  0  0  0  0  0  0  0
    1.8862    1.8224   -6.4044 O   0  0  0  0  0  0  0  0  0  0  0  0
    1.4865   -0.4007   -7.5909 O   0  0  0  0  0  0  0  0  0  0  0  0
    4.1571   -1.2867   -6.5082 F   0  0  0  0  0  0  0  0  0  0  0  0
    4.5380    0.5665   -5.4181 F   0  0  0  0  0  0  0  0  0  0  0  0
    2.8024   -0.6613   -4.9132 F   0  0  0  0  0  0  0  0  0  0  0  0
   -3.8978   -1.6013   -4.9435 H   0  0  0  0  0  0  0  0  0  0  0  0
  1  6  1  0  0  0  0
  2  1  2  0  0  0  0
  2  3  1  0  0  0  0
  3  4  2  0  0  0  0
  4  5  1  0  0  0  0
  4  9  1  0  0  0  0
  5 10  1  0  0  0  0
  6 21  1  0  0  0  0
  6  5  2  0  0  0  0
  7  1  1  0  0  0  0
 12 11  3  0  0  0  0
 13 16  2  0  0  0  0
 13 14  1  0  0  0  0
 14 19  1  0  0  0  0
 14 20  1  0  0  0  0
 15 13  2  0  0  0  0
 17 13  1  0  0  0  0
 17  8  1  0  0  0  0
 18 14  1  0  0  0  0
M  RAD  2   2   2   3   2
M  END
