Coordinates from ORCA-job Ph-N2-OTf-B3LYPG-aug-cc-pVDZ-scan-d29-49-n200
 OpenBabel01151817073D

 21 19  0  0  0  0  0  0  0  0999 V2000
   -1.6812   -0.9893   -5.7809 C   0  0  0  0  0  0  0  0  0  0  0  0
   -0.8876    0.1848   -5.8249 C   0  0  0  0  0  0  0  0  0  0  0  0
   -1.3361    1.1572   -5.1524 C   0  0  0  0  0  0  0  0  0  0  0  0
   -2.4044    1.4531   -4.3557 C   0  0  0  0  0  0  0  0  0  0  0  0
   -3.2014    0.2786   -4.3086 C   0  0  0  0  0  0  0  0  0  0  0  0
   -2.8476   -0.8962   -4.9982 C   0  0  0  0  0  0  0  0  0  0  0  0
   -1.4217   -1.9054   -6.3107 H   0  0  0  0  0  0  0  0  0  0  0  0
    0.6658    0.1892   -6.8625 H   0  0  0  0  0  0  0  0  0  0  0  0
   -2.6439    2.3772   -3.8391 H   0  0  0  0  0  0  0  0  0  0  0  0
   -4.1158    0.3057   -3.7132 H   0  0  0  0  0  0  0  0  0  0  0  0
   -0.0281    4.0293   -4.9668 N   0  0  0  0  0  0  0  0  0  0  0  0
    0.6596    4.8901   -5.0324 N   0  0  0  0  0  0  0  0  0  0  0  0
    2.7502    0.8357   -7.0696 S   0  0  0  0  0  0  0  0  0  0  0  0
    3.5899   -0.5233   -6.0428 C   0  0  0  0  0  0  0  0  0  0  0  0
    3.5743    1.0316   -8.2693 O   0  0  0  0  0  0  0  0  0  0  0  0
    2.4185    1.9260   -6.1319 O   0  0  0  0  0  0  0  0  0  0  0  0
    1.4083    0.0401   -7.5239 O   0  0  0  0  0  0  0  0  0  0  0  0
    3.8430   -1.5873   -6.8089 F   0  0  0  0  0  0  0  0  0  0  0  0
    4.7356   -0.0415   -5.5513 F   0  0  0  0  0  0  0  0  0  0  0  0
    2.7871   -0.8832   -5.0315 F   0  0  0  0  0  0  0  0  0  0  0  0
   -3.5028   -1.7655   -4.9229 H   0  0  0  0  0  0  0  0  0  0  0  0
  1  6  1  0  0  0  0
  2  1  2  0  0  0  0
  2  3  1  0  0  0  0
  3  4  2  0  0  0  0
  4  5  1  0  0  0  0
  4  9  1  0  0  0  0
  5 10  1  0  0  0  0
  6 21  1  0  0  0  0
  6  5  2  0  0  0  0
  7  1  1  0  0  0  0
 12 11  3  0  0  0  0
 13 16  2  0  0  0  0
 13 14  1  0  0  0  0
 14 19  1  0  0  0  0
 14 20  1  0  0  0  0
 15 13  2  0  0  0  0
 17 13  1  0  0  0  0
 17  8  1  0  0  0  0
 18 14  1  0  0  0  0
M  RAD  2   2   2   3   2
M  END
