Coordinates from ORCA-job Ph-N2-OTf-B3LYPG-aug-cc-pVDZ-scan-d09-29-n200
 OpenBabel01151817073D

 21 20  0  0  0  0  0  0  0  0999 V2000
   -1.6570   -0.9289   -5.6138 C   0  0  0  0  0  0  0  0  0  0  0  0
   -0.8263    0.1542   -5.9794 C   0  0  0  0  0  0  0  0  0  0  0  0
   -1.2127    1.2819   -5.3415 C   0  0  0  0  0  0  0  0  0  0  0  0
   -2.1894    1.6017   -4.4393 C   0  0  0  0  0  0  0  0  0  0  0  0
   -2.9722    0.4773   -4.1161 C   0  0  0  0  0  0  0  0  0  0  0  0
   -2.7043   -0.7668   -4.7006 C   0  0  0  0  0  0  0  0  0  0  0  0
   -1.4472   -1.9014   -6.0588 H   0  0  0  0  0  0  0  0  0  0  0  0
    0.0385    0.0747   -6.6718 H   0  0  0  0  0  0  0  0  0  0  0  0
   -2.3531    2.5866   -4.0132 H   0  0  0  0  0  0  0  0  0  0  0  0
   -3.7860    0.5997   -3.4020 H   0  0  0  0  0  0  0  0  0  0  0  0
   -0.2162    2.8145   -5.8007 N   0  0  0  0  0  0  0  0  0  0  0  0
    0.0635    3.8565   -6.0330 N   0  0  0  0  0  0  0  0  0  0  0  0
    2.5348    0.9520   -6.8479 S   0  0  0  0  0  0  0  0  0  0  0  0
    3.6771   -0.4027   -6.1731 C   0  0  0  0  0  0  0  0  0  0  0  0
    3.4240    1.8717   -7.6010 O   0  0  0  0  0  0  0  0  0  0  0  0
    1.9089    1.5145   -5.5862 O   0  0  0  0  0  0  0  0  0  0  0  0
    1.5315    0.1729   -7.6762 O   0  0  0  0  0  0  0  0  0  0  0  0
    4.3009   -1.0380   -7.1784 F   0  0  0  0  0  0  0  0  0  0  0  0
    4.6046    0.1233   -5.3559 F   0  0  0  0  0  0  0  0  0  0  0  0
    2.9631   -1.3124   -5.4745 F   0  0  0  0  0  0  0  0  0  0  0  0
   -3.3208   -1.6246   -4.4337 H   0  0  0  0  0  0  0  0  0  0  0  0
  1  6  1  0  0  0  0
  2  1  2  0  0  0  0
  2  3  1  0  0  0  0
  3  4  2  0  0  0  0
  4  5  1  0  0  0  0
  4  9  1  0  0  0  0
  5 10  1  0  0  0  0
  6 21  1  0  0  0  0
  6  5  2  0  0  0  0
  7  1  1  0  0  0  0
  8  2  1  0  0  0  0
 11  3  1  0  0  0  0
 12 11  1  0  0  0  0
 13 14  1  0  0  0  0
 13 16  1  0  0  0  0
 14 20  1  0  0  0  0
 14 19  1  0  0  0  0
 15 13  2  0  0  0  0
 17 13  2  0  0  0  0
 18 14  1  0  0  0  0
M  RAD  3  11   2  12   3  16   2
M  END
