Coordinates from ORCA-job Ph-N2-OTf-B3LYPG-aug-cc-pVDZ-scan-d29-49-n200
 OpenBabel01151817073D

 21 19  0  0  0  0  0  0  0  0999 V2000
   -1.6241   -0.9498   -5.7332 C   0  0  0  0  0  0  0  0  0  0  0  0
   -0.8539    0.2395   -5.7773 C   0  0  0  0  0  0  0  0  0  0  0  0
   -1.3363    1.2121   -5.1287 C   0  0  0  0  0  0  0  0  0  0  0  0
   -2.4309    1.4937   -4.3630 C   0  0  0  0  0  0  0  0  0  0  0  0
   -3.2045    0.3045   -4.3152 C   0  0  0  0  0  0  0  0  0  0  0  0
   -2.8101   -0.8719   -4.9791 C   0  0  0  0  0  0  0  0  0  0  0  0
   -1.3341   -1.8667   -6.2456 H   0  0  0  0  0  0  0  0  0  0  0  0
    0.6755    0.2623   -6.8327 H   0  0  0  0  0  0  0  0  0  0  0  0
   -2.7018    2.4199   -3.8659 H   0  0  0  0  0  0  0  0  0  0  0  0
   -4.1320    0.3216   -3.7403 H   0  0  0  0  0  0  0  0  0  0  0  0
   -0.1398    3.8525   -5.0482 N   0  0  0  0  0  0  0  0  0  0  0  0
    0.5374    4.7216   -5.1132 N   0  0  0  0  0  0  0  0  0  0  0  0
    2.7752    0.8620   -7.0311 S   0  0  0  0  0  0  0  0  0  0  0  0
    3.5824   -0.5713   -6.0819 C   0  0  0  0  0  0  0  0  0  0  0  0
    3.5949    1.0961   -8.2267 O   0  0  0  0  0  0  0  0  0  0  0  0
    2.4847    1.9108   -6.0338 O   0  0  0  0  0  0  0  0  0  0  0  0
    1.4064    0.1326   -7.5129 O   0  0  0  0  0  0  0  0  0  0  0  0
    3.8020   -1.6015   -6.9027 F   0  0  0  0  0  0  0  0  0  0  0  0
    4.7439   -0.1472   -5.5743 F   0  0  0  0  0  0  0  0  0  0  0  0
    2.7753   -0.9602   -5.0849 F   0  0  0  0  0  0  0  0  0  0  0  0
   -3.4486   -1.7538   -4.9066 H   0  0  0  0  0  0  0  0  0  0  0  0
  1  6  1  0  0  0  0
  2  1  2  0  0  0  0
  2  3  1  0  0  0  0
  3  4  2  0  0  0  0
  4  5  1  0  0  0  0
  4  9  1  0  0  0  0
  5 10  1  0  0  0  0
  6 21  1  0  0  0  0
  6  5  2  0  0  0  0
  7  1  1  0  0  0  0
 12 11  3  0  0  0  0
 13 14  1  0  0  0  0
 13 16  2  0  0  0  0
 14 19  1  0  0  0  0
 14 20  1  0  0  0  0
 15 13  2  0  0  0  0
 17 13  1  0  0  0  0
 17  8  1  0  0  0  0
 18 14  1  0  0  0  0
M  RAD  2   2   2   3   2
M  END
