Coordinates from ORCA-job Ph-N2-OTf-B3LYPG-aug-cc-pVDZ-scan-d09-29-n200
 OpenBabel01151817073D

 21 19  0  0  0  0  0  0  0  0999 V2000
   -1.6186   -0.9241   -5.6099 C   0  0  0  0  0  0  0  0  0  0  0  0
   -0.8086    0.1818   -5.9736 C   0  0  0  0  0  0  0  0  0  0  0  0
   -1.2415    1.2770   -5.3301 C   0  0  0  0  0  0  0  0  0  0  0  0
   -2.2201    1.5957   -4.4377 C   0  0  0  0  0  0  0  0  0  0  0  0
   -2.9783    0.4489   -4.1216 C   0  0  0  0  0  0  0  0  0  0  0  0
   -2.6760   -0.7878   -4.7048 C   0  0  0  0  0  0  0  0  0  0  0  0
   -1.3772   -1.8898   -6.0542 H   0  0  0  0  0  0  0  0  0  0  0  0
    0.0728    0.1164   -6.6619 H   0  0  0  0  0  0  0  0  0  0  0  0
   -2.4076    2.5776   -4.0151 H   0  0  0  0  0  0  0  0  0  0  0  0
   -3.8001    0.5543   -3.4136 H   0  0  0  0  0  0  0  0  0  0  0  0
   -0.2365    2.9220   -5.8055 N   0  0  0  0  0  0  0  0  0  0  0  0
    0.0745    3.9530   -6.0429 N   0  0  0  0  0  0  0  0  0  0  0  0
    2.5401    0.9508   -6.8407 S   0  0  0  0  0  0  0  0  0  0  0  0
    3.6521   -0.4315   -6.1723 C   0  0  0  0  0  0  0  0  0  0  0  0
    3.4397    1.8211   -7.6380 O   0  0  0  0  0  0  0  0  0  0  0  0
    1.9535    1.5526   -5.5848 O   0  0  0  0  0  0  0  0  0  0  0  0
    1.4965    0.1836   -7.6399 O   0  0  0  0  0  0  0  0  0  0  0  0
    4.2338   -1.1019   -7.1802 F   0  0  0  0  0  0  0  0  0  0  0  0
    4.6129    0.0752   -5.3821 F   0  0  0  0  0  0  0  0  0  0  0  0
    2.9237   -1.3077   -5.4453 F   0  0  0  0  0  0  0  0  0  0  0  0
   -3.2734   -1.6606   -4.4433 H   0  0  0  0  0  0  0  0  0  0  0  0
  1  6  1  0  0  0  0
  2  1  2  0  0  0  0
  2  3  1  0  0  0  0
  3  4  2  0  0  0  0
  4  5  1  0  0  0  0
  4  9  1  0  0  0  0
  5 10  1  0  0  0  0
  6 21  1  0  0  0  0
  6  5  2  0  0  0  0
  7  1  1  0  0  0  0
  8  2  1  0  0  0  0
 12 11  3  0  0  0  0
 13 14  1  0  0  0  0
 13 16  1  0  0  0  0
 14 20  1  0  0  0  0
 14 19  1  0  0  0  0
 15 13  2  0  0  0  0
 17 13  2  0  0  0  0
 18 14  1  0  0  0  0
M  RAD  2   3   2  16   2
M  END
