Coordinates from ORCA-job Ph-N2-OTf-B3LYPG-aug-cc-pVDZ-scan-d09-29-n200
 OpenBabel01151817073D

 21 21  0  0  1  0  0  0  0  0999 V2000
   -0.8698   -0.7161   -5.4623 C   0  0  0  0  0  0  0  0  0  0  0  0
   -0.3324    0.5251   -6.0835 C   0  0  1  0  0  0  0  0  0  0  0  0
   -1.1984    1.7965   -5.8249 C   0  0  0  0  0  0  0  0  0  0  0  0
   -2.0993    1.7327   -4.6344 C   0  0  0  0  0  0  0  0  0  0  0  0
   -2.3675    0.5683   -4.0112 C   0  0  0  0  0  0  0  0  0  0  0  0
   -1.7931   -0.6821   -4.4808 C   0  0  0  0  0  0  0  0  0  0  0  0
   -0.4536   -1.6587   -5.8162 H   0  0  0  0  0  0  0  0  0  0  0  0
   -0.1676    0.4357   -7.1625 H   0  0  0  0  0  0  0  0  0  0  0  0
   -2.5337    2.6835   -4.3245 H   0  0  0  0  0  0  0  0  0  0  0  0
   -3.0429    0.5559   -3.1561 H   0  0  0  0  0  0  0  0  0  0  0  0
   -1.1130    2.5715   -6.4026 N   0  0  0  0  0  0  0  0  0  0  0  0
   -1.0051    3.5068   -7.1019 N   0  0  0  0  0  0  0  0  0  0  0  0
    2.3453    0.9532   -6.4238 S   0  0  0  0  0  0  0  0  0  0  0  0
    3.0972   -0.7734   -6.1630 C   0  0  0  0  0  0  0  0  0  0  0  0
    3.2458    1.9113   -5.7720 O   0  0  0  0  0  0  0  0  0  0  0  0
    1.0102    0.8052   -5.4675 O   0  0  0  0  0  0  0  0  0  0  0  0
    1.9589    1.0356   -7.8460 O   0  0  0  0  0  0  0  0  0  0  0  0
    4.2251   -0.8548   -6.8712 F   0  0  0  0  0  0  0  0  0  0  0  0
    3.3587   -0.9707   -4.8711 F   0  0  0  0  0  0  0  0  0  0  0  0
    2.2319   -1.7047   -6.5927 F   0  0  0  0  0  0  0  0  0  0  0  0
   -2.1350   -1.6139   -4.0292 H   0  0  0  0  0  0  0  0  0  0  0  0
  1  6  1  0  0  0  0
  2  8  1  6  0  0  0
  2  3  1  0  0  0  0
  2 16  1  0  0  0  0
  2  1  1  0  0  0  0
  3  4  2  0  0  0  0
  4  9  1  0  0  0  0
  4  5  1  0  0  0  0
  5 10  1  0  0  0  0
  6 21  1  0  0  0  0
  6  5  2  0  0  0  0
  7  1  1  0  0  0  0
 11  3  1  0  0  0  0
 12 11  1  0  0  0  0
 13 14  1  0  0  0  0
 13 15  2  0  0  0  0
 13 16  1  0  0  0  0
 14 19  1  0  0  0  0
 17 13  2  0  0  0  0
 18 14  1  0  0  0  0
 20 14  1  0  0  0  0
M  RAD  3   1   2  11   2  12   3
M  END
