Coordinates from ORCA-job Ph-N2-OTf-B3LYPG-aug-cc-pVDZ-scan-d09-29-n200
 OpenBabel01151817073D

 21 19  0  0  0  0  0  0  0  0999 V2000
   -1.5022   -0.9179   -5.6431 C   0  0  0  0  0  0  0  0  0  0  0  0
   -0.7662    0.2540   -6.0067 C   0  0  0  0  0  0  0  0  0  0  0  0
   -1.2776    1.2568   -5.3216 C   0  0  0  0  0  0  0  0  0  0  0  0
   -2.2332    1.5499   -4.4097 C   0  0  0  0  0  0  0  0  0  0  0  0
   -2.9121    0.3434   -4.1023 C   0  0  0  0  0  0  0  0  0  0  0  0
   -2.5462   -0.8617   -4.7150 C   0  0  0  0  0  0  0  0  0  0  0  0
   -1.2006   -1.8563   -6.1101 H   0  0  0  0  0  0  0  0  0  0  0  0
    0.1453    0.2350   -6.7214 H   0  0  0  0  0  0  0  0  0  0  0  0
   -2.4686    2.5138   -3.9714 H   0  0  0  0  0  0  0  0  0  0  0  0
   -3.7248    0.3902   -3.3769 H   0  0  0  0  0  0  0  0  0  0  0  0
   -0.3174    3.2817   -5.8692 N   0  0  0  0  0  0  0  0  0  0  0  0
    0.0712    4.2811   -6.1267 N   0  0  0  0  0  0  0  0  0  0  0  0
    2.5516    0.9589   -6.8444 S   0  0  0  0  0  0  0  0  0  0  0  0
    3.4911   -0.5112   -6.1036 C   0  0  0  0  0  0  0  0  0  0  0  0
    3.5298    1.6433   -7.7216 O   0  0  0  0  0  0  0  0  0  0  0  0
    2.0372    1.6969   -5.6446 O   0  0  0  0  0  0  0  0  0  0  0  0
    1.4161    0.2564   -7.6077 O   0  0  0  0  0  0  0  0  0  0  0  0
    3.9822   -1.3012   -7.0712 F   0  0  0  0  0  0  0  0  0  0  0  0
    4.5071   -0.0813   -5.3394 F   0  0  0  0  0  0  0  0  0  0  0  0
    2.6618   -1.2506   -5.3323 F   0  0  0  0  0  0  0  0  0  0  0  0
   -3.0829   -1.7745   -4.4583 H   0  0  0  0  0  0  0  0  0  0  0  0
  1  6  1  0  0  0  0
  2  1  2  0  0  0  0
  2  3  1  0  0  0  0
  3  4  2  0  0  0  0
  4  5  1  0  0  0  0
  4  9  1  0  0  0  0
  5 10  1  0  0  0  0
  6 21  1  0  0  0  0
  6  5  2  0  0  0  0
  7  1  1  0  0  0  0
  8  2  1  0  0  0  0
 12 11  3  0  0  0  0
 13 14  1  0  0  0  0
 13 16  1  0  0  0  0
 14 19  1  0  0  0  0
 14 20  1  0  0  0  0
 15 13  2  0  0  0  0
 17 13  2  0  0  0  0
 18 14  1  0  0  0  0
M  RAD  2   3   2  16   2
M  END
