Coordinates from ORCA-job Ph-N2-OTf-B3LYPG-aug-cc-pVDZ-scan-d29-49-n200
 OpenBabel01151817073D

 21 19  0  0  0  0  0  0  0  0999 V2000
   -2.0196   -1.3420   -5.9005 C   0  0  0  0  0  0  0  0  0  0  0  0
   -0.9420   -0.4351   -6.0286 C   0  0  0  0  0  0  0  0  0  0  0  0
   -1.0453    0.6398   -5.3739 C   0  0  0  0  0  0  0  0  0  0  0  0
   -1.9345    1.2426   -4.5303 C   0  0  0  0  0  0  0  0  0  0  0  0
   -3.0221    0.3392   -4.3949 C   0  0  0  0  0  0  0  0  0  0  0  0
   -3.0586   -0.9033   -5.0563 C   0  0  0  0  0  0  0  0  0  0  0  0
   -2.0628   -2.3053   -6.4076 H   0  0  0  0  0  0  0  0  0  0  0  0
    0.6843   -0.4367   -7.0508 H   0  0  0  0  0  0  0  0  0  0  0  0
   -1.8756    2.2081   -4.0370 H   0  0  0  0  0  0  0  0  0  0  0  0
   -3.8522    0.6344   -3.7505 H   0  0  0  0  0  0  0  0  0  0  0  0
    0.1262    5.0024   -4.2758 N   0  0  0  0  0  0  0  0  0  0  0  0
    0.9025    5.7589   -4.4857 N   0  0  0  0  0  0  0  0  0  0  0  0
    2.5402    0.7002   -7.1721 S   0  0  0  0  0  0  0  0  0  0  0  0
    3.5898   -0.2644   -5.9173 C   0  0  0  0  0  0  0  0  0  0  0  0
    3.4087    0.9905   -8.3191 O   0  0  0  0  0  0  0  0  0  0  0  0
    1.8331    1.7501   -6.4105 O   0  0  0  0  0  0  0  0  0  0  0  0
    1.5081   -0.4732   -7.6197 O   0  0  0  0  0  0  0  0  0  0  0  0
    4.1920   -1.2929   -6.5178 F   0  0  0  0  0  0  0  0  0  0  0  0
    4.5102    0.5612   -5.4092 F   0  0  0  0  0  0  0  0  0  0  0  0
    2.8053   -0.7190   -4.9309 F   0  0  0  0  0  0  0  0  0  0  0  0
   -3.9260   -1.5487   -4.9087 H   0  0  0  0  0  0  0  0  0  0  0  0
  1  6  1  0  0  0  0
  2  1  2  0  0  0  0
  2  3  1  0  0  0  0
  3  4  2  0  0  0  0
  4  5  1  0  0  0  0
  4  9  1  0  0  0  0
  5 10  1  0  0  0  0
  6 21  1  0  0  0  0
  6  5  2  0  0  0  0
  7  1  1  0  0  0  0
 12 11  3  0  0  0  0
 13 16  2  0  0  0  0
 13 14  1  0  0  0  0
 14 19  1  0  0  0  0
 14 20  1  0  0  0  0
 15 13  2  0  0  0  0
 17 13  1  0  0  0  0
 17  8  1  0  0  0  0
 18 14  1  0  0  0  0
M  RAD  2   2   2   3   2
M  END
