Coordinates from ORCA-job Ph-N2-OTf-B3LYPG-aug-cc-pVDZ-scan-d29-49-n200
 OpenBabel01151817073D

 21 19  0  0  0  0  0  0  0  0999 V2000
   -1.7557   -1.0765   -5.8251 C   0  0  0  0  0  0  0  0  0  0  0  0
   -0.9204    0.0658   -5.8764 C   0  0  0  0  0  0  0  0  0  0  0  0
   -1.3109    1.0543   -5.1946 C   0  0  0  0  0  0  0  0  0  0  0  0
   -2.3484    1.3914   -4.3737 C   0  0  0  0  0  0  0  0  0  0  0  0
   -3.1907    0.2487   -4.3155 C   0  0  0  0  0  0  0  0  0  0  0  0
   -2.9007   -0.9369   -5.0167 C   0  0  0  0  0  0  0  0  0  0  0  0
   -1.5447   -2.0002   -6.3630 H   0  0  0  0  0  0  0  0  0  0  0  0
    0.6566    0.0727   -6.9093 H   0  0  0  0  0  0  0  0  0  0  0  0
   -2.5399    2.3218   -3.8482 H   0  0  0  0  0  0  0  0  0  0  0  0
   -4.0911    0.3097   -3.7015 H   0  0  0  0  0  0  0  0  0  0  0  0
    0.1142    4.3399   -4.7957 N   0  0  0  0  0  0  0  0  0  0  0  0
    0.8357    5.1698   -4.8917 N   0  0  0  0  0  0  0  0  0  0  0  0
    2.7129    0.8007   -7.1267 S   0  0  0  0  0  0  0  0  0  0  0  0
    3.5834   -0.4546   -5.9983 C   0  0  0  0  0  0  0  0  0  0  0  0
    3.5510    0.9506   -8.3231 O   0  0  0  0  0  0  0  0  0  0  0  0
    2.3216    1.9362   -6.2686 O   0  0  0  0  0  0  0  0  0  0  0  0
    1.4122   -0.0777   -7.5524 O   0  0  0  0  0  0  0  0  0  0  0  0
    3.8961   -1.5535   -6.6890 F   0  0  0  0  0  0  0  0  0  0  0  0
    4.6974    0.1048   -5.5163 F   0  0  0  0  0  0  0  0  0  0  0  0
    2.7731   -0.7822   -4.9820 F   0  0  0  0  0  0  0  0  0  0  0  0
   -3.5900   -1.7783   -4.9298 H   0  0  0  0  0  0  0  0  0  0  0  0
  1  6  1  0  0  0  0
  2  1  2  0  0  0  0
  2  3  1  0  0  0  0
  3  4  2  0  0  0  0
  4  5  1  0  0  0  0
  4  9  1  0  0  0  0
  5 10  1  0  0  0  0
  6 21  1  0  0  0  0
  6  5  2  0  0  0  0
  7  1  1  0  0  0  0
 12 11  3  0  0  0  0
 13 16  2  0  0  0  0
 13 14  1  0  0  0  0
 14 19  1  0  0  0  0
 14 20  1  0  0  0  0
 15 13  2  0  0  0  0
 17 13  1  0  0  0  0
 17  8  1  0  0  0  0
 18 14  1  0  0  0  0
M  RAD  2   2   2   3   2
M  END
