Coordinates from ORCA-job Ph-N2-OTf-B3LYPG-aug-cc-pVDZ-scan-d29-49-n200
 OpenBabel01151817073D

 21 19  0  0  0  0  0  0  0  0999 V2000
   -1.9891   -1.2971   -5.9009 C   0  0  0  0  0  0  0  0  0  0  0  0
   -0.9451   -0.3468   -5.9934 C   0  0  0  0  0  0  0  0  0  0  0  0
   -1.1022    0.7072   -5.3166 C   0  0  0  0  0  0  0  0  0  0  0  0
   -2.0243    1.2570   -4.4718 C   0  0  0  0  0  0  0  0  0  0  0  0
   -3.0779    0.3092   -4.3732 C   0  0  0  0  0  0  0  0  0  0  0  0
   -3.0562   -0.9183   -5.0629 C   0  0  0  0  0  0  0  0  0  0  0  0
   -1.9873   -2.2497   -6.4297 H   0  0  0  0  0  0  0  0  0  0  0  0
    0.6694   -0.3413   -7.0140 H   0  0  0  0  0  0  0  0  0  0  0  0
   -2.0071    2.2130   -3.9575 H   0  0  0  0  0  0  0  0  0  0  0  0
   -3.9277    0.5570   -3.7346 H   0  0  0  0  0  0  0  0  0  0  0  0
    0.2436    4.7570   -4.4366 N   0  0  0  0  0  0  0  0  0  0  0  0
    1.0315    5.5045   -4.6348 N   0  0  0  0  0  0  0  0  0  0  0  0
    2.5550    0.7472   -7.1631 S   0  0  0  0  0  0  0  0  0  0  0  0
    3.5896   -0.2363   -5.9106 C   0  0  0  0  0  0  0  0  0  0  0  0
    3.4199    1.0033   -8.3212 O   0  0  0  0  0  0  0  0  0  0  0  0
    1.8851    1.8225   -6.4036 O   0  0  0  0  0  0  0  0  0  0  0  0
    1.4869   -0.4014   -7.5911 O   0  0  0  0  0  0  0  0  0  0  0  0
    4.1575   -1.2858   -6.5083 F   0  0  0  0  0  0  0  0  0  0  0  0
    4.5374    0.5673   -5.4175 F   0  0  0  0  0  0  0  0  0  0  0  0
    2.8023   -0.6615   -4.9132 F   0  0  0  0  0  0  0  0  0  0  0  0
   -3.8995   -1.6003   -4.9427 H   0  0  0  0  0  0  0  0  0  0  0  0
  1  6  1  0  0  0  0
  2  1  2  0  0  0  0
  2  3  1  0  0  0  0
  3  4  2  0  0  0  0
  4  5  1  0  0  0  0
  4  9  1  0  0  0  0
  5 10  1  0  0  0  0
  6 21  1  0  0  0  0
  6  5  2  0  0  0  0
  7  1  1  0  0  0  0
 12 11  3  0  0  0  0
 13 16  2  0  0  0  0
 13 14  1  0  0  0  0
 14 19  1  0  0  0  0
 14 20  1  0  0  0  0
 15 13  2  0  0  0  0
 17 13  1  0  0  0  0
 17  8  1  0  0  0  0
 18 14  1  0  0  0  0
M  RAD  2   2   2   3   2
M  END
