Coordinates from ORCA-job Ph-N2-OTf-B3LYPG-aug-cc-pVDZ-scan-d29-49-n200
 OpenBabel01151817073D

 21 19  0  0  0  0  0  0  0  0999 V2000
   -1.8044   -1.1353   -5.8457 C   0  0  0  0  0  0  0  0  0  0  0  0
   -0.9203   -0.0325   -5.9116 C   0  0  0  0  0  0  0  0  0  0  0  0
   -1.2506    0.9807   -5.2340 C   0  0  0  0  0  0  0  0  0  0  0  0
   -2.2633    1.3648   -4.4007 C   0  0  0  0  0  0  0  0  0  0  0  0
   -3.1572    0.2636   -4.3267 C   0  0  0  0  0  0  0  0  0  0  0  0
   -2.9314   -0.9377   -5.0244 C   0  0  0  0  0  0  0  0  0  0  0  0
   -1.6430   -2.0708   -6.3803 H   0  0  0  0  0  0  0  0  0  0  0  0
    0.6712   -0.0286   -6.9477 H   0  0  0  0  0  0  0  0  0  0  0  0
   -2.4063    2.3055   -3.8780 H   0  0  0  0  0  0  0  0  0  0  0  0
   -4.0463    0.3696   -3.7026 H   0  0  0  0  0  0  0  0  0  0  0  0
    0.0324    4.6079   -4.6269 N   0  0  0  0  0  0  0  0  0  0  0  0
    0.7589    5.4309   -4.7435 N   0  0  0  0  0  0  0  0  0  0  0  0
    2.7055    0.7507   -7.1606 S   0  0  0  0  0  0  0  0  0  0  0  0
    3.5962   -0.4508   -5.9900 C   0  0  0  0  0  0  0  0  0  0  0  0
    3.5543    0.8939   -8.3501 O   0  0  0  0  0  0  0  0  0  0  0  0
    2.2703    1.8948   -6.3367 O   0  0  0  0  0  0  0  0  0  0  0  0
    1.4350   -0.1737   -7.5802 O   0  0  0  0  0  0  0  0  0  0  0  0
    3.9501   -1.5566   -6.6491 F   0  0  0  0  0  0  0  0  0  0  0  0
    4.6868    0.1528   -5.5077 F   0  0  0  0  0  0  0  0  0  0  0  0
    2.7817   -0.7767   -4.9767 F   0  0  0  0  0  0  0  0  0  0  0  0
   -3.6579   -1.7457   -4.9241 H   0  0  0  0  0  0  0  0  0  0  0  0
  1  6  1  0  0  0  0
  2  1  2  0  0  0  0
  2  3  1  0  0  0  0
  3  4  2  0  0  0  0
  4  5  1  0  0  0  0
  4  9  1  0  0  0  0
  5 10  1  0  0  0  0
  6 21  1  0  0  0  0
  6  5  2  0  0  0  0
  7  1  1  0  0  0  0
 12 11  3  0  0  0  0
 13 16  2  0  0  0  0
 13 14  1  0  0  0  0
 14 19  1  0  0  0  0
 14 20  1  0  0  0  0
 15 13  2  0  0  0  0
 17 13  1  0  0  0  0
 17  8  1  0  0  0  0
 18 14  1  0  0  0  0
M  RAD  2   2   2   3   2
M  END
