Coordinates from ORCA-job Ph-N2-OTf-B3LYPG-aug-cc-pVDZ-scan-d29-49-n200
 OpenBabel01151817073D

 21 19  0  0  0  0  0  0  0  0999 V2000
   -1.7559   -1.0777   -5.8248 C   0  0  0  0  0  0  0  0  0  0  0  0
   -0.9197    0.0640   -5.8783 C   0  0  0  0  0  0  0  0  0  0  0  0
   -1.3074    1.0552   -5.1975 C   0  0  0  0  0  0  0  0  0  0  0  0
   -2.3464    1.3896   -4.3759 C   0  0  0  0  0  0  0  0  0  0  0  0
   -3.1894    0.2481   -4.3158 C   0  0  0  0  0  0  0  0  0  0  0  0
   -2.9002   -0.9376   -5.0161 C   0  0  0  0  0  0  0  0  0  0  0  0
   -1.5456   -2.0020   -6.3621 H   0  0  0  0  0  0  0  0  0  0  0  0
    0.6575    0.0704   -6.9122 H   0  0  0  0  0  0  0  0  0  0  0  0
   -2.5380    2.3201   -3.8507 H   0  0  0  0  0  0  0  0  0  0  0  0
   -4.0893    0.3104   -3.7013 H   0  0  0  0  0  0  0  0  0  0  0  0
    0.1119    4.3530   -4.7869 N   0  0  0  0  0  0  0  0  0  0  0  0
    0.8346    5.1817   -4.8843 N   0  0  0  0  0  0  0  0  0  0  0  0
    2.7123    0.7978   -7.1291 S   0  0  0  0  0  0  0  0  0  0  0  0
    3.5821   -0.4553   -5.9977 C   0  0  0  0  0  0  0  0  0  0  0  0
    3.5522    0.9467   -8.3243 O   0  0  0  0  0  0  0  0  0  0  0  0
    2.3182    1.9333   -6.2731 O   0  0  0  0  0  0  0  0  0  0  0  0
    1.4126   -0.0804   -7.5556 O   0  0  0  0  0  0  0  0  0  0  0  0
    3.8972   -1.5547   -6.6866 F   0  0  0  0  0  0  0  0  0  0  0  0
    4.6946    0.1058   -5.5143 F   0  0  0  0  0  0  0  0  0  0  0  0
    2.7702   -0.7826   -4.9825 F   0  0  0  0  0  0  0  0  0  0  0  0
   -3.5894   -1.7790   -4.9281 H   0  0  0  0  0  0  0  0  0  0  0  0
  1  6  1  0  0  0  0
  2  1  2  0  0  0  0
  2  3  1  0  0  0  0
  3  4  2  0  0  0  0
  4  5  1  0  0  0  0
  4  9  1  0  0  0  0
  5 10  1  0  0  0  0
  6 21  1  0  0  0  0
  6  5  2  0  0  0  0
  7  1  1  0  0  0  0
 12 11  3  0  0  0  0
 13 16  2  0  0  0  0
 13 14  1  0  0  0  0
 14 19  1  0  0  0  0
 14 20  1  0  0  0  0
 15 13  2  0  0  0  0
 17 13  1  0  0  0  0
 17  8  1  0  0  0  0
 18 14  1  0  0  0  0
M  RAD  2   2   2   3   2
M  END
