Coordinates from ORCA-job Ph-N2-OTf-B3LYPG-aug-cc-pVDZ-scan-d29-49-n200
 OpenBabel01151817073D

 21 19  0  0  0  0  0  0  0  0999 V2000
   -2.0061   -1.3233   -5.9012 C   0  0  0  0  0  0  0  0  0  0  0  0
   -0.9434   -0.3967   -6.0121 C   0  0  0  0  0  0  0  0  0  0  0  0
   -1.0697    0.6695   -5.3474 C   0  0  0  0  0  0  0  0  0  0  0  0
   -1.9755    1.2477   -4.5039 C   0  0  0  0  0  0  0  0  0  0  0  0
   -3.0485    0.3246   -4.3858 C   0  0  0  0  0  0  0  0  0  0  0  0
   -3.0586   -0.9113   -5.0603 C   0  0  0  0  0  0  0  0  0  0  0  0
   -2.0289   -2.2818   -6.4185 H   0  0  0  0  0  0  0  0  0  0  0  0
    0.6776   -0.3979   -7.0336 H   0  0  0  0  0  0  0  0  0  0  0  0
   -1.9350    2.2090   -4.0009 H   0  0  0  0  0  0  0  0  0  0  0  0
   -3.8882    0.5990   -3.7446 H   0  0  0  0  0  0  0  0  0  0  0  0
    0.1827    4.9041   -4.3454 N   0  0  0  0  0  0  0  0  0  0  0  0
    0.9687    5.6512   -4.5529 N   0  0  0  0  0  0  0  0  0  0  0  0
    2.5444    0.7201   -7.1673 S   0  0  0  0  0  0  0  0  0  0  0  0
    3.5905   -0.2511   -5.9147 C   0  0  0  0  0  0  0  0  0  0  0  0
    3.4105    0.9980   -8.3193 O   0  0  0  0  0  0  0  0  0  0  0  0
    1.8512    1.7789   -6.4057 O   0  0  0  0  0  0  0  0  0  0  0  0
    1.4986   -0.4445   -7.6063 O   0  0  0  0  0  0  0  0  0  0  0  0
    4.1794   -1.2875   -6.5148 F   0  0  0  0  0  0  0  0  0  0  0  0
    4.5215    0.5667   -5.4135 F   0  0  0  0  0  0  0  0  0  0  0  0
    2.8062   -0.6949   -4.9231 F   0  0  0  0  0  0  0  0  0  0  0  0
   -3.9157   -1.5731   -4.9260 H   0  0  0  0  0  0  0  0  0  0  0  0
  1  6  1  0  0  0  0
  2  1  2  0  0  0  0
  2  3  1  0  0  0  0
  3  4  2  0  0  0  0
  4  5  1  0  0  0  0
  4  9  1  0  0  0  0
  5 10  1  0  0  0  0
  6 21  1  0  0  0  0
  6  5  2  0  0  0  0
  7  1  1  0  0  0  0
 12 11  3  0  0  0  0
 13 16  2  0  0  0  0
 13 14  1  0  0  0  0
 14 19  1  0  0  0  0
 14 20  1  0  0  0  0
 15 13  2  0  0  0  0
 17 13  1  0  0  0  0
 17  8  1  0  0  0  0
 18 14  1  0  0  0  0
M  RAD  2   2   2   3   2
M  END
