Coordinates from ORCA-job Ph-N2-OTf-B3LYPG-aug-cc-pVDZ-scan-d09-29-n200
 OpenBabel01151817073D

 21 20  0  0  0  0  0  0  0  0999 V2000
   -1.5323   -1.0018   -5.6036 C   0  0  0  0  0  0  0  0  0  0  0  0
   -0.8016    0.0841   -6.1186 C   0  0  0  0  0  0  0  0  0  0  0  0
   -1.1419    1.2575   -5.5158 C   0  0  0  0  0  0  0  0  0  0  0  0
   -2.0249    1.5757   -4.5159 C   0  0  0  0  0  0  0  0  0  0  0  0
   -2.7187    0.4497   -4.0412 C   0  0  0  0  0  0  0  0  0  0  0  0
   -2.4730   -0.8176   -4.5832 C   0  0  0  0  0  0  0  0  0  0  0  0
   -1.3366   -1.9944   -6.0075 H   0  0  0  0  0  0  0  0  0  0  0  0
   -0.0140    0.0256   -6.8802 H   0  0  0  0  0  0  0  0  0  0  0  0
   -2.1742    2.5765   -4.1218 H   0  0  0  0  0  0  0  0  0  0  0  0
   -3.4468    0.5839   -3.2420 H   0  0  0  0  0  0  0  0  0  0  0  0
   -0.2995    2.7005   -6.1701 N   0  0  0  0  0  0  0  0  0  0  0  0
   -0.0646    3.6999   -6.5749 N   0  0  0  0  0  0  0  0  0  0  0  0
    2.5575    1.2182   -6.6230 S   0  0  0  0  0  0  0  0  0  0  0  0
    3.2968   -0.4616   -6.1410 C   0  0  0  0  0  0  0  0  0  0  0  0
    3.7196    2.0388   -7.0455 O   0  0  0  0  0  0  0  0  0  0  0  0
    1.8580    1.6538   -5.3503 O   0  0  0  0  0  0  0  0  0  0  0  0
    1.5648    0.8559   -7.7096 O   0  0  0  0  0  0  0  0  0  0  0  0
    3.9505   -1.0101   -7.1775 F   0  0  0  0  0  0  0  0  0  0  0  0
    4.1499   -0.3339   -5.1127 F   0  0  0  0  0  0  0  0  0  0  0  0
    2.3117   -1.3164   -5.7667 F   0  0  0  0  0  0  0  0  0  0  0  0
   -3.0190   -1.6773   -4.1960 H   0  0  0  0  0  0  0  0  0  0  0  0
  1  6  1  0  0  0  0
  2  1  2  0  0  0  0
  2  3  1  0  0  0  0
  3  4  2  0  0  0  0
  4  9  1  0  0  0  0
  4  5  1  0  0  0  0
  5 10  1  0  0  0  0
  6 21  1  0  0  0  0
  6  5  2  0  0  0  0
  7  1  1  0  0  0  0
  8  2  1  0  0  0  0
 11  3  1  0  0  0  0
 12 11  1  0  0  0  0
 13 14  1  0  0  0  0
 13 16  1  0  0  0  0
 14 20  1  0  0  0  0
 14 19  1  0  0  0  0
 15 13  2  0  0  0  0
 17 13  2  0  0  0  0
 18 14  1  0  0  0  0
M  RAD  3  11   2  12   3  16   2
M  END
