Coordinates from ORCA-job Ph-N2-OTf-B3LYPG-aug-cc-pVDZ-scan-d29-49-n200
 OpenBabel01151817073D

 21 19  0  0  0  0  0  0  0  0999 V2000
   -1.7871   -1.1138   -5.8358 C   0  0  0  0  0  0  0  0  0  0  0  0
   -0.9206    0.0037   -5.8923 C   0  0  0  0  0  0  0  0  0  0  0  0
   -1.2734    1.0089   -5.2139 C   0  0  0  0  0  0  0  0  0  0  0  0
   -2.2993    1.3737   -4.3880 C   0  0  0  0  0  0  0  0  0  0  0  0
   -3.1753    0.2576   -4.3240 C   0  0  0  0  0  0  0  0  0  0  0  0
   -2.9238   -0.9376   -5.0231 C   0  0  0  0  0  0  0  0  0  0  0  0
   -1.6059   -2.0448   -6.3719 H   0  0  0  0  0  0  0  0  0  0  0  0
    0.6661    0.0114   -6.9293 H   0  0  0  0  0  0  0  0  0  0  0  0
   -2.4621    2.3103   -3.8637 H   0  0  0  0  0  0  0  0  0  0  0  0
   -4.0708    0.3470   -3.7065 H   0  0  0  0  0  0  0  0  0  0  0  0
    0.0735    4.4958   -4.6908 N   0  0  0  0  0  0  0  0  0  0  0  0
    0.8027    5.3162   -4.8091 N   0  0  0  0  0  0  0  0  0  0  0  0
    2.7074    0.7721   -7.1484 S   0  0  0  0  0  0  0  0  0  0  0  0
    3.5941   -0.4472   -5.9934 C   0  0  0  0  0  0  0  0  0  0  0  0
    3.5499    0.9169   -8.3423 O   0  0  0  0  0  0  0  0  0  0  0  0
    2.2887    1.9136   -6.3125 O   0  0  0  0  0  0  0  0  0  0  0  0
    1.4254   -0.1365   -7.5669 O   0  0  0  0  0  0  0  0  0  0  0  0
    3.9326   -1.5512   -6.6635 F   0  0  0  0  0  0  0  0  0  0  0  0
    4.6937    0.1418   -5.5137 F   0  0  0  0  0  0  0  0  0  0  0  0
    2.7831   -0.7732   -4.9772 F   0  0  0  0  0  0  0  0  0  0  0  0
   -3.6374   -1.7580   -4.9311 H   0  0  0  0  0  0  0  0  0  0  0  0
  1  6  1  0  0  0  0
  2  1  2  0  0  0  0
  2  3  1  0  0  0  0
  3  4  2  0  0  0  0
  4  5  1  0  0  0  0
  4  9  1  0  0  0  0
  5 10  1  0  0  0  0
  6 21  1  0  0  0  0
  6  5  2  0  0  0  0
  7  1  1  0  0  0  0
 12 11  3  0  0  0  0
 13 16  2  0  0  0  0
 13 14  1  0  0  0  0
 14 19  1  0  0  0  0
 14 20  1  0  0  0  0
 15 13  2  0  0  0  0
 17 13  1  0  0  0  0
 17  8  1  0  0  0  0
 18 14  1  0  0  0  0
M  RAD  2   2   2   3   2
M  END
