Coordinates from ORCA-job Ph-N2-OTf-B3LYPG-aug-cc-pVDZ-scan-d09-29-n200
 OpenBabel01151817073D

 21 21  0  0  1  0  0  0  0  0999 V2000
   -0.8702   -0.7181   -5.4540 C   0  0  0  0  0  0  0  0  0  0  0  0
   -0.3367    0.5216   -6.0808 C   0  0  1  0  0  0  0  0  0  0  0  0
   -1.2036    1.7721   -5.8236 C   0  0  0  0  0  0  0  0  0  0  0  0
   -2.1022    1.7312   -4.6438 C   0  0  0  0  0  0  0  0  0  0  0  0
   -2.3674    0.5716   -4.0059 C   0  0  0  0  0  0  0  0  0  0  0  0
   -1.7902   -0.6791   -4.4680 C   0  0  0  0  0  0  0  0  0  0  0  0
   -0.4533   -1.6619   -5.8031 H   0  0  0  0  0  0  0  0  0  0  0  0
   -0.1558    0.4226   -7.1559 H   0  0  0  0  0  0  0  0  0  0  0  0
   -2.5431    2.6814   -4.3421 H   0  0  0  0  0  0  0  0  0  0  0  0
   -3.0420    0.5650   -3.1505 H   0  0  0  0  0  0  0  0  0  0  0  0
   -1.1172    2.5854   -6.4341 N   0  0  0  0  0  0  0  0  0  0  0  0
   -1.0136    3.5115   -7.1321 N   0  0  0  0  0  0  0  0  0  0  0  0
    2.3487    0.9587   -6.4020 S   0  0  0  0  0  0  0  0  0  0  0  0
    3.0946   -0.7753   -6.1776 C   0  0  0  0  0  0  0  0  0  0  0  0
    3.2559    1.8996   -5.7335 O   0  0  0  0  0  0  0  0  0  0  0  0
    1.0147    0.8010   -5.4534 O   0  0  0  0  0  0  0  0  0  0  0  0
    1.9665    1.0716   -7.8239 O   0  0  0  0  0  0  0  0  0  0  0  0
    4.2214   -0.8477   -6.8891 F   0  0  0  0  0  0  0  0  0  0  0  0
    3.3577   -1.0003   -4.8903 F   0  0  0  0  0  0  0  0  0  0  0  0
    2.2252   -1.6951   -6.6244 F   0  0  0  0  0  0  0  0  0  0  0  0
   -2.1277   -1.6091   -4.0091 H   0  0  0  0  0  0  0  0  0  0  0  0
  1  6  2  0  0  0  0
  2  8  1  6  0  0  0
  2  3  1  0  0  0  0
  2  1  1  0  0  0  0
  2 16  1  0  0  0  0
  3  4  2  0  0  0  0
  4  9  1  0  0  0  0
  4  5  1  0  0  0  0
  5 10  1  0  0  0  0
  6 21  1  0  0  0  0
  6  5  1  0  0  0  0
  7  1  1  0  0  0  0
 11  3  1  0  0  0  0
 12 11  1  0  0  0  0
 13 14  1  0  0  0  0
 13 15  2  0  0  0  0
 13 16  1  0  0  0  0
 14 19  1  0  0  0  0
 17 13  2  0  0  0  0
 18 14  1  0  0  0  0
 20 14  1  0  0  0  0
M  RAD  3   5   2  11   2  12   3
M  END
