Coordinates from ORCA-job Ph-N2-OTf-B3LYPG-aug-cc-pVDZ-scan-d29-49-n200
 OpenBabel01151817073D

 21 19  0  0  0  0  0  0  0  0999 V2000
   -1.8228   -1.1569   -5.8563 C   0  0  0  0  0  0  0  0  0  0  0  0
   -0.9151   -0.0739   -5.9230 C   0  0  0  0  0  0  0  0  0  0  0  0
   -1.2211    0.9460   -5.2455 C   0  0  0  0  0  0  0  0  0  0  0  0
   -2.2214    1.3543   -4.4086 C   0  0  0  0  0  0  0  0  0  0  0  0
   -3.1399    0.2733   -4.3340 C   0  0  0  0  0  0  0  0  0  0  0  0
   -2.9432   -0.9331   -5.0325 C   0  0  0  0  0  0  0  0  0  0  0  0
   -1.6835   -2.0958   -6.3911 H   0  0  0  0  0  0  0  0  0  0  0  0
    0.6780   -0.0813   -6.9592 H   0  0  0  0  0  0  0  0  0  0  0  0
   -2.3415    2.2983   -3.8861 H   0  0  0  0  0  0  0  0  0  0  0  0
   -4.0250    0.3989   -3.7078 H   0  0  0  0  0  0  0  0  0  0  0  0
   -0.0303    4.7492   -4.5485 N   0  0  0  0  0  0  0  0  0  0  0  0
    0.6909    5.5772   -4.6630 N   0  0  0  0  0  0  0  0  0  0  0  0
    2.7036    0.7185   -7.1762 S   0  0  0  0  0  0  0  0  0  0  0  0
    3.6078   -0.4581   -5.9909 C   0  0  0  0  0  0  0  0  0  0  0  0
    3.5524    0.8591   -8.3660 O   0  0  0  0  0  0  0  0  0  0  0  0
    2.2526    1.8668   -6.3660 O   0  0  0  0  0  0  0  0  0  0  0  0
    1.4456   -0.2275   -7.5866 O   0  0  0  0  0  0  0  0  0  0  0  0
    3.9759   -1.5671   -6.6366 F   0  0  0  0  0  0  0  0  0  0  0  0
    4.6904    0.1646   -5.5148 F   0  0  0  0  0  0  0  0  0  0  0  0
    2.7964   -0.7821   -4.9744 F   0  0  0  0  0  0  0  0  0  0  0  0
   -3.6880   -1.7240   -4.9303 H   0  0  0  0  0  0  0  0  0  0  0  0
  1  6  1  0  0  0  0
  2  1  2  0  0  0  0
  2  3  1  0  0  0  0
  3  4  2  0  0  0  0
  4  5  1  0  0  0  0
  4  9  1  0  0  0  0
  5 10  1  0  0  0  0
  6 21  1  0  0  0  0
  6  5  2  0  0  0  0
  7  1  1  0  0  0  0
 12 11  3  0  0  0  0
 13 16  2  0  0  0  0
 13 14  1  0  0  0  0
 14 19  1  0  0  0  0
 14 20  1  0  0  0  0
 15 13  2  0  0  0  0
 17 13  1  0  0  0  0
 17  8  1  0  0  0  0
 18 14  1  0  0  0  0
M  RAD  2   2   2   3   2
M  END
