Coordinates from ORCA-job Ph-N2-OTf-B3LYPG-aug-cc-pVDZ-scan-d29-49-n200
 OpenBabel01151817073D

 21 19  0  0  0  0  0  0  0  0999 V2000
   -1.9773   -1.2789   -5.9006 C   0  0  0  0  0  0  0  0  0  0  0  0
   -0.9445   -0.3156   -5.9854 C   0  0  0  0  0  0  0  0  0  0  0  0
   -1.1168    0.7326   -5.3031 C   0  0  0  0  0  0  0  0  0  0  0  0
   -2.0472    1.2659   -4.4570 C   0  0  0  0  0  0  0  0  0  0  0  0
   -3.0894    0.3047   -4.3662 C   0  0  0  0  0  0  0  0  0  0  0  0
   -3.0509   -0.9183   -5.0630 C   0  0  0  0  0  0  0  0  0  0  0  0
   -1.9624   -2.2285   -6.4348 H   0  0  0  0  0  0  0  0  0  0  0  0
    0.6651   -0.3136   -7.0067 H   0  0  0  0  0  0  0  0  0  0  0  0
   -2.0427    2.2191   -3.9373 H   0  0  0  0  0  0  0  0  0  0  0  0
   -3.9436    0.5385   -3.7282 H   0  0  0  0  0  0  0  0  0  0  0  0
    0.2584    4.6756   -4.4777 N   0  0  0  0  0  0  0  0  0  0  0  0
    1.0450    5.4263   -4.6689 N   0  0  0  0  0  0  0  0  0  0  0  0
    2.5613    0.7566   -7.1630 S   0  0  0  0  0  0  0  0  0  0  0  0
    3.5894   -0.2321   -5.9091 C   0  0  0  0  0  0  0  0  0  0  0  0
    3.4262    1.0001   -8.3238 O   0  0  0  0  0  0  0  0  0  0  0  0
    1.9034    1.8408   -6.4059 O   0  0  0  0  0  0  0  0  0  0  0  0
    1.4816   -0.3834   -7.5845 O   0  0  0  0  0  0  0  0  0  0  0  0
    4.1460   -1.2893   -6.5041 F   0  0  0  0  0  0  0  0  0  0  0  0
    4.5458    0.5641   -5.4210 F   0  0  0  0  0  0  0  0  0  0  0  0
    2.8003   -0.6463   -4.9084 F   0  0  0  0  0  0  0  0  0  0  0  0
   -3.8859   -1.6115   -4.9486 H   0  0  0  0  0  0  0  0  0  0  0  0
  1  6  1  0  0  0  0
  2  1  2  0  0  0  0
  2  3  1  0  0  0  0
  3  4  2  0  0  0  0
  4  5  1  0  0  0  0
  4  9  1  0  0  0  0
  5 10  1  0  0  0  0
  6 21  1  0  0  0  0
  6  5  2  0  0  0  0
  7  1  1  0  0  0  0
 12 11  3  0  0  0  0
 13 16  2  0  0  0  0
 13 14  1  0  0  0  0
 14 19  1  0  0  0  0
 14 20  1  0  0  0  0
 15 13  2  0  0  0  0
 17 13  1  0  0  0  0
 17  8  1  0  0  0  0
 18 14  1  0  0  0  0
M  RAD  2   2   2   3   2
M  END
