Coordinates from ORCA-job Ph-N2-OTf-B3LYPG-aug-cc-pVDZ-scan-d09-29-n200
 OpenBabel01151817073D

 21 19  0  0  0  0  0  0  0  0999 V2000
   -1.4984   -0.9421   -5.6596 C   0  0  0  0  0  0  0  0  0  0  0  0
   -0.7597    0.2362   -6.0095 C   0  0  0  0  0  0  0  0  0  0  0  0
   -1.2756    1.2166   -5.3116 C   0  0  0  0  0  0  0  0  0  0  0  0
   -2.2198    1.5245   -4.3998 C   0  0  0  0  0  0  0  0  0  0  0  0
   -2.9013    0.3128   -4.1037 C   0  0  0  0  0  0  0  0  0  0  0  0
   -2.5408   -0.8886   -4.7284 C   0  0  0  0  0  0  0  0  0  0  0  0
   -1.2000   -1.8767   -6.1365 H   0  0  0  0  0  0  0  0  0  0  0  0
    0.1715    0.2227   -6.7322 H   0  0  0  0  0  0  0  0  0  0  0  0
   -2.4516    2.4859   -3.9548 H   0  0  0  0  0  0  0  0  0  0  0  0
   -3.7137    0.3557   -3.3773 H   0  0  0  0  0  0  0  0  0  0  0  0
   -0.3100    3.4532   -5.8643 N   0  0  0  0  0  0  0  0  0  0  0  0
    0.1156    4.4413   -6.1069 N   0  0  0  0  0  0  0  0  0  0  0  0
    2.5435    0.9480   -6.8613 S   0  0  0  0  0  0  0  0  0  0  0  0
    3.4665   -0.5098   -6.0770 C   0  0  0  0  0  0  0  0  0  0  0  0
    3.5159    1.5756   -7.7843 O   0  0  0  0  0  0  0  0  0  0  0  0
    2.0505    1.7406   -5.6911 O   0  0  0  0  0  0  0  0  0  0  0  0
    1.3873    0.2266   -7.5888 O   0  0  0  0  0  0  0  0  0  0  0  0
    3.9331   -1.3423   -7.0200 F   0  0  0  0  0  0  0  0  0  0  0  0
    4.4969   -0.0675   -5.3406 F   0  0  0  0  0  0  0  0  0  0  0  0
    2.6329   -1.2048   -5.2707 F   0  0  0  0  0  0  0  0  0  0  0  0
   -3.0810   -1.8012   -4.4788 H   0  0  0  0  0  0  0  0  0  0  0  0
  1  6  1  0  0  0  0
  2  1  2  0  0  0  0
  2  3  1  0  0  0  0
  3  4  2  0  0  0  0
  4  5  1  0  0  0  0
  4  9  1  0  0  0  0
  5 10  1  0  0  0  0
  6 21  1  0  0  0  0
  6  5  2  0  0  0  0
  7  1  1  0  0  0  0
  8  2  1  0  0  0  0
 12 11  3  0  0  0  0
 13 14  1  0  0  0  0
 13 16  1  0  0  0  0
 14 19  1  0  0  0  0
 14 20  1  0  0  0  0
 15 13  2  0  0  0  0
 17 13  2  0  0  0  0
 18 14  1  0  0  0  0
M  RAD  2   3   2  16   2
M  END
