Coordinates from ORCA-job Ph-N2-OTf-B3LYPG-aug-cc-pVDZ-scan-d29-49-n200
 OpenBabel01151817073D

 21 19  0  0  0  0  0  0  0  0999 V2000
   -1.7924   -1.1207   -5.8379 C   0  0  0  0  0  0  0  0  0  0  0  0
   -0.9212   -0.0070   -5.8959 C   0  0  0  0  0  0  0  0  0  0  0  0
   -1.2690    0.9994   -5.2181 C   0  0  0  0  0  0  0  0  0  0  0  0
   -2.2909    1.3714   -4.3911 C   0  0  0  0  0  0  0  0  0  0  0  0
   -3.1721    0.2593   -4.3251 C   0  0  0  0  0  0  0  0  0  0  0  0
   -2.9272   -0.9380   -5.0237 C   0  0  0  0  0  0  0  0  0  0  0  0
   -1.6161   -2.0530   -6.3734 H   0  0  0  0  0  0  0  0  0  0  0  0
    0.6670    0.0017   -6.9326 H   0  0  0  0  0  0  0  0  0  0  0  0
   -2.4484    2.3092   -3.8675 H   0  0  0  0  0  0  0  0  0  0  0  0
   -4.0664    0.3535   -3.7065 H   0  0  0  0  0  0  0  0  0  0  0  0
    0.0673    4.5201   -4.6758 N   0  0  0  0  0  0  0  0  0  0  0  0
    0.7968    5.3397   -4.7961 N   0  0  0  0  0  0  0  0  0  0  0  0
    2.7069    0.7689   -7.1508 S   0  0  0  0  0  0  0  0  0  0  0  0
    3.5952   -0.4463   -5.9927 C   0  0  0  0  0  0  0  0  0  0  0  0
    3.5501    0.9135   -8.3441 O   0  0  0  0  0  0  0  0  0  0  0  0
    2.2850    1.9115   -6.3173 O   0  0  0  0  0  0  0  0  0  0  0  0
    1.4276   -0.1445   -7.5690 O   0  0  0  0  0  0  0  0  0  0  0  0
    3.9368   -1.5508   -6.6604 F   0  0  0  0  0  0  0  0  0  0  0  0
    4.6931    0.1461   -5.5131 F   0  0  0  0  0  0  0  0  0  0  0  0
    2.7841   -0.7722   -4.9765 F   0  0  0  0  0  0  0  0  0  0  0  0
   -3.6446   -1.7549   -4.9298 H   0  0  0  0  0  0  0  0  0  0  0  0
  1  6  1  0  0  0  0
  2  1  2  0  0  0  0
  2  3  1  0  0  0  0
  3  4  2  0  0  0  0
  4  5  1  0  0  0  0
  4  9  1  0  0  0  0
  5 10  1  0  0  0  0
  6 21  1  0  0  0  0
  6  5  2  0  0  0  0
  7  1  1  0  0  0  0
 12 11  3  0  0  0  0
 13 16  2  0  0  0  0
 13 14  1  0  0  0  0
 14 19  1  0  0  0  0
 14 20  1  0  0  0  0
 15 13  2  0  0  0  0
 17 13  1  0  0  0  0
 17  8  1  0  0  0  0
 18 14  1  0  0  0  0
M  RAD  2   2   2   3   2
M  END
