Coordinates from ORCA-job Ph-N2-OTf-B3LYPG-aug-cc-pVDZ-scan-d09-29-n200
 OpenBabel01151817073D

 21 19  0  0  0  0  0  0  0  0999 V2000
   -1.4977   -0.9361   -5.6539 C   0  0  0  0  0  0  0  0  0  0  0  0
   -0.7615    0.2412   -6.0089 C   0  0  0  0  0  0  0  0  0  0  0  0
   -1.2784    1.2267   -5.3150 C   0  0  0  0  0  0  0  0  0  0  0  0
   -2.2250    1.5320   -4.4043 C   0  0  0  0  0  0  0  0  0  0  0  0
   -2.9041    0.3208   -4.1035 C   0  0  0  0  0  0  0  0  0  0  0  0
   -2.5406   -0.8819   -4.7235 C   0  0  0  0  0  0  0  0  0  0  0  0
   -1.1970   -1.8718   -6.1270 H   0  0  0  0  0  0  0  0  0  0  0  0
    0.1638    0.2282   -6.7291 H   0  0  0  0  0  0  0  0  0  0  0  0
   -2.4589    2.4944   -3.9623 H   0  0  0  0  0  0  0  0  0  0  0  0
   -3.7167    0.3646   -3.3773 H   0  0  0  0  0  0  0  0  0  0  0  0
   -0.3130    3.4070   -5.8677 N   0  0  0  0  0  0  0  0  0  0  0  0
    0.1036    4.3984   -6.1126 N   0  0  0  0  0  0  0  0  0  0  0  0
    2.5469    0.9526   -6.8554 S   0  0  0  0  0  0  0  0  0  0  0  0
    3.4717   -0.5117   -6.0852 C   0  0  0  0  0  0  0  0  0  0  0  0
    3.5222    1.5955   -7.7652 O   0  0  0  0  0  0  0  0  0  0  0  0
    2.0496    1.7300   -5.6759 O   0  0  0  0  0  0  0  0  0  0  0  0
    1.3952    0.2388   -7.5937 O   0  0  0  0  0  0  0  0  0  0  0  0
    3.9429   -1.3325   -7.0364 F   0  0  0  0  0  0  0  0  0  0  0  0
    4.4994   -0.0759   -5.3409 F   0  0  0  0  0  0  0  0  0  0  0  0
    2.6380   -1.2184   -5.2889 F   0  0  0  0  0  0  0  0  0  0  0  0
   -3.0786   -1.7950   -4.4707 H   0  0  0  0  0  0  0  0  0  0  0  0
  1  6  1  0  0  0  0
  2  1  2  0  0  0  0
  2  3  1  0  0  0  0
  3  4  2  0  0  0  0
  4  5  1  0  0  0  0
  4  9  1  0  0  0  0
  5 10  1  0  0  0  0
  6 21  1  0  0  0  0
  6  5  2  0  0  0  0
  7  1  1  0  0  0  0
  8  2  1  0  0  0  0
 12 11  3  0  0  0  0
 13 14  1  0  0  0  0
 13 16  1  0  0  0  0
 14 19  1  0  0  0  0
 14 20  1  0  0  0  0
 15 13  2  0  0  0  0
 17 13  2  0  0  0  0
 18 14  1  0  0  0  0
M  RAD  2   3   2  16   2
M  END
