Coordinates from ORCA-job Ph-N2-OTf-B3LYPG-aug-cc-pVDZ-scan-d29-49-n200
 OpenBabel01151817073D

 21 19  0  0  0  0  0  0  0  0999 V2000
   -1.6340   -0.9521   -5.7397 C   0  0  0  0  0  0  0  0  0  0  0  0
   -0.8599    0.2356   -5.7857 C   0  0  0  0  0  0  0  0  0  0  0  0
   -1.3414    1.2056   -5.1313 C   0  0  0  0  0  0  0  0  0  0  0  0
   -2.4316    1.4902   -4.3611 C   0  0  0  0  0  0  0  0  0  0  0  0
   -3.2075    0.3022   -4.3141 C   0  0  0  0  0  0  0  0  0  0  0  0
   -2.8175   -0.8737   -4.9819 C   0  0  0  0  0  0  0  0  0  0  0  0
   -1.3474   -1.8690   -6.2542 H   0  0  0  0  0  0  0  0  0  0  0  0
    0.6739    0.2528   -6.8328 H   0  0  0  0  0  0  0  0  0  0  0  0
   -2.6981    2.4160   -3.8609 H   0  0  0  0  0  0  0  0  0  0  0  0
   -4.1334    0.3190   -3.7364 H   0  0  0  0  0  0  0  0  0  0  0  0
   -0.1263    3.8704   -5.0399 N   0  0  0  0  0  0  0  0  0  0  0  0
    0.5533    4.7376   -5.1043 N   0  0  0  0  0  0  0  0  0  0  0  0
    2.7728    0.8580   -7.0341 S   0  0  0  0  0  0  0  0  0  0  0  0
    3.5898   -0.5651   -6.0783 C   0  0  0  0  0  0  0  0  0  0  0  0
    3.5901    1.0884   -8.2324 O   0  0  0  0  0  0  0  0  0  0  0  0
    2.4779    1.9128   -6.0448 O   0  0  0  0  0  0  0  0  0  0  0  0
    1.4078    0.1167   -7.5086 O   0  0  0  0  0  0  0  0  0  0  0  0
    3.8109   -1.5990   -6.8940 F   0  0  0  0  0  0  0  0  0  0  0  0
    4.7510   -0.1328   -5.5773 F   0  0  0  0  0  0  0  0  0  0  0  0
    2.7881   -0.9521   -5.0761 F   0  0  0  0  0  0  0  0  0  0  0  0
   -3.4572   -1.7546   -4.9094 H   0  0  0  0  0  0  0  0  0  0  0  0
  1  6  1  0  0  0  0
  2  1  2  0  0  0  0
  2  3  1  0  0  0  0
  3  4  2  0  0  0  0
  4  5  1  0  0  0  0
  4  9  1  0  0  0  0
  5 10  1  0  0  0  0
  6 21  1  0  0  0  0
  6  5  2  0  0  0  0
  7  1  1  0  0  0  0
 12 11  3  0  0  0  0
 13 14  1  0  0  0  0
 13 16  2  0  0  0  0
 14 19  1  0  0  0  0
 14 20  1  0  0  0  0
 15 13  2  0  0  0  0
 17 13  1  0  0  0  0
 17  8  1  0  0  0  0
 18 14  1  0  0  0  0
M  RAD  2   2   2   3   2
M  END
