Coordinates from ORCA-job Ph-N2-OTf-B3LYPG-aug-cc-pVDZ-scan-d09-29-n200
 OpenBabel01151817073D

 21 19  0  0  0  0  0  0  0  0999 V2000
   -1.4978   -0.9384   -5.6561 C   0  0  0  0  0  0  0  0  0  0  0  0
   -0.7607    0.2393   -6.0092 C   0  0  0  0  0  0  0  0  0  0  0  0
   -1.2774    1.2227   -5.3137 C   0  0  0  0  0  0  0  0  0  0  0  0
   -2.2230    1.5290   -4.4025 C   0  0  0  0  0  0  0  0  0  0  0  0
   -2.9029    0.3175   -4.1035 C   0  0  0  0  0  0  0  0  0  0  0  0
   -2.5405   -0.8846   -4.7253 C   0  0  0  0  0  0  0  0  0  0  0  0
   -1.1979   -1.8737   -6.1307 H   0  0  0  0  0  0  0  0  0  0  0  0
    0.1668    0.2262   -6.7304 H   0  0  0  0  0  0  0  0  0  0  0  0
   -2.4562    2.4910   -3.9594 H   0  0  0  0  0  0  0  0  0  0  0  0
   -3.7154    0.3609   -3.3772 H   0  0  0  0  0  0  0  0  0  0  0  0
   -0.3118    3.4255   -5.8666 N   0  0  0  0  0  0  0  0  0  0  0  0
    0.1084    4.4156   -6.1105 N   0  0  0  0  0  0  0  0  0  0  0  0
    2.5456    0.9508   -6.8577 S   0  0  0  0  0  0  0  0  0  0  0  0
    3.4694   -0.5111   -6.0819 C   0  0  0  0  0  0  0  0  0  0  0  0
    3.5198    1.5875   -7.7727 O   0  0  0  0  0  0  0  0  0  0  0  0
    2.0501    1.7343   -5.6818 O   0  0  0  0  0  0  0  0  0  0  0  0
    1.3920    0.2342   -7.5917 O   0  0  0  0  0  0  0  0  0  0  0  0
    3.9392   -1.3363   -7.0299 F   0  0  0  0  0  0  0  0  0  0  0  0
    4.4980   -0.0729   -5.3404 F   0  0  0  0  0  0  0  0  0  0  0  0
    2.6355   -1.2133   -5.2821 F   0  0  0  0  0  0  0  0  0  0  0  0
   -3.0792   -1.7976   -4.4738 H   0  0  0  0  0  0  0  0  0  0  0  0
  1  6  1  0  0  0  0
  2  1  2  0  0  0  0
  2  3  1  0  0  0  0
  3  4  2  0  0  0  0
  4  5  1  0  0  0  0
  4  9  1  0  0  0  0
  5 10  1  0  0  0  0
  6 21  1  0  0  0  0
  6  5  2  0  0  0  0
  7  1  1  0  0  0  0
  8  2  1  0  0  0  0
 12 11  3  0  0  0  0
 13 14  1  0  0  0  0
 13 16  1  0  0  0  0
 14 19  1  0  0  0  0
 14 20  1  0  0  0  0
 15 13  2  0  0  0  0
 17 13  2  0  0  0  0
 18 14  1  0  0  0  0
M  RAD  2   3   2  16   2
M  END
