Coordinates from ORCA-job Ph-N2-OTf-B3LYPG-aug-cc-pVDZ-scan-d09-29-n200
 OpenBabel01151817073D

 21 20  0  0  0  0  0  0  0  0999 V2000
   -1.5299   -1.0114   -5.6036 C   0  0  0  0  0  0  0  0  0  0  0  0
   -0.8064    0.0645   -6.1367 C   0  0  0  0  0  0  0  0  0  0  0  0
   -1.1136    1.2687   -5.5543 C   0  0  0  0  0  0  0  0  0  0  0  0
   -1.9934    1.5741   -4.5365 C   0  0  0  0  0  0  0  0  0  0  0  0
   -2.6847    0.4622   -4.0379 C   0  0  0  0  0  0  0  0  0  0  0  0
   -2.4538   -0.8126   -4.5703 C   0  0  0  0  0  0  0  0  0  0  0  0
   -1.3476   -2.0099   -5.9983 H   0  0  0  0  0  0  0  0  0  0  0  0
   -0.0352   -0.0104   -6.9078 H   0  0  0  0  0  0  0  0  0  0  0  0
   -2.1348    2.5787   -4.1475 H   0  0  0  0  0  0  0  0  0  0  0  0
   -3.3996    0.6052   -3.2287 H   0  0  0  0  0  0  0  0  0  0  0  0
   -0.3291    2.6158   -6.1909 N   0  0  0  0  0  0  0  0  0  0  0  0
   -0.0756    3.6061   -6.6081 N   0  0  0  0  0  0  0  0  0  0  0  0
    2.5634    1.2579   -6.5876 S   0  0  0  0  0  0  0  0  0  0  0  0
    3.2572   -0.4520   -6.1454 C   0  0  0  0  0  0  0  0  0  0  0  0
    3.7526    2.0622   -6.9634 O   0  0  0  0  0  0  0  0  0  0  0  0
    1.8512    1.6737   -5.3145 O   0  0  0  0  0  0  0  0  0  0  0  0
    1.5795    0.9539   -7.6990 O   0  0  0  0  0  0  0  0  0  0  0  0
    3.9160   -0.9830   -7.1877 F   0  0  0  0  0  0  0  0  0  0  0  0
    4.0953   -0.3746   -5.1000 F   0  0  0  0  0  0  0  0  0  0  0  0
    2.2481   -1.2969   -5.8133 F   0  0  0  0  0  0  0  0  0  0  0  0
   -2.9979   -1.6655   -4.1656 H   0  0  0  0  0  0  0  0  0  0  0  0
  1  6  1  0  0  0  0
  2  1  2  0  0  0  0
  2  3  1  0  0  0  0
  3  4  2  0  0  0  0
  4  9  1  0  0  0  0
  4  5  1  0  0  0  0
  5 10  1  0  0  0  0
  6 21  1  0  0  0  0
  6  5  2  0  0  0  0
  7  1  1  0  0  0  0
  8  2  1  0  0  0  0
 11  3  1  0  0  0  0
 12 11  1  0  0  0  0
 13 14  1  0  0  0  0
 13 16  1  0  0  0  0
 14 20  1  0  0  0  0
 14 19  1  0  0  0  0
 15 13  2  0  0  0  0
 17 13  2  0  0  0  0
 18 14  1  0  0  0  0
M  RAD  3  11   2  12   3  16   2
M  END
