Coordinates from ORCA-job Ph-N2-OTf-B3LYPG-aug-cc-pVDZ-scan-d29-49-n200
 OpenBabel01151817073D

 21 19  0  0  0  0  0  0  0  0999 V2000
   -1.8163   -1.1495   -5.8521 C   0  0  0  0  0  0  0  0  0  0  0  0
   -0.9169   -0.0594   -5.9207 C   0  0  0  0  0  0  0  0  0  0  0  0
   -1.2309    0.9596   -5.2442 C   0  0  0  0  0  0  0  0  0  0  0  0
   -2.2357    1.3586   -4.4082 C   0  0  0  0  0  0  0  0  0  0  0  0
   -3.1452    0.2706   -4.3315 C   0  0  0  0  0  0  0  0  0  0  0  0
   -2.9386   -0.9346   -5.0285 C   0  0  0  0  0  0  0  0  0  0  0  0
   -1.6694   -2.0879   -6.3858 H   0  0  0  0  0  0  0  0  0  0  0  0
    0.6764   -0.0643   -6.9571 H   0  0  0  0  0  0  0  0  0  0  0  0
   -2.3636    2.3020   -3.8866 H   0  0  0  0  0  0  0  0  0  0  0  0
   -4.0313    0.3899   -3.7054 H   0  0  0  0  0  0  0  0  0  0  0  0
   -0.0125    4.7047   -4.5709 N   0  0  0  0  0  0  0  0  0  0  0  0
    0.7104    5.5314   -4.6846 N   0  0  0  0  0  0  0  0  0  0  0  0
    2.7047    0.7278   -7.1718 S   0  0  0  0  0  0  0  0  0  0  0  0
    3.6042   -0.4569   -5.9910 C   0  0  0  0  0  0  0  0  0  0  0  0
    3.5542    0.8696   -8.3610 O   0  0  0  0  0  0  0  0  0  0  0  0
    2.2577    1.8741   -6.3573 O   0  0  0  0  0  0  0  0  0  0  0  0
    1.4427   -0.2108   -7.5860 O   0  0  0  0  0  0  0  0  0  0  0  0
    3.9683   -1.5646   -6.6410 F   0  0  0  0  0  0  0  0  0  0  0  0
    4.6890    0.1599   -5.5122 F   0  0  0  0  0  0  0  0  0  0  0  0
    2.7913   -0.7818   -4.9760 F   0  0  0  0  0  0  0  0  0  0  0  0
   -3.6766   -1.7317   -4.9254 H   0  0  0  0  0  0  0  0  0  0  0  0
  1  6  1  0  0  0  0
  2  1  2  0  0  0  0
  2  3  1  0  0  0  0
  3  4  2  0  0  0  0
  4  5  1  0  0  0  0
  4  9  1  0  0  0  0
  5 10  1  0  0  0  0
  6 21  1  0  0  0  0
  6  5  2  0  0  0  0
  7  1  1  0  0  0  0
 12 11  3  0  0  0  0
 13 16  2  0  0  0  0
 13 14  1  0  0  0  0
 14 19  1  0  0  0  0
 14 20  1  0  0  0  0
 15 13  2  0  0  0  0
 17 13  1  0  0  0  0
 17  8  1  0  0  0  0
 18 14  1  0  0  0  0
M  RAD  2   2   2   3   2
M  END
