Coordinates from ORCA-job Ph-N2-OTf-B3LYPG-aug-cc-pVDZ-scan-d09-29-n200
 OpenBabel01151817073D

 21 21  0  0  1  0  0  0  0  0999 V2000
   -0.8700   -0.7173   -5.4573 C   0  0  0  0  0  0  0  0  0  0  0  0
   -0.3356    0.5233   -6.0818 C   0  0  1  0  0  0  0  0  0  0  0  0
   -1.2021    1.7793   -5.8230 C   0  0  0  0  0  0  0  0  0  0  0  0
   -2.1011    1.7311   -4.6400 C   0  0  0  0  0  0  0  0  0  0  0  0
   -2.3667    0.5698   -4.0069 C   0  0  0  0  0  0  0  0  0  0  0  0
   -1.7905   -0.6805   -4.4721 C   0  0  0  0  0  0  0  0  0  0  0  0
   -0.4535   -1.6605   -5.8087 H   0  0  0  0  0  0  0  0  0  0  0  0
   -0.1595    0.4275   -7.1581 H   0  0  0  0  0  0  0  0  0  0  0  0
   -2.5403    2.6812   -4.3352 H   0  0  0  0  0  0  0  0  0  0  0  0
   -3.0413    0.5610   -3.1513 H   0  0  0  0  0  0  0  0  0  0  0  0
   -1.1168    2.5851   -6.4269 N   0  0  0  0  0  0  0  0  0  0  0  0
   -1.0134    3.5137   -7.1255 N   0  0  0  0  0  0  0  0  0  0  0  0
    2.3478    0.9563   -6.4088 S   0  0  0  0  0  0  0  0  0  0  0  0
    3.0954   -0.7753   -6.1721 C   0  0  0  0  0  0  0  0  0  0  0  0
    3.2531    1.9029   -5.7461 O   0  0  0  0  0  0  0  0  0  0  0  0
    1.0135    0.8024   -5.4579 O   0  0  0  0  0  0  0  0  0  0  0  0
    1.9644    1.0590   -7.8310 O   0  0  0  0  0  0  0  0  0  0  0  0
    4.2226   -0.8510   -6.8825 F   0  0  0  0  0  0  0  0  0  0  0  0
    3.3579   -0.9910   -4.8832 F   0  0  0  0  0  0  0  0  0  0  0  0
    2.2272   -1.6990   -6.6132 F   0  0  0  0  0  0  0  0  0  0  0  0
   -2.1291   -1.6113   -4.0159 H   0  0  0  0  0  0  0  0  0  0  0  0
  1  6  2  0  0  0  0
  2  8  1  6  0  0  0
  2  3  1  0  0  0  0
  2 16  1  0  0  0  0
  2  1  1  0  0  0  0
  3  4  2  0  0  0  0
  4  9  1  0  0  0  0
  4  5  1  0  0  0  0
  5 10  1  0  0  0  0
  6 21  1  0  0  0  0
  6  5  1  0  0  0  0
  7  1  1  0  0  0  0
 11  3  1  0  0  0  0
 12 11  1  0  0  0  0
 13 14  1  0  0  0  0
 13 15  2  0  0  0  0
 13 16  1  0  0  0  0
 14 19  1  0  0  0  0
 17 13  2  0  0  0  0
 18 14  1  0  0  0  0
 20 14  1  0  0  0  0
M  RAD  3   5   2  11   2  12   3
M  END
