Coordinates from ORCA-job Ph-N2-OTf-B3LYPG-aug-cc-pVDZ-scan-d09-29-n200
 OpenBabel01151817073D

 21 21  0  0  1  0  0  0  0  0999 V2000
   -0.8705   -0.7192   -5.4533 C   0  0  0  0  0  0  0  0  0  0  0  0
   -0.3377    0.5203   -6.0809 C   0  0  1  0  0  0  0  0  0  0  0  0
   -1.2053    1.7690   -5.8242 C   0  0  0  0  0  0  0  0  0  0  0  0
   -2.1023    1.7302   -4.6441 C   0  0  0  0  0  0  0  0  0  0  0  0
   -2.3672    0.5710   -4.0050 C   0  0  0  0  0  0  0  0  0  0  0  0
   -1.7901   -0.6798   -4.4668 C   0  0  0  0  0  0  0  0  0  0  0  0
   -0.4534   -1.6631   -5.8018 H   0  0  0  0  0  0  0  0  0  0  0  0
   -0.1553    0.4204   -7.1557 H   0  0  0  0  0  0  0  0  0  0  0  0
   -2.5430    2.6805   -4.3425 H   0  0  0  0  0  0  0  0  0  0  0  0
   -3.0412    0.5650   -3.1492 H   0  0  0  0  0  0  0  0  0  0  0  0
   -1.1166    2.5910   -6.4395 N   0  0  0  0  0  0  0  0  0  0  0  0
   -1.0114    3.5176   -7.1358 N   0  0  0  0  0  0  0  0  0  0  0  0
    2.3482    0.9589   -6.4003 S   0  0  0  0  0  0  0  0  0  0  0  0
    3.0945   -0.7751   -6.1782 C   0  0  0  0  0  0  0  0  0  0  0  0
    3.2555    1.8991   -5.7309 O   0  0  0  0  0  0  0  0  0  0  0  0
    1.0144    0.8002   -5.4524 O   0  0  0  0  0  0  0  0  0  0  0  0
    1.9663    1.0735   -7.8223 O   0  0  0  0  0  0  0  0  0  0  0  0
    4.2209   -0.8468   -6.8904 F   0  0  0  0  0  0  0  0  0  0  0  0
    3.3582   -1.0016   -4.8913 F   0  0  0  0  0  0  0  0  0  0  0  0
    2.2249   -1.6946   -6.6256 F   0  0  0  0  0  0  0  0  0  0  0  0
   -2.1270   -1.6096   -4.0071 H   0  0  0  0  0  0  0  0  0  0  0  0
  1  6  2  0  0  0  0
  2  8  1  6  0  0  0
  2  3  1  0  0  0  0
  2  1  1  0  0  0  0
  2 16  1  0  0  0  0
  3  4  2  0  0  0  0
  4  9  1  0  0  0  0
  4  5  1  0  0  0  0
  5 10  1  0  0  0  0
  6 21  1  0  0  0  0
  6  5  1  0  0  0  0
  7  1  1  0  0  0  0
 11  3  1  0  0  0  0
 12 11  1  0  0  0  0
 13 14  1  0  0  0  0
 13 15  2  0  0  0  0
 13 16  1  0  0  0  0
 14 19  1  0  0  0  0
 17 13  2  0  0  0  0
 18 14  1  0  0  0  0
 20 14  1  0  0  0  0
M  RAD  3   5   2  11   2  12   3
M  END
