Coordinates from ORCA-job Ph-N2-OTf-B3LYPG-aug-cc-pVDZ-scan-d29-49-n200
 OpenBabel01151817073D

 21 19  0  0  0  0  0  0  0  0999 V2000
   -1.8065   -1.1383   -5.8463 C   0  0  0  0  0  0  0  0  0  0  0  0
   -0.9211   -0.0366   -5.9129 C   0  0  0  0  0  0  0  0  0  0  0  0
   -1.2501    0.9764   -5.2357 C   0  0  0  0  0  0  0  0  0  0  0  0
   -2.2607    1.3642   -4.4020 C   0  0  0  0  0  0  0  0  0  0  0  0
   -3.1564    0.2643   -4.3270 C   0  0  0  0  0  0  0  0  0  0  0  0
   -2.9329   -0.9380   -5.0244 C   0  0  0  0  0  0  0  0  0  0  0  0
   -1.6467   -2.0743   -6.3804 H   0  0  0  0  0  0  0  0  0  0  0  0
    0.6712   -0.0314   -6.9485 H   0  0  0  0  0  0  0  0  0  0  0  0
   -2.4018    2.3055   -3.8798 H   0  0  0  0  0  0  0  0  0  0  0  0
   -4.0450    0.3720   -3.7025 H   0  0  0  0  0  0  0  0  0  0  0  0
    0.0319    4.6139   -4.6236 N   0  0  0  0  0  0  0  0  0  0  0  0
    0.7584    5.4370   -4.7398 N   0  0  0  0  0  0  0  0  0  0  0  0
    2.7055    0.7507   -7.1608 S   0  0  0  0  0  0  0  0  0  0  0  0
    3.5966   -0.4501   -5.9899 C   0  0  0  0  0  0  0  0  0  0  0  0
    3.5542    0.8942   -8.3503 O   0  0  0  0  0  0  0  0  0  0  0  0
    2.2700    1.8953   -6.3371 O   0  0  0  0  0  0  0  0  0  0  0  0
    1.4357   -0.1754   -7.5804 O   0  0  0  0  0  0  0  0  0  0  0  0
    3.9510   -1.5559   -6.6485 F   0  0  0  0  0  0  0  0  0  0  0  0
    4.6869    0.1541   -5.5077 F   0  0  0  0  0  0  0  0  0  0  0  0
    2.7822   -0.7760   -4.9764 F   0  0  0  0  0  0  0  0  0  0  0  0
   -3.6607   -1.7447   -4.9232 H   0  0  0  0  0  0  0  0  0  0  0  0
  1  6  1  0  0  0  0
  2  1  2  0  0  0  0
  2  3  1  0  0  0  0
  3  4  2  0  0  0  0
  4  5  1  0  0  0  0
  4  9  1  0  0  0  0
  5 10  1  0  0  0  0
  6 21  1  0  0  0  0
  6  5  2  0  0  0  0
  7  1  1  0  0  0  0
 12 11  3  0  0  0  0
 13 16  2  0  0  0  0
 13 14  1  0  0  0  0
 14 19  1  0  0  0  0
 14 20  1  0  0  0  0
 15 13  2  0  0  0  0
 17 13  1  0  0  0  0
 17  8  1  0  0  0  0
 18 14  1  0  0  0  0
M  RAD  2   2   2   3   2
M  END
