Coordinates from ORCA-job Ph-N2-OTf-B3LYPG-aug-cc-pVDZ-scan-d29-49-n200
 OpenBabel01151817073D

 21 19  0  0  0  0  0  0  0  0999 V2000
   -1.9598   -1.2573   -5.9010 C   0  0  0  0  0  0  0  0  0  0  0  0
   -0.9409   -0.2786   -5.9813 C   0  0  0  0  0  0  0  0  0  0  0  0
   -1.1279    0.7643   -5.2937 C   0  0  0  0  0  0  0  0  0  0  0  0
   -2.0669    1.2772   -4.4448 C   0  0  0  0  0  0  0  0  0  0  0  0
   -3.0949    0.3008   -4.3583 C   0  0  0  0  0  0  0  0  0  0  0  0
   -3.0385   -0.9176   -5.0613 C   0  0  0  0  0  0  0  0  0  0  0  0
   -1.9310   -2.2037   -6.4401 H   0  0  0  0  0  0  0  0  0  0  0  0
    0.6585   -0.2906   -7.0062 H   0  0  0  0  0  0  0  0  0  0  0  0
   -2.0766    2.2274   -3.9199 H   0  0  0  0  0  0  0  0  0  0  0  0
   -3.9522    0.5189   -3.7189 H   0  0  0  0  0  0  0  0  0  0  0  0
    0.2718    4.5897   -4.5203 N   0  0  0  0  0  0  0  0  0  0  0  0
    1.0563    5.3444   -4.7038 N   0  0  0  0  0  0  0  0  0  0  0  0
    2.5630    0.7652   -7.1614 S   0  0  0  0  0  0  0  0  0  0  0  0
    3.5818   -0.2298   -5.9051 C   0  0  0  0  0  0  0  0  0  0  0  0
    3.4316    1.0008   -8.3211 O   0  0  0  0  0  0  0  0  0  0  0  0
    1.9121    1.8548   -6.4067 O   0  0  0  0  0  0  0  0  0  0  0  0
    1.4754   -0.3664   -7.5835 O   0  0  0  0  0  0  0  0  0  0  0  0
    4.1316   -1.2915   -6.4982 F   0  0  0  0  0  0  0  0  0  0  0  0
    4.5432    0.5599   -5.4161 F   0  0  0  0  0  0  0  0  0  0  0  0
    2.7882   -0.6374   -4.9052 F   0  0  0  0  0  0  0  0  0  0  0  0
   -3.8630   -1.6237   -4.9505 H   0  0  0  0  0  0  0  0  0  0  0  0
  1  6  1  0  0  0  0
  2  1  2  0  0  0  0
  2  3  1  0  0  0  0
  3  4  2  0  0  0  0
  4  5  1  0  0  0  0
  4  9  1  0  0  0  0
  5 10  1  0  0  0  0
  6 21  1  0  0  0  0
  6  5  2  0  0  0  0
  7  1  1  0  0  0  0
 12 11  3  0  0  0  0
 13 16  2  0  0  0  0
 13 14  1  0  0  0  0
 14 19  1  0  0  0  0
 14 20  1  0  0  0  0
 15 13  2  0  0  0  0
 17 13  1  0  0  0  0
 17  8  1  0  0  0  0
 18 14  1  0  0  0  0
M  RAD  2   2   2   3   2
M  END
