Coordinates from ORCA-job Ph-N2-OTf-B3LYPG-aug-cc-pVDZ-scan-d29-49-n200
 OpenBabel01151817073D

 21 19  0  0  0  0  0  0  0  0999 V2000
   -1.7115   -1.0198   -5.7976 C   0  0  0  0  0  0  0  0  0  0  0  0
   -0.9008    0.1417   -5.8407 C   0  0  0  0  0  0  0  0  0  0  0  0
   -1.3271    1.1204   -5.1638 C   0  0  0  0  0  0  0  0  0  0  0  0
   -2.3857    1.4308   -4.3592 C   0  0  0  0  0  0  0  0  0  0  0  0
   -3.2013    0.2690   -4.3115 C   0  0  0  0  0  0  0  0  0  0  0  0
   -2.8713   -0.9092   -5.0071 C   0  0  0  0  0  0  0  0  0  0  0  0
   -1.4703   -1.9384   -6.3318 H   0  0  0  0  0  0  0  0  0  0  0  0
    0.6630    0.1445   -6.8769 H   0  0  0  0  0  0  0  0  0  0  0  0
   -2.6072    2.3568   -3.8380 H   0  0  0  0  0  0  0  0  0  0  0  0
   -4.1116    0.3089   -3.7106 H   0  0  0  0  0  0  0  0  0  0  0  0
    0.0301    4.1308   -4.9084 N   0  0  0  0  0  0  0  0  0  0  0  0
    0.7227    4.9874   -4.9777 N   0  0  0  0  0  0  0  0  0  0  0  0
    2.7361    0.8219   -7.0922 S   0  0  0  0  0  0  0  0  0  0  0  0
    3.5938   -0.4952   -6.0264 C   0  0  0  0  0  0  0  0  0  0  0  0
    3.5618    0.9998   -8.2935 O   0  0  0  0  0  0  0  0  0  0  0  0
    2.3816    1.9308   -6.1851 O   0  0  0  0  0  0  0  0  0  0  0  0
    1.4097   -0.0086   -7.5312 O   0  0  0  0  0  0  0  0  0  0  0  0
    3.8699   -1.5739   -6.7633 F   0  0  0  0  0  0  0  0  0  0  0  0
    4.7282    0.0195   -5.5419 F   0  0  0  0  0  0  0  0  0  0  0  0
    2.7920   -0.8429   -5.0101 F   0  0  0  0  0  0  0  0  0  0  0  0
   -3.5405   -1.7677   -4.9302 H   0  0  0  0  0  0  0  0  0  0  0  0
  1  6  1  0  0  0  0
  2  1  2  0  0  0  0
  2  3  1  0  0  0  0
  3  4  2  0  0  0  0
  4  5  1  0  0  0  0
  4  9  1  0  0  0  0
  5 10  1  0  0  0  0
  6 21  1  0  0  0  0
  6  5  2  0  0  0  0
  7  1  1  0  0  0  0
 12 11  3  0  0  0  0
 13 16  2  0  0  0  0
 13 14  1  0  0  0  0
 14 19  1  0  0  0  0
 14 20  1  0  0  0  0
 15 13  2  0  0  0  0
 17 13  1  0  0  0  0
 17  8  1  0  0  0  0
 18 14  1  0  0  0  0
M  RAD  2   2   2   3   2
M  END
