Coordinates from ORCA-job Ph-N2-OTf-B3LYPG-aug-cc-pVDZ-scan-d09-29-n200
 OpenBabel01151817073D

 21 21  0  0  1  0  0  0  0  0999 V2000
   -0.8824   -0.7479   -5.3755 C   0  0  0  0  0  0  0  0  0  0  0  0
   -0.3458    0.4639   -6.0426 C   0  0  1  0  0  0  0  0  0  0  0  0
   -1.2043    1.6780   -5.8183 C   0  0  0  0  0  0  0  0  0  0  0  0
   -2.1277    1.7263   -4.6939 C   0  0  0  0  0  0  0  0  0  0  0  0
   -2.4053    0.5955   -3.9983 C   0  0  0  0  0  0  0  0  0  0  0  0
   -1.8126   -0.6653   -4.3956 C   0  0  0  0  0  0  0  0  0  0  0  0
   -0.4617   -1.7058   -5.6768 H   0  0  0  0  0  0  0  0  0  0  0  0
   -0.1075    0.3238   -7.0997 H   0  0  0  0  0  0  0  0  0  0  0  0
   -2.5886    2.6834   -4.4513 H   0  0  0  0  0  0  0  0  0  0  0  0
   -3.1007    0.6243   -3.1610 H   0  0  0  0  0  0  0  0  0  0  0  0
   -1.0785    2.6182   -6.5558 N   0  0  0  0  0  0  0  0  0  0  0  0
   -0.9542    3.5118   -7.2601 N   0  0  0  0  0  0  0  0  0  0  0  0
    2.3565    0.9899   -6.2981 S   0  0  0  0  0  0  0  0  0  0  0  0
    3.1031   -0.7571   -6.2831 C   0  0  0  0  0  0  0  0  0  0  0  0
    3.2854    1.8509   -5.5524 O   0  0  0  0  0  0  0  0  0  0  0  0
    1.0407    0.7402   -5.3707 O   0  0  0  0  0  0  0  0  0  0  0  0
    1.9661    1.2601   -7.6992 O   0  0  0  0  0  0  0  0  0  0  0  0
    4.2073   -0.7606   -7.0339 F   0  0  0  0  0  0  0  0  0  0  0  0
    3.4060   -1.1199   -5.0357 F   0  0  0  0  0  0  0  0  0  0  0  0
    2.2150   -1.6259   -6.7956 F   0  0  0  0  0  0  0  0  0  0  0  0
   -2.1487   -1.5770   -3.8999 H   0  0  0  0  0  0  0  0  0  0  0  0
  1  6  2  0  0  0  0
  2  8  1  6  0  0  0
  2  3  1  0  0  0  0
  2  1  1  0  0  0  0
  2 16  1  0  0  0  0
  3  4  2  0  0  0  0
  4  9  1  0  0  0  0
  4  5  1  0  0  0  0
  5 10  1  0  0  0  0
  6  5  1  0  0  0  0
  6 21  1  0  0  0  0
  7  1  1  0  0  0  0
 11  3  1  0  0  0  0
 12 11  1  0  0  0  0
 13 14  1  0  0  0  0
 13 15  2  0  0  0  0
 13 16  1  0  0  0  0
 14 19  1  0  0  0  0
 17 13  2  0  0  0  0
 18 14  1  0  0  0  0
 20 14  1  0  0  0  0
M  RAD  3   5   2  11   2  12   3
M  END
