Coordinates from ORCA-job Ph-N2-OTf-B3LYPG-aug-cc-pVDZ-scan-d09-29-n200
 OpenBabel01151817073D

 21 20  0  0  0  0  0  0  0  0999 V2000
   -1.5329   -1.0045   -5.6051 C   0  0  0  0  0  0  0  0  0  0  0  0
   -0.8032    0.0773   -6.1269 C   0  0  0  0  0  0  0  0  0  0  0  0
   -1.1320    1.2597   -5.5290 C   0  0  0  0  0  0  0  0  0  0  0  0
   -2.0114    1.5765   -4.5227 C   0  0  0  0  0  0  0  0  0  0  0  0
   -2.7052    0.4552   -4.0399 C   0  0  0  0  0  0  0  0  0  0  0  0
   -2.4666   -0.8146   -4.5793 C   0  0  0  0  0  0  0  0  0  0  0  0
   -1.3431   -1.9992   -6.0065 H   0  0  0  0  0  0  0  0  0  0  0  0
   -0.0216    0.0129   -6.8921 H   0  0  0  0  0  0  0  0  0  0  0  0
   -2.1562    2.5785   -4.1299 H   0  0  0  0  0  0  0  0  0  0  0  0
   -3.4280    0.5931   -3.2365 H   0  0  0  0  0  0  0  0  0  0  0  0
   -0.3109    2.6686   -6.1756 N   0  0  0  0  0  0  0  0  0  0  0  0
   -0.0775    3.6670   -6.5841 N   0  0  0  0  0  0  0  0  0  0  0  0
    2.5589    1.2307   -6.6113 S   0  0  0  0  0  0  0  0  0  0  0  0
    3.2848   -0.4584   -6.1415 C   0  0  0  0  0  0  0  0  0  0  0  0
    3.7294    2.0478   -7.0169 O   0  0  0  0  0  0  0  0  0  0  0  0
    1.8533    1.6576   -5.3385 O   0  0  0  0  0  0  0  0  0  0  0  0
    1.5706    0.8877   -7.7075 O   0  0  0  0  0  0  0  0  0  0  0  0
    3.9427   -0.9997   -7.1790 F   0  0  0  0  0  0  0  0  0  0  0  0
    4.1310   -0.3464   -5.1057 F   0  0  0  0  0  0  0  0  0  0  0  0
    2.2922   -1.3117   -5.7833 F   0  0  0  0  0  0  0  0  0  0  0  0
   -3.0127   -1.6715   -4.1860 H   0  0  0  0  0  0  0  0  0  0  0  0
  1  6  1  0  0  0  0
  2  1  2  0  0  0  0
  2  3  1  0  0  0  0
  3  4  2  0  0  0  0
  4  9  1  0  0  0  0
  4  5  1  0  0  0  0
  5 10  1  0  0  0  0
  6 21  1  0  0  0  0
  6  5  2  0  0  0  0
  7  1  1  0  0  0  0
  8  2  1  0  0  0  0
 11  3  1  0  0  0  0
 12 11  1  0  0  0  0
 13 14  1  0  0  0  0
 13 16  1  0  0  0  0
 14 20  1  0  0  0  0
 14 19  1  0  0  0  0
 15 13  2  0  0  0  0
 17 13  2  0  0  0  0
 18 14  1  0  0  0  0
M  RAD  3  11   2  12   3  16   2
M  END
