Coordinates from ORCA-job Ph-N2-OTf-B3LYPG-aug-cc-pVDZ-scan-d29-49-n200
 OpenBabel01151817073D

 21 19  0  0  0  0  0  0  0  0999 V2000
   -2.0302   -1.3627   -5.8989 C   0  0  0  0  0  0  0  0  0  0  0  0
   -0.9423   -0.4707   -6.0426 C   0  0  0  0  0  0  0  0  0  0  0  0
   -1.0282    0.6115   -5.3986 C   0  0  0  0  0  0  0  0  0  0  0  0
   -1.9039    1.2361   -4.5557 C   0  0  0  0  0  0  0  0  0  0  0  0
   -3.0019    0.3474   -4.4049 C   0  0  0  0  0  0  0  0  0  0  0  0
   -3.0581   -0.9017   -5.0531 C   0  0  0  0  0  0  0  0  0  0  0  0
   -2.0888   -2.3305   -6.3957 H   0  0  0  0  0  0  0  0  0  0  0  0
    0.6879   -0.4707   -7.0655 H   0  0  0  0  0  0  0  0  0  0  0  0
   -1.8306    2.2058   -4.0725 H   0  0  0  0  0  0  0  0  0  0  0  0
   -3.8243    0.6596   -3.7587 H   0  0  0  0  0  0  0  0  0  0  0  0
    0.0971    5.1036   -4.2167 N   0  0  0  0  0  0  0  0  0  0  0  0
    0.8592    5.8756   -4.4221 N   0  0  0  0  0  0  0  0  0  0  0  0
    2.5338    0.6836   -7.1745 S   0  0  0  0  0  0  0  0  0  0  0  0
    3.5879   -0.2763   -5.9199 C   0  0  0  0  0  0  0  0  0  0  0  0
    3.4036    0.9872   -8.3170 O   0  0  0  0  0  0  0  0  0  0  0  0
    1.8144    1.7242   -6.4109 O   0  0  0  0  0  0  0  0  0  0  0  0
    1.5145   -0.4978   -7.6308 O   0  0  0  0  0  0  0  0  0  0  0  0
    4.2011   -1.2971   -6.5223 F   0  0  0  0  0  0  0  0  0  0  0  0
    4.4992    0.5556   -5.4057 F   0  0  0  0  0  0  0  0  0  0  0  0
    2.8042   -0.7416   -4.9378 F   0  0  0  0  0  0  0  0  0  0  0  0
   -3.9328   -1.5342   -4.8934 H   0  0  0  0  0  0  0  0  0  0  0  0
  1  6  1  0  0  0  0
  2  1  2  0  0  0  0
  2  3  1  0  0  0  0
  3  4  2  0  0  0  0
  4  5  1  0  0  0  0
  4  9  1  0  0  0  0
  5 10  1  0  0  0  0
  6 21  1  0  0  0  0
  6  5  2  0  0  0  0
  7  1  1  0  0  0  0
 12 11  3  0  0  0  0
 13 16  2  0  0  0  0
 13 14  1  0  0  0  0
 14 19  1  0  0  0  0
 14 20  1  0  0  0  0
 15 13  2  0  0  0  0
 17 13  1  0  0  0  0
 17  8  1  0  0  0  0
 18 14  1  0  0  0  0
M  RAD  2   2   2   3   2
M  END
