Coordinates from ORCA-job Ph-N2-OTf-B3LYPG-aug-cc-pVDZ-scan-d09-29-n200
 OpenBabel01151817073D

 21 19  0  0  0  0  0  0  0  0999 V2000
   -1.6266   -0.9251   -5.6105 C   0  0  0  0  0  0  0  0  0  0  0  0
   -0.8118    0.1769   -5.9733 C   0  0  0  0  0  0  0  0  0  0  0  0
   -1.2385    1.2760   -5.3303 C   0  0  0  0  0  0  0  0  0  0  0  0
   -2.2168    1.5967   -4.4375 C   0  0  0  0  0  0  0  0  0  0  0  0
   -2.9800    0.4534   -4.1216 C   0  0  0  0  0  0  0  0  0  0  0  0
   -2.6833   -0.7844   -4.7052 C   0  0  0  0  0  0  0  0  0  0  0  0
   -1.3901   -1.8919   -6.0551 H   0  0  0  0  0  0  0  0  0  0  0  0
    0.0682    0.1086   -6.6615 H   0  0  0  0  0  0  0  0  0  0  0  0
   -2.4002    2.5790   -4.0144 H   0  0  0  0  0  0  0  0  0  0  0  0
   -3.8013    0.5620   -3.4135 H   0  0  0  0  0  0  0  0  0  0  0  0
   -0.2306    2.9078   -5.8030 N   0  0  0  0  0  0  0  0  0  0  0  0
    0.0774    3.9401   -6.0392 N   0  0  0  0  0  0  0  0  0  0  0  0
    2.5387    0.9494   -6.8414 S   0  0  0  0  0  0  0  0  0  0  0  0
    3.6597   -0.4259   -6.1734 C   0  0  0  0  0  0  0  0  0  0  0  0
    3.4330    1.8275   -7.6362 O   0  0  0  0  0  0  0  0  0  0  0  0
    1.9482    1.5462   -5.5842 O   0  0  0  0  0  0  0  0  0  0  0  0
    1.5004    0.1770   -7.6413 O   0  0  0  0  0  0  0  0  0  0  0  0
    4.2462   -1.0914   -7.1817 F   0  0  0  0  0  0  0  0  0  0  0  0
    4.6168    0.0868   -5.3825 F   0  0  0  0  0  0  0  0  0  0  0  0
    2.9370   -1.3074   -5.4474 F   0  0  0  0  0  0  0  0  0  0  0  0
   -3.2846   -1.6546   -4.4439 H   0  0  0  0  0  0  0  0  0  0  0  0
  1  6  1  0  0  0  0
  2  1  2  0  0  0  0
  2  3  1  0  0  0  0
  3  4  2  0  0  0  0
  4  5  1  0  0  0  0
  4  9  1  0  0  0  0
  5 10  1  0  0  0  0
  6 21  1  0  0  0  0
  6  5  2  0  0  0  0
  7  1  1  0  0  0  0
  8  2  1  0  0  0  0
 12 11  3  0  0  0  0
 13 14  1  0  0  0  0
 13 16  1  0  0  0  0
 14 20  1  0  0  0  0
 14 19  1  0  0  0  0
 15 13  2  0  0  0  0
 17 13  2  0  0  0  0
 18 14  1  0  0  0  0
M  RAD  2   3   2  16   2
M  END
