Coordinates from ORCA-job Ph-N2-OTf-B3LYPG-aug-cc-pVDZ-scan-d29-49-n200
 OpenBabel01151817073D

 21 19  0  0  0  0  0  0  0  0999 V2000
   -1.7095   -1.0177   -5.7966 C   0  0  0  0  0  0  0  0  0  0  0  0
   -0.9000    0.1447   -5.8398 C   0  0  0  0  0  0  0  0  0  0  0  0
   -1.3278    1.1230   -5.1631 C   0  0  0  0  0  0  0  0  0  0  0  0
   -2.3870    1.4323   -4.3588 C   0  0  0  0  0  0  0  0  0  0  0  0
   -3.2013    0.2696   -4.3112 C   0  0  0  0  0  0  0  0  0  0  0  0
   -2.8698   -0.9083   -5.0066 C   0  0  0  0  0  0  0  0  0  0  0  0
   -1.4672   -1.9361   -6.3306 H   0  0  0  0  0  0  0  0  0  0  0  0
    0.6632    0.1475   -6.8760 H   0  0  0  0  0  0  0  0  0  0  0  0
   -2.6096    2.3581   -3.8378 H   0  0  0  0  0  0  0  0  0  0  0  0
   -4.1118    0.3086   -3.7106 H   0  0  0  0  0  0  0  0  0  0  0  0
    0.0262    4.1241   -4.9124 N   0  0  0  0  0  0  0  0  0  0  0  0
    0.7185    4.9810   -4.9814 N   0  0  0  0  0  0  0  0  0  0  0  0
    2.7371    0.8228   -7.0907 S   0  0  0  0  0  0  0  0  0  0  0  0
    3.5936   -0.4971   -6.0274 C   0  0  0  0  0  0  0  0  0  0  0  0
    3.5627    1.0018   -8.2919 O   0  0  0  0  0  0  0  0  0  0  0  0
    2.3841    1.9305   -6.1817 O   0  0  0  0  0  0  0  0  0  0  0  0
    1.4096   -0.0055   -7.5307 O   0  0  0  0  0  0  0  0  0  0  0  0
    3.8682   -1.5748   -6.7663 F   0  0  0  0  0  0  0  0  0  0  0  0
    4.7287    0.0155   -5.5423 F   0  0  0  0  0  0  0  0  0  0  0  0
    2.7917   -0.8456   -5.0115 F   0  0  0  0  0  0  0  0  0  0  0  0
   -3.5380   -1.7676   -4.9298 H   0  0  0  0  0  0  0  0  0  0  0  0
  1  6  1  0  0  0  0
  2  1  2  0  0  0  0
  2  3  1  0  0  0  0
  3  4  2  0  0  0  0
  4  5  1  0  0  0  0
  4  9  1  0  0  0  0
  5 10  1  0  0  0  0
  6 21  1  0  0  0  0
  6  5  2  0  0  0  0
  7  1  1  0  0  0  0
 12 11  3  0  0  0  0
 13 16  2  0  0  0  0
 13 14  1  0  0  0  0
 14 19  1  0  0  0  0
 14 20  1  0  0  0  0
 15 13  2  0  0  0  0
 17 13  1  0  0  0  0
 17  8  1  0  0  0  0
 18 14  1  0  0  0  0
M  RAD  2   2   2   3   2
M  END
