Coordinates from ORCA-job Ph-N2-OTf-B3LYPG-aug-cc-pVDZ-scan-d29-49-n200
 OpenBabel01151817073D

 21 19  0  0  0  0  0  0  0  0999 V2000
   -1.7469   -1.0635   -5.8213 C   0  0  0  0  0  0  0  0  0  0  0  0
   -0.9161    0.0827   -5.8694 C   0  0  0  0  0  0  0  0  0  0  0  0
   -1.3130    1.0692   -5.1869 C   0  0  0  0  0  0  0  0  0  0  0  0
   -2.3557    1.3979   -4.3684 C   0  0  0  0  0  0  0  0  0  0  0  0
   -3.1928    0.2517   -4.3139 C   0  0  0  0  0  0  0  0  0  0  0  0
   -2.8946   -0.9312   -5.0163 C   0  0  0  0  0  0  0  0  0  0  0  0
   -1.5300   -1.9853   -6.3602 H   0  0  0  0  0  0  0  0  0  0  0  0
    0.6574    0.0856   -6.9037 H   0  0  0  0  0  0  0  0  0  0  0  0
   -2.5530    2.3266   -3.8422 H   0  0  0  0  0  0  0  0  0  0  0  0
   -4.0951    0.3076   -3.7024 H   0  0  0  0  0  0  0  0  0  0  0  0
    0.1014    4.2970   -4.8187 N   0  0  0  0  0  0  0  0  0  0  0  0
    0.8174    5.1322   -4.9095 N   0  0  0  0  0  0  0  0  0  0  0  0
    2.7157    0.8037   -7.1214 S   0  0  0  0  0  0  0  0  0  0  0  0
    3.5847   -0.4607   -6.0020 C   0  0  0  0  0  0  0  0  0  0  0  0
    3.5522    0.9574   -8.3184 O   0  0  0  0  0  0  0  0  0  0  0  0
    2.3291    1.9348   -6.2561 O   0  0  0  0  0  0  0  0  0  0  0  0
    1.4109   -0.0670   -7.5489 O   0  0  0  0  0  0  0  0  0  0  0  0
    3.8920   -1.5569   -6.6994 F   0  0  0  0  0  0  0  0  0  0  0  0
    4.7018    0.0924   -5.5198 F   0  0  0  0  0  0  0  0  0  0  0  0
    2.7759   -0.7911   -4.9854 F   0  0  0  0  0  0  0  0  0  0  0  0
   -3.5797   -1.7764   -4.9329 H   0  0  0  0  0  0  0  0  0  0  0  0
  1  6  1  0  0  0  0
  2  1  2  0  0  0  0
  2  3  1  0  0  0  0
  3  4  2  0  0  0  0
  4  5  1  0  0  0  0
  4  9  1  0  0  0  0
  5 10  1  0  0  0  0
  6 21  1  0  0  0  0
  6  5  2  0  0  0  0
  7  1  1  0  0  0  0
 12 11  3  0  0  0  0
 13 16  2  0  0  0  0
 13 14  1  0  0  0  0
 14 19  1  0  0  0  0
 14 20  1  0  0  0  0
 15 13  2  0  0  0  0
 17 13  1  0  0  0  0
 17  8  1  0  0  0  0
 18 14  1  0  0  0  0
M  RAD  2   2   2   3   2
M  END
