Coordinates from ORCA-job Ph-N2-OTf-B3LYPG-aug-cc-pVDZ-scan-d09-29-n200
 OpenBabel01151817073D

 21 19  0  0  0  0  0  0  0  0999 V2000
   -1.5863   -0.9193   -5.6115 C   0  0  0  0  0  0  0  0  0  0  0  0
   -0.7932    0.2044   -5.9723 C   0  0  0  0  0  0  0  0  0  0  0  0
   -1.2563    1.2747   -5.3227 C   0  0  0  0  0  0  0  0  0  0  0  0
   -2.2353    1.5890   -4.4343 C   0  0  0  0  0  0  0  0  0  0  0  0
   -2.9741    0.4255   -4.1238 C   0  0  0  0  0  0  0  0  0  0  0  0
   -2.6483   -0.8041   -4.7093 C   0  0  0  0  0  0  0  0  0  0  0  0
   -1.3230   -1.8786   -6.0579 H   0  0  0  0  0  0  0  0  0  0  0  0
    0.0994    0.1498   -6.6611 H   0  0  0  0  0  0  0  0  0  0  0  0
   -2.4397    2.5673   -4.0118 H   0  0  0  0  0  0  0  0  0  0  0  0
   -3.7998    0.5165   -3.4181 H   0  0  0  0  0  0  0  0  0  0  0  0
   -0.2566    3.0045   -5.8073 N   0  0  0  0  0  0  0  0  0  0  0  0
    0.0710    4.0296   -6.0468 N   0  0  0  0  0  0  0  0  0  0  0  0
    2.5442    0.9496   -6.8428 S   0  0  0  0  0  0  0  0  0  0  0  0
    3.6227   -0.4536   -6.1636 C   0  0  0  0  0  0  0  0  0  0  0  0
    3.4575    1.7737   -7.6719 O   0  0  0  0  0  0  0  0  0  0  0  0
    1.9832    1.5882   -5.5977 O   0  0  0  0  0  0  0  0  0  0  0  0
    1.4715    0.1932   -7.6214 O   0  0  0  0  0  0  0  0  0  0  0  0
    4.1751   -1.1571   -7.1652 F   0  0  0  0  0  0  0  0  0  0  0  0
    4.6048    0.0380   -5.3905 F   0  0  0  0  0  0  0  0  0  0  0  0
    2.8758   -1.2964   -5.4155 F   0  0  0  0  0  0  0  0  0  0  0  0
   -3.2308   -1.6881   -4.4520 H   0  0  0  0  0  0  0  0  0  0  0  0
  1  6  1  0  0  0  0
  2  1  2  0  0  0  0
  2  3  1  0  0  0  0
  3  4  2  0  0  0  0
  4  5  1  0  0  0  0
  4  9  1  0  0  0  0
  5 10  1  0  0  0  0
  6 21  1  0  0  0  0
  6  5  2  0  0  0  0
  7  1  1  0  0  0  0
  8  2  1  0  0  0  0
 12 11  3  0  0  0  0
 13 14  1  0  0  0  0
 13 16  1  0  0  0  0
 14 20  1  0  0  0  0
 14 19  1  0  0  0  0
 15 13  2  0  0  0  0
 17 13  2  0  0  0  0
 18 14  1  0  0  0  0
M  RAD  2   3   2  16   2
M  END
