Coordinates from ORCA-job Ph-N2-OTf-B3LYPG-aug-cc-pVDZ-scan-d09-29-n200
 OpenBabel01151817073D

 21 20  0  0  0  0  0  0  0  0999 V2000
   -1.4405   -0.9856   -5.5179 C   0  0  0  0  0  0  0  0  0  0  0  0
   -0.7772    0.0992   -6.0886 C   0  0  0  0  0  0  0  0  0  0  0  0
   -1.1368    1.3578   -5.6041 C   0  0  0  0  0  0  0  0  0  0  0  0
   -2.0902    1.6121   -4.6108 C   0  0  0  0  0  0  0  0  0  0  0  0
   -2.7271    0.5005   -4.0669 C   0  0  0  0  0  0  0  0  0  0  0  0
   -2.4030   -0.7871   -4.5199 C   0  0  0  0  0  0  0  0  0  0  0  0
   -1.1890   -1.9922   -5.8482 H   0  0  0  0  0  0  0  0  0  0  0  0
    0.0087    0.0208   -6.8417 H   0  0  0  0  0  0  0  0  0  0  0  0
   -2.3086    2.6248   -4.2787 H   0  0  0  0  0  0  0  0  0  0  0  0
   -3.4729    0.6386   -3.2856 H   0  0  0  0  0  0  0  0  0  0  0  0
   -0.4827    2.5199   -6.1804 N   0  0  0  0  0  0  0  0  0  0  0  0
   -0.0410    3.4427   -6.6031 N   0  0  0  0  0  0  0  0  0  0  0  0
    2.5946    1.2709   -6.5161 S   0  0  0  0  0  0  0  0  0  0  0  0
    3.2441   -0.4919   -6.2433 C   0  0  0  0  0  0  0  0  0  0  0  0
    3.8082    2.0719   -6.8165 O   0  0  0  0  0  0  0  0  0  0  0  0
    1.8861    1.5819   -5.2173 O   0  0  0  0  0  0  0  0  0  0  0  0
    1.6115    1.0944   -7.6576 O   0  0  0  0  0  0  0  0  0  0  0  0
    3.9109   -0.9316   -7.3224 F   0  0  0  0  0  0  0  0  0  0  0  0
    4.0627   -0.5455   -5.1806 F   0  0  0  0  0  0  0  0  0  0  0  0
    2.2101   -1.3461   -6.0169 F   0  0  0  0  0  0  0  0  0  0  0  0
   -2.9062   -1.6485   -4.0806 H   0  0  0  0  0  0  0  0  0  0  0  0
  1  6  2  0  0  0  0
  2  3  2  0  0  0  0
  2  1  1  0  0  0  0
  3  4  1  0  0  0  0
  4  9  1  0  0  0  0
  4  5  2  0  0  0  0
  5 10  1  0  0  0  0
  6 21  1  0  0  0  0
  6  5  1  0  0  0  0
  7  1  1  0  0  0  0
  8  2  1  0  0  0  0
 11  3  1  0  0  0  0
 12 11  1  0  0  0  0
 13 14  1  0  0  0  0
 13 16  1  0  0  0  0
 14 20  1  0  0  0  0
 14 19  1  0  0  0  0
 15 13  2  0  0  0  0
 17 13  2  0  0  0  0
 18 14  1  0  0  0  0
M  RAD  3  11   2  12   3  16   2
M  END
