Coordinates from ORCA-job Ph-N2-OTf-B3LYPG-aug-cc-pVDZ-scan-d09-29-n200
 OpenBabel01151817073D

 21 19  0  0  0  0  0  0  0  0999 V2000
   -1.6405   -0.9275   -5.6102 C   0  0  0  0  0  0  0  0  0  0  0  0
   -0.8184    0.1663   -5.9749 C   0  0  0  0  0  0  0  0  0  0  0  0
   -1.2301    1.2765   -5.3348 C   0  0  0  0  0  0  0  0  0  0  0  0
   -2.2074    1.5995   -4.4395 C   0  0  0  0  0  0  0  0  0  0  0  0
   -2.9793    0.4642   -4.1203 C   0  0  0  0  0  0  0  0  0  0  0  0
   -2.6942   -0.7769   -4.7028 C   0  0  0  0  0  0  0  0  0  0  0  0
   -1.4144   -1.8971   -6.0539 H   0  0  0  0  0  0  0  0  0  0  0  0
    0.0563    0.0929   -6.6640 H   0  0  0  0  0  0  0  0  0  0  0  0
   -2.3824    2.5835   -4.0163 H   0  0  0  0  0  0  0  0  0  0  0  0
   -3.7980    0.5796   -3.4105 H   0  0  0  0  0  0  0  0  0  0  0  0
   -0.2219    2.8724   -5.8045 N   0  0  0  0  0  0  0  0  0  0  0  0
    0.0745    3.9083   -6.0406 N   0  0  0  0  0  0  0  0  0  0  0  0
    2.5357    0.9496   -6.8390 S   0  0  0  0  0  0  0  0  0  0  0  0
    3.6711   -0.4166   -6.1764 C   0  0  0  0  0  0  0  0  0  0  0  0
    3.4233    1.8496   -7.6171 O   0  0  0  0  0  0  0  0  0  0  0  0
    1.9326    1.5270   -5.5767 O   0  0  0  0  0  0  0  0  0  0  0  0
    1.5114    0.1742   -7.6505 O   0  0  0  0  0  0  0  0  0  0  0  0
    4.2718   -1.0648   -7.1877 F   0  0  0  0  0  0  0  0  0  0  0  0
    4.6172    0.1016   -5.3758 F   0  0  0  0  0  0  0  0  0  0  0  0
    2.9564   -1.3140   -5.4626 F   0  0  0  0  0  0  0  0  0  0  0  0
   -3.3021   -1.6416   -4.4390 H   0  0  0  0  0  0  0  0  0  0  0  0
  1  6  1  0  0  0  0
  2  1  2  0  0  0  0
  2  3  1  0  0  0  0
  3  4  2  0  0  0  0
  4  5  1  0  0  0  0
  4  9  1  0  0  0  0
  5 10  1  0  0  0  0
  6 21  1  0  0  0  0
  6  5  2  0  0  0  0
  7  1  1  0  0  0  0
  8  2  1  0  0  0  0
 12 11  3  0  0  0  0
 13 14  1  0  0  0  0
 13 16  1  0  0  0  0
 14 20  1  0  0  0  0
 14 19  1  0  0  0  0
 15 13  2  0  0  0  0
 17 13  2  0  0  0  0
 18 14  1  0  0  0  0
M  RAD  2   3   2  16   2
M  END
