Coordinates from ORCA-job Ph-N2-OTf-B3LYPG-aug-cc-pVDZ-scan-d09-29-n200
 OpenBabel01151817073D

 21 20  0  0  0  0  0  0  0  0999 V2000
   -1.4095   -0.9622   -5.4865 C   0  0  0  0  0  0  0  0  0  0  0  0
   -0.7671    0.1223   -6.0710 C   0  0  0  0  0  0  0  0  0  0  0  0
   -1.1419    1.4129   -5.6342 C   0  0  0  0  0  0  0  0  0  0  0  0
   -2.1236    1.6344   -4.6390 C   0  0  0  0  0  0  0  0  0  0  0  0
   -2.7396    0.5271   -4.0774 C   0  0  0  0  0  0  0  0  0  0  0  0
   -2.3839   -0.7642   -4.5005 C   0  0  0  0  0  0  0  0  0  0  0  0
   -1.1328   -1.9696   -5.7931 H   0  0  0  0  0  0  0  0  0  0  0  0
    0.0241    0.0390   -6.8183 H   0  0  0  0  0  0  0  0  0  0  0  0
   -2.3695    2.6486   -4.3285 H   0  0  0  0  0  0  0  0  0  0  0  0
   -3.4944    0.6644   -3.3047 H   0  0  0  0  0  0  0  0  0  0  0  0
   -0.5577    2.4587   -6.1693 N   0  0  0  0  0  0  0  0  0  0  0  0
   -0.0741    3.3540   -6.6212 N   0  0  0  0  0  0  0  0  0  0  0  0
    2.5962    1.2587   -6.4736 S   0  0  0  0  0  0  0  0  0  0  0  0
    3.2608   -0.5100   -6.2892 C   0  0  0  0  0  0  0  0  0  0  0  0
    3.8041    2.0873   -6.7162 O   0  0  0  0  0  0  0  0  0  0  0  0
    1.8698    1.4871   -5.1687 O   0  0  0  0  0  0  0  0  0  0  0  0
    1.6295    1.1314   -7.6360 O   0  0  0  0  0  0  0  0  0  0  0  0
    3.9299   -0.8928   -7.3886 F   0  0  0  0  0  0  0  0  0  0  0  0
    4.0808   -0.6106   -5.2307 F   0  0  0  0  0  0  0  0  0  0  0  0
    2.2330   -1.3827   -6.1037 F   0  0  0  0  0  0  0  0  0  0  0  0
   -2.8724   -1.6268   -4.0468 H   0  0  0  0  0  0  0  0  0  0  0  0
  1  6  2  0  0  0  0
  2  3  2  0  0  0  0
  2  1  1  0  0  0  0
  3  4  1  0  0  0  0
  4  9  1  0  0  0  0
  4  5  2  0  0  0  0
  5 10  1  0  0  0  0
  6  5  1  0  0  0  0
  6 21  1  0  0  0  0
  7  1  1  0  0  0  0
  8  2  1  0  0  0  0
 11  3  1  0  0  0  0
 12 11  1  0  0  0  0
 13 14  1  0  0  0  0
 13 16  1  0  0  0  0
 14 20  1  0  0  0  0
 14 19  1  0  0  0  0
 15 13  2  0  0  0  0
 17 13  2  0  0  0  0
 18 14  1  0  0  0  0
M  RAD  3  11   2  12   3  16   2
M  END
