Coordinates from ORCA-job Ph-N2-OTf-B3LYPG-aug-cc-pVDZ-scan-d29-49-n200
 OpenBabel01151817073D

 21 19  0  0  0  0  0  0  0  0999 V2000
   -1.6521   -0.9623   -5.7574 C   0  0  0  0  0  0  0  0  0  0  0  0
   -0.8716    0.2213   -5.8028 C   0  0  0  0  0  0  0  0  0  0  0  0
   -1.3427    1.1900   -5.1390 C   0  0  0  0  0  0  0  0  0  0  0  0
   -2.4236    1.4768   -4.3568 C   0  0  0  0  0  0  0  0  0  0  0  0
   -3.2057    0.2925   -4.3102 C   0  0  0  0  0  0  0  0  0  0  0  0
   -2.8283   -0.8814   -4.9885 C   0  0  0  0  0  0  0  0  0  0  0  0
   -1.3749   -1.8779   -6.2792 H   0  0  0  0  0  0  0  0  0  0  0  0
    0.6698    0.2304   -6.8432 H   0  0  0  0  0  0  0  0  0  0  0  0
   -2.6805    2.4011   -3.8489 H   0  0  0  0  0  0  0  0  0  0  0  0
   -4.1265    0.3112   -3.7245 H   0  0  0  0  0  0  0  0  0  0  0  0
   -0.0881    3.9240   -5.0172 N   0  0  0  0  0  0  0  0  0  0  0  0
    0.5955    4.7881   -5.0817 N   0  0  0  0  0  0  0  0  0  0  0  0
    2.7640    0.8493   -7.0468 S   0  0  0  0  0  0  0  0  0  0  0  0
    3.5911   -0.5494   -6.0642 C   0  0  0  0  0  0  0  0  0  0  0  0
    3.5831    1.0668   -8.2462 O   0  0  0  0  0  0  0  0  0  0  0  0
    2.4555    1.9180   -6.0767 O   0  0  0  0  0  0  0  0  0  0  0  0
    1.4077    0.0867   -7.5126 O   0  0  0  0  0  0  0  0  0  0  0  0
    3.8249   -1.5949   -6.8614 F   0  0  0  0  0  0  0  0  0  0  0  0
    4.7465   -0.0975   -5.5668 F   0  0  0  0  0  0  0  0  0  0  0  0
    2.7898   -0.9269   -5.0580 F   0  0  0  0  0  0  0  0  0  0  0  0
   -3.4722   -1.7592   -4.9153 H   0  0  0  0  0  0  0  0  0  0  0  0
  1  6  1  0  0  0  0
  2  1  2  0  0  0  0
  2  3  1  0  0  0  0
  3  4  2  0  0  0  0
  4  5  1  0  0  0  0
  4  9  1  0  0  0  0
  5 10  1  0  0  0  0
  6 21  1  0  0  0  0
  6  5  2  0  0  0  0
  7  1  1  0  0  0  0
 12 11  3  0  0  0  0
 13 16  2  0  0  0  0
 13 14  1  0  0  0  0
 14 19  1  0  0  0  0
 14 20  1  0  0  0  0
 15 13  2  0  0  0  0
 17 13  1  0  0  0  0
 17  8  1  0  0  0  0
 18 14  1  0  0  0  0
M  RAD  2   2   2   3   2
M  END
