Coordinates from ORCA-job Ph-N2-OTf-B3LYPG-aug-cc-pVDZ-scan-d09-29-n200
 OpenBabel01151817073D

 21 21  0  0  1  0  0  0  0  0999 V2000
   -0.8904   -0.7592   -5.3500 C   0  0  0  0  0  0  0  0  0  0  0  0
   -0.3491    0.4407   -6.0301 C   0  0  1  0  0  0  0  0  0  0  0  0
   -1.2019    1.6510   -5.8190 C   0  0  0  0  0  0  0  0  0  0  0  0
   -2.1330    1.7260   -4.7098 C   0  0  0  0  0  0  0  0  0  0  0  0
   -2.4182    0.6053   -3.9977 C   0  0  0  0  0  0  0  0  0  0  0  0
   -1.8248   -0.6601   -4.3737 C   0  0  0  0  0  0  0  0  0  0  0  0
   -0.4709   -1.7225   -5.6353 H   0  0  0  0  0  0  0  0  0  0  0  0
   -0.0943    0.2884   -7.0810 H   0  0  0  0  0  0  0  0  0  0  0  0
   -2.5953    2.6869   -4.4863 H   0  0  0  0  0  0  0  0  0  0  0  0
   -3.1200    0.6473   -3.1666 H   0  0  0  0  0  0  0  0  0  0  0  0
   -1.0603    2.6155   -6.5881 N   0  0  0  0  0  0  0  0  0  0  0  0
   -0.9262    3.4999   -7.2962 N   0  0  0  0  0  0  0  0  0  0  0  0
    2.3574    0.9991   -6.2643 S   0  0  0  0  0  0  0  0  0  0  0  0
    3.1076   -0.7451   -6.3186 C   0  0  0  0  0  0  0  0  0  0  0  0
    3.2920    1.8351   -5.4966 O   0  0  0  0  0  0  0  0  0  0  0  0
    1.0490    0.7150   -5.3436 O   0  0  0  0  0  0  0  0  0  0  0  0
    1.9606    1.3191   -7.6540 O   0  0  0  0  0  0  0  0  0  0  0  0
    4.2034   -0.7222   -7.0816 F   0  0  0  0  0  0  0  0  0  0  0  0
    3.4254   -1.1509   -5.0879 F   0  0  0  0  0  0  0  0  0  0  0  0
    2.2147   -1.5982   -6.8503 F   0  0  0  0  0  0  0  0  0  0  0  0
   -2.1639   -1.5644   -3.8667 H   0  0  0  0  0  0  0  0  0  0  0  0
  1  6  2  0  0  0  0
  2  8  1  6  0  0  0
  2  3  1  0  0  0  0
  2  1  1  0  0  0  0
  2 16  1  0  0  0  0
  3  4  2  0  0  0  0
  4  9  1  0  0  0  0
  4  5  1  0  0  0  0
  5 10  1  0  0  0  0
  6  5  1  0  0  0  0
  6 21  1  0  0  0  0
  7  1  1  0  0  0  0
 11  3  1  0  0  0  0
 12 11  1  0  0  0  0
 13 15  2  0  0  0  0
 13 16  1  0  0  0  0
 14 13  1  0  0  0  0
 14 19  1  0  0  0  0
 17 13  2  0  0  0  0
 18 14  1  0  0  0  0
 20 14  1  0  0  0  0
M  RAD  3   5   2  11   2  12   3
M  END
