Coordinates from ORCA-job Ph-N2-OTf-B3LYPG-aug-cc-pVDZ-scan-d29-49-n200
 OpenBabel01151817073D

 21 19  0  0  0  0  0  0  0  0999 V2000
   -1.7188   -1.0283   -5.8013 C   0  0  0  0  0  0  0  0  0  0  0  0
   -0.9036    0.1299   -5.8446 C   0  0  0  0  0  0  0  0  0  0  0  0
   -1.3243    1.1104   -5.1670 C   0  0  0  0  0  0  0  0  0  0  0  0
   -2.3805    1.4250   -4.3608 C   0  0  0  0  0  0  0  0  0  0  0  0
   -3.2010    0.2667   -4.3126 C   0  0  0  0  0  0  0  0  0  0  0  0
   -2.8772   -0.9127   -5.0092 C   0  0  0  0  0  0  0  0  0  0  0  0
   -1.4824   -1.9476   -6.3363 H   0  0  0  0  0  0  0  0  0  0  0  0
    0.6623    0.1326   -6.8808 H   0  0  0  0  0  0  0  0  0  0  0  0
   -2.5973    2.3517   -3.8388 H   0  0  0  0  0  0  0  0  0  0  0  0
   -4.1104    0.3102   -3.7106 H   0  0  0  0  0  0  0  0  0  0  0  0
    0.0454    4.1577   -4.8922 N   0  0  0  0  0  0  0  0  0  0  0  0
    0.7392    5.0133   -4.9629 N   0  0  0  0  0  0  0  0  0  0  0  0
    2.7322    0.8185   -7.0981 S   0  0  0  0  0  0  0  0  0  0  0  0
    3.5941   -0.4878   -6.0223 C   0  0  0  0  0  0  0  0  0  0  0  0
    3.5587    0.9918   -8.2994 O   0  0  0  0  0  0  0  0  0  0  0  0
    2.3716    1.9318   -6.1989 O   0  0  0  0  0  0  0  0  0  0  0  0
    1.4100   -0.0209   -7.5334 O   0  0  0  0  0  0  0  0  0  0  0  0
    3.8762   -1.5700   -6.7517 F   0  0  0  0  0  0  0  0  0  0  0  0
    4.7253    0.0352   -5.5393 F   0  0  0  0  0  0  0  0  0  0  0  0
    2.7922   -0.8325   -5.0051 F   0  0  0  0  0  0  0  0  0  0  0  0
   -3.5500   -1.7682   -4.9318 H   0  0  0  0  0  0  0  0  0  0  0  0
  1  6  1  0  0  0  0
  2  1  2  0  0  0  0
  2  3  1  0  0  0  0
  3  4  2  0  0  0  0
  4  5  1  0  0  0  0
  4  9  1  0  0  0  0
  5 10  1  0  0  0  0
  6 21  1  0  0  0  0
  6  5  2  0  0  0  0
  7  1  1  0  0  0  0
 12 11  3  0  0  0  0
 13 16  2  0  0  0  0
 13 14  1  0  0  0  0
 14 19  1  0  0  0  0
 14 20  1  0  0  0  0
 15 13  2  0  0  0  0
 17 13  1  0  0  0  0
 17  8  1  0  0  0  0
 18 14  1  0  0  0  0
M  RAD  2   2   2   3   2
M  END
