Coordinates from ORCA-job Ph-N2-OTf-B3LYPG-aug-cc-pVDZ-scan-d29-49-n200
 OpenBabel01151817073D

 21 19  0  0  0  0  0  0  0  0999 V2000
   -1.9915   -1.3007   -5.9009 C   0  0  0  0  0  0  0  0  0  0  0  0
   -0.9453   -0.3531   -5.9952 C   0  0  0  0  0  0  0  0  0  0  0  0
   -1.0993    0.7022   -5.3196 C   0  0  0  0  0  0  0  0  0  0  0  0
   -2.0196    1.2554   -4.4751 C   0  0  0  0  0  0  0  0  0  0  0  0
   -3.0754    0.3103   -4.3745 C   0  0  0  0  0  0  0  0  0  0  0  0
   -3.0571   -0.9182   -5.0628 C   0  0  0  0  0  0  0  0  0  0  0  0
   -1.9924   -2.2539   -6.4285 H   0  0  0  0  0  0  0  0  0  0  0  0
    0.6703   -0.3472   -7.0159 H   0  0  0  0  0  0  0  0  0  0  0  0
   -1.9997    2.2120   -3.9619 H   0  0  0  0  0  0  0  0  0  0  0  0
   -3.9242    0.5610   -3.7358 H   0  0  0  0  0  0  0  0  0  0  0  0
    0.2402    4.7732   -4.4280 N   0  0  0  0  0  0  0  0  0  0  0  0
    1.0283    5.5201   -4.6275 N   0  0  0  0  0  0  0  0  0  0  0  0
    2.5536    0.7452   -7.1632 S   0  0  0  0  0  0  0  0  0  0  0  0
    3.5897   -0.2371   -5.9109 C   0  0  0  0  0  0  0  0  0  0  0  0
    3.4186    1.0041   -8.3206 O   0  0  0  0  0  0  0  0  0  0  0  0
    1.8811    1.8184   -6.4031 O   0  0  0  0  0  0  0  0  0  0  0  0
    1.4882   -0.4053   -7.5927 O   0  0  0  0  0  0  0  0  0  0  0  0
    4.1601   -1.2850   -6.5091 F   0  0  0  0  0  0  0  0  0  0  0  0
    4.5355    0.5680   -5.4166 F   0  0  0  0  0  0  0  0  0  0  0  0
    2.8027   -0.6649   -4.9143 F   0  0  0  0  0  0  0  0  0  0  0  0
   -3.9021   -1.5979   -4.9411 H   0  0  0  0  0  0  0  0  0  0  0  0
  1  6  1  0  0  0  0
  2  1  2  0  0  0  0
  2  3  1  0  0  0  0
  3  4  2  0  0  0  0
  4  5  1  0  0  0  0
  4  9  1  0  0  0  0
  5 10  1  0  0  0  0
  6 21  1  0  0  0  0
  6  5  2  0  0  0  0
  7  1  1  0  0  0  0
 12 11  3  0  0  0  0
 13 16  2  0  0  0  0
 13 14  1  0  0  0  0
 14 19  1  0  0  0  0
 14 20  1  0  0  0  0
 15 13  2  0  0  0  0
 17 13  1  0  0  0  0
 17  8  1  0  0  0  0
 18 14  1  0  0  0  0
M  RAD  2   2   2   3   2
M  END
