Coordinates from ORCA-job Ph-N2-OTf-B3LYPG-aug-cc-pVDZ-scan-d29-49-n200
 OpenBabel01151817073D

 21 19  0  0  0  0  0  0  0  0999 V2000
   -1.7252   -1.0360   -5.8057 C   0  0  0  0  0  0  0  0  0  0  0  0
   -0.9062    0.1193   -5.8496 C   0  0  0  0  0  0  0  0  0  0  0  0
   -1.3214    1.1013   -5.1709 C   0  0  0  0  0  0  0  0  0  0  0  0
   -2.3748    1.4191   -4.3622 C   0  0  0  0  0  0  0  0  0  0  0  0
   -3.1994    0.2637   -4.3131 C   0  0  0  0  0  0  0  0  0  0  0  0
   -2.8814   -0.9165   -5.0110 C   0  0  0  0  0  0  0  0  0  0  0  0
   -1.4931   -1.9559   -6.3416 H   0  0  0  0  0  0  0  0  0  0  0  0
    0.6612    0.1219   -6.8856 H   0  0  0  0  0  0  0  0  0  0  0  0
   -2.5873    2.3463   -3.8392 H   0  0  0  0  0  0  0  0  0  0  0  0
   -4.1074    0.3101   -3.7091 H   0  0  0  0  0  0  0  0  0  0  0  0
    0.0586    4.1863   -4.8768 N   0  0  0  0  0  0  0  0  0  0  0  0
    0.7558    5.0389   -4.9506 N   0  0  0  0  0  0  0  0  0  0  0  0
    2.7283    0.8152   -7.1034 S   0  0  0  0  0  0  0  0  0  0  0  0
    3.5924   -0.4815   -6.0178 C   0  0  0  0  0  0  0  0  0  0  0  0
    3.5569    0.9843   -8.3039 O   0  0  0  0  0  0  0  0  0  0  0  0
    2.3617    1.9327   -6.2118 O   0  0  0  0  0  0  0  0  0  0  0  0
    1.4101   -0.0315   -7.5368 O   0  0  0  0  0  0  0  0  0  0  0  0
    3.8802   -1.5669   -6.7401 F   0  0  0  0  0  0  0  0  0  0  0  0
    4.7205    0.0486   -5.5352 F   0  0  0  0  0  0  0  0  0  0  0  0
    2.7893   -0.8230   -5.0004 F   0  0  0  0  0  0  0  0  0  0  0  0
   -3.5572   -1.7696   -4.9326 H   0  0  0  0  0  0  0  0  0  0  0  0
  1  6  1  0  0  0  0
  2  1  2  0  0  0  0
  2  3  1  0  0  0  0
  3  4  2  0  0  0  0
  4  5  1  0  0  0  0
  4  9  1  0  0  0  0
  5 10  1  0  0  0  0
  6 21  1  0  0  0  0
  6  5  2  0  0  0  0
  7  1  1  0  0  0  0
 12 11  3  0  0  0  0
 13 16  2  0  0  0  0
 13 14  1  0  0  0  0
 14 19  1  0  0  0  0
 14 20  1  0  0  0  0
 15 13  2  0  0  0  0
 17 13  1  0  0  0  0
 17  8  1  0  0  0  0
 18 14  1  0  0  0  0
M  RAD  2   2   2   3   2
M  END
