Coordinates from ORCA-job Ph-N2-OTf-B3LYPG-aug-cc-pVDZ-scan-d29-49-n200
 OpenBabel01151817073D

 21 19  0  0  0  0  0  0  0  0999 V2000
   -1.6831   -0.9912   -5.7821 C   0  0  0  0  0  0  0  0  0  0  0  0
   -0.8885    0.1820   -5.8261 C   0  0  0  0  0  0  0  0  0  0  0  0
   -1.3355    1.1549   -5.1532 C   0  0  0  0  0  0  0  0  0  0  0  0
   -2.4031    1.4516   -4.3558 C   0  0  0  0  0  0  0  0  0  0  0  0
   -3.2013    0.2778   -4.3086 C   0  0  0  0  0  0  0  0  0  0  0  0
   -2.8491   -0.8971   -4.9988 C   0  0  0  0  0  0  0  0  0  0  0  0
   -1.4249   -1.9075   -6.3124 H   0  0  0  0  0  0  0  0  0  0  0  0
    0.6656    0.1864   -6.8637 H   0  0  0  0  0  0  0  0  0  0  0  0
   -2.6414    2.3757   -3.8388 H   0  0  0  0  0  0  0  0  0  0  0  0
   -4.1153    0.3057   -3.7128 H   0  0  0  0  0  0  0  0  0  0  0  0
   -0.0243    4.0362   -4.9631 N   0  0  0  0  0  0  0  0  0  0  0  0
    0.6637    4.8968   -5.0289 N   0  0  0  0  0  0  0  0  0  0  0  0
    2.7493    0.8348   -7.0711 S   0  0  0  0  0  0  0  0  0  0  0  0
    3.5900   -0.5216   -6.0416 C   0  0  0  0  0  0  0  0  0  0  0  0
    3.5736    1.0294   -8.2708 O   0  0  0  0  0  0  0  0  0  0  0  0
    2.4161    1.9264   -6.1355 O   0  0  0  0  0  0  0  0  0  0  0  0
    1.4084    0.0369   -7.5245 O   0  0  0  0  0  0  0  0  0  0  0  0
    3.8446   -1.5866   -6.8057 F   0  0  0  0  0  0  0  0  0  0  0  0
    4.7349   -0.0377   -5.5504 F   0  0  0  0  0  0  0  0  0  0  0  0
    2.7871   -0.8805   -5.0300 F   0  0  0  0  0  0  0  0  0  0  0  0
   -3.5051   -1.7658   -4.9233 H   0  0  0  0  0  0  0  0  0  0  0  0
  1  6  1  0  0  0  0
  2  1  2  0  0  0  0
  2  3  1  0  0  0  0
  3  4  2  0  0  0  0
  4  5  1  0  0  0  0
  4  9  1  0  0  0  0
  5 10  1  0  0  0  0
  6 21  1  0  0  0  0
  6  5  2  0  0  0  0
  7  1  1  0  0  0  0
 12 11  3  0  0  0  0
 13 16  2  0  0  0  0
 13 14  1  0  0  0  0
 14 19  1  0  0  0  0
 14 20  1  0  0  0  0
 15 13  2  0  0  0  0
 17 13  1  0  0  0  0
 17  8  1  0  0  0  0
 18 14  1  0  0  0  0
M  RAD  2   2   2   3   2
M  END
