Coordinates from ORCA-job Ph-N2-OTf-B3LYPG-aug-cc-pVDZ-scan-d29-49-n200
 OpenBabel01151817073D

 21 19  0  0  0  0  0  0  0  0999 V2000
   -2.0300   -1.3632   -5.8984 C   0  0  0  0  0  0  0  0  0  0  0  0
   -0.9414   -0.4722   -6.0436 C   0  0  0  0  0  0  0  0  0  0  0  0
   -1.0261    0.6111   -5.4004 C   0  0  0  0  0  0  0  0  0  0  0  0
   -1.9017    1.2353   -4.5581 C   0  0  0  0  0  0  0  0  0  0  0  0
   -3.0003    0.3480   -4.4056 C   0  0  0  0  0  0  0  0  0  0  0  0
   -3.0574   -0.9014   -5.0527 C   0  0  0  0  0  0  0  0  0  0  0  0
   -2.0892   -2.3315   -6.3944 H   0  0  0  0  0  0  0  0  0  0  0  0
    0.6884   -0.4734   -7.0670 H   0  0  0  0  0  0  0  0  0  0  0  0
   -1.8272    2.2053   -4.0759 H   0  0  0  0  0  0  0  0  0  0  0  0
   -3.8222    0.6615   -3.7594 H   0  0  0  0  0  0  0  0  0  0  0  0
    0.0931    5.1135   -4.2109 N   0  0  0  0  0  0  0  0  0  0  0  0
    0.8539    5.8869   -4.4158 N   0  0  0  0  0  0  0  0  0  0  0  0
    2.5331    0.6812   -7.1751 S   0  0  0  0  0  0  0  0  0  0  0  0
    3.5875   -0.2783   -5.9203 C   0  0  0  0  0  0  0  0  0  0  0  0
    3.4034    0.9861   -8.3169 O   0  0  0  0  0  0  0  0  0  0  0  0
    1.8122    1.7204   -6.4115 O   0  0  0  0  0  0  0  0  0  0  0  0
    1.5149   -0.5004   -7.6322 O   0  0  0  0  0  0  0  0  0  0  0  0
    4.2019   -1.2982   -6.5229 F   0  0  0  0  0  0  0  0  0  0  0  0
    4.4977    0.5542   -5.4053 F   0  0  0  0  0  0  0  0  0  0  0  0
    2.8037   -0.7447   -4.9389 F   0  0  0  0  0  0  0  0  0  0  0  0
   -3.9324   -1.5333   -4.8921 H   0  0  0  0  0  0  0  0  0  0  0  0
  1  6  1  0  0  0  0
  2  1  2  0  0  0  0
  2  3  1  0  0  0  0
  3  4  2  0  0  0  0
  4  5  1  0  0  0  0
  4  9  1  0  0  0  0
  5 10  1  0  0  0  0
  6 21  1  0  0  0  0
  6  5  2  0  0  0  0
  7  1  1  0  0  0  0
 12 11  3  0  0  0  0
 13 16  2  0  0  0  0
 13 14  1  0  0  0  0
 14 19  1  0  0  0  0
 14 20  1  0  0  0  0
 15 13  2  0  0  0  0
 17 13  1  0  0  0  0
 17  8  1  0  0  0  0
 18 14  1  0  0  0  0
M  RAD  2   2   2   3   2
M  END
