Coordinates from ORCA-job Ph-N2-OTf-B3LYPG-aug-cc-pVDZ-scan-d09-29-n200
 OpenBabel01151817073D

 21 20  0  0  0  0  0  0  0  0999 V2000
   -1.4970   -1.0028   -5.5690 C   0  0  0  0  0  0  0  0  0  0  0  0
   -0.7941    0.0723   -6.1153 C   0  0  0  0  0  0  0  0  0  0  0  0
   -1.1065    1.3163   -5.5844 C   0  0  0  0  0  0  0  0  0  0  0  0
   -2.0245    1.5909   -4.5722 C   0  0  0  0  0  0  0  0  0  0  0  0
   -2.6989    0.4864   -4.0526 C   0  0  0  0  0  0  0  0  0  0  0  0
   -2.4366   -0.7976   -4.5508 C   0  0  0  0  0  0  0  0  0  0  0  0
   -1.2924   -2.0077   -5.9350 H   0  0  0  0  0  0  0  0  0  0  0  0
   -0.0180   -0.0127   -6.8780 H   0  0  0  0  0  0  0  0  0  0  0  0
   -2.1952    2.6009   -4.2067 H   0  0  0  0  0  0  0  0  0  0  0  0
   -3.4261    0.6315   -3.2551 H   0  0  0  0  0  0  0  0  0  0  0  0
   -0.4087    2.5338   -6.1765 N   0  0  0  0  0  0  0  0  0  0  0  0
   -0.0701    3.4959   -6.6035 N   0  0  0  0  0  0  0  0  0  0  0  0
    2.5797    1.2747   -6.5512 S   0  0  0  0  0  0  0  0  0  0  0  0
    3.2508   -0.4632   -6.1897 C   0  0  0  0  0  0  0  0  0  0  0  0
    3.7820    2.0770   -6.8892 O   0  0  0  0  0  0  0  0  0  0  0  0
    1.8692    1.6416   -5.2650 O   0  0  0  0  0  0  0  0  0  0  0  0
    1.5953    1.0338   -7.6786 O   0  0  0  0  0  0  0  0  0  0  0  0
    3.9043   -0.9551   -7.2544 F   0  0  0  0  0  0  0  0  0  0  0  0
    4.0876   -0.4472   -5.1404 F   0  0  0  0  0  0  0  0  0  0  0  0
    2.2298   -1.3109   -5.8983 F   0  0  0  0  0  0  0  0  0  0  0  0
   -2.9690   -1.6510   -4.1313 H   0  0  0  0  0  0  0  0  0  0  0  0
  1  6  2  0  0  0  0
  2  3  2  0  0  0  0
  2  1  1  0  0  0  0
  3  4  1  0  0  0  0
  4  9  1  0  0  0  0
  4  5  2  0  0  0  0
  5 10  1  0  0  0  0
  6 21  1  0  0  0  0
  6  5  1  0  0  0  0
  7  1  1  0  0  0  0
  8  2  1  0  0  0  0
 11  3  1  0  0  0  0
 12 11  1  0  0  0  0
 13 14  1  0  0  0  0
 13 16  1  0  0  0  0
 14 20  1  0  0  0  0
 14 19  1  0  0  0  0
 15 13  2  0  0  0  0
 17 13  2  0  0  0  0
 18 14  1  0  0  0  0
M  RAD  3  11   2  12   3  16   2
M  END
