Coordinates from ORCA-job Ph-N2-OTf-B3LYPG-aug-cc-pVDZ-scan-d09-29-n200
 OpenBabel01151817073D

 21 21  0  0  1  0  0  0  0  0999 V2000
   -0.8717   -0.7242   -5.4345 C   0  0  0  0  0  0  0  0  0  0  0  0
   -0.3411    0.5101   -6.0721 C   0  0  1  0  0  0  0  0  0  0  0  0
   -1.2072    1.7406   -5.8192 C   0  0  0  0  0  0  0  0  0  0  0  0
   -2.1110    1.7286   -4.6579 C   0  0  0  0  0  0  0  0  0  0  0  0
   -2.3760    0.5764   -4.0013 C   0  0  0  0  0  0  0  0  0  0  0  0
   -1.7919   -0.6754   -4.4470 C   0  0  0  0  0  0  0  0  0  0  0  0
   -0.4527   -1.6711   -5.7720 H   0  0  0  0  0  0  0  0  0  0  0  0
   -0.1405    0.3988   -7.1417 H   0  0  0  0  0  0  0  0  0  0  0  0
   -2.5617    2.6790   -4.3722 H   0  0  0  0  0  0  0  0  0  0  0  0
   -3.0554    0.5783   -3.1501 H   0  0  0  0  0  0  0  0  0  0  0  0
   -1.1125    2.6068   -6.4755 N   0  0  0  0  0  0  0  0  0  0  0  0
   -1.0071    3.5224   -7.1727 N   0  0  0  0  0  0  0  0  0  0  0  0
    2.3526    0.9665   -6.3721 S   0  0  0  0  0  0  0  0  0  0  0  0
    3.0957   -0.7746   -6.2046 C   0  0  0  0  0  0  0  0  0  0  0  0
    3.2681    1.8844   -5.6818 O   0  0  0  0  0  0  0  0  0  0  0  0
    1.0233    0.7881   -5.4306 O   0  0  0  0  0  0  0  0  0  0  0  0
    1.9708    1.1233   -7.7909 O   0  0  0  0  0  0  0  0  0  0  0  0
    4.2165   -0.8313   -6.9274 F   0  0  0  0  0  0  0  0  0  0  0  0
    3.3692   -1.0383   -4.9265 F   0  0  0  0  0  0  0  0  0  0  0  0
    2.2197   -1.6797   -6.6698 F   0  0  0  0  0  0  0  0  0  0  0  0
   -2.1255   -1.6016   -3.9775 H   0  0  0  0  0  0  0  0  0  0  0  0
  1  6  2  0  0  0  0
  2  8  1  6  0  0  0
  2  3  1  0  0  0  0
  2  1  1  0  0  0  0
  2 16  1  0  0  0  0
  3  4  2  0  0  0  0
  4  9  1  0  0  0  0
  4  5  1  0  0  0  0
  5 10  1  0  0  0  0
  6  5  1  0  0  0  0
  6 21  1  0  0  0  0
  7  1  1  0  0  0  0
 11  3  1  0  0  0  0
 12 11  1  0  0  0  0
 13 14  1  0  0  0  0
 13 15  2  0  0  0  0
 13 16  1  0  0  0  0
 14 19  1  0  0  0  0
 17 13  2  0  0  0  0
 18 14  1  0  0  0  0
 20 14  1  0  0  0  0
M  RAD  3   5   2  11   2  12   3
M  END
