Coordinates from ORCA-job Ph-N2-OTf-B3LYPG-aug-cc-pVDZ-scan-d29-49-n200
 OpenBabel01151817073D

 21 19  0  0  0  0  0  0  0  0999 V2000
   -2.0027   -1.3188   -5.9002 C   0  0  0  0  0  0  0  0  0  0  0  0
   -0.9441   -0.3868   -6.0069 C   0  0  0  0  0  0  0  0  0  0  0  0
   -1.0781    0.6772   -5.3400 C   0  0  0  0  0  0  0  0  0  0  0  0
   -1.9887    1.2488   -4.4974 C   0  0  0  0  0  0  0  0  0  0  0  0
   -3.0574    0.3201   -4.3838 C   0  0  0  0  0  0  0  0  0  0  0  0
   -3.0594   -0.9143   -5.0611 C   0  0  0  0  0  0  0  0  0  0  0  0
   -2.0193   -2.2763   -6.4197 H   0  0  0  0  0  0  0  0  0  0  0  0
    0.6760   -0.3859   -7.0282 H   0  0  0  0  0  0  0  0  0  0  0  0
   -1.9541    2.2093   -3.9921 H   0  0  0  0  0  0  0  0  0  0  0  0
   -3.8999    0.5888   -3.7440 H   0  0  0  0  0  0  0  0  0  0  0  0
    0.2012    4.8777   -4.3647 N   0  0  0  0  0  0  0  0  0  0  0  0
    0.9882    5.6244   -4.5699 N   0  0  0  0  0  0  0  0  0  0  0  0
    2.5464    0.7261   -7.1661 S   0  0  0  0  0  0  0  0  0  0  0  0
    3.5915   -0.2477   -5.9146 C   0  0  0  0  0  0  0  0  0  0  0  0
    3.4114    1.0001   -8.3199 O   0  0  0  0  0  0  0  0  0  0  0  0
    1.8581    1.7876   -6.4041 O   0  0  0  0  0  0  0  0  0  0  0  0
    1.4960   -0.4354   -7.6023 O   0  0  0  0  0  0  0  0  0  0  0  0
    4.1760   -1.2865   -6.5149 F   0  0  0  0  0  0  0  0  0  0  0  0
    4.5262    0.5674   -5.4157 F   0  0  0  0  0  0  0  0  0  0  0  0
    2.8076   -0.6882   -4.9212 F   0  0  0  0  0  0  0  0  0  0  0  0
   -3.9134   -1.5809   -4.9304 H   0  0  0  0  0  0  0  0  0  0  0  0
  1  6  1  0  0  0  0
  2  1  2  0  0  0  0
  2  3  1  0  0  0  0
  3  4  2  0  0  0  0
  4  5  1  0  0  0  0
  4  9  1  0  0  0  0
  5 10  1  0  0  0  0
  6 21  1  0  0  0  0
  6  5  2  0  0  0  0
  7  1  1  0  0  0  0
 12 11  3  0  0  0  0
 13 16  2  0  0  0  0
 13 14  1  0  0  0  0
 14 19  1  0  0  0  0
 14 20  1  0  0  0  0
 15 13  2  0  0  0  0
 17 13  1  0  0  0  0
 17  8  1  0  0  0  0
 18 14  1  0  0  0  0
M  RAD  2   2   2   3   2
M  END
