Coordinates from ORCA-job Ph-N2-OTf-B3LYPG-aug-cc-pVDZ-scan-d09-29-n200
 OpenBabel01151817073D

 21 19  0  0  0  0  0  0  0  0999 V2000
   -1.4987   -0.9434   -5.6608 C   0  0  0  0  0  0  0  0  0  0  0  0
   -0.7593    0.2350   -6.0095 C   0  0  0  0  0  0  0  0  0  0  0  0
   -1.2750    1.2146   -5.3109 C   0  0  0  0  0  0  0  0  0  0  0  0
   -2.2187    1.5229   -4.3989 C   0  0  0  0  0  0  0  0  0  0  0  0
   -2.9008    0.3112   -4.1038 C   0  0  0  0  0  0  0  0  0  0  0  0
   -2.5411   -0.8898   -4.7295 C   0  0  0  0  0  0  0  0  0  0  0  0
   -1.2010   -1.8777   -6.1385 H   0  0  0  0  0  0  0  0  0  0  0  0
    0.1730    0.2213   -6.7328 H   0  0  0  0  0  0  0  0  0  0  0  0
   -2.4499    2.4842   -3.9532 H   0  0  0  0  0  0  0  0  0  0  0  0
   -3.7132    0.3541   -3.3773 H   0  0  0  0  0  0  0  0  0  0  0  0
   -0.3093    3.4624   -5.8633 N   0  0  0  0  0  0  0  0  0  0  0  0
    0.1181    4.4499   -6.1056 N   0  0  0  0  0  0  0  0  0  0  0  0
    2.5427    0.9471   -6.8626 S   0  0  0  0  0  0  0  0  0  0  0  0
    3.4656   -0.5093   -6.0753 C   0  0  0  0  0  0  0  0  0  0  0  0
    3.5144    1.5716   -7.7883 O   0  0  0  0  0  0  0  0  0  0  0  0
    2.0505    1.7427   -5.6943 O   0  0  0  0  0  0  0  0  0  0  0  0
    1.3857    0.2239   -7.5878 O   0  0  0  0  0  0  0  0  0  0  0  0
    3.9314   -1.3441   -7.0166 F   0  0  0  0  0  0  0  0  0  0  0  0
    4.4967   -0.0654   -5.3408 F   0  0  0  0  0  0  0  0  0  0  0  0
    2.6323   -1.2019   -5.2668 F   0  0  0  0  0  0  0  0  0  0  0  0
   -3.0819   -1.8023   -4.4806 H   0  0  0  0  0  0  0  0  0  0  0  0
  1  6  1  0  0  0  0
  2  1  2  0  0  0  0
  2  3  1  0  0  0  0
  3  4  2  0  0  0  0
  4  5  1  0  0  0  0
  4  9  1  0  0  0  0
  5 10  1  0  0  0  0
  6 21  1  0  0  0  0
  6  5  2  0  0  0  0
  7  1  1  0  0  0  0
  8  2  1  0  0  0  0
 12 11  3  0  0  0  0
 13 14  1  0  0  0  0
 13 16  1  0  0  0  0
 14 19  1  0  0  0  0
 14 20  1  0  0  0  0
 15 13  2  0  0  0  0
 17 13  2  0  0  0  0
 18 14  1  0  0  0  0
M  RAD  2   3   2  16   2
M  END
