Coordinates from ORCA-job Ph-N2-OTf-B3LYPG-aug-cc-pVDZ-scan-d29-49-n200
 OpenBabel01151817073D

 21 19  0  0  0  0  0  0  0  0999 V2000
   -1.7313   -1.0434   -5.8106 C   0  0  0  0  0  0  0  0  0  0  0  0
   -0.9091    0.1095   -5.8556 C   0  0  0  0  0  0  0  0  0  0  0  0
   -1.3189    1.0926   -5.1755 C   0  0  0  0  0  0  0  0  0  0  0  0
   -2.3690    1.4132   -4.3635 C   0  0  0  0  0  0  0  0  0  0  0  0
   -3.1970    0.2603   -4.3129 C   0  0  0  0  0  0  0  0  0  0  0  0
   -2.8848   -0.9205   -5.0125 C   0  0  0  0  0  0  0  0  0  0  0  0
   -1.5036   -1.9637   -6.3476 H   0  0  0  0  0  0  0  0  0  0  0  0
    0.6600    0.1119   -6.8912 H   0  0  0  0  0  0  0  0  0  0  0  0
   -2.5771    2.3406   -3.8393 H   0  0  0  0  0  0  0  0  0  0  0  0
   -4.1032    0.3092   -3.7065 H   0  0  0  0  0  0  0  0  0  0  0  0
    0.0703    4.2159   -4.8619 N   0  0  0  0  0  0  0  0  0  0  0  0
    0.7729    5.0636   -4.9400 N   0  0  0  0  0  0  0  0  0  0  0  0
    2.7247    0.8123   -7.1082 S   0  0  0  0  0  0  0  0  0  0  0  0
    3.5898   -0.4756   -6.0129 C   0  0  0  0  0  0  0  0  0  0  0  0
    3.5559    0.9771   -8.3075 O   0  0  0  0  0  0  0  0  0  0  0  0
    2.3522    1.9336   -6.2240 O   0  0  0  0  0  0  0  0  0  0  0  0
    1.4103   -0.0410   -7.5406 O   0  0  0  0  0  0  0  0  0  0  0  0
    3.8832   -1.5641   -6.7283 F   0  0  0  0  0  0  0  0  0  0  0  0
    4.7147    0.0608   -5.5300 F   0  0  0  0  0  0  0  0  0  0  0  0
    2.7847   -0.8140   -4.9961 F   0  0  0  0  0  0  0  0  0  0  0  0
   -3.5632   -1.7714   -4.9326 H   0  0  0  0  0  0  0  0  0  0  0  0
  1  6  1  0  0  0  0
  2  1  2  0  0  0  0
  2  3  1  0  0  0  0
  3  4  2  0  0  0  0
  4  5  1  0  0  0  0
  4  9  1  0  0  0  0
  5 10  1  0  0  0  0
  6 21  1  0  0  0  0
  6  5  2  0  0  0  0
  7  1  1  0  0  0  0
 12 11  3  0  0  0  0
 13 16  2  0  0  0  0
 13 14  1  0  0  0  0
 14 19  1  0  0  0  0
 14 20  1  0  0  0  0
 15 13  2  0  0  0  0
 17 13  1  0  0  0  0
 17  8  1  0  0  0  0
 18 14  1  0  0  0  0
M  RAD  2   2   2   3   2
M  END
