Coordinates from ORCA-job Ph-N2-OTf-B3LYPG-aug-cc-pVDZ-scan-d29-49-n200
 OpenBabel01151817073D

 21 19  0  0  0  0  0  0  0  0999 V2000
   -2.0222   -1.3465   -5.8998 C   0  0  0  0  0  0  0  0  0  0  0  0
   -0.9420   -0.4431   -6.0313 C   0  0  0  0  0  0  0  0  0  0  0  0
   -1.0414    0.6337   -5.3792 C   0  0  0  0  0  0  0  0  0  0  0  0
   -1.9279    1.2413   -4.5362 C   0  0  0  0  0  0  0  0  0  0  0  0
   -3.0181    0.3414   -4.3974 C   0  0  0  0  0  0  0  0  0  0  0  0
   -3.0589   -0.9027   -5.0557 C   0  0  0  0  0  0  0  0  0  0  0  0
   -2.0688   -2.3109   -6.4046 H   0  0  0  0  0  0  0  0  0  0  0  0
    0.6855   -0.4447   -7.0535 H   0  0  0  0  0  0  0  0  0  0  0  0
   -1.8657    2.2077   -4.0452 H   0  0  0  0  0  0  0  0  0  0  0  0
   -3.8466    0.6407   -3.7529 H   0  0  0  0  0  0  0  0  0  0  0  0
    0.1179    5.0265   -4.2608 N   0  0  0  0  0  0  0  0  0  0  0  0
    0.8906    5.7869   -4.4698 N   0  0  0  0  0  0  0  0  0  0  0  0
    2.5392    0.6957   -7.1729 S   0  0  0  0  0  0  0  0  0  0  0  0
    3.5906   -0.2676   -5.9185 C   0  0  0  0  0  0  0  0  0  0  0  0
    3.4075    0.9887   -8.3194 O   0  0  0  0  0  0  0  0  0  0  0  0
    1.8297    1.7435   -6.4109 O   0  0  0  0  0  0  0  0  0  0  0  0
    1.5098   -0.4796   -7.6217 O   0  0  0  0  0  0  0  0  0  0  0  0
    4.1945   -1.2947   -6.5194 F   0  0  0  0  0  0  0  0  0  0  0  0
    4.5095    0.5595   -5.4101 F   0  0  0  0  0  0  0  0  0  0  0  0
    2.8068   -0.7240   -4.9323 F   0  0  0  0  0  0  0  0  0  0  0  0
   -3.9281   -1.5450   -4.9056 H   0  0  0  0  0  0  0  0  0  0  0  0
  1  6  1  0  0  0  0
  2  1  2  0  0  0  0
  2  3  1  0  0  0  0
  3  4  2  0  0  0  0
  4  5  1  0  0  0  0
  4  9  1  0  0  0  0
  5 10  1  0  0  0  0
  6 21  1  0  0  0  0
  6  5  2  0  0  0  0
  7  1  1  0  0  0  0
 12 11  3  0  0  0  0
 13 16  2  0  0  0  0
 13 14  1  0  0  0  0
 14 19  1  0  0  0  0
 14 20  1  0  0  0  0
 15 13  2  0  0  0  0
 17 13  1  0  0  0  0
 17  8  1  0  0  0  0
 18 14  1  0  0  0  0
M  RAD  2   2   2   3   2
M  END
