Coordinates from ORCA-job Ph-N2-OTf-B3LYPG-aug-cc-pVDZ-scan-d29-49-n200
 OpenBabel01151817073D

 21 19  0  0  0  0  0  0  0  0999 V2000
   -1.7953   -1.1243   -5.8400 C   0  0  0  0  0  0  0  0  0  0  0  0
   -0.9213   -0.0131   -5.8998 C   0  0  0  0  0  0  0  0  0  0  0  0
   -1.2651    0.9946   -5.2218 C   0  0  0  0  0  0  0  0  0  0  0  0
   -2.2844    1.3695   -4.3929 C   0  0  0  0  0  0  0  0  0  0  0  0
   -3.1685    0.2599   -4.3250 C   0  0  0  0  0  0  0  0  0  0  0  0
   -2.9281   -0.9383   -5.0238 C   0  0  0  0  0  0  0  0  0  0  0  0
   -1.6225   -2.0573   -6.3754 H   0  0  0  0  0  0  0  0  0  0  0  0
    0.6678   -0.0045   -6.9365 H   0  0  0  0  0  0  0  0  0  0  0  0
   -2.4383    2.3080   -3.8693 H   0  0  0  0  0  0  0  0  0  0  0  0
   -4.0614    0.3566   -3.7049 H   0  0  0  0  0  0  0  0  0  0  0  0
    0.0612    4.5387   -4.6665 N   0  0  0  0  0  0  0  0  0  0  0  0
    0.7902    5.3590   -4.7862 N   0  0  0  0  0  0  0  0  0  0  0  0
    2.7066    0.7658   -7.1527 S   0  0  0  0  0  0  0  0  0  0  0  0
    3.5945   -0.4469   -5.9916 C   0  0  0  0  0  0  0  0  0  0  0  0
    3.5516    0.9100   -8.3448 O   0  0  0  0  0  0  0  0  0  0  0  0
    2.2818    1.9089   -6.3213 O   0  0  0  0  0  0  0  0  0  0  0  0
    1.4292   -0.1498   -7.5721 O   0  0  0  0  0  0  0  0  0  0  0  0
    3.9389   -1.5516   -6.6574 F   0  0  0  0  0  0  0  0  0  0  0  0
    4.6906    0.1476   -5.5106 F   0  0  0  0  0  0  0  0  0  0  0  0
    2.7819   -0.7728   -4.9766 F   0  0  0  0  0  0  0  0  0  0  0  0
   -3.6476   -1.7532   -4.9284 H   0  0  0  0  0  0  0  0  0  0  0  0
  1  6  1  0  0  0  0
  2  1  2  0  0  0  0
  2  3  1  0  0  0  0
  3  4  2  0  0  0  0
  4  5  1  0  0  0  0
  4  9  1  0  0  0  0
  5 10  1  0  0  0  0
  6 21  1  0  0  0  0
  6  5  2  0  0  0  0
  7  1  1  0  0  0  0
 12 11  3  0  0  0  0
 13 16  2  0  0  0  0
 13 14  1  0  0  0  0
 14 19  1  0  0  0  0
 14 20  1  0  0  0  0
 15 13  2  0  0  0  0
 17 13  1  0  0  0  0
 17  8  1  0  0  0  0
 18 14  1  0  0  0  0
M  RAD  2   2   2   3   2
M  END
