Coordinates from ORCA-job Ph-N2-OTf-B3LYPG-aug-cc-pVDZ-scan-d29-49-n200
 OpenBabel01151817073D

 21 19  0  0  0  0  0  0  0  0999 V2000
   -1.7721   -1.0960   -5.8299 C   0  0  0  0  0  0  0  0  0  0  0  0
   -0.9219    0.0344   -5.8830 C   0  0  0  0  0  0  0  0  0  0  0  0
   -1.2935    1.0318   -5.2039 C   0  0  0  0  0  0  0  0  0  0  0  0
   -2.3252    1.3816   -4.3801 C   0  0  0  0  0  0  0  0  0  0  0  0
   -3.1848    0.2524   -4.3195 C   0  0  0  0  0  0  0  0  0  0  0  0
   -2.9135   -0.9382   -5.0198 C   0  0  0  0  0  0  0  0  0  0  0  0
   -1.5754   -2.0234   -6.3667 H   0  0  0  0  0  0  0  0  0  0  0  0
    0.6612    0.0445   -6.9186 H   0  0  0  0  0  0  0  0  0  0  0  0
   -2.5033    2.3149   -3.8549 H   0  0  0  0  0  0  0  0  0  0  0  0
   -4.0830    0.3278   -3.7042 H   0  0  0  0  0  0  0  0  0  0  0  0
    0.1012    4.4109   -4.7483 N   0  0  0  0  0  0  0  0  0  0  0  0
    0.8273    5.2356   -4.8545 N   0  0  0  0  0  0  0  0  0  0  0  0
    2.7101    0.7892   -7.1370 S   0  0  0  0  0  0  0  0  0  0  0  0
    3.5883   -0.4488   -5.9954 C   0  0  0  0  0  0  0  0  0  0  0  0
    3.5503    0.9362   -8.3322 O   0  0  0  0  0  0  0  0  0  0  0  0
    2.3059    1.9280   -6.2897 O   0  0  0  0  0  0  0  0  0  0  0  0
    1.4183   -0.1039   -7.5594 O   0  0  0  0  0  0  0  0  0  0  0  0
    3.9135   -1.5503   -6.6760 F   0  0  0  0  0  0  0  0  0  0  0  0
    4.6954    0.1250   -5.5143 F   0  0  0  0  0  0  0  0  0  0  0  0
    2.7775   -0.7754   -4.9792 F   0  0  0  0  0  0  0  0  0  0  0  0
   -3.6147   -1.7694   -4.9306 H   0  0  0  0  0  0  0  0  0  0  0  0
  1  6  1  0  0  0  0
  2  1  2  0  0  0  0
  2  3  1  0  0  0  0
  3  4  2  0  0  0  0
  4  5  1  0  0  0  0
  4  9  1  0  0  0  0
  5 10  1  0  0  0  0
  6 21  1  0  0  0  0
  6  5  2  0  0  0  0
  7  1  1  0  0  0  0
 12 11  3  0  0  0  0
 13 16  2  0  0  0  0
 13 14  1  0  0  0  0
 14 19  1  0  0  0  0
 14 20  1  0  0  0  0
 15 13  2  0  0  0  0
 17 13  1  0  0  0  0
 17  8  1  0  0  0  0
 18 14  1  0  0  0  0
M  RAD  2   2   2   3   2
M  END
