Coordinates from ORCA-job Ph-N2-OTf-B3LYPG-aug-cc-pVDZ-scan-d09-29-n200
 OpenBabel01151817073D

 21 19  0  0  0  0  0  0  0  0999 V2000
   -1.4991   -0.9447   -5.6621 C   0  0  0  0  0  0  0  0  0  0  0  0
   -0.7590    0.2338   -6.0097 C   0  0  0  0  0  0  0  0  0  0  0  0
   -1.2741    1.2125   -5.3102 C   0  0  0  0  0  0  0  0  0  0  0  0
   -2.2173    1.5213   -4.3980 C   0  0  0  0  0  0  0  0  0  0  0  0
   -2.9001    0.3097   -4.1038 C   0  0  0  0  0  0  0  0  0  0  0  0
   -2.5413   -0.8911   -4.7307 C   0  0  0  0  0  0  0  0  0  0  0  0
   -1.2020   -1.8788   -6.1407 H   0  0  0  0  0  0  0  0  0  0  0  0
    0.1745    0.2199   -6.7335 H   0  0  0  0  0  0  0  0  0  0  0  0
   -2.4479    2.4824   -3.9515 H   0  0  0  0  0  0  0  0  0  0  0  0
   -3.7125    0.3524   -3.3773 H   0  0  0  0  0  0  0  0  0  0  0  0
   -0.3086    3.4716   -5.8624 N   0  0  0  0  0  0  0  0  0  0  0  0
    0.1207    4.4584   -6.1043 N   0  0  0  0  0  0  0  0  0  0  0  0
    2.5419    0.9461   -6.8639 S   0  0  0  0  0  0  0  0  0  0  0  0
    3.4646   -0.5086   -6.0735 C   0  0  0  0  0  0  0  0  0  0  0  0
    3.5129    1.5676   -7.7922 O   0  0  0  0  0  0  0  0  0  0  0  0
    2.0504    1.7448   -5.6976 O   0  0  0  0  0  0  0  0  0  0  0  0
    1.3842    0.2212   -7.5869 O   0  0  0  0  0  0  0  0  0  0  0  0
    3.9294   -1.3460   -7.0130 F   0  0  0  0  0  0  0  0  0  0  0  0
    4.4962   -0.0632   -5.3407 F   0  0  0  0  0  0  0  0  0  0  0  0
    2.6314   -1.1987   -5.2628 F   0  0  0  0  0  0  0  0  0  0  0  0
   -3.0827   -1.8035   -4.4824 H   0  0  0  0  0  0  0  0  0  0  0  0
  1  6  1  0  0  0  0
  2  1  2  0  0  0  0
  2  3  1  0  0  0  0
  3  4  2  0  0  0  0
  4  5  1  0  0  0  0
  4  9  1  0  0  0  0
  5 10  1  0  0  0  0
  6 21  1  0  0  0  0
  6  5  2  0  0  0  0
  7  1  1  0  0  0  0
  8  2  1  0  0  0  0
 12 11  3  0  0  0  0
 13 14  1  0  0  0  0
 13 16  1  0  0  0  0
 14 19  1  0  0  0  0
 14 20  1  0  0  0  0
 15 13  2  0  0  0  0
 17 13  2  0  0  0  0
 18 14  1  0  0  0  0
M  RAD  2   3   2  16   2
M  END
