Coordinates from ORCA-job Ph-N2-OTf-B3LYPG-aug-cc-pVDZ-scan-d09-29-n200
 OpenBabel01151817073D

 21 19  0  0  0  0  0  0  0  0999 V2000
   -1.6117   -0.9586   -5.7413 C   0  0  0  0  0  0  0  0  0  0  0  0
   -0.8943    0.2572   -5.8809 C   0  0  0  0  0  0  0  0  0  0  0  0
   -1.3249    1.2084   -5.1657 C   0  0  0  0  0  0  0  0  0  0  0  0
   -2.3007    1.4419   -4.2412 C   0  0  0  0  0  0  0  0  0  0  0  0
   -3.0192    0.2261   -4.1002 C   0  0  0  0  0  0  0  0  0  0  0  0
   -2.6820   -0.9305   -4.8277 C   0  0  0  0  0  0  0  0  0  0  0  0
   -1.3585   -1.8636   -6.2932 H   0  0  0  0  0  0  0  0  0  0  0  0
    0.6364    0.2162   -6.9191 H   0  0  0  0  0  0  0  0  0  0  0  0
   -2.5316    2.3554   -3.7024 H   0  0  0  0  0  0  0  0  0  0  0  0
   -3.8599    0.2065   -3.4046 H   0  0  0  0  0  0  0  0  0  0  0  0
   -0.4102    3.7799   -5.3973 N   0  0  0  0  0  0  0  0  0  0  0  0
    0.2195    4.5952   -5.7937 N   0  0  0  0  0  0  0  0  0  0  0  0
    2.7262    0.8451   -7.1556 S   0  0  0  0  0  0  0  0  0  0  0  0
    3.5295   -0.3828   -5.9499 C   0  0  0  0  0  0  0  0  0  0  0  0
    3.5859    0.8957   -8.3452 O   0  0  0  0  0  0  0  0  0  0  0  0
    2.3762    2.0411   -6.3640 O   0  0  0  0  0  0  0  0  0  0  0  0
    1.3934    0.0067   -7.5511 O   0  0  0  0  0  0  0  0  0  0  0  0
    3.7997   -1.5311   -6.5756 F   0  0  0  0  0  0  0  0  0  0  0  0
    4.6630    0.1525   -5.4859 F   0  0  0  0  0  0  0  0  0  0  0  0
    2.6964   -0.6186   -4.9264 F   0  0  0  0  0  0  0  0  0  0  0  0
   -3.2714   -1.8361   -4.6762 H   0  0  0  0  0  0  0  0  0  0  0  0
  1  6  1  0  0  0  0
  2  1  2  0  0  0  0
  2  3  1  0  0  0  0
  3  4  2  0  0  0  0
  4  5  1  0  0  0  0
  4  9  1  0  0  0  0
  5 10  1  0  0  0  0
  6 21  1  0  0  0  0
  6  5  2  0  0  0  0
  7  1  1  0  0  0  0
 12 11  3  0  0  0  0
 13 16  2  0  0  0  0
 13 14  1  0  0  0  0
 14 19  1  0  0  0  0
 14 20  1  0  0  0  0
 15 13  2  0  0  0  0
 17 13  1  0  0  0  0
 17  8  1  0  0  0  0
 18 14  1  0  0  0  0
M  RAD  2   2   2   3   2
M  END
