Coordinates from ORCA-job Ph-N2-OTf-B3LYPG-aug-cc-pVDZ-scan-d29-49-n200
 OpenBabel01151817073D

 21 19  0  0  0  0  0  0  0  0999 V2000
   -1.7653   -1.0881   -5.8279 C   0  0  0  0  0  0  0  0  0  0  0  0
   -0.9205    0.0468   -5.8803 C   0  0  0  0  0  0  0  0  0  0  0  0
   -1.2981    1.0425   -5.2007 C   0  0  0  0  0  0  0  0  0  0  0  0
   -2.3336    1.3846   -4.3773 C   0  0  0  0  0  0  0  0  0  0  0  0
   -3.1867    0.2506   -4.3182 C   0  0  0  0  0  0  0  0  0  0  0  0
   -2.9080   -0.9376   -5.0188 C   0  0  0  0  0  0  0  0  0  0  0  0
   -1.5629   -2.0141   -6.3650 H   0  0  0  0  0  0  0  0  0  0  0  0
    0.6601    0.0548   -6.9162 H   0  0  0  0  0  0  0  0  0  0  0  0
   -2.5174    2.3165   -3.8517 H   0  0  0  0  0  0  0  0  0  0  0  0
   -4.0859    0.3205   -3.7035 H   0  0  0  0  0  0  0  0  0  0  0  0
    0.1047    4.3878   -4.7637 N   0  0  0  0  0  0  0  0  0  0  0  0
    0.8293    5.2142   -4.8667 N   0  0  0  0  0  0  0  0  0  0  0  0
    2.7109    0.7920   -7.1343 S   0  0  0  0  0  0  0  0  0  0  0  0
    3.5858   -0.4515   -5.9962 C   0  0  0  0  0  0  0  0  0  0  0  0
    3.5512    0.9394   -8.3294 O   0  0  0  0  0  0  0  0  0  0  0  0
    2.3101    1.9294   -6.2841 O   0  0  0  0  0  0  0  0  0  0  0  0
    1.4160   -0.0949   -7.5583 O   0  0  0  0  0  0  0  0  0  0  0  0
    3.9070   -1.5525   -6.6797 F   0  0  0  0  0  0  0  0  0  0  0  0
    4.6950    0.1174   -5.5144 F   0  0  0  0  0  0  0  0  0  0  0  0
    2.7744   -0.7780   -4.9804 F   0  0  0  0  0  0  0  0  0  0  0  0
   -3.6045   -1.7730   -4.9307 H   0  0  0  0  0  0  0  0  0  0  0  0
  1  6  1  0  0  0  0
  2  1  2  0  0  0  0
  2  3  1  0  0  0  0
  3  4  2  0  0  0  0
  4  5  1  0  0  0  0
  4  9  1  0  0  0  0
  5 10  1  0  0  0  0
  6 21  1  0  0  0  0
  6  5  2  0  0  0  0
  7  1  1  0  0  0  0
 12 11  3  0  0  0  0
 13 16  2  0  0  0  0
 13 14  1  0  0  0  0
 14 19  1  0  0  0  0
 14 20  1  0  0  0  0
 15 13  2  0  0  0  0
 17 13  1  0  0  0  0
 17  8  1  0  0  0  0
 18 14  1  0  0  0  0
M  RAD  2   2   2   3   2
M  END
