Coordinates from ORCA-job Ph-N2-OTf-B3LYPG-aug-cc-pVDZ-scan-d29-49-n200
 OpenBabel01151817073D

 21 19  0  0  0  0  0  0  0  0999 V2000
   -1.7675   -1.0913   -5.8285 C   0  0  0  0  0  0  0  0  0  0  0  0
   -0.9214    0.0424   -5.8813 C   0  0  0  0  0  0  0  0  0  0  0  0
   -1.2975    1.0379   -5.2020 C   0  0  0  0  0  0  0  0  0  0  0  0
   -2.3309    1.3837   -4.3785 C   0  0  0  0  0  0  0  0  0  0  0  0
   -3.1861    0.2511   -4.3185 C   0  0  0  0  0  0  0  0  0  0  0  0
   -2.9098   -0.9382   -5.0189 C   0  0  0  0  0  0  0  0  0  0  0  0
   -1.5669   -2.0178   -6.3655 H   0  0  0  0  0  0  0  0  0  0  0  0
    0.6600    0.0521   -6.9167 H   0  0  0  0  0  0  0  0  0  0  0  0
   -2.5127    2.3161   -3.8533 H   0  0  0  0  0  0  0  0  0  0  0  0
   -4.0849    0.3229   -3.7035 H   0  0  0  0  0  0  0  0  0  0  0  0
    0.1054    4.3936   -4.7605 N   0  0  0  0  0  0  0  0  0  0  0  0
    0.8305    5.2194   -4.8641 N   0  0  0  0  0  0  0  0  0  0  0  0
    2.7107    0.7924   -7.1345 S   0  0  0  0  0  0  0  0  0  0  0  0
    3.5860   -0.4503   -5.9958 C   0  0  0  0  0  0  0  0  0  0  0  0
    3.5509    0.9399   -8.3297 O   0  0  0  0  0  0  0  0  0  0  0  0
    2.3096    1.9304   -6.2846 O   0  0  0  0  0  0  0  0  0  0  0  0
    1.4165   -0.0964   -7.5583 O   0  0  0  0  0  0  0  0  0  0  0  0
    3.9079   -1.5513   -6.6789 F   0  0  0  0  0  0  0  0  0  0  0  0
    4.6949    0.1194   -5.5141 F   0  0  0  0  0  0  0  0  0  0  0  0
    2.7748   -0.7768   -4.9800 F   0  0  0  0  0  0  0  0  0  0  0  0
   -3.6078   -1.7723   -4.9301 H   0  0  0  0  0  0  0  0  0  0  0  0
  1  6  1  0  0  0  0
  2  1  2  0  0  0  0
  2  3  1  0  0  0  0
  3  4  2  0  0  0  0
  4  5  1  0  0  0  0
  4  9  1  0  0  0  0
  5 10  1  0  0  0  0
  6 21  1  0  0  0  0
  6  5  2  0  0  0  0
  7  1  1  0  0  0  0
 12 11  3  0  0  0  0
 13 16  2  0  0  0  0
 13 14  1  0  0  0  0
 14 19  1  0  0  0  0
 14 20  1  0  0  0  0
 15 13  2  0  0  0  0
 17 13  1  0  0  0  0
 17  8  1  0  0  0  0
 18 14  1  0  0  0  0
M  RAD  2   2   2   3   2
M  END
