Coordinates from ORCA-job Ph-N2-OTf-B3LYPG-aug-cc-pVDZ-scan-d09-29-n200
 OpenBabel01151817073D

 21 20  0  0  0  0  0  0  0  0999 V2000
   -1.5418   -0.9882   -5.6048 C   0  0  0  0  0  0  0  0  0  0  0  0
   -0.8031    0.1036   -6.1019 C   0  0  0  0  0  0  0  0  0  0  0  0
   -1.1611    1.2606   -5.4871 C   0  0  0  0  0  0  0  0  0  0  0  0
   -2.0532    1.5798   -4.4997 C   0  0  0  0  0  0  0  0  0  0  0  0
   -2.7520    0.4464   -4.0454 C   0  0  0  0  0  0  0  0  0  0  0  0
   -2.4966   -0.8151   -4.5959 C   0  0  0  0  0  0  0  0  0  0  0  0
   -1.3379   -1.9762   -6.0163 H   0  0  0  0  0  0  0  0  0  0  0  0
   -0.0031    0.0509   -6.8560 H   0  0  0  0  0  0  0  0  0  0  0  0
   -2.2088    2.5772   -4.1003 H   0  0  0  0  0  0  0  0  0  0  0  0
   -3.4914    0.5737   -3.2553 H   0  0  0  0  0  0  0  0  0  0  0  0
   -0.2960    2.7454   -6.1297 N   0  0  0  0  0  0  0  0  0  0  0  0
   -0.0538    3.7482   -6.5211 N   0  0  0  0  0  0  0  0  0  0  0  0
    2.5557    1.1798   -6.6586 S   0  0  0  0  0  0  0  0  0  0  0  0
    3.3452   -0.4656   -6.1405 C   0  0  0  0  0  0  0  0  0  0  0  0
    3.6884    2.0198   -7.1212 O   0  0  0  0  0  0  0  0  0  0  0  0
    1.8617    1.6304   -5.3889 O   0  0  0  0  0  0  0  0  0  0  0  0
    1.5603    0.7610   -7.7229 O   0  0  0  0  0  0  0  0  0  0  0  0
    3.9983   -1.0267   -7.1706 F   0  0  0  0  0  0  0  0  0  0  0  0
    4.2096   -0.2858   -5.1293 F   0  0  0  0  0  0  0  0  0  0  0  0
    2.3881   -1.3331   -5.7272 F   0  0  0  0  0  0  0  0  0  0  0  0
   -3.0467   -1.6792   -4.2247 H   0  0  0  0  0  0  0  0  0  0  0  0
  1  6  1  0  0  0  0
  2  1  2  0  0  0  0
  2  3  1  0  0  0  0
  3  4  2  0  0  0  0
  4  9  1  0  0  0  0
  4  5  1  0  0  0  0
  5 10  1  0  0  0  0
  6 21  1  0  0  0  0
  6  5  2  0  0  0  0
  7  1  1  0  0  0  0
  8  2  1  0  0  0  0
 11  3  1  0  0  0  0
 12 11  1  0  0  0  0
 13 14  1  0  0  0  0
 13 16  1  0  0  0  0
 14 20  1  0  0  0  0
 14 19  1  0  0  0  0
 15 13  2  0  0  0  0
 17 13  2  0  0  0  0
 18 14  1  0  0  0  0
M  RAD  3  11   2  12   3  16   2
M  END
