Coordinates from ORCA-job Ph-N2-OTf-B3LYPG-aug-cc-pVDZ-scan-d09-29-n200
 OpenBabel01151817073D

 21 19  0  0  0  0  0  0  0  0999 V2000
   -1.5246   -0.9167   -5.6323 C   0  0  0  0  0  0  0  0  0  0  0  0
   -0.7766    0.2430   -5.9985 C   0  0  0  0  0  0  0  0  0  0  0  0
   -1.2760    1.2654   -5.3235 C   0  0  0  0  0  0  0  0  0  0  0  0
   -2.2365    1.5617   -4.4166 C   0  0  0  0  0  0  0  0  0  0  0  0
   -2.9290    0.3663   -4.1052 C   0  0  0  0  0  0  0  0  0  0  0  0
   -2.5723   -0.8461   -4.7094 C   0  0  0  0  0  0  0  0  0  0  0  0
   -1.2314   -1.8608   -6.0930 H   0  0  0  0  0  0  0  0  0  0  0  0
    0.1254    0.2167   -6.7055 H   0  0  0  0  0  0  0  0  0  0  0  0
   -2.4640    2.5301   -3.9838 H   0  0  0  0  0  0  0  0  0  0  0  0
   -3.7444    0.4245   -3.3838 H   0  0  0  0  0  0  0  0  0  0  0  0
   -0.2959    3.1910   -5.8612 N   0  0  0  0  0  0  0  0  0  0  0  0
    0.0682    4.1975   -6.1262 N   0  0  0  0  0  0  0  0  0  0  0  0
    2.5526    0.9631   -6.8375 S   0  0  0  0  0  0  0  0  0  0  0  0
    3.5255   -0.4985   -6.1233 C   0  0  0  0  0  0  0  0  0  0  0  0
    3.5195    1.6928   -7.6916 O   0  0  0  0  0  0  0  0  0  0  0  0
    2.0233    1.6665   -5.6203 O   0  0  0  0  0  0  0  0  0  0  0  0
    1.4352    0.2537   -7.6134 O   0  0  0  0  0  0  0  0  0  0  0  0
    4.0344   -1.2593   -7.1053 F   0  0  0  0  0  0  0  0  0  0  0  0
    4.5325   -0.0606   -5.3510 F   0  0  0  0  0  0  0  0  0  0  0  0
    2.7143   -1.2713   -5.3657 F   0  0  0  0  0  0  0  0  0  0  0  0
   -3.1188   -1.7522   -4.4502 H   0  0  0  0  0  0  0  0  0  0  0  0
  1  6  1  0  0  0  0
  2  1  2  0  0  0  0
  2  3  1  0  0  0  0
  3  4  2  0  0  0  0
  4  5  1  0  0  0  0
  4  9  1  0  0  0  0
  5 10  1  0  0  0  0
  6 21  1  0  0  0  0
  6  5  2  0  0  0  0
  7  1  1  0  0  0  0
  8  2  1  0  0  0  0
 12 11  3  0  0  0  0
 13 14  1  0  0  0  0
 13 16  1  0  0  0  0
 14 20  1  0  0  0  0
 14 19  1  0  0  0  0
 15 13  2  0  0  0  0
 17 13  2  0  0  0  0
 18 14  1  0  0  0  0
M  RAD  2   3   2  16   2
M  END
