Coordinates from ORCA-job Ph-N2-OTf-B3LYPG-aug-cc-pVDZ-scan-d29-49-n200
 OpenBabel01151817073D

 21 19  0  0  0  0  0  0  0  0999 V2000
   -2.0323   -1.3693   -5.8969 C   0  0  0  0  0  0  0  0  0  0  0  0
   -0.9406   -0.4834   -6.0482 C   0  0  0  0  0  0  0  0  0  0  0  0
   -1.0191    0.6032   -5.4098 C   0  0  0  0  0  0  0  0  0  0  0  0
   -1.8907    1.2347   -4.5685 C   0  0  0  0  0  0  0  0  0  0  0  0
   -2.9926    0.3527   -4.4097 C   0  0  0  0  0  0  0  0  0  0  0  0
   -3.0561   -0.8994   -5.0511 C   0  0  0  0  0  0  0  0  0  0  0  0
   -2.0966   -2.3395   -6.3883 H   0  0  0  0  0  0  0  0  0  0  0  0
    0.6903   -0.4878   -7.0728 H   0  0  0  0  0  0  0  0  0  0  0  0
   -1.8107    2.2065   -4.0909 H   0  0  0  0  0  0  0  0  0  0  0  0
   -3.8118    0.6725   -3.7632 H   0  0  0  0  0  0  0  0  0  0  0  0
    0.0734    5.1557   -4.1834 N   0  0  0  0  0  0  0  0  0  0  0  0
    0.8283    5.9358   -4.3849 N   0  0  0  0  0  0  0  0  0  0  0  0
    2.5319    0.6716   -7.1777 S   0  0  0  0  0  0  0  0  0  0  0  0
    3.5881   -0.2857   -5.9227 C   0  0  0  0  0  0  0  0  0  0  0  0
    3.4024    0.9803   -8.3183 O   0  0  0  0  0  0  0  0  0  0  0  0
    1.8069    1.7079   -6.4139 O   0  0  0  0  0  0  0  0  0  0  0  0
    1.5176   -0.5126   -7.6368 O   0  0  0  0  0  0  0  0  0  0  0  0
    4.2061   -1.3033   -6.5256 F   0  0  0  0  0  0  0  0  0  0  0  0
    4.4953    0.5492   -5.4063 F   0  0  0  0  0  0  0  0  0  0  0  0
    2.8048   -0.7553   -4.9424 F   0  0  0  0  0  0  0  0  0  0  0  0
   -3.9332   -1.5271   -4.8860 H   0  0  0  0  0  0  0  0  0  0  0  0
  1  6  1  0  0  0  0
  2  1  2  0  0  0  0
  2  3  1  0  0  0  0
  3  4  2  0  0  0  0
  4  5  1  0  0  0  0
  4  9  1  0  0  0  0
  5 10  1  0  0  0  0
  6 21  1  0  0  0  0
  6  5  2  0  0  0  0
  7  1  1  0  0  0  0
 12 11  3  0  0  0  0
 13 16  2  0  0  0  0
 13 14  1  0  0  0  0
 14 19  1  0  0  0  0
 14 20  1  0  0  0  0
 15 13  2  0  0  0  0
 17 13  1  0  0  0  0
 17  8  1  0  0  0  0
 18 14  1  0  0  0  0
M  RAD  2   2   2   3   2
M  END
