Coordinates from ORCA-job Ph-N2-OTf-B3LYPG-aug-cc-pVDZ-scan-d29-49-n200
 OpenBabel01151817073D

 21 19  0  0  0  0  0  0  0  0999 V2000
   -1.6436   -0.9564   -5.7490 C   0  0  0  0  0  0  0  0  0  0  0  0
   -0.8661    0.2293   -5.7949 C   0  0  0  0  0  0  0  0  0  0  0  0
   -1.3431    1.1980   -5.1351 C   0  0  0  0  0  0  0  0  0  0  0  0
   -2.4285    1.4836   -4.3586 C   0  0  0  0  0  0  0  0  0  0  0  0
   -3.2073    0.2972   -4.3119 C   0  0  0  0  0  0  0  0  0  0  0  0
   -2.8233   -0.8774   -4.9854 C   0  0  0  0  0  0  0  0  0  0  0  0
   -1.3616   -1.8725   -6.2675 H   0  0  0  0  0  0  0  0  0  0  0  0
    0.6716    0.2415   -6.8373 H   0  0  0  0  0  0  0  0  0  0  0  0
   -2.6901    2.4084   -3.8544 H   0  0  0  0  0  0  0  0  0  0  0  0
   -4.1305    0.3147   -3.7301 H   0  0  0  0  0  0  0  0  0  0  0  0
   -0.1067    3.8966   -5.0288 N   0  0  0  0  0  0  0  0  0  0  0  0
    0.5753    4.7621   -5.0931 N   0  0  0  0  0  0  0  0  0  0  0  0
    2.7684    0.8532   -7.0404 S   0  0  0  0  0  0  0  0  0  0  0  0
    3.5916   -0.5571   -6.0712 C   0  0  0  0  0  0  0  0  0  0  0  0
    3.5859    1.0772   -8.2398 O   0  0  0  0  0  0  0  0  0  0  0  0
    2.4667    1.9153   -6.0608 O   0  0  0  0  0  0  0  0  0  0  0  0
    1.4078    0.1006   -7.5095 O   0  0  0  0  0  0  0  0  0  0  0  0
    3.8185   -1.5972   -6.8774 F   0  0  0  0  0  0  0  0  0  0  0  0
    4.7504   -0.1145   -5.5733 F   0  0  0  0  0  0  0  0  0  0  0  0
    2.7912   -0.9390   -5.0660 F   0  0  0  0  0  0  0  0  0  0  0  0
   -3.4649   -1.7569   -4.9128 H   0  0  0  0  0  0  0  0  0  0  0  0
  1  6  1  0  0  0  0
  2  1  2  0  0  0  0
  2  3  1  0  0  0  0
  3  4  2  0  0  0  0
  4  5  1  0  0  0  0
  4  9  1  0  0  0  0
  5 10  1  0  0  0  0
  6 21  1  0  0  0  0
  6  5  2  0  0  0  0
  7  1  1  0  0  0  0
 12 11  3  0  0  0  0
 13 14  1  0  0  0  0
 13 16  2  0  0  0  0
 14 19  1  0  0  0  0
 14 20  1  0  0  0  0
 15 13  2  0  0  0  0
 17 13  1  0  0  0  0
 17  8  1  0  0  0  0
 18 14  1  0  0  0  0
M  RAD  2   2   2   3   2
M  END
