Coordinates from ORCA-job Ph-N2-OTf-B3LYPG-aug-cc-pVDZ-scan-d29-49-n200
 OpenBabel01151817073D

 21 19  0  0  0  0  0  0  0  0999 V2000
   -1.8257   -1.1587   -5.8587 C   0  0  0  0  0  0  0  0  0  0  0  0
   -0.9122   -0.0804   -5.9243 C   0  0  0  0  0  0  0  0  0  0  0  0
   -1.2125    0.9412   -5.2455 C   0  0  0  0  0  0  0  0  0  0  0  0
   -2.2122    1.3516   -4.4090 C   0  0  0  0  0  0  0  0  0  0  0  0
   -3.1361    0.2754   -4.3352 C   0  0  0  0  0  0  0  0  0  0  0  0
   -2.9453   -0.9307   -5.0349 C   0  0  0  0  0  0  0  0  0  0  0  0
   -1.6911   -2.0977   -6.3945 H   0  0  0  0  0  0  0  0  0  0  0  0
    0.6802   -0.0930   -6.9615 H   0  0  0  0  0  0  0  0  0  0  0  0
   -2.3281    2.2954   -3.8852 H   0  0  0  0  0  0  0  0  0  0  0  0
   -4.0207    0.4049   -3.7089 H   0  0  0  0  0  0  0  0  0  0  0  0
   -0.0490    4.7815   -4.5308 N   0  0  0  0  0  0  0  0  0  0  0  0
    0.6703    5.6112   -4.6456 N   0  0  0  0  0  0  0  0  0  0  0  0
    2.7036    0.7093   -7.1803 S   0  0  0  0  0  0  0  0  0  0  0  0
    3.6110   -0.4613   -5.9915 C   0  0  0  0  0  0  0  0  0  0  0  0
    3.5523    0.8489   -8.3703 O   0  0  0  0  0  0  0  0  0  0  0  0
    2.2485    1.8579   -6.3736 O   0  0  0  0  0  0  0  0  0  0  0  0
    1.4481   -0.2408   -7.5882 O   0  0  0  0  0  0  0  0  0  0  0  0
    3.9825   -1.5710   -6.6340 F   0  0  0  0  0  0  0  0  0  0  0  0
    4.6917    0.1660   -5.5171 F   0  0  0  0  0  0  0  0  0  0  0  0
    2.8004   -0.7847   -4.9743 F   0  0  0  0  0  0  0  0  0  0  0  0
   -3.6939   -1.7182   -4.9339 H   0  0  0  0  0  0  0  0  0  0  0  0
  1  6  1  0  0  0  0
  2  1  2  0  0  0  0
  2  3  1  0  0  0  0
  3  4  2  0  0  0  0
  4  5  1  0  0  0  0
  4  9  1  0  0  0  0
  5 10  1  0  0  0  0
  6 21  1  0  0  0  0
  6  5  2  0  0  0  0
  7  1  1  0  0  0  0
 12 11  3  0  0  0  0
 13 16  2  0  0  0  0
 13 14  1  0  0  0  0
 14 19  1  0  0  0  0
 14 20  1  0  0  0  0
 15 13  2  0  0  0  0
 17 13  1  0  0  0  0
 17  8  1  0  0  0  0
 18 14  1  0  0  0  0
M  RAD  2   2   2   3   2
M  END
