Coordinates from ORCA-job Ph-N2-OTf-B3LYPG-aug-cc-pVDZ-scan-d29-49-n200
 OpenBabel01151817073D

 21 19  0  0  0  0  0  0  0  0999 V2000
   -1.7774   -1.1016   -5.8320 C   0  0  0  0  0  0  0  0  0  0  0  0
   -0.9212    0.0241   -5.8858 C   0  0  0  0  0  0  0  0  0  0  0  0
   -1.2857    1.0248   -5.2068 C   0  0  0  0  0  0  0  0  0  0  0  0
   -2.3164    1.3787   -4.3823 C   0  0  0  0  0  0  0  0  0  0  0  0
   -3.1817    0.2541   -4.3212 C   0  0  0  0  0  0  0  0  0  0  0  0
   -2.9173   -0.9377   -5.0213 C   0  0  0  0  0  0  0  0  0  0  0  0
   -1.5861   -2.0302   -6.3687 H   0  0  0  0  0  0  0  0  0  0  0  0
    0.6633    0.0328   -6.9222 H   0  0  0  0  0  0  0  0  0  0  0  0
   -2.4893    2.3130   -3.8572 H   0  0  0  0  0  0  0  0  0  0  0  0
   -4.0793    0.3342   -3.7053 H   0  0  0  0  0  0  0  0  0  0  0  0
    0.0910    4.4409   -4.7276 N   0  0  0  0  0  0  0  0  0  0  0  0
    0.8183    5.2639   -4.8383 N   0  0  0  0  0  0  0  0  0  0  0  0
    2.7091    0.7825   -7.1415 S   0  0  0  0  0  0  0  0  0  0  0  0
    3.5908   -0.4482   -5.9946 C   0  0  0  0  0  0  0  0  0  0  0  0
    3.5501    0.9284   -8.3363 O   0  0  0  0  0  0  0  0  0  0  0  0
    2.2991    1.9221   -6.2988 O   0  0  0  0  0  0  0  0  0  0  0  0
    1.4208   -0.1162   -7.5620 O   0  0  0  0  0  0  0  0  0  0  0  0
    3.9210   -1.5508   -6.6711 F   0  0  0  0  0  0  0  0  0  0  0  0
    4.6952    0.1316   -5.5144 F   0  0  0  0  0  0  0  0  0  0  0  0
    2.7802   -0.7743   -4.9782 F   0  0  0  0  0  0  0  0  0  0  0  0
   -3.6229   -1.7652   -4.9315 H   0  0  0  0  0  0  0  0  0  0  0  0
  1  6  1  0  0  0  0
  2  1  2  0  0  0  0
  2  3  1  0  0  0  0
  3  4  2  0  0  0  0
  4  5  1  0  0  0  0
  4  9  1  0  0  0  0
  5 10  1  0  0  0  0
  6 21  1  0  0  0  0
  6  5  2  0  0  0  0
  7  1  1  0  0  0  0
 12 11  3  0  0  0  0
 13 16  2  0  0  0  0
 13 14  1  0  0  0  0
 14 19  1  0  0  0  0
 14 20  1  0  0  0  0
 15 13  2  0  0  0  0
 17 13  1  0  0  0  0
 17  8  1  0  0  0  0
 18 14  1  0  0  0  0
M  RAD  2   2   2   3   2
M  END
