Coordinates from ORCA-job Ph-N2-OTf-B3LYPG-aug-cc-pVDZ-scan-d09-29-n200
 OpenBabel01151817073D

 21 19  0  0  0  0  0  0  0  0999 V2000
   -1.4998   -0.9552   -5.6896 C   0  0  0  0  0  0  0  0  0  0  0  0
   -0.7542    0.2334   -6.0056 C   0  0  0  0  0  0  0  0  0  0  0  0
   -1.2691    1.1845   -5.2850 C   0  0  0  0  0  0  0  0  0  0  0  0
   -2.2071    1.4893   -4.3664 C   0  0  0  0  0  0  0  0  0  0  0  0
   -2.8968    0.2736   -4.1029 C   0  0  0  0  0  0  0  0  0  0  0  0
   -2.5429   -0.9152   -4.7581 C   0  0  0  0  0  0  0  0  0  0  0  0
   -1.2083   -1.8800   -6.1891 H   0  0  0  0  0  0  0  0  0  0  0  0
    0.2146    0.2153   -6.7458 H   0  0  0  0  0  0  0  0  0  0  0  0
   -2.4302    2.4433   -3.9013 H   0  0  0  0  0  0  0  0  0  0  0  0
   -3.7109    0.3024   -3.3775 H   0  0  0  0  0  0  0  0  0  0  0  0
   -0.2944    3.6391   -5.8414 N   0  0  0  0  0  0  0  0  0  0  0  0
    0.1585    4.6121   -6.0970 N   0  0  0  0  0  0  0  0  0  0  0  0
    2.5347    0.9230   -6.8921 S   0  0  0  0  0  0  0  0  0  0  0  0
    3.4484   -0.5011   -6.0378 C   0  0  0  0  0  0  0  0  0  0  0  0
    3.4882    1.4641   -7.8841 O   0  0  0  0  0  0  0  0  0  0  0  0
    2.0711    1.7940   -5.7714 O   0  0  0  0  0  0  0  0  0  0  0  0
    1.3491    0.1675   -7.5558 O   0  0  0  0  0  0  0  0  0  0  0  0
    3.8814   -1.3962   -6.9374 F   0  0  0  0  0  0  0  0  0  0  0  0
    4.4997   -0.0290   -5.3524 F   0  0  0  0  0  0  0  0  0  0  0  0
    2.6200   -1.1283   -5.1748 F   0  0  0  0  0  0  0  0  0  0  0  0
   -3.0902   -1.8299   -4.5317 H   0  0  0  0  0  0  0  0  0  0  0  0
  1  6  1  0  0  0  0
  2  1  2  0  0  0  0
  2  3  1  0  0  0  0
  3  4  2  0  0  0  0
  4  5  1  0  0  0  0
  4  9  1  0  0  0  0
  5 10  1  0  0  0  0
  6 21  1  0  0  0  0
  6  5  2  0  0  0  0
  7  1  1  0  0  0  0
  8  2  1  0  0  0  0
 12 11  3  0  0  0  0
 13 14  1  0  0  0  0
 13 16  1  0  0  0  0
 14 19  1  0  0  0  0
 14 20  1  0  0  0  0
 15 13  2  0  0  0  0
 17 13  2  0  0  0  0
 18 14  1  0  0  0  0
M  RAD  2   3   2  16   2
M  END
