Coordinates from ORCA-job Ph-N2-OTf-B3LYPG-aug-cc-pVDZ-scan-d29-49-n200
 OpenBabel01151817073D

 21 19  0  0  0  0  0  0  0  0999 V2000
   -1.8114   -1.1448   -5.8485 C   0  0  0  0  0  0  0  0  0  0  0  0
   -0.9204   -0.0479   -5.9184 C   0  0  0  0  0  0  0  0  0  0  0  0
   -1.2425    0.9681   -5.2424 C   0  0  0  0  0  0  0  0  0  0  0  0
   -2.2494    1.3627   -4.4074 C   0  0  0  0  0  0  0  0  0  0  0  0
   -3.1507    0.2676   -4.3289 C   0  0  0  0  0  0  0  0  0  0  0  0
   -2.9350   -0.9370   -5.0247 C   0  0  0  0  0  0  0  0  0  0  0  0
   -1.6576   -2.0826   -6.3812 H   0  0  0  0  0  0  0  0  0  0  0  0
    0.6733   -0.0458   -6.9538 H   0  0  0  0  0  0  0  0  0  0  0  0
   -2.3845    2.3056   -3.8866 H   0  0  0  0  0  0  0  0  0  0  0  0
   -4.0376    0.3811   -3.7029 H   0  0  0  0  0  0  0  0  0  0  0  0
    0.0132    4.6525   -4.5995 N   0  0  0  0  0  0  0  0  0  0  0  0
    0.7384    5.4771   -4.7135 N   0  0  0  0  0  0  0  0  0  0  0  0
    2.7052    0.7418   -7.1652 S   0  0  0  0  0  0  0  0  0  0  0  0
    3.5992   -0.4529   -5.9902 C   0  0  0  0  0  0  0  0  0  0  0  0
    3.5549    0.8854   -8.3540 O   0  0  0  0  0  0  0  0  0  0  0  0
    2.2645    1.8869   -6.3448 O   0  0  0  0  0  0  0  0  0  0  0  0
    1.4392   -0.1898   -7.5839 O   0  0  0  0  0  0  0  0  0  0  0  0
    3.9581   -1.5591   -6.6456 F   0  0  0  0  0  0  0  0  0  0  0  0
    4.6869    0.1564   -5.5084 F   0  0  0  0  0  0  0  0  0  0  0  0
    2.7848   -0.7790   -4.9768 F   0  0  0  0  0  0  0  0  0  0  0  0
   -3.6669   -1.7397   -4.9207 H   0  0  0  0  0  0  0  0  0  0  0  0
  1  6  1  0  0  0  0
  2  1  2  0  0  0  0
  2  3  1  0  0  0  0
  3  4  2  0  0  0  0
  4  5  1  0  0  0  0
  4  9  1  0  0  0  0
  5 10  1  0  0  0  0
  6 21  1  0  0  0  0
  6  5  2  0  0  0  0
  7  1  1  0  0  0  0
 12 11  3  0  0  0  0
 13 16  2  0  0  0  0
 13 14  1  0  0  0  0
 14 19  1  0  0  0  0
 14 20  1  0  0  0  0
 15 13  2  0  0  0  0
 17 13  1  0  0  0  0
 17  8  1  0  0  0  0
 18 14  1  0  0  0  0
M  RAD  2   2   2   3   2
M  END
