Coordinates from ORCA-job Ph-N2-OTf-B3LYPG-aug-cc-pVDZ-scan-d29-49-n200
 OpenBabel01151817073D

 21 19  0  0  0  0  0  0  0  0999 V2000
   -2.0315   -1.3668   -5.8975 C   0  0  0  0  0  0  0  0  0  0  0  0
   -0.9410   -0.4789   -6.0463 C   0  0  0  0  0  0  0  0  0  0  0  0
   -1.0219    0.6064   -5.4061 C   0  0  0  0  0  0  0  0  0  0  0  0
   -1.8952    1.2350   -4.5644 C   0  0  0  0  0  0  0  0  0  0  0  0
   -2.9958    0.3509   -4.4080 C   0  0  0  0  0  0  0  0  0  0  0  0
   -3.0567   -0.9001   -5.0517 C   0  0  0  0  0  0  0  0  0  0  0  0
   -2.0938   -2.3363   -6.3907 H   0  0  0  0  0  0  0  0  0  0  0  0
    0.6896   -0.4825   -7.0706 H   0  0  0  0  0  0  0  0  0  0  0  0
   -1.8171    2.2061   -4.0850 H   0  0  0  0  0  0  0  0  0  0  0  0
   -3.8160    0.6683   -3.7617 H   0  0  0  0  0  0  0  0  0  0  0  0
    0.0813    5.1388   -4.1942 N   0  0  0  0  0  0  0  0  0  0  0  0
    0.8386    5.9162   -4.3972 N   0  0  0  0  0  0  0  0  0  0  0  0
    2.5323    0.6753   -7.1765 S   0  0  0  0  0  0  0  0  0  0  0  0
    3.5880   -0.2827   -5.9218 C   0  0  0  0  0  0  0  0  0  0  0  0
    3.4026    0.9829   -8.3176 O   0  0  0  0  0  0  0  0  0  0  0  0
    1.8085    1.7124   -6.4128 O   0  0  0  0  0  0  0  0  0  0  0  0
    1.5167   -0.5082   -7.6350 O   0  0  0  0  0  0  0  0  0  0  0  0
    4.2049   -1.3009   -6.5246 F   0  0  0  0  0  0  0  0  0  0  0  0
    4.4963    0.5516   -5.4060 F   0  0  0  0  0  0  0  0  0  0  0  0
    2.8048   -0.7512   -4.9410 F   0  0  0  0  0  0  0  0  0  0  0  0
   -3.9330   -1.5296   -4.8885 H   0  0  0  0  0  0  0  0  0  0  0  0
  1  6  1  0  0  0  0
  2  1  2  0  0  0  0
  2  3  1  0  0  0  0
  3  4  2  0  0  0  0
  4  5  1  0  0  0  0
  4  9  1  0  0  0  0
  5 10  1  0  0  0  0
  6 21  1  0  0  0  0
  6  5  2  0  0  0  0
  7  1  1  0  0  0  0
 12 11  3  0  0  0  0
 13 16  2  0  0  0  0
 13 14  1  0  0  0  0
 14 19  1  0  0  0  0
 14 20  1  0  0  0  0
 15 13  2  0  0  0  0
 17 13  1  0  0  0  0
 17  8  1  0  0  0  0
 18 14  1  0  0  0  0
M  RAD  2   2   2   3   2
M  END
