Coordinates from ORCA-job Ph-N2-OTf-B3LYPG-aug-cc-pVDZ-scan-d29-49-n200
 OpenBabel01151817073D

 21 19  0  0  0  0  0  0  0  0999 V2000
   -2.0196   -1.3413   -5.9010 C   0  0  0  0  0  0  0  0  0  0  0  0
   -0.9427   -0.4333   -6.0278 C   0  0  0  0  0  0  0  0  0  0  0  0
   -1.0472    0.6404   -5.3724 C   0  0  0  0  0  0  0  0  0  0  0  0
   -1.9365    1.2434   -4.5281 C   0  0  0  0  0  0  0  0  0  0  0  0
   -3.0234    0.3386   -4.3941 C   0  0  0  0  0  0  0  0  0  0  0  0
   -3.0589   -0.9037   -5.0567 C   0  0  0  0  0  0  0  0  0  0  0  0
   -2.0620   -2.3042   -6.4090 H   0  0  0  0  0  0  0  0  0  0  0  0
    0.6836   -0.4344   -7.0498 H   0  0  0  0  0  0  0  0  0  0  0  0
   -1.8786    2.2085   -4.0338 H   0  0  0  0  0  0  0  0  0  0  0  0
   -3.8539    0.6326   -3.7497 H   0  0  0  0  0  0  0  0  0  0  0  0
    0.1303    4.9926   -4.2818 N   0  0  0  0  0  0  0  0  0  0  0  0
    0.9083    5.7473   -4.4919 N   0  0  0  0  0  0  0  0  0  0  0  0
    2.5404    0.7025   -7.1714 S   0  0  0  0  0  0  0  0  0  0  0  0
    3.5898   -0.2623   -5.9167 C   0  0  0  0  0  0  0  0  0  0  0  0
    3.4087    0.9920   -8.3188 O   0  0  0  0  0  0  0  0  0  0  0  0
    1.8343    1.7534   -6.4098 O   0  0  0  0  0  0  0  0  0  0  0  0
    1.5077   -0.4709   -7.6185 O   0  0  0  0  0  0  0  0  0  0  0  0
    4.1912   -1.2914   -6.5170 F   0  0  0  0  0  0  0  0  0  0  0  0
    4.5109    0.5629   -5.4091 F   0  0  0  0  0  0  0  0  0  0  0  0
    2.8053   -0.7162   -4.9299 F   0  0  0  0  0  0  0  0  0  0  0  0
   -3.9260   -1.5496   -4.9098 H   0  0  0  0  0  0  0  0  0  0  0  0
  1  6  1  0  0  0  0
  2  1  2  0  0  0  0
  2  3  1  0  0  0  0
  3  4  2  0  0  0  0
  4  5  1  0  0  0  0
  4  9  1  0  0  0  0
  5 10  1  0  0  0  0
  6 21  1  0  0  0  0
  6  5  2  0  0  0  0
  7  1  1  0  0  0  0
 12 11  3  0  0  0  0
 13 16  2  0  0  0  0
 13 14  1  0  0  0  0
 14 19  1  0  0  0  0
 14 20  1  0  0  0  0
 15 13  2  0  0  0  0
 17 13  1  0  0  0  0
 17  8  1  0  0  0  0
 18 14  1  0  0  0  0
M  RAD  2   2   2   3   2
M  END
