Coordinates from ORCA-job Ph-N2-OTf-B3LYPG-aug-cc-pVDZ-scan-d29-49-n200
 OpenBabel01151817073D

 21 19  0  0  0  0  0  0  0  0999 V2000
   -1.6871   -0.9952   -5.7846 C   0  0  0  0  0  0  0  0  0  0  0  0
   -0.8904    0.1766   -5.8284 C   0  0  0  0  0  0  0  0  0  0  0  0
   -1.3344    1.1501   -5.1548 C   0  0  0  0  0  0  0  0  0  0  0  0
   -2.4006    1.4485   -4.3561 C   0  0  0  0  0  0  0  0  0  0  0  0
   -3.2011    0.2764   -4.3088 C   0  0  0  0  0  0  0  0  0  0  0  0
   -2.8520   -0.8989   -5.0000 C   0  0  0  0  0  0  0  0  0  0  0  0
   -1.4312   -1.9117   -6.3156 H   0  0  0  0  0  0  0  0  0  0  0  0
    0.6652    0.1806   -6.8658 H   0  0  0  0  0  0  0  0  0  0  0  0
   -2.6365    2.3729   -3.8383 H   0  0  0  0  0  0  0  0  0  0  0  0
   -4.1145    0.3057   -3.7121 H   0  0  0  0  0  0  0  0  0  0  0  0
   -0.0166    4.0500   -4.9557 N   0  0  0  0  0  0  0  0  0  0  0  0
    0.6721    4.9100   -5.0218 N   0  0  0  0  0  0  0  0  0  0  0  0
    2.7475    0.8330   -7.0742 S   0  0  0  0  0  0  0  0  0  0  0  0
    3.5902   -0.5179   -6.0392 C   0  0  0  0  0  0  0  0  0  0  0  0
    3.5722    1.0250   -8.2740 O   0  0  0  0  0  0  0  0  0  0  0  0
    2.4113    1.9272   -6.1426 O   0  0  0  0  0  0  0  0  0  0  0  0
    1.4085    0.0306   -7.5257 O   0  0  0  0  0  0  0  0  0  0  0  0
    3.8477   -1.5851   -6.7993 F   0  0  0  0  0  0  0  0  0  0  0  0
    4.7338   -0.0298   -5.5489 F   0  0  0  0  0  0  0  0  0  0  0  0
    2.7874   -0.8751   -5.0270 F   0  0  0  0  0  0  0  0  0  0  0  0
   -3.5098   -1.7662   -4.9243 H   0  0  0  0  0  0  0  0  0  0  0  0
  1  6  1  0  0  0  0
  2  1  2  0  0  0  0
  2  3  1  0  0  0  0
  3  4  2  0  0  0  0
  4  5  1  0  0  0  0
  4  9  1  0  0  0  0
  5 10  1  0  0  0  0
  6 21  1  0  0  0  0
  6  5  2  0  0  0  0
  7  1  1  0  0  0  0
 12 11  3  0  0  0  0
 13 16  2  0  0  0  0
 13 14  1  0  0  0  0
 14 19  1  0  0  0  0
 14 20  1  0  0  0  0
 15 13  2  0  0  0  0
 17 13  1  0  0  0  0
 17  8  1  0  0  0  0
 18 14  1  0  0  0  0
M  RAD  2   2   2   3   2
M  END
