Coordinates from ORCA-job Ph-N2-OTf-B3LYPG-aug-cc-pVDZ-scan-d29-49-n200
 OpenBabel01151817073D

 21 19  0  0  0  0  0  0  0  0999 V2000
   -1.7281   -1.0397   -5.8083 C   0  0  0  0  0  0  0  0  0  0  0  0
   -0.9075    0.1145   -5.8528 C   0  0  0  0  0  0  0  0  0  0  0  0
   -1.3200    1.0969   -5.1733 C   0  0  0  0  0  0  0  0  0  0  0  0
   -2.3716    1.4161   -4.3628 C   0  0  0  0  0  0  0  0  0  0  0  0
   -3.1979    0.2619   -4.3128 C   0  0  0  0  0  0  0  0  0  0  0  0
   -2.8828   -0.9186   -5.0117 C   0  0  0  0  0  0  0  0  0  0  0  0
   -1.4982   -1.9598   -6.3448 H   0  0  0  0  0  0  0  0  0  0  0  0
    0.6605    0.1170   -6.8888 H   0  0  0  0  0  0  0  0  0  0  0  0
   -2.5819    2.3433   -3.8391 H   0  0  0  0  0  0  0  0  0  0  0  0
   -4.1048    0.3095   -3.7075 H   0  0  0  0  0  0  0  0  0  0  0  0
    0.0645    4.2012   -4.8696 N   0  0  0  0  0  0  0  0  0  0  0  0
    0.7645    5.0513   -4.9456 N   0  0  0  0  0  0  0  0  0  0  0  0
    2.7264    0.8139   -7.1058 S   0  0  0  0  0  0  0  0  0  0  0  0
    3.5906   -0.4786   -6.0151 C   0  0  0  0  0  0  0  0  0  0  0  0
    3.5566    0.9808   -8.3055 O   0  0  0  0  0  0  0  0  0  0  0  0
    2.3568    1.9332   -6.2179 O   0  0  0  0  0  0  0  0  0  0  0  0
    1.4101   -0.0360   -7.5391 O   0  0  0  0  0  0  0  0  0  0  0  0
    3.8813   -1.5655   -6.7339 F   0  0  0  0  0  0  0  0  0  0  0  0
    4.7170    0.0545   -5.5320 F   0  0  0  0  0  0  0  0  0  0  0  0
    2.7861   -0.8185   -4.9983 F   0  0  0  0  0  0  0  0  0  0  0  0
   -3.5599   -1.7706   -4.9325 H   0  0  0  0  0  0  0  0  0  0  0  0
  1  6  1  0  0  0  0
  2  1  2  0  0  0  0
  2  3  1  0  0  0  0
  3  4  2  0  0  0  0
  4  5  1  0  0  0  0
  4  9  1  0  0  0  0
  5 10  1  0  0  0  0
  6 21  1  0  0  0  0
  6  5  2  0  0  0  0
  7  1  1  0  0  0  0
 12 11  3  0  0  0  0
 13 16  2  0  0  0  0
 13 14  1  0  0  0  0
 14 19  1  0  0  0  0
 14 20  1  0  0  0  0
 15 13  2  0  0  0  0
 17 13  1  0  0  0  0
 17  8  1  0  0  0  0
 18 14  1  0  0  0  0
M  RAD  2   2   2   3   2
M  END
