Coordinates from ORCA-job Ph-N2-OTf-B3LYPG-aug-cc-pVDZ-scan-d09-29-n200
 OpenBabel01151817073D

 21 19  0  0  0  0  0  0  0  0999 V2000
   -1.5664   -0.9192   -5.6166 C   0  0  0  0  0  0  0  0  0  0  0  0
   -0.7893    0.2168   -5.9811 C   0  0  0  0  0  0  0  0  0  0  0  0
   -1.2658    1.2715   -5.3240 C   0  0  0  0  0  0  0  0  0  0  0  0
   -2.2387    1.5800   -4.4296 C   0  0  0  0  0  0  0  0  0  0  0  0
   -2.9613    0.4055   -4.1173 C   0  0  0  0  0  0  0  0  0  0  0  0
   -2.6239   -0.8189   -4.7076 C   0  0  0  0  0  0  0  0  0  0  0  0
   -1.2923   -1.8738   -6.0668 H   0  0  0  0  0  0  0  0  0  0  0  0
    0.1054    0.1720   -6.6762 H   0  0  0  0  0  0  0  0  0  0  0  0
   -2.4515    2.5554   -4.0047 H   0  0  0  0  0  0  0  0  0  0  0  0
   -3.7837    0.4857   -3.4064 H   0  0  0  0  0  0  0  0  0  0  0  0
   -0.2657    3.0669   -5.8279 N   0  0  0  0  0  0  0  0  0  0  0  0
    0.0738    4.0864   -6.0749 N   0  0  0  0  0  0  0  0  0  0  0  0
    2.5482    0.9559   -6.8393 S   0  0  0  0  0  0  0  0  0  0  0  0
    3.5920   -0.4694   -6.1519 C   0  0  0  0  0  0  0  0  0  0  0  0
    3.4803    1.7507   -7.6754 O   0  0  0  0  0  0  0  0  0  0  0  0
    1.9980    1.6145   -5.6020 O   0  0  0  0  0  0  0  0  0  0  0  0
    1.4600    0.2164   -7.6179 O   0  0  0  0  0  0  0  0  0  0  0  0
    4.1287   -1.1913   -7.1489 F   0  0  0  0  0  0  0  0  0  0  0  0
    4.5841    0.0026   -5.3797 F   0  0  0  0  0  0  0  0  0  0  0  0
    2.8236   -1.2902   -5.4007 F   0  0  0  0  0  0  0  0  0  0  0  0
   -3.1936   -1.7107   -4.4484 H   0  0  0  0  0  0  0  0  0  0  0  0
  1  6  1  0  0  0  0
  2  1  2  0  0  0  0
  2  3  1  0  0  0  0
  3  4  2  0  0  0  0
  4  5  1  0  0  0  0
  4  9  1  0  0  0  0
  5 10  1  0  0  0  0
  6 21  1  0  0  0  0
  6  5  2  0  0  0  0
  7  1  1  0  0  0  0
  8  2  1  0  0  0  0
 12 11  3  0  0  0  0
 13 14  1  0  0  0  0
 13 16  1  0  0  0  0
 14 20  1  0  0  0  0
 14 19  1  0  0  0  0
 15 13  2  0  0  0  0
 17 13  2  0  0  0  0
 18 14  1  0  0  0  0
M  RAD  2   3   2  16   2
M  END
