Coordinates from ORCA-job Ph-N2-OTf-B3LYPG-aug-cc-pVDZ-scan-d09-29-n200
 OpenBabel01151817073D

 21 20  0  0  0  0  0  0  0  0999 V2000
   -1.4081   -0.9611   -5.4868 C   0  0  0  0  0  0  0  0  0  0  0  0
   -0.7657    0.1229   -6.0716 C   0  0  0  0  0  0  0  0  0  0  0  0
   -1.1397    1.4154   -5.6362 C   0  0  0  0  0  0  0  0  0  0  0  0
   -2.1220    1.6358   -4.6399 C   0  0  0  0  0  0  0  0  0  0  0  0
   -2.7377    0.5288   -4.0778 C   0  0  0  0  0  0  0  0  0  0  0  0
   -2.3822   -0.7627   -4.5007 C   0  0  0  0  0  0  0  0  0  0  0  0
   -1.1316   -1.9687   -5.7931 H   0  0  0  0  0  0  0  0  0  0  0  0
    0.0253    0.0391   -6.8191 H   0  0  0  0  0  0  0  0  0  0  0  0
   -2.3679    2.6500   -4.3294 H   0  0  0  0  0  0  0  0  0  0  0  0
   -3.4922    0.6663   -3.3049 H   0  0  0  0  0  0  0  0  0  0  0  0
   -0.5598    2.4529   -6.1678 N   0  0  0  0  0  0  0  0  0  0  0  0
   -0.0749    3.3477   -6.6204 N   0  0  0  0  0  0  0  0  0  0  0  0
    2.5930    1.2580   -6.4720 S   0  0  0  0  0  0  0  0  0  0  0  0
    3.2603   -0.5098   -6.2898 C   0  0  0  0  0  0  0  0  0  0  0  0
    3.7998    2.0892   -6.7112 O   0  0  0  0  0  0  0  0  0  0  0  0
    1.8641    1.4823   -5.1677 O   0  0  0  0  0  0  0  0  0  0  0  0
    1.6283    1.1307   -7.6362 O   0  0  0  0  0  0  0  0  0  0  0  0
    3.9303   -0.8903   -7.3893 F   0  0  0  0  0  0  0  0  0  0  0  0
    4.0800   -0.6108   -5.2310 F   0  0  0  0  0  0  0  0  0  0  0  0
    2.2334   -1.3839   -6.1058 F   0  0  0  0  0  0  0  0  0  0  0  0
   -2.8708   -1.6251   -4.0466 H   0  0  0  0  0  0  0  0  0  0  0  0
  1  6  2  0  0  0  0
  2  3  2  0  0  0  0
  2  1  1  0  0  0  0
  3  4  1  0  0  0  0
  4  9  1  0  0  0  0
  4  5  2  0  0  0  0
  5 10  1  0  0  0  0
  6  5  1  0  0  0  0
  6 21  1  0  0  0  0
  7  1  1  0  0  0  0
  8  2  1  0  0  0  0
 11  3  1  0  0  0  0
 12 11  1  0  0  0  0
 13 14  1  0  0  0  0
 13 16  1  0  0  0  0
 14 20  1  0  0  0  0
 14 19  1  0  0  0  0
 15 13  2  0  0  0  0
 17 13  2  0  0  0  0
 18 14  1  0  0  0  0
M  RAD  3  11   2  12   3  16   2
M  END
