Coordinates from ORCA-job Ph-N2-OTf-B3LYPG-aug-cc-pVDZ-scan-d29-49-n200
 OpenBabel01151817073D

 21 19  0  0  0  0  0  0  0  0999 V2000
   -1.7759   -1.1005   -5.8313 C   0  0  0  0  0  0  0  0  0  0  0  0
   -0.9220    0.0270   -5.8850 C   0  0  0  0  0  0  0  0  0  0  0  0
   -1.2893    1.0260   -5.2061 C   0  0  0  0  0  0  0  0  0  0  0  0
   -2.3194    1.3797   -4.3818 C   0  0  0  0  0  0  0  0  0  0  0  0
   -3.1829    0.2535   -4.3205 C   0  0  0  0  0  0  0  0  0  0  0  0
   -2.9163   -0.9382   -5.0205 C   0  0  0  0  0  0  0  0  0  0  0  0
   -1.5828   -2.0288   -6.3679 H   0  0  0  0  0  0  0  0  0  0  0  0
    0.6623    0.0373   -6.9208 H   0  0  0  0  0  0  0  0  0  0  0  0
   -2.4939    2.3138   -3.8569 H   0  0  0  0  0  0  0  0  0  0  0  0
   -4.0806    0.3322   -3.7047 H   0  0  0  0  0  0  0  0  0  0  0  0
    0.0965    4.4287   -4.7363 N   0  0  0  0  0  0  0  0  0  0  0  0
    0.8234    5.2523   -4.8451 N   0  0  0  0  0  0  0  0  0  0  0  0
    2.7095    0.7861   -7.1393 S   0  0  0  0  0  0  0  0  0  0  0  0
    3.5897   -0.4478   -5.9948 C   0  0  0  0  0  0  0  0  0  0  0  0
    3.5501    0.9326   -8.3343 O   0  0  0  0  0  0  0  0  0  0  0  0
    2.3022    1.9256   -6.2945 O   0  0  0  0  0  0  0  0  0  0  0  0
    1.4199   -0.1107   -7.5608 O   0  0  0  0  0  0  0  0  0  0  0  0
    3.9176   -1.5500   -6.6731 F   0  0  0  0  0  0  0  0  0  0  0  0
    4.6953    0.1292   -5.5142 F   0  0  0  0  0  0  0  0  0  0  0  0
    2.7789   -0.7742   -4.9785 F   0  0  0  0  0  0  0  0  0  0  0  0
   -3.6205   -1.7669   -4.9307 H   0  0  0  0  0  0  0  0  0  0  0  0
  1  6  1  0  0  0  0
  2  1  2  0  0  0  0
  2  3  1  0  0  0  0
  3  4  2  0  0  0  0
  4  5  1  0  0  0  0
  4  9  1  0  0  0  0
  5 10  1  0  0  0  0
  6 21  1  0  0  0  0
  6  5  2  0  0  0  0
  7  1  1  0  0  0  0
 12 11  3  0  0  0  0
 13 16  2  0  0  0  0
 13 14  1  0  0  0  0
 14 19  1  0  0  0  0
 14 20  1  0  0  0  0
 15 13  2  0  0  0  0
 17 13  1  0  0  0  0
 17  8  1  0  0  0  0
 18 14  1  0  0  0  0
M  RAD  2   2   2   3   2
M  END
