Coordinates from ORCA-job Ph-N2-OTf-B3LYPG-aug-cc-pVDZ-scan-d09-29-n200
 OpenBabel01151817073D

 21 19  0  0  0  0  0  0  0  0999 V2000
   -1.4979   -0.9396   -5.6573 C   0  0  0  0  0  0  0  0  0  0  0  0
   -0.7604    0.2383   -6.0093 C   0  0  0  0  0  0  0  0  0  0  0  0
   -1.2769    1.2207   -5.3130 C   0  0  0  0  0  0  0  0  0  0  0  0
   -2.2220    1.5275   -4.4017 C   0  0  0  0  0  0  0  0  0  0  0  0
   -2.9024    0.3159   -4.1035 C   0  0  0  0  0  0  0  0  0  0  0  0
   -2.5405   -0.8860   -4.7263 C   0  0  0  0  0  0  0  0  0  0  0  0
   -1.1985   -1.8746   -6.1326 H   0  0  0  0  0  0  0  0  0  0  0  0
    0.1684    0.2251   -6.7310 H   0  0  0  0  0  0  0  0  0  0  0  0
   -2.4548    2.4893   -3.9579 H   0  0  0  0  0  0  0  0  0  0  0  0
   -3.7148    0.3591   -3.3772 H   0  0  0  0  0  0  0  0  0  0  0  0
   -0.3113    3.4347   -5.8659 N   0  0  0  0  0  0  0  0  0  0  0  0
    0.1108    4.4242   -6.1094 N   0  0  0  0  0  0  0  0  0  0  0  0
    2.5449    0.9499   -6.8589 S   0  0  0  0  0  0  0  0  0  0  0  0
    3.4683   -0.5107   -6.0803 C   0  0  0  0  0  0  0  0  0  0  0  0
    3.5186    1.5836   -7.7766 O   0  0  0  0  0  0  0  0  0  0  0  0
    2.0503    1.7364   -5.6849 O   0  0  0  0  0  0  0  0  0  0  0  0
    1.3904    0.2318   -7.5908 O   0  0  0  0  0  0  0  0  0  0  0  0
    3.9371   -1.3383   -7.0267 F   0  0  0  0  0  0  0  0  0  0  0  0
    4.4976   -0.0712   -5.3404 F   0  0  0  0  0  0  0  0  0  0  0  0
    2.6345   -1.2105   -5.2783 F   0  0  0  0  0  0  0  0  0  0  0  0
   -3.0797   -1.7988   -4.4754 H   0  0  0  0  0  0  0  0  0  0  0  0
  1  6  1  0  0  0  0
  2  1  2  0  0  0  0
  2  3  1  0  0  0  0
  3  4  2  0  0  0  0
  4  5  1  0  0  0  0
  4  9  1  0  0  0  0
  5 10  1  0  0  0  0
  6 21  1  0  0  0  0
  6  5  2  0  0  0  0
  7  1  1  0  0  0  0
  8  2  1  0  0  0  0
 12 11  3  0  0  0  0
 13 14  1  0  0  0  0
 13 16  1  0  0  0  0
 14 19  1  0  0  0  0
 14 20  1  0  0  0  0
 15 13  2  0  0  0  0
 17 13  2  0  0  0  0
 18 14  1  0  0  0  0
M  RAD  2   3   2  16   2
M  END
