Coordinates from ORCA-job Ph-N2-OTf-B3LYPG-aug-cc-pVDZ-scan-d09-29-n200
 OpenBabel01151817073D

 21 21  0  0  1  0  0  0  0  0999 V2000
   -0.8691   -0.7166   -5.4635 C   0  0  0  0  0  0  0  0  0  0  0  0
   -0.3302    0.5241   -6.0841 C   0  0  1  0  0  0  0  0  0  0  0  0
   -1.1969    1.8090   -5.8273 C   0  0  0  0  0  0  0  0  0  0  0  0
   -2.1002    1.7330   -4.6315 C   0  0  0  0  0  0  0  0  0  0  0  0
   -2.3707    0.5666   -4.0157 C   0  0  0  0  0  0  0  0  0  0  0  0
   -1.7962   -0.6840   -4.4864 C   0  0  0  0  0  0  0  0  0  0  0  0
   -0.4512   -1.6589   -5.8166 H   0  0  0  0  0  0  0  0  0  0  0  0
   -0.1751    0.4396   -7.1653 H   0  0  0  0  0  0  0  0  0  0  0  0
   -2.5310    2.6847   -4.3190 H   0  0  0  0  0  0  0  0  0  0  0  0
   -3.0481    0.5517   -3.1620 H   0  0  0  0  0  0  0  0  0  0  0  0
   -1.1057    2.5625   -6.3822 N   0  0  0  0  0  0  0  0  0  0  0  0
   -0.9868    3.5054   -7.0785 N   0  0  0  0  0  0  0  0  0  0  0  0
    2.3424    0.9511   -6.4368 S   0  0  0  0  0  0  0  0  0  0  0  0
    3.0986   -0.7708   -6.1574 C   0  0  0  0  0  0  0  0  0  0  0  0
    3.2391    1.9187   -5.7945 O   0  0  0  0  0  0  0  0  0  0  0  0
    1.0073    0.8075   -5.4754 O   0  0  0  0  0  0  0  0  0  0  0  0
    1.9525    1.0174   -7.8585 O   0  0  0  0  0  0  0  0  0  0  0  0
    4.2267   -0.8563   -6.8647 F   0  0  0  0  0  0  0  0  0  0  0  0
    3.3604   -0.9532   -4.8635 F   0  0  0  0  0  0  0  0  0  0  0  0
    2.2358   -1.7086   -6.5774 F   0  0  0  0  0  0  0  0  0  0  0  0
   -2.1401   -1.6161   -4.0370 H   0  0  0  0  0  0  0  0  0  0  0  0
  1  6  1  0  0  0  0
  2  8  1  6  0  0  0
  2  3  1  0  0  0  0
  2 16  1  0  0  0  0
  2  1  1  0  0  0  0
  3  4  2  0  0  0  0
  4  9  1  0  0  0  0
  4  5  1  0  0  0  0
  5 10  1  0  0  0  0
  6 21  1  0  0  0  0
  6  5  2  0  0  0  0
  7  1  1  0  0  0  0
 11  3  1  0  0  0  0
 12 11  1  0  0  0  0
 13 14  1  0  0  0  0
 13 15  2  0  0  0  0
 13 16  1  0  0  0  0
 14 19  1  0  0  0  0
 17 13  2  0  0  0  0
 18 14  1  0  0  0  0
 20 14  1  0  0  0  0
M  RAD  3   1   2  11   2  12   3
M  END
