Coordinates from ORCA-job Ph-N2-OTf-B3LYPG-aug-cc-pVDZ-scan-d09-29-n200
 OpenBabel01151817073D

 21 20  0  0  0  0  0  0  0  0999 V2000
   -1.4893   -1.0000   -5.5643 C   0  0  0  0  0  0  0  0  0  0  0  0
   -0.7892    0.0751   -6.1119 C   0  0  0  0  0  0  0  0  0  0  0  0
   -1.1027    1.3258   -5.5892 C   0  0  0  0  0  0  0  0  0  0  0  0
   -2.0271    1.5947   -4.5775 C   0  0  0  0  0  0  0  0  0  0  0  0
   -2.6990    0.4910   -4.0556 C   0  0  0  0  0  0  0  0  0  0  0  0
   -2.4317   -0.7940   -4.5489 C   0  0  0  0  0  0  0  0  0  0  0  0
   -1.2809   -2.0056   -5.9262 H   0  0  0  0  0  0  0  0  0  0  0  0
   -0.0119   -0.0101   -6.8730 H   0  0  0  0  0  0  0  0  0  0  0  0
   -2.2025    2.6051   -4.2151 H   0  0  0  0  0  0  0  0  0  0  0  0
   -3.4284    0.6362   -3.2601 H   0  0  0  0  0  0  0  0  0  0  0  0
   -0.4201    2.5191   -6.1715 N   0  0  0  0  0  0  0  0  0  0  0  0
   -0.0757    3.4790   -6.6005 N   0  0  0  0  0  0  0  0  0  0  0  0
    2.5780    1.2747   -6.5467 S   0  0  0  0  0  0  0  0  0  0  0  0
    3.2484   -0.4657   -6.1959 C   0  0  0  0  0  0  0  0  0  0  0  0
    3.7816    2.0789   -6.8756 O   0  0  0  0  0  0  0  0  0  0  0  0
    1.8638    1.6318   -5.2600 O   0  0  0  0  0  0  0  0  0  0  0  0
    1.5970    1.0416   -7.6787 O   0  0  0  0  0  0  0  0  0  0  0  0
    3.9042   -0.9504   -7.2624 F   0  0  0  0  0  0  0  0  0  0  0  0
    4.0830   -0.4572   -5.1446 F   0  0  0  0  0  0  0  0  0  0  0  0
    2.2268   -1.3156   -5.9124 F   0  0  0  0  0  0  0  0  0  0  0  0
   -2.9625   -1.6476   -4.1275 H   0  0  0  0  0  0  0  0  0  0  0  0
  1  6  2  0  0  0  0
  2  3  2  0  0  0  0
  2  1  1  0  0  0  0
  3  4  1  0  0  0  0
  4  9  1  0  0  0  0
  4  5  2  0  0  0  0
  5 10  1  0  0  0  0
  6 21  1  0  0  0  0
  6  5  1  0  0  0  0
  7  1  1  0  0  0  0
  8  2  1  0  0  0  0
 11  3  1  0  0  0  0
 12 11  1  0  0  0  0
 13 14  1  0  0  0  0
 13 16  1  0  0  0  0
 14 20  1  0  0  0  0
 14 19  1  0  0  0  0
 15 13  2  0  0  0  0
 17 13  2  0  0  0  0
 18 14  1  0  0  0  0
M  RAD  3  11   2  12   3  16   2
M  END
