Coordinates from ORCA-job Ph-N2-OTf-B3LYPG-aug-cc-pVDZ-scan-d29-49-n200
 OpenBabel01151817073D

 21 19  0  0  0  0  0  0  0  0999 V2000
   -1.6696   -0.9778   -5.7726 C   0  0  0  0  0  0  0  0  0  0  0  0
   -0.8818    0.2004   -5.8169 C   0  0  0  0  0  0  0  0  0  0  0  0
   -1.3393    1.1709   -5.1472 C   0  0  0  0  0  0  0  0  0  0  0  0
   -2.4123    1.4623   -4.3554 C   0  0  0  0  0  0  0  0  0  0  0  0
   -3.2028    0.2835   -4.3086 C   0  0  0  0  0  0  0  0  0  0  0  0
   -2.8395   -0.8904   -4.9946 C   0  0  0  0  0  0  0  0  0  0  0  0
   -1.4029   -1.8934   -6.2998 H   0  0  0  0  0  0  0  0  0  0  0  0
    0.6672    0.2060   -6.8553 H   0  0  0  0  0  0  0  0  0  0  0  0
   -2.6588    2.3861   -3.8416 H   0  0  0  0  0  0  0  0  0  0  0  0
   -4.1194    0.3066   -3.7166 H   0  0  0  0  0  0  0  0  0  0  0  0
   -0.0513    3.9873   -4.9879 N   0  0  0  0  0  0  0  0  0  0  0  0
    0.6349    4.8493   -5.0529 N   0  0  0  0  0  0  0  0  0  0  0  0
    2.7556    0.8411   -7.0605 S   0  0  0  0  0  0  0  0  0  0  0  0
    3.5900   -0.5337   -6.0506 C   0  0  0  0  0  0  0  0  0  0  0  0
    3.5779    1.0451   -8.2601 O   0  0  0  0  0  0  0  0  0  0  0  0
    2.4329    1.9232   -6.1102 O   0  0  0  0  0  0  0  0  0  0  0  0
    1.4079    0.0585   -7.5195 O   0  0  0  0  0  0  0  0  0  0  0  0
    3.8345   -1.5911   -6.8286 F   0  0  0  0  0  0  0  0  0  0  0  0
    4.7401   -0.0641   -5.5575 F   0  0  0  0  0  0  0  0  0  0  0  0
    2.7881   -0.8995   -5.0407 F   0  0  0  0  0  0  0  0  0  0  0  0
   -3.4898   -1.7635   -4.9202 H   0  0  0  0  0  0  0  0  0  0  0  0
  1  6  1  0  0  0  0
  2  1  2  0  0  0  0
  2  3  1  0  0  0  0
  3  4  2  0  0  0  0
  4  5  1  0  0  0  0
  4  9  1  0  0  0  0
  5 10  1  0  0  0  0
  6 21  1  0  0  0  0
  6  5  2  0  0  0  0
  7  1  1  0  0  0  0
 12 11  3  0  0  0  0
 13 16  2  0  0  0  0
 13 14  1  0  0  0  0
 14 19  1  0  0  0  0
 14 20  1  0  0  0  0
 15 13  2  0  0  0  0
 17 13  1  0  0  0  0
 17  8  1  0  0  0  0
 18 14  1  0  0  0  0
M  RAD  2   2   2   3   2
M  END
