Coordinates from ORCA-job Ph-N2-OTf-B3LYPG-aug-cc-pVDZ-scan-d09-29-n200
 OpenBabel01151817073D

 21 21  0  0  1  0  0  0  0  0999 V2000
   -0.8771   -0.7383   -5.3984 C   0  0  0  0  0  0  0  0  0  0  0  0
   -0.3437    0.4829   -6.0541 C   0  0  1  0  0  0  0  0  0  0  0  0
   -1.2060    1.7020   -5.8184 C   0  0  0  0  0  0  0  0  0  0  0  0
   -2.1219    1.7270   -4.6799 C   0  0  0  0  0  0  0  0  0  0  0  0
   -2.3937    0.5876   -3.9991 C   0  0  0  0  0  0  0  0  0  0  0  0
   -1.8033   -0.6694   -4.4152 C   0  0  0  0  0  0  0  0  0  0  0  0
   -0.4564   -1.6918   -5.7138 H   0  0  0  0  0  0  0  0  0  0  0  0
   -0.1198    0.3537   -7.1163 H   0  0  0  0  0  0  0  0  0  0  0  0
   -2.5800    2.6811   -4.4204 H   0  0  0  0  0  0  0  0  0  0  0  0
   -3.0829    0.6056   -3.1563 H   0  0  0  0  0  0  0  0  0  0  0  0
   -1.0932    2.6162   -6.5256 N   0  0  0  0  0  0  0  0  0  0  0  0
   -0.9768    3.5182   -7.2268 N   0  0  0  0  0  0  0  0  0  0  0  0
    2.3554    0.9812   -6.3273 S   0  0  0  0  0  0  0  0  0  0  0  0
    3.0996   -0.7655   -6.2522 C   0  0  0  0  0  0  0  0  0  0  0  0
    3.2792    1.8643   -5.6021 O   0  0  0  0  0  0  0  0  0  0  0  0
    1.0337    0.7606   -5.3943 O   0  0  0  0  0  0  0  0  0  0  0  0
    1.9693    1.2075   -7.7366 O   0  0  0  0  0  0  0  0  0  0  0  0
    4.2110   -0.7907   -6.9916 F   0  0  0  0  0  0  0  0  0  0  0  0
    3.3897   -1.0902   -4.9915 F   0  0  0  0  0  0  0  0  0  0  0  0
    2.2161   -1.6481   -6.7475 F   0  0  0  0  0  0  0  0  0  0  0  0
   -2.1376   -1.5871   -3.9297 H   0  0  0  0  0  0  0  0  0  0  0  0
  1  6  2  0  0  0  0
  2  8  1  6  0  0  0
  2  3  1  0  0  0  0
  2  1  1  0  0  0  0
  2 16  1  0  0  0  0
  3  4  2  0  0  0  0
  4  9  1  0  0  0  0
  4  5  1  0  0  0  0
  5 10  1  0  0  0  0
  6  5  1  0  0  0  0
  6 21  1  0  0  0  0
  7  1  1  0  0  0  0
 11  3  1  0  0  0  0
 12 11  1  0  0  0  0
 13 14  1  0  0  0  0
 13 15  2  0  0  0  0
 13 16  1  0  0  0  0
 14 19  1  0  0  0  0
 17 13  2  0  0  0  0
 18 14  1  0  0  0  0
 20 14  1  0  0  0  0
M  RAD  3   5   2  11   2  12   3
M  END
