Coordinates from ORCA-job Ph-N2-OTf-B3LYPG-aug-cc-pVDZ-scan-d29-49-n200
 OpenBabel01151817073D

 21 19  0  0  0  0  0  0  0  0999 V2000
   -2.0147   -1.3341   -5.9012 C   0  0  0  0  0  0  0  0  0  0  0  0
   -0.9417   -0.4210   -6.0234 C   0  0  0  0  0  0  0  0  0  0  0  0
   -1.0516    0.6509   -5.3650 C   0  0  0  0  0  0  0  0  0  0  0  0
   -1.9461    1.2453   -4.5207 C   0  0  0  0  0  0  0  0  0  0  0  0
   -3.0294    0.3360   -4.3913 C   0  0  0  0  0  0  0  0  0  0  0  0
   -3.0578   -0.9041   -5.0578 C   0  0  0  0  0  0  0  0  0  0  0  0
   -2.0516   -2.2956   -6.4123 H   0  0  0  0  0  0  0  0  0  0  0  0
    0.6819   -0.4248   -7.0457 H   0  0  0  0  0  0  0  0  0  0  0  0
   -1.8917    2.2093   -4.0240 H   0  0  0  0  0  0  0  0  0  0  0  0
   -3.8624    0.6245   -3.7477 H   0  0  0  0  0  0  0  0  0  0  0  0
    0.1394    4.9628   -4.2996 N   0  0  0  0  0  0  0  0  0  0  0  0
    0.9223    5.7123   -4.5104 N   0  0  0  0  0  0  0  0  0  0  0  0
    2.5408    0.7067   -7.1705 S   0  0  0  0  0  0  0  0  0  0  0  0
    3.5895   -0.2590   -5.9158 C   0  0  0  0  0  0  0  0  0  0  0  0
    3.4090    0.9934   -8.3188 O   0  0  0  0  0  0  0  0  0  0  0  0
    1.8372    1.7591   -6.4094 O   0  0  0  0  0  0  0  0  0  0  0  0
    1.5052   -0.4646   -7.6155 O   0  0  0  0  0  0  0  0  0  0  0  0
    4.1883   -1.2898   -6.5157 F   0  0  0  0  0  0  0  0  0  0  0  0
    4.5125    0.5648   -5.4097 F   0  0  0  0  0  0  0  0  0  0  0  0
    2.8049   -0.7105   -4.9279 F   0  0  0  0  0  0  0  0  0  0  0  0
   -3.9222   -1.5546   -4.9148 H   0  0  0  0  0  0  0  0  0  0  0  0
  1  6  1  0  0  0  0
  2  1  2  0  0  0  0
  2  3  1  0  0  0  0
  3  4  2  0  0  0  0
  4  5  1  0  0  0  0
  4  9  1  0  0  0  0
  5 10  1  0  0  0  0
  6 21  1  0  0  0  0
  6  5  2  0  0  0  0
  7  1  1  0  0  0  0
 12 11  3  0  0  0  0
 13 16  2  0  0  0  0
 13 14  1  0  0  0  0
 14 19  1  0  0  0  0
 14 20  1  0  0  0  0
 15 13  2  0  0  0  0
 17 13  1  0  0  0  0
 17  8  1  0  0  0  0
 18 14  1  0  0  0  0
M  RAD  2   2   2   3   2
M  END
