Coordinates from ORCA-job Ph-N2-OTf-B3LYPG-aug-cc-pVDZ-scan-d09-29-n200
 OpenBabel01151817073D

 21 19  0  0  0  0  0  0  0  0999 V2000
   -1.6116   -0.9668   -5.7340 C   0  0  0  0  0  0  0  0  0  0  0  0
   -0.8923    0.2480   -5.8757 C   0  0  0  0  0  0  0  0  0  0  0  0
   -1.3273    1.2004   -5.1649 C   0  0  0  0  0  0  0  0  0  0  0  0
   -2.3070    1.4415   -4.2473 C   0  0  0  0  0  0  0  0  0  0  0  0
   -3.0266    0.2259   -4.1048 C   0  0  0  0  0  0  0  0  0  0  0  0
   -2.6864   -0.9340   -4.8256 C   0  0  0  0  0  0  0  0  0  0  0  0
   -1.3569   -1.8742   -6.2812 H   0  0  0  0  0  0  0  0  0  0  0  0
    0.6371    0.2113   -6.9160 H   0  0  0  0  0  0  0  0  0  0  0  0
   -2.5399    2.3573   -3.7135 H   0  0  0  0  0  0  0  0  0  0  0  0
   -3.8705    0.2093   -3.4129 H   0  0  0  0  0  0  0  0  0  0  0  0
   -0.3994    3.8003   -5.3864 N   0  0  0  0  0  0  0  0  0  0  0  0
    0.2323    4.6140   -5.7826 N   0  0  0  0  0  0  0  0  0  0  0  0
    2.7259    0.8451   -7.1579 S   0  0  0  0  0  0  0  0  0  0  0  0
    3.5338   -0.3817   -5.9542 C   0  0  0  0  0  0  0  0  0  0  0  0
    3.5819    0.8966   -8.3501 O   0  0  0  0  0  0  0  0  0  0  0  0
    2.3773    2.0413   -6.3657 O   0  0  0  0  0  0  0  0  0  0  0  0
    1.3935    0.0040   -7.5494 O   0  0  0  0  0  0  0  0  0  0  0  0
    3.8035   -1.5298   -6.5805 F   0  0  0  0  0  0  0  0  0  0  0  0
    4.6679    0.1549   -5.4932 F   0  0  0  0  0  0  0  0  0  0  0  0
    2.7036   -0.6183   -4.9285 F   0  0  0  0  0  0  0  0  0  0  0  0
   -3.2773   -1.8384   -4.6730 H   0  0  0  0  0  0  0  0  0  0  0  0
  1  6  1  0  0  0  0
  2  1  2  0  0  0  0
  2  3  1  0  0  0  0
  3  4  2  0  0  0  0
  4  5  1  0  0  0  0
  4  9  1  0  0  0  0
  5 10  1  0  0  0  0
  6 21  1  0  0  0  0
  6  5  2  0  0  0  0
  7  1  1  0  0  0  0
 12 11  3  0  0  0  0
 13 16  2  0  0  0  0
 13 14  1  0  0  0  0
 14 19  1  0  0  0  0
 14 20  1  0  0  0  0
 15 13  2  0  0  0  0
 17 13  1  0  0  0  0
 17  8  1  0  0  0  0
 18 14  1  0  0  0  0
M  RAD  2   2   2   3   2
M  END
