Coordinates from ORCA-job Ph-N2-OTf-B3LYPG-aug-cc-pVDZ-scan-d09-29-n200
 OpenBabel01151817073D

 21 20  0  0  0  0  0  0  0  0999 V2000
   -1.4741   -0.9971   -5.5547 C   0  0  0  0  0  0  0  0  0  0  0  0
   -0.7805    0.0800   -6.1057 C   0  0  0  0  0  0  0  0  0  0  0  0
   -1.1034    1.3343   -5.5933 C   0  0  0  0  0  0  0  0  0  0  0  0
   -2.0351    1.5995   -4.5845 C   0  0  0  0  0  0  0  0  0  0  0  0
   -2.7007    0.4941   -4.0592 C   0  0  0  0  0  0  0  0  0  0  0  0
   -2.4217   -0.7918   -4.5440 C   0  0  0  0  0  0  0  0  0  0  0  0
   -1.2571   -2.0033   -5.9094 H   0  0  0  0  0  0  0  0  0  0  0  0
    0.0003   -0.0013   -6.8642 H   0  0  0  0  0  0  0  0  0  0  0  0
   -2.2198    2.6102   -4.2274 H   0  0  0  0  0  0  0  0  0  0  0  0
   -3.4343    0.6380   -3.2674 H   0  0  0  0  0  0  0  0  0  0  0  0
   -0.4346    2.5140   -6.1680 N   0  0  0  0  0  0  0  0  0  0  0  0
   -0.0928    3.4749   -6.5985 N   0  0  0  0  0  0  0  0  0  0  0  0
    2.5812    1.2742   -6.5432 S   0  0  0  0  0  0  0  0  0  0  0  0
    3.2414   -0.4733   -6.2046 C   0  0  0  0  0  0  0  0  0  0  0  0
    3.7894    2.0733   -6.8669 O   0  0  0  0  0  0  0  0  0  0  0  0
    1.8677    1.6267   -5.2550 O   0  0  0  0  0  0  0  0  0  0  0  0
    1.5988    1.0533   -7.6766 O   0  0  0  0  0  0  0  0  0  0  0  0
    3.9132   -0.9454   -7.2666 F   0  0  0  0  0  0  0  0  0  0  0  0
    4.0585   -0.4818   -5.1397 F   0  0  0  0  0  0  0  0  0  0  0  0
    2.2132   -1.3251   -5.9493 F   0  0  0  0  0  0  0  0  0  0  0  0
   -2.9477   -1.6467   -4.1191 H   0  0  0  0  0  0  0  0  0  0  0  0
  1  6  2  0  0  0  0
  2  3  2  0  0  0  0
  2  1  1  0  0  0  0
  3  4  1  0  0  0  0
  4  9  1  0  0  0  0
  4  5  2  0  0  0  0
  5 10  1  0  0  0  0
  6 21  1  0  0  0  0
  6  5  1  0  0  0  0
  7  1  1  0  0  0  0
  8  2  1  0  0  0  0
 11  3  1  0  0  0  0
 12 11  1  0  0  0  0
 13 14  1  0  0  0  0
 13 16  1  0  0  0  0
 14 20  1  0  0  0  0
 14 19  1  0  0  0  0
 15 13  2  0  0  0  0
 17 13  2  0  0  0  0
 18 14  1  0  0  0  0
M  RAD  3  11   2  12   3  16   2
M  END
