Coordinates from ORCA-job Ph-N2-OTf-B3LYPG-aug-cc-pVDZ-scan-d29-49-n200
 OpenBabel01151817073D

 21 19  0  0  0  0  0  0  0  0999 V2000
   -2.0134   -1.3327   -5.9015 C   0  0  0  0  0  0  0  0  0  0  0  0
   -0.9419   -0.4176   -6.0222 C   0  0  0  0  0  0  0  0  0  0  0  0
   -1.0539    0.6534   -5.3626 C   0  0  0  0  0  0  0  0  0  0  0  0
   -1.9499    1.2454   -4.5182 C   0  0  0  0  0  0  0  0  0  0  0  0
   -3.0317    0.3340   -4.3902 C   0  0  0  0  0  0  0  0  0  0  0  0
   -3.0576   -0.9054   -5.0581 C   0  0  0  0  0  0  0  0  0  0  0  0
   -2.0484   -2.2937   -6.4136 H   0  0  0  0  0  0  0  0  0  0  0  0
    0.6812   -0.4208   -7.0445 H   0  0  0  0  0  0  0  0  0  0  0  0
   -1.8974    2.2089   -4.0204 H   0  0  0  0  0  0  0  0  0  0  0  0
   -3.8655    0.6204   -3.7468 H   0  0  0  0  0  0  0  0  0  0  0  0
    0.1465    4.9543   -4.3067 N   0  0  0  0  0  0  0  0  0  0  0  0
    0.9299    5.7033   -4.5174 N   0  0  0  0  0  0  0  0  0  0  0  0
    2.5411    0.7090   -7.1701 S   0  0  0  0  0  0  0  0  0  0  0  0
    3.5887   -0.2577   -5.9152 C   0  0  0  0  0  0  0  0  0  0  0  0
    3.4096    0.9944   -8.3184 O   0  0  0  0  0  0  0  0  0  0  0  0
    1.8386    1.7623   -6.4091 O   0  0  0  0  0  0  0  0  0  0  0  0
    1.5042   -0.4613   -7.6148 O   0  0  0  0  0  0  0  0  0  0  0  0
    4.1863   -1.2893   -6.5148 F   0  0  0  0  0  0  0  0  0  0  0  0
    4.5127    0.5652   -5.4092 F   0  0  0  0  0  0  0  0  0  0  0  0
    2.8036   -0.7080   -4.9272 F   0  0  0  0  0  0  0  0  0  0  0  0
   -3.9209   -1.5575   -4.9162 H   0  0  0  0  0  0  0  0  0  0  0  0
  1  6  1  0  0  0  0
  2  1  2  0  0  0  0
  2  3  1  0  0  0  0
  3  4  2  0  0  0  0
  4  5  1  0  0  0  0
  4  9  1  0  0  0  0
  5 10  1  0  0  0  0
  6 21  1  0  0  0  0
  6  5  2  0  0  0  0
  7  1  1  0  0  0  0
 12 11  3  0  0  0  0
 13 16  2  0  0  0  0
 13 14  1  0  0  0  0
 14 19  1  0  0  0  0
 14 20  1  0  0  0  0
 15 13  2  0  0  0  0
 17 13  1  0  0  0  0
 17  8  1  0  0  0  0
 18 14  1  0  0  0  0
M  RAD  2   2   2   3   2
M  END
