Coordinates from ORCA-job Ph-N2-OTf-B3LYPG-aug-cc-pVDZ-scan-d29-49-n200
 OpenBabel01151817073D

 21 19  0  0  0  0  0  0  0  0999 V2000
   -1.9922   -1.3014   -5.9006 C   0  0  0  0  0  0  0  0  0  0  0  0
   -0.9447   -0.3552   -5.9957 C   0  0  0  0  0  0  0  0  0  0  0  0
   -1.0969    0.7015   -5.3209 C   0  0  0  0  0  0  0  0  0  0  0  0
   -2.0176    1.2546   -4.4771 C   0  0  0  0  0  0  0  0  0  0  0  0
   -3.0745    0.3111   -4.3754 C   0  0  0  0  0  0  0  0  0  0  0  0
   -3.0575   -0.9176   -5.0627 C   0  0  0  0  0  0  0  0  0  0  0  0
   -1.9941   -2.2550   -6.4275 H   0  0  0  0  0  0  0  0  0  0  0  0
    0.6713   -0.3510   -7.0167 H   0  0  0  0  0  0  0  0  0  0  0  0
   -1.9970    2.2114   -3.9645 H   0  0  0  0  0  0  0  0  0  0  0  0
   -3.9230    0.5634   -3.7368 H   0  0  0  0  0  0  0  0  0  0  0  0
    0.2358    4.7837   -4.4216 N   0  0  0  0  0  0  0  0  0  0  0  0
    1.0239    5.5306   -4.6216 N   0  0  0  0  0  0  0  0  0  0  0  0
    2.5529    0.7424   -7.1636 S   0  0  0  0  0  0  0  0  0  0  0  0
    3.5907   -0.2386   -5.9117 C   0  0  0  0  0  0  0  0  0  0  0  0
    3.4177    1.0031   -8.3208 O   0  0  0  0  0  0  0  0  0  0  0  0
    1.8785    1.8139   -6.4033 O   0  0  0  0  0  0  0  0  0  0  0  0
    1.4891   -0.4090   -7.5934 O   0  0  0  0  0  0  0  0  0  0  0  0
    4.1627   -1.2854   -6.5102 F   0  0  0  0  0  0  0  0  0  0  0  0
    4.5352    0.5680   -5.4174 F   0  0  0  0  0  0  0  0  0  0  0  0
    2.8046   -0.6677   -4.9151 F   0  0  0  0  0  0  0  0  0  0  0  0
   -3.9031   -1.5964   -4.9406 H   0  0  0  0  0  0  0  0  0  0  0  0
  1  6  1  0  0  0  0
  2  1  2  0  0  0  0
  2  3  1  0  0  0  0
  3  4  2  0  0  0  0
  4  5  1  0  0  0  0
  4  9  1  0  0  0  0
  5 10  1  0  0  0  0
  6 21  1  0  0  0  0
  6  5  2  0  0  0  0
  7  1  1  0  0  0  0
 12 11  3  0  0  0  0
 13 16  2  0  0  0  0
 13 14  1  0  0  0  0
 14 19  1  0  0  0  0
 14 20  1  0  0  0  0
 15 13  2  0  0  0  0
 17 13  1  0  0  0  0
 17  8  1  0  0  0  0
 18 14  1  0  0  0  0
M  RAD  2   2   2   3   2
M  END
