Coordinates from ORCA-job Ph-N2-OTf-B3LYPG-aug-cc-pVDZ-scan-d09-29-n200
 OpenBabel01151817073D

 21 21  0  0  1  0  0  0  0  0999 V2000
   -0.8710   -0.7173   -5.4601 C   0  0  0  0  0  0  0  0  0  0  0  0
   -0.3367    0.5235   -6.0844 C   0  0  1  0  0  0  0  0  0  0  0  0
   -1.2044    1.7801   -5.8264 C   0  0  0  0  0  0  0  0  0  0  0  0
   -2.0997    1.7315   -4.6397 C   0  0  0  0  0  0  0  0  0  0  0  0
   -2.3655    0.5699   -4.0075 C   0  0  0  0  0  0  0  0  0  0  0  0
   -1.7911   -0.6807   -4.4746 C   0  0  0  0  0  0  0  0  0  0  0  0
   -0.4547   -1.6604   -5.8119 H   0  0  0  0  0  0  0  0  0  0  0  0
   -0.1615    0.4281   -7.1610 H   0  0  0  0  0  0  0  0  0  0  0  0
   -2.5363    2.6822   -4.3328 H   0  0  0  0  0  0  0  0  0  0  0  0
   -3.0383    0.5611   -3.1505 H   0  0  0  0  0  0  0  0  0  0  0  0
   -1.1161    2.5801   -6.4208 N   0  0  0  0  0  0  0  0  0  0  0  0
   -1.0081    3.5117   -7.1158 N   0  0  0  0  0  0  0  0  0  0  0  0
    2.3462    0.9560   -6.4119 S   0  0  0  0  0  0  0  0  0  0  0  0
    3.0954   -0.7742   -6.1691 C   0  0  0  0  0  0  0  0  0  0  0  0
    3.2498    1.9057   -5.7513 O   0  0  0  0  0  0  0  0  0  0  0  0
    1.0113    0.8035   -5.4610 O   0  0  0  0  0  0  0  0  0  0  0  0
    1.9634    1.0538   -7.8345 O   0  0  0  0  0  0  0  0  0  0  0  0
    4.2231   -0.8509   -6.8785 F   0  0  0  0  0  0  0  0  0  0  0  0
    3.3572   -0.9854   -4.8793 F   0  0  0  0  0  0  0  0  0  0  0  0
    2.2284   -1.7000   -6.6078 F   0  0  0  0  0  0  0  0  0  0  0  0
   -2.1297   -1.6115   -4.0184 H   0  0  0  0  0  0  0  0  0  0  0  0
  1  6  2  0  0  0  0
  2  8  1  6  0  0  0
  2  3  1  0  0  0  0
  2 16  1  0  0  0  0
  2  1  1  0  0  0  0
  3  4  2  0  0  0  0
  4  9  1  0  0  0  0
  4  5  1  0  0  0  0
  5 10  1  0  0  0  0
  6 21  1  0  0  0  0
  6  5  1  0  0  0  0
  7  1  1  0  0  0  0
 11  3  1  0  0  0  0
 12 11  1  0  0  0  0
 13 14  1  0  0  0  0
 13 15  2  0  0  0  0
 13 16  1  0  0  0  0
 14 19  1  0  0  0  0
 17 13  2  0  0  0  0
 18 14  1  0  0  0  0
 20 14  1  0  0  0  0
M  RAD  3   5   2  11   2  12   3
M  END
