Coordinates from ORCA-job Ph-N2-OTf-B3LYPG-aug-cc-pVDZ-scan-d09-29-n200
 OpenBabel01151817073D

 21 20  0  0  0  0  0  0  0  0999 V2000
   -1.5295   -1.0117   -5.6037 C   0  0  0  0  0  0  0  0  0  0  0  0
   -0.8058    0.0657   -6.1353 C   0  0  0  0  0  0  0  0  0  0  0  0
   -1.1173    1.2654   -5.5500 C   0  0  0  0  0  0  0  0  0  0  0  0
   -1.9963    1.5729   -4.5341 C   0  0  0  0  0  0  0  0  0  0  0  0
   -2.6873    0.4591   -4.0378 C   0  0  0  0  0  0  0  0  0  0  0  0
   -2.4547   -0.8148   -4.5714 C   0  0  0  0  0  0  0  0  0  0  0  0
   -1.3455   -2.0095   -5.9996 H   0  0  0  0  0  0  0  0  0  0  0  0
   -0.0331   -0.0070   -6.9057 H   0  0  0  0  0  0  0  0  0  0  0  0
   -2.1384    2.5771   -4.1445 H   0  0  0  0  0  0  0  0  0  0  0  0
   -3.4032    0.6009   -3.2293 H   0  0  0  0  0  0  0  0  0  0  0  0
   -0.3230    2.6293   -6.1924 N   0  0  0  0  0  0  0  0  0  0  0  0
   -0.0722    3.6206   -6.6084 N   0  0  0  0  0  0  0  0  0  0  0  0
    2.5633    1.2554   -6.5909 S   0  0  0  0  0  0  0  0  0  0  0  0
    3.2580   -0.4530   -6.1438 C   0  0  0  0  0  0  0  0  0  0  0  0
    3.7518    2.0582   -6.9726 O   0  0  0  0  0  0  0  0  0  0  0  0
    1.8541    1.6763   -5.3180 O   0  0  0  0  0  0  0  0  0  0  0  0
    1.5772    0.9468   -7.6991 O   0  0  0  0  0  0  0  0  0  0  0  0
    3.9145   -0.9879   -7.1855 F   0  0  0  0  0  0  0  0  0  0  0  0
    4.0982   -0.3718   -5.1004 F   0  0  0  0  0  0  0  0  0  0  0  0
    2.2494   -1.2965   -5.8066 F   0  0  0  0  0  0  0  0  0  0  0  0
   -2.9986   -1.6687   -4.1683 H   0  0  0  0  0  0  0  0  0  0  0  0
  1  6  1  0  0  0  0
  2  1  2  0  0  0  0
  2  3  1  0  0  0  0
  3  4  2  0  0  0  0
  4  9  1  0  0  0  0
  4  5  1  0  0  0  0
  5 10  1  0  0  0  0
  6 21  1  0  0  0  0
  6  5  2  0  0  0  0
  7  1  1  0  0  0  0
  8  2  1  0  0  0  0
 11  3  1  0  0  0  0
 12 11  1  0  0  0  0
 13 14  1  0  0  0  0
 13 16  1  0  0  0  0
 14 20  1  0  0  0  0
 14 19  1  0  0  0  0
 15 13  2  0  0  0  0
 17 13  2  0  0  0  0
 18 14  1  0  0  0  0
M  RAD  3  11   2  12   3  16   2
M  END
