Coordinates from ORCA-job Ph-N2-OTf-B3LYPG-aug-cc-pVDZ-scan-d29-49-n200
 OpenBabel01151817073D

 21 19  0  0  0  0  0  0  0  0999 V2000
   -2.0286   -1.3602   -5.8986 C   0  0  0  0  0  0  0  0  0  0  0  0
   -0.9416   -0.4669   -6.0412 C   0  0  0  0  0  0  0  0  0  0  0  0
   -1.0289    0.6153   -5.3964 C   0  0  0  0  0  0  0  0  0  0  0  0
   -1.9067    1.2365   -4.5541 C   0  0  0  0  0  0  0  0  0  0  0  0
   -3.0037    0.3469   -4.4042 C   0  0  0  0  0  0  0  0  0  0  0  0
   -3.0579   -0.9016   -5.0533 C   0  0  0  0  0  0  0  0  0  0  0  0
   -2.0855   -2.3278   -6.3962 H   0  0  0  0  0  0  0  0  0  0  0  0
    0.6879   -0.4682   -7.0642 H   0  0  0  0  0  0  0  0  0  0  0  0
   -1.8343    2.2058   -4.0703 H   0  0  0  0  0  0  0  0  0  0  0  0
   -3.8269    0.6578   -3.7583 H   0  0  0  0  0  0  0  0  0  0  0  0
    0.0974    5.0978   -4.2197 N   0  0  0  0  0  0  0  0  0  0  0  0
    0.8603    5.8689   -4.4255 N   0  0  0  0  0  0  0  0  0  0  0  0
    2.5343    0.6837   -7.1747 S   0  0  0  0  0  0  0  0  0  0  0  0
    3.5883   -0.2764   -5.9201 C   0  0  0  0  0  0  0  0  0  0  0  0
    3.4041    0.9864   -8.3176 O   0  0  0  0  0  0  0  0  0  0  0  0
    1.8156    1.7246   -6.4114 O   0  0  0  0  0  0  0  0  0  0  0  0
    1.5139   -0.4968   -7.6301 O   0  0  0  0  0  0  0  0  0  0  0  0
    4.2007   -1.2977   -6.5225 F   0  0  0  0  0  0  0  0  0  0  0  0
    4.5003    0.5551   -5.4065 F   0  0  0  0  0  0  0  0  0  0  0  0
    2.8047   -0.7410   -4.9377 F   0  0  0  0  0  0  0  0  0  0  0  0
   -3.9318   -1.5354   -4.8948 H   0  0  0  0  0  0  0  0  0  0  0  0
  1  6  1  0  0  0  0
  2  1  2  0  0  0  0
  2  3  1  0  0  0  0
  3  4  2  0  0  0  0
  4  5  1  0  0  0  0
  4  9  1  0  0  0  0
  5 10  1  0  0  0  0
  6 21  1  0  0  0  0
  6  5  2  0  0  0  0
  7  1  1  0  0  0  0
 12 11  3  0  0  0  0
 13 16  2  0  0  0  0
 13 14  1  0  0  0  0
 14 19  1  0  0  0  0
 14 20  1  0  0  0  0
 15 13  2  0  0  0  0
 17 13  1  0  0  0  0
 17  8  1  0  0  0  0
 18 14  1  0  0  0  0
M  RAD  2   2   2   3   2
M  END
