Coordinates from ORCA-job Ph-N2-OTf-B3LYPG-aug-cc-pVDZ-scan-d09-29-n200
 OpenBabel01151817073D

 21 20  0  0  0  0  0  0  0  0999 V2000
   -1.5166   -1.0088   -5.5916 C   0  0  0  0  0  0  0  0  0  0  0  0
   -0.8024    0.0641   -6.1340 C   0  0  0  0  0  0  0  0  0  0  0  0
   -1.1022    1.2923   -5.5766 C   0  0  0  0  0  0  0  0  0  0  0  0
   -1.9969    1.5820   -4.5557 C   0  0  0  0  0  0  0  0  0  0  0  0
   -2.6812    0.4764   -4.0434 C   0  0  0  0  0  0  0  0  0  0  0  0
   -2.4422   -0.8037   -4.5607 C   0  0  0  0  0  0  0  0  0  0  0  0
   -1.3295   -2.0114   -5.9732 H   0  0  0  0  0  0  0  0  0  0  0  0
   -0.0333   -0.0193   -6.9043 H   0  0  0  0  0  0  0  0  0  0  0  0
   -2.1478    2.5894   -4.1763 H   0  0  0  0  0  0  0  0  0  0  0  0
   -3.3975    0.6223   -3.2361 H   0  0  0  0  0  0  0  0  0  0  0  0
   -0.3713    2.5578   -6.1861 N   0  0  0  0  0  0  0  0  0  0  0  0
   -0.0759    3.5355   -6.6079 N   0  0  0  0  0  0  0  0  0  0  0  0
    2.5683    1.2721   -6.5653 S   0  0  0  0  0  0  0  0  0  0  0  0
    3.2472   -0.4537   -6.1633 C   0  0  0  0  0  0  0  0  0  0  0  0
    3.7666    2.0743   -6.9165 O   0  0  0  0  0  0  0  0  0  0  0  0
    1.8528    1.6624   -5.2871 O   0  0  0  0  0  0  0  0  0  0  0  0
    1.5873    1.0035   -7.6887 O   0  0  0  0  0  0  0  0  0  0  0  0
    3.9067   -0.9644   -7.2153 F   0  0  0  0  0  0  0  0  0  0  0  0
    4.0809   -0.4091   -5.1124 F   0  0  0  0  0  0  0  0  0  0  0  0
    2.2302   -1.2996   -5.8565 F   0  0  0  0  0  0  0  0  0  0  0  0
   -2.9815   -1.6552   -4.1463 H   0  0  0  0  0  0  0  0  0  0  0  0
  1  6  1  0  0  0  0
  2  1  2  0  0  0  0
  2  3  1  0  0  0  0
  3  4  2  0  0  0  0
  4  9  1  0  0  0  0
  4  5  1  0  0  0  0
  5 10  1  0  0  0  0
  6 21  1  0  0  0  0
  6  5  2  0  0  0  0
  7  1  1  0  0  0  0
  8  2  1  0  0  0  0
 11  3  1  0  0  0  0
 12 11  1  0  0  0  0
 13 14  1  0  0  0  0
 13 16  1  0  0  0  0
 14 20  1  0  0  0  0
 14 19  1  0  0  0  0
 15 13  2  0  0  0  0
 17 13  2  0  0  0  0
 18 14  1  0  0  0  0
M  RAD  3  11   2  12   3  16   2
M  END
