Coordinates from ORCA-job Ph-N2-OTf-B3LYPG-aug-cc-pVDZ-scan-d09-29-n200
 OpenBabel01151817073D

 21 19  0  0  0  0  0  0  0  0999 V2000
   -1.5309   -0.9139   -5.6308 C   0  0  0  0  0  0  0  0  0  0  0  0
   -0.7772    0.2405   -5.9994 C   0  0  0  0  0  0  0  0  0  0  0  0
   -1.2704    1.2705   -5.3278 C   0  0  0  0  0  0  0  0  0  0  0  0
   -2.2321    1.5699   -4.4216 C   0  0  0  0  0  0  0  0  0  0  0  0
   -2.9302    0.3790   -4.1075 C   0  0  0  0  0  0  0  0  0  0  0  0
   -2.5789   -0.8363   -4.7086 C   0  0  0  0  0  0  0  0  0  0  0  0
   -1.2425   -1.8606   -6.0889 H   0  0  0  0  0  0  0  0  0  0  0  0
    0.1228    0.2087   -6.7054 H   0  0  0  0  0  0  0  0  0  0  0  0
   -2.4558    2.5398   -3.9904 H   0  0  0  0  0  0  0  0  0  0  0  0
   -3.7454    0.4423   -3.3864 H   0  0  0  0  0  0  0  0  0  0  0  0
   -0.3012    3.1475   -5.8514 N   0  0  0  0  0  0  0  0  0  0  0  0
    0.0543    4.1581   -6.1117 N   0  0  0  0  0  0  0  0  0  0  0  0
    2.5493    0.9611   -6.8357 S   0  0  0  0  0  0  0  0  0  0  0  0
    3.5378   -0.4934   -6.1286 C   0  0  0  0  0  0  0  0  0  0  0  0
    3.5105    1.7085   -7.6811 O   0  0  0  0  0  0  0  0  0  0  0  0
    2.0100    1.6484   -5.6130 O   0  0  0  0  0  0  0  0  0  0  0  0
    1.4412    0.2472   -7.6183 O   0  0  0  0  0  0  0  0  0  0  0  0
    4.0579   -1.2418   -7.1143 F   0  0  0  0  0  0  0  0  0  0  0  0
    4.5380   -0.0487   -5.3513 F   0  0  0  0  0  0  0  0  0  0  0  0
    2.7344   -1.2807   -5.3777 F   0  0  0  0  0  0  0  0  0  0  0  0
   -3.1297   -1.7393   -4.4475 H   0  0  0  0  0  0  0  0  0  0  0  0
  1  6  1  0  0  0  0
  2  1  2  0  0  0  0
  2  3  1  0  0  0  0
  3  4  2  0  0  0  0
  4  5  1  0  0  0  0
  4  9  1  0  0  0  0
  5 10  1  0  0  0  0
  6 21  1  0  0  0  0
  6  5  2  0  0  0  0
  7  1  1  0  0  0  0
  8  2  1  0  0  0  0
 12 11  3  0  0  0  0
 13 14  1  0  0  0  0
 13 16  1  0  0  0  0
 14 20  1  0  0  0  0
 14 19  1  0  0  0  0
 15 13  2  0  0  0  0
 17 13  2  0  0  0  0
 18 14  1  0  0  0  0
M  RAD  2   3   2  16   2
M  END
