Coordinates from ORCA-job Ph-N2-OTf-B3LYPG-aug-cc-pVDZ-scan-d29-49-n200
 OpenBabel01151817073D

 21 19  0  0  0  0  0  0  0  0999 V2000
   -1.7429   -1.0581   -5.8186 C   0  0  0  0  0  0  0  0  0  0  0  0
   -0.9143    0.0899   -5.8657 C   0  0  0  0  0  0  0  0  0  0  0  0
   -1.3145    1.0754   -5.1838 C   0  0  0  0  0  0  0  0  0  0  0  0
   -2.3591    1.4019   -4.3669 C   0  0  0  0  0  0  0  0  0  0  0  0
   -3.1939    0.2540   -4.3136 C   0  0  0  0  0  0  0  0  0  0  0  0
   -2.8921   -0.9282   -5.0154 C   0  0  0  0  0  0  0  0  0  0  0  0
   -1.5232   -1.9795   -6.3571 H   0  0  0  0  0  0  0  0  0  0  0  0
    0.6581    0.0926   -6.9004 H   0  0  0  0  0  0  0  0  0  0  0  0
   -2.5592    2.3303   -3.8412 H   0  0  0  0  0  0  0  0  0  0  0  0
   -4.0972    0.3081   -3.7034 H   0  0  0  0  0  0  0  0  0  0  0  0
    0.0933    4.2747   -4.8306 N   0  0  0  0  0  0  0  0  0  0  0  0
    0.8059    5.1131   -4.9179 N   0  0  0  0  0  0  0  0  0  0  0  0
    2.7180    0.8060   -7.1179 S   0  0  0  0  0  0  0  0  0  0  0  0
    3.5861   -0.4644   -6.0048 C   0  0  0  0  0  0  0  0  0  0  0  0
    3.5531    0.9627   -8.3155 O   0  0  0  0  0  0  0  0  0  0  0  0
    2.3350    1.9346   -6.2476 O   0  0  0  0  0  0  0  0  0  0  0  0
    1.4107   -0.0602   -7.5467 O   0  0  0  0  0  0  0  0  0  0  0  0
    3.8898   -1.5587   -6.7069 F   0  0  0  0  0  0  0  0  0  0  0  0
    4.7053    0.0844   -5.5224 F   0  0  0  0  0  0  0  0  0  0  0  0
    2.7783   -0.7969   -4.9881 F   0  0  0  0  0  0  0  0  0  0  0  0
   -3.5755   -1.7749   -4.9330 H   0  0  0  0  0  0  0  0  0  0  0  0
  1  6  1  0  0  0  0
  2  1  2  0  0  0  0
  2  3  1  0  0  0  0
  3  4  2  0  0  0  0
  4  5  1  0  0  0  0
  4  9  1  0  0  0  0
  5 10  1  0  0  0  0
  6 21  1  0  0  0  0
  6  5  2  0  0  0  0
  7  1  1  0  0  0  0
 12 11  3  0  0  0  0
 13 16  2  0  0  0  0
 13 14  1  0  0  0  0
 14 19  1  0  0  0  0
 14 20  1  0  0  0  0
 15 13  2  0  0  0  0
 17 13  1  0  0  0  0
 17  8  1  0  0  0  0
 18 14  1  0  0  0  0
M  RAD  2   2   2   3   2
M  END
