Coordinates from ORCA-job Ph-N2-OTf-B3LYPG-aug-cc-pVDZ-scan-d09-29-n200
 OpenBabel01151817073D

 21 19  0  0  0  0  0  0  0  0999 V2000
   -1.6148   -0.9235   -5.6105 C   0  0  0  0  0  0  0  0  0  0  0  0
   -0.8067    0.1846   -5.9732 C   0  0  0  0  0  0  0  0  0  0  0  0
   -1.2435    1.2763   -5.3285 C   0  0  0  0  0  0  0  0  0  0  0  0
   -2.2221    1.5944   -4.4367 C   0  0  0  0  0  0  0  0  0  0  0  0
   -2.9781    0.4454   -4.1219 C   0  0  0  0  0  0  0  0  0  0  0  0
   -2.6730   -0.7902   -4.7059 C   0  0  0  0  0  0  0  0  0  0  0  0
   -1.3706   -1.8883   -6.0555 H   0  0  0  0  0  0  0  0  0  0  0  0
    0.0763    0.1207   -6.6616 H   0  0  0  0  0  0  0  0  0  0  0  0
   -2.4115    2.5756   -4.0137 H   0  0  0  0  0  0  0  0  0  0  0  0
   -3.8004    0.5488   -3.4142 H   0  0  0  0  0  0  0  0  0  0  0  0
   -0.2383    2.9331   -5.8045 N   0  0  0  0  0  0  0  0  0  0  0  0
    0.0758    3.9632   -6.0415 N   0  0  0  0  0  0  0  0  0  0  0  0
    2.5409    0.9506   -6.8425 S   0  0  0  0  0  0  0  0  0  0  0  0
    3.6481   -0.4338   -6.1705 C   0  0  0  0  0  0  0  0  0  0  0  0
    3.4427    1.8134   -7.6454 O   0  0  0  0  0  0  0  0  0  0  0  0
    1.9578    1.5596   -5.5890 O   0  0  0  0  0  0  0  0  0  0  0  0
    1.4932    0.1838   -7.6377 O   0  0  0  0  0  0  0  0  0  0  0  0
    4.2259   -1.1103   -7.1764 F   0  0  0  0  0  0  0  0  0  0  0  0
    4.6118    0.0720   -5.3832 F   0  0  0  0  0  0  0  0  0  0  0  0
    2.9168   -1.3042   -5.4394 F   0  0  0  0  0  0  0  0  0  0  0  0
   -3.2686   -1.6645   -4.4454 H   0  0  0  0  0  0  0  0  0  0  0  0
  1  6  1  0  0  0  0
  2  1  2  0  0  0  0
  2  3  1  0  0  0  0
  3  4  2  0  0  0  0
  4  5  1  0  0  0  0
  4  9  1  0  0  0  0
  5 10  1  0  0  0  0
  6 21  1  0  0  0  0
  6  5  2  0  0  0  0
  7  1  1  0  0  0  0
  8  2  1  0  0  0  0
 12 11  3  0  0  0  0
 13 14  1  0  0  0  0
 13 16  1  0  0  0  0
 14 20  1  0  0  0  0
 14 19  1  0  0  0  0
 15 13  2  0  0  0  0
 17 13  2  0  0  0  0
 18 14  1  0  0  0  0
M  RAD  2   3   2  16   2
M  END
