Coordinates from ORCA-job Ph-N2-OTf-B3LYPG-aug-cc-pVDZ-scan-d29-49-n200
 OpenBabel01151817073D

 21 19  0  0  0  0  0  0  0  0999 V2000
   -2.0334   -1.3716   -5.8960 C   0  0  0  0  0  0  0  0  0  0  0  0
   -0.9404   -0.4877   -6.0496 C   0  0  0  0  0  0  0  0  0  0  0  0
   -1.0168    0.6002   -5.4132 C   0  0  0  0  0  0  0  0  0  0  0  0
   -1.8869    1.2345   -4.5724 C   0  0  0  0  0  0  0  0  0  0  0  0
   -2.9900    0.3545   -4.4113 C   0  0  0  0  0  0  0  0  0  0  0  0
   -3.0559   -0.8986   -5.0504 C   0  0  0  0  0  0  0  0  0  0  0  0
   -2.0995   -2.3426   -6.3857 H   0  0  0  0  0  0  0  0  0  0  0  0
    0.6914   -0.4931   -7.0747 H   0  0  0  0  0  0  0  0  0  0  0  0
   -1.8050    2.2071   -4.0966 H   0  0  0  0  0  0  0  0  0  0  0  0
   -3.8083    0.6768   -3.7649 H   0  0  0  0  0  0  0  0  0  0  0  0
    0.0649    5.1727   -4.1722 N   0  0  0  0  0  0  0  0  0  0  0  0
    0.8175    5.9555   -4.3720 N   0  0  0  0  0  0  0  0  0  0  0  0
    2.5322    0.6677   -7.1791 S   0  0  0  0  0  0  0  0  0  0  0  0
    3.5889   -0.2889   -5.9240 C   0  0  0  0  0  0  0  0  0  0  0  0
    3.4026    0.9772   -8.3195 O   0  0  0  0  0  0  0  0  0  0  0  0
    1.8062    1.7033   -6.4153 O   0  0  0  0  0  0  0  0  0  0  0  0
    1.5189   -0.5174   -7.6384 O   0  0  0  0  0  0  0  0  0  0  0  0
    4.2078   -1.3059   -6.5269 F   0  0  0  0  0  0  0  0  0  0  0  0
    4.4954    0.5467   -5.4074 F   0  0  0  0  0  0  0  0  0  0  0  0
    2.8059   -0.7591   -4.9438 F   0  0  0  0  0  0  0  0  0  0  0  0
   -3.9339   -1.5247   -4.8836 H   0  0  0  0  0  0  0  0  0  0  0  0
  1  6  1  0  0  0  0
  2  1  2  0  0  0  0
  2  3  1  0  0  0  0
  3  4  2  0  0  0  0
  4  5  1  0  0  0  0
  4  9  1  0  0  0  0
  5 10  1  0  0  0  0
  6 21  1  0  0  0  0
  6  5  2  0  0  0  0
  7  1  1  0  0  0  0
 12 11  3  0  0  0  0
 13 16  2  0  0  0  0
 13 14  1  0  0  0  0
 14 19  1  0  0  0  0
 14 20  1  0  0  0  0
 15 13  2  0  0  0  0
 17 13  1  0  0  0  0
 17  8  1  0  0  0  0
 18 14  1  0  0  0  0
M  RAD  2   2   2   3   2
M  END
