Coordinates from ORCA-job Ph-N2-OTf-B3LYPG-aug-cc-pVDZ-scan-d09-29-n200
 OpenBabel01151817073D

 21 19  0  0  0  0  0  0  0  0999 V2000
   -1.5685   -0.9188   -5.6163 C   0  0  0  0  0  0  0  0  0  0  0  0
   -0.7897    0.2157   -5.9808 C   0  0  0  0  0  0  0  0  0  0  0  0
   -1.2644    1.2724   -5.3245 C   0  0  0  0  0  0  0  0  0  0  0  0
   -2.2378    1.5814   -4.4304 C   0  0  0  0  0  0  0  0  0  0  0  0
   -2.9621    0.4083   -4.1179 C   0  0  0  0  0  0  0  0  0  0  0  0
   -2.6262   -0.8168   -4.7076 C   0  0  0  0  0  0  0  0  0  0  0  0
   -1.2958   -1.8740   -6.0660 H   0  0  0  0  0  0  0  0  0  0  0  0
    0.1045    0.1695   -6.6755 H   0  0  0  0  0  0  0  0  0  0  0  0
   -2.4495    2.5571   -4.0057 H   0  0  0  0  0  0  0  0  0  0  0  0
   -3.7846    0.4897   -3.4072 H   0  0  0  0  0  0  0  0  0  0  0  0
   -0.2657    3.0576   -5.8253 N   0  0  0  0  0  0  0  0  0  0  0  0
    0.0725    4.0778   -6.0713 N   0  0  0  0  0  0  0  0  0  0  0  0
    2.5475    0.9552   -6.8395 S   0  0  0  0  0  0  0  0  0  0  0  0
    3.5952   -0.4676   -6.1531 C   0  0  0  0  0  0  0  0  0  0  0  0
    3.4778    1.7539   -7.6740 O   0  0  0  0  0  0  0  0  0  0  0  0
    1.9951    1.6109   -5.6014 O   0  0  0  0  0  0  0  0  0  0  0  0
    1.4616    0.2139   -7.6190 O   0  0  0  0  0  0  0  0  0  0  0  0
    4.1344   -1.1869   -7.1505 F   0  0  0  0  0  0  0  0  0  0  0  0
    4.5857    0.0067   -5.3801 F   0  0  0  0  0  0  0  0  0  0  0  0
    2.8291   -1.2913   -5.4029 F   0  0  0  0  0  0  0  0  0  0  0  0
   -3.1972   -1.7077   -4.4484 H   0  0  0  0  0  0  0  0  0  0  0  0
  1  6  1  0  0  0  0
  2  1  2  0  0  0  0
  2  3  1  0  0  0  0
  3  4  2  0  0  0  0
  4  5  1  0  0  0  0
  4  9  1  0  0  0  0
  5 10  1  0  0  0  0
  6 21  1  0  0  0  0
  6  5  2  0  0  0  0
  7  1  1  0  0  0  0
  8  2  1  0  0  0  0
 12 11  3  0  0  0  0
 13 14  1  0  0  0  0
 13 16  1  0  0  0  0
 14 20  1  0  0  0  0
 14 19  1  0  0  0  0
 15 13  2  0  0  0  0
 17 13  2  0  0  0  0
 18 14  1  0  0  0  0
M  RAD  2   3   2  16   2
M  END
