Coordinates from ORCA-job Ph-N2-OTf-B3LYPG-aug-cc-pVDZ-scan-d29-49-n200
 OpenBabel01151817073D

 21 19  0  0  0  0  0  0  0  0999 V2000
   -1.9801   -1.2835   -5.9004 C   0  0  0  0  0  0  0  0  0  0  0  0
   -0.9439   -0.3240   -5.9873 C   0  0  0  0  0  0  0  0  0  0  0  0
   -1.1113    0.7266   -5.3066 C   0  0  0  0  0  0  0  0  0  0  0  0
   -2.0406    1.2629   -4.4615 C   0  0  0  0  0  0  0  0  0  0  0  0
   -3.0862    0.3059   -4.3683 C   0  0  0  0  0  0  0  0  0  0  0  0
   -3.0523   -0.9181   -5.0630 C   0  0  0  0  0  0  0  0  0  0  0  0
   -1.9688   -2.2339   -6.4331 H   0  0  0  0  0  0  0  0  0  0  0  0
    0.6670   -0.3219   -7.0085 H   0  0  0  0  0  0  0  0  0  0  0  0
   -2.0329    2.2167   -3.9430 H   0  0  0  0  0  0  0  0  0  0  0  0
   -3.9393    0.5438   -3.7303 H   0  0  0  0  0  0  0  0  0  0  0  0
    0.2520    4.7027   -4.4641 N   0  0  0  0  0  0  0  0  0  0  0  0
    1.0390    5.4524   -4.6577 N   0  0  0  0  0  0  0  0  0  0  0  0
    2.5596    0.7526   -7.1635 S   0  0  0  0  0  0  0  0  0  0  0  0
    3.5896   -0.2344   -5.9100 C   0  0  0  0  0  0  0  0  0  0  0  0
    3.4247    0.9998   -8.3234 O   0  0  0  0  0  0  0  0  0  0  0  0
    1.8977    1.8338   -6.4060 O   0  0  0  0  0  0  0  0  0  0  0  0
    1.4831   -0.3895   -7.5869 O   0  0  0  0  0  0  0  0  0  0  0  0
    4.1496   -1.2893   -6.5057 F   0  0  0  0  0  0  0  0  0  0  0  0
    4.5434    0.5641   -5.4204 F   0  0  0  0  0  0  0  0  0  0  0  0
    2.8010   -0.6519   -4.9103 F   0  0  0  0  0  0  0  0  0  0  0  0
   -3.8896   -1.6082   -4.9473 H   0  0  0  0  0  0  0  0  0  0  0  0
  1  6  1  0  0  0  0
  2  1  2  0  0  0  0
  2  3  1  0  0  0  0
  3  4  2  0  0  0  0
  4  5  1  0  0  0  0
  4  9  1  0  0  0  0
  5 10  1  0  0  0  0
  6 21  1  0  0  0  0
  6  5  2  0  0  0  0
  7  1  1  0  0  0  0
 12 11  3  0  0  0  0
 13 16  2  0  0  0  0
 13 14  1  0  0  0  0
 14 19  1  0  0  0  0
 14 20  1  0  0  0  0
 15 13  2  0  0  0  0
 17 13  1  0  0  0  0
 17  8  1  0  0  0  0
 18 14  1  0  0  0  0
M  RAD  2   2   2   3   2
M  END
