Coordinates from ORCA-job Ph-N2-OTf-B3LYPG-aug-cc-pVDZ-scan-d29-49-n200
 OpenBabel01151817073D

 21 19  0  0  0  0  0  0  0  0999 V2000
   -2.0303   -1.3643   -5.8982 C   0  0  0  0  0  0  0  0  0  0  0  0
   -0.9411   -0.4744   -6.0446 C   0  0  0  0  0  0  0  0  0  0  0  0
   -1.0244    0.6097   -5.4024 C   0  0  0  0  0  0  0  0  0  0  0  0
   -1.8994    1.2352   -4.5603 C   0  0  0  0  0  0  0  0  0  0  0  0
   -2.9986    0.3490   -4.4064 C   0  0  0  0  0  0  0  0  0  0  0  0
   -3.0570   -0.9009   -5.0524 C   0  0  0  0  0  0  0  0  0  0  0  0
   -2.0905   -2.3330   -6.3932 H   0  0  0  0  0  0  0  0  0  0  0  0
    0.6886   -0.4767   -7.0682 H   0  0  0  0  0  0  0  0  0  0  0  0
   -1.8236    2.2056   -4.0791 H   0  0  0  0  0  0  0  0  0  0  0  0
   -3.8200    0.6638   -3.7601 H   0  0  0  0  0  0  0  0  0  0  0  0
    0.0893    5.1221   -4.2053 N   0  0  0  0  0  0  0  0  0  0  0  0
    0.8490    5.8968   -4.4096 N   0  0  0  0  0  0  0  0  0  0  0  0
    2.5325    0.6791   -7.1755 S   0  0  0  0  0  0  0  0  0  0  0  0
    3.5874   -0.2798   -5.9207 C   0  0  0  0  0  0  0  0  0  0  0  0
    3.4028    0.9852   -8.3169 O   0  0  0  0  0  0  0  0  0  0  0  0
    1.8103    1.7174   -6.4118 O   0  0  0  0  0  0  0  0  0  0  0  0
    1.5153   -0.5032   -7.6332 O   0  0  0  0  0  0  0  0  0  0  0  0
    4.2030   -1.2989   -6.5234 F   0  0  0  0  0  0  0  0  0  0  0  0
    4.4968    0.5535   -5.4053 F   0  0  0  0  0  0  0  0  0  0  0  0
    2.8039   -0.7471   -4.9396 F   0  0  0  0  0  0  0  0  0  0  0  0
   -3.9323   -1.5321   -4.8910 H   0  0  0  0  0  0  0  0  0  0  0  0
  1  6  1  0  0  0  0
  2  1  2  0  0  0  0
  2  3  1  0  0  0  0
  3  4  2  0  0  0  0
  4  5  1  0  0  0  0
  4  9  1  0  0  0  0
  5 10  1  0  0  0  0
  6 21  1  0  0  0  0
  6  5  2  0  0  0  0
  7  1  1  0  0  0  0
 12 11  3  0  0  0  0
 13 16  2  0  0  0  0
 13 14  1  0  0  0  0
 14 19  1  0  0  0  0
 14 20  1  0  0  0  0
 15 13  2  0  0  0  0
 17 13  1  0  0  0  0
 17  8  1  0  0  0  0
 18 14  1  0  0  0  0
M  RAD  2   2   2   3   2
M  END
