Coordinates from ORCA-job Ph-N2-OTf-B3LYPG-aug-cc-pVDZ-scan-d09-29-n200
 OpenBabel01151817073D

 21 19  0  0  0  0  0  0  0  0999 V2000
   -1.5008   -0.9271   -5.6469 C   0  0  0  0  0  0  0  0  0  0  0  0
   -0.7653    0.2468   -6.0079 C   0  0  0  0  0  0  0  0  0  0  0  0
   -1.2798    1.2417   -5.3193 C   0  0  0  0  0  0  0  0  0  0  0  0
   -2.2298    1.5432   -4.4091 C   0  0  0  0  0  0  0  0  0  0  0  0
   -2.9089    0.3346   -4.1029 C   0  0  0  0  0  0  0  0  0  0  0  0
   -2.5443   -0.8705   -4.7174 C   0  0  0  0  0  0  0  0  0  0  0  0
   -1.1996   -1.8648   -6.1156 H   0  0  0  0  0  0  0  0  0  0  0  0
    0.1514    0.2323   -6.7243 H   0  0  0  0  0  0  0  0  0  0  0  0
   -2.4642    2.5069   -3.9703 H   0  0  0  0  0  0  0  0  0  0  0  0
   -3.7214    0.3808   -3.3771 H   0  0  0  0  0  0  0  0  0  0  0  0
   -0.3150    3.3324   -5.8692 N   0  0  0  0  0  0  0  0  0  0  0  0
    0.0858    4.3284   -6.1210 N   0  0  0  0  0  0  0  0  0  0  0  0
    2.5507    0.9582   -6.8479 S   0  0  0  0  0  0  0  0  0  0  0  0
    3.4830   -0.5114   -6.0970 C   0  0  0  0  0  0  0  0  0  0  0  0
    3.5285    1.6263   -7.7375 O   0  0  0  0  0  0  0  0  0  0  0  0
    2.0441    1.7121   -5.6556 O   0  0  0  0  0  0  0  0  0  0  0  0
    1.4082    0.2517   -7.6017 O   0  0  0  0  0  0  0  0  0  0  0  0
    3.9652   -1.3133   -7.0589 F   0  0  0  0  0  0  0  0  0  0  0  0
    4.5043   -0.0809   -5.3404 F   0  0  0  0  0  0  0  0  0  0  0  0
    2.6513   -1.2377   -5.3161 F   0  0  0  0  0  0  0  0  0  0  0  0
   -3.0816   -1.7829   -4.4611 H   0  0  0  0  0  0  0  0  0  0  0  0
  1  6  1  0  0  0  0
  2  1  2  0  0  0  0
  2  3  1  0  0  0  0
  3  4  2  0  0  0  0
  4  5  1  0  0  0  0
  4  9  1  0  0  0  0
  5 10  1  0  0  0  0
  6 21  1  0  0  0  0
  6  5  2  0  0  0  0
  7  1  1  0  0  0  0
  8  2  1  0  0  0  0
 12 11  3  0  0  0  0
 13 14  1  0  0  0  0
 13 16  1  0  0  0  0
 14 19  1  0  0  0  0
 14 20  1  0  0  0  0
 15 13  2  0  0  0  0
 17 13  2  0  0  0  0
 18 14  1  0  0  0  0
M  RAD  2   3   2  16   2
M  END
