Coordinates from ORCA-job Ph-N2-OTf-B3LYPG-aug-cc-pVDZ-scan-d09-29-n200
 OpenBabel01151817073D

 21 20  0  0  0  0  0  0  0  0999 V2000
   -1.5302   -0.9972   -5.6030 C   0  0  0  0  0  0  0  0  0  0  0  0
   -0.7986    0.0911   -6.1147 C   0  0  0  0  0  0  0  0  0  0  0  0
   -1.1477    1.2580   -5.5088 C   0  0  0  0  0  0  0  0  0  0  0  0
   -2.0328    1.5790   -4.5137 C   0  0  0  0  0  0  0  0  0  0  0  0
   -2.7262    0.4496   -4.0436 C   0  0  0  0  0  0  0  0  0  0  0  0
   -2.4753   -0.8163   -4.5862 C   0  0  0  0  0  0  0  0  0  0  0  0
   -1.3299   -1.9886   -6.0077 H   0  0  0  0  0  0  0  0  0  0  0  0
   -0.0064    0.0356   -6.8736 H   0  0  0  0  0  0  0  0  0  0  0  0
   -2.1855    2.5792   -4.1198 H   0  0  0  0  0  0  0  0  0  0  0  0
   -3.4579    0.5820   -3.2474 H   0  0  0  0  0  0  0  0  0  0  0  0
   -0.3025    2.7130   -6.1607 N   0  0  0  0  0  0  0  0  0  0  0  0
   -0.0674    3.7140   -6.5609 N   0  0  0  0  0  0  0  0  0  0  0  0
    2.5548    1.2070   -6.6293 S   0  0  0  0  0  0  0  0  0  0  0  0
    3.3073   -0.4652   -6.1418 C   0  0  0  0  0  0  0  0  0  0  0  0
    3.7091    2.0331   -7.0624 O   0  0  0  0  0  0  0  0  0  0  0  0
    1.8579    1.6432   -5.3558 O   0  0  0  0  0  0  0  0  0  0  0  0
    1.5607    0.8325   -7.7108 O   0  0  0  0  0  0  0  0  0  0  0  0
    3.9604   -1.0149   -7.1780 F   0  0  0  0  0  0  0  0  0  0  0  0
    4.1636   -0.3264   -5.1175 F   0  0  0  0  0  0  0  0  0  0  0  0
    2.3292   -1.3243   -5.7591 F   0  0  0  0  0  0  0  0  0  0  0  0
   -3.0211   -1.6777   -4.2024 H   0  0  0  0  0  0  0  0  0  0  0  0
  1  6  1  0  0  0  0
  2  1  2  0  0  0  0
  2  3  1  0  0  0  0
  3  4  2  0  0  0  0
  4  9  1  0  0  0  0
  4  5  1  0  0  0  0
  5 10  1  0  0  0  0
  6 21  1  0  0  0  0
  6  5  2  0  0  0  0
  7  1  1  0  0  0  0
  8  2  1  0  0  0  0
 11  3  1  0  0  0  0
 12 11  1  0  0  0  0
 13 14  1  0  0  0  0
 13 16  1  0  0  0  0
 14 20  1  0  0  0  0
 14 19  1  0  0  0  0
 15 13  2  0  0  0  0
 17 13  2  0  0  0  0
 18 14  1  0  0  0  0
M  RAD  3  11   2  12   3  16   2
M  END
