Coordinates from ORCA-job Ph-N2-OTf-B3LYPG-aug-cc-pVDZ-scan-d29-49-n200
 OpenBabel01151817073D

 21 19  0  0  0  0  0  0  0  0999 V2000
   -1.9796   -1.2826   -5.9006 C   0  0  0  0  0  0  0  0  0  0  0  0
   -0.9446   -0.3218   -5.9867 C   0  0  0  0  0  0  0  0  0  0  0  0
   -1.1140    0.7275   -5.3054 C   0  0  0  0  0  0  0  0  0  0  0  0
   -2.0430    1.2641   -4.4597 C   0  0  0  0  0  0  0  0  0  0  0  0
   -3.0874    0.3055   -4.3676 C   0  0  0  0  0  0  0  0  0  0  0  0
   -3.0522   -0.9184   -5.0631 C   0  0  0  0  0  0  0  0  0  0  0  0
   -1.9672   -2.2327   -6.4337 H   0  0  0  0  0  0  0  0  0  0  0  0
    0.6661   -0.3187   -7.0076 H   0  0  0  0  0  0  0  0  0  0  0  0
   -2.0360    2.2178   -3.9410 H   0  0  0  0  0  0  0  0  0  0  0  0
   -3.9409    0.5420   -3.7297 H   0  0  0  0  0  0  0  0  0  0  0  0
    0.2554    4.6921   -4.4695 N   0  0  0  0  0  0  0  0  0  0  0  0
    1.0423    5.4421   -4.6623 N   0  0  0  0  0  0  0  0  0  0  0  0
    2.5603    0.7547   -7.1631 S   0  0  0  0  0  0  0  0  0  0  0  0
    3.5897   -0.2331   -5.9096 C   0  0  0  0  0  0  0  0  0  0  0  0
    3.4251    1.0005   -8.3235 O   0  0  0  0  0  0  0  0  0  0  0  0
    1.9004    1.8374   -6.4056 O   0  0  0  0  0  0  0  0  0  0  0  0
    1.4826   -0.3868   -7.5856 O   0  0  0  0  0  0  0  0  0  0  0  0
    4.1481   -1.2889   -6.5051 F   0  0  0  0  0  0  0  0  0  0  0  0
    4.5447    0.5644   -5.4207 F   0  0  0  0  0  0  0  0  0  0  0  0
    2.8010   -0.6491   -4.9094 F   0  0  0  0  0  0  0  0  0  0  0  0
   -3.8889   -1.6093   -4.9477 H   0  0  0  0  0  0  0  0  0  0  0  0
  1  6  1  0  0  0  0
  2  1  2  0  0  0  0
  2  3  1  0  0  0  0
  3  4  2  0  0  0  0
  4  5  1  0  0  0  0
  4  9  1  0  0  0  0
  5 10  1  0  0  0  0
  6 21  1  0  0  0  0
  6  5  2  0  0  0  0
  7  1  1  0  0  0  0
 12 11  3  0  0  0  0
 13 16  2  0  0  0  0
 13 14  1  0  0  0  0
 14 19  1  0  0  0  0
 14 20  1  0  0  0  0
 15 13  2  0  0  0  0
 17 13  1  0  0  0  0
 17  8  1  0  0  0  0
 18 14  1  0  0  0  0
M  RAD  2   2   2   3   2
M  END
