Coordinates from ORCA-job Ph-N2-OTf-B3LYPG-aug-cc-pVDZ-scan-d29-49-n200
 OpenBabel01151817073D

 21 19  0  0  0  0  0  0  0  0999 V2000
   -1.8012   -1.1314   -5.8436 C   0  0  0  0  0  0  0  0  0  0  0  0
   -0.9215   -0.0249   -5.9066 C   0  0  0  0  0  0  0  0  0  0  0  0
   -1.2578    0.9854   -5.2288 C   0  0  0  0  0  0  0  0  0  0  0  0
   -2.2725    1.3665   -4.3971 C   0  0  0  0  0  0  0  0  0  0  0  0
   -3.1623    0.2617   -4.3257 C   0  0  0  0  0  0  0  0  0  0  0  0
   -2.9306   -0.9384   -5.0241 C   0  0  0  0  0  0  0  0  0  0  0  0
   -1.6350   -2.0658   -6.3786 H   0  0  0  0  0  0  0  0  0  0  0  0
    0.6694   -0.0177   -6.9427 H   0  0  0  0  0  0  0  0  0  0  0  0
   -2.4198    2.3063   -3.8739 H   0  0  0  0  0  0  0  0  0  0  0  0
   -4.0530    0.3638   -3.7031 H   0  0  0  0  0  0  0  0  0  0  0  0
    0.0477    4.5760   -4.6459 N   0  0  0  0  0  0  0  0  0  0  0  0
    0.7755    5.3977   -4.7640 N   0  0  0  0  0  0  0  0  0  0  0  0
    2.7060    0.7586   -7.1567 S   0  0  0  0  0  0  0  0  0  0  0  0
    3.5952   -0.4482   -5.9903 C   0  0  0  0  0  0  0  0  0  0  0  0
    3.5532    0.9023   -8.3473 O   0  0  0  0  0  0  0  0  0  0  0  0
    2.2758    1.9026   -6.3293 O   0  0  0  0  0  0  0  0  0  0  0  0
    1.4324   -0.1621   -7.5764 O   0  0  0  0  0  0  0  0  0  0  0  0
    3.9446   -1.5535   -6.6525 F   0  0  0  0  0  0  0  0  0  0  0  0
    4.6883    0.1511   -5.5086 F   0  0  0  0  0  0  0  0  0  0  0  0
    2.7814   -0.7739   -4.9763 F   0  0  0  0  0  0  0  0  0  0  0  0
   -3.6542   -1.7493   -4.9258 H   0  0  0  0  0  0  0  0  0  0  0  0
  1  6  1  0  0  0  0
  2  1  2  0  0  0  0
  2  3  1  0  0  0  0
  3  4  2  0  0  0  0
  4  5  1  0  0  0  0
  4  9  1  0  0  0  0
  5 10  1  0  0  0  0
  6 21  1  0  0  0  0
  6  5  2  0  0  0  0
  7  1  1  0  0  0  0
 12 11  3  0  0  0  0
 13 16  2  0  0  0  0
 13 14  1  0  0  0  0
 14 19  1  0  0  0  0
 14 20  1  0  0  0  0
 15 13  2  0  0  0  0
 17 13  1  0  0  0  0
 17  8  1  0  0  0  0
 18 14  1  0  0  0  0
M  RAD  2   2   2   3   2
M  END
