Coordinates from ORCA-job Ph-N2-OTf-B3LYPG-aug-cc-pVDZ-scan-d29-49-n200
 OpenBabel01151817073D

 21 19  0  0  0  0  0  0  0  0999 V2000
   -2.0345   -1.3751   -5.8950 C   0  0  0  0  0  0  0  0  0  0  0  0
   -0.9397   -0.4940   -6.0521 C   0  0  0  0  0  0  0  0  0  0  0  0
   -1.0128    0.5958   -5.4185 C   0  0  0  0  0  0  0  0  0  0  0  0
   -1.8806    1.2342   -4.5784 C   0  0  0  0  0  0  0  0  0  0  0  0
   -2.9855    0.3572   -4.4137 C   0  0  0  0  0  0  0  0  0  0  0  0
   -3.0549   -0.8975   -5.0495 C   0  0  0  0  0  0  0  0  0  0  0  0
   -2.1034   -2.3472   -6.3821 H   0  0  0  0  0  0  0  0  0  0  0  0
    0.6925   -0.5007   -7.0777 H   0  0  0  0  0  0  0  0  0  0  0  0
   -1.7960    2.2079   -4.1053 H   0  0  0  0  0  0  0  0  0  0  0  0
   -3.8024    0.6829   -3.7672 H   0  0  0  0  0  0  0  0  0  0  0  0
    0.0524    5.1982   -4.1558 N   0  0  0  0  0  0  0  0  0  0  0  0
    0.8014    5.9851   -4.3530 N   0  0  0  0  0  0  0  0  0  0  0  0
    2.5321    0.6619   -7.1810 S   0  0  0  0  0  0  0  0  0  0  0  0
    3.5893   -0.2937   -5.9257 C   0  0  0  0  0  0  0  0  0  0  0  0
    3.4026    0.9726   -8.3210 O   0  0  0  0  0  0  0  0  0  0  0  0
    1.8046    1.6967   -6.4174 O   0  0  0  0  0  0  0  0  0  0  0  0
    1.5203   -0.5242   -7.6410 O   0  0  0  0  0  0  0  0  0  0  0  0
    4.2095   -1.3100   -6.5284 F   0  0  0  0  0  0  0  0  0  0  0  0
    4.4947    0.5428   -5.4086 F   0  0  0  0  0  0  0  0  0  0  0  0
    2.8064   -0.7649   -4.9458 F   0  0  0  0  0  0  0  0  0  0  0  0
   -3.9342   -1.5212   -4.8800 H   0  0  0  0  0  0  0  0  0  0  0  0
  1  6  1  0  0  0  0
  2  1  2  0  0  0  0
  2  3  1  0  0  0  0
  3  4  2  0  0  0  0
  4  5  1  0  0  0  0
  4  9  1  0  0  0  0
  5 10  1  0  0  0  0
  6 21  1  0  0  0  0
  6  5  2  0  0  0  0
  7  1  1  0  0  0  0
 12 11  3  0  0  0  0
 13 16  2  0  0  0  0
 13 14  1  0  0  0  0
 14 19  1  0  0  0  0
 14 20  1  0  0  0  0
 15 13  2  0  0  0  0
 17 13  1  0  0  0  0
 17  8  1  0  0  0  0
 18 14  1  0  0  0  0
M  RAD  2   2   2   3   2
M  END
