Coordinates from ORCA-job Ph-N2-OTf-B3LYPG-aug-cc-pVDZ-scan-d09-29-n200
 OpenBabel01151817073D

 21 21  0  0  1  0  0  0  0  0999 V2000
   -0.8835   -0.7499   -5.3711 C   0  0  0  0  0  0  0  0  0  0  0  0
   -0.3459    0.4601   -6.0401 C   0  0  1  0  0  0  0  0  0  0  0  0
   -1.2041    1.6731   -5.8178 C   0  0  0  0  0  0  0  0  0  0  0  0
   -2.1287    1.7258   -4.6963 C   0  0  0  0  0  0  0  0  0  0  0  0
   -2.4073    0.5967   -3.9978 C   0  0  0  0  0  0  0  0  0  0  0  0
   -1.8144   -0.6649   -4.3917 C   0  0  0  0  0  0  0  0  0  0  0  0
   -0.4629   -1.7087   -5.6700 H   0  0  0  0  0  0  0  0  0  0  0  0
   -0.1057    0.3181   -7.0964 H   0  0  0  0  0  0  0  0  0  0  0  0
   -2.5900    2.6836   -4.4569 H   0  0  0  0  0  0  0  0  0  0  0  0
   -3.1038    0.6276   -3.1616 H   0  0  0  0  0  0  0  0  0  0  0  0
   -1.0755    2.6200   -6.5626 N   0  0  0  0  0  0  0  0  0  0  0  0
   -0.9496    3.5119   -7.2674 N   0  0  0  0  0  0  0  0  0  0  0  0
    2.3567    0.9913   -6.2928 S   0  0  0  0  0  0  0  0  0  0  0  0
    3.1037   -0.7554   -6.2888 C   0  0  0  0  0  0  0  0  0  0  0  0
    3.2863    1.8483   -5.5432 O   0  0  0  0  0  0  0  0  0  0  0  0
    1.0417    0.7363   -5.3663 O   0  0  0  0  0  0  0  0  0  0  0  0
    1.9654    1.2697   -7.6922 O   0  0  0  0  0  0  0  0  0  0  0  0
    4.2068   -0.7547   -7.0413 F   0  0  0  0  0  0  0  0  0  0  0  0
    3.4086   -1.1252   -5.0439 F   0  0  0  0  0  0  0  0  0  0  0  0
    2.2150   -1.6216   -6.8048 F   0  0  0  0  0  0  0  0  0  0  0  0
   -2.1510   -1.5754   -3.8943 H   0  0  0  0  0  0  0  0  0  0  0  0
  1  6  2  0  0  0  0
  2  8  1  6  0  0  0
  2  3  1  0  0  0  0
  2  1  1  0  0  0  0
  2 16  1  0  0  0  0
  3  4  2  0  0  0  0
  4  9  1  0  0  0  0
  4  5  1  0  0  0  0
  5 10  1  0  0  0  0
  6  5  1  0  0  0  0
  6 21  1  0  0  0  0
  7  1  1  0  0  0  0
 11  3  1  0  0  0  0
 12 11  1  0  0  0  0
 13 14  1  0  0  0  0
 13 15  2  0  0  0  0
 13 16  1  0  0  0  0
 14 19  1  0  0  0  0
 17 13  2  0  0  0  0
 18 14  1  0  0  0  0
 20 14  1  0  0  0  0
M  RAD  3   5   2  11   2  12   3
M  END
