Coordinates from ORCA-job Ph-N2-OTf-B3LYPG-aug-cc-pVDZ-scan-d29-49-n200
 OpenBabel01151817073D

 21 19  0  0  0  0  0  0  0  0999 V2000
   -1.7697   -1.0927   -5.8292 C   0  0  0  0  0  0  0  0  0  0  0  0
   -0.9210    0.0389   -5.8819 C   0  0  0  0  0  0  0  0  0  0  0  0
   -1.2939    1.0364   -5.2025 C   0  0  0  0  0  0  0  0  0  0  0  0
   -2.3279    1.3825   -4.3788 C   0  0  0  0  0  0  0  0  0  0  0  0
   -3.1853    0.2518   -4.3192 C   0  0  0  0  0  0  0  0  0  0  0  0
   -2.9116   -0.9376   -5.0197 C   0  0  0  0  0  0  0  0  0  0  0  0
   -1.5712   -2.0196   -6.3663 H   0  0  0  0  0  0  0  0  0  0  0  0
    0.6613    0.0473   -6.9181 H   0  0  0  0  0  0  0  0  0  0  0  0
   -2.5079    2.3152   -3.8533 H   0  0  0  0  0  0  0  0  0  0  0  0
   -4.0840    0.3252   -3.7042 H   0  0  0  0  0  0  0  0  0  0  0  0
    0.1006    4.4053   -4.7517 N   0  0  0  0  0  0  0  0  0  0  0  0
    0.8262    5.2305   -4.8573 N   0  0  0  0  0  0  0  0  0  0  0  0
    2.7103    0.7889   -7.1368 S   0  0  0  0  0  0  0  0  0  0  0  0
    3.5879   -0.4501   -5.9957 C   0  0  0  0  0  0  0  0  0  0  0  0
    3.5506    0.9357   -8.3319 O   0  0  0  0  0  0  0  0  0  0  0  0
    2.3064    1.9271   -6.2892 O   0  0  0  0  0  0  0  0  0  0  0  0
    1.4177   -0.1023   -7.5594 O   0  0  0  0  0  0  0  0  0  0  0  0
    3.9126   -1.5515   -6.6768 F   0  0  0  0  0  0  0  0  0  0  0  0
    4.6952    0.1229   -5.5143 F   0  0  0  0  0  0  0  0  0  0  0  0
    2.7769   -0.7767   -4.9797 F   0  0  0  0  0  0  0  0  0  0  0  0
   -3.6113   -1.7703   -4.9313 H   0  0  0  0  0  0  0  0  0  0  0  0
  1  6  1  0  0  0  0
  2  1  2  0  0  0  0
  2  3  1  0  0  0  0
  3  4  2  0  0  0  0
  4  5  1  0  0  0  0
  4  9  1  0  0  0  0
  5 10  1  0  0  0  0
  6 21  1  0  0  0  0
  6  5  2  0  0  0  0
  7  1  1  0  0  0  0
 12 11  3  0  0  0  0
 13 16  2  0  0  0  0
 13 14  1  0  0  0  0
 14 19  1  0  0  0  0
 14 20  1  0  0  0  0
 15 13  2  0  0  0  0
 17 13  1  0  0  0  0
 17  8  1  0  0  0  0
 18 14  1  0  0  0  0
M  RAD  2   2   2   3   2
M  END
