Coordinates from ORCA-job Ph-N2-OTf-B3LYPG-aug-cc-pVDZ-scan-d29-49-n200
 OpenBabel01151817073D

 21 19  0  0  0  0  0  0  0  0999 V2000
   -1.7036   -1.0114   -5.7936 C   0  0  0  0  0  0  0  0  0  0  0  0
   -0.8977    0.1536   -5.8368 C   0  0  0  0  0  0  0  0  0  0  0  0
   -1.3298    1.1305   -5.1608 C   0  0  0  0  0  0  0  0  0  0  0  0
   -2.3908    1.4367   -4.3579 C   0  0  0  0  0  0  0  0  0  0  0  0
   -3.2013    0.2714   -4.3104 C   0  0  0  0  0  0  0  0  0  0  0  0
   -2.8651   -0.9058   -5.0048 C   0  0  0  0  0  0  0  0  0  0  0  0
   -1.4576   -1.9292   -6.3269 H   0  0  0  0  0  0  0  0  0  0  0  0
    0.6638    0.1565   -6.8733 H   0  0  0  0  0  0  0  0  0  0  0  0
   -2.6170    2.3621   -3.8376 H   0  0  0  0  0  0  0  0  0  0  0  0
   -4.1125    0.3076   -3.7107 H   0  0  0  0  0  0  0  0  0  0  0  0
    0.0145    4.1040   -4.9245 N   0  0  0  0  0  0  0  0  0  0  0  0
    0.7059    4.9618   -4.9926 N   0  0  0  0  0  0  0  0  0  0  0  0
    2.7400    0.8255   -7.0863 S   0  0  0  0  0  0  0  0  0  0  0  0
    3.5929   -0.5028   -6.0305 C   0  0  0  0  0  0  0  0  0  0  0  0
    3.5653    1.0079   -8.2872 O   0  0  0  0  0  0  0  0  0  0  0  0
    2.3917    1.9297   -6.1711 O   0  0  0  0  0  0  0  0  0  0  0  0
    1.4094    0.0042   -7.5293 O   0  0  0  0  0  0  0  0  0  0  0  0
    3.8631   -1.5777   -6.7752 F   0  0  0  0  0  0  0  0  0  0  0  0
    4.7302    0.0033   -5.5439 F   0  0  0  0  0  0  0  0  0  0  0  0
    2.7907   -0.8538   -5.0157 F   0  0  0  0  0  0  0  0  0  0  0  0
   -3.5304   -1.7673   -4.9283 H   0  0  0  0  0  0  0  0  0  0  0  0
  1  6  1  0  0  0  0
  2  1  2  0  0  0  0
  2  3  1  0  0  0  0
  3  4  2  0  0  0  0
  4  5  1  0  0  0  0
  4  9  1  0  0  0  0
  5 10  1  0  0  0  0
  6 21  1  0  0  0  0
  6  5  2  0  0  0  0
  7  1  1  0  0  0  0
 12 11  3  0  0  0  0
 13 16  2  0  0  0  0
 13 14  1  0  0  0  0
 14 19  1  0  0  0  0
 14 20  1  0  0  0  0
 15 13  2  0  0  0  0
 17 13  1  0  0  0  0
 17  8  1  0  0  0  0
 18 14  1  0  0  0  0
M  RAD  2   2   2   3   2
M  END
