Coordinates from ORCA-job Ph-N2-OTf-B3LYPG-aug-cc-pVDZ-scan-d09-29-n200
 OpenBabel01151817073D

 21 19  0  0  0  0  0  0  0  0999 V2000
   -1.4973   -0.9436   -5.6754 C   0  0  0  0  0  0  0  0  0  0  0  0
   -0.7564    0.2419   -6.0070 C   0  0  0  0  0  0  0  0  0  0  0  0
   -1.2742    1.2049   -5.2964 C   0  0  0  0  0  0  0  0  0  0  0  0
   -2.2169    1.5075   -4.3814 C   0  0  0  0  0  0  0  0  0  0  0  0
   -2.9013    0.2931   -4.1039 C   0  0  0  0  0  0  0  0  0  0  0  0
   -2.5410   -0.9006   -4.7454 C   0  0  0  0  0  0  0  0  0  0  0  0
   -1.1994   -1.8718   -6.1649 H   0  0  0  0  0  0  0  0  0  0  0  0
    0.1904    0.2238   -6.7377 H   0  0  0  0  0  0  0  0  0  0  0  0
   -2.4454    2.4649   -3.9258 H   0  0  0  0  0  0  0  0  0  0  0  0
   -3.7154    0.3269   -3.3788 H   0  0  0  0  0  0  0  0  0  0  0  0
   -0.3052    3.5408   -5.8483 N   0  0  0  0  0  0  0  0  0  0  0  0
    0.1362    4.5225   -6.0895 N   0  0  0  0  0  0  0  0  0  0  0  0
    2.5392    0.9306   -6.8823 S   0  0  0  0  0  0  0  0  0  0  0  0
    3.4598   -0.5053   -6.0558 C   0  0  0  0  0  0  0  0  0  0  0  0
    3.5013    1.5109   -7.8449 O   0  0  0  0  0  0  0  0  0  0  0  0
    2.0617    1.7682   -5.7398 O   0  0  0  0  0  0  0  0  0  0  0  0
    1.3678    0.1878   -7.5724 O   0  0  0  0  0  0  0  0  0  0  0  0
    3.9088   -1.3748   -6.9732 F   0  0  0  0  0  0  0  0  0  0  0  0
    4.5017   -0.0425   -5.3493 F   0  0  0  0  0  0  0  0  0  0  0  0
    2.6305   -1.1624   -5.2152 F   0  0  0  0  0  0  0  0  0  0  0  0
   -3.0830   -1.8159   -4.5098 H   0  0  0  0  0  0  0  0  0  0  0  0
  1  6  1  0  0  0  0
  2  1  2  0  0  0  0
  2  3  1  0  0  0  0
  3  4  2  0  0  0  0
  4  5  1  0  0  0  0
  4  9  1  0  0  0  0
  5 10  1  0  0  0  0
  6 21  1  0  0  0  0
  6  5  2  0  0  0  0
  7  1  1  0  0  0  0
  8  2  1  0  0  0  0
 12 11  3  0  0  0  0
 13 14  1  0  0  0  0
 13 16  1  0  0  0  0
 14 19  1  0  0  0  0
 14 20  1  0  0  0  0
 15 13  2  0  0  0  0
 17 13  2  0  0  0  0
 18 14  1  0  0  0  0
M  RAD  2   3   2  16   2
M  END
