Coordinates from ORCA-job Ph-N2-OTf-B3LYPG-aug-cc-pVDZ-scan-d09-29-n200
 OpenBabel01151817073D

 21 19  0  0  0  0  0  0  0  0999 V2000
   -1.6116   -0.9694   -5.7316 C   0  0  0  0  0  0  0  0  0  0  0  0
   -0.8916    0.2450   -5.8739 C   0  0  0  0  0  0  0  0  0  0  0  0
   -1.3279    1.1980   -5.1647 C   0  0  0  0  0  0  0  0  0  0  0  0
   -2.3090    1.4412   -4.2492 C   0  0  0  0  0  0  0  0  0  0  0  0
   -3.0289    0.2257   -4.1062 C   0  0  0  0  0  0  0  0  0  0  0  0
   -2.6878   -0.9352   -4.8249 C   0  0  0  0  0  0  0  0  0  0  0  0
   -1.3563   -1.8777   -6.2773 H   0  0  0  0  0  0  0  0  0  0  0  0
    0.6374    0.2098   -6.9151 H   0  0  0  0  0  0  0  0  0  0  0  0
   -2.5425    2.3577   -3.7170 H   0  0  0  0  0  0  0  0  0  0  0  0
   -3.8738    0.2101   -3.4155 H   0  0  0  0  0  0  0  0  0  0  0  0
   -0.3959    3.8073   -5.3829 N   0  0  0  0  0  0  0  0  0  0  0  0
    0.2365    4.6206   -5.7791 N   0  0  0  0  0  0  0  0  0  0  0  0
    2.7258    0.8450   -7.1587 S   0  0  0  0  0  0  0  0  0  0  0  0
    3.5351   -0.3814   -5.9555 C   0  0  0  0  0  0  0  0  0  0  0  0
    3.5807    0.8968   -8.3516 O   0  0  0  0  0  0  0  0  0  0  0  0
    2.3774    2.0412   -6.3664 O   0  0  0  0  0  0  0  0  0  0  0  0
    1.3935    0.0032   -7.5491 O   0  0  0  0  0  0  0  0  0  0  0  0
    3.8048   -1.5294   -6.5819 F   0  0  0  0  0  0  0  0  0  0  0  0
    4.6693    0.1556   -5.4954 F   0  0  0  0  0  0  0  0  0  0  0  0
    2.7057   -0.6182   -4.9292 F   0  0  0  0  0  0  0  0  0  0  0  0
   -3.2791   -1.8393   -4.6720 H   0  0  0  0  0  0  0  0  0  0  0  0
  1  6  1  0  0  0  0
  2  1  2  0  0  0  0
  2  3  1  0  0  0  0
  3  4  2  0  0  0  0
  4  5  1  0  0  0  0
  4  9  1  0  0  0  0
  5 10  1  0  0  0  0
  6 21  1  0  0  0  0
  6  5  2  0  0  0  0
  7  1  1  0  0  0  0
 12 11  3  0  0  0  0
 13 16  2  0  0  0  0
 13 14  1  0  0  0  0
 14 19  1  0  0  0  0
 14 20  1  0  0  0  0
 15 13  2  0  0  0  0
 17 13  1  0  0  0  0
 17  8  1  0  0  0  0
 18 14  1  0  0  0  0
M  RAD  2   2   2   3   2
M  END
