Coordinates from ORCA-job Ph-N2-OTf-B3LYPG-aug-cc-pVDZ-scan-d09-29-n200
 OpenBabel01151817073D

 21 19  0  0  0  0  0  0  0  0999 V2000
   -1.4977   -0.9464   -5.6775 C   0  0  0  0  0  0  0  0  0  0  0  0
   -0.7556    0.2402   -6.0059 C   0  0  0  0  0  0  0  0  0  0  0  0
   -1.2754    1.1986   -5.2926 C   0  0  0  0  0  0  0  0  0  0  0  0
   -2.2173    1.5035   -4.3782 C   0  0  0  0  0  0  0  0  0  0  0  0
   -2.9026    0.2881   -4.1041 C   0  0  0  0  0  0  0  0  0  0  0  0
   -2.5422   -0.9044   -4.7481 C   0  0  0  0  0  0  0  0  0  0  0  0
   -1.2004   -1.8738   -6.1689 H   0  0  0  0  0  0  0  0  0  0  0  0
    0.1954    0.2224   -6.7382 H   0  0  0  0  0  0  0  0  0  0  0  0
   -2.4449    2.4604   -3.9214 H   0  0  0  0  0  0  0  0  0  0  0  0
   -3.7173    0.3202   -3.3797 H   0  0  0  0  0  0  0  0  0  0  0  0
   -0.3012    3.5655   -5.8455 N   0  0  0  0  0  0  0  0  0  0  0  0
    0.1435    4.5456   -6.0875 N   0  0  0  0  0  0  0  0  0  0  0  0
    2.5392    0.9284   -6.8862 S   0  0  0  0  0  0  0  0  0  0  0  0
    3.4584   -0.5041   -6.0523 C   0  0  0  0  0  0  0  0  0  0  0  0
    3.4989    1.4982   -7.8571 O   0  0  0  0  0  0  0  0  0  0  0  0
    2.0667    1.7756   -5.7492 O   0  0  0  0  0  0  0  0  0  0  0  0
    1.3637    0.1819   -7.5679 O   0  0  0  0  0  0  0  0  0  0  0  0
    3.9023   -1.3812   -6.9649 F   0  0  0  0  0  0  0  0  0  0  0  0
    4.5035   -0.0389   -5.3524 F   0  0  0  0  0  0  0  0  0  0  0  0
    2.6299   -1.1530   -5.2046 F   0  0  0  0  0  0  0  0  0  0  0  0
   -3.0851   -1.8199   -4.5149 H   0  0  0  0  0  0  0  0  0  0  0  0
  1  6  1  0  0  0  0
  2  1  2  0  0  0  0
  2  3  1  0  0  0  0
  3  4  2  0  0  0  0
  4  5  1  0  0  0  0
  4  9  1  0  0  0  0
  5 10  1  0  0  0  0
  6 21  1  0  0  0  0
  6  5  2  0  0  0  0
  7  1  1  0  0  0  0
  8  2  1  0  0  0  0
 12 11  3  0  0  0  0
 13 14  1  0  0  0  0
 13 16  1  0  0  0  0
 14 19  1  0  0  0  0
 14 20  1  0  0  0  0
 15 13  2  0  0  0  0
 17 13  2  0  0  0  0
 18 14  1  0  0  0  0
M  RAD  2   3   2  16   2
M  END
