Coordinates from ORCA-job Ph-N2-OTf-B3LYPG-aug-cc-pVDZ-scan-d09-29-n200
 OpenBabel01151817073D

 21 20  0  0  0  0  0  0  0  0999 V2000
   -1.4904   -0.9990   -5.5623 C   0  0  0  0  0  0  0  0  0  0  0  0
   -0.7902    0.0756   -6.1101 C   0  0  0  0  0  0  0  0  0  0  0  0
   -1.1042    1.3280   -5.5898 C   0  0  0  0  0  0  0  0  0  0  0  0
   -2.0303    1.5964   -4.5788 C   0  0  0  0  0  0  0  0  0  0  0  0
   -2.7022    0.4932   -4.0563 C   0  0  0  0  0  0  0  0  0  0  0  0
   -2.4338   -0.7923   -4.5479 C   0  0  0  0  0  0  0  0  0  0  0  0
   -1.2812   -2.0050   -5.9226 H   0  0  0  0  0  0  0  0  0  0  0  0
   -0.0120   -0.0100   -6.8702 H   0  0  0  0  0  0  0  0  0  0  0  0
   -2.2070    2.6071   -4.2177 H   0  0  0  0  0  0  0  0  0  0  0  0
   -3.4324    0.6388   -3.2617 H   0  0  0  0  0  0  0  0  0  0  0  0
   -0.4276    2.5136   -6.1691 N   0  0  0  0  0  0  0  0  0  0  0  0
   -0.0841    3.4737   -6.5989 N   0  0  0  0  0  0  0  0  0  0  0  0
    2.5825    1.2744   -6.5452 S   0  0  0  0  0  0  0  0  0  0  0  0
    3.2536   -0.4667   -6.1995 C   0  0  0  0  0  0  0  0  0  0  0  0
    3.7861    2.0799   -6.8710 O   0  0  0  0  0  0  0  0  0  0  0  0
    1.8674    1.6268   -5.2577 O   0  0  0  0  0  0  0  0  0  0  0  0
    1.6022    1.0450   -7.6787 O   0  0  0  0  0  0  0  0  0  0  0  0
    3.9059   -0.9499   -7.2688 F   0  0  0  0  0  0  0  0  0  0  0  0
    4.0914   -0.4603   -5.1507 F   0  0  0  0  0  0  0  0  0  0  0  0
    2.2327   -1.3169   -5.9141 F   0  0  0  0  0  0  0  0  0  0  0  0
   -2.9647   -1.6456   -4.1261 H   0  0  0  0  0  0  0  0  0  0  0  0
  1  6  2  0  0  0  0
  2  3  2  0  0  0  0
  2  1  1  0  0  0  0
  3  4  1  0  0  0  0
  4  9  1  0  0  0  0
  4  5  2  0  0  0  0
  5 10  1  0  0  0  0
  6 21  1  0  0  0  0
  6  5  1  0  0  0  0
  7  1  1  0  0  0  0
  8  2  1  0  0  0  0
 11  3  1  0  0  0  0
 12 11  1  0  0  0  0
 13 14  1  0  0  0  0
 13 16  1  0  0  0  0
 14 20  1  0  0  0  0
 14 19  1  0  0  0  0
 15 13  2  0  0  0  0
 17 13  2  0  0  0  0
 18 14  1  0  0  0  0
M  RAD  3  11   2  12   3  16   2
M  END
