Coordinates from ORCA-job Ph-N2-OTf-B3LYPG-aug-cc-pVDZ-scan-d09-29-n200
 OpenBabel01151817073D

 21 20  0  0  0  0  0  0  0  0999 V2000
   -1.5382   -0.9916   -5.6027 C   0  0  0  0  0  0  0  0  0  0  0  0
   -0.8025    0.0988   -6.1058 C   0  0  0  0  0  0  0  0  0  0  0  0
   -1.1574    1.2602   -5.4954 C   0  0  0  0  0  0  0  0  0  0  0  0
   -2.0474    1.5799   -4.5052 C   0  0  0  0  0  0  0  0  0  0  0  0
   -2.7440    0.4483   -4.0444 C   0  0  0  0  0  0  0  0  0  0  0  0
   -2.4897   -0.8153   -4.5911 C   0  0  0  0  0  0  0  0  0  0  0  0
   -1.3353   -1.9811   -6.0109 H   0  0  0  0  0  0  0  0  0  0  0  0
   -0.0051    0.0450   -6.8613 H   0  0  0  0  0  0  0  0  0  0  0  0
   -2.2024    2.5785   -4.1084 H   0  0  0  0  0  0  0  0  0  0  0  0
   -3.4808    0.5776   -3.2524 H   0  0  0  0  0  0  0  0  0  0  0  0
   -0.2981    2.7340   -6.1425 N   0  0  0  0  0  0  0  0  0  0  0  0
   -0.0580    3.7357   -6.5380 N   0  0  0  0  0  0  0  0  0  0  0  0
    2.5560    1.1896   -6.6467 S   0  0  0  0  0  0  0  0  0  0  0  0
    3.3335   -0.4660   -6.1428 C   0  0  0  0  0  0  0  0  0  0  0  0
    3.6959    2.0270   -7.0960 O   0  0  0  0  0  0  0  0  0  0  0  0
    1.8595    1.6314   -5.3753 O   0  0  0  0  0  0  0  0  0  0  0  0
    1.5619    0.7882   -7.7187 O   0  0  0  0  0  0  0  0  0  0  0  0
    3.9878   -1.0201   -7.1760 F   0  0  0  0  0  0  0  0  0  0  0  0
    4.1942   -0.3025   -5.1259 F   0  0  0  0  0  0  0  0  0  0  0  0
    2.3693   -1.3325   -5.7432 F   0  0  0  0  0  0  0  0  0  0  0  0
   -3.0378   -1.6783   -4.2146 H   0  0  0  0  0  0  0  0  0  0  0  0
  1  6  1  0  0  0  0
  2  1  2  0  0  0  0
  2  3  1  0  0  0  0
  3  4  2  0  0  0  0
  4  9  1  0  0  0  0
  4  5  1  0  0  0  0
  5 10  1  0  0  0  0
  6 21  1  0  0  0  0
  6  5  2  0  0  0  0
  7  1  1  0  0  0  0
  8  2  1  0  0  0  0
 11  3  1  0  0  0  0
 12 11  1  0  0  0  0
 13 14  1  0  0  0  0
 13 16  1  0  0  0  0
 14 20  1  0  0  0  0
 14 19  1  0  0  0  0
 15 13  2  0  0  0  0
 17 13  2  0  0  0  0
 18 14  1  0  0  0  0
M  RAD  3  11   2  12   3  16   2
M  END
