Coordinates from ORCA-job Ph-N2-OTf-B3LYPG-aug-cc-pVDZ-scan-d29-49-n200
 OpenBabel01151817073D

 21 19  0  0  0  0  0  0  0  0999 V2000
   -2.0014   -1.3170   -5.9002 C   0  0  0  0  0  0  0  0  0  0  0  0
   -0.9451   -0.3820   -6.0041 C   0  0  0  0  0  0  0  0  0  0  0  0
   -1.0839    0.6800   -5.3359 C   0  0  0  0  0  0  0  0  0  0  0  0
   -1.9958    1.2498   -4.4930 C   0  0  0  0  0  0  0  0  0  0  0  0
   -3.0621    0.3177   -4.3825 C   0  0  0  0  0  0  0  0  0  0  0  0
   -3.0600   -0.9160   -5.0617 C   0  0  0  0  0  0  0  0  0  0  0  0
   -2.0149   -2.2739   -6.4209 H   0  0  0  0  0  0  0  0  0  0  0  0
    0.6747   -0.3780   -7.0250 H   0  0  0  0  0  0  0  0  0  0  0  0
   -1.9637    2.2098   -3.9868 H   0  0  0  0  0  0  0  0  0  0  0  0
   -3.9060    0.5828   -3.7431 H   0  0  0  0  0  0  0  0  0  0  0  0
    0.2135    4.8574   -4.3783 N   0  0  0  0  0  0  0  0  0  0  0  0
    1.0012    5.6037   -4.5822 N   0  0  0  0  0  0  0  0  0  0  0  0
    2.5477    0.7313   -7.1649 S   0  0  0  0  0  0  0  0  0  0  0  0
    3.5915   -0.2444   -5.9139 C   0  0  0  0  0  0  0  0  0  0  0  0
    3.4120    1.0026   -8.3198 O   0  0  0  0  0  0  0  0  0  0  0  0
    1.8630    1.7955   -6.4027 O   0  0  0  0  0  0  0  0  0  0  0  0
    1.4943   -0.4284   -7.5995 O   0  0  0  0  0  0  0  0  0  0  0  0
    4.1728   -1.2850   -6.5143 F   0  0  0  0  0  0  0  0  0  0  0  0
    4.5288    0.5685   -5.4162 F   0  0  0  0  0  0  0  0  0  0  0  0
    2.8075   -0.6824   -4.9195 F   0  0  0  0  0  0  0  0  0  0  0  0
   -3.9124   -1.5850   -4.9327 H   0  0  0  0  0  0  0  0  0  0  0  0
  1  6  1  0  0  0  0
  2  1  2  0  0  0  0
  2  3  1  0  0  0  0
  3  4  2  0  0  0  0
  4  5  1  0  0  0  0
  4  9  1  0  0  0  0
  5 10  1  0  0  0  0
  6 21  1  0  0  0  0
  6  5  2  0  0  0  0
  7  1  1  0  0  0  0
 12 11  3  0  0  0  0
 13 16  2  0  0  0  0
 13 14  1  0  0  0  0
 14 19  1  0  0  0  0
 14 20  1  0  0  0  0
 15 13  2  0  0  0  0
 17 13  1  0  0  0  0
 17  8  1  0  0  0  0
 18 14  1  0  0  0  0
M  RAD  2   2   2   3   2
M  END
