Coordinates from ORCA-job Ph-N2-OTf-B3LYPG-aug-cc-pVDZ-scan-d09-29-n200
 OpenBabel01151817073D

 21 21  0  0  1  0  0  0  0  0999 V2000
   -0.8745   -0.7325   -5.4120 C   0  0  0  0  0  0  0  0  0  0  0  0
   -0.3424    0.4938   -6.0611 C   0  0  1  0  0  0  0  0  0  0  0  0
   -1.2064    1.7167   -5.8191 C   0  0  0  0  0  0  0  0  0  0  0  0
   -2.1180    1.7280   -4.6722 C   0  0  0  0  0  0  0  0  0  0  0  0
   -2.3870    0.5838   -4.0002 C   0  0  0  0  0  0  0  0  0  0  0  0
   -1.7985   -0.6712   -4.4271 C   0  0  0  0  0  0  0  0  0  0  0  0
   -0.4541   -1.6835   -5.7355 H   0  0  0  0  0  0  0  0  0  0  0  0
   -0.1270    0.3710   -7.1261 H   0  0  0  0  0  0  0  0  0  0  0  0
   -2.5738    2.6806   -4.4030 H   0  0  0  0  0  0  0  0  0  0  0  0
   -3.0726    0.5958   -3.1542 H   0  0  0  0  0  0  0  0  0  0  0  0
   -1.1012    2.6100   -6.5051 N   0  0  0  0  0  0  0  0  0  0  0  0
   -0.9892    3.5170   -7.2049 N   0  0  0  0  0  0  0  0  0  0  0  0
    2.3547    0.9762   -6.3442 S   0  0  0  0  0  0  0  0  0  0  0  0
    3.0976   -0.7693   -6.2345 C   0  0  0  0  0  0  0  0  0  0  0  0
    3.2757    1.8719   -5.6315 O   0  0  0  0  0  0  0  0  0  0  0  0
    1.0298    0.7721   -5.4082 O   0  0  0  0  0  0  0  0  0  0  0  0
    1.9708    1.1770   -7.7575 O   0  0  0  0  0  0  0  0  0  0  0  0
    4.2130   -0.8068   -6.9671 F   0  0  0  0  0  0  0  0  0  0  0  0
    3.3805   -1.0719   -4.9669 F   0  0  0  0  0  0  0  0  0  0  0  0
    2.2168   -1.6599   -6.7196 F   0  0  0  0  0  0  0  0  0  0  0  0
   -2.1323   -1.5922   -3.9475 H   0  0  0  0  0  0  0  0  0  0  0  0
  1  6  2  0  0  0  0
  2  8  1  6  0  0  0
  2  3  1  0  0  0  0
  2  1  1  0  0  0  0
  2 16  1  0  0  0  0
  3  4  2  0  0  0  0
  4  9  1  0  0  0  0
  4  5  1  0  0  0  0
  5 10  1  0  0  0  0
  6  5  1  0  0  0  0
  6 21  1  0  0  0  0
  7  1  1  0  0  0  0
 11  3  1  0  0  0  0
 12 11  1  0  0  0  0
 13 14  1  0  0  0  0
 13 15  2  0  0  0  0
 13 16  1  0  0  0  0
 14 19  1  0  0  0  0
 17 13  2  0  0  0  0
 18 14  1  0  0  0  0
 20 14  1  0  0  0  0
M  RAD  3   5   2  11   2  12   3
M  END
