Coordinates from ORCA-job Ph-N2-OTf-B3LYPG-aug-cc-pVDZ-scan-d09-29-n200
 OpenBabel01151817073D

 21 20  0  0  0  0  0  0  0  0999 V2000
   -1.5332   -1.0075   -5.6053 C   0  0  0  0  0  0  0  0  0  0  0  0
   -0.8048    0.0727   -6.1298 C   0  0  0  0  0  0  0  0  0  0  0  0
   -1.1272    1.2601   -5.5348 C   0  0  0  0  0  0  0  0  0  0  0  0
   -2.0057    1.5743   -4.5251 C   0  0  0  0  0  0  0  0  0  0  0  0
   -2.6994    0.4555   -4.0385 C   0  0  0  0  0  0  0  0  0  0  0  0
   -2.4638   -0.8154   -4.5771 C   0  0  0  0  0  0  0  0  0  0  0  0
   -1.3461   -2.0031   -6.0058 H   0  0  0  0  0  0  0  0  0  0  0  0
   -0.0262    0.0060   -6.8970 H   0  0  0  0  0  0  0  0  0  0  0  0
   -2.1488    2.5769   -4.1326 H   0  0  0  0  0  0  0  0  0  0  0  0
   -3.4197    0.5947   -3.2332 H   0  0  0  0  0  0  0  0  0  0  0  0
   -0.3105    2.6586   -6.1825 N   0  0  0  0  0  0  0  0  0  0  0  0
   -0.0734    3.6551   -6.5938 N   0  0  0  0  0  0  0  0  0  0  0  0
    2.5599    1.2388   -6.6056 S   0  0  0  0  0  0  0  0  0  0  0  0
    3.2762   -0.4559   -6.1412 C   0  0  0  0  0  0  0  0  0  0  0  0
    3.7360    2.0515   -7.0040 O   0  0  0  0  0  0  0  0  0  0  0  0
    1.8529    1.6649   -5.3332 O   0  0  0  0  0  0  0  0  0  0  0  0
    1.5724    0.9051   -7.7055 O   0  0  0  0  0  0  0  0  0  0  0  0
    3.9337   -0.9961   -7.1795 F   0  0  0  0  0  0  0  0  0  0  0  0
    4.1206   -0.3524   -5.1031 F   0  0  0  0  0  0  0  0  0  0  0  0
    2.2787   -1.3059   -5.7887 F   0  0  0  0  0  0  0  0  0  0  0  0
   -3.0097   -1.6712   -4.1810 H   0  0  0  0  0  0  0  0  0  0  0  0
  1  6  1  0  0  0  0
  2  1  2  0  0  0  0
  2  3  1  0  0  0  0
  3  4  2  0  0  0  0
  4  9  1  0  0  0  0
  4  5  1  0  0  0  0
  5 10  1  0  0  0  0
  6 21  1  0  0  0  0
  6  5  2  0  0  0  0
  7  1  1  0  0  0  0
  8  2  1  0  0  0  0
 11  3  1  0  0  0  0
 12 11  1  0  0  0  0
 13 14  1  0  0  0  0
 13 16  1  0  0  0  0
 14 20  1  0  0  0  0
 14 19  1  0  0  0  0
 15 13  2  0  0  0  0
 17 13  2  0  0  0  0
 18 14  1  0  0  0  0
M  RAD  3  11   2  12   3  16   2
M  END
