Coordinates from ORCA-job Ph-N2-OTf-B3LYPG-aug-cc-pVDZ-scan-d29-49-n200
 OpenBabel01151817073D

 21 19  0  0  0  0  0  0  0  0999 V2000
   -1.7796   -1.1047   -5.8326 C   0  0  0  0  0  0  0  0  0  0  0  0
   -0.9220    0.0198   -5.8870 C   0  0  0  0  0  0  0  0  0  0  0  0
   -1.2852    1.0204   -5.2083 C   0  0  0  0  0  0  0  0  0  0  0  0
   -2.3138    1.3779   -4.3836 C   0  0  0  0  0  0  0  0  0  0  0  0
   -3.1811    0.2547   -4.3215 C   0  0  0  0  0  0  0  0  0  0  0  0
   -2.9189   -0.9382   -5.0213 C   0  0  0  0  0  0  0  0  0  0  0  0
   -1.5899   -2.0339   -6.3691 H   0  0  0  0  0  0  0  0  0  0  0  0
    0.6633    0.0301   -6.9229 H   0  0  0  0  0  0  0  0  0  0  0  0
   -2.4848    2.3127   -3.8589 H   0  0  0  0  0  0  0  0  0  0  0  0
   -4.0782    0.3366   -3.7052 H   0  0  0  0  0  0  0  0  0  0  0  0
    0.0913    4.4467   -4.7242 N   0  0  0  0  0  0  0  0  0  0  0  0
    0.8191    5.2693   -4.8355 N   0  0  0  0  0  0  0  0  0  0  0  0
    2.7089    0.7827   -7.1417 S   0  0  0  0  0  0  0  0  0  0  0  0
    3.5911   -0.4471   -5.9943 C   0  0  0  0  0  0  0  0  0  0  0  0
    3.5498    0.9288   -8.3365 O   0  0  0  0  0  0  0  0  0  0  0  0
    2.2986    1.9230   -6.2993 O   0  0  0  0  0  0  0  0  0  0  0  0
    1.4215   -0.1177   -7.5622 O   0  0  0  0  0  0  0  0  0  0  0  0
    3.9219   -1.5498   -6.6704 F   0  0  0  0  0  0  0  0  0  0  0  0
    4.6951    0.1333   -5.5142 F   0  0  0  0  0  0  0  0  0  0  0  0
    2.7805   -0.7733   -4.9779 F   0  0  0  0  0  0  0  0  0  0  0  0
   -3.6259   -1.7645   -4.9307 H   0  0  0  0  0  0  0  0  0  0  0  0
  1  6  1  0  0  0  0
  2  1  2  0  0  0  0
  2  3  1  0  0  0  0
  3  4  2  0  0  0  0
  4  5  1  0  0  0  0
  4  9  1  0  0  0  0
  5 10  1  0  0  0  0
  6 21  1  0  0  0  0
  6  5  2  0  0  0  0
  7  1  1  0  0  0  0
 12 11  3  0  0  0  0
 13 16  2  0  0  0  0
 13 14  1  0  0  0  0
 14 19  1  0  0  0  0
 14 20  1  0  0  0  0
 15 13  2  0  0  0  0
 17 13  1  0  0  0  0
 17  8  1  0  0  0  0
 18 14  1  0  0  0  0
M  RAD  2   2   2   3   2
M  END
