Coordinates from ORCA-job Ph-N2-OTf-B3LYPG-aug-cc-pVDZ-scan-d09-29-n200
 OpenBabel01151817073D

 21 19  0  0  0  0  0  0  0  0999 V2000
   -1.5536   -0.9163   -5.6217 C   0  0  0  0  0  0  0  0  0  0  0  0
   -0.7841    0.2255   -5.9885 C   0  0  0  0  0  0  0  0  0  0  0  0
   -1.2661    1.2722   -5.3267 C   0  0  0  0  0  0  0  0  0  0  0  0
   -2.2346    1.5785   -4.4281 C   0  0  0  0  0  0  0  0  0  0  0  0
   -2.9491    0.3986   -4.1143 C   0  0  0  0  0  0  0  0  0  0  0  0
   -2.6075   -0.8230   -4.7078 C   0  0  0  0  0  0  0  0  0  0  0  0
   -1.2749   -1.8685   -6.0741 H   0  0  0  0  0  0  0  0  0  0  0  0
    0.1120    0.1844   -6.6877 H   0  0  0  0  0  0  0  0  0  0  0  0
   -2.4506    2.5523   -4.0014 H   0  0  0  0  0  0  0  0  0  0  0  0
   -3.7687    0.4737   -3.3994 H   0  0  0  0  0  0  0  0  0  0  0  0
   -0.2819    3.0871   -5.8347 N   0  0  0  0  0  0  0  0  0  0  0  0
    0.0609    4.1044   -6.0853 N   0  0  0  0  0  0  0  0  0  0  0  0
    2.5473    0.9572   -6.8370 S   0  0  0  0  0  0  0  0  0  0  0  0
    3.5738   -0.4778   -6.1443 C   0  0  0  0  0  0  0  0  0  0  0  0
    3.4891    1.7381   -7.6749 O   0  0  0  0  0  0  0  0  0  0  0  0
    1.9992    1.6226   -5.6038 O   0  0  0  0  0  0  0  0  0  0  0  0
    1.4535    0.2270   -7.6186 O   0  0  0  0  0  0  0  0  0  0  0  0
    4.1077   -1.2059   -7.1380 F   0  0  0  0  0  0  0  0  0  0  0  0
    4.5668   -0.0149   -5.3679 F   0  0  0  0  0  0  0  0  0  0  0  0
    2.7936   -1.2902   -5.3959 F   0  0  0  0  0  0  0  0  0  0  0  0
   -3.1710   -1.7183   -4.4472 H   0  0  0  0  0  0  0  0  0  0  0  0
  1  6  1  0  0  0  0
  2  1  2  0  0  0  0
  2  3  1  0  0  0  0
  3  4  2  0  0  0  0
  4  5  1  0  0  0  0
  4  9  1  0  0  0  0
  5 10  1  0  0  0  0
  6 21  1  0  0  0  0
  6  5  2  0  0  0  0
  7  1  1  0  0  0  0
  8  2  1  0  0  0  0
 12 11  3  0  0  0  0
 13 14  1  0  0  0  0
 13 16  1  0  0  0  0
 14 20  1  0  0  0  0
 14 19  1  0  0  0  0
 15 13  2  0  0  0  0
 17 13  2  0  0  0  0
 18 14  1  0  0  0  0
M  RAD  2   3   2  16   2
M  END
