Coordinates from ORCA-job Ph-N2-OTf-B3LYPG-aug-cc-pVDZ-scan-d09-29-n200
 OpenBabel01151817073D

 21 20  0  0  0  0  0  0  0  0999 V2000
   -1.5033   -1.0037   -5.5737 C   0  0  0  0  0  0  0  0  0  0  0  0
   -0.7971    0.0706   -6.1198 C   0  0  0  0  0  0  0  0  0  0  0  0
   -1.1078    1.3099   -5.5822 C   0  0  0  0  0  0  0  0  0  0  0  0
   -2.0198    1.5904   -4.5692 C   0  0  0  0  0  0  0  0  0  0  0  0
   -2.6967    0.4854   -4.0510 C   0  0  0  0  0  0  0  0  0  0  0  0
   -2.4399   -0.7978   -4.5530 C   0  0  0  0  0  0  0  0  0  0  0  0
   -1.3027   -2.0083   -5.9428 H   0  0  0  0  0  0  0  0  0  0  0  0
   -0.0222   -0.0148   -6.8837 H   0  0  0  0  0  0  0  0  0  0  0  0
   -2.1859    2.6000   -4.2013 H   0  0  0  0  0  0  0  0  0  0  0  0
   -3.4216    0.6313   -3.2515 H   0  0  0  0  0  0  0  0  0  0  0  0
   -0.4057    2.5367   -6.1761 N   0  0  0  0  0  0  0  0  0  0  0  0
   -0.0777    3.5030   -6.6007 N   0  0  0  0  0  0  0  0  0  0  0  0
    2.5803    1.2734   -6.5544 S   0  0  0  0  0  0  0  0  0  0  0  0
    3.2543   -0.4616   -6.1850 C   0  0  0  0  0  0  0  0  0  0  0  0
    3.7809    2.0763   -6.8969 O   0  0  0  0  0  0  0  0  0  0  0  0
    1.8702    1.6446   -5.2686 O   0  0  0  0  0  0  0  0  0  0  0  0
    1.5953    1.0276   -7.6799 O   0  0  0  0  0  0  0  0  0  0  0  0
    3.9083   -0.9570   -7.2477 F   0  0  0  0  0  0  0  0  0  0  0  0
    4.0916   -0.4391   -5.1362 F   0  0  0  0  0  0  0  0  0  0  0  0
    2.2351   -1.3095   -5.8893 F   0  0  0  0  0  0  0  0  0  0  0  0
   -2.9741   -1.6506   -4.1343 H   0  0  0  0  0  0  0  0  0  0  0  0
  1  6  2  0  0  0  0
  2  3  2  0  0  0  0
  2  1  1  0  0  0  0
  3  4  1  0  0  0  0
  4  9  1  0  0  0  0
  4  5  2  0  0  0  0
  5 10  1  0  0  0  0
  6 21  1  0  0  0  0
  6  5  1  0  0  0  0
  7  1  1  0  0  0  0
  8  2  1  0  0  0  0
 11  3  1  0  0  0  0
 12 11  1  0  0  0  0
 13 14  1  0  0  0  0
 13 16  1  0  0  0  0
 14 20  1  0  0  0  0
 14 19  1  0  0  0  0
 15 13  2  0  0  0  0
 17 13  2  0  0  0  0
 18 14  1  0  0  0  0
M  RAD  3  11   2  12   3  16   2
M  END
