Coordinates from ORCA-job Ph-N2-OTf-B3LYPG-aug-cc-pVDZ-scan-d09-29-n200
 OpenBabel01151817073D

 21 19  0  0  0  0  0  0  0  0999 V2000
   -1.5307   -0.9147   -5.6311 C   0  0  0  0  0  0  0  0  0  0  0  0
   -0.7779    0.2404   -5.9993 C   0  0  0  0  0  0  0  0  0  0  0  0
   -1.2716    1.2694   -5.3269 C   0  0  0  0  0  0  0  0  0  0  0  0
   -2.2331    1.5679   -4.4204 C   0  0  0  0  0  0  0  0  0  0  0  0
   -2.9305    0.3764   -4.1068 C   0  0  0  0  0  0  0  0  0  0  0  0
   -2.5785   -0.8384   -4.7087 C   0  0  0  0  0  0  0  0  0  0  0  0
   -1.2419   -1.8610   -6.0899 H   0  0  0  0  0  0  0  0  0  0  0  0
    0.1222    0.2097   -6.7052 H   0  0  0  0  0  0  0  0  0  0  0  0
   -2.4572    2.5375   -3.9886 H   0  0  0  0  0  0  0  0  0  0  0  0
   -3.7455    0.4388   -3.3854 H   0  0  0  0  0  0  0  0  0  0  0  0
   -0.2979    3.1549   -5.8537 N   0  0  0  0  0  0  0  0  0  0  0  0
    0.0599    4.1644   -6.1152 N   0  0  0  0  0  0  0  0  0  0  0  0
    2.5500    0.9620   -6.8363 S   0  0  0  0  0  0  0  0  0  0  0  0
    3.5358   -0.4936   -6.1276 C   0  0  0  0  0  0  0  0  0  0  0  0
    3.5123    1.7065   -7.6829 O   0  0  0  0  0  0  0  0  0  0  0  0
    2.0123    1.6526   -5.6148 O   0  0  0  0  0  0  0  0  0  0  0  0
    1.4405    0.2483   -7.6177 O   0  0  0  0  0  0  0  0  0  0  0  0
    4.0538   -1.2446   -7.1125 F   0  0  0  0  0  0  0  0  0  0  0  0
    4.5373   -0.0498   -5.3514 F   0  0  0  0  0  0  0  0  0  0  0  0
    2.7311   -1.2781   -5.3751 F   0  0  0  0  0  0  0  0  0  0  0  0
   -3.1288   -1.7418   -4.4480 H   0  0  0  0  0  0  0  0  0  0  0  0
  1  6  1  0  0  0  0
  2  1  2  0  0  0  0
  2  3  1  0  0  0  0
  3  4  2  0  0  0  0
  4  5  1  0  0  0  0
  4  9  1  0  0  0  0
  5 10  1  0  0  0  0
  6 21  1  0  0  0  0
  6  5  2  0  0  0  0
  7  1  1  0  0  0  0
  8  2  1  0  0  0  0
 12 11  3  0  0  0  0
 13 14  1  0  0  0  0
 13 16  1  0  0  0  0
 14 20  1  0  0  0  0
 14 19  1  0  0  0  0
 15 13  2  0  0  0  0
 17 13  2  0  0  0  0
 18 14  1  0  0  0  0
M  RAD  2   3   2  16   2
M  END
