Coordinates from ORCA-job Ph-N2-OTf-B3LYPG-aug-cc-pVDZ-scan-d29-49-n200
 OpenBabel01151817073D

 21 19  0  0  0  0  0  0  0  0999 V2000
   -1.6390   -0.9540   -5.7445 C   0  0  0  0  0  0  0  0  0  0  0  0
   -0.8630    0.2326   -5.7905 C   0  0  0  0  0  0  0  0  0  0  0  0
   -1.3426    1.2017   -5.1332 C   0  0  0  0  0  0  0  0  0  0  0  0
   -2.4302    1.4869   -4.3598 C   0  0  0  0  0  0  0  0  0  0  0  0
   -3.2076    0.2997   -4.3129 C   0  0  0  0  0  0  0  0  0  0  0  0
   -2.8205   -0.8754   -4.9837 C   0  0  0  0  0  0  0  0  0  0  0  0
   -1.3547   -1.8705   -6.2611 H   0  0  0  0  0  0  0  0  0  0  0  0
    0.6726    0.2472   -6.8348 H   0  0  0  0  0  0  0  0  0  0  0  0
   -2.6942    2.4122   -3.8575 H   0  0  0  0  0  0  0  0  0  0  0  0
   -4.1320    0.3168   -3.7331 H   0  0  0  0  0  0  0  0  0  0  0  0
   -0.1163    3.8832   -5.0344 N   0  0  0  0  0  0  0  0  0  0  0  0
    0.5646    4.7495   -5.0988 N   0  0  0  0  0  0  0  0  0  0  0  0
    2.7706    0.8555   -7.0372 S   0  0  0  0  0  0  0  0  0  0  0  0
    3.5910   -0.5610   -6.0748 C   0  0  0  0  0  0  0  0  0  0  0  0
    3.5878    1.0827   -8.2362 O   0  0  0  0  0  0  0  0  0  0  0  0
    2.4723    1.9140   -6.0528 O   0  0  0  0  0  0  0  0  0  0  0  0
    1.4078    0.1083   -7.5087 O   0  0  0  0  0  0  0  0  0  0  0  0
    3.8150   -1.5981   -6.8857 F   0  0  0  0  0  0  0  0  0  0  0  0
    4.7510   -0.1234   -5.5755 F   0  0  0  0  0  0  0  0  0  0  0  0
    2.7902   -0.9455   -5.0709 F   0  0  0  0  0  0  0  0  0  0  0  0
   -3.4611   -1.7557   -4.9112 H   0  0  0  0  0  0  0  0  0  0  0  0
  1  6  1  0  0  0  0
  2  1  2  0  0  0  0
  2  3  1  0  0  0  0
  3  4  2  0  0  0  0
  4  5  1  0  0  0  0
  4  9  1  0  0  0  0
  5 10  1  0  0  0  0
  6 21  1  0  0  0  0
  6  5  2  0  0  0  0
  7  1  1  0  0  0  0
 12 11  3  0  0  0  0
 13 14  1  0  0  0  0
 13 16  2  0  0  0  0
 14 19  1  0  0  0  0
 14 20  1  0  0  0  0
 15 13  2  0  0  0  0
 17 13  1  0  0  0  0
 17  8  1  0  0  0  0
 18 14  1  0  0  0  0
M  RAD  2   2   2   3   2
M  END
