Coordinates from ORCA-job Ph-N2-OTf-B3LYPG-aug-cc-pVDZ-scan-d09-29-n200
 OpenBabel01151817073D

 21 19  0  0  0  0  0  0  0  0999 V2000
   -1.6486   -0.9283   -5.6113 C   0  0  0  0  0  0  0  0  0  0  0  0
   -0.8219    0.1609   -5.9759 C   0  0  0  0  0  0  0  0  0  0  0  0
   -1.2246    1.2772   -5.3365 C   0  0  0  0  0  0  0  0  0  0  0  0
   -2.2015    1.6006   -4.4393 C   0  0  0  0  0  0  0  0  0  0  0  0
   -2.9785    0.4697   -4.1193 C   0  0  0  0  0  0  0  0  0  0  0  0
   -2.7004   -0.7726   -4.7025 C   0  0  0  0  0  0  0  0  0  0  0  0
   -1.4290   -1.8991   -6.0555 H   0  0  0  0  0  0  0  0  0  0  0  0
    0.0497    0.0846   -6.6657 H   0  0  0  0  0  0  0  0  0  0  0  0
   -2.3718    2.5851   -4.0152 H   0  0  0  0  0  0  0  0  0  0  0  0
   -3.7958    0.5884   -3.4084 H   0  0  0  0  0  0  0  0  0  0  0  0
   -0.2181    2.8507   -5.8024 N   0  0  0  0  0  0  0  0  0  0  0  0
    0.0725    3.8887   -6.0377 N   0  0  0  0  0  0  0  0  0  0  0  0
    2.5352    0.9498   -6.8411 S   0  0  0  0  0  0  0  0  0  0  0  0
    3.6766   -0.4105   -6.1764 C   0  0  0  0  0  0  0  0  0  0  0  0
    3.4205    1.8583   -7.6119 O   0  0  0  0  0  0  0  0  0  0  0  0
    1.9252    1.5208   -5.5780 O   0  0  0  0  0  0  0  0  0  0  0  0
    1.5183    0.1713   -7.6569 O   0  0  0  0  0  0  0  0  0  0  0  0
    4.2848   -1.0530   -7.1868 F   0  0  0  0  0  0  0  0  0  0  0  0
    4.6167    0.1120   -5.3716 F   0  0  0  0  0  0  0  0  0  0  0  0
    2.9650   -1.3136   -5.4668 F   0  0  0  0  0  0  0  0  0  0  0  0
   -3.3124   -1.6344   -4.4379 H   0  0  0  0  0  0  0  0  0  0  0  0
  1  6  1  0  0  0  0
  2  1  2  0  0  0  0
  2  3  1  0  0  0  0
  3  4  2  0  0  0  0
  4  5  1  0  0  0  0
  4  9  1  0  0  0  0
  5 10  1  0  0  0  0
  6 21  1  0  0  0  0
  6  5  2  0  0  0  0
  7  1  1  0  0  0  0
  8  2  1  0  0  0  0
 12 11  3  0  0  0  0
 13 14  1  0  0  0  0
 13 16  1  0  0  0  0
 14 20  1  0  0  0  0
 14 19  1  0  0  0  0
 15 13  2  0  0  0  0
 17 13  2  0  0  0  0
 18 14  1  0  0  0  0
M  RAD  2   3   2  16   2
M  END
