Coordinates from ORCA-job Ph-N2-OTf-B3LYPG-aug-cc-pVDZ-scan-d09-29-n200
 OpenBabel01151817073D

 21 19  0  0  0  0  0  0  0  0999 V2000
   -1.6117   -0.9614   -5.7389 C   0  0  0  0  0  0  0  0  0  0  0  0
   -0.8936    0.2540   -5.8792 C   0  0  0  0  0  0  0  0  0  0  0  0
   -1.3258    1.2056   -5.1654 C   0  0  0  0  0  0  0  0  0  0  0  0
   -2.3028    1.4419   -4.2433 C   0  0  0  0  0  0  0  0  0  0  0  0
   -3.0216    0.2261   -4.1018 C   0  0  0  0  0  0  0  0  0  0  0  0
   -2.6835   -0.9316   -4.8270 C   0  0  0  0  0  0  0  0  0  0  0  0
   -1.3581   -1.8672   -6.2892 H   0  0  0  0  0  0  0  0  0  0  0  0
    0.6366    0.2145   -6.9179 H   0  0  0  0  0  0  0  0  0  0  0  0
   -2.5343    2.3562   -3.7062 H   0  0  0  0  0  0  0  0  0  0  0  0
   -3.8635    0.2075   -3.4074 H   0  0  0  0  0  0  0  0  0  0  0  0
   -0.4065    3.7865   -5.3936 N   0  0  0  0  0  0  0  0  0  0  0  0
    0.2239    4.6012   -5.7900 N   0  0  0  0  0  0  0  0  0  0  0  0
    2.7261    0.8452   -7.1563 S   0  0  0  0  0  0  0  0  0  0  0  0
    3.5310   -0.3823   -5.9514 C   0  0  0  0  0  0  0  0  0  0  0  0
    3.5844    0.8961   -8.3469 O   0  0  0  0  0  0  0  0  0  0  0  0
    2.3766    2.0413   -6.3645 O   0  0  0  0  0  0  0  0  0  0  0  0
    1.3934    0.0057   -7.5503 O   0  0  0  0  0  0  0  0  0  0  0  0
    3.8009   -1.5306   -6.5773 F   0  0  0  0  0  0  0  0  0  0  0  0
    4.6647    0.1534   -5.4885 F   0  0  0  0  0  0  0  0  0  0  0  0
    2.6990   -0.6184   -4.9270 F   0  0  0  0  0  0  0  0  0  0  0  0
   -3.2735   -1.8368   -4.6752 H   0  0  0  0  0  0  0  0  0  0  0  0
  1  6  1  0  0  0  0
  2  1  2  0  0  0  0
  2  3  1  0  0  0  0
  3  4  2  0  0  0  0
  4  5  1  0  0  0  0
  4  9  1  0  0  0  0
  5 10  1  0  0  0  0
  6 21  1  0  0  0  0
  6  5  2  0  0  0  0
  7  1  1  0  0  0  0
 12 11  3  0  0  0  0
 13 16  2  0  0  0  0
 13 14  1  0  0  0  0
 14 19  1  0  0  0  0
 14 20  1  0  0  0  0
 15 13  2  0  0  0  0
 17 13  1  0  0  0  0
 17  8  1  0  0  0  0
 18 14  1  0  0  0  0
M  RAD  2   2   2   3   2
M  END
