Coordinates from ORCA-job Ph-N2-OTf-B3LYPG-aug-cc-pVDZ-scan-d09-29-n200
 OpenBabel01151817073D

 21 19  0  0  0  0  0  0  0  0999 V2000
   -1.4984   -0.9327   -5.6509 C   0  0  0  0  0  0  0  0  0  0  0  0
   -0.7629    0.2435   -6.0085 C   0  0  0  0  0  0  0  0  0  0  0  0
   -1.2794    1.2323   -5.3168 C   0  0  0  0  0  0  0  0  0  0  0  0
   -2.2273    1.5364   -4.4065 C   0  0  0  0  0  0  0  0  0  0  0  0
   -2.9060    0.3260   -4.1033 C   0  0  0  0  0  0  0  0  0  0  0  0
   -2.5416   -0.8777   -4.7209 C   0  0  0  0  0  0  0  0  0  0  0  0
   -1.1972   -1.8692   -6.1221 H   0  0  0  0  0  0  0  0  0  0  0  0
    0.1590    0.2302   -6.7272 H   0  0  0  0  0  0  0  0  0  0  0  0
   -2.4618    2.4993   -3.9660 H   0  0  0  0  0  0  0  0  0  0  0  0
   -3.7186    0.3706   -3.3773 H   0  0  0  0  0  0  0  0  0  0  0  0
   -0.3140    3.3790   -5.8687 N   0  0  0  0  0  0  0  0  0  0  0  0
    0.0968    4.3722   -6.1157 N   0  0  0  0  0  0  0  0  0  0  0  0
    2.5485    0.9549   -6.8523 S   0  0  0  0  0  0  0  0  0  0  0  0
    3.4757   -0.5120   -6.0899 C   0  0  0  0  0  0  0  0  0  0  0  0
    3.5250    1.6073   -7.7543 O   0  0  0  0  0  0  0  0  0  0  0  0
    2.0481    1.7233   -5.6676 O   0  0  0  0  0  0  0  0  0  0  0  0
    1.4001    0.2444   -7.5966 O   0  0  0  0  0  0  0  0  0  0  0  0
    3.9509   -1.3254   -7.0455 F   0  0  0  0  0  0  0  0  0  0  0  0
    4.5012   -0.0788   -5.3408 F   0  0  0  0  0  0  0  0  0  0  0  0
    2.6426   -1.2262   -5.2997 F   0  0  0  0  0  0  0  0  0  0  0  0
   -3.0791   -1.7906   -4.4665 H   0  0  0  0  0  0  0  0  0  0  0  0
  1  6  1  0  0  0  0
  2  1  2  0  0  0  0
  2  3  1  0  0  0  0
  3  4  2  0  0  0  0
  4  5  1  0  0  0  0
  4  9  1  0  0  0  0
  5 10  1  0  0  0  0
  6 21  1  0  0  0  0
  6  5  2  0  0  0  0
  7  1  1  0  0  0  0
  8  2  1  0  0  0  0
 12 11  3  0  0  0  0
 13 14  1  0  0  0  0
 13 16  1  0  0  0  0
 14 19  1  0  0  0  0
 14 20  1  0  0  0  0
 15 13  2  0  0  0  0
 17 13  2  0  0  0  0
 18 14  1  0  0  0  0
M  RAD  2   3   2  16   2
M  END
