Coordinates from ORCA-job Ph-N2-OTf-B3LYPG-aug-cc-pVDZ-scan-d09-29-n200
 OpenBabel01151817073D

 21 19  0  0  0  0  0  0  0  0999 V2000
   -1.6103   -0.9911   -5.7108 C   0  0  0  0  0  0  0  0  0  0  0  0
   -0.8856    0.2208   -5.8556 C   0  0  0  0  0  0  0  0  0  0  0  0
   -1.3303    1.1817   -5.1610 C   0  0  0  0  0  0  0  0  0  0  0  0
   -2.3267    1.4356   -4.2640 C   0  0  0  0  0  0  0  0  0  0  0  0
   -3.0499    0.2224   -4.1188 C   0  0  0  0  0  0  0  0  0  0  0  0
   -2.6993   -0.9460   -4.8204 C   0  0  0  0  0  0  0  0  0  0  0  0
   -1.3495   -1.9050   -6.2442 H   0  0  0  0  0  0  0  0  0  0  0  0
    0.6407    0.1947   -6.9085 H   0  0  0  0  0  0  0  0  0  0  0  0
   -2.5666    2.3580   -3.7449 H   0  0  0  0  0  0  0  0  0  0  0  0
   -3.9044    0.2148   -3.4398 H   0  0  0  0  0  0  0  0  0  0  0  0
   -0.3623    3.8767   -5.3503 N   0  0  0  0  0  0  0  0  0  0  0  0
    0.2743    4.6855   -5.7488 N   0  0  0  0  0  0  0  0  0  0  0  0
    2.7228    0.8410   -7.1672 S   0  0  0  0  0  0  0  0  0  0  0  0
    3.5457   -0.3784   -5.9663 C   0  0  0  0  0  0  0  0  0  0  0  0
    3.5699    0.8935   -8.3657 O   0  0  0  0  0  0  0  0  0  0  0  0
    2.3732    2.0367   -6.3756 O   0  0  0  0  0  0  0  0  0  0  0  0
    1.3922   -0.0077   -7.5482 O   0  0  0  0  0  0  0  0  0  0  0  0
    3.8178   -1.5265   -6.5917 F   0  0  0  0  0  0  0  0  0  0  0  0
    4.6798    0.1656   -5.5141 F   0  0  0  0  0  0  0  0  0  0  0  0
    2.7237   -0.6173   -4.9345 F   0  0  0  0  0  0  0  0  0  0  0  0
   -3.2936   -1.8480   -4.6670 H   0  0  0  0  0  0  0  0  0  0  0  0
  1  6  1  0  0  0  0
  2  1  2  0  0  0  0
  2  3  1  0  0  0  0
  3  4  2  0  0  0  0
  4  5  1  0  0  0  0
  4  9  1  0  0  0  0
  5 10  1  0  0  0  0
  6 21  1  0  0  0  0
  6  5  2  0  0  0  0
  7  1  1  0  0  0  0
 12 11  3  0  0  0  0
 13 16  2  0  0  0  0
 13 14  1  0  0  0  0
 14 19  1  0  0  0  0
 14 20  1  0  0  0  0
 15 13  2  0  0  0  0
 17 13  1  0  0  0  0
 17  8  1  0  0  0  0
 18 14  1  0  0  0  0
M  RAD  2   2   2   3   2
M  END
