Coordinates from ORCA-job Ph-N2-OTf-B3LYPG-aug-cc-pVDZ-scan-d29-49-n200
 OpenBabel01151817073D

 21 19  0  0  0  0  0  0  0  0999 V2000
   -1.7456   -1.0617   -5.8205 C   0  0  0  0  0  0  0  0  0  0  0  0
   -0.9155    0.0851   -5.8682 C   0  0  0  0  0  0  0  0  0  0  0  0
   -1.3134    1.0713   -5.1859 C   0  0  0  0  0  0  0  0  0  0  0  0
   -2.3567    1.3992   -4.3678 C   0  0  0  0  0  0  0  0  0  0  0  0
   -3.1931    0.2524   -4.3138 C   0  0  0  0  0  0  0  0  0  0  0  0
   -2.8938   -0.9302   -5.0160 C   0  0  0  0  0  0  0  0  0  0  0  0
   -1.5277   -1.9834   -6.3592 H   0  0  0  0  0  0  0  0  0  0  0  0
    0.6576    0.0880   -6.9027 H   0  0  0  0  0  0  0  0  0  0  0  0
   -2.5550    2.3278   -3.8418 H   0  0  0  0  0  0  0  0  0  0  0  0
   -4.0957    0.3077   -3.7027 H   0  0  0  0  0  0  0  0  0  0  0  0
    0.0988    4.2895   -4.8228 N   0  0  0  0  0  0  0  0  0  0  0  0
    0.8137    5.1258   -4.9123 N   0  0  0  0  0  0  0  0  0  0  0  0
    2.7164    0.8045   -7.1202 S   0  0  0  0  0  0  0  0  0  0  0  0
    3.5851   -0.4619   -6.0028 C   0  0  0  0  0  0  0  0  0  0  0  0
    3.5526    0.9592   -8.3174 O   0  0  0  0  0  0  0  0  0  0  0  0
    2.3310    1.9348   -6.2533 O   0  0  0  0  0  0  0  0  0  0  0  0
    1.4108   -0.0647   -7.5483 O   0  0  0  0  0  0  0  0  0  0  0  0
    3.8912   -1.5575   -6.7018 F   0  0  0  0  0  0  0  0  0  0  0  0
    4.7028    0.0897   -5.5205 F   0  0  0  0  0  0  0  0  0  0  0  0
    2.7765   -0.7930   -4.9863 F   0  0  0  0  0  0  0  0  0  0  0  0
   -3.5783   -1.7759   -4.9329 H   0  0  0  0  0  0  0  0  0  0  0  0
  1  6  1  0  0  0  0
  2  1  2  0  0  0  0
  2  3  1  0  0  0  0
  3  4  2  0  0  0  0
  4  5  1  0  0  0  0
  4  9  1  0  0  0  0
  5 10  1  0  0  0  0
  6 21  1  0  0  0  0
  6  5  2  0  0  0  0
  7  1  1  0  0  0  0
 12 11  3  0  0  0  0
 13 16  2  0  0  0  0
 13 14  1  0  0  0  0
 14 19  1  0  0  0  0
 14 20  1  0  0  0  0
 15 13  2  0  0  0  0
 17 13  1  0  0  0  0
 17  8  1  0  0  0  0
 18 14  1  0  0  0  0
M  RAD  2   2   2   3   2
M  END
