Coordinates from ORCA-job Ph-N2-OTf-B3LYPG-aug-cc-pVDZ-scan-d09-29-n200
 OpenBabel01151817073D

 21 20  0  0  0  0  0  0  0  0999 V2000
   -1.5293   -1.0116   -5.6041 C   0  0  0  0  0  0  0  0  0  0  0  0
   -0.8057    0.0650   -6.1364 C   0  0  0  0  0  0  0  0  0  0  0  0
   -1.1147    1.2670   -5.5524 C   0  0  0  0  0  0  0  0  0  0  0  0
   -1.9939    1.5733   -4.5352 C   0  0  0  0  0  0  0  0  0  0  0  0
   -2.6851    0.4605   -4.0379 C   0  0  0  0  0  0  0  0  0  0  0  0
   -2.4537   -0.8138   -4.5711 C   0  0  0  0  0  0  0  0  0  0  0  0
   -1.3464   -2.0098   -5.9996 H   0  0  0  0  0  0  0  0  0  0  0  0
   -0.0341   -0.0087   -6.9074 H   0  0  0  0  0  0  0  0  0  0  0  0
   -2.1353    2.5776   -4.1457 H   0  0  0  0  0  0  0  0  0  0  0  0
   -3.4003    0.6029   -3.2288 H   0  0  0  0  0  0  0  0  0  0  0  0
   -0.3250    2.6223   -6.1918 N   0  0  0  0  0  0  0  0  0  0  0  0
   -0.0726    3.6130   -6.6084 N   0  0  0  0  0  0  0  0  0  0  0  0
    2.5622    1.2569   -6.5893 S   0  0  0  0  0  0  0  0  0  0  0  0
    3.2563   -0.4522   -6.1440 C   0  0  0  0  0  0  0  0  0  0  0  0
    3.7512    2.0603   -6.9679 O   0  0  0  0  0  0  0  0  0  0  0  0
    1.8513    1.6756   -5.3165 O   0  0  0  0  0  0  0  0  0  0  0  0
    1.5775    0.9502   -7.6992 O   0  0  0  0  0  0  0  0  0  0  0  0
    3.9142   -0.9854   -7.1857 F   0  0  0  0  0  0  0  0  0  0  0  0
    4.0953   -0.3726   -5.0994 F   0  0  0  0  0  0  0  0  0  0  0  0
    2.2474   -1.2963   -5.8092 F   0  0  0  0  0  0  0  0  0  0  0  0
   -2.9977   -1.6672   -4.1672 H   0  0  0  0  0  0  0  0  0  0  0  0
  1  6  1  0  0  0  0
  2  1  2  0  0  0  0
  2  3  1  0  0  0  0
  3  4  2  0  0  0  0
  4  9  1  0  0  0  0
  4  5  1  0  0  0  0
  5 10  1  0  0  0  0
  6 21  1  0  0  0  0
  6  5  2  0  0  0  0
  7  1  1  0  0  0  0
  8  2  1  0  0  0  0
 11  3  1  0  0  0  0
 12 11  1  0  0  0  0
 13 14  1  0  0  0  0
 13 16  1  0  0  0  0
 14 20  1  0  0  0  0
 14 19  1  0  0  0  0
 15 13  2  0  0  0  0
 17 13  2  0  0  0  0
 18 14  1  0  0  0  0
M  RAD  3  11   2  12   3  16   2
M  END
