Coordinates from ORCA-job Ph-N2-OTf-B3LYPG-aug-cc-pVDZ-scan-d09-29-n200
 OpenBabel01151817073D

 21 19  0  0  0  0  0  0  0  0999 V2000
   -1.4980   -0.9500   -5.6866 C   0  0  0  0  0  0  0  0  0  0  0  0
   -0.7545    0.2375   -6.0058 C   0  0  0  0  0  0  0  0  0  0  0  0
   -1.2674    1.1953   -5.2889 C   0  0  0  0  0  0  0  0  0  0  0  0
   -2.2088    1.4937   -4.3699 C   0  0  0  0  0  0  0  0  0  0  0  0
   -2.8965    0.2788   -4.1034 C   0  0  0  0  0  0  0  0  0  0  0  0
   -2.5410   -0.9106   -4.7555 C   0  0  0  0  0  0  0  0  0  0  0  0
   -1.2041   -1.8751   -6.1842 H   0  0  0  0  0  0  0  0  0  0  0  0
    0.2077    0.2181   -6.7439 H   0  0  0  0  0  0  0  0  0  0  0  0
   -2.4347    2.4477   -3.9057 H   0  0  0  0  0  0  0  0  0  0  0  0
   -3.7102    0.3087   -3.3777 H   0  0  0  0  0  0  0  0  0  0  0  0
   -0.2985    3.6086   -5.8425 N   0  0  0  0  0  0  0  0  0  0  0  0
    0.1515    4.5838   -6.0943 N   0  0  0  0  0  0  0  0  0  0  0  0
    2.5348    0.9242   -6.8902 S   0  0  0  0  0  0  0  0  0  0  0  0
    3.4501   -0.5021   -6.0415 C   0  0  0  0  0  0  0  0  0  0  0  0
    3.4910    1.4751   -7.8747 O   0  0  0  0  0  0  0  0  0  0  0  0
    2.0662    1.7868   -5.7646 O   0  0  0  0  0  0  0  0  0  0  0  0
    1.3533    0.1718   -7.5612 O   0  0  0  0  0  0  0  0  0  0  0  0
    3.8882   -1.3912   -6.9448 F   0  0  0  0  0  0  0  0  0  0  0  0
    4.4982   -0.0315   -5.3501 F   0  0  0  0  0  0  0  0  0  0  0  0
    2.6209   -1.1367   -5.1845 F   0  0  0  0  0  0  0  0  0  0  0  0
   -3.0864   -1.8259   -4.5273 H   0  0  0  0  0  0  0  0  0  0  0  0
  1  6  1  0  0  0  0
  2  1  2  0  0  0  0
  2  3  1  0  0  0  0
  3  4  2  0  0  0  0
  4  5  1  0  0  0  0
  4  9  1  0  0  0  0
  5 10  1  0  0  0  0
  6 21  1  0  0  0  0
  6  5  2  0  0  0  0
  7  1  1  0  0  0  0
  8  2  1  0  0  0  0
 12 11  3  0  0  0  0
 13 14  1  0  0  0  0
 13 16  1  0  0  0  0
 14 19  1  0  0  0  0
 14 20  1  0  0  0  0
 15 13  2  0  0  0  0
 17 13  2  0  0  0  0
 18 14  1  0  0  0  0
M  RAD  2   3   2  16   2
M  END
