Coordinates from ORCA-job Ph-N2-OTf-B3LYPG-aug-cc-pVDZ-scan-d09-29-n200
 OpenBabel01151817073D

 21 20  0  0  0  0  0  0  0  0999 V2000
   -1.5329   -1.0090   -5.6049 C   0  0  0  0  0  0  0  0  0  0  0  0
   -0.8058    0.0695   -6.1331 C   0  0  0  0  0  0  0  0  0  0  0  0
   -1.1230    1.2620   -5.5415 C   0  0  0  0  0  0  0  0  0  0  0  0
   -2.0011    1.5746   -4.5289 C   0  0  0  0  0  0  0  0  0  0  0  0
   -2.6941    0.4581   -4.0380 C   0  0  0  0  0  0  0  0  0  0  0  0
   -2.4607   -0.8142   -4.5746 C   0  0  0  0  0  0  0  0  0  0  0  0
   -1.3481   -2.0056   -6.0035 H   0  0  0  0  0  0  0  0  0  0  0  0
   -0.0299   -0.0002   -6.9017 H   0  0  0  0  0  0  0  0  0  0  0  0
   -2.1431    2.5779   -4.1375 H   0  0  0  0  0  0  0  0  0  0  0  0
   -3.4120    0.5988   -3.2309 H   0  0  0  0  0  0  0  0  0  0  0  0
   -0.3175    2.6435   -6.1860 N   0  0  0  0  0  0  0  0  0  0  0  0
   -0.0769    3.6385   -6.5991 N   0  0  0  0  0  0  0  0  0  0  0  0
    2.5618    1.2455   -6.5991 S   0  0  0  0  0  0  0  0  0  0  0  0
    3.2704   -0.4546   -6.1426 C   0  0  0  0  0  0  0  0  0  0  0  0
    3.7425    2.0555   -6.9893 O   0  0  0  0  0  0  0  0  0  0  0  0
    1.8526    1.6672   -5.3264 O   0  0  0  0  0  0  0  0  0  0  0  0
    1.5757    0.9227   -7.7034 O   0  0  0  0  0  0  0  0  0  0  0  0
    3.9289   -0.9912   -7.1822 F   0  0  0  0  0  0  0  0  0  0  0  0
    4.1121   -0.3603   -5.1015 F   0  0  0  0  0  0  0  0  0  0  0  0
    2.2688   -1.3032   -5.7979 F   0  0  0  0  0  0  0  0  0  0  0  0
   -3.0061   -1.6688   -4.1753 H   0  0  0  0  0  0  0  0  0  0  0  0
  1  6  1  0  0  0  0
  2  1  2  0  0  0  0
  2  3  1  0  0  0  0
  3  4  2  0  0  0  0
  4  9  1  0  0  0  0
  4  5  1  0  0  0  0
  5 10  1  0  0  0  0
  6 21  1  0  0  0  0
  6  5  2  0  0  0  0
  7  1  1  0  0  0  0
  8  2  1  0  0  0  0
 11  3  1  0  0  0  0
 12 11  1  0  0  0  0
 13 14  1  0  0  0  0
 13 16  1  0  0  0  0
 14 20  1  0  0  0  0
 14 19  1  0  0  0  0
 15 13  2  0  0  0  0
 17 13  2  0  0  0  0
 18 14  1  0  0  0  0
M  RAD  3  11   2  12   3  16   2
M  END
