Coordinates from ORCA-job p-CH3O-Ph-N2-X-Cl-B3LYPG-6-31G_dp-scan-d09-49-n400
 OpenBabel08281821033D

 18 18  0  0  0  0  0  0  0  0999 V2000
   -1.0020   -1.7131   -0.7165 C   0  0  0  0  0  0  0  0  0  0  0  0
    0.2775   -1.1782   -0.7139 C   0  0  0  0  0  0  0  0  0  0  0  0
    0.4804    0.1822   -0.3992 C   0  0  0  0  0  0  0  0  0  0  0  0
   -0.6353    0.9600   -0.0586 C   0  0  0  0  0  0  0  0  0  0  0  0
   -1.9267    0.4408   -0.0966 C   0  0  0  0  0  0  0  0  0  0  0  0
   -2.1160   -0.9075   -0.4290 C   0  0  0  0  0  0  0  0  0  0  0  0
   -1.1688   -2.7605   -0.9454 H   0  0  0  0  0  0  0  0  0  0  0  0
    1.1147   -1.8325   -0.9236 H   0  0  0  0  0  0  0  0  0  0  0  0
   -0.4685    1.9919    0.2334 H   0  0  0  0  0  0  0  0  0  0  0  0
   -2.7648    1.0795    0.1532 H   0  0  0  0  0  0  0  0  0  0  0  0
    1.7332    0.8490   -0.2271 N   0  0  0  0  0  0  0  0  0  0  0  0
    2.7127    0.7105   -1.0236 N   0  0  0  0  0  0  0  0  0  0  0  0
    2.7344   -0.0497   -2.1885 Cl  0  0  0  0  0  0  0  0  0  0  0  0
   -3.3243   -1.5304   -0.4852 O   0  0  0  0  0  0  0  0  0  0  0  0
   -4.4909   -0.7709   -0.2009 C   0  0  0  0  0  0  0  0  0  0  0  0
   -5.3312   -1.4561   -0.3200 H   0  0  0  0  0  0  0  0  0  0  0  0
   -4.6064    0.0678   -0.8989 H   0  0  0  0  0  0  0  0  0  0  0  0
   -4.4814   -0.3858    0.8262 H   0  0  0  0  0  0  0  0  0  0  0  0
  1  2  2  0  0  0  0
  1  6  1  0  0  0  0
  2  3  1  0  0  0  0
  3 11  1  0  0  0  0
  3  4  2  0  0  0  0
  4  9  1  0  0  0  0
  5  4  1  0  0  0  0
  5 10  1  0  0  0  0
  6  5  2  0  0  0  0
  7  1  1  0  0  0  0
  8  2  1  0  0  0  0
 12 11  2  0  0  0  0
 13 12  1  0  0  0  0
 14  6  1  0  0  0  0
 14 15  1  0  0  0  0
 15 18  1  0  0  0  0
 16 15  1  0  0  0  0
 17 15  1  0  0  0  0
M  END
