Coordinates from ORCA-job p-CH3O-Ph-N2-X-Cl-B3LYPG-6-31G_dp-scan-d09-49-n400
 OpenBabel08281821033D

 18 18  0  0  0  0  0  0  0  0999 V2000
   -1.0369   -1.6624   -0.8614 C   0  0  0  0  0  0  0  0  0  0  0  0
    0.2367   -1.1137   -0.9157 C   0  0  0  0  0  0  0  0  0  0  0  0
    0.4507    0.2478   -0.5670 C   0  0  0  0  0  0  0  0  0  0  0  0
   -0.6786    0.9915   -0.1658 C   0  0  0  0  0  0  0  0  0  0  0  0
   -1.9561    0.4504   -0.1155 C   0  0  0  0  0  0  0  0  0  0  0  0
   -2.1432   -0.8940   -0.4681 C   0  0  0  0  0  0  0  0  0  0  0  0
   -1.2021   -2.7015   -1.1267 H   0  0  0  0  0  0  0  0  0  0  0  0
    1.0468   -1.7556   -1.2239 H   0  0  0  0  0  0  0  0  0  0  0  0
   -0.5103    2.0275    0.1088 H   0  0  0  0  0  0  0  0  0  0  0  0
   -2.7872    1.0706    0.1973 H   0  0  0  0  0  0  0  0  0  0  0  0
    1.6200    1.0597   -0.5143 N   0  0  0  0  0  0  0  0  0  0  0  0
    2.7850    0.6865   -0.8959 N   0  0  0  0  0  0  0  0  0  0  0  0
    3.1853   -0.4349   -1.3948 Cl  0  0  0  0  0  0  0  0  0  0  0  0
   -3.3394   -1.5385   -0.4605 O   0  0  0  0  0  0  0  0  0  0  0  0
   -4.4988   -0.8118   -0.0749 C   0  0  0  0  0  0  0  0  0  0  0  0
   -5.3311   -1.5127   -0.1528 H   0  0  0  0  0  0  0  0  0  0  0  0
   -4.6799    0.0404   -0.7415 H   0  0  0  0  0  0  0  0  0  0  0  0
   -4.4241   -0.4522    0.9585 H   0  0  0  0  0  0  0  0  0  0  0  0
  1  6  1  0  0  0  0
  2  1  2  0  0  0  0
  2  3  1  0  0  0  0
  3 11  1  0  0  0  0
  3  4  2  0  0  0  0
  4  5  1  0  0  0  0
  4  9  1  0  0  0  0
  5 10  1  0  0  0  0
  6 14  1  0  0  0  0
  6  5  2  0  0  0  0
  7  1  1  0  0  0  0
  8  2  1  0  0  0  0
 12 11  2  0  0  0  0
 13 12  1  0  0  0  0
 14 15  1  0  0  0  0
 15 18  1  0  0  0  0
 16 15  1  0  0  0  0
 17 15  1  0  0  0  0
M  END
