Coordinates from ORCA-job p-CH3O-Ph-N2-X-Cl-B3LYPG-6-31G_dp-scan-d09-49-n400
 OpenBabel08281821033D

 18 18  0  0  0  0  0  0  0  0999 V2000
   -1.0389   -1.6530   -0.8806 C   0  0  0  0  0  0  0  0  0  0  0  0
    0.2349   -1.0980   -0.9400 C   0  0  0  0  0  0  0  0  0  0  0  0
    0.4470    0.2622   -0.5866 C   0  0  0  0  0  0  0  0  0  0  0  0
   -0.6831    1.0029   -0.1798 C   0  0  0  0  0  0  0  0  0  0  0  0
   -1.9556    0.4515   -0.1196 C   0  0  0  0  0  0  0  0  0  0  0  0
   -2.1427   -0.8933   -0.4741 C   0  0  0  0  0  0  0  0  0  0  0  0
   -1.2008   -2.6912   -1.1520 H   0  0  0  0  0  0  0  0  0  0  0  0
    1.0530   -1.7270   -1.2613 H   0  0  0  0  0  0  0  0  0  0  0  0
   -0.5225    2.0415    0.0910 H   0  0  0  0  0  0  0  0  0  0  0  0
   -2.7875    1.0678    0.1997 H   0  0  0  0  0  0  0  0  0  0  0  0
    1.6275    1.0531   -0.5650 N   0  0  0  0  0  0  0  0  0  0  0  0
    2.7499    0.4726   -0.9274 N   0  0  0  0  0  0  0  0  0  0  0  0
    3.2169   -0.2977   -1.2294 Cl  0  0  0  0  0  0  0  0  0  0  0  0
   -3.3421   -1.5426   -0.4571 O   0  0  0  0  0  0  0  0  0  0  0  0
   -4.4947   -0.8167   -0.0585 C   0  0  0  0  0  0  0  0  0  0  0  0
   -5.3296   -1.5160   -0.1272 H   0  0  0  0  0  0  0  0  0  0  0  0
   -4.6847    0.0375   -0.7209 H   0  0  0  0  0  0  0  0  0  0  0  0
   -4.4103   -0.4567    0.9747 H   0  0  0  0  0  0  0  0  0  0  0  0
  1  6  1  0  0  0  0
  2  1  2  0  0  0  0
  2  3  1  0  0  0  0
  3 11  1  0  0  0  0
  3  4  2  0  0  0  0
  4  5  1  0  0  0  0
  4  9  1  0  0  0  0
  5 10  1  0  0  0  0
  6 14  1  0  0  0  0
  6  5  2  0  0  0  0
  7  1  1  0  0  0  0
  8  2  1  0  0  0  0
 12 11  2  0  0  0  0
 13 12  1  0  0  0  0
 14 15  1  0  0  0  0
 15 18  1  0  0  0  0
 16 15  1  0  0  0  0
 17 15  1  0  0  0  0
M  END
