Coordinates from ORCA-job p-CH3O-Ph-N2-X-Cl-B3LYPG-6-31G_dp-scan-d09-49-n400
 OpenBabel08281821033D

 18 17  0  0  0  0  0  0  0  0999 V2000
   -1.0086   -1.5741   -0.9018 C   0  0  0  0  0  0  0  0  0  0  0  0
    0.2414   -0.9884   -0.9380 C   0  0  0  0  0  0  0  0  0  0  0  0
    0.3497    0.3569   -0.5325 C   0  0  0  0  0  0  0  0  0  0  0  0
   -0.7559    1.1000   -0.1011 C   0  0  0  0  0  0  0  0  0  0  0  0
   -2.0057    0.4993   -0.0695 C   0  0  0  0  0  0  0  0  0  0  0  0
   -2.1369   -0.8443   -0.4722 C   0  0  0  0  0  0  0  0  0  0  0  0
   -1.1481   -2.6061   -1.2039 H   0  0  0  0  0  0  0  0  0  0  0  0
    1.1378   -1.5156   -1.2635 H   0  0  0  0  0  0  0  0  0  0  0  0
   -0.6268    2.1328    0.2032 H   0  0  0  0  0  0  0  0  0  0  0  0
   -2.8630    1.0698    0.2630 H   0  0  0  0  0  0  0  0  0  0  0  0
    1.5911    0.9872   -0.5559 N   0  0  0  0  0  0  0  0  0  0  0  0
    2.7181    0.9529   -0.7688 N   0  0  0  0  0  0  0  0  0  0  0  0
    3.4829   -1.3405   -1.6232 Cl  0  0  0  0  0  0  0  0  0  0  0  0
   -3.3009   -1.5216   -0.4830 O   0  0  0  0  0  0  0  0  0  0  0  0
   -4.4973   -0.8638   -0.0677 C   0  0  0  0  0  0  0  0  0  0  0  0
   -5.2913   -1.6031   -0.1731 H   0  0  0  0  0  0  0  0  0  0  0  0
   -4.7174    0.0003   -0.7047 H   0  0  0  0  0  0  0  0  0  0  0  0
   -4.4327   -0.5446    0.9785 H   0  0  0  0  0  0  0  0  0  0  0  0
  1  6  1  0  0  0  0
  2  1  2  0  0  0  0
  2  3  1  0  0  0  0
  3  4  2  0  0  0  0
  4  5  1  0  0  0  0
  4  9  1  0  0  0  0
  5 10  1  0  0  0  0
  6  5  2  0  0  0  0
  7  1  1  0  0  0  0
  8  2  1  0  0  0  0
 11  3  1  0  0  0  0
 12 11  2  0  0  0  0
 14  6  1  0  0  0  0
 14 15  1  0  0  0  0
 15 18  1  0  0  0  0
 16 15  1  0  0  0  0
 17 15  1  0  0  0  0
M  RAD  2  12   2  13   2
M  END
