Coordinates from ORCA-job p-CH3O-Ph-N2-X-Cl-B3LYPG-6-31G_dp-scan-d09-49-n400
 OpenBabel08281821033D

 18 17  0  0  0  0  0  0  0  0999 V2000
   -0.9613   -1.5369   -0.9002 C   0  0  0  0  0  0  0  0  0  0  0  0
    0.2797   -0.9336   -0.9286 C   0  0  0  0  0  0  0  0  0  0  0  0
    0.3417    0.4164   -0.5127 C   0  0  0  0  0  0  0  0  0  0  0  0
   -0.7778    1.1510   -0.0823 C   0  0  0  0  0  0  0  0  0  0  0  0
   -2.0076    0.5214   -0.0642 C   0  0  0  0  0  0  0  0  0  0  0  0
   -2.1054   -0.8295   -0.4748 C   0  0  0  0  0  0  0  0  0  0  0  0
   -1.0772   -2.5706   -1.2069 H   0  0  0  0  0  0  0  0  0  0  0  0
    1.2094   -1.4449   -1.2546 H   0  0  0  0  0  0  0  0  0  0  0  0
   -0.6736    2.1851    0.2272 H   0  0  0  0  0  0  0  0  0  0  0  0
   -2.8810    1.0692    0.2637 H   0  0  0  0  0  0  0  0  0  0  0  0
    1.5732    1.0237   -0.5387 N   0  0  0  0  0  0  0  0  0  0  0  0
    2.6693    1.2561   -0.6597 N   0  0  0  0  0  0  0  0  0  0  0  0
    3.2406   -1.9160   -1.7615 Cl  0  0  0  0  0  0  0  0  0  0  0  0
   -3.2535   -1.5231   -0.4931 O   0  0  0  0  0  0  0  0  0  0  0  0
   -4.4706   -0.8963   -0.0814 C   0  0  0  0  0  0  0  0  0  0  0  0
   -5.2429   -1.6568   -0.1937 H   0  0  0  0  0  0  0  0  0  0  0  0
   -4.7085   -0.0377   -0.7186 H   0  0  0  0  0  0  0  0  0  0  0  0
   -4.4179   -0.5805    0.9660 H   0  0  0  0  0  0  0  0  0  0  0  0
  1  6  1  0  0  0  0
  2  1  2  0  0  0  0
  2  3  1  0  0  0  0
  3  4  2  0  0  0  0
  4  5  1  0  0  0  0
  4  9  1  0  0  0  0
  5 10  1  0  0  0  0
  6  5  2  0  0  0  0
  7  1  1  0  0  0  0
  8  2  1  0  0  0  0
 11  3  1  0  0  0  0
 12 11  1  0  0  0  0
 14  6  1  0  0  0  0
 14 15  1  0  0  0  0
 15 18  1  0  0  0  0
 16 15  1  0  0  0  0
 17 15  1  0  0  0  0
M  RAD  3  11   2  12   3  13   2
M  END
