Coordinates from ORCA-job p-CH3O-Ph-N2-X-Cl-B3LYPG-6-31G_dp-scan-d09-49-n400
 OpenBabel08281821033D

 18 18  0  0  0  0  0  0  0  0999 V2000
   -1.0375   -1.6197   -0.9130 C   0  0  0  0  0  0  0  0  0  0  0  0
    0.2267   -1.0603   -0.9607 C   0  0  0  0  0  0  0  0  0  0  0  0
    0.4017    0.2854   -0.5666 C   0  0  0  0  0  0  0  0  0  0  0  0
   -0.7079    1.0299   -0.1345 C   0  0  0  0  0  0  0  0  0  0  0  0
   -1.9766    0.4676   -0.0863 C   0  0  0  0  0  0  0  0  0  0  0  0
   -2.1471   -0.8695   -0.4792 C   0  0  0  0  0  0  0  0  0  0  0  0
   -1.2001   -2.6498   -1.2106 H   0  0  0  0  0  0  0  0  0  0  0  0
    1.0696   -1.6458   -1.2956 H   0  0  0  0  0  0  0  0  0  0  0  0
   -0.5500    2.0608    0.1631 H   0  0  0  0  0  0  0  0  0  0  0  0
   -2.8138    1.0653    0.2511 H   0  0  0  0  0  0  0  0  0  0  0  0
    1.6039    1.0073   -0.5540 N   0  0  0  0  0  0  0  0  0  0  0  0
    2.7641    0.8414   -0.8089 N   0  0  0  0  0  0  0  0  0  0  0  0
    3.3735   -0.8376   -1.4340 Cl  0  0  0  0  0  0  0  0  0  0  0  0
   -3.3299   -1.5253   -0.4784 O   0  0  0  0  0  0  0  0  0  0  0  0
   -4.5005   -0.8326   -0.0550 C   0  0  0  0  0  0  0  0  0  0  0  0
   -5.3183   -1.5479   -0.1475 H   0  0  0  0  0  0  0  0  0  0  0  0
   -4.7037    0.0358   -0.6926 H   0  0  0  0  0  0  0  0  0  0  0  0
   -4.4177   -0.5080    0.9888 H   0  0  0  0  0  0  0  0  0  0  0  0
  1  6  1  0  0  0  0
  2  1  2  0  0  0  0
  2  3  1  0  0  0  0
  3 11  1  0  0  0  0
  3  4  2  0  0  0  0
  4  5  1  0  0  0  0
  4  9  1  0  0  0  0
  5 10  1  0  0  0  0
  6 14  1  0  0  0  0
  6  5  2  0  0  0  0
  7  1  1  0  0  0  0
  8  2  1  0  0  0  0
 12 11  2  0  0  0  0
 13 12  1  0  0  0  0
 14 15  1  0  0  0  0
 15 18  1  0  0  0  0
 16 15  1  0  0  0  0
 17 15  1  0  0  0  0
M  END
