Coordinates from ORCA-job p-CH3O-Ph-N2-X-Cl-B3LYPG-6-31G_dp-scan-d09-49-n400
 OpenBabel08281821033D

 18 17  0  0  0  0  0  0  0  0999 V2000
   -0.9628   -1.5366   -0.8996 C   0  0  0  0  0  0  0  0  0  0  0  0
    0.2780   -0.9329   -0.9279 C   0  0  0  0  0  0  0  0  0  0  0  0
    0.3406    0.4165   -0.5124 C   0  0  0  0  0  0  0  0  0  0  0  0
   -0.7785    1.1506   -0.0822 C   0  0  0  0  0  0  0  0  0  0  0  0
   -2.0089    0.5214   -0.0639 C   0  0  0  0  0  0  0  0  0  0  0  0
   -2.1070   -0.8291   -0.4743 C   0  0  0  0  0  0  0  0  0  0  0  0
   -1.0788   -2.5703   -1.2063 H   0  0  0  0  0  0  0  0  0  0  0  0
    1.2063   -1.4443   -1.2537 H   0  0  0  0  0  0  0  0  0  0  0  0
   -0.6738    2.1848    0.2271 H   0  0  0  0  0  0  0  0  0  0  0  0
   -2.8822    1.0696    0.2641 H   0  0  0  0  0  0  0  0  0  0  0  0
    1.5735    1.0246   -0.5385 N   0  0  0  0  0  0  0  0  0  0  0  0
    2.6742    1.2333   -0.6679 N   0  0  0  0  0  0  0  0  0  0  0  0
    3.2562   -1.8975   -1.7590 Cl  0  0  0  0  0  0  0  0  0  0  0  0
   -3.2550   -1.5232   -0.4927 O   0  0  0  0  0  0  0  0  0  0  0  0
   -4.4719   -0.8961   -0.0812 C   0  0  0  0  0  0  0  0  0  0  0  0
   -5.2445   -1.6564   -0.1935 H   0  0  0  0  0  0  0  0  0  0  0  0
   -4.7096   -0.0374   -0.7184 H   0  0  0  0  0  0  0  0  0  0  0  0
   -4.4192   -0.5801    0.9662 H   0  0  0  0  0  0  0  0  0  0  0  0
  1  6  1  0  0  0  0
  2  1  2  0  0  0  0
  2  3  1  0  0  0  0
  3  4  2  0  0  0  0
  4  5  1  0  0  0  0
  4  9  1  0  0  0  0
  5 10  1  0  0  0  0
  6  5  2  0  0  0  0
  7  1  1  0  0  0  0
  8  2  1  0  0  0  0
 11  3  1  0  0  0  0
 12 11  1  0  0  0  0
 14  6  1  0  0  0  0
 14 15  1  0  0  0  0
 15 18  1  0  0  0  0
 16 15  1  0  0  0  0
 17 15  1  0  0  0  0
M  RAD  3  11   2  12   3  13   2
M  END
