Coordinates from ORCA-job p-CH3O-Ph-N2-X-Cl-B3LYPG-6-31G_dp-scan-d09-49-n400
 OpenBabel08281821033D

 18 17  0  0  0  0  0  0  0  0999 V2000
   -1.0107   -1.6463   -0.9232 C   0  0  0  0  0  0  0  0  0  0  0  0
    0.2573   -1.0981   -0.9738 C   0  0  0  0  0  0  0  0  0  0  0  0
    0.4133    0.2340   -0.5810 C   0  0  0  0  0  0  0  0  0  0  0  0
   -0.6663    1.0237   -0.1411 C   0  0  0  0  0  0  0  0  0  0  0  0
   -1.9299    0.4625   -0.0956 C   0  0  0  0  0  0  0  0  0  0  0  0
   -2.1107   -0.8818   -0.4888 C   0  0  0  0  0  0  0  0  0  0  0  0
   -1.1810   -2.6753   -1.2184 H   0  0  0  0  0  0  0  0  0  0  0  0
    1.1503   -1.6445   -1.3043 H   0  0  0  0  0  0  0  0  0  0  0  0
   -0.5039    2.0543    0.1564 H   0  0  0  0  0  0  0  0  0  0  0  0
   -2.7633    1.0653    0.2415 H   0  0  0  0  0  0  0  0  0  0  0  0
    1.6712    0.8763   -0.6008 N   0  0  0  0  0  0  0  0  0  0  0  0
    2.2294    1.8432   -0.3927 N   0  0  0  0  0  0  0  0  0  0  0  0
    3.2751   -1.6146   -1.6872 Cl  0  0  0  0  0  0  0  0  0  0  0  0
   -3.2966   -1.5154   -0.4819 O   0  0  0  0  0  0  0  0  0  0  0  0
   -4.4670   -0.8153   -0.0582 C   0  0  0  0  0  0  0  0  0  0  0  0
   -5.2856   -1.5287   -0.1517 H   0  0  0  0  0  0  0  0  0  0  0  0
   -4.6642    0.0514   -0.6988 H   0  0  0  0  0  0  0  0  0  0  0  0
   -4.3808   -0.4936    0.9854 H   0  0  0  0  0  0  0  0  0  0  0  0
  1  6  1  0  0  0  0
  2  1  2  0  0  0  0
  2  3  1  0  0  0  0
  3  4  2  0  0  0  0
  4  5  1  0  0  0  0
  4  9  1  0  0  0  0
  5 10  1  0  0  0  0
  6 14  1  0  0  0  0
  6  5  2  0  0  0  0
  7  1  1  0  0  0  0
  8  2  1  0  0  0  0
 11  3  1  0  0  0  0
 11 12  2  0  0  0  0
 14 15  1  0  0  0  0
 15 18  1  0  0  0  0
 16 15  1  0  0  0  0
 17 15  1  0  0  0  0
M  RAD  2  12   2  13   2
M  END
