Coordinates from ORCA-job p-CH3O-Ph-N2-X-Cl-B3LYPG-6-31G_dp-scan-d09-49-n400
 OpenBabel08281821033D

 18 18  0  0  0  0  0  0  0  0999 V2000
   -1.0289   -1.6060   -0.9030 C   0  0  0  0  0  0  0  0  0  0  0  0
    0.2303   -1.0375   -0.9455 C   0  0  0  0  0  0  0  0  0  0  0  0
    0.3783    0.3079   -0.5489 C   0  0  0  0  0  0  0  0  0  0  0  0
   -0.7267    1.0554   -0.1189 C   0  0  0  0  0  0  0  0  0  0  0  0
   -1.9893    0.4795   -0.0792 C   0  0  0  0  0  0  0  0  0  0  0  0
   -2.1453   -0.8607   -0.4741 C   0  0  0  0  0  0  0  0  0  0  0  0
   -1.1837   -2.6372   -1.2003 H   0  0  0  0  0  0  0  0  0  0  0  0
    1.0969   -1.5973   -1.2741 H   0  0  0  0  0  0  0  0  0  0  0  0
   -0.5794    2.0872    0.1808 H   0  0  0  0  0  0  0  0  0  0  0  0
   -2.8343    1.0680    0.2538 H   0  0  0  0  0  0  0  0  0  0  0  0
    1.6024    0.9827   -0.5521 N   0  0  0  0  0  0  0  0  0  0  0  0
    2.7440    0.8753   -0.7954 N   0  0  0  0  0  0  0  0  0  0  0  0
    3.4466   -0.9981   -1.5348 Cl  0  0  0  0  0  0  0  0  0  0  0  0
   -3.3217   -1.5233   -0.4786 O   0  0  0  0  0  0  0  0  0  0  0  0
   -4.5025   -0.8414   -0.0626 C   0  0  0  0  0  0  0  0  0  0  0  0
   -5.3120   -1.5652   -0.1603 H   0  0  0  0  0  0  0  0  0  0  0  0
   -4.7095    0.0241   -0.7026 H   0  0  0  0  0  0  0  0  0  0  0  0
   -4.4287   -0.5164    0.9815 H   0  0  0  0  0  0  0  0  0  0  0  0
  1  6  1  0  0  0  0
  2  1  2  0  0  0  0
  2  3  1  0  0  0  0
  3  4  2  0  0  0  0
  4  5  1  0  0  0  0
  4  9  1  0  0  0  0
  5 10  1  0  0  0  0
  6  5  2  0  0  0  0
  7  1  1  0  0  0  0
  8  2  1  0  0  0  0
 11  3  1  0  0  0  0
 12 11  2  0  0  0  0
 13 12  1  0  0  0  0
 14  6  1  0  0  0  0
 14 15  1  0  0  0  0
 15 18  1  0  0  0  0
 16 15  1  0  0  0  0
 17 15  1  0  0  0  0
M  END
