Coordinates from ORCA-job p-CH3O-Ph-N2-X-Cl-B3LYPG-6-31G_dp-scan-d09-49-n400
 OpenBabel08281821033D

 18 17  0  0  0  0  0  0  0  0999 V2000
   -0.9021   -1.5119   -0.9035 C   0  0  0  0  0  0  0  0  0  0  0  0
    0.3327   -0.8952   -0.9258 C   0  0  0  0  0  0  0  0  0  0  0  0
    0.3773    0.4577   -0.5048 C   0  0  0  0  0  0  0  0  0  0  0  0
   -0.7671    1.1768   -0.0741 C   0  0  0  0  0  0  0  0  0  0  0  0
   -1.9810    0.5279   -0.0657 C   0  0  0  0  0  0  0  0  0  0  0  0
   -2.0583   -0.8274   -0.4828 C   0  0  0  0  0  0  0  0  0  0  0  0
   -0.9873   -2.5469   -1.2171 H   0  0  0  0  0  0  0  0  0  0  0  0
    1.2525   -1.4425   -1.2621 H   0  0  0  0  0  0  0  0  0  0  0  0
   -0.6839    2.2115    0.2405 H   0  0  0  0  0  0  0  0  0  0  0  0
   -2.8638    1.0621    0.2603 H   0  0  0  0  0  0  0  0  0  0  0  0
    1.5631    1.1238   -0.5037 N   0  0  0  0  0  0  0  0  0  0  0  0
    2.5037    1.7393   -0.4756 N   0  0  0  0  0  0  0  0  0  0  0  0
    2.8151   -2.5419   -1.8886 Cl  0  0  0  0  0  0  0  0  0  0  0  0
   -3.1971   -1.5327   -0.5074 O   0  0  0  0  0  0  0  0  0  0  0  0
   -4.4257   -0.9252   -0.0994 C   0  0  0  0  0  0  0  0  0  0  0  0
   -5.1855   -1.6972   -0.2177 H   0  0  0  0  0  0  0  0  0  0  0  0
   -4.6737   -0.0687   -0.7357 H   0  0  0  0  0  0  0  0  0  0  0  0
   -4.3824   -0.6122    0.9492 H   0  0  0  0  0  0  0  0  0  0  0  0
  1  6  1  0  0  0  0
  2  1  2  0  0  0  0
  2  3  1  0  0  0  0
  3 11  1  0  0  0  0
  3  4  2  0  0  0  0
  4  5  1  0  0  0  0
  4  9  1  0  0  0  0
  5 10  1  0  0  0  0
  6  5  2  0  0  0  0
  7  1  1  0  0  0  0
  8  2  1  0  0  0  0
 11 12  1  0  0  0  0
 14  6  1  0  0  0  0
 14 15  1  0  0  0  0
 15 18  1  0  0  0  0
 16 15  1  0  0  0  0
 17 15  1  0  0  0  0
M  RAD  3  11   2  12   3  13   2
M  END
