Coordinates from ORCA-job p-CH3O-Ph-N2-X-Cl-B3LYPG-6-31G_dp-scan-d09-49-n400
 OpenBabel08281821033D

 18 17  0  0  0  0  0  0  0  0999 V2000
   -0.9561   -1.5781   -0.9140 C   0  0  0  0  0  0  0  0  0  0  0  0
    0.2953   -0.9956   -0.9507 C   0  0  0  0  0  0  0  0  0  0  0  0
    0.3964    0.3469   -0.5432 C   0  0  0  0  0  0  0  0  0  0  0  0
   -0.7170    1.1015   -0.1067 C   0  0  0  0  0  0  0  0  0  0  0  0
   -1.9568    0.4972   -0.0790 C   0  0  0  0  0  0  0  0  0  0  0  0
   -2.0854   -0.8535   -0.4853 C   0  0  0  0  0  0  0  0  0  0  0  0
   -1.0862   -2.6106   -1.2186 H   0  0  0  0  0  0  0  0  0  0  0  0
    1.2121   -1.5342   -1.2842 H   0  0  0  0  0  0  0  0  0  0  0  0
   -0.5933    2.1350    0.1998 H   0  0  0  0  0  0  0  0  0  0  0  0
   -2.8153    1.0662    0.2533 H   0  0  0  0  0  0  0  0  0  0  0  0
    1.6073    1.0172   -0.5463 N   0  0  0  0  0  0  0  0  0  0  0  0
    2.3448    1.8615   -0.4107 N   0  0  0  0  0  0  0  0  0  0  0  0
    3.0822   -2.1849   -1.8226 Cl  0  0  0  0  0  0  0  0  0  0  0  0
   -3.2469   -1.5228   -0.4943 O   0  0  0  0  0  0  0  0  0  0  0  0
   -4.4493   -0.8706   -0.0781 C   0  0  0  0  0  0  0  0  0  0  0  0
   -5.2374   -1.6153   -0.1859 H   0  0  0  0  0  0  0  0  0  0  0  0
   -4.6723   -0.0083   -0.7159 H   0  0  0  0  0  0  0  0  0  0  0  0
   -4.3854   -0.5546    0.9686 H   0  0  0  0  0  0  0  0  0  0  0  0
  1  6  1  0  0  0  0
  2  1  2  0  0  0  0
  2  3  1  0  0  0  0
  3  4  2  0  0  0  0
  4  5  1  0  0  0  0
  4  9  1  0  0  0  0
  5 10  1  0  0  0  0
  6  5  2  0  0  0  0
  7  1  1  0  0  0  0
  8  2  1  0  0  0  0
 11  3  1  0  0  0  0
 11 12  1  0  0  0  0
 14  6  1  0  0  0  0
 14 15  1  0  0  0  0
 15 18  1  0  0  0  0
 16 15  1  0  0  0  0
 17 15  1  0  0  0  0
M  RAD  3  11   2  12   3  13   2
M  END
