Coordinates from ORCA-job p-CH3O-Ph-N2-X-Cl-B3LYPG-6-31G_dp-scan-d09-49-n400
 OpenBabel08281821033D

 18 18  0  0  0  0  0  0  0  0999 V2000
   -1.0314   -1.6104   -0.9045 C   0  0  0  0  0  0  0  0  0  0  0  0
    0.2293   -1.0446   -0.9482 C   0  0  0  0  0  0  0  0  0  0  0  0
    0.3848    0.3008   -0.5529 C   0  0  0  0  0  0  0  0  0  0  0  0
   -0.7212    1.0479   -0.1226 C   0  0  0  0  0  0  0  0  0  0  0  0
   -1.9857    0.4761   -0.0810 C   0  0  0  0  0  0  0  0  0  0  0  0
   -2.1459   -0.8633   -0.4750 C   0  0  0  0  0  0  0  0  0  0  0  0
   -1.1884   -2.6414   -1.2015 H   0  0  0  0  0  0  0  0  0  0  0  0
    1.0896   -1.6114   -1.2778 H   0  0  0  0  0  0  0  0  0  0  0  0
   -0.5709    2.0795    0.1765 H   0  0  0  0  0  0  0  0  0  0  0  0
   -2.8286    1.0674    0.2529 H   0  0  0  0  0  0  0  0  0  0  0  0
    1.6035    0.9875   -0.5518 N   0  0  0  0  0  0  0  0  0  0  0  0
    2.7494    0.8652   -0.8001 N   0  0  0  0  0  0  0  0  0  0  0  0
    3.4270   -0.9484   -1.5122 Cl  0  0  0  0  0  0  0  0  0  0  0  0
   -3.3242   -1.5237   -0.4784 O   0  0  0  0  0  0  0  0  0  0  0  0
   -4.5023   -0.8385   -0.0613 C   0  0  0  0  0  0  0  0  0  0  0  0
   -5.3142   -1.5597   -0.1580 H   0  0  0  0  0  0  0  0  0  0  0  0
   -4.7076    0.0278   -0.7009 H   0  0  0  0  0  0  0  0  0  0  0  0
   -4.4267   -0.5135    0.9827 H   0  0  0  0  0  0  0  0  0  0  0  0
  1  6  1  0  0  0  0
  2  1  2  0  0  0  0
  2  3  1  0  0  0  0
  3 11  1  0  0  0  0
  3  4  2  0  0  0  0
  4  5  1  0  0  0  0
  4  9  1  0  0  0  0
  5 10  1  0  0  0  0
  6  5  2  0  0  0  0
  7  1  1  0  0  0  0
  8  2  1  0  0  0  0
 12 11  2  0  0  0  0
 13 12  1  0  0  0  0
 14  6  1  0  0  0  0
 14 15  1  0  0  0  0
 15 18  1  0  0  0  0
 16 15  1  0  0  0  0
 17 15  1  0  0  0  0
M  END
