Coordinates from ORCA-job p-CH3O-Ph-N2-X-Cl-B3LYPG-6-31G_dp-scan-d09-49-n400
 OpenBabel08281821033D

 18 17  0  0  0  0  0  0  0  0999 V2000
   -1.0043   -1.6369   -0.9230 C   0  0  0  0  0  0  0  0  0  0  0  0
    0.2615   -1.0841   -0.9714 C   0  0  0  0  0  0  0  0  0  0  0  0
    0.4104    0.2490   -0.5763 C   0  0  0  0  0  0  0  0  0  0  0  0
   -0.6735    1.0344   -0.1365 C   0  0  0  0  0  0  0  0  0  0  0  0
   -1.9341    0.4675   -0.0935 C   0  0  0  0  0  0  0  0  0  0  0  0
   -2.1081   -0.8777   -0.4888 C   0  0  0  0  0  0  0  0  0  0  0  0
   -1.1697   -2.6664   -1.2196 H   0  0  0  0  0  0  0  0  0  0  0  0
    1.1589   -1.6276   -1.3017 H   0  0  0  0  0  0  0  0  0  0  0  0
   -0.5158    2.0654    0.1623 H   0  0  0  0  0  0  0  0  0  0  0  0
   -2.7708    1.0658    0.2432 H   0  0  0  0  0  0  0  0  0  0  0  0
    1.6623    0.8948   -0.5936 N   0  0  0  0  0  0  0  0  0  0  0  0
    2.2428    1.8492   -0.3940 N   0  0  0  0  0  0  0  0  0  0  0  0
    3.2614   -1.6987   -1.7061 Cl  0  0  0  0  0  0  0  0  0  0  0  0
   -3.2907   -1.5160   -0.4839 O   0  0  0  0  0  0  0  0  0  0  0  0
   -4.4654   -0.8227   -0.0601 C   0  0  0  0  0  0  0  0  0  0  0  0
   -5.2799   -1.5405   -0.1553 H   0  0  0  0  0  0  0  0  0  0  0  0
   -4.6667    0.0437   -0.6998 H   0  0  0  0  0  0  0  0  0  0  0  0
   -4.3816   -0.5022    0.9841 H   0  0  0  0  0  0  0  0  0  0  0  0
  1  6  1  0  0  0  0
  2  1  2  0  0  0  0
  2  3  1  0  0  0  0
  3  4  2  0  0  0  0
  4  5  1  0  0  0  0
  4  9  1  0  0  0  0
  5 10  1  0  0  0  0
  6 14  1  0  0  0  0
  6  5  2  0  0  0  0
  7  1  1  0  0  0  0
  8  2  1  0  0  0  0
 11  3  1  0  0  0  0
 11 12  2  0  0  0  0
 14 15  1  0  0  0  0
 15 18  1  0  0  0  0
 16 15  1  0  0  0  0
 17 15  1  0  0  0  0
M  RAD  2  12   2  13   2
M  END
