Coordinates from ORCA-job p-CH3O-Ph-N2-X-Cl-B3LYPG-6-31G_dp-scan-d09-49-n400
 OpenBabel08281821033D

 18 17  0  0  0  0  0  0  0  0999 V2000
   -1.0212   -1.5914   -0.9034 C   0  0  0  0  0  0  0  0  0  0  0  0
    0.2340   -1.0154   -0.9432 C   0  0  0  0  0  0  0  0  0  0  0  0
    0.3636    0.3297   -0.5420 C   0  0  0  0  0  0  0  0  0  0  0  0
   -0.7406    1.0758   -0.1111 C   0  0  0  0  0  0  0  0  0  0  0  0
   -1.9976    0.4886   -0.0746 C   0  0  0  0  0  0  0  0  0  0  0  0
   -2.1427   -0.8529   -0.4734 C   0  0  0  0  0  0  0  0  0  0  0  0
   -1.1695   -2.6229   -1.2032 H   0  0  0  0  0  0  0  0  0  0  0  0
    1.1143   -1.5599   -1.2705 H   0  0  0  0  0  0  0  0  0  0  0  0
   -0.6014    2.1081    0.1908 H   0  0  0  0  0  0  0  0  0  0  0  0
   -2.8480    1.0690    0.2586 H   0  0  0  0  0  0  0  0  0  0  0  0
    1.5975    0.9811   -0.5564 N   0  0  0  0  0  0  0  0  0  0  0  0
    2.7311    0.9059   -0.7846 N   0  0  0  0  0  0  0  0  0  0  0  0
    3.4811   -1.1479   -1.5710 Cl  0  0  0  0  0  0  0  0  0  0  0  0
   -3.3135   -1.5221   -0.4805 O   0  0  0  0  0  0  0  0  0  0  0  0
   -4.5012   -0.8512   -0.0638 C   0  0  0  0  0  0  0  0  0  0  0  0
   -5.3038   -1.5820   -0.1649 H   0  0  0  0  0  0  0  0  0  0  0  0
   -4.7145    0.0139   -0.7020 H   0  0  0  0  0  0  0  0  0  0  0  0
   -4.4310   -0.5292    0.9813 H   0  0  0  0  0  0  0  0  0  0  0  0
  1  6  1  0  0  0  0
  2  1  2  0  0  0  0
  2  3  1  0  0  0  0
  3  4  2  0  0  0  0
  4  5  1  0  0  0  0
  4  9  1  0  0  0  0
  5 10  1  0  0  0  0
  6  5  2  0  0  0  0
  7  1  1  0  0  0  0
  8  2  1  0  0  0  0
 11  3  1  0  0  0  0
 12 11  2  0  0  0  0
 14  6  1  0  0  0  0
 14 15  1  0  0  0  0
 15 18  1  0  0  0  0
 16 15  1  0  0  0  0
 17 15  1  0  0  0  0
M  RAD  2  12   2  13   2
M  END
