Coordinates from ORCA-job p-CH3O-Ph-N2-X-Cl-B3LYPG-6-31G_dp-scan-d09-49-n400
 OpenBabel08281821033D

 18 17  0  0  0  0  0  0  0  0999 V2000
   -1.0075   -1.5727   -0.9016 C   0  0  0  0  0  0  0  0  0  0  0  0
    0.2422   -0.9863   -0.9375 C   0  0  0  0  0  0  0  0  0  0  0  0
    0.3489    0.3592   -0.5316 C   0  0  0  0  0  0  0  0  0  0  0  0
   -0.7570    1.1019   -0.1003 C   0  0  0  0  0  0  0  0  0  0  0  0
   -2.0062    0.5002   -0.0691 C   0  0  0  0  0  0  0  0  0  0  0  0
   -2.1363   -0.8436   -0.4721 C   0  0  0  0  0  0  0  0  0  0  0  0
   -1.1461   -2.6047   -1.2039 H   0  0  0  0  0  0  0  0  0  0  0  0
    1.1398   -1.5123   -1.2628 H   0  0  0  0  0  0  0  0  0  0  0  0
   -0.6287    2.1348    0.2042 H   0  0  0  0  0  0  0  0  0  0  0  0
   -2.8641    1.0698    0.2634 H   0  0  0  0  0  0  0  0  0  0  0  0
    1.5906    0.9882   -0.5556 N   0  0  0  0  0  0  0  0  0  0  0  0
    2.7171    0.9574   -0.7674 N   0  0  0  0  0  0  0  0  0  0  0  0
    3.4809   -1.3567   -1.6276 Cl  0  0  0  0  0  0  0  0  0  0  0  0
   -3.2997   -1.5216   -0.4833 O   0  0  0  0  0  0  0  0  0  0  0  0
   -4.4969   -0.8649   -0.0681 C   0  0  0  0  0  0  0  0  0  0  0  0
   -5.2902   -1.6049   -0.1740 H   0  0  0  0  0  0  0  0  0  0  0  0
   -4.7175   -0.0009   -0.7050 H   0  0  0  0  0  0  0  0  0  0  0  0
   -4.4327   -0.5459    0.9782 H   0  0  0  0  0  0  0  0  0  0  0  0
  1  6  1  0  0  0  0
  2  1  2  0  0  0  0
  2  3  1  0  0  0  0
  3  4  2  0  0  0  0
  4  5  1  0  0  0  0
  4  9  1  0  0  0  0
  5 10  1  0  0  0  0
  6  5  2  0  0  0  0
  7  1  1  0  0  0  0
  8  2  1  0  0  0  0
 11  3  1  0  0  0  0
 12 11  2  0  0  0  0
 14  6  1  0  0  0  0
 14 15  1  0  0  0  0
 15 18  1  0  0  0  0
 16 15  1  0  0  0  0
 17 15  1  0  0  0  0
M  RAD  2  12   2  13   2
M  END
