Coordinates from ORCA-job p-CH3O-Ph-N2-X-Cl-B3LYPG-6-31G_dp-scan-d09-49-n400
 OpenBabel08281821033D

 18 17  0  0  0  0  0  0  0  0999 V2000
   -0.9977   -1.5622   -0.9002 C   0  0  0  0  0  0  0  0  0  0  0  0
    0.2491   -0.9702   -0.9337 C   0  0  0  0  0  0  0  0  0  0  0  0
    0.3431    0.3759   -0.5254 C   0  0  0  0  0  0  0  0  0  0  0  0
   -0.7653    1.1159   -0.0947 C   0  0  0  0  0  0  0  0  0  0  0  0
   -2.0099    0.5065   -0.0670 C   0  0  0  0  0  0  0  0  0  0  0  0
   -2.1310   -0.8387   -0.4719 C   0  0  0  0  0  0  0  0  0  0  0  0
   -1.1305   -2.5947   -1.2036 H   0  0  0  0  0  0  0  0  0  0  0  0
    1.1550   -1.4889   -1.2581 H   0  0  0  0  0  0  0  0  0  0  0  0
   -0.6433    2.1492    0.2111 H   0  0  0  0  0  0  0  0  0  0  0  0
   -2.8720    1.0702    0.2641 H   0  0  0  0  0  0  0  0  0  0  0  0
    1.5859    0.9972   -0.5509 N   0  0  0  0  0  0  0  0  0  0  0  0
    2.7096    1.0018   -0.7505 N   0  0  0  0  0  0  0  0  0  0  0  0
    3.4566   -1.4868   -1.6653 Cl  0  0  0  0  0  0  0  0  0  0  0  0
   -3.2902   -1.5218   -0.4852 O   0  0  0  0  0  0  0  0  0  0  0  0
   -4.4927   -0.8730   -0.0711 C   0  0  0  0  0  0  0  0  0  0  0  0
   -5.2805   -1.6184   -0.1787 H   0  0  0  0  0  0  0  0  0  0  0  0
   -4.7178   -0.0103   -0.7082 H   0  0  0  0  0  0  0  0  0  0  0  0
   -4.4317   -0.5546    0.9754 H   0  0  0  0  0  0  0  0  0  0  0  0
  1  6  1  0  0  0  0
  2  1  2  0  0  0  0
  2  3  1  0  0  0  0
  3  4  2  0  0  0  0
  4  5  1  0  0  0  0
  4  9  1  0  0  0  0
  5 10  1  0  0  0  0
  6  5  2  0  0  0  0
  7  1  1  0  0  0  0
  8  2  1  0  0  0  0
 11  3  1  0  0  0  0
 12 11  2  0  0  0  0
 14  6  1  0  0  0  0
 14 15  1  0  0  0  0
 15 18  1  0  0  0  0
 16 15  1  0  0  0  0
 17 15  1  0  0  0  0
M  RAD  2  12   2  13   2
M  END
