Coordinates from ORCA-job p-CH3O-Ph-N2-X-Cl-B3LYPG-6-31G_dp-scan-d09-49-n400
 OpenBabel08281821033D

 18 17  0  0  0  0  0  0  0  0999 V2000
   -0.9758   -1.6011   -0.9180 C   0  0  0  0  0  0  0  0  0  0  0  0
    0.2812   -1.0302   -0.9592 C   0  0  0  0  0  0  0  0  0  0  0  0
    0.4013    0.3081   -0.5565 C   0  0  0  0  0  0  0  0  0  0  0  0
   -0.7001    1.0753   -0.1185 C   0  0  0  0  0  0  0  0  0  0  0  0
   -1.9485    0.4860   -0.0846 C   0  0  0  0  0  0  0  0  0  0  0  0
   -2.0952   -0.8625   -0.4868 C   0  0  0  0  0  0  0  0  0  0  0  0
   -1.1207   -2.6324   -1.2195 H   0  0  0  0  0  0  0  0  0  0  0  0
    1.1917   -1.5690   -1.2911 H   0  0  0  0  0  0  0  0  0  0  0  0
   -0.5623    2.1078    0.1850 H   0  0  0  0  0  0  0  0  0  0  0  0
   -2.7984    1.0668    0.2496 H   0  0  0  0  0  0  0  0  0  0  0  0
    1.6282    0.9700   -0.5644 N   0  0  0  0  0  0  0  0  0  0  0  0
    2.2980    1.8671   -0.3996 N   0  0  0  0  0  0  0  0  0  0  0  0
    3.1699   -2.0105   -1.7831 Cl  0  0  0  0  0  0  0  0  0  0  0  0
   -3.2650   -1.5197   -0.4902 O   0  0  0  0  0  0  0  0  0  0  0  0
   -4.4566   -0.8515   -0.0704 C   0  0  0  0  0  0  0  0  0  0  0  0
   -5.2552   -1.5858   -0.1731 H   0  0  0  0  0  0  0  0  0  0  0  0
   -4.6714    0.0126   -0.7087 H   0  0  0  0  0  0  0  0  0  0  0  0
   -4.3845   -0.5338    0.9754 H   0  0  0  0  0  0  0  0  0  0  0  0
  1  6  1  0  0  0  0
  2  1  2  0  0  0  0
  2  3  1  0  0  0  0
  3  4  2  0  0  0  0
  4  5  1  0  0  0  0
  4  9  1  0  0  0  0
  5 10  1  0  0  0  0
  6  5  2  0  0  0  0
  7  1  1  0  0  0  0
  8  2  1  0  0  0  0
 11  3  1  0  0  0  0
 11 12  2  0  0  0  0
 14  6  1  0  0  0  0
 14 15  1  0  0  0  0
 15 18  1  0  0  0  0
 16 15  1  0  0  0  0
 17 15  1  0  0  0  0
M  RAD  2  12   2  13   2
M  END
