Coordinates from ORCA-job p-CH3O-Ph-N2-X-Cl-B3LYPG-6-31G_dp-scan-d09-49-n400
 OpenBabel08281821033D

 18 18  0  0  0  0  0  0  0  0999 V2000
   -1.0016   -1.7132   -0.7157 C   0  0  0  0  0  0  0  0  0  0  0  0
    0.2778   -1.1784   -0.7126 C   0  0  0  0  0  0  0  0  0  0  0  0
    0.4803    0.1819   -0.3979 C   0  0  0  0  0  0  0  0  0  0  0  0
   -0.6351    0.9601   -0.0575 C   0  0  0  0  0  0  0  0  0  0  0  0
   -1.9265    0.4409   -0.0963 C   0  0  0  0  0  0  0  0  0  0  0  0
   -2.1157   -0.9074   -0.4287 C   0  0  0  0  0  0  0  0  0  0  0  0
   -1.1683   -2.7607   -0.9443 H   0  0  0  0  0  0  0  0  0  0  0  0
    1.1155   -1.8323   -0.9217 H   0  0  0  0  0  0  0  0  0  0  0  0
   -0.4684    1.9919    0.2347 H   0  0  0  0  0  0  0  0  0  0  0  0
   -2.7648    1.0796    0.1530 H   0  0  0  0  0  0  0  0  0  0  0  0
    1.7335    0.8473   -0.2260 N   0  0  0  0  0  0  0  0  0  0  0  0
    2.7130    0.7126   -1.0214 N   0  0  0  0  0  0  0  0  0  0  0  0
    2.7300   -0.0506   -2.1964 Cl  0  0  0  0  0  0  0  0  0  0  0  0
   -3.3239   -1.5302   -0.4855 O   0  0  0  0  0  0  0  0  0  0  0  0
   -4.4907   -0.7707   -0.2018 C   0  0  0  0  0  0  0  0  0  0  0  0
   -5.3310   -1.4560   -0.3213 H   0  0  0  0  0  0  0  0  0  0  0  0
   -4.6058    0.0679   -0.8999 H   0  0  0  0  0  0  0  0  0  0  0  0
   -4.4818   -0.3856    0.8253 H   0  0  0  0  0  0  0  0  0  0  0  0
  1  2  2  0  0  0  0
  1  6  1  0  0  0  0
  2  3  1  0  0  0  0
  3 11  1  0  0  0  0
  3  4  2  0  0  0  0
  4  9  1  0  0  0  0
  5  4  1  0  0  0  0
  5 10  1  0  0  0  0
  6  5  2  0  0  0  0
  7  1  1  0  0  0  0
  8  2  1  0  0  0  0
 12 11  2  0  0  0  0
 13 12  1  0  0  0  0
 14  6  1  0  0  0  0
 14 15  1  0  0  0  0
 15 18  1  0  0  0  0
 16 15  1  0  0  0  0
 17 15  1  0  0  0  0
M  END
