Coordinates from ORCA-job p-CH3O-Ph-N2-X-Cl-B3LYPG-6-31G_dp-scan-d09-49-n400
 OpenBabel08281821033D

 18 17  0  0  0  0  0  0  0  0999 V2000
   -0.9921   -1.5564   -0.9001 C   0  0  0  0  0  0  0  0  0  0  0  0
    0.2534   -0.9618   -0.9323 C   0  0  0  0  0  0  0  0  0  0  0  0
    0.3409    0.3847   -0.5223 C   0  0  0  0  0  0  0  0  0  0  0  0
   -0.7692    1.1233   -0.0922 C   0  0  0  0  0  0  0  0  0  0  0  0
   -2.0114    0.5099   -0.0665 C   0  0  0  0  0  0  0  0  0  0  0  0
   -2.1277   -0.8362   -0.4723 C   0  0  0  0  0  0  0  0  0  0  0  0
   -1.1216   -2.5892   -1.2042 H   0  0  0  0  0  0  0  0  0  0  0  0
    1.1635   -1.4775   -1.2564 H   0  0  0  0  0  0  0  0  0  0  0  0
   -0.6506    2.1568    0.2144 H   0  0  0  0  0  0  0  0  0  0  0  0
   -2.8758    1.0706    0.2638 H   0  0  0  0  0  0  0  0  0  0  0  0
    1.5833    1.0027   -0.5477 N   0  0  0  0  0  0  0  0  0  0  0  0
    2.7055    1.0319   -0.7383 N   0  0  0  0  0  0  0  0  0  0  0  0
    3.4351   -1.5609   -1.6846 Cl  0  0  0  0  0  0  0  0  0  0  0  0
   -3.2845   -1.5219   -0.4867 O   0  0  0  0  0  0  0  0  0  0  0  0
   -4.4898   -0.8776   -0.0725 C   0  0  0  0  0  0  0  0  0  0  0  0
   -5.2745   -1.6262   -0.1803 H   0  0  0  0  0  0  0  0  0  0  0  0
   -4.7181   -0.0159   -0.7097 H   0  0  0  0  0  0  0  0  0  0  0  0
   -4.4299   -0.5593    0.9740 H   0  0  0  0  0  0  0  0  0  0  0  0
  1  6  1  0  0  0  0
  2  1  2  0  0  0  0
  2  3  1  0  0  0  0
  3  4  2  0  0  0  0
  4  5  1  0  0  0  0
  4  9  1  0  0  0  0
  5 10  1  0  0  0  0
  6  5  2  0  0  0  0
  7  1  1  0  0  0  0
  8  2  1  0  0  0  0
 11  3  1  0  0  0  0
 12 11  2  0  0  0  0
 14  6  1  0  0  0  0
 14 15  1  0  0  0  0
 15 18  1  0  0  0  0
 16 15  1  0  0  0  0
 17 15  1  0  0  0  0
M  RAD  2  12   2  13   2
M  END
