Coordinates from ORCA-job p-CH3O-Ph-N2-X-Cl-B3LYPG-6-31G_dp-scan-d09-49-n400
 OpenBabel08281821033D

 18 17  0  0  0  0  0  0  0  0999 V2000
   -0.9827   -1.5477   -0.9002 C   0  0  0  0  0  0  0  0  0  0  0  0
    0.2605   -0.9488   -0.9305 C   0  0  0  0  0  0  0  0  0  0  0  0
    0.3387    0.3983   -0.5183 C   0  0  0  0  0  0  0  0  0  0  0  0
   -0.7742    1.1345   -0.0882 C   0  0  0  0  0  0  0  0  0  0  0  0
   -2.0124    0.5148   -0.0653 C   0  0  0  0  0  0  0  0  0  0  0  0
   -2.1218   -0.8324   -0.4729 C   0  0  0  0  0  0  0  0  0  0  0  0
   -1.1072   -2.5808   -1.2054 H   0  0  0  0  0  0  0  0  0  0  0  0
    1.1769   -1.4609   -1.2545 H   0  0  0  0  0  0  0  0  0  0  0  0
   -0.6608    2.1681    0.2196 H   0  0  0  0  0  0  0  0  0  0  0  0
   -2.8802    1.0707    0.2644 H   0  0  0  0  0  0  0  0  0  0  0  0
    1.5800    1.0117   -0.5443 N   0  0  0  0  0  0  0  0  0  0  0  0
    2.6992    1.0801   -0.7211 N   0  0  0  0  0  0  0  0  0  0  0  0
    3.3894   -1.6730   -1.7088 Cl  0  0  0  0  0  0  0  0  0  0  0  0
   -3.2750   -1.5222   -0.4890 O   0  0  0  0  0  0  0  0  0  0  0  0
   -4.4847   -0.8850   -0.0751 C   0  0  0  0  0  0  0  0  0  0  0  0
   -5.2647   -1.6382   -0.1845 H   0  0  0  0  0  0  0  0  0  0  0  0
   -4.7171   -0.0242   -0.7118 H   0  0  0  0  0  0  0  0  0  0  0  0
   -4.4272   -0.5678    0.9719 H   0  0  0  0  0  0  0  0  0  0  0  0
  1  6  1  0  0  0  0
  2  1  2  0  0  0  0
  2  3  1  0  0  0  0
  3  4  2  0  0  0  0
  4  5  1  0  0  0  0
  4  9  1  0  0  0  0
  5 10  1  0  0  0  0
  6  5  2  0  0  0  0
  7  1  1  0  0  0  0
  8  2  1  0  0  0  0
 11  3  1  0  0  0  0
 12 11  1  0  0  0  0
 14  6  1  0  0  0  0
 14 15  1  0  0  0  0
 15 18  1  0  0  0  0
 16 15  1  0  0  0  0
 17 15  1  0  0  0  0
M  RAD  3  11   2  12   3  13   2
M  END
