Coordinates from ORCA-job p-CH3O-Ph-N2-X-Cl-B3LYPG-6-31G_dp-scan-d09-49-n400
 OpenBabel08281821033D

 18 17  0  0  0  0  0  0  0  0999 V2000
   -0.9896   -1.6180   -0.9199 C   0  0  0  0  0  0  0  0  0  0  0  0
    0.2715   -1.0554   -0.9647 C   0  0  0  0  0  0  0  0  0  0  0  0
    0.4051    0.2803   -0.5657 C   0  0  0  0  0  0  0  0  0  0  0  0
   -0.6879    1.0562   -0.1265 C   0  0  0  0  0  0  0  0  0  0  0  0
   -1.9421    0.4773   -0.0881 C   0  0  0  0  0  0  0  0  0  0  0  0
   -2.1017   -0.8697   -0.4872 C   0  0  0  0  0  0  0  0  0  0  0  0
   -1.1443   -2.6485   -1.2192 H   0  0  0  0  0  0  0  0  0  0  0  0
    1.1763   -1.5953   -1.2960 H   0  0  0  0  0  0  0  0  0  0  0  0
   -0.5406    2.0880    0.1748 H   0  0  0  0  0  0  0  0  0  0  0  0
   -2.7858    1.0663    0.2476 H   0  0  0  0  0  0  0  0  0  0  0  0
    1.6438    0.9346   -0.5788 N   0  0  0  0  0  0  0  0  0  0  0  0
    2.2713    1.8604   -0.3975 N   0  0  0  0  0  0  0  0  0  0  0  0
    3.2207   -1.8679   -1.7494 Cl  0  0  0  0  0  0  0  0  0  0  0  0
   -3.2775   -1.5180   -0.4868 O   0  0  0  0  0  0  0  0  0  0  0  0
   -4.4614   -0.8378   -0.0658 C   0  0  0  0  0  0  0  0  0  0  0  0
   -5.2676   -1.5642   -0.1655 H   0  0  0  0  0  0  0  0  0  0  0  0
   -4.6692    0.0276   -0.7047 H   0  0  0  0  0  0  0  0  0  0  0  0
   -4.3844   -0.5189    0.9794 H   0  0  0  0  0  0  0  0  0  0  0  0
  1  6  1  0  0  0  0
  2  1  2  0  0  0  0
  2  3  1  0  0  0  0
  3  4  2  0  0  0  0
  4  5  1  0  0  0  0
  4  9  1  0  0  0  0
  5 10  1  0  0  0  0
  6 14  1  0  0  0  0
  6  5  2  0  0  0  0
  7  1  1  0  0  0  0
  8  2  1  0  0  0  0
 11  3  1  0  0  0  0
 11 12  2  0  0  0  0
 14 15  1  0  0  0  0
 15 18  1  0  0  0  0
 16 15  1  0  0  0  0
 17 15  1  0  0  0  0
M  RAD  2  12   2  13   2
M  END
