Coordinates from ORCA-job p-CH3O-Ph-N2-X-Cl-B3LYPG-6-31G_dp-scan-d09-49-n400
 OpenBabel08281821033D

 18 17  0  0  0  0  0  0  0  0999 V2000
   -1.0269   -1.6691   -0.9262 C   0  0  0  0  0  0  0  0  0  0  0  0
    0.2469   -1.1333   -0.9820 C   0  0  0  0  0  0  0  0  0  0  0  0
    0.4221    0.1963   -0.5941 C   0  0  0  0  0  0  0  0  0  0  0  0
   -0.6471    0.9962   -0.1530 C   0  0  0  0  0  0  0  0  0  0  0  0
   -1.9183    0.4495   -0.1014 C   0  0  0  0  0  0  0  0  0  0  0  0
   -2.1168   -0.8920   -0.4902 C   0  0  0  0  0  0  0  0  0  0  0  0
   -1.2094   -2.6968   -1.2185 H   0  0  0  0  0  0  0  0  0  0  0  0
    1.1269   -1.6894   -1.3130 H   0  0  0  0  0  0  0  0  0  0  0  0
   -0.4730    2.0256    0.1415 H   0  0  0  0  0  0  0  0  0  0  0  0
   -2.7429    1.0635    0.2374 H   0  0  0  0  0  0  0  0  0  0  0  0
    1.6950    0.8286   -0.6206 N   0  0  0  0  0  0  0  0  0  0  0  0
    2.2018    1.8219   -0.3947 N   0  0  0  0  0  0  0  0  0  0  0  0
    3.2921   -1.3895   -1.6223 Cl  0  0  0  0  0  0  0  0  0  0  0  0
   -3.3107   -1.5135   -0.4782 O   0  0  0  0  0  0  0  0  0  0  0  0
   -4.4699   -0.7975   -0.0527 C   0  0  0  0  0  0  0  0  0  0  0  0
   -5.2985   -1.4999   -0.1416 H   0  0  0  0  0  0  0  0  0  0  0  0
   -4.6581    0.0706   -0.6943 H   0  0  0  0  0  0  0  0  0  0  0  0
   -4.3767   -0.4740    0.9900 H   0  0  0  0  0  0  0  0  0  0  0  0
  1  6  1  0  0  0  0
  2  1  2  0  0  0  0
  2  3  1  0  0  0  0
  3  4  2  0  0  0  0
  4  5  1  0  0  0  0
  4  9  1  0  0  0  0
  5 10  1  0  0  0  0
  6 14  1  0  0  0  0
  6  5  2  0  0  0  0
  7  1  1  0  0  0  0
  8  2  1  0  0  0  0
 11  3  1  0  0  0  0
 11 12  2  0  0  0  0
 14 15  1  0  0  0  0
 15 18  1  0  0  0  0
 16 15  1  0  0  0  0
 17 15  1  0  0  0  0
M  RAD  2  12   2  13   2
M  END
