Coordinates from ORCA-job p-CH3O-Ph-N2-X-Cl-B3LYPG-6-31G_dp-scan-d09-49-n400
 OpenBabel08281821033D

 18 18  0  0  0  0  0  0  0  0999 V2000
   -1.0281   -1.6046   -0.9027 C   0  0  0  0  0  0  0  0  0  0  0  0
    0.2306   -1.0354   -0.9449 C   0  0  0  0  0  0  0  0  0  0  0  0
    0.3766    0.3100   -0.5478 C   0  0  0  0  0  0  0  0  0  0  0  0
   -0.7282    1.0575   -0.1179 C   0  0  0  0  0  0  0  0  0  0  0  0
   -1.9902    0.4804   -0.0787 C   0  0  0  0  0  0  0  0  0  0  0  0
   -2.1451   -0.8599   -0.4738 C   0  0  0  0  0  0  0  0  0  0  0  0
   -1.1823   -2.6359   -1.2001 H   0  0  0  0  0  0  0  0  0  0  0  0
    1.0989   -1.5932   -1.2732 H   0  0  0  0  0  0  0  0  0  0  0  0
   -0.5818    2.0895    0.1820 H   0  0  0  0  0  0  0  0  0  0  0  0
   -2.8359    1.0681    0.2541 H   0  0  0  0  0  0  0  0  0  0  0  0
    1.6020    0.9817   -0.5522 N   0  0  0  0  0  0  0  0  0  0  0  0
    2.7426    0.8782   -0.7940 N   0  0  0  0  0  0  0  0  0  0  0  0
    3.4515   -1.0128   -1.5406 Cl  0  0  0  0  0  0  0  0  0  0  0  0
   -3.3210   -1.5231   -0.4786 O   0  0  0  0  0  0  0  0  0  0  0  0
   -4.5025   -0.8423   -0.0629 C   0  0  0  0  0  0  0  0  0  0  0  0
   -5.3112   -1.5668   -0.1609 H   0  0  0  0  0  0  0  0  0  0  0  0
   -4.7100    0.0231   -0.7030 H   0  0  0  0  0  0  0  0  0  0  0  0
   -4.4292   -0.5174    0.9813 H   0  0  0  0  0  0  0  0  0  0  0  0
  1  6  1  0  0  0  0
  2  1  2  0  0  0  0
  2  3  1  0  0  0  0
  3  4  2  0  0  0  0
  4  5  1  0  0  0  0
  4  9  1  0  0  0  0
  5 10  1  0  0  0  0
  6  5  2  0  0  0  0
  7  1  1  0  0  0  0
  8  2  1  0  0  0  0
 11  3  1  0  0  0  0
 12 11  2  0  0  0  0
 13 12  1  0  0  0  0
 14  6  1  0  0  0  0
 14 15  1  0  0  0  0
 15 18  1  0  0  0  0
 16 15  1  0  0  0  0
 17 15  1  0  0  0  0
M  END
