Coordinates from ORCA-job p-CH3O-Ph-N2-X-Cl-B3LYPG-6-31G_dp-scan-d09-49-n400
 OpenBabel08281821033D

 18 18  0  0  0  0  0  0  0  0999 V2000
   -1.0408   -1.6577   -0.8796 C   0  0  0  0  0  0  0  0  0  0  0  0
    0.2335   -1.1064   -0.9395 C   0  0  0  0  0  0  0  0  0  0  0  0
    0.4502    0.2544   -0.5872 C   0  0  0  0  0  0  0  0  0  0  0  0
   -0.6803    0.9954   -0.1806 C   0  0  0  0  0  0  0  0  0  0  0  0
   -1.9550    0.4497   -0.1195 C   0  0  0  0  0  0  0  0  0  0  0  0
   -2.1440   -0.8947   -0.4736 C   0  0  0  0  0  0  0  0  0  0  0  0
   -1.2056   -2.6956   -1.1501 H   0  0  0  0  0  0  0  0  0  0  0  0
    1.0431   -1.7438   -1.2605 H   0  0  0  0  0  0  0  0  0  0  0  0
   -0.5151    2.0333    0.0894 H   0  0  0  0  0  0  0  0  0  0  0  0
   -2.7851    1.0683    0.1996 H   0  0  0  0  0  0  0  0  0  0  0  0
    1.6198    1.0676   -0.5559 N   0  0  0  0  0  0  0  0  0  0  0  0
    2.7772    0.5826   -0.9038 N   0  0  0  0  0  0  0  0  0  0  0  0
    3.2030   -0.3685   -1.2578 Cl  0  0  0  0  0  0  0  0  0  0  0  0
   -3.3420   -1.5412   -0.4570 O   0  0  0  0  0  0  0  0  0  0  0  0
   -4.4960   -0.8148   -0.0594 C   0  0  0  0  0  0  0  0  0  0  0  0
   -5.3301   -1.5147   -0.1295 H   0  0  0  0  0  0  0  0  0  0  0  0
   -4.6843    0.0388   -0.7227 H   0  0  0  0  0  0  0  0  0  0  0  0
   -4.4119   -0.4556    0.9737 H   0  0  0  0  0  0  0  0  0  0  0  0
  1  6  1  0  0  0  0
  2  1  2  0  0  0  0
  2  3  1  0  0  0  0
  3 11  1  0  0  0  0
  3  4  2  0  0  0  0
  4  5  1  0  0  0  0
  4  9  1  0  0  0  0
  5 10  1  0  0  0  0
  6 14  1  0  0  0  0
  6  5  2  0  0  0  0
  7  1  1  0  0  0  0
  8  2  1  0  0  0  0
 12 11  2  0  0  0  0
 13 12  1  0  0  0  0
 14 15  1  0  0  0  0
 15 18  1  0  0  0  0
 16 15  1  0  0  0  0
 17 15  1  0  0  0  0
M  END
