Coordinates from ORCA-job p-CH3O-Ph-N2-X-Cl-B3LYPG-6-31G_dp-scan-d09-49-n400
 OpenBabel08281821033D

 18 17  0  0  0  0  0  0  0  0999 V2000
   -0.9716   -1.5406   -0.8989 C   0  0  0  0  0  0  0  0  0  0  0  0
    0.2697   -0.9382   -0.9279 C   0  0  0  0  0  0  0  0  0  0  0  0
    0.3386    0.4101   -0.5141 C   0  0  0  0  0  0  0  0  0  0  0  0
   -0.7778    1.1444   -0.0842 C   0  0  0  0  0  0  0  0  0  0  0  0
   -2.0116    0.5190   -0.0638 C   0  0  0  0  0  0  0  0  0  0  0  0
   -2.1141   -0.8299   -0.4729 C   0  0  0  0  0  0  0  0  0  0  0  0
   -1.0911   -2.5740   -1.2049 H   0  0  0  0  0  0  0  0  0  0  0  0
    1.1925   -1.4489   -1.2529 H   0  0  0  0  0  0  0  0  0  0  0  0
   -0.6696    2.1784    0.2244 H   0  0  0  0  0  0  0  0  0  0  0  0
   -2.8827    1.0702    0.2648 H   0  0  0  0  0  0  0  0  0  0  0  0
    1.5760    1.0206   -0.5405 N   0  0  0  0  0  0  0  0  0  0  0  0
    2.6883    1.1548   -0.6957 N   0  0  0  0  0  0  0  0  0  0  0  0
    3.3236   -1.7980   -1.7397 Cl  0  0  0  0  0  0  0  0  0  0  0  0
   -3.2640   -1.5228   -0.4907 O   0  0  0  0  0  0  0  0  0  0  0  0
   -4.4782   -0.8917   -0.0789 C   0  0  0  0  0  0  0  0  0  0  0  0
   -5.2538   -1.6491   -0.1904 H   0  0  0  0  0  0  0  0  0  0  0  0
   -4.7135   -0.0322   -0.7161 H   0  0  0  0  0  0  0  0  0  0  0  0
   -4.4242   -0.5751    0.9683 H   0  0  0  0  0  0  0  0  0  0  0  0
  1  6  1  0  0  0  0
  2  1  2  0  0  0  0
  2  3  1  0  0  0  0
  3  4  2  0  0  0  0
  4  5  1  0  0  0  0
  4  9  1  0  0  0  0
  5 10  1  0  0  0  0
  6  5  2  0  0  0  0
  7  1  1  0  0  0  0
  8  2  1  0  0  0  0
 11  3  1  0  0  0  0
 12 11  1  0  0  0  0
 14  6  1  0  0  0  0
 14 15  1  0  0  0  0
 15 18  1  0  0  0  0
 16 15  1  0  0  0  0
 17 15  1  0  0  0  0
M  RAD  3  11   2  12   3  13   2
M  END
