Coordinates from ORCA-job p-CH3O-Ph-N2-X-Cl-B3LYPG-6-31G_dp-scan-d09-49-n400
 OpenBabel08281821033D

 18 18  0  0  0  0  0  0  0  0999 V2000
   -1.0400   -1.6546   -0.8814 C   0  0  0  0  0  0  0  0  0  0  0  0
    0.2343   -1.1009   -0.9413 C   0  0  0  0  0  0  0  0  0  0  0  0
    0.4485    0.2596   -0.5882 C   0  0  0  0  0  0  0  0  0  0  0  0
   -0.6820    1.0002   -0.1811 C   0  0  0  0  0  0  0  0  0  0  0  0
   -1.9551    0.4506   -0.1200 C   0  0  0  0  0  0  0  0  0  0  0  0
   -2.1433   -0.8940   -0.4744 C   0  0  0  0  0  0  0  0  0  0  0  0
   -1.2028   -2.6926   -1.1527 H   0  0  0  0  0  0  0  0  0  0  0  0
    1.0494   -1.7326   -1.2629 H   0  0  0  0  0  0  0  0  0  0  0  0
   -0.5202    2.0387    0.0893 H   0  0  0  0  0  0  0  0  0  0  0  0
   -2.7862    1.0677    0.1997 H   0  0  0  0  0  0  0  0  0  0  0  0
    1.6247    1.0586   -0.5649 N   0  0  0  0  0  0  0  0  0  0  0  0
    2.7594    0.5003   -0.9208 N   0  0  0  0  0  0  0  0  0  0  0  0
    3.2123   -0.3124   -1.2293 Cl  0  0  0  0  0  0  0  0  0  0  0  0
   -3.3426   -1.5423   -0.4570 O   0  0  0  0  0  0  0  0  0  0  0  0
   -4.4950   -0.8160   -0.0578 C   0  0  0  0  0  0  0  0  0  0  0  0
   -5.3300   -1.5151   -0.1267 H   0  0  0  0  0  0  0  0  0  0  0  0
   -4.6846    0.0383   -0.7201 H   0  0  0  0  0  0  0  0  0  0  0  0
   -4.4100   -0.4565    0.9754 H   0  0  0  0  0  0  0  0  0  0  0  0
  1  6  1  0  0  0  0
  2  1  2  0  0  0  0
  2  3  1  0  0  0  0
  3 11  1  0  0  0  0
  3  4  2  0  0  0  0
  4  5  1  0  0  0  0
  4  9  1  0  0  0  0
  5 10  1  0  0  0  0
  6 14  1  0  0  0  0
  6  5  2  0  0  0  0
  7  1  1  0  0  0  0
  8  2  1  0  0  0  0
 12 11  2  0  0  0  0
 13 12  1  0  0  0  0
 14 15  1  0  0  0  0
 15 18  1  0  0  0  0
 16 15  1  0  0  0  0
 17 15  1  0  0  0  0
M  END
