Coordinates from ORCA-job p-CH3O-Ph-N2-X-Cl-B3LYPG-6-31G_dp-scan-d09-49-n400
 OpenBabel08281821033D

 18 17  0  0  0  0  0  0  0  0999 V2000
   -0.8902   -1.5009   -0.9027 C   0  0  0  0  0  0  0  0  0  0  0  0
    0.3406   -0.8764   -0.9218 C   0  0  0  0  0  0  0  0  0  0  0  0
    0.3764    0.4764   -0.4990 C   0  0  0  0  0  0  0  0  0  0  0  0
   -0.7726    1.1888   -0.0693 C   0  0  0  0  0  0  0  0  0  0  0  0
   -1.9822    0.5322   -0.0642 C   0  0  0  0  0  0  0  0  0  0  0  0
   -2.0510   -0.8235   -0.4833 C   0  0  0  0  0  0  0  0  0  0  0  0
   -0.9656   -2.5361   -1.2182 H   0  0  0  0  0  0  0  0  0  0  0  0
    1.2584   -1.4263   -1.2582 H   0  0  0  0  0  0  0  0  0  0  0  0
   -0.6961    2.2235    0.2468 H   0  0  0  0  0  0  0  0  0  0  0  0
   -2.8690    1.0604    0.2610 H   0  0  0  0  0  0  0  0  0  0  0  0
    1.5607    1.1431   -0.4973 N   0  0  0  0  0  0  0  0  0  0  0  0
    2.5115    1.7432   -0.4756 N   0  0  0  0  0  0  0  0  0  0  0  0
    2.7425   -2.6237   -1.9002 Cl  0  0  0  0  0  0  0  0  0  0  0  0
   -3.1858   -1.5349   -0.5106 O   0  0  0  0  0  0  0  0  0  0  0  0
   -4.4184   -0.9350   -0.1036 C   0  0  0  0  0  0  0  0  0  0  0  0
   -5.1735   -1.7114   -0.2236 H   0  0  0  0  0  0  0  0  0  0  0  0
   -4.6706   -0.0794   -0.7395 H   0  0  0  0  0  0  0  0  0  0  0  0
   -4.3783   -0.6228    0.9454 H   0  0  0  0  0  0  0  0  0  0  0  0
  1  6  1  0  0  0  0
  2  1  2  0  0  0  0
  2  3  1  0  0  0  0
  3 11  1  0  0  0  0
  3  4  2  0  0  0  0
  4  5  1  0  0  0  0
  4  9  1  0  0  0  0
  5 10  1  0  0  0  0
  6  5  2  0  0  0  0
  7  1  1  0  0  0  0
  8  2  1  0  0  0  0
 11 12  1  0  0  0  0
 14  6  1  0  0  0  0
 14 15  1  0  0  0  0
 15 18  1  0  0  0  0
 16 15  1  0  0  0  0
 17 15  1  0  0  0  0
M  RAD  3  11   2  12   3  13   2
M  END
