Coordinates from ORCA-job p-CH3O-Ph-N2-X-Cl-B3LYPG-6-31G_dp-scan-d09-49-n400
 OpenBabel08281821033D

 18 18  0  0  0  0  0  0  0  0999 V2000
   -1.0377   -1.6618   -0.8647 C   0  0  0  0  0  0  0  0  0  0  0  0
    0.2360   -1.1128   -0.9201 C   0  0  0  0  0  0  0  0  0  0  0  0
    0.4508    0.2486   -0.5707 C   0  0  0  0  0  0  0  0  0  0  0  0
   -0.6787    0.9918   -0.1686 C   0  0  0  0  0  0  0  0  0  0  0  0
   -1.9558    0.4501   -0.1162 C   0  0  0  0  0  0  0  0  0  0  0  0
   -2.1434   -0.8943   -0.4690 C   0  0  0  0  0  0  0  0  0  0  0  0
   -1.2030   -2.7007   -1.1310 H   0  0  0  0  0  0  0  0  0  0  0  0
    1.0456   -1.7543   -1.2308 H   0  0  0  0  0  0  0  0  0  0  0  0
   -0.5107    2.0281    0.1051 H   0  0  0  0  0  0  0  0  0  0  0  0
   -2.7866    1.0702    0.1977 H   0  0  0  0  0  0  0  0  0  0  0  0
    1.6198    1.0620   -0.5209 N   0  0  0  0  0  0  0  0  0  0  0  0
    2.7844    0.6718   -0.8970 N   0  0  0  0  0  0  0  0  0  0  0  0
    3.1877   -0.4250   -1.3704 Cl  0  0  0  0  0  0  0  0  0  0  0  0
   -3.3399   -1.5390   -0.4597 O   0  0  0  0  0  0  0  0  0  0  0  0
   -4.4984   -0.8122   -0.0722 C   0  0  0  0  0  0  0  0  0  0  0  0
   -5.3310   -1.5130   -0.1485 H   0  0  0  0  0  0  0  0  0  0  0  0
   -4.6807    0.0401   -0.7383 H   0  0  0  0  0  0  0  0  0  0  0  0
   -4.4219   -0.4525    0.9612 H   0  0  0  0  0  0  0  0  0  0  0  0
  1  6  1  0  0  0  0
  2  1  2  0  0  0  0
  2  3  1  0  0  0  0
  3 11  1  0  0  0  0
  3  4  2  0  0  0  0
  4  5  1  0  0  0  0
  4  9  1  0  0  0  0
  5 10  1  0  0  0  0
  6 14  1  0  0  0  0
  6  5  2  0  0  0  0
  7  1  1  0  0  0  0
  8  2  1  0  0  0  0
 12 11  2  0  0  0  0
 13 12  1  0  0  0  0
 14 15  1  0  0  0  0
 15 18  1  0  0  0  0
 16 15  1  0  0  0  0
 17 15  1  0  0  0  0
M  END
