Coordinates from ORCA-job p-CH3O-Ph-N2-X-Cl-B3LYPG-6-31G_dp-scan-d09-49-n400
 OpenBabel08281821033D

 18 17  0  0  0  0  0  0  0  0999 V2000
   -1.0187   -1.5874   -0.9033 C   0  0  0  0  0  0  0  0  0  0  0  0
    0.2354   -1.0094   -0.9423 C   0  0  0  0  0  0  0  0  0  0  0  0
    0.3597    0.3358   -0.5399 C   0  0  0  0  0  0  0  0  0  0  0  0
   -0.7445    1.0816   -0.1087 C   0  0  0  0  0  0  0  0  0  0  0  0
   -1.9998    0.4913   -0.0733 C   0  0  0  0  0  0  0  0  0  0  0  0
   -2.1416   -0.8508   -0.4732 C   0  0  0  0  0  0  0  0  0  0  0  0
   -1.1651   -2.6189   -1.2037 H   0  0  0  0  0  0  0  0  0  0  0  0
    1.1196   -1.5499   -1.2693 H   0  0  0  0  0  0  0  0  0  0  0  0
   -0.6075    2.1140    0.1937 H   0  0  0  0  0  0  0  0  0  0  0  0
   -2.8517    1.0693    0.2599 H   0  0  0  0  0  0  0  0  0  0  0  0
    1.5958    0.9806   -0.5573 N   0  0  0  0  0  0  0  0  0  0  0  0
    2.7278    0.9189   -0.7805 N   0  0  0  0  0  0  0  0  0  0  0  0
    3.4869   -1.1935   -1.5827 Cl  0  0  0  0  0  0  0  0  0  0  0  0
   -3.3109   -1.5218   -0.4811 O   0  0  0  0  0  0  0  0  0  0  0  0
   -4.5006   -0.8540   -0.0644 C   0  0  0  0  0  0  0  0  0  0  0  0
   -5.3012   -1.5868   -0.1666 H   0  0  0  0  0  0  0  0  0  0  0  0
   -4.7156    0.0110   -0.7022 H   0  0  0  0  0  0  0  0  0  0  0  0
   -4.4315   -0.5330    0.9810 H   0  0  0  0  0  0  0  0  0  0  0  0
  1  6  1  0  0  0  0
  2  1  2  0  0  0  0
  2  3  1  0  0  0  0
  3  4  2  0  0  0  0
  4  5  1  0  0  0  0
  4  9  1  0  0  0  0
  5 10  1  0  0  0  0
  6  5  2  0  0  0  0
  7  1  1  0  0  0  0
  8  2  1  0  0  0  0
 11  3  1  0  0  0  0
 12 11  2  0  0  0  0
 14  6  1  0  0  0  0
 14 15  1  0  0  0  0
 15 18  1  0  0  0  0
 16 15  1  0  0  0  0
 17 15  1  0  0  0  0
M  RAD  2  12   2  13   2
M  END
