Coordinates from ORCA-job p-CH3O-Ph-N2-X-Cl-B3LYPG-6-31G_dp-scan-d09-49-n400
 OpenBabel08281821033D

 18 17  0  0  0  0  0  0  0  0999 V2000
   -0.8800   -1.4921   -0.9021 C   0  0  0  0  0  0  0  0  0  0  0  0
    0.3478   -0.8619   -0.9188 C   0  0  0  0  0  0  0  0  0  0  0  0
    0.3773    0.4903   -0.4949 C   0  0  0  0  0  0  0  0  0  0  0  0
   -0.7757    1.1975   -0.0660 C   0  0  0  0  0  0  0  0  0  0  0  0
   -1.9823    0.5354   -0.0632 C   0  0  0  0  0  0  0  0  0  0  0  0
   -2.0445   -0.8205   -0.4837 C   0  0  0  0  0  0  0  0  0  0  0  0
   -0.9475   -2.5275   -1.2191 H   0  0  0  0  0  0  0  0  0  0  0  0
    1.2623   -1.4156   -1.2557 H   0  0  0  0  0  0  0  0  0  0  0  0
   -0.7041    2.2321    0.2512 H   0  0  0  0  0  0  0  0  0  0  0  0
   -2.8719    1.0593    0.2613 H   0  0  0  0  0  0  0  0  0  0  0  0
    1.5590    1.1598   -0.4917 N   0  0  0  0  0  0  0  0  0  0  0  0
    2.5125    1.7561   -0.4715 N   0  0  0  0  0  0  0  0  0  0  0  0
    2.6760   -2.6938   -1.9100 Cl  0  0  0  0  0  0  0  0  0  0  0  0
   -3.1760   -1.5370   -0.5131 O   0  0  0  0  0  0  0  0  0  0  0  0
   -4.4117   -0.9430   -0.1073 C   0  0  0  0  0  0  0  0  0  0  0  0
   -5.1631   -1.7227   -0.2285 H   0  0  0  0  0  0  0  0  0  0  0  0
   -4.6672   -0.0882   -0.7429 H   0  0  0  0  0  0  0  0  0  0  0  0
   -4.3742   -0.6311    0.9419 H   0  0  0  0  0  0  0  0  0  0  0  0
  1  6  1  0  0  0  0
  2  1  2  0  0  0  0
  2  3  1  0  0  0  0
  3 11  1  0  0  0  0
  3  4  2  0  0  0  0
  4  5  1  0  0  0  0
  4  9  1  0  0  0  0
  5 10  1  0  0  0  0
  6  5  2  0  0  0  0
  7  1  1  0  0  0  0
  8  2  1  0  0  0  0
 11 12  1  0  0  0  0
 14  6  1  0  0  0  0
 14 15  1  0  0  0  0
 15 18  1  0  0  0  0
 16 15  1  0  0  0  0
 17 15  1  0  0  0  0
M  RAD  3  11   2  12   3  13   2
M  END
