Coordinates from ORCA-job p-CH3O-Ph-N2-X-Cl-B3LYPG-6-31G_dp-scan-d09-49-n400
 OpenBabel08281821033D

 18 17  0  0  0  0  0  0  0  0999 V2000
   -0.9994   -1.6302   -0.9224 C   0  0  0  0  0  0  0  0  0  0  0  0
    0.2645   -1.0736   -0.9693 C   0  0  0  0  0  0  0  0  0  0  0  0
    0.4079    0.2604   -0.5726 C   0  0  0  0  0  0  0  0  0  0  0  0
   -0.6790    1.0425   -0.1328 C   0  0  0  0  0  0  0  0  0  0  0  0
   -1.9372    0.4710   -0.0914 C   0  0  0  0  0  0  0  0  0  0  0  0
   -2.1061   -0.8748   -0.4885 C   0  0  0  0  0  0  0  0  0  0  0  0
   -1.1610   -2.6600   -1.2201 H   0  0  0  0  0  0  0  0  0  0  0  0
    1.1661   -1.6138   -1.2995 H   0  0  0  0  0  0  0  0  0  0  0  0
   -0.5250    2.0738    0.1672 H   0  0  0  0  0  0  0  0  0  0  0  0
   -2.7765    1.0658    0.2451 H   0  0  0  0  0  0  0  0  0  0  0  0
    1.6554    0.9081   -0.5889 N   0  0  0  0  0  0  0  0  0  0  0  0
    2.2566    1.8503   -0.3975 N   0  0  0  0  0  0  0  0  0  0  0  0
    3.2472   -1.7573   -1.7189 Cl  0  0  0  0  0  0  0  0  0  0  0  0
   -3.2863   -1.5167   -0.4852 O   0  0  0  0  0  0  0  0  0  0  0  0
   -4.4643   -0.8283   -0.0619 C   0  0  0  0  0  0  0  0  0  0  0  0
   -5.2757   -1.5493   -0.1589 H   0  0  0  0  0  0  0  0  0  0  0  0
   -4.6681    0.0379   -0.7010 H   0  0  0  0  0  0  0  0  0  0  0  0
   -4.3828   -0.5087    0.9827 H   0  0  0  0  0  0  0  0  0  0  0  0
  1  6  1  0  0  0  0
  2  1  2  0  0  0  0
  2  3  1  0  0  0  0
  3  4  2  0  0  0  0
  4  5  1  0  0  0  0
  4  9  1  0  0  0  0
  5 10  1  0  0  0  0
  6 14  1  0  0  0  0
  6  5  2  0  0  0  0
  7  1  1  0  0  0  0
  8  2  1  0  0  0  0
 11  3  1  0  0  0  0
 11 12  2  0  0  0  0
 14 15  1  0  0  0  0
 15 18  1  0  0  0  0
 16 15  1  0  0  0  0
 17 15  1  0  0  0  0
M  RAD  2  12   2  13   2
M  END
