Coordinates from ORCA-job p-CH3O-Ph-N2-X-Cl-B3LYPG-6-31G_dp-scan-d09-49-n400
 OpenBabel08281821033D

 18 17  0  0  0  0  0  0  0  0999 V2000
   -0.9567   -1.5790   -0.9141 C   0  0  0  0  0  0  0  0  0  0  0  0
    0.2947   -0.9963   -0.9508 C   0  0  0  0  0  0  0  0  0  0  0  0
    0.3960    0.3462   -0.5434 C   0  0  0  0  0  0  0  0  0  0  0  0
   -0.7170    1.1011   -0.1069 C   0  0  0  0  0  0  0  0  0  0  0  0
   -1.9568    0.4968   -0.0792 C   0  0  0  0  0  0  0  0  0  0  0  0
   -2.0858   -0.8539   -0.4854 C   0  0  0  0  0  0  0  0  0  0  0  0
   -1.0870   -2.6114   -1.2187 H   0  0  0  0  0  0  0  0  0  0  0  0
    1.2123   -1.5337   -1.2841 H   0  0  0  0  0  0  0  0  0  0  0  0
   -0.5932    2.1345    0.1996 H   0  0  0  0  0  0  0  0  0  0  0  0
   -2.8152    1.0659    0.2532 H   0  0  0  0  0  0  0  0  0  0  0  0
    1.6077    1.0153   -0.5469 N   0  0  0  0  0  0  0  0  0  0  0  0
    2.3464    1.8587   -0.4119 N   0  0  0  0  0  0  0  0  0  0  0  0
    3.0842   -2.1779   -1.8207 Cl  0  0  0  0  0  0  0  0  0  0  0  0
   -3.2475   -1.5228   -0.4942 O   0  0  0  0  0  0  0  0  0  0  0  0
   -4.4496   -0.8701   -0.0779 C   0  0  0  0  0  0  0  0  0  0  0  0
   -5.2380   -1.6145   -0.1856 H   0  0  0  0  0  0  0  0  0  0  0  0
   -4.6723   -0.0078   -0.7157 H   0  0  0  0  0  0  0  0  0  0  0  0
   -4.3855   -0.5541    0.9688 H   0  0  0  0  0  0  0  0  0  0  0  0
  1  6  1  0  0  0  0
  2  1  2  0  0  0  0
  2  3  1  0  0  0  0
  3  4  2  0  0  0  0
  4  5  1  0  0  0  0
  4  9  1  0  0  0  0
  5 10  1  0  0  0  0
  6  5  2  0  0  0  0
  7  1  1  0  0  0  0
  8  2  1  0  0  0  0
 11  3  1  0  0  0  0
 11 12  1  0  0  0  0
 14  6  1  0  0  0  0
 14 15  1  0  0  0  0
 15 18  1  0  0  0  0
 16 15  1  0  0  0  0
 17 15  1  0  0  0  0
M  RAD  3  11   2  12   3  13   2
M  END
