Coordinates from ORCA-job p-CH3O-Ph-N2-X-Cl-B3LYPG-6-31G_dp-scan-d09-49-n400
 OpenBabel08281821033D

 18 18  0  0  0  0  0  0  0  0999 V2000
   -1.0025   -1.6923   -0.7394 C   0  0  0  0  0  0  0  0  0  0  0  0
    0.2730   -1.1519   -0.7414 C   0  0  0  0  0  0  0  0  0  0  0  0
    0.4597    0.2068   -0.4112 C   0  0  0  0  0  0  0  0  0  0  0  0
   -0.6546    0.9773   -0.0496 C   0  0  0  0  0  0  0  0  0  0  0  0
   -1.9412    0.4497   -0.0855 C   0  0  0  0  0  0  0  0  0  0  0  0
   -2.1207   -0.8970   -0.4334 C   0  0  0  0  0  0  0  0  0  0  0  0
   -1.1648   -2.7378   -0.9788 H   0  0  0  0  0  0  0  0  0  0  0  0
    1.1169   -1.7878   -0.9696 H   0  0  0  0  0  0  0  0  0  0  0  0
   -0.4912    2.0071    0.2502 H   0  0  0  0  0  0  0  0  0  0  0  0
   -2.7827    1.0786    0.1761 H   0  0  0  0  0  0  0  0  0  0  0  0
    1.6960    0.8839   -0.2789 N   0  0  0  0  0  0  0  0  0  0  0  0
    2.7408    0.7706   -0.9259 N   0  0  0  0  0  0  0  0  0  0  0  0
    2.8592   -0.2741   -2.2130 Cl  0  0  0  0  0  0  0  0  0  0  0  0
   -3.3214   -1.5271   -0.4877 O   0  0  0  0  0  0  0  0  0  0  0  0
   -4.4957   -0.7829   -0.1868 C   0  0  0  0  0  0  0  0  0  0  0  0
   -5.3284   -1.4763   -0.3101 H   0  0  0  0  0  0  0  0  0  0  0  0
   -4.6228    0.0623   -0.8742 H   0  0  0  0  0  0  0  0  0  0  0  0
   -4.4830   -0.4119    0.8451 H   0  0  0  0  0  0  0  0  0  0  0  0
  1  6  1  0  0  0  0
  2  1  2  0  0  0  0
  2  3  1  0  0  0  0
  3 11  1  0  0  0  0
  3  4  2  0  0  0  0
  4  9  1  0  0  0  0
  5  4  1  0  0  0  0
  5 10  1  0  0  0  0
  6  5  2  0  0  0  0
  7  1  1  0  0  0  0
  8  2  1  0  0  0  0
 12 11  2  0  0  0  0
 13 12  1  0  0  0  0
 14  6  1  0  0  0  0
 14 15  1  0  0  0  0
 15 18  1  0  0  0  0
 16 15  1  0  0  0  0
 17 15  1  0  0  0  0
M  END
