Coordinates from ORCA-job p-CH3O-Ph-N2-X-Cl-B3LYPG-6-31G_dp-scan-d09-49-n400
 OpenBabel08281821033D

 18 17  0  0  0  0  0  0  0  0999 V2000
   -0.9972   -1.5616   -0.9002 C   0  0  0  0  0  0  0  0  0  0  0  0
    0.2495   -0.9694   -0.9336 C   0  0  0  0  0  0  0  0  0  0  0  0
    0.3429    0.3768   -0.5250 C   0  0  0  0  0  0  0  0  0  0  0  0
   -0.7657    1.1167   -0.0945 C   0  0  0  0  0  0  0  0  0  0  0  0
   -2.0101    0.5068   -0.0670 C   0  0  0  0  0  0  0  0  0  0  0  0
   -2.1307   -0.8385   -0.4719 C   0  0  0  0  0  0  0  0  0  0  0  0
   -1.1296   -2.5941   -1.2036 H   0  0  0  0  0  0  0  0  0  0  0  0
    1.1559   -1.4877   -1.2580 H   0  0  0  0  0  0  0  0  0  0  0  0
   -0.6440    2.1500    0.2114 H   0  0  0  0  0  0  0  0  0  0  0  0
   -2.8724    1.0703    0.2640 H   0  0  0  0  0  0  0  0  0  0  0  0
    1.5856    0.9978   -0.5505 N   0  0  0  0  0  0  0  0  0  0  0  0
    2.7092    1.0047   -0.7493 N   0  0  0  0  0  0  0  0  0  0  0  0
    3.4548   -1.4941   -1.6674 Cl  0  0  0  0  0  0  0  0  0  0  0  0
   -3.2896   -1.5218   -0.4853 O   0  0  0  0  0  0  0  0  0  0  0  0
   -4.4924   -0.8735   -0.0713 C   0  0  0  0  0  0  0  0  0  0  0  0
   -5.2800   -1.6192   -0.1789 H   0  0  0  0  0  0  0  0  0  0  0  0
   -4.7179   -0.0109   -0.7084 H   0  0  0  0  0  0  0  0  0  0  0  0
   -4.4315   -0.5551    0.9753 H   0  0  0  0  0  0  0  0  0  0  0  0
  1  6  1  0  0  0  0
  2  1  2  0  0  0  0
  2  3  1  0  0  0  0
  3  4  2  0  0  0  0
  4  5  1  0  0  0  0
  4  9  1  0  0  0  0
  5 10  1  0  0  0  0
  6  5  2  0  0  0  0
  7  1  1  0  0  0  0
  8  2  1  0  0  0  0
 11  3  1  0  0  0  0
 12 11  2  0  0  0  0
 14  6  1  0  0  0  0
 14 15  1  0  0  0  0
 15 18  1  0  0  0  0
 16 15  1  0  0  0  0
 17 15  1  0  0  0  0
M  RAD  2  12   2  13   2
M  END
