Coordinates from ORCA-job p-CH3O-Ph-N2-X-Cl-B3LYPG-6-31G_dp-scan-d09-49-n400
 OpenBabel08281821033D

 18 17  0  0  0  0  0  0  0  0999 V2000
   -0.9642   -1.5371   -0.8994 C   0  0  0  0  0  0  0  0  0  0  0  0
    0.2766   -0.9336   -0.9277 C   0  0  0  0  0  0  0  0  0  0  0  0
    0.3402    0.4157   -0.5125 C   0  0  0  0  0  0  0  0  0  0  0  0
   -0.7785    1.1497   -0.0825 C   0  0  0  0  0  0  0  0  0  0  0  0
   -2.0095    0.5211   -0.0638 C   0  0  0  0  0  0  0  0  0  0  0  0
   -2.1082   -0.8291   -0.4740 C   0  0  0  0  0  0  0  0  0  0  0  0
   -1.0808   -2.5708   -1.2059 H   0  0  0  0  0  0  0  0  0  0  0  0
    1.2038   -1.4447   -1.2533 H   0  0  0  0  0  0  0  0  0  0  0  0
   -0.6733    2.1838    0.2268 H   0  0  0  0  0  0  0  0  0  0  0  0
   -2.8824    1.0697    0.2642 H   0  0  0  0  0  0  0  0  0  0  0  0
    1.5738    1.0244   -0.5386 N   0  0  0  0  0  0  0  0  0  0  0  0
    2.6772    1.2187   -0.6731 N   0  0  0  0  0  0  0  0  0  0  0  0
    3.2685   -1.8808   -1.7562 Cl  0  0  0  0  0  0  0  0  0  0  0  0
   -3.2566   -1.5231   -0.4923 O   0  0  0  0  0  0  0  0  0  0  0  0
   -4.4731   -0.8955   -0.0809 C   0  0  0  0  0  0  0  0  0  0  0  0
   -5.2461   -1.6553   -0.1930 H   0  0  0  0  0  0  0  0  0  0  0  0
   -4.7104   -0.0366   -0.7181 H   0  0  0  0  0  0  0  0  0  0  0  0
   -4.4202   -0.5793    0.9665 H   0  0  0  0  0  0  0  0  0  0  0  0
  1  6  1  0  0  0  0
  2  1  2  0  0  0  0
  2  3  1  0  0  0  0
  3  4  2  0  0  0  0
  4  5  1  0  0  0  0
  4  9  1  0  0  0  0
  5 10  1  0  0  0  0
  6  5  2  0  0  0  0
  7  1  1  0  0  0  0
  8  2  1  0  0  0  0
 11  3  1  0  0  0  0
 12 11  1  0  0  0  0
 14  6  1  0  0  0  0
 14 15  1  0  0  0  0
 15 18  1  0  0  0  0
 16 15  1  0  0  0  0
 17 15  1  0  0  0  0
M  RAD  3  11   2  12   3  13   2
M  END
