Coordinates from ORCA-job p-CH3O-Ph-N2-X-Cl-B3LYPG-6-31G_dp-scan-d09-49-n400
 OpenBabel08281821033D

 18 17  0  0  0  0  0  0  0  0999 V2000
   -0.9625   -1.5369   -0.8998 C   0  0  0  0  0  0  0  0  0  0  0  0
    0.2783   -0.9335   -0.9282 C   0  0  0  0  0  0  0  0  0  0  0  0
    0.3409    0.4162   -0.5126 C   0  0  0  0  0  0  0  0  0  0  0  0
   -0.7782    1.1505   -0.0823 C   0  0  0  0  0  0  0  0  0  0  0  0
   -2.0085    0.5213   -0.0640 C   0  0  0  0  0  0  0  0  0  0  0  0
   -2.1066   -0.8293   -0.4745 C   0  0  0  0  0  0  0  0  0  0  0  0
   -1.0787   -2.5706   -1.2065 H   0  0  0  0  0  0  0  0  0  0  0  0
    1.2071   -1.4445   -1.2540 H   0  0  0  0  0  0  0  0  0  0  0  0
   -0.6736    2.1847    0.2271 H   0  0  0  0  0  0  0  0  0  0  0  0
   -2.8817    1.0694    0.2639 H   0  0  0  0  0  0  0  0  0  0  0  0
    1.5734    1.0240   -0.5387 N   0  0  0  0  0  0  0  0  0  0  0  0
    2.6729    1.2397   -0.6656 N   0  0  0  0  0  0  0  0  0  0  0  0
    3.2526   -1.9013   -1.7594 Cl  0  0  0  0  0  0  0  0  0  0  0  0
   -3.2548   -1.5231   -0.4928 O   0  0  0  0  0  0  0  0  0  0  0  0
   -4.4716   -0.8960   -0.0812 C   0  0  0  0  0  0  0  0  0  0  0  0
   -5.2442   -1.6563   -0.1934 H   0  0  0  0  0  0  0  0  0  0  0  0
   -4.7093   -0.0373   -0.7184 H   0  0  0  0  0  0  0  0  0  0  0  0
   -4.4189   -0.5800    0.9662 H   0  0  0  0  0  0  0  0  0  0  0  0
  1  6  1  0  0  0  0
  2  1  2  0  0  0  0
  2  3  1  0  0  0  0
  3  4  2  0  0  0  0
  4  5  1  0  0  0  0
  4  9  1  0  0  0  0
  5 10  1  0  0  0  0
  6  5  2  0  0  0  0
  7  1  1  0  0  0  0
  8  2  1  0  0  0  0
 11  3  1  0  0  0  0
 12 11  1  0  0  0  0
 14  6  1  0  0  0  0
 14 15  1  0  0  0  0
 15 18  1  0  0  0  0
 16 15  1  0  0  0  0
 17 15  1  0  0  0  0
M  RAD  3  11   2  12   3  13   2
M  END
