Coordinates from ORCA-job p-CH3O-Ph-N2-X-Cl-B3LYPG-6-31G_dp-scan-d09-49-n400
 OpenBabel08281821033D

 18 17  0  0  0  0  0  0  0  0999 V2000
   -1.0216   -1.5920   -0.9035 C   0  0  0  0  0  0  0  0  0  0  0  0
    0.2336   -1.0161   -0.9433 C   0  0  0  0  0  0  0  0  0  0  0  0
    0.3637    0.3288   -0.5423 C   0  0  0  0  0  0  0  0  0  0  0  0
   -0.7402    1.0752   -0.1113 C   0  0  0  0  0  0  0  0  0  0  0  0
   -1.9974    0.4884   -0.0748 C   0  0  0  0  0  0  0  0  0  0  0  0
   -2.1428   -0.8532   -0.4734 C   0  0  0  0  0  0  0  0  0  0  0  0
   -1.1701   -2.6235   -1.2032 H   0  0  0  0  0  0  0  0  0  0  0  0
    1.1142   -1.5600   -1.2705 H   0  0  0  0  0  0  0  0  0  0  0  0
   -0.6007    2.1076    0.1905 H   0  0  0  0  0  0  0  0  0  0  0  0
   -2.8476    1.0690    0.2584 H   0  0  0  0  0  0  0  0  0  0  0  0
    1.5980    0.9796   -0.5569 N   0  0  0  0  0  0  0  0  0  0  0  0
    2.7318    0.9032   -0.7855 N   0  0  0  0  0  0  0  0  0  0  0  0
    3.4804   -1.1409   -1.5689 Cl  0  0  0  0  0  0  0  0  0  0  0  0
   -3.3139   -1.5221   -0.4804 O   0  0  0  0  0  0  0  0  0  0  0  0
   -4.5013   -0.8508   -0.0637 C   0  0  0  0  0  0  0  0  0  0  0  0
   -5.3041   -1.5814   -0.1646 H   0  0  0  0  0  0  0  0  0  0  0  0
   -4.7144    0.0143   -0.7020 H   0  0  0  0  0  0  0  0  0  0  0  0
   -4.4309   -0.5288    0.9814 H   0  0  0  0  0  0  0  0  0  0  0  0
  1  6  1  0  0  0  0
  2  1  2  0  0  0  0
  2  3  1  0  0  0  0
  3  4  2  0  0  0  0
  4  5  1  0  0  0  0
  4  9  1  0  0  0  0
  5 10  1  0  0  0  0
  6  5  2  0  0  0  0
  7  1  1  0  0  0  0
  8  2  1  0  0  0  0
 11  3  1  0  0  0  0
 12 11  2  0  0  0  0
 14  6  1  0  0  0  0
 14 15  1  0  0  0  0
 15 18  1  0  0  0  0
 16 15  1  0  0  0  0
 17 15  1  0  0  0  0
M  RAD  2  12   2  13   2
M  END
