Coordinates from ORCA-job p-CH3O-Ph-N2-X-Cl-B3LYPG-6-31G_dp-scan-d09-49-n400
 OpenBabel08281821033D

 18 18  0  0  0  0  0  0  0  0999 V2000
   -1.0365   -1.6629   -0.8594 C   0  0  0  0  0  0  0  0  0  0  0  0
    0.2371   -1.1143   -0.9131 C   0  0  0  0  0  0  0  0  0  0  0  0
    0.4508    0.2472   -0.5648 C   0  0  0  0  0  0  0  0  0  0  0  0
   -0.6785    0.9912   -0.1641 C   0  0  0  0  0  0  0  0  0  0  0  0
   -1.9562    0.4505   -0.1151 C   0  0  0  0  0  0  0  0  0  0  0  0
   -2.1431   -0.8940   -0.4675 C   0  0  0  0  0  0  0  0  0  0  0  0
   -1.2017   -2.7021   -1.1242 H   0  0  0  0  0  0  0  0  0  0  0  0
    1.0476   -1.7565   -1.2199 H   0  0  0  0  0  0  0  0  0  0  0  0
   -0.5101    2.0270    0.1110 H   0  0  0  0  0  0  0  0  0  0  0  0
   -2.7874    1.0708    0.1969 H   0  0  0  0  0  0  0  0  0  0  0  0
    1.6203    1.0582   -0.5103 N   0  0  0  0  0  0  0  0  0  0  0  0
    2.7849    0.6915   -0.8964 N   0  0  0  0  0  0  0  0  0  0  0  0
    3.1835   -0.4363   -1.4080 Cl  0  0  0  0  0  0  0  0  0  0  0  0
   -3.3393   -1.5384   -0.4608 O   0  0  0  0  0  0  0  0  0  0  0  0
   -4.4991   -0.8114   -0.0766 C   0  0  0  0  0  0  0  0  0  0  0  0
   -5.3313   -1.5123   -0.1552 H   0  0  0  0  0  0  0  0  0  0  0  0
   -4.6793    0.0407   -0.7435 H   0  0  0  0  0  0  0  0  0  0  0  0
   -4.4253   -0.4517    0.9569 H   0  0  0  0  0  0  0  0  0  0  0  0
  1  6  1  0  0  0  0
  2  1  2  0  0  0  0
  2  3  1  0  0  0  0
  3 11  1  0  0  0  0
  3  4  2  0  0  0  0
  4  5  1  0  0  0  0
  4  9  1  0  0  0  0
  5 10  1  0  0  0  0
  6 14  1  0  0  0  0
  6  5  2  0  0  0  0
  7  1  1  0  0  0  0
  8  2  1  0  0  0  0
 12 11  2  0  0  0  0
 13 12  1  0  0  0  0
 14 15  1  0  0  0  0
 15 18  1  0  0  0  0
 16 15  1  0  0  0  0
 17 15  1  0  0  0  0
M  END
