Coordinates from ORCA-job p-CH3O-Ph-N2-X-Cl-B3LYPG-6-31G_dp-scan-d09-49-n400
 OpenBabel08281821033D

 18 17  0  0  0  0  0  0  0  0999 V2000
   -1.0209   -1.5909   -0.9034 C   0  0  0  0  0  0  0  0  0  0  0  0
    0.2342   -1.0147   -0.9431 C   0  0  0  0  0  0  0  0  0  0  0  0
    0.3630    0.3304   -0.5417 C   0  0  0  0  0  0  0  0  0  0  0  0
   -0.7412    1.0766   -0.1108 C   0  0  0  0  0  0  0  0  0  0  0  0
   -1.9979    0.4891   -0.0744 C   0  0  0  0  0  0  0  0  0  0  0  0
   -2.1425   -0.8526   -0.4734 C   0  0  0  0  0  0  0  0  0  0  0  0
   -1.1689   -2.6223   -1.2033 H   0  0  0  0  0  0  0  0  0  0  0  0
    1.1151   -1.5587   -1.2704 H   0  0  0  0  0  0  0  0  0  0  0  0
   -0.6022    2.1089    0.1912 H   0  0  0  0  0  0  0  0  0  0  0  0
   -2.8485    1.0691    0.2588 H   0  0  0  0  0  0  0  0  0  0  0  0
    1.5972    0.9807   -0.5566 N   0  0  0  0  0  0  0  0  0  0  0  0
    2.7307    0.9088   -0.7837 N   0  0  0  0  0  0  0  0  0  0  0  0
    3.4821   -1.1548   -1.5728 Cl  0  0  0  0  0  0  0  0  0  0  0  0
   -3.3132   -1.5220   -0.4806 O   0  0  0  0  0  0  0  0  0  0  0  0
   -4.5012   -0.8516   -0.0639 C   0  0  0  0  0  0  0  0  0  0  0  0
   -5.3034   -1.5827   -0.1651 H   0  0  0  0  0  0  0  0  0  0  0  0
   -4.7147    0.0136   -0.7020 H   0  0  0  0  0  0  0  0  0  0  0  0
   -4.4311   -0.5298    0.9813 H   0  0  0  0  0  0  0  0  0  0  0  0
  1  6  1  0  0  0  0
  2  1  2  0  0  0  0
  2  3  1  0  0  0  0
  3  4  2  0  0  0  0
  4  5  1  0  0  0  0
  4  9  1  0  0  0  0
  5 10  1  0  0  0  0
  6  5  2  0  0  0  0
  7  1  1  0  0  0  0
  8  2  1  0  0  0  0
 11  3  1  0  0  0  0
 12 11  2  0  0  0  0
 14  6  1  0  0  0  0
 14 15  1  0  0  0  0
 15 18  1  0  0  0  0
 16 15  1  0  0  0  0
 17 15  1  0  0  0  0
M  RAD  2  12   2  13   2
M  END
