Coordinates from ORCA-job p-CH3O-Ph-N2-X-Cl-B3LYPG-6-31G_dp-scan-d09-49-n400
 OpenBabel08281821033D

 18 18  0  0  0  0  0  0  0  0999 V2000
   -1.0041   -1.7121   -0.7215 C   0  0  0  0  0  0  0  0  0  0  0  0
    0.2754   -1.1764   -0.7219 C   0  0  0  0  0  0  0  0  0  0  0  0
    0.4808    0.1844   -0.4068 C   0  0  0  0  0  0  0  0  0  0  0  0
   -0.6365    0.9602   -0.0645 C   0  0  0  0  0  0  0  0  0  0  0  0
   -1.9277    0.4402   -0.0972 C   0  0  0  0  0  0  0  0  0  0  0  0
   -2.1176   -0.9078   -0.4297 C   0  0  0  0  0  0  0  0  0  0  0  0
   -1.1708   -2.7593   -0.9516 H   0  0  0  0  0  0  0  0  0  0  0  0
    1.1103   -1.8326   -0.9347 H   0  0  0  0  0  0  0  0  0  0  0  0
   -0.4695    1.9924    0.2265 H   0  0  0  0  0  0  0  0  0  0  0  0
   -2.7653    1.0785    0.1558 H   0  0  0  0  0  0  0  0  0  0  0  0
    1.7311    0.8600   -0.2350 N   0  0  0  0  0  0  0  0  0  0  0  0
    2.7103    0.6964   -1.0378 N   0  0  0  0  0  0  0  0  0  0  0  0
    2.7606   -0.0461   -2.1414 Cl  0  0  0  0  0  0  0  0  0  0  0  0
   -3.3262   -1.5314   -0.4830 O   0  0  0  0  0  0  0  0  0  0  0  0
   -4.4919   -0.7721   -0.1959 C   0  0  0  0  0  0  0  0  0  0  0  0
   -5.3328   -1.4570   -0.3136 H   0  0  0  0  0  0  0  0  0  0  0  0
   -4.6089    0.0672   -0.8931 H   0  0  0  0  0  0  0  0  0  0  0  0
   -4.4804   -0.3874    0.8314 H   0  0  0  0  0  0  0  0  0  0  0  0
  1  6  1  0  0  0  0
  2  1  2  0  0  0  0
  2  3  1  0  0  0  0
  3 11  1  0  0  0  0
  3  4  2  0  0  0  0
  4  9  1  0  0  0  0
  5  4  1  0  0  0  0
  5 10  1  0  0  0  0
  6  5  2  0  0  0  0
  7  1  1  0  0  0  0
  8  2  1  0  0  0  0
 12 11  2  0  0  0  0
 13 12  1  0  0  0  0
 14  6  1  0  0  0  0
 14 15  1  0  0  0  0
 15 18  1  0  0  0  0
 16 15  1  0  0  0  0
 17 15  1  0  0  0  0
M  END
