Coordinates from ORCA-job p-CH3O-Ph-N2-X-Cl-B3LYPG-6-31G_dp-scan-d09-49-n400
 OpenBabel08281821033D

 18 17  0  0  0  0  0  0  0  0999 V2000
   -0.8828   -1.4946   -0.9023 C   0  0  0  0  0  0  0  0  0  0  0  0
    0.3460   -0.8662   -0.9197 C   0  0  0  0  0  0  0  0  0  0  0  0
    0.3772    0.4866   -0.4960 C   0  0  0  0  0  0  0  0  0  0  0  0
   -0.7748    1.1950   -0.0670 C   0  0  0  0  0  0  0  0  0  0  0  0
   -1.9822    0.5344   -0.0635 C   0  0  0  0  0  0  0  0  0  0  0  0
   -2.0462   -0.8213   -0.4835 C   0  0  0  0  0  0  0  0  0  0  0  0
   -0.9527   -2.5299   -1.2188 H   0  0  0  0  0  0  0  0  0  0  0  0
    1.2613   -1.4193   -1.2566 H   0  0  0  0  0  0  0  0  0  0  0  0
   -0.7020    2.2297    0.2500 H   0  0  0  0  0  0  0  0  0  0  0  0
   -2.8711    1.0595    0.2612 H   0  0  0  0  0  0  0  0  0  0  0  0
    1.5592    1.1561   -0.4929 N   0  0  0  0  0  0  0  0  0  0  0  0
    2.5120    1.7535   -0.4723 N   0  0  0  0  0  0  0  0  0  0  0  0
    2.6945   -2.6755   -1.9077 Cl  0  0  0  0  0  0  0  0  0  0  0  0
   -3.1787   -1.5363   -0.5124 O   0  0  0  0  0  0  0  0  0  0  0  0
   -4.4136   -0.9407   -0.1062 C   0  0  0  0  0  0  0  0  0  0  0  0
   -5.1659   -1.7196   -0.2272 H   0  0  0  0  0  0  0  0  0  0  0  0
   -4.6682   -0.0857   -0.7419 H   0  0  0  0  0  0  0  0  0  0  0  0
   -4.3754   -0.6288    0.9429 H   0  0  0  0  0  0  0  0  0  0  0  0
  1  6  1  0  0  0  0
  2  1  2  0  0  0  0
  2  3  1  0  0  0  0
  3 11  1  0  0  0  0
  3  4  2  0  0  0  0
  4  5  1  0  0  0  0
  4  9  1  0  0  0  0
  5 10  1  0  0  0  0
  6  5  2  0  0  0  0
  7  1  1  0  0  0  0
  8  2  1  0  0  0  0
 11 12  1  0  0  0  0
 14  6  1  0  0  0  0
 14 15  1  0  0  0  0
 15 18  1  0  0  0  0
 16 15  1  0  0  0  0
 17 15  1  0  0  0  0
M  RAD  3  11   2  12   3  13   2
M  END
