Coordinates from ORCA-job p-CH3O-Ph-N2-X-Cl-B3LYPG-6-31G_dp-scan-d09-49-n400
 OpenBabel08281821033D

 18 18  0  0  0  0  0  0  0  0999 V2000
   -1.0258   -1.6461   -0.8449 C   0  0  0  0  0  0  0  0  0  0  0  0
    0.2426   -1.0939   -0.8775 C   0  0  0  0  0  0  0  0  0  0  0  0
    0.4215    0.2585   -0.5072 C   0  0  0  0  0  0  0  0  0  0  0  0
   -0.6928    1.0098   -0.0983 C   0  0  0  0  0  0  0  0  0  0  0  0
   -1.9687    0.4614   -0.0816 C   0  0  0  0  0  0  0  0  0  0  0  0
   -2.1410   -0.8795   -0.4588 C   0  0  0  0  0  0  0  0  0  0  0  0
   -1.1869   -2.6826   -1.1207 H   0  0  0  0  0  0  0  0  0  0  0  0
    1.0849   -1.6989   -1.1762 H   0  0  0  0  0  0  0  0  0  0  0  0
   -0.5320    2.0397    0.2014 H   0  0  0  0  0  0  0  0  0  0  0  0
   -2.8083    1.0703    0.2285 H   0  0  0  0  0  0  0  0  0  0  0  0
    1.6265    0.9791   -0.4534 N   0  0  0  0  0  0  0  0  0  0  0  0
    2.7640    0.8302   -0.8370 N   0  0  0  0  0  0  0  0  0  0  0  0
    3.2455   -0.6619   -1.7658 Cl  0  0  0  0  0  0  0  0  0  0  0  0
   -3.3298   -1.5262   -0.4792 O   0  0  0  0  0  0  0  0  0  0  0  0
   -4.5050   -0.8142   -0.1049 C   0  0  0  0  0  0  0  0  0  0  0  0
   -5.3279   -1.5216   -0.2119 H   0  0  0  0  0  0  0  0  0  0  0  0
   -4.6778    0.0461   -0.7623 H   0  0  0  0  0  0  0  0  0  0  0  0
   -4.4522   -0.4730    0.9357 H   0  0  0  0  0  0  0  0  0  0  0  0
  1  6  1  0  0  0  0
  2  1  2  0  0  0  0
  2  3  1  0  0  0  0
  3 11  1  0  0  0  0
  3  4  2  0  0  0  0
  4  5  1  0  0  0  0
  4  9  1  0  0  0  0
  5 10  1  0  0  0  0
  6  5  2  0  0  0  0
  7  1  1  0  0  0  0
  8  2  1  0  0  0  0
 12 11  2  0  0  0  0
 13 12  1  0  0  0  0
 14  6  1  0  0  0  0
 14 15  1  0  0  0  0
 15 18  1  0  0  0  0
 16 15  1  0  0  0  0
 17 15  1  0  0  0  0
M  END
