Coordinates from ORCA-job p-CH3O-Ph-N2-X-Cl-B3LYPG-6-31G_dp-scan-d09-49-n400
 OpenBabel08281821033D

 18 17  0  0  0  0  0  0  0  0999 V2000
   -0.8862   -1.4976   -0.9025 C   0  0  0  0  0  0  0  0  0  0  0  0
    0.3438   -0.8714   -0.9209 C   0  0  0  0  0  0  0  0  0  0  0  0
    0.3774    0.4813   -0.4977 C   0  0  0  0  0  0  0  0  0  0  0  0
   -0.7733    1.1916   -0.0683 C   0  0  0  0  0  0  0  0  0  0  0  0
   -1.9819    0.5334   -0.0639 C   0  0  0  0  0  0  0  0  0  0  0  0
   -2.0484   -0.8223   -0.4834 C   0  0  0  0  0  0  0  0  0  0  0  0
   -0.9591   -2.5328   -1.2185 H   0  0  0  0  0  0  0  0  0  0  0  0
    1.2594   -1.4243   -1.2578 H   0  0  0  0  0  0  0  0  0  0  0  0
   -0.6984    2.2263    0.2482 H   0  0  0  0  0  0  0  0  0  0  0  0
   -2.8696    1.0602    0.2611 H   0  0  0  0  0  0  0  0  0  0  0  0
    1.5598    1.1509   -0.4947 N   0  0  0  0  0  0  0  0  0  0  0  0
    2.5091    1.7535   -0.4719 N   0  0  0  0  0  0  0  0  0  0  0  0
    2.7164   -2.6540   -1.9050 Cl  0  0  0  0  0  0  0  0  0  0  0  0
   -3.1819   -1.5357   -0.5115 O   0  0  0  0  0  0  0  0  0  0  0  0
   -4.4157   -0.9379   -0.1050 C   0  0  0  0  0  0  0  0  0  0  0  0
   -5.1694   -1.7155   -0.2255 H   0  0  0  0  0  0  0  0  0  0  0  0
   -4.6690   -0.0826   -0.7408 H   0  0  0  0  0  0  0  0  0  0  0  0
   -4.3766   -0.6258    0.9441 H   0  0  0  0  0  0  0  0  0  0  0  0
  1  6  1  0  0  0  0
  2  1  2  0  0  0  0
  2  3  1  0  0  0  0
  3 11  1  0  0  0  0
  3  4  2  0  0  0  0
  4  5  1  0  0  0  0
  4  9  1  0  0  0  0
  5 10  1  0  0  0  0
  6  5  2  0  0  0  0
  7  1  1  0  0  0  0
  8  2  1  0  0  0  0
 11 12  1  0  0  0  0
 14  6  1  0  0  0  0
 14 15  1  0  0  0  0
 15 18  1  0  0  0  0
 16 15  1  0  0  0  0
 17 15  1  0  0  0  0
M  RAD  3  11   2  12   3  13   2
M  END
