Coordinates from ORCA-job p-CH3O-Ph-N2-X-Cl-B3LYPG-6-31G_dp-scan-d09-49-n400
 OpenBabel08281821033D

 18 18  0  0  0  0  0  0  0  0999 V2000
   -0.9994   -1.7071   -0.7182 C   0  0  0  0  0  0  0  0  0  0  0  0
    0.2786   -1.1709   -0.7139 C   0  0  0  0  0  0  0  0  0  0  0  0
    0.4734    0.1888   -0.3948 C   0  0  0  0  0  0  0  0  0  0  0  0
   -0.6405    0.9659   -0.0486 C   0  0  0  0  0  0  0  0  0  0  0  0
   -1.9303    0.4443   -0.0917 C   0  0  0  0  0  0  0  0  0  0  0  0
   -2.1155   -0.9036   -0.4293 C   0  0  0  0  0  0  0  0  0  0  0  0
   -1.1644   -2.7542   -0.9491 H   0  0  0  0  0  0  0  0  0  0  0  0
    1.1204   -1.8172   -0.9258 H   0  0  0  0  0  0  0  0  0  0  0  0
   -0.4754    1.9968    0.2473 H   0  0  0  0  0  0  0  0  0  0  0  0
   -2.7704    1.0801    0.1586 H   0  0  0  0  0  0  0  0  0  0  0  0
    1.7223    0.8514   -0.2363 N   0  0  0  0  0  0  0  0  0  0  0  0
    2.7255    0.7414   -0.9765 N   0  0  0  0  0  0  0  0  0  0  0  0
    2.7451   -0.1283   -2.2492 Cl  0  0  0  0  0  0  0  0  0  0  0  0
   -3.3210   -1.5284   -0.4883 O   0  0  0  0  0  0  0  0  0  0  0  0
   -4.4912   -0.7738   -0.2022 C   0  0  0  0  0  0  0  0  0  0  0  0
   -5.3285   -1.4619   -0.3250 H   0  0  0  0  0  0  0  0  0  0  0  0
   -4.6084    0.0668   -0.8975 H   0  0  0  0  0  0  0  0  0  0  0  0
   -4.4837   -0.3931    0.8264 H   0  0  0  0  0  0  0  0  0  0  0  0
  1  2  2  0  0  0  0
  1  6  1  0  0  0  0
  2  3  1  0  0  0  0
  3 11  1  0  0  0  0
  3  4  2  0  0  0  0
  4  9  1  0  0  0  0
  5  4  1  0  0  0  0
  5 10  1  0  0  0  0
  6  5  2  0  0  0  0
  7  1  1  0  0  0  0
  8  2  1  0  0  0  0
 12 11  2  0  0  0  0
 13 12  1  0  0  0  0
 14  6  1  0  0  0  0
 14 15  1  0  0  0  0
 15 18  1  0  0  0  0
 16 15  1  0  0  0  0
 17 15  1  0  0  0  0
M  END
