Coordinates from ORCA-job p-CH3O-Ph-N2-X-Cl-B3LYPG-6-31G_dp-scan-d09-49-n400
 OpenBabel08281821033D

 18 17  0  0  0  0  0  0  0  0999 V2000
   -1.0092   -1.5748   -0.9019 C   0  0  0  0  0  0  0  0  0  0  0  0
    0.2410   -0.9895   -0.9383 C   0  0  0  0  0  0  0  0  0  0  0  0
    0.3502    0.3558   -0.5329 C   0  0  0  0  0  0  0  0  0  0  0  0
   -0.7553    1.0990   -0.1015 C   0  0  0  0  0  0  0  0  0  0  0  0
   -2.0055    0.4989   -0.0697 C   0  0  0  0  0  0  0  0  0  0  0  0
   -2.1372   -0.8446   -0.4722 C   0  0  0  0  0  0  0  0  0  0  0  0
   -1.1490   -2.6068   -1.2039 H   0  0  0  0  0  0  0  0  0  0  0  0
    1.1369   -1.5173   -1.2638 H   0  0  0  0  0  0  0  0  0  0  0  0
   -0.6258    2.1319    0.2027 H   0  0  0  0  0  0  0  0  0  0  0  0
   -2.8624    1.0698    0.2629 H   0  0  0  0  0  0  0  0  0  0  0  0
    1.5914    0.9867   -0.5560 N   0  0  0  0  0  0  0  0  0  0  0  0
    2.7186    0.9507   -0.7695 N   0  0  0  0  0  0  0  0  0  0  0  0
    3.4839   -1.3324   -1.6210 Cl  0  0  0  0  0  0  0  0  0  0  0  0
   -3.3015   -1.5216   -0.4829 O   0  0  0  0  0  0  0  0  0  0  0  0
   -4.4975   -0.8633   -0.0674 C   0  0  0  0  0  0  0  0  0  0  0  0
   -5.2919   -1.6022   -0.1727 H   0  0  0  0  0  0  0  0  0  0  0  0
   -4.7174    0.0009   -0.7045 H   0  0  0  0  0  0  0  0  0  0  0  0
   -4.4326   -0.5439    0.9787 H   0  0  0  0  0  0  0  0  0  0  0  0
  1  6  1  0  0  0  0
  2  1  2  0  0  0  0
  2  3  1  0  0  0  0
  3  4  2  0  0  0  0
  4  5  1  0  0  0  0
  4  9  1  0  0  0  0
  5 10  1  0  0  0  0
  6  5  2  0  0  0  0
  7  1  1  0  0  0  0
  8  2  1  0  0  0  0
 11  3  1  0  0  0  0
 12 11  2  0  0  0  0
 14  6  1  0  0  0  0
 14 15  1  0  0  0  0
 15 18  1  0  0  0  0
 16 15  1  0  0  0  0
 17 15  1  0  0  0  0
M  RAD  2  12   2  13   2
M  END
