Coordinates from ORCA-job p-CH3O-Ph-N2-X-Cl-B3LYPG-6-31G_dp-scan-d09-49-n400
 OpenBabel08281821033D

 18 18  0  0  0  0  0  0  0  0999 V2000
   -1.0409   -1.6574   -0.8802 C   0  0  0  0  0  0  0  0  0  0  0  0
    0.2334   -1.1060   -0.9402 C   0  0  0  0  0  0  0  0  0  0  0  0
    0.4501    0.2548   -0.5877 C   0  0  0  0  0  0  0  0  0  0  0  0
   -0.6805    0.9957   -0.1810 C   0  0  0  0  0  0  0  0  0  0  0  0
   -1.9549    0.4497   -0.1196 C   0  0  0  0  0  0  0  0  0  0  0  0
   -2.1440   -0.8947   -0.4738 C   0  0  0  0  0  0  0  0  0  0  0  0
   -1.2055   -2.6954   -1.1508 H   0  0  0  0  0  0  0  0  0  0  0  0
    1.0433   -1.7430   -1.2614 H   0  0  0  0  0  0  0  0  0  0  0  0
   -0.5155    2.0337    0.0890 H   0  0  0  0  0  0  0  0  0  0  0  0
   -2.7851    1.0682    0.1996 H   0  0  0  0  0  0  0  0  0  0  0  0
    1.6200    1.0674   -0.5575 N   0  0  0  0  0  0  0  0  0  0  0  0
    2.7764    0.5764   -0.9047 N   0  0  0  0  0  0  0  0  0  0  0  0
    3.2038   -0.3644   -1.2532 Cl  0  0  0  0  0  0  0  0  0  0  0  0
   -3.3421   -1.5413   -0.4570 O   0  0  0  0  0  0  0  0  0  0  0  0
   -4.4959   -0.8150   -0.0590 C   0  0  0  0  0  0  0  0  0  0  0  0
   -5.3301   -1.5147   -0.1288 H   0  0  0  0  0  0  0  0  0  0  0  0
   -4.6844    0.0388   -0.7220 H   0  0  0  0  0  0  0  0  0  0  0  0
   -4.4115   -0.4557    0.9742 H   0  0  0  0  0  0  0  0  0  0  0  0
  1  6  1  0  0  0  0
  2  1  2  0  0  0  0
  2  3  1  0  0  0  0
  3 11  1  0  0  0  0
  3  4  2  0  0  0  0
  4  5  1  0  0  0  0
  4  9  1  0  0  0  0
  5 10  1  0  0  0  0
  6 14  1  0  0  0  0
  6  5  2  0  0  0  0
  7  1  1  0  0  0  0
  8  2  1  0  0  0  0
 12 11  2  0  0  0  0
 13 12  1  0  0  0  0
 14 15  1  0  0  0  0
 15 18  1  0  0  0  0
 16 15  1  0  0  0  0
 17 15  1  0  0  0  0
M  END
