Coordinates from ORCA-job p-CH3O-Ph-N2-X-Cl-B3LYPG-6-31G_dp-scan-d09-49-n400
 OpenBabel08281821033D

 18 17  0  0  0  0  0  0  0  0999 V2000
   -1.0076   -1.6417   -0.9231 C   0  0  0  0  0  0  0  0  0  0  0  0
    0.2594   -1.0913   -0.9726 C   0  0  0  0  0  0  0  0  0  0  0  0
    0.4119    0.2413   -0.5787 C   0  0  0  0  0  0  0  0  0  0  0  0
   -0.6698    1.0289   -0.1389 C   0  0  0  0  0  0  0  0  0  0  0  0
   -1.9320    0.4649   -0.0946 C   0  0  0  0  0  0  0  0  0  0  0  0
   -2.1095   -0.8798   -0.4889 C   0  0  0  0  0  0  0  0  0  0  0  0
   -1.1756   -2.6710   -1.2190 H   0  0  0  0  0  0  0  0  0  0  0  0
    1.1544   -1.6364   -1.3030 H   0  0  0  0  0  0  0  0  0  0  0  0
   -0.5097    2.0597    0.1592 H   0  0  0  0  0  0  0  0  0  0  0  0
   -2.7670    1.0656    0.2422 H   0  0  0  0  0  0  0  0  0  0  0  0
    1.6668    0.8853   -0.5971 N   0  0  0  0  0  0  0  0  0  0  0  0
    2.2355    1.8464   -0.3930 N   0  0  0  0  0  0  0  0  0  0  0  0
    3.2692   -1.6559   -1.6968 Cl  0  0  0  0  0  0  0  0  0  0  0  0
   -3.2938   -1.5157   -0.4829 O   0  0  0  0  0  0  0  0  0  0  0  0
   -4.4662   -0.8189   -0.0591 C   0  0  0  0  0  0  0  0  0  0  0  0
   -5.2828   -1.5344   -0.1533 H   0  0  0  0  0  0  0  0  0  0  0  0
   -4.6655    0.0477   -0.6993 H   0  0  0  0  0  0  0  0  0  0  0  0
   -4.3811   -0.4976    0.9848 H   0  0  0  0  0  0  0  0  0  0  0  0
  1  6  1  0  0  0  0
  2  1  2  0  0  0  0
  2  3  1  0  0  0  0
  3  4  2  0  0  0  0
  4  5  1  0  0  0  0
  4  9  1  0  0  0  0
  5 10  1  0  0  0  0
  6 14  1  0  0  0  0
  6  5  2  0  0  0  0
  7  1  1  0  0  0  0
  8  2  1  0  0  0  0
 11  3  1  0  0  0  0
 11 12  2  0  0  0  0
 14 15  1  0  0  0  0
 15 18  1  0  0  0  0
 16 15  1  0  0  0  0
 17 15  1  0  0  0  0
M  RAD  2  12   2  13   2
M  END
