Coordinates from ORCA-job p-CH3O-Ph-N2-X-Cl-B3LYPG-6-31G_dp-scan-d09-49-n400
 OpenBabel08281821033D

 18 18  0  0  0  0  0  0  0  0999 V2000
   -1.0398   -1.6595   -0.8743 C   0  0  0  0  0  0  0  0  0  0  0  0
    0.2343   -1.1093   -0.9327 C   0  0  0  0  0  0  0  0  0  0  0  0
    0.4507    0.2518   -0.5814 C   0  0  0  0  0  0  0  0  0  0  0  0
   -0.6795    0.9936   -0.1766 C   0  0  0  0  0  0  0  0  0  0  0  0
   -1.9552    0.4497   -0.1184 C   0  0  0  0  0  0  0  0  0  0  0  0
   -2.1438   -0.8946   -0.4719 C   0  0  0  0  0  0  0  0  0  0  0  0
   -1.2050   -2.6977   -1.1433 H   0  0  0  0  0  0  0  0  0  0  0  0
    1.0431   -1.7489   -1.2503 H   0  0  0  0  0  0  0  0  0  0  0  0
   -0.5128    2.0308    0.0947 H   0  0  0  0  0  0  0  0  0  0  0  0
   -2.7854    1.0690    0.1988 H   0  0  0  0  0  0  0  0  0  0  0  0
    1.6194    1.0670   -0.5420 N   0  0  0  0  0  0  0  0  0  0  0  0
    2.7814    0.6237   -0.8995 N   0  0  0  0  0  0  0  0  0  0  0  0
    3.1961   -0.3952   -1.2998 Cl  0  0  0  0  0  0  0  0  0  0  0  0
   -3.3411   -1.5403   -0.4579 O   0  0  0  0  0  0  0  0  0  0  0  0
   -4.4969   -0.8138   -0.0640 C   0  0  0  0  0  0  0  0  0  0  0  0
   -5.3304   -1.5141   -0.1362 H   0  0  0  0  0  0  0  0  0  0  0  0
   -4.6830    0.0392   -0.7284 H   0  0  0  0  0  0  0  0  0  0  0  0
   -4.4155   -0.4543    0.9692 H   0  0  0  0  0  0  0  0  0  0  0  0
  1  6  1  0  0  0  0
  2  1  2  0  0  0  0
  2  3  1  0  0  0  0
  3 11  1  0  0  0  0
  3  4  2  0  0  0  0
  4  5  1  0  0  0  0
  4  9  1  0  0  0  0
  5 10  1  0  0  0  0
  6 14  1  0  0  0  0
  6  5  2  0  0  0  0
  7  1  1  0  0  0  0
  8  2  1  0  0  0  0
 12 11  2  0  0  0  0
 13 12  1  0  0  0  0
 14 15  1  0  0  0  0
 15 18  1  0  0  0  0
 16 15  1  0  0  0  0
 17 15  1  0  0  0  0
M  END
