Coordinates from ORCA-job p-CH3O-Ph-N2-X-Cl-B3LYPG-6-31G_dp-scan-d09-49-n400
 OpenBabel08281821033D

 18 18  0  0  0  0  0  0  0  0999 V2000
   -1.0410   -1.6572   -0.8807 C   0  0  0  0  0  0  0  0  0  0  0  0
    0.2334   -1.1055   -0.9408 C   0  0  0  0  0  0  0  0  0  0  0  0
    0.4500    0.2552   -0.5883 C   0  0  0  0  0  0  0  0  0  0  0  0
   -0.6806    0.9960   -0.1814 C   0  0  0  0  0  0  0  0  0  0  0  0
   -1.9549    0.4497   -0.1198 C   0  0  0  0  0  0  0  0  0  0  0  0
   -2.1440   -0.8946   -0.4740 C   0  0  0  0  0  0  0  0  0  0  0  0
   -1.2055   -2.6951   -1.1515 H   0  0  0  0  0  0  0  0  0  0  0  0
    1.0435   -1.7422   -1.2623 H   0  0  0  0  0  0  0  0  0  0  0  0
   -0.5159    2.0341    0.0885 H   0  0  0  0  0  0  0  0  0  0  0  0
   -2.7851    1.0681    0.1997 H   0  0  0  0  0  0  0  0  0  0  0  0
    1.6202    1.0671   -0.5591 N   0  0  0  0  0  0  0  0  0  0  0  0
    2.7754    0.5700   -0.9056 N   0  0  0  0  0  0  0  0  0  0  0  0
    3.2047   -0.3602   -1.2485 Cl  0  0  0  0  0  0  0  0  0  0  0  0
   -3.3422   -1.5414   -0.4569 O   0  0  0  0  0  0  0  0  0  0  0  0
   -4.4958   -0.8151   -0.0585 C   0  0  0  0  0  0  0  0  0  0  0  0
   -5.3301   -1.5147   -0.1281 H   0  0  0  0  0  0  0  0  0  0  0  0
   -4.6845    0.0388   -0.7214 H   0  0  0  0  0  0  0  0  0  0  0  0
   -4.4111   -0.4559    0.9747 H   0  0  0  0  0  0  0  0  0  0  0  0
  1  6  1  0  0  0  0
  2  1  2  0  0  0  0
  2  3  1  0  0  0  0
  3 11  1  0  0  0  0
  3  4  2  0  0  0  0
  4  5  1  0  0  0  0
  4  9  1  0  0  0  0
  5 10  1  0  0  0  0
  6 14  1  0  0  0  0
  6  5  2  0  0  0  0
  7  1  1  0  0  0  0
  8  2  1  0  0  0  0
 12 11  2  0  0  0  0
 13 12  1  0  0  0  0
 14 15  1  0  0  0  0
 15 18  1  0  0  0  0
 16 15  1  0  0  0  0
 17 15  1  0  0  0  0
M  END
