Coordinates from ORCA-job p-CH3O-Ph-N2-X-Cl-B3LYPG-6-31G_dp-scan-d09-49-n400
 OpenBabel08281821033D

 18 17  0  0  0  0  0  0  0  0999 V2000
   -0.9735   -1.5984   -0.9177 C   0  0  0  0  0  0  0  0  0  0  0  0
    0.2826   -1.0255   -0.9581 C   0  0  0  0  0  0  0  0  0  0  0  0
    0.4000    0.3134   -0.5546 C   0  0  0  0  0  0  0  0  0  0  0  0
   -0.7028    1.0790   -0.1168 C   0  0  0  0  0  0  0  0  0  0  0  0
   -1.9499    0.4873   -0.0839 C   0  0  0  0  0  0  0  0  0  0  0  0
   -2.0941   -0.8616   -0.4868 C   0  0  0  0  0  0  0  0  0  0  0  0
   -1.1163   -2.6298   -1.2197 H   0  0  0  0  0  0  0  0  0  0  0  0
    1.1954   -1.5623   -1.2898 H   0  0  0  0  0  0  0  0  0  0  0  0
   -0.5671    2.1117    0.1872 H   0  0  0  0  0  0  0  0  0  0  0  0
   -2.8011    1.0664    0.2501 H   0  0  0  0  0  0  0  0  0  0  0  0
    1.6252    0.9751   -0.5624 N   0  0  0  0  0  0  0  0  0  0  0  0
    2.3081    1.8626   -0.4030 N   0  0  0  0  0  0  0  0  0  0  0  0
    3.1586   -2.0304   -1.7868 Cl  0  0  0  0  0  0  0  0  0  0  0  0
   -3.2629   -1.5202   -0.4908 O   0  0  0  0  0  0  0  0  0  0  0  0
   -4.4559   -0.8540   -0.0713 C   0  0  0  0  0  0  0  0  0  0  0  0
   -5.2531   -1.5897   -0.1746 H   0  0  0  0  0  0  0  0  0  0  0  0
   -4.6718    0.0099   -0.7094 H   0  0  0  0  0  0  0  0  0  0  0  0
   -4.3848   -0.5366    0.9746 H   0  0  0  0  0  0  0  0  0  0  0  0
  1  6  1  0  0  0  0
  2  1  2  0  0  0  0
  2  3  1  0  0  0  0
  3  4  2  0  0  0  0
  4  5  1  0  0  0  0
  4  9  1  0  0  0  0
  5 10  1  0  0  0  0
  6  5  2  0  0  0  0
  7  1  1  0  0  0  0
  8  2  1  0  0  0  0
 11  3  1  0  0  0  0
 11 12  2  0  0  0  0
 14  6  1  0  0  0  0
 14 15  1  0  0  0  0
 15 18  1  0  0  0  0
 16 15  1  0  0  0  0
 17 15  1  0  0  0  0
M  RAD  2  12   2  13   2
M  END
