Coordinates from ORCA-job p-CH3O-Ph-N2-X-Cl-B3LYPG-6-31G_dp-scan-d09-49-n400
 OpenBabel08281821033D

 18 17  0  0  0  0  0  0  0  0999 V2000
   -1.0250   -1.5984   -0.9031 C   0  0  0  0  0  0  0  0  0  0  0  0
    0.2319   -1.0258   -0.9442 C   0  0  0  0  0  0  0  0  0  0  0  0
    0.3697    0.3193   -0.5450 C   0  0  0  0  0  0  0  0  0  0  0  0
   -0.7344    1.0665   -0.1146 C   0  0  0  0  0  0  0  0  0  0  0  0
   -1.9940    0.4844   -0.0768 C   0  0  0  0  0  0  0  0  0  0  0  0
   -2.1441   -0.8566   -0.4735 C   0  0  0  0  0  0  0  0  0  0  0  0
   -1.1764   -2.6298   -1.2016 H   0  0  0  0  0  0  0  0  0  0  0  0
    1.1067   -1.5760   -1.2722 H   0  0  0  0  0  0  0  0  0  0  0  0
   -0.5915    2.0987    0.1862 H   0  0  0  0  0  0  0  0  0  0  0  0
   -2.8420    1.0686    0.2562 H   0  0  0  0  0  0  0  0  0  0  0  0
    1.6001    0.9797   -0.5546 N   0  0  0  0  0  0  0  0  0  0  0  0
    2.7370    0.8900   -0.7893 N   0  0  0  0  0  0  0  0  0  0  0  0
    3.4686   -1.0762   -1.5554 Cl  0  0  0  0  0  0  0  0  0  0  0  0
   -3.3176   -1.5226   -0.4793 O   0  0  0  0  0  0  0  0  0  0  0  0
   -4.5021   -0.8465   -0.0632 C   0  0  0  0  0  0  0  0  0  0  0  0
   -5.3078   -1.5741   -0.1624 H   0  0  0  0  0  0  0  0  0  0  0  0
   -4.7124    0.0186   -0.7027 H   0  0  0  0  0  0  0  0  0  0  0  0
   -4.4302   -0.5226    0.9813 H   0  0  0  0  0  0  0  0  0  0  0  0
  1  6  1  0  0  0  0
  2  1  2  0  0  0  0
  2  3  1  0  0  0  0
  3  4  2  0  0  0  0
  4  5  1  0  0  0  0
  4  9  1  0  0  0  0
  5 10  1  0  0  0  0
  6  5  2  0  0  0  0
  7  1  1  0  0  0  0
  8  2  1  0  0  0  0
 11  3  1  0  0  0  0
 12 11  2  0  0  0  0
 14  6  1  0  0  0  0
 14 15  1  0  0  0  0
 15 18  1  0  0  0  0
 16 15  1  0  0  0  0
 17 15  1  0  0  0  0
M  RAD  2  12   2  13   2
M  END
