Coordinates from ORCA-job p-CH3O-Ph-N2-X-Cl-B3LYPG-6-31G_dp-scan-d09-49-n400
 OpenBabel08281821033D

 18 18  0  0  0  0  0  0  0  0999 V2000
   -1.0300   -1.6079   -0.9036 C   0  0  0  0  0  0  0  0  0  0  0  0
    0.2299   -1.0406   -0.9466 C   0  0  0  0  0  0  0  0  0  0  0  0
    0.3810    0.3048   -0.5506 C   0  0  0  0  0  0  0  0  0  0  0  0
   -0.7244    1.0522   -0.1205 C   0  0  0  0  0  0  0  0  0  0  0  0
   -1.9878    0.4780   -0.0799 C   0  0  0  0  0  0  0  0  0  0  0  0
   -2.1456   -0.8618   -0.4744 C   0  0  0  0  0  0  0  0  0  0  0  0
   -1.1858   -2.6391   -1.2008 H   0  0  0  0  0  0  0  0  0  0  0  0
    1.0938   -1.6034   -1.2756 H   0  0  0  0  0  0  0  0  0  0  0  0
   -0.5757    2.0839    0.1790 H   0  0  0  0  0  0  0  0  0  0  0  0
   -2.8319    1.0677    0.2534 H   0  0  0  0  0  0  0  0  0  0  0  0
    1.6029    0.9845   -0.5520 N   0  0  0  0  0  0  0  0  0  0  0  0
    2.7462    0.8710   -0.7974 N   0  0  0  0  0  0  0  0  0  0  0  0
    3.4386   -0.9766   -1.5252 Cl  0  0  0  0  0  0  0  0  0  0  0  0
   -3.3228   -1.5235   -0.4785 O   0  0  0  0  0  0  0  0  0  0  0  0
   -4.5025   -0.8401   -0.0620 C   0  0  0  0  0  0  0  0  0  0  0  0
   -5.3130   -1.5628   -0.1593 H   0  0  0  0  0  0  0  0  0  0  0  0
   -4.7087    0.0257   -0.7019 H   0  0  0  0  0  0  0  0  0  0  0  0
   -4.4279   -0.5151    0.9820 H   0  0  0  0  0  0  0  0  0  0  0  0
  1  6  1  0  0  0  0
  2  1  2  0  0  0  0
  2  3  1  0  0  0  0
  3  4  2  0  0  0  0
  4  5  1  0  0  0  0
  4  9  1  0  0  0  0
  5 10  1  0  0  0  0
  6  5  2  0  0  0  0
  7  1  1  0  0  0  0
  8  2  1  0  0  0  0
 11  3  1  0  0  0  0
 12 11  2  0  0  0  0
 13 12  1  0  0  0  0
 14  6  1  0  0  0  0
 14 15  1  0  0  0  0
 15 18  1  0  0  0  0
 16 15  1  0  0  0  0
 17 15  1  0  0  0  0
M  END
