Coordinates from ORCA-job p-CH3O-Ph-N2-X-Cl-B3LYPG-6-31G_dp-scan-d09-49-n400
 OpenBabel08281821033D

 18 17  0  0  0  0  0  0  0  0999 V2000
   -0.9354   -1.5513   -0.9091 C   0  0  0  0  0  0  0  0  0  0  0  0
    0.3105   -0.9573   -0.9411 C   0  0  0  0  0  0  0  0  0  0  0  0
    0.3887    0.3913   -0.5277 C   0  0  0  0  0  0  0  0  0  0  0  0
   -0.7388    1.1318   -0.0932 C   0  0  0  0  0  0  0  0  0  0  0  0
   -1.9681    0.5105   -0.0730 C   0  0  0  0  0  0  0  0  0  0  0  0
   -2.0758   -0.8430   -0.4838 C   0  0  0  0  0  0  0  0  0  0  0  0
   -1.0488   -2.5850   -1.2171 H   0  0  0  0  0  0  0  0  0  0  0  0
    1.2318   -1.4986   -1.2764 H   0  0  0  0  0  0  0  0  0  0  0  0
   -0.6317    2.1660    0.2165 H   0  0  0  0  0  0  0  0  0  0  0  0
   -2.8364    1.0658    0.2568 H   0  0  0  0  0  0  0  0  0  0  0  0
    1.5821    1.0644   -0.5264 N   0  0  0  0  0  0  0  0  0  0  0  0
    2.4249    1.8060   -0.4418 N   0  0  0  0  0  0  0  0  0  0  0  0
    2.9825   -2.3237   -1.8500 Cl  0  0  0  0  0  0  0  0  0  0  0  0
   -3.2277   -1.5265   -0.4991 O   0  0  0  0  0  0  0  0  0  0  0  0
   -4.4418   -0.8928   -0.0866 C   0  0  0  0  0  0  0  0  0  0  0  0
   -5.2179   -1.6493   -0.1991 H   0  0  0  0  0  0  0  0  0  0  0  0
   -4.6748   -0.0331   -0.7240 H   0  0  0  0  0  0  0  0  0  0  0  0
   -4.3866   -0.5781    0.9609 H   0  0  0  0  0  0  0  0  0  0  0  0
  1  6  1  0  0  0  0
  2  1  2  0  0  0  0
  2  3  1  0  0  0  0
  3 11  1  0  0  0  0
  3  4  2  0  0  0  0
  4  5  1  0  0  0  0
  4  9  1  0  0  0  0
  5 10  1  0  0  0  0
  6  5  2  0  0  0  0
  7  1  1  0  0  0  0
  8  2  1  0  0  0  0
 11 12  1  0  0  0  0
 14  6  1  0  0  0  0
 14 15  1  0  0  0  0
 15 18  1  0  0  0  0
 16 15  1  0  0  0  0
 17 15  1  0  0  0  0
M  RAD  3  11   2  12   3  13   2
M  END
