Coordinates from ORCA-job p-CH3O-Ph-N2-X-Cl-B3LYPG-6-31G_dp-scan-d09-49-n400
 OpenBabel08281821033D

 18 17  0  0  0  0  0  0  0  0999 V2000
   -1.0266   -1.6684   -0.9261 C   0  0  0  0  0  0  0  0  0  0  0  0
    0.2472   -1.1326   -0.9818 C   0  0  0  0  0  0  0  0  0  0  0  0
    0.4221    0.1971   -0.5939 C   0  0  0  0  0  0  0  0  0  0  0  0
   -0.6474    0.9967   -0.1528 C   0  0  0  0  0  0  0  0  0  0  0  0
   -1.9185    0.4499   -0.1012 C   0  0  0  0  0  0  0  0  0  0  0  0
   -2.1167   -0.8917   -0.4901 C   0  0  0  0  0  0  0  0  0  0  0  0
   -1.2088   -2.6962   -1.2184 H   0  0  0  0  0  0  0  0  0  0  0  0
    1.1269   -1.6894   -1.3131 H   0  0  0  0  0  0  0  0  0  0  0  0
   -0.4736    2.0261    0.1418 H   0  0  0  0  0  0  0  0  0  0  0  0
   -2.7433    1.0636    0.2375 H   0  0  0  0  0  0  0  0  0  0  0  0
    1.6944    0.8303   -0.6199 N   0  0  0  0  0  0  0  0  0  0  0  0
    2.2005    1.8241   -0.3939 N   0  0  0  0  0  0  0  0  0  0  0  0
    3.2937   -1.3964   -1.6247 Cl  0  0  0  0  0  0  0  0  0  0  0  0
   -3.3104   -1.5135   -0.4782 O   0  0  0  0  0  0  0  0  0  0  0  0
   -4.4698   -0.7979   -0.0528 C   0  0  0  0  0  0  0  0  0  0  0  0
   -5.2983   -1.5005   -0.1419 H   0  0  0  0  0  0  0  0  0  0  0  0
   -4.6582    0.0703   -0.6944 H   0  0  0  0  0  0  0  0  0  0  0  0
   -4.3768   -0.4743    0.9899 H   0  0  0  0  0  0  0  0  0  0  0  0
  1  6  1  0  0  0  0
  2  1  2  0  0  0  0
  2  3  1  0  0  0  0
  3  4  2  0  0  0  0
  4  5  1  0  0  0  0
  4  9  1  0  0  0  0
  5 10  1  0  0  0  0
  6 14  1  0  0  0  0
  6  5  2  0  0  0  0
  7  1  1  0  0  0  0
  8  2  1  0  0  0  0
 11  3  1  0  0  0  0
 11 12  2  0  0  0  0
 14 15  1  0  0  0  0
 15 18  1  0  0  0  0
 16 15  1  0  0  0  0
 17 15  1  0  0  0  0
M  RAD  2  12   2  13   2
M  END
