Coordinates from ORCA-job p-CH3O-Ph-N2-X-Cl-B3LYPG-6-31G_dp-scan-d09-49-n400
 OpenBabel08281821033D

 18 17  0  0  0  0  0  0  0  0999 V2000
   -0.8657   -1.4808   -0.9017 C   0  0  0  0  0  0  0  0  0  0  0  0
    0.3579   -0.8427   -0.9151 C   0  0  0  0  0  0  0  0  0  0  0  0
    0.3788    0.5096   -0.4892 C   0  0  0  0  0  0  0  0  0  0  0  0
   -0.7796    1.2090   -0.0615 C   0  0  0  0  0  0  0  0  0  0  0  0
   -1.9817    0.5390   -0.0620 C   0  0  0  0  0  0  0  0  0  0  0  0
   -2.0349   -0.8168   -0.4845 C   0  0  0  0  0  0  0  0  0  0  0  0
   -0.9219   -2.5162   -1.2210 H   0  0  0  0  0  0  0  0  0  0  0  0
    1.2682   -1.4012   -1.2528 H   0  0  0  0  0  0  0  0  0  0  0  0
   -0.7153    2.2437    0.2573 H   0  0  0  0  0  0  0  0  0  0  0  0
   -2.8752    1.0568    0.2615 H   0  0  0  0  0  0  0  0  0  0  0  0
    1.5570    1.1838   -0.4839 N   0  0  0  0  0  0  0  0  0  0  0  0
    2.5140    1.7752   -0.4658 N   0  0  0  0  0  0  0  0  0  0  0  0
    2.5772   -2.7878   -1.9206 Cl  0  0  0  0  0  0  0  0  0  0  0  0
   -3.1621   -1.5398   -0.5168 O   0  0  0  0  0  0  0  0  0  0  0  0
   -4.4020   -0.9538   -0.1123 C   0  0  0  0  0  0  0  0  0  0  0  0
   -5.1483   -1.7382   -0.2352 H   0  0  0  0  0  0  0  0  0  0  0  0
   -4.6619   -0.1002   -0.7477 H   0  0  0  0  0  0  0  0  0  0  0  0
   -4.3680   -0.6425    0.9372 H   0  0  0  0  0  0  0  0  0  0  0  0
  1  6  1  0  0  0  0
  2  1  2  0  0  0  0
  2  3  1  0  0  0  0
  3 11  1  0  0  0  0
  3  4  2  0  0  0  0
  4  9  1  0  0  0  0
  5  4  1  0  0  0  0
  5 10  1  0  0  0  0
  6  5  2  0  0  0  0
  7  1  1  0  0  0  0
  8  2  1  0  0  0  0
 11 12  1  0  0  0  0
 14  6  1  0  0  0  0
 14 15  1  0  0  0  0
 15 18  1  0  0  0  0
 16 15  1  0  0  0  0
 17 15  1  0  0  0  0
M  RAD  3  11   2  12   3  13   2
M  END
