Coordinates from ORCA-job p-CH3O-Ph-N2-X-Cl-B3LYPG-6-31G_dp-scan-d09-49-n400
 OpenBabel08281821033D

 18 17  0  0  0  0  0  0  0  0999 V2000
   -0.9639   -1.5372   -0.8995 C   0  0  0  0  0  0  0  0  0  0  0  0
    0.2770   -0.9336   -0.9278 C   0  0  0  0  0  0  0  0  0  0  0  0
    0.3403    0.4158   -0.5126 C   0  0  0  0  0  0  0  0  0  0  0  0
   -0.7785    1.1499   -0.0824 C   0  0  0  0  0  0  0  0  0  0  0  0
   -2.0093    0.5211   -0.0639 C   0  0  0  0  0  0  0  0  0  0  0  0
   -2.1079   -0.8292   -0.4741 C   0  0  0  0  0  0  0  0  0  0  0  0
   -1.0804   -2.5709   -1.2060 H   0  0  0  0  0  0  0  0  0  0  0  0
    1.2048   -1.4447   -1.2535 H   0  0  0  0  0  0  0  0  0  0  0  0
   -0.6735    2.1840    0.2269 H   0  0  0  0  0  0  0  0  0  0  0  0
   -2.8823    1.0696    0.2641 H   0  0  0  0  0  0  0  0  0  0  0  0
    1.5738    1.0240   -0.5387 N   0  0  0  0  0  0  0  0  0  0  0  0
    2.6761    1.2241   -0.6712 N   0  0  0  0  0  0  0  0  0  0  0  0
    3.2648   -1.8857   -1.7570 Cl  0  0  0  0  0  0  0  0  0  0  0  0
   -3.2562   -1.5231   -0.4925 O   0  0  0  0  0  0  0  0  0  0  0  0
   -4.4727   -0.8956   -0.0809 C   0  0  0  0  0  0  0  0  0  0  0  0
   -5.2457   -1.6554   -0.1931 H   0  0  0  0  0  0  0  0  0  0  0  0
   -4.7100   -0.0367   -0.7182 H   0  0  0  0  0  0  0  0  0  0  0  0
   -4.4198   -0.5794    0.9664 H   0  0  0  0  0  0  0  0  0  0  0  0
  1  6  1  0  0  0  0
  2  1  2  0  0  0  0
  2  3  1  0  0  0  0
  3  4  2  0  0  0  0
  4  5  1  0  0  0  0
  4  9  1  0  0  0  0
  5 10  1  0  0  0  0
  6  5  2  0  0  0  0
  7  1  1  0  0  0  0
  8  2  1  0  0  0  0
 11  3  1  0  0  0  0
 12 11  1  0  0  0  0
 14  6  1  0  0  0  0
 14 15  1  0  0  0  0
 15 18  1  0  0  0  0
 16 15  1  0  0  0  0
 17 15  1  0  0  0  0
M  RAD  3  11   2  12   3  13   2
M  END
