Coordinates from ORCA-job p-CH3O-Ph-N2-X-Cl-B3LYPG-6-31G_dp-scan-d09-49-n400
 OpenBabel08281821033D

 18 18  0  0  0  0  0  0  0  0999 V2000
   -1.0371   -1.6192   -0.9123 C   0  0  0  0  0  0  0  0  0  0  0  0
    0.2269   -1.0595   -0.9597 C   0  0  0  0  0  0  0  0  0  0  0  0
    0.4007    0.2863   -0.5657 C   0  0  0  0  0  0  0  0  0  0  0  0
   -0.7086    1.0309   -0.1337 C   0  0  0  0  0  0  0  0  0  0  0  0
   -1.9772    0.4681   -0.0859 C   0  0  0  0  0  0  0  0  0  0  0  0
   -2.1470   -0.8691   -0.4789 C   0  0  0  0  0  0  0  0  0  0  0  0
   -1.1994   -2.6494   -1.2098 H   0  0  0  0  0  0  0  0  0  0  0  0
    1.0709   -1.6438   -1.2942 H   0  0  0  0  0  0  0  0  0  0  0  0
   -0.5512    2.0619    0.1640 H   0  0  0  0  0  0  0  0  0  0  0  0
   -2.8147    1.0654    0.2512 H   0  0  0  0  0  0  0  0  0  0  0  0
    1.6040    1.0058   -0.5538 N   0  0  0  0  0  0  0  0  0  0  0  0
    2.7631    0.8429   -0.8085 N   0  0  0  0  0  0  0  0  0  0  0  0
    3.3768   -0.8438   -1.4395 Cl  0  0  0  0  0  0  0  0  0  0  0  0
   -3.3296   -1.5252   -0.4784 O   0  0  0  0  0  0  0  0  0  0  0  0
   -4.5006   -0.8329   -0.0555 C   0  0  0  0  0  0  0  0  0  0  0  0
   -5.3181   -1.5485   -0.1483 H   0  0  0  0  0  0  0  0  0  0  0  0
   -4.7039    0.0354   -0.6932 H   0  0  0  0  0  0  0  0  0  0  0  0
   -4.4183   -0.5083    0.9883 H   0  0  0  0  0  0  0  0  0  0  0  0
  1  6  1  0  0  0  0
  2  1  2  0  0  0  0
  2  3  1  0  0  0  0
  3 11  1  0  0  0  0
  3  4  2  0  0  0  0
  4  5  1  0  0  0  0
  4  9  1  0  0  0  0
  5 10  1  0  0  0  0
  6 14  1  0  0  0  0
  6  5  2  0  0  0  0
  7  1  1  0  0  0  0
  8  2  1  0  0  0  0
 12 11  2  0  0  0  0
 13 12  1  0  0  0  0
 14 15  1  0  0  0  0
 15 18  1  0  0  0  0
 16 15  1  0  0  0  0
 17 15  1  0  0  0  0
M  END
