Coordinates from ORCA-job p-CH3O-Ph-N2-X-Cl-B3LYPG-6-31G_dp-scan-d09-49-n400
 OpenBabel08281821033D

 18 17  0  0  0  0  0  0  0  0999 V2000
   -1.0081   -1.5734   -0.9017 C   0  0  0  0  0  0  0  0  0  0  0  0
    0.2418   -0.9873   -0.9378 C   0  0  0  0  0  0  0  0  0  0  0  0
    0.3493    0.3581   -0.5321 C   0  0  0  0  0  0  0  0  0  0  0  0
   -0.7565    1.1009   -0.1007 C   0  0  0  0  0  0  0  0  0  0  0  0
   -2.0060    0.4998   -0.0693 C   0  0  0  0  0  0  0  0  0  0  0  0
   -2.1366   -0.8439   -0.4721 C   0  0  0  0  0  0  0  0  0  0  0  0
   -1.1471   -2.6054   -1.2039 H   0  0  0  0  0  0  0  0  0  0  0  0
    1.1388   -1.5139   -1.2631 H   0  0  0  0  0  0  0  0  0  0  0  0
   -0.6277    2.1338    0.2037 H   0  0  0  0  0  0  0  0  0  0  0  0
   -2.8635    1.0698    0.2632 H   0  0  0  0  0  0  0  0  0  0  0  0
    1.5909    0.9877   -0.5557 N   0  0  0  0  0  0  0  0  0  0  0  0
    2.7176    0.9552   -0.7681 N   0  0  0  0  0  0  0  0  0  0  0  0
    3.4819   -1.3486   -1.6254 Cl  0  0  0  0  0  0  0  0  0  0  0  0
   -3.3003   -1.5216   -0.4832 O   0  0  0  0  0  0  0  0  0  0  0  0
   -4.4971   -0.8644   -0.0679 C   0  0  0  0  0  0  0  0  0  0  0  0
   -5.2907   -1.6040   -0.1736 H   0  0  0  0  0  0  0  0  0  0  0  0
   -4.7175   -0.0003   -0.7049 H   0  0  0  0  0  0  0  0  0  0  0  0
   -4.4327   -0.5453    0.9784 H   0  0  0  0  0  0  0  0  0  0  0  0
  1  6  1  0  0  0  0
  2  1  2  0  0  0  0
  2  3  1  0  0  0  0
  3  4  2  0  0  0  0
  4  5  1  0  0  0  0
  4  9  1  0  0  0  0
  5 10  1  0  0  0  0
  6  5  2  0  0  0  0
  7  1  1  0  0  0  0
  8  2  1  0  0  0  0
 11  3  1  0  0  0  0
 12 11  2  0  0  0  0
 14  6  1  0  0  0  0
 14 15  1  0  0  0  0
 15 18  1  0  0  0  0
 16 15  1  0  0  0  0
 17 15  1  0  0  0  0
M  RAD  2  12   2  13   2
M  END
