Coordinates from ORCA-job p-CH3O-Ph-N2-X-Cl-B3LYPG-6-31G_dp-scan-d09-49-n400
 OpenBabel08281821033D

 18 17  0  0  0  0  0  0  0  0999 V2000
   -0.9765   -1.6019   -0.9181 C   0  0  0  0  0  0  0  0  0  0  0  0
    0.2806   -1.0312   -0.9594 C   0  0  0  0  0  0  0  0  0  0  0  0
    0.4012    0.3071   -0.5568 C   0  0  0  0  0  0  0  0  0  0  0  0
   -0.6999    1.0747   -0.1188 C   0  0  0  0  0  0  0  0  0  0  0  0
   -1.9484    0.4856   -0.0848 C   0  0  0  0  0  0  0  0  0  0  0  0
   -2.0956   -0.8629   -0.4869 C   0  0  0  0  0  0  0  0  0  0  0  0
   -1.1217   -2.6332   -1.2196 H   0  0  0  0  0  0  0  0  0  0  0  0
    1.1916   -1.5691   -1.2911 H   0  0  0  0  0  0  0  0  0  0  0  0
   -0.5618    2.1072    0.1847 H   0  0  0  0  0  0  0  0  0  0  0  0
   -2.7981    1.0666    0.2495 H   0  0  0  0  0  0  0  0  0  0  0  0
    1.6287    0.9681   -0.5651 N   0  0  0  0  0  0  0  0  0  0  0  0
    2.2991    1.8646   -0.4006 N   0  0  0  0  0  0  0  0  0  0  0  0
    3.1718   -2.0029   -1.7811 Cl  0  0  0  0  0  0  0  0  0  0  0  0
   -3.2656   -1.5197   -0.4901 O   0  0  0  0  0  0  0  0  0  0  0  0
   -4.4569   -0.8509   -0.0702 C   0  0  0  0  0  0  0  0  0  0  0  0
   -5.2558   -1.5850   -0.1728 H   0  0  0  0  0  0  0  0  0  0  0  0
   -4.6714    0.0132   -0.7085 H   0  0  0  0  0  0  0  0  0  0  0  0
   -4.3846   -0.5332    0.9755 H   0  0  0  0  0  0  0  0  0  0  0  0
  1  6  1  0  0  0  0
  2  1  2  0  0  0  0
  2  3  1  0  0  0  0
  3  4  2  0  0  0  0
  4  5  1  0  0  0  0
  4  9  1  0  0  0  0
  5 10  1  0  0  0  0
  6  5  2  0  0  0  0
  7  1  1  0  0  0  0
  8  2  1  0  0  0  0
 11  3  1  0  0  0  0
 11 12  2  0  0  0  0
 14  6  1  0  0  0  0
 14 15  1  0  0  0  0
 15 18  1  0  0  0  0
 16 15  1  0  0  0  0
 17 15  1  0  0  0  0
M  RAD  2  12   2  13   2
M  END
