Coordinates from ORCA-job p-CH3O-Ph-N2-X-Cl-B3LYPG-6-31G_dp-scan-d09-49-n400
 OpenBabel08281821033D

 18 18  0  0  0  0  0  0  0  0999 V2000
   -0.9994   -1.7086   -0.7165 C   0  0  0  0  0  0  0  0  0  0  0  0
    0.2789   -1.1729   -0.7119 C   0  0  0  0  0  0  0  0  0  0  0  0
    0.4750    0.1869   -0.3939 C   0  0  0  0  0  0  0  0  0  0  0  0
   -0.6390    0.9645   -0.0492 C   0  0  0  0  0  0  0  0  0  0  0  0
   -1.9292    0.4436   -0.0924 C   0  0  0  0  0  0  0  0  0  0  0  0
   -2.1152   -0.9044   -0.4289 C   0  0  0  0  0  0  0  0  0  0  0  0
   -1.1648   -2.7559   -0.9467 H   0  0  0  0  0  0  0  0  0  0  0  0
    1.1202   -1.8206   -0.9226 H   0  0  0  0  0  0  0  0  0  0  0  0
   -0.4736    1.9956    0.2459 H   0  0  0  0  0  0  0  0  0  0  0  0
   -2.7690    1.0802    0.1571 H   0  0  0  0  0  0  0  0  0  0  0  0
    1.7252    0.8487   -0.2327 N   0  0  0  0  0  0  0  0  0  0  0  0
    2.7232    0.7373   -0.9841 N   0  0  0  0  0  0  0  0  0  0  0  0
    2.7359   -0.1116   -2.2467 Cl  0  0  0  0  0  0  0  0  0  0  0  0
   -3.3212   -1.5286   -0.4880 O   0  0  0  0  0  0  0  0  0  0  0  0
   -4.4909   -0.7729   -0.2033 C   0  0  0  0  0  0  0  0  0  0  0  0
   -5.3287   -1.4604   -0.3258 H   0  0  0  0  0  0  0  0  0  0  0  0
   -4.6071    0.0672   -0.8994 H   0  0  0  0  0  0  0  0  0  0  0  0
   -4.4837   -0.3911    0.8250 H   0  0  0  0  0  0  0  0  0  0  0  0
  1  2  2  0  0  0  0
  1  6  1  0  0  0  0
  2  3  1  0  0  0  0
  3 11  1  0  0  0  0
  3  4  2  0  0  0  0
  4  9  1  0  0  0  0
  5  4  1  0  0  0  0
  5 10  1  0  0  0  0
  6  5  2  0  0  0  0
  7  1  1  0  0  0  0
  8  2  1  0  0  0  0
 12 11  2  0  0  0  0
 13 12  1  0  0  0  0
 14  6  1  0  0  0  0
 14 15  1  0  0  0  0
 15 18  1  0  0  0  0
 16 15  1  0  0  0  0
 17 15  1  0  0  0  0
M  END
