Coordinates from ORCA-job p-CH3O-Ph-N2-X-Cl-B3LYPG-6-31G_dp-scan-d09-49-n400
 OpenBabel08281821033D

 18 17  0  0  0  0  0  0  0  0999 V2000
   -0.9952   -1.6249   -0.9213 C   0  0  0  0  0  0  0  0  0  0  0  0
    0.2675   -1.0658   -0.9674 C   0  0  0  0  0  0  0  0  0  0  0  0
    0.4068    0.2690   -0.5697 C   0  0  0  0  0  0  0  0  0  0  0  0
   -0.6828    1.0484   -0.1300 C   0  0  0  0  0  0  0  0  0  0  0  0
   -1.9393    0.4738   -0.0899 C   0  0  0  0  0  0  0  0  0  0  0  0
   -2.1042   -0.8725   -0.4879 C   0  0  0  0  0  0  0  0  0  0  0  0
   -1.1539   -2.6549   -1.2197 H   0  0  0  0  0  0  0  0  0  0  0  0
    1.1705   -1.6060   -1.2982 H   0  0  0  0  0  0  0  0  0  0  0  0
   -0.5317    2.0799    0.1706 H   0  0  0  0  0  0  0  0  0  0  0  0
   -2.7805    1.0661    0.2463 H   0  0  0  0  0  0  0  0  0  0  0  0
    1.6502    0.9199   -0.5845 N   0  0  0  0  0  0  0  0  0  0  0  0
    2.2623    1.8555   -0.3974 N   0  0  0  0  0  0  0  0  0  0  0  0
    3.2370   -1.8065   -1.7323 Cl  0  0  0  0  0  0  0  0  0  0  0  0
   -3.2825   -1.5172   -0.4858 O   0  0  0  0  0  0  0  0  0  0  0  0
   -4.4631   -0.8324   -0.0636 C   0  0  0  0  0  0  0  0  0  0  0  0
   -5.2722   -1.5557   -0.1619 H   0  0  0  0  0  0  0  0  0  0  0  0
   -4.6686    0.0335   -0.7025 H   0  0  0  0  0  0  0  0  0  0  0  0
   -4.3837   -0.5132    0.9813 H   0  0  0  0  0  0  0  0  0  0  0  0
  1  6  1  0  0  0  0
  2  1  2  0  0  0  0
  2  3  1  0  0  0  0
  3  4  2  0  0  0  0
  4  5  1  0  0  0  0
  4  9  1  0  0  0  0
  5 10  1  0  0  0  0
  6 14  1  0  0  0  0
  6  5  2  0  0  0  0
  7  1  1  0  0  0  0
  8  2  1  0  0  0  0
 11  3  1  0  0  0  0
 11 12  2  0  0  0  0
 14 15  1  0  0  0  0
 15 18  1  0  0  0  0
 16 15  1  0  0  0  0
 17 15  1  0  0  0  0
M  RAD  2  12   2  13   2
M  END
