Coordinates from ORCA-job p-CH3O-Ph-N2-X-Cl-B3LYPG-6-31G_dp-scan-d09-49-n400
 OpenBabel08281821033D

 18 18  0  0  0  0  0  0  0  0999 V2000
   -1.0296   -1.6073   -0.9034 C   0  0  0  0  0  0  0  0  0  0  0  0
    0.2300   -1.0396   -0.9463 C   0  0  0  0  0  0  0  0  0  0  0  0
    0.3801    0.3058   -0.5500 C   0  0  0  0  0  0  0  0  0  0  0  0
   -0.7251    1.0532   -0.1200 C   0  0  0  0  0  0  0  0  0  0  0  0
   -1.9883    0.4785   -0.0797 C   0  0  0  0  0  0  0  0  0  0  0  0
   -2.1455   -0.8614   -0.4743 C   0  0  0  0  0  0  0  0  0  0  0  0
   -1.1851   -2.6384   -1.2006 H   0  0  0  0  0  0  0  0  0  0  0  0
    1.0948   -1.6013   -1.2751 H   0  0  0  0  0  0  0  0  0  0  0  0
   -0.5770    2.0850    0.1796 H   0  0  0  0  0  0  0  0  0  0  0  0
   -2.8327    1.0678    0.2536 H   0  0  0  0  0  0  0  0  0  0  0  0
    1.6027    0.9839   -0.5520 N   0  0  0  0  0  0  0  0  0  0  0  0
    2.7455    0.8724   -0.7967 N   0  0  0  0  0  0  0  0  0  0  0  0
    3.4413   -0.9837   -1.5284 Cl  0  0  0  0  0  0  0  0  0  0  0  0
   -3.3225   -1.5234   -0.4785 O   0  0  0  0  0  0  0  0  0  0  0  0
   -4.5025   -0.8405   -0.0622 C   0  0  0  0  0  0  0  0  0  0  0  0
   -5.3126   -1.5636   -0.1597 H   0  0  0  0  0  0  0  0  0  0  0  0
   -4.7089    0.0252   -0.7021 H   0  0  0  0  0  0  0  0  0  0  0  0
   -4.4282   -0.5155    0.9819 H   0  0  0  0  0  0  0  0  0  0  0  0
  1  6  1  0  0  0  0
  2  1  2  0  0  0  0
  2  3  1  0  0  0  0
  3  4  2  0  0  0  0
  4  5  1  0  0  0  0
  4  9  1  0  0  0  0
  5 10  1  0  0  0  0
  6  5  2  0  0  0  0
  7  1  1  0  0  0  0
  8  2  1  0  0  0  0
 11  3  1  0  0  0  0
 12 11  2  0  0  0  0
 13 12  1  0  0  0  0
 14  6  1  0  0  0  0
 14 15  1  0  0  0  0
 15 18  1  0  0  0  0
 16 15  1  0  0  0  0
 17 15  1  0  0  0  0
M  END
