Coordinates from ORCA-job p-CH3O-Ph-N2-X-Cl-B3LYPG-6-31G_dp-scan-d09-49-n400
 OpenBabel08281821033D

 18 17  0  0  0  0  0  0  0  0999 V2000
   -1.0163   -1.5839   -0.9031 C   0  0  0  0  0  0  0  0  0  0  0  0
    0.2368   -1.0040   -0.9415 C   0  0  0  0  0  0  0  0  0  0  0  0
    0.3567    0.3412   -0.5381 C   0  0  0  0  0  0  0  0  0  0  0  0
   -0.7477    1.0864   -0.1068 C   0  0  0  0  0  0  0  0  0  0  0  0
   -2.0015    0.4934   -0.0723 C   0  0  0  0  0  0  0  0  0  0  0  0
   -2.1406   -0.8490   -0.4730 C   0  0  0  0  0  0  0  0  0  0  0  0
   -1.1609   -2.6155   -1.2040 H   0  0  0  0  0  0  0  0  0  0  0  0
    1.1243   -1.5410   -1.2681 H   0  0  0  0  0  0  0  0  0  0  0  0
   -0.6127    2.1190    0.1962 H   0  0  0  0  0  0  0  0  0  0  0  0
   -2.8549    1.0695    0.2607 H   0  0  0  0  0  0  0  0  0  0  0  0
    1.5944    0.9817   -0.5572 N   0  0  0  0  0  0  0  0  0  0  0  0
    2.7250    0.9289   -0.7770 N   0  0  0  0  0  0  0  0  0  0  0  0
    3.4891   -1.2328   -1.5933 Cl  0  0  0  0  0  0  0  0  0  0  0  0
   -3.3084   -1.5216   -0.4816 O   0  0  0  0  0  0  0  0  0  0  0  0
   -4.4999   -0.8565   -0.0651 C   0  0  0  0  0  0  0  0  0  0  0  0
   -5.2987   -1.5910   -0.1680 H   0  0  0  0  0  0  0  0  0  0  0  0
   -4.7163    0.0083   -0.7026 H   0  0  0  0  0  0  0  0  0  0  0  0
   -4.4318   -0.5359    0.9806 H   0  0  0  0  0  0  0  0  0  0  0  0
  1  6  1  0  0  0  0
  2  1  2  0  0  0  0
  2  3  1  0  0  0  0
  3  4  2  0  0  0  0
  4  5  1  0  0  0  0
  4  9  1  0  0  0  0
  5 10  1  0  0  0  0
  6  5  2  0  0  0  0
  7  1  1  0  0  0  0
  8  2  1  0  0  0  0
 11  3  1  0  0  0  0
 12 11  2  0  0  0  0
 14  6  1  0  0  0  0
 14 15  1  0  0  0  0
 15 18  1  0  0  0  0
 16 15  1  0  0  0  0
 17 15  1  0  0  0  0
M  RAD  2  12   2  13   2
M  END
