Coordinates from ORCA-job p-CH3O-Ph-N2-X-Cl-B3LYPG-6-31G_dp-scan-d09-49-n400
 OpenBabel08281821033D

 18 17  0  0  0  0  0  0  0  0999 V2000
   -1.0196   -1.5888   -0.9034 C   0  0  0  0  0  0  0  0  0  0  0  0
    0.2349   -1.0116   -0.9427 C   0  0  0  0  0  0  0  0  0  0  0  0
    0.3610    0.3336   -0.5407 C   0  0  0  0  0  0  0  0  0  0  0  0
   -0.7432    1.0796   -0.1095 C   0  0  0  0  0  0  0  0  0  0  0  0
   -1.9990    0.4904   -0.0738 C   0  0  0  0  0  0  0  0  0  0  0  0
   -2.1420   -0.8515   -0.4733 C   0  0  0  0  0  0  0  0  0  0  0  0
   -1.1667   -2.6203   -1.2036 H   0  0  0  0  0  0  0  0  0  0  0  0
    1.1178   -1.5535   -1.2697 H   0  0  0  0  0  0  0  0  0  0  0  0
   -0.6054    2.1120    0.1927 H   0  0  0  0  0  0  0  0  0  0  0  0
   -2.8505    1.0693    0.2594 H   0  0  0  0  0  0  0  0  0  0  0  0
    1.5963    0.9804   -0.5571 N   0  0  0  0  0  0  0  0  0  0  0  0
    2.7290    0.9150   -0.7818 N   0  0  0  0  0  0  0  0  0  0  0  0
    3.4854   -1.1777   -1.5787 Cl  0  0  0  0  0  0  0  0  0  0  0  0
   -3.3118   -1.5218   -0.4809 O   0  0  0  0  0  0  0  0  0  0  0  0
   -4.5009   -0.8530   -0.0642 C   0  0  0  0  0  0  0  0  0  0  0  0
   -5.3021   -1.5851   -0.1660 H   0  0  0  0  0  0  0  0  0  0  0  0
   -4.7152    0.0121   -0.7021 H   0  0  0  0  0  0  0  0  0  0  0  0
   -4.4314   -0.5317    0.9812 H   0  0  0  0  0  0  0  0  0  0  0  0
  1  6  1  0  0  0  0
  2  1  2  0  0  0  0
  2  3  1  0  0  0  0
  3  4  2  0  0  0  0
  4  5  1  0  0  0  0
  4  9  1  0  0  0  0
  5 10  1  0  0  0  0
  6  5  2  0  0  0  0
  7  1  1  0  0  0  0
  8  2  1  0  0  0  0
 11  3  1  0  0  0  0
 12 11  2  0  0  0  0
 14  6  1  0  0  0  0
 14 15  1  0  0  0  0
 15 18  1  0  0  0  0
 16 15  1  0  0  0  0
 17 15  1  0  0  0  0
M  RAD  2  12   2  13   2
M  END
