Coordinates from ORCA-job p-CH3O-Ph-N2-X-Cl-B3LYPG-6-31G_dp-scan-d09-49-n400
 OpenBabel08281821033D

 18 17  0  0  0  0  0  0  0  0999 V2000
   -1.0228   -1.6630   -0.9254 C   0  0  0  0  0  0  0  0  0  0  0  0
    0.2494   -1.1237   -0.9798 C   0  0  0  0  0  0  0  0  0  0  0  0
    0.4195    0.2063   -0.5907 C   0  0  0  0  0  0  0  0  0  0  0  0
   -0.6523    1.0036   -0.1497 C   0  0  0  0  0  0  0  0  0  0  0  0
   -1.9215    0.4531   -0.0995 C   0  0  0  0  0  0  0  0  0  0  0  0
   -2.1154   -0.8893   -0.4897 C   0  0  0  0  0  0  0  0  0  0  0  0
   -1.2020   -2.6911   -1.2185 H   0  0  0  0  0  0  0  0  0  0  0  0
    1.1331   -1.6766   -1.3107 H   0  0  0  0  0  0  0  0  0  0  0  0
   -0.4812    2.0333    0.1457 H   0  0  0  0  0  0  0  0  0  0  0  0
   -2.7484    1.0640    0.2390 H   0  0  0  0  0  0  0  0  0  0  0  0
    1.6889    0.8404   -0.6160 N   0  0  0  0  0  0  0  0  0  0  0  0
    2.2096    1.8270   -0.3952 N   0  0  0  0  0  0  0  0  0  0  0  0
    3.2895   -1.4491   -1.6390 Cl  0  0  0  0  0  0  0  0  0  0  0  0
   -3.3071   -1.5140   -0.4791 O   0  0  0  0  0  0  0  0  0  0  0  0
   -4.4693   -0.8023   -0.0542 C   0  0  0  0  0  0  0  0  0  0  0  0
   -5.2953   -1.5077   -0.1447 H   0  0  0  0  0  0  0  0  0  0  0  0
   -4.6598    0.0656   -0.6954 H   0  0  0  0  0  0  0  0  0  0  0  0
   -4.3783   -0.4794    0.9888 H   0  0  0  0  0  0  0  0  0  0  0  0
  1  6  1  0  0  0  0
  2  1  2  0  0  0  0
  2  3  1  0  0  0  0
  3  4  2  0  0  0  0
  4  5  1  0  0  0  0
  4  9  1  0  0  0  0
  5 10  1  0  0  0  0
  6 14  1  0  0  0  0
  6  5  2  0  0  0  0
  7  1  1  0  0  0  0
  8  2  1  0  0  0  0
 11  3  1  0  0  0  0
 11 12  2  0  0  0  0
 14 15  1  0  0  0  0
 15 18  1  0  0  0  0
 16 15  1  0  0  0  0
 17 15  1  0  0  0  0
M  RAD  2  12   2  13   2
M  END
