Coordinates from ORCA-job p-CH3O-Ph-N2-X-Cl-B3LYPG-6-31G_dp-scan-d09-49-n400
 OpenBabel08281821033D

 18 17  0  0  0  0  0  0  0  0999 V2000
   -1.0166   -1.6545   -0.9239 C   0  0  0  0  0  0  0  0  0  0  0  0
    0.2534   -1.1106   -0.9765 C   0  0  0  0  0  0  0  0  0  0  0  0
    0.4163    0.2205   -0.5856 C   0  0  0  0  0  0  0  0  0  0  0  0
   -0.6595    1.0140   -0.1451 C   0  0  0  0  0  0  0  0  0  0  0  0
   -1.9258    0.4579   -0.0973 C   0  0  0  0  0  0  0  0  0  0  0  0
   -2.1130   -0.8855   -0.4890 C   0  0  0  0  0  0  0  0  0  0  0  0
   -1.1913   -2.6831   -1.2180 H   0  0  0  0  0  0  0  0  0  0  0  0
    1.1421   -1.6599   -1.3073 H   0  0  0  0  0  0  0  0  0  0  0  0
   -0.4929    2.0442    0.1513 H   0  0  0  0  0  0  0  0  0  0  0  0
   -2.7561    1.0646    0.2405 H   0  0  0  0  0  0  0  0  0  0  0  0
    1.6798    0.8590   -0.6082 N   0  0  0  0  0  0  0  0  0  0  0  0
    2.2190    1.8360   -0.3937 N   0  0  0  0  0  0  0  0  0  0  0  0
    3.2837   -1.5353   -1.6653 Cl  0  0  0  0  0  0  0  0  0  0  0  0
   -3.3017   -1.5147   -0.4803 O   0  0  0  0  0  0  0  0  0  0  0  0
   -4.4683   -0.8090   -0.0565 C   0  0  0  0  0  0  0  0  0  0  0  0
   -5.2905   -1.5184   -0.1487 H   0  0  0  0  0  0  0  0  0  0  0  0
   -4.6620    0.0584   -0.6974 H   0  0  0  0  0  0  0  0  0  0  0  0
   -4.3801   -0.4866    0.9869 H   0  0  0  0  0  0  0  0  0  0  0  0
  1  6  1  0  0  0  0
  2  1  2  0  0  0  0
  2  3  1  0  0  0  0
  3  4  2  0  0  0  0
  4  5  1  0  0  0  0
  4  9  1  0  0  0  0
  5 10  1  0  0  0  0
  6 14  1  0  0  0  0
  6  5  2  0  0  0  0
  7  1  1  0  0  0  0
  8  2  1  0  0  0  0
 11  3  1  0  0  0  0
 11 12  2  0  0  0  0
 14 15  1  0  0  0  0
 15 18  1  0  0  0  0
 16 15  1  0  0  0  0
 17 15  1  0  0  0  0
M  RAD  2  12   2  13   2
M  END
