Coordinates from ORCA-job p-CH3O-Ph-N2-X-Cl-B3LYPG-6-31G_dp-scan-d09-49-n400
 OpenBabel08281821033D

 18 18  0  0  0  0  0  0  0  0999 V2000
   -1.0407   -1.6581   -0.8788 C   0  0  0  0  0  0  0  0  0  0  0  0
    0.2337   -1.1070   -0.9384 C   0  0  0  0  0  0  0  0  0  0  0  0
    0.4504    0.2539   -0.5862 C   0  0  0  0  0  0  0  0  0  0  0  0
   -0.6801    0.9950   -0.1800 C   0  0  0  0  0  0  0  0  0  0  0  0
   -1.9549    0.4496   -0.1193 C   0  0  0  0  0  0  0  0  0  0  0  0
   -2.1439   -0.8947   -0.4733 C   0  0  0  0  0  0  0  0  0  0  0  0
   -1.2055   -2.6960   -1.1490 H   0  0  0  0  0  0  0  0  0  0  0  0
    1.0431   -1.7449   -1.2588 H   0  0  0  0  0  0  0  0  0  0  0  0
   -0.5147    2.0328    0.0902 H   0  0  0  0  0  0  0  0  0  0  0  0
   -2.7850    1.0684    0.1994 H   0  0  0  0  0  0  0  0  0  0  0  0
    1.6200    1.0675   -0.5536 N   0  0  0  0  0  0  0  0  0  0  0  0
    2.7776    0.5890   -0.9033 N   0  0  0  0  0  0  0  0  0  0  0  0
    3.2012   -0.3719   -1.2644 Cl  0  0  0  0  0  0  0  0  0  0  0  0
   -3.3419   -1.5411   -0.4572 O   0  0  0  0  0  0  0  0  0  0  0  0
   -4.4961   -0.8146   -0.0602 C   0  0  0  0  0  0  0  0  0  0  0  0
   -5.3302   -1.5144   -0.1305 H   0  0  0  0  0  0  0  0  0  0  0  0
   -4.6840    0.0389   -0.7236 H   0  0  0  0  0  0  0  0  0  0  0  0
   -4.4124   -0.4552    0.9729 H   0  0  0  0  0  0  0  0  0  0  0  0
  1  6  1  0  0  0  0
  2  1  2  0  0  0  0
  2  3  1  0  0  0  0
  3 11  1  0  0  0  0
  3  4  2  0  0  0  0
  4  5  1  0  0  0  0
  4  9  1  0  0  0  0
  5 10  1  0  0  0  0
  6 14  1  0  0  0  0
  6  5  2  0  0  0  0
  7  1  1  0  0  0  0
  8  2  1  0  0  0  0
 12 11  2  0  0  0  0
 13 12  1  0  0  0  0
 14 15  1  0  0  0  0
 15 18  1  0  0  0  0
 16 15  1  0  0  0  0
 17 15  1  0  0  0  0
M  END
