Coordinates from ORCA-job p-CH3O-Ph-N2-X-Cl-B3LYPG-6-31G_dp-scan-d09-49-n400
 OpenBabel08281821033D

 18 17  0  0  0  0  0  0  0  0999 V2000
   -0.9865   -1.5509   -0.9004 C   0  0  0  0  0  0  0  0  0  0  0  0
    0.2576   -0.9535   -0.9313 C   0  0  0  0  0  0  0  0  0  0  0  0
    0.3393    0.3932   -0.5199 C   0  0  0  0  0  0  0  0  0  0  0  0
   -0.7725    1.1303   -0.0898 C   0  0  0  0  0  0  0  0  0  0  0  0
   -2.0123    0.5130   -0.0659 C   0  0  0  0  0  0  0  0  0  0  0  0
   -2.1243   -0.8337   -0.4729 C   0  0  0  0  0  0  0  0  0  0  0  0
   -1.1128   -2.5838   -1.2052 H   0  0  0  0  0  0  0  0  0  0  0  0
    1.1716   -1.4668   -1.2552 H   0  0  0  0  0  0  0  0  0  0  0  0
   -0.6571    2.1639    0.2175 H   0  0  0  0  0  0  0  0  0  0  0  0
   -2.8787    1.0707    0.2640 H   0  0  0  0  0  0  0  0  0  0  0  0
    1.5813    1.0083   -0.5455 N   0  0  0  0  0  0  0  0  0  0  0  0
    2.7019    1.0596   -0.7280 N   0  0  0  0  0  0  0  0  0  0  0  0
    3.4090   -1.6295   -1.6991 Cl  0  0  0  0  0  0  0  0  0  0  0  0
   -3.2788   -1.5220   -0.4882 O   0  0  0  0  0  0  0  0  0  0  0  0
   -4.4867   -0.8823   -0.0739 C   0  0  0  0  0  0  0  0  0  0  0  0
   -5.2685   -1.6338   -0.1825 H   0  0  0  0  0  0  0  0  0  0  0  0
   -4.7178   -0.0211   -0.7107 H   0  0  0  0  0  0  0  0  0  0  0  0
   -4.4281   -0.5647    0.9729 H   0  0  0  0  0  0  0  0  0  0  0  0
  1  6  1  0  0  0  0
  2  1  2  0  0  0  0
  2  3  1  0  0  0  0
  3  4  2  0  0  0  0
  4  5  1  0  0  0  0
  4  9  1  0  0  0  0
  5 10  1  0  0  0  0
  6  5  2  0  0  0  0
  7  1  1  0  0  0  0
  8  2  1  0  0  0  0
 11  3  1  0  0  0  0
 12 11  1  0  0  0  0
 14  6  1  0  0  0  0
 14 15  1  0  0  0  0
 15 18  1  0  0  0  0
 16 15  1  0  0  0  0
 17 15  1  0  0  0  0
M  RAD  3  11   2  12   3  13   2
M  END
