Coordinates from ORCA-job p-CH3O-Ph-N2-X-Cl-B3LYPG-6-31G_dp-scan-d09-49-n400
 OpenBabel08281821033D

 18 18  0  0  0  0  0  0  0  0999 V2000
   -1.0345   -1.6156   -0.9079 C   0  0  0  0  0  0  0  0  0  0  0  0
    0.2280   -1.0533   -0.9535 C   0  0  0  0  0  0  0  0  0  0  0  0
    0.3936    0.2924   -0.5593 C   0  0  0  0  0  0  0  0  0  0  0  0
   -0.7141    1.0383   -0.1283 C   0  0  0  0  0  0  0  0  0  0  0  0
   -1.9809    0.4717   -0.0836 C   0  0  0  0  0  0  0  0  0  0  0  0
   -2.1465   -0.8666   -0.4769 C   0  0  0  0  0  0  0  0  0  0  0  0
   -1.1945   -2.6462   -1.2049 H   0  0  0  0  0  0  0  0  0  0  0  0
    1.0795   -1.6297   -1.2852 H   0  0  0  0  0  0  0  0  0  0  0  0
   -0.5598    2.0696    0.1701 H   0  0  0  0  0  0  0  0  0  0  0  0
   -2.8209    1.0664    0.2518 H   0  0  0  0  0  0  0  0  0  0  0  0
    1.6042    0.9965   -0.5522 N   0  0  0  0  0  0  0  0  0  0  0  0
    2.7568    0.8526   -0.8055 N   0  0  0  0  0  0  0  0  0  0  0  0
    3.3992   -0.8880   -1.4758 Cl  0  0  0  0  0  0  0  0  0  0  0  0
   -3.3273   -1.5245   -0.4784 O   0  0  0  0  0  0  0  0  0  0  0  0
   -4.5016   -0.8352   -0.0587 C   0  0  0  0  0  0  0  0  0  0  0  0
   -5.3166   -1.5532   -0.1536 H   0  0  0  0  0  0  0  0  0  0  0  0
   -4.7053    0.0322   -0.6974 H   0  0  0  0  0  0  0  0  0  0  0  0
   -4.4227   -0.5103    0.9852 H   0  0  0  0  0  0  0  0  0  0  0  0
  1  6  1  0  0  0  0
  2  1  2  0  0  0  0
  2  3  1  0  0  0  0
  3 11  1  0  0  0  0
  3  4  2  0  0  0  0
  4  5  1  0  0  0  0
  4  9  1  0  0  0  0
  5 10  1  0  0  0  0
  6  5  2  0  0  0  0
  7  1  1  0  0  0  0
  8  2  1  0  0  0  0
 12 11  2  0  0  0  0
 13 12  1  0  0  0  0
 14  6  1  0  0  0  0
 14 15  1  0  0  0  0
 15 18  1  0  0  0  0
 16 15  1  0  0  0  0
 17 15  1  0  0  0  0
M  END
