Coordinates from ORCA-job p-CH3O-Ph-N2-X-Cl-B3LYPG-6-31G_dp-scan-d09-49-n400
 OpenBabel08281821033D

 18 17  0  0  0  0  0  0  0  0999 V2000
   -1.0185   -1.6570   -0.9243 C   0  0  0  0  0  0  0  0  0  0  0  0
    0.2520   -1.1142   -0.9773 C   0  0  0  0  0  0  0  0  0  0  0  0
    0.4169    0.2165   -0.5870 C   0  0  0  0  0  0  0  0  0  0  0  0
   -0.6576    1.0111   -0.1463 C   0  0  0  0  0  0  0  0  0  0  0  0
   -1.9247    0.4565   -0.0978 C   0  0  0  0  0  0  0  0  0  0  0  0
   -2.1138   -0.8866   -0.4891 C   0  0  0  0  0  0  0  0  0  0  0  0
   -1.1944   -2.6855   -1.2182 H   0  0  0  0  0  0  0  0  0  0  0  0
    1.1399   -1.6636   -1.3080 H   0  0  0  0  0  0  0  0  0  0  0  0
   -0.4897    2.0412    0.1498 H   0  0  0  0  0  0  0  0  0  0  0  0
   -2.7541    1.0644    0.2401 H   0  0  0  0  0  0  0  0  0  0  0  0
    1.6824    0.8528   -0.6108 N   0  0  0  0  0  0  0  0  0  0  0  0
    2.2181    1.8317   -0.3951 N   0  0  0  0  0  0  0  0  0  0  0  0
    3.2851   -1.5089   -1.6571 Cl  0  0  0  0  0  0  0  0  0  0  0  0
   -3.3034   -1.5146   -0.4799 O   0  0  0  0  0  0  0  0  0  0  0  0
   -4.4687   -0.8071   -0.0558 C   0  0  0  0  0  0  0  0  0  0  0  0
   -5.2920   -1.5154   -0.1476 H   0  0  0  0  0  0  0  0  0  0  0  0
   -4.6615    0.0604   -0.6968 H   0  0  0  0  0  0  0  0  0  0  0  0
   -4.3798   -0.4847    0.9875 H   0  0  0  0  0  0  0  0  0  0  0  0
  1  6  1  0  0  0  0
  2  1  2  0  0  0  0
  2  3  1  0  0  0  0
  3  4  2  0  0  0  0
  4  5  1  0  0  0  0
  4  9  1  0  0  0  0
  5 10  1  0  0  0  0
  6 14  1  0  0  0  0
  6  5  2  0  0  0  0
  7  1  1  0  0  0  0
  8  2  1  0  0  0  0
 11  3  1  0  0  0  0
 11 12  2  0  0  0  0
 14 15  1  0  0  0  0
 15 18  1  0  0  0  0
 16 15  1  0  0  0  0
 17 15  1  0  0  0  0
M  RAD  2  12   2  13   2
M  END
