Coordinates from ORCA-job p-CH3O-Ph-N2-X-Cl-B3LYPG-6-31G_dp-scan-d09-49-n400
 OpenBabel08281821033D

 18 17  0  0  0  0  0  0  0  0999 V2000
   -0.9173   -1.5271   -0.9052 C   0  0  0  0  0  0  0  0  0  0  0  0
    0.3226   -0.9202   -0.9318 C   0  0  0  0  0  0  0  0  0  0  0  0
    0.3794    0.4321   -0.5132 C   0  0  0  0  0  0  0  0  0  0  0  0
   -0.7585    1.1599   -0.0807 C   0  0  0  0  0  0  0  0  0  0  0  0
   -1.9782    0.5216   -0.0678 C   0  0  0  0  0  0  0  0  0  0  0  0
   -2.0673   -0.8332   -0.4827 C   0  0  0  0  0  0  0  0  0  0  0  0
   -1.0147   -2.5616   -1.2164 H   0  0  0  0  0  0  0  0  0  0  0  0
    1.2439   -1.4646   -1.2679 H   0  0  0  0  0  0  0  0  0  0  0  0
   -0.6662    2.1944    0.2321 H   0  0  0  0  0  0  0  0  0  0  0  0
   -2.8555    1.0639    0.2597 H   0  0  0  0  0  0  0  0  0  0  0  0
    1.5673    1.0984   -0.5128 N   0  0  0  0  0  0  0  0  0  0  0  0
    2.4900    1.7397   -0.4740 N   0  0  0  0  0  0  0  0  0  0  0  0
    2.9007   -2.4329   -1.8692 Cl  0  0  0  0  0  0  0  0  0  0  0  0
   -3.2114   -1.5300   -0.5037 O   0  0  0  0  0  0  0  0  0  0  0  0
   -4.4344   -0.9122   -0.0939 C   0  0  0  0  0  0  0  0  0  0  0  0
   -5.2005   -1.6782   -0.2099 H   0  0  0  0  0  0  0  0  0  0  0  0
   -4.6766   -0.0545   -0.7308 H   0  0  0  0  0  0  0  0  0  0  0  0
   -4.3866   -0.5984    0.9542 H   0  0  0  0  0  0  0  0  0  0  0  0
  1  6  1  0  0  0  0
  2  1  2  0  0  0  0
  2  3  1  0  0  0  0
  3 11  1  0  0  0  0
  3  4  2  0  0  0  0
  4  5  1  0  0  0  0
  4  9  1  0  0  0  0
  5 10  1  0  0  0  0
  6  5  2  0  0  0  0
  7  1  1  0  0  0  0
  8  2  1  0  0  0  0
 11 12  1  0  0  0  0
 14  6  1  0  0  0  0
 14 15  1  0  0  0  0
 15 18  1  0  0  0  0
 16 15  1  0  0  0  0
 17 15  1  0  0  0  0
M  RAD  3  11   2  12   3  13   2
M  END
