Coordinates from ORCA-job p-CH3O-Ph-N2-X-Cl-B3LYPG-6-31G_dp-scan-d09-49-n400
 OpenBabel08281821033D

 18 17  0  0  0  0  0  0  0  0999 V2000
   -1.0008   -1.6320   -0.9226 C   0  0  0  0  0  0  0  0  0  0  0  0
    0.2638   -1.0767   -0.9700 C   0  0  0  0  0  0  0  0  0  0  0  0
    0.4089    0.2569   -0.5738 C   0  0  0  0  0  0  0  0  0  0  0  0
   -0.6771    1.0400   -0.1340 C   0  0  0  0  0  0  0  0  0  0  0  0
   -1.9362    0.4701   -0.0921 C   0  0  0  0  0  0  0  0  0  0  0  0
   -2.1067   -0.8755   -0.4886 C   0  0  0  0  0  0  0  0  0  0  0  0
   -1.1636   -2.6617   -1.2200 H   0  0  0  0  0  0  0  0  0  0  0  0
    1.1632   -1.6191   -1.3004 H   0  0  0  0  0  0  0  0  0  0  0  0
   -0.5220    2.0711    0.1656 H   0  0  0  0  0  0  0  0  0  0  0  0
   -2.7746    1.0660    0.2445 H   0  0  0  0  0  0  0  0  0  0  0  0
    1.6577    0.9045   -0.5902 N   0  0  0  0  0  0  0  0  0  0  0  0
    2.2502    1.8520   -0.3954 N   0  0  0  0  0  0  0  0  0  0  0  0
    3.2526   -1.7417   -1.7157 Cl  0  0  0  0  0  0  0  0  0  0  0  0
   -3.2876   -1.5164   -0.4848 O   0  0  0  0  0  0  0  0  0  0  0  0
   -4.4645   -0.8266   -0.0614 C   0  0  0  0  0  0  0  0  0  0  0  0
   -5.2769   -1.5467   -0.1577 H   0  0  0  0  0  0  0  0  0  0  0  0
   -4.6677    0.0397   -0.7006 H   0  0  0  0  0  0  0  0  0  0  0  0
   -4.3823   -0.5067    0.9831 H   0  0  0  0  0  0  0  0  0  0  0  0
  1  6  1  0  0  0  0
  2  1  2  0  0  0  0
  2  3  1  0  0  0  0
  3  4  2  0  0  0  0
  4  5  1  0  0  0  0
  4  9  1  0  0  0  0
  5 10  1  0  0  0  0
  6 14  1  0  0  0  0
  6  5  2  0  0  0  0
  7  1  1  0  0  0  0
  8  2  1  0  0  0  0
 11  3  1  0  0  0  0
 11 12  2  0  0  0  0
 14 15  1  0  0  0  0
 15 18  1  0  0  0  0
 16 15  1  0  0  0  0
 17 15  1  0  0  0  0
M  RAD  2  12   2  13   2
M  END
