Coordinates from ORCA-job p-CH3O-Ph-N2-X-Cl-B3LYPG-6-31G_dp-scan-d09-49-n400
 OpenBabel08281821033D

 18 17  0  0  0  0  0  0  0  0999 V2000
   -0.9915   -1.5558   -0.9002 C   0  0  0  0  0  0  0  0  0  0  0  0
    0.2538   -0.9609   -0.9323 C   0  0  0  0  0  0  0  0  0  0  0  0
    0.3407    0.3856   -0.5221 C   0  0  0  0  0  0  0  0  0  0  0  0
   -0.7696    1.1241   -0.0920 C   0  0  0  0  0  0  0  0  0  0  0  0
   -2.0115    0.5103   -0.0665 C   0  0  0  0  0  0  0  0  0  0  0  0
   -2.1274   -0.8359   -0.4724 C   0  0  0  0  0  0  0  0  0  0  0  0
   -1.1207   -2.5886   -1.2043 H   0  0  0  0  0  0  0  0  0  0  0  0
    1.1643   -1.4765   -1.2563 H   0  0  0  0  0  0  0  0  0  0  0  0
   -0.6513    2.1576    0.2146 H   0  0  0  0  0  0  0  0  0  0  0  0
   -2.8761    1.0707    0.2637 H   0  0  0  0  0  0  0  0  0  0  0  0
    1.5831    1.0034   -0.5473 N   0  0  0  0  0  0  0  0  0  0  0  0
    2.7051    1.0350   -0.7370 N   0  0  0  0  0  0  0  0  0  0  0  0
    3.4326   -1.5683   -1.6862 Cl  0  0  0  0  0  0  0  0  0  0  0  0
   -3.2839   -1.5219   -0.4868 O   0  0  0  0  0  0  0  0  0  0  0  0
   -4.4895   -0.8782   -0.0726 C   0  0  0  0  0  0  0  0  0  0  0  0
   -5.2739   -1.6271   -0.1805 H   0  0  0  0  0  0  0  0  0  0  0  0
   -4.7181   -0.0165   -0.7097 H   0  0  0  0  0  0  0  0  0  0  0  0
   -4.4297   -0.5599    0.9740 H   0  0  0  0  0  0  0  0  0  0  0  0
  1  6  1  0  0  0  0
  2  1  2  0  0  0  0
  2  3  1  0  0  0  0
  3  4  2  0  0  0  0
  4  5  1  0  0  0  0
  4  9  1  0  0  0  0
  5 10  1  0  0  0  0
  6  5  2  0  0  0  0
  7  1  1  0  0  0  0
  8  2  1  0  0  0  0
 11  3  1  0  0  0  0
 12 11  2  0  0  0  0
 14  6  1  0  0  0  0
 14 15  1  0  0  0  0
 15 18  1  0  0  0  0
 16 15  1  0  0  0  0
 17 15  1  0  0  0  0
M  RAD  2  12   2  13   2
M  END
