Coordinates from ORCA-job p-CH3O-Ph-N2-X-Cl-B3LYPG-6-31G_dp-scan-d09-49-n400
 OpenBabel08281821033D

 18 17  0  0  0  0  0  0  0  0999 V2000
   -1.0230   -1.5945   -0.9035 C   0  0  0  0  0  0  0  0  0  0  0  0
    0.2330   -1.0201   -0.9440 C   0  0  0  0  0  0  0  0  0  0  0  0
    0.3665    0.3250   -0.5436 C   0  0  0  0  0  0  0  0  0  0  0  0
   -0.7378    1.0715   -0.1128 C   0  0  0  0  0  0  0  0  0  0  0  0
   -1.9960    0.4867   -0.0756 C   0  0  0  0  0  0  0  0  0  0  0  0
   -2.1434   -0.8545   -0.4735 C   0  0  0  0  0  0  0  0  0  0  0  0
   -1.1728   -2.6259   -1.2028 H   0  0  0  0  0  0  0  0  0  0  0  0
    1.1103   -1.5680   -1.2719 H   0  0  0  0  0  0  0  0  0  0  0  0
   -0.5968    2.1037    0.1886 H   0  0  0  0  0  0  0  0  0  0  0  0
   -2.8452    1.0689    0.2576 H   0  0  0  0  0  0  0  0  0  0  0  0
    1.5985    0.9810   -0.5556 N   0  0  0  0  0  0  0  0  0  0  0  0
    2.7336    0.8992   -0.7864 N   0  0  0  0  0  0  0  0  0  0  0  0
    3.4764   -1.1156   -1.5630 Cl  0  0  0  0  0  0  0  0  0  0  0  0
   -3.3154   -1.5223   -0.4800 O   0  0  0  0  0  0  0  0  0  0  0  0
   -4.5016   -0.8491   -0.0634 C   0  0  0  0  0  0  0  0  0  0  0  0
   -5.3056   -1.5784   -0.1635 H   0  0  0  0  0  0  0  0  0  0  0  0
   -4.7137    0.0160   -0.7021 H   0  0  0  0  0  0  0  0  0  0  0  0
   -4.4305   -0.5263    0.9815 H   0  0  0  0  0  0  0  0  0  0  0  0
  1  6  1  0  0  0  0
  2  1  2  0  0  0  0
  2  3  1  0  0  0  0
  3  4  2  0  0  0  0
  4  5  1  0  0  0  0
  4  9  1  0  0  0  0
  5 10  1  0  0  0  0
  6  5  2  0  0  0  0
  7  1  1  0  0  0  0
  8  2  1  0  0  0  0
 11  3  1  0  0  0  0
 12 11  2  0  0  0  0
 14  6  1  0  0  0  0
 14 15  1  0  0  0  0
 15 18  1  0  0  0  0
 16 15  1  0  0  0  0
 17 15  1  0  0  0  0
M  RAD  2  12   2  13   2
M  END
