Coordinates from ORCA-job p-CH3O-Ph-N2-X-Cl-B3LYPG-6-31G_dp-scan-d09-49-n400
 OpenBabel08281821033D

 18 18  0  0  0  0  0  0  0  0999 V2000
   -1.0303   -1.6085   -0.9038 C   0  0  0  0  0  0  0  0  0  0  0  0
    0.2297   -1.0416   -0.9470 C   0  0  0  0  0  0  0  0  0  0  0  0
    0.3820    0.3038   -0.5511 C   0  0  0  0  0  0  0  0  0  0  0  0
   -0.7236    1.0511   -0.1210 C   0  0  0  0  0  0  0  0  0  0  0  0
   -1.9872    0.4775   -0.0802 C   0  0  0  0  0  0  0  0  0  0  0  0
   -2.1457   -0.8622   -0.4746 C   0  0  0  0  0  0  0  0  0  0  0  0
   -1.1864   -2.6397   -1.2009 H   0  0  0  0  0  0  0  0  0  0  0  0
    1.0928   -1.6054   -1.2761 H   0  0  0  0  0  0  0  0  0  0  0  0
   -0.5745    2.0828    0.1784 H   0  0  0  0  0  0  0  0  0  0  0  0
   -2.8310    1.0676    0.2533 H   0  0  0  0  0  0  0  0  0  0  0  0
    1.6031    0.9852   -0.5519 N   0  0  0  0  0  0  0  0  0  0  0  0
    2.7470    0.8695   -0.7981 N   0  0  0  0  0  0  0  0  0  0  0  0
    3.4358   -0.9695   -1.5220 Cl  0  0  0  0  0  0  0  0  0  0  0  0
   -3.3232   -1.5235   -0.4785 O   0  0  0  0  0  0  0  0  0  0  0  0
   -4.5024   -0.8397   -0.0619 C   0  0  0  0  0  0  0  0  0  0  0  0
   -5.3133   -1.5620   -0.1590 H   0  0  0  0  0  0  0  0  0  0  0  0
   -4.7084    0.0262   -0.7016 H   0  0  0  0  0  0  0  0  0  0  0  0
   -4.4276   -0.5147    0.9822 H   0  0  0  0  0  0  0  0  0  0  0  0
  1  6  1  0  0  0  0
  2  1  2  0  0  0  0
  2  3  1  0  0  0  0
  3  4  2  0  0  0  0
  4  5  1  0  0  0  0
  4  9  1  0  0  0  0
  5 10  1  0  0  0  0
  6  5  2  0  0  0  0
  7  1  1  0  0  0  0
  8  2  1  0  0  0  0
 11  3  1  0  0  0  0
 12 11  2  0  0  0  0
 13 12  1  0  0  0  0
 14  6  1  0  0  0  0
 14 15  1  0  0  0  0
 15 18  1  0  0  0  0
 16 15  1  0  0  0  0
 17 15  1  0  0  0  0
M  END
