Coordinates from ORCA-job p-CH3O-Ph-N2-X-Cl-B3LYPG-6-31G_dp-scan-d09-49-n400
 OpenBabel08281821033D

 18 17  0  0  0  0  0  0  0  0999 V2000
   -1.0005   -1.5650   -0.9005 C   0  0  0  0  0  0  0  0  0  0  0  0
    0.2470   -0.9745   -0.9347 C   0  0  0  0  0  0  0  0  0  0  0  0
    0.3445    0.3714   -0.5271 C   0  0  0  0  0  0  0  0  0  0  0  0
   -0.7631    1.1122   -0.0961 C   0  0  0  0  0  0  0  0  0  0  0  0
   -2.0090    0.5048   -0.0673 C   0  0  0  0  0  0  0  0  0  0  0  0
   -2.1326   -0.8400   -0.4718 C   0  0  0  0  0  0  0  0  0  0  0  0
   -1.1349   -2.5974   -1.2036 H   0  0  0  0  0  0  0  0  0  0  0  0
    1.1508   -1.4948   -1.2592 H   0  0  0  0  0  0  0  0  0  0  0  0
   -0.6394    2.1454    0.2094 H   0  0  0  0  0  0  0  0  0  0  0  0
   -2.8699    1.0701    0.2643 H   0  0  0  0  0  0  0  0  0  0  0  0
    1.5873    0.9946   -0.5527 N   0  0  0  0  0  0  0  0  0  0  0  0
    2.7117    0.9875   -0.7565 N   0  0  0  0  0  0  0  0  0  0  0  0
    3.4648   -1.4499   -1.6544 Cl  0  0  0  0  0  0  0  0  0  0  0  0
   -3.2929   -1.5217   -0.4846 O   0  0  0  0  0  0  0  0  0  0  0  0
   -4.4940   -0.8708   -0.0704 C   0  0  0  0  0  0  0  0  0  0  0  0
   -5.2833   -1.6147   -0.1779 H   0  0  0  0  0  0  0  0  0  0  0  0
   -4.7177   -0.0076   -0.7072 H   0  0  0  0  0  0  0  0  0  0  0  0
   -4.4324   -0.5525    0.9762 H   0  0  0  0  0  0  0  0  0  0  0  0
  1  6  1  0  0  0  0
  2  1  2  0  0  0  0
  2  3  1  0  0  0  0
  3  4  2  0  0  0  0
  4  5  1  0  0  0  0
  4  9  1  0  0  0  0
  5 10  1  0  0  0  0
  6  5  2  0  0  0  0
  7  1  1  0  0  0  0
  8  2  1  0  0  0  0
 11  3  1  0  0  0  0
 12 11  2  0  0  0  0
 14  6  1  0  0  0  0
 14 15  1  0  0  0  0
 15 18  1  0  0  0  0
 16 15  1  0  0  0  0
 17 15  1  0  0  0  0
M  RAD  2  12   2  13   2
M  END
