Coordinates from ORCA-job p-CH3O-Ph-N2-X-Cl-B3LYPG-6-31G_dp-scan-d09-49-n400
 OpenBabel08281821033D

 18 18  0  0  0  0  0  0  0  0999 V2000
   -1.0013   -1.7132   -0.7150 C   0  0  0  0  0  0  0  0  0  0  0  0
    0.2781   -1.1785   -0.7114 C   0  0  0  0  0  0  0  0  0  0  0  0
    0.4802    0.1818   -0.3967 C   0  0  0  0  0  0  0  0  0  0  0  0
   -0.6350    0.9602   -0.0564 C   0  0  0  0  0  0  0  0  0  0  0  0
   -1.9264    0.4410   -0.0960 C   0  0  0  0  0  0  0  0  0  0  0  0
   -2.1154   -0.9073   -0.4286 C   0  0  0  0  0  0  0  0  0  0  0  0
   -1.1680   -2.7607   -0.9436 H   0  0  0  0  0  0  0  0  0  0  0  0
    1.1162   -1.8319   -0.9202 H   0  0  0  0  0  0  0  0  0  0  0  0
   -0.4684    1.9920    0.2359 H   0  0  0  0  0  0  0  0  0  0  0  0
   -2.7648    1.0797    0.1529 H   0  0  0  0  0  0  0  0  0  0  0  0
    1.7337    0.8459   -0.2253 N   0  0  0  0  0  0  0  0  0  0  0  0
    2.7134    0.7147   -1.0190 N   0  0  0  0  0  0  0  0  0  0  0  0
    2.7265   -0.0524   -2.2036 Cl  0  0  0  0  0  0  0  0  0  0  0  0
   -3.3236   -1.5300   -0.4858 O   0  0  0  0  0  0  0  0  0  0  0  0
   -4.4906   -0.7706   -0.2026 C   0  0  0  0  0  0  0  0  0  0  0  0
   -5.3307   -1.4560   -0.3225 H   0  0  0  0  0  0  0  0  0  0  0  0
   -4.6054    0.0680   -0.9007 H   0  0  0  0  0  0  0  0  0  0  0  0
   -4.4820   -0.3856    0.8246 H   0  0  0  0  0  0  0  0  0  0  0  0
  1  2  2  0  0  0  0
  1  6  1  0  0  0  0
  2  3  1  0  0  0  0
  3 11  1  0  0  0  0
  3  4  2  0  0  0  0
  4  9  1  0  0  0  0
  5  4  1  0  0  0  0
  5 10  1  0  0  0  0
  6  5  2  0  0  0  0
  7  1  1  0  0  0  0
  8  2  1  0  0  0  0
 12 11  2  0  0  0  0
 13 12  1  0  0  0  0
 14  6  1  0  0  0  0
 14 15  1  0  0  0  0
 15 18  1  0  0  0  0
 16 15  1  0  0  0  0
 17 15  1  0  0  0  0
M  END
