Coordinates from ORCA-job p-CH3O-Ph-N2-X-Cl-B3LYPG-6-31G_dp-scan-d09-49-n400
 OpenBabel08281821033D

 18 17  0  0  0  0  0  0  0  0999 V2000
   -0.9668   -1.5381   -0.8990 C   0  0  0  0  0  0  0  0  0  0  0  0
    0.2741   -0.9348   -0.9276 C   0  0  0  0  0  0  0  0  0  0  0  0
    0.3393    0.4141   -0.5129 C   0  0  0  0  0  0  0  0  0  0  0  0
   -0.7786    1.1481   -0.0829 C   0  0  0  0  0  0  0  0  0  0  0  0
   -2.0105    0.5205   -0.0637 C   0  0  0  0  0  0  0  0  0  0  0  0
   -2.1104   -0.8293   -0.4735 C   0  0  0  0  0  0  0  0  0  0  0  0
   -1.0843   -2.5718   -1.2054 H   0  0  0  0  0  0  0  0  0  0  0  0
    1.1999   -1.4457   -1.2529 H   0  0  0  0  0  0  0  0  0  0  0  0
   -0.6724    2.1822    0.2261 H   0  0  0  0  0  0  0  0  0  0  0  0
   -2.8829    1.0699    0.2645 H   0  0  0  0  0  0  0  0  0  0  0  0
    1.5745    1.0232   -0.5392 N   0  0  0  0  0  0  0  0  0  0  0  0
    2.6816    1.1949   -0.6816 N   0  0  0  0  0  0  0  0  0  0  0  0
    3.2889   -1.8522   -1.7511 Cl  0  0  0  0  0  0  0  0  0  0  0  0
   -3.2591   -1.5230   -0.4917 O   0  0  0  0  0  0  0  0  0  0  0  0
   -4.4749   -0.8943   -0.0803 C   0  0  0  0  0  0  0  0  0  0  0  0
   -5.2488   -1.6533   -0.1922 H   0  0  0  0  0  0  0  0  0  0  0  0
   -4.7115   -0.0352   -0.7176 H   0  0  0  0  0  0  0  0  0  0  0  0
   -4.4217   -0.5779    0.9670 H   0  0  0  0  0  0  0  0  0  0  0  0
  1  6  1  0  0  0  0
  2  1  2  0  0  0  0
  2  3  1  0  0  0  0
  3  4  2  0  0  0  0
  4  5  1  0  0  0  0
  4  9  1  0  0  0  0
  5 10  1  0  0  0  0
  6  5  2  0  0  0  0
  7  1  1  0  0  0  0
  8  2  1  0  0  0  0
 11  3  1  0  0  0  0
 12 11  1  0  0  0  0
 14  6  1  0  0  0  0
 14 15  1  0  0  0  0
 15 18  1  0  0  0  0
 16 15  1  0  0  0  0
 17 15  1  0  0  0  0
M  RAD  3  11   2  12   3  13   2
M  END
