Coordinates from ORCA-job p-CH3O-Ph-N2-X-Cl-B3LYPG-6-31G_dp-scan-d09-49-n400
 OpenBabel08281821033D

 18 17  0  0  0  0  0  0  0  0999 V2000
   -0.9634   -1.5368   -0.8995 C   0  0  0  0  0  0  0  0  0  0  0  0
    0.2775   -0.9334   -0.9279 C   0  0  0  0  0  0  0  0  0  0  0  0
    0.3406    0.4162   -0.5125 C   0  0  0  0  0  0  0  0  0  0  0  0
   -0.7785    1.1501   -0.0824 C   0  0  0  0  0  0  0  0  0  0  0  0
   -2.0092    0.5212   -0.0639 C   0  0  0  0  0  0  0  0  0  0  0  0
   -2.1075   -0.8291   -0.4742 C   0  0  0  0  0  0  0  0  0  0  0  0
   -1.0799   -2.5705   -1.2060 H   0  0  0  0  0  0  0  0  0  0  0  0
    1.2048   -1.4453   -1.2537 H   0  0  0  0  0  0  0  0  0  0  0  0
   -0.6736    2.1842    0.2269 H   0  0  0  0  0  0  0  0  0  0  0  0
   -2.8822    1.0696    0.2641 H   0  0  0  0  0  0  0  0  0  0  0  0
    1.5734    1.0256   -0.5382 N   0  0  0  0  0  0  0  0  0  0  0  0
    2.6754    1.2284   -0.6697 N   0  0  0  0  0  0  0  0  0  0  0  0
    3.2620   -1.8916   -1.7583 Cl  0  0  0  0  0  0  0  0  0  0  0  0
   -3.2557   -1.5231   -0.4926 O   0  0  0  0  0  0  0  0  0  0  0  0
   -4.4724   -0.8958   -0.0810 C   0  0  0  0  0  0  0  0  0  0  0  0
   -5.2452   -1.6559   -0.1933 H   0  0  0  0  0  0  0  0  0  0  0  0
   -4.7099   -0.0370   -0.7183 H   0  0  0  0  0  0  0  0  0  0  0  0
   -4.4197   -0.5797    0.9663 H   0  0  0  0  0  0  0  0  0  0  0  0
  1  6  1  0  0  0  0
  2  1  2  0  0  0  0
  2  3  1  0  0  0  0
  3  4  2  0  0  0  0
  4  5  1  0  0  0  0
  4  9  1  0  0  0  0
  5 10  1  0  0  0  0
  6  5  2  0  0  0  0
  7  1  1  0  0  0  0
  8  2  1  0  0  0  0
 11  3  1  0  0  0  0
 12 11  1  0  0  0  0
 14  6  1  0  0  0  0
 14 15  1  0  0  0  0
 15 18  1  0  0  0  0
 16 15  1  0  0  0  0
 17 15  1  0  0  0  0
M  RAD  3  11   2  12   3  13   2
M  END
