Coordinates from ORCA-job p-CH3O-Ph-N2-X-Cl-B3LYPG-6-31G_dp-scan-d09-49-n400
 OpenBabel08281821033D

 18 17  0  0  0  0  0  0  0  0999 V2000
   -0.9614   -1.5364   -0.8999 C   0  0  0  0  0  0  0  0  0  0  0  0
    0.2794   -0.9328   -0.9282 C   0  0  0  0  0  0  0  0  0  0  0  0
    0.3413    0.4169   -0.5125 C   0  0  0  0  0  0  0  0  0  0  0  0
   -0.7782    1.1512   -0.0822 C   0  0  0  0  0  0  0  0  0  0  0  0
   -2.0082    0.5217   -0.0640 C   0  0  0  0  0  0  0  0  0  0  0  0
   -2.1058   -0.8292   -0.4747 C   0  0  0  0  0  0  0  0  0  0  0  0
   -1.0771   -2.5701   -1.2067 H   0  0  0  0  0  0  0  0  0  0  0  0
    1.2086   -1.4445   -1.2543 H   0  0  0  0  0  0  0  0  0  0  0  0
   -0.6739    2.1853    0.2273 H   0  0  0  0  0  0  0  0  0  0  0  0
   -2.8816    1.0695    0.2639 H   0  0  0  0  0  0  0  0  0  0  0  0
    1.5732    1.0247   -0.5384 N   0  0  0  0  0  0  0  0  0  0  0  0
    2.6709    1.2491   -0.6622 N   0  0  0  0  0  0  0  0  0  0  0  0
    3.2441   -1.9129   -1.7613 Cl  0  0  0  0  0  0  0  0  0  0  0  0
   -3.2537   -1.5232   -0.4931 O   0  0  0  0  0  0  0  0  0  0  0  0
   -4.4708   -0.8966   -0.0814 C   0  0  0  0  0  0  0  0  0  0  0  0
   -5.2431   -1.6571   -0.1938 H   0  0  0  0  0  0  0  0  0  0  0  0
   -4.7088   -0.0379   -0.7187 H   0  0  0  0  0  0  0  0  0  0  0  0
   -4.4182   -0.5807    0.9660 H   0  0  0  0  0  0  0  0  0  0  0  0
  1  6  1  0  0  0  0
  2  1  2  0  0  0  0
  2  3  1  0  0  0  0
  3  4  2  0  0  0  0
  4  5  1  0  0  0  0
  4  9  1  0  0  0  0
  5 10  1  0  0  0  0
  6  5  2  0  0  0  0
  7  1  1  0  0  0  0
  8  2  1  0  0  0  0
 11  3  1  0  0  0  0
 12 11  1  0  0  0  0
 14  6  1  0  0  0  0
 14 15  1  0  0  0  0
 15 18  1  0  0  0  0
 16 15  1  0  0  0  0
 17 15  1  0  0  0  0
M  RAD  3  11   2  12   3  13   2
M  END
