Coordinates from ORCA-job p-CH3O-Ph-N2-X-Cl-B3LYPG-6-31G_dp-scan-d09-49-n400
 OpenBabel08281821033D

 18 18  0  0  0  0  0  0  0  0999 V2000
   -1.0228   -1.6523   -0.8300 C   0  0  0  0  0  0  0  0  0  0  0  0
    0.2465   -1.1017   -0.8589 C   0  0  0  0  0  0  0  0  0  0  0  0
    0.4265    0.2520   -0.4941 C   0  0  0  0  0  0  0  0  0  0  0  0
   -0.6885    1.0052   -0.0908 C   0  0  0  0  0  0  0  0  0  0  0  0
   -1.9660    0.4599   -0.0815 C   0  0  0  0  0  0  0  0  0  0  0  0
   -2.1390   -0.8818   -0.4550 C   0  0  0  0  0  0  0  0  0  0  0  0
   -1.1838   -2.6902   -1.1006 H   0  0  0  0  0  0  0  0  0  0  0  0
    1.0886   -1.7116   -1.1481 H   0  0  0  0  0  0  0  0  0  0  0  0
   -0.5271    2.0348    0.2096 H   0  0  0  0  0  0  0  0  0  0  0  0
   -2.8060    1.0715    0.2222 H   0  0  0  0  0  0  0  0  0  0  0  0
    1.6333    0.9707   -0.4299 N   0  0  0  0  0  0  0  0  0  0  0  0
    2.7630    0.8248   -0.8459 N   0  0  0  0  0  0  0  0  0  0  0  0
    3.2043   -0.6158   -1.8349 Cl  0  0  0  0  0  0  0  0  0  0  0  0
   -3.3293   -1.5262   -0.4803 O   0  0  0  0  0  0  0  0  0  0  0  0
   -4.5049   -0.8100   -0.1161 C   0  0  0  0  0  0  0  0  0  0  0  0
   -5.3290   -1.5155   -0.2260 H   0  0  0  0  0  0  0  0  0  0  0  0
   -4.6711    0.0486   -0.7774 H   0  0  0  0  0  0  0  0  0  0  0  0
   -4.4580   -0.4654    0.9236 H   0  0  0  0  0  0  0  0  0  0  0  0
  1  6  1  0  0  0  0
  2  1  2  0  0  0  0
  2  3  1  0  0  0  0
  3 11  1  0  0  0  0
  3  4  2  0  0  0  0
  4  5  1  0  0  0  0
  4  9  1  0  0  0  0
  5 10  1  0  0  0  0
  6  5  2  0  0  0  0
  7  1  1  0  0  0  0
  8  2  1  0  0  0  0
 12 11  2  0  0  0  0
 13 12  1  0  0  0  0
 14  6  1  0  0  0  0
 14 15  1  0  0  0  0
 15 18  1  0  0  0  0
 16 15  1  0  0  0  0
 17 15  1  0  0  0  0
M  END
