Coordinates from ORCA-job p-CH3O-Ph-N2-X-Cl-B3LYPG-6-31G_dp-scan-d09-49-n400
 OpenBabel08281821033D

 18 18  0  0  0  0  0  0  0  0999 V2000
   -1.0410   -1.6565   -0.8819 C   0  0  0  0  0  0  0  0  0  0  0  0
    0.2335   -1.1045   -0.9422 C   0  0  0  0  0  0  0  0  0  0  0  0
    0.4498    0.2563   -0.5895 C   0  0  0  0  0  0  0  0  0  0  0  0
   -0.6809    0.9969   -0.1823 C   0  0  0  0  0  0  0  0  0  0  0  0
   -1.9548    0.4498   -0.1202 C   0  0  0  0  0  0  0  0  0  0  0  0
   -2.1439   -0.8946   -0.4745 C   0  0  0  0  0  0  0  0  0  0  0  0
   -1.2052   -2.6944   -1.1529 H   0  0  0  0  0  0  0  0  0  0  0  0
    1.0444   -1.7401   -1.2642 H   0  0  0  0  0  0  0  0  0  0  0  0
   -0.5169    2.0351    0.0875 H   0  0  0  0  0  0  0  0  0  0  0  0
   -2.7850    1.0679    0.1997 H   0  0  0  0  0  0  0  0  0  0  0  0
    1.6207    1.0659   -0.5628 N   0  0  0  0  0  0  0  0  0  0  0  0
    2.7721    0.5513   -0.9086 N   0  0  0  0  0  0  0  0  0  0  0  0
    3.2067   -0.3467   -1.2371 Cl  0  0  0  0  0  0  0  0  0  0  0  0
   -3.3425   -1.5417   -0.4569 O   0  0  0  0  0  0  0  0  0  0  0  0
   -4.4955   -0.8153   -0.0575 C   0  0  0  0  0  0  0  0  0  0  0  0
   -5.3301   -1.5147   -0.1267 H   0  0  0  0  0  0  0  0  0  0  0  0
   -4.6847    0.0389   -0.7197 H   0  0  0  0  0  0  0  0  0  0  0  0
   -4.4101   -0.4565    0.9758 H   0  0  0  0  0  0  0  0  0  0  0  0
  1  6  1  0  0  0  0
  2  1  2  0  0  0  0
  2  3  1  0  0  0  0
  3 11  1  0  0  0  0
  3  4  2  0  0  0  0
  4  5  1  0  0  0  0
  4  9  1  0  0  0  0
  5 10  1  0  0  0  0
  6 14  1  0  0  0  0
  6  5  2  0  0  0  0
  7  1  1  0  0  0  0
  8  2  1  0  0  0  0
 12 11  2  0  0  0  0
 13 12  1  0  0  0  0
 14 15  1  0  0  0  0
 15 18  1  0  0  0  0
 16 15  1  0  0  0  0
 17 15  1  0  0  0  0
M  END
