Coordinates from ORCA-job p-CH3O-Ph-N2-X-Cl-B3LYPG-6-31G_dp-scan-d09-49-n400
 OpenBabel08281821033D

 18 17  0  0  0  0  0  0  0  0999 V2000
   -0.9115   -1.5212   -0.9044 C   0  0  0  0  0  0  0  0  0  0  0  0
    0.3261   -0.9100   -0.9291 C   0  0  0  0  0  0  0  0  0  0  0  0
    0.3777    0.4428   -0.5095 C   0  0  0  0  0  0  0  0  0  0  0  0
   -0.7626    1.1673   -0.0779 C   0  0  0  0  0  0  0  0  0  0  0  0
   -1.9797    0.5242   -0.0669 C   0  0  0  0  0  0  0  0  0  0  0  0
   -2.0640   -0.8309   -0.4826 C   0  0  0  0  0  0  0  0  0  0  0  0
   -1.0039   -2.5559   -1.2165 H   0  0  0  0  0  0  0  0  0  0  0  0
    1.2484   -1.4533   -1.2649 H   0  0  0  0  0  0  0  0  0  0  0  0
   -0.6743    2.2019    0.2356 H   0  0  0  0  0  0  0  0  0  0  0  0
   -2.8596    1.0628    0.2598 H   0  0  0  0  0  0  0  0  0  0  0  0
    1.5657    1.1071   -0.5095 N   0  0  0  0  0  0  0  0  0  0  0  0
    2.4987    1.7336   -0.4768 N   0  0  0  0  0  0  0  0  0  0  0  0
    2.8689   -2.4729   -1.8769 Cl  0  0  0  0  0  0  0  0  0  0  0  0
   -3.2060   -1.5310   -0.5049 O   0  0  0  0  0  0  0  0  0  0  0  0
   -4.4313   -0.9174   -0.0961 C   0  0  0  0  0  0  0  0  0  0  0  0
   -5.1948   -1.6859   -0.2130 H   0  0  0  0  0  0  0  0  0  0  0  0
   -4.6758   -0.0603   -0.7328 H   0  0  0  0  0  0  0  0  0  0  0  0
   -4.3854   -0.6038    0.9523 H   0  0  0  0  0  0  0  0  0  0  0  0
  1  6  1  0  0  0  0
  2  1  2  0  0  0  0
  2  3  1  0  0  0  0
  3  4  2  0  0  0  0
  4  5  1  0  0  0  0
  4  9  1  0  0  0  0
  5 10  1  0  0  0  0
  6  5  2  0  0  0  0
  7  1  1  0  0  0  0
  8  2  1  0  0  0  0
 11  3  1  0  0  0  0
 11 12  1  0  0  0  0
 14  6  1  0  0  0  0
 14 15  1  0  0  0  0
 15 18  1  0  0  0  0
 16 15  1  0  0  0  0
 17 15  1  0  0  0  0
M  RAD  3  11   2  12   3  13   2
M  END
