Coordinates from ORCA-job p-CH3O-Ph-N2-X-Cl-B3LYPG-6-31G_dp-scan-d09-49-n400
 OpenBabel08281821033D

 18 18  0  0  0  0  0  0  0  0999 V2000
   -0.9999   -1.7038   -0.7226 C   0  0  0  0  0  0  0  0  0  0  0  0
    0.2776   -1.1666   -0.7195 C   0  0  0  0  0  0  0  0  0  0  0  0
    0.4704    0.1929   -0.3981 C   0  0  0  0  0  0  0  0  0  0  0  0
   -0.6436    0.9685   -0.0483 C   0  0  0  0  0  0  0  0  0  0  0  0
   -1.9328    0.4456   -0.0904 C   0  0  0  0  0  0  0  0  0  0  0  0
   -2.1166   -0.9021   -0.4303 C   0  0  0  0  0  0  0  0  0  0  0  0
   -1.1642   -2.7506   -0.9552 H   0  0  0  0  0  0  0  0  0  0  0  0
    1.1199   -1.8107   -0.9346 H   0  0  0  0  0  0  0  0  0  0  0  0
   -0.4790    1.9990    0.2487 H   0  0  0  0  0  0  0  0  0  0  0  0
   -2.7732    1.0798    0.1623 H   0  0  0  0  0  0  0  0  0  0  0  0
    1.7162    0.8590   -0.2452 N   0  0  0  0  0  0  0  0  0  0  0  0
    2.7296    0.7484   -0.9640 N   0  0  0  0  0  0  0  0  0  0  0  0
    2.7685   -0.1619   -2.2447 Cl  0  0  0  0  0  0  0  0  0  0  0  0
   -3.3209   -1.5280   -0.4885 O   0  0  0  0  0  0  0  0  0  0  0  0
   -4.4921   -0.7758   -0.1991 C   0  0  0  0  0  0  0  0  0  0  0  0
   -5.3284   -1.4650   -0.3223 H   0  0  0  0  0  0  0  0  0  0  0  0
   -4.6114    0.0660   -0.8924 H   0  0  0  0  0  0  0  0  0  0  0  0
   -4.4836   -0.3976    0.8304 H   0  0  0  0  0  0  0  0  0  0  0  0
  1  2  2  0  0  0  0
  1  6  1  0  0  0  0
  2  3  1  0  0  0  0
  3 11  1  0  0  0  0
  3  4  2  0  0  0  0
  4  9  1  0  0  0  0
  5  4  1  0  0  0  0
  5 10  1  0  0  0  0
  6  5  2  0  0  0  0
  7  1  1  0  0  0  0
  8  2  1  0  0  0  0
 12 11  2  0  0  0  0
 13 12  1  0  0  0  0
 14  6  1  0  0  0  0
 14 15  1  0  0  0  0
 15 18  1  0  0  0  0
 16 15  1  0  0  0  0
 17 15  1  0  0  0  0
M  END
