Coordinates from ORCA-job p-CH3O-Ph-N2-X-Cl-B3LYPG-6-31G_dp-scan-d09-49-n400
 OpenBabel08281821033D

 18 17  0  0  0  0  0  0  0  0999 V2000
   -0.9711   -1.5403   -0.8989 C   0  0  0  0  0  0  0  0  0  0  0  0
    0.2702   -0.9378   -0.9278 C   0  0  0  0  0  0  0  0  0  0  0  0
    0.3386    0.4106   -0.5139 C   0  0  0  0  0  0  0  0  0  0  0  0
   -0.7779    1.1449   -0.0840 C   0  0  0  0  0  0  0  0  0  0  0  0
   -2.0116    0.5192   -0.0638 C   0  0  0  0  0  0  0  0  0  0  0  0
   -2.1137   -0.8299   -0.4730 C   0  0  0  0  0  0  0  0  0  0  0  0
   -1.0903   -2.5737   -1.2049 H   0  0  0  0  0  0  0  0  0  0  0  0
    1.1934   -1.4485   -1.2528 H   0  0  0  0  0  0  0  0  0  0  0  0
   -0.6700    2.1789    0.2247 H   0  0  0  0  0  0  0  0  0  0  0  0
   -2.8828    1.0702    0.2648 H   0  0  0  0  0  0  0  0  0  0  0  0
    1.5758    1.0209   -0.5404 N   0  0  0  0  0  0  0  0  0  0  0  0
    2.6877    1.1591   -0.6942 N   0  0  0  0  0  0  0  0  0  0  0  0
    3.3199   -1.8042   -1.7411 Cl  0  0  0  0  0  0  0  0  0  0  0  0
   -3.2635   -1.5229   -0.4908 O   0  0  0  0  0  0  0  0  0  0  0  0
   -4.4778   -0.8920   -0.0791 C   0  0  0  0  0  0  0  0  0  0  0  0
   -5.2532   -1.6496   -0.1906 H   0  0  0  0  0  0  0  0  0  0  0  0
   -4.7132   -0.0325   -0.7163 H   0  0  0  0  0  0  0  0  0  0  0  0
   -4.4239   -0.5754    0.9681 H   0  0  0  0  0  0  0  0  0  0  0  0
  1  6  1  0  0  0  0
  2  1  2  0  0  0  0
  2  3  1  0  0  0  0
  3  4  2  0  0  0  0
  4  5  1  0  0  0  0
  4  9  1  0  0  0  0
  5 10  1  0  0  0  0
  6  5  2  0  0  0  0
  7  1  1  0  0  0  0
  8  2  1  0  0  0  0
 11  3  1  0  0  0  0
 12 11  1  0  0  0  0
 14  6  1  0  0  0  0
 14 15  1  0  0  0  0
 15 18  1  0  0  0  0
 16 15  1  0  0  0  0
 17 15  1  0  0  0  0
M  RAD  3  11   2  12   3  13   2
M  END
