Coordinates from ORCA-job p-CH3O-Ph-N2-X-Cl-B3LYPG-6-31G_dp-scan-d09-49-n400
 OpenBabel08281821033D

 18 18  0  0  0  0  0  0  0  0999 V2000
   -1.1277   -1.6785   -1.1967 C   0  0  0  0  0  0  0  0  0  0  0  0
    0.1378   -1.1414   -1.3935 C   0  0  0  0  0  0  0  0  0  0  0  0
    0.4378    0.1688   -0.9845 C   0  0  0  0  0  0  0  0  0  0  0  0
   -0.5745    0.9263   -0.3890 C   0  0  0  0  0  0  0  0  0  0  0  0
   -1.8531    0.3986   -0.1853 C   0  0  0  0  0  0  0  0  0  0  0  0
   -2.1324   -0.9128   -0.5862 C   0  0  0  0  0  0  0  0  0  0  0  0
   -1.3674   -2.6883   -1.5131 H   0  0  0  0  0  0  0  0  0  0  0  0
    0.9048   -1.7328   -1.8865 H   0  0  0  0  0  0  0  0  0  0  0  0
   -0.3676    1.9520   -0.0962 H   0  0  0  0  0  0  0  0  0  0  0  0
   -2.6150    1.0174    0.2742 H   0  0  0  0  0  0  0  0  0  0  0  0
    1.7264    0.7716   -1.3117 N   0  0  0  0  0  0  0  0  0  0  0  0
    2.5877    0.5854   -0.3272 N   0  0  0  0  0  0  0  0  0  0  0  0
    2.7810    0.2543    0.4871 Cl  0  0  0  0  0  0  0  0  0  0  0  0
   -3.3424   -1.5314   -0.4398 O   0  0  0  0  0  0  0  0  0  0  0  0
   -4.3971   -0.8034    0.1661 C   0  0  0  0  0  0  0  0  0  0  0  0
   -5.2576   -1.4746    0.1821 H   0  0  0  0  0  0  0  0  0  0  0  0
   -4.6536    0.0962   -0.4087 H   0  0  0  0  0  0  0  0  0  0  0  0
   -4.1504   -0.5103    1.1949 H   0  0  0  0  0  0  0  0  0  0  0  0
  1  6  1  0  0  0  0
  2  1  2  0  0  0  0
  2  3  1  0  0  0  0
  3  4  2  0  0  0  0
  4  5  1  0  0  0  0
  4  9  1  0  0  0  0
  5 10  1  0  0  0  0
  6 14  1  0  0  0  0
  6  5  2  0  0  0  0
  7  1  1  0  0  0  0
  8  2  1  0  0  0  0
 11  3  1  0  0  0  0
 11 12  1  0  0  0  0
 12 13  1  0  0  0  0
 14 15  1  0  0  0  0
 15 16  1  0  0  0  0
 15 18  1  0  0  0  0
 17 15  1  0  0  0  0
M  RAD  2  11   2  12   2
M  END
