Coordinates from ORCA-job p-CH3O-Ph-N2-X-Cl-B3LYPG-6-31G_dp-scan-d09-49-n400
 OpenBabel08281821033D

 18 17  0  0  0  0  0  0  0  0999 V2000
   -0.8978   -1.5077   -0.9033 C   0  0  0  0  0  0  0  0  0  0  0  0
    0.3357   -0.8884   -0.9246 C   0  0  0  0  0  0  0  0  0  0  0  0
    0.3770    0.4645   -0.5028 C   0  0  0  0  0  0  0  0  0  0  0  0
   -0.7691    1.1812   -0.0724 C   0  0  0  0  0  0  0  0  0  0  0  0
   -1.9815    0.5295   -0.0651 C   0  0  0  0  0  0  0  0  0  0  0  0
   -2.0557   -0.8259   -0.4830 C   0  0  0  0  0  0  0  0  0  0  0  0
   -0.9796   -2.5428   -1.2176 H   0  0  0  0  0  0  0  0  0  0  0  0
    1.2546   -1.4370   -1.2609 H   0  0  0  0  0  0  0  0  0  0  0  0
   -0.6883    2.2158    0.2429 H   0  0  0  0  0  0  0  0  0  0  0  0
   -2.8657    1.0615    0.2607 H   0  0  0  0  0  0  0  0  0  0  0  0
    1.5620    1.1313   -0.5013 N   0  0  0  0  0  0  0  0  0  0  0  0
    2.5065    1.7410   -0.4756 N   0  0  0  0  0  0  0  0  0  0  0  0
    2.7895   -2.5725   -1.8927 Cl  0  0  0  0  0  0  0  0  0  0  0  0
   -3.1930   -1.5334   -0.5086 O   0  0  0  0  0  0  0  0  0  0  0  0
   -4.4231   -0.9288   -0.1009 C   0  0  0  0  0  0  0  0  0  0  0  0
   -5.1811   -1.7024   -0.2199 H   0  0  0  0  0  0  0  0  0  0  0  0
   -4.6726   -0.0726   -0.7370 H   0  0  0  0  0  0  0  0  0  0  0  0
   -4.3810   -0.6162    0.9479 H   0  0  0  0  0  0  0  0  0  0  0  0
  1  6  1  0  0  0  0
  2  1  2  0  0  0  0
  2  3  1  0  0  0  0
  3 11  1  0  0  0  0
  3  4  2  0  0  0  0
  4  5  1  0  0  0  0
  4  9  1  0  0  0  0
  5 10  1  0  0  0  0
  6  5  2  0  0  0  0
  7  1  1  0  0  0  0
  8  2  1  0  0  0  0
 11 12  1  0  0  0  0
 14  6  1  0  0  0  0
 14 15  1  0  0  0  0
 15 18  1  0  0  0  0
 16 15  1  0  0  0  0
 17 15  1  0  0  0  0
M  RAD  3  11   2  12   3  13   2
M  END
