Coordinates from ORCA-job p-CH3O-Ph-N2-X-Cl-B3LYPG-6-31G_dp-scan-d09-49-n400
 OpenBabel08281821033D

 18 18  0  0  0  0  0  0  0  0999 V2000
   -1.0410   -1.6570   -0.8812 C   0  0  0  0  0  0  0  0  0  0  0  0
    0.2334   -1.1054   -0.9414 C   0  0  0  0  0  0  0  0  0  0  0  0
    0.4501    0.2555   -0.5888 C   0  0  0  0  0  0  0  0  0  0  0  0
   -0.6806    0.9962   -0.1818 C   0  0  0  0  0  0  0  0  0  0  0  0
   -1.9548    0.4497   -0.1200 C   0  0  0  0  0  0  0  0  0  0  0  0
   -2.1439   -0.8947   -0.4742 C   0  0  0  0  0  0  0  0  0  0  0  0
   -1.2055   -2.6949   -1.1520 H   0  0  0  0  0  0  0  0  0  0  0  0
    1.0437   -1.7418   -1.2631 H   0  0  0  0  0  0  0  0  0  0  0  0
   -0.5161    2.0343    0.0881 H   0  0  0  0  0  0  0  0  0  0  0  0
   -2.7849    1.0680    0.1997 H   0  0  0  0  0  0  0  0  0  0  0  0
    1.6202    1.0669   -0.5604 N   0  0  0  0  0  0  0  0  0  0  0  0
    2.7744    0.5644   -0.9064 N   0  0  0  0  0  0  0  0  0  0  0  0
    3.2049   -0.3556   -1.2443 Cl  0  0  0  0  0  0  0  0  0  0  0  0
   -3.3423   -1.5415   -0.4569 O   0  0  0  0  0  0  0  0  0  0  0  0
   -4.4957   -0.8151   -0.0581 C   0  0  0  0  0  0  0  0  0  0  0  0
   -5.3301   -1.5146   -0.1276 H   0  0  0  0  0  0  0  0  0  0  0  0
   -4.6845    0.0389   -0.7208 H   0  0  0  0  0  0  0  0  0  0  0  0
   -4.4107   -0.4561    0.9751 H   0  0  0  0  0  0  0  0  0  0  0  0
  1  6  1  0  0  0  0
  2  1  2  0  0  0  0
  2  3  1  0  0  0  0
  3 11  1  0  0  0  0
  3  4  2  0  0  0  0
  4  5  1  0  0  0  0
  4  9  1  0  0  0  0
  5 10  1  0  0  0  0
  6 14  1  0  0  0  0
  6  5  2  0  0  0  0
  7  1  1  0  0  0  0
  8  2  1  0  0  0  0
 12 11  2  0  0  0  0
 13 12  1  0  0  0  0
 14 15  1  0  0  0  0
 15 18  1  0  0  0  0
 16 15  1  0  0  0  0
 17 15  1  0  0  0  0
M  END
