Coordinates from ORCA-job p-CH3O-Ph-N2-X-Cl-B3LYPG-6-31G_dp-scan-d09-49-n400
 OpenBabel08281821033D

 18 17  0  0  0  0  0  0  0  0999 V2000
   -0.9596   -1.5394   -0.9016 C   0  0  0  0  0  0  0  0  0  0  0  0
    0.2825   -0.9383   -0.9310 C   0  0  0  0  0  0  0  0  0  0  0  0
    0.3450    0.4129   -0.5147 C   0  0  0  0  0  0  0  0  0  0  0  0
   -0.7749    1.1496   -0.0833 C   0  0  0  0  0  0  0  0  0  0  0  0
   -2.0038    0.5204   -0.0652 C   0  0  0  0  0  0  0  0  0  0  0  0
   -2.1027   -0.8314   -0.4761 C   0  0  0  0  0  0  0  0  0  0  0  0
   -1.0762   -2.5732   -1.2083 H   0  0  0  0  0  0  0  0  0  0  0  0
    1.2151   -1.4504   -1.2577 H   0  0  0  0  0  0  0  0  0  0  0  0
   -0.6706    2.1837    0.2263 H   0  0  0  0  0  0  0  0  0  0  0  0
   -2.8769    1.0686    0.2629 H   0  0  0  0  0  0  0  0  0  0  0  0
    1.5732    1.0191   -0.5404 N   0  0  0  0  0  0  0  0  0  0  0  0
    2.6556    1.3094   -0.6404 N   0  0  0  0  0  0  0  0  0  0  0  0
    3.2112   -1.9440   -1.7639 Cl  0  0  0  0  0  0  0  0  0  0  0  0
   -3.2515   -1.5229   -0.4935 O   0  0  0  0  0  0  0  0  0  0  0  0
   -4.4682   -0.8953   -0.0813 C   0  0  0  0  0  0  0  0  0  0  0  0
   -5.2409   -1.6554   -0.1935 H   0  0  0  0  0  0  0  0  0  0  0  0
   -4.7057   -0.0366   -0.7186 H   0  0  0  0  0  0  0  0  0  0  0  0
   -4.4149   -0.5797    0.9661 H   0  0  0  0  0  0  0  0  0  0  0  0
  1  6  1  0  0  0  0
  2  1  2  0  0  0  0
  2  3  1  0  0  0  0
  3  4  2  0  0  0  0
  4  5  1  0  0  0  0
  4  9  1  0  0  0  0
  5 10  1  0  0  0  0
  6  5  2  0  0  0  0
  7  1  1  0  0  0  0
  8  2  1  0  0  0  0
 11  3  1  0  0  0  0
 12 11  1  0  0  0  0
 14  6  1  0  0  0  0
 14 15  1  0  0  0  0
 15 18  1  0  0  0  0
 16 15  1  0  0  0  0
 17 15  1  0  0  0  0
M  RAD  3  11   2  12   3  13   2
M  END
