Coordinates from ORCA-job p-CH3O-Ph-N2-X-Cl-B3LYPG-6-31G_dp-scan-d09-49-n400
 OpenBabel08281821033D

 18 17  0  0  0  0  0  0  0  0999 V2000
   -0.9827   -1.6096   -0.9189 C   0  0  0  0  0  0  0  0  0  0  0  0
    0.2760   -1.0422   -0.9616 C   0  0  0  0  0  0  0  0  0  0  0  0
    0.4025    0.2948   -0.5608 C   0  0  0  0  0  0  0  0  0  0  0  0
   -0.6947    1.0663   -0.1222 C   0  0  0  0  0  0  0  0  0  0  0  0
   -1.9458    0.4818   -0.0863 C   0  0  0  0  0  0  0  0  0  0  0  0
   -2.0986   -0.8662   -0.4870 C   0  0  0  0  0  0  0  0  0  0  0  0
   -1.1322   -2.6405   -1.2193 H   0  0  0  0  0  0  0  0  0  0  0  0
    1.1848   -1.5799   -1.2929 H   0  0  0  0  0  0  0  0  0  0  0  0
   -0.5523    2.0985    0.1802 H   0  0  0  0  0  0  0  0  0  0  0  0
   -2.7927    1.0664    0.2486 H   0  0  0  0  0  0  0  0  0  0  0  0
    1.6357    0.9516   -0.5717 N   0  0  0  0  0  0  0  0  0  0  0  0
    2.2884    1.8606   -0.4001 N   0  0  0  0  0  0  0  0  0  0  0  0
    3.1954   -1.9386   -1.7665 Cl  0  0  0  0  0  0  0  0  0  0  0  0
   -3.2714   -1.5190   -0.4885 O   0  0  0  0  0  0  0  0  0  0  0  0
   -4.4592   -0.8448   -0.0682 C   0  0  0  0  0  0  0  0  0  0  0  0
   -5.2615   -1.5753   -0.1694 H   0  0  0  0  0  0  0  0  0  0  0  0
   -4.6705    0.0198   -0.7068 H   0  0  0  0  0  0  0  0  0  0  0  0
   -4.3847   -0.5265    0.9773 H   0  0  0  0  0  0  0  0  0  0  0  0
  1  6  1  0  0  0  0
  2  1  2  0  0  0  0
  2  3  1  0  0  0  0
  3  4  2  0  0  0  0
  4  5  1  0  0  0  0
  4  9  1  0  0  0  0
  5 10  1  0  0  0  0
  6  5  2  0  0  0  0
  7  1  1  0  0  0  0
  8  2  1  0  0  0  0
 11  3  1  0  0  0  0
 11 12  2  0  0  0  0
 14  6  1  0  0  0  0
 14 15  1  0  0  0  0
 15 18  1  0  0  0  0
 16 15  1  0  0  0  0
 17 15  1  0  0  0  0
M  RAD  2  12   2  13   2
M  END
