Coordinates from ORCA-job p-CH3O-Ph-N2-X-Cl-B3LYPG-6-31G_dp-scan-d09-49-n400
 OpenBabel08281821033D

 18 17  0  0  0  0  0  0  0  0999 V2000
   -1.0030   -1.6351   -0.9230 C   0  0  0  0  0  0  0  0  0  0  0  0
    0.2622   -1.0810   -0.9709 C   0  0  0  0  0  0  0  0  0  0  0  0
    0.4094    0.2524   -0.5752 C   0  0  0  0  0  0  0  0  0  0  0  0
   -0.6752    1.0369   -0.1354 C   0  0  0  0  0  0  0  0  0  0  0  0
   -1.9351    0.4685   -0.0929 C   0  0  0  0  0  0  0  0  0  0  0  0
   -2.1076   -0.8769   -0.4888 C   0  0  0  0  0  0  0  0  0  0  0  0
   -1.1672   -2.6646   -1.2200 H   0  0  0  0  0  0  0  0  0  0  0  0
    1.1615   -1.6225   -1.3009 H   0  0  0  0  0  0  0  0  0  0  0  0
   -0.5187    2.0680    0.1638 H   0  0  0  0  0  0  0  0  0  0  0  0
   -2.7726    1.0657    0.2438 H   0  0  0  0  0  0  0  0  0  0  0  0
    1.6601    0.8982   -0.5924 N   0  0  0  0  0  0  0  0  0  0  0  0
    2.2489    1.8477   -0.3961 N   0  0  0  0  0  0  0  0  0  0  0  0
    3.2566   -1.7142   -1.7087 Cl  0  0  0  0  0  0  0  0  0  0  0  0
   -3.2895   -1.5162   -0.4844 O   0  0  0  0  0  0  0  0  0  0  0  0
   -4.4651   -0.8244   -0.0606 C   0  0  0  0  0  0  0  0  0  0  0  0
   -5.2787   -1.5432   -0.1562 H   0  0  0  0  0  0  0  0  0  0  0  0
   -4.6673    0.0420   -0.7000 H   0  0  0  0  0  0  0  0  0  0  0  0
   -4.3819   -0.5042    0.9837 H   0  0  0  0  0  0  0  0  0  0  0  0
  1  6  1  0  0  0  0
  2  1  2  0  0  0  0
  2  3  1  0  0  0  0
  3  4  2  0  0  0  0
  4  5  1  0  0  0  0
  4  9  1  0  0  0  0
  5 10  1  0  0  0  0
  6 14  1  0  0  0  0
  6  5  2  0  0  0  0
  7  1  1  0  0  0  0
  8  2  1  0  0  0  0
 11  3  1  0  0  0  0
 11 12  2  0  0  0  0
 14 15  1  0  0  0  0
 15 18  1  0  0  0  0
 16 15  1  0  0  0  0
 17 15  1  0  0  0  0
M  RAD  2  12   2  13   2
M  END
