Coordinates from ORCA-job p-CH3O-Ph-N2-X-Cl-B3LYPG-6-31G_dp-scan-d09-49-n400
 OpenBabel08281821033D

 18 18  0  0  0  0  0  0  0  0999 V2000
   -1.0342   -1.6150   -0.9074 C   0  0  0  0  0  0  0  0  0  0  0  0
    0.2282   -1.0524   -0.9527 C   0  0  0  0  0  0  0  0  0  0  0  0
    0.3927    0.2933   -0.5584 C   0  0  0  0  0  0  0  0  0  0  0  0
   -0.7149    1.0394   -0.1275 C   0  0  0  0  0  0  0  0  0  0  0  0
   -1.9815    0.4722   -0.0832 C   0  0  0  0  0  0  0  0  0  0  0  0
   -2.1465   -0.8662   -0.4766 C   0  0  0  0  0  0  0  0  0  0  0  0
   -1.1938   -2.6458   -1.2043 H   0  0  0  0  0  0  0  0  0  0  0  0
    1.0807   -1.6277   -1.2840 H   0  0  0  0  0  0  0  0  0  0  0  0
   -0.5610    2.0707    0.1709 H   0  0  0  0  0  0  0  0  0  0  0  0
   -2.8217    1.0665    0.2519 H   0  0  0  0  0  0  0  0  0  0  0  0
    1.6042    0.9953   -0.5520 N   0  0  0  0  0  0  0  0  0  0  0  0
    2.7560    0.8540   -0.8050 N   0  0  0  0  0  0  0  0  0  0  0  0
    3.4023   -0.8944   -1.4807 Cl  0  0  0  0  0  0  0  0  0  0  0  0
   -3.3270   -1.5244   -0.4784 O   0  0  0  0  0  0  0  0  0  0  0  0
   -4.5017   -0.8355   -0.0591 C   0  0  0  0  0  0  0  0  0  0  0  0
   -5.3164   -1.5539   -0.1543 H   0  0  0  0  0  0  0  0  0  0  0  0
   -4.7055    0.0317   -0.6980 H   0  0  0  0  0  0  0  0  0  0  0  0
   -4.4233   -0.5106    0.9848 H   0  0  0  0  0  0  0  0  0  0  0  0
  1  6  1  0  0  0  0
  2  1  2  0  0  0  0
  2  3  1  0  0  0  0
  3 11  1  0  0  0  0
  3  4  2  0  0  0  0
  4  5  1  0  0  0  0
  4  9  1  0  0  0  0
  5 10  1  0  0  0  0
  6  5  2  0  0  0  0
  7  1  1  0  0  0  0
  8  2  1  0  0  0  0
 12 11  2  0  0  0  0
 13 12  1  0  0  0  0
 14  6  1  0  0  0  0
 14 15  1  0  0  0  0
 15 18  1  0  0  0  0
 16 15  1  0  0  0  0
 17 15  1  0  0  0  0
M  END
