Coordinates from ORCA-job p-CH3O-Ph-N2-X-Cl-B3LYPG-6-31G_dp-scan-d09-49-n400
 OpenBabel08281821033D

 18 17  0  0  0  0  0  0  0  0999 V2000
   -0.9803   -1.5458   -0.8999 C   0  0  0  0  0  0  0  0  0  0  0  0
    0.2624   -0.9459   -0.9299 C   0  0  0  0  0  0  0  0  0  0  0  0
    0.3384    0.4014   -0.5172 C   0  0  0  0  0  0  0  0  0  0  0  0
   -0.7753    1.1370   -0.0872 C   0  0  0  0  0  0  0  0  0  0  0  0
   -2.0125    0.5159   -0.0648 C   0  0  0  0  0  0  0  0  0  0  0  0
   -2.1201   -0.8317   -0.4729 C   0  0  0  0  0  0  0  0  0  0  0  0
   -1.1035   -2.5790   -1.2053 H   0  0  0  0  0  0  0  0  0  0  0  0
    1.1804   -1.4574   -1.2540 H   0  0  0  0  0  0  0  0  0  0  0  0
   -0.6631    2.1707    0.2208 H   0  0  0  0  0  0  0  0  0  0  0  0
   -2.8810    1.0706    0.2646 H   0  0  0  0  0  0  0  0  0  0  0  0
    1.5791    1.0140   -0.5435 N   0  0  0  0  0  0  0  0  0  0  0  0
    2.6973    1.0944   -0.7163 N   0  0  0  0  0  0  0  0  0  0  0  0
    3.3760   -1.7011   -1.7157 Cl  0  0  0  0  0  0  0  0  0  0  0  0
   -3.2726   -1.5223   -0.4894 O   0  0  0  0  0  0  0  0  0  0  0  0
   -4.4833   -0.8867   -0.0760 C   0  0  0  0  0  0  0  0  0  0  0  0
   -5.2622   -1.6409   -0.1859 H   0  0  0  0  0  0  0  0  0  0  0  0
   -4.7165   -0.0262   -0.7128 H   0  0  0  0  0  0  0  0  0  0  0  0
   -4.4267   -0.5697    0.9711 H   0  0  0  0  0  0  0  0  0  0  0  0
  1  6  1  0  0  0  0
  2  1  2  0  0  0  0
  2  3  1  0  0  0  0
  3  4  2  0  0  0  0
  4  5  1  0  0  0  0
  4  9  1  0  0  0  0
  5 10  1  0  0  0  0
  6  5  2  0  0  0  0
  7  1  1  0  0  0  0
  8  2  1  0  0  0  0
 11  3  1  0  0  0  0
 12 11  1  0  0  0  0
 14  6  1  0  0  0  0
 14 15  1  0  0  0  0
 15 18  1  0  0  0  0
 16 15  1  0  0  0  0
 17 15  1  0  0  0  0
M  RAD  3  11   2  12   3  13   2
M  END
