Coordinates from ORCA-job p-CH3O-Ph-N2-X-Cl-B3LYPG-6-31G_dp-scan-d09-49-n400
 OpenBabel08281821033D

 18 17  0  0  0  0  0  0  0  0999 V2000
   -0.9644   -1.5876   -0.9159 C   0  0  0  0  0  0  0  0  0  0  0  0
    0.2894   -1.0101   -0.9545 C   0  0  0  0  0  0  0  0  0  0  0  0
    0.3986    0.3305   -0.5490 C   0  0  0  0  0  0  0  0  0  0  0  0
   -0.7097    1.0904   -0.1118 C   0  0  0  0  0  0  0  0  0  0  0  0
   -1.9533    0.4926   -0.0814 C   0  0  0  0  0  0  0  0  0  0  0  0
   -2.0896   -0.8571   -0.4861 C   0  0  0  0  0  0  0  0  0  0  0  0
   -1.1010   -2.6196   -1.2192 H   0  0  0  0  0  0  0  0  0  0  0  0
    1.2034   -1.5491   -1.2873 H   0  0  0  0  0  0  0  0  0  0  0  0
   -0.5799    2.1235    0.1935 H   0  0  0  0  0  0  0  0  0  0  0  0
   -2.8081    1.0667    0.2518 H   0  0  0  0  0  0  0  0  0  0  0  0
    1.6162    0.9979   -0.5538 N   0  0  0  0  0  0  0  0  0  0  0  0
    2.3224    1.8676   -0.4044 N   0  0  0  0  0  0  0  0  0  0  0  0
    3.1212   -2.1163   -1.8071 Cl  0  0  0  0  0  0  0  0  0  0  0  0
   -3.2545   -1.5214   -0.4927 O   0  0  0  0  0  0  0  0  0  0  0  0
   -4.4524   -0.8625   -0.0747 C   0  0  0  0  0  0  0  0  0  0  0  0
   -5.2449   -1.6029   -0.1804 H   0  0  0  0  0  0  0  0  0  0  0  0
   -4.6720    0.0006   -0.7126 H   0  0  0  0  0  0  0  0  0  0  0  0
   -4.3849   -0.5459    0.9716 H   0  0  0  0  0  0  0  0  0  0  0  0
  1  6  1  0  0  0  0
  2  1  2  0  0  0  0
  2  3  1  0  0  0  0
  3  4  2  0  0  0  0
  4  5  1  0  0  0  0
  4  9  1  0  0  0  0
  5 10  1  0  0  0  0
  6  5  2  0  0  0  0
  7  1  1  0  0  0  0
  8  2  1  0  0  0  0
 11  3  1  0  0  0  0
 11 12  1  0  0  0  0
 14  6  1  0  0  0  0
 14 15  1  0  0  0  0
 15 18  1  0  0  0  0
 16 15  1  0  0  0  0
 17 15  1  0  0  0  0
M  RAD  3  11   2  12   3  13   2
M  END
