Coordinates from ORCA-job p-CH3O-Ph-N2-X-Cl-B3LYPG-6-31G_dp-scan-d09-49-n400
 OpenBabel08281821033D

 18 17  0  0  0  0  0  0  0  0999 V2000
   -1.0137   -1.6505   -0.9234 C   0  0  0  0  0  0  0  0  0  0  0  0
    0.2554   -1.1045   -0.9750 C   0  0  0  0  0  0  0  0  0  0  0  0
    0.4148    0.2272   -0.5833 C   0  0  0  0  0  0  0  0  0  0  0  0
   -0.6629    1.0188   -0.1431 C   0  0  0  0  0  0  0  0  0  0  0  0
   -1.9279    0.4602   -0.0964 C   0  0  0  0  0  0  0  0  0  0  0  0
   -2.1119   -0.8837   -0.4888 C   0  0  0  0  0  0  0  0  0  0  0  0
   -1.1862   -2.6793   -1.2180 H   0  0  0  0  0  0  0  0  0  0  0  0
    1.1462   -1.6522   -1.3057 H   0  0  0  0  0  0  0  0  0  0  0  0
   -0.4984    2.0492    0.1538 H   0  0  0  0  0  0  0  0  0  0  0  0
   -2.7597    1.0650    0.2410 H   0  0  0  0  0  0  0  0  0  0  0  0
    1.6755    0.8675   -0.6045 N   0  0  0  0  0  0  0  0  0  0  0  0
    2.2241    1.8396   -0.3930 N   0  0  0  0  0  0  0  0  0  0  0  0
    3.2798   -1.5746   -1.6767 Cl  0  0  0  0  0  0  0  0  0  0  0  0
   -3.2992   -1.5151   -0.4810 O   0  0  0  0  0  0  0  0  0  0  0  0
   -4.4676   -0.8121   -0.0574 C   0  0  0  0  0  0  0  0  0  0  0  0
   -5.2881   -1.5235   -0.1503 H   0  0  0  0  0  0  0  0  0  0  0  0
   -4.6630    0.0550   -0.6982 H   0  0  0  0  0  0  0  0  0  0  0  0
   -4.3806   -0.4900    0.9861 H   0  0  0  0  0  0  0  0  0  0  0  0
  1  6  1  0  0  0  0
  2  1  2  0  0  0  0
  2  3  1  0  0  0  0
  3  4  2  0  0  0  0
  4  5  1  0  0  0  0
  4  9  1  0  0  0  0
  5 10  1  0  0  0  0
  6 14  1  0  0  0  0
  6  5  2  0  0  0  0
  7  1  1  0  0  0  0
  8  2  1  0  0  0  0
 11  3  1  0  0  0  0
 11 12  2  0  0  0  0
 14 15  1  0  0  0  0
 15 18  1  0  0  0  0
 16 15  1  0  0  0  0
 17 15  1  0  0  0  0
M  RAD  2  12   2  13   2
M  END
