Coordinates from ORCA-job p-CH3O-Ph-N2-X-Cl-B3LYPG-6-31G_dp-scan-d09-49-n400
 OpenBabel08281821033D

 18 17  0  0  0  0  0  0  0  0999 V2000
   -0.9955   -1.5599   -0.9000 C   0  0  0  0  0  0  0  0  0  0  0  0
    0.2508   -0.9669   -0.9331 C   0  0  0  0  0  0  0  0  0  0  0  0
    0.3422    0.3794   -0.5241 C   0  0  0  0  0  0  0  0  0  0  0  0
   -0.7669    1.1188   -0.0937 C   0  0  0  0  0  0  0  0  0  0  0  0
   -2.0106    0.5078   -0.0668 C   0  0  0  0  0  0  0  0  0  0  0  0
   -2.1298   -0.8377   -0.4719 C   0  0  0  0  0  0  0  0  0  0  0  0
   -1.1270   -2.5925   -1.2037 H   0  0  0  0  0  0  0  0  0  0  0  0
    1.1583   -1.4845   -1.2574 H   0  0  0  0  0  0  0  0  0  0  0  0
   -0.6462    2.1522    0.2124 H   0  0  0  0  0  0  0  0  0  0  0  0
   -2.8736    1.0704    0.2640 H   0  0  0  0  0  0  0  0  0  0  0  0
    1.5848    0.9995   -0.5495 N   0  0  0  0  0  0  0  0  0  0  0  0
    2.7079    1.0137   -0.7457 N   0  0  0  0  0  0  0  0  0  0  0  0
    3.4491   -1.5162   -1.6736 Cl  0  0  0  0  0  0  0  0  0  0  0  0
   -3.2880   -1.5219   -0.4857 O   0  0  0  0  0  0  0  0  0  0  0  0
   -4.4916   -0.8748   -0.0717 C   0  0  0  0  0  0  0  0  0  0  0  0
   -5.2782   -1.6214   -0.1794 H   0  0  0  0  0  0  0  0  0  0  0  0
   -4.7179   -0.0125   -0.7089 H   0  0  0  0  0  0  0  0  0  0  0  0
   -4.4311   -0.5564    0.9748 H   0  0  0  0  0  0  0  0  0  0  0  0
  1  6  1  0  0  0  0
  2  1  2  0  0  0  0
  2  3  1  0  0  0  0
  3  4  2  0  0  0  0
  4  5  1  0  0  0  0
  4  9  1  0  0  0  0
  5 10  1  0  0  0  0
  6  5  2  0  0  0  0
  7  1  1  0  0  0  0
  8  2  1  0  0  0  0
 11  3  1  0  0  0  0
 12 11  2  0  0  0  0
 14  6  1  0  0  0  0
 14 15  1  0  0  0  0
 15 18  1  0  0  0  0
 16 15  1  0  0  0  0
 17 15  1  0  0  0  0
M  RAD  2  12   2  13   2
M  END
