Coordinates from ORCA-job p-CH3O-Ph-N2-X-Cl-B3LYPG-6-31G_dp-scan-d09-49-n400
 OpenBabel08281821033D

 18 17  0  0  0  0  0  0  0  0999 V2000
   -0.9652   -1.5509   -0.9044 C   0  0  0  0  0  0  0  0  0  0  0  0
    0.2810   -0.9585   -0.9376 C   0  0  0  0  0  0  0  0  0  0  0  0
    0.3526    0.3943   -0.5222 C   0  0  0  0  0  0  0  0  0  0  0  0
   -0.7652    1.1373   -0.0888 C   0  0  0  0  0  0  0  0  0  0  0  0
   -1.9965    0.5151   -0.0679 C   0  0  0  0  0  0  0  0  0  0  0  0
   -2.1037   -0.8371   -0.4776 C   0  0  0  0  0  0  0  0  0  0  0  0
   -1.0882   -2.5843   -1.2099 H   0  0  0  0  0  0  0  0  0  0  0  0
    1.2137   -1.4723   -1.2651 H   0  0  0  0  0  0  0  0  0  0  0  0
   -0.6558    2.1712    0.2199 H   0  0  0  0  0  0  0  0  0  0  0  0
   -2.8658    1.0686    0.2615 H   0  0  0  0  0  0  0  0  0  0  0  0
    1.5754    1.0024   -0.5466 N   0  0  0  0  0  0  0  0  0  0  0  0
    2.6322    1.3759   -0.6160 N   0  0  0  0  0  0  0  0  0  0  0  0
    3.2087   -1.9126   -1.7517 Cl  0  0  0  0  0  0  0  0  0  0  0  0
   -3.2563   -1.5219   -0.4922 O   0  0  0  0  0  0  0  0  0  0  0  0
   -4.4691   -0.8874   -0.0786 C   0  0  0  0  0  0  0  0  0  0  0  0
   -5.2460   -1.6434   -0.1894 H   0  0  0  0  0  0  0  0  0  0  0  0
   -4.7028   -0.0278   -0.7160 H   0  0  0  0  0  0  0  0  0  0  0  0
   -4.4126   -0.5717    0.9686 H   0  0  0  0  0  0  0  0  0  0  0  0
  1  6  1  0  0  0  0
  2  1  2  0  0  0  0
  2  3  1  0  0  0  0
  3  4  2  0  0  0  0
  4  5  1  0  0  0  0
  4  9  1  0  0  0  0
  5 10  1  0  0  0  0
  6  5  2  0  0  0  0
  7  1  1  0  0  0  0
  8  2  1  0  0  0  0
 11  3  1  0  0  0  0
 12 11  1  0  0  0  0
 14  6  1  0  0  0  0
 14 15  1  0  0  0  0
 15 18  1  0  0  0  0
 16 15  1  0  0  0  0
 17 15  1  0  0  0  0
M  RAD  3  11   2  12   3  13   2
M  END
