Coordinates from ORCA-job p-CH3O-Ph-N2-X-Cl-B3LYPG-6-31G_dp-scan-d09-49-n400
 OpenBabel08281821033D

 18 17  0  0  0  0  0  0  0  0999 V2000
   -1.0221   -1.5930   -0.9034 C   0  0  0  0  0  0  0  0  0  0  0  0
    0.2335   -1.0178   -0.9436 C   0  0  0  0  0  0  0  0  0  0  0  0
    0.3650    0.3273   -0.5428 C   0  0  0  0  0  0  0  0  0  0  0  0
   -0.7392    1.0737   -0.1119 C   0  0  0  0  0  0  0  0  0  0  0  0
   -1.9968    0.4877   -0.0751 C   0  0  0  0  0  0  0  0  0  0  0  0
   -2.1430   -0.8537   -0.4735 C   0  0  0  0  0  0  0  0  0  0  0  0
   -1.1712   -2.6244   -1.2030 H   0  0  0  0  0  0  0  0  0  0  0  0
    1.1124   -1.5639   -1.2711 H   0  0  0  0  0  0  0  0  0  0  0  0
   -0.5991    2.1059    0.1897 H   0  0  0  0  0  0  0  0  0  0  0  0
   -2.8466    1.0689    0.2581 H   0  0  0  0  0  0  0  0  0  0  0  0
    1.5980    0.9810   -0.5560 N   0  0  0  0  0  0  0  0  0  0  0  0
    2.7323    0.9025   -0.7855 N   0  0  0  0  0  0  0  0  0  0  0  0
    3.4789   -1.1317   -1.5671 Cl  0  0  0  0  0  0  0  0  0  0  0  0
   -3.3145   -1.5222   -0.4802 O   0  0  0  0  0  0  0  0  0  0  0  0
   -4.5014   -0.8502   -0.0636 C   0  0  0  0  0  0  0  0  0  0  0  0
   -5.3047   -1.5802   -0.1642 H   0  0  0  0  0  0  0  0  0  0  0  0
   -4.7141    0.0150   -0.7021 H   0  0  0  0  0  0  0  0  0  0  0  0
   -4.4308   -0.5278    0.9814 H   0  0  0  0  0  0  0  0  0  0  0  0
  1  6  1  0  0  0  0
  2  1  2  0  0  0  0
  2  3  1  0  0  0  0
  3  4  2  0  0  0  0
  4  5  1  0  0  0  0
  4  9  1  0  0  0  0
  5 10  1  0  0  0  0
  6  5  2  0  0  0  0
  7  1  1  0  0  0  0
  8  2  1  0  0  0  0
 11  3  1  0  0  0  0
 12 11  2  0  0  0  0
 14  6  1  0  0  0  0
 14 15  1  0  0  0  0
 15 18  1  0  0  0  0
 16 15  1  0  0  0  0
 17 15  1  0  0  0  0
M  RAD  2  12   2  13   2
M  END
