Coordinates from ORCA-job p-CH3O-Ph-N2-X-Cl-B3LYPG-6-31G_dp-scan-d09-49-n400
 OpenBabel08281821033D

 18 18  0  0  0  0  0  0  0  0999 V2000
   -1.0368   -1.6187   -0.9117 C   0  0  0  0  0  0  0  0  0  0  0  0
    0.2271   -1.0586   -0.9587 C   0  0  0  0  0  0  0  0  0  0  0  0
    0.3997    0.2871   -0.5647 C   0  0  0  0  0  0  0  0  0  0  0  0
   -0.7094    1.0320   -0.1329 C   0  0  0  0  0  0  0  0  0  0  0  0
   -1.9777    0.4686   -0.0856 C   0  0  0  0  0  0  0  0  0  0  0  0
   -2.1469   -0.8688   -0.4786 C   0  0  0  0  0  0  0  0  0  0  0  0
   -1.1987   -2.6489   -1.2091 H   0  0  0  0  0  0  0  0  0  0  0  0
    1.0722   -1.6417   -1.2928 H   0  0  0  0  0  0  0  0  0  0  0  0
   -0.5525    2.0630    0.1649 H   0  0  0  0  0  0  0  0  0  0  0  0
   -2.8156    1.0656    0.2513 H   0  0  0  0  0  0  0  0  0  0  0  0
    1.6041    1.0044   -0.5535 N   0  0  0  0  0  0  0  0  0  0  0  0
    2.7622    0.8443   -0.8082 N   0  0  0  0  0  0  0  0  0  0  0  0
    3.3800   -0.8501   -1.4449 Cl  0  0  0  0  0  0  0  0  0  0  0  0
   -3.3293   -1.5251   -0.4784 O   0  0  0  0  0  0  0  0  0  0  0  0
   -4.5008   -0.8333   -0.0560 C   0  0  0  0  0  0  0  0  0  0  0  0
   -5.3179   -1.5492   -0.1492 H   0  0  0  0  0  0  0  0  0  0  0  0
   -4.7041    0.0349   -0.6939 H   0  0  0  0  0  0  0  0  0  0  0  0
   -4.4190   -0.5086    0.9878 H   0  0  0  0  0  0  0  0  0  0  0  0
  1  6  1  0  0  0  0
  2  1  2  0  0  0  0
  2  3  1  0  0  0  0
  3 11  1  0  0  0  0
  3  4  2  0  0  0  0
  4  5  1  0  0  0  0
  4  9  1  0  0  0  0
  5 10  1  0  0  0  0
  6 14  1  0  0  0  0
  6  5  2  0  0  0  0
  7  1  1  0  0  0  0
  8  2  1  0  0  0  0
 12 11  2  0  0  0  0
 13 12  1  0  0  0  0
 14 15  1  0  0  0  0
 15 18  1  0  0  0  0
 16 15  1  0  0  0  0
 17 15  1  0  0  0  0
M  END
