Coordinates from ORCA-job p-CH3O-Ph-N2-X-Cl-B3LYPG-6-31G_dp-scan-d09-49-n400
 OpenBabel08281821033D

 18 17  0  0  0  0  0  0  0  0999 V2000
   -0.9779   -1.5442   -0.8995 C   0  0  0  0  0  0  0  0  0  0  0  0
    0.2644   -0.9435   -0.9292 C   0  0  0  0  0  0  0  0  0  0  0  0
    0.3383    0.4041   -0.5163 C   0  0  0  0  0  0  0  0  0  0  0  0
   -0.7762    1.1393   -0.0863 C   0  0  0  0  0  0  0  0  0  0  0  0
   -2.0124    0.5168   -0.0644 C   0  0  0  0  0  0  0  0  0  0  0  0
   -2.1185   -0.8311   -0.4728 C   0  0  0  0  0  0  0  0  0  0  0  0
   -1.0999   -2.5774   -1.2051 H   0  0  0  0  0  0  0  0  0  0  0  0
    1.1837   -1.4544   -1.2535 H   0  0  0  0  0  0  0  0  0  0  0  0
   -0.6652    2.1731    0.2220 H   0  0  0  0  0  0  0  0  0  0  0  0
   -2.8817    1.0705    0.2648 H   0  0  0  0  0  0  0  0  0  0  0  0
    1.5783    1.0160   -0.5427 N   0  0  0  0  0  0  0  0  0  0  0  0
    2.6952    1.1094   -0.7113 N   0  0  0  0  0  0  0  0  0  0  0  0
    3.3625   -1.7282   -1.7225 Cl  0  0  0  0  0  0  0  0  0  0  0  0
   -3.2702   -1.5225   -0.4897 O   0  0  0  0  0  0  0  0  0  0  0  0
   -4.4819   -0.8882   -0.0768 C   0  0  0  0  0  0  0  0  0  0  0  0
   -5.2599   -1.6434   -0.1873 H   0  0  0  0  0  0  0  0  0  0  0  0
   -4.7157   -0.0279   -0.7137 H   0  0  0  0  0  0  0  0  0  0  0  0
   -4.4261   -0.5713    0.9703 H   0  0  0  0  0  0  0  0  0  0  0  0
  1  6  1  0  0  0  0
  2  1  2  0  0  0  0
  2  3  1  0  0  0  0
  3  4  2  0  0  0  0
  4  5  1  0  0  0  0
  4  9  1  0  0  0  0
  5 10  1  0  0  0  0
  6  5  2  0  0  0  0
  7  1  1  0  0  0  0
  8  2  1  0  0  0  0
 11  3  1  0  0  0  0
 12 11  1  0  0  0  0
 14  6  1  0  0  0  0
 14 15  1  0  0  0  0
 15 18  1  0  0  0  0
 16 15  1  0  0  0  0
 17 15  1  0  0  0  0
M  RAD  3  11   2  12   3  13   2
M  END
