Coordinates from ORCA-job p-CH3O-Ph-N2-X-Cl-B3LYPG-6-31G_dp-scan-d09-49-n400
 OpenBabel08281821033D

 18 18  0  0  0  0  0  0  0  0999 V2000
   -1.0393   -1.6601   -0.8721 C   0  0  0  0  0  0  0  0  0  0  0  0
    0.2346   -1.1102   -0.9297 C   0  0  0  0  0  0  0  0  0  0  0  0
    0.4507    0.2509   -0.5789 C   0  0  0  0  0  0  0  0  0  0  0  0
   -0.6793    0.9931   -0.1747 C   0  0  0  0  0  0  0  0  0  0  0  0
   -1.9554    0.4499   -0.1179 C   0  0  0  0  0  0  0  0  0  0  0  0
   -2.1437   -0.8945   -0.4712 C   0  0  0  0  0  0  0  0  0  0  0  0
   -1.2047   -2.6984   -1.1404 H   0  0  0  0  0  0  0  0  0  0  0  0
    1.0434   -1.7505   -1.2457 H   0  0  0  0  0  0  0  0  0  0  0  0
   -0.5122    2.0301    0.0971 H   0  0  0  0  0  0  0  0  0  0  0  0
   -2.7857    1.0694    0.1985 H   0  0  0  0  0  0  0  0  0  0  0  0
    1.6192    1.0663   -0.5366 N   0  0  0  0  0  0  0  0  0  0  0  0
    2.7828    0.6401   -0.8977 N   0  0  0  0  0  0  0  0  0  0  0  0
    3.1941   -0.4068   -1.3179 Cl  0  0  0  0  0  0  0  0  0  0  0  0
   -3.3407   -1.5399   -0.4583 O   0  0  0  0  0  0  0  0  0  0  0  0
   -4.4973   -0.8135   -0.0659 C   0  0  0  0  0  0  0  0  0  0  0  0
   -5.3304   -1.5140   -0.1391 H   0  0  0  0  0  0  0  0  0  0  0  0
   -4.6826    0.0393   -0.7308 H   0  0  0  0  0  0  0  0  0  0  0  0
   -4.4170   -0.4539    0.9673 H   0  0  0  0  0  0  0  0  0  0  0  0
  1  6  1  0  0  0  0
  2  1  2  0  0  0  0
  2  3  1  0  0  0  0
  3 11  1  0  0  0  0
  3  4  2  0  0  0  0
  4  5  1  0  0  0  0
  4  9  1  0  0  0  0
  5 10  1  0  0  0  0
  6 14  1  0  0  0  0
  6  5  2  0  0  0  0
  7  1  1  0  0  0  0
  8  2  1  0  0  0  0
 12 11  2  0  0  0  0
 13 12  1  0  0  0  0
 14 15  1  0  0  0  0
 15 18  1  0  0  0  0
 16 15  1  0  0  0  0
 17 15  1  0  0  0  0
M  END
