Coordinates from ORCA-job p-CH3O-Ph-N2-X-Cl-B3LYPG-6-31G_dp-scan-d09-49-n400
 OpenBabel08281821033D

 18 17  0  0  0  0  0  0  0  0999 V2000
   -1.0242   -1.6650   -0.9257 C   0  0  0  0  0  0  0  0  0  0  0  0
    0.2485   -1.1268   -0.9805 C   0  0  0  0  0  0  0  0  0  0  0  0
    0.4202    0.2030   -0.5918 C   0  0  0  0  0  0  0  0  0  0  0  0
   -0.6506    1.0011   -0.1508 C   0  0  0  0  0  0  0  0  0  0  0  0
   -1.9205    0.4519   -0.1001 C   0  0  0  0  0  0  0  0  0  0  0  0
   -2.1159   -0.8902   -0.4899 C   0  0  0  0  0  0  0  0  0  0  0  0
   -1.2045   -2.6930   -1.2185 H   0  0  0  0  0  0  0  0  0  0  0  0
    1.1311   -1.6807   -1.3115 H   0  0  0  0  0  0  0  0  0  0  0  0
   -0.4785    2.0308    0.1444 H   0  0  0  0  0  0  0  0  0  0  0  0
   -2.7467    1.0638    0.2385 H   0  0  0  0  0  0  0  0  0  0  0  0
    1.6909    0.8364   -0.6175 N   0  0  0  0  0  0  0  0  0  0  0  0
    2.2072    1.8251   -0.3952 N   0  0  0  0  0  0  0  0  0  0  0  0
    3.2913   -1.4293   -1.6334 Cl  0  0  0  0  0  0  0  0  0  0  0  0
   -3.3084   -1.5139   -0.4788 O   0  0  0  0  0  0  0  0  0  0  0  0
   -4.4696   -0.8007   -0.0537 C   0  0  0  0  0  0  0  0  0  0  0  0
   -5.2965   -1.5051   -0.1436 H   0  0  0  0  0  0  0  0  0  0  0  0
   -4.6593    0.0673   -0.6950 H   0  0  0  0  0  0  0  0  0  0  0  0
   -4.3778   -0.4776    0.9892 H   0  0  0  0  0  0  0  0  0  0  0  0
  1  6  1  0  0  0  0
  2  1  2  0  0  0  0
  2  3  1  0  0  0  0
  3  4  2  0  0  0  0
  4  5  1  0  0  0  0
  4  9  1  0  0  0  0
  5 10  1  0  0  0  0
  6 14  1  0  0  0  0
  6  5  2  0  0  0  0
  7  1  1  0  0  0  0
  8  2  1  0  0  0  0
 11  3  1  0  0  0  0
 11 12  2  0  0  0  0
 14 15  1  0  0  0  0
 15 18  1  0  0  0  0
 16 15  1  0  0  0  0
 17 15  1  0  0  0  0
M  RAD  2  12   2  13   2
M  END
