Coordinates from ORCA-job p-CH3O-Ph-N2-X-Cl-B3LYPG-6-31G_dp-scan-d09-49-n400
 OpenBabel08281821033D

 18 17  0  0  0  0  0  0  0  0999 V2000
   -1.0151   -1.6525   -0.9236 C   0  0  0  0  0  0  0  0  0  0  0  0
    0.2544   -1.1075   -0.9757 C   0  0  0  0  0  0  0  0  0  0  0  0
    0.4155    0.2239   -0.5845 C   0  0  0  0  0  0  0  0  0  0  0  0
   -0.6612    1.0164   -0.1441 C   0  0  0  0  0  0  0  0  0  0  0  0
   -1.9268    0.4590   -0.0968 C   0  0  0  0  0  0  0  0  0  0  0  0
   -2.1124   -0.8846   -0.4889 C   0  0  0  0  0  0  0  0  0  0  0  0
   -1.1888   -2.6812   -1.2180 H   0  0  0  0  0  0  0  0  0  0  0  0
    1.1442   -1.6559   -1.3065 H   0  0  0  0  0  0  0  0  0  0  0  0
   -0.4956    2.0467    0.1526 H   0  0  0  0  0  0  0  0  0  0  0  0
   -2.7579    1.0648    0.2407 H   0  0  0  0  0  0  0  0  0  0  0  0
    1.6776    0.8632   -0.6063 N   0  0  0  0  0  0  0  0  0  0  0  0
    2.2216    1.8378   -0.3934 N   0  0  0  0  0  0  0  0  0  0  0  0
    3.2816   -1.5550   -1.6711 Cl  0  0  0  0  0  0  0  0  0  0  0  0
   -3.3004   -1.5149   -0.4806 O   0  0  0  0  0  0  0  0  0  0  0  0
   -4.4680   -0.8105   -0.0569 C   0  0  0  0  0  0  0  0  0  0  0  0
   -5.2893   -1.5209   -0.1495 H   0  0  0  0  0  0  0  0  0  0  0  0
   -4.6625    0.0567   -0.6978 H   0  0  0  0  0  0  0  0  0  0  0  0
   -4.3804   -0.4883    0.9865 H   0  0  0  0  0  0  0  0  0  0  0  0
  1  6  1  0  0  0  0
  2  1  2  0  0  0  0
  2  3  1  0  0  0  0
  3  4  2  0  0  0  0
  4  5  1  0  0  0  0
  4  9  1  0  0  0  0
  5 10  1  0  0  0  0
  6 14  1  0  0  0  0
  6  5  2  0  0  0  0
  7  1  1  0  0  0  0
  8  2  1  0  0  0  0
 11  3  1  0  0  0  0
 11 12  2  0  0  0  0
 14 15  1  0  0  0  0
 15 18  1  0  0  0  0
 16 15  1  0  0  0  0
 17 15  1  0  0  0  0
M  RAD  2  12   2  13   2
M  END
