Coordinates from ORCA-job p-CH3O-Ph-N2-X-Cl-B3LYPG-6-31G_dp-scan-d09-49-n400
 OpenBabel08281821033D

 18 17  0  0  0  0  0  0  0  0999 V2000
   -0.9989   -1.6295   -0.9222 C   0  0  0  0  0  0  0  0  0  0  0  0
    0.2650   -1.0729   -0.9692 C   0  0  0  0  0  0  0  0  0  0  0  0
    0.4081    0.2611   -0.5724 C   0  0  0  0  0  0  0  0  0  0  0  0
   -0.6792    1.0430   -0.1326 C   0  0  0  0  0  0  0  0  0  0  0  0
   -1.9373    0.4714   -0.0913 C   0  0  0  0  0  0  0  0  0  0  0  0
   -2.1058   -0.8745   -0.4884 C   0  0  0  0  0  0  0  0  0  0  0  0
   -1.1603   -2.6593   -1.2200 H   0  0  0  0  0  0  0  0  0  0  0  0
    1.1661   -1.6140   -1.2997 H   0  0  0  0  0  0  0  0  0  0  0  0
   -0.5255    2.0743    0.1674 H   0  0  0  0  0  0  0  0  0  0  0  0
   -2.7767    1.0660    0.2452 H   0  0  0  0  0  0  0  0  0  0  0  0
    1.6549    0.9099   -0.5882 N   0  0  0  0  0  0  0  0  0  0  0  0
    2.2551    1.8528   -0.3965 N   0  0  0  0  0  0  0  0  0  0  0  0
    3.2472   -1.7643   -1.7211 Cl  0  0  0  0  0  0  0  0  0  0  0  0
   -3.2858   -1.5166   -0.4852 O   0  0  0  0  0  0  0  0  0  0  0  0
   -4.4641   -0.8287   -0.0621 C   0  0  0  0  0  0  0  0  0  0  0  0
   -5.2753   -1.5499   -0.1592 H   0  0  0  0  0  0  0  0  0  0  0  0
   -4.6681    0.0376   -0.7011 H   0  0  0  0  0  0  0  0  0  0  0  0
   -4.3828   -0.5091    0.9826 H   0  0  0  0  0  0  0  0  0  0  0  0
  1  6  1  0  0  0  0
  2  1  2  0  0  0  0
  2  3  1  0  0  0  0
  3  4  2  0  0  0  0
  4  5  1  0  0  0  0
  4  9  1  0  0  0  0
  5 10  1  0  0  0  0
  6 14  1  0  0  0  0
  6  5  2  0  0  0  0
  7  1  1  0  0  0  0
  8  2  1  0  0  0  0
 11  3  1  0  0  0  0
 11 12  2  0  0  0  0
 14 15  1  0  0  0  0
 15 18  1  0  0  0  0
 16 15  1  0  0  0  0
 17 15  1  0  0  0  0
M  RAD  2  12   2  13   2
M  END
