Coordinates from ORCA-job p-CH3O-Ph-N2-X-Cl-B3LYPG-6-31G_dp-scan-d09-49-n400
 OpenBabel08281821033D

 18 17  0  0  0  0  0  0  0  0999 V2000
   -0.9691   -1.5931   -0.9169 C   0  0  0  0  0  0  0  0  0  0  0  0
    0.2859   -1.0179   -0.9564 C   0  0  0  0  0  0  0  0  0  0  0  0
    0.3993    0.3218   -0.5519 C   0  0  0  0  0  0  0  0  0  0  0  0
   -0.7062    1.0847   -0.1144 C   0  0  0  0  0  0  0  0  0  0  0  0
   -1.9516    0.4899   -0.0827 C   0  0  0  0  0  0  0  0  0  0  0  0
   -2.0919   -0.8593   -0.4864 C   0  0  0  0  0  0  0  0  0  0  0  0
   -1.1088   -2.6248   -1.2195 H   0  0  0  0  0  0  0  0  0  0  0  0
    1.1993   -1.5556   -1.2886 H   0  0  0  0  0  0  0  0  0  0  0  0
   -0.5734    2.1175    0.1903 H   0  0  0  0  0  0  0  0  0  0  0  0
   -2.8045    1.0665    0.2509 H   0  0  0  0  0  0  0  0  0  0  0  0
    1.6208    0.9862   -0.5582 N   0  0  0  0  0  0  0  0  0  0  0  0
    2.3150    1.8653   -0.4036 N   0  0  0  0  0  0  0  0  0  0  0  0
    3.1408   -2.0731   -1.7969 Cl  0  0  0  0  0  0  0  0  0  0  0  0
   -3.2588   -1.5208   -0.4918 O   0  0  0  0  0  0  0  0  0  0  0  0
   -4.4542   -0.8582   -0.0729 C   0  0  0  0  0  0  0  0  0  0  0  0
   -5.2491   -1.5962   -0.1774 H   0  0  0  0  0  0  0  0  0  0  0  0
   -4.6720    0.0053   -0.7109 H   0  0  0  0  0  0  0  0  0  0  0  0
   -4.3849   -0.5412    0.9732 H   0  0  0  0  0  0  0  0  0  0  0  0
  1  6  1  0  0  0  0
  2  1  2  0  0  0  0
  2  3  1  0  0  0  0
  3  4  2  0  0  0  0
  4  5  1  0  0  0  0
  4  9  1  0  0  0  0
  5 10  1  0  0  0  0
  6  5  2  0  0  0  0
  7  1  1  0  0  0  0
  8  2  1  0  0  0  0
 11  3  1  0  0  0  0
 11 12  1  0  0  0  0
 14  6  1  0  0  0  0
 14 15  1  0  0  0  0
 15 18  1  0  0  0  0
 16 15  1  0  0  0  0
 17 15  1  0  0  0  0
M  RAD  3  11   2  12   3  13   2
M  END
