Coordinates from ORCA-job p-CH3O-Ph-N2-X-Cl-B3LYPG-6-31G_dp-scan-d09-49-n400
 OpenBabel08281821033D

 18 17  0  0  0  0  0  0  0  0999 V2000
   -1.0069   -1.5720   -0.9015 C   0  0  0  0  0  0  0  0  0  0  0  0
    0.2426   -0.9852   -0.9372 C   0  0  0  0  0  0  0  0  0  0  0  0
    0.3484    0.3603   -0.5312 C   0  0  0  0  0  0  0  0  0  0  0  0
   -0.7576    1.1028   -0.0999 C   0  0  0  0  0  0  0  0  0  0  0  0
   -2.0065    0.5006   -0.0689 C   0  0  0  0  0  0  0  0  0  0  0  0
   -2.1359   -0.8432   -0.4720 C   0  0  0  0  0  0  0  0  0  0  0  0
   -1.1451   -2.6040   -1.2038 H   0  0  0  0  0  0  0  0  0  0  0  0
    1.1407   -1.5106   -1.2624 H   0  0  0  0  0  0  0  0  0  0  0  0
   -0.6297    2.1357    0.2047 H   0  0  0  0  0  0  0  0  0  0  0  0
   -2.8646    1.0698    0.2635 H   0  0  0  0  0  0  0  0  0  0  0  0
    1.5903    0.9888   -0.5554 N   0  0  0  0  0  0  0  0  0  0  0  0
    2.7167    0.9597   -0.7667 N   0  0  0  0  0  0  0  0  0  0  0  0
    3.4797   -1.3647   -1.6298 Cl  0  0  0  0  0  0  0  0  0  0  0  0
   -3.2991   -1.5216   -0.4834 O   0  0  0  0  0  0  0  0  0  0  0  0
   -4.4966   -0.8654   -0.0683 C   0  0  0  0  0  0  0  0  0  0  0  0
   -5.2896   -1.6058   -0.1744 H   0  0  0  0  0  0  0  0  0  0  0  0
   -4.7175   -0.0014   -0.7052 H   0  0  0  0  0  0  0  0  0  0  0  0
   -4.4328   -0.5466    0.9780 H   0  0  0  0  0  0  0  0  0  0  0  0
  1  6  1  0  0  0  0
  2  1  2  0  0  0  0
  2  3  1  0  0  0  0
  3  4  2  0  0  0  0
  4  5  1  0  0  0  0
  4  9  1  0  0  0  0
  5 10  1  0  0  0  0
  6  5  2  0  0  0  0
  7  1  1  0  0  0  0
  8  2  1  0  0  0  0
 11  3  1  0  0  0  0
 12 11  2  0  0  0  0
 14  6  1  0  0  0  0
 14 15  1  0  0  0  0
 15 18  1  0  0  0  0
 16 15  1  0  0  0  0
 17 15  1  0  0  0  0
M  RAD  2  12   2  13   2
M  END
