Coordinates from ORCA-job p-CH3O-Ph-N2-X-Cl-B3LYPG-6-31G_dp-scan-d09-49-n400
 OpenBabel08281821033D

 18 17  0  0  0  0  0  0  0  0999 V2000
   -0.9062   -1.5159   -0.9038 C   0  0  0  0  0  0  0  0  0  0  0  0
    0.3299   -0.9018   -0.9272 C   0  0  0  0  0  0  0  0  0  0  0  0
    0.3775    0.4511   -0.5069 C   0  0  0  0  0  0  0  0  0  0  0  0
   -0.7651    1.1725   -0.0758 C   0  0  0  0  0  0  0  0  0  0  0  0
   -1.9805    0.5263   -0.0662 C   0  0  0  0  0  0  0  0  0  0  0  0
   -2.0608   -0.8289   -0.4827 C   0  0  0  0  0  0  0  0  0  0  0  0
   -0.9948   -2.5508   -1.2167 H   0  0  0  0  0  0  0  0  0  0  0  0
    1.2505   -1.4478   -1.2634 H   0  0  0  0  0  0  0  0  0  0  0  0
   -0.6796    2.2072    0.2382 H   0  0  0  0  0  0  0  0  0  0  0  0
   -2.8620    1.0625    0.2601 H   0  0  0  0  0  0  0  0  0  0  0  0
    1.5640    1.1168   -0.5061 N   0  0  0  0  0  0  0  0  0  0  0  0
    2.5013    1.7371   -0.4759 N   0  0  0  0  0  0  0  0  0  0  0  0
    2.8394   -2.5119   -1.8840 Cl  0  0  0  0  0  0  0  0  0  0  0  0
   -3.2011   -1.5319   -0.5063 O   0  0  0  0  0  0  0  0  0  0  0  0
   -4.4282   -0.9217   -0.0979 C   0  0  0  0  0  0  0  0  0  0  0  0
   -5.1896   -1.6923   -0.2156 H   0  0  0  0  0  0  0  0  0  0  0  0
   -4.6747   -0.0650   -0.7345 H   0  0  0  0  0  0  0  0  0  0  0  0
   -4.3838   -0.6085    0.9506 H   0  0  0  0  0  0  0  0  0  0  0  0
  1  6  1  0  0  0  0
  2  1  2  0  0  0  0
  2  3  1  0  0  0  0
  3 11  1  0  0  0  0
  3  4  2  0  0  0  0
  4  5  1  0  0  0  0
  4  9  1  0  0  0  0
  5 10  1  0  0  0  0
  6  5  2  0  0  0  0
  7  1  1  0  0  0  0
  8  2  1  0  0  0  0
 11 12  1  0  0  0  0
 14  6  1  0  0  0  0
 14 15  1  0  0  0  0
 15 18  1  0  0  0  0
 16 15  1  0  0  0  0
 17 15  1  0  0  0  0
M  RAD  3  11   2  12   3  13   2
M  END
