Coordinates from ORCA-job p-CH3O-Ph-N2-X-Cl-B3LYPG-6-31G_dp-scan-d09-49-n400
 OpenBabel08281821033D

 18 17  0  0  0  0  0  0  0  0999 V2000
   -0.9593   -1.5368   -0.9007 C   0  0  0  0  0  0  0  0  0  0  0  0
    0.2820   -0.9340   -0.9293 C   0  0  0  0  0  0  0  0  0  0  0  0
    0.3432    0.4162   -0.5132 C   0  0  0  0  0  0  0  0  0  0  0  0
   -0.7769    1.1514   -0.0824 C   0  0  0  0  0  0  0  0  0  0  0  0
   -2.0060    0.5217   -0.0644 C   0  0  0  0  0  0  0  0  0  0  0  0
   -2.1035   -0.8298   -0.4754 C   0  0  0  0  0  0  0  0  0  0  0  0
   -1.0748   -2.5706   -1.2075 H   0  0  0  0  0  0  0  0  0  0  0  0
    1.2129   -1.4466   -1.2559 H   0  0  0  0  0  0  0  0  0  0  0  0
   -0.6731    2.1856    0.2273 H   0  0  0  0  0  0  0  0  0  0  0  0
   -2.8796    1.0693    0.2635 H   0  0  0  0  0  0  0  0  0  0  0  0
    1.5728    1.0234   -0.5388 N   0  0  0  0  0  0  0  0  0  0  0  0
    2.6626    1.2841   -0.6496 N   0  0  0  0  0  0  0  0  0  0  0  0
    3.2202   -1.9396   -1.7648 Cl  0  0  0  0  0  0  0  0  0  0  0  0
   -3.2514   -1.5232   -0.4936 O   0  0  0  0  0  0  0  0  0  0  0  0
   -4.4688   -0.8969   -0.0817 C   0  0  0  0  0  0  0  0  0  0  0  0
   -5.2408   -1.6577   -0.1942 H   0  0  0  0  0  0  0  0  0  0  0  0
   -4.7070   -0.0383   -0.7190 H   0  0  0  0  0  0  0  0  0  0  0  0
   -4.4161   -0.5811    0.9657 H   0  0  0  0  0  0  0  0  0  0  0  0
  1  6  1  0  0  0  0
  2  1  2  0  0  0  0
  2  3  1  0  0  0  0
  3  4  2  0  0  0  0
  4  5  1  0  0  0  0
  4  9  1  0  0  0  0
  5 10  1  0  0  0  0
  6  5  2  0  0  0  0
  7  1  1  0  0  0  0
  8  2  1  0  0  0  0
 11  3  1  0  0  0  0
 12 11  1  0  0  0  0
 14  6  1  0  0  0  0
 14 15  1  0  0  0  0
 15 18  1  0  0  0  0
 16 15  1  0  0  0  0
 17 15  1  0  0  0  0
M  RAD  3  11   2  12   3  13   2
M  END
