Coordinates from ORCA-job p-CH3O-Ph-N2-X-Cl-B3LYPG-6-31G_dp-scan-d09-49-n400
 OpenBabel08281821033D

 18 17  0  0  0  0  0  0  0  0999 V2000
   -1.0025   -1.6344   -0.9229 C   0  0  0  0  0  0  0  0  0  0  0  0
    0.2626   -1.0803   -0.9708 C   0  0  0  0  0  0  0  0  0  0  0  0
    0.4095    0.2532   -0.5750 C   0  0  0  0  0  0  0  0  0  0  0  0
   -0.6755    1.0374   -0.1352 C   0  0  0  0  0  0  0  0  0  0  0  0
   -1.9352    0.4688   -0.0928 C   0  0  0  0  0  0  0  0  0  0  0  0
   -2.1074   -0.8765   -0.4888 C   0  0  0  0  0  0  0  0  0  0  0  0
   -1.1666   -2.6639   -1.2199 H   0  0  0  0  0  0  0  0  0  0  0  0
    1.1616   -1.6227   -1.3010 H   0  0  0  0  0  0  0  0  0  0  0  0
   -0.5192    2.0685    0.1641 H   0  0  0  0  0  0  0  0  0  0  0  0
   -2.7729    1.0659    0.2439 H   0  0  0  0  0  0  0  0  0  0  0  0
    1.6595    0.9000   -0.5917 N   0  0  0  0  0  0  0  0  0  0  0  0
    2.2474    1.8502   -0.3951 N   0  0  0  0  0  0  0  0  0  0  0  0
    3.2568   -1.7212   -1.7108 Cl  0  0  0  0  0  0  0  0  0  0  0  0
   -3.2891   -1.5162   -0.4844 O   0  0  0  0  0  0  0  0  0  0  0  0
   -4.4650   -0.8248   -0.0607 C   0  0  0  0  0  0  0  0  0  0  0  0
   -5.2783   -1.5438   -0.1565 H   0  0  0  0  0  0  0  0  0  0  0  0
   -4.6673    0.0416   -0.7001 H   0  0  0  0  0  0  0  0  0  0  0  0
   -4.3820   -0.5046    0.9836 H   0  0  0  0  0  0  0  0  0  0  0  0
  1  6  1  0  0  0  0
  2  1  2  0  0  0  0
  2  3  1  0  0  0  0
  3  4  2  0  0  0  0
  4  5  1  0  0  0  0
  4  9  1  0  0  0  0
  5 10  1  0  0  0  0
  6 14  1  0  0  0  0
  6  5  2  0  0  0  0
  7  1  1  0  0  0  0
  8  2  1  0  0  0  0
 11  3  1  0  0  0  0
 11 12  2  0  0  0  0
 14 15  1  0  0  0  0
 15 18  1  0  0  0  0
 16 15  1  0  0  0  0
 17 15  1  0  0  0  0
M  RAD  2  12   2  13   2
M  END
