Coordinates from ORCA-job p-CH3O-Ph-N2-X-Cl-B3LYPG-6-31G_dp-scan-d09-49-n400
 OpenBabel08281821033D

 18 17  0  0  0  0  0  0  0  0999 V2000
   -0.9835   -1.5484   -0.9002 C   0  0  0  0  0  0  0  0  0  0  0  0
    0.2599   -0.9500   -0.9308 C   0  0  0  0  0  0  0  0  0  0  0  0
    0.3390    0.3972   -0.5187 C   0  0  0  0  0  0  0  0  0  0  0  0
   -0.7738    1.1334   -0.0887 C   0  0  0  0  0  0  0  0  0  0  0  0
   -2.0124    0.5144   -0.0654 C   0  0  0  0  0  0  0  0  0  0  0  0
   -2.1223   -0.8327   -0.4729 C   0  0  0  0  0  0  0  0  0  0  0  0
   -1.1085   -2.5814   -1.2053 H   0  0  0  0  0  0  0  0  0  0  0  0
    1.1754   -1.4630   -1.2548 H   0  0  0  0  0  0  0  0  0  0  0  0
   -0.6600    2.1671    0.2191 H   0  0  0  0  0  0  0  0  0  0  0  0
   -2.8798    1.0707    0.2643 H   0  0  0  0  0  0  0  0  0  0  0  0
    1.5801    1.0121   -0.5441 N   0  0  0  0  0  0  0  0  0  0  0  0
    2.6996    1.0771   -0.7221 N   0  0  0  0  0  0  0  0  0  0  0  0
    3.3940   -1.6650   -1.7072 Cl  0  0  0  0  0  0  0  0  0  0  0  0
   -3.2759   -1.5221   -0.4888 O   0  0  0  0  0  0  0  0  0  0  0  0
   -4.4851   -0.8844   -0.0748 C   0  0  0  0  0  0  0  0  0  0  0  0
   -5.2655   -1.6373   -0.1840 H   0  0  0  0  0  0  0  0  0  0  0  0
   -4.7173   -0.0235   -0.7115 H   0  0  0  0  0  0  0  0  0  0  0  0
   -4.4274   -0.5672    0.9721 H   0  0  0  0  0  0  0  0  0  0  0  0
  1  6  1  0  0  0  0
  2  1  2  0  0  0  0
  2  3  1  0  0  0  0
  3  4  2  0  0  0  0
  4  5  1  0  0  0  0
  4  9  1  0  0  0  0
  5 10  1  0  0  0  0
  6  5  2  0  0  0  0
  7  1  1  0  0  0  0
  8  2  1  0  0  0  0
 11  3  1  0  0  0  0
 12 11  1  0  0  0  0
 14  6  1  0  0  0  0
 14 15  1  0  0  0  0
 15 18  1  0  0  0  0
 16 15  1  0  0  0  0
 17 15  1  0  0  0  0
M  RAD  3  11   2  12   3  13   2
M  END
