Coordinates from ORCA-job p-CH3O-Ph-N2-X-Cl-B3LYPG-6-31G_dp-scan-d09-49-n400
 OpenBabel08281821033D

 18 18  0  0  0  0  0  0  0  0999 V2000
   -1.0411   -1.6568   -0.8816 C   0  0  0  0  0  0  0  0  0  0  0  0
    0.2334   -1.1049   -0.9419 C   0  0  0  0  0  0  0  0  0  0  0  0
    0.4500    0.2559   -0.5893 C   0  0  0  0  0  0  0  0  0  0  0  0
   -0.6808    0.9966   -0.1821 C   0  0  0  0  0  0  0  0  0  0  0  0
   -1.9548    0.4497   -0.1201 C   0  0  0  0  0  0  0  0  0  0  0  0
   -2.1439   -0.8947   -0.4744 C   0  0  0  0  0  0  0  0  0  0  0  0
   -1.2054   -2.6946   -1.1526 H   0  0  0  0  0  0  0  0  0  0  0  0
    1.0440   -1.7410   -1.2639 H   0  0  0  0  0  0  0  0  0  0  0  0
   -0.5165    2.0347    0.0877 H   0  0  0  0  0  0  0  0  0  0  0  0
   -2.7850    1.0680    0.1997 H   0  0  0  0  0  0  0  0  0  0  0  0
    1.6204    1.0665   -0.5618 N   0  0  0  0  0  0  0  0  0  0  0  0
    2.7733    0.5579   -0.9074 N   0  0  0  0  0  0  0  0  0  0  0  0
    3.2059   -0.3513   -1.2400 Cl  0  0  0  0  0  0  0  0  0  0  0  0
   -3.3424   -1.5416   -0.4569 O   0  0  0  0  0  0  0  0  0  0  0  0
   -4.4955   -0.8152   -0.0577 C   0  0  0  0  0  0  0  0  0  0  0  0
   -5.3301   -1.5147   -0.1270 H   0  0  0  0  0  0  0  0  0  0  0  0
   -4.6846    0.0389   -0.7201 H   0  0  0  0  0  0  0  0  0  0  0  0
   -4.4103   -0.4563    0.9756 H   0  0  0  0  0  0  0  0  0  0  0  0
  1  6  1  0  0  0  0
  2  1  2  0  0  0  0
  2  3  1  0  0  0  0
  3 11  1  0  0  0  0
  3  4  2  0  0  0  0
  4  5  1  0  0  0  0
  4  9  1  0  0  0  0
  5 10  1  0  0  0  0
  6 14  1  0  0  0  0
  6  5  2  0  0  0  0
  7  1  1  0  0  0  0
  8  2  1  0  0  0  0
 12 11  2  0  0  0  0
 13 12  1  0  0  0  0
 14 15  1  0  0  0  0
 15 18  1  0  0  0  0
 16 15  1  0  0  0  0
 17 15  1  0  0  0  0
M  END
