Coordinates from ORCA-job p-CH3O-Ph-N2-X-Cl-B3LYPG-6-31G_dp-scan-d09-49-n400
 OpenBabel08281821033D

 18 17  0  0  0  0  0  0  0  0999 V2000
   -1.0141   -1.6510   -0.9235 C   0  0  0  0  0  0  0  0  0  0  0  0
    0.2549   -1.1050   -0.9751 C   0  0  0  0  0  0  0  0  0  0  0  0
    0.4147    0.2264   -0.5835 C   0  0  0  0  0  0  0  0  0  0  0  0
   -0.6627    1.0183   -0.1433 C   0  0  0  0  0  0  0  0  0  0  0  0
   -1.9278    0.4599   -0.0965 C   0  0  0  0  0  0  0  0  0  0  0  0
   -2.1121   -0.8840   -0.4889 C   0  0  0  0  0  0  0  0  0  0  0  0
   -1.1868   -2.6798   -1.2181 H   0  0  0  0  0  0  0  0  0  0  0  0
    1.1461   -1.6520   -1.3056 H   0  0  0  0  0  0  0  0  0  0  0  0
   -0.4979    2.0488    0.1536 H   0  0  0  0  0  0  0  0  0  0  0  0
   -2.7595    1.0649    0.2409 H   0  0  0  0  0  0  0  0  0  0  0  0
    1.6761    0.8655   -0.6052 N   0  0  0  0  0  0  0  0  0  0  0  0
    2.2256    1.8371   -0.3941 N   0  0  0  0  0  0  0  0  0  0  0  0
    3.2795   -1.5678   -1.6745 Cl  0  0  0  0  0  0  0  0  0  0  0  0
   -3.2996   -1.5151   -0.4809 O   0  0  0  0  0  0  0  0  0  0  0  0
   -4.4678   -0.8118   -0.0573 C   0  0  0  0  0  0  0  0  0  0  0  0
   -5.2884   -1.5230   -0.1501 H   0  0  0  0  0  0  0  0  0  0  0  0
   -4.6630    0.0553   -0.6981 H   0  0  0  0  0  0  0  0  0  0  0  0
   -4.3806   -0.4896    0.9862 H   0  0  0  0  0  0  0  0  0  0  0  0
  1  6  1  0  0  0  0
  2  1  2  0  0  0  0
  2  3  1  0  0  0  0
  3  4  2  0  0  0  0
  4  5  1  0  0  0  0
  4  9  1  0  0  0  0
  5 10  1  0  0  0  0
  6 14  1  0  0  0  0
  6  5  2  0  0  0  0
  7  1  1  0  0  0  0
  8  2  1  0  0  0  0
 11  3  1  0  0  0  0
 11 12  2  0  0  0  0
 14 15  1  0  0  0  0
 15 18  1  0  0  0  0
 16 15  1  0  0  0  0
 17 15  1  0  0  0  0
M  RAD  2  12   2  13   2
M  END
