Coordinates from ORCA-job p-CH3O-Ph-N2-X-Cl-B3LYPG-6-31G_dp-scan-d09-49-n400
 OpenBabel08281821033D

 18 17  0  0  0  0  0  0  0  0999 V2000
   -0.9744   -1.5421   -0.8991 C   0  0  0  0  0  0  0  0  0  0  0  0
    0.2673   -0.9403   -0.9284 C   0  0  0  0  0  0  0  0  0  0  0  0
    0.3383    0.4077   -0.5150 C   0  0  0  0  0  0  0  0  0  0  0  0
   -0.7772    1.1423   -0.0850 C   0  0  0  0  0  0  0  0  0  0  0  0
   -2.0121    0.5181   -0.0640 C   0  0  0  0  0  0  0  0  0  0  0  0
   -2.1161   -0.8304   -0.4728 C   0  0  0  0  0  0  0  0  0  0  0  0
   -1.0949   -2.5754   -1.2049 H   0  0  0  0  0  0  0  0  0  0  0  0
    1.1886   -1.4509   -1.2531 H   0  0  0  0  0  0  0  0  0  0  0  0
   -0.6679    2.1762    0.2234 H   0  0  0  0  0  0  0  0  0  0  0  0
   -2.8825    1.0703    0.2649 H   0  0  0  0  0  0  0  0  0  0  0  0
    1.5770    1.0187   -0.5415 N   0  0  0  0  0  0  0  0  0  0  0  0
    2.6917    1.1335   -0.7030 N   0  0  0  0  0  0  0  0  0  0  0  0
    3.3416   -1.7671   -1.7323 Cl  0  0  0  0  0  0  0  0  0  0  0  0
   -3.2668   -1.5227   -0.4902 O   0  0  0  0  0  0  0  0  0  0  0  0
   -4.4799   -0.8902   -0.0780 C   0  0  0  0  0  0  0  0  0  0  0  0
   -5.2565   -1.6466   -0.1891 H   0  0  0  0  0  0  0  0  0  0  0  0
   -4.7145   -0.0304   -0.7151 H   0  0  0  0  0  0  0  0  0  0  0  0
   -4.4252   -0.5735    0.9691 H   0  0  0  0  0  0  0  0  0  0  0  0
  1  6  1  0  0  0  0
  2  1  2  0  0  0  0
  2  3  1  0  0  0  0
  3  4  2  0  0  0  0
  4  5  1  0  0  0  0
  4  9  1  0  0  0  0
  5 10  1  0  0  0  0
  6  5  2  0  0  0  0
  7  1  1  0  0  0  0
  8  2  1  0  0  0  0
 11  3  1  0  0  0  0
 12 11  1  0  0  0  0
 14  6  1  0  0  0  0
 14 15  1  0  0  0  0
 15 18  1  0  0  0  0
 16 15  1  0  0  0  0
 17 15  1  0  0  0  0
M  RAD  3  11   2  12   3  13   2
M  END
