Coordinates from ORCA-job p-CH3O-Ph-N2-X-Cl-B3LYPG-6-31G_dp-scan-d09-49-n400
 OpenBabel08281821033D

 18 17  0  0  0  0  0  0  0  0999 V2000
   -0.9849   -1.6123   -0.9192 C   0  0  0  0  0  0  0  0  0  0  0  0
    0.2746   -1.0464   -0.9625 C   0  0  0  0  0  0  0  0  0  0  0  0
    0.4032    0.2903   -0.5622 C   0  0  0  0  0  0  0  0  0  0  0  0
   -0.6927    1.0633   -0.1235 C   0  0  0  0  0  0  0  0  0  0  0  0
   -1.9447    0.4803   -0.0868 C   0  0  0  0  0  0  0  0  0  0  0  0
   -2.0996   -0.8674   -0.4870 C   0  0  0  0  0  0  0  0  0  0  0  0
   -1.1360   -2.6431   -1.2192 H   0  0  0  0  0  0  0  0  0  0  0  0
    1.1828   -1.5841   -1.2937 H   0  0  0  0  0  0  0  0  0  0  0  0
   -0.5489    2.0954    0.1786 H   0  0  0  0  0  0  0  0  0  0  0  0
   -2.7907    1.0662    0.2482 H   0  0  0  0  0  0  0  0  0  0  0  0
    1.6378    0.9465   -0.5737 N   0  0  0  0  0  0  0  0  0  0  0  0
    2.2842    1.8598   -0.3997 N   0  0  0  0  0  0  0  0  0  0  0  0
    3.2031   -1.9164   -1.7613 Cl  0  0  0  0  0  0  0  0  0  0  0  0
   -3.2733   -1.5187   -0.4879 O   0  0  0  0  0  0  0  0  0  0  0  0
   -4.4600   -0.8426   -0.0674 C   0  0  0  0  0  0  0  0  0  0  0  0
   -5.2634   -1.5719   -0.1682 H   0  0  0  0  0  0  0  0  0  0  0  0
   -4.6702    0.0222   -0.7062 H   0  0  0  0  0  0  0  0  0  0  0  0
   -4.3848   -0.5241    0.9779 H   0  0  0  0  0  0  0  0  0  0  0  0
  1  6  1  0  0  0  0
  2  1  2  0  0  0  0
  2  3  1  0  0  0  0
  3  4  2  0  0  0  0
  4  5  1  0  0  0  0
  4  9  1  0  0  0  0
  5 10  1  0  0  0  0
  6  5  2  0  0  0  0
  7  1  1  0  0  0  0
  8  2  1  0  0  0  0
 11  3  1  0  0  0  0
 11 12  2  0  0  0  0
 14  6  1  0  0  0  0
 14 15  1  0  0  0  0
 15 18  1  0  0  0  0
 16 15  1  0  0  0  0
 17 15  1  0  0  0  0
M  RAD  2  12   2  13   2
M  END
