Coordinates from ORCA-job p-CH3O-Ph-N2-X-Cl-B3LYPG-6-31G_dp-scan-d09-49-n400
 OpenBabel08281821033D

 18 18  0  0  0  0  0  0  0  0999 V2000
   -1.0379   -1.6202   -0.9137 C   0  0  0  0  0  0  0  0  0  0  0  0
    0.2266   -1.0612   -0.9616 C   0  0  0  0  0  0  0  0  0  0  0  0
    0.4028    0.2845   -0.5676 C   0  0  0  0  0  0  0  0  0  0  0  0
   -0.7071    1.0288   -0.1353 C   0  0  0  0  0  0  0  0  0  0  0  0
   -1.9761    0.4671   -0.0866 C   0  0  0  0  0  0  0  0  0  0  0  0
   -2.1472   -0.8699   -0.4795 C   0  0  0  0  0  0  0  0  0  0  0  0
   -1.2008   -2.6502   -1.2113 H   0  0  0  0  0  0  0  0  0  0  0  0
    1.0683   -1.6478   -1.2969 H   0  0  0  0  0  0  0  0  0  0  0  0
   -0.5488    2.0597    0.1622 H   0  0  0  0  0  0  0  0  0  0  0  0
   -2.8129    1.0651    0.2510 H   0  0  0  0  0  0  0  0  0  0  0  0
    1.6039    1.0088   -0.5542 N   0  0  0  0  0  0  0  0  0  0  0  0
    2.7650    0.8400   -0.8093 N   0  0  0  0  0  0  0  0  0  0  0  0
    3.3703   -0.8313   -1.4288 Cl  0  0  0  0  0  0  0  0  0  0  0  0
   -3.3302   -1.5254   -0.4783 O   0  0  0  0  0  0  0  0  0  0  0  0
   -4.5003   -0.8323   -0.0545 C   0  0  0  0  0  0  0  0  0  0  0  0
   -5.3186   -1.5472   -0.1467 H   0  0  0  0  0  0  0  0  0  0  0  0
   -4.7034    0.0362   -0.6920 H   0  0  0  0  0  0  0  0  0  0  0  0
   -4.4170   -0.5076    0.9892 H   0  0  0  0  0  0  0  0  0  0  0  0
  1  6  1  0  0  0  0
  2  1  2  0  0  0  0
  2  3  1  0  0  0  0
  3 11  1  0  0  0  0
  3  4  2  0  0  0  0
  4  5  1  0  0  0  0
  4  9  1  0  0  0  0
  5 10  1  0  0  0  0
  6 14  1  0  0  0  0
  6  5  2  0  0  0  0
  7  1  1  0  0  0  0
  8  2  1  0  0  0  0
 12 11  2  0  0  0  0
 13 12  1  0  0  0  0
 14 15  1  0  0  0  0
 15 18  1  0  0  0  0
 16 15  1  0  0  0  0
 17 15  1  0  0  0  0
M  END
