Coordinates from ORCA-job p-CH3O-Ph-N2-X-Cl-B3LYPG-6-31G_dp-scan-d09-49-n400
 OpenBabel08281821033D

 18 17  0  0  0  0  0  0  0  0999 V2000
   -0.8725   -1.4862   -0.9018 C   0  0  0  0  0  0  0  0  0  0  0  0
    0.3532   -0.8520   -0.9169 C   0  0  0  0  0  0  0  0  0  0  0  0
    0.3782    0.5005   -0.4919 C   0  0  0  0  0  0  0  0  0  0  0  0
   -0.7777    1.2035   -0.0637 C   0  0  0  0  0  0  0  0  0  0  0  0
   -1.9819    0.5373   -0.0626 C   0  0  0  0  0  0  0  0  0  0  0  0
   -2.0394   -0.8185   -0.4841 C   0  0  0  0  0  0  0  0  0  0  0  0
   -0.9343   -2.5216   -1.2200 H   0  0  0  0  0  0  0  0  0  0  0  0
    1.2654   -1.4087   -1.2543 H   0  0  0  0  0  0  0  0  0  0  0  0
   -0.7100    2.2382    0.2544 H   0  0  0  0  0  0  0  0  0  0  0  0
   -2.8736    1.0580    0.2614 H   0  0  0  0  0  0  0  0  0  0  0  0
    1.5578    1.1730   -0.4873 N   0  0  0  0  0  0  0  0  0  0  0  0
    2.5128    1.7672   -0.4680 N   0  0  0  0  0  0  0  0  0  0  0  0
    2.6250   -2.7443   -1.9162 Cl  0  0  0  0  0  0  0  0  0  0  0  0
   -3.1687   -1.5384   -0.5150 O   0  0  0  0  0  0  0  0  0  0  0  0
   -4.4067   -0.9486   -0.1099 C   0  0  0  0  0  0  0  0  0  0  0  0
   -5.1554   -1.7308   -0.2320 H   0  0  0  0  0  0  0  0  0  0  0  0
   -4.6644   -0.0944   -0.7454 H   0  0  0  0  0  0  0  0  0  0  0  0
   -4.3710   -0.6370    0.9395 H   0  0  0  0  0  0  0  0  0  0  0  0
  1  6  1  0  0  0  0
  2  1  2  0  0  0  0
  2  3  1  0  0  0  0
  3 11  1  0  0  0  0
  3  4  2  0  0  0  0
  4  5  1  0  0  0  0
  4  9  1  0  0  0  0
  5 10  1  0  0  0  0
  6  5  2  0  0  0  0
  7  1  1  0  0  0  0
  8  2  1  0  0  0  0
 11 12  1  0  0  0  0
 14  6  1  0  0  0  0
 14 15  1  0  0  0  0
 15 18  1  0  0  0  0
 16 15  1  0  0  0  0
 17 15  1  0  0  0  0
M  RAD  3  11   2  12   3  13   2
M  END
