Coordinates from ORCA-job p-CH3O-Ph-N2-X-Cl-B3LYPG-6-31G_dp-scan-d09-49-n400
 OpenBabel08281821033D

 18 17  0  0  0  0  0  0  0  0999 V2000
   -0.9901   -1.6185   -0.9200 C   0  0  0  0  0  0  0  0  0  0  0  0
    0.2709   -1.0558   -0.9647 C   0  0  0  0  0  0  0  0  0  0  0  0
    0.4049    0.2795   -0.5659 C   0  0  0  0  0  0  0  0  0  0  0  0
   -0.6878    1.0558   -0.1267 C   0  0  0  0  0  0  0  0  0  0  0  0
   -1.9421    0.4771   -0.0881 C   0  0  0  0  0  0  0  0  0  0  0  0
   -2.1020   -0.8699   -0.4872 C   0  0  0  0  0  0  0  0  0  0  0  0
   -1.1449   -2.6490   -1.2192 H   0  0  0  0  0  0  0  0  0  0  0  0
    1.1760   -1.5949   -1.2958 H   0  0  0  0  0  0  0  0  0  0  0  0
   -0.5401    2.0876    0.1746 H   0  0  0  0  0  0  0  0  0  0  0  0
   -2.7856    1.0664    0.2476 H   0  0  0  0  0  0  0  0  0  0  0  0
    1.6444    0.9324   -0.5795 N   0  0  0  0  0  0  0  0  0  0  0  0
    2.2729    1.8576   -0.3987 N   0  0  0  0  0  0  0  0  0  0  0  0
    3.2216   -1.8611   -1.7474 Cl  0  0  0  0  0  0  0  0  0  0  0  0
   -3.2780   -1.5181   -0.4868 O   0  0  0  0  0  0  0  0  0  0  0  0
   -4.4616   -0.8375   -0.0656 C   0  0  0  0  0  0  0  0  0  0  0  0
   -5.2680   -1.5637   -0.1653 H   0  0  0  0  0  0  0  0  0  0  0  0
   -4.6693    0.0279   -0.7046 H   0  0  0  0  0  0  0  0  0  0  0  0
   -4.3845   -0.5186    0.9795 H   0  0  0  0  0  0  0  0  0  0  0  0
  1  6  1  0  0  0  0
  2  1  2  0  0  0  0
  2  3  1  0  0  0  0
  3  4  2  0  0  0  0
  4  5  1  0  0  0  0
  4  9  1  0  0  0  0
  5 10  1  0  0  0  0
  6 14  1  0  0  0  0
  6  5  2  0  0  0  0
  7  1  1  0  0  0  0
  8  2  1  0  0  0  0
 11  3  1  0  0  0  0
 11 12  2  0  0  0  0
 14 15  1  0  0  0  0
 15 18  1  0  0  0  0
 16 15  1  0  0  0  0
 17 15  1  0  0  0  0
M  RAD  2  12   2  13   2
M  END
