Coordinates from ORCA-job p-CH3O-Ph-N2-X-Cl-B3LYPG-6-31G_dp-scan-d09-49-n400
 OpenBabel08281821033D

 18 17  0  0  0  0  0  0  0  0999 V2000
   -0.8767   -1.4894   -0.9019 C   0  0  0  0  0  0  0  0  0  0  0  0
    0.3499   -0.8568   -0.9177 C   0  0  0  0  0  0  0  0  0  0  0  0
    0.3770    0.4956   -0.4932 C   0  0  0  0  0  0  0  0  0  0  0  0
   -0.7772    1.2008   -0.0647 C   0  0  0  0  0  0  0  0  0  0  0  0
   -1.9825    0.5363   -0.0628 C   0  0  0  0  0  0  0  0  0  0  0  0
   -2.0423   -0.8196   -0.4838 C   0  0  0  0  0  0  0  0  0  0  0  0
   -0.9412   -2.5247   -1.2196 H   0  0  0  0  0  0  0  0  0  0  0  0
    1.2642   -1.4106   -1.2546 H   0  0  0  0  0  0  0  0  0  0  0  0
   -0.7077    2.2354    0.2530 H   0  0  0  0  0  0  0  0  0  0  0  0
   -2.8732    1.0584    0.2613 H   0  0  0  0  0  0  0  0  0  0  0  0
    1.5586    1.1651   -0.4900 N   0  0  0  0  0  0  0  0  0  0  0  0
    2.5152    1.7565   -0.4719 N   0  0  0  0  0  0  0  0  0  0  0  0
    2.6535   -2.7147   -1.9123 Cl  0  0  0  0  0  0  0  0  0  0  0  0
   -3.1728   -1.5376   -0.5140 O   0  0  0  0  0  0  0  0  0  0  0  0
   -4.4096   -0.9457   -0.1085 C   0  0  0  0  0  0  0  0  0  0  0  0
   -5.1596   -1.7266   -0.2301 H   0  0  0  0  0  0  0  0  0  0  0  0
   -4.6662   -0.0912   -0.7441 H   0  0  0  0  0  0  0  0  0  0  0  0
   -4.3730   -0.6339    0.9408 H   0  0  0  0  0  0  0  0  0  0  0  0
  1  6  1  0  0  0  0
  2  1  2  0  0  0  0
  2  3  1  0  0  0  0
  3 11  1  0  0  0  0
  3  4  2  0  0  0  0
  4  5  1  0  0  0  0
  4  9  1  0  0  0  0
  5 10  1  0  0  0  0
  6  5  2  0  0  0  0
  7  1  1  0  0  0  0
  8  2  1  0  0  0  0
 11 12  1  0  0  0  0
 14  6  1  0  0  0  0
 14 15  1  0  0  0  0
 15 18  1  0  0  0  0
 16 15  1  0  0  0  0
 17 15  1  0  0  0  0
M  RAD  3  11   2  12   3  13   2
M  END
