Coordinates from ORCA-job p-CH3O-Ph-N2-X-Cl-B3LYPG-6-31G_dp-scan-d09-49-n400
 OpenBabel08281821033D

 18 18  0  0  0  0  0  0  0  0999 V2000
   -1.0403   -1.6588   -0.8766 C   0  0  0  0  0  0  0  0  0  0  0  0
    0.2340   -1.1082   -0.9356 C   0  0  0  0  0  0  0  0  0  0  0  0
    0.4507    0.2528   -0.5838 C   0  0  0  0  0  0  0  0  0  0  0  0
   -0.6797    0.9942   -0.1783 C   0  0  0  0  0  0  0  0  0  0  0  0
   -1.9550    0.4496   -0.1189 C   0  0  0  0  0  0  0  0  0  0  0  0
   -2.1438   -0.8947   -0.4726 C   0  0  0  0  0  0  0  0  0  0  0  0
   -1.2053   -2.6969   -1.1462 H   0  0  0  0  0  0  0  0  0  0  0  0
    1.0430   -1.7471   -1.2547 H   0  0  0  0  0  0  0  0  0  0  0  0
   -0.5137    2.0317    0.0924 H   0  0  0  0  0  0  0  0  0  0  0  0
   -2.7851    1.0687    0.1991 H   0  0  0  0  0  0  0  0  0  0  0  0
    1.6197    1.0674   -0.5477 N   0  0  0  0  0  0  0  0  0  0  0  0
    2.7796    0.6067   -0.9014 N   0  0  0  0  0  0  0  0  0  0  0  0
    3.1983   -0.3836   -1.2819 Cl  0  0  0  0  0  0  0  0  0  0  0  0
   -3.3415   -1.5407   -0.4575 O   0  0  0  0  0  0  0  0  0  0  0  0
   -4.4965   -0.8142   -0.0621 C   0  0  0  0  0  0  0  0  0  0  0  0
   -5.3303   -1.5142   -0.1333 H   0  0  0  0  0  0  0  0  0  0  0  0
   -4.6835    0.0391   -0.7260 H   0  0  0  0  0  0  0  0  0  0  0  0
   -4.4139   -0.4547    0.9711 H   0  0  0  0  0  0  0  0  0  0  0  0
  1  6  1  0  0  0  0
  2  1  2  0  0  0  0
  2  3  1  0  0  0  0
  3 11  1  0  0  0  0
  3  4  2  0  0  0  0
  4  5  1  0  0  0  0
  4  9  1  0  0  0  0
  5 10  1  0  0  0  0
  6 14  1  0  0  0  0
  6  5  2  0  0  0  0
  7  1  1  0  0  0  0
  8  2  1  0  0  0  0
 12 11  2  0  0  0  0
 13 12  1  0  0  0  0
 14 15  1  0  0  0  0
 15 18  1  0  0  0  0
 16 15  1  0  0  0  0
 17 15  1  0  0  0  0
M  END
