Coordinates from ORCA-job p-CH3O-Ph-N2-X-Cl-B3LYPG-6-31G_dp-scan-d09-49-n400
 OpenBabel08281821033D

 18 18  0  0  0  0  0  0  0  0999 V2000
   -1.0005   -1.7004   -0.7272 C   0  0  0  0  0  0  0  0  0  0  0  0
    0.2764   -1.1623   -0.7256 C   0  0  0  0  0  0  0  0  0  0  0  0
    0.4673    0.1969   -0.4016 C   0  0  0  0  0  0  0  0  0  0  0  0
   -0.6469    0.9710   -0.0482 C   0  0  0  0  0  0  0  0  0  0  0  0
   -1.9352    0.4468   -0.0887 C   0  0  0  0  0  0  0  0  0  0  0  0
   -2.1178   -0.9006   -0.4311 C   0  0  0  0  0  0  0  0  0  0  0  0
   -1.1642   -2.7468   -0.9618 H   0  0  0  0  0  0  0  0  0  0  0  0
    1.1191   -1.8041   -0.9443 H   0  0  0  0  0  0  0  0  0  0  0  0
   -0.4825    2.0012    0.2499 H   0  0  0  0  0  0  0  0  0  0  0  0
   -2.7760    1.0795    0.1666 H   0  0  0  0  0  0  0  0  0  0  0  0
    1.7098    0.8670   -0.2552 N   0  0  0  0  0  0  0  0  0  0  0  0
    2.7334    0.7559   -0.9518 N   0  0  0  0  0  0  0  0  0  0  0  0
    2.7946   -0.1963   -2.2383 Cl  0  0  0  0  0  0  0  0  0  0  0  0
   -3.3210   -1.5277   -0.4884 O   0  0  0  0  0  0  0  0  0  0  0  0
   -4.4932   -0.7779   -0.1958 C   0  0  0  0  0  0  0  0  0  0  0  0
   -5.3283   -1.4683   -0.3193 H   0  0  0  0  0  0  0  0  0  0  0  0
   -4.6146    0.0649   -0.8874 H   0  0  0  0  0  0  0  0  0  0  0  0
   -4.4836   -0.4018    0.8344 H   0  0  0  0  0  0  0  0  0  0  0  0
  1  2  2  0  0  0  0
  1  6  1  0  0  0  0
  2  3  1  0  0  0  0
  3 11  1  0  0  0  0
  3  4  2  0  0  0  0
  4  9  1  0  0  0  0
  5  4  1  0  0  0  0
  5 10  1  0  0  0  0
  6  5  2  0  0  0  0
  7  1  1  0  0  0  0
  8  2  1  0  0  0  0
 12 11  2  0  0  0  0
 13 12  1  0  0  0  0
 14  6  1  0  0  0  0
 14 15  1  0  0  0  0
 15 18  1  0  0  0  0
 16 15  1  0  0  0  0
 17 15  1  0  0  0  0
M  END
