Coordinates from ORCA-job p-CH3O-Ph-N2-X-Cl-B3LYPG-6-31G_dp-scan-d09-49-n400
 OpenBabel08281821033D

 18 18  0  0  0  0  0  0  0  0999 V2000
   -1.0005   -1.7126   -0.7142 C   0  0  0  0  0  0  0  0  0  0  0  0
    0.2787   -1.1778   -0.7099 C   0  0  0  0  0  0  0  0  0  0  0  0
    0.4792    0.1824   -0.3948 C   0  0  0  0  0  0  0  0  0  0  0  0
   -0.6355    0.9610   -0.0539 C   0  0  0  0  0  0  0  0  0  0  0  0
   -1.9267    0.4415   -0.0951 C   0  0  0  0  0  0  0  0  0  0  0  0
   -2.1150   -0.9067   -0.4284 C   0  0  0  0  0  0  0  0  0  0  0  0
   -1.1669   -2.7600   -0.9429 H   0  0  0  0  0  0  0  0  0  0  0  0
    1.1178   -1.8298   -0.9184 H   0  0  0  0  0  0  0  0  0  0  0  0
   -0.4692    1.9926    0.2390 H   0  0  0  0  0  0  0  0  0  0  0  0
   -2.7654    1.0799    0.1534 H   0  0  0  0  0  0  0  0  0  0  0  0
    1.7326    0.8447   -0.2254 N   0  0  0  0  0  0  0  0  0  0  0  0
    2.7156    0.7209   -1.0107 N   0  0  0  0  0  0  0  0  0  0  0  0
    2.7227   -0.0638   -2.2197 Cl  0  0  0  0  0  0  0  0  0  0  0  0
   -3.3228   -1.5296   -0.4866 O   0  0  0  0  0  0  0  0  0  0  0  0
   -4.4904   -0.7708   -0.2038 C   0  0  0  0  0  0  0  0  0  0  0  0
   -5.3300   -1.4565   -0.3248 H   0  0  0  0  0  0  0  0  0  0  0  0
   -4.6050    0.0682   -0.9015 H   0  0  0  0  0  0  0  0  0  0  0  0
   -4.4827   -0.3865    0.8236 H   0  0  0  0  0  0  0  0  0  0  0  0
  1  2  2  0  0  0  0
  1  6  1  0  0  0  0
  2  3  1  0  0  0  0
  3 11  1  0  0  0  0
  3  4  2  0  0  0  0
  4  9  1  0  0  0  0
  5  4  1  0  0  0  0
  5 10  1  0  0  0  0
  6  5  2  0  0  0  0
  7  1  1  0  0  0  0
  8  2  1  0  0  0  0
 12 11  2  0  0  0  0
 13 12  1  0  0  0  0
 14  6  1  0  0  0  0
 14 15  1  0  0  0  0
 15 18  1  0  0  0  0
 16 15  1  0  0  0  0
 17 15  1  0  0  0  0
M  END
