Coordinates from ORCA-job p-CH3O-Ph-N2-X-Cl-B3LYPG-6-31G_dp-scan-d09-49-n400
 OpenBabel08281821033D

 18 17  0  0  0  0  0  0  0  0999 V2000
   -0.9607   -1.5835   -0.9150 C   0  0  0  0  0  0  0  0  0  0  0  0
    0.2919   -1.0035   -0.9527 C   0  0  0  0  0  0  0  0  0  0  0  0
    0.3973    0.3380   -0.5463 C   0  0  0  0  0  0  0  0  0  0  0  0
   -0.7132    1.0955   -0.1094 C   0  0  0  0  0  0  0  0  0  0  0  0
   -1.9550    0.4946   -0.0803 C   0  0  0  0  0  0  0  0  0  0  0  0
   -2.0878   -0.8556   -0.4857 C   0  0  0  0  0  0  0  0  0  0  0  0
   -1.0943   -2.6157   -1.2190 H   0  0  0  0  0  0  0  0  0  0  0  0
    1.2076   -1.5415   -1.2857 H   0  0  0  0  0  0  0  0  0  0  0  0
   -0.5861    2.1288    0.1964 H   0  0  0  0  0  0  0  0  0  0  0  0
   -2.8115    1.0663    0.2525 H   0  0  0  0  0  0  0  0  0  0  0  0
    1.6122    1.0060   -0.5506 N   0  0  0  0  0  0  0  0  0  0  0  0
    2.3337    1.8637   -0.4079 N   0  0  0  0  0  0  0  0  0  0  0  0
    3.1039   -2.1462   -1.8138 Cl  0  0  0  0  0  0  0  0  0  0  0  0
   -3.2512   -1.5220   -0.4934 O   0  0  0  0  0  0  0  0  0  0  0  0
   -4.4511   -0.8661   -0.0763 C   0  0  0  0  0  0  0  0  0  0  0  0
   -5.2416   -1.6085   -0.1829 H   0  0  0  0  0  0  0  0  0  0  0  0
   -4.6722   -0.0034   -0.7141 H   0  0  0  0  0  0  0  0  0  0  0  0
   -4.3853   -0.5498    0.9702 H   0  0  0  0  0  0  0  0  0  0  0  0
  1  6  1  0  0  0  0
  2  1  2  0  0  0  0
  2  3  1  0  0  0  0
  3  4  2  0  0  0  0
  4  5  1  0  0  0  0
  4  9  1  0  0  0  0
  5 10  1  0  0  0  0
  6  5  2  0  0  0  0
  7  1  1  0  0  0  0
  8  2  1  0  0  0  0
 11  3  1  0  0  0  0
 11 12  1  0  0  0  0
 14  6  1  0  0  0  0
 14 15  1  0  0  0  0
 15 18  1  0  0  0  0
 16 15  1  0  0  0  0
 17 15  1  0  0  0  0
M  RAD  3  11   2  12   3  13   2
M  END
