Coordinates from ORCA-job p-CH3O-Ph-N2-X-Cl-B3LYPG-6-31G_dp-scan-d09-49-n400
 OpenBabel08281821033D

 18 18  0  0  0  0  0  0  0  0999 V2000
   -1.0404   -1.6586   -0.8773 C   0  0  0  0  0  0  0  0  0  0  0  0
    0.2339   -1.1078   -0.9365 C   0  0  0  0  0  0  0  0  0  0  0  0
    0.4506    0.2531   -0.5846 C   0  0  0  0  0  0  0  0  0  0  0  0
   -0.6799    0.9945   -0.1789 C   0  0  0  0  0  0  0  0  0  0  0  0
   -1.9549    0.4496   -0.1190 C   0  0  0  0  0  0  0  0  0  0  0  0
   -2.1439   -0.8947   -0.4728 C   0  0  0  0  0  0  0  0  0  0  0  0
   -1.2054   -2.6966   -1.1471 H   0  0  0  0  0  0  0  0  0  0  0  0
    1.0430   -1.7464   -1.2561 H   0  0  0  0  0  0  0  0  0  0  0  0
   -0.5140    2.0321    0.0917 H   0  0  0  0  0  0  0  0  0  0  0  0
   -2.7851    1.0686    0.1992 H   0  0  0  0  0  0  0  0  0  0  0  0
    1.6197    1.0675   -0.5496 N   0  0  0  0  0  0  0  0  0  0  0  0
    2.7790    0.6009   -0.9020 N   0  0  0  0  0  0  0  0  0  0  0  0
    3.1992   -0.3798   -1.2761 Cl  0  0  0  0  0  0  0  0  0  0  0  0
   -3.3416   -1.5408   -0.4574 O   0  0  0  0  0  0  0  0  0  0  0  0
   -4.4964   -0.8143   -0.0614 C   0  0  0  0  0  0  0  0  0  0  0  0
   -5.3302   -1.5143   -0.1324 H   0  0  0  0  0  0  0  0  0  0  0  0
   -4.6837    0.0390   -0.7252 H   0  0  0  0  0  0  0  0  0  0  0  0
   -4.4134   -0.4549    0.9717 H   0  0  0  0  0  0  0  0  0  0  0  0
  1  6  1  0  0  0  0
  2  1  2  0  0  0  0
  2  3  1  0  0  0  0
  3 11  1  0  0  0  0
  3  4  2  0  0  0  0
  4  5  1  0  0  0  0
  4  9  1  0  0  0  0
  5 10  1  0  0  0  0
  6 14  1  0  0  0  0
  6  5  2  0  0  0  0
  7  1  1  0  0  0  0
  8  2  1  0  0  0  0
 12 11  2  0  0  0  0
 13 12  1  0  0  0  0
 14 15  1  0  0  0  0
 15 18  1  0  0  0  0
 16 15  1  0  0  0  0
 17 15  1  0  0  0  0
M  END
