Coordinates from ORCA-job p-CH3O-Ph-N2-X-Cl-B3LYPG-6-31G_dp-scan-d09-49-n400
 OpenBabel08281821033D

 18 18  0  0  0  0  0  0  0  0999 V2000
   -0.9997   -1.7049   -0.7209 C   0  0  0  0  0  0  0  0  0  0  0  0
    0.2780   -1.1681   -0.7174 C   0  0  0  0  0  0  0  0  0  0  0  0
    0.4715    0.1914   -0.3968 C   0  0  0  0  0  0  0  0  0  0  0  0
   -0.6425    0.9676   -0.0483 C   0  0  0  0  0  0  0  0  0  0  0  0
   -1.9319    0.4451   -0.0908 C   0  0  0  0  0  0  0  0  0  0  0  0
   -2.1162   -0.9026   -0.4299 C   0  0  0  0  0  0  0  0  0  0  0  0
   -1.1642   -2.7519   -0.9529 H   0  0  0  0  0  0  0  0  0  0  0  0
    1.1202   -1.8130   -0.9312 H   0  0  0  0  0  0  0  0  0  0  0  0
   -0.4777    1.9982    0.2483 H   0  0  0  0  0  0  0  0  0  0  0  0
   -2.7722    1.0800    0.1609 H   0  0  0  0  0  0  0  0  0  0  0  0
    1.7184    0.8561   -0.2418 N   0  0  0  0  0  0  0  0  0  0  0  0
    2.7282    0.7460   -0.9683 N   0  0  0  0  0  0  0  0  0  0  0  0
    2.7596   -0.1498   -2.2471 Cl  0  0  0  0  0  0  0  0  0  0  0  0
   -3.3209   -1.5281   -0.4885 O   0  0  0  0  0  0  0  0  0  0  0  0
   -4.4918   -0.7751   -0.2003 C   0  0  0  0  0  0  0  0  0  0  0  0
   -5.3284   -1.4639   -0.3234 H   0  0  0  0  0  0  0  0  0  0  0  0
   -4.6103    0.0663   -0.8943 H   0  0  0  0  0  0  0  0  0  0  0  0
   -4.4836   -0.3959    0.8289 H   0  0  0  0  0  0  0  0  0  0  0  0
  1  2  2  0  0  0  0
  1  6  1  0  0  0  0
  2  3  1  0  0  0  0
  3 11  1  0  0  0  0
  3  4  2  0  0  0  0
  4  9  1  0  0  0  0
  5  4  1  0  0  0  0
  5 10  1  0  0  0  0
  6  5  2  0  0  0  0
  7  1  1  0  0  0  0
  8  2  1  0  0  0  0
 12 11  2  0  0  0  0
 13 12  1  0  0  0  0
 14  6  1  0  0  0  0
 14 15  1  0  0  0  0
 15 18  1  0  0  0  0
 16 15  1  0  0  0  0
 17 15  1  0  0  0  0
M  END
