Coordinates from ORCA-job p-CH3O-Ph-N2-X-Cl-B3LYPG-6-31G_dp-scan-d09-49-n400
 OpenBabel08281821033D

 18 17  0  0  0  0  0  0  0  0999 V2000
   -1.0262   -1.6009   -0.9026 C   0  0  0  0  0  0  0  0  0  0  0  0
    0.2314   -1.0296   -0.9440 C   0  0  0  0  0  0  0  0  0  0  0  0
    0.3723    0.3156   -0.5458 C   0  0  0  0  0  0  0  0  0  0  0  0
   -0.7321    1.0631   -0.1157 C   0  0  0  0  0  0  0  0  0  0  0  0
   -1.9926    0.4829   -0.0775 C   0  0  0  0  0  0  0  0  0  0  0  0
   -2.1445   -0.8579   -0.4735 C   0  0  0  0  0  0  0  0  0  0  0  0
   -1.1787   -2.6323   -1.2006 H   0  0  0  0  0  0  0  0  0  0  0  0
    1.1038   -1.5827   -1.2721 H   0  0  0  0  0  0  0  0  0  0  0  0
   -0.5878    2.0951    0.1847 H   0  0  0  0  0  0  0  0  0  0  0  0
   -2.8397    1.0685    0.2552 H   0  0  0  0  0  0  0  0  0  0  0  0
    1.6009    0.9801   -0.5533 N   0  0  0  0  0  0  0  0  0  0  0  0
    2.7391    0.8855   -0.7909 N   0  0  0  0  0  0  0  0  0  0  0  0
    3.4628   -1.0514   -1.5517 Cl  0  0  0  0  0  0  0  0  0  0  0  0
   -3.3189   -1.5228   -0.4789 O   0  0  0  0  0  0  0  0  0  0  0  0
   -4.5023   -0.8448   -0.0633 C   0  0  0  0  0  0  0  0  0  0  0  0
   -5.3092   -1.5712   -0.1620 H   0  0  0  0  0  0  0  0  0  0  0  0
   -4.7115    0.0203   -0.7031 H   0  0  0  0  0  0  0  0  0  0  0  0
   -4.4301   -0.5203    0.9811 H   0  0  0  0  0  0  0  0  0  0  0  0
  1  6  1  0  0  0  0
  2  1  2  0  0  0  0
  2  3  1  0  0  0  0
  3  4  2  0  0  0  0
  4  5  1  0  0  0  0
  4  9  1  0  0  0  0
  5 10  1  0  0  0  0
  6  5  2  0  0  0  0
  7  1  1  0  0  0  0
  8  2  1  0  0  0  0
 11  3  1  0  0  0  0
 12 11  2  0  0  0  0
 14  6  1  0  0  0  0
 14 15  1  0  0  0  0
 15 18  1  0  0  0  0
 16 15  1  0  0  0  0
 17 15  1  0  0  0  0
M  RAD  2  12   2  13   2
M  END
