Coordinates from ORCA-job p-CH3O-Ph-N2-X-Cl-B3LYPG-6-31G_dp-scan-d09-49-n400
 OpenBabel08281821033D

 18 17  0  0  0  0  0  0  0  0999 V2000
   -0.8628   -1.4786   -0.9016 C   0  0  0  0  0  0  0  0  0  0  0  0
    0.3598   -0.8387   -0.9144 C   0  0  0  0  0  0  0  0  0  0  0  0
    0.3791    0.5135   -0.4881 C   0  0  0  0  0  0  0  0  0  0  0  0
   -0.7804    1.2114   -0.0606 C   0  0  0  0  0  0  0  0  0  0  0  0
   -1.9815    0.5398   -0.0618 C   0  0  0  0  0  0  0  0  0  0  0  0
   -2.0329   -0.8161   -0.4846 C   0  0  0  0  0  0  0  0  0  0  0  0
   -0.9166   -2.5140   -1.2214 H   0  0  0  0  0  0  0  0  0  0  0  0
    1.2695   -1.3978   -1.2521 H   0  0  0  0  0  0  0  0  0  0  0  0
   -0.7176    2.2460    0.2587 H   0  0  0  0  0  0  0  0  0  0  0  0
   -2.8759    1.0562    0.2616 H   0  0  0  0  0  0  0  0  0  0  0  0
    1.5567    1.1883   -0.4825 N   0  0  0  0  0  0  0  0  0  0  0  0
    2.5147    1.7780   -0.4650 N   0  0  0  0  0  0  0  0  0  0  0  0
    2.5566   -2.8055   -1.9220 Cl  0  0  0  0  0  0  0  0  0  0  0  0
   -3.1592   -1.5404   -0.5176 O   0  0  0  0  0  0  0  0  0  0  0  0
   -4.4000   -0.9560   -0.1134 C   0  0  0  0  0  0  0  0  0  0  0  0
   -5.1453   -1.7414   -0.2366 H   0  0  0  0  0  0  0  0  0  0  0  0
   -4.6608   -0.1026   -0.7487 H   0  0  0  0  0  0  0  0  0  0  0  0
   -4.3668   -0.6449    0.9362 H   0  0  0  0  0  0  0  0  0  0  0  0
  1  6  1  0  0  0  0
  2  1  2  0  0  0  0
  2  3  1  0  0  0  0
  3 11  1  0  0  0  0
  3  4  2  0  0  0  0
  4  9  1  0  0  0  0
  5  4  1  0  0  0  0
  5 10  1  0  0  0  0
  6  5  2  0  0  0  0
  7  1  1  0  0  0  0
  8  2  1  0  0  0  0
 11 12  1  0  0  0  0
 14  6  1  0  0  0  0
 14 15  1  0  0  0  0
 15 18  1  0  0  0  0
 16 15  1  0  0  0  0
 17 15  1  0  0  0  0
M  RAD  3  11   2  12   3  13   2
M  END
