Coordinates from ORCA-job p-CH3O-Ph-N2-X-Cl-B3LYPG-6-31G_dp-scan-d09-49-n400
 OpenBabel08281821033D

 18 17  0  0  0  0  0  0  0  0999 V2000
   -0.9609   -1.5365   -0.9001 C   0  0  0  0  0  0  0  0  0  0  0  0
    0.2802   -0.9334   -0.9286 C   0  0  0  0  0  0  0  0  0  0  0  0
    0.3420    0.4168   -0.5127 C   0  0  0  0  0  0  0  0  0  0  0  0
   -0.7778    1.1511   -0.0823 C   0  0  0  0  0  0  0  0  0  0  0  0
   -2.0075    0.5215   -0.0642 C   0  0  0  0  0  0  0  0  0  0  0  0
   -2.1051   -0.8293   -0.4749 C   0  0  0  0  0  0  0  0  0  0  0  0
   -1.0767   -2.5703   -1.2069 H   0  0  0  0  0  0  0  0  0  0  0  0
    1.2095   -1.4457   -1.2548 H   0  0  0  0  0  0  0  0  0  0  0  0
   -0.6737    2.1853    0.2273 H   0  0  0  0  0  0  0  0  0  0  0  0
   -2.8810    1.0692    0.2637 H   0  0  0  0  0  0  0  0  0  0  0  0
    1.5729    1.0254   -0.5381 N   0  0  0  0  0  0  0  0  0  0  0  0
    2.6685    1.2604   -0.6582 N   0  0  0  0  0  0  0  0  0  0  0  0
    3.2380   -1.9218   -1.7629 Cl  0  0  0  0  0  0  0  0  0  0  0  0
   -3.2531   -1.5231   -0.4932 O   0  0  0  0  0  0  0  0  0  0  0  0
   -4.4703   -0.8966   -0.0815 C   0  0  0  0  0  0  0  0  0  0  0  0
   -5.2424   -1.6572   -0.1939 H   0  0  0  0  0  0  0  0  0  0  0  0
   -4.7083   -0.0379   -0.7187 H   0  0  0  0  0  0  0  0  0  0  0  0
   -4.4177   -0.5807    0.9659 H   0  0  0  0  0  0  0  0  0  0  0  0
  1  6  1  0  0  0  0
  2  1  2  0  0  0  0
  2  3  1  0  0  0  0
  3  4  2  0  0  0  0
  4  5  1  0  0  0  0
  4  9  1  0  0  0  0
  5 10  1  0  0  0  0
  6  5  2  0  0  0  0
  7  1  1  0  0  0  0
  8  2  1  0  0  0  0
 11  3  1  0  0  0  0
 12 11  1  0  0  0  0
 14  6  1  0  0  0  0
 14 15  1  0  0  0  0
 15 18  1  0  0  0  0
 16 15  1  0  0  0  0
 17 15  1  0  0  0  0
M  RAD  3  11   2  12   3  13   2
M  END
