Coordinates from ORCA-job p-CH3O-Ph-N2-X-Cl-B3LYPG-6-31G_dp-scan-d09-49-n400
 OpenBabel08281821033D

 18 18  0  0  0  0  0  0  0  0999 V2000
   -1.0257   -1.6474   -0.8435 C   0  0  0  0  0  0  0  0  0  0  0  0
    0.2429   -1.0955   -0.8759 C   0  0  0  0  0  0  0  0  0  0  0  0
    0.4228    0.2572   -0.5063 C   0  0  0  0  0  0  0  0  0  0  0  0
   -0.6918    1.0086   -0.0979 C   0  0  0  0  0  0  0  0  0  0  0  0
   -1.9680    0.4608   -0.0818 C   0  0  0  0  0  0  0  0  0  0  0  0
   -2.1408   -0.8801   -0.4585 C   0  0  0  0  0  0  0  0  0  0  0  0
   -1.1872   -2.6840   -1.1186 H   0  0  0  0  0  0  0  0  0  0  0  0
    1.0847   -1.7017   -1.1734 H   0  0  0  0  0  0  0  0  0  0  0  0
   -0.5307    2.0384    0.2018 H   0  0  0  0  0  0  0  0  0  0  0  0
   -2.8075    1.0703    0.2277 H   0  0  0  0  0  0  0  0  0  0  0  0
    1.6271    0.9793   -0.4508 N   0  0  0  0  0  0  0  0  0  0  0  0
    2.7645    0.8285   -0.8391 N   0  0  0  0  0  0  0  0  0  0  0  0
    3.2389   -0.6522   -1.7701 Cl  0  0  0  0  0  0  0  0  0  0  0  0
   -3.3300   -1.5262   -0.4792 O   0  0  0  0  0  0  0  0  0  0  0  0
   -4.5050   -0.8134   -0.1059 C   0  0  0  0  0  0  0  0  0  0  0  0
   -5.3282   -1.5204   -0.2131 H   0  0  0  0  0  0  0  0  0  0  0  0
   -4.6769    0.0467   -0.7638 H   0  0  0  0  0  0  0  0  0  0  0  0
   -4.4526   -0.4718    0.9345 H   0  0  0  0  0  0  0  0  0  0  0  0
  1  6  1  0  0  0  0
  2  1  2  0  0  0  0
  2  3  1  0  0  0  0
  3 11  1  0  0  0  0
  3  4  2  0  0  0  0
  4  5  1  0  0  0  0
  4  9  1  0  0  0  0
  5 10  1  0  0  0  0
  6  5  2  0  0  0  0
  7  1  1  0  0  0  0
  8  2  1  0  0  0  0
 12 11  2  0  0  0  0
 13 12  1  0  0  0  0
 14  6  1  0  0  0  0
 14 15  1  0  0  0  0
 15 18  1  0  0  0  0
 16 15  1  0  0  0  0
 17 15  1  0  0  0  0
M  END
