Coordinates from ORCA-job p-CH3O-Ph-N2-X-Cl-B3LYPG-6-31G_dp-scan-d09-49-n400
 OpenBabel08281821033D

 18 17  0  0  0  0  0  0  0  0999 V2000
   -1.0303   -1.6745   -0.9262 C   0  0  0  0  0  0  0  0  0  0  0  0
    0.2450   -1.1419   -0.9831 C   0  0  0  0  0  0  0  0  0  0  0  0
    0.4250    0.1875   -0.5969 C   0  0  0  0  0  0  0  0  0  0  0  0
   -0.6422    0.9895   -0.1561 C   0  0  0  0  0  0  0  0  0  0  0  0
   -1.9153    0.4466   -0.1031 C   0  0  0  0  0  0  0  0  0  0  0  0
   -2.1179   -0.8944   -0.4904 C   0  0  0  0  0  0  0  0  0  0  0  0
   -1.2155   -2.7021   -1.2173 H   0  0  0  0  0  0  0  0  0  0  0  0
    1.1211   -1.7017   -1.3142 H   0  0  0  0  0  0  0  0  0  0  0  0
   -0.4655    2.0187    0.1374 H   0  0  0  0  0  0  0  0  0  0  0  0
   -2.7378    1.0633    0.2355 H   0  0  0  0  0  0  0  0  0  0  0  0
    1.7012    0.8181   -0.6242 N   0  0  0  0  0  0  0  0  0  0  0  0
    2.1930    1.8182   -0.3922 N   0  0  0  0  0  0  0  0  0  0  0  0
    3.2926   -1.3368   -1.6114 Cl  0  0  0  0  0  0  0  0  0  0  0  0
   -3.3137   -1.5131   -0.4772 O   0  0  0  0  0  0  0  0  0  0  0  0
   -4.4702   -0.7933   -0.0518 C   0  0  0  0  0  0  0  0  0  0  0  0
   -5.3012   -1.4931   -0.1394 H   0  0  0  0  0  0  0  0  0  0  0  0
   -4.6563    0.0749   -0.6940 H   0  0  0  0  0  0  0  0  0  0  0  0
   -4.3755   -0.4688    0.9905 H   0  0  0  0  0  0  0  0  0  0  0  0
  1  6  1  0  0  0  0
  2  1  2  0  0  0  0
  2  3  1  0  0  0  0
  3  4  2  0  0  0  0
  4  5  1  0  0  0  0
  4  9  1  0  0  0  0
  5 10  1  0  0  0  0
  6 14  1  0  0  0  0
  6  5  2  0  0  0  0
  7  1  1  0  0  0  0
  8  2  1  0  0  0  0
 11  3  1  0  0  0  0
 11 12  2  0  0  0  0
 14 15  1  0  0  0  0
 15 18  1  0  0  0  0
 16 15  1  0  0  0  0
 17 15  1  0  0  0  0
M  RAD  2  12   2  13   2
M  END
