Coordinates from ORCA-job p-CH3O-Ph-N2-X-Cl-B3LYPG-6-31G_dp-scan-d09-49-n400
 OpenBabel08281821033D

 18 18  0  0  0  0  0  0  0  0999 V2000
   -1.0383   -1.6525   -0.8797 C   0  0  0  0  0  0  0  0  0  0  0  0
    0.2354   -1.0968   -0.9385 C   0  0  0  0  0  0  0  0  0  0  0  0
    0.4463    0.2633   -0.5850 C   0  0  0  0  0  0  0  0  0  0  0  0
   -0.6834    1.0040   -0.1786 C   0  0  0  0  0  0  0  0  0  0  0  0
   -1.9559    0.4520   -0.1192 C   0  0  0  0  0  0  0  0  0  0  0  0
   -2.1424   -0.8929   -0.4737 C   0  0  0  0  0  0  0  0  0  0  0  0
   -1.1997   -2.6907   -1.1510 H   0  0  0  0  0  0  0  0  0  0  0  0
    1.0548   -1.7247   -1.2594 H   0  0  0  0  0  0  0  0  0  0  0  0
   -0.5235    2.0427    0.0925 H   0  0  0  0  0  0  0  0  0  0  0  0
   -2.7882    1.0680    0.1997 H   0  0  0  0  0  0  0  0  0  0  0  0
    1.6290    1.0503   -0.5634 N   0  0  0  0  0  0  0  0  0  0  0  0
    2.7455    0.4620   -0.9310 N   0  0  0  0  0  0  0  0  0  0  0  0
    3.2182   -0.2922   -1.2336 Cl  0  0  0  0  0  0  0  0  0  0  0  0
   -3.3418   -1.5426   -0.4572 O   0  0  0  0  0  0  0  0  0  0  0  0
   -4.4946   -0.8169   -0.0594 C   0  0  0  0  0  0  0  0  0  0  0  0
   -5.3293   -1.5164   -0.1282 H   0  0  0  0  0  0  0  0  0  0  0  0
   -4.6846    0.0370   -0.7222 H   0  0  0  0  0  0  0  0  0  0  0  0
   -4.4108   -0.4565    0.9737 H   0  0  0  0  0  0  0  0  0  0  0  0
  1  6  1  0  0  0  0
  2  1  2  0  0  0  0
  2  3  1  0  0  0  0
  3 11  1  0  0  0  0
  3  4  2  0  0  0  0
  4  5  1  0  0  0  0
  4  9  1  0  0  0  0
  5 10  1  0  0  0  0
  6 14  1  0  0  0  0
  6  5  2  0  0  0  0
  7  1  1  0  0  0  0
  8  2  1  0  0  0  0
 12 11  2  0  0  0  0
 13 12  1  0  0  0  0
 14 15  1  0  0  0  0
 15 18  1  0  0  0  0
 16 15  1  0  0  0  0
 17 15  1  0  0  0  0
M  END
