Coordinates from ORCA-job p-CH3O-Ph-N2-X-Cl-B3LYPG-6-31G_dp-scan-d09-49-n400
 OpenBabel08281821033D

 18 17  0  0  0  0  0  0  0  0999 V2000
   -0.9599   -1.5369   -0.9005 C   0  0  0  0  0  0  0  0  0  0  0  0
    0.2814   -0.9342   -0.9292 C   0  0  0  0  0  0  0  0  0  0  0  0
    0.3430    0.4164   -0.5131 C   0  0  0  0  0  0  0  0  0  0  0  0
   -0.7771    1.1512   -0.0824 C   0  0  0  0  0  0  0  0  0  0  0  0
   -2.0064    0.5214   -0.0644 C   0  0  0  0  0  0  0  0  0  0  0  0
   -2.1040   -0.8297   -0.4753 C   0  0  0  0  0  0  0  0  0  0  0  0
   -1.0756   -2.5706   -1.2073 H   0  0  0  0  0  0  0  0  0  0  0  0
    1.2117   -1.4467   -1.2557 H   0  0  0  0  0  0  0  0  0  0  0  0
   -0.6732    2.1854    0.2272 H   0  0  0  0  0  0  0  0  0  0  0  0
   -2.8799    1.0691    0.2635 H   0  0  0  0  0  0  0  0  0  0  0  0
    1.5727    1.0246   -0.5384 N   0  0  0  0  0  0  0  0  0  0  0  0
    2.6642    1.2781   -0.6518 N   0  0  0  0  0  0  0  0  0  0  0  0
    3.2263   -1.9349   -1.7645 Cl  0  0  0  0  0  0  0  0  0  0  0  0
   -3.2520   -1.5231   -0.4934 O   0  0  0  0  0  0  0  0  0  0  0  0
   -4.4693   -0.8967   -0.0816 C   0  0  0  0  0  0  0  0  0  0  0  0
   -5.2413   -1.6574   -0.1940 H   0  0  0  0  0  0  0  0  0  0  0  0
   -4.7074   -0.0380   -0.7188 H   0  0  0  0  0  0  0  0  0  0  0  0
   -4.4166   -0.5809    0.9658 H   0  0  0  0  0  0  0  0  0  0  0  0
  1  6  1  0  0  0  0
  2  1  2  0  0  0  0
  2  3  1  0  0  0  0
  3  4  2  0  0  0  0
  4  5  1  0  0  0  0
  4  9  1  0  0  0  0
  5 10  1  0  0  0  0
  6  5  2  0  0  0  0
  7  1  1  0  0  0  0
  8  2  1  0  0  0  0
 11  3  1  0  0  0  0
 12 11  1  0  0  0  0
 14  6  1  0  0  0  0
 14 15  1  0  0  0  0
 15 18  1  0  0  0  0
 16 15  1  0  0  0  0
 17 15  1  0  0  0  0
M  RAD  3  11   2  12   3  13   2
M  END
