Coordinates from ORCA-job p-CH3O-Ph-N2-X-Cl-B3LYPG-6-31G_dp-scan-d09-49-n400
 OpenBabel08281821033D

 18 17  0  0  0  0  0  0  0  0999 V2000
   -1.0195   -1.6584   -0.9246 C   0  0  0  0  0  0  0  0  0  0  0  0
    0.2516   -1.1168   -0.9780 C   0  0  0  0  0  0  0  0  0  0  0  0
    0.4179    0.2139   -0.5880 C   0  0  0  0  0  0  0  0  0  0  0  0
   -0.6560    1.0091   -0.1472 C   0  0  0  0  0  0  0  0  0  0  0  0
   -1.9237    0.4556   -0.0983 C   0  0  0  0  0  0  0  0  0  0  0  0
   -2.1141   -0.8872   -0.4893 C   0  0  0  0  0  0  0  0  0  0  0  0
   -1.1964   -2.6868   -1.2182 H   0  0  0  0  0  0  0  0  0  0  0  0
    1.1378   -1.6680   -1.3090 H   0  0  0  0  0  0  0  0  0  0  0  0
   -0.4873    2.0390    0.1487 H   0  0  0  0  0  0  0  0  0  0  0  0
   -2.7524    1.0643    0.2399 H   0  0  0  0  0  0  0  0  0  0  0  0
    1.6840    0.8506   -0.6118 N   0  0  0  0  0  0  0  0  0  0  0  0
    2.2137    1.8326   -0.3941 N   0  0  0  0  0  0  0  0  0  0  0  0
    3.2873   -1.4958   -1.6533 Cl  0  0  0  0  0  0  0  0  0  0  0  0
   -3.3043   -1.5144   -0.4797 O   0  0  0  0  0  0  0  0  0  0  0  0
   -4.4688   -0.8058   -0.0554 C   0  0  0  0  0  0  0  0  0  0  0  0
   -5.2928   -1.5133   -0.1469 H   0  0  0  0  0  0  0  0  0  0  0  0
   -4.6609    0.0618   -0.6964 H   0  0  0  0  0  0  0  0  0  0  0  0
   -4.3793   -0.4833    0.9878 H   0  0  0  0  0  0  0  0  0  0  0  0
  1  6  1  0  0  0  0
  2  1  2  0  0  0  0
  2  3  1  0  0  0  0
  3  4  2  0  0  0  0
  4  5  1  0  0  0  0
  4  9  1  0  0  0  0
  5 10  1  0  0  0  0
  6 14  1  0  0  0  0
  6  5  2  0  0  0  0
  7  1  1  0  0  0  0
  8  2  1  0  0  0  0
 11  3  1  0  0  0  0
 11 12  2  0  0  0  0
 14 15  1  0  0  0  0
 15 18  1  0  0  0  0
 16 15  1  0  0  0  0
 17 15  1  0  0  0  0
M  RAD  2  12   2  13   2
M  END
