Coordinates from ORCA-job p-CH3O-Ph-N2-X-Cl-B3LYPG-6-31G_dp-scan-d09-49-n400
 OpenBabel08281821033D

 18 18  0  0  0  0  0  0  0  0999 V2000
   -1.0141   -1.6679   -0.7906 C   0  0  0  0  0  0  0  0  0  0  0  0
    0.2577   -1.1211   -0.8083 C   0  0  0  0  0  0  0  0  0  0  0  0
    0.4388    0.2352   -0.4579 C   0  0  0  0  0  0  0  0  0  0  0  0
   -0.6767    0.9947   -0.0709 C   0  0  0  0  0  0  0  0  0  0  0  0
   -1.9579    0.4566   -0.0820 C   0  0  0  0  0  0  0  0  0  0  0  0
   -2.1323   -0.8873   -0.4454 C   0  0  0  0  0  0  0  0  0  0  0  0
   -1.1746   -2.7093   -1.0478 H   0  0  0  0  0  0  0  0  0  0  0  0
    1.1009   -1.7417   -1.0719 H   0  0  0  0  0  0  0  0  0  0  0  0
   -0.5145    2.0239    0.2307 H   0  0  0  0  0  0  0  0  0  0  0  0
   -2.7992    1.0749    0.2041 H   0  0  0  0  0  0  0  0  0  0  0  0
    1.6554    0.9398   -0.3661 N   0  0  0  0  0  0  0  0  0  0  0  0
    2.7573    0.8072   -0.8700 N   0  0  0  0  0  0  0  0  0  0  0  0
    3.0789   -0.4912   -2.0171 Cl  0  0  0  0  0  0  0  0  0  0  0  0
   -3.3264   -1.5263   -0.4837 O   0  0  0  0  0  0  0  0  0  0  0  0
   -4.5028   -0.7993   -0.1463 C   0  0  0  0  0  0  0  0  0  0  0  0
   -5.3298   -1.5004   -0.2629 H   0  0  0  0  0  0  0  0  0  0  0  0
   -4.6528    0.0541   -0.8184 H   0  0  0  0  0  0  0  0  0  0  0  0
   -4.4713   -0.4445    0.8907 H   0  0  0  0  0  0  0  0  0  0  0  0
  1  6  1  0  0  0  0
  2  1  2  0  0  0  0
  2  3  1  0  0  0  0
  3 11  1  0  0  0  0
  3  4  2  0  0  0  0
  4  9  1  0  0  0  0
  5  4  1  0  0  0  0
  5 10  1  0  0  0  0
  6  5  2  0  0  0  0
  7  1  1  0  0  0  0
  8  2  1  0  0  0  0
 12 11  2  0  0  0  0
 13 12  1  0  0  0  0
 14  6  1  0  0  0  0
 14 15  1  0  0  0  0
 15 18  1  0  0  0  0
 16 15  1  0  0  0  0
 17 15  1  0  0  0  0
M  END
