Coordinates from ORCA-job p-CH3O-Ph-N2-X-Cl-B3LYPG-6-31G_dp-scan-d09-49-n400
 OpenBabel08281821033D

 18 17  0  0  0  0  0  0  0  0999 V2000
   -1.0064   -1.6399   -0.9231 C   0  0  0  0  0  0  0  0  0  0  0  0
    0.2599   -1.0883   -0.9721 C   0  0  0  0  0  0  0  0  0  0  0  0
    0.4109    0.2443   -0.5777 C   0  0  0  0  0  0  0  0  0  0  0  0
   -0.6715    1.0312   -0.1379 C   0  0  0  0  0  0  0  0  0  0  0  0
   -1.9330    0.4660   -0.0941 C   0  0  0  0  0  0  0  0  0  0  0  0
   -2.1091   -0.8790   -0.4889 C   0  0  0  0  0  0  0  0  0  0  0  0
   -1.1732   -2.6692   -1.2193 H   0  0  0  0  0  0  0  0  0  0  0  0
    1.1565   -1.6318   -1.3021 H   0  0  0  0  0  0  0  0  0  0  0  0
   -0.5123    2.0621    0.1605 H   0  0  0  0  0  0  0  0  0  0  0  0
   -2.7687    1.0657    0.2426 H   0  0  0  0  0  0  0  0  0  0  0  0
    1.6651    0.8880   -0.5961 N   0  0  0  0  0  0  0  0  0  0  0  0
    2.2406    1.8452   -0.3945 N   0  0  0  0  0  0  0  0  0  0  0  0
    3.2658   -1.6703   -1.6995 Cl  0  0  0  0  0  0  0  0  0  0  0  0
   -3.2927   -1.5159   -0.4833 O   0  0  0  0  0  0  0  0  0  0  0  0
   -4.4660   -0.8205   -0.0595 C   0  0  0  0  0  0  0  0  0  0  0  0
   -5.2818   -1.5369   -0.1540 H   0  0  0  0  0  0  0  0  0  0  0  0
   -4.6661    0.0460   -0.6994 H   0  0  0  0  0  0  0  0  0  0  0  0
   -4.3814   -0.4995    0.9845 H   0  0  0  0  0  0  0  0  0  0  0  0
  1  6  1  0  0  0  0
  2  1  2  0  0  0  0
  2  3  1  0  0  0  0
  3  4  2  0  0  0  0
  4  5  1  0  0  0  0
  4  9  1  0  0  0  0
  5 10  1  0  0  0  0
  6 14  1  0  0  0  0
  6  5  2  0  0  0  0
  7  1  1  0  0  0  0
  8  2  1  0  0  0  0
 11  3  1  0  0  0  0
 11 12  2  0  0  0  0
 14 15  1  0  0  0  0
 15 18  1  0  0  0  0
 16 15  1  0  0  0  0
 17 15  1  0  0  0  0
M  RAD  2  12   2  13   2
M  END
