Coordinates from ORCA-job p-CH3O-Ph-N2-X-Cl-B3LYPG-6-31G_dp-scan-d09-49-n400
 OpenBabel08281821033D

 18 17  0  0  0  0  0  0  0  0999 V2000
   -1.0180   -1.6565   -0.9242 C   0  0  0  0  0  0  0  0  0  0  0  0
    0.2525   -1.1137   -0.9772 C   0  0  0  0  0  0  0  0  0  0  0  0
    0.4170    0.2173   -0.5868 C   0  0  0  0  0  0  0  0  0  0  0  0
   -0.6578    1.0116   -0.1461 C   0  0  0  0  0  0  0  0  0  0  0  0
   -1.9248    0.4568   -0.0978 C   0  0  0  0  0  0  0  0  0  0  0  0
   -2.1135   -0.8864   -0.4891 C   0  0  0  0  0  0  0  0  0  0  0  0
   -1.1938   -2.6849   -1.2181 H   0  0  0  0  0  0  0  0  0  0  0  0
    1.1401   -1.6637   -1.3081 H   0  0  0  0  0  0  0  0  0  0  0  0
   -0.4901    2.0417    0.1501 H   0  0  0  0  0  0  0  0  0  0  0  0
   -2.7543    1.0645    0.2402 H   0  0  0  0  0  0  0  0  0  0  0  0
    1.6819    0.8548   -0.6100 N   0  0  0  0  0  0  0  0  0  0  0  0
    2.2165    1.8343   -0.3940 N   0  0  0  0  0  0  0  0  0  0  0  0
    3.2851   -1.5158   -1.6593 Cl  0  0  0  0  0  0  0  0  0  0  0  0
   -3.3029   -1.5146   -0.4800 O   0  0  0  0  0  0  0  0  0  0  0  0
   -4.4685   -0.8074   -0.0560 C   0  0  0  0  0  0  0  0  0  0  0  0
   -5.2916   -1.5159   -0.1479 H   0  0  0  0  0  0  0  0  0  0  0  0
   -4.6614    0.0601   -0.6970 H   0  0  0  0  0  0  0  0  0  0  0  0
   -4.3797   -0.4850    0.9874 H   0  0  0  0  0  0  0  0  0  0  0  0
  1  6  1  0  0  0  0
  2  1  2  0  0  0  0
  2  3  1  0  0  0  0
  3  4  2  0  0  0  0
  4  5  1  0  0  0  0
  4  9  1  0  0  0  0
  5 10  1  0  0  0  0
  6 14  1  0  0  0  0
  6  5  2  0  0  0  0
  7  1  1  0  0  0  0
  8  2  1  0  0  0  0
 11  3  1  0  0  0  0
 11 12  2  0  0  0  0
 14 15  1  0  0  0  0
 15 18  1  0  0  0  0
 16 15  1  0  0  0  0
 17 15  1  0  0  0  0
M  RAD  2  12   2  13   2
M  END
