Coordinates from ORCA-job p-CH3O-Ph-N2-X-Cl-B3LYPG-6-31G_dp-scan-d09-49-n400
 OpenBabel08281821033D

 18 17  0  0  0  0  0  0  0  0999 V2000
   -0.9733   -1.5414   -0.8990 C   0  0  0  0  0  0  0  0  0  0  0  0
    0.2683   -0.9394   -0.9282 C   0  0  0  0  0  0  0  0  0  0  0  0
    0.3383    0.4087   -0.5146 C   0  0  0  0  0  0  0  0  0  0  0  0
   -0.7775    1.1432   -0.0847 C   0  0  0  0  0  0  0  0  0  0  0  0
   -2.0120    0.5185   -0.0639 C   0  0  0  0  0  0  0  0  0  0  0  0
   -2.1153   -0.8302   -0.4728 C   0  0  0  0  0  0  0  0  0  0  0  0
   -1.0933   -2.5748   -1.2049 H   0  0  0  0  0  0  0  0  0  0  0  0
    1.1902   -1.4500   -1.2530 H   0  0  0  0  0  0  0  0  0  0  0  0
   -0.6686    2.1772    0.2239 H   0  0  0  0  0  0  0  0  0  0  0  0
   -2.8826    1.0702    0.2648 H   0  0  0  0  0  0  0  0  0  0  0  0
    1.5766    1.0195   -0.5411 N   0  0  0  0  0  0  0  0  0  0  0  0
    2.6904    1.1418   -0.7002 N   0  0  0  0  0  0  0  0  0  0  0  0
    3.3344   -1.7797   -1.7353 Cl  0  0  0  0  0  0  0  0  0  0  0  0
   -3.2656   -1.5227   -0.4904 O   0  0  0  0  0  0  0  0  0  0  0  0
   -4.4792   -0.8909   -0.0784 C   0  0  0  0  0  0  0  0  0  0  0  0
   -5.2554   -1.6477   -0.1896 H   0  0  0  0  0  0  0  0  0  0  0  0
   -4.7140   -0.0311   -0.7156 H   0  0  0  0  0  0  0  0  0  0  0  0
   -4.4248   -0.5741    0.9688 H   0  0  0  0  0  0  0  0  0  0  0  0
  1  6  1  0  0  0  0
  2  1  2  0  0  0  0
  2  3  1  0  0  0  0
  3  4  2  0  0  0  0
  4  5  1  0  0  0  0
  4  9  1  0  0  0  0
  5 10  1  0  0  0  0
  6  5  2  0  0  0  0
  7  1  1  0  0  0  0
  8  2  1  0  0  0  0
 11  3  1  0  0  0  0
 12 11  1  0  0  0  0
 14  6  1  0  0  0  0
 14 15  1  0  0  0  0
 15 18  1  0  0  0  0
 16 15  1  0  0  0  0
 17 15  1  0  0  0  0
M  RAD  3  11   2  12   3  13   2
M  END
