23
Coordinates from ORCA-job p-NO2-Ph-N2-X-OTf-B3LYPG-6-31G_dp-scan-d09-49-n400
  C   -2.36107683255761     -0.71810315482092     -5.54004828548271
  C   -1.34128222517592      0.04978683182051     -6.08944044791716
  C   -1.25668762158415      1.39379509769081     -5.69342945548693
  C   -2.13770544044241      1.98976131530530     -4.78367371598266
  C   -3.14320150262351      1.20530011166363     -4.23295327921591
  C   -3.23416548199873     -0.12882179922901     -4.62669215578561
  H   -2.48238823035548     -1.76136335511858     -5.80203752371227
  H   -0.62331097386932     -0.35167729191645     -6.79550075908791
  H   -2.02392688925140      3.03345264727782     -4.51509276558785
  H   -3.85142589744720      1.60306392578037     -3.51746228071765
  N   -4.31792135764213     -0.95967107175648     -4.04679167925233
  O   -5.06957173268861     -0.41588963247085     -3.24352403884070
  O   -4.39174137566587     -2.12416268660529     -4.42354881282302
  N   -0.25578904934649      2.20065196793171     -6.24593561493894
  N   0.69801124401380      2.36639630537566     -6.84017881637602
  S   2.23712143904861     -0.11616528613678     -6.32127201672282
  C   3.89819916499241      0.67636961271166     -6.57432607149607
  O   1.41616056312021      0.50285358828195     -7.46168233633146
  O   1.77003679033396      0.37124292512788     -5.01106664967991
  O   2.43315631263814     -1.55260942859160     -6.51386317890720
  F   4.39978204241035      0.34141267868482     -7.76519583101445
  F   3.77377836204731      2.01274702576708     -6.51747894991151
  F   4.74324869204400      0.28272967322674     -5.61700533472895
