23
Coordinates from ORCA-job p-NO2-Ph-N2-X-OTf-B3LYPG-6-31G_dp-scan-d09-49-n400
  C   -2.73861708719189     -0.66558610698249     -5.80269883890546
  C   -1.75154951619412     -0.02091257537931     -6.53571225229645
  C   -1.23362497418179      1.17466944955272     -6.01716418972681
  C   -1.66270855189771      1.75180488658774     -4.81674004329163
  C   -2.63833627925446      1.08427670690555     -4.08852985993243
  C   -3.15928512515406     -0.10466594550624     -4.59720521149916
  H   -3.17608446923159     -1.59551096282636     -6.14209676723136
  H   -1.37935460104052     -0.42239146602610     -7.46970107565555
  H   -1.22512179773353      2.67685569298540     -4.46229820544875
  H   -3.00214009494176      1.46669958303904     -3.14410721966999
  N   -4.21267983951967     -0.80063804890854     -3.82414976759531
  O   -4.56355136076029     -0.28401157720331     -2.76753462091440
  O   -4.66108784952661     -1.83939804176108     -4.29856325515459
  N   -0.27290307040091      1.84183261325946     -6.76934963217159
  N   0.59178690215359      2.08245012300173     -7.44858985700893
  S   2.27498703644990     -0.19815776865261     -6.35145555745942
  C   3.68019437729555      0.99544020164505     -6.12932505207338
  O   1.72466734190747      0.20433781360206     -7.70737962921413
  O   1.33193527083556      0.16292389478817     -5.26576449577936
  O   2.88234887031877     -1.52842157366162     -6.32554237740187
  F   4.58854901727479      0.85149468761699     -7.09735374304845
  F   3.20918282060438      2.26031454516288     -6.17128231344301
  F   4.27269298018891      0.80769386876085     -4.94565603507792
