18
Coordinates from ORCA-job Ph-N2-H-BF4-B3LYPG-6-31G_dp-scan-d09-49-n400
  C   -1.84666183562255      1.70304875610589      1.26007383555281
  C   -0.56629452890165      1.70760031649214      1.79291478579418
  C   0.45445616149808      1.10993313441175      1.02617689324271
  C   0.24771498119041      0.49490095118589     -0.21856763834615
  C   -1.05407030331903      0.51010065408938     -0.71180289239950
  C   -2.08650378454232      1.11205570576959      0.01134850903322
  H   -2.65922014547191      2.15726094133817      1.81620492948658
  H   -0.36472581199557      2.14910319396305      2.76424152412626
  H   1.08495709382733      0.02304354552578     -0.72784060223981
  H   -1.25764781043872      0.04780412964245     -1.67125589931526
  N   1.73424121743927      1.11879785867852      1.56014432405590
  N   2.74212686547319      1.13316311770763      2.03746577224377
  B   3.68947302152664      0.33606916258474     -0.73812301288825
  F   2.87206802405085      1.49101794501531     -0.85516308909400
  F   4.34294242122640      0.40902032097819      0.52374820460310
  F   2.81249116909736     -0.78623717399694     -0.70200064719331
  F   4.58854860487432      0.24102414198773     -1.76661181797658
  H   -3.09339533991216      1.11829329852079     -0.39505317868572
