18
Coordinates from ORCA-job Ph-N2-H-BF4-B3LYPG-6-31G_dp-scan-d09-49-n400
  C   -1.18468281673747      0.06553076174357      0.55009827347113
  C   0.17794616355337      0.21121791955225      0.30994444806957
  C   0.58152590073377      1.40599788346788     -0.30480882507487
  C   -0.29721531465080      2.43800173443335     -0.67927593016904
  C   -1.64642089080739      2.25785253428250     -0.41102768032992
  C   -2.08558848020060      1.07581409403705      0.20077690896225
  H   -1.54135522422619     -0.84287138365556      1.02336600633382
  H   0.92312488750572     -0.53541893389241      0.56989998169920
  H   0.07754848502719      3.33978545067029     -1.15021874867150
  H   -2.35477037836734      3.03451355628339     -0.67774732084637
  N   1.92401231491976      1.59543871151938     -0.60027866946096
  N   2.97725341662537      1.78843361224058     -0.90902640500969
  B   3.47046476487706     -0.15821745313554      1.36476266358753
  F   2.76309835449089     -1.18065358423285      0.67449399748709
  F   4.35776453089868      0.45301958975838      0.44064371058863
  F   2.51057005195101      0.83075671856435      1.73773876821609
  F   4.13065660706631     -0.64824174260416      2.45900090163515
  H   -3.14343237265942      0.94504053096757      0.40755791951188
