18
Coordinates from ORCA-job Ph-N2-H-BF4-B3LYPG-6-31G_dp-scan-d09-49-n400
  C   -1.17230931951941      0.06360046765407      0.55146711895157
  C   0.18930470588308      0.21443867387914      0.30802748291943
  C   0.58530611013494      1.41109544603095     -0.30830023973930
  C   -0.29803190811450      2.43976338826319     -0.68148791718371
  C   -1.64568621403411      2.25366637900451     -0.41015960655755
  C   -2.07816490752302      1.06984660424721      0.20346233777575
  H   -1.52441095683965     -0.84581984895359      1.02626538407416
  H   0.94288293623651     -0.52753453727479      0.56557532902346
  H   0.07191413532005      3.34290714683866     -1.15363658586755
  H   -2.35822856883189      3.02691111817723     -0.67563032358305
  N   1.92678016932841      1.60388461547368     -0.60512159720698
  N   2.98146055725433      1.79442893699616     -0.91022314963675
  B   3.45545276352695     -0.15735824638514      1.36669627014759
  F   2.72072820239388     -1.16611540827621      0.67944263422272
  F   4.35054901377799      0.43132186308099      0.43677875732587
  F   2.51908158170606      0.85067551062745      1.74314880016463
  F   4.10887775806304     -0.66451004715701      2.45688334699073
  H   -3.13500605876276      0.93479793777353      0.41271195817896
