18
Coordinates from ORCA-job Ph-N2-H-BF4-B3LYPG-6-31G_dp-scan-d09-49-n400
  C   -1.20774885371209      0.08095957647572      0.59962543029475
  C   0.15858760037788      0.20754389287309      0.36991362370875
  C   0.58038757540567      1.37622425152822     -0.28014577277501
  C   -0.28647917665956      2.40066082865677     -0.70155717557815
  C   -1.64039482156125      2.24004830657244     -0.44504922110395
  C   -2.09661884660869      1.08449740310524      0.20360156075663
  H   -1.57722989659101     -0.80785114367478      1.09959802732936
  H   0.89579421638624     -0.53531758069014      0.65390053786175
  H   0.10085408590876      3.28252504012684     -1.19943701322280
  H   -2.33901777861004      3.01163859405836     -0.74948727567120
  N   1.92737027218379      1.55606428844727     -0.56531052207666
  N   2.97238808990762      1.77135895496637     -0.88598564911660
  B   3.48786231082948     -0.13205053391386      1.33166844134758
  F   2.79807440735988     -1.01574612650515      0.44898204864754
  F   4.42499953562446      0.59330759684216      0.55657164957230
  F   2.51827219505073      0.80079736359741      1.80411163294172
  F   4.08135711516906     -0.80761795530554      2.36350015838659
  H   -3.15795803046098      0.96895724283962      0.40139951869736
