BF4-.log
 OpenBabel05181815553D
Gaussian home/ubuntu/g09/g09 # opt freq rb3lyp/6-31G(d,p)
  5  4  0  0  0  0  0  0  0  0999 V2000
   -0.0001    0.0001    0.0000 B   0  0  0  0  0  0  0  0  0  0  0  0
   -0.4699    1.3293    0.0000 F   0  0  0  0  0  0  0  0  0  0  0  0
   -0.4699   -0.6647    1.1510 F   0  0  0  0  0  0  0  0  0  0  0  0
   -0.4699   -0.6647   -1.1510 F   0  0  0  0  0  0  0  0  0  0  0  0
    1.4097   -0.0000    0.0000 F   0  0  0  0  0  0  0  0  0  0  0  0
  1  2  1  0  0  0  0
  1  5  1  0  0  0  0
  1  3  1  0  0  0  0
  4  1  1  0  0  0  0
M  END
