x2-4-NO2-Ph-N2-OTf-v1.log
 OpenBabel05181815563D
Gaussian home/ubuntu/g09/g09 # opt freq rb3lyp/6-31G(d,p)
 38 37  0  0  0  0  0  0  0  0999 V2000
   -4.1650    0.5347    0.0382 C   0  0  0  0  0  0  0  0  0  0  0  0
   -4.3757   -0.8379   -0.1676 C   0  0  0  0  0  0  0  0  0  0  0  0
   -5.6337   -1.4202   -0.4183 C   0  0  0  0  0  0  0  0  0  0  0  0
   -6.7307   -0.5745   -0.4683 C   0  0  0  0  0  0  0  0  0  0  0  0
   -6.5311    0.7924   -0.2672 C   0  0  0  0  0  0  0  0  0  0  0  0
   -5.2840    1.3587   -0.0161 C   0  0  0  0  0  0  0  0  0  0  0  0
   -3.1639    0.9007    0.2447 H   0  0  0  0  0  0  0  0  0  0  0  0
   -5.7359   -2.4889   -0.5679 H   0  0  0  0  0  0  0  0  0  0  0  0
   -7.7290   -0.9489   -0.6573 H   0  0  0  0  0  0  0  0  0  0  0  0
   -5.2019    2.4280    0.1352 H   0  0  0  0  0  0  0  0  0  0  0  0
   -3.2895   -1.7037   -0.1318 N   0  0  0  0  0  0  0  0  0  0  0  0
   -2.4681   -2.4567   -0.1347 N   0  0  0  0  0  0  0  0  0  0  0  0
   -0.0668   -0.2240    0.2827 S   0  0  0  0  0  0  0  0  0  0  0  0
   -0.2316   -1.3453   -0.6922 O   0  0  0  0  0  0  0  0  0  0  0  0
    0.8755    0.8195   -0.1816 O   0  0  0  0  0  0  0  0  0  0  0  0
   -1.3452    0.2464    0.8596 O   0  0  0  0  0  0  0  0  0  0  0  0
    0.8247   -1.0133    1.7099 C   0  0  0  0  0  0  0  0  0  0  0  0
    2.0245   -1.4623    1.2736 F   0  0  0  0  0  0  0  0  0  0  0  0
    0.1319   -2.0481    2.1884 F   0  0  0  0  0  0  0  0  0  0  0  0
    1.0364   -0.1315    2.6852 F   0  0  0  0  0  0  0  0  0  0  0  0
    2.8760    1.0867    0.1079 H   0  0  0  0  0  0  0  0  0  0  0  0
    3.8439    0.7559   -0.2552 C   0  0  0  0  0  0  0  0  0  0  0  0
    3.9146   -0.2345   -1.2470 C   0  0  0  0  0  0  0  0  0  0  0  0
    5.0497    1.2683    0.2105 C   0  0  0  0  0  0  0  0  0  0  0  0
    5.1162   -0.7308   -1.7898 C   0  0  0  0  0  0  0  0  0  0  0  0
    6.2426    0.7808   -0.3171 C   0  0  0  0  0  0  0  0  0  0  0  0
    5.0761    2.0358    0.9741 H   0  0  0  0  0  0  0  0  0  0  0  0
    6.3027   -0.2049   -1.3036 C   0  0  0  0  0  0  0  0  0  0  0  0
    5.1094   -1.4968   -2.5567 H   0  0  0  0  0  0  0  0  0  0  0  0
    7.2651   -0.5388   -1.6710 H   0  0  0  0  0  0  0  0  0  0  0  0
    2.7405   -0.7779   -1.7547 N   0  0  0  0  0  0  0  0  0  0  0  0
    1.8592   -1.2730   -2.2236 N   0  0  0  0  0  0  0  0  0  0  0  0
    7.5254    1.3389    0.1953 N   0  0  0  0  0  0  0  0  0  0  0  0
    7.4442    2.2017    1.0599 O   0  0  0  0  0  0  0  0  0  0  0  0
    8.5545    0.8873   -0.2919 O   0  0  0  0  0  0  0  0  0  0  0  0
   -7.7190    1.6900   -0.3237 N   0  0  0  0  0  0  0  0  0  0  0  0
   -7.5154    2.8842   -0.1482 O   0  0  0  0  0  0  0  0  0  0  0  0
   -8.8002    1.1575   -0.5421 O   0  0  0  0  0  0  0  0  0  0  0  0
  1  7  1  0  0  0  0
  2 11  1  0  0  0  0
  2  1  2  0  0  0  0
  3  2  1  0  0  0  0
  4  3  2  0  0  0  0
  4  5  1  0  0  0  0
  5  6  2  0  0  0  0
  6  1  1  0  0  0  0
  6 10  1  0  0  0  0
  8  3  1  0  0  0  0
  9  4  1  0  0  0  0
 12 11  1  0  0  0  0
 13 16  1  0  0  0  0
 13 17  1  0  0  0  0
 14 13  2  0  0  0  0
 15 13  2  0  0  0  0
 17 19  1  0  0  0  0
 17 20  1  0  0  0  0
 18 17  1  0  0  0  0
 22 21  1  0  0  0  0
 22 24  1  0  0  0  0
 23 22  2  0  0  0  0
 24 27  1  0  0  0  0
 25 28  2  0  0  0  0
 25 23  1  0  0  0  0
 26 33  1  0  0  0  0
 26 24  2  0  0  0  0
 28 26  1  0  0  0  0
 29 25  1  0  0  0  0
 30 28  1  0  0  0  0
 31 23  1  0  0  0  0
 32 31  1  0  0  0  0
 33 34  2  0  0  0  0
 35 33  2  0  0  0  0
 36  5  1  0  0  0  0
 36 37  2  0  0  0  0
 38 36  2  0  0  0  0
M  RAD  5  11   2  12   3  16   2  31   2  32   3
M  END
