42
Coordinates from ORCA-job 1g-Schema5-R9-P1+-B3LYPG-6-31G_dp-scan-d49-09-n400
  C   -1.96702615269408      0.65718714866183     -1.09487912680288
  C   -0.71177323464987      0.12949923204359     -0.82961668578814
  C   0.14869760437079      0.56438972954474      0.22856010465363
  C   -0.30013533022284      1.66365388793637      0.99904824015391
  C   -1.55572309136412      2.19463304834568      0.75263079450080
  C   -2.39160990064099      1.70954448375411     -0.28647597357406
  H   -2.60260459306690      0.27991393930151     -1.88833408260487
  H   -1.91297262967214      3.02137544655021      1.35679908154310
  H   0.32766122579040      2.07471684814703      1.78274075783767
  N   -0.07879854981199     -0.96714581857820     -1.42716551149065
  N   -0.50888942551938     -1.54304048545899     -2.46869986907847
  C   0.01662497455960     -2.72016967207131     -2.96400728314266
  C   -0.16946145479655     -2.88638201054895     -4.35616692512216
  C   0.60031680199899     -3.76154270161487     -2.19814106875088
  C   0.30864551003868     -4.02439732914528     -4.98956453136404
  H   -0.66130056545897     -2.09489694122128     -4.91064401024572
  C   1.03567312472025     -4.90835065978664     -2.83789425335594
  H   0.62337094767535     -3.71117426585666     -1.11522648743046
  C   0.91520703421975     -5.03690531859496     -4.23297391006737
  H   0.19635586651546     -4.14532437801105     -6.06041416583167
  H   1.46029945433234     -5.73543836211894     -2.27912149511345
  C   0.76869145827112     -1.01645450790571      0.83243462604060
  C   1.18351674922763     -1.16540746298303     -0.58838666667533
  C   1.65689451593434     -1.02751155759349      1.76357227313353
  C   1.72451880805750      0.32579422372670     -0.41357948103356
  H   1.83538326723126     -1.95006896354127     -0.95385702917134
  C   2.70833103325434     -0.11083946190759      1.81540232215607
  C   2.77285212859609      0.55666475831508      0.59889879841167
  H   3.43196589492560      0.01548329015603      2.61251284229249
  H   3.53997381653800      1.29449316162338      0.38609147860493
  C   1.42535373587374     -6.30407959258293     -4.85159740737314
  O   1.95172596444379     -7.18914115662367     -4.21355168117727
  O   1.23393286308777     -6.33972602046895     -6.18225509136394
  H   1.58712270265621     -7.18694368487157     -6.50385141215442
  C   -3.73795032432138      2.28783284447177     -0.56973436806157
  O   -4.46238859313171      1.89387707984293     -1.45844166946790
  O   -4.05577719338740      3.29162644243662      0.27130403726182
  H   -4.94132869555342      3.60568599976661      0.02113945807779
  C   1.93926499702978      1.06267823223748     -1.73202608622416
  O   1.84030929112943      0.52612979048211     -2.81157339185421
  O   2.24011315301248      2.35215489055421     -1.53471515453004
  H   2.37433681080106      2.76840587358743     -2.40523999581798
