42
Coordinates from ORCA-job 1g-Schema5-R9-P1+-B3LYPG-6-31G_dp-scan-d49-09-n400
  C   -2.00452927694704      0.84331455975072     -1.14039048145284
  C   -0.90182539729266      0.24610746113380     -0.54844599562985
  C   -0.51805026220452      0.48192819889725      0.78508153427480
  C   -1.28235505720411      1.34959832262110      1.57329842430347
  C   -2.39229777770905      1.96353901527724      0.99820010577882
  C   -2.75016525622471      1.71756947790537     -0.34464470377895
  H   -2.29070604406045      0.65943906371980     -2.16860421245212
  H   -3.00024756369432      2.64319168981339      1.58406459312554
  H   -1.01858103852816      1.52920399096879      2.60966017932622
  N   -0.02665338389077     -0.71114209680161     -1.14291090276863
  N   -0.42870221585929     -1.33899083496147     -2.16651022161586
  C   0.15480761657620     -2.40431396046883     -2.80587028492042
  C   -0.71622127701917     -2.93783326543647     -3.79370808335306
  C   1.41796950467612     -3.02336723989166     -2.59125903088743
  C   -0.36928282122859     -4.06971364766333     -4.51417039907593
  H   -1.66630474871040     -2.44026587563872     -3.95191875087545
  C   1.75070718995554     -4.15185177926510     -3.31426460484112
  H   2.14826660301116     -2.61146802462277     -1.91324925456121
  C   0.86518471878870     -4.68413508055807     -4.26985004546188
  H   -1.04053023184335     -4.47753442283122     -5.26035787267316
  H   2.70719461491601     -4.64293807762120     -3.17310318462822
  C   0.67611438319209     -0.27616119003775      1.06215709673980
  C   1.15759816192556     -0.91111915069115     -0.23280909216190
  C   1.63240618500884     -0.18336591642017      1.98600017651572
  C   2.46690709160372     -0.10672541545001     -0.59072124023758
  H   1.37089635820193     -1.98182166269172     -0.18824150465999
  C   2.94494009647803     -0.06851611885771      1.82362914158023
  C   3.28574723347356      0.28261792045235      0.41969220464225
  H   3.72417906133716     -0.31947478200159      2.53655783172431
  H   4.23505486889094      0.75156272820101      0.18116664251099
  C   1.31200740519570     -5.91139143821972     -5.00966666590021
  O   2.37628448709830     -6.45392511533583     -4.81060128274003
  O   0.40098703707156     -6.33129489199854     -5.90415256817991
  H   0.76105296651290     -7.12459508909923     -6.33674771054701
  C   -3.93805219290187      2.36676967113443     -0.98681992477586
  O   -4.26793143697215      2.16482802667413     -2.13519321192396
  O   -4.58791391148256      3.19525742810375     -0.14913031881043
  H   -5.33877283178209      3.57157638985870     -0.63931014967174
  C   2.80608378858896      0.16171375907408     -2.00736253313727
  O   2.12377547361513     -0.19877947859457     -2.95032637868474
  O   3.94048877022718      0.86865289123980     -2.15176404232548
  H   4.06986910920992      1.01465396033277     -3.10440327779029
