12a
  PyMOL184          3D                             0

 32 21  0  0  0  0  0  0  0  0999 V2000
    1.4615    0.4172    8.2806 S   0  0  0  0  0  0  0  0  0  0  0  0
    0.1092   -0.0596    8.0319 O   0  0  0  0  0  0  0  0  0  0  0  0
    1.5444    1.8664    8.3736 O   0  0  0  0  0  0  0  0  0  0  0  0
    2.4336   -0.1377    7.3401 O   0  0  0  0  0  0  0  0  0  0  0  0
    6.1467   -2.4950    6.5753 N   0  0  0  0  0  0  0  0  0  0  0  0
    6.5125   -1.9967    5.6722 N   0  0  0  0  0  0  0  0  0  0  0  0
    3.6517   -5.1151   12.2130 N   0  0  0  0  0  0  0  0  0  0  0  0
    3.0952   -1.8991   13.6706 C   0  0  0  0  0  0  0  0  0  0  0  0
    2.6829   -1.3196   12.3411 C   0  0  0  0  0  0  0  0  0  0  0  0
    3.5313   -0.4539   11.6445 C   0  0  0  0  0  0  0  0  0  0  0  0
    1.4432   -1.6241   11.7800 C   0  0  0  0  0  0  0  0  0  0  0  0
    3.1624    0.0863   10.4146 C   0  0  0  0  0  0  0  0  0  0  0  0
    1.0587   -1.0831   10.5560 C   0  0  0  0  0  0  0  0  0  0  0  0
    1.9225   -0.2312    9.8706 C   0  0  0  0  0  0  0  0  0  0  0  0
    4.6536   -4.1213   10.0383 C   0  0  0  0  0  0  0  0  0  0  0  0
    3.9187   -3.1340    9.3707 C   0  0  0  0  0  0  0  0  0  0  0  0
    5.8741   -4.5902    9.5541 C   0  0  0  0  0  0  0  0  0  0  0  0
    4.4075   -2.5822    8.1998 C   0  0  0  0  0  0  0  0  0  0  0  0
    6.3853   -4.0656    8.3731 C   0  0  0  0  0  0  0  0  0  0  0  0
    5.6294   -3.0771    7.7595 C   0  0  0  0  0  0  0  0  0  0  0  0
    4.1005   -4.6778   11.2560 C   0  0  0  0  0  0  0  0  0  0  0  0
    2.7302   -1.4067   14.4065 H   0  0  0  0  0  0  0  0  0  0  0  0
    4.0606   -1.8667   13.8139 H   0  0  0  0  0  0  0  0  0  0  0  0
    2.8357   -2.8399   13.7793 H   0  0  0  0  0  0  0  0  0  0  0  0
    4.4382   -0.2389   11.9748 H   0  0  0  0  0  0  0  0  0  0  0  0
    0.8470   -2.2118   12.2406 H   0  0  0  0  0  0  0  0  0  0  0  0
    3.7454    0.6989    9.9897 H   0  0  0  0  0  0  0  0  0  0  0  0
    0.1995   -1.3182   10.1970 H   0  0  0  0  0  0  0  0  0  0  0  0
    3.1049   -2.7957    9.7239 H   0  0  0  0  0  0  0  0  0  0  0  0
    6.3805   -5.2905   10.0030 H   0  0  0  0  0  0  0  0  0  0  0  0
    3.9409   -1.9021    7.7733 H   0  0  0  0  0  0  0  0  0  0  0  0
    7.1782   -4.3439    8.0178 H   0  0  0  0  0  0  0  0  0  0  0  0
  1  3  1  0  0  0  0
  1  2  1  0  0  0  0
  1  4  1  0  0  0  0
  1 14  1  0  0  0  0
  5  6  1  0  0  0  0
  5 20  1  0  0  0  0
  7 21  1  0  0  0  0
  8  9  1  0  0  0  0
  9 11  1  0  0  0  0
  9 10  1  0  0  0  0
 10 12  1  0  0  0  0
 11 13  1  0  0  0  0
 12 14  1  0  0  0  0
 13 14  1  0  0  0  0
 15 17  1  0  0  0  0
 15 16  1  0  0  0  0
 15 21  1  0  0  0  0
 16 18  1  0  0  0  0
 17 19  1  0  0  0  0
 18 20  1  0  0  0  0
 19 20  1  0  0  0  0
M  END
