15a
  PyMOL184          3D                             0

 62 40  0  0  0  0  0  0  0  0999 V2000
    7.8377    4.5964    2.0327 I   0  0  0  0  0  0  0  0  0  0  0  0
    1.8314    7.4151    7.0670 I   0  0  0  0  0  0  0  0  0  0  0  0
    4.4045   10.8837    2.3249 S   0  0  0  0  0  0  0  0  0  0  0  0
    6.1696    1.0766    6.6733 S   0  0  0  0  0  0  0  0  0  0  0  0
    6.5175    0.8160    5.2837 O   0  0  0  0  0  0  0  0  0  0  0  0
    4.8766    0.5771    7.0655 O   0  0  0  0  0  0  0  0  0  0  0  0
    7.2174    0.6437    7.5855 O   0  0  0  0  0  0  0  0  0  0  0  0
    5.4059   11.2052    1.3273 O   0  0  0  0  0  0  0  0  0  0  0  0
    3.0852   11.4423    2.0091 O   0  0  0  0  0  0  0  0  0  0  0  0
    4.8503   11.1725    3.6819 O   0  0  0  0  0  0  0  0  0  0  0  0
    7.9452   10.7372    2.6746 N   0  0  0  0  0  0  0  0  0  0  0  0
    7.9726   11.8445    2.7546 N   0  0  0  0  0  0  0  0  0  0  0  0
    2.1537    1.2469    6.4528 N   0  0  0  0  0  0  0  0  0  0  0  0
    2.1926    0.1610    6.3237 N   0  0  0  0  0  0  0  0  0  0  0  0
    7.8004    6.6790    2.2418 C   0  0  0  0  0  0  0  0  0  0  0  0
    8.3804    7.4544    1.2182 C   0  0  0  0  0  0  0  0  0  0  0  0
    8.7299    7.0365    0.4382 H   0  0  0  0  0  0  0  0  0  0  0  0
    8.4357    8.8409    1.3600 C   0  0  0  0  0  0  0  0  0  0  0  0
    8.8119    9.3970    0.6873 H   0  0  0  0  0  0  0  0  0  0  0  0
    7.9130    9.3688    2.5382 C   0  0  0  0  0  0  0  0  0  0  0  0
    7.3387    8.6050    3.5655 C   0  0  0  0  0  0  0  0  0  0  0  0
    6.9964    9.0179    4.3491 H   0  0  0  0  0  0  0  0  0  0  0  0
    7.2876    7.2609    3.4055 C   0  0  0  0  0  0  0  0  0  0  0  0
    6.9036    6.7145    4.0819 H   0  0  0  0  0  0  0  0  0  0  0  0
    1.9566    5.3148    6.8892 C   0  0  0  0  0  0  0  0  0  0  0  0
    2.5240    4.5801    7.9092 C   0  0  0  0  0  0  0  0  0  0  0  0
    2.8615    5.0100    8.6855 H   0  0  0  0  0  0  0  0  0  0  0  0
    2.5923    3.1947    7.7764 C   0  0  0  0  0  0  0  0  0  0  0  0
    2.9675    2.6519    8.4601 H   0  0  0  0  0  0  0  0  0  0  0  0
    2.0829    2.6323    6.5946 C   0  0  0  0  0  0  0  0  0  0  0  0
    1.4835    3.3548    5.5728 C   0  0  0  0  0  0  0  0  0  0  0  0
    1.1368    2.9282    4.7982 H   0  0  0  0  0  0  0  0  0  0  0  0
    1.4149    4.7329    5.7382 C   0  0  0  0  0  0  0  0  0  0  0  0
    1.0037    5.2752    5.0746 H   0  0  0  0  0  0  0  0  0  0  0  0
    4.1850    9.1180    2.2637 C   0  0  0  0  0  0  0  0  0  0  0  0
    3.5402    8.4630    3.3037 C   0  0  0  0  0  0  0  0  0  0  0  0
    3.1827    8.9624    4.0291 H   0  0  0  0  0  0  0  0  0  0  0  0
    3.4176    7.1076    3.2891 C   0  0  0  0  0  0  0  0  0  0  0  0
    2.9763    6.6789    4.0128 H   0  0  0  0  0  0  0  0  0  0  0  0
    3.9275    6.3165    2.2309 C   0  0  0  0  0  0  0  0  0  0  0  0
    4.5719    7.0088    1.1855 C   0  0  0  0  0  0  0  0  0  0  0  0
    4.9170    6.5178    0.4491 H   0  0  0  0  0  0  0  0  0  0  0  0
    4.7150    8.3941    1.2055 C   0  0  0  0  0  0  0  0  0  0  0  0
    5.1710    8.8389    0.5000 H   0  0  0  0  0  0  0  0  0  0  0  0
    3.8611    4.8194    2.2237 C   0  0  0  0  0  0  0  0  0  0  0  0
    3.3926    4.5094    3.0255 H   0  0  0  0  0  0  0  0  0  0  0  0
    4.7696    4.4519    2.2128 H   0  0  0  0  0  0  0  0  0  0  0  0
    3.3780    4.5179    1.4255 H   0  0  0  0  0  0  0  0  0  0  0  0
    6.0313    2.8402    6.8201 C   0  0  0  0  0  0  0  0  0  0  0  0
    6.5743    3.5003    7.9146 C   0  0  0  0  0  0  0  0  0  0  0  0
    7.0221    3.0087    8.5928 H   0  0  0  0  0  0  0  0  0  0  0  0
    6.4613    4.8978    8.0183 C   0  0  0  0  0  0  0  0  0  0  0  0
    6.8238    5.3439    8.7746 H   0  0  0  0  0  0  0  0  0  0  0  0
    5.8222    5.6380    7.0219 C   0  0  0  0  0  0  0  0  0  0  0  0
    5.3112    4.9388    5.8946 C   0  0  0  0  0  0  0  0  0  0  0  0
    4.8981    5.4241    5.1891 H   0  0  0  0  0  0  0  0  0  0  0  0
    5.4065    3.5668    5.8073 C   0  0  0  0  0  0  0  0  0  0  0  0
    5.0453    3.1135    5.0546 H   0  0  0  0  0  0  0  0  0  0  0  0
    5.6949    7.1403    7.1037 C   0  0  0  0  0  0  0  0  0  0  0  0
    5.2155    7.4704    6.3164 H   0  0  0  0  0  0  0  0  0  0  0  0
    6.5872    7.5424    7.1364 H   0  0  0  0  0  0  0  0  0  0  0  0
    5.1972    7.3819    7.9128 H   0  0  0  0  0  0  0  0  0  0  0  0
  1 15  1  0  0  0  0
  2 25  1  0  0  0  0
  3  8  1  0  0  0  0
  3 10  1  0  0  0  0
  3  9  1  0  0  0  0
  3 35  1  0  0  0  0
  4  6  1  0  0  0  0
  4  5  1  0  0  0  0
  4  7  1  0  0  0  0
  4 49  1  0  0  0  0
 11 12  1  0  0  0  0
 11 20  1  0  0  0  0
 13 14  1  0  0  0  0
 13 30  1  0  0  0  0
 15 23  1  0  0  0  0
 15 16  1  0  0  0  0
 16 18  1  0  0  0  0
 18 20  1  0  0  0  0
 20 21  1  0  0  0  0
 21 23  1  0  0  0  0
 25 26  1  0  0  0  0
 25 33  1  0  0  0  0
 26 28  1  0  0  0  0
 28 30  1  0  0  0  0
 30 31  1  0  0  0  0
 31 33  1  0  0  0  0
 35 43  1  0  0  0  0
 35 36  1  0  0  0  0
 36 38  1  0  0  0  0
 38 40  1  0  0  0  0
 40 41  1  0  0  0  0
 40 45  1  0  0  0  0
 41 43  1  0  0  0  0
 49 50  1  0  0  0  0
 49 57  1  0  0  0  0
 50 52  1  0  0  0  0
 52 54  1  0  0  0  0
 54 55  1  0  0  0  0
 54 59  1  0  0  0  0
 55 57  1  0  0  0  0
M  END
