Coordinates from ORCA-job o-NO2-Ph+-B3LYPG-aug-cc-pVDZ-scan-d09-49-n400
 OpenBabel10111716033D

 13 12  0  0  0  0  0  0  0  0999 V2000
   -1.3156    1.2418   -0.6391 C   0  0  0  0  0  0  0  0  0  0  0  0
   -0.6776    1.0743    0.6192 C   0  0  0  0  0  0  0  0  0  0  0  0
   -1.3173    0.9192    2.0285 C   0  0  0  0  0  0  0  0  0  0  0  0
   -2.6132    0.7528    1.5525 C   0  0  0  0  0  0  0  0  0  0  0  0
   -3.3838    0.9309    0.4813 C   0  0  0  0  0  0  0  0  0  0  0  0
   -2.6803    1.1632   -0.7566 C   0  0  0  0  0  0  0  0  0  0  0  0
   -0.6848    1.3951   -1.5169 H   0  0  0  0  0  0  0  0  0  0  0  0
    0.2785    0.5401    0.6569 H   0  0  0  0  0  0  0  0  0  0  0  0
   -3.2319    1.3160   -1.6821 H   0  0  0  0  0  0  0  0  0  0  0  0
   -4.4733    0.9836    0.5593 H   0  0  0  0  0  0  0  0  0  0  0  0
    0.5743    2.9370    1.2306 N   0  0  0  0  0  0  0  0  0  0  0  0
   -0.6378    0.9067    3.0300 O   0  0  0  0  0  0  0  0  0  0  0  0
    0.6955    2.9625    2.3324 O   0  0  0  0  0  0  0  0  0  0  0  0
  1  2  1  0  0  0  0
  2  8  1  0  0  0  0
  2  3  1  0  0  0  0
  3 12  2  0  0  0  0
  4  3  1  0  0  0  0
  5 10  1  0  0  0  0
  5  4  1  0  0  0  0
  6  1  1  0  0  0  0
  6  5  2  0  0  0  0
  7  1  1  0  0  0  0
  9  6  1  0  0  0  0
 11 13  2  0  0  0  0
M  RAD  4   1   2   2   2   4   3  11   2
M  END
