Coordinates from ORCA-job o-NO2-Ph+-B3LYPG-aug-cc-pVDZ-scan-d09-49-n400
 OpenBabel10111716033D

 13 13  0  0  0  0  0  0  0  0999 V2000
   -1.5519    0.4065   -0.7969 C   0  0  0  0  0  0  0  0  0  0  0  0
   -0.4410    0.4969    0.0131 C   0  0  0  0  0  0  0  0  0  0  0  0
   -0.4585    1.2989    1.2310 C   0  0  0  0  0  0  0  0  0  0  0  0
   -1.7346    1.9077    1.3580 C   0  0  0  0  0  0  0  0  0  0  0  0
   -2.8795    1.8763    0.6099 C   0  0  0  0  0  0  0  0  0  0  0  0
   -2.7688    1.0763   -0.5291 C   0  0  0  0  0  0  0  0  0  0  0  0
   -1.4751   -0.2160   -1.6902 H   0  0  0  0  0  0  0  0  0  0  0  0
    0.4941   -0.0271   -0.1795 H   0  0  0  0  0  0  0  0  0  0  0  0
   -3.6198    0.9941   -1.2038 H   0  0  0  0  0  0  0  0  0  0  0  0
   -3.7790    2.4361    0.8640 H   0  0  0  0  0  0  0  0  0  0  0  0
   -1.4119    2.8183    2.9150 N   0  0  0  0  0  0  0  0  0  0  0  0
    0.5005    1.4192    2.0356 O   0  0  0  0  0  0  0  0  0  0  0  0
   -0.3418    2.6361    3.2689 O   0  0  0  0  0  0  0  0  0  0  0  0
  1  6  1  0  0  0  0
  1  2  2  0  0  0  0
  2  3  1  0  0  0  0
  3  4  1  0  0  0  0
  3 12  2  0  0  0  0
  4 11  1  0  0  0  0
  5 10  1  0  0  0  0
  5  4  2  0  0  0  0
  6  5  1  0  0  0  0
  7  1  1  0  0  0  0
  8  2  1  0  0  0  0
  9  6  1  0  0  0  0
 11 13  1  0  0  0  0
M  RAD  3   6   2  11   2  13   2
M  END
