Coordinates from ORCA-job o-NO2-Ph+-B3LYPG-aug-cc-pVDZ-scan-d09-49-n400
 OpenBabel10111716033D

 13 12  0  0  0  0  0  0  0  0999 V2000
   -1.5217    0.8326   -0.9207 C   0  0  0  0  0  0  0  0  0  0  0  0
   -0.7363    0.8853    0.2130 C   0  0  0  0  0  0  0  0  0  0  0  0
   -1.1368    1.0739    1.6727 C   0  0  0  0  0  0  0  0  0  0  0  0
   -2.4774    1.1031    1.4107 C   0  0  0  0  0  0  0  0  0  0  0  0
   -3.4414    1.0998    0.4773 C   0  0  0  0  0  0  0  0  0  0  0  0
   -2.9168    0.9359   -0.8295 C   0  0  0  0  0  0  0  0  0  0  0  0
   -1.0368    0.6908   -1.8868 H   0  0  0  0  0  0  0  0  0  0  0  0
    0.3388    0.6823    0.2044 H   0  0  0  0  0  0  0  0  0  0  0  0
   -3.5861    0.9271   -1.6881 H   0  0  0  0  0  0  0  0  0  0  0  0
   -4.4974    1.2592    0.6992 H   0  0  0  0  0  0  0  0  0  0  0  0
    1.0484    3.7158    2.6469 N   0  0  0  0  0  0  0  0  0  0  0  0
   -0.3225    1.0624    2.6105 O   0  0  0  0  0  0  0  0  0  0  0  0
    0.8188    2.8552    3.2864 O   0  0  0  0  0  0  0  0  0  0  0  0
  1  6  1  0  0  0  0
  1  2  2  0  0  0  0
  2  3  1  0  0  0  0
  3 12  2  0  0  0  0
  4  3  1  0  0  0  0
  5 10  1  0  0  0  0
  5  4  2  0  0  0  0
  6  5  1  0  0  0  0
  7  1  1  0  0  0  0
  8  2  1  0  0  0  0
  9  6  1  0  0  0  0
 11 13  2  0  0  0  0
M  RAD  3   4   2   6   2  11   2
M  END
