Coordinates from ORCA-job o-NO2-Ph+-B3LYPG-aug-cc-pVDZ-scan-d09-49-n400
 OpenBabel10111716033D

 13 13  0  0  0  0  0  0  0  0999 V2000
   -1.5390    0.4112   -0.7791 C   0  0  0  0  0  0  0  0  0  0  0  0
   -0.4211    0.4871    0.0284 C   0  0  0  0  0  0  0  0  0  0  0  0
   -0.4745    1.2977    1.2129 C   0  0  0  0  0  0  0  0  0  0  0  0
   -1.7368    1.9405    1.3951 C   0  0  0  0  0  0  0  0  0  0  0  0
   -2.8793    1.8964    0.6201 C   0  0  0  0  0  0  0  0  0  0  0  0
   -2.7556    1.0950   -0.5070 C   0  0  0  0  0  0  0  0  0  0  0  0
   -1.4781   -0.2099   -1.6742 H   0  0  0  0  0  0  0  0  0  0  0  0
    0.5077   -0.0380   -0.1839 H   0  0  0  0  0  0  0  0  0  0  0  0
   -3.6026    0.9938   -1.1844 H   0  0  0  0  0  0  0  0  0  0  0  0
   -3.7872    2.4409    0.8746 H   0  0  0  0  0  0  0  0  0  0  0  0
   -1.4306    2.7732    2.8359 N   0  0  0  0  0  0  0  0  0  0  0  0
    0.4719    1.4637    2.0494 O   0  0  0  0  0  0  0  0  0  0  0  0
   -0.3420    2.5716    3.2084 O   0  0  0  0  0  0  0  0  0  0  0  0
  1  6  1  0  0  0  0
  1  2  2  0  0  0  0
  2  3  1  0  0  0  0
  3  4  1  0  0  0  0
  3 12  2  0  0  0  0
  4 11  1  0  0  0  0
  5 10  1  0  0  0  0
  5  4  2  0  0  0  0
  6  5  1  0  0  0  0
  7  1  1  0  0  0  0
  8  2  1  0  0  0  0
  9  6  1  0  0  0  0
 11 13  1  0  0  0  0
M  RAD  3   6   2  11   2  13   2
M  END
