Coordinates from ORCA-job o-NO2-Ph+-B3LYPG-aug-cc-pVDZ-scan-d09-49-n400
 OpenBabel10111716033D

 13 12  0  0  0  0  0  0  0  0999 V2000
   -1.4991    0.3837   -0.9519 C   0  0  0  0  0  0  0  0  0  0  0  0
   -0.3958    0.3930   -0.1533 C   0  0  0  0  0  0  0  0  0  0  0  0
   -0.4792    1.0982    1.1594 C   0  0  0  0  0  0  0  0  0  0  0  0
   -1.7129    1.8690    1.4311 C   0  0  0  0  0  0  0  0  0  0  0  0
   -2.8650    1.6739    0.7279 C   0  0  0  0  0  0  0  0  0  0  0  0
   -2.6977    1.0542   -0.5391 C   0  0  0  0  0  0  0  0  0  0  0  0
   -1.5022   -0.1462   -1.9049 H   0  0  0  0  0  0  0  0  0  0  0  0
    0.5022   -0.1934   -0.3548 H   0  0  0  0  0  0  0  0  0  0  0  0
   -3.5070    1.1555   -1.2687 H   0  0  0  0  0  0  0  0  0  0  0  0
   -3.8111    2.1555    0.9799 H   0  0  0  0  0  0  0  0  0  0  0  0
   -1.4761    3.2728    3.2547 N   0  0  0  0  0  0  0  0  0  0  0  0
    0.3785    0.9639    2.0226 O   0  0  0  0  0  0  0  0  0  0  0  0
   -0.4017    3.4431    3.4931 O   0  0  0  0  0  0  0  0  0  0  0  0
  1  6  1  0  0  0  0
  1  2  2  0  0  0  0
  2  3  1  0  0  0  0
  3  4  1  0  0  0  0
  3 12  2  0  0  0  0
  5 10  1  0  0  0  0
  5  4  1  0  0  0  0
  6  5  2  0  0  0  0
  7  1  1  0  0  0  0
  8  2  1  0  0  0  0
  9  6  1  0  0  0  0
 11 13  2  0  0  0  0
M  RAD  2   4   3  11   2
M  END
