Coordinates from ORCA-job o-NO2-Ph+-B3LYPG-aug-cc-pVDZ-scan-d09-49-n400
 OpenBabel10111716023D

 13 12  0  0  0  0  0  0  0  0999 V2000
   -1.4867    0.4629   -0.6688 C   0  0  0  0  0  0  0  0  0  0  0  0
   -0.2304    0.3250   -0.0944 C   0  0  0  0  0  0  0  0  0  0  0  0
    0.2911    0.8743    1.0538 C   0  0  0  0  0  0  0  0  0  0  0  0
   -2.1389    2.3620    1.7777 C   0  0  0  0  0  0  0  0  0  0  0  0
   -2.9840    1.9987    0.7074 C   0  0  0  0  0  0  0  0  0  0  0  0
   -2.6835    1.1748   -0.3437 C   0  0  0  0  0  0  0  0  0  0  0  0
   -1.5735   -0.1156   -1.5916 H   0  0  0  0  0  0  0  0  0  0  0  0
    0.5096   -0.3128   -0.5904 H   0  0  0  0  0  0  0  0  0  0  0  0
   -3.4878    1.0280   -1.0642 H   0  0  0  0  0  0  0  0  0  0  0  0
   -3.9852    2.4350    0.7409 H   0  0  0  0  0  0  0  0  0  0  0  0
   -1.6119    2.6437    2.5292 N   0  0  0  0  0  0  0  0  0  0  0  0
    0.8333    1.2671    1.9745 O   0  0  0  0  0  0  0  0  0  0  0  0
   -0.9194    2.9801    3.4656 O   0  0  0  0  0  0  0  0  0  0  0  0
  1  6  1  0  0  0  0
  1  2  2  0  0  0  0
  2  3  1  0  0  0  0
  3 12  1  0  0  0  0
  4 11  1  0  0  0  0
  5 10  1  0  0  0  0
  5  4  1  0  0  0  0
  6  5  2  0  0  0  0
  7  1  1  0  0  0  0
  8  2  1  0  0  0  0
  9  6  1  0  0  0  0
 11 13  1  0  0  0  0
M  RAD  5   3   3   4   3  11   2  12   2  13   2
M  END
