Coordinates from ORCA-job o-NO2-Ph+-B3LYPG-aug-cc-pVDZ-scan-d09-49-n400
 OpenBabel10111716033D

 13 13  0  0  0  0  0  0  0  0999 V2000
   -1.5478    0.4074   -0.7903 C   0  0  0  0  0  0  0  0  0  0  0  0
   -0.4362    0.4890    0.0218 C   0  0  0  0  0  0  0  0  0  0  0  0
   -0.4642    1.3004    1.2233 C   0  0  0  0  0  0  0  0  0  0  0  0
   -1.7358    1.9214    1.3671 C   0  0  0  0  0  0  0  0  0  0  0  0
   -2.8786    1.8885    0.6087 C   0  0  0  0  0  0  0  0  0  0  0  0
   -2.7627    1.0860   -0.5248 C   0  0  0  0  0  0  0  0  0  0  0  0
   -1.4768   -0.2163   -1.6831 H   0  0  0  0  0  0  0  0  0  0  0  0
    0.4982   -0.0316   -0.1803 H   0  0  0  0  0  0  0  0  0  0  0  0
   -3.6146    0.9907   -1.1967 H   0  0  0  0  0  0  0  0  0  0  0  0
   -3.7845    2.4352    0.8675 H   0  0  0  0  0  0  0  0  0  0  0  0
   -1.4151    2.8049    2.8931 N   0  0  0  0  0  0  0  0  0  0  0  0
    0.4941    1.4442    2.0341 O   0  0  0  0  0  0  0  0  0  0  0  0
   -0.3432    2.6036    3.2555 O   0  0  0  0  0  0  0  0  0  0  0  0
  1  6  1  0  0  0  0
  1  2  2  0  0  0  0
  2  3  1  0  0  0  0
  3  4  1  0  0  0  0
  3 12  2  0  0  0  0
  4 11  1  0  0  0  0
  5 10  1  0  0  0  0
  5  4  2  0  0  0  0
  6  5  1  0  0  0  0
  7  1  1  0  0  0  0
  8  2  1  0  0  0  0
  9  6  1  0  0  0  0
 11 13  1  0  0  0  0
M  RAD  3   6   2  11   2  13   2
M  END
