Coordinates from ORCA-job o-NO2-Ph+-B3LYPG-aug-cc-pVDZ-scan-d09-49-n400
 OpenBabel10111716033D

 13 12  0  0  0  0  0  0  0  0999 V2000
   -1.3679    1.2252   -0.6694 C   0  0  0  0  0  0  0  0  0  0  0  0
   -0.7394    1.0495    0.5797 C   0  0  0  0  0  0  0  0  0  0  0  0
   -1.3617    0.9691    1.9964 C   0  0  0  0  0  0  0  0  0  0  0  0
   -2.6251    0.6653    1.5137 C   0  0  0  0  0  0  0  0  0  0  0  0
   -3.4182    0.8712    0.4534 C   0  0  0  0  0  0  0  0  0  0  0  0
   -2.7405    1.1233   -0.7836 C   0  0  0  0  0  0  0  0  0  0  0  0
   -0.7409    1.3961   -1.5463 H   0  0  0  0  0  0  0  0  0  0  0  0
    0.2474    0.5812    0.6346 H   0  0  0  0  0  0  0  0  0  0  0  0
   -3.2977    1.2793   -1.7050 H   0  0  0  0  0  0  0  0  0  0  0  0
   -4.5052    0.9220    0.5578 H   0  0  0  0  0  0  0  0  0  0  0  0
    0.9202    3.0024    1.3824 N   0  0  0  0  0  0  0  0  0  0  0  0
   -0.6795    1.0323    3.0010 O   0  0  0  0  0  0  0  0  0  0  0  0
    0.8413    3.0062    2.4814 O   0  0  0  0  0  0  0  0  0  0  0  0
  1  2  1  0  0  0  0
  2  8  1  0  0  0  0
  2  3  1  0  0  0  0
  3 12  2  0  0  0  0
  4  3  1  0  0  0  0
  5 10  1  0  0  0  0
  5  4  1  0  0  0  0
  6  1  1  0  0  0  0
  6  5  2  0  0  0  0
  7  1  1  0  0  0  0
  9  6  1  0  0  0  0
 11 13  2  0  0  0  0
M  RAD  4   1   2   2   2   4   3  11   2
M  END
