Coordinates from ORCA-job o-NO2-Ph+-B3LYPG-aug-cc-pVDZ-scan-d09-49-n400
 OpenBabel10111716033D

 13 12  0  0  0  0  0  0  0  0999 V2000
   -1.3360    1.2489   -0.6488 C   0  0  0  0  0  0  0  0  0  0  0  0
   -0.7111    1.0665    0.6096 C   0  0  0  0  0  0  0  0  0  0  0  0
   -1.3425    0.9483    2.0323 C   0  0  0  0  0  0  0  0  0  0  0  0
   -2.6075    0.6925    1.5289 C   0  0  0  0  0  0  0  0  0  0  0  0
   -3.3916    0.8976    0.4649 C   0  0  0  0  0  0  0  0  0  0  0  0
   -2.7039    1.1543   -0.7703 C   0  0  0  0  0  0  0  0  0  0  0  0
   -0.7012    1.4213   -1.5199 H   0  0  0  0  0  0  0  0  0  0  0  0
    0.2491    0.5425    0.6573 H   0  0  0  0  0  0  0  0  0  0  0  0
   -3.2556    1.3137   -1.6946 H   0  0  0  0  0  0  0  0  0  0  0  0
   -4.4796    0.9429    0.5614 H   0  0  0  0  0  0  0  0  0  0  0  0
    0.7170    2.9338    1.2698 N   0  0  0  0  0  0  0  0  0  0  0  0
   -0.6587    0.9837    3.0318 O   0  0  0  0  0  0  0  0  0  0  0  0
    0.7543    2.9774    2.3736 O   0  0  0  0  0  0  0  0  0  0  0  0
  1  2  1  0  0  0  0
  2  8  1  0  0  0  0
  2  3  1  0  0  0  0
  3 12  2  0  0  0  0
  4  3  1  0  0  0  0
  5 10  1  0  0  0  0
  5  4  1  0  0  0  0
  6  1  1  0  0  0  0
  6  5  2  0  0  0  0
  7  1  1  0  0  0  0
  9  6  1  0  0  0  0
 11 13  2  0  0  0  0
M  RAD  4   1   2   2   2   4   3  11   2
M  END
