Coordinates from ORCA-job o-NO2-Ph+-B3LYPG-aug-cc-pVDZ-scan-d09-49-n400
 OpenBabel10111716033D

 13 12  0  0  0  0  0  0  0  0999 V2000
   -1.5001    0.3833   -0.9504 C   0  0  0  0  0  0  0  0  0  0  0  0
   -0.3953    0.3918   -0.1538 C   0  0  0  0  0  0  0  0  0  0  0  0
   -0.4751    1.0972    1.1592 C   0  0  0  0  0  0  0  0  0  0  0  0
   -1.7067    1.8710    1.4339 C   0  0  0  0  0  0  0  0  0  0  0  0
   -2.8592    1.6794    0.7304 C   0  0  0  0  0  0  0  0  0  0  0  0
   -2.6965    1.0561   -0.5357 C   0  0  0  0  0  0  0  0  0  0  0  0
   -1.5056   -0.1472   -1.9030 H   0  0  0  0  0  0  0  0  0  0  0  0
    0.5019   -0.1952   -0.3570 H   0  0  0  0  0  0  0  0  0  0  0  0
   -3.5079    1.1563   -1.2632 H   0  0  0  0  0  0  0  0  0  0  0  0
   -3.8037    2.1636    0.9833 H   0  0  0  0  0  0  0  0  0  0  0  0
   -1.4883    3.2622    3.2442 N   0  0  0  0  0  0  0  0  0  0  0  0
    0.3852    0.9625    2.0195 O   0  0  0  0  0  0  0  0  0  0  0  0
   -0.4160    3.4422    3.4886 O   0  0  0  0  0  0  0  0  0  0  0  0
  1  6  1  0  0  0  0
  1  2  2  0  0  0  0
  2  3  1  0  0  0  0
  3  4  1  0  0  0  0
  3 12  2  0  0  0  0
  5 10  1  0  0  0  0
  5  4  1  0  0  0  0
  6  5  2  0  0  0  0
  7  1  1  0  0  0  0
  8  2  1  0  0  0  0
  9  6  1  0  0  0  0
 11 13  2  0  0  0  0
M  RAD  2   4   3  11   2
M  END
