Coordinates from ORCA-job o-NO2-Ph+-B3LYPG-aug-cc-pVDZ-scan-d09-49-n400
 OpenBabel10111716033D

 13 12  0  0  0  0  0  0  0  0999 V2000
   -1.5145    0.3843   -0.9113 C   0  0  0  0  0  0  0  0  0  0  0  0
   -0.3898    0.3956   -0.1363 C   0  0  0  0  0  0  0  0  0  0  0  0
   -0.4185    1.1285    1.1651 C   0  0  0  0  0  0  0  0  0  0  0  0
   -1.6410    1.9118    1.4578 C   0  0  0  0  0  0  0  0  0  0  0  0
   -2.7977    1.7576    0.7620 C   0  0  0  0  0  0  0  0  0  0  0  0
   -2.6841    1.0881   -0.4921 C   0  0  0  0  0  0  0  0  0  0  0  0
   -1.5429   -0.1659   -1.8522 H   0  0  0  0  0  0  0  0  0  0  0  0
    0.4939   -0.2090   -0.3480 H   0  0  0  0  0  0  0  0  0  0  0  0
   -3.5159    1.1748   -1.1972 H   0  0  0  0  0  0  0  0  0  0  0  0
   -3.7224    2.2720    1.0298 H   0  0  0  0  0  0  0  0  0  0  0  0
   -1.6220    3.0353    3.0547 N   0  0  0  0  0  0  0  0  0  0  0  0
    0.4679    0.9960    1.9955 O   0  0  0  0  0  0  0  0  0  0  0  0
   -0.5801    3.3541    3.3682 O   0  0  0  0  0  0  0  0  0  0  0  0
  1  6  1  0  0  0  0
  1  2  2  0  0  0  0
  2  3  1  0  0  0  0
  3  4  1  0  0  0  0
  3 12  2  0  0  0  0
  5 10  1  0  0  0  0
  5  4  1  0  0  0  0
  6  5  2  0  0  0  0
  7  1  1  0  0  0  0
  8  2  1  0  0  0  0
  9  6  1  0  0  0  0
 11 13  2  0  0  0  0
M  RAD  2   4   3  11   2
M  END
