Coordinates from ORCA-job o-NO2-Ph+-B3LYPG-aug-cc-pVDZ-scan-d09-49-n400
 OpenBabel10111716033D

 13 12  0  0  0  0  0  0  0  0999 V2000
   -1.5287    0.8277   -0.9260 C   0  0  0  0  0  0  0  0  0  0  0  0
   -0.7432    0.8956    0.2069 C   0  0  0  0  0  0  0  0  0  0  0  0
   -1.1453    1.0902    1.6642 C   0  0  0  0  0  0  0  0  0  0  0  0
   -2.4869    1.1129    1.4025 C   0  0  0  0  0  0  0  0  0  0  0  0
   -3.4513    1.0914    0.4700 C   0  0  0  0  0  0  0  0  0  0  0  0
   -2.9245    0.9209   -0.8354 C   0  0  0  0  0  0  0  0  0  0  0  0
   -1.0434    0.6818   -1.8913 H   0  0  0  0  0  0  0  0  0  0  0  0
    0.3342    0.7051    0.1978 H   0  0  0  0  0  0  0  0  0  0  0  0
   -3.5939    0.8985   -1.6935 H   0  0  0  0  0  0  0  0  0  0  0  0
   -4.5091    1.2404    0.6899 H   0  0  0  0  0  0  0  0  0  0  0  0
    1.1165    3.7163    2.6941 N   0  0  0  0  0  0  0  0  0  0  0  0
   -0.3318    1.0880    2.6035 O   0  0  0  0  0  0  0  0  0  0  0  0
    0.8402    2.8544    3.3133 O   0  0  0  0  0  0  0  0  0  0  0  0
  1  6  1  0  0  0  0
  1  2  2  0  0  0  0
  2  3  1  0  0  0  0
  3 12  2  0  0  0  0
  4  3  1  0  0  0  0
  5 10  1  0  0  0  0
  5  4  2  0  0  0  0
  6  5  1  0  0  0  0
  7  1  1  0  0  0  0
  8  2  1  0  0  0  0
  9  6  1  0  0  0  0
 11 13  2  0  0  0  0
M  RAD  3   4   2   6   2  11   2
M  END
