Coordinates from ORCA-job o-NO2-Ph+-B3LYPG-aug-cc-pVDZ-scan-d09-49-n400
 OpenBabel10111716033D

 13 12  0  0  0  0  0  0  0  0999 V2000
   -1.4645    0.4234   -0.9585 C   0  0  0  0  0  0  0  0  0  0  0  0
   -0.4125    0.5082   -0.0936 C   0  0  0  0  0  0  0  0  0  0  0  0
   -0.6505    1.1546    1.2188 C   0  0  0  0  0  0  0  0  0  0  0  0
   -1.9512    1.8069    1.3232 C   0  0  0  0  0  0  0  0  0  0  0  0
   -3.0819    1.5058    0.6432 C   0  0  0  0  0  0  0  0  0  0  0  0
   -2.7449    0.9738   -0.6335 C   0  0  0  0  0  0  0  0  0  0  0  0
   -1.3607   -0.0943   -1.9131 H   0  0  0  0  0  0  0  0  0  0  0  0
    0.5248   -0.0347   -0.2275 H   0  0  0  0  0  0  0  0  0  0  0  0
   -3.4778    1.1049   -1.4354 H   0  0  0  0  0  0  0  0  0  0  0  0
   -4.0726    1.9154    0.8416 H   0  0  0  0  0  0  0  0  0  0  0  0
   -0.9851    3.5082    3.4706 N   0  0  0  0  0  0  0  0  0  0  0  0
    0.1169    1.0591    2.1804 O   0  0  0  0  0  0  0  0  0  0  0  0
    0.0929    3.2918    3.4797 O   0  0  0  0  0  0  0  0  0  0  0  0
  1  6  1  0  0  0  0
  1  2  2  0  0  0  0
  2  3  1  0  0  0  0
  3  4  1  0  0  0  0
  3 12  2  0  0  0  0
  5 10  1  0  0  0  0
  5  4  1  0  0  0  0
  6  5  1  0  0  0  0
  7  1  1  0  0  0  0
  8  2  1  0  0  0  0
  9  6  1  0  0  0  0
 11 13  2  0  0  0  0
M  RAD  4   4   3   5   2   6   2  11   2
M  END
