Coordinates from ORCA-job o-NO2-Ph+-B3LYPG-aug-cc-pVDZ-scan-d09-49-n400
 OpenBabel10111716033D

 13 12  0  0  0  0  0  0  0  0999 V2000
   -1.4454    0.5145   -0.9433 C   0  0  0  0  0  0  0  0  0  0  0  0
   -0.4795    0.6953    0.0180 C   0  0  0  0  0  0  0  0  0  0  0  0
   -0.8498    1.1869    1.3657 C   0  0  0  0  0  0  0  0  0  0  0  0
   -2.1883    1.6558    1.2907 C   0  0  0  0  0  0  0  0  0  0  0  0
   -3.2576    1.3731    0.5359 C   0  0  0  0  0  0  0  0  0  0  0  0
   -2.7949    0.8785   -0.7253 C   0  0  0  0  0  0  0  0  0  0  0  0
   -1.1824    0.0537   -1.8965 H   0  0  0  0  0  0  0  0  0  0  0  0
    0.5213    0.2618   -0.0506 H   0  0  0  0  0  0  0  0  0  0  0  0
   -3.4950    0.9428   -1.5616 H   0  0  0  0  0  0  0  0  0  0  0  0
   -4.2717    1.7530    0.6606 H   0  0  0  0  0  0  0  0  0  0  0  0
   -0.3724    3.7240    3.4635 N   0  0  0  0  0  0  0  0  0  0  0  0
   -0.1086    1.0719    2.3639 O   0  0  0  0  0  0  0  0  0  0  0  0
    0.4572    3.0121    3.3750 O   0  0  0  0  0  0  0  0  0  0  0  0
  1  6  1  0  0  0  0
  1  2  2  0  0  0  0
  2  3  1  0  0  0  0
  3 12  2  0  0  0  0
  4  3  1  0  0  0  0
  5 10  1  0  0  0  0
  5  4  1  0  0  0  0
  6  5  1  0  0  0  0
  7  1  1  0  0  0  0
  8  2  1  0  0  0  0
  9  6  1  0  0  0  0
 13 11  2  0  0  0  0
M  RAD  4   4   3   5   2   6   2  11   2
M  END
