Coordinates from ORCA-job o-NO2-Ph+-B3LYPG-aug-cc-pVDZ-scan-d09-49-n400
 OpenBabel10111716023D

 13 14  0  0  0  0  0  0  0  0999 V2000
   -1.5313    0.4149   -0.7688 C   0  0  0  0  0  0  0  0  0  0  0  0
   -0.4077    0.4858    0.0349 C   0  0  0  0  0  0  0  0  0  0  0  0
   -0.4841    1.2955    1.2036 C   0  0  0  0  0  0  0  0  0  0  0  0
   -1.7352    1.9583    1.4227 C   0  0  0  0  0  0  0  0  0  0  0  0
   -2.8787    1.9032    0.6306 C   0  0  0  0  0  0  0  0  0  0  0  0
   -2.7501    1.1035   -0.4908 C   0  0  0  0  0  0  0  0  0  0  0  0
   -1.4791   -0.2039   -1.6658 H   0  0  0  0  0  0  0  0  0  0  0  0
    0.5166   -0.0429   -0.1857 H   0  0  0  0  0  0  0  0  0  0  0  0
   -3.5928    0.9976   -1.1727 H   0  0  0  0  0  0  0  0  0  0  0  0
   -3.7881    2.4460    0.8817 H   0  0  0  0  0  0  0  0  0  0  0  0
   -1.4479    2.7419    2.7781 N   0  0  0  0  0  0  0  0  0  0  0  0
    0.4498    1.4840    2.0662 O   0  0  0  0  0  0  0  0  0  0  0  0
   -0.3386    2.5394    3.1621 O   0  0  0  0  0  0  0  0  0  0  0  0
  1  6  2  0  0  0  0
  1  2  1  0  0  0  0
  2  3  2  0  0  0  0
  3  4  1  0  0  0  0
  3 12  1  0  0  0  0
  4 11  1  0  0  0  0
  5 10  1  0  0  0  0
  5  4  2  0  0  0  0
  6  5  1  0  0  0  0
  7  1  1  0  0  0  0
  8  2  1  0  0  0  0
  9  6  1  0  0  0  0
 11 13  1  0  0  0  0
 12 13  1  0  0  0  0
M  RAD  1  11   2
M  END
