Coordinates from ORCA-job o-NO2-Ph+-B3LYPG-aug-cc-pVDZ-scan-d09-49-n400
 OpenBabel10111716033D

 13 12  0  0  0  0  0  0  0  0999 V2000
   -1.5083    0.3817   -0.9321 C   0  0  0  0  0  0  0  0  0  0  0  0
   -0.3921    0.3882   -0.1488 C   0  0  0  0  0  0  0  0  0  0  0  0
   -0.4410    1.1080    1.1594 C   0  0  0  0  0  0  0  0  0  0  0  0
   -1.6641    1.8917    1.4506 C   0  0  0  0  0  0  0  0  0  0  0  0
   -2.8191    1.7236    0.7493 C   0  0  0  0  0  0  0  0  0  0  0  0
   -2.6879    1.0742   -0.5103 C   0  0  0  0  0  0  0  0  0  0  0  0
   -1.5298   -0.1576   -1.8794 H   0  0  0  0  0  0  0  0  0  0  0  0
    0.4979   -0.2071   -0.3605 H   0  0  0  0  0  0  0  0  0  0  0  0
   -3.5132    1.1659   -1.2228 H   0  0  0  0  0  0  0  0  0  0  0  0
   -3.7523    2.2256    1.0108 H   0  0  0  0  0  0  0  0  0  0  0  0
   -1.5740    3.1510    3.1450 N   0  0  0  0  0  0  0  0  0  0  0  0
    0.4357    0.9712    2.0006 O   0  0  0  0  0  0  0  0  0  0  0  0
   -0.5192    3.4068    3.4342 O   0  0  0  0  0  0  0  0  0  0  0  0
  1  6  1  0  0  0  0
  1  2  2  0  0  0  0
  2  3  1  0  0  0  0
  3  4  1  0  0  0  0
  3 12  2  0  0  0  0
  5 10  1  0  0  0  0
  5  4  1  0  0  0  0
  6  5  2  0  0  0  0
  7  1  1  0  0  0  0
  8  2  1  0  0  0  0
  9  6  1  0  0  0  0
 11 13  2  0  0  0  0
M  RAD  2   4   3  11   2
M  END
