Coordinates from ORCA-job o-NO2-Ph+-B3LYPG-aug-cc-pVDZ-scan-d09-49-n400
 OpenBabel10111716033D

 13 12  0  0  0  0  0  0  0  0999 V2000
   -1.4437    0.4918   -0.9420 C   0  0  0  0  0  0  0  0  0  0  0  0
   -0.4483    0.6495   -0.0112 C   0  0  0  0  0  0  0  0  0  0  0  0
   -0.7979    1.1779    1.3250 C   0  0  0  0  0  0  0  0  0  0  0  0
   -2.1273    1.7048    1.2982 C   0  0  0  0  0  0  0  0  0  0  0  0
   -3.2182    1.4038    0.5760 C   0  0  0  0  0  0  0  0  0  0  0  0
   -2.7786    0.9061   -0.6907 C   0  0  0  0  0  0  0  0  0  0  0  0
   -1.2276    0.0145   -1.8989 H   0  0  0  0  0  0  0  0  0  0  0  0
    0.5364    0.1855   -0.1004 H   0  0  0  0  0  0  0  0  0  0  0  0
   -3.4819    1.0050   -1.5219 H   0  0  0  0  0  0  0  0  0  0  0  0
   -4.2279    1.7896    0.7160 H   0  0  0  0  0  0  0  0  0  0  0  0
   -0.5450    3.6786    3.4422 N   0  0  0  0  0  0  0  0  0  0  0  0
   -0.0650    1.0572    2.3261 O   0  0  0  0  0  0  0  0  0  0  0  0
    0.3578    3.0589    3.3774 O   0  0  0  0  0  0  0  0  0  0  0  0
  1  6  1  0  0  0  0
  1  2  2  0  0  0  0
  2  3  1  0  0  0  0
  3 12  2  0  0  0  0
  4  3  1  0  0  0  0
  5 10  1  0  0  0  0
  5  4  1  0  0  0  0
  6  5  1  0  0  0  0
  7  1  1  0  0  0  0
  8  2  1  0  0  0  0
  9  6  1  0  0  0  0
 13 11  2  0  0  0  0
M  RAD  4   4   3   5   2   6   2  11   2
M  END
