Coordinates from ORCA-job o-NO2-Ph+-B3LYPG-aug-cc-pVDZ-scan-d09-49-n400
 OpenBabel10111716033D

 13 12  0  0  0  0  0  0  0  0999 V2000
   -1.3178    1.2433   -0.6391 C   0  0  0  0  0  0  0  0  0  0  0  0
   -0.6804    1.0743    0.6190 C   0  0  0  0  0  0  0  0  0  0  0  0
   -1.3206    0.9221    2.0280 C   0  0  0  0  0  0  0  0  0  0  0  0
   -2.6152    0.7459    1.5511 C   0  0  0  0  0  0  0  0  0  0  0  0
   -3.3856    0.9263    0.4797 C   0  0  0  0  0  0  0  0  0  0  0  0
   -2.6825    1.1619   -0.7575 C   0  0  0  0  0  0  0  0  0  0  0  0
   -0.6869    1.3997   -1.5163 H   0  0  0  0  0  0  0  0  0  0  0  0
    0.2756    0.5403    0.6571 H   0  0  0  0  0  0  0  0  0  0  0  0
   -3.2339    1.3154   -1.6830 H   0  0  0  0  0  0  0  0  0  0  0  0
   -4.4751    0.9777    0.5577 H   0  0  0  0  0  0  0  0  0  0  0  0
    0.5919    2.9377    1.2334 N   0  0  0  0  0  0  0  0  0  0  0  0
   -0.6421    0.9143    3.0305 O   0  0  0  0  0  0  0  0  0  0  0  0
    0.7054    2.9644    2.3356 O   0  0  0  0  0  0  0  0  0  0  0  0
  1  2  1  0  0  0  0
  2  8  1  0  0  0  0
  2  3  1  0  0  0  0
  3 12  2  0  0  0  0
  4  3  1  0  0  0  0
  5 10  1  0  0  0  0
  5  4  1  0  0  0  0
  6  1  1  0  0  0  0
  6  5  2  0  0  0  0
  7  1  1  0  0  0  0
  9  6  1  0  0  0  0
 11 13  2  0  0  0  0
M  RAD  4   1   2   2   2   4   3  11   2
M  END
