Coordinates from ORCA-job o-NO2-Ph+-B3LYPG-aug-cc-pVDZ-scan-d09-49-n400
 OpenBabel10111716033D

 13 12  0  0  0  0  0  0  0  0999 V2000
   -1.4747    0.4064   -0.9636 C   0  0  0  0  0  0  0  0  0  0  0  0
   -0.4061    0.4597   -0.1198 C   0  0  0  0  0  0  0  0  0  0  0  0
   -0.5945    1.1320    1.1910 C   0  0  0  0  0  0  0  0  0  0  0  0
   -1.8766    1.8278    1.3541 C   0  0  0  0  0  0  0  0  0  0  0  0
   -3.0168    1.5518    0.6701 C   0  0  0  0  0  0  0  0  0  0  0  0
   -2.7301    1.0010   -0.6085 C   0  0  0  0  0  0  0  0  0  0  0  0
   -1.4086   -0.1157   -1.9190 H   0  0  0  0  0  0  0  0  0  0  0  0
    0.5156   -0.1039   -0.2741 H   0  0  0  0  0  0  0  0  0  0  0  0
   -3.4835    1.1306   -1.3916 H   0  0  0  0  0  0  0  0  0  0  0  0
   -3.9956    1.9795    0.8895 H   0  0  0  0  0  0  0  0  0  0  0  0
   -1.1475    3.4512    3.4304 N   0  0  0  0  0  0  0  0  0  0  0  0
    0.2014    1.0301    2.1233 O   0  0  0  0  0  0  0  0  0  0  0  0
   -0.0503    3.3728    3.5142 O   0  0  0  0  0  0  0  0  0  0  0  0
  1  6  1  0  0  0  0
  1  2  2  0  0  0  0
  2  3  1  0  0  0  0
  3  4  1  0  0  0  0
  3 12  2  0  0  0  0
  5 10  1  0  0  0  0
  5  4  1  0  0  0  0
  6  5  1  0  0  0  0
  7  1  1  0  0  0  0
  8  2  1  0  0  0  0
  9  6  1  0  0  0  0
 11 13  2  0  0  0  0
M  RAD  4   4   3   5   2   6   2  11   2
M  END
