Coordinates from ORCA-job o-NO2-Ph+-B3LYPG-aug-cc-pVDZ-scan-d09-49-n400
 OpenBabel10111716033D

 13 12  0  0  0  0  0  0  0  0999 V2000
   -1.3204    1.2452   -0.6388 C   0  0  0  0  0  0  0  0  0  0  0  0
   -0.6834    1.0744    0.6189 C   0  0  0  0  0  0  0  0  0  0  0  0
   -1.3242    0.9258    2.0276 C   0  0  0  0  0  0  0  0  0  0  0  0
   -2.6207    0.7361    1.5496 C   0  0  0  0  0  0  0  0  0  0  0  0
   -3.3896    0.9202    0.4774 C   0  0  0  0  0  0  0  0  0  0  0  0
   -2.6854    1.1604   -0.7583 C   0  0  0  0  0  0  0  0  0  0  0  0
   -0.6895    1.4051   -1.5154 H   0  0  0  0  0  0  0  0  0  0  0  0
    0.2728    0.5411    0.6574 H   0  0  0  0  0  0  0  0  0  0  0  0
   -3.2361    1.3149   -1.6841 H   0  0  0  0  0  0  0  0  0  0  0  0
   -4.4793    0.9697    0.5544 H   0  0  0  0  0  0  0  0  0  0  0  0
    0.6156    2.9394    1.2370 N   0  0  0  0  0  0  0  0  0  0  0  0
   -0.6462    0.9240    3.0306 O   0  0  0  0  0  0  0  0  0  0  0  0
    0.7191    2.9669    2.3397 O   0  0  0  0  0  0  0  0  0  0  0  0
  1  2  1  0  0  0  0
  2  8  1  0  0  0  0
  2  3  1  0  0  0  0
  3 12  2  0  0  0  0
  4  3  1  0  0  0  0
  5 10  1  0  0  0  0
  5  4  1  0  0  0  0
  6  1  1  0  0  0  0
  6  5  2  0  0  0  0
  7  1  1  0  0  0  0
  9  6  1  0  0  0  0
 11 13  2  0  0  0  0
M  RAD  4   1   2   2   2   4   3  11   2
M  END
