Coordinates from ORCA-job o-NO2-Ph+-B3LYPG-aug-cc-pVDZ-scan-d09-49-n400
 OpenBabel10111716023D

 13 12  0  0  0  0  0  0  0  0999 V2000
   -1.4854    0.4644   -0.6651 C   0  0  0  0  0  0  0  0  0  0  0  0
   -0.2292    0.3257   -0.0923 C   0  0  0  0  0  0  0  0  0  0  0  0
    0.2885    0.8786    1.0567 C   0  0  0  0  0  0  0  0  0  0  0  0
   -2.1305    2.3623    1.7841 C   0  0  0  0  0  0  0  0  0  0  0  0
   -2.9800    2.0010    0.7128 C   0  0  0  0  0  0  0  0  0  0  0  0
   -2.6817    1.1784   -0.3382 C   0  0  0  0  0  0  0  0  0  0  0  0
   -1.5740   -0.1142   -1.5877 H   0  0  0  0  0  0  0  0  0  0  0  0
    0.5112   -0.3125   -0.5869 H   0  0  0  0  0  0  0  0  0  0  0  0
   -3.4866    1.0327   -1.0583 H   0  0  0  0  0  0  0  0  0  0  0  0
   -3.9802    2.4386    0.7485 H   0  0  0  0  0  0  0  0  0  0  0  0
   -1.6204    2.6281    2.5022 N   0  0  0  0  0  0  0  0  0  0  0  0
    0.8205    1.2785    1.9798 O   0  0  0  0  0  0  0  0  0  0  0  0
   -0.9194    2.9617    3.4404 O   0  0  0  0  0  0  0  0  0  0  0  0
  1  6  1  0  0  0  0
  1  2  2  0  0  0  0
  2  3  1  0  0  0  0
  3 12  1  0  0  0  0
  4 11  1  0  0  0  0
  5 10  1  0  0  0  0
  5  4  1  0  0  0  0
  6  5  2  0  0  0  0
  7  1  1  0  0  0  0
  8  2  1  0  0  0  0
  9  6  1  0  0  0  0
 11 13  1  0  0  0  0
M  RAD  5   3   3   4   3  11   2  12   2  13   2
M  END
