Coordinates from ORCA-job o-NO2-Ph+-B3LYPG-aug-cc-pVDZ-scan-d09-49-n400
 OpenBabel10111716033D

 13 12  0  0  0  0  0  0  0  0999 V2000
   -1.5436    0.8137   -0.9391 C   0  0  0  0  0  0  0  0  0  0  0  0
   -0.7558    0.9094    0.1899 C   0  0  0  0  0  0  0  0  0  0  0  0
   -1.1562    1.1209    1.6448 C   0  0  0  0  0  0  0  0  0  0  0  0
   -2.4987    1.1293    1.3861 C   0  0  0  0  0  0  0  0  0  0  0  0
   -3.4659    1.0791    0.4576 C   0  0  0  0  0  0  0  0  0  0  0  0
   -2.9404    0.8933   -0.8460 C   0  0  0  0  0  0  0  0  0  0  0  0
   -1.0595    0.6580   -1.9034 H   0  0  0  0  0  0  0  0  0  0  0  0
    0.3252    0.7414    0.1787 H   0  0  0  0  0  0  0  0  0  0  0  0
   -3.6120    0.8466   -1.7014 H   0  0  0  0  0  0  0  0  0  0  0  0
   -4.5254    1.2135    0.6785 H   0  0  0  0  0  0  0  0  0  0  0  0
    1.2406    3.7155    2.7947 N   0  0  0  0  0  0  0  0  0  0  0  0
   -0.3417    1.1402    2.5832 O   0  0  0  0  0  0  0  0  0  0  0  0
    0.8661    2.8624    3.3725 O   0  0  0  0  0  0  0  0  0  0  0  0
  1  6  1  0  0  0  0
  1  2  2  0  0  0  0
  2  3  1  0  0  0  0
  3 12  2  0  0  0  0
  4  3  1  0  0  0  0
  5 10  1  0  0  0  0
  5  4  2  0  0  0  0
  6  5  1  0  0  0  0
  7  1  1  0  0  0  0
  8  2  1  0  0  0  0
  9  6  1  0  0  0  0
 11 13  2  0  0  0  0
M  RAD  3   4   2   6   2  11   2
M  END
