Coordinates from ORCA-job o-NO2-Ph+-B3LYPG-aug-cc-pVDZ-scan-d09-49-n400
 OpenBabel10111716033D

 13 12  0  0  0  0  0  0  0  0999 V2000
   -1.4441    0.4950   -0.9424 C   0  0  0  0  0  0  0  0  0  0  0  0
   -0.4538    0.6585   -0.0064 C   0  0  0  0  0  0  0  0  0  0  0  0
   -0.8080    1.1813    1.3311 C   0  0  0  0  0  0  0  0  0  0  0  0
   -2.1394    1.6978    1.2951 C   0  0  0  0  0  0  0  0  0  0  0  0
   -3.2264    1.3979    0.5679 C   0  0  0  0  0  0  0  0  0  0  0  0
   -2.7821    0.8998   -0.6973 C   0  0  0  0  0  0  0  0  0  0  0  0
   -1.2196    0.0195   -1.8982 H   0  0  0  0  0  0  0  0  0  0  0  0
    0.5341    0.2003   -0.0914 H   0  0  0  0  0  0  0  0  0  0  0  0
   -3.4847    0.9921   -1.5297 H   0  0  0  0  0  0  0  0  0  0  0  0
   -4.2373    1.7822    0.7044 H   0  0  0  0  0  0  0  0  0  0  0  0
   -0.5107    3.6873    3.4522 N   0  0  0  0  0  0  0  0  0  0  0  0
   -0.0743    1.0618    2.3324 O   0  0  0  0  0  0  0  0  0  0  0  0
    0.3789    3.0498    3.3783 O   0  0  0  0  0  0  0  0  0  0  0  0
  1  6  1  0  0  0  0
  1  2  2  0  0  0  0
  2  3  1  0  0  0  0
  3 12  2  0  0  0  0
  4  3  1  0  0  0  0
  5 10  1  0  0  0  0
  5  4  1  0  0  0  0
  6  5  1  0  0  0  0
  7  1  1  0  0  0  0
  8  2  1  0  0  0  0
  9  6  1  0  0  0  0
 13 11  2  0  0  0  0
M  RAD  4   4   3   5   2   6   2  11   2
M  END
