Coordinates from ORCA-job o-NO2-Ph+-B3LYPG-aug-cc-pVDZ-scan-d09-49-n400
 OpenBabel10111716033D

 13 12  0  0  0  0  0  0  0  0999 V2000
   -1.4539    0.4498   -0.9510 C   0  0  0  0  0  0  0  0  0  0  0  0
   -0.4274    0.5802   -0.0560 C   0  0  0  0  0  0  0  0  0  0  0  0
   -0.7270    1.1795    1.2624 C   0  0  0  0  0  0  0  0  0  0  0  0
   -2.0462    1.7707    1.2914 C   0  0  0  0  0  0  0  0  0  0  0  0
   -3.1600    1.4519    0.6039 C   0  0  0  0  0  0  0  0  0  0  0  0
   -2.7648    0.9333   -0.6658 C   0  0  0  0  0  0  0  0  0  0  0  0
   -1.2949   -0.0570   -1.9039 H   0  0  0  0  0  0  0  0  0  0  0  0
    0.5339    0.0742   -0.1647 H   0  0  0  0  0  0  0  0  0  0  0  0
   -3.4787    1.0504   -1.4863 H   0  0  0  0  0  0  0  0  0  0  0  0
   -4.1629    1.8452    0.7707 H   0  0  0  0  0  0  0  0  0  0  0  0
   -0.7551    3.5913    3.5081 N   0  0  0  0  0  0  0  0  0  0  0  0
    0.0126    1.0795    2.2531 O   0  0  0  0  0  0  0  0  0  0  0  0
    0.2573    3.1745    3.4340 O   0  0  0  0  0  0  0  0  0  0  0  0
  1  6  1  0  0  0  0
  1  2  2  0  0  0  0
  2  3  1  0  0  0  0
  3  4  1  0  0  0  0
  3 12  2  0  0  0  0
  5 10  1  0  0  0  0
  5  4  1  0  0  0  0
  6  5  1  0  0  0  0
  7  1  1  0  0  0  0
  8  2  1  0  0  0  0
  9  6  1  0  0  0  0
 13 11  2  0  0  0  0
M  RAD  4   4   3   5   2   6   2  11   2
M  END
