Coordinates from ORCA-job o-NO2-Ph+-B3LYPG-aug-cc-pVDZ-scan-d09-49-n400
 OpenBabel10111716033D

 13 12  0  0  0  0  0  0  0  0999 V2000
   -1.4453    0.5127   -0.9432 C   0  0  0  0  0  0  0  0  0  0  0  0
   -0.4774    0.6927    0.0160 C   0  0  0  0  0  0  0  0  0  0  0  0
   -0.8468    1.1869    1.3627 C   0  0  0  0  0  0  0  0  0  0  0  0
   -2.1848    1.6595    1.2906 C   0  0  0  0  0  0  0  0  0  0  0  0
   -3.2556    1.3749    0.5382 C   0  0  0  0  0  0  0  0  0  0  0  0
   -2.7941    0.8797   -0.7232 C   0  0  0  0  0  0  0  0  0  0  0  0
   -1.1852    0.0506   -1.8965 H   0  0  0  0  0  0  0  0  0  0  0  0
    0.5224    0.2573   -0.0538 H   0  0  0  0  0  0  0  0  0  0  0  0
   -3.4943    0.9462   -1.5593 H   0  0  0  0  0  0  0  0  0  0  0  0
   -4.2695    1.7550    0.6635 H   0  0  0  0  0  0  0  0  0  0  0  0
   -0.3821    3.7214    3.4641 N   0  0  0  0  0  0  0  0  0  0  0  0
   -0.1065    1.0716    2.3614 O   0  0  0  0  0  0  0  0  0  0  0  0
    0.4520    3.0148    3.3755 O   0  0  0  0  0  0  0  0  0  0  0  0
  1  6  1  0  0  0  0
  1  2  2  0  0  0  0
  2  3  1  0  0  0  0
  3 12  2  0  0  0  0
  4  3  1  0  0  0  0
  5 10  1  0  0  0  0
  5  4  1  0  0  0  0
  6  5  1  0  0  0  0
  7  1  1  0  0  0  0
  8  2  1  0  0  0  0
  9  6  1  0  0  0  0
 13 11  2  0  0  0  0
M  RAD  4   4   3   5   2   6   2  11   2
M  END
