Coordinates from ORCA-job o-NO2-Ph+-B3LYPG-aug-cc-pVDZ-scan-d09-49-n400
 OpenBabel10111716033D

 13 13  0  0  0  0  0  0  0  0999 V2000
   -1.5474    0.4078   -0.7895 C   0  0  0  0  0  0  0  0  0  0  0  0
   -0.4353    0.4888    0.0221 C   0  0  0  0  0  0  0  0  0  0  0  0
   -0.4636    1.3001    1.2232 C   0  0  0  0  0  0  0  0  0  0  0  0
   -1.7350    1.9223    1.3690 C   0  0  0  0  0  0  0  0  0  0  0  0
   -2.8780    1.8891    0.6099 C   0  0  0  0  0  0  0  0  0  0  0  0
   -2.7623    1.0868   -0.5233 C   0  0  0  0  0  0  0  0  0  0  0  0
   -1.4769   -0.2158   -1.6824 H   0  0  0  0  0  0  0  0  0  0  0  0
    0.4988   -0.0321   -0.1806 H   0  0  0  0  0  0  0  0  0  0  0  0
   -3.6143    0.9916   -1.1951 H   0  0  0  0  0  0  0  0  0  0  0  0
   -3.7839    2.4357    0.8687 H   0  0  0  0  0  0  0  0  0  0  0  0
   -1.4175    2.8015    2.8864 N   0  0  0  0  0  0  0  0  0  0  0  0
    0.4940    1.4447    2.0347 O   0  0  0  0  0  0  0  0  0  0  0  0
   -0.3456    2.6028    3.2529 O   0  0  0  0  0  0  0  0  0  0  0  0
  1  6  1  0  0  0  0
  1  2  2  0  0  0  0
  2  3  1  0  0  0  0
  3  4  1  0  0  0  0
  3 12  2  0  0  0  0
  4 11  1  0  0  0  0
  5 10  1  0  0  0  0
  5  4  2  0  0  0  0
  6  5  1  0  0  0  0
  7  1  1  0  0  0  0
  8  2  1  0  0  0  0
  9  6  1  0  0  0  0
 11 13  1  0  0  0  0
M  RAD  3   6   2  11   2  13   2
M  END
