Coordinates from ORCA-job o-NO2-Ph+-B3LYPG-aug-cc-pVDZ-scan-d09-49-n400
 OpenBabel10111716023D

 13 12  0  0  0  0  0  0  0  0999 V2000
   -1.5065    0.4441   -0.7091 C   0  0  0  0  0  0  0  0  0  0  0  0
   -0.2576    0.3272   -0.1089 C   0  0  0  0  0  0  0  0  0  0  0  0
    0.2572    0.8793    1.0395 C   0  0  0  0  0  0  0  0  0  0  0  0
   -2.0688    2.2849    1.7063 C   0  0  0  0  0  0  0  0  0  0  0  0
   -2.9636    1.9712    0.6788 C   0  0  0  0  0  0  0  0  0  0  0  0
   -2.7000    1.1495   -0.3915 C   0  0  0  0  0  0  0  0  0  0  0  0
   -1.5748   -0.1405   -1.6293 H   0  0  0  0  0  0  0  0  0  0  0  0
    0.4977   -0.3055   -0.5895 H   0  0  0  0  0  0  0  0  0  0  0  0
   -3.5144    1.0134   -1.1022 H   0  0  0  0  0  0  0  0  0  0  0  0
   -3.9547    2.4294    0.7511 H   0  0  0  0  0  0  0  0  0  0  0  0
   -1.5751    2.7304    2.6819 N   0  0  0  0  0  0  0  0  0  0  0  0
    0.8572    1.2334    1.9435 O   0  0  0  0  0  0  0  0  0  0  0  0
   -0.9638    3.1066    3.6256 O   0  0  0  0  0  0  0  0  0  0  0  0
  1  6  1  0  0  0  0
  1  2  2  0  0  0  0
  2  3  1  0  0  0  0
  3 12  1  0  0  0  0
  4 11  1  0  0  0  0
  5 10  1  0  0  0  0
  5  4  1  0  0  0  0
  6  5  2  0  0  0  0
  7  1  1  0  0  0  0
  8  2  1  0  0  0  0
  9  6  1  0  0  0  0
 11 13  1  0  0  0  0
M  RAD  5   3   3   4   3  11   2  12   2  13   2
M  END
