Coordinates from ORCA-job o-NO2-Ph+-B3LYPG-aug-cc-pVDZ-scan-d09-49-n400
 OpenBabel10111716033D

 13 12  0  0  0  0  0  0  0  0999 V2000
   -1.5012    0.3828   -0.9487 C   0  0  0  0  0  0  0  0  0  0  0  0
   -0.3950    0.3905   -0.1539 C   0  0  0  0  0  0  0  0  0  0  0  0
   -0.4700    1.0987    1.1582 C   0  0  0  0  0  0  0  0  0  0  0  0
   -1.7007    1.8734    1.4362 C   0  0  0  0  0  0  0  0  0  0  0  0
   -2.8535    1.6848    0.7327 C   0  0  0  0  0  0  0  0  0  0  0  0
   -2.6952    1.0585   -0.5328 C   0  0  0  0  0  0  0  0  0  0  0  0
   -1.5091   -0.1488   -1.9007 H   0  0  0  0  0  0  0  0  0  0  0  0
    0.5012   -0.1977   -0.3584 H   0  0  0  0  0  0  0  0  0  0  0  0
   -3.5087    1.1574   -1.2580 H   0  0  0  0  0  0  0  0  0  0  0  0
   -3.7967    2.1710    0.9868 H   0  0  0  0  0  0  0  0  0  0  0  0
   -1.5001    3.2504    3.2340 N   0  0  0  0  0  0  0  0  0  0  0  0
    0.3917    0.9620    2.0164 O   0  0  0  0  0  0  0  0  0  0  0  0
   -0.4300    3.4403    3.4840 O   0  0  0  0  0  0  0  0  0  0  0  0
  1  6  1  0  0  0  0
  1  2  2  0  0  0  0
  2  3  1  0  0  0  0
  3  4  1  0  0  0  0
  3 12  2  0  0  0  0
  5 10  1  0  0  0  0
  5  4  1  0  0  0  0
  6  5  2  0  0  0  0
  7  1  1  0  0  0  0
  8  2  1  0  0  0  0
  9  6  1  0  0  0  0
 11 13  2  0  0  0  0
M  RAD  2   4   3  11   2
M  END
