Coordinates from ORCA-job o-NO2-Ph+-B3LYPG-aug-cc-pVDZ-scan-d09-49-n400
 OpenBabel10111716033D

 13 12  0  0  0  0  0  0  0  0999 V2000
   -1.3077    1.2356   -0.6395 C   0  0  0  0  0  0  0  0  0  0  0  0
   -0.6672    1.0743    0.6192 C   0  0  0  0  0  0  0  0  0  0  0  0
   -1.3051    0.9086    2.0311 C   0  0  0  0  0  0  0  0  0  0  0  0
   -2.6071    0.7778    1.5579 C   0  0  0  0  0  0  0  0  0  0  0  0
   -3.3782    0.9481    0.4869 C   0  0  0  0  0  0  0  0  0  0  0  0
   -2.6729    1.1676   -0.7535 C   0  0  0  0  0  0  0  0  0  0  0  0
   -0.6774    1.3769   -1.5197 H   0  0  0  0  0  0  0  0  0  0  0  0
    0.2894    0.5407    0.6567 H   0  0  0  0  0  0  0  0  0  0  0  0
   -3.2249    1.3180   -1.6791 H   0  0  0  0  0  0  0  0  0  0  0  0
   -4.4674    1.0056    0.5647 H   0  0  0  0  0  0  0  0  0  0  0  0
    0.5118    2.9353    1.2220 N   0  0  0  0  0  0  0  0  0  0  0  0
   -0.6200    0.8784    3.0276 O   0  0  0  0  0  0  0  0  0  0  0  0
    0.6594    2.9564    2.3217 O   0  0  0  0  0  0  0  0  0  0  0  0
  1  2  1  0  0  0  0
  2  8  1  0  0  0  0
  2  3  1  0  0  0  0
  3 12  2  0  0  0  0
  4  3  1  0  0  0  0
  5 10  1  0  0  0  0
  5  4  2  0  0  0  0
  6  1  2  0  0  0  0
  6  5  1  0  0  0  0
  7  1  1  0  0  0  0
  9  6  1  0  0  0  0
 11 13  2  0  0  0  0
M  RAD  3   2   2   4   2  11   2
M  END
