Coordinates from ORCA-job o-NO2-Ph+-B3LYPG-aug-cc-pVDZ-scan-d09-49-n400
 OpenBabel10111716033D

 13 12  0  0  0  0  0  0  0  0999 V2000
   -1.4795    0.4006   -0.9646 C   0  0  0  0  0  0  0  0  0  0  0  0
   -0.4042    0.4425   -0.1294 C   0  0  0  0  0  0  0  0  0  0  0  0
   -0.5712    1.1226    1.1821 C   0  0  0  0  0  0  0  0  0  0  0  0
   -1.8446    1.8345    1.3682 C   0  0  0  0  0  0  0  0  0  0  0  0
   -2.9881    1.5723    0.6810 C   0  0  0  0  0  0  0  0  0  0  0  0
   -2.7240    1.0116   -0.5973 C   0  0  0  0  0  0  0  0  0  0  0  0
   -1.4278   -0.1227   -1.9201 H   0  0  0  0  0  0  0  0  0  0  0  0
    0.5116   -0.1281   -0.2927 H   0  0  0  0  0  0  0  0  0  0  0  0
   -3.4873    1.1384   -1.3712 H   0  0  0  0  0  0  0  0  0  0  0  0
   -3.9611    2.0093    0.9082 H   0  0  0  0  0  0  0  0  0  0  0  0
   -1.2133    3.4274    3.4085 N   0  0  0  0  0  0  0  0  0  0  0  0
    0.2375    1.0150    2.1008 O   0  0  0  0  0  0  0  0  0  0  0  0
   -0.1151    3.4000    3.5226 O   0  0  0  0  0  0  0  0  0  0  0  0
  1  6  1  0  0  0  0
  1  2  2  0  0  0  0
  2  3  1  0  0  0  0
  3  4  1  0  0  0  0
  3 12  2  0  0  0  0
  5 10  1  0  0  0  0
  5  4  1  0  0  0  0
  6  5  1  0  0  0  0
  7  1  1  0  0  0  0
  8  2  1  0  0  0  0
  9  6  1  0  0  0  0
 11 13  2  0  0  0  0
M  RAD  4   4   3   5   2   6   2  11   2
M  END
