Coordinates from ORCA-job o-NO2-Ph+-B3LYPG-aug-cc-pVDZ-scan-d09-49-n400
 OpenBabel10111716033D

 13 12  0  0  0  0  0  0  0  0999 V2000
   -1.4960    0.3852   -0.9558 C   0  0  0  0  0  0  0  0  0  0  0  0
   -0.3971    0.3986   -0.1518 C   0  0  0  0  0  0  0  0  0  0  0  0
   -0.4933    1.1000    1.1612 C   0  0  0  0  0  0  0  0  0  0  0  0
   -1.7325    1.8636    1.4221 C   0  0  0  0  0  0  0  0  0  0  0  0
   -2.8835    1.6575    0.7203 C   0  0  0  0  0  0  0  0  0  0  0  0
   -2.7018    1.0472   -0.5488 C   0  0  0  0  0  0  0  0  0  0  0  0
   -1.4914   -0.1433   -1.9096 H   0  0  0  0  0  0  0  0  0  0  0  0
    0.5037   -0.1854   -0.3478 H   0  0  0  0  0  0  0  0  0  0  0  0
   -3.5042    1.1523   -1.2855 H   0  0  0  0  0  0  0  0  0  0  0  0
   -3.8340    2.1319    0.9686 H   0  0  0  0  0  0  0  0  0  0  0  0
   -1.4374    3.3046    3.2852 N   0  0  0  0  0  0  0  0  0  0  0  0
    0.3572    0.9686    2.0328 O   0  0  0  0  0  0  0  0  0  0  0  0
   -0.3568    3.4425    3.5050 O   0  0  0  0  0  0  0  0  0  0  0  0
  1  6  1  0  0  0  0
  1  2  2  0  0  0  0
  2  3  1  0  0  0  0
  3  4  1  0  0  0  0
  3 12  2  0  0  0  0
  5 10  1  0  0  0  0
  5  4  1  0  0  0  0
  6  5  1  0  0  0  0
  7  1  1  0  0  0  0
  8  2  1  0  0  0  0
  9  6  1  0  0  0  0
 11 13  2  0  0  0  0
M  RAD  4   4   3   5   2   6   2  11   2
M  END
