Coordinates from ORCA-job o-NO2-Ph+-B3LYPG-aug-cc-pVDZ-scan-d09-49-n400
 OpenBabel10111716033D

 13 12  0  0  0  0  0  0  0  0999 V2000
   -1.4460    0.5243   -0.9436 C   0  0  0  0  0  0  0  0  0  0  0  0
   -0.4909    0.7085    0.0290 C   0  0  0  0  0  0  0  0  0  0  0  0
   -0.8651    1.1856    1.3826 C   0  0  0  0  0  0  0  0  0  0  0  0
   -2.2058    1.6344    1.2924 C   0  0  0  0  0  0  0  0  0  0  0  0
   -3.2675    1.3643    0.5239 C   0  0  0  0  0  0  0  0  0  0  0  0
   -2.7994    0.8727   -0.7366 C   0  0  0  0  0  0  0  0  0  0  0  0
   -1.1671    0.0718   -1.8962 H   0  0  0  0  0  0  0  0  0  0  0  0
    0.5146    0.2847   -0.0333 H   0  0  0  0  0  0  0  0  0  0  0  0
   -3.4990    0.9255   -1.5737 H   0  0  0  0  0  0  0  0  0  0  0  0
   -4.2823    1.7429    0.6461 H   0  0  0  0  0  0  0  0  0  0  0  0
   -0.3229    3.7377    3.4559 N   0  0  0  0  0  0  0  0  0  0  0  0
   -0.1190    1.0724    2.3777 O   0  0  0  0  0  0  0  0  0  0  0  0
    0.4831    2.9985    3.3719 O   0  0  0  0  0  0  0  0  0  0  0  0
  1  6  1  0  0  0  0
  1  2  2  0  0  0  0
  2  3  1  0  0  0  0
  3 12  2  0  0  0  0
  4  3  1  0  0  0  0
  5 10  1  0  0  0  0
  5  4  1  0  0  0  0
  6  5  2  0  0  0  0
  7  1  1  0  0  0  0
  8  2  1  0  0  0  0
  9  6  1  0  0  0  0
 13 11  2  0  0  0  0
M  RAD  2   4   3  11   2
M  END
