Coordinates from ORCA-job o-NO2-Ph+-B3LYPG-aug-cc-pVDZ-scan-d09-49-n400
 OpenBabel10111716023D

 13 14  0  0  0  0  0  0  0  0999 V2000
   -1.5352    0.4131   -0.7740 C   0  0  0  0  0  0  0  0  0  0  0  0
   -0.4146    0.4864    0.0314 C   0  0  0  0  0  0  0  0  0  0  0  0
   -0.4785    1.2965    1.2086 C   0  0  0  0  0  0  0  0  0  0  0  0
   -1.7360    1.9492    1.4087 C   0  0  0  0  0  0  0  0  0  0  0  0
   -2.8789    1.8998    0.6254 C   0  0  0  0  0  0  0  0  0  0  0  0
   -2.7529    1.0993   -0.4989 C   0  0  0  0  0  0  0  0  0  0  0  0
   -1.4787   -0.2069   -1.6700 H   0  0  0  0  0  0  0  0  0  0  0  0
    0.5120   -0.0406   -0.1851 H   0  0  0  0  0  0  0  0  0  0  0  0
   -3.5978    0.9958   -1.1784 H   0  0  0  0  0  0  0  0  0  0  0  0
   -3.7874    2.4435    0.8783 H   0  0  0  0  0  0  0  0  0  0  0  0
   -1.4393    2.7574    2.8067 N   0  0  0  0  0  0  0  0  0  0  0  0
    0.4619    1.4729    2.0570 O   0  0  0  0  0  0  0  0  0  0  0  0
   -0.3419    2.5569    3.1865 O   0  0  0  0  0  0  0  0  0  0  0  0
  1  6  2  0  0  0  0
  1  2  1  0  0  0  0
  2  3  2  0  0  0  0
  3  4  1  0  0  0  0
  3 12  1  0  0  0  0
  4 11  1  0  0  0  0
  5 10  1  0  0  0  0
  5  4  2  0  0  0  0
  6  5  1  0  0  0  0
  7  1  1  0  0  0  0
  8  2  1  0  0  0  0
  9  6  1  0  0  0  0
 11 13  1  0  0  0  0
 12 13  1  0  0  0  0
M  RAD  1  11   2
M  END
