Coordinates from ORCA-job o-NO2-Ph+-B3LYPG-aug-cc-pVDZ-scan-d09-49-n400
 OpenBabel10111716023D

 13 12  0  0  0  0  0  0  0  0999 V2000
   -1.5017    0.4506   -0.6963 C   0  0  0  0  0  0  0  0  0  0  0  0
   -0.2513    0.3304   -0.1001 C   0  0  0  0  0  0  0  0  0  0  0  0
    0.2647    0.8818    1.0476 C   0  0  0  0  0  0  0  0  0  0  0  0
   -2.1081    2.3150    1.7263 C   0  0  0  0  0  0  0  0  0  0  0  0
   -2.9780    1.9797    0.6824 C   0  0  0  0  0  0  0  0  0  0  0  0
   -2.6975    1.1556   -0.3809 C   0  0  0  0  0  0  0  0  0  0  0  0
   -1.5715   -0.1336   -1.6166 H   0  0  0  0  0  0  0  0  0  0  0  0
    0.5013   -0.3033   -0.5834 H   0  0  0  0  0  0  0  0  0  0  0  0
   -3.5071    1.0142   -1.0962 H   0  0  0  0  0  0  0  0  0  0  0  0
   -3.9744    2.4280    0.7362 H   0  0  0  0  0  0  0  0  0  0  0  0
   -1.5681    2.7004    2.6417 N   0  0  0  0  0  0  0  0  0  0  0  0
    0.8503    1.2457    1.9564 O   0  0  0  0  0  0  0  0  0  0  0  0
   -0.9259    3.0588    3.5788 O   0  0  0  0  0  0  0  0  0  0  0  0
  1  6  1  0  0  0  0
  1  2  2  0  0  0  0
  2  3  1  0  0  0  0
  3 12  1  0  0  0  0
  4 11  1  0  0  0  0
  5 10  1  0  0  0  0
  5  4  1  0  0  0  0
  6  5  2  0  0  0  0
  7  1  1  0  0  0  0
  8  2  1  0  0  0  0
  9  6  1  0  0  0  0
 11 13  1  0  0  0  0
M  RAD  5   3   3   4   3  11   2  12   2  13   2
M  END
