Coordinates from ORCA-job o-NO2-Ph+-B3LYPG-aug-cc-pVDZ-scan-d09-49-n400
 OpenBabel10111716033D

 13 12  0  0  0  0  0  0  0  0999 V2000
   -1.4348    1.0357   -0.7949 C   0  0  0  0  0  0  0  0  0  0  0  0
   -0.7299    1.0004    0.4025 C   0  0  0  0  0  0  0  0  0  0  0  0
   -1.2497    1.0234    1.8335 C   0  0  0  0  0  0  0  0  0  0  0  0
   -2.5783    0.9275    1.4834 C   0  0  0  0  0  0  0  0  0  0  0  0
   -3.4564    0.9779    0.4769 C   0  0  0  0  0  0  0  0  0  0  0  0
   -2.8281    1.0132   -0.8032 C   0  0  0  0  0  0  0  0  0  0  0  0
   -0.8741    1.0406   -1.7303 H   0  0  0  0  0  0  0  0  0  0  0  0
    0.3311    0.7381    0.4380 H   0  0  0  0  0  0  0  0  0  0  0  0
   -3.4357    1.0733   -1.7044 H   0  0  0  0  0  0  0  0  0  0  0  0
   -4.5332    1.0796    0.6239 H   0  0  0  0  0  0  0  0  0  0  0  0
    1.0530    3.3132    1.9394 N   0  0  0  0  0  0  0  0  0  0  0  0
   -0.5024    1.0103    2.8183 O   0  0  0  0  0  0  0  0  0  0  0  0
    0.7712    2.8902    2.9130 O   0  0  0  0  0  0  0  0  0  0  0  0
  1  2  2  0  0  0  0
  2  8  1  0  0  0  0
  2  3  1  0  0  0  0
  3 12  2  0  0  0  0
  4  3  1  0  0  0  0
  5 10  1  0  0  0  0
  5  4  2  0  0  0  0
  6  1  1  0  0  0  0
  6  5  1  0  0  0  0
  7  1  1  0  0  0  0
  9  6  1  0  0  0  0
 11 13  2  0  0  0  0
M  RAD  3   4   2   6   2  11   2
M  END
