Coordinates from ORCA-job o-NO2-Ph+-B3LYPG-aug-cc-pVDZ-scan-d09-49-n400
 OpenBabel10111716033D

 13 12  0  0  0  0  0  0  0  0999 V2000
   -1.3498    1.2440   -0.6516 C   0  0  0  0  0  0  0  0  0  0  0  0
   -0.7228    1.0587    0.6023 C   0  0  0  0  0  0  0  0  0  0  0  0
   -1.3575    0.9546    2.0156 C   0  0  0  0  0  0  0  0  0  0  0  0
   -2.6245    0.6667    1.5243 C   0  0  0  0  0  0  0  0  0  0  0  0
   -3.4058    0.8786    0.4589 C   0  0  0  0  0  0  0  0  0  0  0  0
   -2.7184    1.1425   -0.7739 C   0  0  0  0  0  0  0  0  0  0  0  0
   -0.7184    1.4247   -1.5236 H   0  0  0  0  0  0  0  0  0  0  0  0
    0.2461    0.5525    0.6511 H   0  0  0  0  0  0  0  0  0  0  0  0
   -3.2711    1.3048   -1.6970 H   0  0  0  0  0  0  0  0  0  0  0  0
   -4.4942    0.9242    0.5526 H   0  0  0  0  0  0  0  0  0  0  0  0
    0.8229    2.9634    1.3059 N   0  0  0  0  0  0  0  0  0  0  0  0
   -0.6827    1.0063    3.0227 O   0  0  0  0  0  0  0  0  0  0  0  0
    0.8090    3.0023    2.4089 O   0  0  0  0  0  0  0  0  0  0  0  0
  1  2  1  0  0  0  0
  2  8  1  0  0  0  0
  2  3  1  0  0  0  0
  3 12  2  0  0  0  0
  4  3  1  0  0  0  0
  5 10  1  0  0  0  0
  5  4  1  0  0  0  0
  6  1  1  0  0  0  0
  6  5  2  0  0  0  0
  7  1  1  0  0  0  0
  9  6  1  0  0  0  0
 11 13  2  0  0  0  0
M  RAD  4   1   2   2   2   4   3  11   2
M  END
