Coordinates from ORCA-job o-NO2-Ph+-B3LYPG-aug-cc-pVDZ-scan-d09-49-n400
 OpenBabel10111716033D

 13 12  0  0  0  0  0  0  0  0999 V2000
   -1.3601    1.2344   -0.6609 C   0  0  0  0  0  0  0  0  0  0  0  0
   -0.7328    1.0534    0.5903 C   0  0  0  0  0  0  0  0  0  0  0  0
   -1.3612    0.9627    2.0054 C   0  0  0  0  0  0  0  0  0  0  0  0
   -2.6256    0.6633    1.5180 C   0  0  0  0  0  0  0  0  0  0  0  0
   -3.4130    0.8731    0.4553 C   0  0  0  0  0  0  0  0  0  0  0  0
   -2.7309    1.1321   -0.7794 C   0  0  0  0  0  0  0  0  0  0  0  0
   -0.7309    1.4109   -1.5352 H   0  0  0  0  0  0  0  0  0  0  0  0
    0.2461    0.5680    0.6429 H   0  0  0  0  0  0  0  0  0  0  0  0
   -3.2858    1.2916   -1.7016 H   0  0  0  0  0  0  0  0  0  0  0  0
   -4.5008    0.9211    0.5548 H   0  0  0  0  0  0  0  0  0  0  0  0
    0.8805    2.9844    1.3469 N   0  0  0  0  0  0  0  0  0  0  0  0
   -0.6828    1.0220    3.0114 O   0  0  0  0  0  0  0  0  0  0  0  0
    0.8300    3.0061    2.4482 O   0  0  0  0  0  0  0  0  0  0  0  0
  1  2  1  0  0  0  0
  2  8  1  0  0  0  0
  2  3  1  0  0  0  0
  3 12  2  0  0  0  0
  4  3  1  0  0  0  0
  5 10  1  0  0  0  0
  5  4  1  0  0  0  0
  6  1  1  0  0  0  0
  6  5  2  0  0  0  0
  7  1  1  0  0  0  0
  9  6  1  0  0  0  0
 11 13  2  0  0  0  0
M  RAD  4   1   2   2   2   4   3  11   2
M  END
