Coordinates from ORCA-job o-NO2-Ph+-B3LYPG-aug-cc-pVDZ-scan-d09-49-n400
 OpenBabel10111716033D

 13 12  0  0  0  0  0  0  0  0999 V2000
   -1.3160    1.2423   -0.6387 C   0  0  0  0  0  0  0  0  0  0  0  0
   -0.6776    1.0747    0.6193 C   0  0  0  0  0  0  0  0  0  0  0  0
   -1.3177    0.9200    2.0287 C   0  0  0  0  0  0  0  0  0  0  0  0
   -2.6168    0.7500    1.5527 C   0  0  0  0  0  0  0  0  0  0  0  0
   -3.3860    0.9293    0.4807 C   0  0  0  0  0  0  0  0  0  0  0  0
   -2.6810    1.1629   -0.7565 C   0  0  0  0  0  0  0  0  0  0  0  0
   -0.6853    1.3964   -1.5165 H   0  0  0  0  0  0  0  0  0  0  0  0
    0.2784    0.5406    0.6571 H   0  0  0  0  0  0  0  0  0  0  0  0
   -3.2320    1.3161   -1.6823 H   0  0  0  0  0  0  0  0  0  0  0  0
   -4.4756    0.9813    0.5574 H   0  0  0  0  0  0  0  0  0  0  0  0
    0.5804    2.9379    1.2312 N   0  0  0  0  0  0  0  0  0  0  0  0
   -0.6377    0.9089    3.0299 O   0  0  0  0  0  0  0  0  0  0  0  0
    0.6996    2.9630    2.3330 O   0  0  0  0  0  0  0  0  0  0  0  0
  1  2  1  0  0  0  0
  2  8  1  0  0  0  0
  2  3  1  0  0  0  0
  3 12  2  0  0  0  0
  4  3  1  0  0  0  0
  5 10  1  0  0  0  0
  5  4  1  0  0  0  0
  6  1  1  0  0  0  0
  6  5  2  0  0  0  0
  7  1  1  0  0  0  0
  9  6  1  0  0  0  0
 11 13  2  0  0  0  0
M  RAD  4   1   2   2   2   4   3  11   2
M  END
