Coordinates from ORCA-job o-NO2-Ph+-B3LYPG-aug-cc-pVDZ-scan-d09-49-n400
 OpenBabel10111716033D

 13 13  0  0  1  0  0  0  0  0999 V2000
   -1.5164    0.3866   -0.9027 C   0  0  0  0  0  0  0  0  0  0  0  0
   -0.3893    0.4010   -0.1295 C   0  0  0  0  0  0  0  0  0  0  0  0
   -0.4138    1.1349    1.1706 C   0  0  0  0  0  0  0  0  0  0  0  0
   -1.6371    1.9174    1.4608 C   0  0  1  0  0  0  0  0  0  0  0  0
   -2.7935    1.7691    0.7654 C   0  0  0  0  0  0  0  0  0  0  0  0
   -2.6842    1.0924   -0.4864 C   0  0  0  0  0  0  0  0  0  0  0  0
   -1.5449   -0.1668   -1.8418 H   0  0  0  0  0  0  0  0  0  0  0  0
    0.4927   -0.2065   -0.3400 H   0  0  0  0  0  0  0  0  0  0  0  0
   -3.5171    1.1773   -1.1902 H   0  0  0  0  0  0  0  0  0  0  0  0
   -3.7150    2.2888    1.0343 H   0  0  0  0  0  0  0  0  0  0  0  0
   -1.6318    2.9862    3.0225 N   0  0  0  0  0  0  0  0  0  0  0  0
    0.4775    1.0090    1.9964 O   0  0  0  0  0  0  0  0  0  0  0  0
   -0.5943    3.3339    3.3367 O   0  0  0  0  0  0  0  0  0  0  0  0
  1  6  1  0  0  0  0
  1  2  2  0  0  0  0
  2  3  1  0  0  0  0
  3  4  1  0  0  0  0
  3 12  2  0  0  0  0
  4 11  1  1  0  0  0
  5 10  1  0  0  0  0
  5  4  1  0  0  0  0
  6  5  2  0  0  0  0
  7  1  1  0  0  0  0
  8  2  1  0  0  0  0
  9  6  1  0  0  0  0
 11 13  1  0  0  0  0
M  RAD  3   4   2  11   2  13   2
M  END
