Coordinates from ORCA-job o-NO2-Ph+-B3LYPG-aug-cc-pVDZ-scan-d09-49-n400
 OpenBabel10111716033D

 13 12  0  0  0  0  0  0  0  0999 V2000
   -1.5004    0.3834   -0.9496 C   0  0  0  0  0  0  0  0  0  0  0  0
   -0.3952    0.3916   -0.1535 C   0  0  0  0  0  0  0  0  0  0  0  0
   -0.4730    1.0989    1.1587 C   0  0  0  0  0  0  0  0  0  0  0  0
   -1.7049    1.8721    1.4348 C   0  0  0  0  0  0  0  0  0  0  0  0
   -2.8574    1.6812    0.7314 C   0  0  0  0  0  0  0  0  0  0  0  0
   -2.6959    1.0574   -0.5347 C   0  0  0  0  0  0  0  0  0  0  0  0
   -1.5067   -0.1476   -1.9019 H   0  0  0  0  0  0  0  0  0  0  0  0
    0.5016   -0.1961   -0.3570 H   0  0  0  0  0  0  0  0  0  0  0  0
   -3.5081    1.1569   -1.2613 H   0  0  0  0  0  0  0  0  0  0  0  0
   -3.8017    2.1657    0.9848 H   0  0  0  0  0  0  0  0  0  0  0  0
   -1.4919    3.2563    3.2384 N   0  0  0  0  0  0  0  0  0  0  0  0
    0.3869    0.9622    2.0190 O   0  0  0  0  0  0  0  0  0  0  0  0
   -0.4205    3.4413    3.4868 O   0  0  0  0  0  0  0  0  0  0  0  0
  1  6  1  0  0  0  0
  1  2  2  0  0  0  0
  2  3  1  0  0  0  0
  3  4  1  0  0  0  0
  3 12  2  0  0  0  0
  5 10  1  0  0  0  0
  5  4  1  0  0  0  0
  6  5  2  0  0  0  0
  7  1  1  0  0  0  0
  8  2  1  0  0  0  0
  9  6  1  0  0  0  0
 11 13  2  0  0  0  0
M  RAD  2   4   3  11   2
M  END
