Coordinates from ORCA-job o-NO2-Ph+-B3LYPG-aug-cc-pVDZ-scan-d09-49-n400
 OpenBabel10111716023D

 13 12  0  0  0  0  0  0  0  0999 V2000
   -1.5153    0.4340   -0.7298 C   0  0  0  0  0  0  0  0  0  0  0  0
   -0.2688    0.3200   -0.1267 C   0  0  0  0  0  0  0  0  0  0  0  0
    0.2479    0.8727    1.0239 C   0  0  0  0  0  0  0  0  0  0  0  0
   -1.9502    2.2132    1.6719 C   0  0  0  0  0  0  0  0  0  0  0  0
   -2.9169    1.9578    0.6877 C   0  0  0  0  0  0  0  0  0  0  0  0
   -2.7019    1.1454   -0.3988 C   0  0  0  0  0  0  0  0  0  0  0  0
   -1.5867   -0.1495   -1.6503 H   0  0  0  0  0  0  0  0  0  0  0  0
    0.4897   -0.3118   -0.6040 H   0  0  0  0  0  0  0  0  0  0  0  0
   -3.5307    1.0247   -1.0951 H   0  0  0  0  0  0  0  0  0  0  0  0
   -3.8907    2.4415    0.8090 H   0  0  0  0  0  0  0  0  0  0  0  0
   -1.6349    2.7796    2.7182 N   0  0  0  0  0  0  0  0  0  0  0  0
    0.8943    1.1952    1.9094 O   0  0  0  0  0  0  0  0  0  0  0  0
   -1.1030    3.2005    3.6806 O   0  0  0  0  0  0  0  0  0  0  0  0
  1  6  2  0  0  0  0
  1  2  1  0  0  0  0
  2  3  1  0  0  0  0
  3 12  1  0  0  0  0
  4 11  1  0  0  0  0
  5 10  1  0  0  0  0
  5  4  2  0  0  0  0
  6  5  1  0  0  0  0
  7  1  1  0  0  0  0
  8  2  1  0  0  0  0
  9  6  1  0  0  0  0
 11 13  1  0  0  0  0
M  RAD  6   2   2   3   3   4   2  11   2  12   2  13   2
M  END
