Coordinates from ORCA-job o-NO2-Ph+-B3LYPG-aug-cc-pVDZ-scan-d09-49-n400
 OpenBabel10111716023D

 13 12  0  0  0  0  0  0  0  0999 V2000
   -1.5101    0.4392   -0.7189 C   0  0  0  0  0  0  0  0  0  0  0  0
   -0.2618    0.3229   -0.1180 C   0  0  0  0  0  0  0  0  0  0  0  0
    0.2550    0.8744    1.0309 C   0  0  0  0  0  0  0  0  0  0  0  0
   -2.0190    2.2550    1.6926 C   0  0  0  0  0  0  0  0  0  0  0  0
   -2.9434    1.9650    0.6822 C   0  0  0  0  0  0  0  0  0  0  0  0
   -2.7004    1.1473   -0.3952 C   0  0  0  0  0  0  0  0  0  0  0  0
   -1.5801   -0.1449   -1.6393 H   0  0  0  0  0  0  0  0  0  0  0  0
    0.4942   -0.3097   -0.5980 H   0  0  0  0  0  0  0  0  0  0  0  0
   -3.5212    1.0179   -1.0997 H   0  0  0  0  0  0  0  0  0  0  0  0
   -3.9276    2.4342    0.7754 H   0  0  0  0  0  0  0  0  0  0  0  0
   -1.6004    2.7539    2.7013 N   0  0  0  0  0  0  0  0  0  0  0  0
    0.8732    1.2163    1.9279 O   0  0  0  0  0  0  0  0  0  0  0  0
   -1.0256    3.1518    3.6548 O   0  0  0  0  0  0  0  0  0  0  0  0
  1  6  1  0  0  0  0
  1  2  2  0  0  0  0
  2  3  1  0  0  0  0
  3 12  1  0  0  0  0
  4 11  1  0  0  0  0
  5 10  1  0  0  0  0
  5  4  1  0  0  0  0
  6  5  2  0  0  0  0
  7  1  1  0  0  0  0
  8  2  1  0  0  0  0
  9  6  1  0  0  0  0
 11 13  1  0  0  0  0
M  RAD  5   3   3   4   3  11   2  12   2  13   2
M  END
