Coordinates from ORCA-job o-NO2-Ph+-B3LYPG-aug-cc-pVDZ-scan-d09-49-n400
 OpenBabel10111716023D

 13 12  0  0  0  0  0  0  0  0999 V2000
   -1.5060    0.4450   -0.7076 C   0  0  0  0  0  0  0  0  0  0  0  0
   -0.2568    0.3273   -0.1082 C   0  0  0  0  0  0  0  0  0  0  0  0
    0.2594    0.8787    1.0400 C   0  0  0  0  0  0  0  0  0  0  0  0
   -2.0702    2.2872    1.7089 C   0  0  0  0  0  0  0  0  0  0  0  0
   -2.9640    1.9722    0.6802 C   0  0  0  0  0  0  0  0  0  0  0  0
   -2.6997    1.1506   -0.3897 C   0  0  0  0  0  0  0  0  0  0  0  0
   -1.5747   -0.1395   -1.6278 H   0  0  0  0  0  0  0  0  0  0  0  0
    0.4978   -0.3057   -0.5897 H   0  0  0  0  0  0  0  0  0  0  0  0
   -3.5140    1.0144   -1.1004 H   0  0  0  0  0  0  0  0  0  0  0  0
   -3.9554    2.4299    0.7514 H   0  0  0  0  0  0  0  0  0  0  0  0
   -1.5780    2.7274    2.6756 N   0  0  0  0  0  0  0  0  0  0  0  0
    0.8600    1.2324    1.9437 O   0  0  0  0  0  0  0  0  0  0  0  0
   -0.9656    3.1034    3.6197 O   0  0  0  0  0  0  0  0  0  0  0  0
  1  6  1  0  0  0  0
  1  2  2  0  0  0  0
  2  3  1  0  0  0  0
  3 12  1  0  0  0  0
  4 11  1  0  0  0  0
  5 10  1  0  0  0  0
  5  4  1  0  0  0  0
  6  5  2  0  0  0  0
  7  1  1  0  0  0  0
  8  2  1  0  0  0  0
  9  6  1  0  0  0  0
 11 13  1  0  0  0  0
M  RAD  5   3   3   4   3  11   2  12   2  13   2
M  END
