Coordinates from ORCA-job o-NO2-Ph+-B3LYPG-aug-cc-pVDZ-scan-d09-49-n400
 OpenBabel10111716033D

 13 12  0  0  0  0  0  0  0  0999 V2000
   -1.4498    1.0189   -0.8108 C   0  0  0  0  0  0  0  0  0  0  0  0
   -0.7385    1.0042    0.3819 C   0  0  0  0  0  0  0  0  0  0  0  0
   -1.2496    1.0450    1.8141 C   0  0  0  0  0  0  0  0  0  0  0  0
   -2.5801    0.9420    1.4730 C   0  0  0  0  0  0  0  0  0  0  0  0
   -3.4653    0.9739    0.4713 C   0  0  0  0  0  0  0  0  0  0  0  0
   -2.8441    0.9920   -0.8114 C   0  0  0  0  0  0  0  0  0  0  0  0
   -0.8944    1.0127   -1.7493 H   0  0  0  0  0  0  0  0  0  0  0  0
    0.3263    0.7577    0.4158 H   0  0  0  0  0  0  0  0  0  0  0  0
   -3.4560    1.0384   -1.7105 H   0  0  0  0  0  0  0  0  0  0  0  0
   -4.5413    1.0746    0.6239 H   0  0  0  0  0  0  0  0  0  0  0  0
    1.1236    3.3437    2.0279 N   0  0  0  0  0  0  0  0  0  0  0  0
   -0.4994    1.0364    2.7989 O   0  0  0  0  0  0  0  0  0  0  0  0
    0.8013    2.8838    2.9712 O   0  0  0  0  0  0  0  0  0  0  0  0
  1  2  2  0  0  0  0
  2  8  1  0  0  0  0
  2  3  1  0  0  0  0
  3 12  2  0  0  0  0
  4  3  1  0  0  0  0
  5 10  1  0  0  0  0
  5  4  2  0  0  0  0
  6  1  1  0  0  0  0
  6  5  1  0  0  0  0
  7  1  1  0  0  0  0
  9  6  1  0  0  0  0
 11 13  2  0  0  0  0
M  RAD  3   4   2   6   2  11   2
M  END
