Coordinates from ORCA-job o-NO2-Ph+-B3LYPG-aug-cc-pVDZ-scan-d09-49-n400
 OpenBabel10111716033D

 13 12  0  0  0  0  0  0  0  0999 V2000
   -1.4627    0.4270   -0.9573 C   0  0  0  0  0  0  0  0  0  0  0  0
   -0.4140    0.5177   -0.0884 C   0  0  0  0  0  0  0  0  0  0  0  0
   -0.6609    1.1586    1.2244 C   0  0  0  0  0  0  0  0  0  0  0  0
   -1.9649    1.8032    1.3182 C   0  0  0  0  0  0  0  0  0  0  0  0
   -3.0935    1.4980    0.6382 C   0  0  0  0  0  0  0  0  0  0  0  0
   -2.7475    0.9687   -0.6378 C   0  0  0  0  0  0  0  0  0  0  0  0
   -1.3516   -0.0896   -1.9117 H   0  0  0  0  0  0  0  0  0  0  0  0
    0.5265   -0.0206   -0.2187 H   0  0  0  0  0  0  0  0  0  0  0  0
   -3.4772    1.0988   -1.4427 H   0  0  0  0  0  0  0  0  0  0  0  0
   -4.0863    1.9046    0.8324 H   0  0  0  0  0  0  0  0  0  0  0  0
   -0.9546    3.5180    3.4753 N   0  0  0  0  0  0  0  0  0  0  0  0
    0.1017    1.0630    2.1909 O   0  0  0  0  0  0  0  0  0  0  0  0
    0.1178    3.2760    3.4731 O   0  0  0  0  0  0  0  0  0  0  0  0
  1  6  1  0  0  0  0
  1  2  2  0  0  0  0
  2  3  1  0  0  0  0
  3  4  1  0  0  0  0
  3 12  2  0  0  0  0
  5 10  1  0  0  0  0
  5  4  1  0  0  0  0
  6  5  1  0  0  0  0
  7  1  1  0  0  0  0
  8  2  1  0  0  0  0
  9  6  1  0  0  0  0
 13 11  2  0  0  0  0
M  RAD  4   4   3   5   2   6   2  11   2
M  END
