Coordinates from ORCA-job o-NO2-Ph+-B3LYPG-aug-cc-pVDZ-scan-d09-49-n400
 OpenBabel10111716023D

 13 12  0  0  0  0  0  0  0  0999 V2000
   -1.4981    0.4540   -0.6889 C   0  0  0  0  0  0  0  0  0  0  0  0
   -0.2462    0.3301   -0.0970 C   0  0  0  0  0  0  0  0  0  0  0  0
    0.2697    0.8816    1.0504 C   0  0  0  0  0  0  0  0  0  0  0  0
   -2.1331    2.3334    1.7382 C   0  0  0  0  0  0  0  0  0  0  0  0
   -2.9867    1.9848    0.6844 C   0  0  0  0  0  0  0  0  0  0  0  0
   -2.6946    1.1590   -0.3742 C   0  0  0  0  0  0  0  0  0  0  0  0
   -1.5708   -0.1294   -1.6097 H   0  0  0  0  0  0  0  0  0  0  0  0
    0.5037   -0.3048   -0.5828 H   0  0  0  0  0  0  0  0  0  0  0  0
   -3.5007    1.0141   -1.0928 H   0  0  0  0  0  0  0  0  0  0  0  0
   -3.9865    2.4263    0.7260 H   0  0  0  0  0  0  0  0  0  0  0  0
   -1.5630    2.6859    2.6236 N   0  0  0  0  0  0  0  0  0  0  0  0
    0.8410    1.2559    1.9634 O   0  0  0  0  0  0  0  0  0  0  0  0
   -0.9020    3.0325    3.5554 O   0  0  0  0  0  0  0  0  0  0  0  0
  1  6  1  0  0  0  0
  1  2  2  0  0  0  0
  2  3  1  0  0  0  0
  3 12  1  0  0  0  0
  4 11  1  0  0  0  0
  5 10  1  0  0  0  0
  5  4  1  0  0  0  0
  6  5  2  0  0  0  0
  7  1  1  0  0  0  0
  8  2  1  0  0  0  0
  9  6  1  0  0  0  0
 11 13  1  0  0  0  0
M  RAD  5   3   3   4   3  11   2  12   2  13   2
M  END
