Coordinates from ORCA-job o-NO2-Ph+-B3LYPG-aug-cc-pVDZ-scan-d09-49-n400
 OpenBabel10111716023D

 13 14  0  0  0  0  0  0  0  0999 V2000
   -1.5225    0.4216   -0.7532 C   0  0  0  0  0  0  0  0  0  0  0  0
   -0.3915    0.4808    0.0374 C   0  0  0  0  0  0  0  0  0  0  0  0
   -0.4645    1.2856    1.2009 C   0  0  0  0  0  0  0  0  0  0  0  0
   -1.7231    1.9882    1.4753 C   0  0  0  0  0  0  0  0  0  0  0  0
   -2.8698    1.9107    0.6474 C   0  0  0  0  0  0  0  0  0  0  0  0
   -2.7463    1.1193   -0.4647 C   0  0  0  0  0  0  0  0  0  0  0  0
   -1.4855   -0.1934   -1.6540 H   0  0  0  0  0  0  0  0  0  0  0  0
    0.5261   -0.0539   -0.1963 H   0  0  0  0  0  0  0  0  0  0  0  0
   -3.5854    1.0097   -1.1500 H   0  0  0  0  0  0  0  0  0  0  0  0
   -3.7778    2.4547    0.9012 H   0  0  0  0  0  0  0  0  0  0  0  0
   -1.4906    2.6749    2.6509 N   0  0  0  0  0  0  0  0  0  0  0  0
    0.4449    1.4903    2.0726 O   0  0  0  0  0  0  0  0  0  0  0  0
   -0.3814    2.5346    3.1285 O   0  0  0  0  0  0  0  0  0  0  0  0
  1  6  1  0  0  0  0
  1  2  1  0  0  0  0
  2  3  2  0  0  0  0
  3  4  1  0  0  0  0
  3 12  1  0  0  0  0
  4 11  2  0  0  0  0
  5 10  1  0  0  0  0
  5  4  1  0  0  0  0
  6  5  2  0  0  0  0
  7  1  1  0  0  0  0
  8  2  1  0  0  0  0
  9  6  1  0  0  0  0
 11 13  1  0  0  0  0
 12 13  1  0  0  0  0
M  RAD  1   1   2
M  END
