Coordinates from ORCA-job o-NO2-Ph+-B3LYPG-aug-cc-pVDZ-scan-d09-49-n400
 OpenBabel10111716033D

 13 12  0  0  0  0  0  0  0  0999 V2000
   -1.5528    0.8050   -0.9474 C   0  0  0  0  0  0  0  0  0  0  0  0
   -0.7637    0.9176    0.1787 C   0  0  0  0  0  0  0  0  0  0  0  0
   -1.1622    1.1401    1.6327 C   0  0  0  0  0  0  0  0  0  0  0  0
   -2.5051    1.1384    1.3761 C   0  0  0  0  0  0  0  0  0  0  0  0
   -3.4741    1.0716    0.4503 C   0  0  0  0  0  0  0  0  0  0  0  0
   -2.9501    0.8763   -0.8524 C   0  0  0  0  0  0  0  0  0  0  0  0
   -1.0695    0.6435   -1.9111 H   0  0  0  0  0  0  0  0  0  0  0  0
    0.3193    0.7636    0.1662 H   0  0  0  0  0  0  0  0  0  0  0  0
   -3.6232    0.8149   -1.7057 H   0  0  0  0  0  0  0  0  0  0  0  0
   -4.5343    1.1973    0.6728 H   0  0  0  0  0  0  0  0  0  0  0  0
    1.3194    3.7083    2.8568 N   0  0  0  0  0  0  0  0  0  0  0  0
   -0.3464    1.1742    2.5693 O   0  0  0  0  0  0  0  0  0  0  0  0
    0.8755    2.8724    3.4097 O   0  0  0  0  0  0  0  0  0  0  0  0
  1  6  1  0  0  0  0
  1  2  2  0  0  0  0
  2  3  1  0  0  0  0
  3 12  2  0  0  0  0
  4  3  1  0  0  0  0
  5 10  1  0  0  0  0
  5  4  2  0  0  0  0
  6  5  1  0  0  0  0
  7  1  1  0  0  0  0
  8  2  1  0  0  0  0
  9  6  1  0  0  0  0
 11 13  2  0  0  0  0
M  RAD  3   4   2   6   2  11   2
M  END
