Coordinates from ORCA-job o-NO2-Ph+-B3LYPG-aug-cc-pVDZ-scan-d09-49-n400
 OpenBabel10111716033D

 13 12  0  0  0  0  0  0  0  0999 V2000
   -1.5459    0.8114   -0.9412 C   0  0  0  0  0  0  0  0  0  0  0  0
   -0.7578    0.9114    0.1870 C   0  0  0  0  0  0  0  0  0  0  0  0
   -1.1576    1.1257    1.6417 C   0  0  0  0  0  0  0  0  0  0  0  0
   -2.5003    1.1317    1.3836 C   0  0  0  0  0  0  0  0  0  0  0  0
   -3.4679    1.0773    0.4558 C   0  0  0  0  0  0  0  0  0  0  0  0
   -2.9428    0.8890   -0.8476 C   0  0  0  0  0  0  0  0  0  0  0  0
   -1.0620    0.6542   -1.9054 H   0  0  0  0  0  0  0  0  0  0  0  0
    0.3237    0.7468    0.1755 H   0  0  0  0  0  0  0  0  0  0  0  0
   -3.6149    0.8387   -1.7025 H   0  0  0  0  0  0  0  0  0  0  0  0
   -4.5276    1.2096    0.6770 H   0  0  0  0  0  0  0  0  0  0  0  0
    1.2599    3.7145    2.8105 N   0  0  0  0  0  0  0  0  0  0  0  0
   -0.3429    1.1485    2.5797 O   0  0  0  0  0  0  0  0  0  0  0  0
    0.8690    2.8644    3.3818 O   0  0  0  0  0  0  0  0  0  0  0  0
  1  6  1  0  0  0  0
  1  2  2  0  0  0  0
  2  3  1  0  0  0  0
  3 12  2  0  0  0  0
  4  3  1  0  0  0  0
  5 10  1  0  0  0  0
  5  4  2  0  0  0  0
  6  5  1  0  0  0  0
  7  1  1  0  0  0  0
  8  2  1  0  0  0  0
  9  6  1  0  0  0  0
 11 13  2  0  0  0  0
M  RAD  3   4   2   6   2  11   2
M  END
