Coordinates from ORCA-job o-NO2-Ph+-B3LYPG-aug-cc-pVDZ-scan-d09-49-n400
 OpenBabel10111716033D

 13 12  0  0  0  0  0  0  0  0999 V2000
   -1.5092    0.3812   -0.9293 C   0  0  0  0  0  0  0  0  0  0  0  0
   -0.3918    0.3891   -0.1474 C   0  0  0  0  0  0  0  0  0  0  0  0
   -0.4387    1.1107    1.1600 C   0  0  0  0  0  0  0  0  0  0  0  0
   -1.6608    1.8958    1.4507 C   0  0  0  0  0  0  0  0  0  0  0  0
   -2.8163    1.7285    0.7505 C   0  0  0  0  0  0  0  0  0  0  0  0
   -2.6877    1.0751   -0.5077 C   0  0  0  0  0  0  0  0  0  0  0  0
   -1.5318   -0.1599   -1.8756 H   0  0  0  0  0  0  0  0  0  0  0  0
    0.4978   -0.2066   -0.3593 H   0  0  0  0  0  0  0  0  0  0  0  0
   -3.5140    1.1654   -1.2191 H   0  0  0  0  0  0  0  0  0  0  0  0
   -3.7485    2.2322    1.0123 H   0  0  0  0  0  0  0  0  0  0  0  0
   -1.5803    3.1421    3.1303 N   0  0  0  0  0  0  0  0  0  0  0  0
    0.4407    0.9773    1.9987 O   0  0  0  0  0  0  0  0  0  0  0  0
   -0.5265    3.3924    3.4320 O   0  0  0  0  0  0  0  0  0  0  0  0
  1  6  1  0  0  0  0
  1  2  2  0  0  0  0
  2  3  1  0  0  0  0
  3  4  1  0  0  0  0
  3 12  2  0  0  0  0
  5 10  1  0  0  0  0
  5  4  1  0  0  0  0
  6  5  2  0  0  0  0
  7  1  1  0  0  0  0
  8  2  1  0  0  0  0
  9  6  1  0  0  0  0
 11 13  2  0  0  0  0
M  RAD  2   4   3  11   2
M  END
