Coordinates from ORCA-job o-NO2-Ph+-B3LYPG-aug-cc-pVDZ-scan-d09-49-n400
 OpenBabel10111716033D

 13 12  0  0  0  0  0  0  0  0999 V2000
   -1.3363    1.2489   -0.6472 C   0  0  0  0  0  0  0  0  0  0  0  0
   -0.7098    1.0648    0.6102 C   0  0  0  0  0  0  0  0  0  0  0  0
   -1.3442    0.9475    2.0299 C   0  0  0  0  0  0  0  0  0  0  0  0
   -2.6137    0.6860    1.5308 C   0  0  0  0  0  0  0  0  0  0  0  0
   -3.3935    0.8953    0.4649 C   0  0  0  0  0  0  0  0  0  0  0  0
   -2.7038    1.1542   -0.7693 C   0  0  0  0  0  0  0  0  0  0  0  0
   -0.7023    1.4241   -1.5184 H   0  0  0  0  0  0  0  0  0  0  0  0
    0.2494    0.5392    0.6580 H   0  0  0  0  0  0  0  0  0  0  0  0
   -3.2550    1.3161   -1.6934 H   0  0  0  0  0  0  0  0  0  0  0  0
   -4.4819    0.9411    0.5586 H   0  0  0  0  0  0  0  0  0  0  0  0
    0.7272    2.9385    1.2686 N   0  0  0  0  0  0  0  0  0  0  0  0
   -0.6625    0.9846    3.0306 O   0  0  0  0  0  0  0  0  0  0  0  0
    0.7590    2.9829    2.3725 O   0  0  0  0  0  0  0  0  0  0  0  0
  1  2  1  0  0  0  0
  2  8  1  0  0  0  0
  2  3  1  0  0  0  0
  3 12  2  0  0  0  0
  4  3  1  0  0  0  0
  5 10  1  0  0  0  0
  5  4  1  0  0  0  0
  6  1  1  0  0  0  0
  6  5  2  0  0  0  0
  7  1  1  0  0  0  0
  9  6  1  0  0  0  0
 11 13  2  0  0  0  0
M  RAD  4   1   2   2   2   4   3  11   2
M  END
