Coordinates from ORCA-job o-NO2-Ph+-B3LYPG-aug-cc-pVDZ-scan-d09-49-n400
 OpenBabel10111716023D

 13 14  0  0  0  0  0  0  0  0999 V2000
   -1.5251    0.4189   -0.7589 C   0  0  0  0  0  0  0  0  0  0  0  0
   -0.3967    0.4836    0.0383 C   0  0  0  0  0  0  0  0  0  0  0  0
   -0.4803    1.2910    1.1992 C   0  0  0  0  0  0  0  0  0  0  0  0
   -1.7288    1.9761    1.4535 C   0  0  0  0  0  0  0  0  0  0  0  0
   -2.8742    1.9081    0.6408 C   0  0  0  0  0  0  0  0  0  0  0  0
   -2.7472    1.1129   -0.4749 C   0  0  0  0  0  0  0  0  0  0  0  0
   -1.4822   -0.1975   -1.6581 H   0  0  0  0  0  0  0  0  0  0  0  0
    0.5237   -0.0485   -0.1898 H   0  0  0  0  0  0  0  0  0  0  0  0
   -3.5865    1.0033   -1.1601 H   0  0  0  0  0  0  0  0  0  0  0  0
   -3.7827    2.4517    0.8935 H   0  0  0  0  0  0  0  0  0  0  0  0
   -1.4734    2.7046    2.7062 N   0  0  0  0  0  0  0  0  0  0  0  0
    0.4388    1.4949    2.0757 O   0  0  0  0  0  0  0  0  0  0  0  0
   -0.3526    2.5241    3.1306 O   0  0  0  0  0  0  0  0  0  0  0  0
  1  6  2  0  0  0  0
  1  2  1  0  0  0  0
  2  3  2  0  0  0  0
  3  4  1  0  0  0  0
  3 12  1  0  0  0  0
  4 11  1  0  0  0  0
  5 10  1  0  0  0  0
  5  4  2  0  0  0  0
  6  5  1  0  0  0  0
  7  1  1  0  0  0  0
  8  2  1  0  0  0  0
  9  6  1  0  0  0  0
 11 13  1  0  0  0  0
 12 13  1  0  0  0  0
M  RAD  1  11   2
M  END
