Coordinates from ORCA-job o-NO2-Ph+-B3LYPG-aug-cc-pVDZ-scan-d09-49-n400
 OpenBabel10111716033D

 13 12  0  0  0  0  0  0  0  0999 V2000
   -1.3845    1.1929   -0.6989 C   0  0  0  0  0  0  0  0  0  0  0  0
   -0.7495    1.0405    0.5439 C   0  0  0  0  0  0  0  0  0  0  0  0
   -1.3456    0.9911    1.9741 C   0  0  0  0  0  0  0  0  0  0  0  0
   -2.6105    0.6956    1.5026 C   0  0  0  0  0  0  0  0  0  0  0  0
   -3.4254    0.8828    0.4532 C   0  0  0  0  0  0  0  0  0  0  0  0
   -2.7635    1.1009   -0.7943 C   0  0  0  0  0  0  0  0  0  0  0  0
   -0.7650    1.3334   -1.5861 H   0  0  0  0  0  0  0  0  0  0  0  0
    0.2562    0.6161    0.6053 H   0  0  0  0  0  0  0  0  0  0  0  0
   -3.3288    1.2425   -1.7132 H   0  0  0  0  0  0  0  0  0  0  0  0
   -4.5092    0.9453    0.5780 H   0  0  0  0  0  0  0  0  0  0  0  0
    0.9757    3.0471    1.4887 N   0  0  0  0  0  0  0  0  0  0  0  0
   -0.6396    1.0531    2.9666 O   0  0  0  0  0  0  0  0  0  0  0  0
    0.8227    2.9820    2.5761 O   0  0  0  0  0  0  0  0  0  0  0  0
  1  2  1  0  0  0  0
  2  8  1  0  0  0  0
  2  3  1  0  0  0  0
  3 12  2  0  0  0  0
  4  3  1  0  0  0  0
  5 10  1  0  0  0  0
  5  4  1  0  0  0  0
  6  1  1  0  0  0  0
  6  5  2  0  0  0  0
  7  1  1  0  0  0  0
  9  6  1  0  0  0  0
 11 13  2  0  0  0  0
M  RAD  4   1   2   2   2   4   3  11   2
M  END
