Coordinates from ORCA-job o-NO2-Ph+-B3LYPG-aug-cc-pVDZ-scan-d09-49-n400
 OpenBabel10111716033D

 13 12  0  0  0  0  0  0  0  0999 V2000
   -1.4680    0.4164   -0.9602 C   0  0  0  0  0  0  0  0  0  0  0  0
   -0.4086    0.4873   -0.1046 C   0  0  0  0  0  0  0  0  0  0  0  0
   -0.6273    1.1451    1.2066 C   0  0  0  0  0  0  0  0  0  0  0  0
   -1.9202    1.8176    1.3370 C   0  0  0  0  0  0  0  0  0  0  0  0
   -3.0551    1.5252    0.6559 C   0  0  0  0  0  0  0  0  0  0  0  0
   -2.7382    0.9862   -0.6220 C   0  0  0  0  0  0  0  0  0  0  0  0
   -1.3807   -0.1032   -1.9155 H   0  0  0  0  0  0  0  0  0  0  0  0
    0.5222   -0.0644   -0.2470 H   0  0  0  0  0  0  0  0  0  0  0  0
   -3.4791    1.1174   -1.4165 H   0  0  0  0  0  0  0  0  0  0  0  0
   -4.0412    1.9416    0.8633 H   0  0  0  0  0  0  0  0  0  0  0  0
   -1.0557    3.4814    3.4498 N   0  0  0  0  0  0  0  0  0  0  0  0
    0.1506    1.0473    2.1572 O   0  0  0  0  0  0  0  0  0  0  0  0
    0.0340    3.3255    3.4922 O   0  0  0  0  0  0  0  0  0  0  0  0
  1  6  1  0  0  0  0
  1  2  2  0  0  0  0
  2  3  1  0  0  0  0
  3  4  1  0  0  0  0
  3 12  2  0  0  0  0
  5 10  1  0  0  0  0
  5  4  1  0  0  0  0
  6  5  1  0  0  0  0
  7  1  1  0  0  0  0
  8  2  1  0  0  0  0
  9  6  1  0  0  0  0
 11 13  2  0  0  0  0
M  RAD  4   4   3   5   2   6   2  11   2
M  END
