Coordinates from ORCA-job o-NO2-Ph+-B3LYPG-aug-cc-pVDZ-scan-d09-49-n400
 OpenBabel10111716033D

 13 12  0  0  0  0  0  0  0  0999 V2000
   -1.3411    1.2483   -0.6460 C   0  0  0  0  0  0  0  0  0  0  0  0
   -0.7128    1.0619    0.6093 C   0  0  0  0  0  0  0  0  0  0  0  0
   -1.3507    0.9488    2.0226 C   0  0  0  0  0  0  0  0  0  0  0  0
   -2.6250    0.6725    1.5305 C   0  0  0  0  0  0  0  0  0  0  0  0
   -3.4008    0.8862    0.4627 C   0  0  0  0  0  0  0  0  0  0  0  0
   -2.7086    1.1501   -0.7694 C   0  0  0  0  0  0  0  0  0  0  0  0
   -0.7088    1.4290   -1.5174 H   0  0  0  0  0  0  0  0  0  0  0  0
    0.2489    0.5412    0.6559 H   0  0  0  0  0  0  0  0  0  0  0  0
   -3.2594    1.3144   -1.6933 H   0  0  0  0  0  0  0  0  0  0  0  0
   -4.4897    0.9319    0.5522 H   0  0  0  0  0  0  0  0  0  0  0  0
    0.7719    2.9509    1.2785 N   0  0  0  0  0  0  0  0  0  0  0  0
   -0.6753    0.9927    3.0280 O   0  0  0  0  0  0  0  0  0  0  0  0
    0.7844    2.9956    2.3823 O   0  0  0  0  0  0  0  0  0  0  0  0
  1  2  1  0  0  0  0
  2  8  1  0  0  0  0
  2  3  1  0  0  0  0
  3 12  2  0  0  0  0
  4  3  1  0  0  0  0
  5 10  1  0  0  0  0
  5  4  1  0  0  0  0
  6  1  1  0  0  0  0
  6  5  2  0  0  0  0
  7  1  1  0  0  0  0
  9  6  1  0  0  0  0
 11 13  2  0  0  0  0
M  RAD  4   1   2   2   2   4   3  11   2
M  END
