Coordinates from ORCA-job o-NO2-Ph+-B3LYPG-aug-cc-pVDZ-scan-d09-49-n400
 OpenBabel10111716033D

 13 12  0  0  0  0  0  0  0  0999 V2000
   -1.4449    0.5051   -0.9429 C   0  0  0  0  0  0  0  0  0  0  0  0
   -0.4679    0.6799    0.0069 C   0  0  0  0  0  0  0  0  0  0  0  0
   -0.8323    1.1860    1.3493 C   0  0  0  0  0  0  0  0  0  0  0  0
   -2.1680    1.6759    1.2909 C   0  0  0  0  0  0  0  0  0  0  0  0
   -3.2453    1.3834    0.5492 C   0  0  0  0  0  0  0  0  0  0  0  0
   -2.7897    0.8865   -0.7133 C   0  0  0  0  0  0  0  0  0  0  0  0
   -1.1986    0.0369   -1.8970 H   0  0  0  0  0  0  0  0  0  0  0  0
    0.5274    0.2358   -0.0686 H   0  0  0  0  0  0  0  0  0  0  0  0
   -3.4907    0.9630   -1.5482 H   0  0  0  0  0  0  0  0  0  0  0  0
   -4.2582    1.7649    0.6782 H   0  0  0  0  0  0  0  0  0  0  0  0
   -0.4296    3.7086    3.4642 N   0  0  0  0  0  0  0  0  0  0  0  0
   -0.0952    1.0693    2.3498 O   0  0  0  0  0  0  0  0  0  0  0  0
    0.4259    3.0279    3.3774 O   0  0  0  0  0  0  0  0  0  0  0  0
  1  6  1  0  0  0  0
  1  2  2  0  0  0  0
  2  3  1  0  0  0  0
  3 12  2  0  0  0  0
  4  3  1  0  0  0  0
  5 10  1  0  0  0  0
  5  4  1  0  0  0  0
  6  5  1  0  0  0  0
  7  1  1  0  0  0  0
  8  2  1  0  0  0  0
  9  6  1  0  0  0  0
 13 11  2  0  0  0  0
M  RAD  4   4   3   5   2   6   2  11   2
M  END
