Coordinates from ORCA-job o-NO2-Ph+-B3LYPG-aug-cc-pVDZ-scan-d09-49-n400
 OpenBabel10111716033D

 13 12  0  0  0  0  0  0  0  0999 V2000
   -1.4687    0.4151   -0.9607 C   0  0  0  0  0  0  0  0  0  0  0  0
   -0.4083    0.4840   -0.1063 C   0  0  0  0  0  0  0  0  0  0  0  0
   -0.6236    1.1437    1.2047 C   0  0  0  0  0  0  0  0  0  0  0  0
   -1.9154    1.8189    1.3388 C   0  0  0  0  0  0  0  0  0  0  0  0
   -3.0509    1.5281    0.6574 C   0  0  0  0  0  0  0  0  0  0  0  0
   -2.7373    0.9879   -0.6206 C   0  0  0  0  0  0  0  0  0  0  0  0
   -1.3839   -0.1047   -1.9159 H   0  0  0  0  0  0  0  0  0  0  0  0
    0.5215   -0.0691   -0.2501 H   0  0  0  0  0  0  0  0  0  0  0  0
   -3.4796    1.1190   -1.4139 H   0  0  0  0  0  0  0  0  0  0  0  0
   -4.0362    1.9456    0.8662 H   0  0  0  0  0  0  0  0  0  0  0  0
   -1.0660    3.4779    3.4481 N   0  0  0  0  0  0  0  0  0  0  0  0
    0.1563    1.0457    2.1533 O   0  0  0  0  0  0  0  0  0  0  0  0
    0.0249    3.3311    3.4950 O   0  0  0  0  0  0  0  0  0  0  0  0
  1  6  1  0  0  0  0
  1  2  2  0  0  0  0
  2  3  1  0  0  0  0
  3  4  1  0  0  0  0
  3 12  2  0  0  0  0
  5 10  1  0  0  0  0
  5  4  1  0  0  0  0
  6  5  1  0  0  0  0
  7  1  1  0  0  0  0
  8  2  1  0  0  0  0
  9  6  1  0  0  0  0
 11 13  2  0  0  0  0
M  RAD  4   4   3   5   2   6   2  11   2
M  END
