Coordinates from ORCA-job o-NO2-Ph+-B3LYPG-aug-cc-pVDZ-scan-d09-49-n400
 OpenBabel10111716033D

 13 12  0  0  0  0  0  0  0  0999 V2000
   -1.4639    0.9988   -0.8279 C   0  0  0  0  0  0  0  0  0  0  0  0
   -0.7449    1.0011    0.3590 C   0  0  0  0  0  0  0  0  0  0  0  0
   -1.2443    1.0612    1.7934 C   0  0  0  0  0  0  0  0  0  0  0  0
   -2.5761    0.9567    1.4625 C   0  0  0  0  0  0  0  0  0  0  0  0
   -3.4708    0.9754    0.4682 C   0  0  0  0  0  0  0  0  0  0  0  0
   -2.8593    0.9743   -0.8181 C   0  0  0  0  0  0  0  0  0  0  0  0
   -0.9153    0.9794   -1.7701 H   0  0  0  0  0  0  0  0  0  0  0  0
    0.3231    0.7676    0.3884 H   0  0  0  0  0  0  0  0  0  0  0  0
   -3.4774    1.0091   -1.7135 H   0  0  0  0  0  0  0  0  0  0  0  0
   -4.5455    1.0787    0.6281 H   0  0  0  0  0  0  0  0  0  0  0  0
    1.1834    3.3766    2.1200 N   0  0  0  0  0  0  0  0  0  0  0  0
   -0.4895    1.0576    2.7763 O   0  0  0  0  0  0  0  0  0  0  0  0
    0.8134    2.8867    3.0297 O   0  0  0  0  0  0  0  0  0  0  0  0
  1  6  1  0  0  0  0
  1  2  2  0  0  0  0
  2  8  1  0  0  0  0
  2  3  1  0  0  0  0
  3 12  2  0  0  0  0
  4  3  1  0  0  0  0
  5 10  1  0  0  0  0
  5  4  2  0  0  0  0
  6  5  1  0  0  0  0
  7  1  1  0  0  0  0
  9  6  1  0  0  0  0
 11 13  2  0  0  0  0
M  RAD  3   4   2   6   2  11   2
M  END
