Coordinates from ORCA-job o-NO2-Ph+-B3LYPG-aug-cc-pVDZ-scan-d09-49-n400
 OpenBabel10111716033D

 13 12  0  0  0  0  0  0  0  0999 V2000
   -1.5483    0.8092   -0.9433 C   0  0  0  0  0  0  0  0  0  0  0  0
   -0.7597    0.9134    0.1842 C   0  0  0  0  0  0  0  0  0  0  0  0
   -1.1591    1.1305    1.6387 C   0  0  0  0  0  0  0  0  0  0  0  0
   -2.5018    1.1340    1.3810 C   0  0  0  0  0  0  0  0  0  0  0  0
   -3.4700    1.0754    0.4539 C   0  0  0  0  0  0  0  0  0  0  0  0
   -2.9453    0.8848   -0.8492 C   0  0  0  0  0  0  0  0  0  0  0  0
   -1.0646    0.6505   -1.9073 H   0  0  0  0  0  0  0  0  0  0  0  0
    0.3223    0.7523    0.1724 H   0  0  0  0  0  0  0  0  0  0  0  0
   -3.6177    0.8308   -1.7036 H   0  0  0  0  0  0  0  0  0  0  0  0
   -4.5299    1.2056    0.6756 H   0  0  0  0  0  0  0  0  0  0  0  0
    1.2794    3.7131    2.8262 N   0  0  0  0  0  0  0  0  0  0  0  0
   -0.3440    1.1570    2.5762 O   0  0  0  0  0  0  0  0  0  0  0  0
    0.8716    2.8668    3.3912 O   0  0  0  0  0  0  0  0  0  0  0  0
  1  6  1  0  0  0  0
  1  2  2  0  0  0  0
  2  3  1  0  0  0  0
  3 12  2  0  0  0  0
  4  3  1  0  0  0  0
  5 10  1  0  0  0  0
  5  4  2  0  0  0  0
  6  5  1  0  0  0  0
  7  1  1  0  0  0  0
  8  2  1  0  0  0  0
  9  6  1  0  0  0  0
 11 13  2  0  0  0  0
M  RAD  3   4   2   6   2  11   2
M  END
