Coordinates from ORCA-job o-NO2-Ph+-B3LYPG-aug-cc-pVDZ-scan-d09-49-n400
 OpenBabel10111716023D

 13 14  0  0  0  0  0  0  0  0999 V2000
   -1.5279    0.4163   -0.7646 C   0  0  0  0  0  0  0  0  0  0  0  0
   -0.4022    0.4856    0.0380 C   0  0  0  0  0  0  0  0  0  0  0  0
   -0.4901    1.2949    1.1989 C   0  0  0  0  0  0  0  0  0  0  0  0
   -1.7350    1.9662    1.4349 C   0  0  0  0  0  0  0  0  0  0  0  0
   -2.8787    1.9056    0.6341 C   0  0  0  0  0  0  0  0  0  0  0  0
   -2.7482    1.1069   -0.4846 C   0  0  0  0  0  0  0  0  0  0  0  0
   -1.4797   -0.2014   -1.6625 H   0  0  0  0  0  0  0  0  0  0  0  0
    0.5206   -0.0444   -0.1855 H   0  0  0  0  0  0  0  0  0  0  0  0
   -3.5881    0.9979   -1.1694 H   0  0  0  0  0  0  0  0  0  0  0  0
   -3.7880    2.4484    0.8853 H   0  0  0  0  0  0  0  0  0  0  0  0
   -1.4551    2.7302    2.7561 N   0  0  0  0  0  0  0  0  0  0  0  0
    0.4380    1.4947    2.0749 O   0  0  0  0  0  0  0  0  0  0  0  0
   -0.3327    2.5225    3.1404 O   0  0  0  0  0  0  0  0  0  0  0  0
  1  6  2  0  0  0  0
  1  2  1  0  0  0  0
  2  3  2  0  0  0  0
  3  4  1  0  0  0  0
  3 12  1  0  0  0  0
  4 11  1  0  0  0  0
  5 10  1  0  0  0  0
  5  4  2  0  0  0  0
  6  5  1  0  0  0  0
  7  1  1  0  0  0  0
  8  2  1  0  0  0  0
  9  6  1  0  0  0  0
 11 13  1  0  0  0  0
 12 13  1  0  0  0  0
M  RAD  1  11   2
M  END
