Coordinates from ORCA-job o-NO2-Ph+-B3LYPG-aug-cc-pVDZ-scan-d09-49-n400
 OpenBabel10111716033D

 13 12  0  0  0  0  0  0  0  0999 V2000
   -1.4542    0.4479   -0.9513 C   0  0  0  0  0  0  0  0  0  0  0  0
   -0.4249    0.5728   -0.0594 C   0  0  0  0  0  0  0  0  0  0  0  0
   -0.7194    1.1761    1.2586 C   0  0  0  0  0  0  0  0  0  0  0  0
   -2.0367    1.7746    1.2956 C   0  0  0  0  0  0  0  0  0  0  0  0
   -3.1525    1.4568    0.6092 C   0  0  0  0  0  0  0  0  0  0  0  0
   -2.7623    0.9384   -0.6615 C   0  0  0  0  0  0  0  0  0  0  0  0
   -1.3013   -0.0596   -1.9049 H   0  0  0  0  0  0  0  0  0  0  0  0
    0.5340    0.0630   -0.1712 H   0  0  0  0  0  0  0  0  0  0  0  0
   -3.4775    1.0583   -1.4806 H   0  0  0  0  0  0  0  0  0  0  0  0
   -4.1544    1.8513    0.7793 H   0  0  0  0  0  0  0  0  0  0  0  0
   -0.7802    3.5830    3.4995 N   0  0  0  0  0  0  0  0  0  0  0  0
    0.0217    1.0757    2.2473 O   0  0  0  0  0  0  0  0  0  0  0  0
    0.2406    3.1851    3.4356 O   0  0  0  0  0  0  0  0  0  0  0  0
  1  6  1  0  0  0  0
  1  2  2  0  0  0  0
  2  3  1  0  0  0  0
  3  4  1  0  0  0  0
  3 12  2  0  0  0  0
  5 10  1  0  0  0  0
  5  4  1  0  0  0  0
  6  5  1  0  0  0  0
  7  1  1  0  0  0  0
  8  2  1  0  0  0  0
  9  6  1  0  0  0  0
 13 11  2  0  0  0  0
M  RAD  4   4   3   5   2   6   2  11   2
M  END
