Coordinates from ORCA-job o-NO2-Ph+-B3LYPG-aug-cc-pVDZ-scan-d09-49-n400
 OpenBabel10111716023D

 13 12  0  0  0  0  0  0  0  0999 V2000
   -1.4957    0.4564   -0.6843 C   0  0  0  0  0  0  0  0  0  0  0  0
   -0.2425    0.3289   -0.0965 C   0  0  0  0  0  0  0  0  0  0  0  0
    0.2772    0.8780    1.0508 C   0  0  0  0  0  0  0  0  0  0  0  0
   -2.1373    2.3411    1.7471 C   0  0  0  0  0  0  0  0  0  0  0  0
   -2.9875    1.9880    0.6893 C   0  0  0  0  0  0  0  0  0  0  0  0
   -2.6925    1.1625   -0.3676 C   0  0  0  0  0  0  0  0  0  0  0  0
   -1.5711   -0.1258   -1.6056 H   0  0  0  0  0  0  0  0  0  0  0  0
    0.5045   -0.3067   -0.5855 H   0  0  0  0  0  0  0  0  0  0  0  0
   -3.4980    1.0170   -1.0869 H   0  0  0  0  0  0  0  0  0  0  0  0
   -3.9882    2.4274    0.7281 H   0  0  0  0  0  0  0  0  0  0  0  0
   -1.5747    2.6790    2.6053 N   0  0  0  0  0  0  0  0  0  0  0  0
    0.8469    1.2529    1.9642 O   0  0  0  0  0  0  0  0  0  0  0  0
   -0.9083    3.0247    3.5376 O   0  0  0  0  0  0  0  0  0  0  0  0
  1  6  1  0  0  0  0
  1  2  2  0  0  0  0
  2  3  1  0  0  0  0
  3 12  1  0  0  0  0
  4 11  1  0  0  0  0
  5 10  1  0  0  0  0
  5  4  1  0  0  0  0
  6  5  2  0  0  0  0
  7  1  1  0  0  0  0
  8  2  1  0  0  0  0
  9  6  1  0  0  0  0
 11 13  1  0  0  0  0
M  RAD  5   3   3   4   3  11   2  12   2  13   2
M  END
