Coordinates from ORCA-job o-NO2-Ph+-B3LYPG-aug-cc-pVDZ-scan-d09-49-n400
 OpenBabel10111716033D

 13 12  0  0  0  0  0  0  0  0999 V2000
   -1.5096    0.3827   -0.9275 C   0  0  0  0  0  0  0  0  0  0  0  0
   -0.3913    0.3890   -0.1463 C   0  0  0  0  0  0  0  0  0  0  0  0
   -0.4357    1.1099    1.1616 C   0  0  0  0  0  0  0  0  0  0  0  0
   -1.6572    1.8953    1.4540 C   0  0  0  0  0  0  0  0  0  0  0  0
   -2.8126    1.7317    0.7536 C   0  0  0  0  0  0  0  0  0  0  0  0
   -2.6864    1.0780   -0.5050 C   0  0  0  0  0  0  0  0  0  0  0  0
   -1.5332   -0.1579   -1.8740 H   0  0  0  0  0  0  0  0  0  0  0  0
    0.4973   -0.2079   -0.3592 H   0  0  0  0  0  0  0  0  0  0  0  0
   -3.5135    1.1693   -1.2155 H   0  0  0  0  0  0  0  0  0  0  0  0
   -3.7436    2.2371    1.0167 H   0  0  0  0  0  0  0  0  0  0  0  0
   -1.5883    3.1229    3.1229 N   0  0  0  0  0  0  0  0  0  0  0  0
    0.4442    0.9739    1.9993 O   0  0  0  0  0  0  0  0  0  0  0  0
   -0.5372    3.3994    3.4154 O   0  0  0  0  0  0  0  0  0  0  0  0
  1  6  1  0  0  0  0
  1  2  2  0  0  0  0
  2  3  1  0  0  0  0
  3  4  1  0  0  0  0
  3 12  2  0  0  0  0
  5 10  1  0  0  0  0
  5  4  1  0  0  0  0
  6  5  2  0  0  0  0
  7  1  1  0  0  0  0
  8  2  1  0  0  0  0
  9  6  1  0  0  0  0
 11 13  2  0  0  0  0
M  RAD  2   4   3  11   2
M  END
