Coordinates from ORCA-job o-NO2-Ph+-B3LYPG-aug-cc-pVDZ-scan-d09-49-n400
 OpenBabel10111716023D

 13 14  0  0  0  0  0  0  0  0999 V2000
   -1.5239    0.4202   -0.7563 C   0  0  0  0  0  0  0  0  0  0  0  0
   -0.3944    0.4824    0.0380 C   0  0  0  0  0  0  0  0  0  0  0  0
   -0.4736    1.2887    1.1999 C   0  0  0  0  0  0  0  0  0  0  0  0
   -1.7260    1.9813    1.4630 C   0  0  0  0  0  0  0  0  0  0  0  0
   -2.8721    1.9093    0.6438 C   0  0  0  0  0  0  0  0  0  0  0  0
   -2.7468    1.1158   -0.4703 C   0  0  0  0  0  0  0  0  0  0  0  0
   -1.4836   -0.1956   -1.6562 H   0  0  0  0  0  0  0  0  0  0  0  0
    0.5248   -0.0508   -0.1925 H   0  0  0  0  0  0  0  0  0  0  0  0
   -3.5860    1.0062   -1.1556 H   0  0  0  0  0  0  0  0  0  0  0  0
   -3.7802    2.4531    0.8972 H   0  0  0  0  0  0  0  0  0  0  0  0
   -1.4815    2.6915    2.6814 N   0  0  0  0  0  0  0  0  0  0  0  0
    0.4412    1.4932    2.0746 O   0  0  0  0  0  0  0  0  0  0  0  0
   -0.3650    2.5282    3.1290 O   0  0  0  0  0  0  0  0  0  0  0  0
  1  6  2  0  0  0  0
  1  2  1  0  0  0  0
  2  3  2  0  0  0  0
  3  4  1  0  0  0  0
  3 12  1  0  0  0  0
  4 11  1  0  0  0  0
  5 10  1  0  0  0  0
  5  4  2  0  0  0  0
  6  5  1  0  0  0  0
  7  1  1  0  0  0  0
  8  2  1  0  0  0  0
  9  6  1  0  0  0  0
 11 13  1  0  0  0  0
 12 13  1  0  0  0  0
M  RAD  1  11   2
M  END
