Coordinates from ORCA-job o-NO2-Ph+-B3LYPG-aug-cc-pVDZ-scan-d09-49-n400
 OpenBabel10111716033D

 13 12  0  0  0  0  0  0  0  0999 V2000
   -1.4871    0.3928   -0.9617 C   0  0  0  0  0  0  0  0  0  0  0  0
   -0.4004    0.4201   -0.1416 C   0  0  0  0  0  0  0  0  0  0  0  0
   -0.5336    1.1109    1.1711 C   0  0  0  0  0  0  0  0  0  0  0  0
   -1.7907    1.8488    1.3949 C   0  0  0  0  0  0  0  0  0  0  0  0
   -2.9382    1.6123    0.7003 C   0  0  0  0  0  0  0  0  0  0  0  0
   -2.7134    1.0289   -0.5746 C   0  0  0  0  0  0  0  0  0  0  0  0
   -1.4585   -0.1331   -1.9167 H   0  0  0  0  0  0  0  0  0  0  0  0
    0.5078   -0.1578   -0.3205 H   0  0  0  0  0  0  0  0  0  0  0  0
   -3.4954    1.1455   -1.3313 H   0  0  0  0  0  0  0  0  0  0  0  0
   -3.9008    2.0667    0.9381 H   0  0  0  0  0  0  0  0  0  0  0  0
   -1.3228    3.3727    3.3518 N   0  0  0  0  0  0  0  0  0  0  0  0
    0.2951    0.9906    2.0675 O   0  0  0  0  0  0  0  0  0  0  0  0
   -0.2293    3.4248    3.5188 O   0  0  0  0  0  0  0  0  0  0  0  0
  1  6  1  0  0  0  0
  1  2  2  0  0  0  0
  2  3  1  0  0  0  0
  3  4  1  0  0  0  0
  3 12  2  0  0  0  0
  5 10  1  0  0  0  0
  5  4  1  0  0  0  0
  6  5  1  0  0  0  0
  7  1  1  0  0  0  0
  8  2  1  0  0  0  0
  9  6  1  0  0  0  0
 11 13  2  0  0  0  0
M  RAD  4   4   3   5   2   6   2  11   2
M  END
