Coordinates from ORCA-job o-NO2-Ph+-B3LYPG-aug-cc-pVDZ-scan-d09-49-n400
 OpenBabel10111716023D

 13 13  0  0  0  0  0  0  0  0999 V2000
   -1.5232    0.4215   -0.7539 C   0  0  0  0  0  0  0  0  0  0  0  0
   -0.3935    0.4722    0.0231 C   0  0  0  0  0  0  0  0  0  0  0  0
   -0.4096    1.2701    1.2113 C   0  0  0  0  0  0  0  0  0  0  0  0
   -1.7208    2.0020    1.4976 C   0  0  0  0  0  0  0  0  0  0  0  0
   -2.8647    1.9099    0.6496 C   0  0  0  0  0  0  0  0  0  0  0  0
   -2.7495    1.1250   -0.4581 C   0  0  0  0  0  0  0  0  0  0  0  0
   -1.4930   -0.1918   -1.6563 H   0  0  0  0  0  0  0  0  0  0  0  0
    0.5204   -0.0667   -0.2185 H   0  0  0  0  0  0  0  0  0  0  0  0
   -3.5910    1.0185   -1.1407 H   0  0  0  0  0  0  0  0  0  0  0  0
   -3.7713    2.4555    0.9063 H   0  0  0  0  0  0  0  0  0  0  0  0
   -1.4969    2.6408    2.5969 N   0  0  0  0  0  0  0  0  0  0  0  0
    0.4911    1.4516    2.0426 O   0  0  0  0  0  0  0  0  0  0  0  0
   -0.4651    2.6147    3.1960 O   0  0  0  0  0  0  0  0  0  0  0  0
  1  6  1  0  0  0  0
  1  2  2  0  0  0  0
  2  3  1  0  0  0  0
  3  4  1  0  0  0  0
  3 12  2  0  0  0  0
  4 11  2  0  0  0  0
  5 10  1  0  0  0  0
  5  4  1  0  0  0  0
  6  5  2  0  0  0  0
  7  1  1  0  0  0  0
  8  2  1  0  0  0  0
  9  6  1  0  0  0  0
 11 13  1  0  0  0  0
M  RAD  1  13   2
M  END
