Coordinates from ORCA-job o-NO2-Ph+-B3LYPG-aug-cc-pVDZ-scan-d09-49-n400
 OpenBabel10111716033D

 13 12  0  0  0  0  0  0  0  0999 V2000
   -1.4982    0.3840   -0.9532 C   0  0  0  0  0  0  0  0  0  0  0  0
   -0.3963    0.3947   -0.1529 C   0  0  0  0  0  0  0  0  0  0  0  0
   -0.4837    1.0989    1.1598 C   0  0  0  0  0  0  0  0  0  0  0  0
   -1.7192    1.8674    1.4281 C   0  0  0  0  0  0  0  0  0  0  0  0
   -2.8710    1.6686    0.7254 C   0  0  0  0  0  0  0  0  0  0  0  0
   -2.6990    1.0519   -0.5423 C   0  0  0  0  0  0  0  0  0  0  0  0
   -1.4988   -0.1456   -1.9063 H   0  0  0  0  0  0  0  0  0  0  0  0
    0.5025   -0.1911   -0.3525 H   0  0  0  0  0  0  0  0  0  0  0  0
   -3.5060    1.1547   -1.2743 H   0  0  0  0  0  0  0  0  0  0  0  0
   -3.8185    2.1478    0.9762 H   0  0  0  0  0  0  0  0  0  0  0  0
   -1.4639    3.2833    3.2653 N   0  0  0  0  0  0  0  0  0  0  0  0
    0.3720    0.9655    2.0255 O   0  0  0  0  0  0  0  0  0  0  0  0
   -0.3873    3.4430    3.4973 O   0  0  0  0  0  0  0  0  0  0  0  0
  1  6  1  0  0  0  0
  1  2  2  0  0  0  0
  2  3  1  0  0  0  0
  3  4  1  0  0  0  0
  3 12  2  0  0  0  0
  5 10  1  0  0  0  0
  5  4  1  0  0  0  0
  6  5  2  0  0  0  0
  7  1  1  0  0  0  0
  8  2  1  0  0  0  0
  9  6  1  0  0  0  0
 11 13  2  0  0  0  0
M  RAD  2   4   3  11   2
M  END
