Coordinates from ORCA-job o-NO2-Ph+-B3LYPG-aug-cc-pVDZ-scan-d09-49-n400
 OpenBabel10111716033D

 13 12  0  0  0  0  0  0  0  0999 V2000
   -1.5153    0.3847   -0.9083 C   0  0  0  0  0  0  0  0  0  0  0  0
   -0.3896    0.3975   -0.1340 C   0  0  0  0  0  0  0  0  0  0  0  0
   -0.4183    1.1278    1.1683 C   0  0  0  0  0  0  0  0  0  0  0  0
   -1.6394    1.9135    1.4585 C   0  0  0  0  0  0  0  0  0  0  0  0
   -2.7961    1.7620    0.7630 C   0  0  0  0  0  0  0  0  0  0  0  0
   -2.6845    1.0889   -0.4899 C   0  0  0  0  0  0  0  0  0  0  0  0
   -1.5436   -0.1660   -1.8489 H   0  0  0  0  0  0  0  0  0  0  0  0
    0.4940   -0.2073   -0.3459 H   0  0  0  0  0  0  0  0  0  0  0  0
   -3.5165    1.1753   -1.1947 H   0  0  0  0  0  0  0  0  0  0  0  0
   -3.7192    2.2793    1.0308 H   0  0  0  0  0  0  0  0  0  0  0  0
   -1.6258    3.0187    3.0438 N   0  0  0  0  0  0  0  0  0  0  0  0
    0.4725    1.0019    1.9950 O   0  0  0  0  0  0  0  0  0  0  0  0
   -0.5852    3.3470    3.3582 O   0  0  0  0  0  0  0  0  0  0  0  0
  1  6  1  0  0  0  0
  1  2  2  0  0  0  0
  2  3  1  0  0  0  0
  3  4  1  0  0  0  0
  3 12  2  0  0  0  0
  5 10  1  0  0  0  0
  5  4  1  0  0  0  0
  6  5  2  0  0  0  0
  7  1  1  0  0  0  0
  8  2  1  0  0  0  0
  9  6  1  0  0  0  0
 11 13  2  0  0  0  0
M  RAD  2   4   3  11   2
M  END
