Coordinates from ORCA-job o-NO2-Ph+-B3LYPG-aug-cc-pVDZ-scan-d09-49-n400
 OpenBabel10111716023D

 13 12  0  0  0  0  0  0  0  0999 V2000
   -1.4962    0.4567   -0.6838 C   0  0  0  0  0  0  0  0  0  0  0  0
   -0.2441    0.3313   -0.0936 C   0  0  0  0  0  0  0  0  0  0  0  0
    0.2705    0.8838    1.0543 C   0  0  0  0  0  0  0  0  0  0  0  0
   -2.1331    2.3379    1.7473 C   0  0  0  0  0  0  0  0  0  0  0  0
   -2.9860    1.9877    0.6900 C   0  0  0  0  0  0  0  0  0  0  0  0
   -2.6930    1.1629   -0.3676 C   0  0  0  0  0  0  0  0  0  0  0  0
   -1.5704   -0.1261   -1.6048 H   0  0  0  0  0  0  0  0  0  0  0  0
    0.5052   -0.3038   -0.5799 H   0  0  0  0  0  0  0  0  0  0  0  0
   -3.4987    1.0181   -1.0868 H   0  0  0  0  0  0  0  0  0  0  0  0
   -3.9858    2.4288    0.7303 H   0  0  0  0  0  0  0  0  0  0  0  0
   -1.5704    2.6700    2.5951 N   0  0  0  0  0  0  0  0  0  0  0  0
    0.8343    1.2629    1.9695 O   0  0  0  0  0  0  0  0  0  0  0  0
   -0.8995    3.0133    3.5261 O   0  0  0  0  0  0  0  0  0  0  0  0
  1  6  1  0  0  0  0
  1  2  2  0  0  0  0
  2  3  1  0  0  0  0
  3 12  1  0  0  0  0
  4 11  1  0  0  0  0
  5 10  1  0  0  0  0
  5  4  1  0  0  0  0
  6  5  2  0  0  0  0
  7  1  1  0  0  0  0
  8  2  1  0  0  0  0
  9  6  1  0  0  0  0
 11 13  1  0  0  0  0
M  RAD  5   3   3   4   3  11   2  12   2  13   2
M  END
