Coordinates from ORCA-job o-NO2-Ph+-B3LYPG-aug-cc-pVDZ-scan-d09-49-n400
 OpenBabel10111716033D

 13 12  0  0  0  0  0  0  0  0999 V2000
   -1.4675    0.4179   -0.9600 C   0  0  0  0  0  0  0  0  0  0  0  0
   -0.4100    0.4920   -0.1021 C   0  0  0  0  0  0  0  0  0  0  0  0
   -0.6320    1.1476    1.2097 C   0  0  0  0  0  0  0  0  0  0  0  0
   -1.9268    1.8147    1.3333 C   0  0  0  0  0  0  0  0  0  0  0  0
   -3.0609    1.5205    0.6524 C   0  0  0  0  0  0  0  0  0  0  0  0
   -2.7400    0.9833   -0.6250 C   0  0  0  0  0  0  0  0  0  0  0  0
   -1.3764   -0.1014   -1.9150 H   0  0  0  0  0  0  0  0  0  0  0  0
    0.5221   -0.0580   -0.2428 H   0  0  0  0  0  0  0  0  0  0  0  0
   -3.4791    1.1145   -1.4213 H   0  0  0  0  0  0  0  0  0  0  0  0
   -4.0480    1.9355    0.8581 H   0  0  0  0  0  0  0  0  0  0  0  0
   -1.0394    3.4880    3.4559 N   0  0  0  0  0  0  0  0  0  0  0  0
    0.1437    1.0503    2.1627 O   0  0  0  0  0  0  0  0  0  0  0  0
    0.0473    3.3184    3.4901 O   0  0  0  0  0  0  0  0  0  0  0  0
  1  6  1  0  0  0  0
  1  2  2  0  0  0  0
  2  3  1  0  0  0  0
  3  4  1  0  0  0  0
  3 12  2  0  0  0  0
  5 10  1  0  0  0  0
  5  4  1  0  0  0  0
  6  5  1  0  0  0  0
  7  1  1  0  0  0  0
  8  2  1  0  0  0  0
  9  6  1  0  0  0  0
 11 13  2  0  0  0  0
M  RAD  4   4   3   5   2   6   2  11   2
M  END
