Coordinates from ORCA-job o-NO2-Ph+-B3LYPG-aug-cc-pVDZ-scan-d09-49-n400
 OpenBabel10111716033D

 13 12  0  0  0  0  0  0  0  0999 V2000
   -1.5075    0.3817   -0.9343 C   0  0  0  0  0  0  0  0  0  0  0  0
   -0.3923    0.3881   -0.1500 C   0  0  0  0  0  0  0  0  0  0  0  0
   -0.4446    1.1052    1.1595 C   0  0  0  0  0  0  0  0  0  0  0  0
   -1.6675    1.8894    1.4493 C   0  0  0  0  0  0  0  0  0  0  0  0
   -2.8224    1.7192    0.7476 C   0  0  0  0  0  0  0  0  0  0  0  0
   -2.6887    1.0721   -0.5125 C   0  0  0  0  0  0  0  0  0  0  0  0
   -1.5276   -0.1564   -1.8824 H   0  0  0  0  0  0  0  0  0  0  0  0
    0.4986   -0.2059   -0.3615 H   0  0  0  0  0  0  0  0  0  0  0  0
   -3.5127    1.1649   -1.2265 H   0  0  0  0  0  0  0  0  0  0  0  0
   -3.7565    2.2199    1.0080 H   0  0  0  0  0  0  0  0  0  0  0  0
   -1.5668    3.1638    3.1568 N   0  0  0  0  0  0  0  0  0  0  0  0
    0.4309    0.9687    2.0021 O   0  0  0  0  0  0  0  0  0  0  0  0
   -0.5101    3.4126    3.4398 O   0  0  0  0  0  0  0  0  0  0  0  0
  1  6  1  0  0  0  0
  1  2  2  0  0  0  0
  2  3  1  0  0  0  0
  3  4  1  0  0  0  0
  3 12  2  0  0  0  0
  5 10  1  0  0  0  0
  5  4  1  0  0  0  0
  6  5  2  0  0  0  0
  7  1  1  0  0  0  0
  8  2  1  0  0  0  0
  9  6  1  0  0  0  0
 11 13  2  0  0  0  0
M  RAD  2   4   3  11   2
M  END
