Coordinates from ORCA-job o-NO2-Ph+-B3LYPG-aug-cc-pVDZ-scan-d09-49-n400
 OpenBabel10111716033D

 13 12  0  0  0  0  0  0  0  0999 V2000
   -1.5067    0.3816   -0.9366 C   0  0  0  0  0  0  0  0  0  0  0  0
   -0.3927    0.3878   -0.1510 C   0  0  0  0  0  0  0  0  0  0  0  0
   -0.4473    1.1046    1.1585 C   0  0  0  0  0  0  0  0  0  0  0  0
   -1.6713    1.8872    1.4478 C   0  0  0  0  0  0  0  0  0  0  0  0
   -2.8259    1.7147    0.7456 C   0  0  0  0  0  0  0  0  0  0  0  0
   -2.6893    1.0705   -0.5153 C   0  0  0  0  0  0  0  0  0  0  0  0
   -1.5256   -0.1557   -1.8852 H   0  0  0  0  0  0  0  0  0  0  0  0
    0.4988   -0.2056   -0.3617 H   0  0  0  0  0  0  0  0  0  0  0  0
   -3.5123    1.1638   -1.2304 H   0  0  0  0  0  0  0  0  0  0  0  0
   -3.7613    2.2133    1.0053 H   0  0  0  0  0  0  0  0  0  0  0  0
   -1.5590    3.1768    3.1683 N   0  0  0  0  0  0  0  0  0  0  0  0
    0.4260    0.9666    2.0035 O   0  0  0  0  0  0  0  0  0  0  0  0
   -0.5006    3.4178    3.4474 O   0  0  0  0  0  0  0  0  0  0  0  0
  1  6  1  0  0  0  0
  1  2  2  0  0  0  0
  2  3  1  0  0  0  0
  3  4  1  0  0  0  0
  3 12  2  0  0  0  0
  5 10  1  0  0  0  0
  5  4  1  0  0  0  0
  6  5  2  0  0  0  0
  7  1  1  0  0  0  0
  8  2  1  0  0  0  0
  9  6  1  0  0  0  0
 11 13  2  0  0  0  0
M  RAD  2   4   3  11   2
M  END
