Coordinates from ORCA-job o-NO2-Ph+-B3LYPG-aug-cc-pVDZ-scan-d09-49-n400
 OpenBabel10111716033D

 13 12  0  0  0  0  0  0  0  0999 V2000
   -1.4681    0.9924   -0.8332 C   0  0  0  0  0  0  0  0  0  0  0  0
   -0.7466    0.9996    0.3517 C   0  0  0  0  0  0  0  0  0  0  0  0
   -1.2422    1.0658    1.7869 C   0  0  0  0  0  0  0  0  0  0  0  0
   -2.5744    0.9615    1.4593 C   0  0  0  0  0  0  0  0  0  0  0  0
   -3.4722    0.9765    0.4674 C   0  0  0  0  0  0  0  0  0  0  0  0
   -2.8639    0.9692   -0.8200 C   0  0  0  0  0  0  0  0  0  0  0  0
   -0.9218    0.9686   -1.7766 H   0  0  0  0  0  0  0  0  0  0  0  0
    0.3222    0.7697    0.3797 H   0  0  0  0  0  0  0  0  0  0  0  0
   -3.4840    1.0006   -1.7141 H   0  0  0  0  0  0  0  0  0  0  0  0
   -4.5463    1.0808    0.6298 H   0  0  0  0  0  0  0  0  0  0  0  0
    1.1998    3.3871    2.1487 N   0  0  0  0  0  0  0  0  0  0  0  0
   -0.4857    1.0636    2.7690 O   0  0  0  0  0  0  0  0  0  0  0  0
    0.8160    2.8879    3.0474 O   0  0  0  0  0  0  0  0  0  0  0  0
  1  6  1  0  0  0  0
  1  2  2  0  0  0  0
  2  8  1  0  0  0  0
  2  3  1  0  0  0  0
  3 12  2  0  0  0  0
  4  3  1  0  0  0  0
  5 10  1  0  0  0  0
  5  4  2  0  0  0  0
  6  5  1  0  0  0  0
  7  1  1  0  0  0  0
  9  6  1  0  0  0  0
 11 13  2  0  0  0  0
M  RAD  3   4   2   6   2  11   2
M  END
