Coordinates from ORCA-job o-NO2-Ph+-B3LYPG-aug-cc-pVDZ-scan-d09-49-n400
 OpenBabel10111716033D

 13 13  0  0  0  0  0  0  0  0999 V2000
   -1.5383    0.4119   -0.7776 C   0  0  0  0  0  0  0  0  0  0  0  0
   -0.4195    0.4868    0.0289 C   0  0  0  0  0  0  0  0  0  0  0  0
   -0.4731    1.2972    1.2129 C   0  0  0  0  0  0  0  0  0  0  0  0
   -1.7348    1.9421    1.3987 C   0  0  0  0  0  0  0  0  0  0  0  0
   -2.8781    1.8976    0.6226 C   0  0  0  0  0  0  0  0  0  0  0  0
   -2.7549    1.0965   -0.5042 C   0  0  0  0  0  0  0  0  0  0  0  0
   -1.4784   -0.2089   -1.6729 H   0  0  0  0  0  0  0  0  0  0  0  0
    0.5088   -0.0388   -0.1845 H   0  0  0  0  0  0  0  0  0  0  0  0
   -3.6022    0.9958   -1.1812 H   0  0  0  0  0  0  0  0  0  0  0  0
   -3.7860    2.4420    0.8769 H   0  0  0  0  0  0  0  0  0  0  0  0
   -1.4355    2.7662    2.8223 N   0  0  0  0  0  0  0  0  0  0  0  0
    0.4719    1.4644    2.0504 O   0  0  0  0  0  0  0  0  0  0  0  0
   -0.3469    2.5705    3.2037 O   0  0  0  0  0  0  0  0  0  0  0  0
  1  6  1  0  0  0  0
  1  2  2  0  0  0  0
  2  3  1  0  0  0  0
  3  4  1  0  0  0  0
  3 12  2  0  0  0  0
  4 11  1  0  0  0  0
  5 10  1  0  0  0  0
  5  4  2  0  0  0  0
  6  5  1  0  0  0  0
  7  1  1  0  0  0  0
  8  2  1  0  0  0  0
  9  6  1  0  0  0  0
 11 13  1  0  0  0  0
M  RAD  3   6   2  11   2  13   2
M  END
