Coordinates from ORCA-job o-NO2-Ph+-B3LYPG-aug-cc-pVDZ-scan-d09-49-n400
 OpenBabel10111716023D

 13 14  0  0  0  0  0  0  0  0999 V2000
   -1.5272    0.4170   -0.7631 C   0  0  0  0  0  0  0  0  0  0  0  0
   -0.4007    0.4852    0.0382 C   0  0  0  0  0  0  0  0  0  0  0  0
   -0.4883    1.2940    1.1988 C   0  0  0  0  0  0  0  0  0  0  0  0
   -1.7334    1.9687    1.4396 C   0  0  0  0  0  0  0  0  0  0  0  0
   -2.8776    1.9063    0.6359 C   0  0  0  0  0  0  0  0  0  0  0  0
   -2.7479    1.1084   -0.4820 C   0  0  0  0  0  0  0  0  0  0  0  0
   -1.4803   -0.2004   -1.6613 H   0  0  0  0  0  0  0  0  0  0  0  0
    0.5215   -0.0454   -0.1864 H   0  0  0  0  0  0  0  0  0  0  0  0
   -3.5876    0.9992   -1.1670 H   0  0  0  0  0  0  0  0  0  0  0  0
   -3.7867    2.4492    0.8874 H   0  0  0  0  0  0  0  0  0  0  0  0
   -1.4598    2.7239    2.7436 N   0  0  0  0  0  0  0  0  0  0  0  0
    0.4376    1.4953    2.0756 O   0  0  0  0  0  0  0  0  0  0  0  0
   -0.3369    2.5219    3.1370 O   0  0  0  0  0  0  0  0  0  0  0  0
  1  6  2  0  0  0  0
  1  2  1  0  0  0  0
  2  3  2  0  0  0  0
  3  4  1  0  0  0  0
  3 12  1  0  0  0  0
  4 11  1  0  0  0  0
  5 10  1  0  0  0  0
  5  4  2  0  0  0  0
  6  5  1  0  0  0  0
  7  1  1  0  0  0  0
  8  2  1  0  0  0  0
  9  6  1  0  0  0  0
 11 13  1  0  0  0  0
 12 13  1  0  0  0  0
M  RAD  1  11   2
M  END
