Coordinates from ORCA-job o-NO2-Ph+-B3LYPG-aug-cc-pVDZ-scan-d09-49-n400
 OpenBabel10111716033D

 13 12  0  0  0  0  0  0  0  0999 V2000
   -1.4884    0.3913   -0.9609 C   0  0  0  0  0  0  0  0  0  0  0  0
   -0.3995    0.4156   -0.1438 C   0  0  0  0  0  0  0  0  0  0  0  0
   -0.5270    1.1077    1.1691 C   0  0  0  0  0  0  0  0  0  0  0  0
   -1.7798    1.8522    1.4010 C   0  0  0  0  0  0  0  0  0  0  0  0
   -2.9279    1.6208    0.7043 C   0  0  0  0  0  0  0  0  0  0  0  0
   -2.7110    1.0323   -0.5693 C   0  0  0  0  0  0  0  0  0  0  0  0
   -1.4647   -0.1341   -1.9162 H   0  0  0  0  0  0  0  0  0  0  0  0
    0.5081   -0.1620   -0.3266 H   0  0  0  0  0  0  0  0  0  0  0  0
   -3.4970    1.1461   -1.3222 H   0  0  0  0  0  0  0  0  0  0  0  0
   -3.8886    2.0785    0.9438 H   0  0  0  0  0  0  0  0  0  0  0  0
   -1.3441    3.3615    3.3381 N   0  0  0  0  0  0  0  0  0  0  0  0
    0.3049    0.9848    2.0618 O   0  0  0  0  0  0  0  0  0  0  0  0
   -0.2525    3.4287    3.5169 O   0  0  0  0  0  0  0  0  0  0  0  0
  1  6  1  0  0  0  0
  1  2  2  0  0  0  0
  2  3  1  0  0  0  0
  3  4  1  0  0  0  0
  3 12  2  0  0  0  0
  5 10  1  0  0  0  0
  5  4  1  0  0  0  0
  6  5  1  0  0  0  0
  7  1  1  0  0  0  0
  8  2  1  0  0  0  0
  9  6  1  0  0  0  0
 11 13  2  0  0  0  0
M  RAD  4   4   3   5   2   6   2  11   2
M  END
