Coordinates from ORCA-job o-NO2-Ph+-B3LYPG-aug-cc-pVDZ-scan-d09-49-n400
 OpenBabel10111716033D

 13 13  0  0  0  0  0  0  0  0999 V2000
   -1.5426    0.4097   -0.7836 C   0  0  0  0  0  0  0  0  0  0  0  0
   -0.4272    0.4877    0.0256 C   0  0  0  0  0  0  0  0  0  0  0  0
   -0.4698    1.2986    1.2171 C   0  0  0  0  0  0  0  0  0  0  0  0
   -1.7364    1.9328    1.3838 C   0  0  0  0  0  0  0  0  0  0  0  0
   -2.8789    1.8933    0.6156 C   0  0  0  0  0  0  0  0  0  0  0  0
   -2.7584    1.0914   -0.5141 C   0  0  0  0  0  0  0  0  0  0  0  0
   -1.4777   -0.2124   -1.6778 H   0  0  0  0  0  0  0  0  0  0  0  0
    0.5039   -0.0357   -0.1828 H   0  0  0  0  0  0  0  0  0  0  0  0
   -3.6074    0.9926   -1.1892 H   0  0  0  0  0  0  0  0  0  0  0  0
   -3.7860    2.4387    0.8719 H   0  0  0  0  0  0  0  0  0  0  0  0
   -1.4246    2.7859    2.8586 N   0  0  0  0  0  0  0  0  0  0  0  0
    0.4814    1.4553    2.0427 O   0  0  0  0  0  0  0  0  0  0  0  0
   -0.3436    2.5853    3.2280 O   0  0  0  0  0  0  0  0  0  0  0  0
  1  6  1  0  0  0  0
  1  2  2  0  0  0  0
  2  3  1  0  0  0  0
  3  4  1  0  0  0  0
  3 12  2  0  0  0  0
  4 11  1  0  0  0  0
  5 10  1  0  0  0  0
  5  4  2  0  0  0  0
  6  5  1  0  0  0  0
  7  1  1  0  0  0  0
  8  2  1  0  0  0  0
  9  6  1  0  0  0  0
 11 13  1  0  0  0  0
M  RAD  3   6   2  11   2  13   2
M  END
