Coordinates from ORCA-job o-NO2-Ph+-B3LYPG-aug-cc-pVDZ-scan-d09-49-n400
 OpenBabel10111716033D

 13 12  0  0  0  0  0  0  0  0999 V2000
   -1.3435    1.2476   -0.6467 C   0  0  0  0  0  0  0  0  0  0  0  0
   -0.7150    1.0611    0.6081 C   0  0  0  0  0  0  0  0  0  0  0  0
   -1.3530    0.9500    2.0203 C   0  0  0  0  0  0  0  0  0  0  0  0
   -2.6276    0.6690    1.5294 C   0  0  0  0  0  0  0  0  0  0  0  0
   -3.4033    0.8832    0.4616 C   0  0  0  0  0  0  0  0  0  0  0  0
   -2.7111    1.1480   -0.7701 C   0  0  0  0  0  0  0  0  0  0  0  0
   -0.7117    1.4291   -1.5183 H   0  0  0  0  0  0  0  0  0  0  0  0
    0.2484    0.5440    0.6549 H   0  0  0  0  0  0  0  0  0  0  0  0
   -3.2621    1.3122   -1.6940 H   0  0  0  0  0  0  0  0  0  0  0  0
   -4.4923    0.9286    0.5507 H   0  0  0  0  0  0  0  0  0  0  0  0
    0.7887    2.9553    1.2849 N   0  0  0  0  0  0  0  0  0  0  0  0
   -0.6787    0.9962    3.0266 O   0  0  0  0  0  0  0  0  0  0  0  0
    0.7939    2.9988    2.3885 O   0  0  0  0  0  0  0  0  0  0  0  0
  1  2  1  0  0  0  0
  2  8  1  0  0  0  0
  2  3  1  0  0  0  0
  3 12  2  0  0  0  0
  4  3  1  0  0  0  0
  5 10  1  0  0  0  0
  5  4  1  0  0  0  0
  6  1  1  0  0  0  0
  6  5  2  0  0  0  0
  7  1  1  0  0  0  0
  9  6  1  0  0  0  0
 11 13  2  0  0  0  0
M  RAD  4   1   2   2   2   4   3  11   2
M  END
