Coordinates from ORCA-job o-NO2-Ph+-B3LYPG-aug-cc-pVDZ-scan-d09-49-n400
 OpenBabel10111716033D

 13 12  0  0  0  0  0  0  0  0999 V2000
   -1.2914    1.2134   -0.6466 C   0  0  0  0  0  0  0  0  0  0  0  0
   -0.6521    1.0607    0.6142 C   0  0  0  0  0  0  0  0  0  0  0  0
   -1.2794    0.8778    2.0422 C   0  0  0  0  0  0  0  0  0  0  0  0
   -2.5704    0.8243    1.5609 C   0  0  0  0  0  0  0  0  0  0  0  0
   -3.3541    0.9931    0.4978 C   0  0  0  0  0  0  0  0  0  0  0  0
   -2.6585    1.1800   -0.7513 C   0  0  0  0  0  0  0  0  0  0  0  0
   -0.6592    1.3272   -1.5293 H   0  0  0  0  0  0  0  0  0  0  0  0
    0.3091    0.5347    0.6572 H   0  0  0  0  0  0  0  0  0  0  0  0
   -3.2137    1.3306   -1.6749 H   0  0  0  0  0  0  0  0  0  0  0  0
   -4.4407    1.0712    0.5903 H   0  0  0  0  0  0  0  0  0  0  0  0
    0.3556    2.9383    1.2097 N   0  0  0  0  0  0  0  0  0  0  0  0
   -0.5784    0.8183    3.0239 O   0  0  0  0  0  0  0  0  0  0  0  0
    0.5657    2.9537    2.3018 O   0  0  0  0  0  0  0  0  0  0  0  0
  1  2  1  0  0  0  0
  2  8  1  0  0  0  0
  2  3  1  0  0  0  0
  3 12  2  0  0  0  0
  4  3  1  0  0  0  0
  5 10  1  0  0  0  0
  5  4  2  0  0  0  0
  6  1  2  0  0  0  0
  6  5  1  0  0  0  0
  7  1  1  0  0  0  0
  9  6  1  0  0  0  0
 11 13  2  0  0  0  0
M  RAD  3   2   2   4   2  11   2
M  END
