Coordinates from ORCA-job o-NO2-Ph+-B3LYPG-aug-cc-pVDZ-scan-d09-49-n400
 OpenBabel10111716033D

 13 12  0  0  0  0  0  0  0  0999 V2000
   -1.3096    1.2373   -0.6392 C   0  0  0  0  0  0  0  0  0  0  0  0
   -0.6695    1.0744    0.6193 C   0  0  0  0  0  0  0  0  0  0  0  0
   -1.3081    0.9112    2.0304 C   0  0  0  0  0  0  0  0  0  0  0  0
   -2.6098    0.7709    1.5568 C   0  0  0  0  0  0  0  0  0  0  0  0
   -3.3802    0.9434    0.4854 C   0  0  0  0  0  0  0  0  0  0  0  0
   -2.6748    1.1665   -0.7541 C   0  0  0  0  0  0  0  0  0  0  0  0
   -0.6793    1.3818   -1.5188 H   0  0  0  0  0  0  0  0  0  0  0  0
    0.2868    0.5404    0.6567 H   0  0  0  0  0  0  0  0  0  0  0  0
   -3.2265    1.3177   -1.6798 H   0  0  0  0  0  0  0  0  0  0  0  0
   -4.4695    0.9997    0.5628 H   0  0  0  0  0  0  0  0  0  0  0  0
    0.5285    2.9362    1.2240 N   0  0  0  0  0  0  0  0  0  0  0  0
   -0.6245    0.8859    3.0283 O   0  0  0  0  0  0  0  0  0  0  0  0
    0.6694    2.9581    2.3243 O   0  0  0  0  0  0  0  0  0  0  0  0
  1  2  1  0  0  0  0
  2  8  1  0  0  0  0
  2  3  1  0  0  0  0
  3 12  2  0  0  0  0
  4  3  1  0  0  0  0
  5 10  1  0  0  0  0
  5  4  2  0  0  0  0
  6  1  2  0  0  0  0
  6  5  1  0  0  0  0
  7  1  1  0  0  0  0
  9  6  1  0  0  0  0
 11 13  2  0  0  0  0
M  RAD  3   2   2   4   2  11   2
M  END
