Coordinates from ORCA-job o-NO2-Ph+-B3LYPG-aug-cc-pVDZ-scan-d09-49-n400
 OpenBabel10111716033D

 13 12  0  0  0  0  0  0  0  0999 V2000
   -1.3371    1.2488   -0.6467 C   0  0  0  0  0  0  0  0  0  0  0  0
   -0.7102    1.0636    0.6102 C   0  0  0  0  0  0  0  0  0  0  0  0
   -1.3458    0.9474    2.0280 C   0  0  0  0  0  0  0  0  0  0  0  0
   -2.6148    0.6833    1.5310 C   0  0  0  0  0  0  0  0  0  0  0  0
   -3.3939    0.8935    0.4647 C   0  0  0  0  0  0  0  0  0  0  0  0
   -2.7044    1.1536   -0.7692 C   0  0  0  0  0  0  0  0  0  0  0  0
   -0.7034    1.4259   -1.5178 H   0  0  0  0  0  0  0  0  0  0  0  0
    0.2490    0.5380    0.6577 H   0  0  0  0  0  0  0  0  0  0  0  0
   -3.2558    1.3165   -1.6930 H   0  0  0  0  0  0  0  0  0  0  0  0
   -4.4824    0.9399    0.5579 H   0  0  0  0  0  0  0  0  0  0  0  0
    0.7349    2.9408    1.2695 N   0  0  0  0  0  0  0  0  0  0  0  0
   -0.6663    0.9858    3.0304 O   0  0  0  0  0  0  0  0  0  0  0  0
    0.7628    2.9863    2.3734 O   0  0  0  0  0  0  0  0  0  0  0  0
  1  2  1  0  0  0  0
  2  8  1  0  0  0  0
  2  3  1  0  0  0  0
  3 12  2  0  0  0  0
  4  3  1  0  0  0  0
  5 10  1  0  0  0  0
  5  4  1  0  0  0  0
  6  1  1  0  0  0  0
  6  5  2  0  0  0  0
  7  1  1  0  0  0  0
  9  6  1  0  0  0  0
 11 13  2  0  0  0  0
M  RAD  4   1   2   2   2   4   3  11   2
M  END
