Coordinates from ORCA-job o-NO2-Ph+-B3LYPG-aug-cc-pVDZ-scan-d09-49-n400
 OpenBabel10111716033D

 13 12  0  0  0  0  0  0  0  0999 V2000
   -1.4963    0.3853   -0.9551 C   0  0  0  0  0  0  0  0  0  0  0  0
   -0.3969    0.3982   -0.1516 C   0  0  0  0  0  0  0  0  0  0  0  0
   -0.4917    1.1000    1.1613 C   0  0  0  0  0  0  0  0  0  0  0  0
   -1.7305    1.8645    1.4234 C   0  0  0  0  0  0  0  0  0  0  0  0
   -2.8816    1.6594    0.7215 C   0  0  0  0  0  0  0  0  0  0  0  0
   -2.7012    1.0482   -0.5475 C   0  0  0  0  0  0  0  0  0  0  0  0
   -1.4925   -0.1433   -1.9088 H   0  0  0  0  0  0  0  0  0  0  0  0
    0.5036   -0.1861   -0.3483 H   0  0  0  0  0  0  0  0  0  0  0  0
   -3.5044    1.1529   -1.2835 H   0  0  0  0  0  0  0  0  0  0  0  0
   -3.8318    2.1344    0.9701 H   0  0  0  0  0  0  0  0  0  0  0  0
   -1.4417    3.2995    3.2793 N   0  0  0  0  0  0  0  0  0  0  0  0
    0.3595    0.9680    2.0320 O   0  0  0  0  0  0  0  0  0  0  0  0
   -0.3616    3.4423    3.5033 O   0  0  0  0  0  0  0  0  0  0  0  0
  1  6  1  0  0  0  0
  1  2  2  0  0  0  0
  2  3  1  0  0  0  0
  3  4  1  0  0  0  0
  3 12  2  0  0  0  0
  5 10  1  0  0  0  0
  5  4  1  0  0  0  0
  6  5  1  0  0  0  0
  7  1  1  0  0  0  0
  8  2  1  0  0  0  0
  9  6  1  0  0  0  0
 11 13  2  0  0  0  0
M  RAD  4   4   3   5   2   6   2  11   2
M  END
