Coordinates from ORCA-job o-NO2-Ph+-B3LYPG-aug-cc-pVDZ-scan-d09-49-n400
 OpenBabel10111716033D

 13 12  0  0  0  0  0  0  0  0999 V2000
   -1.4540    0.4492   -0.9511 C   0  0  0  0  0  0  0  0  0  0  0  0
   -0.4266    0.5777   -0.0572 C   0  0  0  0  0  0  0  0  0  0  0  0
   -0.7245    1.1783    1.2611 C   0  0  0  0  0  0  0  0  0  0  0  0
   -2.0430    1.7720    1.2928 C   0  0  0  0  0  0  0  0  0  0  0  0
   -3.1575    1.4535    0.6056 C   0  0  0  0  0  0  0  0  0  0  0  0
   -2.7640    0.9350   -0.6644 C   0  0  0  0  0  0  0  0  0  0  0  0
   -1.2971   -0.0579   -1.9042 H   0  0  0  0  0  0  0  0  0  0  0  0
    0.5339    0.0704   -0.1669 H   0  0  0  0  0  0  0  0  0  0  0  0
   -3.4783    1.0530   -1.4844 H   0  0  0  0  0  0  0  0  0  0  0  0
   -4.1601    1.8472    0.7736 H   0  0  0  0  0  0  0  0  0  0  0  0
   -0.7636    3.5885    3.5053 N   0  0  0  0  0  0  0  0  0  0  0  0
    0.0157    1.0783    2.2511 O   0  0  0  0  0  0  0  0  0  0  0  0
    0.2517    3.1781    3.4346 O   0  0  0  0  0  0  0  0  0  0  0  0
  1  6  1  0  0  0  0
  1  2  2  0  0  0  0
  2  3  1  0  0  0  0
  3  4  1  0  0  0  0
  3 12  2  0  0  0  0
  5 10  1  0  0  0  0
  5  4  1  0  0  0  0
  6  5  1  0  0  0  0
  7  1  1  0  0  0  0
  8  2  1  0  0  0  0
  9  6  1  0  0  0  0
 13 11  2  0  0  0  0
M  RAD  4   4   3   5   2   6   2  11   2
M  END
