Coordinates from ORCA-job o-NO2-Ph+-B3LYPG-aug-cc-pVDZ-scan-d09-49-n400
 OpenBabel10111716033D

 13 12  0  0  0  0  0  0  0  0999 V2000
   -1.5355    0.8215   -0.9318 C   0  0  0  0  0  0  0  0  0  0  0  0
   -0.7490    0.9024    0.1994 C   0  0  0  0  0  0  0  0  0  0  0  0
   -1.1507    1.1044    1.6554 C   0  0  0  0  0  0  0  0  0  0  0  0
   -2.4928    1.1208    1.3950 C   0  0  0  0  0  0  0  0  0  0  0  0
   -3.4584    1.0855    0.4642 C   0  0  0  0  0  0  0  0  0  0  0  0
   -2.9317    0.9081   -0.8403 C   0  0  0  0  0  0  0  0  0  0  0  0
   -1.0505    0.6713   -1.8966 H   0  0  0  0  0  0  0  0  0  0  0  0
    0.3301    0.7224    0.1895 H   0  0  0  0  0  0  0  0  0  0  0  0
   -3.6021    0.8744   -1.6973 H   0  0  0  0  0  0  0  0  0  0  0  0
   -4.5171    1.2274    0.6841 H   0  0  0  0  0  0  0  0  0  0  0  0
    1.1739    3.7167    2.7396 N   0  0  0  0  0  0  0  0  0  0  0  0
   -0.3371    1.1116    2.5948 O   0  0  0  0  0  0  0  0  0  0  0  0
    0.8537    2.8569    3.3400 O   0  0  0  0  0  0  0  0  0  0  0  0
  1  6  1  0  0  0  0
  1  2  2  0  0  0  0
  2  3  1  0  0  0  0
  3 12  2  0  0  0  0
  4  3  1  0  0  0  0
  5 10  1  0  0  0  0
  5  4  2  0  0  0  0
  6  5  1  0  0  0  0
  7  1  1  0  0  0  0
  8  2  1  0  0  0  0
  9  6  1  0  0  0  0
 11 13  2  0  0  0  0
M  RAD  3   4   2   6   2  11   2
M  END
