Coordinates from ORCA-job o-NO2-Ph+-B3LYPG-aug-cc-pVDZ-scan-d09-49-n400
 OpenBabel10111716033D

 13 12  0  0  0  0  0  0  0  0999 V2000
   -1.4414    0.4874   -0.9407 C   0  0  0  0  0  0  0  0  0  0  0  0
   -0.4343    0.6236   -0.0215 C   0  0  0  0  0  0  0  0  0  0  0  0
   -0.7706    1.1623    1.3130 C   0  0  0  0  0  0  0  0  0  0  0  0
   -2.0954    1.7173    1.3103 C   0  0  0  0  0  0  0  0  0  0  0  0
   -3.1961    1.4170    0.5991 C   0  0  0  0  0  0  0  0  0  0  0  0
   -2.7680    0.9268   -0.6729 C   0  0  0  0  0  0  0  0  0  0  0  0
   -1.2473    0.0097   -1.9021 H   0  0  0  0  0  0  0  0  0  0  0  0
    0.5412    0.1434   -0.1235 H   0  0  0  0  0  0  0  0  0  0  0  0
   -3.4718    1.0464   -1.5014 H   0  0  0  0  0  0  0  0  0  0  0  0
   -4.2034    1.8050    0.7505 H   0  0  0  0  0  0  0  0  0  0  0  0
   -0.6361    3.6598    3.4017 N   0  0  0  0  0  0  0  0  0  0  0  0
   -0.0429    1.0384    2.3150 O   0  0  0  0  0  0  0  0  0  0  0  0
    0.2988    3.0863    3.3685 O   0  0  0  0  0  0  0  0  0  0  0  0
  1  6  1  0  0  0  0
  1  2  2  0  0  0  0
  2  3  1  0  0  0  0
  3 12  2  0  0  0  0
  4  3  1  0  0  0  0
  5 10  1  0  0  0  0
  5  4  1  0  0  0  0
  6  5  1  0  0  0  0
  7  1  1  0  0  0  0
  8  2  1  0  0  0  0
  9  6  1  0  0  0  0
 13 11  2  0  0  0  0
M  RAD  4   4   3   5   2   6   2  11   2
M  END
