Coordinates from ORCA-job o-NO2-Ph+-B3LYPG-aug-cc-pVDZ-scan-d09-49-n400
 OpenBabel10111716033D

 13 12  0  0  0  0  0  0  0  0999 V2000
   -1.4432    0.4897   -0.9415 C   0  0  0  0  0  0  0  0  0  0  0  0
   -0.4432    0.6404   -0.0152 C   0  0  0  0  0  0  0  0  0  0  0  0
   -0.7874    1.1730    1.3203 C   0  0  0  0  0  0  0  0  0  0  0  0
   -2.1154    1.7097    1.3022 C   0  0  0  0  0  0  0  0  0  0  0  0
   -3.2099    1.4093    0.5842 C   0  0  0  0  0  0  0  0  0  0  0  0
   -2.7751    0.9131   -0.6843 C   0  0  0  0  0  0  0  0  0  0  0  0
   -1.2350    0.0116   -1.8998 H   0  0  0  0  0  0  0  0  0  0  0  0
    0.5381    0.1703   -0.1091 H   0  0  0  0  0  0  0  0  0  0  0  0
   -3.4789    1.0190   -1.5144 H   0  0  0  0  0  0  0  0  0  0  0  0
   -4.2186    1.7964    0.7284 H   0  0  0  0  0  0  0  0  0  0  0  0
   -0.5788    3.6714    3.4288 N   0  0  0  0  0  0  0  0  0  0  0  0
   -0.0556    1.0513    2.3212 O   0  0  0  0  0  0  0  0  0  0  0  0
    0.3359    3.0680    3.3754 O   0  0  0  0  0  0  0  0  0  0  0  0
  1  6  1  0  0  0  0
  1  2  2  0  0  0  0
  2  3  1  0  0  0  0
  3 12  2  0  0  0  0
  4  3  1  0  0  0  0
  5 10  1  0  0  0  0
  5  4  1  0  0  0  0
  6  5  1  0  0  0  0
  7  1  1  0  0  0  0
  8  2  1  0  0  0  0
  9  6  1  0  0  0  0
 13 11  2  0  0  0  0
M  RAD  4   4   3   5   2   6   2  11   2
M  END
