Coordinates from ORCA-job o-NO2-Ph+-B3LYPG-aug-cc-pVDZ-scan-d09-49-n400
 OpenBabel10111716033D

 13 13  0  0  1  0  0  0  0  0999 V2000
   -1.5183    0.3874   -0.8962 C   0  0  0  0  0  0  0  0  0  0  0  0
   -0.3892    0.4049   -0.1245 C   0  0  0  0  0  0  0  0  0  0  0  0
   -0.4103    1.1411    1.1734 C   0  0  0  0  0  0  0  0  0  0  0  0
   -1.6354    1.9217    1.4617 C   0  0  1  0  0  0  0  0  0  0  0  0
   -2.7915    1.7781    0.7659 C   0  0  0  0  0  0  0  0  0  0  0  0
   -2.6847    1.0951   -0.4833 C   0  0  0  0  0  0  0  0  0  0  0  0
   -1.5475   -0.1696   -1.8332 H   0  0  0  0  0  0  0  0  0  0  0  0
    0.4919   -0.2047   -0.3333 H   0  0  0  0  0  0  0  0  0  0  0  0
   -3.5177    1.1775   -1.1870 H   0  0  0  0  0  0  0  0  0  0  0  0
   -3.7103    2.3018    1.0357 H   0  0  0  0  0  0  0  0  0  0  0  0
   -1.6371    2.9516    3.0013 N   0  0  0  0  0  0  0  0  0  0  0  0
    0.4854    1.0227    1.9955 O   0  0  0  0  0  0  0  0  0  0  0  0
   -0.6024    3.3157    3.3200 O   0  0  0  0  0  0  0  0  0  0  0  0
  1  6  1  0  0  0  0
  1  2  2  0  0  0  0
  2  3  1  0  0  0  0
  3  4  1  0  0  0  0
  3 12  2  0  0  0  0
  4 11  1  1  0  0  0
  5 10  1  0  0  0  0
  5  4  1  0  0  0  0
  6  5  2  0  0  0  0
  7  1  1  0  0  0  0
  8  2  1  0  0  0  0
  9  6  1  0  0  0  0
 11 13  1  0  0  0  0
M  RAD  3   4   2  11   2  13   2
M  END
