Coordinates from ORCA-job o-NO2-Ph+-B3LYPG-aug-cc-pVDZ-scan-d09-49-n400
 OpenBabel10111716033D

 13 12  0  0  0  0  0  0  0  0999 V2000
   -1.4418    0.4877   -0.9410 C   0  0  0  0  0  0  0  0  0  0  0  0
   -0.4356    0.6257   -0.0207 C   0  0  0  0  0  0  0  0  0  0  0  0
   -0.7726    1.1637    1.3140 C   0  0  0  0  0  0  0  0  0  0  0  0
   -2.0979    1.7161    1.3091 C   0  0  0  0  0  0  0  0  0  0  0  0
   -3.1978    1.4160    0.5970 C   0  0  0  0  0  0  0  0  0  0  0  0
   -2.7691    0.9249   -0.6746 C   0  0  0  0  0  0  0  0  0  0  0  0
   -1.2457    0.0099   -1.9019 H   0  0  0  0  0  0  0  0  0  0  0  0
    0.5406    0.1467   -0.1218 H   0  0  0  0  0  0  0  0  0  0  0  0
   -3.4729    1.0426   -1.5033 H   0  0  0  0  0  0  0  0  0  0  0  0
   -4.2052    1.8040    0.7475 H   0  0  0  0  0  0  0  0  0  0  0  0
   -0.6285    3.6618    3.4058 N   0  0  0  0  0  0  0  0  0  0  0  0
   -0.0442    1.0402    2.3157 O   0  0  0  0  0  0  0  0  0  0  0  0
    0.3036    3.0841    3.3700 O   0  0  0  0  0  0  0  0  0  0  0  0
  1  6  1  0  0  0  0
  1  2  2  0  0  0  0
  2  3  1  0  0  0  0
  3 12  2  0  0  0  0
  4  3  1  0  0  0  0
  5 10  1  0  0  0  0
  5  4  1  0  0  0  0
  6  5  1  0  0  0  0
  7  1  1  0  0  0  0
  8  2  1  0  0  0  0
  9  6  1  0  0  0  0
 13 11  2  0  0  0  0
M  RAD  4   4   3   5   2   6   2  11   2
M  END
