Coordinates from ORCA-job o-NO2-Ph+-B3LYPG-aug-cc-pVDZ-scan-d09-49-n400
 OpenBabel10111716033D

 13 12  0  0  0  0  0  0  0  0999 V2000
   -1.5077    0.3820   -0.9333 C   0  0  0  0  0  0  0  0  0  0  0  0
   -0.3921    0.3883   -0.1494 C   0  0  0  0  0  0  0  0  0  0  0  0
   -0.4430    1.1071    1.1593 C   0  0  0  0  0  0  0  0  0  0  0  0
   -1.6662    1.8905    1.4499 C   0  0  0  0  0  0  0  0  0  0  0  0
   -2.8211    1.7209    0.7485 C   0  0  0  0  0  0  0  0  0  0  0  0
   -2.6882    1.0733   -0.5116 C   0  0  0  0  0  0  0  0  0  0  0  0
   -1.5284   -0.1567   -1.8810 H   0  0  0  0  0  0  0  0  0  0  0  0
    0.4983   -0.2064   -0.3608 H   0  0  0  0  0  0  0  0  0  0  0  0
   -3.5128    1.1655   -1.2249 H   0  0  0  0  0  0  0  0  0  0  0  0
   -3.7550    2.2218    1.0094 H   0  0  0  0  0  0  0  0  0  0  0  0
   -1.5694    3.1572    3.1510 N   0  0  0  0  0  0  0  0  0  0  0  0
    0.4322    0.9692    2.0021 O   0  0  0  0  0  0  0  0  0  0  0  0
   -0.5136    3.4107    3.4368 O   0  0  0  0  0  0  0  0  0  0  0  0
  1  6  1  0  0  0  0
  1  2  2  0  0  0  0
  2  3  1  0  0  0  0
  3  4  1  0  0  0  0
  3 12  2  0  0  0  0
  5 10  1  0  0  0  0
  5  4  1  0  0  0  0
  6  5  2  0  0  0  0
  7  1  1  0  0  0  0
  8  2  1  0  0  0  0
  9  6  1  0  0  0  0
 11 13  2  0  0  0  0
M  RAD  2   4   3  11   2
M  END
