Coordinates from ORCA-job o-NO2-Ph+-B3LYPG-aug-cc-pVDZ-scan-d09-49-n400
 OpenBabel10111716033D

 13 12  0  0  0  0  0  0  0  0999 V2000
   -1.4875    0.3923   -0.9615 C   0  0  0  0  0  0  0  0  0  0  0  0
   -0.4001    0.4186   -0.1423 C   0  0  0  0  0  0  0  0  0  0  0  0
   -0.5312    1.1101    1.1705 C   0  0  0  0  0  0  0  0  0  0  0  0
   -1.7870    1.8498    1.3968 C   0  0  0  0  0  0  0  0  0  0  0  0
   -2.9346    1.6152    0.7016 C   0  0  0  0  0  0  0  0  0  0  0  0
   -2.7126    1.0301   -0.5729 C   0  0  0  0  0  0  0  0  0  0  0  0
   -1.4606   -0.1335   -1.9165 H   0  0  0  0  0  0  0  0  0  0  0  0
    0.5076   -0.1596   -0.3224 H   0  0  0  0  0  0  0  0  0  0  0  0
   -3.4960    1.1458   -1.3283 H   0  0  0  0  0  0  0  0  0  0  0  0
   -3.8965    2.0707    0.9401 H   0  0  0  0  0  0  0  0  0  0  0  0
   -1.3302    3.3688    3.3473 N   0  0  0  0  0  0  0  0  0  0  0  0
    0.2988    0.9888    2.0654 O   0  0  0  0  0  0  0  0  0  0  0  0
   -0.2373    3.4262    3.5182 O   0  0  0  0  0  0  0  0  0  0  0  0
  1  6  1  0  0  0  0
  1  2  2  0  0  0  0
  2  3  1  0  0  0  0
  3  4  1  0  0  0  0
  3 12  2  0  0  0  0
  5 10  1  0  0  0  0
  5  4  1  0  0  0  0
  6  5  1  0  0  0  0
  7  1  1  0  0  0  0
  8  2  1  0  0  0  0
  9  6  1  0  0  0  0
 11 13  2  0  0  0  0
M  RAD  4   4   3   5   2   6   2  11   2
M  END
