Coordinates from ORCA-job o-NO2-Ph+-B3LYPG-aug-cc-pVDZ-scan-d09-49-n400
 OpenBabel10111716023D

 13 12  0  0  0  0  0  0  0  0999 V2000
   -1.4973    0.4547   -0.6874 C   0  0  0  0  0  0  0  0  0  0  0  0
   -0.2448    0.3294   -0.0971 C   0  0  0  0  0  0  0  0  0  0  0  0
    0.2731    0.8800    1.0500 C   0  0  0  0  0  0  0  0  0  0  0  0
   -2.1345    2.3360    1.7413 C   0  0  0  0  0  0  0  0  0  0  0  0
   -2.9867    1.9860    0.6862 C   0  0  0  0  0  0  0  0  0  0  0  0
   -2.6937    1.1602   -0.3719 C   0  0  0  0  0  0  0  0  0  0  0  0
   -1.5712   -0.1283   -1.6083 H   0  0  0  0  0  0  0  0  0  0  0  0
    0.5038   -0.3059   -0.5842 H   0  0  0  0  0  0  0  0  0  0  0  0
   -3.4997    1.0151   -1.0907 H   0  0  0  0  0  0  0  0  0  0  0  0
   -3.9868    2.4270    0.7268 H   0  0  0  0  0  0  0  0  0  0  0  0
   -1.5677    2.6841    2.6180 N   0  0  0  0  0  0  0  0  0  0  0  0
    0.8448    1.2539    1.9628 O   0  0  0  0  0  0  0  0  0  0  0  0
   -0.9065    3.0310    3.5504 O   0  0  0  0  0  0  0  0  0  0  0  0
  1  6  1  0  0  0  0
  1  2  2  0  0  0  0
  2  3  1  0  0  0  0
  3 12  1  0  0  0  0
  4 11  1  0  0  0  0
  5 10  1  0  0  0  0
  5  4  1  0  0  0  0
  6  5  2  0  0  0  0
  7  1  1  0  0  0  0
  8  2  1  0  0  0  0
  9  6  1  0  0  0  0
 11 13  1  0  0  0  0
M  RAD  5   3   3   4   3  11   2  12   2  13   2
M  END
