Coordinates from ORCA-job o-NO2-Ph+-B3LYPG-aug-cc-pVDZ-scan-d09-49-n400
 OpenBabel10111716033D

 13 12  0  0  0  0  0  0  0  0999 V2000
   -1.3843    1.1934   -0.6993 C   0  0  0  0  0  0  0  0  0  0  0  0
   -0.7503    1.0410    0.5439 C   0  0  0  0  0  0  0  0  0  0  0  0
   -1.3459    0.9914    1.9754 C   0  0  0  0  0  0  0  0  0  0  0  0
   -2.6066    0.6973    1.5019 C   0  0  0  0  0  0  0  0  0  0  0  0
   -3.4234    0.8832    0.4532 C   0  0  0  0  0  0  0  0  0  0  0  0
   -2.7632    1.1016   -0.7947 C   0  0  0  0  0  0  0  0  0  0  0  0
   -0.7643    1.3337   -1.5862 H   0  0  0  0  0  0  0  0  0  0  0  0
    0.2551    0.6158    0.6058 H   0  0  0  0  0  0  0  0  0  0  0  0
   -3.3290    1.2428   -1.7133 H   0  0  0  0  0  0  0  0  0  0  0  0
   -4.5070    0.9453    0.5796 H   0  0  0  0  0  0  0  0  0  0  0  0
    0.9709    3.0438    1.4871 N   0  0  0  0  0  0  0  0  0  0  0  0
   -0.6397    1.0534    2.9678 O   0  0  0  0  0  0  0  0  0  0  0  0
    0.8203    2.9806    2.5749 O   0  0  0  0  0  0  0  0  0  0  0  0
  1  2  1  0  0  0  0
  2  8  1  0  0  0  0
  2  3  1  0  0  0  0
  3 12  2  0  0  0  0
  4  3  1  0  0  0  0
  5 10  1  0  0  0  0
  5  4  1  0  0  0  0
  6  1  1  0  0  0  0
  6  5  2  0  0  0  0
  7  1  1  0  0  0  0
  9  6  1  0  0  0  0
 11 13  2  0  0  0  0
M  RAD  4   1   2   2   2   4   3  11   2
M  END
