Coordinates from ORCA-job o-NO2-Ph+-B3LYPG-aug-cc-pVDZ-scan-d09-49-n400
 OpenBabel10111716033D

 13 12  0  0  0  0  0  0  0  0999 V2000
   -1.4628    0.4283   -0.9576 C   0  0  0  0  0  0  0  0  0  0  0  0
   -0.4158    0.5221   -0.0866 C   0  0  0  0  0  0  0  0  0  0  0  0
   -0.6642    1.1610    1.2271 C   0  0  0  0  0  0  0  0  0  0  0  0
   -1.9706    1.8002    1.3144 C   0  0  0  0  0  0  0  0  0  0  0  0
   -3.0984    1.4943    0.6345 C   0  0  0  0  0  0  0  0  0  0  0  0
   -2.7496    0.9656   -0.6411 C   0  0  0  0  0  0  0  0  0  0  0  0
   -1.3480   -0.0887   -1.9113 H   0  0  0  0  0  0  0  0  0  0  0  0
    0.5253   -0.0158   -0.2151 H   0  0  0  0  0  0  0  0  0  0  0  0
   -3.4781    1.0945   -1.4472 H   0  0  0  0  0  0  0  0  0  0  0  0
   -4.0916    1.9005    0.8272 H   0  0  0  0  0  0  0  0  0  0  0  0
   -0.9404    3.5235    3.4827 N   0  0  0  0  0  0  0  0  0  0  0  0
    0.0976    1.0658    2.1943 O   0  0  0  0  0  0  0  0  0  0  0  0
    0.1295    3.2721    3.4748 O   0  0  0  0  0  0  0  0  0  0  0  0
  1  6  1  0  0  0  0
  1  2  2  0  0  0  0
  2  3  1  0  0  0  0
  3  4  1  0  0  0  0
  3 12  2  0  0  0  0
  5 10  1  0  0  0  0
  5  4  1  0  0  0  0
  6  5  1  0  0  0  0
  7  1  1  0  0  0  0
  8  2  1  0  0  0  0
  9  6  1  0  0  0  0
 13 11  2  0  0  0  0
M  RAD  4   4   3   5   2   6   2  11   2
M  END
