Coordinates from ORCA-job o-NO2-Ph+-B3LYPG-aug-cc-pVDZ-scan-d09-49-n400
 OpenBabel10111716033D

 13 12  0  0  0  0  0  0  0  0999 V2000
   -1.3056    1.2334   -0.6399 C   0  0  0  0  0  0  0  0  0  0  0  0
   -0.6647    1.0737    0.6189 C   0  0  0  0  0  0  0  0  0  0  0  0
   -1.3019    0.9054    2.0315 C   0  0  0  0  0  0  0  0  0  0  0  0
   -2.6044    0.7848    1.5591 C   0  0  0  0  0  0  0  0  0  0  0  0
   -3.3762    0.9530    0.4884 C   0  0  0  0  0  0  0  0  0  0  0  0
   -2.6710    1.1688   -0.7527 C   0  0  0  0  0  0  0  0  0  0  0  0
   -0.6754    1.3710   -1.5207 H   0  0  0  0  0  0  0  0  0  0  0  0
    0.2926    0.5411    0.6566 H   0  0  0  0  0  0  0  0  0  0  0  0
   -3.2233    1.3188   -1.6783 H   0  0  0  0  0  0  0  0  0  0  0  0
   -4.4653    1.0122    0.5668 H   0  0  0  0  0  0  0  0  0  0  0  0
    0.4941    2.9358    1.2202 N   0  0  0  0  0  0  0  0  0  0  0  0
   -0.6156    0.8704    3.0269 O   0  0  0  0  0  0  0  0  0  0  0  0
    0.6495    2.9549    2.3193 O   0  0  0  0  0  0  0  0  0  0  0  0
  1  2  1  0  0  0  0
  2  8  1  0  0  0  0
  2  3  1  0  0  0  0
  3 12  2  0  0  0  0
  4  3  1  0  0  0  0
  5 10  1  0  0  0  0
  5  4  2  0  0  0  0
  6  1  2  0  0  0  0
  6  5  1  0  0  0  0
  7  1  1  0  0  0  0
  9  6  1  0  0  0  0
 11 13  2  0  0  0  0
M  RAD  3   2   2   4   2  11   2
M  END
