Coordinates from ORCA-job o-NO2-Ph+-B3LYPG-aug-cc-pVDZ-scan-d09-49-n400
 OpenBabel10111716033D

 13 12  0  0  0  0  0  0  0  0999 V2000
   -1.5494    0.8081   -0.9443 C   0  0  0  0  0  0  0  0  0  0  0  0
   -0.7607    0.9144    0.1828 C   0  0  0  0  0  0  0  0  0  0  0  0
   -1.1599    1.1329    1.6372 C   0  0  0  0  0  0  0  0  0  0  0  0
   -2.5026    1.1351    1.3798 C   0  0  0  0  0  0  0  0  0  0  0  0
   -3.4710    1.0745    0.4530 C   0  0  0  0  0  0  0  0  0  0  0  0
   -2.9465    0.8827   -0.8500 C   0  0  0  0  0  0  0  0  0  0  0  0
   -1.0658    0.6487   -1.9083 H   0  0  0  0  0  0  0  0  0  0  0  0
    0.3215    0.7550    0.1708 H   0  0  0  0  0  0  0  0  0  0  0  0
   -3.6191    0.8268   -1.7041 H   0  0  0  0  0  0  0  0  0  0  0  0
   -4.5310    1.2036    0.6749 H   0  0  0  0  0  0  0  0  0  0  0  0
    1.2892    3.7122    2.8340 N   0  0  0  0  0  0  0  0  0  0  0  0
   -0.3446    1.1613    2.5745 O   0  0  0  0  0  0  0  0  0  0  0  0
    0.8728    2.8680    3.3959 O   0  0  0  0  0  0  0  0  0  0  0  0
  1  6  1  0  0  0  0
  1  2  2  0  0  0  0
  2  3  1  0  0  0  0
  3 12  2  0  0  0  0
  4  3  1  0  0  0  0
  5 10  1  0  0  0  0
  5  4  2  0  0  0  0
  6  5  1  0  0  0  0
  7  1  1  0  0  0  0
  8  2  1  0  0  0  0
  9  6  1  0  0  0  0
 11 13  2  0  0  0  0
M  RAD  3   4   2   6   2  11   2
M  END
