Coordinates from ORCA-job o-NO2-Ph+-B3LYPG-aug-cc-pVDZ-scan-d09-49-n400
 OpenBabel10111716033D

 13 12  0  0  0  0  0  0  0  0999 V2000
   -1.3939    1.1771   -0.7093 C   0  0  0  0  0  0  0  0  0  0  0  0
   -0.7521    1.0369    0.5295 C   0  0  0  0  0  0  0  0  0  0  0  0
   -1.3423    0.9966    1.9543 C   0  0  0  0  0  0  0  0  0  0  0  0
   -2.6129    0.7098    1.5011 C   0  0  0  0  0  0  0  0  0  0  0  0
   -3.4326    0.8841    0.4538 C   0  0  0  0  0  0  0  0  0  0  0  0
   -2.7742    1.0862   -0.7977 C   0  0  0  0  0  0  0  0  0  0  0  0
   -0.7801    1.3092   -1.6016 H   0  0  0  0  0  0  0  0  0  0  0  0
    0.2630    0.6353    0.5878 H   0  0  0  0  0  0  0  0  0  0  0  0
   -3.3440    1.2203   -1.7149 H   0  0  0  0  0  0  0  0  0  0  0  0
   -4.5158    0.9538    0.5799 H   0  0  0  0  0  0  0  0  0  0  0  0
    1.0216    3.0787    1.5416 N   0  0  0  0  0  0  0  0  0  0  0  0
   -0.6373    1.0551    2.9510 O   0  0  0  0  0  0  0  0  0  0  0  0
    0.8335    2.9802    2.6205 O   0  0  0  0  0  0  0  0  0  0  0  0
  1  2  1  0  0  0  0
  2  8  1  0  0  0  0
  2  3  1  0  0  0  0
  3 12  2  0  0  0  0
  4  3  1  0  0  0  0
  5 10  1  0  0  0  0
  5  4  1  0  0  0  0
  6  1  1  0  0  0  0
  6  5  2  0  0  0  0
  7  1  1  0  0  0  0
  9  6  1  0  0  0  0
 11 13  2  0  0  0  0
M  RAD  4   1   2   2   2   4   3  11   2
M  END
