Coordinates from ORCA-job o-NO2-Ph+-B3LYPG-aug-cc-pVDZ-scan-d09-49-n400
 OpenBabel10111716023D

 13 14  0  0  0  0  0  0  0  0999 V2000
   -1.5310    0.4153   -0.7681 C   0  0  0  0  0  0  0  0  0  0  0  0
   -0.4070    0.4857    0.0351 C   0  0  0  0  0  0  0  0  0  0  0  0
   -0.4832    1.2952    1.2037 C   0  0  0  0  0  0  0  0  0  0  0  0
   -1.7341    1.9590    1.4245 C   0  0  0  0  0  0  0  0  0  0  0  0
   -2.8780    1.9037    0.6318 C   0  0  0  0  0  0  0  0  0  0  0  0
   -2.7498    1.1043   -0.4894 C   0  0  0  0  0  0  0  0  0  0  0  0
   -1.4793   -0.2034   -1.6652 H   0  0  0  0  0  0  0  0  0  0  0  0
    0.5171   -0.0433   -0.1861 H   0  0  0  0  0  0  0  0  0  0  0  0
   -3.5927    0.9986   -1.1711 H   0  0  0  0  0  0  0  0  0  0  0  0
   -3.7875    2.4464    0.8826 H   0  0  0  0  0  0  0  0  0  0  0  0
   -1.4504    2.7384    2.7713 N   0  0  0  0  0  0  0  0  0  0  0  0
    0.4499    1.4842    2.0666 O   0  0  0  0  0  0  0  0  0  0  0  0
   -0.3412    2.5392    3.1603 O   0  0  0  0  0  0  0  0  0  0  0  0
  1  6  2  0  0  0  0
  1  2  1  0  0  0  0
  2  3  2  0  0  0  0
  3  4  1  0  0  0  0
  3 12  1  0  0  0  0
  4 11  1  0  0  0  0
  5 10  1  0  0  0  0
  5  4  2  0  0  0  0
  6  5  1  0  0  0  0
  7  1  1  0  0  0  0
  8  2  1  0  0  0  0
  9  6  1  0  0  0  0
 11 13  1  0  0  0  0
 12 13  1  0  0  0  0
M  RAD  1  11   2
M  END
