Coordinates from ORCA-job o-NO2-Ph+-B3LYPG-aug-cc-pVDZ-scan-d09-49-n400
 OpenBabel10111716023D

 13 14  0  0  0  0  0  0  0  0999 V2000
   -1.5268    0.4173   -0.7624 C   0  0  0  0  0  0  0  0  0  0  0  0
   -0.4000    0.4849    0.0383 C   0  0  0  0  0  0  0  0  0  0  0  0
   -0.4872    1.2935    1.1987 C   0  0  0  0  0  0  0  0  0  0  0  0
   -1.7327    1.9699    1.4419 C   0  0  0  0  0  0  0  0  0  0  0  0
   -2.8770    1.9066    0.6367 C   0  0  0  0  0  0  0  0  0  0  0  0
   -2.7477    1.1091   -0.4808 C   0  0  0  0  0  0  0  0  0  0  0  0
   -1.4806   -0.1999   -1.6608 H   0  0  0  0  0  0  0  0  0  0  0  0
    0.5219   -0.0459   -0.1869 H   0  0  0  0  0  0  0  0  0  0  0  0
   -3.5873    0.9999   -1.1659 H   0  0  0  0  0  0  0  0  0  0  0  0
   -3.7860    2.4497    0.8884 H   0  0  0  0  0  0  0  0  0  0  0  0
   -1.4622    2.7207    2.7374 N   0  0  0  0  0  0  0  0  0  0  0  0
    0.4375    1.4955    2.0758 O   0  0  0  0  0  0  0  0  0  0  0  0
   -0.3393    2.5219    3.1355 O   0  0  0  0  0  0  0  0  0  0  0  0
  1  6  2  0  0  0  0
  1  2  1  0  0  0  0
  2  3  2  0  0  0  0
  3  4  1  0  0  0  0
  3 12  1  0  0  0  0
  4 11  1  0  0  0  0
  5 10  1  0  0  0  0
  5  4  2  0  0  0  0
  6  5  1  0  0  0  0
  7  1  1  0  0  0  0
  8  2  1  0  0  0  0
  9  6  1  0  0  0  0
 11 13  1  0  0  0  0
 12 13  1  0  0  0  0
M  RAD  1  11   2
M  END
