Coordinates from ORCA-job o-NO2-Ph+-B3LYPG-aug-cc-pVDZ-scan-d09-49-n400
 OpenBabel10111716033D

 13 12  0  0  0  0  0  0  0  0999 V2000
   -1.3569    1.2378   -0.6574 C   0  0  0  0  0  0  0  0  0  0  0  0
   -0.7293    1.0554    0.5944 C   0  0  0  0  0  0  0  0  0  0  0  0
   -1.3600    0.9603    2.0089 C   0  0  0  0  0  0  0  0  0  0  0  0
   -2.6292    0.6616    1.5203 C   0  0  0  0  0  0  0  0  0  0  0  0
   -3.4130    0.8739    0.4560 C   0  0  0  0  0  0  0  0  0  0  0  0
   -2.7272    1.1354   -0.7773 C   0  0  0  0  0  0  0  0  0  0  0  0
   -0.7272    1.4158   -1.5311 H   0  0  0  0  0  0  0  0  0  0  0  0
    0.2466    0.5638    0.6459 H   0  0  0  0  0  0  0  0  0  0  0  0
   -3.2807    1.2962   -1.7002 H   0  0  0  0  0  0  0  0  0  0  0  0
   -4.5011    0.9203    0.5521 H   0  0  0  0  0  0  0  0  0  0  0  0
    0.8666    2.9789    1.3339 N   0  0  0  0  0  0  0  0  0  0  0  0
   -0.6822    1.0181    3.0146 O   0  0  0  0  0  0  0  0  0  0  0  0
    0.8265    3.0057    2.4358 O   0  0  0  0  0  0  0  0  0  0  0  0
  1  2  1  0  0  0  0
  2  8  1  0  0  0  0
  2  3  1  0  0  0  0
  3 12  2  0  0  0  0
  4  3  1  0  0  0  0
  5 10  1  0  0  0  0
  5  4  1  0  0  0  0
  6  1  1  0  0  0  0
  6  5  2  0  0  0  0
  7  1  1  0  0  0  0
  9  6  1  0  0  0  0
 11 13  2  0  0  0  0
M  RAD  4   1   2   2   2   4   3  11   2
M  END
