Coordinates from ORCA-job o-NO2-Ph+-B3LYPG-aug-cc-pVDZ-scan-d09-49-n400
 OpenBabel10111716033D

 13 12  0  0  0  0  0  0  0  0999 V2000
   -1.4835    0.3964   -0.9637 C   0  0  0  0  0  0  0  0  0  0  0  0
   -0.4023    0.4299   -0.1363 C   0  0  0  0  0  0  0  0  0  0  0  0
   -0.5510    1.1160    1.1759 C   0  0  0  0  0  0  0  0  0  0  0  0
   -1.8164    1.8414    1.3817 C   0  0  0  0  0  0  0  0  0  0  0  0
   -2.9622    1.5923    0.6911 C   0  0  0  0  0  0  0  0  0  0  0  0
   -2.7185    1.0208   -0.5860 C   0  0  0  0  0  0  0  0  0  0  0  0
   -1.4441   -0.1282   -1.9191 H   0  0  0  0  0  0  0  0  0  0  0  0
    0.5089   -0.1456   -0.3076 H   0  0  0  0  0  0  0  0  0  0  0  0
   -3.4913    1.1433   -1.3512 H   0  0  0  0  0  0  0  0  0  0  0  0
   -3.9298    2.0381    0.9242 H   0  0  0  0  0  0  0  0  0  0  0  0
   -1.2711    3.4011    3.3817 N   0  0  0  0  0  0  0  0  0  0  0  0
    0.2684    1.0020    2.0828 O   0  0  0  0  0  0  0  0  0  0  0  0
   -0.1743    3.4159    3.5225 O   0  0  0  0  0  0  0  0  0  0  0  0
  1  6  1  0  0  0  0
  1  2  2  0  0  0  0
  2  3  1  0  0  0  0
  3  4  1  0  0  0  0
  3 12  2  0  0  0  0
  5 10  1  0  0  0  0
  5  4  1  0  0  0  0
  6  5  1  0  0  0  0
  7  1  1  0  0  0  0
  8  2  1  0  0  0  0
  9  6  1  0  0  0  0
 11 13  2  0  0  0  0
M  RAD  4   4   3   5   2   6   2  11   2
M  END
