Coordinates from ORCA-job o-NO2-Ph+-B3LYPG-aug-cc-pVDZ-scan-d09-49-n400
 OpenBabel10111716033D

 13 12  0  0  0  0  0  0  0  0999 V2000
   -1.4463    0.5289   -0.9437 C   0  0  0  0  0  0  0  0  0  0  0  0
   -0.4960    0.7138    0.0339 C   0  0  0  0  0  0  0  0  0  0  0  0
   -0.8715    1.1844    1.3904 C   0  0  0  0  0  0  0  0  0  0  0  0
   -2.2129    1.6243    1.2937 C   0  0  0  0  0  0  0  0  0  0  0  0
   -3.2712    1.3607    0.5189 C   0  0  0  0  0  0  0  0  0  0  0  0
   -2.8012    0.8708   -0.7416 C   0  0  0  0  0  0  0  0  0  0  0  0
   -1.1605    0.0803   -1.8961 H   0  0  0  0  0  0  0  0  0  0  0  0
    0.5115    0.2942   -0.0257 H   0  0  0  0  0  0  0  0  0  0  0  0
   -3.5007    0.9184   -1.5789 H   0  0  0  0  0  0  0  0  0  0  0  0
   -4.2863    1.7388    0.6405 H   0  0  0  0  0  0  0  0  0  0  0  0
   -0.3025    3.7436    3.4505 N   0  0  0  0  0  0  0  0  0  0  0  0
   -0.1228    1.0721    2.3838 O   0  0  0  0  0  0  0  0  0  0  0  0
    0.4932    2.9929    3.3703 O   0  0  0  0  0  0  0  0  0  0  0  0
  1  6  1  0  0  0  0
  1  2  2  0  0  0  0
  2  3  1  0  0  0  0
  3 12  2  0  0  0  0
  4  3  1  0  0  0  0
  5 10  1  0  0  0  0
  5  4  1  0  0  0  0
  6  5  2  0  0  0  0
  7  1  1  0  0  0  0
  8  2  1  0  0  0  0
  9  6  1  0  0  0  0
 13 11  2  0  0  0  0
M  RAD  2   4   3  11   2
M  END
