Coordinates from ORCA-job o-NO2-Ph+-B3LYPG-aug-cc-pVDZ-scan-d09-49-n400
 OpenBabel10111716033D

 13 12  0  0  0  0  0  0  0  0999 V2000
   -1.4912    0.3888   -0.9600 C   0  0  0  0  0  0  0  0  0  0  0  0
   -0.3986    0.4084   -0.1477 C   0  0  0  0  0  0  0  0  0  0  0  0
   -0.5144    1.1033    1.1657 C   0  0  0  0  0  0  0  0  0  0  0  0
   -1.7617    1.8556    1.4093 C   0  0  0  0  0  0  0  0  0  0  0  0
   -2.9109    1.6339    0.7101 C   0  0  0  0  0  0  0  0  0  0  0  0
   -2.7076    1.0375   -0.5620 C   0  0  0  0  0  0  0  0  0  0  0  0
   -1.4748   -0.1372   -1.9150 H   0  0  0  0  0  0  0  0  0  0  0  0
    0.5065   -0.1715   -0.3358 H   0  0  0  0  0  0  0  0  0  0  0  0
   -3.5000    1.1482   -1.3087 H   0  0  0  0  0  0  0  0  0  0  0  0
   -3.8678    2.0978    0.9531 H   0  0  0  0  0  0  0  0  0  0  0  0
   -1.3795    3.3454    3.3213 N   0  0  0  0  0  0  0  0  0  0  0  0
    0.3245    0.9765    2.0505 O   0  0  0  0  0  0  0  0  0  0  0  0
   -0.2915    3.4366    3.5153 O   0  0  0  0  0  0  0  0  0  0  0  0
  1  6  1  0  0  0  0
  1  2  2  0  0  0  0
  2  3  1  0  0  0  0
  3  4  1  0  0  0  0
  3 12  2  0  0  0  0
  5 10  1  0  0  0  0
  5  4  1  0  0  0  0
  6  5  1  0  0  0  0
  7  1  1  0  0  0  0
  8  2  1  0  0  0  0
  9  6  1  0  0  0  0
 11 13  2  0  0  0  0
M  RAD  4   4   3   5   2   6   2  11   2
M  END
