Coordinates from ORCA-job o-NO2-Ph+-B3LYPG-aug-cc-pVDZ-scan-d09-49-n400
 OpenBabel10111716023D

 13 12  0  0  0  0  0  0  0  0999 V2000
   -1.4938    0.4582   -0.6808 C   0  0  0  0  0  0  0  0  0  0  0  0
   -0.2404    0.3296   -0.0948 C   0  0  0  0  0  0  0  0  0  0  0  0
    0.2763    0.8793    1.0538 C   0  0  0  0  0  0  0  0  0  0  0  0
   -2.1361    2.3483    1.7523 C   0  0  0  0  0  0  0  0  0  0  0  0
   -2.9865    1.9902    0.6934 C   0  0  0  0  0  0  0  0  0  0  0  0
   -2.6909    1.1648   -0.3621 C   0  0  0  0  0  0  0  0  0  0  0  0
   -1.5709   -0.1231   -1.6026 H   0  0  0  0  0  0  0  0  0  0  0  0
    0.5065   -0.3056   -0.5844 H   0  0  0  0  0  0  0  0  0  0  0  0
   -3.4966    1.0183   -1.0810 H   0  0  0  0  0  0  0  0  0  0  0  0
   -3.9874    2.4283    0.7314 H   0  0  0  0  0  0  0  0  0  0  0  0
   -1.5781    2.6676    2.5829 N   0  0  0  0  0  0  0  0  0  0  0  0
    0.8360    1.2598    1.9706 O   0  0  0  0  0  0  0  0  0  0  0  0
   -0.9054    3.0077    3.5173 O   0  0  0  0  0  0  0  0  0  0  0  0
  1  6  1  0  0  0  0
  1  2  2  0  0  0  0
  2  3  1  0  0  0  0
  3 12  1  0  0  0  0
  4 11  1  0  0  0  0
  5 10  1  0  0  0  0
  5  4  1  0  0  0  0
  6  5  2  0  0  0  0
  7  1  1  0  0  0  0
  8  2  1  0  0  0  0
  9  6  1  0  0  0  0
 11 13  1  0  0  0  0
M  RAD  5   3   3   4   3  11   2  12   2  13   2
M  END
