Coordinates from ORCA-job o-NO2-Ph+-B3LYPG-aug-cc-pVDZ-scan-d09-49-n400
 OpenBabel10111716033D

 13 12  0  0  0  0  0  0  0  0999 V2000
   -1.4546    0.4443   -0.9515 C   0  0  0  0  0  0  0  0  0  0  0  0
   -0.4201    0.5593   -0.0658 C   0  0  0  0  0  0  0  0  0  0  0  0
   -0.7052    1.1700    1.2511 C   0  0  0  0  0  0  0  0  0  0  0  0
   -2.0183    1.7831    1.3038 C   0  0  0  0  0  0  0  0  0  0  0  0
   -3.1377    1.4666    0.6195 C   0  0  0  0  0  0  0  0  0  0  0  0
   -2.7573    0.9482   -0.6529 C   0  0  0  0  0  0  0  0  0  0  0  0
   -1.3133   -0.0642   -1.9063 H   0  0  0  0  0  0  0  0  0  0  0  0
    0.5345    0.0428   -0.1833 H   0  0  0  0  0  0  0  0  0  0  0  0
   -3.4753    1.0724   -1.4690 H   0  0  0  0  0  0  0  0  0  0  0  0
   -4.1378    1.8631    0.7958 H   0  0  0  0  0  0  0  0  0  0  0  0
   -0.8277    3.5660    3.4808 N   0  0  0  0  0  0  0  0  0  0  0  0
    0.0378    1.0680    2.2368 O   0  0  0  0  0  0  0  0  0  0  0  0
    0.2077    3.2037    3.4372 O   0  0  0  0  0  0  0  0  0  0  0  0
  1  6  1  0  0  0  0
  1  2  2  0  0  0  0
  2  3  1  0  0  0  0
  3  4  1  0  0  0  0
  3 12  2  0  0  0  0
  5 10  1  0  0  0  0
  5  4  1  0  0  0  0
  6  5  1  0  0  0  0
  7  1  1  0  0  0  0
  8  2  1  0  0  0  0
  9  6  1  0  0  0  0
 13 11  2  0  0  0  0
M  RAD  4   4   3   5   2   6   2  11   2
M  END
