Coordinates from ORCA-job o-NO2-Ph+-B3LYPG-aug-cc-pVDZ-scan-d09-49-n400
 OpenBabel10111716033D

 13 12  0  0  0  0  0  0  0  0999 V2000
   -1.4455    0.5163   -0.9433 C   0  0  0  0  0  0  0  0  0  0  0  0
   -0.4816    0.6979    0.0200 C   0  0  0  0  0  0  0  0  0  0  0  0
   -0.8528    1.1868    1.3688 C   0  0  0  0  0  0  0  0  0  0  0  0
   -2.1917    1.6519    1.2909 C   0  0  0  0  0  0  0  0  0  0  0  0
   -3.2596    1.3714    0.5335 C   0  0  0  0  0  0  0  0  0  0  0  0
   -2.7958    0.8772   -0.7275 C   0  0  0  0  0  0  0  0  0  0  0  0
   -1.1795    0.0570   -1.8964 H   0  0  0  0  0  0  0  0  0  0  0  0
    0.5201    0.2662   -0.0473 H   0  0  0  0  0  0  0  0  0  0  0  0
   -3.4958    0.9394   -1.5639 H   0  0  0  0  0  0  0  0  0  0  0  0
   -4.2739    1.7510    0.6577 H   0  0  0  0  0  0  0  0  0  0  0  0
   -0.3627    3.7267    3.4625 N   0  0  0  0  0  0  0  0  0  0  0  0
   -0.1108    1.0721    2.3665 O   0  0  0  0  0  0  0  0  0  0  0  0
    0.4624    3.0094    3.3744 O   0  0  0  0  0  0  0  0  0  0  0  0
  1  6  1  0  0  0  0
  1  2  2  0  0  0  0
  2  3  1  0  0  0  0
  3 12  2  0  0  0  0
  4  3  1  0  0  0  0
  5 10  1  0  0  0  0
  5  4  1  0  0  0  0
  6  5  1  0  0  0  0
  7  1  1  0  0  0  0
  8  2  1  0  0  0  0
  9  6  1  0  0  0  0
 13 11  2  0  0  0  0
M  RAD  4   4   3   5   2   6   2  11   2
M  END
