Coordinates from ORCA-job o-NO2-Ph+-B3LYPG-aug-cc-pVDZ-scan-d09-49-n400
 OpenBabel10111716033D

 13 12  0  0  0  0  0  0  0  0999 V2000
   -1.5256    0.8302   -0.9235 C   0  0  0  0  0  0  0  0  0  0  0  0
   -0.7403    0.8915    0.2100 C   0  0  0  0  0  0  0  0  0  0  0  0
   -1.1420    1.0831    1.6682 C   0  0  0  0  0  0  0  0  0  0  0  0
   -2.4833    1.1088    1.4061 C   0  0  0  0  0  0  0  0  0  0  0  0
   -3.4474    1.0948    0.4730 C   0  0  0  0  0  0  0  0  0  0  0  0
   -2.9211    0.9274   -0.8329 C   0  0  0  0  0  0  0  0  0  0  0  0
   -1.0402    0.6863   -1.8891 H   0  0  0  0  0  0  0  0  0  0  0  0
    0.3361    0.6956    0.2012 H   0  0  0  0  0  0  0  0  0  0  0  0
   -3.5902    0.9107   -1.6914 H   0  0  0  0  0  0  0  0  0  0  0  0
   -4.5046    1.2479    0.6934 H   0  0  0  0  0  0  0  0  0  0  0  0
    1.0872    3.7163    2.6730 N   0  0  0  0  0  0  0  0  0  0  0  0
   -0.3281    1.0766    2.6071 O   0  0  0  0  0  0  0  0  0  0  0  0
    0.8324    2.8541    3.3009 O   0  0  0  0  0  0  0  0  0  0  0  0
  1  6  1  0  0  0  0
  1  2  2  0  0  0  0
  2  3  1  0  0  0  0
  3 12  2  0  0  0  0
  4  3  1  0  0  0  0
  5 10  1  0  0  0  0
  5  4  2  0  0  0  0
  6  5  1  0  0  0  0
  7  1  1  0  0  0  0
  8  2  1  0  0  0  0
  9  6  1  0  0  0  0
 11 13  2  0  0  0  0
M  RAD  3   4   2   6   2  11   2
M  END
