Coordinates from ORCA-job o-NO2-Ph+-B3LYPG-aug-cc-pVDZ-scan-d09-49-n400
 OpenBabel10111716033D

 13 12  0  0  0  0  0  0  0  0999 V2000
   -1.5413    0.8160   -0.9370 C   0  0  0  0  0  0  0  0  0  0  0  0
   -0.7538    0.9074    0.1926 C   0  0  0  0  0  0  0  0  0  0  0  0
   -1.1547    1.1161    1.6479 C   0  0  0  0  0  0  0  0  0  0  0  0
   -2.4971    1.1269    1.3887 C   0  0  0  0  0  0  0  0  0  0  0  0
   -3.4638    1.0809    0.4595 C   0  0  0  0  0  0  0  0  0  0  0  0
   -2.9379    0.8975   -0.8444 C   0  0  0  0  0  0  0  0  0  0  0  0
   -1.0569    0.6619   -1.9014 H   0  0  0  0  0  0  0  0  0  0  0  0
    0.3266    0.7360    0.1819 H   0  0  0  0  0  0  0  0  0  0  0  0
   -3.6091    0.8546   -1.7003 H   0  0  0  0  0  0  0  0  0  0  0  0
   -4.5231    1.2174    0.6800 H   0  0  0  0  0  0  0  0  0  0  0  0
    1.2215    3.7161    2.7788 N   0  0  0  0  0  0  0  0  0  0  0  0
   -0.3405    1.1319    2.5866 O   0  0  0  0  0  0  0  0  0  0  0  0
    0.8629    2.8605    3.3631 O   0  0  0  0  0  0  0  0  0  0  0  0
  1  6  1  0  0  0  0
  1  2  2  0  0  0  0
  2  3  1  0  0  0  0
  3 12  2  0  0  0  0
  4  3  1  0  0  0  0
  5 10  1  0  0  0  0
  5  4  2  0  0  0  0
  6  5  1  0  0  0  0
  7  1  1  0  0  0  0
  8  2  1  0  0  0  0
  9  6  1  0  0  0  0
 11 13  2  0  0  0  0
M  RAD  3   4   2   6   2  11   2
M  END
