Coordinates from ORCA-job o-NO2-Ph+-B3LYPG-aug-cc-pVDZ-scan-d09-49-n400
 OpenBabel10111716023D

 13 12  0  0  0  0  0  0  0  0999 V2000
   -1.5022    0.4494   -0.6985 C   0  0  0  0  0  0  0  0  0  0  0  0
   -0.2517    0.3291   -0.1022 C   0  0  0  0  0  0  0  0  0  0  0  0
    0.2652    0.8801    1.0453 C   0  0  0  0  0  0  0  0  0  0  0  0
   -2.1092    2.3129    1.7226 C   0  0  0  0  0  0  0  0  0  0  0  0
   -2.9788    1.9784    0.6799 C   0  0  0  0  0  0  0  0  0  0  0  0
   -2.6978    1.1539   -0.3836 C   0  0  0  0  0  0  0  0  0  0  0  0
   -1.5720   -0.1349   -1.6188 H   0  0  0  0  0  0  0  0  0  0  0  0
    0.5007   -0.3047   -0.5857 H   0  0  0  0  0  0  0  0  0  0  0  0
   -3.5072    1.0123   -1.0992 H   0  0  0  0  0  0  0  0  0  0  0  0
   -3.9753    2.4269    0.7340 H   0  0  0  0  0  0  0  0  0  0  0  0
   -1.5652    2.7088    2.6561 N   0  0  0  0  0  0  0  0  0  0  0  0
    0.8528    1.2427    1.9534 O   0  0  0  0  0  0  0  0  0  0  0  0
   -0.9264    3.0684    3.5928 O   0  0  0  0  0  0  0  0  0  0  0  0
  1  6  1  0  0  0  0
  1  2  2  0  0  0  0
  2  3  1  0  0  0  0
  3 12  1  0  0  0  0
  4 11  1  0  0  0  0
  5 10  1  0  0  0  0
  5  4  1  0  0  0  0
  6  5  2  0  0  0  0
  7  1  1  0  0  0  0
  8  2  1  0  0  0  0
  9  6  1  0  0  0  0
 11 13  1  0  0  0  0
M  RAD  5   3   3   4   3  11   2  12   2  13   2
M  END
