Coordinates from ORCA-job o-NO2-Ph+-B3LYPG-aug-cc-pVDZ-scan-d09-49-n400
 OpenBabel10111716023D

 13 12  0  0  0  0  0  0  0  0999 V2000
   -1.5182    0.4321   -0.7345 C   0  0  0  0  0  0  0  0  0  0  0  0
   -0.2738    0.3211   -0.1283 C   0  0  0  0  0  0  0  0  0  0  0  0
    0.2399    0.8763    1.0244 C   0  0  0  0  0  0  0  0  0  0  0  0
   -1.9173    2.1910    1.6588 C   0  0  0  0  0  0  0  0  0  0  0  0
   -2.9060    1.9542    0.6890 C   0  0  0  0  0  0  0  0  0  0  0  0
   -2.7041    1.1445   -0.4015 C   0  0  0  0  0  0  0  0  0  0  0  0
   -1.5884   -0.1518   -1.6548 H   0  0  0  0  0  0  0  0  0  0  0  0
    0.4875   -0.3097   -0.6024 H   0  0  0  0  0  0  0  0  0  0  0  0
   -3.5361    1.0272   -1.0945 H   0  0  0  0  0  0  0  0  0  0  0  0
   -3.8739    2.4450    0.8247 H   0  0  0  0  0  0  0  0  0  0  0  0
   -1.6476    2.7887    2.7240 N   0  0  0  0  0  0  0  0  0  0  0  0
    0.9020    1.1877    1.9030 O   0  0  0  0  0  0  0  0  0  0  0  0
   -1.1311    3.2171    3.6882 O   0  0  0  0  0  0  0  0  0  0  0  0
  1  6  2  0  0  0  0
  1  2  1  0  0  0  0
  2  3  1  0  0  0  0
  3 12  1  0  0  0  0
  4 11  1  0  0  0  0
  5 10  1  0  0  0  0
  5  4  2  0  0  0  0
  6  5  1  0  0  0  0
  7  1  1  0  0  0  0
  8  2  1  0  0  0  0
  9  6  1  0  0  0  0
 11 13  1  0  0  0  0
M  RAD  6   2   2   3   3   4   2  11   2  12   2  13   2
M  END
