Coordinates from ORCA-job o-NO2-Ph+-B3LYPG-aug-cc-pVDZ-scan-d09-49-n400
 OpenBabel10111716023D

 13 12  0  0  0  0  0  0  0  0999 V2000
   -1.5061    0.4456   -0.7067 C   0  0  0  0  0  0  0  0  0  0  0  0
   -0.2572    0.3287   -0.1064 C   0  0  0  0  0  0  0  0  0  0  0  0
    0.2570    0.8811    1.0420 C   0  0  0  0  0  0  0  0  0  0  0  0
   -2.0685    2.2871    1.7098 C   0  0  0  0  0  0  0  0  0  0  0  0
   -2.9633    1.9726    0.6812 C   0  0  0  0  0  0  0  0  0  0  0  0
   -2.6998    1.1512   -0.3889 C   0  0  0  0  0  0  0  0  0  0  0  0
   -1.5742   -0.1392   -1.6269 H   0  0  0  0  0  0  0  0  0  0  0  0
    0.4982   -0.3040   -0.5869 H   0  0  0  0  0  0  0  0  0  0  0  0
   -3.5145    1.0154   -1.0993 H   0  0  0  0  0  0  0  0  0  0  0  0
   -3.9545    2.4303    0.7526 H   0  0  0  0  0  0  0  0  0  0  0  0
   -1.5774    2.7218    2.6675 N   0  0  0  0  0  0  0  0  0  0  0  0
    0.8553    1.2363    1.9466 O   0  0  0  0  0  0  0  0  0  0  0  0
   -0.9621    3.0964    3.6113 O   0  0  0  0  0  0  0  0  0  0  0  0
  1  6  1  0  0  0  0
  1  2  2  0  0  0  0
  2  3  1  0  0  0  0
  3 12  1  0  0  0  0
  4 11  1  0  0  0  0
  5 10  1  0  0  0  0
  5  4  1  0  0  0  0
  6  5  2  0  0  0  0
  7  1  1  0  0  0  0
  8  2  1  0  0  0  0
  9  6  1  0  0  0  0
 11 13  1  0  0  0  0
M  RAD  5   3   3   4   3  11   2  12   2  13   2
M  END
