Coordinates from ORCA-job o-NO2-Ph+-B3LYPG-aug-cc-pVDZ-scan-d09-49-n400
 OpenBabel10111716023D

 13 14  0  0  0  0  0  0  0  0999 V2000
   -1.5349    0.4134   -0.7733 C   0  0  0  0  0  0  0  0  0  0  0  0
   -0.4138    0.4862    0.0316 C   0  0  0  0  0  0  0  0  0  0  0  0
   -0.4776    1.2962    1.2086 C   0  0  0  0  0  0  0  0  0  0  0  0
   -1.7349    1.9499    1.4104 C   0  0  0  0  0  0  0  0  0  0  0  0
   -2.8783    1.9004    0.6266 C   0  0  0  0  0  0  0  0  0  0  0  0
   -2.7526    1.1000   -0.4975 C   0  0  0  0  0  0  0  0  0  0  0  0
   -1.4788   -0.2064   -1.6694 H   0  0  0  0  0  0  0  0  0  0  0  0
    0.5125   -0.0410   -0.1854 H   0  0  0  0  0  0  0  0  0  0  0  0
   -3.5977    0.9968   -1.1768 H   0  0  0  0  0  0  0  0  0  0  0  0
   -3.7868    2.4440    0.8794 H   0  0  0  0  0  0  0  0  0  0  0  0
   -1.4418    2.7539    2.7999 N   0  0  0  0  0  0  0  0  0  0  0  0
    0.4620    1.4732    2.0574 O   0  0  0  0  0  0  0  0  0  0  0  0
   -0.3444    2.5566    3.1845 O   0  0  0  0  0  0  0  0  0  0  0  0
  1  6  2  0  0  0  0
  1  2  1  0  0  0  0
  2  3  2  0  0  0  0
  3  4  1  0  0  0  0
  3 12  1  0  0  0  0
  4 11  1  0  0  0  0
  5 10  1  0  0  0  0
  5  4  2  0  0  0  0
  6  5  1  0  0  0  0
  7  1  1  0  0  0  0
  8  2  1  0  0  0  0
  9  6  1  0  0  0  0
 11 13  1  0  0  0  0
 12 13  1  0  0  0  0
M  RAD  1  11   2
M  END
