Coordinates from ORCA-job o-NO2-Ph+-B3LYPG-aug-cc-pVDZ-scan-d09-49-n400
 OpenBabel10111716033D

 13 14  0  0  0  0  0  0  0  0999 V2000
   -1.5361    0.4124   -0.7756 C   0  0  0  0  0  0  0  0  0  0  0  0
   -0.4163    0.4868    0.0310 C   0  0  0  0  0  0  0  0  0  0  0  0
   -0.4798    1.2973    1.2089 C   0  0  0  0  0  0  0  0  0  0  0  0
   -1.7376    1.9470    1.4044 C   0  0  0  0  0  0  0  0  0  0  0  0
   -2.8799    1.8988    0.6232 C   0  0  0  0  0  0  0  0  0  0  0  0
   -2.7535    1.0976   -0.5017 C   0  0  0  0  0  0  0  0  0  0  0  0
   -1.4783   -0.2079   -1.6714 H   0  0  0  0  0  0  0  0  0  0  0  0
    0.5109   -0.0395   -0.1843 H   0  0  0  0  0  0  0  0  0  0  0  0
   -3.5983    0.9941   -1.1813 H   0  0  0  0  0  0  0  0  0  0  0  0
   -3.7884    2.4426    0.8764 H   0  0  0  0  0  0  0  0  0  0  0  0
   -1.4346    2.7640    2.8196 N   0  0  0  0  0  0  0  0  0  0  0  0
    0.4625    1.4718    2.0558 O   0  0  0  0  0  0  0  0  0  0  0  0
   -0.3378    2.5582    3.1910 O   0  0  0  0  0  0  0  0  0  0  0  0
  1  6  2  0  0  0  0
  1  2  1  0  0  0  0
  2  3  2  0  0  0  0
  3  4  1  0  0  0  0
  3 12  1  0  0  0  0
  4 11  1  0  0  0  0
  5 10  1  0  0  0  0
  5  4  2  0  0  0  0
  6  5  1  0  0  0  0
  7  1  1  0  0  0  0
  8  2  1  0  0  0  0
  9  6  1  0  0  0  0
 11 13  1  0  0  0  0
 12 13  1  0  0  0  0
M  RAD  1  11   2
M  END
