Coordinates from ORCA-job o-NO2-Ph+-B3LYPG-aug-cc-pVDZ-scan-d09-49-n400
 OpenBabel10111716033D

 13 12  0  0  0  0  0  0  0  0999 V2000
   -1.5551    0.8030   -0.9494 C   0  0  0  0  0  0  0  0  0  0  0  0
   -0.7657    0.9199    0.1761 C   0  0  0  0  0  0  0  0  0  0  0  0
   -1.1639    1.1450    1.6299 C   0  0  0  0  0  0  0  0  0  0  0  0
   -2.5067    1.1404    1.3736 C   0  0  0  0  0  0  0  0  0  0  0  0
   -3.4761    1.0695    0.4485 C   0  0  0  0  0  0  0  0  0  0  0  0
   -2.9525    0.8721   -0.8540 C   0  0  0  0  0  0  0  0  0  0  0  0
   -1.0718    0.6403   -1.9129 H   0  0  0  0  0  0  0  0  0  0  0  0
    0.3178    0.7696    0.1632 H   0  0  0  0  0  0  0  0  0  0  0  0
   -3.6258    0.8070   -1.7067 H   0  0  0  0  0  0  0  0  0  0  0  0
   -4.5365    1.1928    0.6714 H   0  0  0  0  0  0  0  0  0  0  0  0
    1.3403    3.7047    2.8715 N   0  0  0  0  0  0  0  0  0  0  0  0
   -0.3478    1.1830    2.5659 O   0  0  0  0  0  0  0  0  0  0  0  0
    0.8766    2.8760    3.4189 O   0  0  0  0  0  0  0  0  0  0  0  0
  1  6  1  0  0  0  0
  1  2  2  0  0  0  0
  2  3  1  0  0  0  0
  3 12  2  0  0  0  0
  4  3  1  0  0  0  0
  5 10  1  0  0  0  0
  5  4  2  0  0  0  0
  6  5  1  0  0  0  0
  7  1  1  0  0  0  0
  8  2  1  0  0  0  0
  9  6  1  0  0  0  0
 11 13  2  0  0  0  0
M  RAD  3   4   2   6   2  11   2
M  END
