Coordinates from ORCA-job o-NO2-Ph+-B3LYPG-aug-cc-pVDZ-scan-d09-49-n400
 OpenBabel10111716023D

 13 13  0  0  0  0  0  0  0  0999 V2000
   -1.5229    0.4220   -0.7533 C   0  0  0  0  0  0  0  0  0  0  0  0
   -0.3928    0.4717    0.0232 C   0  0  0  0  0  0  0  0  0  0  0  0
   -0.4084    1.2698    1.2113 C   0  0  0  0  0  0  0  0  0  0  0  0
   -1.7199    2.0033    1.4998 C   0  0  0  0  0  0  0  0  0  0  0  0
   -2.8640    1.9104    0.6509 C   0  0  0  0  0  0  0  0  0  0  0  0
   -2.7491    1.1259   -0.4568 C   0  0  0  0  0  0  0  0  0  0  0  0
   -1.4929   -0.1911   -1.6559 H   0  0  0  0  0  0  0  0  0  0  0  0
    0.5203   -0.0681   -0.2190 H   0  0  0  0  0  0  0  0  0  0  0  0
   -3.5906    1.0194   -1.1394 H   0  0  0  0  0  0  0  0  0  0  0  0
   -3.7706    2.4558    0.9077 H   0  0  0  0  0  0  0  0  0  0  0  0
   -1.4987    2.6368    2.5910 N   0  0  0  0  0  0  0  0  0  0  0  0
    0.4914    1.4521    2.0424 O   0  0  0  0  0  0  0  0  0  0  0  0
   -0.4689    2.6154    3.1942 O   0  0  0  0  0  0  0  0  0  0  0  0
  1  6  1  0  0  0  0
  1  2  2  0  0  0  0
  2  3  1  0  0  0  0
  3  4  1  0  0  0  0
  3 12  2  0  0  0  0
  4 11  2  0  0  0  0
  5 10  1  0  0  0  0
  5  4  1  0  0  0  0
  6  5  2  0  0  0  0
  7  1  1  0  0  0  0
  8  2  1  0  0  0  0
  9  6  1  0  0  0  0
 11 13  1  0  0  0  0
M  RAD  1  13   2
M  END
