Coordinates from ORCA-job o-NO2-Ph+-B3LYPG-aug-cc-pVDZ-scan-d09-49-n400
 OpenBabel10111716033D

 13 12  0  0  0  0  0  0  0  0999 V2000
   -1.4421    0.4880   -0.9412 C   0  0  0  0  0  0  0  0  0  0  0  0
   -0.4369    0.6280   -0.0200 C   0  0  0  0  0  0  0  0  0  0  0  0
   -0.7746    1.1650    1.3151 C   0  0  0  0  0  0  0  0  0  0  0  0
   -2.1005    1.7148    1.3079 C   0  0  0  0  0  0  0  0  0  0  0  0
   -3.1996    1.4149    0.5950 C   0  0  0  0  0  0  0  0  0  0  0  0
   -2.7701    0.9231   -0.6762 C   0  0  0  0  0  0  0  0  0  0  0  0
   -1.2441    0.0102   -1.9017 H   0  0  0  0  0  0  0  0  0  0  0  0
    0.5400    0.1500   -0.1199 H   0  0  0  0  0  0  0  0  0  0  0  0
   -3.4740    1.0389   -1.5051 H   0  0  0  0  0  0  0  0  0  0  0  0
   -4.2072    1.8029    0.7446 H   0  0  0  0  0  0  0  0  0  0  0  0
   -0.6209    3.6638    3.4097 N   0  0  0  0  0  0  0  0  0  0  0  0
   -0.0457    1.0419    2.3166 O   0  0  0  0  0  0  0  0  0  0  0  0
    0.3084    3.0818    3.3713 O   0  0  0  0  0  0  0  0  0  0  0  0
  1  6  1  0  0  0  0
  1  2  2  0  0  0  0
  2  3  1  0  0  0  0
  3 12  2  0  0  0  0
  4  3  1  0  0  0  0
  5 10  1  0  0  0  0
  5  4  1  0  0  0  0
  6  5  1  0  0  0  0
  7  1  1  0  0  0  0
  8  2  1  0  0  0  0
  9  6  1  0  0  0  0
 13 11  2  0  0  0  0
M  RAD  4   4   3   5   2   6   2  11   2
M  END
