Coordinates from ORCA-job o-NO2-Ph+-B3LYPG-aug-cc-pVDZ-scan-d09-49-n400
 OpenBabel10111716033D

 13 12  0  0  0  0  0  0  0  0999 V2000
   -1.5366    0.8204   -0.9328 C   0  0  0  0  0  0  0  0  0  0  0  0
   -0.7499    0.9034    0.1981 C   0  0  0  0  0  0  0  0  0  0  0  0
   -1.1515    1.1067    1.6539 C   0  0  0  0  0  0  0  0  0  0  0  0
   -2.4937    1.1221    1.3937 C   0  0  0  0  0  0  0  0  0  0  0  0
   -3.4595    1.0845    0.4632 C   0  0  0  0  0  0  0  0  0  0  0  0
   -2.9330    0.9060   -0.8411 C   0  0  0  0  0  0  0  0  0  0  0  0
   -1.0518    0.6694   -1.8976 H   0  0  0  0  0  0  0  0  0  0  0  0
    0.3294    0.7252    0.1880 H   0  0  0  0  0  0  0  0  0  0  0  0
   -3.6035    0.8704   -1.6980 H   0  0  0  0  0  0  0  0  0  0  0  0
   -4.5184    1.2254    0.6832 H   0  0  0  0  0  0  0  0  0  0  0  0
    1.1834    3.7167    2.7475 N   0  0  0  0  0  0  0  0  0  0  0  0
   -0.3379    1.1157    2.5932 O   0  0  0  0  0  0  0  0  0  0  0  0
    0.8557    2.8575    3.3446 O   0  0  0  0  0  0  0  0  0  0  0  0
  1  6  1  0  0  0  0
  1  2  2  0  0  0  0
  2  3  1  0  0  0  0
  3 12  2  0  0  0  0
  4  3  1  0  0  0  0
  5 10  1  0  0  0  0
  5  4  2  0  0  0  0
  6  5  1  0  0  0  0
  7  1  1  0  0  0  0
  8  2  1  0  0  0  0
  9  6  1  0  0  0  0
 11 13  2  0  0  0  0
M  RAD  3   4   2   6   2  11   2
M  END
