Coordinates from ORCA-job o-NO2-Ph+-B3LYPG-aug-cc-pVDZ-scan-d09-49-n400
 OpenBabel10111716033D

 13 12  0  0  0  0  0  0  0  0999 V2000
   -1.4597    1.0051   -0.8227 C   0  0  0  0  0  0  0  0  0  0  0  0
   -0.7431    1.0024    0.3660 C   0  0  0  0  0  0  0  0  0  0  0  0
   -1.2462    1.0566    1.7996 C   0  0  0  0  0  0  0  0  0  0  0  0
   -2.5776    0.9522    1.4657 C   0  0  0  0  0  0  0  0  0  0  0  0
   -3.4694    0.9746    0.4690 C   0  0  0  0  0  0  0  0  0  0  0  0
   -2.8548    0.9794   -0.8161 C   0  0  0  0  0  0  0  0  0  0  0  0
   -0.9090    0.9898   -1.7638 H   0  0  0  0  0  0  0  0  0  0  0  0
    0.3239    0.7652    0.3968 H   0  0  0  0  0  0  0  0  0  0  0  0
   -3.4710    1.0176   -1.7128 H   0  0  0  0  0  0  0  0  0  0  0  0
   -4.5445    1.0769    0.6266 H   0  0  0  0  0  0  0  0  0  0  0  0
    1.1667    3.3664    2.0922 N   0  0  0  0  0  0  0  0  0  0  0  0
   -0.4930    1.0516    2.7833 O   0  0  0  0  0  0  0  0  0  0  0  0
    0.8104    2.8856    3.0122 O   0  0  0  0  0  0  0  0  0  0  0  0
  1  6  1  0  0  0  0
  1  2  2  0  0  0  0
  2  8  1  0  0  0  0
  2  3  1  0  0  0  0
  3 12  2  0  0  0  0
  4  3  1  0  0  0  0
  5 10  1  0  0  0  0
  5  4  2  0  0  0  0
  6  5  1  0  0  0  0
  7  1  1  0  0  0  0
  9  6  1  0  0  0  0
 11 13  2  0  0  0  0
M  RAD  3   4   2   6   2  11   2
M  END
