Coordinates from ORCA-job o-NO2-Ph+-B3LYPG-aug-cc-pVDZ-scan-d09-49-n400
 OpenBabel10111716033D

 13 13  0  0  0  0  0  0  0  0999 V2000
   -1.5386    0.4116   -0.7783 C   0  0  0  0  0  0  0  0  0  0  0  0
   -0.4203    0.4869    0.0286 C   0  0  0  0  0  0  0  0  0  0  0  0
   -0.4739    1.2974    1.2128 C   0  0  0  0  0  0  0  0  0  0  0  0
   -1.7359    1.9414    1.3971 C   0  0  0  0  0  0  0  0  0  0  0  0
   -2.8788    1.8970    0.6212 C   0  0  0  0  0  0  0  0  0  0  0  0
   -2.7553    1.0958   -0.5056 C   0  0  0  0  0  0  0  0  0  0  0  0
   -1.4782   -0.2094   -1.6735 H   0  0  0  0  0  0  0  0  0  0  0  0
    0.5083   -0.0385   -0.1843 H   0  0  0  0  0  0  0  0  0  0  0  0
   -3.6023    0.9948   -1.1829 H   0  0  0  0  0  0  0  0  0  0  0  0
   -3.7867    2.4414    0.8757 H   0  0  0  0  0  0  0  0  0  0  0  0
   -1.4330    2.7698    2.8292 N   0  0  0  0  0  0  0  0  0  0  0  0
    0.4717    1.4642    2.0499 O   0  0  0  0  0  0  0  0  0  0  0  0
   -0.3443    2.5709    3.2060 O   0  0  0  0  0  0  0  0  0  0  0  0
  1  6  1  0  0  0  0
  1  2  2  0  0  0  0
  2  3  1  0  0  0  0
  3  4  1  0  0  0  0
  3 12  2  0  0  0  0
  4 11  1  0  0  0  0
  5 10  1  0  0  0  0
  5  4  2  0  0  0  0
  6  5  1  0  0  0  0
  7  1  1  0  0  0  0
  8  2  1  0  0  0  0
  9  6  1  0  0  0  0
 11 13  1  0  0  0  0
M  RAD  3   6   2  11   2  13   2
M  END
