Coordinates from ORCA-job o-NO2-Ph+-B3LYPG-aug-cc-pVDZ-scan-d09-49-n400
 OpenBabel10111716033D

 13 12  0  0  0  0  0  0  0  0999 V2000
   -1.5298    0.8267   -0.9269 C   0  0  0  0  0  0  0  0  0  0  0  0
   -0.7441    0.8968    0.2057 C   0  0  0  0  0  0  0  0  0  0  0  0
   -1.1463    1.0926    1.6628 C   0  0  0  0  0  0  0  0  0  0  0  0
   -2.4880    1.1142    1.4012 C   0  0  0  0  0  0  0  0  0  0  0  0
   -3.4525    1.0904    0.4690 C   0  0  0  0  0  0  0  0  0  0  0  0
   -2.9257    0.9188   -0.8362 C   0  0  0  0  0  0  0  0  0  0  0  0
   -1.0445    0.6802   -1.8921 H   0  0  0  0  0  0  0  0  0  0  0  0
    0.3335    0.7081    0.1965 H   0  0  0  0  0  0  0  0  0  0  0  0
   -3.5952    0.8944   -1.6942 H   0  0  0  0  0  0  0  0  0  0  0  0
   -4.5106    1.2381    0.6889 H   0  0  0  0  0  0  0  0  0  0  0  0
    1.1262    3.7164    2.7014 N   0  0  0  0  0  0  0  0  0  0  0  0
   -0.3328    1.0919    2.6022 O   0  0  0  0  0  0  0  0  0  0  0  0
    0.8426    2.8547    3.3176 O   0  0  0  0  0  0  0  0  0  0  0  0
  1  6  1  0  0  0  0
  1  2  2  0  0  0  0
  2  3  1  0  0  0  0
  3 12  2  0  0  0  0
  4  3  1  0  0  0  0
  5 10  1  0  0  0  0
  5  4  2  0  0  0  0
  6  5  1  0  0  0  0
  7  1  1  0  0  0  0
  8  2  1  0  0  0  0
  9  6  1  0  0  0  0
 11 13  2  0  0  0  0
M  RAD  3   4   2   6   2  11   2
M  END
