Coordinates from ORCA-job o-NO2-Ph+-B3LYPG-aug-cc-pVDZ-scan-d09-49-n400
 OpenBabel10111716023D

 13 14  0  0  0  0  0  0  0  0999 V2000
   -1.5237    0.4205   -0.7557 C   0  0  0  0  0  0  0  0  0  0  0  0
   -0.3939    0.4821    0.0379 C   0  0  0  0  0  0  0  0  0  0  0  0
   -0.4718    1.2881    1.2002 C   0  0  0  0  0  0  0  0  0  0  0  0
   -1.7254    1.9826    1.4654 C   0  0  0  0  0  0  0  0  0  0  0  0
   -2.8716    1.9095    0.6445 C   0  0  0  0  0  0  0  0  0  0  0  0
   -2.7467    1.1165   -0.4692 C   0  0  0  0  0  0  0  0  0  0  0  0
   -1.4840   -0.1952   -1.6558 H   0  0  0  0  0  0  0  0  0  0  0  0
    0.5251   -0.0514   -0.1932 H   0  0  0  0  0  0  0  0  0  0  0  0
   -3.5859    1.0069   -1.1545 H   0  0  0  0  0  0  0  0  0  0  0  0
   -3.7797    2.4534    0.8980 H   0  0  0  0  0  0  0  0  0  0  0  0
   -1.4835    2.6882    2.6753 N   0  0  0  0  0  0  0  0  0  0  0  0
    0.4420    1.4926    2.0742 O   0  0  0  0  0  0  0  0  0  0  0  0
   -0.3683    2.5294    3.1288 O   0  0  0  0  0  0  0  0  0  0  0  0
  1  6  2  0  0  0  0
  1  2  1  0  0  0  0
  2  3  2  0  0  0  0
  3  4  1  0  0  0  0
  3 12  1  0  0  0  0
  4 11  1  0  0  0  0
  5 10  1  0  0  0  0
  5  4  2  0  0  0  0
  6  5  1  0  0  0  0
  7  1  1  0  0  0  0
  8  2  1  0  0  0  0
  9  6  1  0  0  0  0
 11 13  1  0  0  0  0
 12 13  1  0  0  0  0
M  RAD  1  11   2
M  END
