Coordinates from ORCA-job o-NO2-Ph+-B3LYPG-aug-cc-pVDZ-scan-d09-49-n400
 OpenBabel10111716033D

 13 12  0  0  0  0  0  0  0  0999 V2000
   -1.4627    0.4293   -0.9578 C   0  0  0  0  0  0  0  0  0  0  0  0
   -0.4174    0.5264   -0.0848 C   0  0  0  0  0  0  0  0  0  0  0  0
   -0.6682    1.1632    1.2294 C   0  0  0  0  0  0  0  0  0  0  0  0
   -1.9766    1.7973    1.3108 C   0  0  0  0  0  0  0  0  0  0  0  0
   -3.1034    1.4908    0.6309 C   0  0  0  0  0  0  0  0  0  0  0  0
   -2.7515    0.9623   -0.6443 C   0  0  0  0  0  0  0  0  0  0  0  0
   -1.3441   -0.0877   -1.9110 H   0  0  0  0  0  0  0  0  0  0  0  0
    0.5246   -0.0104   -0.2114 H   0  0  0  0  0  0  0  0  0  0  0  0
   -3.4789    1.0902   -1.4515 H   0  0  0  0  0  0  0  0  0  0  0  0
   -4.0972    1.8966    0.8219 H   0  0  0  0  0  0  0  0  0  0  0  0
   -0.9259    3.5290    3.4900 N   0  0  0  0  0  0  0  0  0  0  0  0
    0.0928    1.0686    2.1977 O   0  0  0  0  0  0  0  0  0  0  0  0
    0.1414    3.2677    3.4761 O   0  0  0  0  0  0  0  0  0  0  0  0
  1  6  1  0  0  0  0
  1  2  2  0  0  0  0
  2  3  1  0  0  0  0
  3  4  1  0  0  0  0
  3 12  2  0  0  0  0
  5 10  1  0  0  0  0
  5  4  1  0  0  0  0
  6  5  1  0  0  0  0
  7  1  1  0  0  0  0
  8  2  1  0  0  0  0
  9  6  1  0  0  0  0
 13 11  2  0  0  0  0
M  RAD  4   4   3   5   2   6   2  11   2
M  END
