Coordinates from ORCA-job o-NO2-Ph+-B3LYPG-aug-cc-pVDZ-scan-d09-49-n400
 OpenBabel10111716023D

 13 14  0  0  0  0  0  0  0  0999 V2000
   -1.5288    0.4156   -0.7661 C   0  0  0  0  0  0  0  0  0  0  0  0
   -0.4039    0.4861    0.0376 C   0  0  0  0  0  0  0  0  0  0  0  0
   -0.4916    1.2957    1.1993 C   0  0  0  0  0  0  0  0  0  0  0  0
   -1.7365    1.9637    1.4301 C   0  0  0  0  0  0  0  0  0  0  0  0
   -2.8797    1.9048    0.6324 C   0  0  0  0  0  0  0  0  0  0  0  0
   -2.7486    1.1053   -0.4871 C   0  0  0  0  0  0  0  0  0  0  0  0
   -1.4792   -0.2024   -1.6637 H   0  0  0  0  0  0  0  0  0  0  0  0
    0.5196   -0.0434   -0.1847 H   0  0  0  0  0  0  0  0  0  0  0  0
   -3.5888    0.9966   -1.1717 H   0  0  0  0  0  0  0  0  0  0  0  0
   -3.7892    2.4475    0.8831 H   0  0  0  0  0  0  0  0  0  0  0  0
   -1.4503    2.7365    2.7684 N   0  0  0  0  0  0  0  0  0  0  0  0
    0.4388    1.4936    2.0738 O   0  0  0  0  0  0  0  0  0  0  0  0
   -0.3291    2.5237    3.1446 O   0  0  0  0  0  0  0  0  0  0  0  0
  1  6  2  0  0  0  0
  1  2  1  0  0  0  0
  2  3  2  0  0  0  0
  3  4  1  0  0  0  0
  3 12  1  0  0  0  0
  4 11  1  0  0  0  0
  5 10  1  0  0  0  0
  5  4  2  0  0  0  0
  6  5  1  0  0  0  0
  7  1  1  0  0  0  0
  8  2  1  0  0  0  0
  9  6  1  0  0  0  0
 11 13  1  0  0  0  0
 12 13  1  0  0  0  0
M  RAD  1  11   2
M  END
