Coordinates from ORCA-job o-NO2-Ph+-B3LYPG-aug-cc-pVDZ-scan-d09-49-n400
 OpenBabel10111716023D

 13 14  0  0  0  0  0  0  0  0999 V2000
   -1.5264    0.4177   -0.7617 C   0  0  0  0  0  0  0  0  0  0  0  0
   -0.3993    0.4847    0.0383 C   0  0  0  0  0  0  0  0  0  0  0  0
   -0.4860    1.2931    1.1988 C   0  0  0  0  0  0  0  0  0  0  0  0
   -1.7319    1.9712    1.4442 C   0  0  0  0  0  0  0  0  0  0  0  0
   -2.8765    1.9069    0.6376 C   0  0  0  0  0  0  0  0  0  0  0  0
   -2.7476    1.1099   -0.4796 C   0  0  0  0  0  0  0  0  0  0  0  0
   -1.4809   -0.1994   -1.6602 H   0  0  0  0  0  0  0  0  0  0  0  0
    0.5223   -0.0464   -0.1875 H   0  0  0  0  0  0  0  0  0  0  0  0
   -3.5871    1.0006   -1.1647 H   0  0  0  0  0  0  0  0  0  0  0  0
   -3.7853    2.4501    0.8895 H   0  0  0  0  0  0  0  0  0  0  0  0
   -1.4645    2.7175    2.7311 N   0  0  0  0  0  0  0  0  0  0  0  0
    0.4376    1.4956    2.0759 O   0  0  0  0  0  0  0  0  0  0  0  0
   -0.3417    2.5220    3.1342 O   0  0  0  0  0  0  0  0  0  0  0  0
  1  6  2  0  0  0  0
  1  2  1  0  0  0  0
  2  3  2  0  0  0  0
  3  4  1  0  0  0  0
  3 12  1  0  0  0  0
  4 11  1  0  0  0  0
  5 10  1  0  0  0  0
  5  4  2  0  0  0  0
  6  5  1  0  0  0  0
  7  1  1  0  0  0  0
  8  2  1  0  0  0  0
  9  6  1  0  0  0  0
 11 13  1  0  0  0  0
 12 13  1  0  0  0  0
M  RAD  1  11   2
M  END
