Coordinates from ORCA-job o-NO2-Ph+-B3LYPG-aug-cc-pVDZ-scan-d09-49-n400
 OpenBabel10111716033D

 13 12  0  0  0  0  0  0  0  0999 V2000
   -1.5343    0.8226   -0.9308 C   0  0  0  0  0  0  0  0  0  0  0  0
   -0.7480    0.9014    0.2007 C   0  0  0  0  0  0  0  0  0  0  0  0
   -1.1499    1.1020    1.6569 C   0  0  0  0  0  0  0  0  0  0  0  0
   -2.4919    1.1195    1.3963 C   0  0  0  0  0  0  0  0  0  0  0  0
   -3.4572    1.0864    0.4652 C   0  0  0  0  0  0  0  0  0  0  0  0
   -2.9305    0.9102   -0.8395 C   0  0  0  0  0  0  0  0  0  0  0  0
   -1.0493    0.6731   -1.8957 H   0  0  0  0  0  0  0  0  0  0  0  0
    0.3308    0.7196    0.1909 H   0  0  0  0  0  0  0  0  0  0  0  0
   -3.6007    0.8784   -1.6967 H   0  0  0  0  0  0  0  0  0  0  0  0
   -4.5159    1.2295    0.6850 H   0  0  0  0  0  0  0  0  0  0  0  0
    1.1644    3.7166    2.7318 N   0  0  0  0  0  0  0  0  0  0  0  0
   -0.3364    1.1076    2.5964 O   0  0  0  0  0  0  0  0  0  0  0  0
    0.8516    2.8563    3.3355 O   0  0  0  0  0  0  0  0  0  0  0  0
  1  6  1  0  0  0  0
  1  2  2  0  0  0  0
  2  3  1  0  0  0  0
  3 12  2  0  0  0  0
  4  3  1  0  0  0  0
  5 10  1  0  0  0  0
  5  4  2  0  0  0  0
  6  5  1  0  0  0  0
  7  1  1  0  0  0  0
  8  2  1  0  0  0  0
  9  6  1  0  0  0  0
 11 13  2  0  0  0  0
M  RAD  3   4   2   6   2  11   2
M  END
