Coordinates from ORCA-job o-NO2-Ph+-B3LYPG-aug-cc-pVDZ-scan-d09-49-n400
 OpenBabel10111716033D

 13 12  0  0  0  0  0  0  0  0999 V2000
   -1.3269    1.2476   -0.6400 C   0  0  0  0  0  0  0  0  0  0  0  0
   -0.6923    1.0729    0.6172 C   0  0  0  0  0  0  0  0  0  0  0  0
   -1.3334    0.9330    2.0253 C   0  0  0  0  0  0  0  0  0  0  0  0
   -2.6223    0.7188    1.5446 C   0  0  0  0  0  0  0  0  0  0  0  0
   -3.3927    0.9089    0.4732 C   0  0  0  0  0  0  0  0  0  0  0  0
   -2.6918    1.1567   -0.7614 C   0  0  0  0  0  0  0  0  0  0  0  0
   -0.6957    1.4150   -1.5150 H   0  0  0  0  0  0  0  0  0  0  0  0
    0.2651    0.5423    0.6572 H   0  0  0  0  0  0  0  0  0  0  0  0
   -3.2427    1.3129   -1.6868 H   0  0  0  0  0  0  0  0  0  0  0  0
   -4.4824    0.9560    0.5525 H   0  0  0  0  0  0  0  0  0  0  0  0
    0.6625    2.9423    1.2473 N   0  0  0  0  0  0  0  0  0  0  0  0
   -0.6585    0.9436    3.0310 O   0  0  0  0  0  0  0  0  0  0  0  0
    0.7436    2.9733    2.3510 O   0  0  0  0  0  0  0  0  0  0  0  0
  1  2  1  0  0  0  0
  2  8  1  0  0  0  0
  2  3  1  0  0  0  0
  3 12  2  0  0  0  0
  4  3  1  0  0  0  0
  5 10  1  0  0  0  0
  5  4  1  0  0  0  0
  6  1  1  0  0  0  0
  6  5  2  0  0  0  0
  7  1  1  0  0  0  0
  9  6  1  0  0  0  0
 11 13  2  0  0  0  0
M  RAD  4   1   2   2   2   4   3  11   2
M  END
