Coordinates from ORCA-job o-NO2-Ph+-B3LYPG-aug-cc-pVDZ-scan-d09-49-n400
 OpenBabel10111716033D

 13 12  0  0  0  0  0  0  0  0999 V2000
   -1.3245    1.2468   -0.6396 C   0  0  0  0  0  0  0  0  0  0  0  0
   -0.6892    1.0734    0.6179 C   0  0  0  0  0  0  0  0  0  0  0  0
   -1.3303    0.9304    2.0261 C   0  0  0  0  0  0  0  0  0  0  0  0
   -2.6207    0.7254    1.5463 C   0  0  0  0  0  0  0  0  0  0  0  0
   -3.3909    0.9130    0.4748 C   0  0  0  0  0  0  0  0  0  0  0  0
   -2.6893    1.1581   -0.7604 C   0  0  0  0  0  0  0  0  0  0  0  0
   -0.6934    1.4117   -1.5151 H   0  0  0  0  0  0  0  0  0  0  0  0
    0.2676    0.5415    0.6573 H   0  0  0  0  0  0  0  0  0  0  0  0
   -3.2404    1.3136   -1.6858 H   0  0  0  0  0  0  0  0  0  0  0  0
   -4.4806    0.9611    0.5536 H   0  0  0  0  0  0  0  0  0  0  0  0
    0.6448    2.9407    1.2433 N   0  0  0  0  0  0  0  0  0  0  0  0
   -0.6545    0.9365    3.0311 O   0  0  0  0  0  0  0  0  0  0  0  0
    0.7342    2.9709    2.3467 O   0  0  0  0  0  0  0  0  0  0  0  0
  1  2  1  0  0  0  0
  2  8  1  0  0  0  0
  2  3  1  0  0  0  0
  3 12  2  0  0  0  0
  4  3  1  0  0  0  0
  5 10  1  0  0  0  0
  5  4  1  0  0  0  0
  6  1  1  0  0  0  0
  6  5  2  0  0  0  0
  7  1  1  0  0  0  0
  9  6  1  0  0  0  0
 11 13  2  0  0  0  0
M  RAD  4   1   2   2   2   4   3  11   2
M  END
