Coordinates from ORCA-job o-NO2-Ph+-B3LYPG-aug-cc-pVDZ-scan-d09-49-n400
 OpenBabel10111716023D

 13 12  0  0  0  0  0  0  0  0999 V2000
   -1.4949    0.4579   -0.6819 C   0  0  0  0  0  0  0  0  0  0  0  0
   -0.2416    0.3304   -0.0946 C   0  0  0  0  0  0  0  0  0  0  0  0
    0.2762    0.8793    1.0537 C   0  0  0  0  0  0  0  0  0  0  0  0
   -2.1349    2.3462    1.7485 C   0  0  0  0  0  0  0  0  0  0  0  0
   -2.9866    1.9896    0.6919 C   0  0  0  0  0  0  0  0  0  0  0  0
   -2.6921    1.1635   -0.3641 C   0  0  0  0  0  0  0  0  0  0  0  0
   -1.5707   -0.1238   -1.6035 H   0  0  0  0  0  0  0  0  0  0  0  0
    0.5058   -0.3045   -0.5840 H   0  0  0  0  0  0  0  0  0  0  0  0
   -3.4981    1.0167   -1.0826 H   0  0  0  0  0  0  0  0  0  0  0  0
   -3.9873    2.4287    0.7308 H   0  0  0  0  0  0  0  0  0  0  0  0
   -1.5775    2.6716    2.5898 N   0  0  0  0  0  0  0  0  0  0  0  0
    0.8415    1.2560    1.9688 O   0  0  0  0  0  0  0  0  0  0  0  0
   -0.9071    3.0117    3.5232 O   0  0  0  0  0  0  0  0  0  0  0  0
  1  6  1  0  0  0  0
  1  2  2  0  0  0  0
  2  3  1  0  0  0  0
  3 12  1  0  0  0  0
  4 11  1  0  0  0  0
  5 10  1  0  0  0  0
  5  4  1  0  0  0  0
  6  5  2  0  0  0  0
  7  1  1  0  0  0  0
  8  2  1  0  0  0  0
  9  6  1  0  0  0  0
 11 13  1  0  0  0  0
M  RAD  5   3   3   4   3  11   2  12   2  13   2
M  END
