Coordinates from ORCA-job o-NO2-Ph+-B3LYPG-aug-cc-pVDZ-scan-d09-49-n400
 OpenBabel10111716033D

 13 12  0  0  0  0  0  0  0  0999 V2000
   -1.3296    1.2484   -0.6403 C   0  0  0  0  0  0  0  0  0  0  0  0
   -0.6954    1.0724    0.6164 C   0  0  0  0  0  0  0  0  0  0  0  0
   -1.3368    0.9362    2.0245 C   0  0  0  0  0  0  0  0  0  0  0  0
   -2.6273    0.7097    1.5429 C   0  0  0  0  0  0  0  0  0  0  0  0
   -3.3967    0.9034    0.4710 C   0  0  0  0  0  0  0  0  0  0  0  0
   -2.6951    1.1550   -0.7624 C   0  0  0  0  0  0  0  0  0  0  0  0
   -0.6986    1.4186   -1.5148 H   0  0  0  0  0  0  0  0  0  0  0  0
    0.2629    0.5439    0.6572 H   0  0  0  0  0  0  0  0  0  0  0  0
   -3.2454    1.3121   -1.6879 H   0  0  0  0  0  0  0  0  0  0  0  0
   -4.4864    0.9492    0.5497 H   0  0  0  0  0  0  0  0  0  0  0  0
    0.6864    2.9453    1.2528 N   0  0  0  0  0  0  0  0  0  0  0  0
   -0.6620    0.9526    3.0304 O   0  0  0  0  0  0  0  0  0  0  0  0
    0.7566    2.9766    2.3566 O   0  0  0  0  0  0  0  0  0  0  0  0
  1  2  1  0  0  0  0
  2  8  1  0  0  0  0
  2  3  1  0  0  0  0
  3 12  2  0  0  0  0
  4  3  1  0  0  0  0
  5 10  1  0  0  0  0
  5  4  1  0  0  0  0
  6  1  1  0  0  0  0
  6  5  2  0  0  0  0
  7  1  1  0  0  0  0
  9  6  1  0  0  0  0
 11 13  2  0  0  0  0
M  RAD  4   1   2   2   2   4   3  11   2
M  END
