Coordinates from ORCA-job o-NO2-Ph+-B3LYPG-aug-cc-pVDZ-scan-d09-49-n400
 OpenBabel10111716033D

 13 12  0  0  0  0  0  0  0  0999 V2000
   -1.4545    0.4460   -0.9515 C   0  0  0  0  0  0  0  0  0  0  0  0
   -0.4225    0.5658   -0.0627 C   0  0  0  0  0  0  0  0  0  0  0  0
   -0.7121    1.1729    1.2548 C   0  0  0  0  0  0  0  0  0  0  0  0
   -2.0274    1.7786    1.2997 C   0  0  0  0  0  0  0  0  0  0  0  0
   -3.1450    1.4617    0.6144 C   0  0  0  0  0  0  0  0  0  0  0  0
   -2.7598    0.9434   -0.6573 C   0  0  0  0  0  0  0  0  0  0  0  0
   -1.3074   -0.0620   -1.9057 H   0  0  0  0  0  0  0  0  0  0  0  0
    0.5341    0.0525   -0.1774 H   0  0  0  0  0  0  0  0  0  0  0  0
   -3.4764    1.0657   -1.4749 H   0  0  0  0  0  0  0  0  0  0  0  0
   -4.1459    1.8573    0.7878 H   0  0  0  0  0  0  0  0  0  0  0  0
   -0.8046    3.5747    3.4904 N   0  0  0  0  0  0  0  0  0  0  0  0
    0.0302    1.0718    2.2418 O   0  0  0  0  0  0  0  0  0  0  0  0
    0.2240    3.1950    3.4367 O   0  0  0  0  0  0  0  0  0  0  0  0
  1  6  1  0  0  0  0
  1  2  2  0  0  0  0
  2  3  1  0  0  0  0
  3  4  1  0  0  0  0
  3 12  2  0  0  0  0
  5 10  1  0  0  0  0
  5  4  1  0  0  0  0
  6  5  1  0  0  0  0
  7  1  1  0  0  0  0
  8  2  1  0  0  0  0
  9  6  1  0  0  0  0
 13 11  2  0  0  0  0
M  RAD  4   4   3   5   2   6   2  11   2
M  END
