Coordinates from ORCA-job o-NO2-Ph+-B3LYPG-aug-cc-pVDZ-scan-d09-49-n400
 OpenBabel10111716033D

 13 12  0  0  0  0  0  0  0  0999 V2000
   -1.4543    0.4472   -0.9514 C   0  0  0  0  0  0  0  0  0  0  0  0
   -0.4241    0.5704   -0.0606 C   0  0  0  0  0  0  0  0  0  0  0  0
   -0.7169    1.1750    1.2573 C   0  0  0  0  0  0  0  0  0  0  0  0
   -2.0336    1.7759    1.2969 C   0  0  0  0  0  0  0  0  0  0  0  0
   -3.1499    1.4584    0.6109 C   0  0  0  0  0  0  0  0  0  0  0  0
   -2.7615    0.9401   -0.6601 C   0  0  0  0  0  0  0  0  0  0  0  0
   -1.3034   -0.0604   -1.9052 H   0  0  0  0  0  0  0  0  0  0  0  0
    0.5340    0.0594   -0.1733 H   0  0  0  0  0  0  0  0  0  0  0  0
   -3.4771    1.0608   -1.4787 H   0  0  0  0  0  0  0  0  0  0  0  0
   -4.1515    1.8533    0.7822 H   0  0  0  0  0  0  0  0  0  0  0  0
   -0.7884    3.5803    3.4965 N   0  0  0  0  0  0  0  0  0  0  0  0
    0.0246    1.0744    2.2454 O   0  0  0  0  0  0  0  0  0  0  0  0
    0.2350    3.1885    3.4360 O   0  0  0  0  0  0  0  0  0  0  0  0
  1  6  1  0  0  0  0
  1  2  2  0  0  0  0
  2  3  1  0  0  0  0
  3  4  1  0  0  0  0
  3 12  2  0  0  0  0
  5 10  1  0  0  0  0
  5  4  1  0  0  0  0
  6  5  1  0  0  0  0
  7  1  1  0  0  0  0
  8  2  1  0  0  0  0
  9  6  1  0  0  0  0
 13 11  2  0  0  0  0
M  RAD  4   4   3   5   2   6   2  11   2
M  END
