Coordinates from ORCA-job o-NO2-Ph+-B3LYPG-aug-cc-pVDZ-scan-d09-49-n400
 OpenBabel10111716033D

 13 13  0  0  0  0  0  0  0  0999 V2000
   -1.5497    0.4067   -0.7927 C   0  0  0  0  0  0  0  0  0  0  0  0
   -0.4395    0.4900    0.0206 C   0  0  0  0  0  0  0  0  0  0  0  0
   -0.4624    1.3012    1.2258 C   0  0  0  0  0  0  0  0  0  0  0  0
   -1.7354    1.9171    1.3613 C   0  0  0  0  0  0  0  0  0  0  0  0
   -2.8783    1.8865    0.6065 C   0  0  0  0  0  0  0  0  0  0  0  0
   -2.7643    1.0839   -0.5285 C   0  0  0  0  0  0  0  0  0  0  0  0
   -1.4764   -0.2176   -1.6850 H   0  0  0  0  0  0  0  0  0  0  0  0
    0.4962   -0.0298   -0.1789 H   0  0  0  0  0  0  0  0  0  0  0  0
   -3.6173    0.9902   -1.1993 H   0  0  0  0  0  0  0  0  0  0  0  0
   -3.7836    2.4341    0.8661 H   0  0  0  0  0  0  0  0  0  0  0  0
   -1.4120    2.8111    2.9043 N   0  0  0  0  0  0  0  0  0  0  0  0
    0.4985    1.4400    2.0316 O   0  0  0  0  0  0  0  0  0  0  0  0
   -0.3429    2.6099    3.2642 O   0  0  0  0  0  0  0  0  0  0  0  0
  1  6  1  0  0  0  0
  1  2  2  0  0  0  0
  2  3  1  0  0  0  0
  3  4  1  0  0  0  0
  3 12  2  0  0  0  0
  4 11  1  0  0  0  0
  5 10  1  0  0  0  0
  5  4  2  0  0  0  0
  6  5  1  0  0  0  0
  7  1  1  0  0  0  0
  8  2  1  0  0  0  0
  9  6  1  0  0  0  0
 11 13  1  0  0  0  0
M  RAD  3   6   2  11   2  13   2
M  END
