Coordinates from ORCA-job o-NO2-Ph+-B3LYPG-aug-cc-pVDZ-scan-d09-49-n400
 OpenBabel10111716033D

 13 12  0  0  0  0  0  0  0  0999 V2000
   -1.4849    0.3949   -0.9629 C   0  0  0  0  0  0  0  0  0  0  0  0
   -0.4015    0.4259   -0.1385 C   0  0  0  0  0  0  0  0  0  0  0  0
   -0.5438    1.1141    1.1739 C   0  0  0  0  0  0  0  0  0  0  0  0
   -1.8057    1.8448    1.3872 C   0  0  0  0  0  0  0  0  0  0  0  0
   -2.9522    1.6007    0.6950 C   0  0  0  0  0  0  0  0  0  0  0  0
   -2.7164    1.0242   -0.5812 C   0  0  0  0  0  0  0  0  0  0  0  0
   -1.4501   -0.1303   -1.9180 H   0  0  0  0  0  0  0  0  0  0  0  0
    0.5085   -0.1506   -0.3128 H   0  0  0  0  0  0  0  0  0  0  0  0
   -3.4930    1.1441   -1.3429 H   0  0  0  0  0  0  0  0  0  0  0  0
   -3.9178    2.0500    0.9300 H   0  0  0  0  0  0  0  0  0  0  0  0
   -1.2926    3.3888    3.3690 N   0  0  0  0  0  0  0  0  0  0  0  0
    0.2794    0.9975    2.0765 O   0  0  0  0  0  0  0  0  0  0  0  0
   -0.1970    3.4191    3.5207 O   0  0  0  0  0  0  0  0  0  0  0  0
  1  6  1  0  0  0  0
  1  2  2  0  0  0  0
  2  3  1  0  0  0  0
  3  4  1  0  0  0  0
  3 12  2  0  0  0  0
  5 10  1  0  0  0  0
  5  4  1  0  0  0  0
  6  5  1  0  0  0  0
  7  1  1  0  0  0  0
  8  2  1  0  0  0  0
  9  6  1  0  0  0  0
 11 13  2  0  0  0  0
M  RAD  4   4   3   5   2   6   2  11   2
M  END
