Coordinates from ORCA-job o-NO2-Ph+-B3LYPG-aug-cc-pVDZ-scan-d09-49-n400
 OpenBabel10111716033D

 13 12  0  0  0  0  0  0  0  0999 V2000
   -1.4951    0.3861   -0.9563 C   0  0  0  0  0  0  0  0  0  0  0  0
   -0.3972    0.4003   -0.1509 C   0  0  0  0  0  0  0  0  0  0  0  0
   -0.4968    1.1006    1.1622 C   0  0  0  0  0  0  0  0  0  0  0  0
   -1.7375    1.8626    1.4203 C   0  0  0  0  0  0  0  0  0  0  0  0
   -2.8882    1.6536    0.7190 C   0  0  0  0  0  0  0  0  0  0  0  0
   -2.7026    1.0459   -0.5508 C   0  0  0  0  0  0  0  0  0  0  0  0
   -1.4885   -0.1419   -1.9103 H   0  0  0  0  0  0  0  0  0  0  0  0
    0.5042   -0.1830   -0.3456 H   0  0  0  0  0  0  0  0  0  0  0  0
   -3.5034    1.1518   -1.2891 H   0  0  0  0  0  0  0  0  0  0  0  0
   -3.8399    2.1260    0.9663 H   0  0  0  0  0  0  0  0  0  0  0  0
   -1.4279    3.3101    3.2887 N   0  0  0  0  0  0  0  0  0  0  0  0
    0.3517    0.9696    2.0360 O   0  0  0  0  0  0  0  0  0  0  0  0
   -0.3458    3.4416    3.5067 O   0  0  0  0  0  0  0  0  0  0  0  0
  1  6  1  0  0  0  0
  1  2  2  0  0  0  0
  2  3  1  0  0  0  0
  3  4  1  0  0  0  0
  3 12  2  0  0  0  0
  5 10  1  0  0  0  0
  5  4  1  0  0  0  0
  6  5  1  0  0  0  0
  7  1  1  0  0  0  0
  8  2  1  0  0  0  0
  9  6  1  0  0  0  0
 11 13  2  0  0  0  0
M  RAD  4   4   3   5   2   6   2  11   2
M  END
