Coordinates from ORCA-job o-NO2-Ph+-B3LYPG-aug-cc-pVDZ-scan-d09-49-n400
 OpenBabel10111716023D

 13 14  0  0  0  0  0  0  0  0999 V2000
   -1.5222    0.4219   -0.7526 C   0  0  0  0  0  0  0  0  0  0  0  0
   -0.3909    0.4805    0.0373 C   0  0  0  0  0  0  0  0  0  0  0  0
   -0.4627    1.2850    1.2011 C   0  0  0  0  0  0  0  0  0  0  0  0
   -1.7226    1.9897    1.4778 C   0  0  0  0  0  0  0  0  0  0  0  0
   -2.8694    1.9110    0.6481 C   0  0  0  0  0  0  0  0  0  0  0  0
   -2.7462    1.1200   -0.4635 C   0  0  0  0  0  0  0  0  0  0  0  0
   -1.4858   -0.1929   -1.6535 H   0  0  0  0  0  0  0  0  0  0  0  0
    0.5264   -0.0545   -0.1971 H   0  0  0  0  0  0  0  0  0  0  0  0
   -3.5853    1.0104   -1.1489 H   0  0  0  0  0  0  0  0  0  0  0  0
   -3.7774    2.4551    0.9019 H   0  0  0  0  0  0  0  0  0  0  0  0
   -1.4923    2.6716    2.6449 N   0  0  0  0  0  0  0  0  0  0  0  0
    0.4456    1.4898    2.0723 O   0  0  0  0  0  0  0  0  0  0  0  0
   -0.3846    2.5359    3.1284 O   0  0  0  0  0  0  0  0  0  0  0  0
  1  6  1  0  0  0  0
  1  2  1  0  0  0  0
  2  3  2  0  0  0  0
  3  4  1  0  0  0  0
  3 12  1  0  0  0  0
  4 11  2  0  0  0  0
  5 10  1  0  0  0  0
  5  4  1  0  0  0  0
  6  5  2  0  0  0  0
  7  1  1  0  0  0  0
  8  2  1  0  0  0  0
  9  6  1  0  0  0  0
 11 13  1  0  0  0  0
 12 13  1  0  0  0  0
M  RAD  1   1   2
M  END
