Coordinates from ORCA-job o-NO2-Ph+-B3LYPG-aug-cc-pVDZ-scan-d09-49-n400
 OpenBabel10111716033D

 13 12  0  0  0  0  0  0  0  0999 V2000
   -1.4452    0.5111   -0.9432 C   0  0  0  0  0  0  0  0  0  0  0  0
   -0.4754    0.6901    0.0140 C   0  0  0  0  0  0  0  0  0  0  0  0
   -0.8438    1.1869    1.3598 C   0  0  0  0  0  0  0  0  0  0  0  0
   -2.1814    1.6631    1.2905 C   0  0  0  0  0  0  0  0  0  0  0  0
   -3.2536    1.3766    0.5404 C   0  0  0  0  0  0  0  0  0  0  0  0
   -2.7932    0.8810   -0.7211 C   0  0  0  0  0  0  0  0  0  0  0  0
   -1.1880    0.0476   -1.8966 H   0  0  0  0  0  0  0  0  0  0  0  0
    0.5235    0.2529   -0.0569 H   0  0  0  0  0  0  0  0  0  0  0  0
   -3.4936    0.9496   -1.5570 H   0  0  0  0  0  0  0  0  0  0  0  0
   -4.2673    1.7570    0.6665 H   0  0  0  0  0  0  0  0  0  0  0  0
   -0.3917    3.7188    3.4646 N   0  0  0  0  0  0  0  0  0  0  0  0
   -0.1043    1.0712    2.3590 O   0  0  0  0  0  0  0  0  0  0  0  0
    0.4468    3.0174    3.3760 O   0  0  0  0  0  0  0  0  0  0  0  0
  1  6  1  0  0  0  0
  1  2  2  0  0  0  0
  2  3  1  0  0  0  0
  3 12  2  0  0  0  0
  4  3  1  0  0  0  0
  5 10  1  0  0  0  0
  5  4  1  0  0  0  0
  6  5  1  0  0  0  0
  7  1  1  0  0  0  0
  8  2  1  0  0  0  0
  9  6  1  0  0  0  0
 13 11  2  0  0  0  0
M  RAD  4   4   3   5   2   6   2  11   2
M  END
