Coordinates from ORCA-job o-NO2-Ph+-B3LYPG-aug-cc-pVDZ-scan-d09-49-n400
 OpenBabel10111716033D

 13 12  0  0  0  0  0  0  0  0999 V2000
   -1.5540    0.8040   -0.9484 C   0  0  0  0  0  0  0  0  0  0  0  0
   -0.7647    0.9187    0.1774 C   0  0  0  0  0  0  0  0  0  0  0  0
   -1.1630    1.1425    1.6313 C   0  0  0  0  0  0  0  0  0  0  0  0
   -2.5059    1.1394    1.3748 C   0  0  0  0  0  0  0  0  0  0  0  0
   -3.4751    1.0705    0.4494 C   0  0  0  0  0  0  0  0  0  0  0  0
   -2.9513    0.8742   -0.8532 C   0  0  0  0  0  0  0  0  0  0  0  0
   -1.0707    0.6419   -1.9120 H   0  0  0  0  0  0  0  0  0  0  0  0
    0.3185    0.7666    0.1647 H   0  0  0  0  0  0  0  0  0  0  0  0
   -3.6245    0.8109   -1.7062 H   0  0  0  0  0  0  0  0  0  0  0  0
   -4.5354    1.1951    0.6721 H   0  0  0  0  0  0  0  0  0  0  0  0
    1.3298    3.7067    2.8642 N   0  0  0  0  0  0  0  0  0  0  0  0
   -0.3471    1.1786    2.5676 O   0  0  0  0  0  0  0  0  0  0  0  0
    0.8761    2.8741    3.4143 O   0  0  0  0  0  0  0  0  0  0  0  0
  1  6  1  0  0  0  0
  1  2  2  0  0  0  0
  2  3  1  0  0  0  0
  3 12  2  0  0  0  0
  4  3  1  0  0  0  0
  5 10  1  0  0  0  0
  5  4  2  0  0  0  0
  6  5  1  0  0  0  0
  7  1  1  0  0  0  0
  8  2  1  0  0  0  0
  9  6  1  0  0  0  0
 11 13  2  0  0  0  0
M  RAD  3   4   2   6   2  11   2
M  END
