Coordinates from ORCA-job o-NO2-Ph+-B3LYPG-aug-cc-pVDZ-scan-d09-49-n400
 OpenBabel10111716033D

 13 12  0  0  0  0  0  0  0  0999 V2000
   -1.4993    0.3839   -0.9512 C   0  0  0  0  0  0  0  0  0  0  0  0
   -0.3956    0.3931   -0.1533 C   0  0  0  0  0  0  0  0  0  0  0  0
   -0.4782    1.0975    1.1599 C   0  0  0  0  0  0  0  0  0  0  0  0
   -1.7111    1.8697    1.4324 C   0  0  0  0  0  0  0  0  0  0  0  0
   -2.8633    1.6757    0.7291 C   0  0  0  0  0  0  0  0  0  0  0  0
   -2.6973    1.0549   -0.5377 C   0  0  0  0  0  0  0  0  0  0  0  0
   -1.5030   -0.1459   -1.9042 H   0  0  0  0  0  0  0  0  0  0  0  0
    0.5023   -0.1933   -0.3554 H   0  0  0  0  0  0  0  0  0  0  0  0
   -3.5072    1.1559   -1.2666 H   0  0  0  0  0  0  0  0  0  0  0  0
   -3.8089    2.1581    0.9812 H   0  0  0  0  0  0  0  0  0  0  0  0
   -1.4797    3.2679    3.2483 N   0  0  0  0  0  0  0  0  0  0  0  0
    0.3801    0.9630    2.0223 O   0  0  0  0  0  0  0  0  0  0  0  0
   -0.4060    3.4428    3.4911 O   0  0  0  0  0  0  0  0  0  0  0  0
  1  6  1  0  0  0  0
  1  2  2  0  0  0  0
  2  3  1  0  0  0  0
  3  4  1  0  0  0  0
  3 12  2  0  0  0  0
  5 10  1  0  0  0  0
  5  4  1  0  0  0  0
  6  5  2  0  0  0  0
  7  1  1  0  0  0  0
  8  2  1  0  0  0  0
  9  6  1  0  0  0  0
 11 13  2  0  0  0  0
M  RAD  2   4   3  11   2
M  END
