Coordinates from ORCA-job o-NO2-Ph+-B3LYPG-aug-cc-pVDZ-scan-d09-49-n400
 OpenBabel10111716033D

 13 12  0  0  0  0  0  0  0  0999 V2000
   -1.5561    0.8021   -0.9503 C   0  0  0  0  0  0  0  0  0  0  0  0
   -0.7667    0.9211    0.1748 C   0  0  0  0  0  0  0  0  0  0  0  0
   -1.1647    1.1474    1.6285 C   0  0  0  0  0  0  0  0  0  0  0  0
   -2.5076    1.1414    1.3724 C   0  0  0  0  0  0  0  0  0  0  0  0
   -3.4771    1.0684    0.4476 C   0  0  0  0  0  0  0  0  0  0  0  0
   -2.9536    0.8700   -0.8547 C   0  0  0  0  0  0  0  0  0  0  0  0
   -1.0729    0.6388   -1.9138 H   0  0  0  0  0  0  0  0  0  0  0  0
    0.3170    0.7726    0.1618 H   0  0  0  0  0  0  0  0  0  0  0  0
   -3.6271    0.8030   -1.7073 H   0  0  0  0  0  0  0  0  0  0  0  0
   -4.5376    1.1905    0.6707 H   0  0  0  0  0  0  0  0  0  0  0  0
    1.3509    3.7026    2.8786 N   0  0  0  0  0  0  0  0  0  0  0  0
   -0.3485    1.1874    2.5643 O   0  0  0  0  0  0  0  0  0  0  0  0
    0.8769    2.8779    3.4234 O   0  0  0  0  0  0  0  0  0  0  0  0
  1  6  1  0  0  0  0
  1  2  2  0  0  0  0
  2  3  1  0  0  0  0
  3 12  2  0  0  0  0
  4  3  1  0  0  0  0
  5 10  1  0  0  0  0
  5  4  2  0  0  0  0
  6  5  1  0  0  0  0
  7  1  1  0  0  0  0
  8  2  1  0  0  0  0
  9  6  1  0  0  0  0
 11 13  2  0  0  0  0
M  RAD  3   4   2   6   2  11   2
M  END
