Coordinates from ORCA-job o-NO2-Ph+-B3LYPG-aug-cc-pVDZ-scan-d09-49-n400
 OpenBabel10111716033D

 13 12  0  0  0  0  0  0  0  0999 V2000
   -1.4807    0.3992   -0.9645 C   0  0  0  0  0  0  0  0  0  0  0  0
   -0.4037    0.4384   -0.1317 C   0  0  0  0  0  0  0  0  0  0  0  0
   -0.5651    1.1204    1.1801 C   0  0  0  0  0  0  0  0  0  0  0  0
   -1.8362    1.8364    1.3721 C   0  0  0  0  0  0  0  0  0  0  0  0
   -2.9804    1.5781    0.6840 C   0  0  0  0  0  0  0  0  0  0  0  0
   -2.7224    1.0143   -0.5941 C   0  0  0  0  0  0  0  0  0  0  0  0
   -1.4328   -0.1244   -1.9201 H   0  0  0  0  0  0  0  0  0  0  0  0
    0.5107   -0.1338   -0.2973 H   0  0  0  0  0  0  0  0  0  0  0  0
   -3.4885    1.1401   -1.3654 H   0  0  0  0  0  0  0  0  0  0  0  0
   -3.9518    2.0177    0.9131 H   0  0  0  0  0  0  0  0  0  0  0  0
   -1.2307    3.4202    3.4013 N   0  0  0  0  0  0  0  0  0  0  0  0
    0.2469    1.0109    2.0952 O   0  0  0  0  0  0  0  0  0  0  0  0
   -0.1327    3.4057    3.5233 O   0  0  0  0  0  0  0  0  0  0  0  0
  1  6  1  0  0  0  0
  1  2  2  0  0  0  0
  2  3  1  0  0  0  0
  3  4  1  0  0  0  0
  3 12  2  0  0  0  0
  5 10  1  0  0  0  0
  5  4  1  0  0  0  0
  6  5  1  0  0  0  0
  7  1  1  0  0  0  0
  8  2  1  0  0  0  0
  9  6  1  0  0  0  0
 11 13  2  0  0  0  0
M  RAD  4   4   3   5   2   6   2  11   2
M  END
