Coordinates from ORCA-job o-NO2-Ph+-B3LYPG-aug-cc-pVDZ-scan-d09-49-n400
 OpenBabel10111716033D

 13 12  0  0  0  0  0  0  0  0999 V2000
   -1.5069    0.3819   -0.9356 C   0  0  0  0  0  0  0  0  0  0  0  0
   -0.3925    0.3882   -0.1504 C   0  0  0  0  0  0  0  0  0  0  0  0
   -0.4468    1.1044    1.1594 C   0  0  0  0  0  0  0  0  0  0  0  0
   -1.6701    1.8880    1.4486 C   0  0  0  0  0  0  0  0  0  0  0  0
   -2.8248    1.7164    0.7466 C   0  0  0  0  0  0  0  0  0  0  0  0
   -2.6892    1.0711   -0.5140 C   0  0  0  0  0  0  0  0  0  0  0  0
   -1.5261   -0.1555   -1.8841 H   0  0  0  0  0  0  0  0  0  0  0  0
    0.4989   -0.2052   -0.3615 H   0  0  0  0  0  0  0  0  0  0  0  0
   -3.5124    1.1642   -1.2288 H   0  0  0  0  0  0  0  0  0  0  0  0
   -3.7598    2.2158    1.0064 H   0  0  0  0  0  0  0  0  0  0  0  0
   -1.5613    3.1709    3.1619 N   0  0  0  0  0  0  0  0  0  0  0  0
    0.4276    0.9675    2.0034 O   0  0  0  0  0  0  0  0  0  0  0  0
   -0.5037    3.4157    3.4441 O   0  0  0  0  0  0  0  0  0  0  0  0
  1  6  1  0  0  0  0
  1  2  2  0  0  0  0
  2  3  1  0  0  0  0
  3  4  1  0  0  0  0
  3 12  2  0  0  0  0
  5 10  1  0  0  0  0
  5  4  1  0  0  0  0
  6  5  2  0  0  0  0
  7  1  1  0  0  0  0
  8  2  1  0  0  0  0
  9  6  1  0  0  0  0
 11 13  2  0  0  0  0
M  RAD  2   4   3  11   2
M  END
