Coordinates from ORCA-job o-NO2-Ph+-B3LYPG-aug-cc-pVDZ-scan-d09-49-n400
 OpenBabel10111716033D

 13 12  0  0  0  0  0  0  0  0999 V2000
   -1.4544    0.4466   -0.9514 C   0  0  0  0  0  0  0  0  0  0  0  0
   -0.4233    0.5681   -0.0617 C   0  0  0  0  0  0  0  0  0  0  0  0
   -0.7145    1.1739    1.2560 C   0  0  0  0  0  0  0  0  0  0  0  0
   -2.0305    1.7772    1.2983 C   0  0  0  0  0  0  0  0  0  0  0  0
   -3.1474    1.4601    0.6126 C   0  0  0  0  0  0  0  0  0  0  0  0
   -2.7607    0.9417   -0.6587 C   0  0  0  0  0  0  0  0  0  0  0  0
   -1.3054   -0.0612   -1.9054 H   0  0  0  0  0  0  0  0  0  0  0  0
    0.5340    0.0559   -0.1754 H   0  0  0  0  0  0  0  0  0  0  0  0
   -3.4767    1.0633   -1.4768 H   0  0  0  0  0  0  0  0  0  0  0  0
   -4.1487    1.8553    0.7850 H   0  0  0  0  0  0  0  0  0  0  0  0
   -0.7966    3.5775    3.4935 N   0  0  0  0  0  0  0  0  0  0  0  0
    0.0274    1.0731    2.2436 O   0  0  0  0  0  0  0  0  0  0  0  0
    0.2295    3.1918    3.4364 O   0  0  0  0  0  0  0  0  0  0  0  0
  1  6  1  0  0  0  0
  1  2  2  0  0  0  0
  2  3  1  0  0  0  0
  3  4  1  0  0  0  0
  3 12  2  0  0  0  0
  5 10  1  0  0  0  0
  5  4  1  0  0  0  0
  6  5  1  0  0  0  0
  7  1  1  0  0  0  0
  8  2  1  0  0  0  0
  9  6  1  0  0  0  0
 13 11  2  0  0  0  0
M  RAD  4   4   3   5   2   6   2  11   2
M  END
