Coordinates from ORCA-job o-NO2-Ph+-B3LYPG-aug-cc-pVDZ-scan-d09-49-n400
 OpenBabel10111716033D

 13 12  0  0  0  0  0  0  0  0999 V2000
   -1.3605    1.2340   -0.6609 C   0  0  0  0  0  0  0  0  0  0  0  0
   -0.7326    1.0535    0.5900 C   0  0  0  0  0  0  0  0  0  0  0  0
   -1.3608    0.9632    2.0051 C   0  0  0  0  0  0  0  0  0  0  0  0
   -2.6294    0.6613    1.5182 C   0  0  0  0  0  0  0  0  0  0  0  0
   -3.4155    0.8725    0.4549 C   0  0  0  0  0  0  0  0  0  0  0  0
   -2.7316    1.1316   -0.7792 C   0  0  0  0  0  0  0  0  0  0  0  0
   -0.7317    1.4100   -1.5356 H   0  0  0  0  0  0  0  0  0  0  0  0
    0.2469    0.5695    0.6426 H   0  0  0  0  0  0  0  0  0  0  0  0
   -3.2860    1.2912   -1.7018 H   0  0  0  0  0  0  0  0  0  0  0  0
   -4.5034    0.9200    0.5531 H   0  0  0  0  0  0  0  0  0  0  0  0
    0.8859    2.9868    1.3491 N   0  0  0  0  0  0  0  0  0  0  0  0
   -0.6815    1.0232    3.0103 O   0  0  0  0  0  0  0  0  0  0  0  0
    0.8330    3.0066    2.4502 O   0  0  0  0  0  0  0  0  0  0  0  0
  1  2  1  0  0  0  0
  2  8  1  0  0  0  0
  2  3  1  0  0  0  0
  3 12  2  0  0  0  0
  4  3  1  0  0  0  0
  5 10  1  0  0  0  0
  5  4  1  0  0  0  0
  6  1  1  0  0  0  0
  6  5  2  0  0  0  0
  7  1  1  0  0  0  0
  9  6  1  0  0  0  0
 11 13  2  0  0  0  0
M  RAD  4   1   2   2   2   4   3  11   2
M  END
