Coordinates from ORCA-job o-NO2-Ph+-B3LYPG-aug-cc-pVDZ-scan-d09-49-n400
 OpenBabel10111716023D

 13 14  0  0  0  0  0  0  0  0999 V2000
   -1.5215    0.4225   -0.7514 C   0  0  0  0  0  0  0  0  0  0  0  0
   -0.3897    0.4798    0.0370 C   0  0  0  0  0  0  0  0  0  0  0  0
   -0.4592    1.2837    1.2013 C   0  0  0  0  0  0  0  0  0  0  0  0
   -1.7215    1.9926    1.4828 C   0  0  0  0  0  0  0  0  0  0  0  0
   -2.8686    1.9117    0.6496 C   0  0  0  0  0  0  0  0  0  0  0  0
   -2.7459    1.1214   -0.4612 C   0  0  0  0  0  0  0  0  0  0  0  0
   -1.4866   -0.1920   -1.6526 H   0  0  0  0  0  0  0  0  0  0  0  0
    0.5270   -0.0558   -0.1987 H   0  0  0  0  0  0  0  0  0  0  0  0
   -3.5849    1.0117   -1.1466 H   0  0  0  0  0  0  0  0  0  0  0  0
   -3.7767    2.4557    0.9033 H   0  0  0  0  0  0  0  0  0  0  0  0
   -1.4956    2.6649    2.6328 N   0  0  0  0  0  0  0  0  0  0  0  0
    0.4468    1.4890    2.0718 O   0  0  0  0  0  0  0  0  0  0  0  0
   -0.3908    2.5381    3.1279 O   0  0  0  0  0  0  0  0  0  0  0  0
  1  6  1  0  0  0  0
  1  2  1  0  0  0  0
  2  3  2  0  0  0  0
  3  4  1  0  0  0  0
  3 12  1  0  0  0  0
  4 11  2  0  0  0  0
  5 10  1  0  0  0  0
  5  4  1  0  0  0  0
  6  5  2  0  0  0  0
  7  1  1  0  0  0  0
  8  2  1  0  0  0  0
  9  6  1  0  0  0  0
 11 13  1  0  0  0  0
 12 13  1  0  0  0  0
M  RAD  1   1   2
M  END
