Coordinates from ORCA-job o-NO2-Ph+-B3LYPG-aug-cc-pVDZ-scan-d09-49-n400
 OpenBabel10111716033D

 13 12  0  0  0  0  0  0  0  0999 V2000
   -1.4460    1.0237   -0.8065 C   0  0  0  0  0  0  0  0  0  0  0  0
   -0.7366    1.0043    0.3876 C   0  0  0  0  0  0  0  0  0  0  0  0
   -1.2503    1.0402    1.8194 C   0  0  0  0  0  0  0  0  0  0  0  0
   -2.5804    0.9385    1.4757 C   0  0  0  0  0  0  0  0  0  0  0  0
   -3.4634    0.9742    0.4723 C   0  0  0  0  0  0  0  0  0  0  0  0
   -2.8401    0.9970   -0.8095 C   0  0  0  0  0  0  0  0  0  0  0  0
   -0.8890    1.0205   -1.7441 H   0  0  0  0  0  0  0  0  0  0  0  0
    0.3273    0.7540    0.4224 H   0  0  0  0  0  0  0  0  0  0  0  0
   -3.4505    1.0465   -1.7094 H   0  0  0  0  0  0  0  0  0  0  0  0
   -4.5398    1.0747    0.6233 H   0  0  0  0  0  0  0  0  0  0  0  0
    1.1056    3.3359    2.0045 N   0  0  0  0  0  0  0  0  0  0  0  0
   -0.5010    1.0303    2.8043 O   0  0  0  0  0  0  0  0  0  0  0  0
    0.7970    2.8833    2.9560 O   0  0  0  0  0  0  0  0  0  0  0  0
  1  2  2  0  0  0  0
  2  8  1  0  0  0  0
  2  3  1  0  0  0  0
  3 12  2  0  0  0  0
  4  3  1  0  0  0  0
  5 10  1  0  0  0  0
  5  4  2  0  0  0  0
  6  1  1  0  0  0  0
  6  5  1  0  0  0  0
  7  1  1  0  0  0  0
  9  6  1  0  0  0  0
 11 13  2  0  0  0  0
M  RAD  3   4   2   6   2  11   2
M  END
