Coordinates from ORCA-job o-NO2-Ph+-B3LYPG-aug-cc-pVDZ-scan-d09-49-n400
 OpenBabel10111716033D

 13 12  0  0  0  0  0  0  0  0999 V2000
   -1.3469    1.2460   -0.6489 C   0  0  0  0  0  0  0  0  0  0  0  0
   -0.7191    1.0601    0.6053 C   0  0  0  0  0  0  0  0  0  0  0  0
   -1.3555    0.9525    2.0179 C   0  0  0  0  0  0  0  0  0  0  0  0
   -2.6277    0.6668    1.5267 C   0  0  0  0  0  0  0  0  0  0  0  0
   -3.4058    0.8802    0.4599 C   0  0  0  0  0  0  0  0  0  0  0  0
   -2.7152    1.1451   -0.7720 C   0  0  0  0  0  0  0  0  0  0  0  0
   -0.7154    1.4272   -1.5207 H   0  0  0  0  0  0  0  0  0  0  0  0
    0.2474    0.5490    0.6529 H   0  0  0  0  0  0  0  0  0  0  0  0
   -3.2667    1.3083   -1.6957 H   0  0  0  0  0  0  0  0  0  0  0  0
   -4.4946    0.9252    0.5506 H   0  0  0  0  0  0  0  0  0  0  0  0
    0.8091    2.9600    1.2960 N   0  0  0  0  0  0  0  0  0  0  0  0
   -0.6809    1.0020    3.0247 O   0  0  0  0  0  0  0  0  0  0  0  0
    0.8040    3.0011    2.3993 O   0  0  0  0  0  0  0  0  0  0  0  0
  1  2  1  0  0  0  0
  2  8  1  0  0  0  0
  2  3  1  0  0  0  0
  3 12  2  0  0  0  0
  4  3  1  0  0  0  0
  5 10  1  0  0  0  0
  5  4  1  0  0  0  0
  6  1  1  0  0  0  0
  6  5  2  0  0  0  0
  7  1  1  0  0  0  0
  9  6  1  0  0  0  0
 11 13  2  0  0  0  0
M  RAD  4   1   2   2   2   4   3  11   2
M  END
