Coordinates from ORCA-job o-NO2-Ph+-B3LYPG-aug-cc-pVDZ-scan-d09-49-n400
 OpenBabel10111716033D

 13 12  0  0  0  0  0  0  0  0999 V2000
   -1.4618    1.0020   -0.8253 C   0  0  0  0  0  0  0  0  0  0  0  0
   -0.7440    1.0018    0.3625 C   0  0  0  0  0  0  0  0  0  0  0  0
   -1.2453    1.0590    1.7965 C   0  0  0  0  0  0  0  0  0  0  0  0
   -2.5769    0.9544    1.4641 C   0  0  0  0  0  0  0  0  0  0  0  0
   -3.4701    0.9750    0.4686 C   0  0  0  0  0  0  0  0  0  0  0  0
   -2.8570    0.9769   -0.8171 C   0  0  0  0  0  0  0  0  0  0  0  0
   -0.9122    0.9847   -1.7669 H   0  0  0  0  0  0  0  0  0  0  0  0
    0.3235    0.7664    0.3927 H   0  0  0  0  0  0  0  0  0  0  0  0
   -3.4742    1.0134   -1.7131 H   0  0  0  0  0  0  0  0  0  0  0  0
   -4.5450    1.0777    0.6273 H   0  0  0  0  0  0  0  0  0  0  0  0
    1.1750    3.3715    2.1060 N   0  0  0  0  0  0  0  0  0  0  0  0
   -0.4913    1.0546    2.7798 O   0  0  0  0  0  0  0  0  0  0  0  0
    0.8120    2.8861    3.0209 O   0  0  0  0  0  0  0  0  0  0  0  0
  1  6  1  0  0  0  0
  1  2  2  0  0  0  0
  2  8  1  0  0  0  0
  2  3  1  0  0  0  0
  3 12  2  0  0  0  0
  4  3  1  0  0  0  0
  5 10  1  0  0  0  0
  5  4  2  0  0  0  0
  6  5  1  0  0  0  0
  7  1  1  0  0  0  0
  9  6  1  0  0  0  0
 11 13  2  0  0  0  0
M  RAD  3   4   2   6   2  11   2
M  END
