Coordinates from ORCA-job o-NO2-Ph+-B3LYPG-aug-cc-pVDZ-scan-d09-49-n400
 OpenBabel10111716033D

 13 12  0  0  0  0  0  0  0  0999 V2000
   -1.4467    0.5339   -0.9439 C   0  0  0  0  0  0  0  0  0  0  0  0
   -0.5016    0.7191    0.0393 C   0  0  0  0  0  0  0  0  0  0  0  0
   -0.8779    1.1827    1.3990 C   0  0  0  0  0  0  0  0  0  0  0  0
   -2.2201    1.6132    1.2953 C   0  0  0  0  0  0  0  0  0  0  0  0
   -3.2748    1.3570    0.5136 C   0  0  0  0  0  0  0  0  0  0  0  0
   -2.8030    0.8692   -0.7468 C   0  0  0  0  0  0  0  0  0  0  0  0
   -1.1535    0.0898   -1.8961 H   0  0  0  0  0  0  0  0  0  0  0  0
    0.5080    0.3039   -0.0176 H   0  0  0  0  0  0  0  0  0  0  0  0
   -3.5024    0.9114   -1.5843 H   0  0  0  0  0  0  0  0  0  0  0  0
   -4.2902    1.7346    0.6351 H   0  0  0  0  0  0  0  0  0  0  0  0
   -0.2819    3.7497    3.4436 N   0  0  0  0  0  0  0  0  0  0  0  0
   -0.1264    1.0714    2.3903 O   0  0  0  0  0  0  0  0  0  0  0  0
    0.5032    2.9873    3.3686 O   0  0  0  0  0  0  0  0  0  0  0  0
  1  6  1  0  0  0  0
  1  2  2  0  0  0  0
  2  3  1  0  0  0  0
  3 12  2  0  0  0  0
  4  3  1  0  0  0  0
  5 10  1  0  0  0  0
  5  4  1  0  0  0  0
  6  5  2  0  0  0  0
  7  1  1  0  0  0  0
  8  2  1  0  0  0  0
  9  6  1  0  0  0  0
 13 11  2  0  0  0  0
M  RAD  2   4   3  11   2
M  END
