Coordinates from ORCA-job o-NO2-Ph+-B3LYPG-aug-cc-pVDZ-scan-d09-49-n400
 OpenBabel10111716033D

 13 12  0  0  0  0  0  0  0  0999 V2000
   -1.5087    0.3834   -0.9288 C   0  0  0  0  0  0  0  0  0  0  0  0
   -0.3915    0.3890   -0.1465 C   0  0  0  0  0  0  0  0  0  0  0  0
   -0.4378    1.1089    1.1619 C   0  0  0  0  0  0  0  0  0  0  0  0
   -1.6600    1.8933    1.4543 C   0  0  0  0  0  0  0  0  0  0  0  0
   -2.8152    1.7284    0.7531 C   0  0  0  0  0  0  0  0  0  0  0  0
   -2.6867    1.0774   -0.5063 C   0  0  0  0  0  0  0  0  0  0  0  0
   -1.5313   -0.1560   -1.8760 H   0  0  0  0  0  0  0  0  0  0  0  0
    0.4977   -0.2072   -0.3591 H   0  0  0  0  0  0  0  0  0  0  0  0
   -3.5129    1.1694   -1.2178 H   0  0  0  0  0  0  0  0  0  0  0  0
   -3.7471    2.2323    1.0156 H   0  0  0  0  0  0  0  0  0  0  0  0
   -1.5830    3.1295    3.1290 N   0  0  0  0  0  0  0  0  0  0  0  0
    0.4401    0.9711    2.0015 O   0  0  0  0  0  0  0  0  0  0  0  0
   -0.5309    3.4037    3.4153 O   0  0  0  0  0  0  0  0  0  0  0  0
  1  6  1  0  0  0  0
  1  2  2  0  0  0  0
  2  3  1  0  0  0  0
  3  4  1  0  0  0  0
  3 12  2  0  0  0  0
  5 10  1  0  0  0  0
  5  4  1  0  0  0  0
  6  5  2  0  0  0  0
  7  1  1  0  0  0  0
  8  2  1  0  0  0  0
  9  6  1  0  0  0  0
 11 13  2  0  0  0  0
M  RAD  2   4   3  11   2
M  END
