Coordinates from ORCA-job o-NO2-Ph+-B3LYPG-aug-cc-pVDZ-scan-d09-49-n400
 OpenBabel10111716033D

 13 12  0  0  0  0  0  0  0  0999 V2000
   -1.4659    0.4201   -0.9592 C   0  0  0  0  0  0  0  0  0  0  0  0
   -0.4102    0.4982   -0.0989 C   0  0  0  0  0  0  0  0  0  0  0  0
   -0.6396    1.1499    1.2127 C   0  0  0  0  0  0  0  0  0  0  0  0
   -1.9367    1.8123    1.3301 C   0  0  0  0  0  0  0  0  0  0  0  0
   -3.0693    1.5152    0.6497 C   0  0  0  0  0  0  0  0  0  0  0  0
   -2.7416    0.9799   -0.6278 C   0  0  0  0  0  0  0  0  0  0  0  0
   -1.3701   -0.0984   -1.9142 H   0  0  0  0  0  0  0  0  0  0  0  0
    0.5240   -0.0490   -0.2366 H   0  0  0  0  0  0  0  0  0  0  0  0
   -3.4782    1.1113   -1.4262 H   0  0  0  0  0  0  0  0  0  0  0  0
   -4.0579    1.9280    0.8524 H   0  0  0  0  0  0  0  0  0  0  0  0
   -1.0196    3.4950    3.4597 N   0  0  0  0  0  0  0  0  0  0  0  0
    0.1327    1.0532    2.1692 O   0  0  0  0  0  0  0  0  0  0  0  0
    0.0651    3.3076    3.4849 O   0  0  0  0  0  0  0  0  0  0  0  0
  1  6  1  0  0  0  0
  1  2  2  0  0  0  0
  2  3  1  0  0  0  0
  3  4  1  0  0  0  0
  3 12  2  0  0  0  0
  5 10  1  0  0  0  0
  5  4  1  0  0  0  0
  6  5  1  0  0  0  0
  7  1  1  0  0  0  0
  8  2  1  0  0  0  0
  9  6  1  0  0  0  0
 11 13  2  0  0  0  0
M  RAD  4   4   3   5   2   6   2  11   2
M  END
