Coordinates from ORCA-job o-NO2-Ph+-B3LYPG-aug-cc-pVDZ-scan-d09-49-n400
 OpenBabel10111716033D

 13 12  0  0  0  0  0  0  0  0999 V2000
   -1.5209    0.8326   -0.9205 C   0  0  0  0  0  0  0  0  0  0  0  0
   -0.7357    0.8794    0.2139 C   0  0  0  0  0  0  0  0  0  0  0  0
   -1.1345    1.0684    1.6740 C   0  0  0  0  0  0  0  0  0  0  0  0
   -2.4760    1.0986    1.4128 C   0  0  0  0  0  0  0  0  0  0  0  0
   -3.4392    1.1033    0.4785 C   0  0  0  0  0  0  0  0  0  0  0  0
   -2.9154    0.9403   -0.8289 C   0  0  0  0  0  0  0  0  0  0  0  0
   -1.0360    0.6925   -1.8868 H   0  0  0  0  0  0  0  0  0  0  0  0
    0.3385    0.6714    0.2067 H   0  0  0  0  0  0  0  0  0  0  0  0
   -3.5841    0.9350   -1.6879 H   0  0  0  0  0  0  0  0  0  0  0  0
   -4.4945    1.2652    0.7021 H   0  0  0  0  0  0  0  0  0  0  0  0
    1.0295    3.7242    2.6425 N   0  0  0  0  0  0  0  0  0  0  0  0
   -0.3174    1.0551    2.6092 O   0  0  0  0  0  0  0  0  0  0  0  0
    0.8184    2.8573    3.2804 O   0  0  0  0  0  0  0  0  0  0  0  0
  1  6  1  0  0  0  0
  1  2  2  0  0  0  0
  2  3  1  0  0  0  0
  3 12  2  0  0  0  0
  4  3  1  0  0  0  0
  5 10  1  0  0  0  0
  5  4  2  0  0  0  0
  6  5  1  0  0  0  0
  7  1  1  0  0  0  0
  8  2  1  0  0  0  0
  9  6  1  0  0  0  0
 11 13  2  0  0  0  0
M  RAD  3   4   2   6   2  11   2
M  END
