Coordinates from ORCA-job o-NO2-Ph+-B3LYPG-aug-cc-pVDZ-scan-d09-49-n400
 OpenBabel10111716033D

 13 12  0  0  0  0  0  0  0  0999 V2000
   -1.3892    1.1846   -0.7034 C   0  0  0  0  0  0  0  0  0  0  0  0
   -0.7502    1.0375    0.5371 C   0  0  0  0  0  0  0  0  0  0  0  0
   -1.3445    0.9926    1.9624 C   0  0  0  0  0  0  0  0  0  0  0  0
   -2.6127    0.7014    1.5025 C   0  0  0  0  0  0  0  0  0  0  0  0
   -3.4292    0.8829    0.4537 C   0  0  0  0  0  0  0  0  0  0  0  0
   -2.7688    1.0933   -0.7957 C   0  0  0  0  0  0  0  0  0  0  0  0
   -0.7728    1.3223   -1.5932 H   0  0  0  0  0  0  0  0  0  0  0  0
    0.2603    0.6243    0.5959 H   0  0  0  0  0  0  0  0  0  0  0  0
   -3.3366    1.2319   -1.7135 H   0  0  0  0  0  0  0  0  0  0  0  0
   -4.5128    0.9506    0.5783 H   0  0  0  0  0  0  0  0  0  0  0  0
    1.0013    3.0654    1.5148 N   0  0  0  0  0  0  0  0  0  0  0  0
   -0.6412    1.0527    2.9591 O   0  0  0  0  0  0  0  0  0  0  0  0
    0.8292    2.9839    2.5980 O   0  0  0  0  0  0  0  0  0  0  0  0
  1  2  1  0  0  0  0
  2  8  1  0  0  0  0
  2  3  1  0  0  0  0
  3 12  2  0  0  0  0
  4  3  1  0  0  0  0
  5 10  1  0  0  0  0
  5  4  1  0  0  0  0
  6  1  1  0  0  0  0
  6  5  2  0  0  0  0
  7  1  1  0  0  0  0
  9  6  1  0  0  0  0
 11 13  2  0  0  0  0
M  RAD  4   1   2   2   2   4   3  11   2
M  END
