Coordinates from ORCA-job o-NO2-Ph+-B3LYPG-aug-cc-pVDZ-scan-d09-49-n400
 OpenBabel10111716033D

 13 12  0  0  0  0  0  0  0  0999 V2000
   -1.4660    0.9956   -0.8305 C   0  0  0  0  0  0  0  0  0  0  0  0
   -0.7458    1.0004    0.3554 C   0  0  0  0  0  0  0  0  0  0  0  0
   -1.2433    1.0635    1.7902 C   0  0  0  0  0  0  0  0  0  0  0  0
   -2.5753    0.9591    1.4609 C   0  0  0  0  0  0  0  0  0  0  0  0
   -3.4715    0.9759    0.4678 C   0  0  0  0  0  0  0  0  0  0  0  0
   -2.8616    0.9718   -0.8190 C   0  0  0  0  0  0  0  0  0  0  0  0
   -0.9186    0.9741   -1.7734 H   0  0  0  0  0  0  0  0  0  0  0  0
    0.3226    0.7687    0.3841 H   0  0  0  0  0  0  0  0  0  0  0  0
   -3.4807    1.0049   -1.7138 H   0  0  0  0  0  0  0  0  0  0  0  0
   -4.5459    1.0797    0.6289 H   0  0  0  0  0  0  0  0  0  0  0  0
    1.1916    3.3818    2.1343 N   0  0  0  0  0  0  0  0  0  0  0  0
   -0.4877    1.0606    2.7727 O   0  0  0  0  0  0  0  0  0  0  0  0
    0.8148    2.8873    3.0385 O   0  0  0  0  0  0  0  0  0  0  0  0
  1  6  1  0  0  0  0
  1  2  2  0  0  0  0
  2  8  1  0  0  0  0
  2  3  1  0  0  0  0
  3 12  2  0  0  0  0
  4  3  1  0  0  0  0
  5 10  1  0  0  0  0
  5  4  2  0  0  0  0
  6  5  1  0  0  0  0
  7  1  1  0  0  0  0
  9  6  1  0  0  0  0
 11 13  2  0  0  0  0
M  RAD  3   4   2   6   2  11   2
M  END
