Coordinates from ORCA-job o-NO2-Ph+-B3LYPG-aug-cc-pVDZ-scan-d09-49-n400
 OpenBabel10111716033D

 13 12  0  0  0  0  0  0  0  0999 V2000
   -1.5150    0.3846   -0.9099 C   0  0  0  0  0  0  0  0  0  0  0  0
   -0.3897    0.3962   -0.1353 C   0  0  0  0  0  0  0  0  0  0  0  0
   -0.4172    1.1287    1.1661 C   0  0  0  0  0  0  0  0  0  0  0  0
   -1.6396    1.9120    1.4583 C   0  0  0  0  0  0  0  0  0  0  0  0
   -2.7963    1.7600    0.7627 C   0  0  0  0  0  0  0  0  0  0  0  0
   -2.6840    1.0891   -0.4912 C   0  0  0  0  0  0  0  0  0  0  0  0
   -1.5436   -0.1660   -1.8506 H   0  0  0  0  0  0  0  0  0  0  0  0
    0.4935   -0.2092   -0.3471 H   0  0  0  0  0  0  0  0  0  0  0  0
   -3.5162    1.1757   -1.1958 H   0  0  0  0  0  0  0  0  0  0  0  0
   -3.7199    2.2761    1.0310 H   0  0  0  0  0  0  0  0  0  0  0  0
   -1.6249    3.0237    3.0513 N   0  0  0  0  0  0  0  0  0  0  0  0
    0.4706    0.9975    1.9951 O   0  0  0  0  0  0  0  0  0  0  0  0
   -0.5848    3.3550    3.3615 O   0  0  0  0  0  0  0  0  0  0  0  0
  1  6  1  0  0  0  0
  1  2  2  0  0  0  0
  2  3  1  0  0  0  0
  3  4  1  0  0  0  0
  3 12  2  0  0  0  0
  5 10  1  0  0  0  0
  5  4  1  0  0  0  0
  6  5  2  0  0  0  0
  7  1  1  0  0  0  0
  8  2  1  0  0  0  0
  9  6  1  0  0  0  0
 11 13  2  0  0  0  0
M  RAD  2   4   3  11   2
M  END
