Coordinates from ORCA-job o-NO2-Ph+-B3LYPG-aug-cc-pVDZ-scan-d09-49-n400
 OpenBabel10111716023D

 13 12  0  0  0  0  0  0  0  0999 V2000
   -1.4908    0.4600   -0.6757 C   0  0  0  0  0  0  0  0  0  0  0  0
   -0.2358    0.3269   -0.0951 C   0  0  0  0  0  0  0  0  0  0  0  0
    0.2843    0.8764    1.0526 C   0  0  0  0  0  0  0  0  0  0  0  0
   -2.1420    2.3540    1.7637 C   0  0  0  0  0  0  0  0  0  0  0  0
   -2.9871    1.9939    0.6982 C   0  0  0  0  0  0  0  0  0  0  0  0
   -2.6877    1.1689   -0.3550 C   0  0  0  0  0  0  0  0  0  0  0  0
   -1.5722   -0.1203   -1.5979 H   0  0  0  0  0  0  0  0  0  0  0  0
    0.5074   -0.3100   -0.5879 H   0  0  0  0  0  0  0  0  0  0  0  0
   -3.4921    1.0221   -1.0754 H   0  0  0  0  0  0  0  0  0  0  0  0
   -3.9884    2.4309    0.7324 H   0  0  0  0  0  0  0  0  0  0  0  0
   -1.5907    2.6596    2.5660 N   0  0  0  0  0  0  0  0  0  0  0  0
    0.8376    1.2623    1.9705 O   0  0  0  0  0  0  0  0  0  0  0  0
   -0.9097    2.9987    3.4996 O   0  0  0  0  0  0  0  0  0  0  0  0
  1  6  1  0  0  0  0
  1  2  2  0  0  0  0
  2  3  1  0  0  0  0
  3 12  1  0  0  0  0
  4 11  1  0  0  0  0
  5 10  1  0  0  0  0
  5  4  1  0  0  0  0
  6  5  2  0  0  0  0
  7  1  1  0  0  0  0
  8  2  1  0  0  0  0
  9  6  1  0  0  0  0
 11 13  1  0  0  0  0
M  RAD  5   3   3   4   3  11   2  12   2  13   2
M  END
