Coordinates from ORCA-job o-NO2-Ph+-B3LYPG-aug-cc-pVDZ-scan-d09-49-n400
 OpenBabel10111716033D

 13 12  0  0  0  0  0  0  0  0999 V2000
   -1.3093    1.2366   -0.6397 C   0  0  0  0  0  0  0  0  0  0  0  0
   -0.6695    1.0740    0.6191 C   0  0  0  0  0  0  0  0  0  0  0  0
   -1.3077    0.9104    2.0303 C   0  0  0  0  0  0  0  0  0  0  0  0
   -2.6062    0.7736    1.5565 C   0  0  0  0  0  0  0  0  0  0  0  0
   -3.3781    0.9451    0.4860 C   0  0  0  0  0  0  0  0  0  0  0  0
   -2.6742    1.1667   -0.7543 C   0  0  0  0  0  0  0  0  0  0  0  0
   -0.6788    1.3805   -1.5192 H   0  0  0  0  0  0  0  0  0  0  0  0
    0.2869    0.5400    0.6565 H   0  0  0  0  0  0  0  0  0  0  0  0
   -3.2265    1.3176   -1.6797 H   0  0  0  0  0  0  0  0  0  0  0  0
   -4.4672    1.0021    0.5647 H   0  0  0  0  0  0  0  0  0  0  0  0
    0.5224    2.9353    1.2235 N   0  0  0  0  0  0  0  0  0  0  0  0
   -0.6243    0.8837    3.0284 O   0  0  0  0  0  0  0  0  0  0  0  0
    0.6652    2.9577    2.3238 O   0  0  0  0  0  0  0  0  0  0  0  0
  1  2  1  0  0  0  0
  2  8  1  0  0  0  0
  2  3  1  0  0  0  0
  3 12  2  0  0  0  0
  4  3  1  0  0  0  0
  5 10  1  0  0  0  0
  5  4  2  0  0  0  0
  6  1  2  0  0  0  0
  6  5  1  0  0  0  0
  7  1  1  0  0  0  0
  9  6  1  0  0  0  0
 11 13  2  0  0  0  0
M  RAD  3   2   2   4   2  11   2
M  END
