Coordinates from ORCA-job o-NO2-Ph+-B3LYPG-aug-cc-pVDZ-scan-d09-49-n400
 OpenBabel10111716023D

 13 12  0  0  0  0  0  0  0  0999 V2000
   -1.4853    0.4648   -0.6642 C   0  0  0  0  0  0  0  0  0  0  0  0
   -0.2295    0.3264   -0.0913 C   0  0  0  0  0  0  0  0  0  0  0  0
    0.2862    0.8810    1.0579 C   0  0  0  0  0  0  0  0  0  0  0  0
   -2.1271    2.3611    1.7851 C   0  0  0  0  0  0  0  0  0  0  0  0
   -2.9788    2.0013    0.7142 C   0  0  0  0  0  0  0  0  0  0  0  0
   -2.6816    1.1793   -0.3372 C   0  0  0  0  0  0  0  0  0  0  0  0
   -1.5741   -0.1143   -1.5865 H   0  0  0  0  0  0  0  0  0  0  0  0
    0.5116   -0.3120   -0.5847 H   0  0  0  0  0  0  0  0  0  0  0  0
   -3.4867    1.0342   -1.0572 H   0  0  0  0  0  0  0  0  0  0  0  0
   -3.9784    2.4397    0.7505 H   0  0  0  0  0  0  0  0  0  0  0  0
   -1.6210    2.6229    2.4947 N   0  0  0  0  0  0  0  0  0  0  0  0
    0.8151    1.2834    1.9816 O   0  0  0  0  0  0  0  0  0  0  0  0
   -0.9176    2.9554    3.4332 O   0  0  0  0  0  0  0  0  0  0  0  0
  1  6  1  0  0  0  0
  1  2  2  0  0  0  0
  2  3  1  0  0  0  0
  3 12  1  0  0  0  0
  4 11  1  0  0  0  0
  5 10  1  0  0  0  0
  5  4  1  0  0  0  0
  6  5  2  0  0  0  0
  7  1  1  0  0  0  0
  8  2  1  0  0  0  0
  9  6  1  0  0  0  0
 11 13  1  0  0  0  0
M  RAD  5   3   3   4   3  11   2  12   2  13   2
M  END
