Coordinates from ORCA-job o-NO2-Ph+-B3LYPG-aug-cc-pVDZ-scan-d09-49-n400
 OpenBabel10111716033D

 13 12  0  0  0  0  0  0  0  0999 V2000
   -1.4840    0.3959   -0.9635 C   0  0  0  0  0  0  0  0  0  0  0  0
   -0.4021    0.4285   -0.1371 C   0  0  0  0  0  0  0  0  0  0  0  0
   -0.5485    1.1153    1.1752 C   0  0  0  0  0  0  0  0  0  0  0  0
   -1.8127    1.8425    1.3835 C   0  0  0  0  0  0  0  0  0  0  0  0
   -2.9588    1.5951    0.6924 C   0  0  0  0  0  0  0  0  0  0  0  0
   -2.7178    1.0220   -0.5844 C   0  0  0  0  0  0  0  0  0  0  0  0
   -1.4461   -0.1289   -1.9188 H   0  0  0  0  0  0  0  0  0  0  0  0
    0.5087   -0.1475   -0.3094 H   0  0  0  0  0  0  0  0  0  0  0  0
   -3.4918    1.1437   -1.3484 H   0  0  0  0  0  0  0  0  0  0  0  0
   -3.9257    2.0421    0.9263 H   0  0  0  0  0  0  0  0  0  0  0  0
   -1.2785    3.3970    3.3776 N   0  0  0  0  0  0  0  0  0  0  0  0
    0.2722    1.0004    2.0806 O   0  0  0  0  0  0  0  0  0  0  0  0
   -0.1821    3.4172    3.5220 O   0  0  0  0  0  0  0  0  0  0  0  0
  1  6  1  0  0  0  0
  1  2  2  0  0  0  0
  2  3  1  0  0  0  0
  3  4  1  0  0  0  0
  3 12  2  0  0  0  0
  5 10  1  0  0  0  0
  5  4  1  0  0  0  0
  6  5  1  0  0  0  0
  7  1  1  0  0  0  0
  8  2  1  0  0  0  0
  9  6  1  0  0  0  0
 11 13  2  0  0  0  0
M  RAD  4   4   3   5   2   6   2  11   2
M  END
