Coordinates from ORCA-job o-NO2-Ph+-B3LYPG-aug-cc-pVDZ-scan-d09-49-n400
 OpenBabel10111716033D

 13 12  0  0  0  0  0  0  0  0999 V2000
   -1.3945    1.1763   -0.7093 C   0  0  0  0  0  0  0  0  0  0  0  0
   -0.7516    1.0373    0.5289 C   0  0  0  0  0  0  0  0  0  0  0  0
   -1.3414    0.9974    1.9537 C   0  0  0  0  0  0  0  0  0  0  0  0
   -2.6171    0.7091    1.5011 C   0  0  0  0  0  0  0  0  0  0  0  0
   -3.4355    0.8837    0.4534 C   0  0  0  0  0  0  0  0  0  0  0  0
   -2.7752    1.0854   -0.7976 C   0  0  0  0  0  0  0  0  0  0  0  0
   -0.7812    1.3074   -1.6022 H   0  0  0  0  0  0  0  0  0  0  0  0
    0.2642    0.6376    0.5870 H   0  0  0  0  0  0  0  0  0  0  0  0
   -3.3444    1.2190   -1.7153 H   0  0  0  0  0  0  0  0  0  0  0  0
   -4.5189    0.9529    0.5780 H   0  0  0  0  0  0  0  0  0  0  0  0
    1.0271    3.0815    1.5453 N   0  0  0  0  0  0  0  0  0  0  0  0
   -0.6350    1.0560    2.9495 O   0  0  0  0  0  0  0  0  0  0  0  0
    0.8363    2.9797    2.6234 O   0  0  0  0  0  0  0  0  0  0  0  0
  1  2  1  0  0  0  0
  2  8  1  0  0  0  0
  2  3  1  0  0  0  0
  3 12  2  0  0  0  0
  4  3  1  0  0  0  0
  5 10  1  0  0  0  0
  5  4  1  0  0  0  0
  6  1  1  0  0  0  0
  6  5  2  0  0  0  0
  7  1  1  0  0  0  0
  9  6  1  0  0  0  0
 11 13  2  0  0  0  0
M  RAD  4   1   2   2   2   4   3  11   2
M  END
