Coordinates from ORCA-job o-NO2-Ph+-B3LYPG-aug-cc-pVDZ-scan-d09-49-n400
 OpenBabel10111716033D

 13 12  0  0  0  0  0  0  0  0999 V2000
   -1.3182    1.2438   -0.6387 C   0  0  0  0  0  0  0  0  0  0  0  0
   -0.6804    1.0746    0.6192 C   0  0  0  0  0  0  0  0  0  0  0  0
   -1.3210    0.9229    2.0282 C   0  0  0  0  0  0  0  0  0  0  0  0
   -2.6188    0.7430    1.5512 C   0  0  0  0  0  0  0  0  0  0  0  0
   -3.3878    0.9247    0.4791 C   0  0  0  0  0  0  0  0  0  0  0  0
   -2.6832    1.1617   -0.7574 C   0  0  0  0  0  0  0  0  0  0  0  0
   -0.6874    1.4009   -1.5159 H   0  0  0  0  0  0  0  0  0  0  0  0
    0.2756    0.5408    0.6573 H   0  0  0  0  0  0  0  0  0  0  0  0
   -3.2340    1.3155   -1.6832 H   0  0  0  0  0  0  0  0  0  0  0  0
   -4.4774    0.9754    0.5559 H   0  0  0  0  0  0  0  0  0  0  0  0
    0.5980    2.9385    1.2340 N   0  0  0  0  0  0  0  0  0  0  0  0
   -0.6420    0.9165    3.0303 O   0  0  0  0  0  0  0  0  0  0  0  0
    0.7094    2.9649    2.3362 O   0  0  0  0  0  0  0  0  0  0  0  0
  1  2  1  0  0  0  0
  2  8  1  0  0  0  0
  2  3  1  0  0  0  0
  3 12  2  0  0  0  0
  4  3  1  0  0  0  0
  5 10  1  0  0  0  0
  5  4  1  0  0  0  0
  6  1  1  0  0  0  0
  6  5  2  0  0  0  0
  7  1  1  0  0  0  0
  9  6  1  0  0  0  0
 11 13  2  0  0  0  0
M  RAD  4   1   2   2   2   4   3  11   2
M  END
