Coordinates from ORCA-job o-NO2-Ph+-B3LYPG-aug-cc-pVDZ-scan-d09-49-n400
 OpenBabel10111716023D

 13 14  0  0  0  0  0  0  0  0999 V2000
   -1.5283    0.4160   -0.7654 C   0  0  0  0  0  0  0  0  0  0  0  0
   -0.4030    0.4858    0.0378 C   0  0  0  0  0  0  0  0  0  0  0  0
   -0.4909    1.2953    1.1991 C   0  0  0  0  0  0  0  0  0  0  0  0
   -1.7357    1.9650    1.4325 C   0  0  0  0  0  0  0  0  0  0  0  0
   -2.8792    1.9052    0.6333 C   0  0  0  0  0  0  0  0  0  0  0  0
   -2.7484    1.1061   -0.4858 C   0  0  0  0  0  0  0  0  0  0  0  0
   -1.4794   -0.2019   -1.6631 H   0  0  0  0  0  0  0  0  0  0  0  0
    0.5201   -0.0439   -0.1851 H   0  0  0  0  0  0  0  0  0  0  0  0
   -3.5884    0.9972   -1.1705 H   0  0  0  0  0  0  0  0  0  0  0  0
   -3.7886    2.4479    0.8842 H   0  0  0  0  0  0  0  0  0  0  0  0
   -1.4527    2.7334    2.7623 N   0  0  0  0  0  0  0  0  0  0  0  0
    0.4383    1.4942    2.0744 O   0  0  0  0  0  0  0  0  0  0  0  0
   -0.3309    2.5230    3.1424 O   0  0  0  0  0  0  0  0  0  0  0  0
  1  6  2  0  0  0  0
  1  2  1  0  0  0  0
  2  3  2  0  0  0  0
  3  4  1  0  0  0  0
  3 12  1  0  0  0  0
  4 11  1  0  0  0  0
  5 10  1  0  0  0  0
  5  4  2  0  0  0  0
  6  5  1  0  0  0  0
  7  1  1  0  0  0  0
  8  2  1  0  0  0  0
  9  6  1  0  0  0  0
 11 13  1  0  0  0  0
 12 13  1  0  0  0  0
M  RAD  1  11   2
M  END
