Coordinates from ORCA-job o-NO2-Ph+-B3LYPG-aug-cc-pVDZ-scan-d09-49-n400
 OpenBabel10111716033D

 13 12  0  0  0  0  0  0  0  0999 V2000
   -1.4444    0.4979   -0.9426 C   0  0  0  0  0  0  0  0  0  0  0  0
   -0.4582    0.6654   -0.0024 C   0  0  0  0  0  0  0  0  0  0  0  0
   -0.8159    1.1833    1.3364 C   0  0  0  0  0  0  0  0  0  0  0  0
   -2.1487    1.6914    1.2932 C   0  0  0  0  0  0  0  0  0  0  0  0
   -3.2327    1.3932    0.5618 C   0  0  0  0  0  0  0  0  0  0  0  0
   -2.7846    0.8953   -0.7024 C   0  0  0  0  0  0  0  0  0  0  0  0
   -1.2130    0.0244   -1.8978 H   0  0  0  0  0  0  0  0  0  0  0  0
    0.5321    0.2117   -0.0843 H   0  0  0  0  0  0  0  0  0  0  0  0
   -3.4867    0.9825   -1.5357 H   0  0  0  0  0  0  0  0  0  0  0  0
   -4.2443    1.7765    0.6957 H   0  0  0  0  0  0  0  0  0  0  0  0
   -0.4842    3.6942    3.4578 N   0  0  0  0  0  0  0  0  0  0  0  0
   -0.0813    1.0648    2.3377 O   0  0  0  0  0  0  0  0  0  0  0  0
    0.3946    3.0427    3.3784 O   0  0  0  0  0  0  0  0  0  0  0  0
  1  6  1  0  0  0  0
  1  2  2  0  0  0  0
  2  3  1  0  0  0  0
  3 12  2  0  0  0  0
  4  3  1  0  0  0  0
  5 10  1  0  0  0  0
  5  4  1  0  0  0  0
  6  5  1  0  0  0  0
  7  1  1  0  0  0  0
  8  2  1  0  0  0  0
  9  6  1  0  0  0  0
 13 11  2  0  0  0  0
M  RAD  4   4   3   5   2   6   2  11   2
M  END
