Coordinates from ORCA-job o-NO2-Ph+-B3LYPG-aug-cc-pVDZ-scan-d09-49-n400
 OpenBabel10111716033D

 13 12  0  0  0  0  0  0  0  0999 V2000
   -1.4434    0.4901   -0.9416 C   0  0  0  0  0  0  0  0  0  0  0  0
   -0.4445    0.6428   -0.0143 C   0  0  0  0  0  0  0  0  0  0  0  0
   -0.7902    1.1744    1.3213 C   0  0  0  0  0  0  0  0  0  0  0  0
   -2.1184    1.7088    1.3011 C   0  0  0  0  0  0  0  0  0  0  0  0
   -3.2120    1.4080    0.5821 C   0  0  0  0  0  0  0  0  0  0  0  0
   -2.7760    0.9113   -0.6859 C   0  0  0  0  0  0  0  0  0  0  0  0
   -1.2332    0.0121   -1.8995 H   0  0  0  0  0  0  0  0  0  0  0  0
    0.5378    0.1743   -0.1069 H   0  0  0  0  0  0  0  0  0  0  0  0
   -3.4797    1.0153   -1.5163 H   0  0  0  0  0  0  0  0  0  0  0  0
   -4.2209    1.7948    0.7251 H   0  0  0  0  0  0  0  0  0  0  0  0
   -0.5703    3.6729    3.4325 N   0  0  0  0  0  0  0  0  0  0  0  0
   -0.0580    1.0530    2.3223 O   0  0  0  0  0  0  0  0  0  0  0  0
    0.3415    3.0656    3.3760 O   0  0  0  0  0  0  0  0  0  0  0  0
  1  6  1  0  0  0  0
  1  2  2  0  0  0  0
  2  3  1  0  0  0  0
  3 12  2  0  0  0  0
  4  3  1  0  0  0  0
  5 10  1  0  0  0  0
  5  4  1  0  0  0  0
  6  5  1  0  0  0  0
  7  1  1  0  0  0  0
  8  2  1  0  0  0  0
  9  6  1  0  0  0  0
 13 11  2  0  0  0  0
M  RAD  4   4   3   5   2   6   2  11   2
M  END
