Coordinates from ORCA-job o-NO2-Ph+-B3LYPG-aug-cc-pVDZ-scan-d09-49-n400
 OpenBabel10111716033D

 13 12  0  0  0  0  0  0  0  0999 V2000
   -1.3565    1.2381   -0.6574 C   0  0  0  0  0  0  0  0  0  0  0  0
   -0.7295    1.0553    0.5948 C   0  0  0  0  0  0  0  0  0  0  0  0
   -1.3603    0.9599    2.0092 C   0  0  0  0  0  0  0  0  0  0  0  0
   -2.6254    0.6637    1.5201 C   0  0  0  0  0  0  0  0  0  0  0  0
   -3.4106    0.8746    0.4564 C   0  0  0  0  0  0  0  0  0  0  0  0
   -2.7265    1.1359   -0.7775 C   0  0  0  0  0  0  0  0  0  0  0  0
   -0.7265    1.4165   -1.5308 H   0  0  0  0  0  0  0  0  0  0  0  0
    0.2458    0.5624    0.6461 H   0  0  0  0  0  0  0  0  0  0  0  0
   -3.2806    1.2966   -1.7000 H   0  0  0  0  0  0  0  0  0  0  0  0
   -4.4986    0.9215    0.5537 H   0  0  0  0  0  0  0  0  0  0  0  0
    0.8611    2.9767    1.3319 N   0  0  0  0  0  0  0  0  0  0  0  0
   -0.6833    1.0169    3.0156 O   0  0  0  0  0  0  0  0  0  0  0  0
    0.8235    3.0052    2.4339 O   0  0  0  0  0  0  0  0  0  0  0  0
  1  2  1  0  0  0  0
  2  8  1  0  0  0  0
  2  3  1  0  0  0  0
  3 12  2  0  0  0  0
  4  3  1  0  0  0  0
  5 10  1  0  0  0  0
  5  4  1  0  0  0  0
  6  1  1  0  0  0  0
  6  5  2  0  0  0  0
  7  1  1  0  0  0  0
  9  6  1  0  0  0  0
 11 13  2  0  0  0  0
M  RAD  4   1   2   2   2   4   3  11   2
M  END
