Coordinates from ORCA-job p-NO2-Ph-N2-OTs-MP2-6-31G_dp-scan-d09-49-n400
 OpenBabel02121707583D

 33 33  0  0  0  0  0  0  0  0999 V2000
    0.7497   -0.6181   -4.2598 C   0  0  0  0  0  0  0  0  0  0  0  0
    1.2612    0.4420   -5.0063 C   0  0  0  0  0  0  0  0  0  0  0  0
    1.8586    1.5167   -4.3418 C   0  0  0  0  0  0  0  0  0  0  0  0
    1.9486    1.5586   -2.9476 C   0  0  0  0  0  0  0  0  0  0  0  0
    1.4328    0.5058   -2.1953 C   0  0  0  0  0  0  0  0  0  0  0  0
    0.8487   -0.5666   -2.8694 C   0  0  0  0  0  0  0  0  0  0  0  0
    0.2798   -1.4684   -4.7330 H   0  0  0  0  0  0  0  0  0  0  0  0
    1.2067    0.4489   -6.0861 H   0  0  0  0  0  0  0  0  0  0  0  0
    2.4136    2.4145   -2.4753 H   0  0  0  0  0  0  0  0  0  0  0  0
    1.4808    0.5005   -1.1159 H   0  0  0  0  0  0  0  0  0  0  0  0
    0.3043   -1.6811   -2.0811 N   0  0  0  0  0  0  0  0  0  0  0  0
    0.4291   -1.6250   -0.8460 O   0  0  0  0  0  0  0  0  0  0  0  0
   -0.2408   -2.6104   -2.6996 O   0  0  0  0  0  0  0  0  0  0  0  0
   -1.8541    2.0272   -3.3083 N   0  0  0  0  0  0  0  0  0  0  0  0
   -1.9344    1.0106   -2.8174 N   0  0  0  0  0  0  0  0  0  0  0  0
    5.1215    0.8337   -3.9869 C   0  0  0  0  0  0  0  0  0  0  0  0
    5.8947    0.6607   -2.8385 C   0  0  0  0  0  0  0  0  0  0  0  0
    6.3946    1.7593   -2.1256 C   0  0  0  0  0  0  0  0  0  0  0  0
    6.1119    3.0509   -2.5961 C   0  0  0  0  0  0  0  0  0  0  0  0
    5.3419    3.2519   -3.7408 C   0  0  0  0  0  0  0  0  0  0  0  0
    4.8623    2.1334   -4.4275 C   0  0  0  0  0  0  0  0  0  0  0  0
    4.7468   -0.0137   -4.5465 H   0  0  0  0  0  0  0  0  0  0  0  0
    6.1129   -0.3438   -2.4927 H   0  0  0  0  0  0  0  0  0  0  0  0
    6.5033    3.9101   -2.0624 H   0  0  0  0  0  0  0  0  0  0  0  0
    5.1368    4.2474   -4.1140 H   0  0  0  0  0  0  0  0  0  0  0  0
    3.8162    2.3767   -5.8269 S   0  0  0  0  0  0  0  0  0  0  0  0
    3.7427    1.1326   -6.5854 O   0  0  0  0  0  0  0  0  0  0  0  0
    4.0830    3.6648   -6.4430 O   0  0  0  0  0  0  0  0  0  0  0  0
    2.3395    2.6123   -5.0616 O   0  0  0  0  0  0  0  0  0  0  0  0
    7.1932    1.5595   -0.8651 C   0  0  0  0  0  0  0  0  0  0  0  0
    6.5418    1.5521    0.0107 H   0  0  0  0  0  0  0  0  0  0  0  0
    7.7301    0.6120   -0.8878 H   0  0  0  0  0  0  0  0  0  0  0  0
    7.9204    2.3597   -0.7313 H   0  0  0  0  0  0  0  0  0  0  0  0
  1  6  2  0  0  0  0
  2  3  2  0  0  0  0
  2  1  1  0  0  0  0
  3  4  1  0  0  0  0
  4  9  1  0  0  0  0
  4  5  2  0  0  0  0
  5 10  1  0  0  0  0
  6  5  1  0  0  0  0
  6 11  1  0  0  0  0
  7  1  1  0  0  0  0
  8  2  1  0  0  0  0
 11 12  2  0  0  0  0
 13 11  2  0  0  0  0
 14 15  3  0  0  0  0
 16 17  1  0  0  0  0
 17 23  1  0  0  0  0
 17 18  2  0  0  0  0
 18 30  1  0  0  0  0
 19 18  1  0  0  0  0
 19 24  1  0  0  0  0
 20 19  2  0  0  0  0
 21 16  2  0  0  0  0
 21 20  1  0  0  0  0
 22 16  1  0  0  0  0
 25 20  1  0  0  0  0
 26 29  1  0  0  0  0
 26 21  1  0  0  0  0
 27 26  2  0  0  0  0
 28 26  2  0  0  0  0
 29  3  1  0  0  0  0
 30 33  1  0  0  0  0
 30 31  1  0  0  0  0
 32 30  1  0  0  0  0
M  END
