Coordinates from ORCA-job p-NO2-Ph-N2-OTs-MP2-6-31G_dp-scan-d09-49-n400
 OpenBabel02121707583D

 33 33  0  0  0  0  0  0  0  0999 V2000
    0.7265   -0.7573   -4.1700 C   0  0  0  0  0  0  0  0  0  0  0  0
    1.1862    0.3346   -4.9031 C   0  0  0  0  0  0  0  0  0  0  0  0
    1.7353    1.4261   -4.2256 C   0  0  0  0  0  0  0  0  0  0  0  0
    1.9221    1.4101   -2.8407 C   0  0  0  0  0  0  0  0  0  0  0  0
    1.4583    0.3265   -2.0999 C   0  0  0  0  0  0  0  0  0  0  0  0
    0.8746   -0.7412   -2.7827 C   0  0  0  0  0  0  0  0  0  0  0  0
    0.2747   -1.6129   -4.6511 H   0  0  0  0  0  0  0  0  0  0  0  0
    1.0865    0.3726   -5.9790 H   0  0  0  0  0  0  0  0  0  0  0  0
    2.3771    2.2673   -2.3608 H   0  0  0  0  0  0  0  0  0  0  0  0
    1.5603    0.2854   -1.0249 H   0  0  0  0  0  0  0  0  0  0  0  0
    0.3866   -1.8904   -2.0070 N   0  0  0  0  0  0  0  0  0  0  0  0
    0.5494   -1.8623   -0.7753 O   0  0  0  0  0  0  0  0  0  0  0  0
   -0.1539   -2.8181   -2.6321 O   0  0  0  0  0  0  0  0  0  0  0  0
   -0.5051    2.5920   -4.0190 N   0  0  0  0  0  0  0  0  0  0  0  0
   -1.3927    2.1133   -3.5021 N   0  0  0  0  0  0  0  0  0  0  0  0
    5.0468    0.8600   -4.0004 C   0  0  0  0  0  0  0  0  0  0  0  0
    5.8644    0.6877   -2.8830 C   0  0  0  0  0  0  0  0  0  0  0  0
    6.3348    1.7858   -2.1494 C   0  0  0  0  0  0  0  0  0  0  0  0
    5.9769    3.0767   -2.5677 C   0  0  0  0  0  0  0  0  0  0  0  0
    5.1620    3.2768   -3.6811 C   0  0  0  0  0  0  0  0  0  0  0  0
    4.7130    2.1591   -4.3893 C   0  0  0  0  0  0  0  0  0  0  0  0
    4.6932    0.0141   -4.5757 H   0  0  0  0  0  0  0  0  0  0  0  0
    6.1404   -0.3156   -2.5777 H   0  0  0  0  0  0  0  0  0  0  0  0
    6.3448    3.9362   -2.0180 H   0  0  0  0  0  0  0  0  0  0  0  0
    4.8989    4.2728   -4.0147 H   0  0  0  0  0  0  0  0  0  0  0  0
    3.6120    2.3971   -5.7469 S   0  0  0  0  0  0  0  0  0  0  0  0
    3.5645    1.1720   -6.5377 O   0  0  0  0  0  0  0  0  0  0  0  0
    3.8090    3.7106   -6.3353 O   0  0  0  0  0  0  0  0  0  0  0  0
    2.1527    2.5559   -4.9308 O   0  0  0  0  0  0  0  0  0  0  0  0
    7.1821    1.5842   -0.9213 C   0  0  0  0  0  0  0  0  0  0  0  0
    6.5601    1.5141   -0.0271 H   0  0  0  0  0  0  0  0  0  0  0  0
    7.7643    0.6664   -0.9937 H   0  0  0  0  0  0  0  0  0  0  0  0
    7.8725    2.4152   -0.7813 H   0  0  0  0  0  0  0  0  0  0  0  0
  1  6  2  0  0  0  0
  2  3  2  0  0  0  0
  2  1  1  0  0  0  0
  3  4  1  0  0  0  0
  4  9  1  0  0  0  0
  4  5  2  0  0  0  0
  5 10  1  0  0  0  0
  6  5  1  0  0  0  0
  6 11  1  0  0  0  0
  7  1  1  0  0  0  0
  8  2  1  0  0  0  0
 11 12  2  0  0  0  0
 13 11  2  0  0  0  0
 14 15  3  0  0  0  0
 16 17  1  0  0  0  0
 17 23  1  0  0  0  0
 17 18  2  0  0  0  0
 18 30  1  0  0  0  0
 19 18  1  0  0  0  0
 19 24  1  0  0  0  0
 20 19  2  0  0  0  0
 21 16  2  0  0  0  0
 21 20  1  0  0  0  0
 22 16  1  0  0  0  0
 25 20  1  0  0  0  0
 26 29  1  0  0  0  0
 26 21  1  0  0  0  0
 27 26  2  0  0  0  0
 28 26  2  0  0  0  0
 29  3  1  0  0  0  0
 30 33  1  0  0  0  0
 30 31  1  0  0  0  0
 32 30  1  0  0  0  0
M  END
