Coordinates from ORCA-job p-NO2-Ph-N2-OTs-MP2-6-31G_dp-scan-d09-49-n400
 OpenBabel02121707583D

 33 33  0  0  0  0  0  0  0  0999 V2000
    2.1916   -0.4256   -3.3201 C   0  0  0  0  0  0  0  0  0  0  0  0
    1.6172    0.1719   -4.4423 C   0  0  0  0  0  0  0  0  0  0  0  0
    0.9362    1.3536   -4.2029 C   0  0  0  0  0  0  0  0  0  0  0  0
    0.7730    2.0131   -2.9928 C   0  0  0  0  0  0  0  0  0  0  0  0
    1.3676    1.4005   -1.8935 C   0  0  0  0  0  0  0  0  0  0  0  0
    2.0819    0.2145   -2.0866 C   0  0  0  0  0  0  0  0  0  0  0  0
    2.7654   -1.3366   -3.4054 H   0  0  0  0  0  0  0  0  0  0  0  0
    1.7508   -0.2071   -5.4439 H   0  0  0  0  0  0  0  0  0  0  0  0
    0.2746    2.9692   -2.9279 H   0  0  0  0  0  0  0  0  0  0  0  0
    1.3328    1.8545   -0.9135 H   0  0  0  0  0  0  0  0  0  0  0  0
    2.7764   -0.3767   -0.9367 N   0  0  0  0  0  0  0  0  0  0  0  0
    2.8766    0.3181    0.0882 O   0  0  0  0  0  0  0  0  0  0  0  0
    3.2254   -1.5273   -1.0732 O   0  0  0  0  0  0  0  0  0  0  0  0
    0.3633    2.0681   -5.4430 N   0  0  0  0  0  0  0  0  0  0  0  0
   -0.2495    2.4989   -6.2933 N   0  0  0  0  0  0  0  0  0  0  0  0
    4.8066    0.9153   -4.6939 C   0  0  0  0  0  0  0  0  0  0  0  0
    5.4866    0.2551   -3.6688 C   0  0  0  0  0  0  0  0  0  0  0  0
    5.5026    0.7640   -2.3604 C   0  0  0  0  0  0  0  0  0  0  0  0
    4.8192    1.9631   -2.1082 C   0  0  0  0  0  0  0  0  0  0  0  0
    4.1368    2.6347   -3.1259 C   0  0  0  0  0  0  0  0  0  0  0  0
    4.1182    2.1030   -4.4185 C   0  0  0  0  0  0  0  0  0  0  0  0
    4.7916    0.5156   -5.7011 H   0  0  0  0  0  0  0  0  0  0  0  0
    6.0248   -0.6621   -3.8877 H   0  0  0  0  0  0  0  0  0  0  0  0
    4.8331    2.3805   -1.1060 H   0  0  0  0  0  0  0  0  0  0  0  0
    3.6125    3.5625   -2.9318 H   0  0  0  0  0  0  0  0  0  0  0  0
    3.2189    2.9418   -5.7274 S   0  0  0  0  0  0  0  0  0  0  0  0
    2.6123    1.8111   -6.5114 O   0  0  0  0  0  0  0  0  0  0  0  0
    4.1817    3.7761   -6.4553 O   0  0  0  0  0  0  0  0  0  0  0  0
    2.1369    3.6839   -4.9895 O   0  0  0  0  0  0  0  0  0  0  0  0
    6.2144    0.0366   -1.2494 C   0  0  0  0  0  0  0  0  0  0  0  0
    5.5327   -0.6158   -0.7003 H   0  0  0  0  0  0  0  0  0  0  0  0
    7.0208   -0.5813   -1.6437 H   0  0  0  0  0  0  0  0  0  0  0  0
    6.6452    0.7415   -0.5384 H   0  0  0  0  0  0  0  0  0  0  0  0
  1  6  2  0  0  0  0
  2  3  2  0  0  0  0
  2  1  1  0  0  0  0
  3  4  1  0  0  0  0
  4  9  1  0  0  0  0
  4  5  2  0  0  0  0
  5 10  1  0  0  0  0
  6  5  1  0  0  0  0
  6 11  1  0  0  0  0
  7  1  1  0  0  0  0
  8  2  1  0  0  0  0
 11 12  2  0  0  0  0
 13 11  2  0  0  0  0
 14  3  1  0  0  0  0
 15 14  1  0  0  0  0
 16 21  2  0  0  0  0
 16 17  1  0  0  0  0
 17 18  2  0  0  0  0
 18 19  1  0  0  0  0
 18 30  1  0  0  0  0
 19 24  1  0  0  0  0
 20 25  1  0  0  0  0
 20 19  2  0  0  0  0
 21 20  1  0  0  0  0
 22 16  1  0  0  0  0
 23 17  1  0  0  0  0
 26 29  1  0  0  0  0
 26 21  1  0  0  0  0
 27 26  2  0  0  0  0
 28 26  2  0  0  0  0
 30 31  1  0  0  0  0
 30 33  1  0  0  0  0
 32 30  1  0  0  0  0
M  RAD  3  14   2  15   3  29   2
M  END
