Coordinates from ORCA-job p-NO2-Ph-N2-OTs-MP2-6-31G_dp-scan-d09-49-n400
 OpenBabel02121707583D

 33 33  0  0  0  0  0  0  0  0999 V2000
    2.1796   -0.4371   -3.3532 C   0  0  0  0  0  0  0  0  0  0  0  0
    1.5706    0.1511   -4.4730 C   0  0  0  0  0  0  0  0  0  0  0  0
    0.9338    1.3102   -4.1419 C   0  0  0  0  0  0  0  0  0  0  0  0
    0.7748    2.0245   -2.9878 C   0  0  0  0  0  0  0  0  0  0  0  0
    1.4076    1.3982   -1.9067 C   0  0  0  0  0  0  0  0  0  0  0  0
    2.1025    0.2033   -2.1168 C   0  0  0  0  0  0  0  0  0  0  0  0
    2.7450   -1.3519   -3.4571 H   0  0  0  0  0  0  0  0  0  0  0  0
    1.6754   -0.2110   -5.4830 H   0  0  0  0  0  0  0  0  0  0  0  0
    0.2961    2.9890   -2.9307 H   0  0  0  0  0  0  0  0  0  0  0  0
    1.4059    1.8601   -0.9293 H   0  0  0  0  0  0  0  0  0  0  0  0
    2.8208   -0.3929   -0.9849 N   0  0  0  0  0  0  0  0  0  0  0  0
    2.9202    0.2872    0.0494 O   0  0  0  0  0  0  0  0  0  0  0  0
    3.2891   -1.5321   -1.1461 O   0  0  0  0  0  0  0  0  0  0  0  0
    0.2030    2.1492   -5.6228 N   0  0  0  0  0  0  0  0  0  0  0  0
   -0.3647    2.6072   -6.4876 N   0  0  0  0  0  0  0  0  0  0  0  0
    4.7876    0.8894   -4.6469 C   0  0  0  0  0  0  0  0  0  0  0  0
    5.4781    0.2396   -3.6214 C   0  0  0  0  0  0  0  0  0  0  0  0
    5.5216    0.7714   -2.3230 C   0  0  0  0  0  0  0  0  0  0  0  0
    4.8527    1.9805   -2.0808 C   0  0  0  0  0  0  0  0  0  0  0  0
    4.1580    2.6392   -3.0986 C   0  0  0  0  0  0  0  0  0  0  0  0
    4.1128    2.0867   -4.3821 C   0  0  0  0  0  0  0  0  0  0  0  0
    4.7535    0.4740   -5.6474 H   0  0  0  0  0  0  0  0  0  0  0  0
    6.0050   -0.6858   -3.8332 H   0  0  0  0  0  0  0  0  0  0  0  0
    4.8878    2.4156   -1.0866 H   0  0  0  0  0  0  0  0  0  0  0  0
    3.6444    3.5746   -2.9116 H   0  0  0  0  0  0  0  0  0  0  0  0
    3.1979    2.9152   -5.6896 S   0  0  0  0  0  0  0  0  0  0  0  0
    2.6144    1.7790   -6.4800 O   0  0  0  0  0  0  0  0  0  0  0  0
    4.1511    3.7667   -6.4122 O   0  0  0  0  0  0  0  0  0  0  0  0
    2.1133    3.6418   -4.9435 O   0  0  0  0  0  0  0  0  0  0  0  0
    6.2442    0.0567   -1.2107 C   0  0  0  0  0  0  0  0  0  0  0  0
    5.5621   -0.5678   -0.6307 H   0  0  0  0  0  0  0  0  0  0  0  0
    7.0291   -0.5869   -1.6073 H   0  0  0  0  0  0  0  0  0  0  0  0
    6.7051    0.7699   -0.5272 H   0  0  0  0  0  0  0  0  0  0  0  0
  1  6  2  0  0  0  0
  2  3  2  0  0  0  0
  2  1  1  0  0  0  0
  3  4  1  0  0  0  0
  4  9  1  0  0  0  0
  4  5  2  0  0  0  0
  5 10  1  0  0  0  0
  6  5  1  0  0  0  0
  6 11  1  0  0  0  0
  7  1  1  0  0  0  0
  8  2  1  0  0  0  0
 11 12  2  0  0  0  0
 13 11  2  0  0  0  0
 14  3  1  0  0  0  0
 15 14  1  0  0  0  0
 16 21  2  0  0  0  0
 16 17  1  0  0  0  0
 17 18  2  0  0  0  0
 18 19  1  0  0  0  0
 18 30  1  0  0  0  0
 19 24  1  0  0  0  0
 20 25  1  0  0  0  0
 20 19  2  0  0  0  0
 21 20  1  0  0  0  0
 22 16  1  0  0  0  0
 23 17  1  0  0  0  0
 26 29  1  0  0  0  0
 26 21  1  0  0  0  0
 27 26  2  0  0  0  0
 28 26  2  0  0  0  0
 30 31  1  0  0  0  0
 30 33  1  0  0  0  0
 32 30  1  0  0  0  0
M  RAD  3  14   2  15   3  29   2
M  END
