Coordinates from ORCA-job p-NO2-Ph-N2-OTs-MP2-6-31G_dp-scan-d09-49-n400
 OpenBabel02121707583D

 33 33  0  0  0  0  0  0  0  0999 V2000
    0.7533   -0.5853   -4.2781 C   0  0  0  0  0  0  0  0  0  0  0  0
    1.2792    0.4655   -5.0276 C   0  0  0  0  0  0  0  0  0  0  0  0
    1.8808    1.5391   -4.3657 C   0  0  0  0  0  0  0  0  0  0  0  0
    1.9612    1.5897   -2.9716 C   0  0  0  0  0  0  0  0  0  0  0  0
    1.4314    0.5464   -2.2161 C   0  0  0  0  0  0  0  0  0  0  0  0
    0.8425   -0.5253   -2.8873 C   0  0  0  0  0  0  0  0  0  0  0  0
    0.2798   -1.4348   -4.7491 H   0  0  0  0  0  0  0  0  0  0  0  0
    1.2334    0.4654   -6.1079 H   0  0  0  0  0  0  0  0  0  0  0  0
    2.4310    2.4445   -2.5017 H   0  0  0  0  0  0  0  0  0  0  0  0
    1.4721    0.5477   -1.1364 H   0  0  0  0  0  0  0  0  0  0  0  0
    0.2853   -1.6308   -2.0957 N   0  0  0  0  0  0  0  0  0  0  0  0
    0.4109   -1.5724   -0.8608 O   0  0  0  0  0  0  0  0  0  0  0  0
   -0.2704   -2.5557   -2.7114 O   0  0  0  0  0  0  0  0  0  0  0  0
   -2.1036    1.8395   -3.1446 N   0  0  0  0  0  0  0  0  0  0  0  0
   -2.0437    0.8055   -2.6886 N   0  0  0  0  0  0  0  0  0  0  0  0
    5.1346    0.8289   -3.9853 C   0  0  0  0  0  0  0  0  0  0  0  0
    5.8986    0.6554   -2.8308 C   0  0  0  0  0  0  0  0  0  0  0  0
    6.4038    1.7536   -2.1209 C   0  0  0  0  0  0  0  0  0  0  0  0
    6.1362    3.0449   -2.6007 C   0  0  0  0  0  0  0  0  0  0  0  0
    5.3757    3.2463   -3.7516 C   0  0  0  0  0  0  0  0  0  0  0  0
    4.8904    2.1283   -4.4351 C   0  0  0  0  0  0  0  0  0  0  0  0
    4.7559   -0.0183   -4.5425 H   0  0  0  0  0  0  0  0  0  0  0  0
    6.1051   -0.3490   -2.4778 H   0  0  0  0  0  0  0  0  0  0  0  0
    6.5320    3.9036   -2.0694 H   0  0  0  0  0  0  0  0  0  0  0  0
    5.1823    4.2415   -4.1320 H   0  0  0  0  0  0  0  0  0  0  0  0
    3.8560    2.3731   -5.8430 S   0  0  0  0  0  0  0  0  0  0  0  0
    3.7767    1.1256   -6.5952 O   0  0  0  0  0  0  0  0  0  0  0  0
    4.1384    3.6553   -6.4643 O   0  0  0  0  0  0  0  0  0  0  0  0
    2.3762    2.6260   -5.0892 O   0  0  0  0  0  0  0  0  0  0  0  0
    7.1922    1.5538   -0.8539 C   0  0  0  0  0  0  0  0  0  0  0  0
    6.5348    1.5568    0.0175 H   0  0  0  0  0  0  0  0  0  0  0  0
    7.7208    0.6014   -0.8678 H   0  0  0  0  0  0  0  0  0  0  0  0
    7.9254    2.3482   -0.7196 H   0  0  0  0  0  0  0  0  0  0  0  0
  1  6  2  0  0  0  0
  2  3  2  0  0  0  0
  2  1  1  0  0  0  0
  3  4  1  0  0  0  0
  4  9  1  0  0  0  0
  4  5  2  0  0  0  0
  5 10  1  0  0  0  0
  6  5  1  0  0  0  0
  6 11  1  0  0  0  0
  7  1  1  0  0  0  0
  8  2  1  0  0  0  0
 11 12  2  0  0  0  0
 13 11  2  0  0  0  0
 14 15  3  0  0  0  0
 16 17  1  0  0  0  0
 17 23  1  0  0  0  0
 17 18  2  0  0  0  0
 18 30  1  0  0  0  0
 19 18  1  0  0  0  0
 19 24  1  0  0  0  0
 20 19  2  0  0  0  0
 21 16  2  0  0  0  0
 21 20  1  0  0  0  0
 22 16  1  0  0  0  0
 25 20  1  0  0  0  0
 26 29  1  0  0  0  0
 26 21  1  0  0  0  0
 27 26  2  0  0  0  0
 28 26  2  0  0  0  0
 29  3  1  0  0  0  0
 30 33  1  0  0  0  0
 30 31  1  0  0  0  0
 32 30  1  0  0  0  0
M  END
