Coordinates from ORCA-job p-NO2-Ph-N2-OTs-MP2-6-31G_dp-scan-d09-49-n400
 OpenBabel02121707583D

 33 33  0  0  0  0  0  0  0  0999 V2000
    0.7238   -0.7543   -4.1876 C   0  0  0  0  0  0  0  0  0  0  0  0
    1.1989    0.3342   -4.9170 C   0  0  0  0  0  0  0  0  0  0  0  0
    1.7775    1.4084   -4.2364 C   0  0  0  0  0  0  0  0  0  0  0  0
    1.9169    1.4090   -2.8462 C   0  0  0  0  0  0  0  0  0  0  0  0
    1.4377    0.3285   -2.1095 C   0  0  0  0  0  0  0  0  0  0  0  0
    0.8529   -0.7353   -2.7981 C   0  0  0  0  0  0  0  0  0  0  0  0
    0.2609   -1.6022   -4.6716 H   0  0  0  0  0  0  0  0  0  0  0  0
    1.1137    0.3710   -5.9942 H   0  0  0  0  0  0  0  0  0  0  0  0
    2.3734    2.2633   -2.3626 H   0  0  0  0  0  0  0  0  0  0  0  0
    1.5148    0.2938   -1.0323 H   0  0  0  0  0  0  0  0  0  0  0  0
    0.3497   -1.8809   -2.0268 N   0  0  0  0  0  0  0  0  0  0  0  0
    0.4925   -1.8491   -0.7928 O   0  0  0  0  0  0  0  0  0  0  0  0
   -0.1909   -2.8052   -2.6569 O   0  0  0  0  0  0  0  0  0  0  0  0
   -0.8480    2.6388   -3.9358 N   0  0  0  0  0  0  0  0  0  0  0  0
   -1.6160    1.9979   -3.4041 N   0  0  0  0  0  0  0  0  0  0  0  0
    5.0850    0.8584   -3.9935 C   0  0  0  0  0  0  0  0  0  0  0  0
    5.9007    0.6912   -2.8740 C   0  0  0  0  0  0  0  0  0  0  0  0
    6.3735    1.7928   -2.1473 C   0  0  0  0  0  0  0  0  0  0  0  0
    6.0197    3.0819   -2.5745 C   0  0  0  0  0  0  0  0  0  0  0  0
    5.2063    3.2769   -3.6899 C   0  0  0  0  0  0  0  0  0  0  0  0
    4.7554    2.1558   -4.3916 C   0  0  0  0  0  0  0  0  0  0  0  0
    4.7308    0.0095   -4.5642 H   0  0  0  0  0  0  0  0  0  0  0  0
    6.1737   -0.3109   -2.5618 H   0  0  0  0  0  0  0  0  0  0  0  0
    6.3891    3.9440   -2.0300 H   0  0  0  0  0  0  0  0  0  0  0  0
    4.9460    4.2714   -4.0302 H   0  0  0  0  0  0  0  0  0  0  0  0
    3.6561    2.3875   -5.7518 S   0  0  0  0  0  0  0  0  0  0  0  0
    3.6112    1.1597   -6.5388 O   0  0  0  0  0  0  0  0  0  0  0  0
    3.8501    3.6999   -6.3434 O   0  0  0  0  0  0  0  0  0  0  0  0
    2.1966    2.5419   -4.9361 O   0  0  0  0  0  0  0  0  0  0  0  0
    7.2192    1.5973   -0.9171 C   0  0  0  0  0  0  0  0  0  0  0  0
    6.5965    1.5391   -0.0225 H   0  0  0  0  0  0  0  0  0  0  0  0
    7.7959    0.6753   -0.9809 H   0  0  0  0  0  0  0  0  0  0  0  0
    7.9146    2.4253   -0.7844 H   0  0  0  0  0  0  0  0  0  0  0  0
  1  6  2  0  0  0  0
  2  3  2  0  0  0  0
  2  1  1  0  0  0  0
  3  4  1  0  0  0  0
  4  9  1  0  0  0  0
  4  5  2  0  0  0  0
  5 10  1  0  0  0  0
  6  5  1  0  0  0  0
  6 11  1  0  0  0  0
  7  1  1  0  0  0  0
  8  2  1  0  0  0  0
 11 12  2  0  0  0  0
 13 11  2  0  0  0  0
 14 15  3  0  0  0  0
 16 17  1  0  0  0  0
 17 23  1  0  0  0  0
 17 18  2  0  0  0  0
 18 30  1  0  0  0  0
 19 18  1  0  0  0  0
 19 24  1  0  0  0  0
 20 19  2  0  0  0  0
 21 16  2  0  0  0  0
 21 20  1  0  0  0  0
 22 16  1  0  0  0  0
 25 20  1  0  0  0  0
 26 29  1  0  0  0  0
 26 21  1  0  0  0  0
 27 26  2  0  0  0  0
 28 26  2  0  0  0  0
 29  3  1  0  0  0  0
 30 33  1  0  0  0  0
 30 31  1  0  0  0  0
 32 30  1  0  0  0  0
M  END
