Coordinates from ORCA-job p-NO2-Ph-N2-OTs-MP2-6-31G_dp-scan-d09-49-n400
 OpenBabel02121707583D

 33 33  0  0  0  0  0  0  0  0999 V2000
    2.1976   -0.4203   -3.3330 C   0  0  0  0  0  0  0  0  0  0  0  0
    1.6138    0.1754   -4.4490 C   0  0  0  0  0  0  0  0  0  0  0  0
    0.9219    1.3604   -4.2216 C   0  0  0  0  0  0  0  0  0  0  0  0
    0.7672    2.0067   -2.9964 C   0  0  0  0  0  0  0  0  0  0  0  0
    1.3706    1.4000   -1.9012 C   0  0  0  0  0  0  0  0  0  0  0  0
    2.0898    0.2173   -2.0981 C   0  0  0  0  0  0  0  0  0  0  0  0
    2.7742   -1.3291   -3.4212 H   0  0  0  0  0  0  0  0  0  0  0  0
    1.7432   -0.2069   -5.4503 H   0  0  0  0  0  0  0  0  0  0  0  0
    0.2611    2.9587   -2.9245 H   0  0  0  0  0  0  0  0  0  0  0  0
    1.3368    1.8519   -0.9203 H   0  0  0  0  0  0  0  0  0  0  0  0
    2.7858   -0.3756   -0.9500 N   0  0  0  0  0  0  0  0  0  0  0  0
    2.8846    0.3165    0.0770 O   0  0  0  0  0  0  0  0  0  0  0  0
    3.2397   -1.5239   -1.0908 O   0  0  0  0  0  0  0  0  0  0  0  0
    0.3613    2.0305   -5.3931 N   0  0  0  0  0  0  0  0  0  0  0  0
   -0.2138    2.4813   -6.2597 N   0  0  0  0  0  0  0  0  0  0  0  0
    4.7998    0.9141   -4.6904 C   0  0  0  0  0  0  0  0  0  0  0  0
    5.4771    0.2525   -3.6641 C   0  0  0  0  0  0  0  0  0  0  0  0
    5.4941    0.7629   -2.3565 C   0  0  0  0  0  0  0  0  0  0  0  0
    4.8138    1.9645   -2.1060 C   0  0  0  0  0  0  0  0  0  0  0  0
    4.1348    2.6373   -3.1248 C   0  0  0  0  0  0  0  0  0  0  0  0
    4.1153    2.1046   -4.4172 C   0  0  0  0  0  0  0  0  0  0  0  0
    4.7843    0.5139   -5.6975 H   0  0  0  0  0  0  0  0  0  0  0  0
    6.0127   -0.6665   -3.8817 H   0  0  0  0  0  0  0  0  0  0  0  0
    4.8288    2.3830   -1.1042 H   0  0  0  0  0  0  0  0  0  0  0  0
    3.6134    3.5672   -2.9325 H   0  0  0  0  0  0  0  0  0  0  0  0
    3.2239    2.9487   -5.7289 S   0  0  0  0  0  0  0  0  0  0  0  0
    2.6199    1.8203   -6.5169 O   0  0  0  0  0  0  0  0  0  0  0  0
    4.1945    3.7809   -6.4491 O   0  0  0  0  0  0  0  0  0  0  0  0
    2.1429    3.6921   -4.9930 O   0  0  0  0  0  0  0  0  0  0  0  0
    6.2078    0.0394   -1.2442 C   0  0  0  0  0  0  0  0  0  0  0  0
    5.5150   -0.5568   -0.6473 H   0  0  0  0  0  0  0  0  0  0  0  0
    6.9676   -0.6326   -1.6423 H   0  0  0  0  0  0  0  0  0  0  0  0
    6.6988    0.7464   -0.5754 H   0  0  0  0  0  0  0  0  0  0  0  0
  1  6  2  0  0  0  0
  2  3  2  0  0  0  0
  2  1  1  0  0  0  0
  3  4  1  0  0  0  0
  4  9  1  0  0  0  0
  4  5  2  0  0  0  0
  5 10  1  0  0  0  0
  6  5  1  0  0  0  0
  6 11  1  0  0  0  0
  7  1  1  0  0  0  0
  8  2  1  0  0  0  0
 11 12  2  0  0  0  0
 13 11  2  0  0  0  0
 14  3  1  0  0  0  0
 15 14  1  0  0  0  0
 16 21  2  0  0  0  0
 16 17  1  0  0  0  0
 17 18  2  0  0  0  0
 18 19  1  0  0  0  0
 18 30  1  0  0  0  0
 19 24  1  0  0  0  0
 20 25  1  0  0  0  0
 20 19  2  0  0  0  0
 21 20  1  0  0  0  0
 22 16  1  0  0  0  0
 23 17  1  0  0  0  0
 26 29  1  0  0  0  0
 26 21  1  0  0  0  0
 27 26  2  0  0  0  0
 28 26  2  0  0  0  0
 30 31  1  0  0  0  0
 30 33  1  0  0  0  0
 32 30  1  0  0  0  0
M  RAD  3  14   2  15   3  29   2
M  END
