Coordinates from ORCA-job p-NO2-Ph-N2-OTs-MP2-6-31G_dp-scan-d09-49-n400
 OpenBabel02121707583D

 33 33  0  0  0  0  0  0  0  0999 V2000
    0.7272   -0.7573   -4.1697 C   0  0  0  0  0  0  0  0  0  0  0  0
    1.1870    0.3344   -4.9031 C   0  0  0  0  0  0  0  0  0  0  0  0
    1.7370    1.4257   -4.2260 C   0  0  0  0  0  0  0  0  0  0  0  0
    1.9219    1.4109   -2.8409 C   0  0  0  0  0  0  0  0  0  0  0  0
    1.4579    0.3275   -2.0998 C   0  0  0  0  0  0  0  0  0  0  0  0
    0.8747   -0.7406   -2.7823 C   0  0  0  0  0  0  0  0  0  0  0  0
    0.2753   -1.6130   -4.6505 H   0  0  0  0  0  0  0  0  0  0  0  0
    1.0874    0.3720   -5.9791 H   0  0  0  0  0  0  0  0  0  0  0  0
    2.3763    2.2684   -2.3611 H   0  0  0  0  0  0  0  0  0  0  0  0
    1.5592    0.2871   -1.0248 H   0  0  0  0  0  0  0  0  0  0  0  0
    0.3867   -1.8895   -2.0063 N   0  0  0  0  0  0  0  0  0  0  0  0
    0.5510   -1.8619   -0.7748 O   0  0  0  0  0  0  0  0  0  0  0  0
   -0.1514   -2.8187   -2.6315 O   0  0  0  0  0  0  0  0  0  0  0  0
   -0.5131    2.5948   -4.0192 N   0  0  0  0  0  0  0  0  0  0  0  0
   -1.3986    2.1128   -3.5018 N   0  0  0  0  0  0  0  0  0  0  0  0
    5.0477    0.8598   -4.0010 C   0  0  0  0  0  0  0  0  0  0  0  0
    5.8651    0.6873   -2.8836 C   0  0  0  0  0  0  0  0  0  0  0  0
    6.3350    1.7852   -2.1494 C   0  0  0  0  0  0  0  0  0  0  0  0
    5.9769    3.0762   -2.5673 C   0  0  0  0  0  0  0  0  0  0  0  0
    5.1620    3.2765   -3.6807 C   0  0  0  0  0  0  0  0  0  0  0  0
    4.7135    2.1589   -4.3895 C   0  0  0  0  0  0  0  0  0  0  0  0
    4.6945    0.0139   -4.5768 H   0  0  0  0  0  0  0  0  0  0  0  0
    6.1414   -0.3161   -2.5787 H   0  0  0  0  0  0  0  0  0  0  0  0
    6.3443    3.9356   -2.0172 H   0  0  0  0  0  0  0  0  0  0  0  0
    4.8987    4.2725   -4.0140 H   0  0  0  0  0  0  0  0  0  0  0  0
    3.6128    2.3971   -5.7472 S   0  0  0  0  0  0  0  0  0  0  0  0
    3.5654    1.1721   -6.5383 O   0  0  0  0  0  0  0  0  0  0  0  0
    3.8100    3.7106   -6.3355 O   0  0  0  0  0  0  0  0  0  0  0  0
    2.1532    2.5558   -4.9314 O   0  0  0  0  0  0  0  0  0  0  0  0
    7.1822    1.5835   -0.9212 C   0  0  0  0  0  0  0  0  0  0  0  0
    6.5600    1.5128   -0.0271 H   0  0  0  0  0  0  0  0  0  0  0  0
    7.7647    0.6658   -0.9938 H   0  0  0  0  0  0  0  0  0  0  0  0
    7.8724    2.4146   -0.7808 H   0  0  0  0  0  0  0  0  0  0  0  0
  1  6  2  0  0  0  0
  2  3  2  0  0  0  0
  2  1  1  0  0  0  0
  3  4  1  0  0  0  0
  4  9  1  0  0  0  0
  4  5  2  0  0  0  0
  5 10  1  0  0  0  0
  6  5  1  0  0  0  0
  6 11  1  0  0  0  0
  7  1  1  0  0  0  0
  8  2  1  0  0  0  0
 11 12  2  0  0  0  0
 13 11  2  0  0  0  0
 14 15  3  0  0  0  0
 16 17  1  0  0  0  0
 17 23  1  0  0  0  0
 17 18  2  0  0  0  0
 18 30  1  0  0  0  0
 19 18  1  0  0  0  0
 19 24  1  0  0  0  0
 20 19  2  0  0  0  0
 21 16  2  0  0  0  0
 21 20  1  0  0  0  0
 22 16  1  0  0  0  0
 25 20  1  0  0  0  0
 26 29  1  0  0  0  0
 26 21  1  0  0  0  0
 27 26  2  0  0  0  0
 28 26  2  0  0  0  0
 29  3  1  0  0  0  0
 30 33  1  0  0  0  0
 30 31  1  0  0  0  0
 32 30  1  0  0  0  0
M  END
