Coordinates from ORCA-job p-NO2-Ph-N2-OTs-MP2-6-31G_dp-scan-d09-49-n400
 OpenBabel02121707583D

 33 33  0  0  0  0  0  0  0  0999 V2000
    0.7500   -0.5378   -4.3006 C   0  0  0  0  0  0  0  0  0  0  0  0
    1.2985    0.4986   -5.0539 C   0  0  0  0  0  0  0  0  0  0  0  0
    1.9067    1.5703   -4.3951 C   0  0  0  0  0  0  0  0  0  0  0  0
    1.9793    1.6291   -3.0009 C   0  0  0  0  0  0  0  0  0  0  0  0
    1.4271    0.6001   -2.2420 C   0  0  0  0  0  0  0  0  0  0  0  0
    0.8294   -0.4689   -2.9097 C   0  0  0  0  0  0  0  0  0  0  0  0
    0.2694   -1.3847   -4.7692 H   0  0  0  0  0  0  0  0  0  0  0  0
    1.2609    0.4901   -6.1344 H   0  0  0  0  0  0  0  0  0  0  0  0
    2.4562    2.4810   -2.5329 H   0  0  0  0  0  0  0  0  0  0  0  0
    1.4606    0.6084   -1.1620 H   0  0  0  0  0  0  0  0  0  0  0  0
    0.2497   -1.5598   -2.1145 N   0  0  0  0  0  0  0  0  0  0  0  0
    0.3802   -1.5016   -0.8801 O   0  0  0  0  0  0  0  0  0  0  0  0
   -0.3292   -2.4724   -2.7267 O   0  0  0  0  0  0  0  0  0  0  0  0
   -2.3706    1.5571   -2.9371 N   0  0  0  0  0  0  0  0  0  0  0  0
   -2.1439    0.5236   -2.5362 N   0  0  0  0  0  0  0  0  0  0  0  0
    5.1500    0.8234   -3.9827 C   0  0  0  0  0  0  0  0  0  0  0  0
    5.9026    0.6498   -2.8208 C   0  0  0  0  0  0  0  0  0  0  0  0
    6.4151    1.7473   -2.1151 C   0  0  0  0  0  0  0  0  0  0  0  0
    6.1667    3.0381   -2.6068 C   0  0  0  0  0  0  0  0  0  0  0  0
    5.4178    3.2396   -3.7654 C   0  0  0  0  0  0  0  0  0  0  0  0
    4.9248    2.1221   -4.4443 C   0  0  0  0  0  0  0  0  0  0  0  0
    4.7657   -0.0235   -4.5365 H   0  0  0  0  0  0  0  0  0  0  0  0
    6.0944   -0.3542   -2.4585 H   0  0  0  0  0  0  0  0  0  0  0  0
    6.5683    3.8960   -2.0788 H   0  0  0  0  0  0  0  0  0  0  0  0
    5.2393    4.2340   -4.1548 H   0  0  0  0  0  0  0  0  0  0  0  0
    3.9047    2.3683   -5.8623 S   0  0  0  0  0  0  0  0  0  0  0  0
    3.8165    1.1159   -6.6054 O   0  0  0  0  0  0  0  0  0  0  0  0
    4.2079    3.6421   -6.4914 O   0  0  0  0  0  0  0  0  0  0  0  0
    2.4223    2.6453   -5.1229 O   0  0  0  0  0  0  0  0  0  0  0  0
    7.1908    1.5479   -0.8403 C   0  0  0  0  0  0  0  0  0  0  0  0
    6.5265    1.5648    0.0256 H   0  0  0  0  0  0  0  0  0  0  0  0
    7.7088    0.5896   -0.8429 H   0  0  0  0  0  0  0  0  0  0  0  0
    7.9319    2.3350   -0.7057 H   0  0  0  0  0  0  0  0  0  0  0  0
  1  6  2  0  0  0  0
  2  3  2  0  0  0  0
  2  1  1  0  0  0  0
  3  4  1  0  0  0  0
  4  9  1  0  0  0  0
  4  5  2  0  0  0  0
  5 10  1  0  0  0  0
  6  5  1  0  0  0  0
  6 11  1  0  0  0  0
  7  1  1  0  0  0  0
  8  2  1  0  0  0  0
 11 12  2  0  0  0  0
 13 11  2  0  0  0  0
 14 15  3  0  0  0  0
 16 17  1  0  0  0  0
 17 23  1  0  0  0  0
 17 18  2  0  0  0  0
 18 30  1  0  0  0  0
 19 18  1  0  0  0  0
 19 24  1  0  0  0  0
 20 19  2  0  0  0  0
 21 16  2  0  0  0  0
 21 20  1  0  0  0  0
 22 16  1  0  0  0  0
 25 20  1  0  0  0  0
 26 29  1  0  0  0  0
 26 21  1  0  0  0  0
 27 26  2  0  0  0  0
 28 26  2  0  0  0  0
 29  3  1  0  0  0  0
 30 33  1  0  0  0  0
 30 31  1  0  0  0  0
 32 30  1  0  0  0  0
M  END
