Coordinates from ORCA-job p-NO2-Ph-N2-OTs-MP2-6-31G_dp-scan-d09-49-n400
 OpenBabel02121707583D

 33 33  0  0  0  0  0  0  0  0999 V2000
    2.1907   -0.4268   -3.3192 C   0  0  0  0  0  0  0  0  0  0  0  0
    1.6164    0.1704   -4.4424 C   0  0  0  0  0  0  0  0  0  0  0  0
    0.9376    1.3506   -4.1978 C   0  0  0  0  0  0  0  0  0  0  0  0
    0.7725    2.0137   -2.9917 C   0  0  0  0  0  0  0  0  0  0  0  0
    1.3674    1.3999   -1.8924 C   0  0  0  0  0  0  0  0  0  0  0  0
    2.0810    0.2136   -2.0858 C   0  0  0  0  0  0  0  0  0  0  0  0
    2.7644   -1.3378   -3.4045 H   0  0  0  0  0  0  0  0  0  0  0  0
    1.7500   -0.2074   -5.4443 H   0  0  0  0  0  0  0  0  0  0  0  0
    0.2751    2.9702   -2.9278 H   0  0  0  0  0  0  0  0  0  0  0  0
    1.3331    1.8540   -0.9124 H   0  0  0  0  0  0  0  0  0  0  0  0
    2.7759   -0.3776   -0.9361 N   0  0  0  0  0  0  0  0  0  0  0  0
    2.8773    0.3176    0.0884 O   0  0  0  0  0  0  0  0  0  0  0  0
    3.2266   -1.5275   -1.0733 O   0  0  0  0  0  0  0  0  0  0  0  0
    0.3591    2.0751   -5.4545 N   0  0  0  0  0  0  0  0  0  0  0  0
   -0.2542    2.5058   -6.3043 N   0  0  0  0  0  0  0  0  0  0  0  0
    4.8067    0.9148   -4.6931 C   0  0  0  0  0  0  0  0  0  0  0  0
    5.4874    0.2549   -3.6682 C   0  0  0  0  0  0  0  0  0  0  0  0
    5.5040    0.7643   -2.3600 C   0  0  0  0  0  0  0  0  0  0  0  0
    4.8204    1.9632   -2.1078 C   0  0  0  0  0  0  0  0  0  0  0  0
    4.1371    2.6342   -3.1253 C   0  0  0  0  0  0  0  0  0  0  0  0
    4.1180    2.1022   -4.4177 C   0  0  0  0  0  0  0  0  0  0  0  0
    4.7913    0.5148   -5.7002 H   0  0  0  0  0  0  0  0  0  0  0  0
    6.0258   -0.6621   -3.8872 H   0  0  0  0  0  0  0  0  0  0  0  0
    4.8347    2.3808   -1.1056 H   0  0  0  0  0  0  0  0  0  0  0  0
    3.6126    3.5619   -2.9311 H   0  0  0  0  0  0  0  0  0  0  0  0
    3.2180    2.9408   -5.7264 S   0  0  0  0  0  0  0  0  0  0  0  0
    2.6110    1.8100   -6.5101 O   0  0  0  0  0  0  0  0  0  0  0  0
    4.1809    3.7749   -6.4544 O   0  0  0  0  0  0  0  0  0  0  0  0
    2.1362    3.6829   -4.9884 O   0  0  0  0  0  0  0  0  0  0  0  0
    6.2164    0.0372   -1.2491 C   0  0  0  0  0  0  0  0  0  0  0  0
    5.5354   -0.6169   -0.7011 H   0  0  0  0  0  0  0  0  0  0  0  0
    7.0242   -0.5790   -1.6434 H   0  0  0  0  0  0  0  0  0  0  0  0
    6.6455    0.7422   -0.5373 H   0  0  0  0  0  0  0  0  0  0  0  0
  1  6  2  0  0  0  0
  2  3  2  0  0  0  0
  2  1  1  0  0  0  0
  3  4  1  0  0  0  0
  4  9  1  0  0  0  0
  4  5  2  0  0  0  0
  5 10  1  0  0  0  0
  6  5  1  0  0  0  0
  6 11  1  0  0  0  0
  7  1  1  0  0  0  0
  8  2  1  0  0  0  0
 11 12  2  0  0  0  0
 13 11  2  0  0  0  0
 14  3  1  0  0  0  0
 15 14  1  0  0  0  0
 16 21  2  0  0  0  0
 16 17  1  0  0  0  0
 17 18  2  0  0  0  0
 18 19  1  0  0  0  0
 18 30  1  0  0  0  0
 19 24  1  0  0  0  0
 20 25  1  0  0  0  0
 20 19  2  0  0  0  0
 21 20  1  0  0  0  0
 22 16  1  0  0  0  0
 23 17  1  0  0  0  0
 26 29  1  0  0  0  0
 26 21  1  0  0  0  0
 27 26  2  0  0  0  0
 28 26  2  0  0  0  0
 30 31  1  0  0  0  0
 30 33  1  0  0  0  0
 32 30  1  0  0  0  0
M  RAD  3  14   2  15   3  29   2
M  END
