Coordinates from ORCA-job p-NO2-Ph-N2-OTs-MP2-6-31G_dp-scan-d09-49-n400
 OpenBabel02121707583D

 33 33  0  0  0  0  0  0  0  0999 V2000
    2.2073   -0.4108   -3.3763 C   0  0  0  0  0  0  0  0  0  0  0  0
    1.5907    0.1772   -4.4738 C   0  0  0  0  0  0  0  0  0  0  0  0
    0.8779    1.3706   -4.2643 C   0  0  0  0  0  0  0  0  0  0  0  0
    0.7686    2.0004   -3.0089 C   0  0  0  0  0  0  0  0  0  0  0  0
    1.4026    1.4060   -1.9303 C   0  0  0  0  0  0  0  0  0  0  0  0
    2.1216    0.2241   -2.1379 C   0  0  0  0  0  0  0  0  0  0  0  0
    2.7822   -1.3194   -3.4768 H   0  0  0  0  0  0  0  0  0  0  0  0
    1.6928   -0.2156   -5.4751 H   0  0  0  0  0  0  0  0  0  0  0  0
    0.2534    2.9474   -2.9226 H   0  0  0  0  0  0  0  0  0  0  0  0
    1.3857    1.8589   -0.9493 H   0  0  0  0  0  0  0  0  0  0  0  0
    2.8192   -0.3801   -0.9974 N   0  0  0  0  0  0  0  0  0  0  0  0
    2.9067    0.2961    0.0416 O   0  0  0  0  0  0  0  0  0  0  0  0
    3.2806   -1.5235   -1.1544 O   0  0  0  0  0  0  0  0  0  0  0  0
    0.3427    1.9472   -5.2879 N   0  0  0  0  0  0  0  0  0  0  0  0
   -0.1610    2.4380   -6.1816 N   0  0  0  0  0  0  0  0  0  0  0  0
    4.7751    0.9049   -4.6698 C   0  0  0  0  0  0  0  0  0  0  0  0
    5.4463    0.2429   -3.6394 C   0  0  0  0  0  0  0  0  0  0  0  0
    5.4748    0.7656   -2.3371 C   0  0  0  0  0  0  0  0  0  0  0  0
    4.8110    1.9793   -2.0957 C   0  0  0  0  0  0  0  0  0  0  0  0
    4.1397    2.6522   -3.1190 C   0  0  0  0  0  0  0  0  0  0  0  0
    4.1088    2.1084   -4.4070 C   0  0  0  0  0  0  0  0  0  0  0  0
    4.7517    0.4976   -5.6739 H   0  0  0  0  0  0  0  0  0  0  0  0
    5.9690   -0.6853   -3.8495 H   0  0  0  0  0  0  0  0  0  0  0  0
    4.8367    2.4073   -1.0980 H   0  0  0  0  0  0  0  0  0  0  0  0
    3.6324    3.5916   -2.9349 H   0  0  0  0  0  0  0  0  0  0  0  0
    3.2306    2.9595   -5.7261 S   0  0  0  0  0  0  0  0  0  0  0  0
    2.6337    1.8322   -6.5177 O   0  0  0  0  0  0  0  0  0  0  0  0
    4.2164    3.7842   -6.4353 O   0  0  0  0  0  0  0  0  0  0  0  0
    2.1556    3.7083   -4.9928 O   0  0  0  0  0  0  0  0  0  0  0  0
    6.1910    0.0506   -1.2211 C   0  0  0  0  0  0  0  0  0  0  0  0
    5.4908   -0.4696   -0.5649 H   0  0  0  0  0  0  0  0  0  0  0  0
    6.8884   -0.6874   -1.6165 H   0  0  0  0  0  0  0  0  0  0  0  0
    6.7552    0.7559   -0.6106 H   0  0  0  0  0  0  0  0  0  0  0  0
  1  6  2  0  0  0  0
  2  3  2  0  0  0  0
  2  1  1  0  0  0  0
  3  4  1  0  0  0  0
  4  9  1  0  0  0  0
  4  5  2  0  0  0  0
  5 10  1  0  0  0  0
  6  5  1  0  0  0  0
  6 11  1  0  0  0  0
  7  1  1  0  0  0  0
  8  2  1  0  0  0  0
 11 12  2  0  0  0  0
 13 11  2  0  0  0  0
 14  3  1  0  0  0  0
 15 14  1  0  0  0  0
 16 21  2  0  0  0  0
 16 17  1  0  0  0  0
 17 18  2  0  0  0  0
 18 19  1  0  0  0  0
 18 30  1  0  0  0  0
 19 24  1  0  0  0  0
 20 25  1  0  0  0  0
 20 19  2  0  0  0  0
 21 20  1  0  0  0  0
 22 16  1  0  0  0  0
 23 17  1  0  0  0  0
 26 29  1  0  0  0  0
 26 21  1  0  0  0  0
 27 26  2  0  0  0  0
 28 26  2  0  0  0  0
 30 33  1  0  0  0  0
 30 31  1  0  0  0  0
 32 30  1  0  0  0  0
M  RAD  3  14   2  15   3  29   2
M  END
