Coordinates from ORCA-job p-NO2-Ph-N2-OTs-MP2-6-31G_dp-scan-d09-49-n400
 OpenBabel02121707583D

 33 33  0  0  0  0  0  0  0  0999 V2000
    0.7256   -0.7181   -4.2059 C   0  0  0  0  0  0  0  0  0  0  0  0
    1.2113    0.3629   -4.9392 C   0  0  0  0  0  0  0  0  0  0  0  0
    1.7981    1.4351   -4.2621 C   0  0  0  0  0  0  0  0  0  0  0  0
    1.9214    1.4467   -2.8702 C   0  0  0  0  0  0  0  0  0  0  0  0
    1.4313    0.3731   -2.1306 C   0  0  0  0  0  0  0  0  0  0  0  0
    0.8447   -0.6910   -2.8161 C   0  0  0  0  0  0  0  0  0  0  0  0
    0.2601   -1.5659   -4.6878 H   0  0  0  0  0  0  0  0  0  0  0  0
    1.1342    0.3931   -6.0172 H   0  0  0  0  0  0  0  0  0  0  0  0
    2.3802    2.3010   -2.3890 H   0  0  0  0  0  0  0  0  0  0  0  0
    1.4999    0.3455   -1.0526 H   0  0  0  0  0  0  0  0  0  0  0  0
    0.3322   -1.8302   -2.0413 N   0  0  0  0  0  0  0  0  0  0  0  0
    0.4705   -1.7935   -0.8069 O   0  0  0  0  0  0  0  0  0  0  0  0
   -0.2031   -2.7586   -2.6698 O   0  0  0  0  0  0  0  0  0  0  0  0
   -1.0803    2.5005   -3.7894 N   0  0  0  0  0  0  0  0  0  0  0  0
   -1.6792    1.7091   -3.2449 N   0  0  0  0  0  0  0  0  0  0  0  0
    5.0945    0.8528   -3.9912 C   0  0  0  0  0  0  0  0  0  0  0  0
    5.9002    0.6843   -2.8646 C   0  0  0  0  0  0  0  0  0  0  0  0
    6.3803    1.7855   -2.1421 C   0  0  0  0  0  0  0  0  0  0  0  0
    6.0443    3.0755   -2.5809 C   0  0  0  0  0  0  0  0  0  0  0  0
    5.2412    3.2719   -3.7035 C   0  0  0  0  0  0  0  0  0  0  0  0
    4.7827    2.1510   -4.4007 C   0  0  0  0  0  0  0  0  0  0  0  0
    4.7351    0.0039   -4.5586 H   0  0  0  0  0  0  0  0  0  0  0  0
    6.1595   -0.3186   -2.5435 H   0  0  0  0  0  0  0  0  0  0  0  0
    6.4196    3.9372   -2.0398 H   0  0  0  0  0  0  0  0  0  0  0  0
    4.9947    4.2668   -4.0526 H   0  0  0  0  0  0  0  0  0  0  0  0
    3.6960    2.3855   -5.7704 S   0  0  0  0  0  0  0  0  0  0  0  0
    3.6435    1.1531   -6.5497 O   0  0  0  0  0  0  0  0  0  0  0  0
    3.9077    3.6920   -6.3689 O   0  0  0  0  0  0  0  0  0  0  0  0
    2.2320    2.5601   -4.9661 O   0  0  0  0  0  0  0  0  0  0  0  0
    7.2149    1.5891   -0.9046 C   0  0  0  0  0  0  0  0  0  0  0  0
    6.5852    1.5461   -0.0139 H   0  0  0  0  0  0  0  0  0  0  0  0
    7.7802    0.6595   -0.9569 H   0  0  0  0  0  0  0  0  0  0  0  0
    7.9199    2.4093   -0.7735 H   0  0  0  0  0  0  0  0  0  0  0  0
  1  6  2  0  0  0  0
  2  3  2  0  0  0  0
  2  1  1  0  0  0  0
  3  4  1  0  0  0  0
  4  9  1  0  0  0  0
  4  5  2  0  0  0  0
  5 10  1  0  0  0  0
  6  5  1  0  0  0  0
  6 11  1  0  0  0  0
  7  1  1  0  0  0  0
  8  2  1  0  0  0  0
 11 12  2  0  0  0  0
 13 11  2  0  0  0  0
 14 15  3  0  0  0  0
 16 17  1  0  0  0  0
 17 23  1  0  0  0  0
 17 18  2  0  0  0  0
 18 30  1  0  0  0  0
 19 18  1  0  0  0  0
 19 24  1  0  0  0  0
 20 19  2  0  0  0  0
 21 16  2  0  0  0  0
 21 20  1  0  0  0  0
 22 16  1  0  0  0  0
 25 20  1  0  0  0  0
 26 29  1  0  0  0  0
 26 21  1  0  0  0  0
 27 26  2  0  0  0  0
 28 26  2  0  0  0  0
 29  3  1  0  0  0  0
 30 33  1  0  0  0  0
 30 31  1  0  0  0  0
 32 30  1  0  0  0  0
M  END
