Coordinates from ORCA-job p-NO2-Ph-N2-OTs-MP2-6-31G_dp-scan-d09-49-n400
 OpenBabel02121707583D

 33 33  0  0  0  0  0  0  0  0999 V2000
    0.7202   -0.7227   -4.2020 C   0  0  0  0  0  0  0  0  0  0  0  0
    1.2067    0.3582   -4.9348 C   0  0  0  0  0  0  0  0  0  0  0  0
    1.7910    1.4311   -4.2570 C   0  0  0  0  0  0  0  0  0  0  0  0
    1.9228    1.4381   -2.8659 C   0  0  0  0  0  0  0  0  0  0  0  0
    1.4320    0.3648   -2.1266 C   0  0  0  0  0  0  0  0  0  0  0  0
    0.8427   -0.6977   -2.8124 C   0  0  0  0  0  0  0  0  0  0  0  0
    0.2540   -1.5700   -4.6841 H   0  0  0  0  0  0  0  0  0  0  0  0
    1.1266    0.3906   -6.0126 H   0  0  0  0  0  0  0  0  0  0  0  0
    2.3828    2.2918   -2.3845 H   0  0  0  0  0  0  0  0  0  0  0  0
    1.5044    0.3347   -1.0489 H   0  0  0  0  0  0  0  0  0  0  0  0
    0.3279   -1.8361   -2.0378 N   0  0  0  0  0  0  0  0  0  0  0  0
    0.4674   -1.8004   -0.8035 O   0  0  0  0  0  0  0  0  0  0  0  0
   -0.2110   -2.7624   -2.6664 O   0  0  0  0  0  0  0  0  0  0  0  0
   -0.9807    2.5066   -3.8182 N   0  0  0  0  0  0  0  0  0  0  0  0
   -1.6194    1.7464   -3.2742 N   0  0  0  0  0  0  0  0  0  0  0  0
    5.0906    0.8550   -3.9928 C   0  0  0  0  0  0  0  0  0  0  0  0
    5.8983    0.6866   -2.8676 C   0  0  0  0  0  0  0  0  0  0  0  0
    6.3757    1.7879   -2.1434 C   0  0  0  0  0  0  0  0  0  0  0  0
    6.0349    3.0777   -2.5790 C   0  0  0  0  0  0  0  0  0  0  0  0
    5.2298    3.2740   -3.7001 C   0  0  0  0  0  0  0  0  0  0  0  0
    4.7739    2.1531   -4.3990 C   0  0  0  0  0  0  0  0  0  0  0  0
    4.7329    0.0062   -4.5615 H   0  0  0  0  0  0  0  0  0  0  0  0
    6.1612   -0.3161   -2.5490 H   0  0  0  0  0  0  0  0  0  0  0  0
    6.4082    3.9394   -2.0365 H   0  0  0  0  0  0  0  0  0  0  0  0
    4.9796    4.2688   -4.0467 H   0  0  0  0  0  0  0  0  0  0  0  0
    3.6847    2.3871   -5.7669 S   0  0  0  0  0  0  0  0  0  0  0  0
    3.6337    1.1556   -6.5476 O   0  0  0  0  0  0  0  0  0  0  0  0
    3.8931    3.6948   -6.3639 O   0  0  0  0  0  0  0  0  0  0  0  0
    2.2215    2.5578   -4.9602 O   0  0  0  0  0  0  0  0  0  0  0  0
    7.2125    1.5915   -0.9074 C   0  0  0  0  0  0  0  0  0  0  0  0
    6.5843    1.5451   -0.0159 H   0  0  0  0  0  0  0  0  0  0  0  0
    7.7804    0.6636   -0.9622 H   0  0  0  0  0  0  0  0  0  0  0  0
    7.9154    2.4135   -0.7758 H   0  0  0  0  0  0  0  0  0  0  0  0
  1  6  2  0  0  0  0
  2  3  2  0  0  0  0
  2  1  1  0  0  0  0
  3  4  1  0  0  0  0
  4  9  1  0  0  0  0
  4  5  2  0  0  0  0
  5 10  1  0  0  0  0
  6  5  1  0  0  0  0
  6 11  1  0  0  0  0
  7  1  1  0  0  0  0
  8  2  1  0  0  0  0
 11 12  2  0  0  0  0
 13 11  2  0  0  0  0
 14 15  3  0  0  0  0
 16 17  1  0  0  0  0
 17 23  1  0  0  0  0
 17 18  2  0  0  0  0
 18 30  1  0  0  0  0
 19 18  1  0  0  0  0
 19 24  1  0  0  0  0
 20 19  2  0  0  0  0
 21 16  2  0  0  0  0
 21 20  1  0  0  0  0
 22 16  1  0  0  0  0
 25 20  1  0  0  0  0
 26 29  1  0  0  0  0
 26 21  1  0  0  0  0
 27 26  2  0  0  0  0
 28 26  2  0  0  0  0
 29  3  1  0  0  0  0
 30 33  1  0  0  0  0
 30 31  1  0  0  0  0
 32 30  1  0  0  0  0
M  END
