Coordinates from ORCA-job p-NO2-Ph-N2-OTs-MP2-6-31G_dp-scan-d09-49-n400
 OpenBabel02121707583D

 33 33  0  0  0  0  0  0  0  0999 V2000
    0.7576   -0.7334   -4.1593 C   0  0  0  0  0  0  0  0  0  0  0  0
    1.1799    0.3648   -4.9018 C   0  0  0  0  0  0  0  0  0  0  0  0
    1.6511    1.5015   -4.2319 C   0  0  0  0  0  0  0  0  0  0  0  0
    1.9469    1.4530   -2.8625 C   0  0  0  0  0  0  0  0  0  0  0  0
    1.5217    0.3650   -2.1086 C   0  0  0  0  0  0  0  0  0  0  0  0
    0.9302   -0.7101   -2.7743 C   0  0  0  0  0  0  0  0  0  0  0  0
    0.3350   -1.6086   -4.6319 H   0  0  0  0  0  0  0  0  0  0  0  0
    1.0611    0.3961   -5.9761 H   0  0  0  0  0  0  0  0  0  0  0  0
    2.4059    2.3152   -2.3951 H   0  0  0  0  0  0  0  0  0  0  0  0
    1.6774    0.3151   -1.0405 H   0  0  0  0  0  0  0  0  0  0  0  0
    0.4810   -1.8658   -1.9863 N   0  0  0  0  0  0  0  0  0  0  0  0
    0.6755   -1.8344   -0.7592 O   0  0  0  0  0  0  0  0  0  0  0  0
   -0.0620   -2.8018   -2.5970 O   0  0  0  0  0  0  0  0  0  0  0  0
   -0.2129    2.4794   -4.0477 N   0  0  0  0  0  0  0  0  0  0  0  0
   -1.1227    2.0746   -3.4989 N   0  0  0  0  0  0  0  0  0  0  0  0
    4.9748    0.8496   -4.0031 C   0  0  0  0  0  0  0  0  0  0  0  0
    5.7833    0.6670   -2.8810 C   0  0  0  0  0  0  0  0  0  0  0  0
    6.2616    1.7591   -2.1433 C   0  0  0  0  0  0  0  0  0  0  0  0
    5.9220    3.0543   -2.5631 C   0  0  0  0  0  0  0  0  0  0  0  0
    5.1171    3.2647   -3.6821 C   0  0  0  0  0  0  0  0  0  0  0  0
    4.6582    2.1526   -4.3927 C   0  0  0  0  0  0  0  0  0  0  0  0
    4.6120    0.0083   -4.5796 H   0  0  0  0  0  0  0  0  0  0  0  0
    6.0453   -0.3398   -2.5745 H   0  0  0  0  0  0  0  0  0  0  0  0
    6.2967    3.9091   -2.0108 H   0  0  0  0  0  0  0  0  0  0  0  0
    4.8684    4.2639   -4.0171 H   0  0  0  0  0  0  0  0  0  0  0  0
    3.5698    2.4047   -5.7575 S   0  0  0  0  0  0  0  0  0  0  0  0
    3.5058    1.1772   -6.5433 O   0  0  0  0  0  0  0  0  0  0  0  0
    3.7987    3.7104   -6.3517 O   0  0  0  0  0  0  0  0  0  0  0  0
    2.1055    2.6066   -4.9610 O   0  0  0  0  0  0  0  0  0  0  0  0
    7.0979    1.5458   -0.9096 C   0  0  0  0  0  0  0  0  0  0  0  0
    6.4674    1.4590   -0.0228 H   0  0  0  0  0  0  0  0  0  0  0  0
    7.6866    0.6327   -0.9889 H   0  0  0  0  0  0  0  0  0  0  0  0
    7.7816    2.3790   -0.7511 H   0  0  0  0  0  0  0  0  0  0  0  0
  1  6  2  0  0  0  0
  2  3  2  0  0  0  0
  2  1  1  0  0  0  0
  3  4  1  0  0  0  0
  4  9  1  0  0  0  0
  4  5  2  0  0  0  0
  5 10  1  0  0  0  0
  6  5  1  0  0  0  0
  6 11  1  0  0  0  0
  7  1  1  0  0  0  0
  8  2  1  0  0  0  0
 11 12  2  0  0  0  0
 13 11  2  0  0  0  0
 14 15  3  0  0  0  0
 16 17  1  0  0  0  0
 17 23  1  0  0  0  0
 17 18  2  0  0  0  0
 18 30  1  0  0  0  0
 19 18  1  0  0  0  0
 19 24  1  0  0  0  0
 20 19  2  0  0  0  0
 21 16  2  0  0  0  0
 21 20  1  0  0  0  0
 22 16  1  0  0  0  0
 25 20  1  0  0  0  0
 26 29  1  0  0  0  0
 26 21  1  0  0  0  0
 27 26  2  0  0  0  0
 28 26  2  0  0  0  0
 29  3  1  0  0  0  0
 30 33  1  0  0  0  0
 30 31  1  0  0  0  0
 32 30  1  0  0  0  0
M  END
