Coordinates from ORCA-job p-NO2-Ph-N2-OTs-MP2-6-31G_dp-scan-d09-49-n400
 OpenBabel02121707583D

 33 33  0  0  0  0  0  0  0  0999 V2000
    0.7408   -0.6525   -4.2406 C   0  0  0  0  0  0  0  0  0  0  0  0
    1.2415    0.4160   -4.9824 C   0  0  0  0  0  0  0  0  0  0  0  0
    1.8347    1.4899   -4.3132 C   0  0  0  0  0  0  0  0  0  0  0  0
    1.9395    1.5197   -2.9199 C   0  0  0  0  0  0  0  0  0  0  0  0
    1.4345    0.4586   -2.1721 C   0  0  0  0  0  0  0  0  0  0  0  0
    0.8487   -0.6105   -2.8504 C   0  0  0  0  0  0  0  0  0  0  0  0
    0.2714   -1.5015   -4.7166 H   0  0  0  0  0  0  0  0  0  0  0  0
    1.1776    0.4317   -6.0616 H   0  0  0  0  0  0  0  0  0  0  0  0
    2.4034    2.3744   -2.4442 H   0  0  0  0  0  0  0  0  0  0  0  0
    1.4905    0.4446   -1.0931 H   0  0  0  0  0  0  0  0  0  0  0  0
    0.3134   -1.7327   -2.0667 N   0  0  0  0  0  0  0  0  0  0  0  0
    0.4377   -1.6807   -0.8313 O   0  0  0  0  0  0  0  0  0  0  0  0
   -0.2254   -2.6632   -2.6890 O   0  0  0  0  0  0  0  0  0  0  0  0
   -1.5711    2.2044   -3.4868 N   0  0  0  0  0  0  0  0  0  0  0  0
   -1.8252    1.2337   -2.9631 N   0  0  0  0  0  0  0  0  0  0  0  0
    5.1105    0.8404   -3.9883 C   0  0  0  0  0  0  0  0  0  0  0  0
    5.8951    0.6687   -2.8475 C   0  0  0  0  0  0  0  0  0  0  0  0
    6.3882    1.7683   -2.1313 C   0  0  0  0  0  0  0  0  0  0  0  0
    6.0871    3.0596   -2.5910 C   0  0  0  0  0  0  0  0  0  0  0  0
    5.3055    3.2593   -3.7280 C   0  0  0  0  0  0  0  0  0  0  0  0
    4.8331    2.1399   -4.4183 C   0  0  0  0  0  0  0  0  0  0  0  0
    4.7410   -0.0075   -4.5506 H   0  0  0  0  0  0  0  0  0  0  0  0
    6.1275   -0.3354   -2.5102 H   0  0  0  0  0  0  0  0  0  0  0  0
    6.4730    3.9197   -2.0547 H   0  0  0  0  0  0  0  0  0  0  0  0
    5.0860    4.2548   -4.0930 H   0  0  0  0  0  0  0  0  0  0  0  0
    3.7726    2.3805   -5.8074 S   0  0  0  0  0  0  0  0  0  0  0  0
    3.7057    1.1401   -6.5726 O   0  0  0  0  0  0  0  0  0  0  0  0
    4.0208    3.6749   -6.4179 O   0  0  0  0  0  0  0  0  0  0  0  0
    2.3002    2.5959   -5.0281 O   0  0  0  0  0  0  0  0  0  0  0  0
    7.1994    1.5694   -0.8787 C   0  0  0  0  0  0  0  0  0  0  0  0
    6.5554    1.5492    0.0023 H   0  0  0  0  0  0  0  0  0  0  0  0
    7.7465    0.6280   -0.9119 H   0  0  0  0  0  0  0  0  0  0  0  0
    7.9188    2.3767   -0.7459 H   0  0  0  0  0  0  0  0  0  0  0  0
  1  6  2  0  0  0  0
  2  3  2  0  0  0  0
  2  1  1  0  0  0  0
  3  4  1  0  0  0  0
  4  9  1  0  0  0  0
  4  5  2  0  0  0  0
  5 10  1  0  0  0  0
  6  5  1  0  0  0  0
  6 11  1  0  0  0  0
  7  1  1  0  0  0  0
  8  2  1  0  0  0  0
 11 12  2  0  0  0  0
 13 11  2  0  0  0  0
 14 15  3  0  0  0  0
 16 17  1  0  0  0  0
 17 23  1  0  0  0  0
 17 18  2  0  0  0  0
 18 30  1  0  0  0  0
 19 18  1  0  0  0  0
 19 24  1  0  0  0  0
 20 19  2  0  0  0  0
 21 16  2  0  0  0  0
 21 20  1  0  0  0  0
 22 16  1  0  0  0  0
 25 20  1  0  0  0  0
 26 29  1  0  0  0  0
 26 21  1  0  0  0  0
 27 26  2  0  0  0  0
 28 26  2  0  0  0  0
 29  3  1  0  0  0  0
 30 33  1  0  0  0  0
 30 31  1  0  0  0  0
 32 30  1  0  0  0  0
M  END
