Coordinates from ORCA-job p-NO2-Ph-N2-OTs-MP2-6-31G_dp-scan-d09-49-n400
 OpenBabel02121707583D

 33 33  0  0  0  0  0  0  0  0999 V2000
    0.7473   -0.6218   -4.2588 C   0  0  0  0  0  0  0  0  0  0  0  0
    1.2600    0.4383   -5.0045 C   0  0  0  0  0  0  0  0  0  0  0  0
    1.8562    1.5130   -4.3390 C   0  0  0  0  0  0  0  0  0  0  0  0
    1.9501    1.5519   -2.9449 C   0  0  0  0  0  0  0  0  0  0  0  0
    1.4330    0.4991   -2.1935 C   0  0  0  0  0  0  0  0  0  0  0  0
    0.8474   -0.5719   -2.8684 C   0  0  0  0  0  0  0  0  0  0  0  0
    0.2760   -1.4710   -4.7325 H   0  0  0  0  0  0  0  0  0  0  0  0
    1.2041    0.4469   -6.0842 H   0  0  0  0  0  0  0  0  0  0  0  0
    2.4157    2.4071   -2.4720 H   0  0  0  0  0  0  0  0  0  0  0  0
    1.4816    0.4925   -1.1141 H   0  0  0  0  0  0  0  0  0  0  0  0
    0.2970   -1.6838   -2.0808 N   0  0  0  0  0  0  0  0  0  0  0  0
    0.4200   -1.6280   -0.8454 O   0  0  0  0  0  0  0  0  0  0  0  0
   -0.2517   -2.6106   -2.6999 O   0  0  0  0  0  0  0  0  0  0  0  0
   -1.8168    2.0397   -3.3222 N   0  0  0  0  0  0  0  0  0  0  0  0
   -1.9160    1.0263   -2.8283 N   0  0  0  0  0  0  0  0  0  0  0  0
    5.1221    0.8350   -3.9871 C   0  0  0  0  0  0  0  0  0  0  0  0
    5.8967    0.6625   -2.8396 C   0  0  0  0  0  0  0  0  0  0  0  0
    6.3949    1.7616   -2.1262 C   0  0  0  0  0  0  0  0  0  0  0  0
    6.1092    3.0530   -2.5954 C   0  0  0  0  0  0  0  0  0  0  0  0
    5.3378    3.2534   -3.7392 C   0  0  0  0  0  0  0  0  0  0  0  0
    4.8599    2.1344   -4.4265 C   0  0  0  0  0  0  0  0  0  0  0  0
    4.7486   -0.0128   -4.5472 H   0  0  0  0  0  0  0  0  0  0  0  0
    6.1172   -0.3418   -2.4949 H   0  0  0  0  0  0  0  0  0  0  0  0
    6.4993    3.9125   -2.0613 H   0  0  0  0  0  0  0  0  0  0  0  0
    5.1304    4.2488   -4.1115 H   0  0  0  0  0  0  0  0  0  0  0  0
    3.8120    2.3769   -5.8247 S   0  0  0  0  0  0  0  0  0  0  0  0
    3.7397    1.1330   -6.5838 O   0  0  0  0  0  0  0  0  0  0  0  0
    4.0763    3.6657   -6.4405 O   0  0  0  0  0  0  0  0  0  0  0  0
    2.3358    2.6099   -5.0579 O   0  0  0  0  0  0  0  0  0  0  0  0
    7.1951    1.5623   -0.8666 C   0  0  0  0  0  0  0  0  0  0  0  0
    6.5445    1.5529    0.0098 H   0  0  0  0  0  0  0  0  0  0  0  0
    7.7338    0.6158   -0.8905 H   0  0  0  0  0  0  0  0  0  0  0  0
    7.9208    2.3638   -0.7329 H   0  0  0  0  0  0  0  0  0  0  0  0
  1  6  2  0  0  0  0
  2  3  2  0  0  0  0
  2  1  1  0  0  0  0
  3  4  1  0  0  0  0
  4  9  1  0  0  0  0
  4  5  2  0  0  0  0
  5 10  1  0  0  0  0
  6  5  1  0  0  0  0
  6 11  1  0  0  0  0
  7  1  1  0  0  0  0
  8  2  1  0  0  0  0
 11 12  2  0  0  0  0
 13 11  2  0  0  0  0
 14 15  3  0  0  0  0
 16 17  1  0  0  0  0
 17 23  1  0  0  0  0
 17 18  2  0  0  0  0
 18 30  1  0  0  0  0
 19 18  1  0  0  0  0
 19 24  1  0  0  0  0
 20 19  2  0  0  0  0
 21 16  2  0  0  0  0
 21 20  1  0  0  0  0
 22 16  1  0  0  0  0
 25 20  1  0  0  0  0
 26 29  1  0  0  0  0
 26 21  1  0  0  0  0
 27 26  2  0  0  0  0
 28 26  2  0  0  0  0
 29  3  1  0  0  0  0
 30 33  1  0  0  0  0
 30 31  1  0  0  0  0
 32 30  1  0  0  0  0
M  END
