Coordinates from ORCA-job p-NO2-Ph-N2-OTs-MP2-6-31G_dp-scan-d09-49-n400
 OpenBabel02121707583D

 33 33  0  0  0  0  0  0  0  0999 V2000
    0.7241   -0.7197   -4.2041 C   0  0  0  0  0  0  0  0  0  0  0  0
    1.2098    0.3612   -4.9375 C   0  0  0  0  0  0  0  0  0  0  0  0
    1.7966    1.4336   -4.2606 C   0  0  0  0  0  0  0  0  0  0  0  0
    1.9213    1.4444   -2.8687 C   0  0  0  0  0  0  0  0  0  0  0  0
    1.4311    0.3710   -2.1291 C   0  0  0  0  0  0  0  0  0  0  0  0
    0.8440   -0.6929   -2.8145 C   0  0  0  0  0  0  0  0  0  0  0  0
    0.2586   -1.5675   -4.6861 H   0  0  0  0  0  0  0  0  0  0  0  0
    1.1316    0.3920   -6.0155 H   0  0  0  0  0  0  0  0  0  0  0  0
    2.3800    2.2990   -2.3877 H   0  0  0  0  0  0  0  0  0  0  0  0
    1.5008    0.3429   -1.0511 H   0  0  0  0  0  0  0  0  0  0  0  0
    0.3315   -1.8322   -2.0395 N   0  0  0  0  0  0  0  0  0  0  0  0
    0.4714   -1.7962   -0.8053 O   0  0  0  0  0  0  0  0  0  0  0  0
   -0.2033   -2.7608   -2.6680 O   0  0  0  0  0  0  0  0  0  0  0  0
   -1.0495    2.5041   -3.8001 N   0  0  0  0  0  0  0  0  0  0  0  0
   -1.6618    1.7229   -3.2556 N   0  0  0  0  0  0  0  0  0  0  0  0
    5.0935    0.8534   -3.9921 C   0  0  0  0  0  0  0  0  0  0  0  0
    5.8998    0.6848   -2.8660 C   0  0  0  0  0  0  0  0  0  0  0  0
    6.3788    1.7859   -2.1426 C   0  0  0  0  0  0  0  0  0  0  0  0
    6.0409    3.0759   -2.5800 C   0  0  0  0  0  0  0  0  0  0  0  0
    5.2372    3.2724   -3.7021 C   0  0  0  0  0  0  0  0  0  0  0  0
    4.7799    2.1516   -4.4002 C   0  0  0  0  0  0  0  0  0  0  0  0
    4.7349    0.0047   -4.5602 H   0  0  0  0  0  0  0  0  0  0  0  0
    6.1605   -0.3181   -2.5459 H   0  0  0  0  0  0  0  0  0  0  0  0
    6.4154    3.9375   -2.0381 H   0  0  0  0  0  0  0  0  0  0  0  0
    4.9893    4.2673   -4.0501 H   0  0  0  0  0  0  0  0  0  0  0  0
    3.6925    2.3861   -5.7694 S   0  0  0  0  0  0  0  0  0  0  0  0
    3.6406    1.1542   -6.5493 O   0  0  0  0  0  0  0  0  0  0  0  0
    3.9032    3.6931   -6.3672 O   0  0  0  0  0  0  0  0  0  0  0  0
    2.2285    2.5592   -4.9644 O   0  0  0  0  0  0  0  0  0  0  0  0
    7.2140    1.5894   -0.9055 C   0  0  0  0  0  0  0  0  0  0  0  0
    6.5847    1.5448   -0.0147 H   0  0  0  0  0  0  0  0  0  0  0  0
    7.7804    0.6604   -0.9589 H   0  0  0  0  0  0  0  0  0  0  0  0
    7.9181    2.4102   -0.7740 H   0  0  0  0  0  0  0  0  0  0  0  0
  1  6  2  0  0  0  0
  2  3  2  0  0  0  0
  2  1  1  0  0  0  0
  3  4  1  0  0  0  0
  4  9  1  0  0  0  0
  4  5  2  0  0  0  0
  5 10  1  0  0  0  0
  6  5  1  0  0  0  0
  6 11  1  0  0  0  0
  7  1  1  0  0  0  0
  8  2  1  0  0  0  0
 11 12  2  0  0  0  0
 13 11  2  0  0  0  0
 14 15  3  0  0  0  0
 16 17  1  0  0  0  0
 17 23  1  0  0  0  0
 17 18  2  0  0  0  0
 18 30  1  0  0  0  0
 19 18  1  0  0  0  0
 19 24  1  0  0  0  0
 20 19  2  0  0  0  0
 21 16  2  0  0  0  0
 21 20  1  0  0  0  0
 22 16  1  0  0  0  0
 25 20  1  0  0  0  0
 26 29  1  0  0  0  0
 26 21  1  0  0  0  0
 27 26  2  0  0  0  0
 28 26  2  0  0  0  0
 29  3  1  0  0  0  0
 30 33  1  0  0  0  0
 30 31  1  0  0  0  0
 32 30  1  0  0  0  0
M  END
