Coordinates from ORCA-job p-NO2-Ph-N2-OTs-MP2-6-31G_dp-scan-d09-49-n400
 OpenBabel02121707583D

 33 33  0  0  0  0  0  0  0  0999 V2000
    2.2111   -0.4048   -3.3846 C   0  0  0  0  0  0  0  0  0  0  0  0
    1.5863    0.1791   -4.4786 C   0  0  0  0  0  0  0  0  0  0  0  0
    0.8667    1.3736   -4.2738 C   0  0  0  0  0  0  0  0  0  0  0  0
    0.7667    2.0009   -3.0122 C   0  0  0  0  0  0  0  0  0  0  0  0
    1.4087    1.4107   -1.9373 C   0  0  0  0  0  0  0  0  0  0  0  0
    2.1282    0.2290   -2.1453 C   0  0  0  0  0  0  0  0  0  0  0  0
    2.7860   -1.3131   -3.4873 H   0  0  0  0  0  0  0  0  0  0  0  0
    1.6830   -0.2161   -5.4797 H   0  0  0  0  0  0  0  0  0  0  0  0
    0.2485    2.9463   -2.9241 H   0  0  0  0  0  0  0  0  0  0  0  0
    1.3940    1.8646   -0.9567 H   0  0  0  0  0  0  0  0  0  0  0  0
    2.8243   -0.3772   -1.0056 N   0  0  0  0  0  0  0  0  0  0  0  0
    2.9083    0.2957    0.0359 O   0  0  0  0  0  0  0  0  0  0  0  0
    3.2865   -1.5201   -1.1651 O   0  0  0  0  0  0  0  0  0  0  0  0
    0.3392    1.9273   -5.2637 N   0  0  0  0  0  0  0  0  0  0  0  0
   -0.1516    2.4242   -6.1628 N   0  0  0  0  0  0  0  0  0  0  0  0
    4.7710    0.9022   -4.6663 C   0  0  0  0  0  0  0  0  0  0  0  0
    5.4416    0.2400   -3.6354 C   0  0  0  0  0  0  0  0  0  0  0  0
    5.4724    0.7647   -2.3340 C   0  0  0  0  0  0  0  0  0  0  0  0
    4.8115    1.9803   -2.0939 C   0  0  0  0  0  0  0  0  0  0  0  0
    4.1413    2.6536   -3.1177 C   0  0  0  0  0  0  0  0  0  0  0  0
    4.1079    2.1080   -4.4048 C   0  0  0  0  0  0  0  0  0  0  0  0
    4.7461    0.4940   -5.6700 H   0  0  0  0  0  0  0  0  0  0  0  0
    5.9624   -0.6894   -3.8447 H   0  0  0  0  0  0  0  0  0  0  0  0
    4.8396    2.4100   -1.0969 H   0  0  0  0  0  0  0  0  0  0  0  0
    3.6369    3.5948   -2.9348 H   0  0  0  0  0  0  0  0  0  0  0  0
    3.2315    2.9605   -5.7249 S   0  0  0  0  0  0  0  0  0  0  0  0
    2.6357    1.8334   -6.5171 O   0  0  0  0  0  0  0  0  0  0  0  0
    4.2201    3.7839   -6.4318 O   0  0  0  0  0  0  0  0  0  0  0  0
    2.1579    3.7098   -4.9914 O   0  0  0  0  0  0  0  0  0  0  0  0
    6.1887    0.0503   -1.2179 C   0  0  0  0  0  0  0  0  0  0  0  0
    5.4889   -0.4730   -0.5635 H   0  0  0  0  0  0  0  0  0  0  0  0
    6.8889   -0.6851   -1.6130 H   0  0  0  0  0  0  0  0  0  0  0  0
    6.7497    0.7565   -0.6053 H   0  0  0  0  0  0  0  0  0  0  0  0
  1  6  2  0  0  0  0
  2  3  2  0  0  0  0
  2  1  1  0  0  0  0
  3  4  1  0  0  0  0
  4  9  1  0  0  0  0
  4  5  2  0  0  0  0
  5 10  1  0  0  0  0
  6  5  1  0  0  0  0
  6 11  1  0  0  0  0
  7  1  1  0  0  0  0
  8  2  1  0  0  0  0
 11 12  2  0  0  0  0
 13 11  2  0  0  0  0
 14  3  1  0  0  0  0
 15 14  1  0  0  0  0
 16 21  2  0  0  0  0
 16 17  1  0  0  0  0
 17 18  2  0  0  0  0
 18 19  1  0  0  0  0
 18 30  1  0  0  0  0
 19 24  1  0  0  0  0
 20 25  1  0  0  0  0
 20 19  2  0  0  0  0
 21 20  1  0  0  0  0
 22 16  1  0  0  0  0
 23 17  1  0  0  0  0
 26 29  1  0  0  0  0
 26 21  1  0  0  0  0
 27 26  2  0  0  0  0
 28 26  2  0  0  0  0
 30 33  1  0  0  0  0
 30 31  1  0  0  0  0
 32 30  1  0  0  0  0
M  RAD  3  14   2  15   3  29   2
M  END
