Coordinates from ORCA-job p-NO2-Ph-N2-OTs-MP2-6-31G_dp-scan-d09-49-n400
 OpenBabel02121707583D

 33 33  0  0  0  0  0  0  0  0999 V2000
    0.7263   -0.7571   -4.1699 C   0  0  0  0  0  0  0  0  0  0  0  0
    1.1857    0.3349   -4.9030 C   0  0  0  0  0  0  0  0  0  0  0  0
    1.7337    1.4271   -4.2255 C   0  0  0  0  0  0  0  0  0  0  0  0
    1.9223    1.4102   -2.8407 C   0  0  0  0  0  0  0  0  0  0  0  0
    1.4589    0.3265   -2.0999 C   0  0  0  0  0  0  0  0  0  0  0  0
    0.8750   -0.7412   -2.7826 C   0  0  0  0  0  0  0  0  0  0  0  0
    0.2748   -1.6129   -4.6509 H   0  0  0  0  0  0  0  0  0  0  0  0
    1.0856    0.3732   -5.9789 H   0  0  0  0  0  0  0  0  0  0  0  0
    2.3776    2.2673   -2.3609 H   0  0  0  0  0  0  0  0  0  0  0  0
    1.5619    0.2849   -1.0250 H   0  0  0  0  0  0  0  0  0  0  0  0
    0.3876   -1.8906   -2.0069 N   0  0  0  0  0  0  0  0  0  0  0  0
    0.5508   -1.8626   -0.7753 O   0  0  0  0  0  0  0  0  0  0  0  0
   -0.1535   -2.8181   -2.6319 O   0  0  0  0  0  0  0  0  0  0  0  0
   -0.4973    2.5893   -4.0195 N   0  0  0  0  0  0  0  0  0  0  0  0
   -1.3873    2.1145   -3.5031 N   0  0  0  0  0  0  0  0  0  0  0  0
    5.0457    0.8600   -4.0002 C   0  0  0  0  0  0  0  0  0  0  0  0
    5.8632    0.6877   -2.8829 C   0  0  0  0  0  0  0  0  0  0  0  0
    6.3339    1.7857   -2.1493 C   0  0  0  0  0  0  0  0  0  0  0  0
    5.9763    3.0767   -2.5678 C   0  0  0  0  0  0  0  0  0  0  0  0
    5.1614    3.2769   -3.6812 C   0  0  0  0  0  0  0  0  0  0  0  0
    4.7122    2.1591   -4.3893 C   0  0  0  0  0  0  0  0  0  0  0  0
    4.6918    0.0141   -4.5754 H   0  0  0  0  0  0  0  0  0  0  0  0
    6.1390   -0.3157   -2.5774 H   0  0  0  0  0  0  0  0  0  0  0  0
    6.3443    3.9361   -2.0182 H   0  0  0  0  0  0  0  0  0  0  0  0
    4.8985    4.2728   -4.0149 H   0  0  0  0  0  0  0  0  0  0  0  0
    3.6112    2.3972   -5.7469 S   0  0  0  0  0  0  0  0  0  0  0  0
    3.5635    1.1720   -6.5377 O   0  0  0  0  0  0  0  0  0  0  0  0
    3.8083    3.7106   -6.3354 O   0  0  0  0  0  0  0  0  0  0  0  0
    2.1520    2.5564   -4.9309 O   0  0  0  0  0  0  0  0  0  0  0  0
    7.1811    1.5841   -0.9212 C   0  0  0  0  0  0  0  0  0  0  0  0
    6.5591    1.5140   -0.0270 H   0  0  0  0  0  0  0  0  0  0  0  0
    7.7633    0.6662   -0.9936 H   0  0  0  0  0  0  0  0  0  0  0  0
    7.8716    2.4150   -0.7812 H   0  0  0  0  0  0  0  0  0  0  0  0
  1  6  2  0  0  0  0
  2  3  2  0  0  0  0
  2  1  1  0  0  0  0
  3  4  1  0  0  0  0
  4  9  1  0  0  0  0
  4  5  2  0  0  0  0
  5 10  1  0  0  0  0
  6  5  1  0  0  0  0
  6 11  1  0  0  0  0
  7  1  1  0  0  0  0
  8  2  1  0  0  0  0
 11 12  2  0  0  0  0
 13 11  2  0  0  0  0
 14 15  3  0  0  0  0
 16 17  1  0  0  0  0
 17 23  1  0  0  0  0
 17 18  2  0  0  0  0
 18 30  1  0  0  0  0
 19 18  1  0  0  0  0
 19 24  1  0  0  0  0
 20 19  2  0  0  0  0
 21 16  2  0  0  0  0
 21 20  1  0  0  0  0
 22 16  1  0  0  0  0
 25 20  1  0  0  0  0
 26 29  1  0  0  0  0
 26 21  1  0  0  0  0
 27 26  2  0  0  0  0
 28 26  2  0  0  0  0
 29  3  1  0  0  0  0
 30 33  1  0  0  0  0
 30 31  1  0  0  0  0
 32 30  1  0  0  0  0
M  END
