Coordinates from ORCA-job p-NO2-Ph-N2-OTs-MP2-6-31G_dp-scan-d09-49-n400
 OpenBabel02121707583D

 33 33  0  0  0  0  0  0  0  0999 V2000
    0.7494   -0.5652   -4.2884 C   0  0  0  0  0  0  0  0  0  0  0  0
    1.2876    0.4784   -5.0392 C   0  0  0  0  0  0  0  0  0  0  0  0
    1.8912    1.5514   -4.3781 C   0  0  0  0  0  0  0  0  0  0  0  0
    1.9709    1.6035   -2.9839 C   0  0  0  0  0  0  0  0  0  0  0  0
    1.4288    0.5672   -2.2274 C   0  0  0  0  0  0  0  0  0  0  0  0
    0.8349   -0.5022   -2.8976 C   0  0  0  0  0  0  0  0  0  0  0  0
    0.2716   -1.4126   -4.7587 H   0  0  0  0  0  0  0  0  0  0  0  0
    1.2446    0.4752   -6.1195 H   0  0  0  0  0  0  0  0  0  0  0  0
    2.4442    2.4562   -2.5141 H   0  0  0  0  0  0  0  0  0  0  0  0
    1.4666    0.5707   -1.1475 H   0  0  0  0  0  0  0  0  0  0  0  0
    0.2606   -1.5979   -2.1048 N   0  0  0  0  0  0  0  0  0  0  0  0
    0.3884   -1.5406   -0.8700 O   0  0  0  0  0  0  0  0  0  0  0  0
   -0.3114   -2.5135   -2.7192 O   0  0  0  0  0  0  0  0  0  0  0  0
   -2.1957    1.7143   -3.0558 N   0  0  0  0  0  0  0  0  0  0  0  0
   -2.0726    0.6773   -2.6202 N   0  0  0  0  0  0  0  0  0  0  0  0
    5.1426    0.8272   -3.9843 C   0  0  0  0  0  0  0  0  0  0  0  0
    5.9020    0.6541   -2.8268 C   0  0  0  0  0  0  0  0  0  0  0  0
    6.4093    1.7524   -2.1184 C   0  0  0  0  0  0  0  0  0  0  0  0
    6.1485    3.0434   -2.6030 C   0  0  0  0  0  0  0  0  0  0  0  0
    5.3925    3.2443   -3.7571 C   0  0  0  0  0  0  0  0  0  0  0  0
    4.9050    2.1262   -4.4388 C   0  0  0  0  0  0  0  0  0  0  0  0
    4.7622   -0.0201   -4.5402 H   0  0  0  0  0  0  0  0  0  0  0  0
    6.1034   -0.3500   -2.4700 H   0  0  0  0  0  0  0  0  0  0  0  0
    6.5459    3.9020   -2.0729 H   0  0  0  0  0  0  0  0  0  0  0  0
    5.2044    4.2391   -4.1411 H   0  0  0  0  0  0  0  0  0  0  0  0
    3.8763    2.3709   -5.8508 S   0  0  0  0  0  0  0  0  0  0  0  0
    3.7937    1.1211   -6.5989 O   0  0  0  0  0  0  0  0  0  0  0  0
    4.1669    3.6496   -6.4757 O   0  0  0  0  0  0  0  0  0  0  0  0
    2.3954    2.6335   -5.1030 O   0  0  0  0  0  0  0  0  0  0  0  0
    7.1926    1.5532   -0.8483 C   0  0  0  0  0  0  0  0  0  0  0  0
    6.5324    1.5615    0.0209 H   0  0  0  0  0  0  0  0  0  0  0  0
    7.7176    0.5988   -0.8576 H   0  0  0  0  0  0  0  0  0  0  0  0
    7.9286    2.3452   -0.7139 H   0  0  0  0  0  0  0  0  0  0  0  0
  1  6  2  0  0  0  0
  2  3  2  0  0  0  0
  2  1  1  0  0  0  0
  3  4  1  0  0  0  0
  4  9  1  0  0  0  0
  4  5  2  0  0  0  0
  5 10  1  0  0  0  0
  6  5  1  0  0  0  0
  6 11  1  0  0  0  0
  7  1  1  0  0  0  0
  8  2  1  0  0  0  0
 11 12  2  0  0  0  0
 13 11  2  0  0  0  0
 14 15  3  0  0  0  0
 16 17  1  0  0  0  0
 17 23  1  0  0  0  0
 17 18  2  0  0  0  0
 18 30  1  0  0  0  0
 19 18  1  0  0  0  0
 19 24  1  0  0  0  0
 20 19  2  0  0  0  0
 21 16  2  0  0  0  0
 21 20  1  0  0  0  0
 22 16  1  0  0  0  0
 25 20  1  0  0  0  0
 26 29  1  0  0  0  0
 26 21  1  0  0  0  0
 27 26  2  0  0  0  0
 28 26  2  0  0  0  0
 29  3  1  0  0  0  0
 30 33  1  0  0  0  0
 30 31  1  0  0  0  0
 32 30  1  0  0  0  0
M  END
