Coordinates from ORCA-job p-NO2-Ph-N2-OTs-MP2-6-31G_dp-scan-d09-49-n400
 OpenBabel02121707583D

 33 33  0  0  0  0  0  0  0  0999 V2000
    0.7518   -0.5271   -4.3037 C   0  0  0  0  0  0  0  0  0  0  0  0
    1.3073    0.5054   -5.0576 C   0  0  0  0  0  0  0  0  0  0  0  0
    1.9160    1.5765   -4.3984 C   0  0  0  0  0  0  0  0  0  0  0  0
    1.9891    1.6360   -3.0042 C   0  0  0  0  0  0  0  0  0  0  0  0
    1.4279    0.6116   -2.2451 C   0  0  0  0  0  0  0  0  0  0  0  0
    0.8266   -0.4551   -2.9128 C   0  0  0  0  0  0  0  0  0  0  0  0
    0.2673   -1.3721   -4.7714 H   0  0  0  0  0  0  0  0  0  0  0  0
    1.2706    0.4968   -6.1381 H   0  0  0  0  0  0  0  0  0  0  0  0
    2.4697    2.4860   -2.5369 H   0  0  0  0  0  0  0  0  0  0  0  0
    1.4552    0.6229   -1.1650 H   0  0  0  0  0  0  0  0  0  0  0  0
    0.2233   -1.5328   -2.1173 N   0  0  0  0  0  0  0  0  0  0  0  0
    0.2767   -1.4313   -0.8800 O   0  0  0  0  0  0  0  0  0  0  0  0
   -0.3008   -2.4764   -2.7319 O   0  0  0  0  0  0  0  0  0  0  0  0
   -2.5501    1.4549   -2.8465 N   0  0  0  0  0  0  0  0  0  0  0  0
   -2.1077    0.4558   -2.5536 N   0  0  0  0  0  0  0  0  0  0  0  0
    5.1593    0.8228   -3.9840 C   0  0  0  0  0  0  0  0  0  0  0  0
    5.9113    0.6485   -2.8218 C   0  0  0  0  0  0  0  0  0  0  0  0
    6.4255    1.7454   -2.1165 C   0  0  0  0  0  0  0  0  0  0  0  0
    6.1794    3.0363   -2.6088 C   0  0  0  0  0  0  0  0  0  0  0  0
    5.4311    3.2385   -3.7677 C   0  0  0  0  0  0  0  0  0  0  0  0
    4.9363    2.1217   -4.4462 C   0  0  0  0  0  0  0  0  0  0  0  0
    4.7736   -0.0237   -4.5375 H   0  0  0  0  0  0  0  0  0  0  0  0
    6.1014   -0.3557   -2.4591 H   0  0  0  0  0  0  0  0  0  0  0  0
    6.5824    3.8938   -2.0811 H   0  0  0  0  0  0  0  0  0  0  0  0
    5.2545    4.2331   -4.1577 H   0  0  0  0  0  0  0  0  0  0  0  0
    3.9172    2.3690   -5.8648 S   0  0  0  0  0  0  0  0  0  0  0  0
    3.8270    1.1163   -6.6071 O   0  0  0  0  0  0  0  0  0  0  0  0
    4.2238    3.6415   -6.4948 O   0  0  0  0  0  0  0  0  0  0  0  0
    2.4354    2.6500   -5.1267 O   0  0  0  0  0  0  0  0  0  0  0  0
    7.2007    1.5453   -0.8415 C   0  0  0  0  0  0  0  0  0  0  0  0
    6.5364    1.5645    0.0244 H   0  0  0  0  0  0  0  0  0  0  0  0
    7.7164    0.5857   -0.8433 H   0  0  0  0  0  0  0  0  0  0  0  0
    7.9437    2.3308   -0.7076 H   0  0  0  0  0  0  0  0  0  0  0  0
  1  6  2  0  0  0  0
  2  3  2  0  0  0  0
  2  1  1  0  0  0  0
  3  4  1  0  0  0  0
  4  9  1  0  0  0  0
  4  5  2  0  0  0  0
  5 10  1  0  0  0  0
  6  5  1  0  0  0  0
  6 11  1  0  0  0  0
  7  1  1  0  0  0  0
  8  2  1  0  0  0  0
 11 12  2  0  0  0  0
 13 11  2  0  0  0  0
 14 15  3  0  0  0  0
 16 17  1  0  0  0  0
 17 23  1  0  0  0  0
 17 18  2  0  0  0  0
 18 30  1  0  0  0  0
 19 18  1  0  0  0  0
 19 24  1  0  0  0  0
 20 19  2  0  0  0  0
 21 16  2  0  0  0  0
 21 20  1  0  0  0  0
 22 16  1  0  0  0  0
 25 20  1  0  0  0  0
 26 29  1  0  0  0  0
 26 21  1  0  0  0  0
 27 26  2  0  0  0  0
 28 26  2  0  0  0  0
 29  3  1  0  0  0  0
 30 33  1  0  0  0  0
 30 31  1  0  0  0  0
 32 30  1  0  0  0  0
M  END
