Coordinates from ORCA-job p-NO2-Ph-N2-OTs-MP2-6-31G_dp-scan-d09-49-n400
 OpenBabel02121707583D

 33 33  0  0  0  0  0  0  0  0999 V2000
    0.7473   -0.5235   -4.3060 C   0  0  0  0  0  0  0  0  0  0  0  0
    1.3026    0.5087   -5.0603 C   0  0  0  0  0  0  0  0  0  0  0  0
    1.9131    1.5796   -4.4023 C   0  0  0  0  0  0  0  0  0  0  0  0
    1.9841    1.6403   -3.0080 C   0  0  0  0  0  0  0  0  0  0  0  0
    1.4251    0.6155   -2.2482 C   0  0  0  0  0  0  0  0  0  0  0  0
    0.8241   -0.4521   -2.9151 C   0  0  0  0  0  0  0  0  0  0  0  0
    0.2633   -1.3688   -4.7737 H   0  0  0  0  0  0  0  0  0  0  0  0
    1.2670    0.4984   -6.1408 H   0  0  0  0  0  0  0  0  0  0  0  0
    2.4635    2.4911   -2.5407 H   0  0  0  0  0  0  0  0  0  0  0  0
    1.4556    0.6261   -1.1681 H   0  0  0  0  0  0  0  0  0  0  0  0
    0.2338   -1.5366   -2.1188 N   0  0  0  0  0  0  0  0  0  0  0  0
    0.3576   -1.4741   -0.8840 O   0  0  0  0  0  0  0  0  0  0  0  0
   -0.3482   -2.4474   -2.7307 O   0  0  0  0  0  0  0  0  0  0  0  0
   -2.4264    1.4650   -2.8828 N   0  0  0  0  0  0  0  0  0  0  0  0
   -2.1483    0.4366   -2.5020 N   0  0  0  0  0  0  0  0  0  0  0  0
    5.1535    0.8221   -3.9819 C   0  0  0  0  0  0  0  0  0  0  0  0
    5.9033    0.6482   -2.8182 C   0  0  0  0  0  0  0  0  0  0  0  0
    6.4183    1.7454   -2.1138 C   0  0  0  0  0  0  0  0  0  0  0  0
    6.1753    3.0360   -2.6087 C   0  0  0  0  0  0  0  0  0  0  0  0
    5.4292    3.2377   -3.7691 C   0  0  0  0  0  0  0  0  0  0  0  0
    4.9336    2.1206   -4.4466 C   0  0  0  0  0  0  0  0  0  0  0  0
    4.7672   -0.0246   -4.5347 H   0  0  0  0  0  0  0  0  0  0  0  0
    6.0909   -0.3557   -2.4535 H   0  0  0  0  0  0  0  0  0  0  0  0
    6.5789    3.8936   -2.0817 H   0  0  0  0  0  0  0  0  0  0  0  0
    5.2549    4.2319   -4.1609 H   0  0  0  0  0  0  0  0  0  0  0  0
    3.9170    2.3674   -5.8671 S   0  0  0  0  0  0  0  0  0  0  0  0
    3.8258    1.1138   -6.6077 O   0  0  0  0  0  0  0  0  0  0  0  0
    4.2260    3.6387   -6.4982 O   0  0  0  0  0  0  0  0  0  0  0  0
    2.4342    2.6512   -5.1311 O   0  0  0  0  0  0  0  0  0  0  0  0
    7.1909    1.5460   -0.8372 C   0  0  0  0  0  0  0  0  0  0  0  0
    6.5250    1.5667    0.0274 H   0  0  0  0  0  0  0  0  0  0  0  0
    7.7057    0.5859   -0.8370 H   0  0  0  0  0  0  0  0  0  0  0  0
    7.9344    2.3309   -0.7028 H   0  0  0  0  0  0  0  0  0  0  0  0
  1  6  2  0  0  0  0
  2  3  2  0  0  0  0
  2  1  1  0  0  0  0
  3  4  1  0  0  0  0
  4  9  1  0  0  0  0
  4  5  2  0  0  0  0
  5 10  1  0  0  0  0
  6  5  1  0  0  0  0
  6 11  1  0  0  0  0
  7  1  1  0  0  0  0
  8  2  1  0  0  0  0
 11 12  2  0  0  0  0
 13 11  2  0  0  0  0
 14 15  3  0  0  0  0
 16 17  1  0  0  0  0
 17 23  1  0  0  0  0
 17 18  2  0  0  0  0
 18 30  1  0  0  0  0
 19 18  1  0  0  0  0
 19 24  1  0  0  0  0
 20 19  2  0  0  0  0
 21 16  2  0  0  0  0
 21 20  1  0  0  0  0
 22 16  1  0  0  0  0
 25 20  1  0  0  0  0
 26 29  1  0  0  0  0
 26 21  1  0  0  0  0
 27 26  2  0  0  0  0
 28 26  2  0  0  0  0
 29  3  1  0  0  0  0
 30 32  1  0  0  0  0
 30 33  1  0  0  0  0
 30 31  1  0  0  0  0
M  END
