Coordinates from ORCA-job p-NO2-Ph-N2-OTs-MP2-6-31G_dp-scan-d09-49-n400
 OpenBabel02121707583D

 33 33  0  0  0  0  0  0  0  0999 V2000
    0.7236   -0.7202   -4.2042 C   0  0  0  0  0  0  0  0  0  0  0  0
    1.2093    0.3609   -4.9373 C   0  0  0  0  0  0  0  0  0  0  0  0
    1.7953    1.4333   -4.2599 C   0  0  0  0  0  0  0  0  0  0  0  0
    1.9216    1.4432   -2.8683 C   0  0  0  0  0  0  0  0  0  0  0  0
    1.4315    0.3696   -2.1288 C   0  0  0  0  0  0  0  0  0  0  0  0
    0.8439   -0.6939   -2.8145 C   0  0  0  0  0  0  0  0  0  0  0  0
    0.2578   -1.5678   -4.6862 H   0  0  0  0  0  0  0  0  0  0  0  0
    1.1311    0.3919   -6.0152 H   0  0  0  0  0  0  0  0  0  0  0  0
    2.3808    2.2973   -2.3870 H   0  0  0  0  0  0  0  0  0  0  0  0
    1.5015    0.3411   -1.0509 H   0  0  0  0  0  0  0  0  0  0  0  0
    0.3310   -1.8331   -2.0398 N   0  0  0  0  0  0  0  0  0  0  0  0
    0.4701   -1.7969   -0.8054 O   0  0  0  0  0  0  0  0  0  0  0  0
   -0.2054   -2.7608   -2.6684 O   0  0  0  0  0  0  0  0  0  0  0  0
   -1.0401    2.5046   -3.8021 N   0  0  0  0  0  0  0  0  0  0  0  0
   -1.6560    1.7262   -3.2578 N   0  0  0  0  0  0  0  0  0  0  0  0
    5.0929    0.8537   -3.9918 C   0  0  0  0  0  0  0  0  0  0  0  0
    5.8994    0.6852   -2.8658 C   0  0  0  0  0  0  0  0  0  0  0  0
    6.3785    1.7864   -2.1427 C   0  0  0  0  0  0  0  0  0  0  0  0
    6.0405    3.0764   -2.5801 C   0  0  0  0  0  0  0  0  0  0  0  0
    5.2365    3.2727   -3.7021 C   0  0  0  0  0  0  0  0  0  0  0  0
    4.7791    2.1518   -4.4000 C   0  0  0  0  0  0  0  0  0  0  0  0
    4.7341    0.0049   -4.5597 H   0  0  0  0  0  0  0  0  0  0  0  0
    6.1602   -0.3176   -2.5457 H   0  0  0  0  0  0  0  0  0  0  0  0
    6.4151    3.9380   -2.0385 H   0  0  0  0  0  0  0  0  0  0  0  0
    4.9886    4.2676   -4.0502 H   0  0  0  0  0  0  0  0  0  0  0  0
    3.6913    2.3861   -5.7689 S   0  0  0  0  0  0  0  0  0  0  0  0
    3.6394    1.1542   -6.5488 O   0  0  0  0  0  0  0  0  0  0  0  0
    3.9016    3.6931   -6.3667 O   0  0  0  0  0  0  0  0  0  0  0  0
    2.2276    2.5590   -4.9635 O   0  0  0  0  0  0  0  0  0  0  0  0
    7.2140    1.5901   -0.9057 C   0  0  0  0  0  0  0  0  0  0  0  0
    6.5850    1.5457   -0.0148 H   0  0  0  0  0  0  0  0  0  0  0  0
    7.7804    0.6611   -0.9592 H   0  0  0  0  0  0  0  0  0  0  0  0
    7.9182    2.4110   -0.7745 H   0  0  0  0  0  0  0  0  0  0  0  0
  1  6  2  0  0  0  0
  2  3  2  0  0  0  0
  2  1  1  0  0  0  0
  3  4  1  0  0  0  0
  4  9  1  0  0  0  0
  4  5  2  0  0  0  0
  5 10  1  0  0  0  0
  6  5  1  0  0  0  0
  6 11  1  0  0  0  0
  7  1  1  0  0  0  0
  8  2  1  0  0  0  0
 11 12  2  0  0  0  0
 13 11  2  0  0  0  0
 14 15  3  0  0  0  0
 16 17  1  0  0  0  0
 17 23  1  0  0  0  0
 17 18  2  0  0  0  0
 18 30  1  0  0  0  0
 19 18  1  0  0  0  0
 19 24  1  0  0  0  0
 20 19  2  0  0  0  0
 21 16  2  0  0  0  0
 21 20  1  0  0  0  0
 22 16  1  0  0  0  0
 25 20  1  0  0  0  0
 26 29  1  0  0  0  0
 26 21  1  0  0  0  0
 27 26  2  0  0  0  0
 28 26  2  0  0  0  0
 29  3  1  0  0  0  0
 30 33  1  0  0  0  0
 30 31  1  0  0  0  0
 32 30  1  0  0  0  0
M  END
