Coordinates from ORCA-job p-NO2-Ph-N2-OTs-MP2-6-31G_dp-scan-d09-49-n400
 OpenBabel02121707583D

 33 33  0  0  0  0  0  0  0  0999 V2000
    0.7521   -0.6139   -4.2621 C   0  0  0  0  0  0  0  0  0  0  0  0
    1.2642    0.4456   -5.0093 C   0  0  0  0  0  0  0  0  0  0  0  0
    1.8623    1.5201   -4.3454 C   0  0  0  0  0  0  0  0  0  0  0  0
    1.9493    1.5645   -2.9512 C   0  0  0  0  0  0  0  0  0  0  0  0
    1.4330    0.5125   -2.1982 C   0  0  0  0  0  0  0  0  0  0  0  0
    0.8493   -0.5606   -2.8716 C   0  0  0  0  0  0  0  0  0  0  0  0
    0.2827   -1.4647   -4.7348 H   0  0  0  0  0  0  0  0  0  0  0  0
    1.2114    0.4508   -6.0892 H   0  0  0  0  0  0  0  0  0  0  0  0
    2.4146    2.4206   -2.4794 H   0  0  0  0  0  0  0  0  0  0  0  0
    1.4799    0.5085   -1.1187 H   0  0  0  0  0  0  0  0  0  0  0  0
    0.3081   -1.6762   -2.0828 N   0  0  0  0  0  0  0  0  0  0  0  0
    0.4340   -1.6198   -0.8478 O   0  0  0  0  0  0  0  0  0  0  0  0
   -0.2351   -2.6070   -2.7007 O   0  0  0  0  0  0  0  0  0  0  0  0
   -1.9087    2.0095   -3.2854 N   0  0  0  0  0  0  0  0  0  0  0  0
   -1.9622    0.9885   -2.8001 N   0  0  0  0  0  0  0  0  0  0  0  0
    5.1230    0.8325   -3.9866 C   0  0  0  0  0  0  0  0  0  0  0  0
    5.8947    0.6592   -2.8373 C   0  0  0  0  0  0  0  0  0  0  0  0
    6.3957    1.7576   -2.1248 C   0  0  0  0  0  0  0  0  0  0  0  0
    6.1158    3.0493   -2.5968 C   0  0  0  0  0  0  0  0  0  0  0  0
    5.3474    3.2505   -3.7425 C   0  0  0  0  0  0  0  0  0  0  0  0
    4.8666    2.1322   -4.4287 C   0  0  0  0  0  0  0  0  0  0  0  0
    4.7475   -0.0148   -4.5459 H   0  0  0  0  0  0  0  0  0  0  0  0
    6.1107   -0.3453   -2.4903 H   0  0  0  0  0  0  0  0  0  0  0  0
    6.5082    3.9082   -2.0635 H   0  0  0  0  0  0  0  0  0  0  0  0
    5.1444    4.2461   -4.1169 H   0  0  0  0  0  0  0  0  0  0  0  0
    3.8224    2.3761   -5.8295 S   0  0  0  0  0  0  0  0  0  0  0  0
    3.7479    1.1316   -6.5872 O   0  0  0  0  0  0  0  0  0  0  0  0
    4.0918    3.6633   -6.4463 O   0  0  0  0  0  0  0  0  0  0  0  0
    2.3452    2.6144   -5.0661 O   0  0  0  0  0  0  0  0  0  0  0  0
    7.1926    1.5576   -0.8632 C   0  0  0  0  0  0  0  0  0  0  0  0
    6.5402    1.5519    0.0118 H   0  0  0  0  0  0  0  0  0  0  0  0
    7.7280    0.6091   -0.8846 H   0  0  0  0  0  0  0  0  0  0  0  0
    7.9209    2.3567   -0.7293 H   0  0  0  0  0  0  0  0  0  0  0  0
  1  6  2  0  0  0  0
  2  3  2  0  0  0  0
  2  1  1  0  0  0  0
  3  4  1  0  0  0  0
  4  9  1  0  0  0  0
  4  5  2  0  0  0  0
  5 10  1  0  0  0  0
  6  5  1  0  0  0  0
  6 11  1  0  0  0  0
  7  1  1  0  0  0  0
  8  2  1  0  0  0  0
 11 12  2  0  0  0  0
 13 11  2  0  0  0  0
 14 15  3  0  0  0  0
 16 17  1  0  0  0  0
 17 23  1  0  0  0  0
 17 18  2  0  0  0  0
 18 30  1  0  0  0  0
 19 18  1  0  0  0  0
 19 24  1  0  0  0  0
 20 19  2  0  0  0  0
 21 16  2  0  0  0  0
 21 20  1  0  0  0  0
 22 16  1  0  0  0  0
 25 20  1  0  0  0  0
 26 29  1  0  0  0  0
 26 21  1  0  0  0  0
 27 26  2  0  0  0  0
 28 26  2  0  0  0  0
 29  3  1  0  0  0  0
 30 33  1  0  0  0  0
 30 31  1  0  0  0  0
 32 30  1  0  0  0  0
M  END
