Coordinates from ORCA-job p-NO2-Ph-N2-OTs-MP2-6-31G_dp-scan-d09-49-n400
 OpenBabel02121707583D

 33 33  0  0  0  0  0  0  0  0999 V2000
    2.1788   -0.4350   -3.3567 C   0  0  0  0  0  0  0  0  0  0  0  0
    1.5662    0.1527   -4.4761 C   0  0  0  0  0  0  0  0  0  0  0  0
    0.9348    1.3097   -4.1356 C   0  0  0  0  0  0  0  0  0  0  0  0
    0.7730    2.0270   -2.9861 C   0  0  0  0  0  0  0  0  0  0  0  0
    1.4100    1.3991   -1.9072 C   0  0  0  0  0  0  0  0  0  0  0  0
    2.1032    0.2035   -2.1193 C   0  0  0  0  0  0  0  0  0  0  0  0
    2.7429   -1.3504   -3.4631 H   0  0  0  0  0  0  0  0  0  0  0  0
    1.6688   -0.2070   -5.4871 H   0  0  0  0  0  0  0  0  0  0  0  0
    0.2956    2.9921   -2.9292 H   0  0  0  0  0  0  0  0  0  0  0  0
    1.4103    1.8612   -0.9298 H   0  0  0  0  0  0  0  0  0  0  0  0
    2.8226   -0.3944   -0.9891 N   0  0  0  0  0  0  0  0  0  0  0  0
    2.9215    0.2834    0.0467 O   0  0  0  0  0  0  0  0  0  0  0  0
    3.2923   -1.5326   -1.1534 O   0  0  0  0  0  0  0  0  0  0  0  0
    0.1785    2.1538   -5.6387 N   0  0  0  0  0  0  0  0  0  0  0  0
   -0.3776    2.6157   -6.5085 N   0  0  0  0  0  0  0  0  0  0  0  0
    4.7885    0.8863   -4.6429 C   0  0  0  0  0  0  0  0  0  0  0  0
    5.4804    0.2380   -3.6173 C   0  0  0  0  0  0  0  0  0  0  0  0
    5.5254    0.7715   -2.3197 C   0  0  0  0  0  0  0  0  0  0  0  0
    4.8566    1.9809   -2.0784 C   0  0  0  0  0  0  0  0  0  0  0  0
    4.1604    2.6380   -3.0963 C   0  0  0  0  0  0  0  0  0  0  0  0
    4.1135    2.0836   -4.3790 C   0  0  0  0  0  0  0  0  0  0  0  0
    4.7536    0.4699   -5.6429 H   0  0  0  0  0  0  0  0  0  0  0  0
    6.0074   -0.6875   -3.8285 H   0  0  0  0  0  0  0  0  0  0  0  0
    4.8929    2.4174   -1.0849 H   0  0  0  0  0  0  0  0  0  0  0  0
    3.6469    3.5735   -2.9099 H   0  0  0  0  0  0  0  0  0  0  0  0
    3.1964    2.9107   -5.6864 S   0  0  0  0  0  0  0  0  0  0  0  0
    2.6181    1.7739   -6.4788 O   0  0  0  0  0  0  0  0  0  0  0  0
    4.1474    3.7670   -6.4063 O   0  0  0  0  0  0  0  0  0  0  0  0
    2.1101    3.6328   -4.9386 O   0  0  0  0  0  0  0  0  0  0  0  0
    6.2489    0.0584   -1.2070 C   0  0  0  0  0  0  0  0  0  0  0  0
    5.5664   -0.5619   -0.6230 H   0  0  0  0  0  0  0  0  0  0  0  0
    7.0306   -0.5892   -1.6037 H   0  0  0  0  0  0  0  0  0  0  0  0
    6.7140    0.7724   -0.5273 H   0  0  0  0  0  0  0  0  0  0  0  0
  1  6  2  0  0  0  0
  2  3  2  0  0  0  0
  2  1  1  0  0  0  0
  3  4  1  0  0  0  0
  4  9  1  0  0  0  0
  4  5  2  0  0  0  0
  5 10  1  0  0  0  0
  6  5  1  0  0  0  0
  6 11  1  0  0  0  0
  7  1  1  0  0  0  0
  8  2  1  0  0  0  0
 11 12  2  0  0  0  0
 13 11  2  0  0  0  0
 14  3  1  0  0  0  0
 15 14  1  0  0  0  0
 16 21  2  0  0  0  0
 16 17  1  0  0  0  0
 17 18  2  0  0  0  0
 18 19  1  0  0  0  0
 18 30  1  0  0  0  0
 19 24  1  0  0  0  0
 20 25  1  0  0  0  0
 20 19  2  0  0  0  0
 21 20  1  0  0  0  0
 22 16  1  0  0  0  0
 23 17  1  0  0  0  0
 26 29  1  0  0  0  0
 26 21  1  0  0  0  0
 27 26  2  0  0  0  0
 28 26  2  0  0  0  0
 30 31  1  0  0  0  0
 30 33  1  0  0  0  0
 32 30  1  0  0  0  0
M  RAD  3  14   2  15   3  29   2
M  END
