Coordinates from ORCA-job p-NO2-Ph-N2-OTs-MP2-6-31G_dp-scan-d09-49-n400
 OpenBabel02121707583D

 33 33  0  0  0  0  0  0  0  0999 V2000
    0.7548   -0.5164   -4.3105 C   0  0  0  0  0  0  0  0  0  0  0  0
    1.3126    0.5137   -5.0657 C   0  0  0  0  0  0  0  0  0  0  0  0
    1.9227    1.5852   -4.4084 C   0  0  0  0  0  0  0  0  0  0  0  0
    1.9896    1.6494   -3.0142 C   0  0  0  0  0  0  0  0  0  0  0  0
    1.4262    0.6276   -2.2536 C   0  0  0  0  0  0  0  0  0  0  0  0
    0.8262   -0.4411   -2.9195 C   0  0  0  0  0  0  0  0  0  0  0  0
    0.2721   -1.3630   -4.7775 H   0  0  0  0  0  0  0  0  0  0  0  0
    1.2793    0.5013   -6.1463 H   0  0  0  0  0  0  0  0  0  0  0  0
    2.4698    2.5001   -2.5476 H   0  0  0  0  0  0  0  0  0  0  0  0
    1.4521    0.6416   -1.1735 H   0  0  0  0  0  0  0  0  0  0  0  0
    0.2329   -1.5233   -2.1227 N   0  0  0  0  0  0  0  0  0  0  0  0
    0.2948   -1.4248   -0.8856 O   0  0  0  0  0  0  0  0  0  0  0  0
   -0.2894   -2.4686   -2.7361 O   0  0  0  0  0  0  0  0  0  0  0  0
   -2.6320    1.4026   -2.7820 N   0  0  0  0  0  0  0  0  0  0  0  0
   -2.1537    0.4141   -2.5101 N   0  0  0  0  0  0  0  0  0  0  0  0
    5.1600    0.8204   -3.9830 C   0  0  0  0  0  0  0  0  0  0  0  0
    5.9077    0.6456   -2.8181 C   0  0  0  0  0  0  0  0  0  0  0  0
    6.4247    1.7421   -2.1140 C   0  0  0  0  0  0  0  0  0  0  0  0
    6.1858    3.0328   -2.6103 C   0  0  0  0  0  0  0  0  0  0  0  0
    5.4418    3.2355   -3.7719 C   0  0  0  0  0  0  0  0  0  0  0  0
    4.9442    2.1191   -4.4491 C   0  0  0  0  0  0  0  0  0  0  0  0
    4.7722   -0.0257   -4.5355 H   0  0  0  0  0  0  0  0  0  0  0  0
    6.0922   -0.3585   -2.4523 H   0  0  0  0  0  0  0  0  0  0  0  0
    6.5910    3.8899   -2.0835 H   0  0  0  0  0  0  0  0  0  0  0  0
    5.2707    4.2298   -4.1648 H   0  0  0  0  0  0  0  0  0  0  0  0
    3.9304    2.3673   -5.8713 S   0  0  0  0  0  0  0  0  0  0  0  0
    3.8380    1.1135   -6.6115 O   0  0  0  0  0  0  0  0  0  0  0  0
    4.2433    3.6376   -6.5027 O   0  0  0  0  0  0  0  0  0  0  0  0
    2.4471    2.6548   -5.1383 O   0  0  0  0  0  0  0  0  0  0  0  0
    7.1952    1.5417   -0.8362 C   0  0  0  0  0  0  0  0  0  0  0  0
    6.5283    1.5659    0.0276 H   0  0  0  0  0  0  0  0  0  0  0  0
    7.7067    0.5799   -0.8341 H   0  0  0  0  0  0  0  0  0  0  0  0
    7.9411    2.3243   -0.7019 H   0  0  0  0  0  0  0  0  0  0  0  0
  1  6  2  0  0  0  0
  2  3  2  0  0  0  0
  2  1  1  0  0  0  0
  3  4  1  0  0  0  0
  4  9  1  0  0  0  0
  4  5  2  0  0  0  0
  5 10  1  0  0  0  0
  6  5  1  0  0  0  0
  6 11  1  0  0  0  0
  7  1  1  0  0  0  0
  8  2  1  0  0  0  0
 11 12  2  0  0  0  0
 13 11  2  0  0  0  0
 14 15  3  0  0  0  0
 16 17  1  0  0  0  0
 17 23  1  0  0  0  0
 17 18  2  0  0  0  0
 18 30  1  0  0  0  0
 19 18  1  0  0  0  0
 19 24  1  0  0  0  0
 20 19  2  0  0  0  0
 21 16  2  0  0  0  0
 21 20  1  0  0  0  0
 22 16  1  0  0  0  0
 25 20  1  0  0  0  0
 26 29  1  0  0  0  0
 26 21  1  0  0  0  0
 27 26  2  0  0  0  0
 28 26  2  0  0  0  0
 29  3  1  0  0  0  0
 30 32  1  0  0  0  0
 30 33  1  0  0  0  0
 30 31  1  0  0  0  0
M  END
