Coordinates from ORCA-job p-NO2-Ph-N2-OTs-MP2-6-31G_dp-scan-d09-49-n400
 OpenBabel02121707583D

 33 33  0  0  0  0  0  0  0  0999 V2000
    0.7226   -0.7212   -4.2034 C   0  0  0  0  0  0  0  0  0  0  0  0
    1.2085    0.3600   -4.9364 C   0  0  0  0  0  0  0  0  0  0  0  0
    1.7938    1.4325   -4.2589 C   0  0  0  0  0  0  0  0  0  0  0  0
    1.9219    1.4415   -2.8674 C   0  0  0  0  0  0  0  0  0  0  0  0
    1.4318    0.3679   -2.1280 C   0  0  0  0  0  0  0  0  0  0  0  0
    0.8436   -0.6953   -2.8137 C   0  0  0  0  0  0  0  0  0  0  0  0
    0.2567   -1.5687   -4.6854 H   0  0  0  0  0  0  0  0  0  0  0  0
    1.1296    0.3914   -6.0143 H   0  0  0  0  0  0  0  0  0  0  0  0
    2.3814    2.2955   -2.3861 H   0  0  0  0  0  0  0  0  0  0  0  0
    1.5025    0.3389   -1.0502 H   0  0  0  0  0  0  0  0  0  0  0  0
    0.3302   -1.8343   -2.0391 N   0  0  0  0  0  0  0  0  0  0  0  0
    0.4692   -1.7981   -0.8047 O   0  0  0  0  0  0  0  0  0  0  0  0
   -0.2072   -2.7614   -2.6676 O   0  0  0  0  0  0  0  0  0  0  0  0
   -1.0202    2.5057   -3.8078 N   0  0  0  0  0  0  0  0  0  0  0  0
   -1.6441    1.7335   -3.2636 N   0  0  0  0  0  0  0  0  0  0  0  0
    5.0920    0.8541   -3.9921 C   0  0  0  0  0  0  0  0  0  0  0  0
    5.8990    0.6857   -2.8664 C   0  0  0  0  0  0  0  0  0  0  0  0
    6.3776    1.7869   -2.1429 C   0  0  0  0  0  0  0  0  0  0  0  0
    6.0387    3.0768   -2.5798 C   0  0  0  0  0  0  0  0  0  0  0  0
    5.2343    3.2732   -3.7014 C   0  0  0  0  0  0  0  0  0  0  0  0
    4.7773    2.1523   -4.3996 C   0  0  0  0  0  0  0  0  0  0  0  0
    4.7337    0.0053   -4.5603 H   0  0  0  0  0  0  0  0  0  0  0  0
    6.1605   -0.3171   -2.5468 H   0  0  0  0  0  0  0  0  0  0  0  0
    6.4128    3.9385   -2.0378 H   0  0  0  0  0  0  0  0  0  0  0  0
    4.9856    4.2680   -4.0490 H   0  0  0  0  0  0  0  0  0  0  0  0
    3.6890    2.3865   -5.7682 S   0  0  0  0  0  0  0  0  0  0  0  0
    3.6375    1.1547   -6.5484 O   0  0  0  0  0  0  0  0  0  0  0  0
    3.8987    3.6937   -6.3657 O   0  0  0  0  0  0  0  0  0  0  0  0
    2.2255    2.5586   -4.9624 O   0  0  0  0  0  0  0  0  0  0  0  0
    7.2135    1.5905   -0.9063 C   0  0  0  0  0  0  0  0  0  0  0  0
    6.5848    1.5454   -0.0152 H   0  0  0  0  0  0  0  0  0  0  0  0
    7.7804    0.6619   -0.9602 H   0  0  0  0  0  0  0  0  0  0  0  0
    7.9173    2.4117   -0.7750 H   0  0  0  0  0  0  0  0  0  0  0  0
  1  6  2  0  0  0  0
  2  3  2  0  0  0  0
  2  1  1  0  0  0  0
  3  4  1  0  0  0  0
  4  9  1  0  0  0  0
  4  5  2  0  0  0  0
  5 10  1  0  0  0  0
  6  5  1  0  0  0  0
  6 11  1  0  0  0  0
  7  1  1  0  0  0  0
  8  2  1  0  0  0  0
 11 12  2  0  0  0  0
 13 11  2  0  0  0  0
 14 15  3  0  0  0  0
 16 17  1  0  0  0  0
 17 23  1  0  0  0  0
 17 18  2  0  0  0  0
 18 30  1  0  0  0  0
 19 18  1  0  0  0  0
 19 24  1  0  0  0  0
 20 19  2  0  0  0  0
 21 16  2  0  0  0  0
 21 20  1  0  0  0  0
 22 16  1  0  0  0  0
 25 20  1  0  0  0  0
 26 29  1  0  0  0  0
 26 21  1  0  0  0  0
 27 26  2  0  0  0  0
 28 26  2  0  0  0  0
 29  3  1  0  0  0  0
 30 33  1  0  0  0  0
 30 31  1  0  0  0  0
 32 30  1  0  0  0  0
M  END
