Coordinates from ORCA-job p-NO2-Ph-N2-OTs-MP2-6-31G_dp-scan-d09-49-n400
 OpenBabel02121707583D

 33 33  0  0  0  0  0  0  0  0999 V2000
    0.7247   -0.7193   -4.2051 C   0  0  0  0  0  0  0  0  0  0  0  0
    1.2104    0.3619   -4.9382 C   0  0  0  0  0  0  0  0  0  0  0  0
    1.7966    1.4342   -4.2609 C   0  0  0  0  0  0  0  0  0  0  0  0
    1.9215    1.4449   -2.8692 C   0  0  0  0  0  0  0  0  0  0  0  0
    1.4315    0.3712   -2.1297 C   0  0  0  0  0  0  0  0  0  0  0  0
    0.8444   -0.6926   -2.8153 C   0  0  0  0  0  0  0  0  0  0  0  0
    0.2591   -1.5669   -4.6871 H   0  0  0  0  0  0  0  0  0  0  0  0
    1.1328    0.3925   -6.0162 H   0  0  0  0  0  0  0  0  0  0  0  0
    2.3807    2.2990   -2.3879 H   0  0  0  0  0  0  0  0  0  0  0  0
    1.5008    0.3431   -1.0517 H   0  0  0  0  0  0  0  0  0  0  0  0
    0.3317   -1.8318   -2.0406 N   0  0  0  0  0  0  0  0  0  0  0  0
    0.4698   -1.7951   -0.8062 O   0  0  0  0  0  0  0  0  0  0  0  0
   -0.2047   -2.7595   -2.6691 O   0  0  0  0  0  0  0  0  0  0  0  0
   -1.0604    2.5026   -3.7957 N   0  0  0  0  0  0  0  0  0  0  0  0
   -1.6678    1.7177   -3.2513 N   0  0  0  0  0  0  0  0  0  0  0  0
    5.0937    0.8532   -3.9914 C   0  0  0  0  0  0  0  0  0  0  0  0
    5.8998    0.6848   -2.8652 C   0  0  0  0  0  0  0  0  0  0  0  0
    6.3795    1.7860   -2.1424 C   0  0  0  0  0  0  0  0  0  0  0  0
    6.0425    3.0760   -2.5806 C   0  0  0  0  0  0  0  0  0  0  0  0
    5.2389    3.2724   -3.7028 C   0  0  0  0  0  0  0  0  0  0  0  0
    4.7809    2.1515   -4.4003 C   0  0  0  0  0  0  0  0  0  0  0  0
    4.7346    0.0044   -4.5591 H   0  0  0  0  0  0  0  0  0  0  0  0
    6.1598   -0.3181   -2.5445 H   0  0  0  0  0  0  0  0  0  0  0  0
    6.4174    3.9377   -2.0392 H   0  0  0  0  0  0  0  0  0  0  0  0
    4.9917    4.2672   -4.0514 H   0  0  0  0  0  0  0  0  0  0  0  0
    3.6936    2.3858   -5.7696 S   0  0  0  0  0  0  0  0  0  0  0  0
    3.6414    1.1536   -6.5492 O   0  0  0  0  0  0  0  0  0  0  0  0
    3.9046    3.6926   -6.3678 O   0  0  0  0  0  0  0  0  0  0  0  0
    2.2298    2.5595   -4.9647 O   0  0  0  0  0  0  0  0  0  0  0  0
    7.2145    1.5897   -0.9052 C   0  0  0  0  0  0  0  0  0  0  0  0
    6.5852    1.5460   -0.0144 H   0  0  0  0  0  0  0  0  0  0  0  0
    7.7803    0.6603   -0.9581 H   0  0  0  0  0  0  0  0  0  0  0  0
    7.9191    2.4102   -0.7741 H   0  0  0  0  0  0  0  0  0  0  0  0
  1  6  2  0  0  0  0
  2  3  2  0  0  0  0
  2  1  1  0  0  0  0
  3  4  1  0  0  0  0
  4  9  1  0  0  0  0
  4  5  2  0  0  0  0
  5 10  1  0  0  0  0
  6  5  1  0  0  0  0
  6 11  1  0  0  0  0
  7  1  1  0  0  0  0
  8  2  1  0  0  0  0
 11 12  2  0  0  0  0
 13 11  2  0  0  0  0
 14 15  3  0  0  0  0
 16 17  1  0  0  0  0
 17 23  1  0  0  0  0
 17 18  2  0  0  0  0
 18 30  1  0  0  0  0
 19 18  1  0  0  0  0
 19 24  1  0  0  0  0
 20 19  2  0  0  0  0
 21 16  2  0  0  0  0
 21 20  1  0  0  0  0
 22 16  1  0  0  0  0
 25 20  1  0  0  0  0
 26 29  1  0  0  0  0
 26 21  1  0  0  0  0
 27 26  2  0  0  0  0
 28 26  2  0  0  0  0
 29  3  1  0  0  0  0
 30 33  1  0  0  0  0
 30 31  1  0  0  0  0
 32 30  1  0  0  0  0
M  END
