Coordinates from ORCA-job p-NO2-Ph-N2-OTs-MP2-6-31G_dp-scan-d09-49-n400
 OpenBabel02121707583D

 33 33  0  0  0  0  0  0  0  0999 V2000
    2.2028   -0.4167   -3.3479 C   0  0  0  0  0  0  0  0  0  0  0  0
    1.6097    0.1769   -4.4579 C   0  0  0  0  0  0  0  0  0  0  0  0
    0.9085    1.3666   -4.2426 C   0  0  0  0  0  0  0  0  0  0  0  0
    0.7676    2.0030   -3.0029 C   0  0  0  0  0  0  0  0  0  0  0  0
    1.3793    1.4014   -1.9123 C   0  0  0  0  0  0  0  0  0  0  0  0
    2.1003    0.2199   -2.1120 C   0  0  0  0  0  0  0  0  0  0  0  0
    2.7795   -1.3250   -3.4393 H   0  0  0  0  0  0  0  0  0  0  0  0
    1.7322   -0.2097   -5.4588 H   0  0  0  0  0  0  0  0  0  0  0  0
    0.2578    2.9531   -2.9258 H   0  0  0  0  0  0  0  0  0  0  0  0
    1.3490    1.8530   -0.9311 H   0  0  0  0  0  0  0  0  0  0  0  0
    2.7966   -0.3759   -0.9656 N   0  0  0  0  0  0  0  0  0  0  0  0
    2.8906    0.3116    0.0650 O   0  0  0  0  0  0  0  0  0  0  0  0
    3.2541   -1.5221   -1.1112 O   0  0  0  0  0  0  0  0  0  0  0  0
    0.3617    1.9927   -5.3456 N   0  0  0  0  0  0  0  0  0  0  0  0
   -0.1928    2.4553   -6.2210 N   0  0  0  0  0  0  0  0  0  0  0  0
    4.7925    0.9137   -4.6853 C   0  0  0  0  0  0  0  0  0  0  0  0
    5.4662    0.2502   -3.6575 C   0  0  0  0  0  0  0  0  0  0  0  0
    5.4849    0.7625   -2.3509 C   0  0  0  0  0  0  0  0  0  0  0  0
    4.8101    1.9682   -2.1026 C   0  0  0  0  0  0  0  0  0  0  0  0
    4.1355    2.6428   -3.1229 C   0  0  0  0  0  0  0  0  0  0  0  0
    4.1143    2.1085   -4.4149 C   0  0  0  0  0  0  0  0  0  0  0  0
    4.7754    0.5124   -5.6918 H   0  0  0  0  0  0  0  0  0  0  0  0
    5.9973   -0.6719   -3.8732 H   0  0  0  0  0  0  0  0  0  0  0  0
    4.8269    2.3882   -1.1014 H   0  0  0  0  0  0  0  0  0  0  0  0
    3.6186    3.5756   -2.9326 H   0  0  0  0  0  0  0  0  0  0  0  0
    3.2271    2.9560   -5.7285 S   0  0  0  0  0  0  0  0  0  0  0  0
    2.6272    1.8276   -6.5183 O   0  0  0  0  0  0  0  0  0  0  0  0
    4.2015    3.7882   -6.4438 O   0  0  0  0  0  0  0  0  0  0  0  0
    2.1472    3.6986   -4.9922 O   0  0  0  0  0  0  0  0  0  0  0  0
    6.1993    0.0419   -1.2372 C   0  0  0  0  0  0  0  0  0  0  0  0
    5.4997   -0.5023   -0.6001 H   0  0  0  0  0  0  0  0  0  0  0  0
    6.9155   -0.6764   -1.6352 H   0  0  0  0  0  0  0  0  0  0  0  0
    6.7422    0.7466   -0.6069 H   0  0  0  0  0  0  0  0  0  0  0  0
  1  6  2  0  0  0  0
  2  3  2  0  0  0  0
  2  1  1  0  0  0  0
  3  4  1  0  0  0  0
  4  9  1  0  0  0  0
  4  5  2  0  0  0  0
  5 10  1  0  0  0  0
  6  5  1  0  0  0  0
  6 11  1  0  0  0  0
  7  1  1  0  0  0  0
  8  2  1  0  0  0  0
 11 12  2  0  0  0  0
 13 11  2  0  0  0  0
 14  3  1  0  0  0  0
 15 14  1  0  0  0  0
 16 21  2  0  0  0  0
 16 17  1  0  0  0  0
 17 18  2  0  0  0  0
 18 19  1  0  0  0  0
 18 30  1  0  0  0  0
 19 24  1  0  0  0  0
 20 25  1  0  0  0  0
 20 19  2  0  0  0  0
 21 20  1  0  0  0  0
 22 16  1  0  0  0  0
 23 17  1  0  0  0  0
 26 29  1  0  0  0  0
 26 21  1  0  0  0  0
 27 26  2  0  0  0  0
 28 26  2  0  0  0  0
 30 33  1  0  0  0  0
 30 31  1  0  0  0  0
 32 30  1  0  0  0  0
M  RAD  3  14   2  15   3  29   2
M  END
