Coordinates from ORCA-job p-NO2-Ph-N2-OTs-MP2-6-31G_dp-scan-d09-49-n400
 OpenBabel02121707583D

 33 33  0  0  0  0  0  0  0  0999 V2000
    0.7483   -0.5452   -4.2970 C   0  0  0  0  0  0  0  0  0  0  0  0
    1.2949    0.4929   -5.0495 C   0  0  0  0  0  0  0  0  0  0  0  0
    1.9017    1.5649   -4.3899 C   0  0  0  0  0  0  0  0  0  0  0  0
    1.9772    1.6211   -2.9956 C   0  0  0  0  0  0  0  0  0  0  0  0
    1.4270    0.5903   -2.2376 C   0  0  0  0  0  0  0  0  0  0  0  0
    0.8297   -0.4782   -2.9061 C   0  0  0  0  0  0  0  0  0  0  0  0
    0.2675   -1.3916   -4.7661 H   0  0  0  0  0  0  0  0  0  0  0  0
    1.2554    0.4863   -6.1299 H   0  0  0  0  0  0  0  0  0  0  0  0
    2.4534    2.4730   -2.5270 H   0  0  0  0  0  0  0  0  0  0  0  0
    1.4615    0.5972   -1.1576 H   0  0  0  0  0  0  0  0  0  0  0  0
    0.2474   -1.5684   -2.1116 N   0  0  0  0  0  0  0  0  0  0  0  0
    0.3769   -1.5106   -0.8771 O   0  0  0  0  0  0  0  0  0  0  0  0
   -0.3330   -2.4796   -2.7246 O   0  0  0  0  0  0  0  0  0  0  0  0
   -2.3048    1.5952   -2.9728 N   0  0  0  0  0  0  0  0  0  0  0  0
   -2.1090    0.5594   -2.5617 N   0  0  0  0  0  0  0  0  0  0  0  0
    5.1478    0.8248   -3.9831 C   0  0  0  0  0  0  0  0  0  0  0  0
    5.9026    0.6514   -2.8226 C   0  0  0  0  0  0  0  0  0  0  0  0
    6.4135    1.7492   -2.1161 C   0  0  0  0  0  0  0  0  0  0  0  0
    6.1612    3.0400   -2.6057 C   0  0  0  0  0  0  0  0  0  0  0  0
    5.4101    3.2413   -3.7629 C   0  0  0  0  0  0  0  0  0  0  0  0
    4.9188    2.1236   -4.4426 C   0  0  0  0  0  0  0  0  0  0  0  0
    4.7647   -0.0223   -4.5375 H   0  0  0  0  0  0  0  0  0  0  0  0
    6.0973   -0.3526   -2.4619 H   0  0  0  0  0  0  0  0  0  0  0  0
    6.5616    3.8982   -2.0772 H   0  0  0  0  0  0  0  0  0  0  0  0
    5.2286    4.2358   -4.1507 H   0  0  0  0  0  0  0  0  0  0  0  0
    3.8960    2.3692   -5.8587 S   0  0  0  0  0  0  0  0  0  0  0  0
    3.8094    1.1176   -6.6032 O   0  0  0  0  0  0  0  0  0  0  0  0
    4.1954    3.6444   -6.4867 O   0  0  0  0  0  0  0  0  0  0  0  0
    2.4141    2.6420   -5.1167 O   0  0  0  0  0  0  0  0  0  0  0  0
    7.1916    1.5499   -0.8428 C   0  0  0  0  0  0  0  0  0  0  0  0
    6.5286    1.5642    0.0242 H   0  0  0  0  0  0  0  0  0  0  0  0
    7.7118    0.5928   -0.8475 H   0  0  0  0  0  0  0  0  0  0  0  0
    7.9311    2.3386   -0.7083 H   0  0  0  0  0  0  0  0  0  0  0  0
  1  6  2  0  0  0  0
  2  3  2  0  0  0  0
  2  1  1  0  0  0  0
  3  4  1  0  0  0  0
  4  9  1  0  0  0  0
  4  5  2  0  0  0  0
  5 10  1  0  0  0  0
  6  5  1  0  0  0  0
  6 11  1  0  0  0  0
  7  1  1  0  0  0  0
  8  2  1  0  0  0  0
 11 12  2  0  0  0  0
 13 11  2  0  0  0  0
 14 15  3  0  0  0  0
 16 17  1  0  0  0  0
 17 23  1  0  0  0  0
 17 18  2  0  0  0  0
 18 30  1  0  0  0  0
 19 18  1  0  0  0  0
 19 24  1  0  0  0  0
 20 19  2  0  0  0  0
 21 16  2  0  0  0  0
 21 20  1  0  0  0  0
 22 16  1  0  0  0  0
 25 20  1  0  0  0  0
 26 29  1  0  0  0  0
 26 21  1  0  0  0  0
 27 26  2  0  0  0  0
 28 26  2  0  0  0  0
 29  3  1  0  0  0  0
 30 33  1  0  0  0  0
 30 31  1  0  0  0  0
 32 30  1  0  0  0  0
M  END
