Coordinates from ORCA-job p-NO2-Ph-N2-OTs-MP2-6-31G_dp-scan-d09-49-n400
 OpenBabel02121707583D

 33 33  0  0  0  0  0  0  0  0999 V2000
    0.7310   -0.7104   -4.2112 C   0  0  0  0  0  0  0  0  0  0  0  0
    1.2176    0.3698   -4.9454 C   0  0  0  0  0  0  0  0  0  0  0  0
    1.8058    1.4418   -4.2692 C   0  0  0  0  0  0  0  0  0  0  0  0
    1.9220    1.4577   -2.8767 C   0  0  0  0  0  0  0  0  0  0  0  0
    1.4310    0.3850   -2.1364 C   0  0  0  0  0  0  0  0  0  0  0  0
    0.8468   -0.6808   -2.8213 C   0  0  0  0  0  0  0  0  0  0  0  0
    0.2661   -1.5587   -4.6927 H   0  0  0  0  0  0  0  0  0  0  0  0
    1.1436    0.3975   -6.0237 H   0  0  0  0  0  0  0  0  0  0  0  0
    2.3801    2.3126   -2.3959 H   0  0  0  0  0  0  0  0  0  0  0  0
    1.4960    0.3599   -1.0581 H   0  0  0  0  0  0  0  0  0  0  0  0
    0.3342   -1.8195   -2.0457 N   0  0  0  0  0  0  0  0  0  0  0  0
    0.4692   -1.7802   -0.8110 O   0  0  0  0  0  0  0  0  0  0  0  0
   -0.1991   -2.7493   -2.6738 O   0  0  0  0  0  0  0  0  0  0  0  0
   -1.1935    2.4781   -3.7479 N   0  0  0  0  0  0  0  0  0  0  0  0
   -1.7378    1.6481   -3.2037 N   0  0  0  0  0  0  0  0  0  0  0  0
    5.0990    0.8503   -3.9897 C   0  0  0  0  0  0  0  0  0  0  0  0
    5.9017    0.6815   -2.8611 C   0  0  0  0  0  0  0  0  0  0  0  0
    6.3848    1.7826   -2.1405 C   0  0  0  0  0  0  0  0  0  0  0  0
    6.0546    3.0728   -2.5832 C   0  0  0  0  0  0  0  0  0  0  0  0
    5.2545    3.2696   -3.7077 C   0  0  0  0  0  0  0  0  0  0  0  0
    4.7930    2.1487   -4.4030 C   0  0  0  0  0  0  0  0  0  0  0  0
    4.7373    0.0014   -4.5557 H   0  0  0  0  0  0  0  0  0  0  0  0
    6.1564   -0.3216   -2.5369 H   0  0  0  0  0  0  0  0  0  0  0  0
    6.4323    3.9344   -2.0435 H   0  0  0  0  0  0  0  0  0  0  0  0
    5.0125    4.2645   -4.0598 H   0  0  0  0  0  0  0  0  0  0  0  0
    3.7098    2.3839   -5.7755 S   0  0  0  0  0  0  0  0  0  0  0  0
    3.6553    1.1503   -6.5526 O   0  0  0  0  0  0  0  0  0  0  0  0
    3.9265    3.6887   -6.3758 O   0  0  0  0  0  0  0  0  0  0  0  0
    2.2448    2.5642   -4.9744 O   0  0  0  0  0  0  0  0  0  0  0  0
    7.2162    1.5861   -0.9008 C   0  0  0  0  0  0  0  0  0  0  0  0
    6.5846    1.5474   -0.0113 H   0  0  0  0  0  0  0  0  0  0  0  0
    7.7783    0.6543   -0.9500 H   0  0  0  0  0  0  0  0  0  0  0  0
    7.9239    2.4041   -0.7702 H   0  0  0  0  0  0  0  0  0  0  0  0
  1  6  2  0  0  0  0
  2  3  2  0  0  0  0
  2  1  1  0  0  0  0
  3  4  1  0  0  0  0
  4  9  1  0  0  0  0
  4  5  2  0  0  0  0
  5 10  1  0  0  0  0
  6  5  1  0  0  0  0
  6 11  1  0  0  0  0
  7  1  1  0  0  0  0
  8  2  1  0  0  0  0
 11 12  2  0  0  0  0
 13 11  2  0  0  0  0
 14 15  3  0  0  0  0
 16 17  1  0  0  0  0
 17 23  1  0  0  0  0
 17 18  2  0  0  0  0
 18 30  1  0  0  0  0
 19 18  1  0  0  0  0
 19 24  1  0  0  0  0
 20 19  2  0  0  0  0
 21 16  2  0  0  0  0
 21 20  1  0  0  0  0
 22 16  1  0  0  0  0
 25 20  1  0  0  0  0
 26 29  1  0  0  0  0
 26 21  1  0  0  0  0
 27 26  2  0  0  0  0
 28 26  2  0  0  0  0
 29  3  1  0  0  0  0
 30 33  1  0  0  0  0
 30 31  1  0  0  0  0
 32 30  1  0  0  0  0
M  END
