Coordinates from ORCA-job p-NO2-Ph-N2-OTs-MP2-6-31G_dp-scan-d09-49-n400
 OpenBabel02121707583D

 33 33  0  0  0  0  0  0  0  0999 V2000
    0.7387   -0.7437   -4.1637 C   0  0  0  0  0  0  0  0  0  0  0  0
    1.1785    0.3516   -4.9021 C   0  0  0  0  0  0  0  0  0  0  0  0
    1.6891    1.4664   -4.2294 C   0  0  0  0  0  0  0  0  0  0  0  0
    1.9374    1.4312   -2.8528 C   0  0  0  0  0  0  0  0  0  0  0  0
    1.4942    0.3450   -2.1048 C   0  0  0  0  0  0  0  0  0  0  0  0
    0.9061   -0.7265   -2.7783 C   0  0  0  0  0  0  0  0  0  0  0  0
    0.3006   -1.6092   -4.6399 H   0  0  0  0  0  0  0  0  0  0  0  0
    1.0646    0.3877   -5.9767 H   0  0  0  0  0  0  0  0  0  0  0  0
    2.3950    2.2907   -2.3794 H   0  0  0  0  0  0  0  0  0  0  0  0
    1.6279    0.2977   -1.0335 H   0  0  0  0  0  0  0  0  0  0  0  0
    0.4397   -1.8796   -1.9958 N   0  0  0  0  0  0  0  0  0  0  0  0
    0.6240   -1.8519   -0.7671 O   0  0  0  0  0  0  0  0  0  0  0  0
   -0.1055   -2.8103   -2.6126 O   0  0  0  0  0  0  0  0  0  0  0  0
   -0.3127    2.5268   -4.0369 N   0  0  0  0  0  0  0  0  0  0  0  0
   -1.2202    2.1045   -3.5019 N   0  0  0  0  0  0  0  0  0  0  0  0
    5.0060    0.8546   -4.0021 C   0  0  0  0  0  0  0  0  0  0  0  0
    5.8183    0.6771   -2.8819 C   0  0  0  0  0  0  0  0  0  0  0  0
    6.2919    1.7722   -2.1456 C   0  0  0  0  0  0  0  0  0  0  0  0
    5.9431    3.0653   -2.5648 C   0  0  0  0  0  0  0  0  0  0  0  0
    5.1338    3.2705   -3.6814 C   0  0  0  0  0  0  0  0  0  0  0  0
    4.6806    2.1556   -4.3914 C   0  0  0  0  0  0  0  0  0  0  0  0
    4.6482    0.0110   -4.5783 H   0  0  0  0  0  0  0  0  0  0  0  0
    6.0874   -0.3279   -2.5759 H   0  0  0  0  0  0  0  0  0  0  0  0
    6.3138    3.9225   -2.0133 H   0  0  0  0  0  0  0  0  0  0  0  0
    4.8779    4.2682   -4.0158 H   0  0  0  0  0  0  0  0  0  0  0  0
    3.5867    2.4007   -5.7531 S   0  0  0  0  0  0  0  0  0  0  0  0
    3.5303    1.1738   -6.5406 O   0  0  0  0  0  0  0  0  0  0  0  0
    3.8010    3.7098   -6.3453 O   0  0  0  0  0  0  0  0  0  0  0  0
    2.1243    2.5830   -4.9474 O   0  0  0  0  0  0  0  0  0  0  0  0
    7.1329    1.5649   -0.9142 C   0  0  0  0  0  0  0  0  0  0  0  0
    6.5063    1.4887   -0.0237 H   0  0  0  0  0  0  0  0  0  0  0  0
    7.7168    0.6483   -0.9887 H   0  0  0  0  0  0  0  0  0  0  0  0
    7.8215    2.3960   -0.7658 H   0  0  0  0  0  0  0  0  0  0  0  0
  1  6  2  0  0  0  0
  2  3  2  0  0  0  0
  2  1  1  0  0  0  0
  3  4  1  0  0  0  0
  4  9  1  0  0  0  0
  4  5  2  0  0  0  0
  5 10  1  0  0  0  0
  6  5  1  0  0  0  0
  6 11  1  0  0  0  0
  7  1  1  0  0  0  0
  8  2  1  0  0  0  0
 11 12  2  0  0  0  0
 13 11  2  0  0  0  0
 14 15  3  0  0  0  0
 16 17  1  0  0  0  0
 17 23  1  0  0  0  0
 17 18  2  0  0  0  0
 18 30  1  0  0  0  0
 19 18  1  0  0  0  0
 19 24  1  0  0  0  0
 20 19  2  0  0  0  0
 21 16  2  0  0  0  0
 21 20  1  0  0  0  0
 22 16  1  0  0  0  0
 25 20  1  0  0  0  0
 26 29  1  0  0  0  0
 26 21  1  0  0  0  0
 27 26  2  0  0  0  0
 28 26  2  0  0  0  0
 29  3  1  0  0  0  0
 30 33  1  0  0  0  0
 30 31  1  0  0  0  0
 32 30  1  0  0  0  0
M  END
