Coordinates from ORCA-job p-NO2-Ph-N2-OTs-MP2-6-31G_dp-scan-d09-49-n400
 OpenBabel02121707583D

 33 33  0  0  0  0  0  0  0  0999 V2000
    0.7460   -0.6488   -4.2417 C   0  0  0  0  0  0  0  0  0  0  0  0
    1.2452    0.4197   -4.9848 C   0  0  0  0  0  0  0  0  0  0  0  0
    1.8389    1.4945   -4.3172 C   0  0  0  0  0  0  0  0  0  0  0  0
    1.9385    1.5280   -2.9234 C   0  0  0  0  0  0  0  0  0  0  0  0
    1.4349    0.4670   -2.1746 C   0  0  0  0  0  0  0  0  0  0  0  0
    0.8518   -0.6041   -2.8516 C   0  0  0  0  0  0  0  0  0  0  0  0
    0.2785   -1.4992   -4.7170 H   0  0  0  0  0  0  0  0  0  0  0  0
    1.1828    0.4332   -6.0642 H   0  0  0  0  0  0  0  0  0  0  0  0
    2.4005    2.3843   -2.4487 H   0  0  0  0  0  0  0  0  0  0  0  0
    1.4892    0.4554   -1.0955 H   0  0  0  0  0  0  0  0  0  0  0  0
    0.3215   -1.7279   -2.0667 N   0  0  0  0  0  0  0  0  0  0  0  0
    0.4450   -1.6740   -0.8314 O   0  0  0  0  0  0  0  0  0  0  0  0
   -0.2123   -2.6619   -2.6881 O   0  0  0  0  0  0  0  0  0  0  0  0
   -1.6280    2.1909   -3.4675 N   0  0  0  0  0  0  0  0  0  0  0  0
   -1.8541    1.2113   -2.9479 N   0  0  0  0  0  0  0  0  0  0  0  0
    5.1107    0.8389   -3.9886 C   0  0  0  0  0  0  0  0  0  0  0  0
    5.8935    0.6662   -2.8467 C   0  0  0  0  0  0  0  0  0  0  0  0
    6.3882    1.7651   -2.1307 C   0  0  0  0  0  0  0  0  0  0  0  0
    6.0905    3.0568   -2.5916 C   0  0  0  0  0  0  0  0  0  0  0  0
    5.3107    3.2575   -3.7297 C   0  0  0  0  0  0  0  0  0  0  0  0
    4.8367    2.1387   -4.4198 C   0  0  0  0  0  0  0  0  0  0  0  0
    4.7400   -0.0086   -4.5508 H   0  0  0  0  0  0  0  0  0  0  0  0
    6.1232   -0.3383   -2.5085 H   0  0  0  0  0  0  0  0  0  0  0  0
    6.4777    3.9164   -2.0555 H   0  0  0  0  0  0  0  0  0  0  0  0
    5.0939    4.2533   -4.0956 H   0  0  0  0  0  0  0  0  0  0  0  0
    3.7785    2.3807   -5.8104 S   0  0  0  0  0  0  0  0  0  0  0  0
    3.7105    1.1402   -6.5754 O   0  0  0  0  0  0  0  0  0  0  0  0
    4.0297    3.6745   -6.4210 O   0  0  0  0  0  0  0  0  0  0  0  0
    2.3054    2.5989   -5.0332 O   0  0  0  0  0  0  0  0  0  0  0  0
    7.1975    1.5653   -0.8770 C   0  0  0  0  0  0  0  0  0  0  0  0
    6.5523    1.5470    0.0033 H   0  0  0  0  0  0  0  0  0  0  0  0
    7.7426    0.6226   -0.9089 H   0  0  0  0  0  0  0  0  0  0  0  0
    7.9185    2.3711   -0.7437 H   0  0  0  0  0  0  0  0  0  0  0  0
  1  6  2  0  0  0  0
  2  3  2  0  0  0  0
  2  1  1  0  0  0  0
  3  4  1  0  0  0  0
  4  9  1  0  0  0  0
  4  5  2  0  0  0  0
  5 10  1  0  0  0  0
  6  5  1  0  0  0  0
  6 11  1  0  0  0  0
  7  1  1  0  0  0  0
  8  2  1  0  0  0  0
 11 12  2  0  0  0  0
 13 11  2  0  0  0  0
 14 15  3  0  0  0  0
 16 17  1  0  0  0  0
 17 23  1  0  0  0  0
 17 18  2  0  0  0  0
 18 30  1  0  0  0  0
 19 18  1  0  0  0  0
 19 24  1  0  0  0  0
 20 19  2  0  0  0  0
 21 16  2  0  0  0  0
 21 20  1  0  0  0  0
 22 16  1  0  0  0  0
 25 20  1  0  0  0  0
 26 29  1  0  0  0  0
 26 21  1  0  0  0  0
 27 26  2  0  0  0  0
 28 26  2  0  0  0  0
 29  3  1  0  0  0  0
 30 33  1  0  0  0  0
 30 31  1  0  0  0  0
 32 30  1  0  0  0  0
M  END
