Coordinates from ORCA-job p-NO2-Ph-N2-OTs-MP2-6-31G_dp-scan-d09-49-n400
 OpenBabel02121707583D

 33 33  0  0  0  0  0  0  0  0999 V2000
    0.7299   -0.7119   -4.2102 C   0  0  0  0  0  0  0  0  0  0  0  0
    1.2163    0.3685   -4.9442 C   0  0  0  0  0  0  0  0  0  0  0  0
    1.8044    1.4404   -4.2679 C   0  0  0  0  0  0  0  0  0  0  0  0
    1.9218    1.4555   -2.8755 C   0  0  0  0  0  0  0  0  0  0  0  0
    1.4309    0.3827   -2.1352 C   0  0  0  0  0  0  0  0  0  0  0  0
    0.8463   -0.6828   -2.8203 C   0  0  0  0  0  0  0  0  0  0  0  0
    0.2649   -1.5601   -4.6918 H   0  0  0  0  0  0  0  0  0  0  0  0
    1.1417    0.3966   -6.0224 H   0  0  0  0  0  0  0  0  0  0  0  0
    2.3799    2.3104   -2.3945 H   0  0  0  0  0  0  0  0  0  0  0  0
    1.4966    0.3572   -1.0570 H   0  0  0  0  0  0  0  0  0  0  0  0
    0.3338   -1.8216   -2.0449 N   0  0  0  0  0  0  0  0  0  0  0  0
    0.4701   -1.7832   -0.8103 O   0  0  0  0  0  0  0  0  0  0  0  0
   -0.1992   -2.7515   -2.6732 O   0  0  0  0  0  0  0  0  0  0  0  0
   -1.1727    2.4833   -3.7560 N   0  0  0  0  0  0  0  0  0  0  0  0
   -1.7276    1.6605   -3.2117 N   0  0  0  0  0  0  0  0  0  0  0  0
    5.0982    0.8507   -3.9899 C   0  0  0  0  0  0  0  0  0  0  0  0
    5.9015    0.6820   -2.8617 C   0  0  0  0  0  0  0  0  0  0  0  0
    6.3840    1.7832   -2.1408 C   0  0  0  0  0  0  0  0  0  0  0  0
    6.0527    3.0733   -2.5827 C   0  0  0  0  0  0  0  0  0  0  0  0
    5.2520    3.2700   -3.7069 C   0  0  0  0  0  0  0  0  0  0  0  0
    4.7910    2.1491   -4.4025 C   0  0  0  0  0  0  0  0  0  0  0  0
    4.7369    0.0018   -4.5561 H   0  0  0  0  0  0  0  0  0  0  0  0
    6.1571   -0.3210   -2.5381 H   0  0  0  0  0  0  0  0  0  0  0  0
    6.4300    3.9349   -2.0428 H   0  0  0  0  0  0  0  0  0  0  0  0
    5.0092    4.2649   -4.0585 H   0  0  0  0  0  0  0  0  0  0  0  0
    3.7072    2.3841   -5.7745 S   0  0  0  0  0  0  0  0  0  0  0  0
    3.6531    1.1507   -6.5520 O   0  0  0  0  0  0  0  0  0  0  0  0
    3.9230    3.6892   -6.3745 O   0  0  0  0  0  0  0  0  0  0  0  0
    2.2424    2.5633   -4.9728 O   0  0  0  0  0  0  0  0  0  0  0  0
    7.2160    1.5867   -0.9015 C   0  0  0  0  0  0  0  0  0  0  0  0
    6.5849    1.5472   -0.0118 H   0  0  0  0  0  0  0  0  0  0  0  0
    7.7788    0.6553   -0.9513 H   0  0  0  0  0  0  0  0  0  0  0  0
    7.9232    2.4051   -0.7709 H   0  0  0  0  0  0  0  0  0  0  0  0
  1  6  2  0  0  0  0
  2  3  2  0  0  0  0
  2  1  1  0  0  0  0
  3  4  1  0  0  0  0
  4  9  1  0  0  0  0
  4  5  2  0  0  0  0
  5 10  1  0  0  0  0
  6  5  1  0  0  0  0
  6 11  1  0  0  0  0
  7  1  1  0  0  0  0
  8  2  1  0  0  0  0
 11 12  2  0  0  0  0
 13 11  2  0  0  0  0
 14 15  3  0  0  0  0
 16 17  1  0  0  0  0
 17 23  1  0  0  0  0
 17 18  2  0  0  0  0
 18 30  1  0  0  0  0
 19 18  1  0  0  0  0
 19 24  1  0  0  0  0
 20 19  2  0  0  0  0
 21 16  2  0  0  0  0
 21 20  1  0  0  0  0
 22 16  1  0  0  0  0
 25 20  1  0  0  0  0
 26 29  1  0  0  0  0
 26 21  1  0  0  0  0
 27 26  2  0  0  0  0
 28 26  2  0  0  0  0
 29  3  1  0  0  0  0
 30 33  1  0  0  0  0
 30 31  1  0  0  0  0
 32 30  1  0  0  0  0
M  END
