Coordinates from ORCA-job p-NO2-Ph-N2-OTs-MP2-6-31G_dp-scan-d09-49-n400
 OpenBabel02121707583D

 33 33  0  0  0  0  0  0  0  0999 V2000
    2.1872   -0.4309   -3.3210 C   0  0  0  0  0  0  0  0  0  0  0  0
    1.6089    0.1641   -4.4460 C   0  0  0  0  0  0  0  0  0  0  0  0
    0.9393    1.3372   -4.1786 C   0  0  0  0  0  0  0  0  0  0  0  0
    0.7721    2.0165   -2.9892 C   0  0  0  0  0  0  0  0  0  0  0  0
    1.3724    1.3988   -1.8920 C   0  0  0  0  0  0  0  0  0  0  0  0
    2.0824    0.2107   -2.0876 C   0  0  0  0  0  0  0  0  0  0  0  0
    2.7601   -1.3423   -3.4085 H   0  0  0  0  0  0  0  0  0  0  0  0
    1.7395   -0.2082   -5.4499 H   0  0  0  0  0  0  0  0  0  0  0  0
    0.2796    2.9751   -2.9293 H   0  0  0  0  0  0  0  0  0  0  0  0
    1.3439    1.8551   -0.9127 H   0  0  0  0  0  0  0  0  0  0  0  0
    2.7819   -0.3799   -0.9405 N   0  0  0  0  0  0  0  0  0  0  0  0
    2.8841    0.3141    0.0845 O   0  0  0  0  0  0  0  0  0  0  0  0
    3.2362   -1.5279   -1.0809 O   0  0  0  0  0  0  0  0  0  0  0  0
    0.3314    2.1051   -5.5088 N   0  0  0  0  0  0  0  0  0  0  0  0
   -0.2869    2.5342   -6.3551 N   0  0  0  0  0  0  0  0  0  0  0  0
    4.8057    0.9108   -4.6856 C   0  0  0  0  0  0  0  0  0  0  0  0
    5.4891    0.2530   -3.6612 C   0  0  0  0  0  0  0  0  0  0  0  0
    5.5101    0.7653   -2.3542 C   0  0  0  0  0  0  0  0  0  0  0  0
    4.8277    1.9649   -2.1027 C   0  0  0  0  0  0  0  0  0  0  0  0
    4.1410    2.6335   -3.1196 C   0  0  0  0  0  0  0  0  0  0  0  0
    4.1178    2.0988   -4.4109 C   0  0  0  0  0  0  0  0  0  0  0  0
    4.7874    0.5087   -5.6918 H   0  0  0  0  0  0  0  0  0  0  0  0
    6.0266   -0.6647   -3.8797 H   0  0  0  0  0  0  0  0  0  0  0  0
    4.8452    2.3849   -1.1016 H   0  0  0  0  0  0  0  0  0  0  0  0
    3.6170    3.5615   -2.9259 H   0  0  0  0  0  0  0  0  0  0  0  0
    3.2124    2.9343   -5.7181 S   0  0  0  0  0  0  0  0  0  0  0  0
    2.6077    1.8020   -6.5016 O   0  0  0  0  0  0  0  0  0  0  0  0
    4.1716    3.7709   -6.4485 O   0  0  0  0  0  0  0  0  0  0  0  0
    2.1310    3.6743   -4.9779 O   0  0  0  0  0  0  0  0  0  0  0  0
    6.2246    0.0397   -1.2437 C   0  0  0  0  0  0  0  0  0  0  0  0
    5.5454   -0.6169   -0.6965 H   0  0  0  0  0  0  0  0  0  0  0  0
    7.0345   -0.5735   -1.6381 H   0  0  0  0  0  0  0  0  0  0  0  0
    6.6512    0.7456   -0.5311 H   0  0  0  0  0  0  0  0  0  0  0  0
  1  6  2  0  0  0  0
  2  3  2  0  0  0  0
  2  1  1  0  0  0  0
  3  4  1  0  0  0  0
  4  9  1  0  0  0  0
  4  5  2  0  0  0  0
  5 10  1  0  0  0  0
  6  5  1  0  0  0  0
  6 11  1  0  0  0  0
  7  1  1  0  0  0  0
  8  2  1  0  0  0  0
 11 12  2  0  0  0  0
 13 11  2  0  0  0  0
 14  3  1  0  0  0  0
 15 14  1  0  0  0  0
 16 21  2  0  0  0  0
 16 17  1  0  0  0  0
 17 18  2  0  0  0  0
 18 19  1  0  0  0  0
 18 30  1  0  0  0  0
 19 24  1  0  0  0  0
 20 25  1  0  0  0  0
 20 19  2  0  0  0  0
 21 20  1  0  0  0  0
 22 16  1  0  0  0  0
 23 17  1  0  0  0  0
 26 29  1  0  0  0  0
 26 21  1  0  0  0  0
 27 26  2  0  0  0  0
 28 26  2  0  0  0  0
 30 31  1  0  0  0  0
 30 33  1  0  0  0  0
 32 30  1  0  0  0  0
M  RAD  3  14   2  15   3  29   2
M  END
