Coordinates from ORCA-job p-NO2-Ph-N2-OTs-MP2-6-31G_dp-scan-d09-49-n400
 OpenBabel02121707583D

 33 33  0  0  0  0  0  0  0  0999 V2000
    0.7344   -0.7470   -4.1651 C   0  0  0  0  0  0  0  0  0  0  0  0
    1.1794    0.3475   -4.9021 C   0  0  0  0  0  0  0  0  0  0  0  0
    1.6994    1.4566   -4.2282 C   0  0  0  0  0  0  0  0  0  0  0  0
    1.9339    1.4252   -2.8496 C   0  0  0  0  0  0  0  0  0  0  0  0
    1.4854    0.3397   -2.1034 C   0  0  0  0  0  0  0  0  0  0  0  0
    0.8982   -0.7308   -2.7793 C   0  0  0  0  0  0  0  0  0  0  0  0
    0.2927   -1.6100   -4.6425 H   0  0  0  0  0  0  0  0  0  0  0  0
    1.0683    0.3846   -5.9770 H   0  0  0  0  0  0  0  0  0  0  0  0
    2.3911    2.2840   -2.3745 H   0  0  0  0  0  0  0  0  0  0  0  0
    1.6121    0.2932   -1.0312 H   0  0  0  0  0  0  0  0  0  0  0  0
    0.4264   -1.8830   -1.9986 N   0  0  0  0  0  0  0  0  0  0  0  0
    0.6059   -1.8555   -0.7692 O   0  0  0  0  0  0  0  0  0  0  0  0
   -0.1188   -2.8123   -2.6174 O   0  0  0  0  0  0  0  0  0  0  0  0
   -0.3469    2.5401   -4.0339 N   0  0  0  0  0  0  0  0  0  0  0  0
   -1.2524    2.1093   -3.5032 N   0  0  0  0  0  0  0  0  0  0  0  0
    5.0152    0.8562   -4.0016 C   0  0  0  0  0  0  0  0  0  0  0  0
    5.8289    0.6801   -2.8822 C   0  0  0  0  0  0  0  0  0  0  0  0
    6.3016    1.7760   -2.1466 C   0  0  0  0  0  0  0  0  0  0  0  0
    5.9504    3.0685   -2.5655 C   0  0  0  0  0  0  0  0  0  0  0  0
    5.1397    3.2724   -3.6814 C   0  0  0  0  0  0  0  0  0  0  0  0
    4.6876    2.1567   -4.3909 C   0  0  0  0  0  0  0  0  0  0  0  0
    4.6585    0.0120   -4.5776 H   0  0  0  0  0  0  0  0  0  0  0  0
    6.0998   -0.3245   -2.5763 H   0  0  0  0  0  0  0  0  0  0  0  0
    6.3203    3.9263   -2.0145 H   0  0  0  0  0  0  0  0  0  0  0  0
    4.8819    4.2696   -4.0155 H   0  0  0  0  0  0  0  0  0  0  0  0
    3.5918    2.3999   -5.7514 S   0  0  0  0  0  0  0  0  0  0  0  0
    3.5376    1.1735   -6.5397 O   0  0  0  0  0  0  0  0  0  0  0  0
    3.8015    3.7101   -6.3428 O   0  0  0  0  0  0  0  0  0  0  0  0
    2.1303    2.5763   -4.9429 O   0  0  0  0  0  0  0  0  0  0  0  0
    7.1442    1.5702   -0.9160 C   0  0  0  0  0  0  0  0  0  0  0  0
    6.5188    1.4959   -0.0245 H   0  0  0  0  0  0  0  0  0  0  0  0
    7.7275    0.6531   -0.9898 H   0  0  0  0  0  0  0  0  0  0  0  0
    7.8335    2.4011   -0.7700 H   0  0  0  0  0  0  0  0  0  0  0  0
  1  6  2  0  0  0  0
  2  3  2  0  0  0  0
  2  1  1  0  0  0  0
  3  4  1  0  0  0  0
  4  9  1  0  0  0  0
  4  5  2  0  0  0  0
  5 10  1  0  0  0  0
  6  5  1  0  0  0  0
  6 11  1  0  0  0  0
  7  1  1  0  0  0  0
  8  2  1  0  0  0  0
 11 12  2  0  0  0  0
 13 11  2  0  0  0  0
 14 15  3  0  0  0  0
 16 17  1  0  0  0  0
 17 23  1  0  0  0  0
 17 18  2  0  0  0  0
 18 30  1  0  0  0  0
 19 18  1  0  0  0  0
 19 24  1  0  0  0  0
 20 19  2  0  0  0  0
 21 16  2  0  0  0  0
 21 20  1  0  0  0  0
 22 16  1  0  0  0  0
 25 20  1  0  0  0  0
 26 29  1  0  0  0  0
 26 21  1  0  0  0  0
 27 26  2  0  0  0  0
 28 26  2  0  0  0  0
 29  3  1  0  0  0  0
 30 33  1  0  0  0  0
 30 31  1  0  0  0  0
 32 30  1  0  0  0  0
M  END
