Coordinates from ORCA-job p-NO2-Ph-N2-OTs-MP2-6-31G_dp-scan-d09-49-n400
 OpenBabel02121707583D

 33 33  0  0  0  0  0  0  0  0999 V2000
    2.1951   -0.4216   -3.3265 C   0  0  0  0  0  0  0  0  0  0  0  0
    1.6170    0.1756   -4.4453 C   0  0  0  0  0  0  0  0  0  0  0  0
    0.9286    1.3604   -4.2167 C   0  0  0  0  0  0  0  0  0  0  0  0
    0.7704    2.0102   -2.9955 C   0  0  0  0  0  0  0  0  0  0  0  0
    1.3681    1.4012   -1.8979 C   0  0  0  0  0  0  0  0  0  0  0  0
    2.0854    0.2171   -2.0923 C   0  0  0  0  0  0  0  0  0  0  0  0
    2.7703   -1.3314   -3.4129 H   0  0  0  0  0  0  0  0  0  0  0  0
    1.7494   -0.2060   -5.4464 H   0  0  0  0  0  0  0  0  0  0  0  0
    0.2676    2.9641   -2.9265 H   0  0  0  0  0  0  0  0  0  0  0  0
    1.3327    1.8539   -0.9173 H   0  0  0  0  0  0  0  0  0  0  0  0
    2.7793   -0.3753   -0.9427 N   0  0  0  0  0  0  0  0  0  0  0  0
    2.8800    0.3189    0.0827 O   0  0  0  0  0  0  0  0  0  0  0  0
    3.2301   -1.5251   -1.0809 O   0  0  0  0  0  0  0  0  0  0  0  0
    0.3678    2.0426   -5.4061 N   0  0  0  0  0  0  0  0  0  0  0  0
   -0.2282    2.4821   -6.2644 N   0  0  0  0  0  0  0  0  0  0  0  0
    4.8038    0.9153   -4.6936 C   0  0  0  0  0  0  0  0  0  0  0  0
    5.4818    0.2539   -3.6677 C   0  0  0  0  0  0  0  0  0  0  0  0
    5.4974    0.7630   -2.3595 C   0  0  0  0  0  0  0  0  0  0  0  0
    4.8154    1.9633   -2.1081 C   0  0  0  0  0  0  0  0  0  0  0  0
    4.1356    2.6361   -3.1265 C   0  0  0  0  0  0  0  0  0  0  0  0
    4.1175    2.1045   -4.4193 C   0  0  0  0  0  0  0  0  0  0  0  0
    4.7892    0.5158   -5.7008 H   0  0  0  0  0  0  0  0  0  0  0  0
    6.0188   -0.6641   -3.8860 H   0  0  0  0  0  0  0  0  0  0  0  0
    4.8293    2.3808   -1.1058 H   0  0  0  0  0  0  0  0  0  0  0  0
    3.6128    3.5649   -2.9333 H   0  0  0  0  0  0  0  0  0  0  0  0
    3.2224    2.9461   -5.7296 S   0  0  0  0  0  0  0  0  0  0  0  0
    2.6175    1.8163   -6.5154 O   0  0  0  0  0  0  0  0  0  0  0  0
    4.1886    3.7800   -6.4535 O   0  0  0  0  0  0  0  0  0  0  0  0
    2.1406    3.6882   -4.9925 O   0  0  0  0  0  0  0  0  0  0  0  0
    6.2094    0.0370   -1.2477 C   0  0  0  0  0  0  0  0  0  0  0  0
    5.5220   -0.5912   -0.6778 H   0  0  0  0  0  0  0  0  0  0  0  0
    6.9958   -0.6050   -1.6439 H   0  0  0  0  0  0  0  0  0  0  0  0
    6.6666    0.7432   -0.5546 H   0  0  0  0  0  0  0  0  0  0  0  0
  1  6  2  0  0  0  0
  2  3  2  0  0  0  0
  2  1  1  0  0  0  0
  3  4  1  0  0  0  0
  4  9  1  0  0  0  0
  4  5  2  0  0  0  0
  5 10  1  0  0  0  0
  6  5  1  0  0  0  0
  6 11  1  0  0  0  0
  7  1  1  0  0  0  0
  8  2  1  0  0  0  0
 11 12  2  0  0  0  0
 13 11  2  0  0  0  0
 14  3  1  0  0  0  0
 15 14  1  0  0  0  0
 16 21  2  0  0  0  0
 16 17  1  0  0  0  0
 17 18  2  0  0  0  0
 18 19  1  0  0  0  0
 18 30  1  0  0  0  0
 19 24  1  0  0  0  0
 20 25  1  0  0  0  0
 20 19  2  0  0  0  0
 21 20  1  0  0  0  0
 22 16  1  0  0  0  0
 23 17  1  0  0  0  0
 26 29  1  0  0  0  0
 26 21  1  0  0  0  0
 27 26  2  0  0  0  0
 28 26  2  0  0  0  0
 30 31  1  0  0  0  0
 30 33  1  0  0  0  0
 32 30  1  0  0  0  0
M  RAD  3  14   2  15   3  29   2
M  END
