Coordinates from ORCA-job p-NO2-Ph-N2-OTs-MP2-6-31G_dp-scan-d09-49-n400
 OpenBabel02121707583D

 33 33  0  0  0  0  0  0  0  0999 V2000
    0.7488   -0.5970   -4.2721 C   0  0  0  0  0  0  0  0  0  0  0  0
    1.2722    0.4563   -5.0200 C   0  0  0  0  0  0  0  0  0  0  0  0
    1.8718    1.5301   -4.3563 C   0  0  0  0  0  0  0  0  0  0  0  0
    1.9583    1.5753   -2.9622 C   0  0  0  0  0  0  0  0  0  0  0  0
    1.4309    0.5294   -2.2085 C   0  0  0  0  0  0  0  0  0  0  0  0
    0.8423   -0.5412   -2.8815 C   0  0  0  0  0  0  0  0  0  0  0  0
    0.2745   -1.4453   -4.7442 H   0  0  0  0  0  0  0  0  0  0  0  0
    1.2222    0.4600   -6.1000 H   0  0  0  0  0  0  0  0  0  0  0  0
    2.4269    2.4299   -2.4909 H   0  0  0  0  0  0  0  0  0  0  0  0
    1.4738    0.5277   -1.1288 H   0  0  0  0  0  0  0  0  0  0  0  0
    0.2784   -1.6445   -2.0913 N   0  0  0  0  0  0  0  0  0  0  0  0
    0.4007   -1.5865   -0.8560 O   0  0  0  0  0  0  0  0  0  0  0  0
   -0.2803   -2.5666   -2.7085 O   0  0  0  0  0  0  0  0  0  0  0  0
   -1.9809    1.8943   -3.2040 N   0  0  0  0  0  0  0  0  0  0  0  0
   -1.9767    0.8646   -2.7344 N   0  0  0  0  0  0  0  0  0  0  0  0
    5.1308    0.8316   -3.9858 C   0  0  0  0  0  0  0  0  0  0  0  0
    5.8987    0.6587   -2.8339 C   0  0  0  0  0  0  0  0  0  0  0  0
    6.4013    1.7574   -2.1228 C   0  0  0  0  0  0  0  0  0  0  0  0
    6.1269    3.0487   -2.5989 C   0  0  0  0  0  0  0  0  0  0  0  0
    5.3623    3.2495   -3.7473 C   0  0  0  0  0  0  0  0  0  0  0  0
    4.8799    2.1310   -4.4320 C   0  0  0  0  0  0  0  0  0  0  0  0
    4.7541   -0.0159   -4.5439 H   0  0  0  0  0  0  0  0  0  0  0  0
    6.1106   -0.3455   -2.4837 H   0  0  0  0  0  0  0  0  0  0  0  0
    6.5205    3.9078   -2.0667 H   0  0  0  0  0  0  0  0  0  0  0  0
    5.1636    4.2447   -4.1249 H   0  0  0  0  0  0  0  0  0  0  0  0
    3.8405    2.3746   -5.8364 S   0  0  0  0  0  0  0  0  0  0  0  0
    3.7637    1.1282   -6.5907 O   0  0  0  0  0  0  0  0  0  0  0  0
    4.1163    3.6591   -6.4560 O   0  0  0  0  0  0  0  0  0  0  0  0
    2.3620    2.6205   -5.0779 O   0  0  0  0  0  0  0  0  0  0  0  0
    7.1940    1.5581   -0.8585 C   0  0  0  0  0  0  0  0  0  0  0  0
    6.5392    1.5569    0.0148 H   0  0  0  0  0  0  0  0  0  0  0  0
    7.7263    0.6078   -0.8758 H   0  0  0  0  0  0  0  0  0  0  0  0
    7.9246    2.3551   -0.7247 H   0  0  0  0  0  0  0  0  0  0  0  0
  1  6  2  0  0  0  0
  2  3  2  0  0  0  0
  2  1  1  0  0  0  0
  3  4  1  0  0  0  0
  4  9  1  0  0  0  0
  4  5  2  0  0  0  0
  5 10  1  0  0  0  0
  6  5  1  0  0  0  0
  6 11  1  0  0  0  0
  7  1  1  0  0  0  0
  8  2  1  0  0  0  0
 11 12  2  0  0  0  0
 13 11  2  0  0  0  0
 14 15  3  0  0  0  0
 16 17  1  0  0  0  0
 17 23  1  0  0  0  0
 17 18  2  0  0  0  0
 18 30  1  0  0  0  0
 19 18  1  0  0  0  0
 19 24  1  0  0  0  0
 20 19  2  0  0  0  0
 21 16  2  0  0  0  0
 21 20  1  0  0  0  0
 22 16  1  0  0  0  0
 25 20  1  0  0  0  0
 26 29  1  0  0  0  0
 26 21  1  0  0  0  0
 27 26  2  0  0  0  0
 28 26  2  0  0  0  0
 29  3  1  0  0  0  0
 30 33  1  0  0  0  0
 30 31  1  0  0  0  0
 32 30  1  0  0  0  0
M  END
