Coordinates from ORCA-job p-NO2-Ph-N2-OTs-MP2-6-31G_dp-scan-d09-49-n400
 OpenBabel02121707583D

 33 33  0  0  0  0  0  0  0  0999 V2000
    2.2039   -0.4156   -3.3677 C   0  0  0  0  0  0  0  0  0  0  0  0
    1.5951    0.1756   -4.4689 C   0  0  0  0  0  0  0  0  0  0  0  0
    0.8886    1.3677   -4.2548 C   0  0  0  0  0  0  0  0  0  0  0  0
    0.7692    2.0002   -3.0058 C   0  0  0  0  0  0  0  0  0  0  0  0
    1.3956    1.4019   -1.9236 C   0  0  0  0  0  0  0  0  0  0  0  0
    2.1143    0.2198   -2.1300 C   0  0  0  0  0  0  0  0  0  0  0  0
    2.7789   -1.3244   -3.4658 H   0  0  0  0  0  0  0  0  0  0  0  0
    1.7032   -0.2145   -5.4704 H   0  0  0  0  0  0  0  0  0  0  0  0
    0.2569    2.9487   -2.9219 H   0  0  0  0  0  0  0  0  0  0  0  0
    1.3757    1.8539   -0.9423 H   0  0  0  0  0  0  0  0  0  0  0  0
    2.8134   -0.3818   -0.9886 N   0  0  0  0  0  0  0  0  0  0  0  0
    2.9036    0.2976    0.0479 O   0  0  0  0  0  0  0  0  0  0  0  0
    3.2746   -1.5255   -1.1431 O   0  0  0  0  0  0  0  0  0  0  0  0
    0.3474    1.9675   -5.3127 N   0  0  0  0  0  0  0  0  0  0  0  0
   -0.1713    2.4510   -6.2002 N   0  0  0  0  0  0  0  0  0  0  0  0
    4.7796    0.9074   -4.6736 C   0  0  0  0  0  0  0  0  0  0  0  0
    5.4518    0.2455   -3.6437 C   0  0  0  0  0  0  0  0  0  0  0  0
    5.4779    0.7660   -2.3405 C   0  0  0  0  0  0  0  0  0  0  0  0
    4.8111    1.9775   -2.0976 C   0  0  0  0  0  0  0  0  0  0  0  0
    4.1382    2.6502   -3.1202 C   0  0  0  0  0  0  0  0  0  0  0  0
    4.1098    2.1084   -4.4090 C   0  0  0  0  0  0  0  0  0  0  0  0
    4.7577    0.5011   -5.6781 H   0  0  0  0  0  0  0  0  0  0  0  0
    5.9767   -0.6811   -3.8550 H   0  0  0  0  0  0  0  0  0  0  0  0
    4.8344    2.4038   -1.0991 H   0  0  0  0  0  0  0  0  0  0  0  0
    3.6281    3.5877   -2.9345 H   0  0  0  0  0  0  0  0  0  0  0  0
    3.2295    2.9579   -5.7269 S   0  0  0  0  0  0  0  0  0  0  0  0
    2.6311    1.8305   -6.5180 O   0  0  0  0  0  0  0  0  0  0  0  0
    4.2122    3.7843   -6.4381 O   0  0  0  0  0  0  0  0  0  0  0  0
    2.1528    3.7058   -4.9937 O   0  0  0  0  0  0  0  0  0  0  0  0
    6.1942    0.0503   -1.2249 C   0  0  0  0  0  0  0  0  0  0  0  0
    5.4938   -0.4700   -0.5689 H   0  0  0  0  0  0  0  0  0  0  0  0
    6.8913   -0.6878   -1.6206 H   0  0  0  0  0  0  0  0  0  0  0  0
    6.7588    0.7551   -0.6140 H   0  0  0  0  0  0  0  0  0  0  0  0
  1  6  2  0  0  0  0
  2  3  2  0  0  0  0
  2  1  1  0  0  0  0
  3  4  1  0  0  0  0
  4  9  1  0  0  0  0
  4  5  2  0  0  0  0
  5 10  1  0  0  0  0
  6  5  1  0  0  0  0
  6 11  1  0  0  0  0
  7  1  1  0  0  0  0
  8  2  1  0  0  0  0
 11 12  2  0  0  0  0
 13 11  2  0  0  0  0
 14  3  1  0  0  0  0
 15 14  1  0  0  0  0
 16 21  2  0  0  0  0
 16 17  1  0  0  0  0
 17 18  2  0  0  0  0
 18 19  1  0  0  0  0
 18 30  1  0  0  0  0
 19 24  1  0  0  0  0
 20 25  1  0  0  0  0
 20 19  2  0  0  0  0
 21 20  1  0  0  0  0
 22 16  1  0  0  0  0
 23 17  1  0  0  0  0
 26 29  1  0  0  0  0
 26 21  1  0  0  0  0
 27 26  2  0  0  0  0
 28 26  2  0  0  0  0
 30 33  1  0  0  0  0
 30 31  1  0  0  0  0
 32 30  1  0  0  0  0
M  RAD  3  14   2  15   3  29   2
M  END
