Coordinates from ORCA-job p-NO2-Ph-N2-OTs-MP2-6-31G_dp-scan-d09-49-n400
 OpenBabel02121707583D

 33 33  0  0  0  0  0  0  0  0999 V2000
    0.7530   -0.6119   -4.2634 C   0  0  0  0  0  0  0  0  0  0  0  0
    1.2658    0.4471   -5.0108 C   0  0  0  0  0  0  0  0  0  0  0  0
    1.8643    1.5216   -4.3472 C   0  0  0  0  0  0  0  0  0  0  0  0
    1.9501    1.5668   -2.9529 C   0  0  0  0  0  0  0  0  0  0  0  0
    1.4332    0.5153   -2.1997 C   0  0  0  0  0  0  0  0  0  0  0  0
    0.8493   -0.5578   -2.8729 C   0  0  0  0  0  0  0  0  0  0  0  0
    0.2836   -1.4628   -4.7360 H   0  0  0  0  0  0  0  0  0  0  0  0
    1.2138    0.4516   -6.0908 H   0  0  0  0  0  0  0  0  0  0  0  0
    2.4157    2.4229   -2.4814 H   0  0  0  0  0  0  0  0  0  0  0  0
    1.4794    0.5119   -1.1202 H   0  0  0  0  0  0  0  0  0  0  0  0
    0.3085   -1.6735   -2.0838 N   0  0  0  0  0  0  0  0  0  0  0  0
    0.4346   -1.6169   -0.8488 O   0  0  0  0  0  0  0  0  0  0  0  0
   -0.2345   -2.6045   -2.7016 O   0  0  0  0  0  0  0  0  0  0  0  0
   -1.9357    2.0001   -3.2733 N   0  0  0  0  0  0  0  0  0  0  0  0
   -1.9758    0.9770   -2.7909 N   0  0  0  0  0  0  0  0  0  0  0  0
    5.1243    0.8320   -3.9865 C   0  0  0  0  0  0  0  0  0  0  0  0
    5.8952    0.6587   -2.8367 C   0  0  0  0  0  0  0  0  0  0  0  0
    6.3966    1.7571   -2.1244 C   0  0  0  0  0  0  0  0  0  0  0  0
    6.1179    3.0487   -2.5971 C   0  0  0  0  0  0  0  0  0  0  0  0
    5.3501    3.2500   -3.7433 C   0  0  0  0  0  0  0  0  0  0  0  0
    4.8690    2.1317   -4.4293 C   0  0  0  0  0  0  0  0  0  0  0  0
    4.7484   -0.0152   -4.5456 H   0  0  0  0  0  0  0  0  0  0  0  0
    6.1104   -0.3458   -2.4892 H   0  0  0  0  0  0  0  0  0  0  0  0
    6.5105    3.9077   -2.0640 H   0  0  0  0  0  0  0  0  0  0  0  0
    5.1481    4.2455   -4.1183 H   0  0  0  0  0  0  0  0  0  0  0  0
    3.8257    2.3757   -5.8307 S   0  0  0  0  0  0  0  0  0  0  0  0
    3.7508    1.1309   -6.5880 O   0  0  0  0  0  0  0  0  0  0  0  0
    4.0962    3.6625   -6.4478 O   0  0  0  0  0  0  0  0  0  0  0  0
    2.3482    2.6152   -5.0682 O   0  0  0  0  0  0  0  0  0  0  0  0
    7.1928    1.5570   -0.8624 C   0  0  0  0  0  0  0  0  0  0  0  0
    6.5399    1.5520    0.0124 H   0  0  0  0  0  0  0  0  0  0  0  0
    7.7276    0.6083   -0.8831 H   0  0  0  0  0  0  0  0  0  0  0  0
    7.9215    2.3558   -0.7284 H   0  0  0  0  0  0  0  0  0  0  0  0
  1  6  2  0  0  0  0
  2  3  2  0  0  0  0
  2  1  1  0  0  0  0
  3  4  1  0  0  0  0
  4  9  1  0  0  0  0
  4  5  2  0  0  0  0
  5 10  1  0  0  0  0
  6  5  1  0  0  0  0
  6 11  1  0  0  0  0
  7  1  1  0  0  0  0
  8  2  1  0  0  0  0
 11 12  2  0  0  0  0
 13 11  2  0  0  0  0
 14 15  3  0  0  0  0
 16 17  1  0  0  0  0
 17 23  1  0  0  0  0
 17 18  2  0  0  0  0
 18 30  1  0  0  0  0
 19 18  1  0  0  0  0
 19 24  1  0  0  0  0
 20 19  2  0  0  0  0
 21 16  2  0  0  0  0
 21 20  1  0  0  0  0
 22 16  1  0  0  0  0
 25 20  1  0  0  0  0
 26 29  1  0  0  0  0
 26 21  1  0  0  0  0
 27 26  2  0  0  0  0
 28 26  2  0  0  0  0
 29  3  1  0  0  0  0
 30 33  1  0  0  0  0
 30 31  1  0  0  0  0
 32 30  1  0  0  0  0
M  END
