Coordinates from ORCA-job p-NO2-Ph-N2-OTs-MP2-6-31G_dp-scan-d09-49-n400
 OpenBabel02121707583D

 33 33  0  0  0  0  0  0  0  0999 V2000
   -0.4730   -0.0961   -2.0921 C   0  0  0  0  0  0  0  0  0  0  0  0
   -0.0487    0.0070   -3.3906 C   0  0  0  0  0  0  0  0  0  0  0  0
    0.2951    1.3117   -4.0097 C   0  0  0  0  0  0  0  0  0  0  0  0
    0.1497    2.4729   -3.0927 C   0  0  0  0  0  0  0  0  0  0  0  0
   -0.3124    2.3295   -1.8079 C   0  0  0  0  0  0  0  0  0  0  0  0
   -0.6062    1.0577   -1.3061 C   0  0  0  0  0  0  0  0  0  0  0  0
   -0.7067   -1.0633   -1.6672 H   0  0  0  0  0  0  0  0  0  0  0  0
    0.0883   -0.8540   -4.0356 H   0  0  0  0  0  0  0  0  0  0  0  0
    0.4146    3.4278   -3.5263 H   0  0  0  0  0  0  0  0  0  0  0  0
   -0.4157    3.1962   -1.1686 H   0  0  0  0  0  0  0  0  0  0  0  0
   -1.0803    0.9254    0.0690 N   0  0  0  0  0  0  0  0  0  0  0  0
   -1.2218    1.9714    0.7274 O   0  0  0  0  0  0  0  0  0  0  0  0
   -1.3093   -0.2250    0.4849 O   0  0  0  0  0  0  0  0  0  0  0  0
    0.6036    1.3938   -4.9046 N   0  0  0  0  0  0  0  0  0  0  0  0
    1.0415    1.4910   -6.0339 N   0  0  0  0  0  0  0  0  0  0  0  0
    6.2936    1.9077   -5.0828 C   0  0  0  0  0  0  0  0  0  0  0  0
    7.5011    1.3401   -4.6799 C   0  0  0  0  0  0  0  0  0  0  0  0
    7.5792    0.5352   -3.5334 C   0  0  0  0  0  0  0  0  0  0  0  0
    6.4114    0.3146   -2.7889 C   0  0  0  0  0  0  0  0  0  0  0  0
    5.1934    0.8721   -3.1757 C   0  0  0  0  0  0  0  0  0  0  0  0
    5.1455    1.6702   -4.3217 C   0  0  0  0  0  0  0  0  0  0  0  0
    6.2353    2.5463   -5.9550 H   0  0  0  0  0  0  0  0  0  0  0  0
    8.3987    1.5302   -5.2588 H   0  0  0  0  0  0  0  0  0  0  0  0
    6.4593   -0.2932   -1.8914 H   0  0  0  0  0  0  0  0  0  0  0  0
    4.2950    0.7241   -2.5903 H   0  0  0  0  0  0  0  0  0  0  0  0
    3.6005    2.3581   -4.8558 S   0  0  0  0  0  0  0  0  0  0  0  0
    3.1100    1.2246   -5.7909 O   0  0  0  0  0  0  0  0  0  0  0  0
    3.8739    3.6192   -5.5562 O   0  0  0  0  0  0  0  0  0  0  0  0
    2.7191    2.4403   -3.6544 O   0  0  0  0  0  0  0  0  0  0  0  0
    8.8820   -0.1039   -3.1308 C   0  0  0  0  0  0  0  0  0  0  0  0
    9.0158   -1.0664   -3.6284 H   0  0  0  0  0  0  0  0  0  0  0  0
    9.7281    0.5280   -3.4001 H   0  0  0  0  0  0  0  0  0  0  0  0
    8.9177   -0.2783   -2.0557 H   0  0  0  0  0  0  0  0  0  0  0  0
  1  7  1  0  0  0  0
  1  6  2  0  0  0  0
  2  1  1  0  0  0  0
  3  2  2  0  0  0  0
  3  4  1  0  0  0  0
  4  5  2  0  0  0  0
  5  6  1  0  0  0  0
  5 10  1  0  0  0  0
  6 11  1  0  0  0  0
  8  2  1  0  0  0  0
  9  4  1  0  0  0  0
 11 13  2  0  0  0  0
 11 12  2  0  0  0  0
 14  3  1  0  0  0  0
 15 14  1  0  0  0  0
 16 17  2  0  0  0  0
 16 21  1  0  0  0  0
 17 18  1  0  0  0  0
 18 30  1  0  0  0  0
 18 19  2  0  0  0  0
 19 24  1  0  0  0  0
 20 19  1  0  0  0  0
 20 25  1  0  0  0  0
 21 20  2  0  0  0  0
 22 16  1  0  0  0  0
 23 17  1  0  0  0  0
 26 21  1  0  0  0  0
 26 29  1  0  0  0  0
 27 26  2  0  0  0  0
 28 26  2  0  0  0  0
 30 33  1  0  0  0  0
 31 30  1  0  0  0  0
 32 30  1  0  0  0  0
M  RAD  3  14   2  15   3  29   2
M  END
