Coordinates from ORCA-job p-NO2-Ph-N2-OTs-MP2-6-31G_dp-scan-d09-49-n400
 OpenBabel02121707583D

 33 33  0  0  0  0  0  0  0  0999 V2000
    0.7275   -0.7559   -4.1689 C   0  0  0  0  0  0  0  0  0  0  0  0
    1.1848    0.3364   -4.9026 C   0  0  0  0  0  0  0  0  0  0  0  0
    1.7293    1.4309   -4.2258 C   0  0  0  0  0  0  0  0  0  0  0  0
    1.9238    1.4123   -2.8418 C   0  0  0  0  0  0  0  0  0  0  0  0
    1.4624    0.3284   -2.1001 C   0  0  0  0  0  0  0  0  0  0  0  0
    0.8785   -0.7399   -2.7818 C   0  0  0  0  0  0  0  0  0  0  0  0
    0.2773   -1.6127   -4.6493 H   0  0  0  0  0  0  0  0  0  0  0  0
    1.0830    0.3745   -5.9784 H   0  0  0  0  0  0  0  0  0  0  0  0
    2.3790    2.2698   -2.3626 H   0  0  0  0  0  0  0  0  0  0  0  0
    1.5686    0.2863   -1.0256 H   0  0  0  0  0  0  0  0  0  0  0  0
    0.3932   -1.8896   -2.0053 N   0  0  0  0  0  0  0  0  0  0  0  0
    0.5590   -1.8618   -0.7740 O   0  0  0  0  0  0  0  0  0  0  0  0
   -0.1481   -2.8177   -2.6294 O   0  0  0  0  0  0  0  0  0  0  0  0
   -0.4737    2.5824   -4.0229 N   0  0  0  0  0  0  0  0  0  0  0  0
   -1.3670    2.1157   -3.5044 N   0  0  0  0  0  0  0  0  0  0  0  0
    5.0414    0.8596   -4.0007 C   0  0  0  0  0  0  0  0  0  0  0  0
    5.8583    0.6866   -2.8831 C   0  0  0  0  0  0  0  0  0  0  0  0
    6.3291    1.7842   -2.1490 C   0  0  0  0  0  0  0  0  0  0  0  0
    5.9722    3.0754   -2.5673 C   0  0  0  0  0  0  0  0  0  0  0  0
    5.1579    3.2763   -3.6810 C   0  0  0  0  0  0  0  0  0  0  0  0
    4.7084    2.1589   -4.3896 C   0  0  0  0  0  0  0  0  0  0  0  0
    4.6873    0.0140   -4.5762 H   0  0  0  0  0  0  0  0  0  0  0  0
    6.1336   -0.3170   -2.5778 H   0  0  0  0  0  0  0  0  0  0  0  0
    6.3404    3.9346   -2.0173 H   0  0  0  0  0  0  0  0  0  0  0  0
    4.8956    4.2724   -4.0146 H   0  0  0  0  0  0  0  0  0  0  0  0
    3.6082    2.3978   -5.7475 S   0  0  0  0  0  0  0  0  0  0  0  0
    3.5597    1.1726   -6.5382 O   0  0  0  0  0  0  0  0  0  0  0  0
    3.8070    3.7109   -6.3362 O   0  0  0  0  0  0  0  0  0  0  0  0
    2.1486    2.5591   -4.9325 O   0  0  0  0  0  0  0  0  0  0  0  0
    7.1757    1.5819   -0.9206 C   0  0  0  0  0  0  0  0  0  0  0  0
    6.5532    1.5112   -0.0267 H   0  0  0  0  0  0  0  0  0  0  0  0
    7.7580    0.6642   -0.9932 H   0  0  0  0  0  0  0  0  0  0  0  0
    7.8661    2.4128   -0.7796 H   0  0  0  0  0  0  0  0  0  0  0  0
  1  6  2  0  0  0  0
  2  3  2  0  0  0  0
  2  1  1  0  0  0  0
  3  4  1  0  0  0  0
  4  9  1  0  0  0  0
  4  5  2  0  0  0  0
  5 10  1  0  0  0  0
  6  5  1  0  0  0  0
  6 11  1  0  0  0  0
  7  1  1  0  0  0  0
  8  2  1  0  0  0  0
 11 12  2  0  0  0  0
 13 11  2  0  0  0  0
 14 15  3  0  0  0  0
 16 17  1  0  0  0  0
 17 23  1  0  0  0  0
 17 18  2  0  0  0  0
 18 30  1  0  0  0  0
 19 18  1  0  0  0  0
 19 24  1  0  0  0  0
 20 19  2  0  0  0  0
 21 16  2  0  0  0  0
 21 20  1  0  0  0  0
 22 16  1  0  0  0  0
 25 20  1  0  0  0  0
 26 29  1  0  0  0  0
 26 21  1  0  0  0  0
 27 26  2  0  0  0  0
 28 26  2  0  0  0  0
 29  3  1  0  0  0  0
 30 33  1  0  0  0  0
 30 31  1  0  0  0  0
 32 30  1  0  0  0  0
M  END
