Coordinates from ORCA-job p-NO2-Ph-N2-OTs-MP2-6-31G_dp-scan-d09-49-n400
 OpenBabel02121707583D

 33 33  0  0  0  0  0  0  0  0999 V2000
    0.7484   -0.7373   -4.1613 C   0  0  0  0  0  0  0  0  0  0  0  0
    1.1778    0.3599   -4.9021 C   0  0  0  0  0  0  0  0  0  0  0  0
    1.6663    1.4873   -4.2312 C   0  0  0  0  0  0  0  0  0  0  0  0
    1.9439    1.4434   -2.8590 C   0  0  0  0  0  0  0  0  0  0  0  0
    1.5115    0.3560   -2.1075 C   0  0  0  0  0  0  0  0  0  0  0  0
    0.9208   -0.7173   -2.7764 C   0  0  0  0  0  0  0  0  0  0  0  0
    0.3187   -1.6081   -4.6353 H   0  0  0  0  0  0  0  0  0  0  0  0
    1.0598    0.3937   -5.9764 H   0  0  0  0  0  0  0  0  0  0  0  0
    2.4028    2.3042   -2.3891 H   0  0  0  0  0  0  0  0  0  0  0  0
    1.6593    0.3066   -1.0382 H   0  0  0  0  0  0  0  0  0  0  0  0
    0.4648   -1.8721   -1.9907 N   0  0  0  0  0  0  0  0  0  0  0  0
    0.6571   -1.8431   -0.7631 O   0  0  0  0  0  0  0  0  0  0  0  0
   -0.0804   -2.8053   -2.6036 O   0  0  0  0  0  0  0  0  0  0  0  0
   -0.2478    2.4989   -4.0422 N   0  0  0  0  0  0  0  0  0  0  0  0
   -1.1579    2.0897   -3.4992 N   0  0  0  0  0  0  0  0  0  0  0  0
    4.9872    0.8515   -4.0024 C   0  0  0  0  0  0  0  0  0  0  0  0
    5.7971    0.6713   -2.8809 C   0  0  0  0  0  0  0  0  0  0  0  0
    6.2732    1.7648   -2.1439 C   0  0  0  0  0  0  0  0  0  0  0  0
    5.9298    3.0590   -2.5638 C   0  0  0  0  0  0  0  0  0  0  0  0
    5.1232    3.2670   -3.6820 C   0  0  0  0  0  0  0  0  0  0  0  0
    4.6669    2.1536   -4.3922 C   0  0  0  0  0  0  0  0  0  0  0  0
    4.6266    0.0091   -4.5787 H   0  0  0  0  0  0  0  0  0  0  0  0
    6.0621   -0.3347   -2.5744 H   0  0  0  0  0  0  0  0  0  0  0  0
    6.3027    3.9149   -2.0119 H   0  0  0  0  0  0  0  0  0  0  0  0
    4.8716    4.2655   -4.0170 H   0  0  0  0  0  0  0  0  0  0  0  0
    3.5765    2.4024   -5.7559 S   0  0  0  0  0  0  0  0  0  0  0  0
    3.5154    1.1749   -6.5419 O   0  0  0  0  0  0  0  0  0  0  0  0
    3.7997    3.7093   -6.3499 O   0  0  0  0  0  0  0  0  0  0  0  0
    2.1128    2.5968   -4.9560 O   0  0  0  0  0  0  0  0  0  0  0  0
    7.1112    1.5543   -0.9110 C   0  0  0  0  0  0  0  0  0  0  0  0
    6.4823    1.4727   -0.0226 H   0  0  0  0  0  0  0  0  0  0  0  0
    7.6975    0.6394   -0.9877 H   0  0  0  0  0  0  0  0  0  0  0  0
    7.7974    2.3864   -0.7570 H   0  0  0  0  0  0  0  0  0  0  0  0
  1  6  2  0  0  0  0
  2  3  2  0  0  0  0
  2  1  1  0  0  0  0
  3  4  1  0  0  0  0
  4  9  1  0  0  0  0
  4  5  2  0  0  0  0
  5 10  1  0  0  0  0
  6  5  1  0  0  0  0
  6 11  1  0  0  0  0
  7  1  1  0  0  0  0
  8  2  1  0  0  0  0
 11 12  2  0  0  0  0
 13 11  2  0  0  0  0
 14 15  3  0  0  0  0
 16 17  1  0  0  0  0
 17 23  1  0  0  0  0
 17 18  2  0  0  0  0
 18 30  1  0  0  0  0
 19 18  1  0  0  0  0
 19 24  1  0  0  0  0
 20 19  2  0  0  0  0
 21 16  2  0  0  0  0
 21 20  1  0  0  0  0
 22 16  1  0  0  0  0
 25 20  1  0  0  0  0
 26 29  1  0  0  0  0
 26 21  1  0  0  0  0
 27 26  2  0  0  0  0
 28 26  2  0  0  0  0
 29  3  1  0  0  0  0
 30 33  1  0  0  0  0
 30 31  1  0  0  0  0
 32 30  1  0  0  0  0
M  END
