Coordinates from ORCA-job p-NO2-Ph-N2-OTs-MP2-6-31G_dp-scan-d09-49-n400
 OpenBabel02121707583D

 33 33  0  0  0  0  0  0  0  0999 V2000
    0.7498   -0.5163   -4.3094 C   0  0  0  0  0  0  0  0  0  0  0  0
    1.3065    0.5145   -5.0646 C   0  0  0  0  0  0  0  0  0  0  0  0
    1.9183    1.5853   -4.4076 C   0  0  0  0  0  0  0  0  0  0  0  0
    1.9859    1.6490   -3.0133 C   0  0  0  0  0  0  0  0  0  0  0  0
    1.4254    0.6257   -2.2526 C   0  0  0  0  0  0  0  0  0  0  0  0
    0.8246   -0.4427   -2.9184 C   0  0  0  0  0  0  0  0  0  0  0  0
    0.2668   -1.3625   -4.7765 H   0  0  0  0  0  0  0  0  0  0  0  0
    1.2726    0.5021   -6.1451 H   0  0  0  0  0  0  0  0  0  0  0  0
    2.4657    2.4999   -2.5468 H   0  0  0  0  0  0  0  0  0  0  0  0
    1.4554    0.6378   -1.1725 H   0  0  0  0  0  0  0  0  0  0  0  0
    0.2399   -1.5297   -2.1213 N   0  0  0  0  0  0  0  0  0  0  0  0
    0.3635   -1.4655   -0.8866 O   0  0  0  0  0  0  0  0  0  0  0  0
   -0.3364   -2.4445   -2.7325 O   0  0  0  0  0  0  0  0  0  0  0  0
   -2.5011    1.4296   -2.8468 N   0  0  0  0  0  0  0  0  0  0  0  0
   -2.1896    0.4066   -2.4775 N   0  0  0  0  0  0  0  0  0  0  0  0
    5.1553    0.8206   -3.9816 C   0  0  0  0  0  0  0  0  0  0  0  0
    5.9029    0.6464   -2.8166 C   0  0  0  0  0  0  0  0  0  0  0  0
    6.4196    1.7432   -2.1128 C   0  0  0  0  0  0  0  0  0  0  0  0
    6.1807    3.0337   -2.6097 C   0  0  0  0  0  0  0  0  0  0  0  0
    5.4370    3.2358   -3.7716 C   0  0  0  0  0  0  0  0  0  0  0  0
    4.9395    2.1191   -4.4484 C   0  0  0  0  0  0  0  0  0  0  0  0
    4.7677   -0.0258   -4.5339 H   0  0  0  0  0  0  0  0  0  0  0  0
    6.0873   -0.3575   -2.4502 H   0  0  0  0  0  0  0  0  0  0  0  0
    6.5857    3.8910   -2.0833 H   0  0  0  0  0  0  0  0  0  0  0  0
    5.2658    4.2300   -4.1650 H   0  0  0  0  0  0  0  0  0  0  0  0
    3.9258    2.3666   -5.8707 S   0  0  0  0  0  0  0  0  0  0  0  0
    3.8329    1.1124   -6.6101 O   0  0  0  0  0  0  0  0  0  0  0  0
    4.2386    3.6365   -6.5029 O   0  0  0  0  0  0  0  0  0  0  0  0
    2.4425    2.6546   -5.1375 O   0  0  0  0  0  0  0  0  0  0  0  0
    7.1898    1.5434   -0.8347 C   0  0  0  0  0  0  0  0  0  0  0  0
    6.5225    1.5669    0.0288 H   0  0  0  0  0  0  0  0  0  0  0  0
    7.7021    0.5821   -0.8325 H   0  0  0  0  0  0  0  0  0  0  0  0
    7.9350    2.3266   -0.7001 H   0  0  0  0  0  0  0  0  0  0  0  0
  1  6  2  0  0  0  0
  2  3  2  0  0  0  0
  2  1  1  0  0  0  0
  3  4  1  0  0  0  0
  4  9  1  0  0  0  0
  4  5  2  0  0  0  0
  5 10  1  0  0  0  0
  6  5  1  0  0  0  0
  6 11  1  0  0  0  0
  7  1  1  0  0  0  0
  8  2  1  0  0  0  0
 11 12  2  0  0  0  0
 13 11  2  0  0  0  0
 14 15  3  0  0  0  0
 16 17  1  0  0  0  0
 17 23  1  0  0  0  0
 17 18  2  0  0  0  0
 18 30  1  0  0  0  0
 19 18  1  0  0  0  0
 19 24  1  0  0  0  0
 20 19  2  0  0  0  0
 21 16  2  0  0  0  0
 21 20  1  0  0  0  0
 22 16  1  0  0  0  0
 25 20  1  0  0  0  0
 26 29  1  0  0  0  0
 26 21  1  0  0  0  0
 27 26  2  0  0  0  0
 28 26  2  0  0  0  0
 29  3  1  0  0  0  0
 30 32  1  0  0  0  0
 30 33  1  0  0  0  0
 30 31  1  0  0  0  0
M  END
