Coordinates from ORCA-job p-NO2-Ph-N2-OTs-MP2-6-31G_dp-scan-d09-49-n400
 OpenBabel02121707583D

 33 33  0  0  0  0  0  0  0  0999 V2000
   -0.4377   -0.1056   -2.0748 C   0  0  0  0  0  0  0  0  0  0  0  0
   -0.0149    0.0087   -3.3794 C   0  0  0  0  0  0  0  0  0  0  0  0
    0.2898    1.3088   -3.9634 C   0  0  0  0  0  0  0  0  0  0  0  0
    0.1383    2.4667   -3.0887 C   0  0  0  0  0  0  0  0  0  0  0  0
   -0.3096    2.3213   -1.7944 C   0  0  0  0  0  0  0  0  0  0  0  0
   -0.5841    1.0458   -1.2931 C   0  0  0  0  0  0  0  0  0  0  0  0
   -0.6554   -1.0753   -1.6485 H   0  0  0  0  0  0  0  0  0  0  0  0
    0.1234   -0.8542   -4.0208 H   0  0  0  0  0  0  0  0  0  0  0  0
    0.3985    3.4263   -3.5134 H   0  0  0  0  0  0  0  0  0  0  0  0
   -0.4210    3.1857   -1.1542 H   0  0  0  0  0  0  0  0  0  0  0  0
   -1.0485    0.9079    0.0878 N   0  0  0  0  0  0  0  0  0  0  0  0
   -1.1996    1.9523    0.7457 O   0  0  0  0  0  0  0  0  0  0  0  0
   -1.2595   -0.2448    0.5054 O   0  0  0  0  0  0  0  0  0  0  0  0
    0.6068    1.3996   -4.9290 N   0  0  0  0  0  0  0  0  0  0  0  0
    1.0434    1.4923   -6.0365 N   0  0  0  0  0  0  0  0  0  0  0  0
    6.3070    1.9176   -5.0904 C   0  0  0  0  0  0  0  0  0  0  0  0
    7.5031    1.3401   -4.6674 C   0  0  0  0  0  0  0  0  0  0  0  0
    7.5546    0.5313   -3.5224 C   0  0  0  0  0  0  0  0  0  0  0  0
    6.3715    0.3166   -2.8008 C   0  0  0  0  0  0  0  0  0  0  0  0
    5.1650    0.8840   -3.2088 C   0  0  0  0  0  0  0  0  0  0  0  0
    5.1427    1.6852   -4.3532 C   0  0  0  0  0  0  0  0  0  0  0  0
    6.2693    2.5596   -5.9613 H   0  0  0  0  0  0  0  0  0  0  0  0
    8.4127    1.5262   -5.2287 H   0  0  0  0  0  0  0  0  0  0  0  0
    6.3986   -0.2940   -1.9042 H   0  0  0  0  0  0  0  0  0  0  0  0
    4.2551    0.7408   -2.6401 H   0  0  0  0  0  0  0  0  0  0  0  0
    3.6108    2.3807   -4.9161 S   0  0  0  0  0  0  0  0  0  0  0  0
    3.1042    1.2594   -5.8495 O   0  0  0  0  0  0  0  0  0  0  0  0
    3.9109    3.6362   -5.6165 O   0  0  0  0  0  0  0  0  0  0  0  0
    2.7161    2.4809   -3.7250 O   0  0  0  0  0  0  0  0  0  0  0  0
    8.8452   -0.1181   -3.0973 C   0  0  0  0  0  0  0  0  0  0  0  0
    8.9769   -1.0850   -3.5869 H   0  0  0  0  0  0  0  0  0  0  0  0
    9.7012    0.5039   -3.3579 H   0  0  0  0  0  0  0  0  0  0  0  0
    8.8637   -0.2863   -2.0207 H   0  0  0  0  0  0  0  0  0  0  0  0
  1  7  1  0  0  0  0
  1  6  2  0  0  0  0
  2  1  1  0  0  0  0
  3  2  2  0  0  0  0
  3  4  1  0  0  0  0
  4  5  2  0  0  0  0
  5  6  1  0  0  0  0
  5 10  1  0  0  0  0
  6 11  1  0  0  0  0
  8  2  1  0  0  0  0
  9  4  1  0  0  0  0
 11 13  2  0  0  0  0
 11 12  2  0  0  0  0
 14  3  1  0  0  0  0
 15 14  1  0  0  0  0
 16 17  2  0  0  0  0
 16 21  1  0  0  0  0
 17 18  1  0  0  0  0
 18 30  1  0  0  0  0
 18 19  2  0  0  0  0
 19 24  1  0  0  0  0
 20 19  1  0  0  0  0
 20 25  1  0  0  0  0
 21 20  2  0  0  0  0
 22 16  1  0  0  0  0
 23 17  1  0  0  0  0
 26 21  1  0  0  0  0
 26 29  1  0  0  0  0
 27 26  2  0  0  0  0
 28 26  2  0  0  0  0
 30 33  1  0  0  0  0
 31 30  1  0  0  0  0
 32 30  1  0  0  0  0
M  RAD  3  14   2  15   3  29   2
M  END
