Coordinates from ORCA-job p-NO2-Ph-N2-OTs-MP2-6-31G_dp-scan-d09-49-n400
 OpenBabel02121707583D

 33 33  0  0  0  0  0  0  0  0999 V2000
    0.7473   -0.5995   -4.2715 C   0  0  0  0  0  0  0  0  0  0  0  0
    1.2719    0.4535   -5.0190 C   0  0  0  0  0  0  0  0  0  0  0  0
    1.8708    1.5273   -4.3547 C   0  0  0  0  0  0  0  0  0  0  0  0
    1.9599    1.5704   -2.9606 C   0  0  0  0  0  0  0  0  0  0  0  0
    1.4314    0.5247   -2.2075 C   0  0  0  0  0  0  0  0  0  0  0  0
    0.8410   -0.5446   -2.8810 C   0  0  0  0  0  0  0  0  0  0  0  0
    0.2716   -1.4470   -4.7439 H   0  0  0  0  0  0  0  0  0  0  0  0
    1.2213    0.4581   -6.0990 H   0  0  0  0  0  0  0  0  0  0  0  0
    2.4293    2.4243   -2.4889 H   0  0  0  0  0  0  0  0  0  0  0  0
    1.4743    0.5221   -1.1278 H   0  0  0  0  0  0  0  0  0  0  0  0
    0.2726   -1.6458   -2.0913 N   0  0  0  0  0  0  0  0  0  0  0  0
    0.3934   -1.5879   -0.8558 O   0  0  0  0  0  0  0  0  0  0  0  0
   -0.2888   -2.5659   -2.7089 O   0  0  0  0  0  0  0  0  0  0  0  0
   -1.9625    1.9035   -3.2114 N   0  0  0  0  0  0  0  0  0  0  0  0
   -1.9673    0.8746   -2.7403 N   0  0  0  0  0  0  0  0  0  0  0  0
    5.1323    0.8324   -3.9863 C   0  0  0  0  0  0  0  0  0  0  0  0
    5.9011    0.6600   -2.8349 C   0  0  0  0  0  0  0  0  0  0  0  0
    6.4020    1.7590   -2.1232 C   0  0  0  0  0  0  0  0  0  0  0  0
    6.1251    3.0502   -2.5982 C   0  0  0  0  0  0  0  0  0  0  0  0
    5.3596    3.2505   -3.7461 C   0  0  0  0  0  0  0  0  0  0  0  0
    4.8788    2.1316   -4.4314 C   0  0  0  0  0  0  0  0  0  0  0  0
    4.7568   -0.0154   -4.5449 H   0  0  0  0  0  0  0  0  0  0  0  0
    6.1148   -0.3442   -2.4856 H   0  0  0  0  0  0  0  0  0  0  0  0
    6.5174    3.9096   -2.0656 H   0  0  0  0  0  0  0  0  0  0  0  0
    5.1591    4.2456   -4.1228 H   0  0  0  0  0  0  0  0  0  0  0  0
    3.8383    2.3745   -5.8351 S   0  0  0  0  0  0  0  0  0  0  0  0
    3.7625    1.1283   -6.5898 O   0  0  0  0  0  0  0  0  0  0  0  0
    4.1124    3.6595   -6.4545 O   0  0  0  0  0  0  0  0  0  0  0  0
    2.3601    2.6186   -5.0757 O   0  0  0  0  0  0  0  0  0  0  0  0
    7.1957    1.5601   -0.8595 C   0  0  0  0  0  0  0  0  0  0  0  0
    6.5413    1.5572    0.0141 H   0  0  0  0  0  0  0  0  0  0  0  0
    7.7297    0.6108   -0.8777 H   0  0  0  0  0  0  0  0  0  0  0  0
    7.9250    2.3583   -0.7254 H   0  0  0  0  0  0  0  0  0  0  0  0
  1  6  2  0  0  0  0
  2  3  2  0  0  0  0
  2  1  1  0  0  0  0
  3  4  1  0  0  0  0
  4  9  1  0  0  0  0
  4  5  2  0  0  0  0
  5 10  1  0  0  0  0
  6  5  1  0  0  0  0
  6 11  1  0  0  0  0
  7  1  1  0  0  0  0
  8  2  1  0  0  0  0
 11 12  2  0  0  0  0
 13 11  2  0  0  0  0
 14 15  3  0  0  0  0
 16 17  1  0  0  0  0
 17 23  1  0  0  0  0
 17 18  2  0  0  0  0
 18 30  1  0  0  0  0
 19 18  1  0  0  0  0
 19 24  1  0  0  0  0
 20 19  2  0  0  0  0
 21 16  2  0  0  0  0
 21 20  1  0  0  0  0
 22 16  1  0  0  0  0
 25 20  1  0  0  0  0
 26 29  1  0  0  0  0
 26 21  1  0  0  0  0
 27 26  2  0  0  0  0
 28 26  2  0  0  0  0
 29  3  1  0  0  0  0
 30 33  1  0  0  0  0
 30 31  1  0  0  0  0
 32 30  1  0  0  0  0
M  END
