Coordinates from ORCA-job p-NO2-Ph-N2-OTs-MP2-6-31G_dp-scan-d09-49-n400
 OpenBabel02121707583D

 33 33  0  0  0  0  0  0  0  0999 V2000
    0.7344   -0.6799   -4.2234 C   0  0  0  0  0  0  0  0  0  0  0  0
    1.2252    0.3953   -4.9621 C   0  0  0  0  0  0  0  0  0  0  0  0
    1.8145    1.4695   -4.2901 C   0  0  0  0  0  0  0  0  0  0  0  0
    1.9295    1.4913   -2.8975 C   0  0  0  0  0  0  0  0  0  0  0  0
    1.4343    0.4236   -2.1527 C   0  0  0  0  0  0  0  0  0  0  0  0
    0.8486   -0.6440   -2.8334 C   0  0  0  0  0  0  0  0  0  0  0  0
    0.2676   -1.5291   -4.7014 H   0  0  0  0  0  0  0  0  0  0  0  0
    1.1548    0.4168   -6.0408 H   0  0  0  0  0  0  0  0  0  0  0  0
    2.3914    2.3461   -2.4200 H   0  0  0  0  0  0  0  0  0  0  0  0
    1.4975    0.4035   -1.0741 H   0  0  0  0  0  0  0  0  0  0  0  0
    0.3283   -1.7758   -2.0530 N   0  0  0  0  0  0  0  0  0  0  0  0
    0.4603   -1.7304   -0.8182 O   0  0  0  0  0  0  0  0  0  0  0  0
   -0.2067   -2.7070   -2.6776 O   0  0  0  0  0  0  0  0  0  0  0  0
   -1.3186    2.3348   -3.6337 N   0  0  0  0  0  0  0  0  0  0  0  0
   -1.7391    1.4344   -3.0915 N   0  0  0  0  0  0  0  0  0  0  0  0
    5.0984    0.8455   -3.9899 C   0  0  0  0  0  0  0  0  0  0  0  0
    5.8919    0.6742   -2.8552 C   0  0  0  0  0  0  0  0  0  0  0  0
    6.3803    1.7740   -2.1360 C   0  0  0  0  0  0  0  0  0  0  0  0
    6.0651    3.0652   -2.5865 C   0  0  0  0  0  0  0  0  0  0  0  0
    5.2744    3.2644   -3.7173 C   0  0  0  0  0  0  0  0  0  0  0  0
    4.8071    2.1449   -4.4108 C   0  0  0  0  0  0  0  0  0  0  0  0
    4.7325   -0.0025   -4.5546 H   0  0  0  0  0  0  0  0  0  0  0  0
    6.1351   -0.3298   -2.5250 H   0  0  0  0  0  0  0  0  0  0  0  0
    6.4471    3.9256   -2.0480 H   0  0  0  0  0  0  0  0  0  0  0  0
    5.0441    4.2600   -4.0753 H   0  0  0  0  0  0  0  0  0  0  0  0
    3.7354    2.3840   -5.7915 S   0  0  0  0  0  0  0  0  0  0  0  0
    3.6736    1.1472   -6.5628 O   0  0  0  0  0  0  0  0  0  0  0  0
    3.9691    3.6836   -6.3968 O   0  0  0  0  0  0  0  0  0  0  0  0
    2.2667    2.5832   -5.0012 O   0  0  0  0  0  0  0  0  0  0  0  0
    7.2013    1.5751   -0.8899 C   0  0  0  0  0  0  0  0  0  0  0  0
    6.5633    1.5451   -0.0047 H   0  0  0  0  0  0  0  0  0  0  0  0
    7.7558    0.6384   -0.9316 H   0  0  0  0  0  0  0  0  0  0  0  0
    7.9150    2.3875   -0.7575 H   0  0  0  0  0  0  0  0  0  0  0  0
  1  6  2  0  0  0  0
  2  3  2  0  0  0  0
  2  1  1  0  0  0  0
  3  4  1  0  0  0  0
  4  9  1  0  0  0  0
  4  5  2  0  0  0  0
  5 10  1  0  0  0  0
  6  5  1  0  0  0  0
  6 11  1  0  0  0  0
  7  1  1  0  0  0  0
  8  2  1  0  0  0  0
 11 12  2  0  0  0  0
 13 11  2  0  0  0  0
 14 15  3  0  0  0  0
 16 17  1  0  0  0  0
 17 23  1  0  0  0  0
 17 18  2  0  0  0  0
 18 30  1  0  0  0  0
 19 18  1  0  0  0  0
 19 24  1  0  0  0  0
 20 19  2  0  0  0  0
 21 16  2  0  0  0  0
 21 20  1  0  0  0  0
 22 16  1  0  0  0  0
 25 20  1  0  0  0  0
 26 29  1  0  0  0  0
 26 21  1  0  0  0  0
 27 26  2  0  0  0  0
 28 26  2  0  0  0  0
 29  3  1  0  0  0  0
 30 33  1  0  0  0  0
 30 31  1  0  0  0  0
 32 30  1  0  0  0  0
M  END
