Coordinates from ORCA-job p-NO2-Ph-N2-OTs-MP2-6-31G_dp-scan-d09-49-n400
 OpenBabel02121707583D

 33 33  0  0  0  0  0  0  0  0999 V2000
    2.2082   -0.4083   -3.3798 C   0  0  0  0  0  0  0  0  0  0  0  0
    1.5903    0.1787   -4.4763 C   0  0  0  0  0  0  0  0  0  0  0  0
    0.8738    1.3740   -4.2714 C   0  0  0  0  0  0  0  0  0  0  0  0
    0.7686    2.0013   -3.0113 C   0  0  0  0  0  0  0  0  0  0  0  0
    1.4041    1.4079   -1.9339 C   0  0  0  0  0  0  0  0  0  0  0  0
    2.1234    0.2261   -2.1411 C   0  0  0  0  0  0  0  0  0  0  0  0
    2.7829   -1.3171   -3.4808 H   0  0  0  0  0  0  0  0  0  0  0  0
    1.6914   -0.2150   -5.4775 H   0  0  0  0  0  0  0  0  0  0  0  0
    0.2531    2.9482   -2.9242 H   0  0  0  0  0  0  0  0  0  0  0  0
    1.3876    1.8609   -0.9529 H   0  0  0  0  0  0  0  0  0  0  0  0
    2.8206   -0.3785   -1.0010 N   0  0  0  0  0  0  0  0  0  0  0  0
    2.9073    0.2970    0.0386 O   0  0  0  0  0  0  0  0  0  0  0  0
    3.2820   -1.5220   -1.1586 O   0  0  0  0  0  0  0  0  0  0  0  0
    0.3475    1.9353   -5.2704 N   0  0  0  0  0  0  0  0  0  0  0  0
   -0.1562    2.4269   -6.1641 N   0  0  0  0  0  0  0  0  0  0  0  0
    4.7740    0.9044   -4.6692 C   0  0  0  0  0  0  0  0  0  0  0  0
    5.4442    0.2418   -3.6383 C   0  0  0  0  0  0  0  0  0  0  0  0
    5.4731    0.7651   -2.3363 C   0  0  0  0  0  0  0  0  0  0  0  0
    4.8104    1.9796   -2.0955 C   0  0  0  0  0  0  0  0  0  0  0  0
    4.1404    2.6531   -3.1193 C   0  0  0  0  0  0  0  0  0  0  0  0
    4.1094    2.1091   -4.4072 C   0  0  0  0  0  0  0  0  0  0  0  0
    4.7502    0.4967   -5.6731 H   0  0  0  0  0  0  0  0  0  0  0  0
    5.9659   -0.6870   -3.8480 H   0  0  0  0  0  0  0  0  0  0  0  0
    4.8365    2.4080   -1.0979 H   0  0  0  0  0  0  0  0  0  0  0  0
    3.6342    3.5932   -2.9356 H   0  0  0  0  0  0  0  0  0  0  0  0
    3.2311    2.9606   -5.7266 S   0  0  0  0  0  0  0  0  0  0  0  0
    2.6352    1.8325   -6.5174 O   0  0  0  0  0  0  0  0  0  0  0  0
    4.2165    3.7863   -6.4352 O   0  0  0  0  0  0  0  0  0  0  0  0
    2.1564    3.7082   -4.9920 O   0  0  0  0  0  0  0  0  0  0  0  0
    6.1888    0.0501   -1.2200 C   0  0  0  0  0  0  0  0  0  0  0  0
    5.4882   -0.4704   -0.5643 H   0  0  0  0  0  0  0  0  0  0  0  0
    6.8866   -0.6876   -1.6150 H   0  0  0  0  0  0  0  0  0  0  0  0
    6.7523    0.7555   -0.6089 H   0  0  0  0  0  0  0  0  0  0  0  0
  1  6  2  0  0  0  0
  2  3  2  0  0  0  0
  2  1  1  0  0  0  0
  3  4  1  0  0  0  0
  4  9  1  0  0  0  0
  4  5  2  0  0  0  0
  5 10  1  0  0  0  0
  6  5  1  0  0  0  0
  6 11  1  0  0  0  0
  7  1  1  0  0  0  0
  8  2  1  0  0  0  0
 11 12  2  0  0  0  0
 13 11  2  0  0  0  0
 14  3  1  0  0  0  0
 15 14  1  0  0  0  0
 16 21  2  0  0  0  0
 16 17  1  0  0  0  0
 17 18  2  0  0  0  0
 18 19  1  0  0  0  0
 18 30  1  0  0  0  0
 19 24  1  0  0  0  0
 20 25  1  0  0  0  0
 20 19  2  0  0  0  0
 21 20  1  0  0  0  0
 22 16  1  0  0  0  0
 23 17  1  0  0  0  0
 26 29  1  0  0  0  0
 26 21  1  0  0  0  0
 27 26  2  0  0  0  0
 28 26  2  0  0  0  0
 30 33  1  0  0  0  0
 30 31  1  0  0  0  0
 32 30  1  0  0  0  0
M  RAD  3  14   2  15   3  29   2
M  END
