Coordinates from ORCA-job p-NO2-Ph-N2-OTs-MP2-6-31G_dp-scan-d09-49-n400
 OpenBabel02121707583D

 33 33  0  0  0  0  0  0  0  0999 V2000
    0.7472   -0.5495   -4.2951 C   0  0  0  0  0  0  0  0  0  0  0  0
    1.2927    0.4895   -5.0470 C   0  0  0  0  0  0  0  0  0  0  0  0
    1.8988    1.5616   -4.3867 C   0  0  0  0  0  0  0  0  0  0  0  0
    1.9762    1.6160   -2.9925 C   0  0  0  0  0  0  0  0  0  0  0  0
    1.4270    0.5842   -2.2350 C   0  0  0  0  0  0  0  0  0  0  0  0
    0.8294   -0.4837   -2.9042 C   0  0  0  0  0  0  0  0  0  0  0  0
    0.2657   -1.3954   -4.7645 H   0  0  0  0  0  0  0  0  0  0  0  0
    1.2523    0.4840   -6.1274 H   0  0  0  0  0  0  0  0  0  0  0  0
    2.4522    2.4677   -2.5235 H   0  0  0  0  0  0  0  0  0  0  0  0
    1.4616    0.5903   -1.1550 H   0  0  0  0  0  0  0  0  0  0  0  0
    0.2436   -1.5724   -2.1102 N   0  0  0  0  0  0  0  0  0  0  0  0
    0.3716   -1.5147   -0.8755 O   0  0  0  0  0  0  0  0  0  0  0  0
   -0.3387   -2.4820   -2.7237 O   0  0  0  0  0  0  0  0  0  0  0  0
   -2.2623    1.6147   -2.9929 N   0  0  0  0  0  0  0  0  0  0  0  0
   -2.0854    0.5778   -2.5761 N   0  0  0  0  0  0  0  0  0  0  0  0
    5.1468    0.8257   -3.9833 C   0  0  0  0  0  0  0  0  0  0  0  0
    5.9029    0.6526   -2.8237 C   0  0  0  0  0  0  0  0  0  0  0  0
    6.4128    1.7506   -2.1168 C   0  0  0  0  0  0  0  0  0  0  0  0
    6.1581    3.0414   -2.6051 C   0  0  0  0  0  0  0  0  0  0  0  0
    5.4056    3.2424   -3.7614 C   0  0  0  0  0  0  0  0  0  0  0  0
    4.9154    2.1245   -4.4416 C   0  0  0  0  0  0  0  0  0  0  0  0
    4.7645   -0.0215   -4.5381 H   0  0  0  0  0  0  0  0  0  0  0  0
    6.0996   -0.3515   -2.4640 H   0  0  0  0  0  0  0  0  0  0  0  0
    6.5576    3.8997   -2.0762 H   0  0  0  0  0  0  0  0  0  0  0  0
    5.2222    4.2370   -4.1482 H   0  0  0  0  0  0  0  0  0  0  0  0
    3.8908    2.3698   -5.8566 S   0  0  0  0  0  0  0  0  0  0  0  0
    3.8053    1.1185   -6.6019 O   0  0  0  0  0  0  0  0  0  0  0  0
    4.1879    3.6458   -6.4839 O   0  0  0  0  0  0  0  0  0  0  0  0
    2.4093    2.6400   -5.1129 O   0  0  0  0  0  0  0  0  0  0  0  0
    7.1924    1.5515   -0.8443 C   0  0  0  0  0  0  0  0  0  0  0  0
    6.5302    1.5640    0.0233 H   0  0  0  0  0  0  0  0  0  0  0  0
    7.7140    0.5951   -0.8503 H   0  0  0  0  0  0  0  0  0  0  0  0
    7.9309    2.3411   -0.7100 H   0  0  0  0  0  0  0  0  0  0  0  0
  1  6  2  0  0  0  0
  2  3  2  0  0  0  0
  2  1  1  0  0  0  0
  3  4  1  0  0  0  0
  4  9  1  0  0  0  0
  4  5  2  0  0  0  0
  5 10  1  0  0  0  0
  6  5  1  0  0  0  0
  6 11  1  0  0  0  0
  7  1  1  0  0  0  0
  8  2  1  0  0  0  0
 11 12  2  0  0  0  0
 13 11  2  0  0  0  0
 14 15  3  0  0  0  0
 16 17  1  0  0  0  0
 17 23  1  0  0  0  0
 17 18  2  0  0  0  0
 18 30  1  0  0  0  0
 19 18  1  0  0  0  0
 19 24  1  0  0  0  0
 20 19  2  0  0  0  0
 21 16  2  0  0  0  0
 21 20  1  0  0  0  0
 22 16  1  0  0  0  0
 25 20  1  0  0  0  0
 26 29  1  0  0  0  0
 26 21  1  0  0  0  0
 27 26  2  0  0  0  0
 28 26  2  0  0  0  0
 29  3  1  0  0  0  0
 30 33  1  0  0  0  0
 30 31  1  0  0  0  0
 32 30  1  0  0  0  0
M  END
