Coordinates from ORCA-job p-NO2-Ph-N2-OTs-MP2-6-31G_dp-scan-d09-49-n400
 OpenBabel02121707583D

 33 33  0  0  0  0  0  0  0  0999 V2000
   -0.1565   -0.1484   -2.0528 C   0  0  0  0  0  0  0  0  0  0  0  0
    0.1860   -0.0080   -3.3814 C   0  0  0  0  0  0  0  0  0  0  0  0
    0.3454    1.3036   -3.9678 C   0  0  0  0  0  0  0  0  0  0  0  0
    0.1427    2.4525   -3.1125 C   0  0  0  0  0  0  0  0  0  0  0  0
   -0.2211    2.2840   -1.7924 C   0  0  0  0  0  0  0  0  0  0  0  0
   -0.3601    0.9941   -1.2733 C   0  0  0  0  0  0  0  0  0  0  0  0
   -0.2687   -1.1284   -1.6100 H   0  0  0  0  0  0  0  0  0  0  0  0
    0.3622   -0.8637   -4.0230 H   0  0  0  0  0  0  0  0  0  0  0  0
    0.3041    3.4272   -3.5512 H   0  0  0  0  0  0  0  0  0  0  0  0
   -0.3725    3.1408   -1.1504 H   0  0  0  0  0  0  0  0  0  0  0  0
   -0.7370    0.8305    0.1335 N   0  0  0  0  0  0  0  0  0  0  0  0
   -0.9466    1.8646    0.7908 O   0  0  0  0  0  0  0  0  0  0  0  0
   -0.8218   -0.3316    0.5683 O   0  0  0  0  0  0  0  0  0  0  0  0
    0.6085    1.4134   -4.9892 N   0  0  0  0  0  0  0  0  0  0  0  0
    0.9809    1.5177   -6.1073 N   0  0  0  0  0  0  0  0  0  0  0  0
    6.2789    1.9345   -5.0927 C   0  0  0  0  0  0  0  0  0  0  0  0
    7.4209    1.3083   -4.5949 C   0  0  0  0  0  0  0  0  0  0  0  0
    7.3675    0.5069   -3.4452 C   0  0  0  0  0  0  0  0  0  0  0  0
    6.1345    0.3502   -2.7961 C   0  0  0  0  0  0  0  0  0  0  0  0
    4.9815    0.9672   -3.2805 C   0  0  0  0  0  0  0  0  0  0  0  0
    5.0622    1.7600   -4.4282 C   0  0  0  0  0  0  0  0  0  0  0  0
    6.3225    2.5709   -5.9673 H   0  0  0  0  0  0  0  0  0  0  0  0
    8.3701    1.4503   -5.1009 H   0  0  0  0  0  0  0  0  0  0  0  0
    6.0802   -0.2534   -1.8959 H   0  0  0  0  0  0  0  0  0  0  0  0
    4.0343    0.8701   -2.7653 H   0  0  0  0  0  0  0  0  0  0  0  0
    3.5958    2.5110   -5.0922 S   0  0  0  0  0  0  0  0  0  0  0  0
    3.0717    1.4101   -6.0287 O   0  0  0  0  0  0  0  0  0  0  0  0
    4.0007    3.7386   -5.7884 O   0  0  0  0  0  0  0  0  0  0  0  0
    2.6504    2.6759   -3.9457 O   0  0  0  0  0  0  0  0  0  0  0  0
    8.6000   -0.1951   -2.9385 C   0  0  0  0  0  0  0  0  0  0  0  0
    8.7157   -1.1733   -3.4093 H   0  0  0  0  0  0  0  0  0  0  0  0
    9.4975    0.3840   -3.1548 H   0  0  0  0  0  0  0  0  0  0  0  0
    8.5484   -0.3498   -1.8610 H   0  0  0  0  0  0  0  0  0  0  0  0
  1  7  1  0  0  0  0
  1  6  2  0  0  0  0
  2  1  1  0  0  0  0
  3  2  2  0  0  0  0
  3  4  1  0  0  0  0
  4  5  2  0  0  0  0
  5  6  1  0  0  0  0
  5 10  1  0  0  0  0
  6 11  1  0  0  0  0
  8  2  1  0  0  0  0
  9  4  1  0  0  0  0
 11 13  2  0  0  0  0
 11 12  2  0  0  0  0
 14  3  1  0  0  0  0
 15 14  1  0  0  0  0
 16 17  2  0  0  0  0
 16 21  1  0  0  0  0
 17 18  1  0  0  0  0
 18 30  1  0  0  0  0
 18 19  2  0  0  0  0
 19 24  1  0  0  0  0
 20 19  1  0  0  0  0
 20 25  1  0  0  0  0
 21 20  2  0  0  0  0
 22 16  1  0  0  0  0
 23 17  1  0  0  0  0
 26 21  1  0  0  0  0
 26 29  1  0  0  0  0
 27 26  2  0  0  0  0
 28 26  2  0  0  0  0
 30 33  1  0  0  0  0
 31 30  1  0  0  0  0
 32 30  1  0  0  0  0
M  RAD  3  14   2  15   3  29   2
M  END
