Coordinates from ORCA-job p-NO2-Ph-N2-OTs-MP2-6-31G_dp-scan-d09-49-n400
 OpenBabel02121707583D

 33 33  0  0  0  0  0  0  0  0999 V2000
    0.7492   -0.5660   -4.2879 C   0  0  0  0  0  0  0  0  0  0  0  0
    1.2872    0.4777   -5.0387 C   0  0  0  0  0  0  0  0  0  0  0  0
    1.8905    1.5508   -4.3774 C   0  0  0  0  0  0  0  0  0  0  0  0
    1.9706    1.6025   -2.9832 C   0  0  0  0  0  0  0  0  0  0  0  0
    1.4288    0.5660   -2.2268 C   0  0  0  0  0  0  0  0  0  0  0  0
    0.8349   -0.5034   -2.8972 C   0  0  0  0  0  0  0  0  0  0  0  0
    0.2713   -1.4134   -4.7583 H   0  0  0  0  0  0  0  0  0  0  0  0
    1.2439    0.4748   -6.1190 H   0  0  0  0  0  0  0  0  0  0  0  0
    2.4439    2.4552   -2.5133 H   0  0  0  0  0  0  0  0  0  0  0  0
    1.4668    0.5693   -1.1470 H   0  0  0  0  0  0  0  0  0  0  0  0
    0.2602   -1.5989   -2.1044 N   0  0  0  0  0  0  0  0  0  0  0  0
    0.3879   -1.5416   -0.8697 O   0  0  0  0  0  0  0  0  0  0  0  0
   -0.3119   -2.5143   -2.7190 O   0  0  0  0  0  0  0  0  0  0  0  0
   -2.1872    1.7187   -3.0602 N   0  0  0  0  0  0  0  0  0  0  0  0
   -2.0680    0.6817   -2.6235 N   0  0  0  0  0  0  0  0  0  0  0  0
    5.1423    0.8274   -3.9843 C   0  0  0  0  0  0  0  0  0  0  0  0
    5.9020    0.6543   -2.8270 C   0  0  0  0  0  0  0  0  0  0  0  0
    6.4091    1.7526   -2.1186 C   0  0  0  0  0  0  0  0  0  0  0  0
    6.1478    3.0436   -2.6029 C   0  0  0  0  0  0  0  0  0  0  0  0
    5.3916    3.2445   -3.7568 C   0  0  0  0  0  0  0  0  0  0  0  0
    4.9043    2.1264   -4.4386 C   0  0  0  0  0  0  0  0  0  0  0  0
    4.7621   -0.0200   -4.5403 H   0  0  0  0  0  0  0  0  0  0  0  0
    6.1037   -0.3498   -2.4705 H   0  0  0  0  0  0  0  0  0  0  0  0
    6.5450    3.9023   -2.0727 H   0  0  0  0  0  0  0  0  0  0  0  0
    5.2031    4.2393   -4.1406 H   0  0  0  0  0  0  0  0  0  0  0  0
    3.8752    2.3710   -5.8504 S   0  0  0  0  0  0  0  0  0  0  0  0
    3.7928    1.1213   -6.5987 O   0  0  0  0  0  0  0  0  0  0  0  0
    4.1653    3.6499   -6.4751 O   0  0  0  0  0  0  0  0  0  0  0  0
    2.3944    2.6331   -5.1022 O   0  0  0  0  0  0  0  0  0  0  0  0
    7.1927    1.5535   -0.8486 C   0  0  0  0  0  0  0  0  0  0  0  0
    6.5326    1.5614    0.0207 H   0  0  0  0  0  0  0  0  0  0  0  0
    7.7180    0.5992   -0.8582 H   0  0  0  0  0  0  0  0  0  0  0  0
    7.9285    2.3457   -0.7142 H   0  0  0  0  0  0  0  0  0  0  0  0
  1  6  2  0  0  0  0
  2  3  2  0  0  0  0
  2  1  1  0  0  0  0
  3  4  1  0  0  0  0
  4  9  1  0  0  0  0
  4  5  2  0  0  0  0
  5 10  1  0  0  0  0
  6  5  1  0  0  0  0
  6 11  1  0  0  0  0
  7  1  1  0  0  0  0
  8  2  1  0  0  0  0
 11 12  2  0  0  0  0
 13 11  2  0  0  0  0
 14 15  3  0  0  0  0
 16 17  1  0  0  0  0
 17 23  1  0  0  0  0
 17 18  2  0  0  0  0
 18 30  1  0  0  0  0
 19 18  1  0  0  0  0
 19 24  1  0  0  0  0
 20 19  2  0  0  0  0
 21 16  2  0  0  0  0
 21 20  1  0  0  0  0
 22 16  1  0  0  0  0
 25 20  1  0  0  0  0
 26 29  1  0  0  0  0
 26 21  1  0  0  0  0
 27 26  2  0  0  0  0
 28 26  2  0  0  0  0
 29  3  1  0  0  0  0
 30 33  1  0  0  0  0
 30 31  1  0  0  0  0
 32 30  1  0  0  0  0
M  END
