Coordinates from ORCA-job p-NO2-Ph-N2-OTs-MP2-6-31G_dp-scan-d09-49-n400
 OpenBabel02121707583D

 33 33  0  0  0  0  0  0  0  0999 V2000
    2.1824   -0.4307   -3.3588 C   0  0  0  0  0  0  0  0  0  0  0  0
    1.5660    0.1558   -4.4776 C   0  0  0  0  0  0  0  0  0  0  0  0
    0.9374    1.3113   -4.1317 C   0  0  0  0  0  0  0  0  0  0  0  0
    0.7687    2.0272   -2.9836 C   0  0  0  0  0  0  0  0  0  0  0  0
    1.4099    1.3995   -1.9065 C   0  0  0  0  0  0  0  0  0  0  0  0
    2.1045    0.2049   -2.1201 C   0  0  0  0  0  0  0  0  0  0  0  0
    2.7472   -1.3455   -3.4672 H   0  0  0  0  0  0  0  0  0  0  0  0
    1.6685   -0.2016   -5.4894 H   0  0  0  0  0  0  0  0  0  0  0  0
    0.2900    2.9915   -2.9262 H   0  0  0  0  0  0  0  0  0  0  0  0
    1.4093    1.8607   -0.9287 H   0  0  0  0  0  0  0  0  0  0  0  0
    2.8260   -0.3928   -0.9913 N   0  0  0  0  0  0  0  0  0  0  0  0
    2.9234    0.2836    0.0456 O   0  0  0  0  0  0  0  0  0  0  0  0
    3.2979   -1.5298   -1.1574 O   0  0  0  0  0  0  0  0  0  0  0  0
    0.1597    2.1534   -5.6500 N   0  0  0  0  0  0  0  0  0  0  0  0
   -0.3835    2.6260   -6.5223 N   0  0  0  0  0  0  0  0  0  0  0  0
    4.7884    0.8830   -4.6408 C   0  0  0  0  0  0  0  0  0  0  0  0
    5.4804    0.2353   -3.6149 C   0  0  0  0  0  0  0  0  0  0  0  0
    5.5267    0.7702   -2.3180 C   0  0  0  0  0  0  0  0  0  0  0  0
    4.8589    1.9804   -2.0776 C   0  0  0  0  0  0  0  0  0  0  0  0
    4.1625    2.6367   -3.0958 C   0  0  0  0  0  0  0  0  0  0  0  0
    4.1144    2.0811   -4.3779 C   0  0  0  0  0  0  0  0  0  0  0  0
    4.7523    0.4655   -5.6403 H   0  0  0  0  0  0  0  0  0  0  0  0
    6.0065   -0.6909   -3.8254 H   0  0  0  0  0  0  0  0  0  0  0  0
    4.8963    2.4181   -1.0846 H   0  0  0  0  0  0  0  0  0  0  0  0
    3.6497    3.5728   -2.9099 H   0  0  0  0  0  0  0  0  0  0  0  0
    3.1954    2.9070   -5.6848 S   0  0  0  0  0  0  0  0  0  0  0  0
    2.6245    1.7701   -6.4815 O   0  0  0  0  0  0  0  0  0  0  0  0
    4.1429    3.7712   -6.4000 O   0  0  0  0  0  0  0  0  0  0  0  0
    2.1049    3.6213   -4.9353 O   0  0  0  0  0  0  0  0  0  0  0  0
    6.2506    0.0581   -1.2049 C   0  0  0  0  0  0  0  0  0  0  0  0
    5.5671   -0.5563   -0.6159 H   0  0  0  0  0  0  0  0  0  0  0  0
    7.0277   -0.5950   -1.6016 H   0  0  0  0  0  0  0  0  0  0  0  0
    6.7216    0.7726   -0.5298 H   0  0  0  0  0  0  0  0  0  0  0  0
  1  6  2  0  0  0  0
  2  3  2  0  0  0  0
  2  1  1  0  0  0  0
  3  4  1  0  0  0  0
  4  9  1  0  0  0  0
  4  5  2  0  0  0  0
  5 10  1  0  0  0  0
  6  5  1  0  0  0  0
  6 11  1  0  0  0  0
  7  1  1  0  0  0  0
  8  2  1  0  0  0  0
 11 12  2  0  0  0  0
 13 11  2  0  0  0  0
 14  3  1  0  0  0  0
 15 14  1  0  0  0  0
 16 21  2  0  0  0  0
 16 17  1  0  0  0  0
 17 18  2  0  0  0  0
 18 19  1  0  0  0  0
 18 30  1  0  0  0  0
 19 24  1  0  0  0  0
 20 25  1  0  0  0  0
 20 19  2  0  0  0  0
 21 20  1  0  0  0  0
 22 16  1  0  0  0  0
 23 17  1  0  0  0  0
 26 29  1  0  0  0  0
 26 21  1  0  0  0  0
 27 26  2  0  0  0  0
 28 26  2  0  0  0  0
 30 31  1  0  0  0  0
 30 33  1  0  0  0  0
 32 30  1  0  0  0  0
M  RAD  3  14   2  15   3  29   2
M  END
