Coordinates from ORCA-job p-NO2-Ph-N2-OTs-MP2-6-31G_dp-scan-d09-49-n400
 OpenBabel02121707583D

 33 33  0  0  0  0  0  0  0  0999 V2000
   -0.4718   -0.0934   -2.1122 C   0  0  0  0  0  0  0  0  0  0  0  0
   -0.0660    0.0095   -3.4122 C   0  0  0  0  0  0  0  0  0  0  0  0
    0.2960    1.3206   -4.0540 C   0  0  0  0  0  0  0  0  0  0  0  0
    0.1638    2.4802   -3.0996 C   0  0  0  0  0  0  0  0  0  0  0  0
   -0.2897    2.3312   -1.8153 C   0  0  0  0  0  0  0  0  0  0  0  0
   -0.5864    1.0586   -1.3162 C   0  0  0  0  0  0  0  0  0  0  0  0
   -0.7083   -1.0608   -1.6885 H   0  0  0  0  0  0  0  0  0  0  0  0
    0.0643   -0.8469   -4.0655 H   0  0  0  0  0  0  0  0  0  0  0  0
    0.4213    3.4346   -3.5397 H   0  0  0  0  0  0  0  0  0  0  0  0
   -0.3810    3.1957   -1.1705 H   0  0  0  0  0  0  0  0  0  0  0  0
   -1.0469    0.9221    0.0617 N   0  0  0  0  0  0  0  0  0  0  0  0
   -1.1764    1.9657    0.7268 O   0  0  0  0  0  0  0  0  0  0  0  0
   -1.2772   -0.2295    0.4744 O   0  0  0  0  0  0  0  0  0  0  0  0
    0.5881    1.4027   -4.9119 N   0  0  0  0  0  0  0  0  0  0  0  0
    1.0184    1.5078   -6.0604 N   0  0  0  0  0  0  0  0  0  0  0  0
    6.2739    1.8898   -5.0798 C   0  0  0  0  0  0  0  0  0  0  0  0
    7.4856    1.3282   -4.6818 C   0  0  0  0  0  0  0  0  0  0  0  0
    7.5756    0.5373   -3.5263 C   0  0  0  0  0  0  0  0  0  0  0  0
    6.4155    0.3252   -2.7675 C   0  0  0  0  0  0  0  0  0  0  0  0
    5.1931    0.8773   -3.1489 C   0  0  0  0  0  0  0  0  0  0  0  0
    5.1336    1.6614   -4.3037 C   0  0  0  0  0  0  0  0  0  0  0  0
    6.2066    2.5175   -5.9593 H   0  0  0  0  0  0  0  0  0  0  0  0
    8.3772    1.5116   -5.2720 H   0  0  0  0  0  0  0  0  0  0  0  0
    6.4728   -0.2717   -1.8633 H   0  0  0  0  0  0  0  0  0  0  0  0
    4.3004    0.7358   -2.5533 H   0  0  0  0  0  0  0  0  0  0  0  0
    3.5839    2.3450   -4.8311 S   0  0  0  0  0  0  0  0  0  0  0  0
    3.1039    1.2081   -5.7665 O   0  0  0  0  0  0  0  0  0  0  0  0
    3.8468    3.6100   -5.5286 O   0  0  0  0  0  0  0  0  0  0  0  0
    2.7079    2.4213   -3.6244 O   0  0  0  0  0  0  0  0  0  0  0  0
    8.8834   -0.0951   -3.1295 C   0  0  0  0  0  0  0  0  0  0  0  0
    9.0279   -1.0487   -3.6411 H   0  0  0  0  0  0  0  0  0  0  0  0
    9.7241    0.5488   -3.3873 H   0  0  0  0  0  0  0  0  0  0  0  0
    8.9181   -0.2850   -2.0571 H   0  0  0  0  0  0  0  0  0  0  0  0
  1  7  1  0  0  0  0
  1  6  2  0  0  0  0
  2  1  1  0  0  0  0
  3  2  2  0  0  0  0
  3  4  1  0  0  0  0
  4  5  2  0  0  0  0
  5  6  1  0  0  0  0
  5 10  1  0  0  0  0
  6 11  1  0  0  0  0
  8  2  1  0  0  0  0
  9  4  1  0  0  0  0
 11 13  2  0  0  0  0
 11 12  2  0  0  0  0
 14  3  1  0  0  0  0
 15 14  1  0  0  0  0
 16 17  2  0  0  0  0
 16 21  1  0  0  0  0
 17 18  1  0  0  0  0
 18 30  1  0  0  0  0
 18 19  2  0  0  0  0
 19 24  1  0  0  0  0
 20 19  1  0  0  0  0
 20 25  1  0  0  0  0
 21 20  2  0  0  0  0
 22 16  1  0  0  0  0
 23 17  1  0  0  0  0
 26 21  1  0  0  0  0
 26 29  1  0  0  0  0
 27 26  2  0  0  0  0
 28 26  2  0  0  0  0
 30 33  1  0  0  0  0
 31 30  1  0  0  0  0
 32 30  1  0  0  0  0
M  RAD  3  14   2  15   3  29   2
M  END
