Coordinates from ORCA-job p-NO2-Ph-N2-OTs-MP2-6-31G_dp-scan-d09-49-n400
 OpenBabel02121707583D

 33 33  0  0  0  0  0  0  0  0999 V2000
    0.7357   -0.7458   -4.1646 C   0  0  0  0  0  0  0  0  0  0  0  0
    1.1789    0.3491   -4.9021 C   0  0  0  0  0  0  0  0  0  0  0  0
    1.6954    1.4603   -4.2286 C   0  0  0  0  0  0  0  0  0  0  0  0
    1.9352    1.4272   -2.8507 C   0  0  0  0  0  0  0  0  0  0  0  0
    1.4887    0.3415   -2.1039 C   0  0  0  0  0  0  0  0  0  0  0  0
    0.9010   -0.7293   -2.7790 C   0  0  0  0  0  0  0  0  0  0  0  0
    0.2953   -1.6096   -4.6416 H   0  0  0  0  0  0  0  0  0  0  0  0
    1.0667    0.3859   -5.9769 H   0  0  0  0  0  0  0  0  0  0  0  0
    2.3927    2.2862   -2.3762 H   0  0  0  0  0  0  0  0  0  0  0  0
    1.6181    0.2946   -1.0321 H   0  0  0  0  0  0  0  0  0  0  0  0
    0.4311   -1.8818   -1.9977 N   0  0  0  0  0  0  0  0  0  0  0  0
    0.6124   -1.8544   -0.7685 O   0  0  0  0  0  0  0  0  0  0  0  0
   -0.1144   -2.8115   -2.6157 O   0  0  0  0  0  0  0  0  0  0  0  0
   -0.3329    2.5348   -4.0350 N   0  0  0  0  0  0  0  0  0  0  0  0
   -1.2393    2.1076   -3.5026 N   0  0  0  0  0  0  0  0  0  0  0  0
    5.0117    0.8556   -4.0017 C   0  0  0  0  0  0  0  0  0  0  0  0
    5.8249    0.6791   -2.8820 C   0  0  0  0  0  0  0  0  0  0  0  0
    6.2980    1.7747   -2.1462 C   0  0  0  0  0  0  0  0  0  0  0  0
    5.9477    3.0674   -2.5653 C   0  0  0  0  0  0  0  0  0  0  0  0
    5.1375    3.2718   -3.6814 C   0  0  0  0  0  0  0  0  0  0  0  0
    4.6850    2.1563   -4.3910 C   0  0  0  0  0  0  0  0  0  0  0  0
    4.6546    0.0116   -4.5778 H   0  0  0  0  0  0  0  0  0  0  0  0
    6.0952   -0.3257   -2.5761 H   0  0  0  0  0  0  0  0  0  0  0  0
    6.3179    3.9250   -2.0142 H   0  0  0  0  0  0  0  0  0  0  0  0
    4.8804    4.2691   -4.0157 H   0  0  0  0  0  0  0  0  0  0  0  0
    3.5899    2.4001   -5.7520 S   0  0  0  0  0  0  0  0  0  0  0  0
    3.5348    1.1735   -6.5399 O   0  0  0  0  0  0  0  0  0  0  0  0
    3.8012    3.7099   -6.3437 O   0  0  0  0  0  0  0  0  0  0  0  0
    2.1281    2.5787   -4.9445 O   0  0  0  0  0  0  0  0  0  0  0  0
    7.1401    1.5684   -0.9154 C   0  0  0  0  0  0  0  0  0  0  0  0
    6.5142    1.4935   -0.0242 H   0  0  0  0  0  0  0  0  0  0  0  0
    7.7235    0.6515   -0.9894 H   0  0  0  0  0  0  0  0  0  0  0  0
    7.8291    2.3994   -0.7685 H   0  0  0  0  0  0  0  0  0  0  0  0
  1  6  2  0  0  0  0
  2  3  2  0  0  0  0
  2  1  1  0  0  0  0
  3  4  1  0  0  0  0
  4  9  1  0  0  0  0
  4  5  2  0  0  0  0
  5 10  1  0  0  0  0
  6  5  1  0  0  0  0
  6 11  1  0  0  0  0
  7  1  1  0  0  0  0
  8  2  1  0  0  0  0
 11 12  2  0  0  0  0
 13 11  2  0  0  0  0
 14 15  3  0  0  0  0
 16 17  1  0  0  0  0
 17 23  1  0  0  0  0
 17 18  2  0  0  0  0
 18 30  1  0  0  0  0
 19 18  1  0  0  0  0
 19 24  1  0  0  0  0
 20 19  2  0  0  0  0
 21 16  2  0  0  0  0
 21 20  1  0  0  0  0
 22 16  1  0  0  0  0
 25 20  1  0  0  0  0
 26 29  1  0  0  0  0
 26 21  1  0  0  0  0
 27 26  2  0  0  0  0
 28 26  2  0  0  0  0
 29  3  1  0  0  0  0
 30 33  1  0  0  0  0
 30 31  1  0  0  0  0
 32 30  1  0  0  0  0
M  END
