Coordinates from ORCA-job p-NO2-Ph-N2-OTs-MP2-6-31G_dp-scan-d09-49-n400
 OpenBabel02121707583D

 33 33  0  0  0  0  0  0  0  0999 V2000
    0.7529   -0.5236   -4.3052 C   0  0  0  0  0  0  0  0  0  0  0  0
    1.3087    0.5082   -5.0596 C   0  0  0  0  0  0  0  0  0  0  0  0
    1.9176    1.5799   -4.4015 C   0  0  0  0  0  0  0  0  0  0  0  0
    1.9883    1.6410   -3.0072 C   0  0  0  0  0  0  0  0  0  0  0  0
    1.4269    0.6175   -2.2475 C   0  0  0  0  0  0  0  0  0  0  0  0
    0.8269   -0.4506   -2.9143 C   0  0  0  0  0  0  0  0  0  0  0  0
    0.2696   -1.3695   -4.7726 H   0  0  0  0  0  0  0  0  0  0  0  0
    1.2730    0.4980   -6.1402 H   0  0  0  0  0  0  0  0  0  0  0  0
    2.4683    2.4915   -2.5401 H   0  0  0  0  0  0  0  0  0  0  0  0
    1.4539    0.6298   -1.1673 H   0  0  0  0  0  0  0  0  0  0  0  0
    0.2290   -1.5308   -2.1182 N   0  0  0  0  0  0  0  0  0  0  0  0
    0.2860   -1.4306   -0.8810 O   0  0  0  0  0  0  0  0  0  0  0  0
   -0.2931   -2.4759   -2.7322 O   0  0  0  0  0  0  0  0  0  0  0  0
   -2.5729    1.4405   -2.8299 N   0  0  0  0  0  0  0  0  0  0  0  0
   -2.1202    0.4445   -2.5420 N   0  0  0  0  0  0  0  0  0  0  0  0
    5.1582    0.8220   -3.9836 C   0  0  0  0  0  0  0  0  0  0  0  0
    5.9089    0.6473   -2.8206 C   0  0  0  0  0  0  0  0  0  0  0  0
    6.4245    1.7439   -2.1158 C   0  0  0  0  0  0  0  0  0  0  0  0
    6.1812    3.0348   -2.6095 C   0  0  0  0  0  0  0  0  0  0  0  0
    5.4344    3.2374   -3.7692 C   0  0  0  0  0  0  0  0  0  0  0  0
    4.9382    2.1209   -4.4472 C   0  0  0  0  0  0  0  0  0  0  0  0
    4.7715   -0.0242   -4.5367 H   0  0  0  0  0  0  0  0  0  0  0  0
    6.0967   -0.3570   -2.4568 H   0  0  0  0  0  0  0  0  0  0  0  0
    6.5853    3.8920   -2.0821 H   0  0  0  0  0  0  0  0  0  0  0  0
    5.2599    4.2320   -4.1602 H   0  0  0  0  0  0  0  0  0  0  0  0
    3.9209    2.3689   -5.8669 S   0  0  0  0  0  0  0  0  0  0  0  0
    3.8298    1.1159   -6.6088 O   0  0  0  0  0  0  0  0  0  0  0  0
    4.2295    3.6408   -6.4971 O   0  0  0  0  0  0  0  0  0  0  0  0
    2.4385    2.6519   -5.1304 O   0  0  0  0  0  0  0  0  0  0  0  0
    7.1981    1.5434   -0.8399 C   0  0  0  0  0  0  0  0  0  0  0  0
    6.5330    1.5646    0.0254 H   0  0  0  0  0  0  0  0  0  0  0  0
    7.7120    0.5829   -0.8404 H   0  0  0  0  0  0  0  0  0  0  0  0
    7.9424    2.3276   -0.7059 H   0  0  0  0  0  0  0  0  0  0  0  0
  1  6  2  0  0  0  0
  2  3  2  0  0  0  0
  2  1  1  0  0  0  0
  3  4  1  0  0  0  0
  4  9  1  0  0  0  0
  4  5  2  0  0  0  0
  5 10  1  0  0  0  0
  6  5  1  0  0  0  0
  6 11  1  0  0  0  0
  7  1  1  0  0  0  0
  8  2  1  0  0  0  0
 11 12  2  0  0  0  0
 13 11  2  0  0  0  0
 14 15  3  0  0  0  0
 16 17  1  0  0  0  0
 17 23  1  0  0  0  0
 17 18  2  0  0  0  0
 18 30  1  0  0  0  0
 19 18  1  0  0  0  0
 19 24  1  0  0  0  0
 20 19  2  0  0  0  0
 21 16  2  0  0  0  0
 21 20  1  0  0  0  0
 22 16  1  0  0  0  0
 25 20  1  0  0  0  0
 26 29  1  0  0  0  0
 26 21  1  0  0  0  0
 27 26  2  0  0  0  0
 28 26  2  0  0  0  0
 29  3  1  0  0  0  0
 30 33  1  0  0  0  0
 30 31  1  0  0  0  0
 32 30  1  0  0  0  0
M  END
