Coordinates from ORCA-job p-NO2-Ph-N2-OTs-MP2-6-31G_dp-scan-d09-49-n400
 OpenBabel02121707583D

 33 33  0  0  0  0  0  0  0  0999 V2000
    0.7426   -0.7406   -4.1627 C   0  0  0  0  0  0  0  0  0  0  0  0
    1.1776    0.3557   -4.9022 C   0  0  0  0  0  0  0  0  0  0  0  0
    1.6780    1.4762   -4.2302 C   0  0  0  0  0  0  0  0  0  0  0  0
    1.9406    1.4365   -2.8557 C   0  0  0  0  0  0  0  0  0  0  0  0
    1.5024    0.3497   -2.1061 C   0  0  0  0  0  0  0  0  0  0  0  0
    0.9128   -0.7224   -2.7776 C   0  0  0  0  0  0  0  0  0  0  0  0
    0.3082   -1.6085   -4.6379 H   0  0  0  0  0  0  0  0  0  0  0  0
    1.0616    0.3909   -5.9766 H   0  0  0  0  0  0  0  0  0  0  0  0
    2.3991    2.2965   -2.3838 H   0  0  0  0  0  0  0  0  0  0  0  0
    1.6430    0.3011   -1.0358 H   0  0  0  0  0  0  0  0  0  0  0  0
    0.4512   -1.8764   -1.9937 N   0  0  0  0  0  0  0  0  0  0  0  0
    0.6395   -1.8484   -0.7656 O   0  0  0  0  0  0  0  0  0  0  0  0
   -0.0946   -2.8079   -2.6087 O   0  0  0  0  0  0  0  0  0  0  0  0
   -0.2793    2.5132   -4.0392 N   0  0  0  0  0  0  0  0  0  0  0  0
   -1.1885    2.0980   -3.5004 N   0  0  0  0  0  0  0  0  0  0  0  0
    4.9971    0.8532   -4.0020 C   0  0  0  0  0  0  0  0  0  0  0  0
    5.8083    0.6746   -2.8812 C   0  0  0  0  0  0  0  0  0  0  0  0
    6.2831    1.7690   -2.1448 C   0  0  0  0  0  0  0  0  0  0  0  0
    5.9368    3.0626   -2.5644 C   0  0  0  0  0  0  0  0  0  0  0  0
    5.1288    3.2690   -3.6818 C   0  0  0  0  0  0  0  0  0  0  0  0
    4.6741    2.1547   -4.3917 C   0  0  0  0  0  0  0  0  0  0  0  0
    4.6379    0.0101   -4.5782 H   0  0  0  0  0  0  0  0  0  0  0  0
    6.0754   -0.3309   -2.5748 H   0  0  0  0  0  0  0  0  0  0  0  0
    6.3085    3.9192   -2.0129 H   0  0  0  0  0  0  0  0  0  0  0  0
    4.8749    4.2670   -4.0166 H   0  0  0  0  0  0  0  0  0  0  0  0
    3.5818    2.4013   -5.7544 S   0  0  0  0  0  0  0  0  0  0  0  0
    3.5231    1.1741   -6.5410 O   0  0  0  0  0  0  0  0  0  0  0  0
    3.8002    3.7093   -6.3476 O   0  0  0  0  0  0  0  0  0  0  0  0
    2.1188    2.5894   -4.9513 O   0  0  0  0  0  0  0  0  0  0  0  0
    7.1227    1.5604   -0.9126 C   0  0  0  0  0  0  0  0  0  0  0  0
    6.4950    1.4820   -0.0231 H   0  0  0  0  0  0  0  0  0  0  0  0
    7.7075    0.6444   -0.9880 H   0  0  0  0  0  0  0  0  0  0  0  0
    7.8103    2.3918   -0.7619 H   0  0  0  0  0  0  0  0  0  0  0  0
  1  6  2  0  0  0  0
  2  3  2  0  0  0  0
  2  1  1  0  0  0  0
  3  4  1  0  0  0  0
  4  9  1  0  0  0  0
  4  5  2  0  0  0  0
  5 10  1  0  0  0  0
  6  5  1  0  0  0  0
  6 11  1  0  0  0  0
  7  1  1  0  0  0  0
  8  2  1  0  0  0  0
 11 12  2  0  0  0  0
 13 11  2  0  0  0  0
 14 15  3  0  0  0  0
 16 17  1  0  0  0  0
 17 23  1  0  0  0  0
 17 18  2  0  0  0  0
 18 30  1  0  0  0  0
 19 18  1  0  0  0  0
 19 24  1  0  0  0  0
 20 19  2  0  0  0  0
 21 16  2  0  0  0  0
 21 20  1  0  0  0  0
 22 16  1  0  0  0  0
 25 20  1  0  0  0  0
 26 29  1  0  0  0  0
 26 21  1  0  0  0  0
 27 26  2  0  0  0  0
 28 26  2  0  0  0  0
 29  3  1  0  0  0  0
 30 33  1  0  0  0  0
 30 31  1  0  0  0  0
 32 30  1  0  0  0  0
M  END
