Coordinates from ORCA-job p-NO2-Ph-N2-OTs-MP2-6-31G_dp-scan-d09-49-n400
 OpenBabel02121707583D

 33 33  0  0  0  0  0  0  0  0999 V2000
    0.7256   -0.7190   -4.2050 C   0  0  0  0  0  0  0  0  0  0  0  0
    1.2111    0.3620   -4.9385 C   0  0  0  0  0  0  0  0  0  0  0  0
    1.7980    1.4344   -4.2617 C   0  0  0  0  0  0  0  0  0  0  0  0
    1.9214    1.4459   -2.8697 C   0  0  0  0  0  0  0  0  0  0  0  0
    1.4314    0.3724   -2.1300 C   0  0  0  0  0  0  0  0  0  0  0  0
    0.8450   -0.6919   -2.8154 C   0  0  0  0  0  0  0  0  0  0  0  0
    0.2603   -1.5669   -4.6870 H   0  0  0  0  0  0  0  0  0  0  0  0
    1.1335    0.3924   -6.0166 H   0  0  0  0  0  0  0  0  0  0  0  0
    2.3799    2.3006   -2.3886 H   0  0  0  0  0  0  0  0  0  0  0  0
    1.5004    0.3447   -1.0520 H   0  0  0  0  0  0  0  0  0  0  0  0
    0.3328   -1.8313   -2.0404 N   0  0  0  0  0  0  0  0  0  0  0  0
    0.4688   -1.7932   -0.8058 O   0  0  0  0  0  0  0  0  0  0  0  0
   -0.2049   -2.7585   -2.6686 O   0  0  0  0  0  0  0  0  0  0  0  0
   -1.0698    2.5015   -3.7935 N   0  0  0  0  0  0  0  0  0  0  0  0
   -1.6733    1.7135   -3.2489 N   0  0  0  0  0  0  0  0  0  0  0  0
    5.0945    0.8531   -3.9919 C   0  0  0  0  0  0  0  0  0  0  0  0
    5.9004    0.6844   -2.8655 C   0  0  0  0  0  0  0  0  0  0  0  0
    6.3798    1.7856   -2.1424 C   0  0  0  0  0  0  0  0  0  0  0  0
    6.0428    3.0756   -2.5804 C   0  0  0  0  0  0  0  0  0  0  0  0
    5.2395    3.2722   -3.7027 C   0  0  0  0  0  0  0  0  0  0  0  0
    4.7817    2.1514   -4.4006 C   0  0  0  0  0  0  0  0  0  0  0  0
    4.7356    0.0044   -4.5598 H   0  0  0  0  0  0  0  0  0  0  0  0
    6.1604   -0.3184   -2.5450 H   0  0  0  0  0  0  0  0  0  0  0  0
    6.4176    3.9372   -2.0387 H   0  0  0  0  0  0  0  0  0  0  0  0
    4.9923    4.2671   -4.0512 H   0  0  0  0  0  0  0  0  0  0  0  0
    3.6948    2.3860   -5.7701 S   0  0  0  0  0  0  0  0  0  0  0  0
    3.6427    1.1539   -6.5498 O   0  0  0  0  0  0  0  0  0  0  0  0
    3.9061    3.6928   -6.3681 O   0  0  0  0  0  0  0  0  0  0  0  0
    2.2307    2.5597   -4.9656 O   0  0  0  0  0  0  0  0  0  0  0  0
    7.2146    1.5890   -0.9050 C   0  0  0  0  0  0  0  0  0  0  0  0
    6.5851    1.5451   -0.0144 H   0  0  0  0  0  0  0  0  0  0  0  0
    7.7805    0.6597   -0.9580 H   0  0  0  0  0  0  0  0  0  0  0  0
    7.9191    2.4096   -0.7736 H   0  0  0  0  0  0  0  0  0  0  0  0
  1  6  2  0  0  0  0
  2  3  2  0  0  0  0
  2  1  1  0  0  0  0
  3  4  1  0  0  0  0
  4  9  1  0  0  0  0
  4  5  2  0  0  0  0
  5 10  1  0  0  0  0
  6  5  1  0  0  0  0
  6 11  1  0  0  0  0
  7  1  1  0  0  0  0
  8  2  1  0  0  0  0
 11 12  2  0  0  0  0
 13 11  2  0  0  0  0
 14 15  3  0  0  0  0
 16 17  1  0  0  0  0
 17 23  1  0  0  0  0
 17 18  2  0  0  0  0
 18 30  1  0  0  0  0
 19 18  1  0  0  0  0
 19 24  1  0  0  0  0
 20 19  2  0  0  0  0
 21 16  2  0  0  0  0
 21 20  1  0  0  0  0
 22 16  1  0  0  0  0
 25 20  1  0  0  0  0
 26 29  1  0  0  0  0
 26 21  1  0  0  0  0
 27 26  2  0  0  0  0
 28 26  2  0  0  0  0
 29  3  1  0  0  0  0
 30 33  1  0  0  0  0
 30 31  1  0  0  0  0
 32 30  1  0  0  0  0
M  END
