Coordinates from ORCA-job p-NO2-Ph-N2-OTs-MP2-6-31G_dp-scan-d09-49-n400
 OpenBabel02121707583D

 33 33  0  0  0  0  0  0  0  0999 V2000
    0.7289   -0.7541   -4.1678 C   0  0  0  0  0  0  0  0  0  0  0  0
    1.1836    0.3386   -4.9024 C   0  0  0  0  0  0  0  0  0  0  0  0
    1.7230    1.4362   -4.2262 C   0  0  0  0  0  0  0  0  0  0  0  0
    1.9259    1.4149   -2.8433 C   0  0  0  0  0  0  0  0  0  0  0  0
    1.4673    0.3307   -2.1006 C   0  0  0  0  0  0  0  0  0  0  0  0
    0.8829   -0.7382   -2.7811 C   0  0  0  0  0  0  0  0  0  0  0  0
    0.2805   -1.6123   -4.6476 H   0  0  0  0  0  0  0  0  0  0  0  0
    1.0795    0.3765   -5.9779 H   0  0  0  0  0  0  0  0  0  0  0  0
    2.3814    2.2728   -2.3650 H   0  0  0  0  0  0  0  0  0  0  0  0
    1.5779    0.2877   -1.0266 H   0  0  0  0  0  0  0  0  0  0  0  0
    0.4006   -1.8885   -2.0037 N   0  0  0  0  0  0  0  0  0  0  0  0
    0.5695   -1.8608   -0.7727 O   0  0  0  0  0  0  0  0  0  0  0  0
   -0.1415   -2.8168   -2.6266 O   0  0  0  0  0  0  0  0  0  0  0  0
   -0.4426    2.5728   -4.0263 N   0  0  0  0  0  0  0  0  0  0  0  0
   -1.3397    2.1158   -3.5052 N   0  0  0  0  0  0  0  0  0  0  0  0
    5.0353    0.8590   -4.0010 C   0  0  0  0  0  0  0  0  0  0  0  0
    5.8515    0.6852   -2.8830 C   0  0  0  0  0  0  0  0  0  0  0  0
    6.3228    1.7824   -2.1485 C   0  0  0  0  0  0  0  0  0  0  0  0
    5.9673    3.0740   -2.5669 C   0  0  0  0  0  0  0  0  0  0  0  0
    5.1537    3.2755   -3.6811 C   0  0  0  0  0  0  0  0  0  0  0  0
    4.7036    2.1586   -4.3899 C   0  0  0  0  0  0  0  0  0  0  0  0
    4.6805    0.0137   -4.5766 H   0  0  0  0  0  0  0  0  0  0  0  0
    6.1258   -0.3186   -2.5776 H   0  0  0  0  0  0  0  0  0  0  0  0
    6.3358    3.9328   -2.0167 H   0  0  0  0  0  0  0  0  0  0  0  0
    4.8924    4.2720   -4.0148 H   0  0  0  0  0  0  0  0  0  0  0  0
    3.6043    2.3985   -5.7483 S   0  0  0  0  0  0  0  0  0  0  0  0
    3.5546    1.1732   -6.5387 O   0  0  0  0  0  0  0  0  0  0  0  0
    3.8052    3.7111   -6.3374 O   0  0  0  0  0  0  0  0  0  0  0  0
    2.1442    2.5628   -4.9345 O   0  0  0  0  0  0  0  0  0  0  0  0
    7.1686    1.5793   -0.9197 C   0  0  0  0  0  0  0  0  0  0  0  0
    6.5455    1.5080   -0.0263 H   0  0  0  0  0  0  0  0  0  0  0  0
    7.7509    0.6616   -0.9925 H   0  0  0  0  0  0  0  0  0  0  0  0
    7.8589    2.4101   -0.7778 H   0  0  0  0  0  0  0  0  0  0  0  0
  1  6  2  0  0  0  0
  2  3  2  0  0  0  0
  2  1  1  0  0  0  0
  3  4  1  0  0  0  0
  4  9  1  0  0  0  0
  4  5  2  0  0  0  0
  5 10  1  0  0  0  0
  6  5  1  0  0  0  0
  6 11  1  0  0  0  0
  7  1  1  0  0  0  0
  8  2  1  0  0  0  0
 11 12  2  0  0  0  0
 13 11  2  0  0  0  0
 14 15  3  0  0  0  0
 16 17  1  0  0  0  0
 17 23  1  0  0  0  0
 17 18  2  0  0  0  0
 18 30  1  0  0  0  0
 19 18  1  0  0  0  0
 19 24  1  0  0  0  0
 20 19  2  0  0  0  0
 21 16  2  0  0  0  0
 21 20  1  0  0  0  0
 22 16  1  0  0  0  0
 25 20  1  0  0  0  0
 26 29  1  0  0  0  0
 26 21  1  0  0  0  0
 27 26  2  0  0  0  0
 28 26  2  0  0  0  0
 29  3  1  0  0  0  0
 30 33  1  0  0  0  0
 30 31  1  0  0  0  0
 32 30  1  0  0  0  0
M  END
