Coordinates from ORCA-job p-NO2-Ph-N2-OTs-MP2-6-31G_dp-scan-d09-49-n400
 OpenBabel02121707583D

 33 33  0  0  0  0  0  0  0  0999 V2000
    0.7509   -0.7346   -4.1619 C   0  0  0  0  0  0  0  0  0  0  0  0
    1.1763    0.3637   -4.9027 C   0  0  0  0  0  0  0  0  0  0  0  0
    1.6536    1.4972   -4.2308 C   0  0  0  0  0  0  0  0  0  0  0  0
    1.9461    1.4470   -2.8602 C   0  0  0  0  0  0  0  0  0  0  0  0
    1.5177    0.3586   -2.1086 C   0  0  0  0  0  0  0  0  0  0  0  0
    0.9245   -0.7142   -2.7768 C   0  0  0  0  0  0  0  0  0  0  0  0
    0.3248   -1.6073   -4.6357 H   0  0  0  0  0  0  0  0  0  0  0  0
    1.0574    0.3972   -5.9769 H   0  0  0  0  0  0  0  0  0  0  0  0
    2.4067    2.3073   -2.3910 H   0  0  0  0  0  0  0  0  0  0  0  0
    1.6716    0.3068   -1.0403 H   0  0  0  0  0  0  0  0  0  0  0  0
    0.4721   -1.8702   -1.9909 N   0  0  0  0  0  0  0  0  0  0  0  0
    0.6691   -1.8427   -0.7641 O   0  0  0  0  0  0  0  0  0  0  0  0
   -0.0712   -2.8047   -2.6035 O   0  0  0  0  0  0  0  0  0  0  0  0
   -0.2166    2.4844   -4.0436 N   0  0  0  0  0  0  0  0  0  0  0  0
   -1.1272    2.0796   -3.4966 N   0  0  0  0  0  0  0  0  0  0  0  0
    4.9765    0.8508   -3.9992 C   0  0  0  0  0  0  0  0  0  0  0  0
    5.7859    0.6699   -2.8776 C   0  0  0  0  0  0  0  0  0  0  0  0
    6.2665    1.7632   -2.1430 C   0  0  0  0  0  0  0  0  0  0  0  0
    5.9280    3.0579   -2.5657 C   0  0  0  0  0  0  0  0  0  0  0  0
    5.1221    3.2665   -3.6842 C   0  0  0  0  0  0  0  0  0  0  0  0
    4.6613    2.1533   -4.3919 C   0  0  0  0  0  0  0  0  0  0  0  0
    4.6119    0.0086   -4.5732 H   0  0  0  0  0  0  0  0  0  0  0  0
    6.0470   -0.3364   -2.5688 H   0  0  0  0  0  0  0  0  0  0  0  0
    6.3043    3.9135   -2.0158 H   0  0  0  0  0  0  0  0  0  0  0  0
    4.8743    4.2652   -4.0214 H   0  0  0  0  0  0  0  0  0  0  0  0
    3.5719    2.4034   -5.7562 S   0  0  0  0  0  0  0  0  0  0  0  0
    3.5078    1.1753   -6.5410 O   0  0  0  0  0  0  0  0  0  0  0  0
    3.7985    3.7090   -6.3515 O   0  0  0  0  0  0  0  0  0  0  0  0
    2.1084    2.6036   -4.9580 O   0  0  0  0  0  0  0  0  0  0  0  0
    7.1038    1.5520   -0.9097 C   0  0  0  0  0  0  0  0  0  0  0  0
    6.4743    1.4699   -0.0218 H   0  0  0  0  0  0  0  0  0  0  0  0
    7.6900    0.6370   -0.9866 H   0  0  0  0  0  0  0  0  0  0  0  0
    7.7900    2.3839   -0.7550 H   0  0  0  0  0  0  0  0  0  0  0  0
  1  6  2  0  0  0  0
  2  3  2  0  0  0  0
  2  1  1  0  0  0  0
  3  4  1  0  0  0  0
  4  9  1  0  0  0  0
  4  5  2  0  0  0  0
  5 10  1  0  0  0  0
  6  5  1  0  0  0  0
  6 11  1  0  0  0  0
  7  1  1  0  0  0  0
  8  2  1  0  0  0  0
 11 12  2  0  0  0  0
 13 11  2  0  0  0  0
 14 15  3  0  0  0  0
 16 17  1  0  0  0  0
 17 23  1  0  0  0  0
 17 18  2  0  0  0  0
 18 30  1  0  0  0  0
 19 18  1  0  0  0  0
 19 24  1  0  0  0  0
 20 19  2  0  0  0  0
 21 16  2  0  0  0  0
 21 20  1  0  0  0  0
 22 16  1  0  0  0  0
 25 20  1  0  0  0  0
 26 29  1  0  0  0  0
 26 21  1  0  0  0  0
 27 26  2  0  0  0  0
 28 26  2  0  0  0  0
 29  3  1  0  0  0  0
 30 33  1  0  0  0  0
 30 31  1  0  0  0  0
 32 30  1  0  0  0  0
M  END
