Coordinates from ORCA-job p-NO2-Ph-N2-OTs-MP2-6-31G_dp-scan-d09-49-n400
 OpenBabel02121707583D

 33 33  0  0  0  0  0  0  0  0999 V2000
    2.2181   -0.3943   -3.3933 C   0  0  0  0  0  0  0  0  0  0  0  0
    1.5864    0.1847   -4.4841 C   0  0  0  0  0  0  0  0  0  0  0  0
    0.8552    1.3814   -4.2902 C   0  0  0  0  0  0  0  0  0  0  0  0
    0.7669    2.0031   -3.0176 C   0  0  0  0  0  0  0  0  0  0  0  0
    1.4165    1.4177   -1.9466 C   0  0  0  0  0  0  0  0  0  0  0  0
    2.1366    0.2361   -2.1523 C   0  0  0  0  0  0  0  0  0  0  0  0
    2.7925   -1.3029   -3.4992 H   0  0  0  0  0  0  0  0  0  0  0  0
    1.6787   -0.2122   -5.4852 H   0  0  0  0  0  0  0  0  0  0  0  0
    0.2450    2.9466   -2.9288 H   0  0  0  0  0  0  0  0  0  0  0  0
    1.4010    1.8734   -0.9666 H   0  0  0  0  0  0  0  0  0  0  0  0
    2.8276   -0.3731   -1.0131 N   0  0  0  0  0  0  0  0  0  0  0  0
    2.9068    0.2962    0.0317 O   0  0  0  0  0  0  0  0  0  0  0  0
    3.2895   -1.5164   -1.1743 O   0  0  0  0  0  0  0  0  0  0  0  0
    0.3439    1.8961   -5.2217 N   0  0  0  0  0  0  0  0  0  0  0  0
   -0.1398    2.3969   -6.1244 N   0  0  0  0  0  0  0  0  0  0  0  0
    4.7677    0.9001   -4.6645 C   0  0  0  0  0  0  0  0  0  0  0  0
    5.4365    0.2370   -3.6331 C   0  0  0  0  0  0  0  0  0  0  0  0
    5.4679    0.7627   -2.3320 C   0  0  0  0  0  0  0  0  0  0  0  0
    4.8097    1.9802   -2.0929 C   0  0  0  0  0  0  0  0  0  0  0  0
    4.1419    2.6545   -3.1176 C   0  0  0  0  0  0  0  0  0  0  0  0
    4.1078    2.1082   -4.4044 C   0  0  0  0  0  0  0  0  0  0  0  0
    4.7426    0.4920   -5.6683 H   0  0  0  0  0  0  0  0  0  0  0  0
    5.9556   -0.6936   -3.8415 H   0  0  0  0  0  0  0  0  0  0  0  0
    4.8388    2.4104   -1.0962 H   0  0  0  0  0  0  0  0  0  0  0  0
    3.6399    3.5973   -2.9360 H   0  0  0  0  0  0  0  0  0  0  0  0
    3.2319    2.9621   -5.7251 S   0  0  0  0  0  0  0  0  0  0  0  0
    2.6381    1.8347   -6.5175 O   0  0  0  0  0  0  0  0  0  0  0  0
    4.2221    3.7852   -6.4302 O   0  0  0  0  0  0  0  0  0  0  0  0
    2.1598    3.7106   -4.9899 O   0  0  0  0  0  0  0  0  0  0  0  0
    6.1831    0.0481   -1.2154 C   0  0  0  0  0  0  0  0  0  0  0  0
    5.4831   -0.4789   -0.5642 H   0  0  0  0  0  0  0  0  0  0  0  0
    6.8867   -0.6843   -1.6101 H   0  0  0  0  0  0  0  0  0  0  0  0
    6.7400    0.7547   -0.5997 H   0  0  0  0  0  0  0  0  0  0  0  0
  1  6  2  0  0  0  0
  2  3  2  0  0  0  0
  2  1  1  0  0  0  0
  3  4  1  0  0  0  0
  4  9  1  0  0  0  0
  4  5  2  0  0  0  0
  5 10  1  0  0  0  0
  6  5  1  0  0  0  0
  6 11  1  0  0  0  0
  7  1  1  0  0  0  0
  8  2  1  0  0  0  0
 11 12  2  0  0  0  0
 13 11  2  0  0  0  0
 14  3  1  0  0  0  0
 15 14  1  0  0  0  0
 16 21  2  0  0  0  0
 16 17  1  0  0  0  0
 17 18  2  0  0  0  0
 18 19  1  0  0  0  0
 18 30  1  0  0  0  0
 19 24  1  0  0  0  0
 20 25  1  0  0  0  0
 20 19  2  0  0  0  0
 21 20  1  0  0  0  0
 22 16  1  0  0  0  0
 23 17  1  0  0  0  0
 26 29  1  0  0  0  0
 26 21  1  0  0  0  0
 27 26  2  0  0  0  0
 28 26  2  0  0  0  0
 30 33  1  0  0  0  0
 30 31  1  0  0  0  0
 32 30  1  0  0  0  0
M  RAD  3  14   2  15   3  29   2
M  END
