Coordinates from ORCA-job p-NO2-Ph-N2-OTs-MP2-6-31G_dp-scan-d09-49-n400
 OpenBabel02121707583D

 33 33  0  0  0  0  0  0  0  0999 V2000
    0.7479   -0.6458   -4.2427 C   0  0  0  0  0  0  0  0  0  0  0  0
    1.2460    0.4228   -4.9864 C   0  0  0  0  0  0  0  0  0  0  0  0
    1.8406    1.4977   -4.3197 C   0  0  0  0  0  0  0  0  0  0  0  0
    1.9374    1.5334   -2.9258 C   0  0  0  0  0  0  0  0  0  0  0  0
    1.4349    0.4723   -2.1763 C   0  0  0  0  0  0  0  0  0  0  0  0
    0.8538   -0.6004   -2.8526 C   0  0  0  0  0  0  0  0  0  0  0  0
    0.2816   -1.4970   -4.7178 H   0  0  0  0  0  0  0  0  0  0  0  0
    1.1836    0.4357   -6.0658 H   0  0  0  0  0  0  0  0  0  0  0  0
    2.3981    2.3907   -2.4515 H   0  0  0  0  0  0  0  0  0  0  0  0
    1.4891    0.4617   -1.0972 H   0  0  0  0  0  0  0  0  0  0  0  0
    0.3276   -1.7258   -2.0672 N   0  0  0  0  0  0  0  0  0  0  0  0
    0.4516   -1.6711   -0.8319 O   0  0  0  0  0  0  0  0  0  0  0  0
   -0.2032   -2.6618   -2.6881 O   0  0  0  0  0  0  0  0  0  0  0  0
   -1.6568    2.1818   -3.4558 N   0  0  0  0  0  0  0  0  0  0  0  0
   -1.8677    1.1974   -2.9384 N   0  0  0  0  0  0  0  0  0  0  0  0
    5.1099    0.8378   -3.9882 C   0  0  0  0  0  0  0  0  0  0  0  0
    5.8916    0.6646   -2.8456 C   0  0  0  0  0  0  0  0  0  0  0  0
    6.3878    1.7633   -2.1301 C   0  0  0  0  0  0  0  0  0  0  0  0
    6.0927    3.0551   -2.5922 C   0  0  0  0  0  0  0  0  0  0  0  0
    5.3141    3.2562   -3.7311 C   0  0  0  0  0  0  0  0  0  0  0  0
    4.8386    2.1377   -4.4206 C   0  0  0  0  0  0  0  0  0  0  0  0
    4.7381   -0.0096   -4.5499 H   0  0  0  0  0  0  0  0  0  0  0  0
    6.1193   -0.3400   -2.5063 H   0  0  0  0  0  0  0  0  0  0  0  0
    6.4810    3.9144   -2.0565 H   0  0  0  0  0  0  0  0  0  0  0  0
    5.0993    4.2521   -4.0979 H   0  0  0  0  0  0  0  0  0  0  0  0
    3.7820    2.3804   -5.8122 S   0  0  0  0  0  0  0  0  0  0  0  0
    3.7129    1.1397   -6.5766 O   0  0  0  0  0  0  0  0  0  0  0  0
    4.0353    3.6736   -6.4233 O   0  0  0  0  0  0  0  0  0  0  0  0
    2.3084    2.6009   -5.0365 O   0  0  0  0  0  0  0  0  0  0  0  0
    7.1957    1.5630   -0.8756 C   0  0  0  0  0  0  0  0  0  0  0  0
    6.5499    1.5466    0.0042 H   0  0  0  0  0  0  0  0  0  0  0  0
    7.7392    0.6194   -0.9064 H   0  0  0  0  0  0  0  0  0  0  0  0
    7.9180    2.3677   -0.7424 H   0  0  0  0  0  0  0  0  0  0  0  0
  1  6  2  0  0  0  0
  2  3  2  0  0  0  0
  2  1  1  0  0  0  0
  3  4  1  0  0  0  0
  4  9  1  0  0  0  0
  4  5  2  0  0  0  0
  5 10  1  0  0  0  0
  6  5  1  0  0  0  0
  6 11  1  0  0  0  0
  7  1  1  0  0  0  0
  8  2  1  0  0  0  0
 11 12  2  0  0  0  0
 13 11  2  0  0  0  0
 14 15  3  0  0  0  0
 16 17  1  0  0  0  0
 17 23  1  0  0  0  0
 17 18  2  0  0  0  0
 18 30  1  0  0  0  0
 19 18  1  0  0  0  0
 19 24  1  0  0  0  0
 20 19  2  0  0  0  0
 21 16  2  0  0  0  0
 21 20  1  0  0  0  0
 22 16  1  0  0  0  0
 25 20  1  0  0  0  0
 26 29  1  0  0  0  0
 26 21  1  0  0  0  0
 27 26  2  0  0  0  0
 28 26  2  0  0  0  0
 29  3  1  0  0  0  0
 30 33  1  0  0  0  0
 30 31  1  0  0  0  0
 32 30  1  0  0  0  0
M  END
