Coordinates from ORCA-job p-NO2-Ph-N2-OTs-MP2-6-31G_dp-scan-d09-49-n400
 OpenBabel02121707583D

 33 33  0  0  0  0  0  0  0  0999 V2000
    0.7404   -0.6647   -4.2330 C   0  0  0  0  0  0  0  0  0  0  0  0
    1.2353    0.4074   -4.9736 C   0  0  0  0  0  0  0  0  0  0  0  0
    1.8266    1.4816   -4.3034 C   0  0  0  0  0  0  0  0  0  0  0  0
    1.9336    1.5093   -2.9102 C   0  0  0  0  0  0  0  0  0  0  0  0
    1.4343    0.4447   -2.1636 C   0  0  0  0  0  0  0  0  0  0  0  0
    0.8497   -0.6245   -2.8428 C   0  0  0  0  0  0  0  0  0  0  0  0
    0.2731   -1.5144   -4.7097 H   0  0  0  0  0  0  0  0  0  0  0  0
    1.1696    0.4247   -6.0527 H   0  0  0  0  0  0  0  0  0  0  0  0
    2.3959    2.3645   -2.4338 H   0  0  0  0  0  0  0  0  0  0  0  0
    1.4924    0.4289   -1.0847 H   0  0  0  0  0  0  0  0  0  0  0  0
    0.3240   -1.7523   -2.0605 N   0  0  0  0  0  0  0  0  0  0  0  0
    0.4518   -1.7030   -0.8254 O   0  0  0  0  0  0  0  0  0  0  0  0
   -0.2111   -2.6843   -2.6837 O   0  0  0  0  0  0  0  0  0  0  0  0
   -1.4757    2.2655   -3.5511 N   0  0  0  0  0  0  0  0  0  0  0  0
   -1.8012    1.3216   -3.0178 N   0  0  0  0  0  0  0  0  0  0  0  0
    5.1050    0.8423   -3.9890 C   0  0  0  0  0  0  0  0  0  0  0  0
    5.8933    0.6704   -2.8507 C   0  0  0  0  0  0  0  0  0  0  0  0
    6.3850    1.7699   -2.1334 C   0  0  0  0  0  0  0  0  0  0  0  0
    6.0786    3.0613   -2.5893 C   0  0  0  0  0  0  0  0  0  0  0  0
    5.2933    3.2611   -3.7237 C   0  0  0  0  0  0  0  0  0  0  0  0
    4.8224    2.1418   -4.4152 C   0  0  0  0  0  0  0  0  0  0  0  0
    4.7366   -0.0056   -4.5522 H   0  0  0  0  0  0  0  0  0  0  0  0
    6.1297   -0.3338   -2.5163 H   0  0  0  0  0  0  0  0  0  0  0  0
    6.4634    3.9214   -2.0522 H   0  0  0  0  0  0  0  0  0  0  0  0
    5.0697    4.2568   -4.0859 H   0  0  0  0  0  0  0  0  0  0  0  0
    3.7573    2.3822   -5.8008 S   0  0  0  0  0  0  0  0  0  0  0  0
    3.6924    1.1435   -6.5688 O   0  0  0  0  0  0  0  0  0  0  0  0
    3.9995    3.6789   -6.4089 O   0  0  0  0  0  0  0  0  0  0  0  0
    2.2865    2.5909   -5.0168 O   0  0  0  0  0  0  0  0  0  0  0  0
    7.2003    1.5707   -0.8835 C   0  0  0  0  0  0  0  0  0  0  0  0
    6.5588    1.5468   -0.0007 H   0  0  0  0  0  0  0  0  0  0  0  0
    7.7500    0.6310   -0.9202 H   0  0  0  0  0  0  0  0  0  0  0  0
    7.9178    2.3798   -0.7510 H   0  0  0  0  0  0  0  0  0  0  0  0
  1  6  2  0  0  0  0
  2  3  2  0  0  0  0
  2  1  1  0  0  0  0
  3  4  1  0  0  0  0
  4  9  1  0  0  0  0
  4  5  2  0  0  0  0
  5 10  1  0  0  0  0
  6  5  1  0  0  0  0
  6 11  1  0  0  0  0
  7  1  1  0  0  0  0
  8  2  1  0  0  0  0
 11 12  2  0  0  0  0
 13 11  2  0  0  0  0
 14 15  3  0  0  0  0
 16 17  1  0  0  0  0
 17 23  1  0  0  0  0
 17 18  2  0  0  0  0
 18 30  1  0  0  0  0
 19 18  1  0  0  0  0
 19 24  1  0  0  0  0
 20 19  2  0  0  0  0
 21 16  2  0  0  0  0
 21 20  1  0  0  0  0
 22 16  1  0  0  0  0
 25 20  1  0  0  0  0
 26 29  1  0  0  0  0
 26 21  1  0  0  0  0
 27 26  2  0  0  0  0
 28 26  2  0  0  0  0
 29  3  1  0  0  0  0
 30 33  1  0  0  0  0
 30 31  1  0  0  0  0
 32 30  1  0  0  0  0
M  END
