Coordinates from ORCA-job p-NO2-Ph-N2-OTs-MP2-6-31G_dp-scan-d09-49-n400
 OpenBabel02121707583D

 33 33  0  0  0  0  0  0  0  0999 V2000
    0.7262   -0.7590   -4.1716 C   0  0  0  0  0  0  0  0  0  0  0  0
    1.1885    0.3323   -4.9041 C   0  0  0  0  0  0  0  0  0  0  0  0
    1.7439    1.4203   -4.2262 C   0  0  0  0  0  0  0  0  0  0  0  0
    1.9204    1.4081   -2.8401 C   0  0  0  0  0  0  0  0  0  0  0  0
    1.4539    0.3250   -2.1001 C   0  0  0  0  0  0  0  0  0  0  0  0
    0.8706   -0.7423   -2.7839 C   0  0  0  0  0  0  0  0  0  0  0  0
    0.2722   -1.6131   -4.6532 H   0  0  0  0  0  0  0  0  0  0  0  0
    1.0911    0.3702   -5.9803 H   0  0  0  0  0  0  0  0  0  0  0  0
    2.3749    2.2651   -2.3594 H   0  0  0  0  0  0  0  0  0  0  0  0
    1.5507    0.2854   -1.0246 H   0  0  0  0  0  0  0  0  0  0  0  0
    0.3797   -1.8907   -2.0090 N   0  0  0  0  0  0  0  0  0  0  0  0
    0.5370   -1.8611   -0.7766 O   0  0  0  0  0  0  0  0  0  0  0  0
   -0.1619   -2.8173   -2.6348 O   0  0  0  0  0  0  0  0  0  0  0  0
   -0.5534    2.6065   -4.0131 N   0  0  0  0  0  0  0  0  0  0  0  0
   -1.4269    2.1052   -3.4941 N   0  0  0  0  0  0  0  0  0  0  0  0
    5.0544    0.8603   -4.0004 C   0  0  0  0  0  0  0  0  0  0  0  0
    5.8722    0.6888   -2.8832 C   0  0  0  0  0  0  0  0  0  0  0  0
    6.3418    1.7873   -2.1496 C   0  0  0  0  0  0  0  0  0  0  0  0
    5.9826    3.0779   -2.5679 C   0  0  0  0  0  0  0  0  0  0  0  0
    5.1673    3.2772   -3.6811 C   0  0  0  0  0  0  0  0  0  0  0  0
    4.7193    2.1591   -4.3893 C   0  0  0  0  0  0  0  0  0  0  0  0
    4.7016    0.0140   -4.5758 H   0  0  0  0  0  0  0  0  0  0  0  0
    6.1493   -0.3143   -2.5780 H   0  0  0  0  0  0  0  0  0  0  0  0
    6.3497    3.9377   -2.0183 H   0  0  0  0  0  0  0  0  0  0  0  0
    4.9031    4.2730   -4.0147 H   0  0  0  0  0  0  0  0  0  0  0  0
    3.6179    2.3961   -5.7468 S   0  0  0  0  0  0  0  0  0  0  0  0
    3.5716    1.1710   -6.5379 O   0  0  0  0  0  0  0  0  0  0  0  0
    3.8130    3.7100   -6.3349 O   0  0  0  0  0  0  0  0  0  0  0  0
    2.1586    2.5521   -4.9300 O   0  0  0  0  0  0  0  0  0  0  0  0
    7.1895    1.5866   -0.9218 C   0  0  0  0  0  0  0  0  0  0  0  0
    6.5678    1.5167   -0.0273 H   0  0  0  0  0  0  0  0  0  0  0  0
    7.7720    0.6689   -0.9939 H   0  0  0  0  0  0  0  0  0  0  0  0
    7.8798    2.4178   -0.7823 H   0  0  0  0  0  0  0  0  0  0  0  0
  1  6  2  0  0  0  0
  2  3  2  0  0  0  0
  2  1  1  0  0  0  0
  3  4  1  0  0  0  0
  4  9  1  0  0  0  0
  4  5  2  0  0  0  0
  5 10  1  0  0  0  0
  6  5  1  0  0  0  0
  6 11  1  0  0  0  0
  7  1  1  0  0  0  0
  8  2  1  0  0  0  0
 11 12  2  0  0  0  0
 13 11  2  0  0  0  0
 14 15  3  0  0  0  0
 16 17  1  0  0  0  0
 17 23  1  0  0  0  0
 17 18  2  0  0  0  0
 18 30  1  0  0  0  0
 19 18  1  0  0  0  0
 19 24  1  0  0  0  0
 20 19  2  0  0  0  0
 21 16  2  0  0  0  0
 21 20  1  0  0  0  0
 22 16  1  0  0  0  0
 25 20  1  0  0  0  0
 26 29  1  0  0  0  0
 26 21  1  0  0  0  0
 27 26  2  0  0  0  0
 28 26  2  0  0  0  0
 29  3  1  0  0  0  0
 30 33  1  0  0  0  0
 30 31  1  0  0  0  0
 32 30  1  0  0  0  0
M  END
