Coordinates from ORCA-job p-NO2-Ph-N2-OTs-MP2-6-31G_dp-scan-d09-49-n400
 OpenBabel02121707583D

 33 33  0  0  0  0  0  0  0  0999 V2000
    0.7274   -0.7164   -4.2073 C   0  0  0  0  0  0  0  0  0  0  0  0
    1.2132    0.3646   -4.9408 C   0  0  0  0  0  0  0  0  0  0  0  0
    1.7999    1.4369   -4.2639 C   0  0  0  0  0  0  0  0  0  0  0  0
    1.9215    1.4497   -2.8719 C   0  0  0  0  0  0  0  0  0  0  0  0
    1.4314    0.3763   -2.1320 C   0  0  0  0  0  0  0  0  0  0  0  0
    0.8454   -0.6884   -2.8173 C   0  0  0  0  0  0  0  0  0  0  0  0
    0.2621   -1.5643   -4.6891 H   0  0  0  0  0  0  0  0  0  0  0  0
    1.1372    0.3939   -6.0190 H   0  0  0  0  0  0  0  0  0  0  0  0
    2.3803    2.3041   -2.3908 H   0  0  0  0  0  0  0  0  0  0  0  0
    1.4989    0.3495   -1.0539 H   0  0  0  0  0  0  0  0  0  0  0  0
    0.3329   -1.8275   -2.0423 N   0  0  0  0  0  0  0  0  0  0  0  0
    0.4700   -1.7898   -0.8077 O   0  0  0  0  0  0  0  0  0  0  0  0
   -0.2021   -2.7561   -2.6706 O   0  0  0  0  0  0  0  0  0  0  0  0
   -1.1115    2.4953   -3.7787 N   0  0  0  0  0  0  0  0  0  0  0  0
   -1.6962    1.6931   -3.2340 N   0  0  0  0  0  0  0  0  0  0  0  0
    5.0958    0.8522   -3.9909 C   0  0  0  0  0  0  0  0  0  0  0  0
    5.9007    0.6835   -2.8638 C   0  0  0  0  0  0  0  0  0  0  0  0
    6.3815    1.7847   -2.1417 C   0  0  0  0  0  0  0  0  0  0  0  0
    6.0470    3.0747   -2.5815 C   0  0  0  0  0  0  0  0  0  0  0  0
    5.2447    3.2713   -3.7046 C   0  0  0  0  0  0  0  0  0  0  0  0
    4.7855    2.1505   -4.4013 C   0  0  0  0  0  0  0  0  0  0  0  0
    4.7358    0.0034   -4.5580 H   0  0  0  0  0  0  0  0  0  0  0  0
    6.1588   -0.3195   -2.5419 H   0  0  0  0  0  0  0  0  0  0  0  0
    6.4230    3.9363   -2.0406 H   0  0  0  0  0  0  0  0  0  0  0  0
    4.9994    4.2663   -4.0544 H   0  0  0  0  0  0  0  0  0  0  0  0
    3.6997    2.3852   -5.7718 S   0  0  0  0  0  0  0  0  0  0  0  0
    3.6468    1.1526   -6.5506 O   0  0  0  0  0  0  0  0  0  0  0  0
    3.9128    3.6913   -6.3707 O   0  0  0  0  0  0  0  0  0  0  0  0
    2.2355    2.5612   -4.9684 O   0  0  0  0  0  0  0  0  0  0  0  0
    7.2152    1.5882   -0.9036 C   0  0  0  0  0  0  0  0  0  0  0  0
    6.5850    1.5462   -0.0133 H   0  0  0  0  0  0  0  0  0  0  0  0
    7.7797    0.6580   -0.9552 H   0  0  0  0  0  0  0  0  0  0  0  0
    7.9209    2.4078   -0.7726 H   0  0  0  0  0  0  0  0  0  0  0  0
  1  6  2  0  0  0  0
  2  3  2  0  0  0  0
  2  1  1  0  0  0  0
  3  4  1  0  0  0  0
  4  9  1  0  0  0  0
  4  5  2  0  0  0  0
  5 10  1  0  0  0  0
  6  5  1  0  0  0  0
  6 11  1  0  0  0  0
  7  1  1  0  0  0  0
  8  2  1  0  0  0  0
 11 12  2  0  0  0  0
 13 11  2  0  0  0  0
 14 15  3  0  0  0  0
 16 17  1  0  0  0  0
 17 23  1  0  0  0  0
 17 18  2  0  0  0  0
 18 30  1  0  0  0  0
 19 18  1  0  0  0  0
 19 24  1  0  0  0  0
 20 19  2  0  0  0  0
 21 16  2  0  0  0  0
 21 20  1  0  0  0  0
 22 16  1  0  0  0  0
 25 20  1  0  0  0  0
 26 29  1  0  0  0  0
 26 21  1  0  0  0  0
 27 26  2  0  0  0  0
 28 26  2  0  0  0  0
 29  3  1  0  0  0  0
 30 33  1  0  0  0  0
 30 31  1  0  0  0  0
 32 30  1  0  0  0  0
M  END
