Coordinates from ORCA-job p-NO2-Ph-N2-OTs-MP2-6-31G_dp-scan-d09-49-n400
 OpenBabel02121707583D

 33 33  0  0  0  0  0  0  0  0999 V2000
    0.7503   -0.5358   -4.3016 C   0  0  0  0  0  0  0  0  0  0  0  0
    1.2995    0.5001   -5.0551 C   0  0  0  0  0  0  0  0  0  0  0  0
    1.9080    1.5717   -4.3965 C   0  0  0  0  0  0  0  0  0  0  0  0
    1.9799    1.6312   -3.0023 C   0  0  0  0  0  0  0  0  0  0  0  0
    1.4270    0.6026   -2.2432 C   0  0  0  0  0  0  0  0  0  0  0  0
    0.8292   -0.4664   -2.9107 C   0  0  0  0  0  0  0  0  0  0  0  0
    0.2697   -1.3827   -4.7700 H   0  0  0  0  0  0  0  0  0  0  0  0
    1.2623    0.4912   -6.1356 H   0  0  0  0  0  0  0  0  0  0  0  0
    2.4570    2.4830   -2.5345 H   0  0  0  0  0  0  0  0  0  0  0  0
    1.4603    0.6113   -1.1632 H   0  0  0  0  0  0  0  0  0  0  0  0
    0.2498   -1.5574   -2.1153 N   0  0  0  0  0  0  0  0  0  0  0  0
    0.3804   -1.4989   -0.8809 O   0  0  0  0  0  0  0  0  0  0  0  0
   -0.3288   -2.4702   -2.7273 O   0  0  0  0  0  0  0  0  0  0  0  0
   -2.3867    1.5464   -2.9276 N   0  0  0  0  0  0  0  0  0  0  0  0
   -2.1521    0.5136   -2.5295 N   0  0  0  0  0  0  0  0  0  0  0  0
    5.1506    0.8231   -3.9826 C   0  0  0  0  0  0  0  0  0  0  0  0
    5.9026    0.6494   -2.8203 C   0  0  0  0  0  0  0  0  0  0  0  0
    6.4155    1.7469   -2.1148 C   0  0  0  0  0  0  0  0  0  0  0  0
    6.1681    3.0376   -2.6071 C   0  0  0  0  0  0  0  0  0  0  0  0
    5.4198    3.2391   -3.7660 C   0  0  0  0  0  0  0  0  0  0  0  0
    4.9264    2.1218   -4.4447 C   0  0  0  0  0  0  0  0  0  0  0  0
    4.7660   -0.0238   -4.5363 H   0  0  0  0  0  0  0  0  0  0  0  0
    6.0937   -0.3546   -2.4576 H   0  0  0  0  0  0  0  0  0  0  0  0
    6.5701    3.8955   -2.0792 H   0  0  0  0  0  0  0  0  0  0  0  0
    5.2421    4.2335   -4.1559 H   0  0  0  0  0  0  0  0  0  0  0  0
    3.9070    2.3681   -5.8632 S   0  0  0  0  0  0  0  0  0  0  0  0
    3.8183    1.1155   -6.6060 O   0  0  0  0  0  0  0  0  0  0  0  0
    4.2111    3.6415   -6.4926 O   0  0  0  0  0  0  0  0  0  0  0  0
    2.4244    2.6461   -5.1245 O   0  0  0  0  0  0  0  0  0  0  0  0
    7.1906    1.5474   -0.8396 C   0  0  0  0  0  0  0  0  0  0  0  0
    6.5259    1.5650    0.0260 H   0  0  0  0  0  0  0  0  0  0  0  0
    7.7080    0.5888   -0.8418 H   0  0  0  0  0  0  0  0  0  0  0  0
    7.9321    2.3342   -0.7050 H   0  0  0  0  0  0  0  0  0  0  0  0
  1  6  2  0  0  0  0
  2  3  2  0  0  0  0
  2  1  1  0  0  0  0
  3  4  1  0  0  0  0
  4  9  1  0  0  0  0
  4  5  2  0  0  0  0
  5 10  1  0  0  0  0
  6  5  1  0  0  0  0
  6 11  1  0  0  0  0
  7  1  1  0  0  0  0
  8  2  1  0  0  0  0
 11 12  2  0  0  0  0
 13 11  2  0  0  0  0
 14 15  3  0  0  0  0
 16 17  1  0  0  0  0
 17 23  1  0  0  0  0
 17 18  2  0  0  0  0
 18 30  1  0  0  0  0
 19 18  1  0  0  0  0
 19 24  1  0  0  0  0
 20 19  2  0  0  0  0
 21 16  2  0  0  0  0
 21 20  1  0  0  0  0
 22 16  1  0  0  0  0
 25 20  1  0  0  0  0
 26 29  1  0  0  0  0
 26 21  1  0  0  0  0
 27 26  2  0  0  0  0
 28 26  2  0  0  0  0
 29  3  1  0  0  0  0
 30 33  1  0  0  0  0
 30 31  1  0  0  0  0
 32 30  1  0  0  0  0
M  END
