Coordinates from ORCA-job p-NO2-Ph-N2-OTs-MP2-6-31G_dp-scan-d09-49-n400
 OpenBabel02121707583D

 33 33  0  0  0  0  0  0  0  0999 V2000
    0.7490   -0.6442   -4.2435 C   0  0  0  0  0  0  0  0  0  0  0  0
    1.2470    0.4242   -4.9874 C   0  0  0  0  0  0  0  0  0  0  0  0
    1.8418    1.4992   -4.3211 C   0  0  0  0  0  0  0  0  0  0  0  0
    1.9374    1.5359   -2.9271 C   0  0  0  0  0  0  0  0  0  0  0  0
    1.4350    0.4749   -2.1773 C   0  0  0  0  0  0  0  0  0  0  0  0
    0.8545   -0.5983   -2.8534 C   0  0  0  0  0  0  0  0  0  0  0  0
    0.2830   -1.4957   -4.7183 H   0  0  0  0  0  0  0  0  0  0  0  0
    1.1850    0.4365   -6.0669 H   0  0  0  0  0  0  0  0  0  0  0  0
    2.3978    2.3935   -2.4530 H   0  0  0  0  0  0  0  0  0  0  0  0
    1.4888    0.4649   -1.0982 H   0  0  0  0  0  0  0  0  0  0  0  0
    0.3296   -1.7240   -2.0677 N   0  0  0  0  0  0  0  0  0  0  0  0
    0.4533   -1.6688   -0.8324 O   0  0  0  0  0  0  0  0  0  0  0  0
   -0.1998   -2.6610   -2.6884 O   0  0  0  0  0  0  0  0  0  0  0  0
   -1.6757    2.1761   -3.4478 N   0  0  0  0  0  0  0  0  0  0  0  0
   -1.8768    1.1888   -2.9322 N   0  0  0  0  0  0  0  0  0  0  0  0
    5.1102    0.8373   -3.9881 C   0  0  0  0  0  0  0  0  0  0  0  0
    5.8912    0.6639   -2.8451 C   0  0  0  0  0  0  0  0  0  0  0  0
    6.3879    1.7625   -2.1298 C   0  0  0  0  0  0  0  0  0  0  0  0
    6.0941    3.0544   -2.5925 C   0  0  0  0  0  0  0  0  0  0  0  0
    5.3161    3.2557   -3.7318 C   0  0  0  0  0  0  0  0  0  0  0  0
    4.8400    2.1372   -4.4211 C   0  0  0  0  0  0  0  0  0  0  0  0
    4.7379   -0.0100   -4.5496 H   0  0  0  0  0  0  0  0  0  0  0  0
    6.1180   -0.3407   -2.5053 H   0  0  0  0  0  0  0  0  0  0  0  0
    6.4829    3.9136   -2.0570 H   0  0  0  0  0  0  0  0  0  0  0  0
    5.1022    4.2515   -4.0991 H   0  0  0  0  0  0  0  0  0  0  0  0
    3.7841    2.3802   -5.8132 S   0  0  0  0  0  0  0  0  0  0  0  0
    3.7146    1.1394   -6.5774 O   0  0  0  0  0  0  0  0  0  0  0  0
    4.0386    3.6731   -6.4245 O   0  0  0  0  0  0  0  0  0  0  0  0
    2.3103    2.6019   -5.0382 O   0  0  0  0  0  0  0  0  0  0  0  0
    7.1952    1.5620   -0.8749 C   0  0  0  0  0  0  0  0  0  0  0  0
    6.5490    1.5464    0.0047 H   0  0  0  0  0  0  0  0  0  0  0  0
    7.7380    0.6181   -0.9051 H   0  0  0  0  0  0  0  0  0  0  0  0
    7.9180    2.3662   -0.7417 H   0  0  0  0  0  0  0  0  0  0  0  0
  1  6  2  0  0  0  0
  2  3  2  0  0  0  0
  2  1  1  0  0  0  0
  3  4  1  0  0  0  0
  4  9  1  0  0  0  0
  4  5  2  0  0  0  0
  5 10  1  0  0  0  0
  6  5  1  0  0  0  0
  6 11  1  0  0  0  0
  7  1  1  0  0  0  0
  8  2  1  0  0  0  0
 11 12  2  0  0  0  0
 13 11  2  0  0  0  0
 14 15  3  0  0  0  0
 16 17  1  0  0  0  0
 17 23  1  0  0  0  0
 17 18  2  0  0  0  0
 18 30  1  0  0  0  0
 19 18  1  0  0  0  0
 19 24  1  0  0  0  0
 20 19  2  0  0  0  0
 21 16  2  0  0  0  0
 21 20  1  0  0  0  0
 22 16  1  0  0  0  0
 25 20  1  0  0  0  0
 26 29  1  0  0  0  0
 26 21  1  0  0  0  0
 27 26  2  0  0  0  0
 28 26  2  0  0  0  0
 29  3  1  0  0  0  0
 30 33  1  0  0  0  0
 30 31  1  0  0  0  0
 32 30  1  0  0  0  0
M  END
