Coordinates from ORCA-job p-NO2-Ph-N2-OTs-MP2-6-31G_dp-scan-d09-49-n400
 OpenBabel02121707583D

 33 33  0  0  0  0  0  0  0  0999 V2000
    0.7397   -0.6535   -4.2402 C   0  0  0  0  0  0  0  0  0  0  0  0
    1.2412    0.4147   -4.9819 C   0  0  0  0  0  0  0  0  0  0  0  0
    1.8332    1.4890   -4.3123 C   0  0  0  0  0  0  0  0  0  0  0  0
    1.9414    1.5170   -2.9191 C   0  0  0  0  0  0  0  0  0  0  0  0
    1.4355    0.4561   -2.1716 C   0  0  0  0  0  0  0  0  0  0  0  0
    0.8487   -0.6121   -2.8501 C   0  0  0  0  0  0  0  0  0  0  0  0
    0.2701   -1.5024   -4.7161 H   0  0  0  0  0  0  0  0  0  0  0  0
    1.1766    0.4308   -6.0610 H   0  0  0  0  0  0  0  0  0  0  0  0
    2.4061    2.3712   -2.4433 H   0  0  0  0  0  0  0  0  0  0  0  0
    1.4928    0.4411   -1.0927 H   0  0  0  0  0  0  0  0  0  0  0  0
    0.3104   -1.7329   -2.0663 N   0  0  0  0  0  0  0  0  0  0  0  0
    0.4342   -1.6810   -0.8309 O   0  0  0  0  0  0  0  0  0  0  0  0
   -0.2304   -2.6622   -2.6887 O   0  0  0  0  0  0  0  0  0  0  0  0
   -1.5521    2.2077   -3.4919 N   0  0  0  0  0  0  0  0  0  0  0  0
   -1.8148    1.2401   -2.9671 N   0  0  0  0  0  0  0  0  0  0  0  0
    5.1104    0.8408   -3.9888 C   0  0  0  0  0  0  0  0  0  0  0  0
    5.8955    0.6693   -2.8482 C   0  0  0  0  0  0  0  0  0  0  0  0
    6.3875    1.7691   -2.1315 C   0  0  0  0  0  0  0  0  0  0  0  0
    6.0848    3.0603   -2.5903 C   0  0  0  0  0  0  0  0  0  0  0  0
    5.3027    3.2598   -3.7271 C   0  0  0  0  0  0  0  0  0  0  0  0
    4.8315    2.1402   -4.4180 C   0  0  0  0  0  0  0  0  0  0  0  0
    4.7418   -0.0072   -4.5515 H   0  0  0  0  0  0  0  0  0  0  0  0
    6.1292   -0.3347   -2.5115 H   0  0  0  0  0  0  0  0  0  0  0  0
    6.4699    3.9205   -2.0537 H   0  0  0  0  0  0  0  0  0  0  0  0
    5.0821    4.2552   -4.0915 H   0  0  0  0  0  0  0  0  0  0  0  0
    3.7704    2.3804   -5.8066 S   0  0  0  0  0  0  0  0  0  0  0  0
    3.7039    1.1400   -6.5719 O   0  0  0  0  0  0  0  0  0  0  0  0
    4.0179    3.6749   -6.4172 O   0  0  0  0  0  0  0  0  0  0  0  0
    2.2982    2.5952   -5.0270 O   0  0  0  0  0  0  0  0  0  0  0  0
    7.1992    1.5704   -0.8792 C   0  0  0  0  0  0  0  0  0  0  0  0
    6.5554    1.5489    0.0020 H   0  0  0  0  0  0  0  0  0  0  0  0
    7.7474    0.6296   -0.9130 H   0  0  0  0  0  0  0  0  0  0  0  0
    7.9177    2.3784   -0.7460 H   0  0  0  0  0  0  0  0  0  0  0  0
  1  6  2  0  0  0  0
  2  3  2  0  0  0  0
  2  1  1  0  0  0  0
  3  4  1  0  0  0  0
  4  9  1  0  0  0  0
  4  5  2  0  0  0  0
  5 10  1  0  0  0  0
  6  5  1  0  0  0  0
  6 11  1  0  0  0  0
  7  1  1  0  0  0  0
  8  2  1  0  0  0  0
 11 12  2  0  0  0  0
 13 11  2  0  0  0  0
 14 15  3  0  0  0  0
 16 17  1  0  0  0  0
 17 23  1  0  0  0  0
 17 18  2  0  0  0  0
 18 30  1  0  0  0  0
 19 18  1  0  0  0  0
 19 24  1  0  0  0  0
 20 19  2  0  0  0  0
 21 16  2  0  0  0  0
 21 20  1  0  0  0  0
 22 16  1  0  0  0  0
 25 20  1  0  0  0  0
 26 29  1  0  0  0  0
 26 21  1  0  0  0  0
 27 26  2  0  0  0  0
 28 26  2  0  0  0  0
 29  3  1  0  0  0  0
 30 33  1  0  0  0  0
 30 31  1  0  0  0  0
 32 30  1  0  0  0  0
M  END
