Coordinates from ORCA-job p-NO2-Ph-N2-OTs-MP2-6-31G_dp-scan-d09-49-n400
 OpenBabel02121707583D

 33 33  0  0  0  0  0  0  0  0999 V2000
    0.7508   -0.5932   -4.2735 C   0  0  0  0  0  0  0  0  0  0  0  0
    1.2738    0.4598   -5.0221 C   0  0  0  0  0  0  0  0  0  0  0  0
    1.8741    1.5335   -4.3592 C   0  0  0  0  0  0  0  0  0  0  0  0
    1.9580    1.5811   -2.9650 C   0  0  0  0  0  0  0  0  0  0  0  0
    1.4309    0.5356   -2.2106 C   0  0  0  0  0  0  0  0  0  0  0  0
    0.8430   -0.5359   -2.8828 C   0  0  0  0  0  0  0  0  0  0  0  0
    0.2772   -1.4423   -4.7451 H   0  0  0  0  0  0  0  0  0  0  0  0
    1.2252    0.4619   -6.1022 H   0  0  0  0  0  0  0  0  0  0  0  0
    2.4265    2.4360   -2.4943 H   0  0  0  0  0  0  0  0  0  0  0  0
    1.4732    0.5350   -1.1309 H   0  0  0  0  0  0  0  0  0  0  0  0
    0.2838   -1.6411   -2.0921 N   0  0  0  0  0  0  0  0  0  0  0  0
    0.4078   -1.5830   -0.8570 O   0  0  0  0  0  0  0  0  0  0  0  0
   -0.2724   -2.5651   -2.7087 O   0  0  0  0  0  0  0  0  0  0  0  0
   -2.0168    1.8790   -3.1882 N   0  0  0  0  0  0  0  0  0  0  0  0
   -1.9961    0.8480   -2.7220 N   0  0  0  0  0  0  0  0  0  0  0  0
    5.1308    0.8305   -3.9856 C   0  0  0  0  0  0  0  0  0  0  0  0
    5.8974    0.6572   -2.8328 C   0  0  0  0  0  0  0  0  0  0  0  0
    6.4012    1.7556   -2.1222 C   0  0  0  0  0  0  0  0  0  0  0  0
    6.1295    3.0470   -2.5996 C   0  0  0  0  0  0  0  0  0  0  0  0
    5.3662    3.2482   -3.7488 C   0  0  0  0  0  0  0  0  0  0  0  0
    4.8825    2.1300   -4.4330 C   0  0  0  0  0  0  0  0  0  0  0  0
    4.7532   -0.0168   -4.5434 H   0  0  0  0  0  0  0  0  0  0  0  0
    6.1072   -0.3471   -2.4817 H   0  0  0  0  0  0  0  0  0  0  0  0
    6.5241    3.9058   -2.0677 H   0  0  0  0  0  0  0  0  0  0  0  0
    5.1696    4.2435   -4.1273 H   0  0  0  0  0  0  0  0  0  0  0  0
    3.8448    2.3743   -5.8385 S   0  0  0  0  0  0  0  0  0  0  0  0
    3.7669    1.1276   -6.5922 O   0  0  0  0  0  0  0  0  0  0  0  0
    4.1230    3.6580   -6.4586 O   0  0  0  0  0  0  0  0  0  0  0  0
    2.3659    2.6228   -5.0815 O   0  0  0  0  0  0  0  0  0  0  0  0
    7.1925    1.5559   -0.8570 C   0  0  0  0  0  0  0  0  0  0  0  0
    6.5368    1.5563    0.0156 H   0  0  0  0  0  0  0  0  0  0  0  0
    7.7233    0.6047   -0.8732 H   0  0  0  0  0  0  0  0  0  0  0  0
    7.9242    2.3518   -0.7231 H   0  0  0  0  0  0  0  0  0  0  0  0
  1  6  2  0  0  0  0
  2  3  2  0  0  0  0
  2  1  1  0  0  0  0
  3  4  1  0  0  0  0
  4  9  1  0  0  0  0
  4  5  2  0  0  0  0
  5 10  1  0  0  0  0
  6  5  1  0  0  0  0
  6 11  1  0  0  0  0
  7  1  1  0  0  0  0
  8  2  1  0  0  0  0
 11 12  2  0  0  0  0
 13 11  2  0  0  0  0
 14 15  3  0  0  0  0
 16 17  1  0  0  0  0
 17 23  1  0  0  0  0
 17 18  2  0  0  0  0
 18 30  1  0  0  0  0
 19 18  1  0  0  0  0
 19 24  1  0  0  0  0
 20 19  2  0  0  0  0
 21 16  2  0  0  0  0
 21 20  1  0  0  0  0
 22 16  1  0  0  0  0
 25 20  1  0  0  0  0
 26 29  1  0  0  0  0
 26 21  1  0  0  0  0
 27 26  2  0  0  0  0
 28 26  2  0  0  0  0
 29  3  1  0  0  0  0
 30 33  1  0  0  0  0
 30 31  1  0  0  0  0
 32 30  1  0  0  0  0
M  END
