Coordinates from ORCA-job p-NO2-Ph-N2-OTs-MP2-6-31G_dp-scan-d09-49-n400
 OpenBabel02121707583D

 33 33  0  0  0  0  0  0  0  0999 V2000
    0.7522   -0.5891   -4.2757 C   0  0  0  0  0  0  0  0  0  0  0  0
    1.2763    0.4629   -5.0248 C   0  0  0  0  0  0  0  0  0  0  0  0
    1.8774    1.5365   -4.3625 C   0  0  0  0  0  0  0  0  0  0  0  0
    1.9591    1.5860   -2.9683 C   0  0  0  0  0  0  0  0  0  0  0  0
    1.4310    0.5414   -2.2133 C   0  0  0  0  0  0  0  0  0  0  0  0
    0.8429   -0.5304   -2.8850 C   0  0  0  0  0  0  0  0  0  0  0  0
    0.2788   -1.4385   -4.7470 H   0  0  0  0  0  0  0  0  0  0  0  0
    1.2291    0.4638   -6.1050 H   0  0  0  0  0  0  0  0  0  0  0  0
    2.4281    2.4409   -2.4980 H   0  0  0  0  0  0  0  0  0  0  0  0
    1.4725    0.5418   -1.1336 H   0  0  0  0  0  0  0  0  0  0  0  0
    0.2857   -1.6363   -2.0938 N   0  0  0  0  0  0  0  0  0  0  0  0
    0.4108   -1.5781   -0.8588 O   0  0  0  0  0  0  0  0  0  0  0  0
   -0.2697   -2.5611   -2.7099 O   0  0  0  0  0  0  0  0  0  0  0  0
   -2.0605    1.8597   -3.1669 N   0  0  0  0  0  0  0  0  0  0  0  0
   -2.0203    0.8271   -2.7056 N   0  0  0  0  0  0  0  0  0  0  0  0
    5.1324    0.8296   -3.9854 C   0  0  0  0  0  0  0  0  0  0  0  0
    5.8977    0.6562   -2.8317 C   0  0  0  0  0  0  0  0  0  0  0  0
    6.4024    1.7544   -2.1215 C   0  0  0  0  0  0  0  0  0  0  0  0
    6.1329    3.0458   -2.6002 C   0  0  0  0  0  0  0  0  0  0  0  0
    5.3710    3.2472   -3.7503 C   0  0  0  0  0  0  0  0  0  0  0  0
    4.8864    2.1291   -4.4341 C   0  0  0  0  0  0  0  0  0  0  0  0
    4.7541   -0.0176   -4.5429 H   0  0  0  0  0  0  0  0  0  0  0  0
    6.1057   -0.3482   -2.4796 H   0  0  0  0  0  0  0  0  0  0  0  0
    6.5282    3.9045   -2.0686 H   0  0  0  0  0  0  0  0  0  0  0  0
    5.1762    4.2424   -4.1298 H   0  0  0  0  0  0  0  0  0  0  0  0
    3.8503    2.3737   -5.8408 S   0  0  0  0  0  0  0  0  0  0  0  0
    3.7716    1.1266   -6.5937 O   0  0  0  0  0  0  0  0  0  0  0  0
    4.1308    3.6566   -6.4615 O   0  0  0  0  0  0  0  0  0  0  0  0
    2.3711    2.6246   -5.0854 O   0  0  0  0  0  0  0  0  0  0  0  0
    7.1921    1.5546   -0.8554 C   0  0  0  0  0  0  0  0  0  0  0  0
    6.5356    1.5565    0.0166 H   0  0  0  0  0  0  0  0  0  0  0  0
    7.7217    0.6028   -0.8704 H   0  0  0  0  0  0  0  0  0  0  0  0
    7.9247    2.3497   -0.7213 H   0  0  0  0  0  0  0  0  0  0  0  0
  1  6  2  0  0  0  0
  2  3  2  0  0  0  0
  2  1  1  0  0  0  0
  3  4  1  0  0  0  0
  4  9  1  0  0  0  0
  4  5  2  0  0  0  0
  5 10  1  0  0  0  0
  6  5  1  0  0  0  0
  6 11  1  0  0  0  0
  7  1  1  0  0  0  0
  8  2  1  0  0  0  0
 11 12  2  0  0  0  0
 13 11  2  0  0  0  0
 14 15  3  0  0  0  0
 16 17  1  0  0  0  0
 17 23  1  0  0  0  0
 17 18  2  0  0  0  0
 18 30  1  0  0  0  0
 19 18  1  0  0  0  0
 19 24  1  0  0  0  0
 20 19  2  0  0  0  0
 21 16  2  0  0  0  0
 21 20  1  0  0  0  0
 22 16  1  0  0  0  0
 25 20  1  0  0  0  0
 26 29  1  0  0  0  0
 26 21  1  0  0  0  0
 27 26  2  0  0  0  0
 28 26  2  0  0  0  0
 29  3  1  0  0  0  0
 30 33  1  0  0  0  0
 30 31  1  0  0  0  0
 32 30  1  0  0  0  0
M  END
