Coordinates from ORCA-job p-NO2-Ph-N2-OTs-MP2-6-31G_dp-scan-d09-49-n400
 OpenBabel02121707583D

 33 33  0  0  0  0  0  0  0  0999 V2000
    2.2004   -0.4192   -3.3591 C   0  0  0  0  0  0  0  0  0  0  0  0
    1.6001    0.1748   -4.4645 C   0  0  0  0  0  0  0  0  0  0  0  0
    0.8989    1.3662   -4.2475 C   0  0  0  0  0  0  0  0  0  0  0  0
    0.7696    2.0012   -3.0039 C   0  0  0  0  0  0  0  0  0  0  0  0
    1.3873    1.3990   -1.9177 C   0  0  0  0  0  0  0  0  0  0  0  0
    2.1058    0.2167   -2.1221 C   0  0  0  0  0  0  0  0  0  0  0  0
    2.7754   -1.3283   -3.4542 H   0  0  0  0  0  0  0  0  0  0  0  0
    1.7152   -0.2130   -5.4659 H   0  0  0  0  0  0  0  0  0  0  0  0
    0.2609    2.9517   -2.9226 H   0  0  0  0  0  0  0  0  0  0  0  0
    1.3634    1.8499   -0.9361 H   0  0  0  0  0  0  0  0  0  0  0  0
    2.8059   -0.3820   -0.9795 N   0  0  0  0  0  0  0  0  0  0  0  0
    2.8987    0.3010    0.0543 O   0  0  0  0  0  0  0  0  0  0  0  0
    3.2671   -1.5260   -1.1309 O   0  0  0  0  0  0  0  0  0  0  0  0
    0.3575    1.9852   -5.3321 N   0  0  0  0  0  0  0  0  0  0  0  0
   -0.1825    2.4584   -6.2112 N   0  0  0  0  0  0  0  0  0  0  0  0
    4.7856    0.9102   -4.6782 C   0  0  0  0  0  0  0  0  0  0  0  0
    5.4586    0.2482   -3.6489 C   0  0  0  0  0  0  0  0  0  0  0  0
    5.4817    0.7660   -2.3445 C   0  0  0  0  0  0  0  0  0  0  0  0
    4.8112    1.9749   -2.1000 C   0  0  0  0  0  0  0  0  0  0  0  0
    4.1373    2.6478   -3.1218 C   0  0  0  0  0  0  0  0  0  0  0  0
    4.1122    2.1087   -4.4118 C   0  0  0  0  0  0  0  0  0  0  0  0
    4.7652    0.5050   -5.6832 H   0  0  0  0  0  0  0  0  0  0  0  0
    5.9859   -0.6766   -3.8616 H   0  0  0  0  0  0  0  0  0  0  0  0
    4.8313    2.3989   -1.1004 H   0  0  0  0  0  0  0  0  0  0  0  0
    3.6239    3.5831   -2.9343 H   0  0  0  0  0  0  0  0  0  0  0  0
    3.2283    2.9565   -5.7279 S   0  0  0  0  0  0  0  0  0  0  0  0
    2.6284    1.8282   -6.5174 O   0  0  0  0  0  0  0  0  0  0  0  0
    4.2062    3.7861   -6.4415 O   0  0  0  0  0  0  0  0  0  0  0  0
    2.1495    3.7016   -4.9933 O   0  0  0  0  0  0  0  0  0  0  0  0
    6.1972    0.0488   -1.2293 C   0  0  0  0  0  0  0  0  0  0  0  0
    5.4964   -0.4751   -0.5767 H   0  0  0  0  0  0  0  0  0  0  0  0
    6.8972   -0.6863   -1.6255 H   0  0  0  0  0  0  0  0  0  0  0  0
    6.7585    0.7532   -0.6149 H   0  0  0  0  0  0  0  0  0  0  0  0
  1  6  2  0  0  0  0
  2  3  2  0  0  0  0
  2  1  1  0  0  0  0
  3  4  1  0  0  0  0
  4  9  1  0  0  0  0
  4  5  2  0  0  0  0
  5 10  1  0  0  0  0
  6  5  1  0  0  0  0
  6 11  1  0  0  0  0
  7  1  1  0  0  0  0
  8  2  1  0  0  0  0
 11 12  2  0  0  0  0
 13 11  2  0  0  0  0
 14  3  1  0  0  0  0
 15 14  1  0  0  0  0
 16 21  2  0  0  0  0
 16 17  1  0  0  0  0
 17 18  2  0  0  0  0
 18 19  1  0  0  0  0
 18 30  1  0  0  0  0
 19 24  1  0  0  0  0
 20 25  1  0  0  0  0
 20 19  2  0  0  0  0
 21 20  1  0  0  0  0
 22 16  1  0  0  0  0
 23 17  1  0  0  0  0
 26 29  1  0  0  0  0
 26 21  1  0  0  0  0
 27 26  2  0  0  0  0
 28 26  2  0  0  0  0
 30 33  1  0  0  0  0
 30 31  1  0  0  0  0
 32 30  1  0  0  0  0
M  RAD  3  14   2  15   3  29   2
M  END
