Coordinates from ORCA-job p-NO2-Ph-N2-OTs-MP2-6-31G_dp-scan-d09-49-n400
 OpenBabel02121707583D

 33 33  0  0  0  0  0  0  0  0999 V2000
    0.7479   -0.5469   -4.2962 C   0  0  0  0  0  0  0  0  0  0  0  0
    1.2940    0.4915   -5.0485 C   0  0  0  0  0  0  0  0  0  0  0  0
    1.9005    1.5636   -4.3886 C   0  0  0  0  0  0  0  0  0  0  0  0
    1.9768    1.6192   -2.9944 C   0  0  0  0  0  0  0  0  0  0  0  0
    1.4270    0.5880   -2.2365 C   0  0  0  0  0  0  0  0  0  0  0  0
    0.8296   -0.4804   -2.9053 C   0  0  0  0  0  0  0  0  0  0  0  0
    0.2669   -1.3932   -4.7654 H   0  0  0  0  0  0  0  0  0  0  0  0
    1.2542    0.4853   -6.1289 H   0  0  0  0  0  0  0  0  0  0  0  0
    2.4528    2.4710   -2.5256 H   0  0  0  0  0  0  0  0  0  0  0  0
    1.4616    0.5945   -1.1565 H   0  0  0  0  0  0  0  0  0  0  0  0
    0.2462   -1.5701   -2.1110 N   0  0  0  0  0  0  0  0  0  0  0  0
    0.3753   -1.5124   -0.8764 O   0  0  0  0  0  0  0  0  0  0  0  0
   -0.3348   -2.4808   -2.7241 O   0  0  0  0  0  0  0  0  0  0  0  0
   -2.2879    1.6034   -2.9810 N   0  0  0  0  0  0  0  0  0  0  0  0
   -2.0997    0.5671   -2.5676 N   0  0  0  0  0  0  0  0  0  0  0  0
    5.1474    0.8251   -3.9832 C   0  0  0  0  0  0  0  0  0  0  0  0
    5.9026    0.6518   -2.8230 C   0  0  0  0  0  0  0  0  0  0  0  0
    6.4131    1.7497   -2.1164 C   0  0  0  0  0  0  0  0  0  0  0  0
    6.1599    3.0405   -2.6055 C   0  0  0  0  0  0  0  0  0  0  0  0
    5.4083    3.2417   -3.7623 C   0  0  0  0  0  0  0  0  0  0  0  0
    4.9174    2.1239   -4.4422 C   0  0  0  0  0  0  0  0  0  0  0  0
    4.7645   -0.0220   -4.5378 H   0  0  0  0  0  0  0  0  0  0  0  0
    6.0981   -0.3522   -2.4628 H   0  0  0  0  0  0  0  0  0  0  0  0
    6.5600    3.8988   -2.0768 H   0  0  0  0  0  0  0  0  0  0  0  0
    5.2261    4.2362   -4.1497 H   0  0  0  0  0  0  0  0  0  0  0  0
    3.8939    2.3695   -5.8579 S   0  0  0  0  0  0  0  0  0  0  0  0
    3.8077    1.1180   -6.6027 O   0  0  0  0  0  0  0  0  0  0  0  0
    4.1924    3.6450   -6.4856 O   0  0  0  0  0  0  0  0  0  0  0  0
    2.4121    2.6412   -5.1152 O   0  0  0  0  0  0  0  0  0  0  0  0
    7.1919    1.5505   -0.8434 C   0  0  0  0  0  0  0  0  0  0  0  0
    6.5291    1.5640    0.0238 H   0  0  0  0  0  0  0  0  0  0  0  0
    7.7125    0.5936   -0.8486 H   0  0  0  0  0  0  0  0  0  0  0  0
    7.9310    2.3395   -0.7090 H   0  0  0  0  0  0  0  0  0  0  0  0
  1  6  2  0  0  0  0
  2  3  2  0  0  0  0
  2  1  1  0  0  0  0
  3  4  1  0  0  0  0
  4  9  1  0  0  0  0
  4  5  2  0  0  0  0
  5 10  1  0  0  0  0
  6  5  1  0  0  0  0
  6 11  1  0  0  0  0
  7  1  1  0  0  0  0
  8  2  1  0  0  0  0
 11 12  2  0  0  0  0
 13 11  2  0  0  0  0
 14 15  3  0  0  0  0
 16 17  1  0  0  0  0
 17 23  1  0  0  0  0
 17 18  2  0  0  0  0
 18 30  1  0  0  0  0
 19 18  1  0  0  0  0
 19 24  1  0  0  0  0
 20 19  2  0  0  0  0
 21 16  2  0  0  0  0
 21 20  1  0  0  0  0
 22 16  1  0  0  0  0
 25 20  1  0  0  0  0
 26 29  1  0  0  0  0
 26 21  1  0  0  0  0
 27 26  2  0  0  0  0
 28 26  2  0  0  0  0
 29  3  1  0  0  0  0
 30 33  1  0  0  0  0
 30 31  1  0  0  0  0
 32 30  1  0  0  0  0
M  END
