Coordinates from ORCA-job p-NO2-Ph-N2-OTs-MP2-6-31G_dp-scan-d09-49-n400
 OpenBabel02121707583D

 33 33  0  0  0  0  0  0  0  0999 V2000
    2.1863   -0.4325   -3.3229 C   0  0  0  0  0  0  0  0  0  0  0  0
    1.6063    0.1621   -4.4479 C   0  0  0  0  0  0  0  0  0  0  0  0
    0.9394    1.3338   -4.1748 C   0  0  0  0  0  0  0  0  0  0  0  0
    0.7731    2.0170   -2.9891 C   0  0  0  0  0  0  0  0  0  0  0  0
    1.3753    1.3982   -1.8928 C   0  0  0  0  0  0  0  0  0  0  0  0
    2.0838    0.2094   -2.0894 C   0  0  0  0  0  0  0  0  0  0  0  0
    2.7586   -1.3442   -3.4115 H   0  0  0  0  0  0  0  0  0  0  0  0
    1.7349   -0.2093   -5.4523 H   0  0  0  0  0  0  0  0  0  0  0  0
    0.2822    2.9763   -2.9299 H   0  0  0  0  0  0  0  0  0  0  0  0
    1.3490    1.8551   -0.9137 H   0  0  0  0  0  0  0  0  0  0  0  0
    2.7847   -0.3816   -0.9434 N   0  0  0  0  0  0  0  0  0  0  0  0
    2.8866    0.3115    0.0823 O   0  0  0  0  0  0  0  0  0  0  0  0
    3.2401   -1.5290   -1.0852 O   0  0  0  0  0  0  0  0  0  0  0  0
    0.3233    2.1110   -5.5208 N   0  0  0  0  0  0  0  0  0  0  0  0
   -0.2944    2.5411   -6.3669 N   0  0  0  0  0  0  0  0  0  0  0  0
    4.8036    0.9092   -4.6825 C   0  0  0  0  0  0  0  0  0  0  0  0
    5.4877    0.2520   -3.6581 C   0  0  0  0  0  0  0  0  0  0  0  0
    5.5109    0.7661   -2.3518 C   0  0  0  0  0  0  0  0  0  0  0  0
    4.8299    1.9666   -2.1010 C   0  0  0  0  0  0  0  0  0  0  0  0
    4.1423    2.6343   -3.1179 C   0  0  0  0  0  0  0  0  0  0  0  0
    4.1169    2.0980   -4.4085 C   0  0  0  0  0  0  0  0  0  0  0  0
    4.7837    0.5059   -5.6882 H   0  0  0  0  0  0  0  0  0  0  0  0
    6.0242   -0.6663   -3.8762 H   0  0  0  0  0  0  0  0  0  0  0  0
    4.8491    2.3880   -1.1005 H   0  0  0  0  0  0  0  0  0  0  0  0
    3.6194    3.5631   -2.9247 H   0  0  0  0  0  0  0  0  0  0  0  0
    3.2111    2.9332   -5.7158 S   0  0  0  0  0  0  0  0  0  0  0  0
    2.6072    1.8007   -6.4996 O   0  0  0  0  0  0  0  0  0  0  0  0
    4.1703    3.7700   -6.4459 O   0  0  0  0  0  0  0  0  0  0  0  0
    2.1297    3.6730   -4.9755 O   0  0  0  0  0  0  0  0  0  0  0  0
    6.2262    0.0414   -1.2413 C   0  0  0  0  0  0  0  0  0  0  0  0
    5.5473   -0.6140   -0.6924 H   0  0  0  0  0  0  0  0  0  0  0  0
    7.0351   -0.5731   -1.6360 H   0  0  0  0  0  0  0  0  0  0  0  0
    6.6544    0.7478   -0.5302 H   0  0  0  0  0  0  0  0  0  0  0  0
  1  6  2  0  0  0  0
  2  3  2  0  0  0  0
  2  1  1  0  0  0  0
  3  4  1  0  0  0  0
  4  9  1  0  0  0  0
  4  5  2  0  0  0  0
  5 10  1  0  0  0  0
  6  5  1  0  0  0  0
  6 11  1  0  0  0  0
  7  1  1  0  0  0  0
  8  2  1  0  0  0  0
 11 12  2  0  0  0  0
 13 11  2  0  0  0  0
 14  3  1  0  0  0  0
 15 14  1  0  0  0  0
 16 21  2  0  0  0  0
 16 17  1  0  0  0  0
 17 18  2  0  0  0  0
 18 19  1  0  0  0  0
 18 30  1  0  0  0  0
 19 24  1  0  0  0  0
 20 25  1  0  0  0  0
 20 19  2  0  0  0  0
 21 20  1  0  0  0  0
 22 16  1  0  0  0  0
 23 17  1  0  0  0  0
 26 29  1  0  0  0  0
 26 21  1  0  0  0  0
 27 26  2  0  0  0  0
 28 26  2  0  0  0  0
 30 31  1  0  0  0  0
 30 33  1  0  0  0  0
 32 30  1  0  0  0  0
M  RAD  3  14   2  15   3  29   2
M  END
