Coordinates from ORCA-job p-NO2-Ph-N2-OTs-MP2-6-31G_dp-scan-d09-49-n400
 OpenBabel02121707583D

 33 33  0  0  0  0  0  0  0  0999 V2000
    0.7504   -0.5941   -4.2731 C   0  0  0  0  0  0  0  0  0  0  0  0
    1.2733    0.4590   -5.0215 C   0  0  0  0  0  0  0  0  0  0  0  0
    1.8735    1.5328   -4.3585 C   0  0  0  0  0  0  0  0  0  0  0  0
    1.9579    1.5800   -2.9643 C   0  0  0  0  0  0  0  0  0  0  0  0
    1.4309    0.5343   -2.2101 C   0  0  0  0  0  0  0  0  0  0  0  0
    0.8430   -0.5371   -2.8824 C   0  0  0  0  0  0  0  0  0  0  0  0
    0.2767   -1.4430   -4.7448 H   0  0  0  0  0  0  0  0  0  0  0  0
    1.2245    0.4615   -6.1016 H   0  0  0  0  0  0  0  0  0  0  0  0
    2.4264    2.4348   -2.4935 H   0  0  0  0  0  0  0  0  0  0  0  0
    1.4733    0.5335   -1.1304 H   0  0  0  0  0  0  0  0  0  0  0  0
    0.2830   -1.6420   -2.0918 N   0  0  0  0  0  0  0  0  0  0  0  0
    0.4066   -1.5839   -0.8567 O   0  0  0  0  0  0  0  0  0  0  0  0
   -0.2736   -2.5657   -2.7085 O   0  0  0  0  0  0  0  0  0  0  0  0
   -2.0079    1.8827   -3.1922 N   0  0  0  0  0  0  0  0  0  0  0  0
   -1.9912    0.8520   -2.7251 N   0  0  0  0  0  0  0  0  0  0  0  0
    5.1307    0.8308   -3.9856 C   0  0  0  0  0  0  0  0  0  0  0  0
    5.8975    0.6575   -2.8331 C   0  0  0  0  0  0  0  0  0  0  0  0
    6.4011    1.7559   -2.1223 C   0  0  0  0  0  0  0  0  0  0  0  0
    6.1288    3.0473   -2.5994 C   0  0  0  0  0  0  0  0  0  0  0  0
    5.3653    3.2485   -3.7484 C   0  0  0  0  0  0  0  0  0  0  0  0
    4.8818    2.1302   -4.4328 C   0  0  0  0  0  0  0  0  0  0  0  0
    4.7531   -0.0166   -4.5435 H   0  0  0  0  0  0  0  0  0  0  0  0
    6.1077   -0.3468   -2.4822 H   0  0  0  0  0  0  0  0  0  0  0  0
    6.5232    3.9062   -2.0675 H   0  0  0  0  0  0  0  0  0  0  0  0
    5.1683    4.2437   -4.1267 H   0  0  0  0  0  0  0  0  0  0  0  0
    3.8437    2.3744   -5.8380 S   0  0  0  0  0  0  0  0  0  0  0  0
    3.7660    1.1278   -6.5919 O   0  0  0  0  0  0  0  0  0  0  0  0
    4.1214    3.6583   -6.4580 O   0  0  0  0  0  0  0  0  0  0  0  0
    2.3649    2.6223   -5.0807 O   0  0  0  0  0  0  0  0  0  0  0  0
    7.1927    1.5563   -0.8574 C   0  0  0  0  0  0  0  0  0  0  0  0
    6.5372    1.5564    0.0154 H   0  0  0  0  0  0  0  0  0  0  0  0
    7.7238    0.6053   -0.8738 H   0  0  0  0  0  0  0  0  0  0  0  0
    7.9242    2.3524   -0.7235 H   0  0  0  0  0  0  0  0  0  0  0  0
  1  6  2  0  0  0  0
  2  3  2  0  0  0  0
  2  1  1  0  0  0  0
  3  4  1  0  0  0  0
  4  9  1  0  0  0  0
  4  5  2  0  0  0  0
  5 10  1  0  0  0  0
  6  5  1  0  0  0  0
  6 11  1  0  0  0  0
  7  1  1  0  0  0  0
  8  2  1  0  0  0  0
 11 12  2  0  0  0  0
 13 11  2  0  0  0  0
 14 15  3  0  0  0  0
 16 17  1  0  0  0  0
 17 23  1  0  0  0  0
 17 18  2  0  0  0  0
 18 30  1  0  0  0  0
 19 18  1  0  0  0  0
 19 24  1  0  0  0  0
 20 19  2  0  0  0  0
 21 16  2  0  0  0  0
 21 20  1  0  0  0  0
 22 16  1  0  0  0  0
 25 20  1  0  0  0  0
 26 29  1  0  0  0  0
 26 21  1  0  0  0  0
 27 26  2  0  0  0  0
 28 26  2  0  0  0  0
 29  3  1  0  0  0  0
 30 33  1  0  0  0  0
 30 31  1  0  0  0  0
 32 30  1  0  0  0  0
M  END
