Coordinates from ORCA-job p-NO2-Ph-N2-OTs-MP2-6-31G_dp-scan-d09-49-n400
 OpenBabel02121707583D

 33 33  0  0  0  0  0  0  0  0999 V2000
    0.7269   -0.7563   -4.1693 C   0  0  0  0  0  0  0  0  0  0  0  0
    1.1850    0.3359   -4.9028 C   0  0  0  0  0  0  0  0  0  0  0  0
    1.7307    1.4295   -4.2256 C   0  0  0  0  0  0  0  0  0  0  0  0
    1.9232    1.4114   -2.8413 C   0  0  0  0  0  0  0  0  0  0  0  0
    1.4610    0.3275   -2.1000 C   0  0  0  0  0  0  0  0  0  0  0  0
    0.8770   -0.7404   -2.7822 C   0  0  0  0  0  0  0  0  0  0  0  0
    0.2762   -1.6128   -4.6500 H   0  0  0  0  0  0  0  0  0  0  0  0
    1.0839    0.3741   -5.9786 H   0  0  0  0  0  0  0  0  0  0  0  0
    2.3785    2.2687   -2.3619 H   0  0  0  0  0  0  0  0  0  0  0  0
    1.5660    0.2855   -1.0254 H   0  0  0  0  0  0  0  0  0  0  0  0
    0.3909   -1.8901   -2.0061 N   0  0  0  0  0  0  0  0  0  0  0  0
    0.5556   -1.8622   -0.7746 O   0  0  0  0  0  0  0  0  0  0  0  0
   -0.1506   -2.8178   -2.6305 O   0  0  0  0  0  0  0  0  0  0  0  0
   -0.4815    2.5847   -4.0217 N   0  0  0  0  0  0  0  0  0  0  0  0
   -1.3737    2.1153   -3.5040 N   0  0  0  0  0  0  0  0  0  0  0  0
    5.0430    0.8598   -4.0005 C   0  0  0  0  0  0  0  0  0  0  0  0
    5.8602    0.6871   -2.8830 C   0  0  0  0  0  0  0  0  0  0  0  0
    6.3309    1.7849   -2.1491 C   0  0  0  0  0  0  0  0  0  0  0  0
    5.9738    3.0760   -2.5675 C   0  0  0  0  0  0  0  0  0  0  0  0
    5.1592    3.2765   -3.6811 C   0  0  0  0  0  0  0  0  0  0  0  0
    4.7098    2.1590   -4.3894 C   0  0  0  0  0  0  0  0  0  0  0  0
    4.6889    0.0140   -4.5758 H   0  0  0  0  0  0  0  0  0  0  0  0
    6.1356   -0.3164   -2.5776 H   0  0  0  0  0  0  0  0  0  0  0  0
    6.3419    3.9353   -2.0177 H   0  0  0  0  0  0  0  0  0  0  0  0
    4.8966    4.2726   -4.0148 H   0  0  0  0  0  0  0  0  0  0  0  0
    3.6092    2.3975   -5.7472 S   0  0  0  0  0  0  0  0  0  0  0  0
    3.5610    1.1723   -6.5379 O   0  0  0  0  0  0  0  0  0  0  0  0
    3.8074    3.7107   -6.3358 O   0  0  0  0  0  0  0  0  0  0  0  0
    2.1498    2.5581   -4.9317 O   0  0  0  0  0  0  0  0  0  0  0  0
    7.1778    1.5829   -0.9209 C   0  0  0  0  0  0  0  0  0  0  0  0
    6.5555    1.5124   -0.0268 H   0  0  0  0  0  0  0  0  0  0  0  0
    7.7601    0.6651   -0.9934 H   0  0  0  0  0  0  0  0  0  0  0  0
    7.8683    2.4138   -0.7803 H   0  0  0  0  0  0  0  0  0  0  0  0
  1  6  2  0  0  0  0
  2  3  2  0  0  0  0
  2  1  1  0  0  0  0
  3  4  1  0  0  0  0
  4  9  1  0  0  0  0
  4  5  2  0  0  0  0
  5 10  1  0  0  0  0
  6  5  1  0  0  0  0
  6 11  1  0  0  0  0
  7  1  1  0  0  0  0
  8  2  1  0  0  0  0
 11 12  2  0  0  0  0
 13 11  2  0  0  0  0
 14 15  3  0  0  0  0
 16 17  1  0  0  0  0
 17 23  1  0  0  0  0
 17 18  2  0  0  0  0
 18 30  1  0  0  0  0
 19 18  1  0  0  0  0
 19 24  1  0  0  0  0
 20 19  2  0  0  0  0
 21 16  2  0  0  0  0
 21 20  1  0  0  0  0
 22 16  1  0  0  0  0
 25 20  1  0  0  0  0
 26 29  1  0  0  0  0
 26 21  1  0  0  0  0
 27 26  2  0  0  0  0
 28 26  2  0  0  0  0
 29  3  1  0  0  0  0
 30 33  1  0  0  0  0
 30 31  1  0  0  0  0
 32 30  1  0  0  0  0
M  END
