Coordinates from ORCA-job p-NO2-Ph-N2-OTs-MP2-6-31G_dp-scan-d09-49-n400
 OpenBabel02121707583D

 33 33  0  0  0  0  0  0  0  0999 V2000
    0.7251   -0.7586   -4.1717 C   0  0  0  0  0  0  0  0  0  0  0  0
    1.1874    0.3328   -4.9040 C   0  0  0  0  0  0  0  0  0  0  0  0
    1.7422    1.4210   -4.2259 C   0  0  0  0  0  0  0  0  0  0  0  0
    1.9205    1.4077   -2.8400 C   0  0  0  0  0  0  0  0  0  0  0  0
    1.4539    0.3245   -2.1001 C   0  0  0  0  0  0  0  0  0  0  0  0
    0.8700   -0.7423   -2.7841 C   0  0  0  0  0  0  0  0  0  0  0  0
    0.2711   -1.6127   -4.6534 H   0  0  0  0  0  0  0  0  0  0  0  0
    1.0898    0.3711   -5.9802 H   0  0  0  0  0  0  0  0  0  0  0  0
    2.3755    2.2644   -2.3592 H   0  0  0  0  0  0  0  0  0  0  0  0
    1.5516    0.2842   -1.0247 H   0  0  0  0  0  0  0  0  0  0  0  0
    0.3792   -1.8910   -2.0094 N   0  0  0  0  0  0  0  0  0  0  0  0
    0.5390   -1.8628   -0.7773 O   0  0  0  0  0  0  0  0  0  0  0  0
   -0.1610   -2.8182   -2.6355 O   0  0  0  0  0  0  0  0  0  0  0  0
   -0.5452    2.6046   -4.0134 N   0  0  0  0  0  0  0  0  0  0  0  0
   -1.4210    2.1068   -3.4948 N   0  0  0  0  0  0  0  0  0  0  0  0
    5.0532    0.8604   -3.9998 C   0  0  0  0  0  0  0  0  0  0  0  0
    5.8711    0.6890   -2.8825 C   0  0  0  0  0  0  0  0  0  0  0  0
    6.3412    1.7876   -2.1495 C   0  0  0  0  0  0  0  0  0  0  0  0
    5.9826    3.0781   -2.5683 C   0  0  0  0  0  0  0  0  0  0  0  0
    5.1672    3.2774   -3.6815 C   0  0  0  0  0  0  0  0  0  0  0  0
    4.7186    2.1591   -4.3892 C   0  0  0  0  0  0  0  0  0  0  0  0
    4.7001    0.0140   -4.5747 H   0  0  0  0  0  0  0  0  0  0  0  0
    6.1478   -0.3141   -2.5769 H   0  0  0  0  0  0  0  0  0  0  0  0
    6.3501    3.9381   -2.0191 H   0  0  0  0  0  0  0  0  0  0  0  0
    4.9034    4.2731   -4.0155 H   0  0  0  0  0  0  0  0  0  0  0  0
    3.6171    2.3959   -5.7466 S   0  0  0  0  0  0  0  0  0  0  0  0
    3.5706    1.1707   -6.5374 O   0  0  0  0  0  0  0  0  0  0  0  0
    3.8122    3.7096   -6.3349 O   0  0  0  0  0  0  0  0  0  0  0  0
    2.1580    2.5523   -4.9296 O   0  0  0  0  0  0  0  0  0  0  0  0
    7.1890    1.5871   -0.9216 C   0  0  0  0  0  0  0  0  0  0  0  0
    6.5674    1.5178   -0.0271 H   0  0  0  0  0  0  0  0  0  0  0  0
    7.7712    0.6692   -0.9934 H   0  0  0  0  0  0  0  0  0  0  0  0
    7.8796    2.4182   -0.7826 H   0  0  0  0  0  0  0  0  0  0  0  0
  1  6  2  0  0  0  0
  2  3  2  0  0  0  0
  2  1  1  0  0  0  0
  3  4  1  0  0  0  0
  4  9  1  0  0  0  0
  4  5  2  0  0  0  0
  5 10  1  0  0  0  0
  6  5  1  0  0  0  0
  6 11  1  0  0  0  0
  7  1  1  0  0  0  0
  8  2  1  0  0  0  0
 11 12  2  0  0  0  0
 13 11  2  0  0  0  0
 14 15  3  0  0  0  0
 16 17  1  0  0  0  0
 17 23  1  0  0  0  0
 17 18  2  0  0  0  0
 18 30  1  0  0  0  0
 19 18  1  0  0  0  0
 19 24  1  0  0  0  0
 20 19  2  0  0  0  0
 21 16  2  0  0  0  0
 21 20  1  0  0  0  0
 22 16  1  0  0  0  0
 25 20  1  0  0  0  0
 26 29  1  0  0  0  0
 26 21  1  0  0  0  0
 27 26  2  0  0  0  0
 28 26  2  0  0  0  0
 29  3  1  0  0  0  0
 30 33  1  0  0  0  0
 30 31  1  0  0  0  0
 32 30  1  0  0  0  0
M  END
