Coordinates from ORCA-job p-NO2-Ph-N2-OTs-MP2-6-31G_dp-scan-d09-49-n400
 OpenBabel02121707583D

 33 33  0  0  0  0  0  0  0  0999 V2000
    2.1812   -0.4374   -3.3413 C   0  0  0  0  0  0  0  0  0  0  0  0
    1.5833    0.1527   -4.4638 C   0  0  0  0  0  0  0  0  0  0  0  0
    0.9350    1.3157   -4.1529 C   0  0  0  0  0  0  0  0  0  0  0  0
    0.7751    2.0216   -2.9892 C   0  0  0  0  0  0  0  0  0  0  0  0
    1.3961    1.3980   -1.9020 C   0  0  0  0  0  0  0  0  0  0  0  0
    2.0957    0.2051   -2.1065 C   0  0  0  0  0  0  0  0  0  0  0  0
    2.7493   -1.3511   -3.4389 H   0  0  0  0  0  0  0  0  0  0  0  0
    1.6969   -0.2130   -5.4717 H   0  0  0  0  0  0  0  0  0  0  0  0
    0.2925    2.9845   -2.9324 H   0  0  0  0  0  0  0  0  0  0  0  0
    1.3863    1.8590   -0.9243 H   0  0  0  0  0  0  0  0  0  0  0  0
    2.8076   -0.3886   -0.9691 N   0  0  0  0  0  0  0  0  0  0  0  0
    2.9084    0.2970    0.0615 O   0  0  0  0  0  0  0  0  0  0  0  0
    3.2707   -1.5312   -1.1224 O   0  0  0  0  0  0  0  0  0  0  0  0
    0.2507    2.1386   -5.5906 N   0  0  0  0  0  0  0  0  0  0  0  0
   -0.3419    2.5841   -6.4456 N   0  0  0  0  0  0  0  0  0  0  0  0
    4.7926    0.8970   -4.6596 C   0  0  0  0  0  0  0  0  0  0  0  0
    5.4811    0.2444   -3.6348 C   0  0  0  0  0  0  0  0  0  0  0  0
    5.5178    0.7696   -2.3335 C   0  0  0  0  0  0  0  0  0  0  0  0
    4.8448    1.9757   -2.0877 C   0  0  0  0  0  0  0  0  0  0  0  0
    4.1522    2.6378   -3.1049 C   0  0  0  0  0  0  0  0  0  0  0  0
    4.1136    2.0913   -4.3910 C   0  0  0  0  0  0  0  0  0  0  0  0
    4.7633    0.4861   -5.6620 H   0  0  0  0  0  0  0  0  0  0  0  0
    6.0114   -0.6785   -3.8493 H   0  0  0  0  0  0  0  0  0  0  0  0
    4.8746    2.4057   -1.0912 H   0  0  0  0  0  0  0  0  0  0  0  0
    3.6354    3.5708   -2.9153 H   0  0  0  0  0  0  0  0  0  0  0  0
    3.2021    2.9228   -5.6982 S   0  0  0  0  0  0  0  0  0  0  0  0
    2.6092    1.7881   -6.4854 O   0  0  0  0  0  0  0  0  0  0  0  0
    4.1585    3.7667   -6.4249 O   0  0  0  0  0  0  0  0  0  0  0  0
    2.1202    3.6563   -4.9544 O   0  0  0  0  0  0  0  0  0  0  0  0
    6.2382    0.0511   -1.2222 C   0  0  0  0  0  0  0  0  0  0  0  0
    5.5580   -0.5879   -0.6558 H   0  0  0  0  0  0  0  0  0  0  0  0
    7.0343   -0.5790   -1.6185 H   0  0  0  0  0  0  0  0  0  0  0  0
    6.6842    0.7617   -0.5265 H   0  0  0  0  0  0  0  0  0  0  0  0
  1  6  2  0  0  0  0
  2  3  2  0  0  0  0
  2  1  1  0  0  0  0
  3  4  1  0  0  0  0
  4  9  1  0  0  0  0
  4  5  2  0  0  0  0
  5 10  1  0  0  0  0
  6  5  1  0  0  0  0
  6 11  1  0  0  0  0
  7  1  1  0  0  0  0
  8  2  1  0  0  0  0
 11 12  2  0  0  0  0
 13 11  2  0  0  0  0
 14  3  1  0  0  0  0
 15 14  1  0  0  0  0
 16 21  2  0  0  0  0
 16 17  1  0  0  0  0
 17 18  2  0  0  0  0
 18 19  1  0  0  0  0
 18 30  1  0  0  0  0
 19 24  1  0  0  0  0
 20 25  1  0  0  0  0
 20 19  2  0  0  0  0
 21 20  1  0  0  0  0
 22 16  1  0  0  0  0
 23 17  1  0  0  0  0
 26 29  1  0  0  0  0
 26 21  1  0  0  0  0
 27 26  2  0  0  0  0
 28 26  2  0  0  0  0
 30 31  1  0  0  0  0
 30 33  1  0  0  0  0
 32 30  1  0  0  0  0
M  RAD  3  14   2  15   3  29   2
M  END
