Coordinates from ORCA-job p-NO2-Ph-N2-OTs-MP2-6-31G_dp-scan-d09-49-n400
 OpenBabel02121707583D

 33 33  0  0  0  0  0  0  0  0999 V2000
   -0.1566   -0.1492   -2.0540 C   0  0  0  0  0  0  0  0  0  0  0  0
    0.1834   -0.0063   -3.3837 C   0  0  0  0  0  0  0  0  0  0  0  0
    0.3425    1.3051   -3.9638 C   0  0  0  0  0  0  0  0  0  0  0  0
    0.1442    2.4528   -3.1105 C   0  0  0  0  0  0  0  0  0  0  0  0
   -0.2163    2.2831   -1.7892 C   0  0  0  0  0  0  0  0  0  0  0  0
   -0.3564    0.9923   -1.2726 C   0  0  0  0  0  0  0  0  0  0  0  0
   -0.2694   -1.1298   -1.6126 H   0  0  0  0  0  0  0  0  0  0  0  0
    0.3563   -0.8612   -4.0270 H   0  0  0  0  0  0  0  0  0  0  0  0
    0.3072    3.4280   -3.5474 H   0  0  0  0  0  0  0  0  0  0  0  0
   -0.3646    3.1387   -1.1451 H   0  0  0  0  0  0  0  0  0  0  0  0
   -0.7301    0.8268    0.1353 N   0  0  0  0  0  0  0  0  0  0  0  0
   -0.9363    1.8601    0.7948 O   0  0  0  0  0  0  0  0  0  0  0  0
   -0.8159   -0.3359    0.5680 O   0  0  0  0  0  0  0  0  0  0  0  0
    0.6048    1.4172   -4.9955 N   0  0  0  0  0  0  0  0  0  0  0  0
    0.9756    1.5214   -6.1116 N   0  0  0  0  0  0  0  0  0  0  0  0
    6.2792    1.9327   -5.0939 C   0  0  0  0  0  0  0  0  0  0  0  0
    7.4205    1.3072   -4.5937 C   0  0  0  0  0  0  0  0  0  0  0  0
    7.3656    0.5078   -3.4427 C   0  0  0  0  0  0  0  0  0  0  0  0
    6.1317    0.3525   -2.7949 C   0  0  0  0  0  0  0  0  0  0  0  0
    4.9795    0.9689   -3.2820 C   0  0  0  0  0  0  0  0  0  0  0  0
    5.0615    1.7595   -4.4311 C   0  0  0  0  0  0  0  0  0  0  0  0
    6.3241    2.5676   -5.9696 H   0  0  0  0  0  0  0  0  0  0  0  0
    8.3704    1.4483   -5.0986 H   0  0  0  0  0  0  0  0  0  0  0  0
    6.0761   -0.2495   -1.8937 H   0  0  0  0  0  0  0  0  0  0  0  0
    4.0316    0.8728   -2.7679 H   0  0  0  0  0  0  0  0  0  0  0  0
    3.5959    2.5089   -5.0990 S   0  0  0  0  0  0  0  0  0  0  0  0
    3.0718    1.4096   -6.0352 O   0  0  0  0  0  0  0  0  0  0  0  0
    4.0022    3.7368   -5.7942 O   0  0  0  0  0  0  0  0  0  0  0  0
    2.6493    2.6754   -3.9532 O   0  0  0  0  0  0  0  0  0  0  0  0
    8.5973   -0.1934   -2.9331 C   0  0  0  0  0  0  0  0  0  0  0  0
    8.7138   -1.1724   -3.4023 H   0  0  0  0  0  0  0  0  0  0  0  0
    9.4952    0.3854   -3.1489 H   0  0  0  0  0  0  0  0  0  0  0  0
    8.5442   -0.3465   -1.8554 H   0  0  0  0  0  0  0  0  0  0  0  0
  1  7  1  0  0  0  0
  1  6  2  0  0  0  0
  2  1  1  0  0  0  0
  3  2  2  0  0  0  0
  3  4  1  0  0  0  0
  4  5  2  0  0  0  0
  5  6  1  0  0  0  0
  5 10  1  0  0  0  0
  6 11  1  0  0  0  0
  8  2  1  0  0  0  0
  9  4  1  0  0  0  0
 11 13  2  0  0  0  0
 11 12  2  0  0  0  0
 14  3  1  0  0  0  0
 15 14  1  0  0  0  0
 16 17  2  0  0  0  0
 16 21  1  0  0  0  0
 17 18  1  0  0  0  0
 18 30  1  0  0  0  0
 18 19  2  0  0  0  0
 19 24  1  0  0  0  0
 20 19  1  0  0  0  0
 20 25  1  0  0  0  0
 21 20  2  0  0  0  0
 22 16  1  0  0  0  0
 23 17  1  0  0  0  0
 26 21  1  0  0  0  0
 26 29  1  0  0  0  0
 27 26  2  0  0  0  0
 28 26  2  0  0  0  0
 30 33  1  0  0  0  0
 31 30  1  0  0  0  0
 32 30  1  0  0  0  0
M  RAD  3  14   2  15   3  29   2
M  END
