Coordinates from ORCA-job p-NO2-Ph-N2-OTs-MP2-6-31G_dp-scan-d09-49-n400
 OpenBabel02121707583D

 33 33  0  0  0  0  0  0  0  0999 V2000
    0.7856   -0.7209   -4.1472 C   0  0  0  0  0  0  0  0  0  0  0  0
    1.1906    0.3751   -4.8993 C   0  0  0  0  0  0  0  0  0  0  0  0
    1.6075    1.5430   -4.2368 C   0  0  0  0  0  0  0  0  0  0  0  0
    1.9569    1.4870   -2.8752 C   0  0  0  0  0  0  0  0  0  0  0  0
    1.5494    0.4025   -2.1098 C   0  0  0  0  0  0  0  0  0  0  0  0
    0.9510   -0.6786   -2.7609 C   0  0  0  0  0  0  0  0  0  0  0  0
    0.3843   -1.6104   -4.6116 H   0  0  0  0  0  0  0  0  0  0  0  0
    1.0744    0.3931   -5.9741 H   0  0  0  0  0  0  0  0  0  0  0  0
    2.4178    2.3546   -2.4197 H   0  0  0  0  0  0  0  0  0  0  0  0
    1.7258    0.3567   -1.0447 H   0  0  0  0  0  0  0  0  0  0  0  0
    0.5154   -1.8302   -1.9611 N   0  0  0  0  0  0  0  0  0  0  0  0
    0.7071   -1.7825   -0.7340 O   0  0  0  0  0  0  0  0  0  0  0  0
   -0.0159   -2.7795   -2.5618 O   0  0  0  0  0  0  0  0  0  0  0  0
   -0.1231    2.4310   -4.0666 N   0  0  0  0  0  0  0  0  0  0  0  0
   -1.0368    2.0366   -3.5098 N   0  0  0  0  0  0  0  0  0  0  0  0
    4.9385    0.8390   -4.0022 C   0  0  0  0  0  0  0  0  0  0  0  0
    5.7401    0.6516   -2.8773 C   0  0  0  0  0  0  0  0  0  0  0  0
    6.2248    1.7415   -2.1385 C   0  0  0  0  0  0  0  0  0  0  0  0
    5.9015    3.0381   -2.5637 C   0  0  0  0  0  0  0  0  0  0  0  0
    5.1033    3.2535   -3.6876 C   0  0  0  0  0  0  0  0  0  0  0  0
    4.6365    2.1449   -4.3968 C   0  0  0  0  0  0  0  0  0  0  0  0
    4.5678    0.0000   -4.5770 H   0  0  0  0  0  0  0  0  0  0  0  0
    5.9892   -0.3571   -2.5656 H   0  0  0  0  0  0  0  0  0  0  0  0
    6.2801    3.8905   -2.0106 H   0  0  0  0  0  0  0  0  0  0  0  0
    4.8655    4.2544   -4.0258 H   0  0  0  0  0  0  0  0  0  0  0  0
    3.5559    2.4042   -5.7662 S   0  0  0  0  0  0  0  0  0  0  0  0
    3.4837    1.1753   -6.5490 O   0  0  0  0  0  0  0  0  0  0  0  0
    3.8033    3.7049   -6.3641 O   0  0  0  0  0  0  0  0  0  0  0  0
    2.0888    2.6311   -4.9842 O   0  0  0  0  0  0  0  0  0  0  0  0
    7.0652    1.5132   -0.9102 C   0  0  0  0  0  0  0  0  0  0  0  0
    6.4593    1.1215   -0.0915 H   0  0  0  0  0  0  0  0  0  0  0  0
    7.8571    0.7909   -1.1087 H   0  0  0  0  0  0  0  0  0  0  0  0
    7.5278    2.4395   -0.5726 H   0  0  0  0  0  0  0  0  0  0  0  0
  1  6  2  0  0  0  0
  2  3  2  0  0  0  0
  2  1  1  0  0  0  0
  3  4  1  0  0  0  0
  4  9  1  0  0  0  0
  4  5  2  0  0  0  0
  5 10  1  0  0  0  0
  6  5  1  0  0  0  0
  6 11  1  0  0  0  0
  7  1  1  0  0  0  0
  8  2  1  0  0  0  0
 11 12  2  0  0  0  0
 13 11  2  0  0  0  0
 14 15  3  0  0  0  0
 16 17  1  0  0  0  0
 17 23  1  0  0  0  0
 17 18  2  0  0  0  0
 18 30  1  0  0  0  0
 19 18  1  0  0  0  0
 19 24  1  0  0  0  0
 20 19  2  0  0  0  0
 21 16  2  0  0  0  0
 21 20  1  0  0  0  0
 22 16  1  0  0  0  0
 25 20  1  0  0  0  0
 26 29  1  0  0  0  0
 26 21  1  0  0  0  0
 27 26  2  0  0  0  0
 28 26  2  0  0  0  0
 29  3  1  0  0  0  0
 30 33  1  0  0  0  0
 30 31  1  0  0  0  0
 32 30  1  0  0  0  0
M  END
