Coordinates from ORCA-job p-NO2-Ph-N2-OTs-MP2-6-31G_dp-scan-d09-49-n400
 OpenBabel02121707583D

 33 33  0  0  0  0  0  0  0  0999 V2000
    0.7488   -0.5434   -4.2979 C   0  0  0  0  0  0  0  0  0  0  0  0
    1.2958    0.4943   -5.0506 C   0  0  0  0  0  0  0  0  0  0  0  0
    1.9029    1.5662   -4.3912 C   0  0  0  0  0  0  0  0  0  0  0  0
    1.9777    1.6231   -2.9969 C   0  0  0  0  0  0  0  0  0  0  0  0
    1.4270    0.5927   -2.2386 C   0  0  0  0  0  0  0  0  0  0  0  0
    0.8297   -0.4760   -2.9070 C   0  0  0  0  0  0  0  0  0  0  0  0
    0.2681   -1.3900   -4.7668 H   0  0  0  0  0  0  0  0  0  0  0  0
    1.2568    0.4872   -6.1310 H   0  0  0  0  0  0  0  0  0  0  0  0
    2.4540    2.4749   -2.5285 H   0  0  0  0  0  0  0  0  0  0  0  0
    1.4613    0.5999   -1.1586 H   0  0  0  0  0  0  0  0  0  0  0  0
    0.2483   -1.5665   -2.1123 N   0  0  0  0  0  0  0  0  0  0  0  0
    0.3781   -1.5087   -0.8778 O   0  0  0  0  0  0  0  0  0  0  0  0
   -0.3316   -2.4781   -2.7251 O   0  0  0  0  0  0  0  0  0  0  0  0
   -2.3214    1.5865   -2.9642 N   0  0  0  0  0  0  0  0  0  0  0  0
   -2.1180    0.5512   -2.5556 N   0  0  0  0  0  0  0  0  0  0  0  0
    5.1484    0.8245   -3.9830 C   0  0  0  0  0  0  0  0  0  0  0  0
    5.9026    0.6510   -2.8221 C   0  0  0  0  0  0  0  0  0  0  0  0
    6.4139    1.7487   -2.1159 C   0  0  0  0  0  0  0  0  0  0  0  0
    6.1626    3.0395   -2.6060 C   0  0  0  0  0  0  0  0  0  0  0  0
    5.4120    3.2408   -3.7635 C   0  0  0  0  0  0  0  0  0  0  0  0
    4.9203    2.1232   -4.4430 C   0  0  0  0  0  0  0  0  0  0  0  0
    4.7649   -0.0226   -4.5373 H   0  0  0  0  0  0  0  0  0  0  0  0
    6.0966   -0.3530   -2.4611 H   0  0  0  0  0  0  0  0  0  0  0  0
    6.5632    3.8976   -2.0775 H   0  0  0  0  0  0  0  0  0  0  0  0
    5.2312    4.2353   -4.1517 H   0  0  0  0  0  0  0  0  0  0  0  0
    3.8981    2.3690   -5.8596 S   0  0  0  0  0  0  0  0  0  0  0  0
    3.8111    1.1172   -6.6038 O   0  0  0  0  0  0  0  0  0  0  0  0
    4.1984    3.6438   -6.4878 O   0  0  0  0  0  0  0  0  0  0  0  0
    2.4161    2.6428   -5.1182 O   0  0  0  0  0  0  0  0  0  0  0  0
    7.1914    1.5494   -0.8422 C   0  0  0  0  0  0  0  0  0  0  0  0
    6.5280    1.5643    0.0245 H   0  0  0  0  0  0  0  0  0  0  0  0
    7.7110    0.5920   -0.8464 H   0  0  0  0  0  0  0  0  0  0  0  0
    7.9313    2.3377   -0.7077 H   0  0  0  0  0  0  0  0  0  0  0  0
  1  6  2  0  0  0  0
  2  3  2  0  0  0  0
  2  1  1  0  0  0  0
  3  4  1  0  0  0  0
  4  9  1  0  0  0  0
  4  5  2  0  0  0  0
  5 10  1  0  0  0  0
  6  5  1  0  0  0  0
  6 11  1  0  0  0  0
  7  1  1  0  0  0  0
  8  2  1  0  0  0  0
 11 12  2  0  0  0  0
 13 11  2  0  0  0  0
 14 15  3  0  0  0  0
 16 17  1  0  0  0  0
 17 23  1  0  0  0  0
 17 18  2  0  0  0  0
 18 30  1  0  0  0  0
 19 18  1  0  0  0  0
 19 24  1  0  0  0  0
 20 19  2  0  0  0  0
 21 16  2  0  0  0  0
 21 20  1  0  0  0  0
 22 16  1  0  0  0  0
 25 20  1  0  0  0  0
 26 29  1  0  0  0  0
 26 21  1  0  0  0  0
 27 26  2  0  0  0  0
 28 26  2  0  0  0  0
 29  3  1  0  0  0  0
 30 33  1  0  0  0  0
 30 31  1  0  0  0  0
 32 30  1  0  0  0  0
M  END
