Coordinates from ORCA-job p-NO2-Ph-N2-OTs-MP2-6-31G_dp-scan-d09-49-n400
 OpenBabel02121707583D

 33 33  0  0  0  0  0  0  0  0999 V2000
    2.1914   -0.4252   -3.3207 C   0  0  0  0  0  0  0  0  0  0  0  0
    1.6172    0.1725   -4.4427 C   0  0  0  0  0  0  0  0  0  0  0  0
    0.9354    1.3550   -4.2052 C   0  0  0  0  0  0  0  0  0  0  0  0
    0.7728    2.0132   -2.9935 C   0  0  0  0  0  0  0  0  0  0  0  0
    1.3671    1.4009   -1.8942 C   0  0  0  0  0  0  0  0  0  0  0  0
    2.0814    0.2149   -2.0872 C   0  0  0  0  0  0  0  0  0  0  0  0
    2.7651   -1.3362   -3.4058 H   0  0  0  0  0  0  0  0  0  0  0  0
    1.7511   -0.2069   -5.4441 H   0  0  0  0  0  0  0  0  0  0  0  0
    0.2744    2.9693   -2.9282 H   0  0  0  0  0  0  0  0  0  0  0  0
    1.3320    1.8546   -0.9141 H   0  0  0  0  0  0  0  0  0  0  0  0
    2.7753   -0.3766   -0.9371 N   0  0  0  0  0  0  0  0  0  0  0  0
    2.8770    0.3187    0.0873 O   0  0  0  0  0  0  0  0  0  0  0  0
    3.2253   -1.5268   -1.0740 O   0  0  0  0  0  0  0  0  0  0  0  0
    0.3658    2.0646   -5.4371 N   0  0  0  0  0  0  0  0  0  0  0  0
   -0.2477    2.4951   -6.2873 N   0  0  0  0  0  0  0  0  0  0  0  0
    4.8068    0.9155   -4.6941 C   0  0  0  0  0  0  0  0  0  0  0  0
    5.4864    0.2550   -3.6689 C   0  0  0  0  0  0  0  0  0  0  0  0
    5.5023    0.7640   -2.3605 C   0  0  0  0  0  0  0  0  0  0  0  0
    4.8191    1.9632   -2.1084 C   0  0  0  0  0  0  0  0  0  0  0  0
    4.1371    2.6350   -3.1262 C   0  0  0  0  0  0  0  0  0  0  0  0
    4.1187    2.1034   -4.4188 C   0  0  0  0  0  0  0  0  0  0  0  0
    4.7918    0.5158   -5.7013 H   0  0  0  0  0  0  0  0  0  0  0  0
    6.0245   -0.6622   -3.8877 H   0  0  0  0  0  0  0  0  0  0  0  0
    4.8329    2.3805   -1.1061 H   0  0  0  0  0  0  0  0  0  0  0  0
    3.6129    3.5629   -2.9322 H   0  0  0  0  0  0  0  0  0  0  0  0
    3.2194    2.9423   -5.7277 S   0  0  0  0  0  0  0  0  0  0  0  0
    2.6130    1.8113   -6.5115 O   0  0  0  0  0  0  0  0  0  0  0  0
    4.1819    3.7770   -6.4554 O   0  0  0  0  0  0  0  0  0  0  0  0
    2.1372    3.6838   -4.9896 O   0  0  0  0  0  0  0  0  0  0  0  0
    6.2138    0.0365   -1.2494 C   0  0  0  0  0  0  0  0  0  0  0  0
    5.5319   -0.6154   -0.6999 H   0  0  0  0  0  0  0  0  0  0  0  0
    7.0198   -0.5821   -1.6436 H   0  0  0  0  0  0  0  0  0  0  0  0
    6.6452    0.7413   -0.5387 H   0  0  0  0  0  0  0  0  0  0  0  0
  1  6  2  0  0  0  0
  2  3  2  0  0  0  0
  2  1  1  0  0  0  0
  3  4  1  0  0  0  0
  4  9  1  0  0  0  0
  4  5  2  0  0  0  0
  5 10  1  0  0  0  0
  6  5  1  0  0  0  0
  6 11  1  0  0  0  0
  7  1  1  0  0  0  0
  8  2  1  0  0  0  0
 11 12  2  0  0  0  0
 13 11  2  0  0  0  0
 14  3  1  0  0  0  0
 15 14  1  0  0  0  0
 16 21  2  0  0  0  0
 16 17  1  0  0  0  0
 17 18  2  0  0  0  0
 18 19  1  0  0  0  0
 18 30  1  0  0  0  0
 19 24  1  0  0  0  0
 20 25  1  0  0  0  0
 20 19  2  0  0  0  0
 21 20  1  0  0  0  0
 22 16  1  0  0  0  0
 23 17  1  0  0  0  0
 26 29  1  0  0  0  0
 26 21  1  0  0  0  0
 27 26  2  0  0  0  0
 28 26  2  0  0  0  0
 30 31  1  0  0  0  0
 30 33  1  0  0  0  0
 32 30  1  0  0  0  0
M  RAD  3  14   2  15   3  29   2
M  END
