Coordinates from ORCA-job p-NO2-Ph-N2-OTs-MP2-6-31G_dp-scan-d09-49-n400
 OpenBabel02121707583D

 33 33  0  0  0  0  0  0  0  0999 V2000
    0.7517   -0.5908   -4.2748 C   0  0  0  0  0  0  0  0  0  0  0  0
    1.2753    0.4617   -5.0237 C   0  0  0  0  0  0  0  0  0  0  0  0
    1.8761    1.5354   -4.3611 C   0  0  0  0  0  0  0  0  0  0  0  0
    1.9586    1.5842   -2.9670 C   0  0  0  0  0  0  0  0  0  0  0  0
    1.4310    0.5392   -2.2122 C   0  0  0  0  0  0  0  0  0  0  0  0
    0.8430   -0.5326   -2.8841 C   0  0  0  0  0  0  0  0  0  0  0  0
    0.2783   -1.4400   -4.7462 H   0  0  0  0  0  0  0  0  0  0  0  0
    1.2275    0.4630   -6.1038 H   0  0  0  0  0  0  0  0  0  0  0  0
    2.4274    2.4391   -2.4965 H   0  0  0  0  0  0  0  0  0  0  0  0
    1.4728    0.5392   -1.1325 H   0  0  0  0  0  0  0  0  0  0  0  0
    0.2853   -1.6383   -2.0931 N   0  0  0  0  0  0  0  0  0  0  0  0
    0.4100   -1.5801   -0.8580 O   0  0  0  0  0  0  0  0  0  0  0  0
   -0.2703   -2.5629   -2.7093 O   0  0  0  0  0  0  0  0  0  0  0  0
   -2.0431    1.8677   -3.1756 N   0  0  0  0  0  0  0  0  0  0  0  0
   -2.0107    0.8357   -2.7123 N   0  0  0  0  0  0  0  0  0  0  0  0
    5.1317    0.8300   -3.9855 C   0  0  0  0  0  0  0  0  0  0  0  0
    5.8975    0.6566   -2.8322 C   0  0  0  0  0  0  0  0  0  0  0  0
    6.4018    1.7548   -2.1218 C   0  0  0  0  0  0  0  0  0  0  0  0
    6.1315    3.0462   -2.5999 C   0  0  0  0  0  0  0  0  0  0  0  0
    5.3691    3.2475   -3.7497 C   0  0  0  0  0  0  0  0  0  0  0  0
    4.8848    2.1294   -4.4337 C   0  0  0  0  0  0  0  0  0  0  0  0
    4.7536   -0.0173   -4.5431 H   0  0  0  0  0  0  0  0  0  0  0  0
    6.1061   -0.3478   -2.4804 H   0  0  0  0  0  0  0  0  0  0  0  0
    6.5266    3.9050   -2.0682 H   0  0  0  0  0  0  0  0  0  0  0  0
    5.1736    4.2428   -4.1288 H   0  0  0  0  0  0  0  0  0  0  0  0
    3.8481    2.3739   -5.8399 S   0  0  0  0  0  0  0  0  0  0  0  0
    3.7697    1.1270   -6.5931 O   0  0  0  0  0  0  0  0  0  0  0  0
    4.1277    3.6572   -6.4604 O   0  0  0  0  0  0  0  0  0  0  0  0
    2.3690    2.6239   -5.0839 O   0  0  0  0  0  0  0  0  0  0  0  0
    7.1922    1.5550   -0.8561 C   0  0  0  0  0  0  0  0  0  0  0  0
    6.5360    1.5564    0.0162 H   0  0  0  0  0  0  0  0  0  0  0  0
    7.7222    0.6035   -0.8715 H   0  0  0  0  0  0  0  0  0  0  0  0
    7.9245    2.3504   -0.7220 H   0  0  0  0  0  0  0  0  0  0  0  0
  1  6  2  0  0  0  0
  2  3  2  0  0  0  0
  2  1  1  0  0  0  0
  3  4  1  0  0  0  0
  4  9  1  0  0  0  0
  4  5  2  0  0  0  0
  5 10  1  0  0  0  0
  6  5  1  0  0  0  0
  6 11  1  0  0  0  0
  7  1  1  0  0  0  0
  8  2  1  0  0  0  0
 11 12  2  0  0  0  0
 13 11  2  0  0  0  0
 14 15  3  0  0  0  0
 16 17  1  0  0  0  0
 17 23  1  0  0  0  0
 17 18  2  0  0  0  0
 18 30  1  0  0  0  0
 19 18  1  0  0  0  0
 19 24  1  0  0  0  0
 20 19  2  0  0  0  0
 21 16  2  0  0  0  0
 21 20  1  0  0  0  0
 22 16  1  0  0  0  0
 25 20  1  0  0  0  0
 26 29  1  0  0  0  0
 26 21  1  0  0  0  0
 27 26  2  0  0  0  0
 28 26  2  0  0  0  0
 29  3  1  0  0  0  0
 30 33  1  0  0  0  0
 30 31  1  0  0  0  0
 32 30  1  0  0  0  0
M  END
