Coordinates from ORCA-job p-NO2-Ph-N2-OTs-MP2-6-31G_dp-scan-d09-49-n400
 OpenBabel02121707583D

 33 33  0  0  0  0  0  0  0  0999 V2000
    0.7468   -0.5515   -4.2944 C   0  0  0  0  0  0  0  0  0  0  0  0
    1.2920    0.4879   -5.0460 C   0  0  0  0  0  0  0  0  0  0  0  0
    1.8978    1.5600   -4.3854 C   0  0  0  0  0  0  0  0  0  0  0  0
    1.9760    1.6137   -2.9912 C   0  0  0  0  0  0  0  0  0  0  0  0
    1.4272    0.5814   -2.2340 C   0  0  0  0  0  0  0  0  0  0  0  0
    0.8291   -0.4861   -2.9035 C   0  0  0  0  0  0  0  0  0  0  0  0
    0.2648   -1.3970   -4.7639 H   0  0  0  0  0  0  0  0  0  0  0  0
    1.2513    0.4830   -6.1264 H   0  0  0  0  0  0  0  0  0  0  0  0
    2.4521    2.4652   -2.5219 H   0  0  0  0  0  0  0  0  0  0  0  0
    1.4615    0.5872   -1.1540 H   0  0  0  0  0  0  0  0  0  0  0  0
    0.2409   -1.5736   -2.1097 N   0  0  0  0  0  0  0  0  0  0  0  0
    0.3679   -1.5158   -0.8749 O   0  0  0  0  0  0  0  0  0  0  0  0
   -0.3428   -2.4822   -2.7235 O   0  0  0  0  0  0  0  0  0  0  0  0
   -2.2451    1.6218   -3.0005 N   0  0  0  0  0  0  0  0  0  0  0  0
   -2.0758    0.5844   -2.5817 N   0  0  0  0  0  0  0  0  0  0  0  0
    5.1468    0.8262   -3.9835 C   0  0  0  0  0  0  0  0  0  0  0  0
    5.9035    0.6532   -2.8242 C   0  0  0  0  0  0  0  0  0  0  0  0
    6.4128    1.7513   -2.1171 C   0  0  0  0  0  0  0  0  0  0  0  0
    6.1569    3.0421   -2.6048 C   0  0  0  0  0  0  0  0  0  0  0  0
    5.4038    3.2430   -3.7607 C   0  0  0  0  0  0  0  0  0  0  0  0
    4.9141    2.1250   -4.4411 C   0  0  0  0  0  0  0  0  0  0  0  0
    4.7648   -0.0211   -4.5384 H   0  0  0  0  0  0  0  0  0  0  0  0
    6.1010   -0.3509   -2.4650 H   0  0  0  0  0  0  0  0  0  0  0  0
    6.5560    3.9005   -2.0757 H   0  0  0  0  0  0  0  0  0  0  0  0
    5.2195    4.2376   -4.1471 H   0  0  0  0  0  0  0  0  0  0  0  0
    3.8888    2.3700   -5.8556 S   0  0  0  0  0  0  0  0  0  0  0  0
    3.8038    1.1189   -6.6013 O   0  0  0  0  0  0  0  0  0  0  0  0
    4.1848    3.6464   -6.4827 O   0  0  0  0  0  0  0  0  0  0  0  0
    2.4074    2.6390   -5.1113 O   0  0  0  0  0  0  0  0  0  0  0  0
    7.1931    1.5523   -0.8451 C   0  0  0  0  0  0  0  0  0  0  0  0
    6.5312    1.5640    0.0228 H   0  0  0  0  0  0  0  0  0  0  0  0
    7.7154    0.5963   -0.8516 H   0  0  0  0  0  0  0  0  0  0  0  0
    7.9310    2.3424   -0.7107 H   0  0  0  0  0  0  0  0  0  0  0  0
  1  6  2  0  0  0  0
  2  3  2  0  0  0  0
  2  1  1  0  0  0  0
  3  4  1  0  0  0  0
  4  9  1  0  0  0  0
  4  5  2  0  0  0  0
  5 10  1  0  0  0  0
  6  5  1  0  0  0  0
  6 11  1  0  0  0  0
  7  1  1  0  0  0  0
  8  2  1  0  0  0  0
 11 12  2  0  0  0  0
 13 11  2  0  0  0  0
 14 15  3  0  0  0  0
 16 17  1  0  0  0  0
 17 23  1  0  0  0  0
 17 18  2  0  0  0  0
 18 30  1  0  0  0  0
 19 18  1  0  0  0  0
 19 24  1  0  0  0  0
 20 19  2  0  0  0  0
 21 16  2  0  0  0  0
 21 20  1  0  0  0  0
 22 16  1  0  0  0  0
 25 20  1  0  0  0  0
 26 29  1  0  0  0  0
 26 21  1  0  0  0  0
 27 26  2  0  0  0  0
 28 26  2  0  0  0  0
 29  3  1  0  0  0  0
 30 33  1  0  0  0  0
 30 31  1  0  0  0  0
 32 30  1  0  0  0  0
M  END
