Coordinates from ORCA-job p-NO2-Ph-N2-OTs-MP2-6-31G_dp-scan-d09-49-n400
 OpenBabel02121707583D

 33 33  0  0  0  0  0  0  0  0999 V2000
    0.7524   -0.6133   -4.2626 C   0  0  0  0  0  0  0  0  0  0  0  0
    1.2647    0.4461   -5.0098 C   0  0  0  0  0  0  0  0  0  0  0  0
    1.8630    1.5206   -4.3460 C   0  0  0  0  0  0  0  0  0  0  0  0
    1.9495    1.5653   -2.9518 C   0  0  0  0  0  0  0  0  0  0  0  0
    1.4331    0.5135   -2.1987 C   0  0  0  0  0  0  0  0  0  0  0  0
    0.8493   -0.5597   -2.8721 C   0  0  0  0  0  0  0  0  0  0  0  0
    0.2830   -1.4641   -4.7352 H   0  0  0  0  0  0  0  0  0  0  0  0
    1.2122    0.4511   -6.0897 H   0  0  0  0  0  0  0  0  0  0  0  0
    2.4150    2.4214   -2.4801 H   0  0  0  0  0  0  0  0  0  0  0  0
    1.4797    0.5097   -1.1192 H   0  0  0  0  0  0  0  0  0  0  0  0
    0.3083   -1.6753   -2.0831 N   0  0  0  0  0  0  0  0  0  0  0  0
    0.4343   -1.6189   -0.8481 O   0  0  0  0  0  0  0  0  0  0  0  0
   -0.2349   -2.6062   -2.7010 O   0  0  0  0  0  0  0  0  0  0  0  0
   -1.9177    2.0064   -3.2814 N   0  0  0  0  0  0  0  0  0  0  0  0
   -1.9667    0.9847   -2.7971 N   0  0  0  0  0  0  0  0  0  0  0  0
    5.1234    0.8324   -3.9866 C   0  0  0  0  0  0  0  0  0  0  0  0
    5.8949    0.6590   -2.8371 C   0  0  0  0  0  0  0  0  0  0  0  0
    6.3960    1.7574   -2.1247 C   0  0  0  0  0  0  0  0  0  0  0  0
    6.1165    3.0491   -2.5969 C   0  0  0  0  0  0  0  0  0  0  0  0
    5.3483    3.2504   -3.7428 C   0  0  0  0  0  0  0  0  0  0  0  0
    4.8674    2.1321   -4.4289 C   0  0  0  0  0  0  0  0  0  0  0  0
    4.7478   -0.0149   -4.5458 H   0  0  0  0  0  0  0  0  0  0  0  0
    6.1106   -0.3455   -2.4899 H   0  0  0  0  0  0  0  0  0  0  0  0
    6.5090    3.9080   -2.0637 H   0  0  0  0  0  0  0  0  0  0  0  0
    5.1456    4.2459   -4.1174 H   0  0  0  0  0  0  0  0  0  0  0  0
    3.8235    2.3759   -5.8299 S   0  0  0  0  0  0  0  0  0  0  0  0
    3.7489    1.1314   -6.5875 O   0  0  0  0  0  0  0  0  0  0  0  0
    4.0933    3.6630   -6.4468 O   0  0  0  0  0  0  0  0  0  0  0  0
    2.3462    2.6147   -5.0668 O   0  0  0  0  0  0  0  0  0  0  0  0
    7.1927    1.5574   -0.8630 C   0  0  0  0  0  0  0  0  0  0  0  0
    6.5401    1.5519    0.0120 H   0  0  0  0  0  0  0  0  0  0  0  0
    7.7279    0.6089   -0.8841 H   0  0  0  0  0  0  0  0  0  0  0  0
    7.9211    2.3564   -0.7290 H   0  0  0  0  0  0  0  0  0  0  0  0
  1  6  2  0  0  0  0
  2  3  2  0  0  0  0
  2  1  1  0  0  0  0
  3  4  1  0  0  0  0
  4  9  1  0  0  0  0
  4  5  2  0  0  0  0
  5 10  1  0  0  0  0
  6  5  1  0  0  0  0
  6 11  1  0  0  0  0
  7  1  1  0  0  0  0
  8  2  1  0  0  0  0
 11 12  2  0  0  0  0
 13 11  2  0  0  0  0
 14 15  3  0  0  0  0
 16 17  1  0  0  0  0
 17 23  1  0  0  0  0
 17 18  2  0  0  0  0
 18 30  1  0  0  0  0
 19 18  1  0  0  0  0
 19 24  1  0  0  0  0
 20 19  2  0  0  0  0
 21 16  2  0  0  0  0
 21 20  1  0  0  0  0
 22 16  1  0  0  0  0
 25 20  1  0  0  0  0
 26 29  1  0  0  0  0
 26 21  1  0  0  0  0
 27 26  2  0  0  0  0
 28 26  2  0  0  0  0
 29  3  1  0  0  0  0
 30 33  1  0  0  0  0
 30 31  1  0  0  0  0
 32 30  1  0  0  0  0
M  END
