Coordinates from ORCA-job p-NO2-Ph-N2-OTs-MP2-6-31G_dp-scan-d09-49-n400
 OpenBabel02121707583D

 33 33  0  0  0  0  0  0  0  0999 V2000
    2.2041   -0.4144   -3.3700 C   0  0  0  0  0  0  0  0  0  0  0  0
    1.5945    0.1765   -4.4705 C   0  0  0  0  0  0  0  0  0  0  0  0
    0.8861    1.3700   -4.2593 C   0  0  0  0  0  0  0  0  0  0  0  0
    0.7692    2.0008   -3.0072 C   0  0  0  0  0  0  0  0  0  0  0  0
    1.3962    1.4029   -1.9256 C   0  0  0  0  0  0  0  0  0  0  0  0
    2.1151    0.2209   -2.1322 C   0  0  0  0  0  0  0  0  0  0  0  0
    2.7789   -1.3233   -3.4683 H   0  0  0  0  0  0  0  0  0  0  0  0
    1.7022   -0.2144   -5.4719 H   0  0  0  0  0  0  0  0  0  0  0  0
    0.2571    2.9494   -2.9224 H   0  0  0  0  0  0  0  0  0  0  0  0
    1.3766    1.8545   -0.9441 H   0  0  0  0  0  0  0  0  0  0  0  0
    2.8143   -0.3810   -0.9911 N   0  0  0  0  0  0  0  0  0  0  0  0
    2.9043    0.2980    0.0458 O   0  0  0  0  0  0  0  0  0  0  0  0
    3.2757   -1.5246   -1.1460 O   0  0  0  0  0  0  0  0  0  0  0  0
    0.3514    1.9601   -5.3008 N   0  0  0  0  0  0  0  0  0  0  0  0
   -0.1677    2.4438   -6.1882 N   0  0  0  0  0  0  0  0  0  0  0  0
    4.7791    0.9071   -4.6733 C   0  0  0  0  0  0  0  0  0  0  0  0
    5.4505    0.2449   -3.6430 C   0  0  0  0  0  0  0  0  0  0  0  0
    5.4768    0.7659   -2.3400 C   0  0  0  0  0  0  0  0  0  0  0  0
    4.8105    1.9778   -2.0976 C   0  0  0  0  0  0  0  0  0  0  0  0
    4.1386    2.6508   -3.1206 C   0  0  0  0  0  0  0  0  0  0  0  0
    4.1104    2.1089   -4.4094 C   0  0  0  0  0  0  0  0  0  0  0  0
    4.7569    0.5004   -5.6776 H   0  0  0  0  0  0  0  0  0  0  0  0
    5.9748   -0.6821   -3.8539 H   0  0  0  0  0  0  0  0  0  0  0  0
    4.8338    2.4044   -1.0992 H   0  0  0  0  0  0  0  0  0  0  0  0
    3.6291    3.5887   -2.9353 H   0  0  0  0  0  0  0  0  0  0  0  0
    3.2301    2.9589   -5.7276 S   0  0  0  0  0  0  0  0  0  0  0  0
    2.6321    1.8309   -6.5178 O   0  0  0  0  0  0  0  0  0  0  0  0
    4.2126    3.7858   -6.4384 O   0  0  0  0  0  0  0  0  0  0  0  0
    2.1536    3.7059   -4.9934 O   0  0  0  0  0  0  0  0  0  0  0  0
    6.1926    0.0502   -1.2241 C   0  0  0  0  0  0  0  0  0  0  0  0
    5.4919   -0.4697   -0.5681 H   0  0  0  0  0  0  0  0  0  0  0  0
    6.8896   -0.6881   -1.6195 H   0  0  0  0  0  0  0  0  0  0  0  0
    6.7572    0.7550   -0.6133 H   0  0  0  0  0  0  0  0  0  0  0  0
  1  6  2  0  0  0  0
  2  3  2  0  0  0  0
  2  1  1  0  0  0  0
  3  4  1  0  0  0  0
  4  9  1  0  0  0  0
  4  5  2  0  0  0  0
  5 10  1  0  0  0  0
  6  5  1  0  0  0  0
  6 11  1  0  0  0  0
  7  1  1  0  0  0  0
  8  2  1  0  0  0  0
 11 12  2  0  0  0  0
 13 11  2  0  0  0  0
 14  3  1  0  0  0  0
 15 14  1  0  0  0  0
 16 21  2  0  0  0  0
 16 17  1  0  0  0  0
 17 18  2  0  0  0  0
 18 19  1  0  0  0  0
 18 30  1  0  0  0  0
 19 24  1  0  0  0  0
 20 25  1  0  0  0  0
 20 19  2  0  0  0  0
 21 20  1  0  0  0  0
 22 16  1  0  0  0  0
 23 17  1  0  0  0  0
 26 29  1  0  0  0  0
 26 21  1  0  0  0  0
 27 26  2  0  0  0  0
 28 26  2  0  0  0  0
 30 33  1  0  0  0  0
 30 31  1  0  0  0  0
 32 30  1  0  0  0  0
M  RAD  3  14   2  15   3  29   2
M  END
