Coordinates from ORCA-job p-NO2-Ph-N2-OTs-MP2-6-31G_dp-scan-d09-49-n400
 OpenBabel02121707583D

 33 33  0  0  0  0  0  0  0  0999 V2000
    0.7220   -0.7583   -4.1822 C   0  0  0  0  0  0  0  0  0  0  0  0
    1.1950    0.3307   -4.9117 C   0  0  0  0  0  0  0  0  0  0  0  0
    1.7685    1.4074   -4.2310 C   0  0  0  0  0  0  0  0  0  0  0  0
    1.9171    1.4036   -2.8417 C   0  0  0  0  0  0  0  0  0  0  0  0
    1.4397    0.3225   -2.1052 C   0  0  0  0  0  0  0  0  0  0  0  0
    0.8541   -0.7406   -2.7933 C   0  0  0  0  0  0  0  0  0  0  0  0
    0.2602   -1.6070   -4.6661 H   0  0  0  0  0  0  0  0  0  0  0  0
    1.1067    0.3688   -5.9887 H   0  0  0  0  0  0  0  0  0  0  0  0
    2.3735    2.2581   -2.3583 H   0  0  0  0  0  0  0  0  0  0  0  0
    1.5210    0.2859   -1.0284 H   0  0  0  0  0  0  0  0  0  0  0  0
    0.3514   -1.8865   -2.0218 N   0  0  0  0  0  0  0  0  0  0  0  0
    0.4999   -1.8576   -0.7884 O   0  0  0  0  0  0  0  0  0  0  0  0
   -0.1873   -2.8120   -2.6519 O   0  0  0  0  0  0  0  0  0  0  0  0
   -0.7485    2.6395   -3.9671 N   0  0  0  0  0  0  0  0  0  0  0  0
   -1.5557    2.0445   -3.4413 N   0  0  0  0  0  0  0  0  0  0  0  0
    5.0778    0.8600   -3.9952 C   0  0  0  0  0  0  0  0  0  0  0  0
    5.8955    0.6923   -2.8773 C   0  0  0  0  0  0  0  0  0  0  0  0
    6.3667    1.7933   -2.1487 C   0  0  0  0  0  0  0  0  0  0  0  0
    6.0091    3.0825   -2.5725 C   0  0  0  0  0  0  0  0  0  0  0  0
    5.1937    3.2782   -3.6864 C   0  0  0  0  0  0  0  0  0  0  0  0
    4.7445    2.1575   -4.3899 C   0  0  0  0  0  0  0  0  0  0  0  0
    4.7247    0.0116   -4.5673 H   0  0  0  0  0  0  0  0  0  0  0  0
    6.1713   -0.3098   -2.5677 H   0  0  0  0  0  0  0  0  0  0  0  0
    6.3773    3.9443   -2.0266 H   0  0  0  0  0  0  0  0  0  0  0  0
    4.9307    4.2727   -4.0241 H   0  0  0  0  0  0  0  0  0  0  0  0
    3.6428    2.3897   -5.7481 S   0  0  0  0  0  0  0  0  0  0  0  0
    3.5987    1.1631   -6.5368 O   0  0  0  0  0  0  0  0  0  0  0  0
    3.8344    3.7032   -6.3381 O   0  0  0  0  0  0  0  0  0  0  0  0
    2.1843    2.5416   -4.9301 O   0  0  0  0  0  0  0  0  0  0  0  0
    7.2145    1.5970   -0.9202 C   0  0  0  0  0  0  0  0  0  0  0  0
    6.5931    1.5346   -0.0249 H   0  0  0  0  0  0  0  0  0  0  0  0
    7.7939    0.6770   -0.9872 H   0  0  0  0  0  0  0  0  0  0  0  0
    7.9076    2.4268   -0.7861 H   0  0  0  0  0  0  0  0  0  0  0  0
  1  6  2  0  0  0  0
  2  3  2  0  0  0  0
  2  1  1  0  0  0  0
  3  4  1  0  0  0  0
  4  9  1  0  0  0  0
  4  5  2  0  0  0  0
  5 10  1  0  0  0  0
  6  5  1  0  0  0  0
  6 11  1  0  0  0  0
  7  1  1  0  0  0  0
  8  2  1  0  0  0  0
 11 12  2  0  0  0  0
 13 11  2  0  0  0  0
 14 15  3  0  0  0  0
 16 17  1  0  0  0  0
 17 23  1  0  0  0  0
 17 18  2  0  0  0  0
 18 30  1  0  0  0  0
 19 18  1  0  0  0  0
 19 24  1  0  0  0  0
 20 19  2  0  0  0  0
 21 16  2  0  0  0  0
 21 20  1  0  0  0  0
 22 16  1  0  0  0  0
 25 20  1  0  0  0  0
 26 29  1  0  0  0  0
 26 21  1  0  0  0  0
 27 26  2  0  0  0  0
 28 26  2  0  0  0  0
 29  3  1  0  0  0  0
 30 33  1  0  0  0  0
 30 31  1  0  0  0  0
 32 30  1  0  0  0  0
M  END
