Coordinates from ORCA-job p-NO2-Ph-N2-OTs-MP2-6-31G_dp-scan-d09-49-n400
 OpenBabel02121707583D

 33 33  0  0  0  0  0  0  0  0999 V2000
   -0.4772   -0.0937   -2.0978 C   0  0  0  0  0  0  0  0  0  0  0  0
   -0.0579    0.0083   -3.3958 C   0  0  0  0  0  0  0  0  0  0  0  0
    0.2970    1.3152   -4.0260 C   0  0  0  0  0  0  0  0  0  0  0  0
    0.1568    2.4762   -3.0918 C   0  0  0  0  0  0  0  0  0  0  0  0
   -0.3061    2.3316   -1.8089 C   0  0  0  0  0  0  0  0  0  0  0  0
   -0.6045    1.0600   -1.3086 C   0  0  0  0  0  0  0  0  0  0  0  0
   -0.7141   -1.0605   -1.6735 H   0  0  0  0  0  0  0  0  0  0  0  0
    0.0783   -0.8509   -4.0439 H   0  0  0  0  0  0  0  0  0  0  0  0
    0.4215    3.4299   -3.5287 H   0  0  0  0  0  0  0  0  0  0  0  0
   -0.4052    3.1979   -1.1680 H   0  0  0  0  0  0  0  0  0  0  0  0
   -1.0766    0.9270    0.0665 N   0  0  0  0  0  0  0  0  0  0  0  0
   -1.2132    1.9725    0.7270 O   0  0  0  0  0  0  0  0  0  0  0  0
   -1.3085   -0.2234    0.4809 O   0  0  0  0  0  0  0  0  0  0  0  0
    0.5989    1.3966   -4.9020 N   0  0  0  0  0  0  0  0  0  0  0  0
    1.0326    1.4949   -6.0407 N   0  0  0  0  0  0  0  0  0  0  0  0
    6.2884    1.9033   -5.0811 C   0  0  0  0  0  0  0  0  0  0  0  0
    7.4982    1.3393   -4.6803 C   0  0  0  0  0  0  0  0  0  0  0  0
    7.5811    0.5367   -3.5325 C   0  0  0  0  0  0  0  0  0  0  0  0
    6.4157    0.3148   -2.7845 C   0  0  0  0  0  0  0  0  0  0  0  0
    5.1954    0.8687   -3.1692 C   0  0  0  0  0  0  0  0  0  0  0  0
    5.1428    1.6647   -4.3163 C   0  0  0  0  0  0  0  0  0  0  0  0
    6.2264    2.5402   -5.9544 H   0  0  0  0  0  0  0  0  0  0  0  0
    8.3938    1.5305   -5.2619 H   0  0  0  0  0  0  0  0  0  0  0  0
    6.4675   -0.2913   -1.8861 H   0  0  0  0  0  0  0  0  0  0  0  0
    4.2988    0.7197   -2.5813 H   0  0  0  0  0  0  0  0  0  0  0  0
    3.5953    2.3491   -4.8477 S   0  0  0  0  0  0  0  0  0  0  0  0
    3.1112    1.2140   -5.7841 O   0  0  0  0  0  0  0  0  0  0  0  0
    3.8627    3.6131   -5.5453 O   0  0  0  0  0  0  0  0  0  0  0  0
    2.7148    2.4260   -3.6449 O   0  0  0  0  0  0  0  0  0  0  0  0
    8.8866   -0.0984   -3.1324 C   0  0  0  0  0  0  0  0  0  0  0  0
    9.0263   -1.0566   -3.6367 H   0  0  0  0  0  0  0  0  0  0  0  0
    9.7298    0.5398   -3.3959 H   0  0  0  0  0  0  0  0  0  0  0  0
    8.9216   -0.2803   -2.0585 H   0  0  0  0  0  0  0  0  0  0  0  0
  1  7  1  0  0  0  0
  1  6  2  0  0  0  0
  2  1  1  0  0  0  0
  3  2  2  0  0  0  0
  3  4  1  0  0  0  0
  4  5  2  0  0  0  0
  5  6  1  0  0  0  0
  5 10  1  0  0  0  0
  6 11  1  0  0  0  0
  8  2  1  0  0  0  0
  9  4  1  0  0  0  0
 11 13  2  0  0  0  0
 11 12  2  0  0  0  0
 14  3  1  0  0  0  0
 15 14  1  0  0  0  0
 16 17  2  0  0  0  0
 16 21  1  0  0  0  0
 17 18  1  0  0  0  0
 18 30  1  0  0  0  0
 18 19  2  0  0  0  0
 19 24  1  0  0  0  0
 20 19  1  0  0  0  0
 20 25  1  0  0  0  0
 21 20  2  0  0  0  0
 22 16  1  0  0  0  0
 23 17  1  0  0  0  0
 26 21  1  0  0  0  0
 26 29  1  0  0  0  0
 27 26  2  0  0  0  0
 28 26  2  0  0  0  0
 30 33  1  0  0  0  0
 31 30  1  0  0  0  0
 32 30  1  0  0  0  0
M  RAD  3  14   2  15   3  29   2
M  END
