Coordinates from ORCA-job p-NO2-Ph-N2-OTs-MP2-6-31G_dp-scan-d09-49-n400
 OpenBabel02121707583D

 33 33  0  0  0  0  0  0  0  0999 V2000
    0.7369   -0.7451   -4.1642 C   0  0  0  0  0  0  0  0  0  0  0  0
    1.1788    0.3500   -4.9021 C   0  0  0  0  0  0  0  0  0  0  0  0
    1.6933    1.4624   -4.2290 C   0  0  0  0  0  0  0  0  0  0  0  0
    1.9361    1.4288   -2.8516 C   0  0  0  0  0  0  0  0  0  0  0  0
    1.4907    0.3429   -2.1042 C   0  0  0  0  0  0  0  0  0  0  0  0
    0.9030   -0.7282   -2.7787 C   0  0  0  0  0  0  0  0  0  0  0  0
    0.2973   -1.6095   -4.6409 H   0  0  0  0  0  0  0  0  0  0  0  0
    1.0659    0.3865   -5.9769 H   0  0  0  0  0  0  0  0  0  0  0  0
    2.3935    2.2880   -2.3775 H   0  0  0  0  0  0  0  0  0  0  0  0
    1.6217    0.2959   -1.0326 H   0  0  0  0  0  0  0  0  0  0  0  0
    0.4344   -1.8810   -1.9969 N   0  0  0  0  0  0  0  0  0  0  0  0
    0.6170   -1.8534   -0.7679 O   0  0  0  0  0  0  0  0  0  0  0  0
   -0.1107   -2.8111   -2.6145 O   0  0  0  0  0  0  0  0  0  0  0  0
   -0.3262    2.5322   -4.0357 N   0  0  0  0  0  0  0  0  0  0  0  0
   -1.2330    2.1067   -3.5024 N   0  0  0  0  0  0  0  0  0  0  0  0
    5.0097    0.8552   -4.0019 C   0  0  0  0  0  0  0  0  0  0  0  0
    5.8225    0.6783   -2.8820 C   0  0  0  0  0  0  0  0  0  0  0  0
    6.2957    1.7737   -2.1460 C   0  0  0  0  0  0  0  0  0  0  0  0
    5.9460    3.0666   -2.5651 C   0  0  0  0  0  0  0  0  0  0  0  0
    5.1361    3.2713   -3.6814 C   0  0  0  0  0  0  0  0  0  0  0  0
    4.6834    2.1560   -4.3912 C   0  0  0  0  0  0  0  0  0  0  0  0
    4.6523    0.0114   -4.5781 H   0  0  0  0  0  0  0  0  0  0  0  0
    6.0923   -0.3266   -2.5761 H   0  0  0  0  0  0  0  0  0  0  0  0
    6.3163    3.9240   -2.0138 H   0  0  0  0  0  0  0  0  0  0  0  0
    4.8795    4.2687   -4.0157 H   0  0  0  0  0  0  0  0  0  0  0  0
    3.5888    2.4003   -5.7525 S   0  0  0  0  0  0  0  0  0  0  0  0
    3.5332    1.1737   -6.5403 O   0  0  0  0  0  0  0  0  0  0  0  0
    3.8012    3.7099   -6.3444 O   0  0  0  0  0  0  0  0  0  0  0  0
    2.1267    2.5803   -4.9457 O   0  0  0  0  0  0  0  0  0  0  0  0
    7.1374    1.5670   -0.9149 C   0  0  0  0  0  0  0  0  0  0  0  0
    6.5112    1.4916   -0.0240 H   0  0  0  0  0  0  0  0  0  0  0  0
    7.7210    0.6502   -0.9891 H   0  0  0  0  0  0  0  0  0  0  0  0
    7.8262    2.3980   -0.7674 H   0  0  0  0  0  0  0  0  0  0  0  0
  1  6  2  0  0  0  0
  2  3  2  0  0  0  0
  2  1  1  0  0  0  0
  3  4  1  0  0  0  0
  4  9  1  0  0  0  0
  4  5  2  0  0  0  0
  5 10  1  0  0  0  0
  6  5  1  0  0  0  0
  6 11  1  0  0  0  0
  7  1  1  0  0  0  0
  8  2  1  0  0  0  0
 11 12  2  0  0  0  0
 13 11  2  0  0  0  0
 14 15  3  0  0  0  0
 16 17  1  0  0  0  0
 17 23  1  0  0  0  0
 17 18  2  0  0  0  0
 18 30  1  0  0  0  0
 19 18  1  0  0  0  0
 19 24  1  0  0  0  0
 20 19  2  0  0  0  0
 21 16  2  0  0  0  0
 21 20  1  0  0  0  0
 22 16  1  0  0  0  0
 25 20  1  0  0  0  0
 26 29  1  0  0  0  0
 26 21  1  0  0  0  0
 27 26  2  0  0  0  0
 28 26  2  0  0  0  0
 29  3  1  0  0  0  0
 30 33  1  0  0  0  0
 30 31  1  0  0  0  0
 32 30  1  0  0  0  0
M  END
