Coordinates from ORCA-job p-NO2-Ph-N2-OTs-MP2-6-31G_dp-scan-d09-49-n400
 OpenBabel02121707583D

 33 33  0  0  0  0  0  0  0  0999 V2000
    0.7327   -0.6806   -4.2228 C   0  0  0  0  0  0  0  0  0  0  0  0
    1.2238    0.3946   -4.9613 C   0  0  0  0  0  0  0  0  0  0  0  0
    1.8131    1.4686   -4.2892 C   0  0  0  0  0  0  0  0  0  0  0  0
    1.9300    1.4892   -2.8967 C   0  0  0  0  0  0  0  0  0  0  0  0
    1.4346    0.4215   -2.1520 C   0  0  0  0  0  0  0  0  0  0  0  0
    0.8482   -0.6456   -2.8329 C   0  0  0  0  0  0  0  0  0  0  0  0
    0.2655   -1.5296   -4.7009 H   0  0  0  0  0  0  0  0  0  0  0  0
    1.1524    0.4168   -6.0400 H   0  0  0  0  0  0  0  0  0  0  0  0
    2.3923    2.3438   -2.4191 H   0  0  0  0  0  0  0  0  0  0  0  0
    1.4989    0.4008   -1.0736 H   0  0  0  0  0  0  0  0  0  0  0  0
    0.3274   -1.7772   -2.0527 N   0  0  0  0  0  0  0  0  0  0  0  0
    0.4598   -1.7322   -0.8179 O   0  0  0  0  0  0  0  0  0  0  0  0
   -0.2085   -2.7079   -2.6773 O   0  0  0  0  0  0  0  0  0  0  0  0
   -1.2991    2.3377   -3.6396 N   0  0  0  0  0  0  0  0  0  0  0  0
   -1.7282    1.4418   -3.0967 N   0  0  0  0  0  0  0  0  0  0  0  0
    5.0978    0.8458   -3.9899 C   0  0  0  0  0  0  0  0  0  0  0  0
    5.8917    0.6747   -2.8554 C   0  0  0  0  0  0  0  0  0  0  0  0
    6.3795    1.7746   -2.1361 C   0  0  0  0  0  0  0  0  0  0  0  0
    6.0634    3.0658   -2.5862 C   0  0  0  0  0  0  0  0  0  0  0  0
    5.2723    3.2648   -3.7168 C   0  0  0  0  0  0  0  0  0  0  0  0
    4.8056    2.1451   -4.4104 C   0  0  0  0  0  0  0  0  0  0  0  0
    4.7323   -0.0022   -4.5547 H   0  0  0  0  0  0  0  0  0  0  0  0
    6.1356   -0.3292   -2.5256 H   0  0  0  0  0  0  0  0  0  0  0  0
    6.4450    3.9262   -2.0475 H   0  0  0  0  0  0  0  0  0  0  0  0
    5.0413    4.2604   -4.0744 H   0  0  0  0  0  0  0  0  0  0  0  0
    3.7334    2.3840   -5.7908 S   0  0  0  0  0  0  0  0  0  0  0  0
    3.6718    1.1472   -6.5622 O   0  0  0  0  0  0  0  0  0  0  0  0
    3.9664    3.6837   -6.3961 O   0  0  0  0  0  0  0  0  0  0  0  0
    2.2648    2.5826   -5.0001 O   0  0  0  0  0  0  0  0  0  0  0  0
    7.2010    1.5760   -0.8902 C   0  0  0  0  0  0  0  0  0  0  0  0
    6.5632    1.5454   -0.0049 H   0  0  0  0  0  0  0  0  0  0  0  0
    7.7560    0.6396   -0.9323 H   0  0  0  0  0  0  0  0  0  0  0  0
    7.9142    2.3888   -0.7578 H   0  0  0  0  0  0  0  0  0  0  0  0
  1  6  2  0  0  0  0
  2  3  2  0  0  0  0
  2  1  1  0  0  0  0
  3  4  1  0  0  0  0
  4  9  1  0  0  0  0
  4  5  2  0  0  0  0
  5 10  1  0  0  0  0
  6  5  1  0  0  0  0
  6 11  1  0  0  0  0
  7  1  1  0  0  0  0
  8  2  1  0  0  0  0
 11 12  2  0  0  0  0
 13 11  2  0  0  0  0
 14 15  3  0  0  0  0
 16 17  1  0  0  0  0
 17 23  1  0  0  0  0
 17 18  2  0  0  0  0
 18 30  1  0  0  0  0
 19 18  1  0  0  0  0
 19 24  1  0  0  0  0
 20 19  2  0  0  0  0
 21 16  2  0  0  0  0
 21 20  1  0  0  0  0
 22 16  1  0  0  0  0
 25 20  1  0  0  0  0
 26 29  1  0  0  0  0
 26 21  1  0  0  0  0
 27 26  2  0  0  0  0
 28 26  2  0  0  0  0
 29  3  1  0  0  0  0
 30 33  1  0  0  0  0
 30 31  1  0  0  0  0
 32 30  1  0  0  0  0
M  END
