Coordinates from ORCA-job p-NO2-Ph-N2-OTs-MP2-6-31G_dp-scan-d09-49-n400
 OpenBabel02121707583D

 33 33  0  0  0  0  0  0  0  0999 V2000
    2.2001   -0.4181   -3.3370 C   0  0  0  0  0  0  0  0  0  0  0  0
    1.6147    0.1775   -4.4511 C   0  0  0  0  0  0  0  0  0  0  0  0
    0.9176    1.3647   -4.2314 C   0  0  0  0  0  0  0  0  0  0  0  0
    0.7679    2.0057   -2.9990 C   0  0  0  0  0  0  0  0  0  0  0  0
    1.3724    1.4011   -1.9048 C   0  0  0  0  0  0  0  0  0  0  0  0
    2.0929    0.2190   -2.1018 C   0  0  0  0  0  0  0  0  0  0  0  0
    2.7770   -1.3266   -3.4259 H   0  0  0  0  0  0  0  0  0  0  0  0
    1.7432   -0.2064   -5.4521 H   0  0  0  0  0  0  0  0  0  0  0  0
    0.2605    2.9571   -2.9254 H   0  0  0  0  0  0  0  0  0  0  0  0
    1.3386    1.8527   -0.9237 H   0  0  0  0  0  0  0  0  0  0  0  0
    2.7879   -0.3749   -0.9536 N   0  0  0  0  0  0  0  0  0  0  0  0
    2.8851    0.3162    0.0742 O   0  0  0  0  0  0  0  0  0  0  0  0
    3.2418   -1.5230   -1.0952 O   0  0  0  0  0  0  0  0  0  0  0  0
    0.3671    2.0141   -5.3696 N   0  0  0  0  0  0  0  0  0  0  0  0
   -0.2060    2.4663   -6.2376 N   0  0  0  0  0  0  0  0  0  0  0  0
    4.7983    0.9148   -4.6904 C   0  0  0  0  0  0  0  0  0  0  0  0
    5.4737    0.2520   -3.6635 C   0  0  0  0  0  0  0  0  0  0  0  0
    5.4901    0.7622   -2.3559 C   0  0  0  0  0  0  0  0  0  0  0  0
    4.8114    1.9650   -2.1059 C   0  0  0  0  0  0  0  0  0  0  0  0
    4.1347    2.6391   -3.1253 C   0  0  0  0  0  0  0  0  0  0  0  0
    4.1159    2.1068   -4.4180 C   0  0  0  0  0  0  0  0  0  0  0  0
    4.7832    0.5149   -5.6975 H   0  0  0  0  0  0  0  0  0  0  0  0
    6.0080   -0.6678   -3.8806 H   0  0  0  0  0  0  0  0  0  0  0  0
    4.8261    2.3834   -1.1039 H   0  0  0  0  0  0  0  0  0  0  0  0
    3.6147    3.5698   -2.9335 H   0  0  0  0  0  0  0  0  0  0  0  0
    3.2256    2.9518   -5.7303 S   0  0  0  0  0  0  0  0  0  0  0  0
    2.6238    1.8228   -6.5184 O   0  0  0  0  0  0  0  0  0  0  0  0
    4.1962    3.7850   -6.4493 O   0  0  0  0  0  0  0  0  0  0  0  0
    2.1446    3.6941   -4.9937 O   0  0  0  0  0  0  0  0  0  0  0  0
    6.2033    0.0390   -1.2430 C   0  0  0  0  0  0  0  0  0  0  0  0
    5.5080   -0.5430   -0.6351 H   0  0  0  0  0  0  0  0  0  0  0  0
    6.9511   -0.6462   -1.6413 H   0  0  0  0  0  0  0  0  0  0  0  0
    6.7088    0.7454   -0.5844 H   0  0  0  0  0  0  0  0  0  0  0  0
  1  6  2  0  0  0  0
  2  3  2  0  0  0  0
  2  1  1  0  0  0  0
  3  4  1  0  0  0  0
  4  9  1  0  0  0  0
  4  5  2  0  0  0  0
  5 10  1  0  0  0  0
  6  5  1  0  0  0  0
  6 11  1  0  0  0  0
  7  1  1  0  0  0  0
  8  2  1  0  0  0  0
 11 12  2  0  0  0  0
 13 11  2  0  0  0  0
 14  3  1  0  0  0  0
 15 14  1  0  0  0  0
 16 21  2  0  0  0  0
 16 17  1  0  0  0  0
 17 18  2  0  0  0  0
 18 19  1  0  0  0  0
 18 30  1  0  0  0  0
 19 24  1  0  0  0  0
 20 25  1  0  0  0  0
 20 19  2  0  0  0  0
 21 20  1  0  0  0  0
 22 16  1  0  0  0  0
 23 17  1  0  0  0  0
 26 29  1  0  0  0  0
 26 21  1  0  0  0  0
 27 26  2  0  0  0  0
 28 26  2  0  0  0  0
 30 31  1  0  0  0  0
 30 33  1  0  0  0  0
 32 30  1  0  0  0  0
M  RAD  3  14   2  15   3  29   2
M  END
