Coordinates from ORCA-job p-NO2-Ph-N2-OTs-MP2-6-31G_dp-scan-d09-49-n400
 OpenBabel02121707583D

 33 33  0  0  0  0  0  0  0  0999 V2000
    0.7514   -0.6153   -4.2613 C   0  0  0  0  0  0  0  0  0  0  0  0
    1.2631    0.4445   -5.0083 C   0  0  0  0  0  0  0  0  0  0  0  0
    1.8610    1.5191   -4.3442 C   0  0  0  0  0  0  0  0  0  0  0  0
    1.9488    1.5628   -2.9500 C   0  0  0  0  0  0  0  0  0  0  0  0
    1.4329    0.5105   -2.1972 C   0  0  0  0  0  0  0  0  0  0  0  0
    0.8492   -0.5625   -2.8708 C   0  0  0  0  0  0  0  0  0  0  0  0
    0.2820   -1.4660   -4.7341 H   0  0  0  0  0  0  0  0  0  0  0  0
    1.2098    0.4502   -6.0881 H   0  0  0  0  0  0  0  0  0  0  0  0
    2.4141    2.4189   -2.4781 H   0  0  0  0  0  0  0  0  0  0  0  0
    1.4802    0.5061   -1.1177 H   0  0  0  0  0  0  0  0  0  0  0  0
    0.3074   -1.6779   -2.0821 N   0  0  0  0  0  0  0  0  0  0  0  0
    0.4331   -1.6216   -0.8471 O   0  0  0  0  0  0  0  0  0  0  0  0
   -0.2362   -2.6084   -2.7002 O   0  0  0  0  0  0  0  0  0  0  0  0
   -1.8906    2.0155   -3.2932 N   0  0  0  0  0  0  0  0  0  0  0  0
   -1.9530    0.9959   -2.8060 N   0  0  0  0  0  0  0  0  0  0  0  0
    5.1223    0.8329   -3.9867 C   0  0  0  0  0  0  0  0  0  0  0  0
    5.8945    0.6596   -2.8377 C   0  0  0  0  0  0  0  0  0  0  0  0
    6.3952    1.7581   -2.1250 C   0  0  0  0  0  0  0  0  0  0  0  0
    6.1145    3.0497   -2.5966 C   0  0  0  0  0  0  0  0  0  0  0  0
    5.3455    3.2509   -3.7420 C   0  0  0  0  0  0  0  0  0  0  0  0
    4.8651    2.1326   -4.4284 C   0  0  0  0  0  0  0  0  0  0  0  0
    4.7470   -0.0145   -4.5461 H   0  0  0  0  0  0  0  0  0  0  0  0
    6.1112   -0.3449   -2.4911 H   0  0  0  0  0  0  0  0  0  0  0  0
    6.5066    3.9087   -2.0631 H   0  0  0  0  0  0  0  0  0  0  0  0
    5.1420    4.2465   -4.1160 H   0  0  0  0  0  0  0  0  0  0  0  0
    3.8203    2.3763   -5.8287 S   0  0  0  0  0  0  0  0  0  0  0  0
    3.7461    1.1320   -6.5867 O   0  0  0  0  0  0  0  0  0  0  0  0
    4.0889    3.6638   -6.4452 O   0  0  0  0  0  0  0  0  0  0  0  0
    2.3433    2.6138   -5.0647 O   0  0  0  0  0  0  0  0  0  0  0  0
    7.1927    1.5581   -0.8638 C   0  0  0  0  0  0  0  0  0  0  0  0
    6.5405    1.5519    0.0115 H   0  0  0  0  0  0  0  0  0  0  0  0
    7.7285    0.6099   -0.8856 H   0  0  0  0  0  0  0  0  0  0  0  0
    7.9207    2.3575   -0.7300 H   0  0  0  0  0  0  0  0  0  0  0  0
  1  6  2  0  0  0  0
  2  3  2  0  0  0  0
  2  1  1  0  0  0  0
  3  4  1  0  0  0  0
  4  9  1  0  0  0  0
  4  5  2  0  0  0  0
  5 10  1  0  0  0  0
  6  5  1  0  0  0  0
  6 11  1  0  0  0  0
  7  1  1  0  0  0  0
  8  2  1  0  0  0  0
 11 12  2  0  0  0  0
 13 11  2  0  0  0  0
 14 15  3  0  0  0  0
 16 17  1  0  0  0  0
 17 23  1  0  0  0  0
 17 18  2  0  0  0  0
 18 30  1  0  0  0  0
 19 18  1  0  0  0  0
 19 24  1  0  0  0  0
 20 19  2  0  0  0  0
 21 16  2  0  0  0  0
 21 20  1  0  0  0  0
 22 16  1  0  0  0  0
 25 20  1  0  0  0  0
 26 29  1  0  0  0  0
 26 21  1  0  0  0  0
 27 26  2  0  0  0  0
 28 26  2  0  0  0  0
 29  3  1  0  0  0  0
 30 33  1  0  0  0  0
 30 31  1  0  0  0  0
 32 30  1  0  0  0  0
M  END
