Coordinates from ORCA-job p-NO2-Ph-N2-OTs-MP2-6-31G_dp-scan-d09-49-n400
 OpenBabel02121707583D

 33 33  0  0  0  0  0  0  0  0999 V2000
    0.7223   -0.7579   -4.1824 C   0  0  0  0  0  0  0  0  0  0  0  0
    1.1957    0.3308   -4.9121 C   0  0  0  0  0  0  0  0  0  0  0  0
    1.7698    1.4073   -4.2316 C   0  0  0  0  0  0  0  0  0  0  0  0
    1.9172    1.4042   -2.8421 C   0  0  0  0  0  0  0  0  0  0  0  0
    1.4393    0.3233   -2.1055 C   0  0  0  0  0  0  0  0  0  0  0  0
    0.8539   -0.7399   -2.7936 C   0  0  0  0  0  0  0  0  0  0  0  0
    0.2603   -1.6065   -4.6664 H   0  0  0  0  0  0  0  0  0  0  0  0
    1.1074    0.3688   -5.9891 H   0  0  0  0  0  0  0  0  0  0  0  0
    2.3731    2.2589   -2.3587 H   0  0  0  0  0  0  0  0  0  0  0  0
    1.5200    0.2872   -1.0286 H   0  0  0  0  0  0  0  0  0  0  0  0
    0.3507   -1.8855   -2.0219 N   0  0  0  0  0  0  0  0  0  0  0  0
    0.4993   -1.8565   -0.7885 O   0  0  0  0  0  0  0  0  0  0  0  0
   -0.1873   -2.8113   -2.6520 O   0  0  0  0  0  0  0  0  0  0  0  0
   -0.7580    2.6395   -3.9646 N   0  0  0  0  0  0  0  0  0  0  0  0
   -1.5610    2.0394   -3.4382 N   0  0  0  0  0  0  0  0  0  0  0  0
    5.0787    0.8599   -3.9954 C   0  0  0  0  0  0  0  0  0  0  0  0
    5.8962    0.6921   -2.8773 C   0  0  0  0  0  0  0  0  0  0  0  0
    6.3673    1.7932   -2.1486 C   0  0  0  0  0  0  0  0  0  0  0  0
    6.0098    3.0824   -2.5725 C   0  0  0  0  0  0  0  0  0  0  0  0
    5.1946    3.2780   -3.6864 C   0  0  0  0  0  0  0  0  0  0  0  0
    4.7455    2.1574   -4.3901 C   0  0  0  0  0  0  0  0  0  0  0  0
    4.7257    0.0115   -4.5676 H   0  0  0  0  0  0  0  0  0  0  0  0
    6.1720   -0.3100   -2.5678 H   0  0  0  0  0  0  0  0  0  0  0  0
    6.3780    3.9441   -2.0265 H   0  0  0  0  0  0  0  0  0  0  0  0
    4.9317    4.2726   -4.0242 H   0  0  0  0  0  0  0  0  0  0  0  0
    3.6441    2.3897   -5.7485 S   0  0  0  0  0  0  0  0  0  0  0  0
    3.6000    1.1630   -6.5372 O   0  0  0  0  0  0  0  0  0  0  0  0
    3.8359    3.7031   -6.3385 O   0  0  0  0  0  0  0  0  0  0  0  0
    2.1854    2.5417   -4.9308 O   0  0  0  0  0  0  0  0  0  0  0  0
    7.2149    1.5968   -0.9200 C   0  0  0  0  0  0  0  0  0  0  0  0
    6.5934    1.5344   -0.0248 H   0  0  0  0  0  0  0  0  0  0  0  0
    7.7943    0.6767   -0.9869 H   0  0  0  0  0  0  0  0  0  0  0  0
    7.9081    2.4265   -0.7858 H   0  0  0  0  0  0  0  0  0  0  0  0
  1  6  2  0  0  0  0
  2  3  2  0  0  0  0
  2  1  1  0  0  0  0
  3  4  1  0  0  0  0
  4  9  1  0  0  0  0
  4  5  2  0  0  0  0
  5 10  1  0  0  0  0
  6  5  1  0  0  0  0
  6 11  1  0  0  0  0
  7  1  1  0  0  0  0
  8  2  1  0  0  0  0
 11 12  2  0  0  0  0
 13 11  2  0  0  0  0
 14 15  3  0  0  0  0
 16 17  1  0  0  0  0
 17 23  1  0  0  0  0
 17 18  2  0  0  0  0
 18 30  1  0  0  0  0
 19 18  1  0  0  0  0
 19 24  1  0  0  0  0
 20 19  2  0  0  0  0
 21 16  2  0  0  0  0
 21 20  1  0  0  0  0
 22 16  1  0  0  0  0
 25 20  1  0  0  0  0
 26 29  1  0  0  0  0
 26 21  1  0  0  0  0
 27 26  2  0  0  0  0
 28 26  2  0  0  0  0
 29  3  1  0  0  0  0
 30 33  1  0  0  0  0
 30 31  1  0  0  0  0
 32 30  1  0  0  0  0
M  END
