Coordinates from ORCA-job p-NO2-Ph-N2-OTs-MP2-6-31G_dp-scan-d09-49-n400
 OpenBabel02121707583D

 33 33  0  0  0  0  0  0  0  0999 V2000
    2.1917   -0.4247   -3.3214 C   0  0  0  0  0  0  0  0  0  0  0  0
    1.6173    0.1730   -4.4430 C   0  0  0  0  0  0  0  0  0  0  0  0
    0.9345    1.3562   -4.2075 C   0  0  0  0  0  0  0  0  0  0  0  0
    0.7728    2.0130   -2.9941 C   0  0  0  0  0  0  0  0  0  0  0  0
    1.3670    1.4011   -1.8948 C   0  0  0  0  0  0  0  0  0  0  0  0
    2.0816    0.2153   -2.0879 C   0  0  0  0  0  0  0  0  0  0  0  0
    2.7654   -1.3356   -3.4064 H   0  0  0  0  0  0  0  0  0  0  0  0
    1.7514   -0.2066   -5.4443 H   0  0  0  0  0  0  0  0  0  0  0  0
    0.2745    2.9692   -2.9284 H   0  0  0  0  0  0  0  0  0  0  0  0
    1.3318    1.8547   -0.9147 H   0  0  0  0  0  0  0  0  0  0  0  0
    2.7754   -0.3762   -0.9377 N   0  0  0  0  0  0  0  0  0  0  0  0
    2.8772    0.3192    0.0866 O   0  0  0  0  0  0  0  0  0  0  0  0
    3.2252   -1.5266   -1.0745 O   0  0  0  0  0  0  0  0  0  0  0  0
    0.3683    2.0611   -5.4313 N   0  0  0  0  0  0  0  0  0  0  0  0
   -0.2460    2.4912   -6.2812 N   0  0  0  0  0  0  0  0  0  0  0  0
    4.8069    0.9157   -4.6944 C   0  0  0  0  0  0  0  0  0  0  0  0
    5.4860    0.2550   -3.6690 C   0  0  0  0  0  0  0  0  0  0  0  0
    5.5016    0.7639   -2.3606 C   0  0  0  0  0  0  0  0  0  0  0  0
    4.8187    1.9633   -2.1087 C   0  0  0  0  0  0  0  0  0  0  0  0
    4.1374    2.6355   -3.1267 C   0  0  0  0  0  0  0  0  0  0  0  0
    4.1193    2.1040   -4.4194 C   0  0  0  0  0  0  0  0  0  0  0  0
    4.7920    0.5161   -5.7016 H   0  0  0  0  0  0  0  0  0  0  0  0
    6.0237   -0.6625   -3.8877 H   0  0  0  0  0  0  0  0  0  0  0  0
    4.8323    2.3805   -1.1063 H   0  0  0  0  0  0  0  0  0  0  0  0
    3.6134    3.5635   -2.9328 H   0  0  0  0  0  0  0  0  0  0  0  0
    3.2199    2.9429   -5.7282 S   0  0  0  0  0  0  0  0  0  0  0  0
    2.6138    1.8117   -6.5118 O   0  0  0  0  0  0  0  0  0  0  0  0
    4.1818    3.7784   -6.4558 O   0  0  0  0  0  0  0  0  0  0  0  0
    2.1374    3.6836   -4.9897 O   0  0  0  0  0  0  0  0  0  0  0  0
    6.2126    0.0362   -1.2493 C   0  0  0  0  0  0  0  0  0  0  0  0
    5.5302   -0.6146   -0.6992 H   0  0  0  0  0  0  0  0  0  0  0  0
    7.0179   -0.5835   -1.6434 H   0  0  0  0  0  0  0  0  0  0  0  0
    6.6450    0.7410   -0.5391 H   0  0  0  0  0  0  0  0  0  0  0  0
  1  6  2  0  0  0  0
  2  3  2  0  0  0  0
  2  1  1  0  0  0  0
  3  4  1  0  0  0  0
  4  9  1  0  0  0  0
  4  5  2  0  0  0  0
  5 10  1  0  0  0  0
  6  5  1  0  0  0  0
  6 11  1  0  0  0  0
  7  1  1  0  0  0  0
  8  2  1  0  0  0  0
 11 12  2  0  0  0  0
 13 11  2  0  0  0  0
 14  3  1  0  0  0  0
 15 14  1  0  0  0  0
 16 21  2  0  0  0  0
 16 17  1  0  0  0  0
 17 18  2  0  0  0  0
 18 19  1  0  0  0  0
 18 30  1  0  0  0  0
 19 24  1  0  0  0  0
 20 25  1  0  0  0  0
 20 19  2  0  0  0  0
 21 20  1  0  0  0  0
 22 16  1  0  0  0  0
 23 17  1  0  0  0  0
 26 29  1  0  0  0  0
 26 21  1  0  0  0  0
 27 26  2  0  0  0  0
 28 26  2  0  0  0  0
 30 31  1  0  0  0  0
 30 33  1  0  0  0  0
 32 30  1  0  0  0  0
M  RAD  3  14   2  15   3  29   2
M  END
