Coordinates from ORCA-job p-NO2-Ph-N2-OTs-MP2-6-31G_dp-scan-d09-49-n400
 OpenBabel02121707583D

 33 33  0  0  0  0  0  0  0  0999 V2000
    0.7533   -0.6112   -4.2639 C   0  0  0  0  0  0  0  0  0  0  0  0
    1.2663    0.4475   -5.0114 C   0  0  0  0  0  0  0  0  0  0  0  0
    1.8650    1.5220   -4.3478 C   0  0  0  0  0  0  0  0  0  0  0  0
    1.9504    1.5676   -2.9535 C   0  0  0  0  0  0  0  0  0  0  0  0
    1.4332    0.5163   -2.2003 C   0  0  0  0  0  0  0  0  0  0  0  0
    0.8493   -0.5569   -2.8733 C   0  0  0  0  0  0  0  0  0  0  0  0
    0.2839   -1.4622   -4.7364 H   0  0  0  0  0  0  0  0  0  0  0  0
    1.2145    0.4519   -6.0913 H   0  0  0  0  0  0  0  0  0  0  0  0
    2.4160    2.4237   -2.4820 H   0  0  0  0  0  0  0  0  0  0  0  0
    1.4793    0.5130   -1.1207 H   0  0  0  0  0  0  0  0  0  0  0  0
    0.3085   -1.6725   -2.0842 N   0  0  0  0  0  0  0  0  0  0  0  0
    0.4347   -1.6159   -0.8492 O   0  0  0  0  0  0  0  0  0  0  0  0
   -0.2345   -2.6036   -2.7019 O   0  0  0  0  0  0  0  0  0  0  0  0
   -1.9446    1.9968   -3.2691 N   0  0  0  0  0  0  0  0  0  0  0  0
   -1.9803    0.9731   -2.7878 N   0  0  0  0  0  0  0  0  0  0  0  0
    5.1247    0.8319   -3.9864 C   0  0  0  0  0  0  0  0  0  0  0  0
    5.8954    0.6585   -2.8365 C   0  0  0  0  0  0  0  0  0  0  0  0
    6.3970    1.7569   -2.1243 C   0  0  0  0  0  0  0  0  0  0  0  0
    6.1186    3.0485   -2.5972 C   0  0  0  0  0  0  0  0  0  0  0  0
    5.3510    3.2498   -3.7436 C   0  0  0  0  0  0  0  0  0  0  0  0
    4.8698    2.1316   -4.4295 C   0  0  0  0  0  0  0  0  0  0  0  0
    4.7488   -0.0154   -4.5455 H   0  0  0  0  0  0  0  0  0  0  0  0
    6.1103   -0.3460   -2.4888 H   0  0  0  0  0  0  0  0  0  0  0  0
    6.5113    3.9075   -2.0642 H   0  0  0  0  0  0  0  0  0  0  0  0
    5.1493    4.2453   -4.1187 H   0  0  0  0  0  0  0  0  0  0  0  0
    3.8267    2.3755   -5.8311 S   0  0  0  0  0  0  0  0  0  0  0  0
    3.7518    1.1307   -6.5882 O   0  0  0  0  0  0  0  0  0  0  0  0
    4.0976    3.6623   -6.4483 O   0  0  0  0  0  0  0  0  0  0  0  0
    2.3492    2.6155   -5.0689 O   0  0  0  0  0  0  0  0  0  0  0  0
    7.1928    1.5569   -0.8621 C   0  0  0  0  0  0  0  0  0  0  0  0
    6.5398    1.5521    0.0125 H   0  0  0  0  0  0  0  0  0  0  0  0
    7.7275    0.6080   -0.8826 H   0  0  0  0  0  0  0  0  0  0  0  0
    7.9217    2.3555   -0.7281 H   0  0  0  0  0  0  0  0  0  0  0  0
  1  6  2  0  0  0  0
  2  3  2  0  0  0  0
  2  1  1  0  0  0  0
  3  4  1  0  0  0  0
  4  9  1  0  0  0  0
  4  5  2  0  0  0  0
  5 10  1  0  0  0  0
  6  5  1  0  0  0  0
  6 11  1  0  0  0  0
  7  1  1  0  0  0  0
  8  2  1  0  0  0  0
 11 12  2  0  0  0  0
 13 11  2  0  0  0  0
 14 15  3  0  0  0  0
 16 17  1  0  0  0  0
 17 23  1  0  0  0  0
 17 18  2  0  0  0  0
 18 30  1  0  0  0  0
 19 18  1  0  0  0  0
 19 24  1  0  0  0  0
 20 19  2  0  0  0  0
 21 16  2  0  0  0  0
 21 20  1  0  0  0  0
 22 16  1  0  0  0  0
 25 20  1  0  0  0  0
 26 29  1  0  0  0  0
 26 21  1  0  0  0  0
 27 26  2  0  0  0  0
 28 26  2  0  0  0  0
 29  3  1  0  0  0  0
 30 33  1  0  0  0  0
 30 31  1  0  0  0  0
 32 30  1  0  0  0  0
M  END
