Coordinates from ORCA-job p-NO2-Ph-N2-OTs-MP2-6-31G_dp-scan-d09-49-n400
 OpenBabel02121707583D

 33 33  0  0  0  0  0  0  0  0999 V2000
    0.7766   -0.7235   -4.1487 C   0  0  0  0  0  0  0  0  0  0  0  0
    1.1855    0.3728   -4.8996 C   0  0  0  0  0  0  0  0  0  0  0  0
    1.6218    1.5311   -4.2370 C   0  0  0  0  0  0  0  0  0  0  0  0
    1.9535    1.4799   -2.8728 C   0  0  0  0  0  0  0  0  0  0  0  0
    1.5423    0.3946   -2.1094 C   0  0  0  0  0  0  0  0  0  0  0  0
    0.9476   -0.6864   -2.7634 C   0  0  0  0  0  0  0  0  0  0  0  0
    0.3681   -1.6090   -4.6145 H   0  0  0  0  0  0  0  0  0  0  0  0
    1.0667    0.3938   -5.9741 H   0  0  0  0  0  0  0  0  0  0  0  0
    2.4129    2.3469   -2.4146 H   0  0  0  0  0  0  0  0  0  0  0  0
    1.7131    0.3492   -1.0433 H   0  0  0  0  0  0  0  0  0  0  0  0
    0.5104   -1.8392   -1.9657 N   0  0  0  0  0  0  0  0  0  0  0  0
    0.7094   -1.7975   -0.7395 O   0  0  0  0  0  0  0  0  0  0  0  0
   -0.0285   -2.7835   -2.5673 O   0  0  0  0  0  0  0  0  0  0  0  0
   -0.1489    2.4507   -4.0633 N   0  0  0  0  0  0  0  0  0  0  0  0
   -1.0633    2.0575   -3.5096 N   0  0  0  0  0  0  0  0  0  0  0  0
    4.9479    0.8402   -4.0016 C   0  0  0  0  0  0  0  0  0  0  0  0
    5.7504    0.6547   -2.8770 C   0  0  0  0  0  0  0  0  0  0  0  0
    6.2334    1.7458   -2.1389 C   0  0  0  0  0  0  0  0  0  0  0  0
    5.9066    3.0417   -2.5640 C   0  0  0  0  0  0  0  0  0  0  0  0
    5.1074    3.2551   -3.6876 C   0  0  0  0  0  0  0  0  0  0  0  0
    4.6428    2.1452   -4.3963 C   0  0  0  0  0  0  0  0  0  0  0  0
    4.5792    0.0002   -4.5764 H   0  0  0  0  0  0  0  0  0  0  0  0
    6.0022   -0.3533   -2.5654 H   0  0  0  0  0  0  0  0  0  0  0  0
    6.2839    3.8950   -2.0115 H   0  0  0  0  0  0  0  0  0  0  0  0
    4.8674    4.2553   -4.0259 H   0  0  0  0  0  0  0  0  0  0  0  0
    3.5613    2.4019   -5.7656 S   0  0  0  0  0  0  0  0  0  0  0  0
    3.4912    1.1726   -6.5480 O   0  0  0  0  0  0  0  0  0  0  0  0
    3.8048    3.7033   -6.3636 O   0  0  0  0  0  0  0  0  0  0  0  0
    2.0940    2.6233   -4.9809 O   0  0  0  0  0  0  0  0  0  0  0  0
    7.0728    1.5203   -0.9095 C   0  0  0  0  0  0  0  0  0  0  0  0
    6.4612    1.1565   -0.0822 H   0  0  0  0  0  0  0  0  0  0  0  0
    7.8479    0.7774   -1.0977 H   0  0  0  0  0  0  0  0  0  0  0  0
    7.5567    2.4420   -0.5894 H   0  0  0  0  0  0  0  0  0  0  0  0
  1  6  2  0  0  0  0
  2  3  2  0  0  0  0
  2  1  1  0  0  0  0
  3  4  1  0  0  0  0
  4  9  1  0  0  0  0
  4  5  2  0  0  0  0
  5 10  1  0  0  0  0
  6  5  1  0  0  0  0
  6 11  1  0  0  0  0
  7  1  1  0  0  0  0
  8  2  1  0  0  0  0
 11 12  2  0  0  0  0
 13 11  2  0  0  0  0
 14 15  3  0  0  0  0
 16 17  1  0  0  0  0
 17 23  1  0  0  0  0
 17 18  2  0  0  0  0
 18 30  1  0  0  0  0
 19 18  1  0  0  0  0
 19 24  1  0  0  0  0
 20 19  2  0  0  0  0
 21 16  2  0  0  0  0
 21 20  1  0  0  0  0
 22 16  1  0  0  0  0
 25 20  1  0  0  0  0
 26 29  1  0  0  0  0
 26 21  1  0  0  0  0
 27 26  2  0  0  0  0
 28 26  2  0  0  0  0
 29  3  1  0  0  0  0
 30 33  1  0  0  0  0
 30 31  1  0  0  0  0
 32 30  1  0  0  0  0
M  END
