Coordinates from ORCA-job p-NO2-Ph-N2-OTs-MP2-6-31G_dp-scan-d09-49-n400
 OpenBabel02121707583D

 33 33  0  0  0  0  0  0  0  0999 V2000
    2.2197   -0.3915   -3.3953 C   0  0  0  0  0  0  0  0  0  0  0  0
    1.5868    0.1864   -4.4855 C   0  0  0  0  0  0  0  0  0  0  0  0
    0.8525    1.3838   -4.2948 C   0  0  0  0  0  0  0  0  0  0  0  0
    0.7670    2.0037   -3.0191 C   0  0  0  0  0  0  0  0  0  0  0  0
    1.4182    1.4193   -1.9491 C   0  0  0  0  0  0  0  0  0  0  0  0
    2.1384    0.2378   -2.1538 C   0  0  0  0  0  0  0  0  0  0  0  0
    2.7937   -1.3002   -3.5021 H   0  0  0  0  0  0  0  0  0  0  0  0
    1.6782   -0.2106   -5.4867 H   0  0  0  0  0  0  0  0  0  0  0  0
    0.2443    2.9469   -2.9304 H   0  0  0  0  0  0  0  0  0  0  0  0
    1.4021    1.8756   -0.9693 H   0  0  0  0  0  0  0  0  0  0  0  0
    2.8281   -0.3720   -1.0147 N   0  0  0  0  0  0  0  0  0  0  0  0
    2.9063    0.2964    0.0309 O   0  0  0  0  0  0  0  0  0  0  0  0
    3.2898   -1.5155   -1.1763 O   0  0  0  0  0  0  0  0  0  0  0  0
    0.3468    1.8880   -5.2098 N   0  0  0  0  0  0  0  0  0  0  0  0
   -0.1360    2.3895   -6.1129 N   0  0  0  0  0  0  0  0  0  0  0  0
    4.7671    0.8996   -4.6643 C   0  0  0  0  0  0  0  0  0  0  0  0
    5.4354    0.2364   -3.6327 C   0  0  0  0  0  0  0  0  0  0  0  0
    5.4669    0.7622   -2.3317 C   0  0  0  0  0  0  0  0  0  0  0  0
    4.8091    1.9801   -2.0929 C   0  0  0  0  0  0  0  0  0  0  0  0
    4.1420    2.6546   -3.1177 C   0  0  0  0  0  0  0  0  0  0  0  0
    4.1079    2.1082   -4.4045 C   0  0  0  0  0  0  0  0  0  0  0  0
    4.7419    0.4915   -5.6682 H   0  0  0  0  0  0  0  0  0  0  0  0
    5.9541   -0.6945   -3.8409 H   0  0  0  0  0  0  0  0  0  0  0  0
    4.8383    2.4104   -1.0962 H   0  0  0  0  0  0  0  0  0  0  0  0
    3.6404    3.5978   -2.9365 H   0  0  0  0  0  0  0  0  0  0  0  0
    3.2318    2.9624   -5.7253 S   0  0  0  0  0  0  0  0  0  0  0  0
    2.6385    1.8349   -6.5177 O   0  0  0  0  0  0  0  0  0  0  0  0
    4.2221    3.7856   -6.4301 O   0  0  0  0  0  0  0  0  0  0  0  0
    2.1601    3.7106   -4.9895 O   0  0  0  0  0  0  0  0  0  0  0  0
    6.1816    0.0476   -1.2149 C   0  0  0  0  0  0  0  0  0  0  0  0
    5.4816   -0.4808   -0.5649 H   0  0  0  0  0  0  0  0  0  0  0  0
    6.8865   -0.6838   -1.6095 H   0  0  0  0  0  0  0  0  0  0  0  0
    6.7371    0.7543   -0.5981 H   0  0  0  0  0  0  0  0  0  0  0  0
  1  6  2  0  0  0  0
  2  3  2  0  0  0  0
  2  1  1  0  0  0  0
  3  4  1  0  0  0  0
  4  9  1  0  0  0  0
  4  5  2  0  0  0  0
  5 10  1  0  0  0  0
  6  5  1  0  0  0  0
  6 11  1  0  0  0  0
  7  1  1  0  0  0  0
  8  2  1  0  0  0  0
 11 12  2  0  0  0  0
 13 11  2  0  0  0  0
 14  3  1  0  0  0  0
 15 14  1  0  0  0  0
 16 21  2  0  0  0  0
 16 17  1  0  0  0  0
 17 18  2  0  0  0  0
 18 19  1  0  0  0  0
 18 30  1  0  0  0  0
 19 24  1  0  0  0  0
 20 25  1  0  0  0  0
 20 19  2  0  0  0  0
 21 20  1  0  0  0  0
 22 16  1  0  0  0  0
 23 17  1  0  0  0  0
 26 29  1  0  0  0  0
 26 21  1  0  0  0  0
 27 26  2  0  0  0  0
 28 26  2  0  0  0  0
 30 33  1  0  0  0  0
 30 31  1  0  0  0  0
 32 30  1  0  0  0  0
M  RAD  3  14   2  15   3  29   2
M  END
