Coordinates from ORCA-job p-NO2-Ph-N2-OTs-MP2-6-31G_dp-scan-d09-49-n400
 OpenBabel02121707583D

 33 33  0  0  0  0  0  0  0  0999 V2000
    2.1848   -0.4342   -3.3262 C   0  0  0  0  0  0  0  0  0  0  0  0
    1.6014    0.1594   -4.4510 C   0  0  0  0  0  0  0  0  0  0  0  0
    0.9387    1.3290   -4.1692 C   0  0  0  0  0  0  0  0  0  0  0  0
    0.7738    2.0180   -2.9891 C   0  0  0  0  0  0  0  0  0  0  0  0
    1.3796    1.3980   -1.8945 C   0  0  0  0  0  0  0  0  0  0  0  0
    2.0860    0.2082   -2.0926 C   0  0  0  0  0  0  0  0  0  0  0  0
    2.7562   -1.3464   -3.4165 H   0  0  0  0  0  0  0  0  0  0  0  0
    1.7270   -0.2107   -5.4563 H   0  0  0  0  0  0  0  0  0  0  0  0
    0.2850    2.9783   -2.9308 H   0  0  0  0  0  0  0  0  0  0  0  0
    1.3570    1.8560   -0.9158 H   0  0  0  0  0  0  0  0  0  0  0  0
    2.7892   -0.3833   -0.9483 N   0  0  0  0  0  0  0  0  0  0  0  0
    2.8909    0.3084    0.0783 O   0  0  0  0  0  0  0  0  0  0  0  0
    3.2462   -1.5297   -1.0923 O   0  0  0  0  0  0  0  0  0  0  0  0
    0.3086    2.1190   -5.5387 N   0  0  0  0  0  0  0  0  0  0  0  0
   -0.3062    2.5513   -6.3856 N   0  0  0  0  0  0  0  0  0  0  0  0
    4.8013    0.9068   -4.6776 C   0  0  0  0  0  0  0  0  0  0  0  0
    5.4865    0.2506   -3.6533 C   0  0  0  0  0  0  0  0  0  0  0  0
    5.5127    0.7670   -2.3480 C   0  0  0  0  0  0  0  0  0  0  0  0
    4.8332    1.9685   -2.0981 C   0  0  0  0  0  0  0  0  0  0  0  0
    4.1443    2.6349   -3.1150 C   0  0  0  0  0  0  0  0  0  0  0  0
    4.1161    2.0966   -4.4046 C   0  0  0  0  0  0  0  0  0  0  0  0
    4.7794    0.5019   -5.6827 H   0  0  0  0  0  0  0  0  0  0  0  0
    6.0219   -0.6686   -3.8707 H   0  0  0  0  0  0  0  0  0  0  0  0
    4.8547    2.3916   -1.0984 H   0  0  0  0  0  0  0  0  0  0  0  0
    3.6226    3.5646   -2.9224 H   0  0  0  0  0  0  0  0  0  0  0  0
    3.2089    2.9310   -5.7118 S   0  0  0  0  0  0  0  0  0  0  0  0
    2.6069    1.7981   -6.4961 O   0  0  0  0  0  0  0  0  0  0  0  0
    4.1678    3.7688   -6.4416 O   0  0  0  0  0  0  0  0  0  0  0  0
    2.1277    3.6700   -4.9709 O   0  0  0  0  0  0  0  0  0  0  0  0
    6.2293    0.0435   -1.2374 C   0  0  0  0  0  0  0  0  0  0  0  0
    5.5504   -0.6095   -0.6856 H   0  0  0  0  0  0  0  0  0  0  0  0
    7.0363   -0.5732   -1.6326 H   0  0  0  0  0  0  0  0  0  0  0  0
    6.6601    0.7508   -0.5289 H   0  0  0  0  0  0  0  0  0  0  0  0
  1  6  2  0  0  0  0
  2  3  2  0  0  0  0
  2  1  1  0  0  0  0
  3  4  1  0  0  0  0
  4  9  1  0  0  0  0
  4  5  2  0  0  0  0
  5 10  1  0  0  0  0
  6  5  1  0  0  0  0
  6 11  1  0  0  0  0
  7  1  1  0  0  0  0
  8  2  1  0  0  0  0
 11 12  2  0  0  0  0
 13 11  2  0  0  0  0
 14  3  1  0  0  0  0
 15 14  1  0  0  0  0
 16 21  2  0  0  0  0
 16 17  1  0  0  0  0
 17 18  2  0  0  0  0
 18 19  1  0  0  0  0
 18 30  1  0  0  0  0
 19 24  1  0  0  0  0
 20 25  1  0  0  0  0
 20 19  2  0  0  0  0
 21 20  1  0  0  0  0
 22 16  1  0  0  0  0
 23 17  1  0  0  0  0
 26 29  1  0  0  0  0
 26 21  1  0  0  0  0
 27 26  2  0  0  0  0
 28 26  2  0  0  0  0
 30 31  1  0  0  0  0
 30 33  1  0  0  0  0
 32 30  1  0  0  0  0
M  RAD  3  14   2  15   3  29   2
M  END
