Coordinates from ORCA-job p-NO2-Ph-N2-OTs-MP2-6-31G_dp-scan-d09-49-n400
 OpenBabel02121707583D

 33 33  0  0  0  0  0  0  0  0999 V2000
    2.1955   -0.4212   -3.3272 C   0  0  0  0  0  0  0  0  0  0  0  0
    1.6171    0.1760   -4.4456 C   0  0  0  0  0  0  0  0  0  0  0  0
    0.9277    1.3616   -4.2190 C   0  0  0  0  0  0  0  0  0  0  0  0
    0.7705    2.0100   -2.9961 C   0  0  0  0  0  0  0  0  0  0  0  0
    1.3682    1.4014   -1.8986 C   0  0  0  0  0  0  0  0  0  0  0  0
    2.0858    0.2174   -2.0930 C   0  0  0  0  0  0  0  0  0  0  0  0
    2.7706   -1.3310   -3.4136 H   0  0  0  0  0  0  0  0  0  0  0  0
    1.7496   -0.2058   -5.4466 H   0  0  0  0  0  0  0  0  0  0  0  0
    0.2679    2.9640   -2.9266 H   0  0  0  0  0  0  0  0  0  0  0  0
    1.3328    1.8539   -0.9179 H   0  0  0  0  0  0  0  0  0  0  0  0
    2.7796   -0.3751   -0.9433 N   0  0  0  0  0  0  0  0  0  0  0  0
    2.8800    0.3190    0.0821 O   0  0  0  0  0  0  0  0  0  0  0  0
    3.2302   -1.5250   -1.0816 O   0  0  0  0  0  0  0  0  0  0  0  0
    0.3703    2.0391   -5.4003 N   0  0  0  0  0  0  0  0  0  0  0  0
   -0.2264    2.4782   -6.2584 N   0  0  0  0  0  0  0  0  0  0  0  0
    4.8039    0.9156   -4.6938 C   0  0  0  0  0  0  0  0  0  0  0  0
    5.4812    0.2539   -3.6678 C   0  0  0  0  0  0  0  0  0  0  0  0
    5.4966    0.7629   -2.3595 C   0  0  0  0  0  0  0  0  0  0  0  0
    4.8149    1.9635   -2.1083 C   0  0  0  0  0  0  0  0  0  0  0  0
    4.1359    2.6366   -3.1270 C   0  0  0  0  0  0  0  0  0  0  0  0
    4.1181    2.1052   -4.4198 C   0  0  0  0  0  0  0  0  0  0  0  0
    4.7894    0.5161   -5.7011 H   0  0  0  0  0  0  0  0  0  0  0  0
    6.0179   -0.6644   -3.8858 H   0  0  0  0  0  0  0  0  0  0  0  0
    4.8286    2.3809   -1.1060 H   0  0  0  0  0  0  0  0  0  0  0  0
    3.6133    3.5656   -2.9339 H   0  0  0  0  0  0  0  0  0  0  0  0
    3.2229    2.9468   -5.7302 S   0  0  0  0  0  0  0  0  0  0  0  0
    2.6185    1.8166   -6.5157 O   0  0  0  0  0  0  0  0  0  0  0  0
    4.1885    3.7815   -6.4539 O   0  0  0  0  0  0  0  0  0  0  0  0
    2.1408    3.6882   -4.9926 O   0  0  0  0  0  0  0  0  0  0  0  0
    6.2081    0.0368   -1.2475 C   0  0  0  0  0  0  0  0  0  0  0  0
    5.5201   -0.5892   -0.6760 H   0  0  0  0  0  0  0  0  0  0  0  0
    6.9928   -0.6073   -1.6437 H   0  0  0  0  0  0  0  0  0  0  0  0
    6.6675    0.7429   -0.5558 H   0  0  0  0  0  0  0  0  0  0  0  0
  1  6  2  0  0  0  0
  2  3  2  0  0  0  0
  2  1  1  0  0  0  0
  3  4  1  0  0  0  0
  4  9  1  0  0  0  0
  4  5  2  0  0  0  0
  5 10  1  0  0  0  0
  6  5  1  0  0  0  0
  6 11  1  0  0  0  0
  7  1  1  0  0  0  0
  8  2  1  0  0  0  0
 11 12  2  0  0  0  0
 13 11  2  0  0  0  0
 14  3  1  0  0  0  0
 15 14  1  0  0  0  0
 16 21  2  0  0  0  0
 16 17  1  0  0  0  0
 17 18  2  0  0  0  0
 18 19  1  0  0  0  0
 18 30  1  0  0  0  0
 19 24  1  0  0  0  0
 20 25  1  0  0  0  0
 20 19  2  0  0  0  0
 21 20  1  0  0  0  0
 22 16  1  0  0  0  0
 23 17  1  0  0  0  0
 26 29  1  0  0  0  0
 26 21  1  0  0  0  0
 27 26  2  0  0  0  0
 28 26  2  0  0  0  0
 30 31  1  0  0  0  0
 30 33  1  0  0  0  0
 32 30  1  0  0  0  0
M  RAD  3  14   2  15   3  29   2
M  END
