Coordinates from ORCA-job p-NO2-Ph-N2-OTs-MP2-6-31G_dp-scan-d09-49-n400
 OpenBabel02121707583D

 33 33  0  0  0  0  0  0  0  0999 V2000
    0.7318   -0.6809   -4.2225 C   0  0  0  0  0  0  0  0  0  0  0  0
    1.2232    0.3942   -4.9610 C   0  0  0  0  0  0  0  0  0  0  0  0
    1.8124    1.4682   -4.2888 C   0  0  0  0  0  0  0  0  0  0  0  0
    1.9305    1.4882   -2.8964 C   0  0  0  0  0  0  0  0  0  0  0  0
    1.4349    0.4205   -2.1518 C   0  0  0  0  0  0  0  0  0  0  0  0
    0.8481   -0.6464   -2.8327 C   0  0  0  0  0  0  0  0  0  0  0  0
    0.2644   -1.5298   -4.7006 H   0  0  0  0  0  0  0  0  0  0  0  0
    1.1511    0.4168   -6.0396 H   0  0  0  0  0  0  0  0  0  0  0  0
    2.3929    2.3426   -2.4188 H   0  0  0  0  0  0  0  0  0  0  0  0
    1.4998    0.3994   -1.0734 H   0  0  0  0  0  0  0  0  0  0  0  0
    0.3268   -1.7778   -2.0524 N   0  0  0  0  0  0  0  0  0  0  0  0
    0.4594   -1.7329   -0.8177 O   0  0  0  0  0  0  0  0  0  0  0  0
   -0.2097   -2.7081   -2.6770 O   0  0  0  0  0  0  0  0  0  0  0  0
   -1.2894    2.3390   -3.6422 N   0  0  0  0  0  0  0  0  0  0  0  0
   -1.7225    1.4452   -3.0991 N   0  0  0  0  0  0  0  0  0  0  0  0
    5.0975    0.8460   -3.9900 C   0  0  0  0  0  0  0  0  0  0  0  0
    5.8916    0.6749   -2.8556 C   0  0  0  0  0  0  0  0  0  0  0  0
    6.3791    1.7749   -2.1362 C   0  0  0  0  0  0  0  0  0  0  0  0
    6.0624    3.0660   -2.5860 C   0  0  0  0  0  0  0  0  0  0  0  0
    5.2712    3.2650   -3.7165 C   0  0  0  0  0  0  0  0  0  0  0  0
    4.8048    2.1452   -4.4103 C   0  0  0  0  0  0  0  0  0  0  0  0
    4.7323   -0.0021   -4.5549 H   0  0  0  0  0  0  0  0  0  0  0  0
    6.1359   -0.3289   -2.5260 H   0  0  0  0  0  0  0  0  0  0  0  0
    6.4438    3.9265   -2.0472 H   0  0  0  0  0  0  0  0  0  0  0  0
    5.0398    4.2605   -4.0739 H   0  0  0  0  0  0  0  0  0  0  0  0
    3.7324    2.3840   -5.7905 S   0  0  0  0  0  0  0  0  0  0  0  0
    3.6710    1.1471   -6.5619 O   0  0  0  0  0  0  0  0  0  0  0  0
    3.9652    3.6837   -6.3958 O   0  0  0  0  0  0  0  0  0  0  0  0
    2.2639    2.5823   -4.9997 O   0  0  0  0  0  0  0  0  0  0  0  0
    7.2008    1.5764   -0.8904 C   0  0  0  0  0  0  0  0  0  0  0  0
    6.5631    1.5453   -0.0050 H   0  0  0  0  0  0  0  0  0  0  0  0
    7.7561    0.6402   -0.9327 H   0  0  0  0  0  0  0  0  0  0  0  0
    7.9137    2.3894   -0.7579 H   0  0  0  0  0  0  0  0  0  0  0  0
  1  6  2  0  0  0  0
  2  3  2  0  0  0  0
  2  1  1  0  0  0  0
  3  4  1  0  0  0  0
  4  9  1  0  0  0  0
  4  5  2  0  0  0  0
  5 10  1  0  0  0  0
  6  5  1  0  0  0  0
  6 11  1  0  0  0  0
  7  1  1  0  0  0  0
  8  2  1  0  0  0  0
 11 12  2  0  0  0  0
 13 11  2  0  0  0  0
 14 15  3  0  0  0  0
 16 17  1  0  0  0  0
 17 23  1  0  0  0  0
 17 18  2  0  0  0  0
 18 30  1  0  0  0  0
 19 18  1  0  0  0  0
 19 24  1  0  0  0  0
 20 19  2  0  0  0  0
 21 16  2  0  0  0  0
 21 20  1  0  0  0  0
 22 16  1  0  0  0  0
 25 20  1  0  0  0  0
 26 29  1  0  0  0  0
 26 21  1  0  0  0  0
 27 26  2  0  0  0  0
 28 26  2  0  0  0  0
 29  3  1  0  0  0  0
 30 33  1  0  0  0  0
 30 31  1  0  0  0  0
 32 30  1  0  0  0  0
M  END
