Coordinates from ORCA-job p-NO2-Ph-N2-OTs-MP2-6-31G_dp-scan-d09-49-n400
 OpenBabel02121707583D

 33 33  0  0  0  0  0  0  0  0999 V2000
    0.7312   -0.7505   -4.1664 C   0  0  0  0  0  0  0  0  0  0  0  0
    1.1811    0.3431   -4.9022 C   0  0  0  0  0  0  0  0  0  0  0  0
    1.7108    1.4464   -4.2271 C   0  0  0  0  0  0  0  0  0  0  0  0
    1.9300    1.4198   -2.8464 C   0  0  0  0  0  0  0  0  0  0  0  0
    1.4764    0.3349   -2.1019 C   0  0  0  0  0  0  0  0  0  0  0  0
    0.8906   -0.7347   -2.7802 C   0  0  0  0  0  0  0  0  0  0  0  0
    0.2861   -1.6111   -4.6450 H   0  0  0  0  0  0  0  0  0  0  0  0
    1.0733    0.3807   -5.9774 H   0  0  0  0  0  0  0  0  0  0  0  0
    2.3864    2.2781   -2.3696 H   0  0  0  0  0  0  0  0  0  0  0  0
    1.5953    0.2900   -1.0289 H   0  0  0  0  0  0  0  0  0  0  0  0
    0.4134   -1.8859   -2.0011 N   0  0  0  0  0  0  0  0  0  0  0  0
    0.5879   -1.8585   -0.7709 O   0  0  0  0  0  0  0  0  0  0  0  0
   -0.1305   -2.8146   -2.6219 O   0  0  0  0  0  0  0  0  0  0  0  0
   -0.3900    2.5554   -4.0307 N   0  0  0  0  0  0  0  0  0  0  0  0
   -1.2922    2.1135   -3.5045 N   0  0  0  0  0  0  0  0  0  0  0  0
    5.0249    0.8577   -4.0013 C   0  0  0  0  0  0  0  0  0  0  0  0
    5.8399    0.6828   -2.8826 C   0  0  0  0  0  0  0  0  0  0  0  0
    6.3119    1.7793   -2.1476 C   0  0  0  0  0  0  0  0  0  0  0  0
    5.9584    3.0713   -2.5662 C   0  0  0  0  0  0  0  0  0  0  0  0
    5.1463    3.2741   -3.6812 C   0  0  0  0  0  0  0  0  0  0  0  0
    4.6952    2.1577   -4.3904 C   0  0  0  0  0  0  0  0  0  0  0  0
    4.6692    0.0129   -4.5771 H   0  0  0  0  0  0  0  0  0  0  0  0
    6.1125   -0.3214   -2.5770 H   0  0  0  0  0  0  0  0  0  0  0  0
    6.3277    3.9297   -2.0156 H   0  0  0  0  0  0  0  0  0  0  0  0
    4.8867    4.2709   -4.0151 H   0  0  0  0  0  0  0  0  0  0  0  0
    3.5976    2.3993   -5.7498 S   0  0  0  0  0  0  0  0  0  0  0  0
    3.5457    1.1733   -6.5391 O   0  0  0  0  0  0  0  0  0  0  0  0
    3.8029    3.7107   -6.3401 O   0  0  0  0  0  0  0  0  0  0  0  0
    2.1369    2.5695   -4.9386 O   0  0  0  0  0  0  0  0  0  0  0  0
    7.1561    1.5749   -0.9179 C   0  0  0  0  0  0  0  0  0  0  0  0
    6.5318    1.5022   -0.0254 H   0  0  0  0  0  0  0  0  0  0  0  0
    7.7388    0.6574   -0.9911 H   0  0  0  0  0  0  0  0  0  0  0  0
    7.8460    2.4057   -0.7740 H   0  0  0  0  0  0  0  0  0  0  0  0
  1  6  2  0  0  0  0
  2  3  2  0  0  0  0
  2  1  1  0  0  0  0
  3  4  1  0  0  0  0
  4  9  1  0  0  0  0
  4  5  2  0  0  0  0
  5 10  1  0  0  0  0
  6  5  1  0  0  0  0
  6 11  1  0  0  0  0
  7  1  1  0  0  0  0
  8  2  1  0  0  0  0
 11 12  2  0  0  0  0
 13 11  2  0  0  0  0
 14 15  3  0  0  0  0
 16 17  1  0  0  0  0
 17 23  1  0  0  0  0
 17 18  2  0  0  0  0
 18 30  1  0  0  0  0
 19 18  1  0  0  0  0
 19 24  1  0  0  0  0
 20 19  2  0  0  0  0
 21 16  2  0  0  0  0
 21 20  1  0  0  0  0
 22 16  1  0  0  0  0
 25 20  1  0  0  0  0
 26 29  1  0  0  0  0
 26 21  1  0  0  0  0
 27 26  2  0  0  0  0
 28 26  2  0  0  0  0
 29  3  1  0  0  0  0
 30 33  1  0  0  0  0
 30 31  1  0  0  0  0
 32 30  1  0  0  0  0
M  END
