Coordinates from ORCA-job p-NO2-Ph-N2-OTs-MP2-6-31G_dp-scan-d09-49-n400
 OpenBabel02121707583D

 33 33  0  0  0  0  0  0  0  0999 V2000
    0.7494   -0.5959   -4.2724 C   0  0  0  0  0  0  0  0  0  0  0  0
    1.2725    0.4574   -5.0205 C   0  0  0  0  0  0  0  0  0  0  0  0
    1.8723    1.5311   -4.3571 C   0  0  0  0  0  0  0  0  0  0  0  0
    1.9580    1.5771   -2.9629 C   0  0  0  0  0  0  0  0  0  0  0  0
    1.4309    0.5312   -2.2091 C   0  0  0  0  0  0  0  0  0  0  0  0
    0.8426   -0.5398   -2.8818 C   0  0  0  0  0  0  0  0  0  0  0  0
    0.2754   -1.4445   -4.7444 H   0  0  0  0  0  0  0  0  0  0  0  0
    1.2229    0.4606   -6.1005 H   0  0  0  0  0  0  0  0  0  0  0  0
    2.4265    2.4318   -2.4919 H   0  0  0  0  0  0  0  0  0  0  0  0
    1.4736    0.5298   -1.1294 H   0  0  0  0  0  0  0  0  0  0  0  0
    0.2804   -1.6437   -2.0915 N   0  0  0  0  0  0  0  0  0  0  0  0
    0.4032   -1.5857   -0.8562 O   0  0  0  0  0  0  0  0  0  0  0  0
   -0.2774   -2.5665   -2.7085 O   0  0  0  0  0  0  0  0  0  0  0  0
   -1.9900    1.8903   -3.2001 N   0  0  0  0  0  0  0  0  0  0  0  0
   -1.9815    0.8603   -2.7313 N   0  0  0  0  0  0  0  0  0  0  0  0
    5.1306    0.8313   -3.9857 C   0  0  0  0  0  0  0  0  0  0  0  0
    5.8981    0.6583   -2.8336 C   0  0  0  0  0  0  0  0  0  0  0  0
    6.4011    1.7568   -2.1226 C   0  0  0  0  0  0  0  0  0  0  0  0
    6.1276    3.0482   -2.5991 C   0  0  0  0  0  0  0  0  0  0  0  0
    5.3633    3.2491   -3.7477 C   0  0  0  0  0  0  0  0  0  0  0  0
    4.8805    2.1307   -4.4323 C   0  0  0  0  0  0  0  0  0  0  0  0
    4.7535   -0.0162   -4.5437 H   0  0  0  0  0  0  0  0  0  0  0  0
    6.1093   -0.3461   -2.4831 H   0  0  0  0  0  0  0  0  0  0  0  0
    6.5215    3.9072   -2.0671 H   0  0  0  0  0  0  0  0  0  0  0  0
    5.1653    4.2443   -4.1256 H   0  0  0  0  0  0  0  0  0  0  0  0
    3.8416    2.3745   -5.8370 S   0  0  0  0  0  0  0  0  0  0  0  0
    3.7644    1.1281   -6.5911 O   0  0  0  0  0  0  0  0  0  0  0  0
    4.1181    3.6588   -6.4567 O   0  0  0  0  0  0  0  0  0  0  0  0
    2.3630    2.6212   -5.0789 O   0  0  0  0  0  0  0  0  0  0  0  0
    7.1935    1.5574   -0.8581 C   0  0  0  0  0  0  0  0  0  0  0  0
    6.5384    1.5567    0.0150 H   0  0  0  0  0  0  0  0  0  0  0  0
    7.7253    0.6068   -0.8751 H   0  0  0  0  0  0  0  0  0  0  0  0
    7.9244    2.3540   -0.7243 H   0  0  0  0  0  0  0  0  0  0  0  0
  1  6  2  0  0  0  0
  2  3  2  0  0  0  0
  2  1  1  0  0  0  0
  3  4  1  0  0  0  0
  4  9  1  0  0  0  0
  4  5  2  0  0  0  0
  5 10  1  0  0  0  0
  6  5  1  0  0  0  0
  6 11  1  0  0  0  0
  7  1  1  0  0  0  0
  8  2  1  0  0  0  0
 11 12  2  0  0  0  0
 13 11  2  0  0  0  0
 14 15  3  0  0  0  0
 16 17  1  0  0  0  0
 17 23  1  0  0  0  0
 17 18  2  0  0  0  0
 18 30  1  0  0  0  0
 19 18  1  0  0  0  0
 19 24  1  0  0  0  0
 20 19  2  0  0  0  0
 21 16  2  0  0  0  0
 21 20  1  0  0  0  0
 22 16  1  0  0  0  0
 25 20  1  0  0  0  0
 26 29  1  0  0  0  0
 26 21  1  0  0  0  0
 27 26  2  0  0  0  0
 28 26  2  0  0  0  0
 29  3  1  0  0  0  0
 30 33  1  0  0  0  0
 30 31  1  0  0  0  0
 32 30  1  0  0  0  0
M  END
