Coordinates from ORCA-job p-NO2-Ph-N2-OTs-MP2-6-31G_dp-scan-d09-49-n400
 OpenBabel02121707583D

 33 33  0  0  0  0  0  0  0  0999 V2000
    0.7486   -0.5443   -4.2974 C   0  0  0  0  0  0  0  0  0  0  0  0
    1.2953    0.4936   -5.0500 C   0  0  0  0  0  0  0  0  0  0  0  0
    1.9023    1.5656   -4.3905 C   0  0  0  0  0  0  0  0  0  0  0  0
    1.9774    1.6221   -2.9963 C   0  0  0  0  0  0  0  0  0  0  0  0
    1.4270    0.5915   -2.2381 C   0  0  0  0  0  0  0  0  0  0  0  0
    0.8297   -0.4771   -2.9066 C   0  0  0  0  0  0  0  0  0  0  0  0
    0.2678   -1.3908   -4.7665 H   0  0  0  0  0  0  0  0  0  0  0  0
    1.2561    0.4867   -6.1305 H   0  0  0  0  0  0  0  0  0  0  0  0
    2.4537    2.4740   -2.5278 H   0  0  0  0  0  0  0  0  0  0  0  0
    1.4614    0.5985   -1.1581 H   0  0  0  0  0  0  0  0  0  0  0  0
    0.2478   -1.5674   -2.1120 N   0  0  0  0  0  0  0  0  0  0  0  0
    0.3776   -1.5097   -0.8775 O   0  0  0  0  0  0  0  0  0  0  0  0
   -0.3323   -2.4789   -2.7248 O   0  0  0  0  0  0  0  0  0  0  0  0
   -2.3131    1.5909   -2.9685 N   0  0  0  0  0  0  0  0  0  0  0  0
   -2.1135    0.5554   -2.5586 N   0  0  0  0  0  0  0  0  0  0  0  0
    5.1481    0.8246   -3.9830 C   0  0  0  0  0  0  0  0  0  0  0  0
    5.9026    0.6512   -2.8224 C   0  0  0  0  0  0  0  0  0  0  0  0
    6.4137    1.7490   -2.1160 C   0  0  0  0  0  0  0  0  0  0  0  0
    6.1619    3.0397   -2.6059 C   0  0  0  0  0  0  0  0  0  0  0  0
    5.4111    3.2410   -3.7632 C   0  0  0  0  0  0  0  0  0  0  0  0
    4.9195    2.1234   -4.4428 C   0  0  0  0  0  0  0  0  0  0  0  0
    4.7648   -0.0224   -4.5374 H   0  0  0  0  0  0  0  0  0  0  0  0
    6.0970   -0.3528   -2.4615 H   0  0  0  0  0  0  0  0  0  0  0  0
    6.5624    3.8979   -2.0774 H   0  0  0  0  0  0  0  0  0  0  0  0
    5.2299    4.2356   -4.1512 H   0  0  0  0  0  0  0  0  0  0  0  0
    3.8970    2.3691   -5.8592 S   0  0  0  0  0  0  0  0  0  0  0  0
    3.8102    1.1174   -6.6035 O   0  0  0  0  0  0  0  0  0  0  0  0
    4.1969    3.6441   -6.4873 O   0  0  0  0  0  0  0  0  0  0  0  0
    2.4151    2.6424   -5.1175 O   0  0  0  0  0  0  0  0  0  0  0  0
    7.1915    1.5497   -0.8425 C   0  0  0  0  0  0  0  0  0  0  0  0
    6.5283    1.5642    0.0244 H   0  0  0  0  0  0  0  0  0  0  0  0
    7.7114    0.5924   -0.8469 H   0  0  0  0  0  0  0  0  0  0  0  0
    7.9312    2.3381   -0.7080 H   0  0  0  0  0  0  0  0  0  0  0  0
  1  6  2  0  0  0  0
  2  3  2  0  0  0  0
  2  1  1  0  0  0  0
  3  4  1  0  0  0  0
  4  9  1  0  0  0  0
  4  5  2  0  0  0  0
  5 10  1  0  0  0  0
  6  5  1  0  0  0  0
  6 11  1  0  0  0  0
  7  1  1  0  0  0  0
  8  2  1  0  0  0  0
 11 12  2  0  0  0  0
 13 11  2  0  0  0  0
 14 15  3  0  0  0  0
 16 17  1  0  0  0  0
 17 23  1  0  0  0  0
 17 18  2  0  0  0  0
 18 30  1  0  0  0  0
 19 18  1  0  0  0  0
 19 24  1  0  0  0  0
 20 19  2  0  0  0  0
 21 16  2  0  0  0  0
 21 20  1  0  0  0  0
 22 16  1  0  0  0  0
 25 20  1  0  0  0  0
 26 29  1  0  0  0  0
 26 21  1  0  0  0  0
 27 26  2  0  0  0  0
 28 26  2  0  0  0  0
 29  3  1  0  0  0  0
 30 33  1  0  0  0  0
 30 31  1  0  0  0  0
 32 30  1  0  0  0  0
M  END
