Coordinates from ORCA-job p-NO2-Ph-N2-OTs-MP2-6-31G_dp-scan-d09-49-n400
 OpenBabel02121707583D

 33 33  0  0  0  0  0  0  0  0999 V2000
    2.2080   -0.4098   -3.3776 C   0  0  0  0  0  0  0  0  0  0  0  0
    1.5907    0.1778   -4.4746 C   0  0  0  0  0  0  0  0  0  0  0  0
    0.8764    1.3718   -4.2668 C   0  0  0  0  0  0  0  0  0  0  0  0
    0.7688    2.0007   -3.0097 C   0  0  0  0  0  0  0  0  0  0  0  0
    1.4035    1.4068   -1.9316 C   0  0  0  0  0  0  0  0  0  0  0  0
    2.1226    0.2249   -2.1390 C   0  0  0  0  0  0  0  0  0  0  0  0
    2.7828   -1.3184   -3.4783 H   0  0  0  0  0  0  0  0  0  0  0  0
    1.6923   -0.2153   -5.4759 H   0  0  0  0  0  0  0  0  0  0  0  0
    0.2533    2.9475   -2.9232 H   0  0  0  0  0  0  0  0  0  0  0  0
    1.3867    1.8598   -0.9506 H   0  0  0  0  0  0  0  0  0  0  0  0
    2.8198   -0.3796   -0.9986 N   0  0  0  0  0  0  0  0  0  0  0  0
    2.9069    0.2962    0.0407 O   0  0  0  0  0  0  0  0  0  0  0  0
    3.2810   -1.5231   -1.1558 O   0  0  0  0  0  0  0  0  0  0  0  0
    0.3435    1.9428   -5.2820 N   0  0  0  0  0  0  0  0  0  0  0  0
   -0.1596    2.4342   -6.1760 N   0  0  0  0  0  0  0  0  0  0  0  0
    4.7746    0.9047   -4.6696 C   0  0  0  0  0  0  0  0  0  0  0  0
    5.4455    0.2425   -3.6390 C   0  0  0  0  0  0  0  0  0  0  0  0
    5.4741    0.7654   -2.3368 C   0  0  0  0  0  0  0  0  0  0  0  0
    4.8107    1.9793   -2.0956 C   0  0  0  0  0  0  0  0  0  0  0  0
    4.1398    2.6525   -3.1191 C   0  0  0  0  0  0  0  0  0  0  0  0
    4.1089    2.1087   -4.4070 C   0  0  0  0  0  0  0  0  0  0  0  0
    4.7511    0.4973   -5.6736 H   0  0  0  0  0  0  0  0  0  0  0  0
    5.9678   -0.6859   -3.8490 H   0  0  0  0  0  0  0  0  0  0  0  0
    4.8365    2.4075   -1.0979 H   0  0  0  0  0  0  0  0  0  0  0  0
    3.6330    3.5922   -2.9351 H   0  0  0  0  0  0  0  0  0  0  0  0
    3.2307    2.9599   -5.7262 S   0  0  0  0  0  0  0  0  0  0  0  0
    2.6343    1.8323   -6.5177 O   0  0  0  0  0  0  0  0  0  0  0  0
    4.2165    3.7848   -6.4352 O   0  0  0  0  0  0  0  0  0  0  0  0
    2.1559    3.7084   -4.9925 O   0  0  0  0  0  0  0  0  0  0  0  0
    6.1901    0.0504   -1.2207 C   0  0  0  0  0  0  0  0  0  0  0  0
    5.4899   -0.4700   -0.5646 H   0  0  0  0  0  0  0  0  0  0  0  0
    6.8877   -0.6875   -1.6160 H   0  0  0  0  0  0  0  0  0  0  0  0
    6.7542    0.7557   -0.6100 H   0  0  0  0  0  0  0  0  0  0  0  0
  1  6  2  0  0  0  0
  2  3  2  0  0  0  0
  2  1  1  0  0  0  0
  3  4  1  0  0  0  0
  4  9  1  0  0  0  0
  4  5  2  0  0  0  0
  5 10  1  0  0  0  0
  6  5  1  0  0  0  0
  6 11  1  0  0  0  0
  7  1  1  0  0  0  0
  8  2  1  0  0  0  0
 11 12  2  0  0  0  0
 13 11  2  0  0  0  0
 14  3  1  0  0  0  0
 15 14  1  0  0  0  0
 16 21  2  0  0  0  0
 16 17  1  0  0  0  0
 17 18  2  0  0  0  0
 18 19  1  0  0  0  0
 18 30  1  0  0  0  0
 19 24  1  0  0  0  0
 20 25  1  0  0  0  0
 20 19  2  0  0  0  0
 21 20  1  0  0  0  0
 22 16  1  0  0  0  0
 23 17  1  0  0  0  0
 26 29  1  0  0  0  0
 26 21  1  0  0  0  0
 27 26  2  0  0  0  0
 28 26  2  0  0  0  0
 30 33  1  0  0  0  0
 30 31  1  0  0  0  0
 32 30  1  0  0  0  0
M  RAD  3  14   2  15   3  29   2
M  END
