Coordinates from ORCA-job p-NO2-Ph-N2-OTs-MP2-6-31G_dp-scan-d09-49-n400
 OpenBabel02121707583D

 33 33  0  0  0  0  0  0  0  0999 V2000
    0.7546   -0.5173   -4.3098 C   0  0  0  0  0  0  0  0  0  0  0  0
    1.3121    0.5130   -5.0649 C   0  0  0  0  0  0  0  0  0  0  0  0
    1.9220    1.5846   -4.4076 C   0  0  0  0  0  0  0  0  0  0  0  0
    1.9893    1.6484   -3.0133 C   0  0  0  0  0  0  0  0  0  0  0  0
    1.4263    0.6263   -2.2528 C   0  0  0  0  0  0  0  0  0  0  0  0
    0.8263   -0.4423   -2.9188 C   0  0  0  0  0  0  0  0  0  0  0  0
    0.2719   -1.3638   -4.7768 H   0  0  0  0  0  0  0  0  0  0  0  0
    1.2785    0.5009   -6.1455 H   0  0  0  0  0  0  0  0  0  0  0  0
    2.4695    2.4991   -2.5467 H   0  0  0  0  0  0  0  0  0  0  0  0
    1.4523    0.6401   -1.1727 H   0  0  0  0  0  0  0  0  0  0  0  0
    0.2328   -1.5244   -2.1221 N   0  0  0  0  0  0  0  0  0  0  0  0
    0.2942   -1.4257   -0.8850 O   0  0  0  0  0  0  0  0  0  0  0  0
   -0.2895   -2.4697   -2.7355 O   0  0  0  0  0  0  0  0  0  0  0  0
   -2.6248    1.4078   -2.7883 N   0  0  0  0  0  0  0  0  0  0  0  0
   -2.1497    0.4183   -2.5142 N   0  0  0  0  0  0  0  0  0  0  0  0
    5.1597    0.8206   -3.9830 C   0  0  0  0  0  0  0  0  0  0  0  0
    5.9078    0.6458   -2.8184 C   0  0  0  0  0  0  0  0  0  0  0  0
    6.4246    1.7423   -2.1142 C   0  0  0  0  0  0  0  0  0  0  0  0
    6.1852    3.0330   -2.6102 C   0  0  0  0  0  0  0  0  0  0  0  0
    5.4409    3.2357   -3.7715 C   0  0  0  0  0  0  0  0  0  0  0  0
    4.9434    2.1193   -4.4489 C   0  0  0  0  0  0  0  0  0  0  0  0
    4.7720   -0.0256   -4.5357 H   0  0  0  0  0  0  0  0  0  0  0  0
    6.0927   -0.3583   -2.4529 H   0  0  0  0  0  0  0  0  0  0  0  0
    6.5903    3.8901   -2.0834 H   0  0  0  0  0  0  0  0  0  0  0  0
    5.2694    4.2301   -4.1642 H   0  0  0  0  0  0  0  0  0  0  0  0
    3.9292    2.3675   -5.8708 S   0  0  0  0  0  0  0  0  0  0  0  0
    3.8369    1.1138   -6.6112 O   0  0  0  0  0  0  0  0  0  0  0  0
    4.2415    3.6380   -6.5020 O   0  0  0  0  0  0  0  0  0  0  0  0
    2.4460    2.6545   -5.1373 O   0  0  0  0  0  0  0  0  0  0  0  0
    7.1955    1.5419   -0.8366 C   0  0  0  0  0  0  0  0  0  0  0  0
    6.5289    1.5657    0.0274 H   0  0  0  0  0  0  0  0  0  0  0  0
    7.7073    0.5803   -0.8349 H   0  0  0  0  0  0  0  0  0  0  0  0
    7.9413    2.3246   -0.7024 H   0  0  0  0  0  0  0  0  0  0  0  0
  1  6  2  0  0  0  0
  2  3  2  0  0  0  0
  2  1  1  0  0  0  0
  3  4  1  0  0  0  0
  4  9  1  0  0  0  0
  4  5  2  0  0  0  0
  5 10  1  0  0  0  0
  6  5  1  0  0  0  0
  6 11  1  0  0  0  0
  7  1  1  0  0  0  0
  8  2  1  0  0  0  0
 11 12  2  0  0  0  0
 13 11  2  0  0  0  0
 14 15  3  0  0  0  0
 16 17  1  0  0  0  0
 17 23  1  0  0  0  0
 17 18  2  0  0  0  0
 18 30  1  0  0  0  0
 19 18  1  0  0  0  0
 19 24  1  0  0  0  0
 20 19  2  0  0  0  0
 21 16  2  0  0  0  0
 21 20  1  0  0  0  0
 22 16  1  0  0  0  0
 25 20  1  0  0  0  0
 26 29  1  0  0  0  0
 26 21  1  0  0  0  0
 27 26  2  0  0  0  0
 28 26  2  0  0  0  0
 29  3  1  0  0  0  0
 30 32  1  0  0  0  0
 30 33  1  0  0  0  0
 30 31  1  0  0  0  0
M  END
