Coordinates from ORCA-job p-NO2-Ph-N2-OTs-MP2-6-31G_dp-scan-d09-49-n400
 OpenBabel02121707583D

 33 33  0  0  0  0  0  0  0  0999 V2000
    2.2173   -0.3958   -3.3922 C   0  0  0  0  0  0  0  0  0  0  0  0
    1.5863    0.1838   -4.4834 C   0  0  0  0  0  0  0  0  0  0  0  0
    0.8567    1.3803   -4.2879 C   0  0  0  0  0  0  0  0  0  0  0  0
    0.7668    2.0028   -3.0168 C   0  0  0  0  0  0  0  0  0  0  0  0
    1.4155    1.4168   -1.9454 C   0  0  0  0  0  0  0  0  0  0  0  0
    2.1356    0.2352   -2.1515 C   0  0  0  0  0  0  0  0  0  0  0  0
    2.7918   -1.3042   -3.4977 H   0  0  0  0  0  0  0  0  0  0  0  0
    1.6791   -0.2129   -5.4845 H   0  0  0  0  0  0  0  0  0  0  0  0
    0.2454    2.9465   -2.9280 H   0  0  0  0  0  0  0  0  0  0  0  0
    1.4003    1.8722   -0.9653 H   0  0  0  0  0  0  0  0  0  0  0  0
    2.8273   -0.3736   -1.0122 N   0  0  0  0  0  0  0  0  0  0  0  0
    2.9071    0.2961    0.0322 O   0  0  0  0  0  0  0  0  0  0  0  0
    3.2892   -1.5168   -1.1732 O   0  0  0  0  0  0  0  0  0  0  0  0
    0.3427    1.9003   -5.2277 N   0  0  0  0  0  0  0  0  0  0  0  0
   -0.1416    2.4007   -6.1300 N   0  0  0  0  0  0  0  0  0  0  0  0
    4.7681    0.9004   -4.6647 C   0  0  0  0  0  0  0  0  0  0  0  0
    5.4372    0.2374   -3.6333 C   0  0  0  0  0  0  0  0  0  0  0  0
    5.4685    0.7629   -2.3322 C   0  0  0  0  0  0  0  0  0  0  0  0
    4.8099    1.9802   -2.0930 C   0  0  0  0  0  0  0  0  0  0  0  0
    4.1419    2.6544   -3.1175 C   0  0  0  0  0  0  0  0  0  0  0  0
    4.1078    2.1082   -4.4043 C   0  0  0  0  0  0  0  0  0  0  0  0
    4.7429    0.4922   -5.6685 H   0  0  0  0  0  0  0  0  0  0  0  0
    5.9564   -0.6931   -3.8418 H   0  0  0  0  0  0  0  0  0  0  0  0
    4.8389    2.4104   -1.0962 H   0  0  0  0  0  0  0  0  0  0  0  0
    3.6396    3.5970   -2.9358 H   0  0  0  0  0  0  0  0  0  0  0  0
    3.2319    2.9619   -5.7250 S   0  0  0  0  0  0  0  0  0  0  0  0
    2.6379    1.8346   -6.5174 O   0  0  0  0  0  0  0  0  0  0  0  0
    4.2220    3.7850   -6.4303 O   0  0  0  0  0  0  0  0  0  0  0  0
    2.1596    3.7106   -4.9900 O   0  0  0  0  0  0  0  0  0  0  0  0
    6.1839    0.0484   -1.2157 C   0  0  0  0  0  0  0  0  0  0  0  0
    5.4839   -0.4780   -0.5639 H   0  0  0  0  0  0  0  0  0  0  0  0
    6.8869   -0.6845   -1.6104 H   0  0  0  0  0  0  0  0  0  0  0  0
    6.7415    0.7550   -0.6005 H   0  0  0  0  0  0  0  0  0  0  0  0
  1  6  2  0  0  0  0
  2  3  2  0  0  0  0
  2  1  1  0  0  0  0
  3  4  1  0  0  0  0
  4  9  1  0  0  0  0
  4  5  2  0  0  0  0
  5 10  1  0  0  0  0
  6  5  1  0  0  0  0
  6 11  1  0  0  0  0
  7  1  1  0  0  0  0
  8  2  1  0  0  0  0
 11 12  2  0  0  0  0
 13 11  2  0  0  0  0
 14  3  1  0  0  0  0
 15 14  1  0  0  0  0
 16 21  2  0  0  0  0
 16 17  1  0  0  0  0
 17 18  2  0  0  0  0
 18 19  1  0  0  0  0
 18 30  1  0  0  0  0
 19 24  1  0  0  0  0
 20 25  1  0  0  0  0
 20 19  2  0  0  0  0
 21 20  1  0  0  0  0
 22 16  1  0  0  0  0
 23 17  1  0  0  0  0
 26 29  1  0  0  0  0
 26 21  1  0  0  0  0
 27 26  2  0  0  0  0
 28 26  2  0  0  0  0
 30 33  1  0  0  0  0
 30 31  1  0  0  0  0
 32 30  1  0  0  0  0
M  RAD  3  14   2  15   3  29   2
M  END
