Coordinates from ORCA-job p-NO2-Ph-N2-OTs-MP2-6-31G_dp-scan-d09-49-n400
 OpenBabel02121707583D

 33 33  0  0  0  0  0  0  0  0999 V2000
    2.1905   -0.4287   -3.3173 C   0  0  0  0  0  0  0  0  0  0  0  0
    1.6152    0.1673   -4.4419 C   0  0  0  0  0  0  0  0  0  0  0  0
    0.9405    1.3434   -4.1860 C   0  0  0  0  0  0  0  0  0  0  0  0
    0.7724    2.0144   -2.9888 C   0  0  0  0  0  0  0  0  0  0  0  0
    1.3691    1.3988   -1.8899 C   0  0  0  0  0  0  0  0  0  0  0  0
    2.0817    0.2120   -2.0839 C   0  0  0  0  0  0  0  0  0  0  0  0
    2.7644   -1.3396   -3.4033 H   0  0  0  0  0  0  0  0  0  0  0  0
    1.7484   -0.2074   -5.4448 H   0  0  0  0  0  0  0  0  0  0  0  0
    0.2766    2.9716   -2.9274 H   0  0  0  0  0  0  0  0  0  0  0  0
    1.3364    1.8539   -0.9103 H   0  0  0  0  0  0  0  0  0  0  0  0
    2.7785   -0.3784   -0.9350 N   0  0  0  0  0  0  0  0  0  0  0  0
    2.8777    0.3157    0.0903 O   0  0  0  0  0  0  0  0  0  0  0  0
    3.2289   -1.5283   -1.0724 O   0  0  0  0  0  0  0  0  0  0  0  0
    0.3462    2.0919   -5.4838 N   0  0  0  0  0  0  0  0  0  0  0  0
   -0.2676    2.5225   -6.3332 N   0  0  0  0  0  0  0  0  0  0  0  0
    4.8062    0.9134   -4.6911 C   0  0  0  0  0  0  0  0  0  0  0  0
    5.4885    0.2545   -3.6667 C   0  0  0  0  0  0  0  0  0  0  0  0
    5.5064    0.7645   -2.3587 C   0  0  0  0  0  0  0  0  0  0  0  0
    4.8224    1.9630   -2.1063 C   0  0  0  0  0  0  0  0  0  0  0  0
    4.1371    2.6328   -3.1233 C   0  0  0  0  0  0  0  0  0  0  0  0
    4.1168    2.1003   -4.4155 C   0  0  0  0  0  0  0  0  0  0  0  0
    4.7902    0.5130   -5.6980 H   0  0  0  0  0  0  0  0  0  0  0  0
    6.0273   -0.6623   -3.8859 H   0  0  0  0  0  0  0  0  0  0  0  0
    4.8377    2.3812   -1.1044 H   0  0  0  0  0  0  0  0  0  0  0  0
    3.6123    3.5603   -2.9290 H   0  0  0  0  0  0  0  0  0  0  0  0
    3.2154    2.9381   -5.7238 S   0  0  0  0  0  0  0  0  0  0  0  0
    2.6090    1.8073   -6.5081 O   0  0  0  0  0  0  0  0  0  0  0  0
    4.1784    3.7723   -6.4517 O   0  0  0  0  0  0  0  0  0  0  0  0
    2.1337    3.6804   -4.9859 O   0  0  0  0  0  0  0  0  0  0  0  0
    6.2202    0.0380   -1.2483 C   0  0  0  0  0  0  0  0  0  0  0  0
    5.5407   -0.6186   -0.7014 H   0  0  0  0  0  0  0  0  0  0  0  0
    7.0298   -0.5756   -1.6429 H   0  0  0  0  0  0  0  0  0  0  0  0
    6.6471    0.7433   -0.5354 H   0  0  0  0  0  0  0  0  0  0  0  0
  1  6  2  0  0  0  0
  2  3  2  0  0  0  0
  2  1  1  0  0  0  0
  3  4  1  0  0  0  0
  4  9  1  0  0  0  0
  4  5  2  0  0  0  0
  5 10  1  0  0  0  0
  6  5  1  0  0  0  0
  6 11  1  0  0  0  0
  7  1  1  0  0  0  0
  8  2  1  0  0  0  0
 11 12  2  0  0  0  0
 13 11  2  0  0  0  0
 14  3  1  0  0  0  0
 15 14  1  0  0  0  0
 16 21  2  0  0  0  0
 16 17  1  0  0  0  0
 17 18  2  0  0  0  0
 18 19  1  0  0  0  0
 18 30  1  0  0  0  0
 19 24  1  0  0  0  0
 20 25  1  0  0  0  0
 20 19  2  0  0  0  0
 21 20  1  0  0  0  0
 22 16  1  0  0  0  0
 23 17  1  0  0  0  0
 26 29  1  0  0  0  0
 26 21  1  0  0  0  0
 27 26  2  0  0  0  0
 28 26  2  0  0  0  0
 30 31  1  0  0  0  0
 30 33  1  0  0  0  0
 32 30  1  0  0  0  0
M  RAD  3  14   2  15   3  29   2
M  END
