Coordinates from ORCA-job p-NO2-Ph-N2-OTs-MP2-6-31G_dp-scan-d09-49-n400
 OpenBabel02121707583D

 33 33  0  0  0  0  0  0  0  0999 V2000
    0.7526   -0.5885   -4.2761 C   0  0  0  0  0  0  0  0  0  0  0  0
    1.2770    0.4633   -5.0253 C   0  0  0  0  0  0  0  0  0  0  0  0
    1.8781    1.5370   -4.3631 C   0  0  0  0  0  0  0  0  0  0  0  0
    1.9597    1.5867   -2.9690 C   0  0  0  0  0  0  0  0  0  0  0  0
    1.4312    0.5424   -2.2139 C   0  0  0  0  0  0  0  0  0  0  0  0
    0.8429   -0.5294   -2.8853 C   0  0  0  0  0  0  0  0  0  0  0  0
    0.2792   -1.4379   -4.7473 H   0  0  0  0  0  0  0  0  0  0  0  0
    1.2302    0.4639   -6.1055 H   0  0  0  0  0  0  0  0  0  0  0  0
    2.4289    2.4416   -2.4989 H   0  0  0  0  0  0  0  0  0  0  0  0
    1.4725    0.5431   -1.1341 H   0  0  0  0  0  0  0  0  0  0  0  0
    0.2857   -1.6351   -2.0940 N   0  0  0  0  0  0  0  0  0  0  0  0
    0.4109   -1.5768   -0.8591 O   0  0  0  0  0  0  0  0  0  0  0  0
   -0.2697   -2.5600   -2.7100 O   0  0  0  0  0  0  0  0  0  0  0  0
   -2.0692    1.8560   -3.1627 N   0  0  0  0  0  0  0  0  0  0  0  0
   -2.0250    0.8231   -2.7023 N   0  0  0  0  0  0  0  0  0  0  0  0
    5.1329    0.8295   -3.9855 C   0  0  0  0  0  0  0  0  0  0  0  0
    5.8978    0.6560   -2.8317 C   0  0  0  0  0  0  0  0  0  0  0  0
    6.4025    1.7542   -2.1214 C   0  0  0  0  0  0  0  0  0  0  0  0
    6.1334    3.0456   -2.6002 C   0  0  0  0  0  0  0  0  0  0  0  0
    5.3718    3.2470   -3.7505 C   0  0  0  0  0  0  0  0  0  0  0  0
    4.8871    2.1290   -4.4343 C   0  0  0  0  0  0  0  0  0  0  0  0
    4.7545   -0.0177   -4.5430 H   0  0  0  0  0  0  0  0  0  0  0  0
    6.1056   -0.3484   -2.4794 H   0  0  0  0  0  0  0  0  0  0  0  0
    6.5287    3.9043   -2.0686 H   0  0  0  0  0  0  0  0  0  0  0  0
    5.1772    4.2422   -4.1301 H   0  0  0  0  0  0  0  0  0  0  0  0
    3.8514    2.3736   -5.8412 S   0  0  0  0  0  0  0  0  0  0  0  0
    3.7727    1.1265   -6.5941 O   0  0  0  0  0  0  0  0  0  0  0  0
    4.1322    3.6565   -6.4620 O   0  0  0  0  0  0  0  0  0  0  0  0
    2.3720    2.6248   -5.0862 O   0  0  0  0  0  0  0  0  0  0  0  0
    7.1920    1.5543   -0.8551 C   0  0  0  0  0  0  0  0  0  0  0  0
    6.5353    1.5563    0.0167 H   0  0  0  0  0  0  0  0  0  0  0  0
    7.7215    0.6024   -0.8700 H   0  0  0  0  0  0  0  0  0  0  0  0
    7.9247    2.3493   -0.7209 H   0  0  0  0  0  0  0  0  0  0  0  0
  1  6  2  0  0  0  0
  2  3  2  0  0  0  0
  2  1  1  0  0  0  0
  3  4  1  0  0  0  0
  4  9  1  0  0  0  0
  4  5  2  0  0  0  0
  5 10  1  0  0  0  0
  6  5  1  0  0  0  0
  6 11  1  0  0  0  0
  7  1  1  0  0  0  0
  8  2  1  0  0  0  0
 11 12  2  0  0  0  0
 13 11  2  0  0  0  0
 14 15  3  0  0  0  0
 16 17  1  0  0  0  0
 17 23  1  0  0  0  0
 17 18  2  0  0  0  0
 18 30  1  0  0  0  0
 19 18  1  0  0  0  0
 19 24  1  0  0  0  0
 20 19  2  0  0  0  0
 21 16  2  0  0  0  0
 21 20  1  0  0  0  0
 22 16  1  0  0  0  0
 25 20  1  0  0  0  0
 26 29  1  0  0  0  0
 26 21  1  0  0  0  0
 27 26  2  0  0  0  0
 28 26  2  0  0  0  0
 29  3  1  0  0  0  0
 30 33  1  0  0  0  0
 30 31  1  0  0  0  0
 32 30  1  0  0  0  0
M  END
