Coordinates from ORCA-job p-NO2-Ph-N2-OTs-MP2-6-31G_dp-scan-d09-49-n400
 OpenBabel02121707583D

 33 33  0  0  0  0  0  0  0  0999 V2000
    0.7187   -0.7233   -4.2014 C   0  0  0  0  0  0  0  0  0  0  0  0
    1.2059    0.3574   -4.9342 C   0  0  0  0  0  0  0  0  0  0  0  0
    1.7895    1.4305   -4.2561 C   0  0  0  0  0  0  0  0  0  0  0  0
    1.9236    1.4362   -2.8652 C   0  0  0  0  0  0  0  0  0  0  0  0
    1.4321    0.3632   -2.1260 C   0  0  0  0  0  0  0  0  0  0  0  0
    0.8421   -0.6989   -2.8119 C   0  0  0  0  0  0  0  0  0  0  0  0
    0.2522   -1.5704   -4.6836 H   0  0  0  0  0  0  0  0  0  0  0  0
    1.1250    0.3903   -6.0119 H   0  0  0  0  0  0  0  0  0  0  0  0
    2.3840    2.2895   -2.3838 H   0  0  0  0  0  0  0  0  0  0  0  0
    1.5056    0.3324   -1.0484 H   0  0  0  0  0  0  0  0  0  0  0  0
    0.3260   -1.8367   -2.0374 N   0  0  0  0  0  0  0  0  0  0  0  0
    0.4660   -1.8016   -0.8031 O   0  0  0  0  0  0  0  0  0  0  0  0
   -0.2135   -2.7626   -2.6660 O   0  0  0  0  0  0  0  0  0  0  0  0
   -0.9611    2.5064   -3.8225 N   0  0  0  0  0  0  0  0  0  0  0  0
   -1.6067    1.7519   -3.2787 N   0  0  0  0  0  0  0  0  0  0  0  0
    5.0899    0.8554   -3.9930 C   0  0  0  0  0  0  0  0  0  0  0  0
    5.8980    0.6872   -2.8681 C   0  0  0  0  0  0  0  0  0  0  0  0
    6.3749    1.7885   -2.1436 C   0  0  0  0  0  0  0  0  0  0  0  0
    6.0332    3.0783   -2.5787 C   0  0  0  0  0  0  0  0  0  0  0  0
    5.2277    3.2744   -3.6995 C   0  0  0  0  0  0  0  0  0  0  0  0
    4.7724    2.1535   -4.3987 C   0  0  0  0  0  0  0  0  0  0  0  0
    4.7326    0.0067   -4.5619 H   0  0  0  0  0  0  0  0  0  0  0  0
    6.1616   -0.3154   -2.5499 H   0  0  0  0  0  0  0  0  0  0  0  0
    6.4061    3.9400   -2.0360 H   0  0  0  0  0  0  0  0  0  0  0  0
    4.9769    4.2692   -4.0458 H   0  0  0  0  0  0  0  0  0  0  0  0
    3.6826    2.3873   -5.7662 S   0  0  0  0  0  0  0  0  0  0  0  0
    3.6319    1.1559   -6.5471 O   0  0  0  0  0  0  0  0  0  0  0  0
    3.8904    3.6951   -6.3632 O   0  0  0  0  0  0  0  0  0  0  0  0
    2.2196    2.5574   -4.9592 O   0  0  0  0  0  0  0  0  0  0  0  0
    7.2121    1.5923   -0.9078 C   0  0  0  0  0  0  0  0  0  0  0  0
    6.5841    1.5453   -0.0162 H   0  0  0  0  0  0  0  0  0  0  0  0
    7.7805    0.6646   -0.9631 H   0  0  0  0  0  0  0  0  0  0  0  0
    7.9146    2.4146   -0.7762 H   0  0  0  0  0  0  0  0  0  0  0  0
  1  6  2  0  0  0  0
  2  3  2  0  0  0  0
  2  1  1  0  0  0  0
  3  4  1  0  0  0  0
  4  9  1  0  0  0  0
  4  5  2  0  0  0  0
  5 10  1  0  0  0  0
  6  5  1  0  0  0  0
  6 11  1  0  0  0  0
  7  1  1  0  0  0  0
  8  2  1  0  0  0  0
 11 12  2  0  0  0  0
 13 11  2  0  0  0  0
 14 15  3  0  0  0  0
 16 17  1  0  0  0  0
 17 23  1  0  0  0  0
 17 18  2  0  0  0  0
 18 30  1  0  0  0  0
 19 18  1  0  0  0  0
 19 24  1  0  0  0  0
 20 19  2  0  0  0  0
 21 16  2  0  0  0  0
 21 20  1  0  0  0  0
 22 16  1  0  0  0  0
 25 20  1  0  0  0  0
 26 29  1  0  0  0  0
 26 21  1  0  0  0  0
 27 26  2  0  0  0  0
 28 26  2  0  0  0  0
 29  3  1  0  0  0  0
 30 33  1  0  0  0  0
 30 31  1  0  0  0  0
 32 30  1  0  0  0  0
M  END
