Coordinates from ORCA-job p-NO2-Ph-N2-OTs-MP2-6-31G_dp-scan-d09-49-n400
 OpenBabel02121707583D

 33 33  0  0  0  0  0  0  0  0999 V2000
    0.7399   -0.6652   -4.2325 C   0  0  0  0  0  0  0  0  0  0  0  0
    1.2347    0.4070   -4.9731 C   0  0  0  0  0  0  0  0  0  0  0  0
    1.8259    1.4812   -4.3028 C   0  0  0  0  0  0  0  0  0  0  0  0
    1.9335    1.5086   -2.9097 C   0  0  0  0  0  0  0  0  0  0  0  0
    1.4344    0.4439   -2.1631 C   0  0  0  0  0  0  0  0  0  0  0  0
    0.8497   -0.6252   -2.8424 C   0  0  0  0  0  0  0  0  0  0  0  0
    0.2726   -1.5148   -4.7093 H   0  0  0  0  0  0  0  0  0  0  0  0
    1.1686    0.4246   -6.0521 H   0  0  0  0  0  0  0  0  0  0  0  0
    2.3958    2.3638   -2.4333 H   0  0  0  0  0  0  0  0  0  0  0  0
    1.4928    0.4278   -1.0843 H   0  0  0  0  0  0  0  0  0  0  0  0
    0.3240   -1.7531   -2.0601 N   0  0  0  0  0  0  0  0  0  0  0  0
    0.4521   -1.7040   -0.8250 O   0  0  0  0  0  0  0  0  0  0  0  0
   -0.2112   -2.6850   -2.6833 O   0  0  0  0  0  0  0  0  0  0  0  0
   -1.4662    2.2675   -3.5547 N   0  0  0  0  0  0  0  0  0  0  0  0
   -1.7964    1.3256   -3.0208 N   0  0  0  0  0  0  0  0  0  0  0  0
    5.1045    0.8424   -3.9890 C   0  0  0  0  0  0  0  0  0  0  0  0
    5.8930    0.6705   -2.8509 C   0  0  0  0  0  0  0  0  0  0  0  0
    6.3846    1.7701   -2.1335 C   0  0  0  0  0  0  0  0  0  0  0  0
    6.0778    3.0615   -2.5891 C   0  0  0  0  0  0  0  0  0  0  0  0
    5.2923    3.2613   -3.7235 C   0  0  0  0  0  0  0  0  0  0  0  0
    4.8216    2.1420   -4.4151 C   0  0  0  0  0  0  0  0  0  0  0  0
    4.7362   -0.0054   -4.5523 H   0  0  0  0  0  0  0  0  0  0  0  0
    6.1297   -0.3336   -2.5167 H   0  0  0  0  0  0  0  0  0  0  0  0
    6.4624    3.9216   -2.0520 H   0  0  0  0  0  0  0  0  0  0  0  0
    5.0684    4.2570   -4.0854 H   0  0  0  0  0  0  0  0  0  0  0  0
    3.7562    2.3823   -5.8004 S   0  0  0  0  0  0  0  0  0  0  0  0
    3.6914    1.1437   -6.5686 O   0  0  0  0  0  0  0  0  0  0  0  0
    3.9981    3.6791   -6.4084 O   0  0  0  0  0  0  0  0  0  0  0  0
    2.2855    2.5906   -5.0162 O   0  0  0  0  0  0  0  0  0  0  0  0
    7.2001    1.5709   -0.8838 C   0  0  0  0  0  0  0  0  0  0  0  0
    6.5587    1.5467   -0.0008 H   0  0  0  0  0  0  0  0  0  0  0  0
    7.7500    0.6312   -0.9206 H   0  0  0  0  0  0  0  0  0  0  0  0
    7.9174    2.3801   -0.7512 H   0  0  0  0  0  0  0  0  0  0  0  0
  1  6  2  0  0  0  0
  2  3  2  0  0  0  0
  2  1  1  0  0  0  0
  3  4  1  0  0  0  0
  4  9  1  0  0  0  0
  4  5  2  0  0  0  0
  5 10  1  0  0  0  0
  6  5  1  0  0  0  0
  6 11  1  0  0  0  0
  7  1  1  0  0  0  0
  8  2  1  0  0  0  0
 11 12  2  0  0  0  0
 13 11  2  0  0  0  0
 14 15  3  0  0  0  0
 16 17  1  0  0  0  0
 17 23  1  0  0  0  0
 17 18  2  0  0  0  0
 18 30  1  0  0  0  0
 19 18  1  0  0  0  0
 19 24  1  0  0  0  0
 20 19  2  0  0  0  0
 21 16  2  0  0  0  0
 21 20  1  0  0  0  0
 22 16  1  0  0  0  0
 25 20  1  0  0  0  0
 26 29  1  0  0  0  0
 26 21  1  0  0  0  0
 27 26  2  0  0  0  0
 28 26  2  0  0  0  0
 29  3  1  0  0  0  0
 30 33  1  0  0  0  0
 30 31  1  0  0  0  0
 32 30  1  0  0  0  0
M  END
