Coordinates from ORCA-job p-NO2-Ph-N2-OTs-MP2-6-31G_dp-scan-d09-49-n400
 OpenBabel02121707583D

 33 33  0  0  0  0  0  0  0  0999 V2000
    0.7597   -0.7328   -4.1588 C   0  0  0  0  0  0  0  0  0  0  0  0
    1.1807    0.3656   -4.9017 C   0  0  0  0  0  0  0  0  0  0  0  0
    1.6485    1.5040   -4.2319 C   0  0  0  0  0  0  0  0  0  0  0  0
    1.9471    1.4550   -2.8629 C   0  0  0  0  0  0  0  0  0  0  0  0
    1.5231    0.3669   -2.1086 C   0  0  0  0  0  0  0  0  0  0  0  0
    0.9318   -0.7087   -2.7737 C   0  0  0  0  0  0  0  0  0  0  0  0
    0.3385   -1.6088   -4.6312 H   0  0  0  0  0  0  0  0  0  0  0  0
    1.0621    0.3963   -5.9759 H   0  0  0  0  0  0  0  0  0  0  0  0
    2.4059    2.3175   -2.3960 H   0  0  0  0  0  0  0  0  0  0  0  0
    1.6799    0.3170   -1.0406 H   0  0  0  0  0  0  0  0  0  0  0  0
    0.4836   -1.8644   -1.9854 N   0  0  0  0  0  0  0  0  0  0  0  0
    0.6782   -1.8325   -0.7583 O   0  0  0  0  0  0  0  0  0  0  0  0
   -0.0584   -2.8012   -2.5957 O   0  0  0  0  0  0  0  0  0  0  0  0
   -0.2076    2.4756   -4.0492 N   0  0  0  0  0  0  0  0  0  0  0  0
   -1.1171    2.0710   -3.4995 N   0  0  0  0  0  0  0  0  0  0  0  0
    4.9727    0.8493   -4.0033 C   0  0  0  0  0  0  0  0  0  0  0  0
    5.7809    0.6661   -2.8812 C   0  0  0  0  0  0  0  0  0  0  0  0
    6.2597    1.7579   -2.1433 C   0  0  0  0  0  0  0  0  0  0  0  0
    5.9208    3.0534   -2.5630 C   0  0  0  0  0  0  0  0  0  0  0  0
    5.1161    3.2643   -3.6820 C   0  0  0  0  0  0  0  0  0  0  0  0
    4.6567    2.1525   -4.3928 C   0  0  0  0  0  0  0  0  0  0  0  0
    4.6095    0.0083   -4.5800 H   0  0  0  0  0  0  0  0  0  0  0  0
    6.0425   -0.3407   -2.5748 H   0  0  0  0  0  0  0  0  0  0  0  0
    6.2959    3.9079   -2.0105 H   0  0  0  0  0  0  0  0  0  0  0  0
    4.8680    4.2637   -4.0170 H   0  0  0  0  0  0  0  0  0  0  0  0
    3.5686    2.4053   -5.7577 S   0  0  0  0  0  0  0  0  0  0  0  0
    3.5041    1.1780   -6.5436 O   0  0  0  0  0  0  0  0  0  0  0  0
    3.7984    3.7109   -6.3519 O   0  0  0  0  0  0  0  0  0  0  0  0
    2.1042    2.6084   -4.9617 O   0  0  0  0  0  0  0  0  0  0  0  0
    7.0957    1.5441   -0.9096 C   0  0  0  0  0  0  0  0  0  0  0  0
    6.4650    1.4562   -0.0229 H   0  0  0  0  0  0  0  0  0  0  0  0
    7.6849    0.6312   -0.9894 H   0  0  0  0  0  0  0  0  0  0  0  0
    7.7790    2.3774   -0.7501 H   0  0  0  0  0  0  0  0  0  0  0  0
  1  6  2  0  0  0  0
  2  3  2  0  0  0  0
  2  1  1  0  0  0  0
  3  4  1  0  0  0  0
  4  9  1  0  0  0  0
  4  5  2  0  0  0  0
  5 10  1  0  0  0  0
  6  5  1  0  0  0  0
  6 11  1  0  0  0  0
  7  1  1  0  0  0  0
  8  2  1  0  0  0  0
 11 12  2  0  0  0  0
 13 11  2  0  0  0  0
 14 15  3  0  0  0  0
 16 17  1  0  0  0  0
 17 23  1  0  0  0  0
 17 18  2  0  0  0  0
 18 30  1  0  0  0  0
 19 18  1  0  0  0  0
 19 24  1  0  0  0  0
 20 19  2  0  0  0  0
 21 16  2  0  0  0  0
 21 20  1  0  0  0  0
 22 16  1  0  0  0  0
 25 20  1  0  0  0  0
 26 29  1  0  0  0  0
 26 21  1  0  0  0  0
 27 26  2  0  0  0  0
 28 26  2  0  0  0  0
 29  3  1  0  0  0  0
 30 33  1  0  0  0  0
 30 31  1  0  0  0  0
 32 30  1  0  0  0  0
M  END
