Coordinates from ORCA-job p-NO2-Ph-N2-OTs-MP2-6-31G_dp-scan-d09-49-n400
 OpenBabel02121707583D

 33 33  0  0  0  0  0  0  0  0999 V2000
    0.7459   -0.6241   -4.2585 C   0  0  0  0  0  0  0  0  0  0  0  0
    1.2601    0.4356   -5.0037 C   0  0  0  0  0  0  0  0  0  0  0  0
    1.8546    1.5106   -4.3373 C   0  0  0  0  0  0  0  0  0  0  0  0
    1.9524    1.5469   -2.9435 C   0  0  0  0  0  0  0  0  0  0  0  0
    1.4339    0.4945   -2.1927 C   0  0  0  0  0  0  0  0  0  0  0  0
    0.8462   -0.5750   -2.8682 C   0  0  0  0  0  0  0  0  0  0  0  0
    0.2729   -1.4722   -4.7323 H   0  0  0  0  0  0  0  0  0  0  0  0
    1.2039    0.4451   -6.0834 H   0  0  0  0  0  0  0  0  0  0  0  0
    2.4195    2.4013   -2.4703 H   0  0  0  0  0  0  0  0  0  0  0  0
    1.4822    0.4871   -1.1133 H   0  0  0  0  0  0  0  0  0  0  0  0
    0.2909   -1.6847   -2.0809 N   0  0  0  0  0  0  0  0  0  0  0  0
    0.4127   -1.6290   -0.8454 O   0  0  0  0  0  0  0  0  0  0  0  0
   -0.2608   -2.6094   -2.7004 O   0  0  0  0  0  0  0  0  0  0  0  0
   -1.7982    2.0472   -3.3285 N   0  0  0  0  0  0  0  0  0  0  0  0
   -1.9072    1.0356   -2.8332 N   0  0  0  0  0  0  0  0  0  0  0  0
    5.1235    0.8357   -3.9876 C   0  0  0  0  0  0  0  0  0  0  0  0
    5.8990    0.6638   -2.8406 C   0  0  0  0  0  0  0  0  0  0  0  0
    6.3955    1.7632   -2.1265 C   0  0  0  0  0  0  0  0  0  0  0  0
    6.1073    3.0545   -2.5947 C   0  0  0  0  0  0  0  0  0  0  0  0
    5.3350    3.2543   -3.7380 C   0  0  0  0  0  0  0  0  0  0  0  0
    4.8588    2.1350   -4.4259 C   0  0  0  0  0  0  0  0  0  0  0  0
    4.7513   -0.0123   -4.5481 H   0  0  0  0  0  0  0  0  0  0  0  0
    6.1214   -0.3404   -2.4967 H   0  0  0  0  0  0  0  0  0  0  0  0
    6.4961    3.9143   -2.0601 H   0  0  0  0  0  0  0  0  0  0  0  0
    5.1257    4.2496   -4.1095 H   0  0  0  0  0  0  0  0  0  0  0  0
    3.8098    2.3767   -5.8234 S   0  0  0  0  0  0  0  0  0  0  0  0
    3.7384    1.1329   -6.5827 O   0  0  0  0  0  0  0  0  0  0  0  0
    4.0724    3.6658   -6.4391 O   0  0  0  0  0  0  0  0  0  0  0  0
    2.3340    2.6080   -5.0557 O   0  0  0  0  0  0  0  0  0  0  0  0
    7.1966    1.5645   -0.8674 C   0  0  0  0  0  0  0  0  0  0  0  0
    6.5464    1.5533    0.0092 H   0  0  0  0  0  0  0  0  0  0  0  0
    7.7370    0.6190   -0.8923 H   0  0  0  0  0  0  0  0  0  0  0  0
    7.9210    2.3672   -0.7335 H   0  0  0  0  0  0  0  0  0  0  0  0
  1  6  2  0  0  0  0
  2  3  2  0  0  0  0
  2  1  1  0  0  0  0
  3  4  1  0  0  0  0
  4  9  1  0  0  0  0
  4  5  2  0  0  0  0
  5 10  1  0  0  0  0
  6  5  1  0  0  0  0
  6 11  1  0  0  0  0
  7  1  1  0  0  0  0
  8  2  1  0  0  0  0
 11 12  2  0  0  0  0
 13 11  2  0  0  0  0
 14 15  3  0  0  0  0
 16 17  1  0  0  0  0
 17 23  1  0  0  0  0
 17 18  2  0  0  0  0
 18 30  1  0  0  0  0
 19 18  1  0  0  0  0
 19 24  1  0  0  0  0
 20 19  2  0  0  0  0
 21 16  2  0  0  0  0
 21 20  1  0  0  0  0
 22 16  1  0  0  0  0
 25 20  1  0  0  0  0
 26 29  1  0  0  0  0
 26 21  1  0  0  0  0
 27 26  2  0  0  0  0
 28 26  2  0  0  0  0
 29  3  1  0  0  0  0
 30 33  1  0  0  0  0
 30 31  1  0  0  0  0
 32 30  1  0  0  0  0
M  END
