Coordinates from ORCA-job p-NO2-Ph-N2-OTs-MP2-6-31G_dp-scan-d09-49-n400
 OpenBabel02121707583D

 33 33  0  0  0  0  0  0  0  0999 V2000
    0.7559   -0.5106   -4.3147 C   0  0  0  0  0  0  0  0  0  0  0  0
    1.3157    0.5180   -5.0705 C   0  0  0  0  0  0  0  0  0  0  0  0
    1.9267    1.5893   -4.4138 C   0  0  0  0  0  0  0  0  0  0  0  0
    1.9910    1.6557   -3.0195 C   0  0  0  0  0  0  0  0  0  0  0  0
    1.4257    0.6353   -2.2584 C   0  0  0  0  0  0  0  0  0  0  0  0
    0.8253   -0.4335   -2.9237 C   0  0  0  0  0  0  0  0  0  0  0  0
    0.2733   -1.3574   -4.7813 H   0  0  0  0  0  0  0  0  0  0  0  0
    1.2841    0.5041   -6.1511 H   0  0  0  0  0  0  0  0  0  0  0  0
    2.4717    2.5063   -2.5534 H   0  0  0  0  0  0  0  0  0  0  0  0
    1.4504    0.6506   -1.1782 H   0  0  0  0  0  0  0  0  0  0  0  0
    0.2333   -1.5160   -2.1263 N   0  0  0  0  0  0  0  0  0  0  0  0
    0.2969   -1.4177   -0.8893 O   0  0  0  0  0  0  0  0  0  0  0  0
   -0.2895   -2.4613   -2.7392 O   0  0  0  0  0  0  0  0  0  0  0  0
   -2.6747    1.3691   -2.7439 N   0  0  0  0  0  0  0  0  0  0  0  0
   -2.1765    0.3868   -2.4855 N   0  0  0  0  0  0  0  0  0  0  0  0
    5.1616    0.8193   -3.9825 C   0  0  0  0  0  0  0  0  0  0  0  0
    5.9072    0.6445   -2.8163 C   0  0  0  0  0  0  0  0  0  0  0  0
    6.4252    1.7409   -2.1127 C   0  0  0  0  0  0  0  0  0  0  0  0
    6.1894    3.0315   -2.6109 C   0  0  0  0  0  0  0  0  0  0  0  0
    5.4477    3.2341   -3.7739 C   0  0  0  0  0  0  0  0  0  0  0  0
    4.9490    2.1178   -4.4506 C   0  0  0  0  0  0  0  0  0  0  0  0
    4.7731   -0.0268   -4.5346 H   0  0  0  0  0  0  0  0  0  0  0  0
    6.0893   -0.3595   -2.4490 H   0  0  0  0  0  0  0  0  0  0  0  0
    6.5954    3.8884   -2.0846 H   0  0  0  0  0  0  0  0  0  0  0  0
    5.2790    4.2283   -4.1684 H   0  0  0  0  0  0  0  0  0  0  0  0
    3.9379    2.3662   -5.8747 S   0  0  0  0  0  0  0  0  0  0  0  0
    3.8444    1.1117   -6.6136 O   0  0  0  0  0  0  0  0  0  0  0  0
    4.2539    3.6352   -6.5070 O   0  0  0  0  0  0  0  0  0  0  0  0
    2.4539    2.6571   -5.1442 O   0  0  0  0  0  0  0  0  0  0  0  0
    7.1933    1.5406   -0.8335 C   0  0  0  0  0  0  0  0  0  0  0  0
    6.5251    1.5670    0.0293 H   0  0  0  0  0  0  0  0  0  0  0  0
    7.7031    0.5779   -0.8295 H   0  0  0  0  0  0  0  0  0  0  0  0
    7.9404    2.3220   -0.6989 H   0  0  0  0  0  0  0  0  0  0  0  0
  1  6  2  0  0  0  0
  2  3  2  0  0  0  0
  2  1  1  0  0  0  0
  3  4  1  0  0  0  0
  4  9  1  0  0  0  0
  4  5  2  0  0  0  0
  5 10  1  0  0  0  0
  6  5  1  0  0  0  0
  6 11  1  0  0  0  0
  7  1  1  0  0  0  0
  8  2  1  0  0  0  0
 11 12  2  0  0  0  0
 13 11  2  0  0  0  0
 14 15  3  0  0  0  0
 16 17  1  0  0  0  0
 17 23  1  0  0  0  0
 17 18  2  0  0  0  0
 18 30  1  0  0  0  0
 19 18  1  0  0  0  0
 19 24  1  0  0  0  0
 20 19  2  0  0  0  0
 21 16  2  0  0  0  0
 21 20  1  0  0  0  0
 22 16  1  0  0  0  0
 25 20  1  0  0  0  0
 26 29  1  0  0  0  0
 26 21  1  0  0  0  0
 27 26  2  0  0  0  0
 28 26  2  0  0  0  0
 29  3  1  0  0  0  0
 30 32  1  0  0  0  0
 30 33  1  0  0  0  0
 30 31  1  0  0  0  0
M  END
