Coordinates from ORCA-job p-NO2-Ph-N2-OTs-MP2-6-31G_dp-scan-d09-49-n400
 OpenBabel02121707583D

 33 33  0  0  0  0  0  0  0  0999 V2000
    0.7487   -0.5678   -4.2871 C   0  0  0  0  0  0  0  0  0  0  0  0
    1.2863    0.4764   -5.0376 C   0  0  0  0  0  0  0  0  0  0  0  0
    1.8893    1.5495   -4.3761 C   0  0  0  0  0  0  0  0  0  0  0  0
    1.9702    1.6005   -2.9819 C   0  0  0  0  0  0  0  0  0  0  0  0
    1.4288    0.5636   -2.2258 C   0  0  0  0  0  0  0  0  0  0  0  0
    0.8350   -0.5057   -2.8963 C   0  0  0  0  0  0  0  0  0  0  0  0
    0.2708   -1.4151   -4.7576 H   0  0  0  0  0  0  0  0  0  0  0  0
    1.2425    0.4739   -6.1179 H   0  0  0  0  0  0  0  0  0  0  0  0
    2.4433    2.4532   -2.5119 H   0  0  0  0  0  0  0  0  0  0  0  0
    1.4670    0.5666   -1.1459 H   0  0  0  0  0  0  0  0  0  0  0  0
    0.2594   -1.6008   -2.1037 N   0  0  0  0  0  0  0  0  0  0  0  0
    0.3865   -1.5435   -0.8689 O   0  0  0  0  0  0  0  0  0  0  0  0
   -0.3132   -2.5159   -2.7185 O   0  0  0  0  0  0  0  0  0  0  0  0
   -2.1701    1.7271   -3.0687 N   0  0  0  0  0  0  0  0  0  0  0  0
   -2.0586    0.6901   -2.6298 N   0  0  0  0  0  0  0  0  0  0  0  0
    5.1417    0.8277   -3.9844 C   0  0  0  0  0  0  0  0  0  0  0  0
    5.9020    0.6548   -2.8275 C   0  0  0  0  0  0  0  0  0  0  0  0
    6.4087    1.7531   -2.1188 C   0  0  0  0  0  0  0  0  0  0  0  0
    6.1464    3.0441   -2.6026 C   0  0  0  0  0  0  0  0  0  0  0  0
    5.3896    3.2450   -3.7562 C   0  0  0  0  0  0  0  0  0  0  0  0
    4.9028    2.1268   -4.4382 C   0  0  0  0  0  0  0  0  0  0  0  0
    4.7618   -0.0197   -4.5406 H   0  0  0  0  0  0  0  0  0  0  0  0
    6.1044   -0.3494   -2.4714 H   0  0  0  0  0  0  0  0  0  0  0  0
    6.5434    3.9028   -2.0723 H   0  0  0  0  0  0  0  0  0  0  0  0
    5.2004    4.2398   -4.1395 H   0  0  0  0  0  0  0  0  0  0  0  0
    3.8730    2.3713   -5.8495 S   0  0  0  0  0  0  0  0  0  0  0  0
    3.7910    1.1218   -6.5981 O   0  0  0  0  0  0  0  0  0  0  0  0
    4.1622    3.6505   -6.4740 O   0  0  0  0  0  0  0  0  0  0  0  0
    2.3923    2.6324   -5.1006 O   0  0  0  0  0  0  0  0  0  0  0  0
    7.1929    1.5540   -0.8492 C   0  0  0  0  0  0  0  0  0  0  0  0
    6.5332    1.5613    0.0203 H   0  0  0  0  0  0  0  0  0  0  0  0
    7.7187    0.6000   -0.8593 H   0  0  0  0  0  0  0  0  0  0  0  0
    7.9283    2.3465   -0.7149 H   0  0  0  0  0  0  0  0  0  0  0  0
  1  6  2  0  0  0  0
  2  3  2  0  0  0  0
  2  1  1  0  0  0  0
  3  4  1  0  0  0  0
  4  9  1  0  0  0  0
  4  5  2  0  0  0  0
  5 10  1  0  0  0  0
  6  5  1  0  0  0  0
  6 11  1  0  0  0  0
  7  1  1  0  0  0  0
  8  2  1  0  0  0  0
 11 12  2  0  0  0  0
 13 11  2  0  0  0  0
 14 15  3  0  0  0  0
 16 17  1  0  0  0  0
 17 23  1  0  0  0  0
 17 18  2  0  0  0  0
 18 30  1  0  0  0  0
 19 18  1  0  0  0  0
 19 24  1  0  0  0  0
 20 19  2  0  0  0  0
 21 16  2  0  0  0  0
 21 20  1  0  0  0  0
 22 16  1  0  0  0  0
 25 20  1  0  0  0  0
 26 29  1  0  0  0  0
 26 21  1  0  0  0  0
 27 26  2  0  0  0  0
 28 26  2  0  0  0  0
 29  3  1  0  0  0  0
 30 33  1  0  0  0  0
 30 31  1  0  0  0  0
 32 30  1  0  0  0  0
M  END
