Coordinates from ORCA-job p-NO2-Ph-N2-OTs-MP2-6-31G_dp-scan-d09-49-n400
 OpenBabel02121707583D

 33 33  0  0  0  0  0  0  0  0999 V2000
    0.7283   -0.7546   -4.1682 C   0  0  0  0  0  0  0  0  0  0  0  0
    1.1838    0.3380   -4.9025 C   0  0  0  0  0  0  0  0  0  0  0  0
    1.7245    1.4347   -4.2260 C   0  0  0  0  0  0  0  0  0  0  0  0
    1.9254    1.4139   -2.8428 C   0  0  0  0  0  0  0  0  0  0  0  0
    1.4659    0.3297   -2.1005 C   0  0  0  0  0  0  0  0  0  0  0  0
    0.8815   -0.7388   -2.7814 C   0  0  0  0  0  0  0  0  0  0  0  0
    0.2793   -1.6124   -4.6483 H   0  0  0  0  0  0  0  0  0  0  0  0
    1.0804    0.3761   -5.9781 H   0  0  0  0  0  0  0  0  0  0  0  0
    2.3809    2.2716   -2.3642 H   0  0  0  0  0  0  0  0  0  0  0  0
    1.5753    0.2868   -1.0263 H   0  0  0  0  0  0  0  0  0  0  0  0
    0.3983   -1.8890   -2.0043 N   0  0  0  0  0  0  0  0  0  0  0  0
    0.5661   -1.8613   -0.7733 O   0  0  0  0  0  0  0  0  0  0  0  0
   -0.1440   -2.8170   -2.6276 O   0  0  0  0  0  0  0  0  0  0  0  0
   -0.4503    2.5752   -4.0252 N   0  0  0  0  0  0  0  0  0  0  0  0
   -1.3464    2.1157   -3.5049 N   0  0  0  0  0  0  0  0  0  0  0  0
    5.0369    0.8592   -4.0007 C   0  0  0  0  0  0  0  0  0  0  0  0
    5.8533    0.6858   -2.8828 C   0  0  0  0  0  0  0  0  0  0  0  0
    6.3247    1.7831   -2.1487 C   0  0  0  0  0  0  0  0  0  0  0  0
    5.9688    3.0745   -2.5672 C   0  0  0  0  0  0  0  0  0  0  0  0
    5.1550    3.2759   -3.6812 C   0  0  0  0  0  0  0  0  0  0  0  0
    4.7050    2.1587   -4.3898 C   0  0  0  0  0  0  0  0  0  0  0  0
    4.6822    0.0138   -4.5762 H   0  0  0  0  0  0  0  0  0  0  0  0
    6.1278   -0.3180   -2.5774 H   0  0  0  0  0  0  0  0  0  0  0  0
    6.3374    3.9335   -2.0172 H   0  0  0  0  0  0  0  0  0  0  0  0
    4.8935    4.2722   -4.0150 H   0  0  0  0  0  0  0  0  0  0  0  0
    3.6053    2.3983   -5.7480 S   0  0  0  0  0  0  0  0  0  0  0  0
    3.5560    1.1730   -6.5384 O   0  0  0  0  0  0  0  0  0  0  0  0
    3.8055    3.7111   -6.3370 O   0  0  0  0  0  0  0  0  0  0  0  0
    2.1455    2.5617   -4.9338 O   0  0  0  0  0  0  0  0  0  0  0  0
    7.1707    1.5803   -0.9200 C   0  0  0  0  0  0  0  0  0  0  0  0
    6.5478    1.5094   -0.0264 H   0  0  0  0  0  0  0  0  0  0  0  0
    7.7529    0.6625   -0.9927 H   0  0  0  0  0  0  0  0  0  0  0  0
    7.8611    2.4110   -0.7785 H   0  0  0  0  0  0  0  0  0  0  0  0
  1  6  2  0  0  0  0
  2  3  2  0  0  0  0
  2  1  1  0  0  0  0
  3  4  1  0  0  0  0
  4  9  1  0  0  0  0
  4  5  2  0  0  0  0
  5 10  1  0  0  0  0
  6  5  1  0  0  0  0
  6 11  1  0  0  0  0
  7  1  1  0  0  0  0
  8  2  1  0  0  0  0
 11 12  2  0  0  0  0
 13 11  2  0  0  0  0
 14 15  3  0  0  0  0
 16 17  1  0  0  0  0
 17 23  1  0  0  0  0
 17 18  2  0  0  0  0
 18 30  1  0  0  0  0
 19 18  1  0  0  0  0
 19 24  1  0  0  0  0
 20 19  2  0  0  0  0
 21 16  2  0  0  0  0
 21 20  1  0  0  0  0
 22 16  1  0  0  0  0
 25 20  1  0  0  0  0
 26 29  1  0  0  0  0
 26 21  1  0  0  0  0
 27 26  2  0  0  0  0
 28 26  2  0  0  0  0
 29  3  1  0  0  0  0
 30 33  1  0  0  0  0
 30 31  1  0  0  0  0
 32 30  1  0  0  0  0
M  END
