Coordinates from ORCA-job p-NO2-Ph-N2-OTs-MP2-6-31G_dp-scan-d09-49-n400
 OpenBabel02121707583D

 33 33  0  0  0  0  0  0  0  0999 V2000
    0.7489   -0.5669   -4.2875 C   0  0  0  0  0  0  0  0  0  0  0  0
    1.2867    0.4771   -5.0381 C   0  0  0  0  0  0  0  0  0  0  0  0
    1.8899    1.5501   -4.3767 C   0  0  0  0  0  0  0  0  0  0  0  0
    1.9704    1.6015   -2.9825 C   0  0  0  0  0  0  0  0  0  0  0  0
    1.4288    0.5648   -2.2263 C   0  0  0  0  0  0  0  0  0  0  0  0
    0.8350   -0.5045   -2.8967 C   0  0  0  0  0  0  0  0  0  0  0  0
    0.2710   -1.4143   -4.7579 H   0  0  0  0  0  0  0  0  0  0  0  0
    1.2432    0.4743   -6.1184 H   0  0  0  0  0  0  0  0  0  0  0  0
    2.4436    2.4542   -2.5126 H   0  0  0  0  0  0  0  0  0  0  0  0
    1.4669    0.5680   -1.1464 H   0  0  0  0  0  0  0  0  0  0  0  0
    0.2598   -1.5999   -2.1041 N   0  0  0  0  0  0  0  0  0  0  0  0
    0.3872   -1.5426   -0.8693 O   0  0  0  0  0  0  0  0  0  0  0  0
   -0.3125   -2.5152   -2.7187 O   0  0  0  0  0  0  0  0  0  0  0  0
   -2.1787    1.7230   -3.0645 N   0  0  0  0  0  0  0  0  0  0  0  0
   -2.0634    0.6860   -2.6267 N   0  0  0  0  0  0  0  0  0  0  0  0
    5.1420    0.8276   -3.9844 C   0  0  0  0  0  0  0  0  0  0  0  0
    5.9020    0.6546   -2.8272 C   0  0  0  0  0  0  0  0  0  0  0  0
    6.4089    1.7529   -2.1187 C   0  0  0  0  0  0  0  0  0  0  0  0
    6.1471    3.0439   -2.6027 C   0  0  0  0  0  0  0  0  0  0  0  0
    5.3906    3.2447   -3.7565 C   0  0  0  0  0  0  0  0  0  0  0  0
    4.9035    2.1266   -4.4384 C   0  0  0  0  0  0  0  0  0  0  0  0
    4.7619   -0.0198   -4.5405 H   0  0  0  0  0  0  0  0  0  0  0  0
    6.1041   -0.3496   -2.4709 H   0  0  0  0  0  0  0  0  0  0  0  0
    6.5442    3.9026   -2.0725 H   0  0  0  0  0  0  0  0  0  0  0  0
    5.2017    4.2395   -4.1400 H   0  0  0  0  0  0  0  0  0  0  0  0
    3.8741    2.3711   -5.8499 S   0  0  0  0  0  0  0  0  0  0  0  0
    3.7919    1.1215   -6.5984 O   0  0  0  0  0  0  0  0  0  0  0  0
    4.1637    3.6502   -6.4746 O   0  0  0  0  0  0  0  0  0  0  0  0
    2.3934    2.6328   -5.1014 O   0  0  0  0  0  0  0  0  0  0  0  0
    7.1928    1.5538   -0.8489 C   0  0  0  0  0  0  0  0  0  0  0  0
    6.5329    1.5613    0.0205 H   0  0  0  0  0  0  0  0  0  0  0  0
    7.7183    0.5996   -0.8587 H   0  0  0  0  0  0  0  0  0  0  0  0
    7.9284    2.3461   -0.7145 H   0  0  0  0  0  0  0  0  0  0  0  0
  1  6  2  0  0  0  0
  2  3  2  0  0  0  0
  2  1  1  0  0  0  0
  3  4  1  0  0  0  0
  4  9  1  0  0  0  0
  4  5  2  0  0  0  0
  5 10  1  0  0  0  0
  6  5  1  0  0  0  0
  6 11  1  0  0  0  0
  7  1  1  0  0  0  0
  8  2  1  0  0  0  0
 11 12  2  0  0  0  0
 13 11  2  0  0  0  0
 14 15  3  0  0  0  0
 16 17  1  0  0  0  0
 17 23  1  0  0  0  0
 17 18  2  0  0  0  0
 18 30  1  0  0  0  0
 19 18  1  0  0  0  0
 19 24  1  0  0  0  0
 20 19  2  0  0  0  0
 21 16  2  0  0  0  0
 21 20  1  0  0  0  0
 22 16  1  0  0  0  0
 25 20  1  0  0  0  0
 26 29  1  0  0  0  0
 26 21  1  0  0  0  0
 27 26  2  0  0  0  0
 28 26  2  0  0  0  0
 29  3  1  0  0  0  0
 30 33  1  0  0  0  0
 30 31  1  0  0  0  0
 32 30  1  0  0  0  0
M  END
