Coordinates from ORCA-job p-NO2-Ph-N2-OTs-MP2-6-31G_dp-scan-d09-49-n400
 OpenBabel02121707583D

 33 33  0  0  0  0  0  0  0  0999 V2000
    0.7236   -0.7602   -4.1770 C   0  0  0  0  0  0  0  0  0  0  0  0
    1.1920    0.3300   -4.9077 C   0  0  0  0  0  0  0  0  0  0  0  0
    1.7596    1.4105   -4.2282 C   0  0  0  0  0  0  0  0  0  0  0  0
    1.9172    1.4043   -2.8399 C   0  0  0  0  0  0  0  0  0  0  0  0
    1.4444    0.3222   -2.1021 C   0  0  0  0  0  0  0  0  0  0  0  0
    0.8605   -0.7429   -2.7886 C   0  0  0  0  0  0  0  0  0  0  0  0
    0.2647   -1.6109   -4.6601 H   0  0  0  0  0  0  0  0  0  0  0  0
    1.0992    0.3687   -5.9843 H   0  0  0  0  0  0  0  0  0  0  0  0
    2.3717    2.2604   -2.3577 H   0  0  0  0  0  0  0  0  0  0  0  0
    1.5310    0.2848   -1.0257 H   0  0  0  0  0  0  0  0  0  0  0  0
    0.3628   -1.8901   -2.0159 N   0  0  0  0  0  0  0  0  0  0  0  0
    0.5155   -1.8613   -0.7829 O   0  0  0  0  0  0  0  0  0  0  0  0
   -0.1756   -2.8167   -2.6445 O   0  0  0  0  0  0  0  0  0  0  0  0
   -0.6642    2.6321   -3.9913 N   0  0  0  0  0  0  0  0  0  0  0  0
   -1.5035    2.0790   -3.4694 N   0  0  0  0  0  0  0  0  0  0  0  0
    5.0687    0.8604   -3.9976 C   0  0  0  0  0  0  0  0  0  0  0  0
    5.8869    0.6911   -2.8803 C   0  0  0  0  0  0  0  0  0  0  0  0
    6.3571    1.7911   -2.1494 C   0  0  0  0  0  0  0  0  0  0  0  0
    5.9981    3.0808   -2.5703 C   0  0  0  0  0  0  0  0  0  0  0  0
    5.1822    3.2780   -3.6836 C   0  0  0  0  0  0  0  0  0  0  0  0
    4.7338    2.1584   -4.3893 C   0  0  0  0  0  0  0  0  0  0  0  0
    4.7160    0.0129   -4.5713 H   0  0  0  0  0  0  0  0  0  0  0  0
    6.1638   -0.3114   -2.5730 H   0  0  0  0  0  0  0  0  0  0  0  0
    6.3656    3.9418   -2.0227 H   0  0  0  0  0  0  0  0  0  0  0  0
    4.9181    4.2730   -4.0191 H   0  0  0  0  0  0  0  0  0  0  0  0
    3.6318    2.3926   -5.7468 S   0  0  0  0  0  0  0  0  0  0  0  0
    3.5873    1.1669   -6.5371 O   0  0  0  0  0  0  0  0  0  0  0  0
    3.8240    3.7066   -6.3355 O   0  0  0  0  0  0  0  0  0  0  0  0
    2.1730    2.5447   -4.9289 O   0  0  0  0  0  0  0  0  0  0  0  0
    7.2054    1.5930   -0.9215 C   0  0  0  0  0  0  0  0  0  0  0  0
    6.5842    1.5268   -0.0264 H   0  0  0  0  0  0  0  0  0  0  0  0
    7.7866    0.6742   -0.9912 H   0  0  0  0  0  0  0  0  0  0  0  0
    7.8969    2.4237   -0.7851 H   0  0  0  0  0  0  0  0  0  0  0  0
  1  6  2  0  0  0  0
  2  3  2  0  0  0  0
  2  1  1  0  0  0  0
  3  4  1  0  0  0  0
  4  9  1  0  0  0  0
  4  5  2  0  0  0  0
  5 10  1  0  0  0  0
  6  5  1  0  0  0  0
  6 11  1  0  0  0  0
  7  1  1  0  0  0  0
  8  2  1  0  0  0  0
 11 12  2  0  0  0  0
 13 11  2  0  0  0  0
 14 15  3  0  0  0  0
 16 17  1  0  0  0  0
 17 23  1  0  0  0  0
 17 18  2  0  0  0  0
 18 30  1  0  0  0  0
 19 18  1  0  0  0  0
 19 24  1  0  0  0  0
 20 19  2  0  0  0  0
 21 16  2  0  0  0  0
 21 20  1  0  0  0  0
 22 16  1  0  0  0  0
 25 20  1  0  0  0  0
 26 29  1  0  0  0  0
 26 21  1  0  0  0  0
 27 26  2  0  0  0  0
 28 26  2  0  0  0  0
 29  3  1  0  0  0  0
 30 33  1  0  0  0  0
 30 31  1  0  0  0  0
 32 30  1  0  0  0  0
M  END
