Coordinates from ORCA-job p-NO2-Ph-N2-OTs-MP2-6-31G_dp-scan-d09-49-n400
 OpenBabel02121707583D

 33 33  0  0  0  0  0  0  0  0999 V2000
    0.7249   -0.7522   -4.1877 C   0  0  0  0  0  0  0  0  0  0  0  0
    1.2005    0.3354   -4.9180 C   0  0  0  0  0  0  0  0  0  0  0  0
    1.7802    1.4093   -4.2381 C   0  0  0  0  0  0  0  0  0  0  0  0
    1.9173    1.4115   -2.8476 C   0  0  0  0  0  0  0  0  0  0  0  0
    1.4372    0.3316   -2.1108 C   0  0  0  0  0  0  0  0  0  0  0  0
    0.8531   -0.7324   -2.7987 C   0  0  0  0  0  0  0  0  0  0  0  0
    0.2622   -1.6005   -4.6716 H   0  0  0  0  0  0  0  0  0  0  0  0
    1.1156    0.3716   -5.9952 H   0  0  0  0  0  0  0  0  0  0  0  0
    2.3732    2.2664   -2.3645 H   0  0  0  0  0  0  0  0  0  0  0  0
    1.5138    0.2978   -1.0335 H   0  0  0  0  0  0  0  0  0  0  0  0
    0.3498   -1.8778   -2.0268 N   0  0  0  0  0  0  0  0  0  0  0  0
    0.4956   -1.8472   -0.7931 O   0  0  0  0  0  0  0  0  0  0  0  0
   -0.1866   -2.8045   -2.6569 O   0  0  0  0  0  0  0  0  0  0  0  0
   -0.8680    2.6367   -3.9297 N   0  0  0  0  0  0  0  0  0  0  0  0
   -1.6271    1.9874   -3.3969 N   0  0  0  0  0  0  0  0  0  0  0  0
    5.0859    0.8576   -3.9938 C   0  0  0  0  0  0  0  0  0  0  0  0
    5.9010    0.6902   -2.8739 C   0  0  0  0  0  0  0  0  0  0  0  0
    6.3737    1.7917   -2.1469 C   0  0  0  0  0  0  0  0  0  0  0  0
    6.0205    3.0809   -2.5744 C   0  0  0  0  0  0  0  0  0  0  0  0
    5.2078    3.2761   -3.6902 C   0  0  0  0  0  0  0  0  0  0  0  0
    4.7569    2.1551   -4.3921 C   0  0  0  0  0  0  0  0  0  0  0  0
    4.7318    0.0088   -4.5647 H   0  0  0  0  0  0  0  0  0  0  0  0
    6.1735   -0.3119   -2.5615 H   0  0  0  0  0  0  0  0  0  0  0  0
    6.3900    3.9429   -2.0298 H   0  0  0  0  0  0  0  0  0  0  0  0
    4.9480    4.2706   -4.0308 H   0  0  0  0  0  0  0  0  0  0  0  0
    3.6585    2.3871   -5.7530 S   0  0  0  0  0  0  0  0  0  0  0  0
    3.6133    1.1591   -6.5396 O   0  0  0  0  0  0  0  0  0  0  0  0
    3.8536    3.6992   -6.3448 O   0  0  0  0  0  0  0  0  0  0  0  0
    2.1985    2.5425   -4.9380 O   0  0  0  0  0  0  0  0  0  0  0  0
    7.2187    1.5959   -0.9163 C   0  0  0  0  0  0  0  0  0  0  0  0
    6.5955    1.5381   -0.0220 H   0  0  0  0  0  0  0  0  0  0  0  0
    7.7951    0.6738   -0.9797 H   0  0  0  0  0  0  0  0  0  0  0  0
    7.9144    2.4237   -0.7834 H   0  0  0  0  0  0  0  0  0  0  0  0
  1  6  2  0  0  0  0
  2  3  2  0  0  0  0
  2  1  1  0  0  0  0
  3  4  1  0  0  0  0
  4  9  1  0  0  0  0
  4  5  2  0  0  0  0
  5 10  1  0  0  0  0
  6  5  1  0  0  0  0
  6 11  1  0  0  0  0
  7  1  1  0  0  0  0
  8  2  1  0  0  0  0
 11 12  2  0  0  0  0
 13 11  2  0  0  0  0
 14 15  3  0  0  0  0
 16 17  1  0  0  0  0
 17 23  1  0  0  0  0
 17 18  2  0  0  0  0
 18 30  1  0  0  0  0
 19 18  1  0  0  0  0
 19 24  1  0  0  0  0
 20 19  2  0  0  0  0
 21 16  2  0  0  0  0
 21 20  1  0  0  0  0
 22 16  1  0  0  0  0
 25 20  1  0  0  0  0
 26 29  1  0  0  0  0
 26 21  1  0  0  0  0
 27 26  2  0  0  0  0
 28 26  2  0  0  0  0
 29  3  1  0  0  0  0
 30 33  1  0  0  0  0
 30 31  1  0  0  0  0
 32 30  1  0  0  0  0
M  END
