Coordinates from ORCA-job p-NO2-Ph-N2-OTs-MP2-6-31G_dp-scan-d09-49-n400
 OpenBabel02121707583D

 33 33  0  0  0  0  0  0  0  0999 V2000
    0.7712   -0.7251   -4.1506 C   0  0  0  0  0  0  0  0  0  0  0  0
    1.1838    0.3711   -4.9000 C   0  0  0  0  0  0  0  0  0  0  0  0
    1.6277    1.5251   -4.2360 C   0  0  0  0  0  0  0  0  0  0  0  0
    1.9528    1.4742   -2.8708 C   0  0  0  0  0  0  0  0  0  0  0  0
    1.5378    0.3888   -2.1091 C   0  0  0  0  0  0  0  0  0  0  0  0
    0.9426   -0.6905   -2.7653 C   0  0  0  0  0  0  0  0  0  0  0  0
    0.3591   -1.6083   -4.6175 H   0  0  0  0  0  0  0  0  0  0  0  0
    1.0651    0.3940   -5.9745 H   0  0  0  0  0  0  0  0  0  0  0  0
    2.4130    2.3398   -2.4109 H   0  0  0  0  0  0  0  0  0  0  0  0
    1.7057    0.3423   -1.0426 H   0  0  0  0  0  0  0  0  0  0  0  0
    0.5019   -1.8434   -1.9693 N   0  0  0  0  0  0  0  0  0  0  0  0
    0.7021   -1.8047   -0.7432 O   0  0  0  0  0  0  0  0  0  0  0  0
   -0.0403   -2.7849   -2.5724 O   0  0  0  0  0  0  0  0  0  0  0  0
   -0.1593    2.4566   -4.0601 N   0  0  0  0  0  0  0  0  0  0  0  0
   -1.0729    2.0617   -3.5071 N   0  0  0  0  0  0  0  0  0  0  0  0
    4.9536    0.8417   -4.0013 C   0  0  0  0  0  0  0  0  0  0  0  0
    5.7572    0.6575   -2.8771 C   0  0  0  0  0  0  0  0  0  0  0  0
    6.2393    1.7493   -2.1396 C   0  0  0  0  0  0  0  0  0  0  0  0
    5.9103    3.0447   -2.5646 C   0  0  0  0  0  0  0  0  0  0  0  0
    5.1100    3.2569   -3.6875 C   0  0  0  0  0  0  0  0  0  0  0  0
    4.6464    2.1462   -4.3959 C   0  0  0  0  0  0  0  0  0  0  0  0
    4.5860    0.0012   -4.5759 H   0  0  0  0  0  0  0  0  0  0  0  0
    6.0109   -0.3501   -2.5658 H   0  0  0  0  0  0  0  0  0  0  0  0
    6.2870    3.8986   -2.0126 H   0  0  0  0  0  0  0  0  0  0  0  0
    4.8683    4.2567   -4.0258 H   0  0  0  0  0  0  0  0  0  0  0  0
    3.5634    2.4012   -5.7644 S   0  0  0  0  0  0  0  0  0  0  0  0
    3.4943    1.1716   -6.5465 O   0  0  0  0  0  0  0  0  0  0  0  0
    3.8041    3.7030   -6.3626 O   0  0  0  0  0  0  0  0  0  0  0  0
    2.0970    2.6193   -4.9772 O   0  0  0  0  0  0  0  0  0  0  0  0
    7.0784    1.5258   -0.9096 C   0  0  0  0  0  0  0  0  0  0  0  0
    6.4623    1.1874   -0.0747 H   0  0  0  0  0  0  0  0  0  0  0  0
    7.8377    0.7646   -1.0887 H   0  0  0  0  0  0  0  0  0  0  0  0
    7.5817    2.4424   -0.6053 H   0  0  0  0  0  0  0  0  0  0  0  0
  1  6  2  0  0  0  0
  2  3  2  0  0  0  0
  2  1  1  0  0  0  0
  3  4  1  0  0  0  0
  4  9  1  0  0  0  0
  4  5  2  0  0  0  0
  5 10  1  0  0  0  0
  6  5  1  0  0  0  0
  6 11  1  0  0  0  0
  7  1  1  0  0  0  0
  8  2  1  0  0  0  0
 11 12  2  0  0  0  0
 13 11  2  0  0  0  0
 14 15  3  0  0  0  0
 16 17  1  0  0  0  0
 17 23  1  0  0  0  0
 17 18  2  0  0  0  0
 18 30  1  0  0  0  0
 19 18  1  0  0  0  0
 19 24  1  0  0  0  0
 20 19  2  0  0  0  0
 21 16  2  0  0  0  0
 21 20  1  0  0  0  0
 22 16  1  0  0  0  0
 25 20  1  0  0  0  0
 26 29  1  0  0  0  0
 26 21  1  0  0  0  0
 27 26  2  0  0  0  0
 28 26  2  0  0  0  0
 29  3  1  0  0  0  0
 30 33  1  0  0  0  0
 30 31  1  0  0  0  0
 32 30  1  0  0  0  0
M  END
