Coordinates from ORCA-job p-NO2-Ph-N2-OTs-MP2-6-31G_dp-scan-d09-49-n400
 OpenBabel02121707583D

 33 33  0  0  0  0  0  0  0  0999 V2000
    0.7380   -0.6665   -4.2315 C   0  0  0  0  0  0  0  0  0  0  0  0
    1.2327    0.4059   -4.9718 C   0  0  0  0  0  0  0  0  0  0  0  0
    1.8239    1.4800   -4.3013 C   0  0  0  0  0  0  0  0  0  0  0  0
    1.9335    1.5060   -2.9083 C   0  0  0  0  0  0  0  0  0  0  0  0
    1.4345    0.4411   -2.1620 C   0  0  0  0  0  0  0  0  0  0  0  0
    0.8492   -0.6275   -2.8414 C   0  0  0  0  0  0  0  0  0  0  0  0
    0.2703   -1.5159   -4.7085 H   0  0  0  0  0  0  0  0  0  0  0  0
    1.1655    0.4243   -6.0508 H   0  0  0  0  0  0  0  0  0  0  0  0
    2.3961    2.3610   -2.4318 H   0  0  0  0  0  0  0  0  0  0  0  0
    1.4942    0.4242   -1.0832 H   0  0  0  0  0  0  0  0  0  0  0  0
    0.3232   -1.7554   -2.0593 N   0  0  0  0  0  0  0  0  0  0  0  0
    0.4519   -1.7069   -0.8243 O   0  0  0  0  0  0  0  0  0  0  0  0
   -0.2130   -2.6867   -2.6827 O   0  0  0  0  0  0  0  0  0  0  0  0
   -1.4376    2.2728   -3.5646 N   0  0  0  0  0  0  0  0  0  0  0  0
   -1.7816    1.3368   -3.0292 N   0  0  0  0  0  0  0  0  0  0  0  0
    5.1034    0.8429   -3.9891 C   0  0  0  0  0  0  0  0  0  0  0  0
    5.8925    0.6712   -2.8513 C   0  0  0  0  0  0  0  0  0  0  0  0
    6.3835    1.7708   -2.1337 C   0  0  0  0  0  0  0  0  0  0  0  0
    6.0756    3.0622   -2.5888 C   0  0  0  0  0  0  0  0  0  0  0  0
    5.2894    3.2618   -3.7227 C   0  0  0  0  0  0  0  0  0  0  0  0
    4.8193    2.1424   -4.4145 C   0  0  0  0  0  0  0  0  0  0  0  0
    4.7355   -0.0050   -4.5525 H   0  0  0  0  0  0  0  0  0  0  0  0
    6.1302   -0.3329   -2.5176 H   0  0  0  0  0  0  0  0  0  0  0  0
    6.4597    3.9223   -2.0514 H   0  0  0  0  0  0  0  0  0  0  0  0
    5.0646    4.2574   -4.0841 H   0  0  0  0  0  0  0  0  0  0  0  0
    3.7531    2.3825   -5.7993 S   0  0  0  0  0  0  0  0  0  0  0  0
    3.6886    1.1439   -6.5677 O   0  0  0  0  0  0  0  0  0  0  0  0
    3.9941    3.6795   -6.4072 O   0  0  0  0  0  0  0  0  0  0  0  0
    2.2826    2.5899   -5.0144 O   0  0  0  0  0  0  0  0  0  0  0  0
    7.1997    1.5718   -0.8844 C   0  0  0  0  0  0  0  0  0  0  0  0
    6.5588    1.5469   -0.0012 H   0  0  0  0  0  0  0  0  0  0  0  0
    7.7503    0.6326   -0.9219 H   0  0  0  0  0  0  0  0  0  0  0  0
    7.9165    2.3815   -0.7519 H   0  0  0  0  0  0  0  0  0  0  0  0
  1  6  2  0  0  0  0
  2  3  2  0  0  0  0
  2  1  1  0  0  0  0
  3  4  1  0  0  0  0
  4  9  1  0  0  0  0
  4  5  2  0  0  0  0
  5 10  1  0  0  0  0
  6  5  1  0  0  0  0
  6 11  1  0  0  0  0
  7  1  1  0  0  0  0
  8  2  1  0  0  0  0
 11 12  2  0  0  0  0
 13 11  2  0  0  0  0
 14 15  3  0  0  0  0
 16 17  1  0  0  0  0
 17 23  1  0  0  0  0
 17 18  2  0  0  0  0
 18 30  1  0  0  0  0
 19 18  1  0  0  0  0
 19 24  1  0  0  0  0
 20 19  2  0  0  0  0
 21 16  2  0  0  0  0
 21 20  1  0  0  0  0
 22 16  1  0  0  0  0
 25 20  1  0  0  0  0
 26 29  1  0  0  0  0
 26 21  1  0  0  0  0
 27 26  2  0  0  0  0
 28 26  2  0  0  0  0
 29  3  1  0  0  0  0
 30 33  1  0  0  0  0
 30 31  1  0  0  0  0
 32 30  1  0  0  0  0
M  END
