Coordinates from ORCA-job p-NO2-Ph-N2-OTs-MP2-6-31G_dp-scan-d09-49-n400
 OpenBabel02121707583D

 33 33  0  0  0  0  0  0  0  0999 V2000
    0.7495   -0.5171   -4.3089 C   0  0  0  0  0  0  0  0  0  0  0  0
    1.3060    0.5138   -5.0641 C   0  0  0  0  0  0  0  0  0  0  0  0
    1.9176    1.5846   -4.4070 C   0  0  0  0  0  0  0  0  0  0  0  0
    1.9857    1.6480   -3.0127 C   0  0  0  0  0  0  0  0  0  0  0  0
    1.4254    0.6246   -2.2521 C   0  0  0  0  0  0  0  0  0  0  0  0
    0.8246   -0.4438   -2.9180 C   0  0  0  0  0  0  0  0  0  0  0  0
    0.2665   -1.3633   -4.7762 H   0  0  0  0  0  0  0  0  0  0  0  0
    1.2719    0.5017   -6.1446 H   0  0  0  0  0  0  0  0  0  0  0  0
    2.4654    2.4989   -2.5461 H   0  0  0  0  0  0  0  0  0  0  0  0
    1.4554    0.6365   -1.1720 H   0  0  0  0  0  0  0  0  0  0  0  0
    0.2396   -1.5306   -2.1210 N   0  0  0  0  0  0  0  0  0  0  0  0
    0.3633   -1.4667   -0.8863 O   0  0  0  0  0  0  0  0  0  0  0  0
   -0.3372   -2.4451   -2.7322 O   0  0  0  0  0  0  0  0  0  0  0  0
   -2.4930    1.4341   -2.8510 N   0  0  0  0  0  0  0  0  0  0  0  0
   -2.1852    0.4104   -2.4805 N   0  0  0  0  0  0  0  0  0  0  0  0
    5.1551    0.8208   -3.9817 C   0  0  0  0  0  0  0  0  0  0  0  0
    5.9029    0.6466   -2.8168 C   0  0  0  0  0  0  0  0  0  0  0  0
    6.4194    1.7434   -2.1129 C   0  0  0  0  0  0  0  0  0  0  0  0
    6.1801    3.0339   -2.6096 C   0  0  0  0  0  0  0  0  0  0  0  0
    5.4361    3.2360   -3.7713 C   0  0  0  0  0  0  0  0  0  0  0  0
    4.9388    2.1192   -4.4482 C   0  0  0  0  0  0  0  0  0  0  0  0
    4.7676   -0.0257   -4.5340 H   0  0  0  0  0  0  0  0  0  0  0  0
    6.0877   -0.3573   -2.4506 H   0  0  0  0  0  0  0  0  0  0  0  0
    6.5849    3.8913   -2.0831 H   0  0  0  0  0  0  0  0  0  0  0  0
    5.2646    4.2302   -4.1645 H   0  0  0  0  0  0  0  0  0  0  0  0
    3.9248    2.3667   -5.8703 S   0  0  0  0  0  0  0  0  0  0  0  0
    3.8321    1.1125   -6.6098 O   0  0  0  0  0  0  0  0  0  0  0  0
    4.2372    3.6368   -6.5023 O   0  0  0  0  0  0  0  0  0  0  0  0
    2.4415    2.6542   -5.1368 O   0  0  0  0  0  0  0  0  0  0  0  0
    7.1899    1.5437   -0.8350 C   0  0  0  0  0  0  0  0  0  0  0  0
    6.5228    1.5669    0.0287 H   0  0  0  0  0  0  0  0  0  0  0  0
    7.7025    0.5825   -0.8330 H   0  0  0  0  0  0  0  0  0  0  0  0
    7.9349    2.3271   -0.7004 H   0  0  0  0  0  0  0  0  0  0  0  0
  1  6  2  0  0  0  0
  2  3  2  0  0  0  0
  2  1  1  0  0  0  0
  3  4  1  0  0  0  0
  4  9  1  0  0  0  0
  4  5  2  0  0  0  0
  5 10  1  0  0  0  0
  6  5  1  0  0  0  0
  6 11  1  0  0  0  0
  7  1  1  0  0  0  0
  8  2  1  0  0  0  0
 11 12  2  0  0  0  0
 13 11  2  0  0  0  0
 14 15  3  0  0  0  0
 16 17  1  0  0  0  0
 17 23  1  0  0  0  0
 17 18  2  0  0  0  0
 18 30  1  0  0  0  0
 19 18  1  0  0  0  0
 19 24  1  0  0  0  0
 20 19  2  0  0  0  0
 21 16  2  0  0  0  0
 21 20  1  0  0  0  0
 22 16  1  0  0  0  0
 25 20  1  0  0  0  0
 26 29  1  0  0  0  0
 26 21  1  0  0  0  0
 27 26  2  0  0  0  0
 28 26  2  0  0  0  0
 29  3  1  0  0  0  0
 30 32  1  0  0  0  0
 30 33  1  0  0  0  0
 30 31  1  0  0  0  0
M  END
