Coordinates from ORCA-job p-NO2-Ph-N2-OTs-MP2-6-31G_dp-scan-d09-49-n400
 OpenBabel02121707583D

 33 33  0  0  0  0  0  0  0  0999 V2000
    0.7241   -0.7603   -4.1764 C   0  0  0  0  0  0  0  0  0  0  0  0
    1.1921    0.3298   -4.9074 C   0  0  0  0  0  0  0  0  0  0  0  0
    1.7588    1.4110   -4.2282 C   0  0  0  0  0  0  0  0  0  0  0  0
    1.9174    1.4047   -2.8401 C   0  0  0  0  0  0  0  0  0  0  0  0
    1.4450    0.3227   -2.1019 C   0  0  0  0  0  0  0  0  0  0  0  0
    0.8614   -0.7429   -2.7881 C   0  0  0  0  0  0  0  0  0  0  0  0
    0.2657   -1.6114   -4.6593 H   0  0  0  0  0  0  0  0  0  0  0  0
    1.0991    0.3683   -5.9839 H   0  0  0  0  0  0  0  0  0  0  0  0
    2.3714    2.2613   -2.3581 H   0  0  0  0  0  0  0  0  0  0  0  0
    1.5321    0.2855   -1.0255 H   0  0  0  0  0  0  0  0  0  0  0  0
    0.3642   -1.8899   -2.0149 N   0  0  0  0  0  0  0  0  0  0  0  0
    0.5168   -1.8606   -0.7820 O   0  0  0  0  0  0  0  0  0  0  0  0
   -0.1748   -2.8165   -2.6432 O   0  0  0  0  0  0  0  0  0  0  0  0
   -0.6551    2.6302   -3.9932 N   0  0  0  0  0  0  0  0  0  0  0  0
   -1.4971    2.0814   -3.4711 N   0  0  0  0  0  0  0  0  0  0  0  0
    5.0679    0.8604   -3.9983 C   0  0  0  0  0  0  0  0  0  0  0  0
    5.8861    0.6909   -2.8810 C   0  0  0  0  0  0  0  0  0  0  0  0
    6.3558    1.7906   -2.1495 C   0  0  0  0  0  0  0  0  0  0  0  0
    5.9964    3.0805   -2.5698 C   0  0  0  0  0  0  0  0  0  0  0  0
    5.1806    3.2779   -3.6830 C   0  0  0  0  0  0  0  0  0  0  0  0
    4.7326    2.1585   -4.3894 C   0  0  0  0  0  0  0  0  0  0  0  0
    4.7156    0.0131   -4.5724 H   0  0  0  0  0  0  0  0  0  0  0  0
    6.1633   -0.3117   -2.5742 H   0  0  0  0  0  0  0  0  0  0  0  0
    6.3635    3.9413   -2.0217 H   0  0  0  0  0  0  0  0  0  0  0  0
    4.9162    4.2730   -4.0182 H   0  0  0  0  0  0  0  0  0  0  0  0
    3.6307    2.3930   -5.7469 S   0  0  0  0  0  0  0  0  0  0  0  0
    3.5863    1.1675   -6.5374 O   0  0  0  0  0  0  0  0  0  0  0  0
    3.8231    3.7071   -6.3354 O   0  0  0  0  0  0  0  0  0  0  0  0
    2.1717    2.5451   -4.9292 O   0  0  0  0  0  0  0  0  0  0  0  0
    7.2040    1.5922   -0.9216 C   0  0  0  0  0  0  0  0  0  0  0  0
    6.5828    1.5252   -0.0266 H   0  0  0  0  0  0  0  0  0  0  0  0
    7.7856    0.6737   -0.9917 H   0  0  0  0  0  0  0  0  0  0  0  0
    7.8952    2.4231   -0.7847 H   0  0  0  0  0  0  0  0  0  0  0  0
  1  6  2  0  0  0  0
  2  3  2  0  0  0  0
  2  1  1  0  0  0  0
  3  4  1  0  0  0  0
  4  9  1  0  0  0  0
  4  5  2  0  0  0  0
  5 10  1  0  0  0  0
  6  5  1  0  0  0  0
  6 11  1  0  0  0  0
  7  1  1  0  0  0  0
  8  2  1  0  0  0  0
 11 12  2  0  0  0  0
 13 11  2  0  0  0  0
 14 15  3  0  0  0  0
 16 17  1  0  0  0  0
 17 23  1  0  0  0  0
 17 18  2  0  0  0  0
 18 30  1  0  0  0  0
 19 18  1  0  0  0  0
 19 24  1  0  0  0  0
 20 19  2  0  0  0  0
 21 16  2  0  0  0  0
 21 20  1  0  0  0  0
 22 16  1  0  0  0  0
 25 20  1  0  0  0  0
 26 29  1  0  0  0  0
 26 21  1  0  0  0  0
 27 26  2  0  0  0  0
 28 26  2  0  0  0  0
 29  3  1  0  0  0  0
 30 33  1  0  0  0  0
 30 31  1  0  0  0  0
 32 30  1  0  0  0  0
M  END
