Coordinates from ORCA-job p-NO2-Ph-N2-OTs-MP2-6-31G_dp-scan-d09-49-n400
 OpenBabel02121707583D

 33 33  0  0  0  0  0  0  0  0999 V2000
    0.7200   -0.7571   -4.1845 C   0  0  0  0  0  0  0  0  0  0  0  0
    1.1948    0.3312   -4.9138 C   0  0  0  0  0  0  0  0  0  0  0  0
    1.7707    1.4070   -4.2322 C   0  0  0  0  0  0  0  0  0  0  0  0
    1.9167    1.4040   -2.8421 C   0  0  0  0  0  0  0  0  0  0  0  0
    1.4374    0.3234   -2.1062 C   0  0  0  0  0  0  0  0  0  0  0  0
    0.8508   -0.7389   -2.7952 C   0  0  0  0  0  0  0  0  0  0  0  0
    0.2567   -1.6048   -4.6686 H   0  0  0  0  0  0  0  0  0  0  0  0
    1.1077    0.3692   -5.9908 H   0  0  0  0  0  0  0  0  0  0  0  0
    2.3739    2.2577   -2.3583 H   0  0  0  0  0  0  0  0  0  0  0  0
    1.5168    0.2871   -1.0292 H   0  0  0  0  0  0  0  0  0  0  0  0
    0.3461   -1.8842   -2.0241 N   0  0  0  0  0  0  0  0  0  0  0  0
    0.4993   -1.8583   -0.7911 O   0  0  0  0  0  0  0  0  0  0  0  0
   -0.1871   -2.8121   -2.6552 O   0  0  0  0  0  0  0  0  0  0  0  0
   -0.7777    2.6414   -3.9575 N   0  0  0  0  0  0  0  0  0  0  0  0
   -1.5730    2.0310   -3.4300 N   0  0  0  0  0  0  0  0  0  0  0  0
    5.0807    0.8597   -3.9940 C   0  0  0  0  0  0  0  0  0  0  0  0
    5.8980    0.6926   -2.8756 C   0  0  0  0  0  0  0  0  0  0  0  0
    6.3699    1.7941   -2.1482 C   0  0  0  0  0  0  0  0  0  0  0  0
    6.0134    3.0831   -2.5735 C   0  0  0  0  0  0  0  0  0  0  0  0
    5.1984    3.2781   -3.6877 C   0  0  0  0  0  0  0  0  0  0  0  0
    4.7485    2.1570   -4.3902 C   0  0  0  0  0  0  0  0  0  0  0  0
    4.7270    0.0109   -4.5651 H   0  0  0  0  0  0  0  0  0  0  0  0
    6.1730   -0.3094   -2.5649 H   0  0  0  0  0  0  0  0  0  0  0  0
    6.3821    3.9452   -2.0285 H   0  0  0  0  0  0  0  0  0  0  0  0
    4.9362    4.2725   -4.0266 H   0  0  0  0  0  0  0  0  0  0  0  0
    3.6473    2.3885   -5.7489 S   0  0  0  0  0  0  0  0  0  0  0  0
    3.6028    1.1613   -6.5367 O   0  0  0  0  0  0  0  0  0  0  0  0
    3.8393    3.7015   -6.3398 O   0  0  0  0  0  0  0  0  0  0  0  0
    2.1886    2.5413   -4.9314 O   0  0  0  0  0  0  0  0  0  0  0  0
    7.2173    1.5985   -0.9193 C   0  0  0  0  0  0  0  0  0  0  0  0
    6.5957    1.5378   -0.0240 H   0  0  0  0  0  0  0  0  0  0  0  0
    7.7958    0.6778   -0.9850 H   0  0  0  0  0  0  0  0  0  0  0  0
    7.9113    2.4277   -0.7861 H   0  0  0  0  0  0  0  0  0  0  0  0
  1  6  2  0  0  0  0
  2  3  2  0  0  0  0
  2  1  1  0  0  0  0
  3  4  1  0  0  0  0
  4  9  1  0  0  0  0
  4  5  2  0  0  0  0
  5 10  1  0  0  0  0
  6  5  1  0  0  0  0
  6 11  1  0  0  0  0
  7  1  1  0  0  0  0
  8  2  1  0  0  0  0
 11 12  2  0  0  0  0
 13 11  2  0  0  0  0
 14 15  3  0  0  0  0
 16 17  1  0  0  0  0
 17 23  1  0  0  0  0
 17 18  2  0  0  0  0
 18 30  1  0  0  0  0
 19 18  1  0  0  0  0
 19 24  1  0  0  0  0
 20 19  2  0  0  0  0
 21 16  2  0  0  0  0
 21 20  1  0  0  0  0
 22 16  1  0  0  0  0
 25 20  1  0  0  0  0
 26 29  1  0  0  0  0
 26 21  1  0  0  0  0
 27 26  2  0  0  0  0
 28 26  2  0  0  0  0
 29  3  1  0  0  0  0
 30 33  1  0  0  0  0
 30 31  1  0  0  0  0
 32 30  1  0  0  0  0
M  END
