Coordinates from ORCA-job p-NO2-Ph-N2-OTs-MP2-6-31G_dp-scan-d09-49-n400
 OpenBabel02121707583D

 33 33  0  0  0  0  0  0  0  0999 V2000
    2.2207   -0.3890   -3.3970 C   0  0  0  0  0  0  0  0  0  0  0  0
    1.5872    0.1881   -4.4868 C   0  0  0  0  0  0  0  0  0  0  0  0
    0.8503    1.3864   -4.2994 C   0  0  0  0  0  0  0  0  0  0  0  0
    0.7670    2.0043   -3.0206 C   0  0  0  0  0  0  0  0  0  0  0  0
    1.4195    1.4207   -1.9514 C   0  0  0  0  0  0  0  0  0  0  0  0
    2.1398    0.2392   -2.1549 C   0  0  0  0  0  0  0  0  0  0  0  0
    2.7943   -1.2979   -3.5046 H   0  0  0  0  0  0  0  0  0  0  0  0
    1.6780   -0.2090   -5.4881 H   0  0  0  0  0  0  0  0  0  0  0  0
    0.2436    2.9472   -2.9321 H   0  0  0  0  0  0  0  0  0  0  0  0
    1.4026    1.8774   -0.9717 H   0  0  0  0  0  0  0  0  0  0  0  0
    2.8282   -0.3710   -1.0161 N   0  0  0  0  0  0  0  0  0  0  0  0
    2.9058    0.2970    0.0300 O   0  0  0  0  0  0  0  0  0  0  0  0
    3.2897   -1.5148   -1.1779 O   0  0  0  0  0  0  0  0  0  0  0  0
    0.3509    1.8805   -5.1980 N   0  0  0  0  0  0  0  0  0  0  0  0
   -0.1320    2.3822   -6.1012 N   0  0  0  0  0  0  0  0  0  0  0  0
    4.7666    0.8993   -4.6643 C   0  0  0  0  0  0  0  0  0  0  0  0
    5.4345    0.2358   -3.6325 C   0  0  0  0  0  0  0  0  0  0  0  0
    5.4659    0.7618   -2.3315 C   0  0  0  0  0  0  0  0  0  0  0  0
    4.8085    1.9800   -2.0929 C   0  0  0  0  0  0  0  0  0  0  0  0
    4.1420    2.6547   -3.1180 C   0  0  0  0  0  0  0  0  0  0  0  0
    4.1081    2.1083   -4.4047 C   0  0  0  0  0  0  0  0  0  0  0  0
    4.7415    0.4911   -5.6681 H   0  0  0  0  0  0  0  0  0  0  0  0
    5.9529   -0.6953   -3.8405 H   0  0  0  0  0  0  0  0  0  0  0  0
    4.8377    2.4102   -1.0962 H   0  0  0  0  0  0  0  0  0  0  0  0
    3.6406    3.5980   -2.9370 H   0  0  0  0  0  0  0  0  0  0  0  0
    3.2318    2.9627   -5.7256 S   0  0  0  0  0  0  0  0  0  0  0  0
    2.6387    1.8351   -6.5178 O   0  0  0  0  0  0  0  0  0  0  0  0
    4.2220    3.7863   -6.4302 O   0  0  0  0  0  0  0  0  0  0  0  0
    2.1603    3.7104   -4.9892 O   0  0  0  0  0  0  0  0  0  0  0  0
    6.1804    0.0471   -1.2146 C   0  0  0  0  0  0  0  0  0  0  0  0
    5.4802   -0.4828   -0.5657 H   0  0  0  0  0  0  0  0  0  0  0  0
    6.8865   -0.6831   -1.6091 H   0  0  0  0  0  0  0  0  0  0  0  0
    6.7343    0.7539   -0.5966 H   0  0  0  0  0  0  0  0  0  0  0  0
  1  6  2  0  0  0  0
  2  3  2  0  0  0  0
  2  1  1  0  0  0  0
  3  4  1  0  0  0  0
  4  9  1  0  0  0  0
  4  5  2  0  0  0  0
  5 10  1  0  0  0  0
  6  5  1  0  0  0  0
  6 11  1  0  0  0  0
  7  1  1  0  0  0  0
  8  2  1  0  0  0  0
 11 12  2  0  0  0  0
 13 11  2  0  0  0  0
 14  3  1  0  0  0  0
 15 14  1  0  0  0  0
 16 21  2  0  0  0  0
 16 17  1  0  0  0  0
 17 18  2  0  0  0  0
 18 19  1  0  0  0  0
 18 30  1  0  0  0  0
 19 24  1  0  0  0  0
 20 25  1  0  0  0  0
 20 19  2  0  0  0  0
 21 20  1  0  0  0  0
 22 16  1  0  0  0  0
 23 17  1  0  0  0  0
 26 29  1  0  0  0  0
 26 21  1  0  0  0  0
 27 26  2  0  0  0  0
 28 26  2  0  0  0  0
 30 33  1  0  0  0  0
 30 31  1  0  0  0  0
 32 30  1  0  0  0  0
M  RAD  3  14   2  15   3  29   2
M  END
