Coordinates from ORCA-job p-NO2-Ph-N2-OTs-MP2-6-31G_dp-scan-d09-49-n400
 OpenBabel02121707583D

 33 33  0  0  0  0  0  0  0  0999 V2000
   -0.4711   -0.0969   -2.0898 C   0  0  0  0  0  0  0  0  0  0  0  0
   -0.0452    0.0072   -3.3886 C   0  0  0  0  0  0  0  0  0  0  0  0
    0.2943    1.3107   -4.0024 C   0  0  0  0  0  0  0  0  0  0  0  0
    0.1480    2.4717   -3.0923 C   0  0  0  0  0  0  0  0  0  0  0  0
   -0.3138    2.3285   -1.8067 C   0  0  0  0  0  0  0  0  0  0  0  0
   -0.6063    1.0566   -1.3047 C   0  0  0  0  0  0  0  0  0  0  0  0
   -0.7037   -1.0643   -1.6649 H   0  0  0  0  0  0  0  0  0  0  0  0
    0.0919   -0.8542   -4.0329 H   0  0  0  0  0  0  0  0  0  0  0  0
    0.4133    3.4270   -3.5244 H   0  0  0  0  0  0  0  0  0  0  0  0
   -0.4183    3.1953   -1.1677 H   0  0  0  0  0  0  0  0  0  0  0  0
   -1.0806    0.9242    0.0706 N   0  0  0  0  0  0  0  0  0  0  0  0
   -1.2233    1.9702    0.7286 O   0  0  0  0  0  0  0  0  0  0  0  0
   -1.3088   -0.2262    0.4868 O   0  0  0  0  0  0  0  0  0  0  0  0
    0.6056    1.3935   -4.9069 N   0  0  0  0  0  0  0  0  0  0  0  0
    1.0451    1.4899   -6.0321 N   0  0  0  0  0  0  0  0  0  0  0  0
    6.2956    1.9093   -5.0837 C   0  0  0  0  0  0  0  0  0  0  0  0
    7.5021    1.3404   -4.6793 C   0  0  0  0  0  0  0  0  0  0  0  0
    7.5778    0.5348   -3.5333 C   0  0  0  0  0  0  0  0  0  0  0  0
    6.4087    0.3146   -2.7907 C   0  0  0  0  0  0  0  0  0  0  0  0
    5.1917    0.8732   -3.1791 C   0  0  0  0  0  0  0  0  0  0  0  0
    5.1461    1.6720   -4.3247 C   0  0  0  0  0  0  0  0  0  0  0  0
    6.2391    2.5485   -5.9555 H   0  0  0  0  0  0  0  0  0  0  0  0
    8.4007    1.5304   -5.2567 H   0  0  0  0  0  0  0  0  0  0  0  0
    6.4548   -0.2938   -1.8935 H   0  0  0  0  0  0  0  0  0  0  0  0
    4.2923    0.7256   -2.5951 H   0  0  0  0  0  0  0  0  0  0  0  0
    3.6023    2.3608   -4.8609 S   0  0  0  0  0  0  0  0  0  0  0  0
    3.1095    1.2281   -5.7955 O   0  0  0  0  0  0  0  0  0  0  0  0
    3.8778    3.6210   -5.5620 O   0  0  0  0  0  0  0  0  0  0  0  0
    2.7198    2.4447   -3.6604 O   0  0  0  0  0  0  0  0  0  0  0  0
    8.8795   -0.1055   -3.1290 C   0  0  0  0  0  0  0  0  0  0  0  0
    9.0123   -1.0690   -3.6249 H   0  0  0  0  0  0  0  0  0  0  0  0
    9.7266    0.5247   -3.3988 H   0  0  0  0  0  0  0  0  0  0  0  0
    8.9144   -0.2783   -2.0536 H   0  0  0  0  0  0  0  0  0  0  0  0
  1  7  1  0  0  0  0
  1  6  2  0  0  0  0
  2  1  1  0  0  0  0
  3  2  2  0  0  0  0
  3  4  1  0  0  0  0
  4  5  2  0  0  0  0
  5  6  1  0  0  0  0
  5 10  1  0  0  0  0
  6 11  1  0  0  0  0
  8  2  1  0  0  0  0
  9  4  1  0  0  0  0
 11 13  2  0  0  0  0
 11 12  2  0  0  0  0
 14  3  1  0  0  0  0
 15 14  1  0  0  0  0
 16 17  2  0  0  0  0
 16 21  1  0  0  0  0
 17 18  1  0  0  0  0
 18 30  1  0  0  0  0
 18 19  2  0  0  0  0
 19 24  1  0  0  0  0
 20 19  1  0  0  0  0
 20 25  1  0  0  0  0
 21 20  2  0  0  0  0
 22 16  1  0  0  0  0
 23 17  1  0  0  0  0
 26 21  1  0  0  0  0
 26 29  1  0  0  0  0
 27 26  2  0  0  0  0
 28 26  2  0  0  0  0
 30 33  1  0  0  0  0
 31 30  1  0  0  0  0
 32 30  1  0  0  0  0
M  RAD  3  14   2  15   3  29   2
M  END
