Coordinates from ORCA-job p-NO2-Ph-N2-OTs-MP2-6-31G_dp-scan-d09-49-n400
 OpenBabel02121707583D

 33 33  0  0  0  0  0  0  0  0999 V2000
    0.7322   -0.7079   -4.2122 C   0  0  0  0  0  0  0  0  0  0  0  0
    1.2192    0.3717   -4.9469 C   0  0  0  0  0  0  0  0  0  0  0  0
    1.8085    1.4438   -4.2715 C   0  0  0  0  0  0  0  0  0  0  0  0
    1.9219    1.4613   -2.8787 C   0  0  0  0  0  0  0  0  0  0  0  0
    1.4304    0.3891   -2.1379 C   0  0  0  0  0  0  0  0  0  0  0  0
    0.8471   -0.6774   -2.8223 C   0  0  0  0  0  0  0  0  0  0  0  0
    0.2677   -1.5566   -4.6935 H   0  0  0  0  0  0  0  0  0  0  0  0
    1.1458    0.3987   -6.0254 H   0  0  0  0  0  0  0  0  0  0  0  0
    2.3794    2.3168   -2.3981 H   0  0  0  0  0  0  0  0  0  0  0  0
    1.4946    0.3651   -1.0595 H   0  0  0  0  0  0  0  0  0  0  0  0
    0.3351   -1.8161   -2.0464 N   0  0  0  0  0  0  0  0  0  0  0  0
    0.4702   -1.7765   -0.8117 O   0  0  0  0  0  0  0  0  0  0  0  0
   -0.1964   -2.7471   -2.6743 O   0  0  0  0  0  0  0  0  0  0  0  0
   -1.2238    2.4709   -3.7368 N   0  0  0  0  0  0  0  0  0  0  0  0
   -1.7527    1.6309   -3.1928 N   0  0  0  0  0  0  0  0  0  0  0  0
    5.1003    0.8495   -3.9897 C   0  0  0  0  0  0  0  0  0  0  0  0
    5.9022    0.6804   -2.8605 C   0  0  0  0  0  0  0  0  0  0  0  0
    6.3857    1.7815   -2.1400 C   0  0  0  0  0  0  0  0  0  0  0  0
    6.0570    3.0718   -2.5835 C   0  0  0  0  0  0  0  0  0  0  0  0
    5.2577    3.2688   -3.7086 C   0  0  0  0  0  0  0  0  0  0  0  0
    4.7957    2.1481   -4.4038 C   0  0  0  0  0  0  0  0  0  0  0  0
    4.7383    0.0007   -4.5556 H   0  0  0  0  0  0  0  0  0  0  0  0
    6.1558   -0.3227   -2.5358 H   0  0  0  0  0  0  0  0  0  0  0  0
    6.4350    3.9332   -2.0439 H   0  0  0  0  0  0  0  0  0  0  0  0
    5.0168    4.2638   -4.0613 H   0  0  0  0  0  0  0  0  0  0  0  0
    3.7138    2.3836   -5.7771 S   0  0  0  0  0  0  0  0  0  0  0  0
    3.6587    1.1498   -6.5538 O   0  0  0  0  0  0  0  0  0  0  0  0
    3.9320    3.6880   -6.3778 O   0  0  0  0  0  0  0  0  0  0  0  0
    2.2482    2.5653   -4.9772 O   0  0  0  0  0  0  0  0  0  0  0  0
    7.2161    1.5847   -0.8997 C   0  0  0  0  0  0  0  0  0  0  0  0
    6.5839    1.5468   -0.0107 H   0  0  0  0  0  0  0  0  0  0  0  0
    7.7775    0.6525   -0.9482 H   0  0  0  0  0  0  0  0  0  0  0  0
    7.9243    2.4022   -0.7690 H   0  0  0  0  0  0  0  0  0  0  0  0
  1  6  2  0  0  0  0
  2  3  2  0  0  0  0
  2  1  1  0  0  0  0
  3  4  1  0  0  0  0
  4  9  1  0  0  0  0
  4  5  2  0  0  0  0
  5 10  1  0  0  0  0
  6  5  1  0  0  0  0
  6 11  1  0  0  0  0
  7  1  1  0  0  0  0
  8  2  1  0  0  0  0
 11 12  2  0  0  0  0
 13 11  2  0  0  0  0
 14 15  3  0  0  0  0
 16 17  1  0  0  0  0
 17 23  1  0  0  0  0
 17 18  2  0  0  0  0
 18 30  1  0  0  0  0
 19 18  1  0  0  0  0
 19 24  1  0  0  0  0
 20 19  2  0  0  0  0
 21 16  2  0  0  0  0
 21 20  1  0  0  0  0
 22 16  1  0  0  0  0
 25 20  1  0  0  0  0
 26 29  1  0  0  0  0
 26 21  1  0  0  0  0
 27 26  2  0  0  0  0
 28 26  2  0  0  0  0
 29  3  1  0  0  0  0
 30 33  1  0  0  0  0
 30 31  1  0  0  0  0
 32 30  1  0  0  0  0
M  END
