Coordinates from ORCA-job p-NO2-Ph-N2-OTs-MP2-6-31G_dp-scan-d09-49-n400
 OpenBabel02121707583D

 33 33  0  0  0  0  0  0  0  0999 V2000
    0.7757   -0.7309   -4.1545 C   0  0  0  0  0  0  0  0  0  0  0  0
    1.1896    0.3681   -4.8998 C   0  0  0  0  0  0  0  0  0  0  0  0
    1.6373    1.5169   -4.2317 C   0  0  0  0  0  0  0  0  0  0  0  0
    1.9447    1.4688   -2.8635 C   0  0  0  0  0  0  0  0  0  0  0  0
    1.5278    0.3806   -2.1063 C   0  0  0  0  0  0  0  0  0  0  0  0
    0.9424   -0.7001   -2.7687 C   0  0  0  0  0  0  0  0  0  0  0  0
    0.3649   -1.6126   -4.6252 H   0  0  0  0  0  0  0  0  0  0  0  0
    1.0735    0.3936   -5.9745 H   0  0  0  0  0  0  0  0  0  0  0  0
    2.3991    2.3352   -2.3992 H   0  0  0  0  0  0  0  0  0  0  0  0
    1.6869    0.3335   -1.0385 H   0  0  0  0  0  0  0  0  0  0  0  0
    0.5007   -1.8563   -1.9776 N   0  0  0  0  0  0  0  0  0  0  0  0
    0.6920   -1.8188   -0.7501 O   0  0  0  0  0  0  0  0  0  0  0  0
   -0.0334   -2.7989   -2.5861 O   0  0  0  0  0  0  0  0  0  0  0  0
   -0.1912    2.4568   -4.0625 N   0  0  0  0  0  0  0  0  0  0  0  0
   -1.0981    2.0474   -3.5105 N   0  0  0  0  0  0  0  0  0  0  0  0
    4.9607    0.8482   -4.0064 C   0  0  0  0  0  0  0  0  0  0  0  0
    5.7678    0.6606   -2.8843 C   0  0  0  0  0  0  0  0  0  0  0  0
    6.2498    1.7497   -2.1443 C   0  0  0  0  0  0  0  0  0  0  0  0
    5.9153    3.0469   -2.5621 C   0  0  0  0  0  0  0  0  0  0  0  0
    5.1117    3.2622   -3.6811 C   0  0  0  0  0  0  0  0  0  0  0  0
    4.6490    2.1531   -4.3939 C   0  0  0  0  0  0  0  0  0  0  0  0
    4.5947    0.0092   -4.5843 H   0  0  0  0  0  0  0  0  0  0  0  0
    6.0259   -0.3476   -2.5792 H   0  0  0  0  0  0  0  0  0  0  0  0
    6.2929    3.8993   -2.0080 H   0  0  0  0  0  0  0  0  0  0  0  0
    4.8670    4.2629   -4.0146 H   0  0  0  0  0  0  0  0  0  0  0  0
    3.5624    2.4117   -5.7588 S   0  0  0  0  0  0  0  0  0  0  0  0
    3.4955    1.1862   -6.5476 O   0  0  0  0  0  0  0  0  0  0  0  0
    3.7965    3.7177   -6.3504 O   0  0  0  0  0  0  0  0  0  0  0  0
    2.0980    2.6189   -4.9644 O   0  0  0  0  0  0  0  0  0  0  0  0
    7.0845    1.5310   -0.9106 C   0  0  0  0  0  0  0  0  0  0  0  0
    6.4530    1.4387   -0.0251 H   0  0  0  0  0  0  0  0  0  0  0  0
    7.6744    0.6189   -0.9938 H   0  0  0  0  0  0  0  0  0  0  0  0
    7.7672    2.3640   -0.7468 H   0  0  0  0  0  0  0  0  0  0  0  0
  1  6  2  0  0  0  0
  2  3  2  0  0  0  0
  2  1  1  0  0  0  0
  3  4  1  0  0  0  0
  4  9  1  0  0  0  0
  4  5  2  0  0  0  0
  5 10  1  0  0  0  0
  6  5  1  0  0  0  0
  6 11  1  0  0  0  0
  7  1  1  0  0  0  0
  8  2  1  0  0  0  0
 11 12  2  0  0  0  0
 13 11  2  0  0  0  0
 14 15  3  0  0  0  0
 16 17  1  0  0  0  0
 17 23  1  0  0  0  0
 17 18  2  0  0  0  0
 18 30  1  0  0  0  0
 19 18  1  0  0  0  0
 19 24  1  0  0  0  0
 20 19  2  0  0  0  0
 21 16  2  0  0  0  0
 21 20  1  0  0  0  0
 22 16  1  0  0  0  0
 25 20  1  0  0  0  0
 26 29  1  0  0  0  0
 26 21  1  0  0  0  0
 27 26  2  0  0  0  0
 28 26  2  0  0  0  0
 29  3  1  0  0  0  0
 30 33  1  0  0  0  0
 30 31  1  0  0  0  0
 32 30  1  0  0  0  0
M  END
