Coordinates from ORCA-job p-NO2-Ph-N2-OTs-MP2-6-31G_dp-scan-d09-49-n400
 OpenBabel02121707583D

 33 33  0  0  0  0  0  0  0  0999 V2000
    0.7413   -0.6637   -4.2338 C   0  0  0  0  0  0  0  0  0  0  0  0
    1.2366    0.4081   -4.9746 C   0  0  0  0  0  0  0  0  0  0  0  0
    1.8280    1.4824   -4.3045 C   0  0  0  0  0  0  0  0  0  0  0  0
    1.9339    1.5107   -2.9112 C   0  0  0  0  0  0  0  0  0  0  0  0
    1.4342    0.4464   -2.1645 C   0  0  0  0  0  0  0  0  0  0  0  0
    0.8498   -0.6229   -2.8436 C   0  0  0  0  0  0  0  0  0  0  0  0
    0.2740   -1.5134   -4.7106 H   0  0  0  0  0  0  0  0  0  0  0  0
    1.1715    0.4251   -6.0537 H   0  0  0  0  0  0  0  0  0  0  0  0
    2.3961    2.3660   -2.4349 H   0  0  0  0  0  0  0  0  0  0  0  0
    1.4916    0.4310   -1.0856 H   0  0  0  0  0  0  0  0  0  0  0  0
    0.3237   -1.7505   -2.0612 N   0  0  0  0  0  0  0  0  0  0  0  0
    0.4509   -1.7008   -0.8261 O   0  0  0  0  0  0  0  0  0  0  0  0
   -0.2112   -2.6826   -2.6844 O   0  0  0  0  0  0  0  0  0  0  0  0
   -1.4947    2.2610   -3.5436 N   0  0  0  0  0  0  0  0  0  0  0  0
   -1.8104    1.3131   -3.0115 N   0  0  0  0  0  0  0  0  0  0  0  0
    5.1060    0.8420   -3.9888 C   0  0  0  0  0  0  0  0  0  0  0  0
    5.8938    0.6701   -2.8503 C   0  0  0  0  0  0  0  0  0  0  0  0
    6.3859    1.7696   -2.1332 C   0  0  0  0  0  0  0  0  0  0  0  0
    6.0802    3.0610   -2.5896 C   0  0  0  0  0  0  0  0  0  0  0  0
    5.2953    3.2609   -3.7243 C   0  0  0  0  0  0  0  0  0  0  0  0
    4.8241    2.1416   -4.4156 C   0  0  0  0  0  0  0  0  0  0  0  0
    4.7373   -0.0058   -4.5519 H   0  0  0  0  0  0  0  0  0  0  0  0
    6.1297   -0.3341   -2.5155 H   0  0  0  0  0  0  0  0  0  0  0  0
    6.4652    3.9211   -2.0527 H   0  0  0  0  0  0  0  0  0  0  0  0
    5.0723    4.2565   -4.0868 H   0  0  0  0  0  0  0  0  0  0  0  0
    3.7595    2.3820   -5.8015 S   0  0  0  0  0  0  0  0  0  0  0  0
    3.6944    1.1432   -6.5693 O   0  0  0  0  0  0  0  0  0  0  0  0
    4.0023    3.6785   -6.4098 O   0  0  0  0  0  0  0  0  0  0  0  0
    2.2885    2.5913   -5.0180 O   0  0  0  0  0  0  0  0  0  0  0  0
    7.2008    1.5704   -0.8830 C   0  0  0  0  0  0  0  0  0  0  0  0
    6.5590    1.5470   -0.0004 H   0  0  0  0  0  0  0  0  0  0  0  0
    7.7501    0.6304   -0.9193 H   0  0  0  0  0  0  0  0  0  0  0  0
    7.9185    2.3792   -0.7505 H   0  0  0  0  0  0  0  0  0  0  0  0
  1  6  2  0  0  0  0
  2  3  2  0  0  0  0
  2  1  1  0  0  0  0
  3  4  1  0  0  0  0
  4  9  1  0  0  0  0
  4  5  2  0  0  0  0
  5 10  1  0  0  0  0
  6  5  1  0  0  0  0
  6 11  1  0  0  0  0
  7  1  1  0  0  0  0
  8  2  1  0  0  0  0
 11 12  2  0  0  0  0
 13 11  2  0  0  0  0
 14 15  3  0  0  0  0
 16 17  1  0  0  0  0
 17 23  1  0  0  0  0
 17 18  2  0  0  0  0
 18 30  1  0  0  0  0
 19 18  1  0  0  0  0
 19 24  1  0  0  0  0
 20 19  2  0  0  0  0
 21 16  2  0  0  0  0
 21 20  1  0  0  0  0
 22 16  1  0  0  0  0
 25 20  1  0  0  0  0
 26 29  1  0  0  0  0
 26 21  1  0  0  0  0
 27 26  2  0  0  0  0
 28 26  2  0  0  0  0
 29  3  1  0  0  0  0
 30 33  1  0  0  0  0
 30 31  1  0  0  0  0
 32 30  1  0  0  0  0
M  END
