Coordinates from ORCA-job p-NO2-Ph-N2-OTs-MP2-6-31G_dp-scan-d09-49-n400
 OpenBabel02121707583D

 33 33  0  0  0  0  0  0  0  0999 V2000
    2.1898   -0.4294   -3.3173 C   0  0  0  0  0  0  0  0  0  0  0  0
    1.6139    0.1662   -4.4425 C   0  0  0  0  0  0  0  0  0  0  0  0
    0.9409    1.3405   -4.1816 C   0  0  0  0  0  0  0  0  0  0  0  0
    0.7718    2.0149   -2.9880 C   0  0  0  0  0  0  0  0  0  0  0  0
    1.3695    1.3985   -1.8896 C   0  0  0  0  0  0  0  0  0  0  0  0
    2.0815    0.2114   -2.0838 C   0  0  0  0  0  0  0  0  0  0  0  0
    2.7637   -1.3403   -3.4037 H   0  0  0  0  0  0  0  0  0  0  0  0
    1.7469   -0.2072   -5.4459 H   0  0  0  0  0  0  0  0  0  0  0  0
    0.2769    2.9725   -2.9277 H   0  0  0  0  0  0  0  0  0  0  0  0
    1.3377    1.8539   -0.9100 H   0  0  0  0  0  0  0  0  0  0  0  0
    2.7788   -0.3790   -0.9354 N   0  0  0  0  0  0  0  0  0  0  0  0
    2.8799    0.3156    0.0893 O   0  0  0  0  0  0  0  0  0  0  0  0
    3.2317   -1.5278   -1.0740 O   0  0  0  0  0  0  0  0  0  0  0  0
    0.3399    2.0984   -5.4958 N   0  0  0  0  0  0  0  0  0  0  0  0
   -0.2742    2.5288   -6.3447 N   0  0  0  0  0  0  0  0  0  0  0  0
    4.8060    0.9125   -4.6896 C   0  0  0  0  0  0  0  0  0  0  0  0
    5.4889    0.2539   -3.6653 C   0  0  0  0  0  0  0  0  0  0  0  0
    5.5077    0.7645   -2.3576 C   0  0  0  0  0  0  0  0  0  0  0  0
    4.8238    1.9630   -2.1053 C   0  0  0  0  0  0  0  0  0  0  0  0
    4.1378    2.6324   -3.1221 C   0  0  0  0  0  0  0  0  0  0  0  0
    4.1167    2.0994   -4.4141 C   0  0  0  0  0  0  0  0  0  0  0  0
    4.7896    0.5118   -5.6964 H   0  0  0  0  0  0  0  0  0  0  0  0
    6.0277   -0.6628   -3.8846 H   0  0  0  0  0  0  0  0  0  0  0  0
    4.8398    2.3818   -1.1036 H   0  0  0  0  0  0  0  0  0  0  0  0
    3.6130    3.5599   -2.9278 H   0  0  0  0  0  0  0  0  0  0  0  0
    3.2143    2.9368   -5.7221 S   0  0  0  0  0  0  0  0  0  0  0  0
    2.6084    1.8058   -6.5065 O   0  0  0  0  0  0  0  0  0  0  0  0
    4.1768    3.7714   -6.4503 O   0  0  0  0  0  0  0  0  0  0  0  0
    2.1328    3.6788   -4.9838 O   0  0  0  0  0  0  0  0  0  0  0  0
    6.2222    0.0383   -1.2474 C   0  0  0  0  0  0  0  0  0  0  0  0
    5.5432   -0.6187   -0.7005 H   0  0  0  0  0  0  0  0  0  0  0  0
    7.0322   -0.5746   -1.6421 H   0  0  0  0  0  0  0  0  0  0  0  0
    6.6487    0.7439   -0.5344 H   0  0  0  0  0  0  0  0  0  0  0  0
  1  6  2  0  0  0  0
  2  3  2  0  0  0  0
  2  1  1  0  0  0  0
  3  4  1  0  0  0  0
  4  9  1  0  0  0  0
  4  5  2  0  0  0  0
  5 10  1  0  0  0  0
  6  5  1  0  0  0  0
  6 11  1  0  0  0  0
  7  1  1  0  0  0  0
  8  2  1  0  0  0  0
 11 12  2  0  0  0  0
 13 11  2  0  0  0  0
 14  3  1  0  0  0  0
 15 14  1  0  0  0  0
 16 21  2  0  0  0  0
 16 17  1  0  0  0  0
 17 18  2  0  0  0  0
 18 19  1  0  0  0  0
 18 30  1  0  0  0  0
 19 24  1  0  0  0  0
 20 25  1  0  0  0  0
 20 19  2  0  0  0  0
 21 20  1  0  0  0  0
 22 16  1  0  0  0  0
 23 17  1  0  0  0  0
 26 29  1  0  0  0  0
 26 21  1  0  0  0  0
 27 26  2  0  0  0  0
 28 26  2  0  0  0  0
 30 31  1  0  0  0  0
 30 33  1  0  0  0  0
 32 30  1  0  0  0  0
M  RAD  3  14   2  15   3  29   2
M  END
