Coordinates from ORCA-job p-NO2-Ph-N2-OTs-MP2-6-31G_dp-scan-d09-49-n400
 OpenBabel02121707583D

 33 33  0  0  0  0  0  0  0  0999 V2000
    0.7225   -0.7594   -4.1797 C   0  0  0  0  0  0  0  0  0  0  0  0
    1.1937    0.3300   -4.9097 C   0  0  0  0  0  0  0  0  0  0  0  0
    1.7646    1.4084   -4.2294 C   0  0  0  0  0  0  0  0  0  0  0  0
    1.9169    1.4035   -2.8405 C   0  0  0  0  0  0  0  0  0  0  0  0
    1.4413    0.3219   -2.1035 C   0  0  0  0  0  0  0  0  0  0  0  0
    0.8565   -0.7420   -2.7911 C   0  0  0  0  0  0  0  0  0  0  0  0
    0.2620   -1.6089   -4.6634 H   0  0  0  0  0  0  0  0  0  0  0  0
    1.1037    0.3684   -5.9865 H   0  0  0  0  0  0  0  0  0  0  0  0
    2.3722    2.2587   -2.3574 H   0  0  0  0  0  0  0  0  0  0  0  0
    1.5247    0.2850   -1.0269 H   0  0  0  0  0  0  0  0  0  0  0  0
    0.3558   -1.8884   -2.0191 N   0  0  0  0  0  0  0  0  0  0  0  0
    0.5063   -1.8598   -0.7859 O   0  0  0  0  0  0  0  0  0  0  0  0
   -0.1823   -2.8146   -2.6487 O   0  0  0  0  0  0  0  0  0  0  0  0
   -0.7105    2.6372   -3.9792 N   0  0  0  0  0  0  0  0  0  0  0  0
   -1.5332    2.0616   -3.4555 N   0  0  0  0  0  0  0  0  0  0  0  0
    5.0739    0.8603   -3.9963 C   0  0  0  0  0  0  0  0  0  0  0  0
    5.8920    0.6919   -2.8787 C   0  0  0  0  0  0  0  0  0  0  0  0
    6.3628    1.7925   -2.1491 C   0  0  0  0  0  0  0  0  0  0  0  0
    6.0044    3.0819   -2.5716 C   0  0  0  0  0  0  0  0  0  0  0  0
    5.1887    3.2782   -3.6850 C   0  0  0  0  0  0  0  0  0  0  0  0
    4.7399    2.1580   -4.3896 C   0  0  0  0  0  0  0  0  0  0  0  0
    4.7211    0.0123   -4.5691 H   0  0  0  0  0  0  0  0  0  0  0  0
    6.1685   -0.3103   -2.5703 H   0  0  0  0  0  0  0  0  0  0  0  0
    6.3723    3.9434   -2.0249 H   0  0  0  0  0  0  0  0  0  0  0  0
    4.9250    4.2730   -4.0217 H   0  0  0  0  0  0  0  0  0  0  0  0
    3.6378    2.3911   -5.7472 S   0  0  0  0  0  0  0  0  0  0  0  0
    3.5935    1.1649   -6.5368 O   0  0  0  0  0  0  0  0  0  0  0  0
    3.8293    3.7049   -6.3366 O   0  0  0  0  0  0  0  0  0  0  0  0
    2.1792    2.5427   -4.9290 O   0  0  0  0  0  0  0  0  0  0  0  0
    7.2110    1.5954   -0.9210 C   0  0  0  0  0  0  0  0  0  0  0  0
    6.5899    1.5313   -0.0257 H   0  0  0  0  0  0  0  0  0  0  0  0
    7.7913    0.6760   -0.9893 H   0  0  0  0  0  0  0  0  0  0  0  0
    7.9035    2.4256   -0.7860 H   0  0  0  0  0  0  0  0  0  0  0  0
  1  6  2  0  0  0  0
  2  3  2  0  0  0  0
  2  1  1  0  0  0  0
  3  4  1  0  0  0  0
  4  9  1  0  0  0  0
  4  5  2  0  0  0  0
  5 10  1  0  0  0  0
  6  5  1  0  0  0  0
  6 11  1  0  0  0  0
  7  1  1  0  0  0  0
  8  2  1  0  0  0  0
 11 12  2  0  0  0  0
 13 11  2  0  0  0  0
 14 15  3  0  0  0  0
 16 17  1  0  0  0  0
 17 23  1  0  0  0  0
 17 18  2  0  0  0  0
 18 30  1  0  0  0  0
 19 18  1  0  0  0  0
 19 24  1  0  0  0  0
 20 19  2  0  0  0  0
 21 16  2  0  0  0  0
 21 20  1  0  0  0  0
 22 16  1  0  0  0  0
 25 20  1  0  0  0  0
 26 29  1  0  0  0  0
 26 21  1  0  0  0  0
 27 26  2  0  0  0  0
 28 26  2  0  0  0  0
 29  3  1  0  0  0  0
 30 33  1  0  0  0  0
 30 31  1  0  0  0  0
 32 30  1  0  0  0  0
M  END
