Coordinates from ORCA-job p-NO2-Ph-N2-OTs-MP2-6-31G_dp-scan-d09-49-n400
 OpenBabel02121707583D

 33 33  0  0  0  0  0  0  0  0999 V2000
    0.7417   -0.6520   -4.2408 C   0  0  0  0  0  0  0  0  0  0  0  0
    1.2421    0.4166   -4.9828 C   0  0  0  0  0  0  0  0  0  0  0  0
    1.8353    1.4905   -4.3137 C   0  0  0  0  0  0  0  0  0  0  0  0
    1.9391    1.5210   -2.9203 C   0  0  0  0  0  0  0  0  0  0  0  0
    1.4344    0.4598   -2.1724 C   0  0  0  0  0  0  0  0  0  0  0  0
    0.8490   -0.6095   -2.8506 C   0  0  0  0  0  0  0  0  0  0  0  0
    0.2726   -1.5012   -4.7167 H   0  0  0  0  0  0  0  0  0  0  0  0
    1.1787    0.4318   -6.0620 H   0  0  0  0  0  0  0  0  0  0  0  0
    2.4027    2.3760   -2.4448 H   0  0  0  0  0  0  0  0  0  0  0  0
    1.4898    0.4464   -1.0934 H   0  0  0  0  0  0  0  0  0  0  0  0
    0.3147   -1.7321   -2.0667 N   0  0  0  0  0  0  0  0  0  0  0  0
    0.4389   -1.6799   -0.8314 O   0  0  0  0  0  0  0  0  0  0  0  0
   -0.2232   -2.6632   -2.6889 O   0  0  0  0  0  0  0  0  0  0  0  0
   -1.5807    2.2026   -3.4840 N   0  0  0  0  0  0  0  0  0  0  0  0
   -1.8304    1.2304   -2.9610 N   0  0  0  0  0  0  0  0  0  0  0  0
    5.1105    0.8402   -3.9883 C   0  0  0  0  0  0  0  0  0  0  0  0
    5.8949    0.6683   -2.8474 C   0  0  0  0  0  0  0  0  0  0  0  0
    6.3884    1.7678   -2.1313 C   0  0  0  0  0  0  0  0  0  0  0  0
    6.0878    3.0592   -2.5911 C   0  0  0  0  0  0  0  0  0  0  0  0
    5.3065    3.2590   -3.7283 C   0  0  0  0  0  0  0  0  0  0  0  0
    4.8337    2.1397   -4.4185 C   0  0  0  0  0  0  0  0  0  0  0  0
    4.7408   -0.0077   -4.5505 H   0  0  0  0  0  0  0  0  0  0  0  0
    6.1268   -0.3359   -2.5099 H   0  0  0  0  0  0  0  0  0  0  0  0
    6.4740    3.9192   -2.0550 H   0  0  0  0  0  0  0  0  0  0  0  0
    5.0875    4.2546   -4.0935 H   0  0  0  0  0  0  0  0  0  0  0  0
    3.7735    2.3805   -5.8078 S   0  0  0  0  0  0  0  0  0  0  0  0
    3.7064    1.1402   -6.5730 O   0  0  0  0  0  0  0  0  0  0  0  0
    4.0221    3.6749   -6.4183 O   0  0  0  0  0  0  0  0  0  0  0  0
    2.3011    2.5963   -5.0287 O   0  0  0  0  0  0  0  0  0  0  0  0
    7.1993    1.5688   -0.8785 C   0  0  0  0  0  0  0  0  0  0  0  0
    6.5551    1.5490    0.0024 H   0  0  0  0  0  0  0  0  0  0  0  0
    7.7460    0.6271   -0.9115 H   0  0  0  0  0  0  0  0  0  0  0  0
    7.9190    2.3758   -0.7457 H   0  0  0  0  0  0  0  0  0  0  0  0
  1  6  2  0  0  0  0
  2  3  2  0  0  0  0
  2  1  1  0  0  0  0
  3  4  1  0  0  0  0
  4  9  1  0  0  0  0
  4  5  2  0  0  0  0
  5 10  1  0  0  0  0
  6  5  1  0  0  0  0
  6 11  1  0  0  0  0
  7  1  1  0  0  0  0
  8  2  1  0  0  0  0
 11 12  2  0  0  0  0
 13 11  2  0  0  0  0
 14 15  3  0  0  0  0
 16 17  1  0  0  0  0
 17 23  1  0  0  0  0
 17 18  2  0  0  0  0
 18 30  1  0  0  0  0
 19 18  1  0  0  0  0
 19 24  1  0  0  0  0
 20 19  2  0  0  0  0
 21 16  2  0  0  0  0
 21 20  1  0  0  0  0
 22 16  1  0  0  0  0
 25 20  1  0  0  0  0
 26 29  1  0  0  0  0
 26 21  1  0  0  0  0
 27 26  2  0  0  0  0
 28 26  2  0  0  0  0
 29  3  1  0  0  0  0
 30 33  1  0  0  0  0
 30 31  1  0  0  0  0
 32 30  1  0  0  0  0
M  END
