Coordinates from ORCA-job p-NO2-Ph-N2-OTs-MP2-6-31G_dp-scan-d09-49-n400
 OpenBabel02121707583D

 33 33  0  0  0  0  0  0  0  0999 V2000
    0.7496   -0.5642   -4.2888 C   0  0  0  0  0  0  0  0  0  0  0  0
    1.2881    0.4791   -5.0398 C   0  0  0  0  0  0  0  0  0  0  0  0
    1.8918    1.5521   -4.3787 C   0  0  0  0  0  0  0  0  0  0  0  0
    1.9711    1.6045   -2.9845 C   0  0  0  0  0  0  0  0  0  0  0  0
    1.4288    0.5684   -2.2280 C   0  0  0  0  0  0  0  0  0  0  0  0
    0.8349   -0.5011   -2.8981 C   0  0  0  0  0  0  0  0  0  0  0  0
    0.2718   -1.4118   -4.7591 H   0  0  0  0  0  0  0  0  0  0  0  0
    1.2453    0.4757   -6.1201 H   0  0  0  0  0  0  0  0  0  0  0  0
    2.4445    2.4572   -2.5148 H   0  0  0  0  0  0  0  0  0  0  0  0
    1.4665    0.5721   -1.1481 H   0  0  0  0  0  0  0  0  0  0  0  0
    0.2608   -1.5968   -2.1051 N   0  0  0  0  0  0  0  0  0  0  0  0
    0.3889   -1.5395   -0.8704 O   0  0  0  0  0  0  0  0  0  0  0  0
   -0.3110   -2.5125   -2.7195 O   0  0  0  0  0  0  0  0  0  0  0  0
   -2.2041    1.7097   -3.0513 N   0  0  0  0  0  0  0  0  0  0  0  0
   -2.0772    0.6727   -2.6169 N   0  0  0  0  0  0  0  0  0  0  0  0
    5.1429    0.8270   -3.9842 C   0  0  0  0  0  0  0  0  0  0  0  0
    5.9020    0.6539   -2.8265 C   0  0  0  0  0  0  0  0  0  0  0  0
    6.4095    1.7522   -2.1183 C   0  0  0  0  0  0  0  0  0  0  0  0
    6.1492    3.0431   -2.6031 C   0  0  0  0  0  0  0  0  0  0  0  0
    5.3935    3.2441   -3.7574 C   0  0  0  0  0  0  0  0  0  0  0  0
    4.9058    2.1260   -4.4391 C   0  0  0  0  0  0  0  0  0  0  0  0
    4.7624   -0.0203   -4.5401 H   0  0  0  0  0  0  0  0  0  0  0  0
    6.1030   -0.3502   -2.4696 H   0  0  0  0  0  0  0  0  0  0  0  0
    6.5467    3.9017   -2.0731 H   0  0  0  0  0  0  0  0  0  0  0  0
    5.2058    4.2389   -4.1416 H   0  0  0  0  0  0  0  0  0  0  0  0
    3.8774    2.3708   -5.8513 S   0  0  0  0  0  0  0  0  0  0  0  0
    3.7947    1.1209   -6.5992 O   0  0  0  0  0  0  0  0  0  0  0  0
    4.1685    3.6493   -6.4763 O   0  0  0  0  0  0  0  0  0  0  0  0
    2.3965    2.6339   -5.1038 O   0  0  0  0  0  0  0  0  0  0  0  0
    7.1925    1.5530   -0.8479 C   0  0  0  0  0  0  0  0  0  0  0  0
    6.5321    1.5615    0.0211 H   0  0  0  0  0  0  0  0  0  0  0  0
    7.7172    0.5984   -0.8570 H   0  0  0  0  0  0  0  0  0  0  0  0
    7.9287    2.3448   -0.7135 H   0  0  0  0  0  0  0  0  0  0  0  0
  1  6  2  0  0  0  0
  2  3  2  0  0  0  0
  2  1  1  0  0  0  0
  3  4  1  0  0  0  0
  4  9  1  0  0  0  0
  4  5  2  0  0  0  0
  5 10  1  0  0  0  0
  6  5  1  0  0  0  0
  6 11  1  0  0  0  0
  7  1  1  0  0  0  0
  8  2  1  0  0  0  0
 11 12  2  0  0  0  0
 13 11  2  0  0  0  0
 14 15  3  0  0  0  0
 16 17  1  0  0  0  0
 17 23  1  0  0  0  0
 17 18  2  0  0  0  0
 18 30  1  0  0  0  0
 19 18  1  0  0  0  0
 19 24  1  0  0  0  0
 20 19  2  0  0  0  0
 21 16  2  0  0  0  0
 21 20  1  0  0  0  0
 22 16  1  0  0  0  0
 25 20  1  0  0  0  0
 26 29  1  0  0  0  0
 26 21  1  0  0  0  0
 27 26  2  0  0  0  0
 28 26  2  0  0  0  0
 29  3  1  0  0  0  0
 30 33  1  0  0  0  0
 30 31  1  0  0  0  0
 32 30  1  0  0  0  0
M  END
