Coordinates from ORCA-job p-NO2-Ph-N2-OTs-MP2-6-31G_dp-scan-d09-49-n400
 OpenBabel02121707583D

 33 33  0  0  0  0  0  0  0  0999 V2000
    0.7526   -0.6366   -4.2490 C   0  0  0  0  0  0  0  0  0  0  0  0
    1.2530    0.4298   -4.9943 C   0  0  0  0  0  0  0  0  0  0  0  0
    1.8487    1.5049   -4.3291 C   0  0  0  0  0  0  0  0  0  0  0  0
    1.9403    1.5453   -2.9350 C   0  0  0  0  0  0  0  0  0  0  0  0
    1.4356    0.4864   -2.1838 C   0  0  0  0  0  0  0  0  0  0  0  0
    0.8555   -0.5878   -2.8587 C   0  0  0  0  0  0  0  0  0  0  0  0
    0.2872   -1.4890   -4.7229 H   0  0  0  0  0  0  0  0  0  0  0  0
    1.1952    0.4388   -6.0739 H   0  0  0  0  0  0  0  0  0  0  0  0
    2.4023    2.4025   -2.4621 H   0  0  0  0  0  0  0  0  0  0  0  0
    1.4880    0.4783   -1.1046 H   0  0  0  0  0  0  0  0  0  0  0  0
    0.3338   -1.7145   -2.0722 N   0  0  0  0  0  0  0  0  0  0  0  0
    0.4618   -1.6602   -0.8373 O   0  0  0  0  0  0  0  0  0  0  0  0
   -0.1958   -2.6520   -2.6918 O   0  0  0  0  0  0  0  0  0  0  0  0
   -1.7760    2.1488   -3.3983 N   0  0  0  0  0  0  0  0  0  0  0  0
   -1.9269    1.1479   -2.8918 N   0  0  0  0  0  0  0  0  0  0  0  0
    5.1142    0.8348   -3.9876 C   0  0  0  0  0  0  0  0  0  0  0  0
    5.8919    0.6615   -2.8423 C   0  0  0  0  0  0  0  0  0  0  0  0
    6.3898    1.7600   -2.1278 C   0  0  0  0  0  0  0  0  0  0  0  0
    6.1005    3.0519   -2.5936 C   0  0  0  0  0  0  0  0  0  0  0  0
    5.3258    3.2531   -3.7351 C   0  0  0  0  0  0  0  0  0  0  0  0
    4.8485    2.1348   -4.4236 C   0  0  0  0  0  0  0  0  0  0  0  0
    4.7410   -0.0124   -4.5485 H   0  0  0  0  0  0  0  0  0  0  0  0
    6.1152   -0.3431   -2.5002 H   0  0  0  0  0  0  0  0  0  0  0  0
    6.4903    3.9110   -2.0587 H   0  0  0  0  0  0  0  0  0  0  0  0
    5.1156    4.2489   -4.1048 H   0  0  0  0  0  0  0  0  0  0  0  0
    3.7966    2.3780   -5.8188 S   0  0  0  0  0  0  0  0  0  0  0  0
    3.7258    1.1360   -6.5809 O   0  0  0  0  0  0  0  0  0  0  0  0
    4.0559    3.6691   -6.4317 O   0  0  0  0  0  0  0  0  0  0  0  0
    2.3215    2.6049   -5.0478 O   0  0  0  0  0  0  0  0  0  0  0  0
    7.1934    1.5597   -0.8706 C   0  0  0  0  0  0  0  0  0  0  0  0
    6.5449    1.5469    0.0073 H   0  0  0  0  0  0  0  0  0  0  0  0
    7.7341    0.6144   -0.8979 H   0  0  0  0  0  0  0  0  0  0  0  0
    7.9178    2.3624   -0.7368 H   0  0  0  0  0  0  0  0  0  0  0  0
  1  6  2  0  0  0  0
  2  3  2  0  0  0  0
  2  1  1  0  0  0  0
  3  4  1  0  0  0  0
  4  9  1  0  0  0  0
  4  5  2  0  0  0  0
  5 10  1  0  0  0  0
  6  5  1  0  0  0  0
  6 11  1  0  0  0  0
  7  1  1  0  0  0  0
  8  2  1  0  0  0  0
 11 12  2  0  0  0  0
 13 11  2  0  0  0  0
 14 15  3  0  0  0  0
 16 17  1  0  0  0  0
 17 23  1  0  0  0  0
 17 18  2  0  0  0  0
 18 30  1  0  0  0  0
 19 18  1  0  0  0  0
 19 24  1  0  0  0  0
 20 19  2  0  0  0  0
 21 16  2  0  0  0  0
 21 20  1  0  0  0  0
 22 16  1  0  0  0  0
 25 20  1  0  0  0  0
 26 29  1  0  0  0  0
 26 21  1  0  0  0  0
 27 26  2  0  0  0  0
 28 26  2  0  0  0  0
 29  3  1  0  0  0  0
 30 33  1  0  0  0  0
 30 31  1  0  0  0  0
 32 30  1  0  0  0  0
M  END
