Coordinates from ORCA-job p-NO2-Ph-N2-OTs-MP2-6-31G_dp-scan-d09-49-n400
 OpenBabel02121707583D

 33 33  0  0  0  0  0  0  0  0999 V2000
    2.2153   -0.3987   -3.3899 C   0  0  0  0  0  0  0  0  0  0  0  0
    1.5862    0.1822   -4.4819 C   0  0  0  0  0  0  0  0  0  0  0  0
    0.8598    1.3780   -4.2832 C   0  0  0  0  0  0  0  0  0  0  0  0
    0.7668    2.0021   -3.0153 C   0  0  0  0  0  0  0  0  0  0  0  0
    1.4133    1.4149   -1.9428 C   0  0  0  0  0  0  0  0  0  0  0  0
    2.1333    0.2333   -2.1497 C   0  0  0  0  0  0  0  0  0  0  0  0
    2.7900   -1.3071   -3.4944 H   0  0  0  0  0  0  0  0  0  0  0  0
    1.6801   -0.2142   -5.4829 H   0  0  0  0  0  0  0  0  0  0  0  0
    0.2463    2.9464   -2.9266 H   0  0  0  0  0  0  0  0  0  0  0  0
    1.3985    1.8698   -0.9625 H   0  0  0  0  0  0  0  0  0  0  0  0
    2.8265   -0.3747   -1.0102 N   0  0  0  0  0  0  0  0  0  0  0  0
    2.9076    0.2960    0.0333 O   0  0  0  0  0  0  0  0  0  0  0  0
    3.2885   -1.5178   -1.1707 O   0  0  0  0  0  0  0  0  0  0  0  0
    0.3409    1.9090   -5.2397 N   0  0  0  0  0  0  0  0  0  0  0  0
   -0.1451    2.4084   -6.1412 N   0  0  0  0  0  0  0  0  0  0  0  0
    4.7690    0.9009   -4.6651 C   0  0  0  0  0  0  0  0  0  0  0  0
    5.4385    0.2382   -3.6339 C   0  0  0  0  0  0  0  0  0  0  0  0
    5.4697    0.7635   -2.3327 C   0  0  0  0  0  0  0  0  0  0  0  0
    4.8104    1.9803   -2.0932 C   0  0  0  0  0  0  0  0  0  0  0  0
    4.1418    2.6542   -3.1175 C   0  0  0  0  0  0  0  0  0  0  0  0
    4.1078    2.1081   -4.4044 C   0  0  0  0  0  0  0  0  0  0  0  0
    4.7439    0.4928   -5.6689 H   0  0  0  0  0  0  0  0  0  0  0  0
    5.9582   -0.6919   -3.8427 H   0  0  0  0  0  0  0  0  0  0  0  0
    4.8392    2.4103   -1.0964 H   0  0  0  0  0  0  0  0  0  0  0  0
    3.6388    3.5964   -2.9354 H   0  0  0  0  0  0  0  0  0  0  0  0
    3.2318    2.9615   -5.7249 S   0  0  0  0  0  0  0  0  0  0  0  0
    2.6373    1.8343   -6.5173 O   0  0  0  0  0  0  0  0  0  0  0  0
    4.2216    3.7847   -6.4307 O   0  0  0  0  0  0  0  0  0  0  0  0
    2.1592    3.7105   -4.9905 O   0  0  0  0  0  0  0  0  0  0  0  0
    6.1855    0.0490   -1.2163 C   0  0  0  0  0  0  0  0  0  0  0  0
    5.4856   -0.4762   -0.5636 H   0  0  0  0  0  0  0  0  0  0  0  0
    6.8874   -0.6848   -1.6112 H   0  0  0  0  0  0  0  0  0  0  0  0
    6.7444    0.7554   -0.6022 H   0  0  0  0  0  0  0  0  0  0  0  0
  1  6  2  0  0  0  0
  2  3  2  0  0  0  0
  2  1  1  0  0  0  0
  3  4  1  0  0  0  0
  4  9  1  0  0  0  0
  4  5  2  0  0  0  0
  5 10  1  0  0  0  0
  6  5  1  0  0  0  0
  6 11  1  0  0  0  0
  7  1  1  0  0  0  0
  8  2  1  0  0  0  0
 11 12  2  0  0  0  0
 13 11  2  0  0  0  0
 14  3  1  0  0  0  0
 15 14  1  0  0  0  0
 16 21  2  0  0  0  0
 16 17  1  0  0  0  0
 17 18  2  0  0  0  0
 18 19  1  0  0  0  0
 18 30  1  0  0  0  0
 19 24  1  0  0  0  0
 20 25  1  0  0  0  0
 20 19  2  0  0  0  0
 21 20  1  0  0  0  0
 22 16  1  0  0  0  0
 23 17  1  0  0  0  0
 26 29  1  0  0  0  0
 26 21  1  0  0  0  0
 27 26  2  0  0  0  0
 28 26  2  0  0  0  0
 30 33  1  0  0  0  0
 30 31  1  0  0  0  0
 32 30  1  0  0  0  0
M  RAD  3  14   2  15   3  29   2
M  END
