Coordinates from ORCA-job p-NO2-Ph-N2-OTs-MP2-6-31G_dp-scan-d09-49-n400
 OpenBabel02121707583D

 33 33  0  0  0  0  0  0  0  0999 V2000
    0.7482   -0.5695   -4.2862 C   0  0  0  0  0  0  0  0  0  0  0  0
    1.2854    0.4750   -5.0366 C   0  0  0  0  0  0  0  0  0  0  0  0
    1.8880    1.5481   -4.3748 C   0  0  0  0  0  0  0  0  0  0  0  0
    1.9698    1.5984   -2.9806 C   0  0  0  0  0  0  0  0  0  0  0  0
    1.4287    0.5612   -2.2247 C   0  0  0  0  0  0  0  0  0  0  0  0
    0.8350   -0.5080   -2.8955 C   0  0  0  0  0  0  0  0  0  0  0  0
    0.2700   -1.4166   -4.7569 H   0  0  0  0  0  0  0  0  0  0  0  0
    1.2411    0.4730   -6.1168 H   0  0  0  0  0  0  0  0  0  0  0  0
    2.4427    2.4511   -2.5104 H   0  0  0  0  0  0  0  0  0  0  0  0
    1.4671    0.5638   -1.1449 H   0  0  0  0  0  0  0  0  0  0  0  0
    0.2581   -1.6026   -2.1031 N   0  0  0  0  0  0  0  0  0  0  0  0
    0.3846   -1.5453   -0.8682 O   0  0  0  0  0  0  0  0  0  0  0  0
   -0.3150   -2.5172   -2.7181 O   0  0  0  0  0  0  0  0  0  0  0  0
   -2.1529    1.7349   -3.0769 N   0  0  0  0  0  0  0  0  0  0  0  0
   -2.0490    0.6980   -2.6359 N   0  0  0  0  0  0  0  0  0  0  0  0
    5.1412    0.8281   -3.9845 C   0  0  0  0  0  0  0  0  0  0  0  0
    5.9021    0.6552   -2.8279 C   0  0  0  0  0  0  0  0  0  0  0  0
    6.4083    1.7537   -2.1191 C   0  0  0  0  0  0  0  0  0  0  0  0
    6.1451    3.0446   -2.6023 C   0  0  0  0  0  0  0  0  0  0  0  0
    5.3878    3.2454   -3.7555 C   0  0  0  0  0  0  0  0  0  0  0  0
    4.9013    2.1271   -4.4378 C   0  0  0  0  0  0  0  0  0  0  0  0
    4.7616   -0.0193   -4.5408 H   0  0  0  0  0  0  0  0  0  0  0  0
    6.1053   -0.3489   -2.4722 H   0  0  0  0  0  0  0  0  0  0  0  0
    6.5417    3.9034   -2.0719 H   0  0  0  0  0  0  0  0  0  0  0  0
    5.1978    4.2402   -4.1385 H   0  0  0  0  0  0  0  0  0  0  0  0
    3.8709    2.3715   -5.8486 S   0  0  0  0  0  0  0  0  0  0  0  0
    3.7893    1.1221   -6.5975 O   0  0  0  0  0  0  0  0  0  0  0  0
    4.1591    3.6510   -6.4728 O   0  0  0  0  0  0  0  0  0  0  0  0
    2.3904    2.6316   -5.0991 O   0  0  0  0  0  0  0  0  0  0  0  0
    7.1932    1.5546   -0.8499 C   0  0  0  0  0  0  0  0  0  0  0  0
    6.5338    1.5612    0.0200 H   0  0  0  0  0  0  0  0  0  0  0  0
    7.7195    0.6009   -0.8604 H   0  0  0  0  0  0  0  0  0  0  0  0
    7.9281    2.3475   -0.7155 H   0  0  0  0  0  0  0  0  0  0  0  0
  1  6  2  0  0  0  0
  2  3  2  0  0  0  0
  2  1  1  0  0  0  0
  3  4  1  0  0  0  0
  4  9  1  0  0  0  0
  4  5  2  0  0  0  0
  5 10  1  0  0  0  0
  6  5  1  0  0  0  0
  6 11  1  0  0  0  0
  7  1  1  0  0  0  0
  8  2  1  0  0  0  0
 11 12  2  0  0  0  0
 13 11  2  0  0  0  0
 14 15  3  0  0  0  0
 16 17  1  0  0  0  0
 17 23  1  0  0  0  0
 17 18  2  0  0  0  0
 18 30  1  0  0  0  0
 19 18  1  0  0  0  0
 19 24  1  0  0  0  0
 20 19  2  0  0  0  0
 21 16  2  0  0  0  0
 21 20  1  0  0  0  0
 22 16  1  0  0  0  0
 25 20  1  0  0  0  0
 26 29  1  0  0  0  0
 26 21  1  0  0  0  0
 27 26  2  0  0  0  0
 28 26  2  0  0  0  0
 29  3  1  0  0  0  0
 30 33  1  0  0  0  0
 30 31  1  0  0  0  0
 32 30  1  0  0  0  0
M  END
