Coordinates from ORCA-job p-NO2-Ph-N2-OTs-MP2-6-31G_dp-scan-d09-49-n400
 OpenBabel02121707583D

 33 33  0  0  0  0  0  0  0  0999 V2000
    0.7494   -0.5407   -4.2992 C   0  0  0  0  0  0  0  0  0  0  0  0
    1.2971    0.4964   -5.0522 C   0  0  0  0  0  0  0  0  0  0  0  0
    1.9048    1.5683   -4.3931 C   0  0  0  0  0  0  0  0  0  0  0  0
    1.9785    1.6261   -2.9989 C   0  0  0  0  0  0  0  0  0  0  0  0
    1.4271    0.5963   -2.2403 C   0  0  0  0  0  0  0  0  0  0  0  0
    0.8296   -0.4725   -2.9083 C   0  0  0  0  0  0  0  0  0  0  0  0
    0.2688   -1.3874   -4.7680 H   0  0  0  0  0  0  0  0  0  0  0  0
    1.2588    0.4886   -6.1327 H   0  0  0  0  0  0  0  0  0  0  0  0
    2.4550    2.4779   -2.5307 H   0  0  0  0  0  0  0  0  0  0  0  0
    1.4610    0.6041   -1.1603 H   0  0  0  0  0  0  0  0  0  0  0  0
    0.2492   -1.5633   -2.1134 N   0  0  0  0  0  0  0  0  0  0  0  0
    0.3795   -1.5053   -0.8790 O   0  0  0  0  0  0  0  0  0  0  0  0
   -0.3302   -2.4754   -2.7258 O   0  0  0  0  0  0  0  0  0  0  0  0
   -2.3462    1.5723   -2.9509 N   0  0  0  0  0  0  0  0  0  0  0  0
   -2.1312    0.5379   -2.5461 N   0  0  0  0  0  0  0  0  0  0  0  0
    5.1492    0.8239   -3.9828 C   0  0  0  0  0  0  0  0  0  0  0  0
    5.9026    0.6504   -2.8215 C   0  0  0  0  0  0  0  0  0  0  0  0
    6.4145    1.7480   -2.1155 C   0  0  0  0  0  0  0  0  0  0  0  0
    6.1646    3.0388   -2.6064 C   0  0  0  0  0  0  0  0  0  0  0  0
    5.4149    3.2402   -3.7644 C   0  0  0  0  0  0  0  0  0  0  0  0
    4.9225    2.1227   -4.4437 C   0  0  0  0  0  0  0  0  0  0  0  0
    4.7653   -0.0230   -4.5369 H   0  0  0  0  0  0  0  0  0  0  0  0
    6.0955   -0.3536   -2.4598 H   0  0  0  0  0  0  0  0  0  0  0  0
    6.5657    3.8968   -2.0782 H   0  0  0  0  0  0  0  0  0  0  0  0
    5.2352    4.2347   -4.1533 H   0  0  0  0  0  0  0  0  0  0  0  0
    3.9013    2.3687   -5.8610 S   0  0  0  0  0  0  0  0  0  0  0  0
    3.8138    1.1166   -6.6046 O   0  0  0  0  0  0  0  0  0  0  0  0
    4.2031    3.6430   -6.4896 O   0  0  0  0  0  0  0  0  0  0  0  0
    2.4191    2.6440   -5.1206 O   0  0  0  0  0  0  0  0  0  0  0  0
    7.1911    1.5487   -0.8412 C   0  0  0  0  0  0  0  0  0  0  0  0
    6.5272    1.5645    0.0251 H   0  0  0  0  0  0  0  0  0  0  0  0
    7.7099    0.5908   -0.8447 H   0  0  0  0  0  0  0  0  0  0  0  0
    7.9316    2.3363   -0.7067 H   0  0  0  0  0  0  0  0  0  0  0  0
  1  6  2  0  0  0  0
  2  3  2  0  0  0  0
  2  1  1  0  0  0  0
  3  4  1  0  0  0  0
  4  9  1  0  0  0  0
  4  5  2  0  0  0  0
  5 10  1  0  0  0  0
  6  5  1  0  0  0  0
  6 11  1  0  0  0  0
  7  1  1  0  0  0  0
  8  2  1  0  0  0  0
 11 12  2  0  0  0  0
 13 11  2  0  0  0  0
 14 15  3  0  0  0  0
 16 17  1  0  0  0  0
 17 23  1  0  0  0  0
 17 18  2  0  0  0  0
 18 30  1  0  0  0  0
 19 18  1  0  0  0  0
 19 24  1  0  0  0  0
 20 19  2  0  0  0  0
 21 16  2  0  0  0  0
 21 20  1  0  0  0  0
 22 16  1  0  0  0  0
 25 20  1  0  0  0  0
 26 29  1  0  0  0  0
 26 21  1  0  0  0  0
 27 26  2  0  0  0  0
 28 26  2  0  0  0  0
 29  3  1  0  0  0  0
 30 33  1  0  0  0  0
 30 31  1  0  0  0  0
 32 30  1  0  0  0  0
M  END
