Coordinates from ORCA-job p-NO2-Ph-N2-OTs-MP2-6-31G_dp-scan-d09-49-n400
 OpenBabel02121707583D

 33 33  0  0  0  0  0  0  0  0999 V2000
    0.7302   -0.7112   -4.2102 C   0  0  0  0  0  0  0  0  0  0  0  0
    1.2168    0.3689   -4.9445 C   0  0  0  0  0  0  0  0  0  0  0  0
    1.8057    1.4409   -4.2687 C   0  0  0  0  0  0  0  0  0  0  0  0
    1.9215    1.4569   -2.8761 C   0  0  0  0  0  0  0  0  0  0  0  0
    1.4305    0.3843   -2.1356 C   0  0  0  0  0  0  0  0  0  0  0  0
    0.8463   -0.6816   -2.8203 C   0  0  0  0  0  0  0  0  0  0  0  0
    0.2654   -1.5596   -4.6917 H   0  0  0  0  0  0  0  0  0  0  0  0
    1.1422    0.3969   -6.0229 H   0  0  0  0  0  0  0  0  0  0  0  0
    2.3792    2.3122   -2.3953 H   0  0  0  0  0  0  0  0  0  0  0  0
    1.4958    0.3593   -1.0573 H   0  0  0  0  0  0  0  0  0  0  0  0
    0.3341   -1.8204   -2.0446 N   0  0  0  0  0  0  0  0  0  0  0  0
    0.4715   -1.7822   -0.8102 O   0  0  0  0  0  0  0  0  0  0  0  0
   -0.1972   -2.7513   -2.6728 O   0  0  0  0  0  0  0  0  0  0  0  0
   -1.1823    2.4817   -3.7534 N   0  0  0  0  0  0  0  0  0  0  0  0
   -1.7327    1.6559   -3.2089 N   0  0  0  0  0  0  0  0  0  0  0  0
    5.0988    0.8504   -3.9902 C   0  0  0  0  0  0  0  0  0  0  0  0
    5.9018    0.6815   -2.8618 C   0  0  0  0  0  0  0  0  0  0  0  0
    6.3843    1.7826   -2.1407 C   0  0  0  0  0  0  0  0  0  0  0  0
    6.0532    3.0728   -2.5826 C   0  0  0  0  0  0  0  0  0  0  0  0
    5.2528    3.2697   -3.7070 C   0  0  0  0  0  0  0  0  0  0  0  0
    4.7919    2.1489   -4.4028 C   0  0  0  0  0  0  0  0  0  0  0  0
    4.7377    0.0016   -4.5566 H   0  0  0  0  0  0  0  0  0  0  0  0
    6.1573   -0.3215   -2.5382 H   0  0  0  0  0  0  0  0  0  0  0  0
    6.4304    3.9344   -2.0425 H   0  0  0  0  0  0  0  0  0  0  0  0
    5.0101    4.2647   -4.0585 H   0  0  0  0  0  0  0  0  0  0  0  0
    3.7086    2.3841   -5.7751 S   0  0  0  0  0  0  0  0  0  0  0  0
    3.6544    1.1507   -6.5526 O   0  0  0  0  0  0  0  0  0  0  0  0
    3.9248    3.6892   -6.3751 O   0  0  0  0  0  0  0  0  0  0  0  0
    2.2434    2.5636   -4.9738 O   0  0  0  0  0  0  0  0  0  0  0  0
    7.2159    1.5860   -0.9012 C   0  0  0  0  0  0  0  0  0  0  0  0
    6.5845    1.5464   -0.0117 H   0  0  0  0  0  0  0  0  0  0  0  0
    7.7786    0.6546   -0.9509 H   0  0  0  0  0  0  0  0  0  0  0  0
    7.9231    2.4043   -0.7703 H   0  0  0  0  0  0  0  0  0  0  0  0
  1  6  2  0  0  0  0
  2  3  2  0  0  0  0
  2  1  1  0  0  0  0
  3  4  1  0  0  0  0
  4  9  1  0  0  0  0
  4  5  2  0  0  0  0
  5 10  1  0  0  0  0
  6  5  1  0  0  0  0
  6 11  1  0  0  0  0
  7  1  1  0  0  0  0
  8  2  1  0  0  0  0
 11 12  2  0  0  0  0
 13 11  2  0  0  0  0
 14 15  3  0  0  0  0
 16 17  1  0  0  0  0
 17 23  1  0  0  0  0
 17 18  2  0  0  0  0
 18 30  1  0  0  0  0
 19 18  1  0  0  0  0
 19 24  1  0  0  0  0
 20 19  2  0  0  0  0
 21 16  2  0  0  0  0
 21 20  1  0  0  0  0
 22 16  1  0  0  0  0
 25 20  1  0  0  0  0
 26 29  1  0  0  0  0
 26 21  1  0  0  0  0
 27 26  2  0  0  0  0
 28 26  2  0  0  0  0
 29  3  1  0  0  0  0
 30 33  1  0  0  0  0
 30 31  1  0  0  0  0
 32 30  1  0  0  0  0
M  END
