Coordinates from ORCA-job p-NO2-Ph-N2-OTs-MP2-6-31G_dp-scan-d09-49-n400
 OpenBabel02121707583D

 33 33  0  0  0  0  0  0  0  0999 V2000
    0.7510   -0.6160   -4.2609 C   0  0  0  0  0  0  0  0  0  0  0  0
    1.2626    0.4439   -5.0078 C   0  0  0  0  0  0  0  0  0  0  0  0
    1.8604    1.5186   -4.3436 C   0  0  0  0  0  0  0  0  0  0  0  0
    1.9487    1.5619   -2.9494 C   0  0  0  0  0  0  0  0  0  0  0  0
    1.4329    0.5094   -2.1967 C   0  0  0  0  0  0  0  0  0  0  0  0
    0.8491   -0.5635   -2.8705 C   0  0  0  0  0  0  0  0  0  0  0  0
    0.2815   -1.4666   -4.7338 H   0  0  0  0  0  0  0  0  0  0  0  0
    1.2090    0.4499   -6.0876 H   0  0  0  0  0  0  0  0  0  0  0  0
    2.4139    2.4180   -2.4774 H   0  0  0  0  0  0  0  0  0  0  0  0
    1.4803    0.5048   -1.1173 H   0  0  0  0  0  0  0  0  0  0  0  0
    0.3069   -1.6787   -2.0819 N   0  0  0  0  0  0  0  0  0  0  0  0
    0.4324   -1.6225   -0.8468 O   0  0  0  0  0  0  0  0  0  0  0  0
   -0.2370   -2.6090   -2.7000 O   0  0  0  0  0  0  0  0  0  0  0  0
   -1.8815    2.0185   -3.2971 N   0  0  0  0  0  0  0  0  0  0  0  0
   -1.9483    0.9996   -2.8089 N   0  0  0  0  0  0  0  0  0  0  0  0
    5.1220    0.8331   -3.9867 C   0  0  0  0  0  0  0  0  0  0  0  0
    5.8945    0.6598   -2.8379 C   0  0  0  0  0  0  0  0  0  0  0  0
    6.3950    1.7583   -2.1252 C   0  0  0  0  0  0  0  0  0  0  0  0
    6.1139    3.0500   -2.5965 C   0  0  0  0  0  0  0  0  0  0  0  0
    5.3446    3.2511   -3.7417 C   0  0  0  0  0  0  0  0  0  0  0  0
    4.8644    2.1328   -4.4282 C   0  0  0  0  0  0  0  0  0  0  0  0
    4.7469   -0.0143   -4.5462 H   0  0  0  0  0  0  0  0  0  0  0  0
    6.1115   -0.3447   -2.4915 H   0  0  0  0  0  0  0  0  0  0  0  0
    6.5058    3.9090   -2.0630 H   0  0  0  0  0  0  0  0  0  0  0  0
    5.1407    4.2467   -4.1155 H   0  0  0  0  0  0  0  0  0  0  0  0
    3.8193    2.3764   -5.8283 S   0  0  0  0  0  0  0  0  0  0  0  0
    3.7452    1.1321   -6.5864 O   0  0  0  0  0  0  0  0  0  0  0  0
    4.0875    3.6641   -6.4447 O   0  0  0  0  0  0  0  0  0  0  0  0
    2.3423    2.6135   -5.0639 O   0  0  0  0  0  0  0  0  0  0  0  0
    7.1927    1.5584   -0.8641 C   0  0  0  0  0  0  0  0  0  0  0  0
    6.5408    1.5519    0.0113 H   0  0  0  0  0  0  0  0  0  0  0  0
    7.7288    0.6103   -0.8861 H   0  0  0  0  0  0  0  0  0  0  0  0
    7.9206    2.3579   -0.7303 H   0  0  0  0  0  0  0  0  0  0  0  0
  1  6  2  0  0  0  0
  2  3  2  0  0  0  0
  2  1  1  0  0  0  0
  3  4  1  0  0  0  0
  4  9  1  0  0  0  0
  4  5  2  0  0  0  0
  5 10  1  0  0  0  0
  6  5  1  0  0  0  0
  6 11  1  0  0  0  0
  7  1  1  0  0  0  0
  8  2  1  0  0  0  0
 11 12  2  0  0  0  0
 13 11  2  0  0  0  0
 14 15  3  0  0  0  0
 16 17  1  0  0  0  0
 17 23  1  0  0  0  0
 17 18  2  0  0  0  0
 18 30  1  0  0  0  0
 19 18  1  0  0  0  0
 19 24  1  0  0  0  0
 20 19  2  0  0  0  0
 21 16  2  0  0  0  0
 21 20  1  0  0  0  0
 22 16  1  0  0  0  0
 25 20  1  0  0  0  0
 26 29  1  0  0  0  0
 26 21  1  0  0  0  0
 27 26  2  0  0  0  0
 28 26  2  0  0  0  0
 29  3  1  0  0  0  0
 30 33  1  0  0  0  0
 30 31  1  0  0  0  0
 32 30  1  0  0  0  0
M  END
