33
Coordinates from ORCA-job p-NO2-Ph-N2-OTs-MP2-6-31G_dp-scan-d09-49-n400
  C   0.75588717877061     -0.51060434434653     -4.31472198688168
  C   1.31570806764542      0.51798938770877     -5.07046622517764
  C   1.92673682082064      1.58933112123539     -4.41375721082798
  C   1.99100847223371      1.65568672218579     -3.01950297880573
  C   1.42572763172539      0.63532315876858     -2.25836296889821
  C   0.82531513973706     -0.43352868996363     -2.92370470719797
  H   0.27327093688349     -1.35739040149837     -4.78128929655678
  H   1.28411307918282      0.50405256684470     -6.15107397871700
  H   2.47173541300489      2.50631361512360     -2.55339082994362
  H   1.45039858500949      0.65057687672543     -1.17820429606899
  N   0.23330632831382     -1.51602988448101     -2.12632124853124
  O   0.29686995868017     -1.41774659267006     -0.88931816201305
  O   -0.28952033630743     -2.46134392729800     -2.73919753685771
  N   -2.67468129741513      1.36905540590453     -2.74389799248849
  N   -2.17649880430533      0.38678828568496     -2.48553049636493
  C   5.16160096178008      0.81931219225076     -3.98250343000708
  C   5.90723540424643      0.64453974101721     -2.81630887037054
  C   6.42517196001107      1.74086858826778     -2.11271268102287
  C   6.18942676122168      3.03145518072652     -2.61094648254755
  C   5.44768166238600      3.23407937708387     -3.77391179922552
  C   4.94895314595161      2.11782366572788     -4.45056604404444
  H   4.77309926231375     -0.02681387945774     -4.53464447342661
  H   6.08928805450444     -0.35945206724322     -2.44897170847610
  H   6.59544131411095      3.88836916921322     -2.08460130622044
  H   5.27902157949912      4.22826121451430     -4.16835812504927
  S   3.93785322690769      2.36620539126895     -5.87467413565773
  O   3.84436870905290      1.11173151383391     -6.61359380138701
  O   4.25392183597720      3.63522368928046     -6.50700533732689
  O   2.45393948711032      2.65711154452453     -5.14423665146668
  C   7.19328824114772      1.54060331408389     -0.83345571535276
  H   6.52511313725955      1.56695306348744      0.02929616639435
  H   7.70310556259613      0.57793588998946     -0.82945126370802
  H   7.94041251994361      2.32201911150667     -0.69891442577358
