33
Coordinates from ORCA-job p-NO2-Ph-N2-OTs-MP2-6-31G_dp-scan-d09-49-n400
  C   0.74703851284133     -0.52683679438465     -4.30493029393960
  C   1.30225848535591      0.50561118207372     -5.05892821804912
  C   1.91182656137629      1.57632948239614     -4.39997662112961
  C   1.98480150975242      1.63616242057082     -3.00587137215313
  C   1.42583416979516      0.61090156008309     -2.24654837508703
  C   0.82361015726189     -0.45566770631195     -2.91395280623644
  H   0.26159250804713     -1.37133705138339     -4.77271440132209
  H   1.26616638415983      0.49633305776524     -6.13941966773197
  H   2.46439647961532      2.48673476692642     -2.53857264847245
  H   1.45555242383386      0.62118343540791     -1.16645746351496
  N   0.22832928344879     -1.53761740836420     -2.11808409299835
  O   0.35069604281366     -1.47513857254164     -0.88309790976415
  O   -0.35734002842117     -2.44584144232869     -2.73027944916552
  N   -2.40094202988505      1.47606752887117     -2.89421559709281
  N   -2.13443408678098      0.44586612069296     -2.50981901295702
  C   5.15404292905060      0.82286790537870     -3.98256582446451
  C   5.90474424324582      0.64923311343641     -2.81944837871243
  C   6.41837635533429      1.74664603448962     -2.11438811536559
  C   6.17308171537880      3.03722312566169     -2.60803283859652
  C   5.42616273422057      3.23872800966354     -3.76787842999327
  C   4.93193532406817      2.12141805805184     -4.44610539246131
  H   4.76885592058239     -0.02399250818256     -4.53589550759239
  H   6.09412964171627     -0.35469358689664     -2.45566227177417
  H   6.57566112184092      3.89505662117935     -2.08055088334392
  H   5.25007623397031      4.23301756886412     -4.15879189035019
  S   3.91410547226854      2.36780115497373     -5.86572168115317
  O   3.82402312141734      1.11448339854202     -6.60704288076071
  O   4.22106175898036      3.63988657328454     -6.49630789490085
  O   2.43146726247521      2.64931752646339     -5.12855002051899
  C   7.19203164662898      1.54731010221845     -0.83832950474869
  H   6.52652986266764      1.56629767038787      0.02667765814287
  H   7.70829132450177      0.58807454608351     -0.83920715741268
  H   7.93433695843751      2.33327410692750     -0.70363105637898
