33
Coordinates from ORCA-job p-NO2-Ph-N2-OTs-MP2-6-31G_dp-scan-d09-49-n400
  C   0.73970735834987     -0.65349962118425     -4.24015368202174
  C   1.24121796954295      0.41471708887190     -4.98193921108335
  C   1.83319075683196      1.48895322379989     -4.31225232767436
  C   1.94142089853928      1.51702341287447     -2.91914037427797
  C   1.43552472068499      0.45610967716122     -2.17161850251937
  C   0.84873287979965     -0.61209470233366     -2.85010729767368
  H   0.27012770400887     -1.50237603810089     -4.71612648658661
  H   1.17656328452690      0.43082618965180     -6.06103993687644
  H   2.40606844613393      2.37117151302490     -2.44329480262262
  H   1.49284341714519      0.44109249709305     -1.09269804851811
  N   0.31042765921436     -1.73289033066164     -2.06632001120781
  O   0.43420794508351     -1.68101850432473     -0.83091084221088
  O   -0.23038755449494     -2.66219428723721     -2.68866519555041
  N   -1.55210466467996      2.20767181245272     -3.49193634086662
  N   -1.81484110579414      1.24006374504128     -2.96708076912759
  C   5.11044744233542      0.84083221779867     -3.98878287445258
  C   5.89551374017217      0.66931665004423     -2.84823209105064
  C   6.38751813412584      1.76906479059549     -2.13149698299229
  C   6.08480460148539      3.06032047865301     -2.59033067547108
  C   5.30273830516136      3.25975316947142     -3.72712872756012
  C   4.83149871753135      2.14022304170683     -4.41796224179652
  H   4.74179078013303     -0.00721214242538     -4.55149394762863
  H   6.12915113012265     -0.33474293726582     -2.51154325520575
  H   6.46987137395226      3.92052726522997     -2.05371756655092
  H   5.08211867738262      4.25524632948659     -4.09149059620680
  S   3.77036579428666      2.38035285536808     -5.80661214452716
  O   3.70391217552326      1.13998679502974     -6.57185445279032
  O   4.01787440787161      3.67490100635575     -6.41716946223975
  O   2.29824905987340      2.59520240099797     -5.02698797654063
  C   7.19922687248612      1.57037688090175     -0.87919707638749
  H   6.55539878962783      1.54894750961965      0.00200586166251
  H   7.74740496535379      0.62962892286750     -0.91302920782281
  H   7.91771531768265      2.37841908943571     -0.74599275362126
