33
Coordinates from ORCA-job p-NO2-Ph-N2-OTs-MP2-6-31G_dp-scan-d09-49-n400
  C   0.71484641064694     -0.72415157217725     -4.20138898582475
  C   1.20436592466420      0.35574285871834     -4.93361417116303
  C   1.78540266245707      1.42935765088973     -4.25435258650087
  C   1.92699665352314      1.43084084714043     -2.86426776185552
  C   1.43320607676013      0.35863890291686     -2.12541677607647
  C   0.84074845264024     -0.70153027476438     -2.81208264777678
  H   0.24742523024789     -1.57091708354397     -4.68320599352461
  H   1.12193280585386      0.38968904081969     -6.01110807441298
  H   2.38942619542408      2.28265517714957     -2.38207408792793
  H   1.50903457895698      0.32493731761918     -1.04806880370348
  N   0.31991220344162     -1.83757614936478     -2.03781517898201
  O   0.45950483945126     -1.80314836775637     -0.80345958548773
  O   -0.22334873999406     -2.76111533249230     -2.66668123769818
  N   -0.92278012723653      2.50529192371086     -3.82797127885303
  N   -1.58086532248512      1.76139136562538     -3.28463737229351
  C   5.08894737985103      0.85652852247498     -3.99286691871477
  C   5.89785097052531      0.68896574128575     -2.86845674664201
  C   6.37374774934234      1.79061038387587     -2.14384137631255
  C   6.03016284944847      3.08009617275510     -2.57830274563146
  C   5.22379713226101      3.27556631201940     -3.69867397685054
  C   4.76958277884918      2.15428982095305     -4.39806776592380
  H   4.73254019318948      0.00751449036638     -4.56195054108516
  H   6.16292837141102     -0.31345319004172     -2.55069131221174
  H   6.40224948369764      3.94215780300318     -2.03553287612768
  H   4.97149566257744      4.27016719522227     -4.04444747187704
  S   3.67857261054117      2.38701528405478     -5.76467733794540
  O   3.62854372995305      1.15550568101462     -6.54543102714835
  O   3.88481181054288      3.69497996239125     -6.36185546284234
  O   2.21632674415667      2.55615645624720     -4.95674278352671
  C   7.21184601717068      1.59509216648239     -0.90853439114764
  H   6.58438629080009      1.54715945951918     -0.01663043859417
  H   7.78125626512772      0.66810586614096     -0.96434110671925
  H   7.91344611620296      2.41813556774436     -0.77711117861833
