33
Coordinates from ORCA-job p-NO2-Ph-N2-OTs-MP2-6-31G_dp-scan-d09-49-n400
  C   0.74732465630532     -0.59950128236018     -4.27153795953592
  C   1.27187648351241      0.45347845426450     -5.01898693844379
  C   1.87081910298698      1.52730251578877     -4.35471815729262
  C   1.95994819002175      1.57038119658733     -2.96058639469795
  C   1.43135017111745      0.52469957454000     -2.20752249778910
  C   0.84098350192008     -0.54459182307070     -2.88096831717981
  H   0.27162803748916     -1.44697868497309     -4.74393200324263
  H   1.22127618089657      0.45813655272259     -6.09898174942522
  H   2.42928940507923      2.42432205996026     -2.48891249154433
  H   1.47427948381301      0.52210210517393     -1.12782530819385
  N   0.27255973731042     -1.64579410076348     -2.09128121414174
  O   0.39341855593728     -1.58787767422040     -0.85583279235086
  O   -0.28884025752062     -2.56594850282934     -2.70891749861605
  N   -1.96246110581143      1.90346591524579     -3.21141732830603
  N   -1.96727126140630      0.87456285806746     -2.74030728977506
  C   5.13227188906667      0.83239569630157     -3.98629732946554
  C   5.90108031077716      0.66002168532497     -2.83487182297302
  C   6.40201135795166      1.75903488309777     -2.12320550854914
  C   6.12512890106380      3.05022095273989     -2.59823689181620
  C   5.35963712017832      3.25050120703414     -3.74611292821540
  C   4.87884851773612      2.13164427950414     -4.43143375879180
  H   4.75675817447425     -0.01535097796529     -4.54490389007258
  H   6.11481632395391     -0.34415840079650     -2.48556627392546
  H   6.51744791931451      3.90960746823950     -2.06558052219710
  H   5.15909321813691      4.24564149769650     -4.12283068821034
  S   3.83831014972207      2.37453078368874     -5.83508435200086
  O   3.76253284956685      1.12828404170993     -6.58977826767858
  O   4.11239209361350      3.65951617665628     -6.45447612510611
  O   2.36011195845473      2.61857278672009     -5.07571436351745
  C   7.19573089286580      1.56014893119617     -0.85946279285683
  H   6.54128461639437      1.55717181052881      0.01413958089491
  H   7.72966840574484      0.61081830684867     -0.87773821942516
  H   7.92499441933308      2.35833970734116     -0.72541790555818
