33
Coordinates from ORCA-job p-NO2-Ph-N2-OTs-MP2-6-31G_dp-scan-d09-49-n400
  C   0.74663989585410     -0.62285997247826     -4.25857365064994
  C   1.26001905623166      0.43704408572644     -5.00408305396528
  C   1.85555621665609      1.51191801717810     -4.33822544112197
  C   1.95106810932590      1.54956282237319     -2.94420273674228
  C   1.43339162189101      0.49696195969424     -2.19312698791358
  C   0.84687015158719     -0.57336478859730     -2.86827906959764
  H   0.27467676107442     -1.47165610531771     -4.73234988931853
  H   1.20382712535116      0.44605016152813     -6.08377775462648
  H   2.41724118356202      2.40447119445690     -2.47113708117036
  H   1.48193628153099      0.48990598346691     -1.11368391473530
  N   0.29423994250695     -1.68431743866460     -2.08077118135147
  O   0.41667962203285     -1.62859619191473     -0.84538619504041
  O   -0.25588275847114     -2.61013543635579     -2.70012105868185
  N   -1.80739474528406      2.04323364822851     -3.32545777165834
  N   -1.91150512553117      1.03071587678382     -2.83080362791184
  C   5.12255591578079      0.83533419448808     -3.98730802096666
  C   5.89759671716589      0.66311012418674     -2.84004315294779
  C   6.39515733441074      1.76234139394299     -2.12635025647144
  C   6.10838783802790      3.05367816000540     -2.59507196075930
  C   5.33651405929746      3.25381390814659     -3.73869142135777
  C   4.85934682653192      2.13475545331826     -4.42621419577914
  H   4.74960012609187     -0.01247699153480     -4.54753159352664
  H   6.11894358981764     -0.34111687279517     -2.49564477273741
  H   6.49796140266970      3.91333124785488     -2.06083261229690
  H   5.12829215660258      4.24918882100768     -4.11059627296426
  S   3.81092955179389      2.37684183259090     -5.82412572247863
  O   3.73908795157739      1.13307567745965     -6.58329061083639
  O   4.07440608464063      3.66582994101640     -6.43975982001811
  O   2.33485934575783      2.60903796212891     -5.05688808313861
  C   7.19578511873446      1.56332714097477     -0.86699316736631
  H   6.54536010192762      1.55316937299986      0.00955375801100
  H   7.73520458122912      0.61723756231484     -0.89133159877375
  H   7.92094795962443      2.36528725578613     -0.73320108110643
