33
Coordinates from ORCA-job p-NO2-Ph-N2-OTs-MP2-6-31G_dp-scan-d09-49-n400
  C   0.75333163201314     -0.58529780427952     -4.27809137955653
  C   1.27923266630511      0.46554438532578     -5.02764619117035
  C   1.88081686469014      1.53912791631979     -4.36574224917514
  C   1.96124242904834      1.58974320314315     -2.97156916435459
  C   1.43135578739936      0.54644052352921     -2.21613044931686
  C   0.84250696415090     -0.52528889593787     -2.88731646231592
  H   0.27983720151322     -1.43475721446300     -4.74913154891983
  H   1.23340140767288      0.46536103628055     -6.10787428753201
  H   2.43101237475030      2.44447213090264     -2.50172972416740
  H   1.47214629171607      0.54768029766082     -1.13635854259690
  N   0.28525831462112     -1.63078575726998     -2.09574771733322
  O   0.41093068785889     -1.57240055721851     -0.86083008359413
  O   -0.27043671005449     -2.55565331898260     -2.71141115275043
  N   -2.10364989229700      1.83947592188675     -3.14462241090409
  N   -2.04367770077113      0.80548781568611     -2.68860584906598
  C   5.13462714649100      0.82890554802980     -3.98529745530381
  C   5.89856894957997      0.65542567904088     -2.83081682755915
  C   6.40380460750847      1.75358274512708     -2.12085489197448
  C   6.13624228335227      3.04494584546400     -2.60068448668755
  C   5.37567953488567      3.24634122474953     -3.75164809722365
  C   4.89042031004461      2.12831105342477     -4.43513914775300
  H   4.75586078581271     -0.01830033646401     -4.54253060579394
  H   6.10511325523919     -0.34895212590372     -2.47777357716420
  H   6.53200372852720      3.90357534155367     -2.06935551932372
  H   5.18230057344823      4.24150618167474     -4.13202250825242
  S   3.85597321960649      2.37308606503889     -5.84295526069703
  O   3.77667018210855      1.12556773949559     -6.59516096378558
  O   4.13835120310888      3.65534464453799     -6.46428319661979
  O   2.37621108524851      2.62600572898555     -5.08917830142653
  C   7.19215689276557      1.55375342389710     -0.85390636316706
  H   6.53475848395123      1.55679457620619      0.01747615149523
  H   7.72084919098178      0.60141711852452     -0.86779261004803
  H   7.92540024872275      2.34823986403413     -0.71956912596172
