33
Coordinates from ORCA-job p-NO2-Ph-N2-OTs-MP2-6-31G_dp-scan-d09-49-n400
  C   0.75396927049636     -0.61043538915958     -4.26441328587293
  C   1.26724934747127      0.44808328344554     -5.01196306314611
  C   1.86552551262237      1.52253019012762     -4.34841779337032
  C   1.95104511747347      1.56855168335552     -2.95436277586943
  C   1.43359960222862      0.51759739185910     -2.20086730550404
  C   0.84957807538969     -0.55569645253977     -2.87382563445858
  H   0.28458521596914     -1.46144597641905     -4.73677618582935
  H   1.21582110731299      0.45215878523846     -6.09193194738068
  H   2.41679392880171      2.42466400724882     -2.48305107790271
  H   1.47949918845657      0.51462083405941     -1.12129874275197
  N   0.30878815133702     -1.67110848057762     -2.08449211393893
  O   0.43496697436741     -1.61428319840246     -0.84953304727352
  O   -0.23420554672703     -2.60233956963923     -2.70199376854080
  N   -1.95368126604990      1.99273533511792     -3.26466179357506
  N   -1.98522377186382      0.96850878916423     -2.78424689935477
  C   5.12493403569421      0.83166601163604     -3.98647299200928
  C   5.89539773481137      0.65821408660352     -2.83632916093125
  C   6.39703933505806      1.75658165065720     -2.12414511053085
  C   6.11906900278212      3.04821339519618     -2.59729091461963
  C   5.35182495705366      3.24958794819391     -3.74381652599738
  C   4.87041496688089      2.13136411655397     -4.42970755398650
  H   4.74891932902952     -0.01559433464806     -4.54548985022039
  H   6.10996054340710     -0.34629880469469     -2.48848878923094
  H   6.51190282171084      3.90710959164223     -2.06422314082356
  H   5.15036305222001      4.24508506516372     -4.11909420446030
  S   3.82773680960336      2.37544241183156     -5.83157095187782
  O   3.75266778973127      1.13058000216877     -6.58860199239249
  O   4.09901620476673      3.66203876738646     -6.44884032963271
  O   2.35005484591710      2.61574812069763     -5.06963921243434
  C   7.19262353790490      1.55647858912873     -0.86176876666745
  H   6.53937388826372      1.55192191495146      0.01272190731237
  H   7.72710009461507      0.60749211057678     -0.88205347209350
  H   7.92159014326409      2.35492812407565     -0.72765350463456
