33
Coordinates from ORCA-job p-NO2-Ph-N2-OTs-MP2-6-31G_dp-scan-d09-49-n400
  C   0.73183052570129     -0.70866581744781     -4.21219799690371
  C   1.21869112741677      0.37123840648621     -4.94659009235147
  C   1.80726859038855      1.44325672581170     -4.27068334653921
  C   1.92216600450894      1.45989640386609     -2.87806267373395
  C   1.43080412452176      0.38749983773041     -2.13750823350292
  C   0.84697646457473     -0.67853385352179     -2.82224643668771
  H   0.26702081963190     -1.55710934585373     -4.69359703931745
  H   1.14528245701124      0.39841959304120     -6.02492593253006
  H   2.38007814112198      2.31495810762774     -2.39734000606687
  H   1.49518357537591      0.36297901127197     -1.05916257421215
  N   0.33423291278416     -1.81702486477402     -2.04649197817009
  O   0.46945087896402     -1.77767262482450     -0.81181605599064
  O   -0.19789520215989     -2.74752223320652     -2.67456971975335
  N   -1.21411862955356      2.47279563174312     -3.73971524505223
  N   -1.74757930016227      1.63582171155400     -3.19579653612474
  C   5.09969581935756      0.84978769992570     -3.98940209999775
  C   5.90187507244623      0.68087693861832     -2.86041060744410
  C   6.38549180556705      1.78202961257486     -2.14014516341277
  C   6.05647488923374      3.07224412916673     -2.58354096567225
  C   5.25687711345469      3.26908479171586     -3.70852533978185
  C   4.79481464709502      2.14826198550829     -4.40346167905531
  H   4.73767512187181      0.00092019551025     -4.55516742651902
  H   6.15573210001423     -0.32222415176179     -2.53571591001816
  H   6.43460092566995      3.93377045758715     -2.04411260065998
  H   5.01579815211221      4.26406211399974     -4.06113618267365
  S   3.71240465301923      2.38358079662479     -5.77648196316669
  O   3.65742065567006      1.14972633273147     -6.55315437295918
  O   3.93015476390146      3.68803528606839     -6.37719363687012
  O   2.24715620604082      2.56504692128751     -4.97611386137492
  C   7.21624515555293      1.58544853379310     -0.90005875927465
  H   6.58432025129319      1.54750280616870     -0.01083147138129
  H   7.77773697689610      0.65323533285719     -0.94859003132024
  H   7.92443320067801      2.40297352811971     -0.76955406148138
