33
Coordinates from ORCA-job p-NO2-Ph-N2-OTs-MP2-6-31G_dp-scan-d09-49-n400
  C   0.74286625246375     -0.66062523418285     -4.23640167078122
  C   1.23965964594290      0.41037471724918     -4.97735170700403
  C   1.83154437130030      1.48441697561112     -4.30738471652413
  C   1.93525053152281      1.51401417062479     -2.91405015726619
  C   1.43399566782574      0.45051867855638     -2.16711067550357
  C   0.84982374981622     -0.61898329411745     -2.84609214999388
  H   0.27545245489827     -1.51031347985883     -4.71306508915715
  H   1.17586611407781      0.42647343277980     -6.05658307148595
  H   2.39748913936297      2.36932969549398     -2.43778964320060
  H   1.48997134395223      0.43602503662023     -1.08811209903137
  N   0.32199932405096     -1.74555428794483     -2.06347732439680
  O   0.44790388251271     -1.69512171637429     -0.82822665093752
  O   -0.21277301078084     -2.67782483694094     -2.68659957520603
  N   -1.54196039606937      2.24765394477400     -3.52289497840713
  N   -1.83165672766063      1.28966440289167     -2.99426600255735
  C   5.10840572904026      0.84130861109491     -3.98834202145242
  C   5.89521725928683      0.66947539952630     -2.84904741211920
  C   6.38812595660595      1.76902200642472     -2.13261679309602
  C   6.08441509698237      3.06040562964975     -2.59040413719276
  C   5.30052195027015      3.26016668269509     -3.72588764139213
  C   4.82849876428222      2.14083327688042     -4.41650149572002
  H   4.73910981078597     -0.00659170695327     -4.55085659695781
  H   6.12959285163667     -0.33467956129543     -2.51315896616096
  H   6.47010192774714      3.92046219944056     -2.05399711240772
  H   5.07906968569154      4.25576617949358     -4.08944754781788
  S   3.76518171769766      2.38133610625853     -5.80341714780142
  O   3.69949548867725      1.14202881204818     -6.57043931655358
  O   4.00966040761129      3.67717471109050     -6.41243028055722
  O   2.29382715767617      2.59253879681593     -5.02123377928377
  C   7.20181669800564      1.56995916944181     -0.88166489584991
  H   6.55935876119025      1.54810884942874      0.00052687610550
  H   7.75006019663858      0.62929365019625     -0.91670586582069
  H   7.92040819695804      2.37804298258142     -0.74927035446891
