33
Coordinates from ORCA-job p-NO2-Ph-N2-OTs-MP2-6-31G_dp-scan-d09-49-n400
  C   0.75058343162066     -0.53382636333676     -4.30258220961407
  C   1.30042975707925      0.50160239183403     -5.05629665036465
  C   1.90933995345577      1.57315732615516     -4.39791816097341
  C   1.98057482806169      1.63320747733742     -3.00365709123189
  C   1.42701195299546      0.60514041397200     -2.24435649769442
  C   0.82899355714557     -0.46387280303159     -2.91166173920586
  H   0.26989227415610     -1.38077699658869     -4.77087296630596
  H   1.26365330048512      0.49226275588149     -6.13679576894244
  H   2.45781146294288      2.48495909217525     -2.53601201419825
  H   1.45997818858959      0.61418160662208     -1.16434279544597
  N   0.24974201205945     -1.55482807559292     -2.11607358147590
  O   0.38041359706606     -1.49615169717860     -0.88177488515174
  O   -0.32870439822792     -2.46788678525993     -2.72797935100432
  N   -2.40274555162095      1.53535572832534     -2.91794547938060
  N   -2.16012582618859      0.50334108827688     -2.52262498746559
  C   5.15126742008494      0.82277468557355     -3.98246044989855
  C   5.90270810788794      0.64904918953178     -2.81984321896666
  C   6.41599111548458      1.74645144290299     -2.11450558113710
  C   6.16955586068335      3.03711572962561     -2.60734954615379
  C   5.42183187800514      3.23871503970763     -3.76665922922125
  C   4.92798807964957      2.12141732425152     -4.44518217456853
  H   4.76631158648760     -0.02406212500536     -4.53599322497776
  H   6.09296225266494     -0.35493563560895     -2.45667319967094
  H   6.57183680240463      3.89495029077821     -2.07964287922628
  H   5.24485229236201      4.23308826084532     -4.15695908050962
  S   3.90928405088924      2.36783961662480     -5.86416808755039
  O   3.82022620315421      1.11507413232935     -6.60651740860855
  O   4.21443463137089      3.64081515285976     -6.49382541305224
  O   2.42659038293509      2.64699680417383     -5.12615658497043
  C   7.19047656535663      1.54698500107674     -0.83897422893653
  H   6.52544249532818      1.56518132508288      0.02640918856877
  H   7.70729794661773      0.58805373853064     -0.84057783503337
  H   7.93239378901306      2.33332486712857     -0.70432686763148
