Coordinates from ORCA-job 1a-Schema5-R6-D+-B3LYPG-6-31G_dp-scan-d49-09-n400
 OpenBabel08281819463D

 25 25  0  0  0  0  0  0  0  0999 V2000
   -4.0060   -0.5421   -3.2396 C   0  0  0  0  0  0  0  0  0  0  0  0
   -2.9439   -0.9473   -2.3930 C   0  0  0  0  0  0  0  0  0  0  0  0
   -3.2611   -0.6417   -1.0506 C   0  0  0  0  0  0  0  0  0  0  0  0
   -4.4216   -0.0257   -0.5059 C   0  0  0  0  0  0  0  0  0  0  0  0
   -5.3908    0.3308   -1.4169 C   0  0  0  0  0  0  0  0  0  0  0  0
   -5.1761    0.0681   -2.7888 C   0  0  0  0  0  0  0  0  0  0  0  0
   -3.9154   -0.7145   -4.3128 H   0  0  0  0  0  0  0  0  0  0  0  0
   -2.2850   -1.0061   -0.1420 N   0  0  0  0  0  0  0  0  0  0  0  0
   -1.4695   -1.3182    0.5579 N   0  0  0  0  0  0  0  0  0  0  0  0
   -5.9478    0.3528   -3.5004 H   0  0  0  0  0  0  0  0  0  0  0  0
   -6.3069    0.8060   -1.0837 H   0  0  0  0  0  0  0  0  0  0  0  0
   -4.5331    0.1514    0.5596 H   0  0  0  0  0  0  0  0  0  0  0  0
    1.1404    0.1079   -4.4868 N   0  0  0  0  0  0  0  0  0  0  0  0
    0.7752   -0.9439   -4.5684 N   0  0  0  0  0  0  0  0  0  0  0  0
    0.3507   -2.2475   -4.6892 C   0  0  0  0  0  0  0  0  0  0  0  0
    1.1398   -3.1082   -5.4886 C   0  0  0  0  0  0  0  0  0  0  0  0
   -0.8300   -2.6244   -4.0172 C   0  0  0  0  0  0  0  0  0  0  0  0
    0.7071   -4.4162   -5.6133 C   0  0  0  0  0  0  0  0  0  0  0  0
    2.0397   -2.7501   -5.9762 H   0  0  0  0  0  0  0  0  0  0  0  0
   -1.2183   -3.9507   -4.1796 C   0  0  0  0  0  0  0  0  0  0  0  0
   -1.4438   -1.9212   -3.3914 H   0  0  0  0  0  0  0  0  0  0  0  0
   -0.4670   -4.8338   -4.9625 C   0  0  0  0  0  0  0  0  0  0  0  0
    1.2779   -5.1146   -6.2153 H   0  0  0  0  0  0  0  0  0  0  0  0
   -2.1239   -4.2896   -3.6869 H   0  0  0  0  0  0  0  0  0  0  0  0
   -0.7943   -5.8631   -5.0736 H   0  0  0  0  0  0  0  0  0  0  0  0
  1  6  2  0  0  0  0
  1  2  1  0  0  0  0
  2  3  2  0  0  0  0
  3  4  1  0  0  0  0
  3  8  1  0  0  0  0
  4 12  1  0  0  0  0
  5 11  1  0  0  0  0
  5  4  2  0  0  0  0
  6  5  1  0  0  0  0
  7  1  1  0  0  0  0
  8  9  1  0  0  0  0
 10  6  1  0  0  0  0
 14 13  1  0  0  0  0
 15 14  1  0  0  0  0
 15 17  2  0  0  0  0
 16 15  1  0  0  0  0
 17 21  1  0  0  0  0
 18 16  2  0  0  0  0
 18 22  1  0  0  0  0
 19 16  1  0  0  0  0
 20 17  1  0  0  0  0
 20 24  1  0  0  0  0
 22 20  2  0  0  0  0
 23 18  1  0  0  0  0
 25 22  1  0  0  0  0
M  RAD  5   2   2   8   2   9   3  13   3  14   2
M  END
