Coordinates from ORCA-job 1a-Schema5-R6-D+-B3LYPG-6-31G_dp-scan-d49-09-n400
 OpenBabel08281819463D

 25 25  0  0  0  0  0  0  0  0999 V2000
   -3.8607   -0.4281   -3.2839 C   0  0  0  0  0  0  0  0  0  0  0  0
   -2.9403   -1.0375   -2.3964 C   0  0  0  0  0  0  0  0  0  0  0  0
   -3.2502   -0.6794   -1.0651 C   0  0  0  0  0  0  0  0  0  0  0  0
   -4.2843    0.1589   -0.5662 C   0  0  0  0  0  0  0  0  0  0  0  0
   -5.1169    0.7099   -1.5153 C   0  0  0  0  0  0  0  0  0  0  0  0
   -4.9003    0.4097   -2.8784 C   0  0  0  0  0  0  0  0  0  0  0  0
   -3.7675   -0.6207   -4.3536 H   0  0  0  0  0  0  0  0  0  0  0  0
   -2.4154   -1.2403   -0.1151 N   0  0  0  0  0  0  0  0  0  0  0  0
   -1.7209   -1.7168    0.6210 N   0  0  0  0  0  0  0  0  0  0  0  0
   -5.5659    0.8446   -3.6201 H   0  0  0  0  0  0  0  0  0  0  0  0
   -5.9313    1.3614   -1.2171 H   0  0  0  0  0  0  0  0  0  0  0  0
   -4.4077    0.3507    0.4955 H   0  0  0  0  0  0  0  0  0  0  0  0
   -0.0041    0.1462   -4.3632 N   0  0  0  0  0  0  0  0  0  0  0  0
   -0.0863   -0.9656   -4.4250 N   0  0  0  0  0  0  0  0  0  0  0  0
   -0.0868   -2.3346   -4.5977 C   0  0  0  0  0  0  0  0  0  0  0  0
    0.8655   -2.8694   -5.4953 C   0  0  0  0  0  0  0  0  0  0  0  0
   -1.0291   -3.0945   -3.8799 C   0  0  0  0  0  0  0  0  0  0  0  0
    0.8540   -4.2426   -5.6701 C   0  0  0  0  0  0  0  0  0  0  0  0
    1.5656   -2.2277   -6.0186 H   0  0  0  0  0  0  0  0  0  0  0  0
   -1.0015   -4.4685   -4.0919 C   0  0  0  0  0  0  0  0  0  0  0  0
   -1.7316   -2.5486   -3.2125 H   0  0  0  0  0  0  0  0  0  0  0  0
   -0.0740   -5.0357   -4.9736 C   0  0  0  0  0  0  0  0  0  0  0  0
    1.5644   -4.7015   -6.3492 H   0  0  0  0  0  0  0  0  0  0  0  0
   -1.7097   -5.1010   -3.5669 H   0  0  0  0  0  0  0  0  0  0  0  0
   -0.0690   -6.1109   -5.1266 H   0  0  0  0  0  0  0  0  0  0  0  0
  1  6  2  0  0  0  0
  1  2  1  0  0  0  0
  2  3  2  0  0  0  0
  3  4  1  0  0  0  0
  3  8  1  0  0  0  0
  4 12  1  0  0  0  0
  5 11  1  0  0  0  0
  5  4  2  0  0  0  0
  6  5  1  0  0  0  0
  7  1  1  0  0  0  0
  8  9  1  0  0  0  0
 10  6  1  0  0  0  0
 14 13  1  0  0  0  0
 15 14  1  0  0  0  0
 15 17  2  0  0  0  0
 16 15  1  0  0  0  0
 17 21  1  0  0  0  0
 18 16  2  0  0  0  0
 18 22  1  0  0  0  0
 19 16  1  0  0  0  0
 20 17  1  0  0  0  0
 20 24  1  0  0  0  0
 22 20  2  0  0  0  0
 23 18  1  0  0  0  0
 25 22  1  0  0  0  0
M  RAD  5   2   2   8   2   9   3  13   3  14   2
M  END
