Coordinates from ORCA-job 1a-Schema5-R6-D+-B3LYPG-6-31G_dp-scan-d49-09-n400
 OpenBabel08281819463D

 25 25  0  0  0  0  0  0  0  0999 V2000
   -3.9259   -0.4578   -3.2616 C   0  0  0  0  0  0  0  0  0  0  0  0
   -2.9591   -1.0201   -2.3913 C   0  0  0  0  0  0  0  0  0  0  0  0
   -3.2668   -0.6811   -1.0546 C   0  0  0  0  0  0  0  0  0  0  0  0
   -4.3377    0.0972   -0.5355 C   0  0  0  0  0  0  0  0  0  0  0  0
   -5.2154    0.6026   -1.4689 C   0  0  0  0  0  0  0  0  0  0  0  0
   -5.0039    0.3187   -2.8367 C   0  0  0  0  0  0  0  0  0  0  0  0
   -3.8364   -0.6398   -4.3334 H   0  0  0  0  0  0  0  0  0  0  0  0
   -2.3858   -1.1968   -0.1214 N   0  0  0  0  0  0  0  0  0  0  0  0
   -1.6517   -1.6357    0.5999 N   0  0  0  0  0  0  0  0  0  0  0  0
   -5.7044    0.7186   -3.5661 H   0  0  0  0  0  0  0  0  0  0  0  0
   -6.0599    1.2068   -1.1554 H   0  0  0  0  0  0  0  0  0  0  0  0
   -4.4536    0.2799    0.5286 H   0  0  0  0  0  0  0  0  0  0  0  0
    0.3448    0.1721   -4.4235 N   0  0  0  0  0  0  0  0  0  0  0  0
    0.2130   -0.9321   -4.5160 N   0  0  0  0  0  0  0  0  0  0  0  0
    0.0772   -2.2950   -4.6577 C   0  0  0  0  0  0  0  0  0  0  0  0
    0.9904   -2.9560   -5.5113 C   0  0  0  0  0  0  0  0  0  0  0  0
   -0.9637   -2.9213   -3.9442 C   0  0  0  0  0  0  0  0  0  0  0  0
    0.8353   -4.3243   -5.6472 C   0  0  0  0  0  0  0  0  0  0  0  0
    1.7698   -2.4093   -6.0306 H   0  0  0  0  0  0  0  0  0  0  0  0
   -1.0764   -4.2967   -4.1192 C   0  0  0  0  0  0  0  0  0  0  0  0
   -1.6443   -2.3089   -3.2976 H   0  0  0  0  0  0  0  0  0  0  0  0
   -0.1930   -4.9890   -4.9557 C   0  0  0  0  0  0  0  0  0  0  0  0
    1.5097   -4.8792   -6.2902 H   0  0  0  0  0  0  0  0  0  0  0  0
   -1.8641   -4.8320   -3.5989 H   0  0  0  0  0  0  0  0  0  0  0  0
   -0.3019   -6.0628   -5.0768 H   0  0  0  0  0  0  0  0  0  0  0  0
  1  6  2  0  0  0  0
  1  2  1  0  0  0  0
  2  3  2  0  0  0  0
  3  4  1  0  0  0  0
  3  8  1  0  0  0  0
  4 12  1  0  0  0  0
  5 11  1  0  0  0  0
  5  4  2  0  0  0  0
  6  5  1  0  0  0  0
  7  1  1  0  0  0  0
  8  9  1  0  0  0  0
 10  6  1  0  0  0  0
 14 13  1  0  0  0  0
 15 14  1  0  0  0  0
 15 17  2  0  0  0  0
 16 15  1  0  0  0  0
 17 21  1  0  0  0  0
 18 16  2  0  0  0  0
 18 22  1  0  0  0  0
 19 16  1  0  0  0  0
 20 17  1  0  0  0  0
 20 24  1  0  0  0  0
 22 20  2  0  0  0  0
 23 18  1  0  0  0  0
 25 22  1  0  0  0  0
M  RAD  5   2   2   8   2   9   3  13   3  14   2
M  END
