Coordinates from ORCA-job 1a-Schema5-R6-D+-B3LYPG-6-31G_dp-scan-d49-09-n400
 OpenBabel08281819463D

 25 25  0  0  0  0  0  0  0  0999 V2000
   -3.8820   -0.4461   -3.2729 C   0  0  0  0  0  0  0  0  0  0  0  0
   -2.9506   -1.0435   -2.3877 C   0  0  0  0  0  0  0  0  0  0  0  0
   -3.2597   -0.6830   -1.0568 C   0  0  0  0  0  0  0  0  0  0  0  0
   -4.3008    0.1454   -0.5558 C   0  0  0  0  0  0  0  0  0  0  0  0
   -5.1435    0.6839   -1.5030 C   0  0  0  0  0  0  0  0  0  0  0  0
   -4.9291    0.3813   -2.8661 C   0  0  0  0  0  0  0  0  0  0  0  0
   -3.7909   -0.6412   -4.3424 H   0  0  0  0  0  0  0  0  0  0  0  0
   -2.4144   -1.2316   -0.1088 N   0  0  0  0  0  0  0  0  0  0  0  0
   -1.7108   -1.6983    0.6251 N   0  0  0  0  0  0  0  0  0  0  0  0
   -5.6026    0.8066   -3.6065 H   0  0  0  0  0  0  0  0  0  0  0  0
   -5.9638    1.3273   -1.2035 H   0  0  0  0  0  0  0  0  0  0  0  0
   -4.4218    0.3393    0.5058 H   0  0  0  0  0  0  0  0  0  0  0  0
    0.0751    0.1567   -4.3624 N   0  0  0  0  0  0  0  0  0  0  0  0
    0.0082   -0.9529   -4.4597 N   0  0  0  0  0  0  0  0  0  0  0  0
   -0.0299   -2.3204   -4.6244 C   0  0  0  0  0  0  0  0  0  0  0  0
    0.9091   -2.8965   -5.5100 C   0  0  0  0  0  0  0  0  0  0  0  0
   -1.0046   -3.0364   -3.9020 C   0  0  0  0  0  0  0  0  0  0  0  0
    0.8511   -4.2703   -5.6691 C   0  0  0  0  0  0  0  0  0  0  0  0
    1.6342   -2.2851   -6.0356 H   0  0  0  0  0  0  0  0  0  0  0  0
   -1.0217   -4.4129   -4.0999 C   0  0  0  0  0  0  0  0  0  0  0  0
   -1.7001   -2.4668   -3.2399 H   0  0  0  0  0  0  0  0  0  0  0  0
   -0.1088   -5.0219   -4.9691 C   0  0  0  0  0  0  0  0  0  0  0  0
    1.5491   -4.7623   -6.3378 H   0  0  0  0  0  0  0  0  0  0  0  0
   -1.7549   -5.0148   -3.5731 H   0  0  0  0  0  0  0  0  0  0  0  0
   -0.1405   -6.0984   -5.1097 H   0  0  0  0  0  0  0  0  0  0  0  0
  1  6  2  0  0  0  0
  1  2  1  0  0  0  0
  2  3  2  0  0  0  0
  3  4  1  0  0  0  0
  3  8  1  0  0  0  0
  4 12  1  0  0  0  0
  5 11  1  0  0  0  0
  5  4  2  0  0  0  0
  6  5  1  0  0  0  0
  7  1  1  0  0  0  0
  8  9  1  0  0  0  0
 10  6  1  0  0  0  0
 14 13  1  0  0  0  0
 15 14  1  0  0  0  0
 15 17  2  0  0  0  0
 16 15  1  0  0  0  0
 17 21  1  0  0  0  0
 18 16  2  0  0  0  0
 18 22  1  0  0  0  0
 19 16  1  0  0  0  0
 20 17  1  0  0  0  0
 20 24  1  0  0  0  0
 22 20  2  0  0  0  0
 23 18  1  0  0  0  0
 25 22  1  0  0  0  0
M  RAD  5   2   2   8   2   9   3  13   3  14   2
M  END
