Coordinates from ORCA-job 1a-Schema5-R6-D+-B3LYPG-6-31G_dp-scan-d49-09-n400
 OpenBabel08281819463D

 25 25  0  0  0  0  0  0  0  0999 V2000
   -3.8472   -0.4323   -3.2851 C   0  0  0  0  0  0  0  0  0  0  0  0
   -2.9350   -1.0451   -2.3913 C   0  0  0  0  0  0  0  0  0  0  0  0
   -3.2488   -0.6804   -1.0628 C   0  0  0  0  0  0  0  0  0  0  0  0
   -4.2790    0.1670   -0.5715 C   0  0  0  0  0  0  0  0  0  0  0  0
   -5.1031    0.7210   -1.5263 C   0  0  0  0  0  0  0  0  0  0  0  0
   -4.8825    0.4145   -2.8872 C   0  0  0  0  0  0  0  0  0  0  0  0
   -3.7512   -0.6298   -4.3536 H   0  0  0  0  0  0  0  0  0  0  0  0
   -2.4227   -1.2444   -0.1068 N   0  0  0  0  0  0  0  0  0  0  0  0
   -1.7355   -1.7235    0.6345 N   0  0  0  0  0  0  0  0  0  0  0  0
   -5.5416    0.8516   -3.6335 H   0  0  0  0  0  0  0  0  0  0  0  0
   -5.9141    1.3794   -1.2339 H   0  0  0  0  0  0  0  0  0  0  0  0
   -4.4061    0.3630    0.4890 H   0  0  0  0  0  0  0  0  0  0  0  0
   -0.0529    0.1423   -4.3415 N   0  0  0  0  0  0  0  0  0  0  0  0
   -0.1180   -0.9700   -4.4121 N   0  0  0  0  0  0  0  0  0  0  0  0
   -0.1029   -2.3380   -4.5913 C   0  0  0  0  0  0  0  0  0  0  0  0
    0.8484   -2.8588   -5.4978 C   0  0  0  0  0  0  0  0  0  0  0  0
   -1.0320   -3.1105   -3.8700 C   0  0  0  0  0  0  0  0  0  0  0  0
    0.8502   -4.2315   -5.6780 C   0  0  0  0  0  0  0  0  0  0  0  0
    1.5379   -2.2077   -6.0237 H   0  0  0  0  0  0  0  0  0  0  0  0
   -0.9917   -4.4833   -4.0875 C   0  0  0  0  0  0  0  0  0  0  0  0
   -1.7333   -2.5710   -3.1972 H   0  0  0  0  0  0  0  0  0  0  0  0
   -0.0644   -5.0371   -4.9781 C   0  0  0  0  0  0  0  0  0  0  0  0
    1.5604   -4.6804   -6.3640 H   0  0  0  0  0  0  0  0  0  0  0  0
   -1.6893   -5.1254   -3.5601 H   0  0  0  0  0  0  0  0  0  0  0  0
   -0.0493   -6.1116   -5.1354 H   0  0  0  0  0  0  0  0  0  0  0  0
  1  6  2  0  0  0  0
  1  2  1  0  0  0  0
  2  3  2  0  0  0  0
  3  4  1  0  0  0  0
  3  8  1  0  0  0  0
  4 12  1  0  0  0  0
  5 11  1  0  0  0  0
  5  4  2  0  0  0  0
  6  5  1  0  0  0  0
  7  1  1  0  0  0  0
  8  9  1  0  0  0  0
 10  6  1  0  0  0  0
 14 13  1  0  0  0  0
 15 14  1  0  0  0  0
 15 17  2  0  0  0  0
 16 15  1  0  0  0  0
 17 21  1  0  0  0  0
 18 16  2  0  0  0  0
 18 22  1  0  0  0  0
 19 16  1  0  0  0  0
 20 17  1  0  0  0  0
 20 24  1  0  0  0  0
 22 20  2  0  0  0  0
 23 18  1  0  0  0  0
 25 22  1  0  0  0  0
M  RAD  5   2   2   8   2   9   3  13   3  14   2
M  END
