Coordinates from ORCA-job 1a-Schema5-R6-D+-B3LYPG-6-31G_dp-scan-d49-09-n400
 OpenBabel08281819463D

 25 25  0  0  0  0  0  0  0  0999 V2000
   -3.9628   -0.4736   -3.2552 C   0  0  0  0  0  0  0  0  0  0  0  0
   -2.9537   -0.9832   -2.4004 C   0  0  0  0  0  0  0  0  0  0  0  0
   -3.2649   -0.6727   -1.0577 C   0  0  0  0  0  0  0  0  0  0  0  0
   -4.3751    0.0350   -0.5200 C   0  0  0  0  0  0  0  0  0  0  0  0
   -5.2935    0.4918   -1.4390 C   0  0  0  0  0  0  0  0  0  0  0  0
   -5.0811    0.2319   -2.8117 C   0  0  0  0  0  0  0  0  0  0  0  0
   -3.8728   -0.6397   -4.3295 H   0  0  0  0  0  0  0  0  0  0  0  0
   -2.3418   -1.1387   -0.1397 N   0  0  0  0  0  0  0  0  0  0  0  0
   -1.5719   -1.5355    0.5687 N   0  0  0  0  0  0  0  0  0  0  0  0
   -5.8131    0.5943   -3.5297 H   0  0  0  0  0  0  0  0  0  0  0  0
   -6.1695    1.0408   -1.1111 H   0  0  0  0  0  0  0  0  0  0  0  0
   -4.4886    0.2033    0.5468 H   0  0  0  0  0  0  0  0  0  0  0  0
    0.6580    0.1690   -4.4687 N   0  0  0  0  0  0  0  0  0  0  0  0
    0.4442   -0.9227   -4.5589 N   0  0  0  0  0  0  0  0  0  0  0  0
    0.1944   -2.2707   -4.6821 C   0  0  0  0  0  0  0  0  0  0  0  0
    1.0657   -3.0232   -5.5034 C   0  0  0  0  0  0  0  0  0  0  0  0
   -0.9135   -2.7912   -3.9831 C   0  0  0  0  0  0  0  0  0  0  0  0
    0.7956   -4.3751   -5.6214 C   0  0  0  0  0  0  0  0  0  0  0  0
    1.9013   -2.5553   -6.0122 H   0  0  0  0  0  0  0  0  0  0  0  0
   -1.1396   -4.1550   -4.1401 C   0  0  0  0  0  0  0  0  0  0  0  0
   -1.5692   -2.1308   -3.3522 H   0  0  0  0  0  0  0  0  0  0  0  0
   -0.3018   -4.9359   -4.9443 C   0  0  0  0  0  0  0  0  0  0  0  0
    1.4336   -4.9975   -6.2392 H   0  0  0  0  0  0  0  0  0  0  0  0
   -1.9828   -4.6092   -3.6297 H   0  0  0  0  0  0  0  0  0  0  0  0
   -0.5005   -5.9981   -5.0515 H   0  0  0  0  0  0  0  0  0  0  0  0
  1  6  2  0  0  0  0
  1  2  1  0  0  0  0
  2  3  2  0  0  0  0
  3  4  1  0  0  0  0
  3  8  1  0  0  0  0
  4 12  1  0  0  0  0
  5 11  1  0  0  0  0
  5  4  2  0  0  0  0
  6  5  1  0  0  0  0
  7  1  1  0  0  0  0
  8  9  1  0  0  0  0
 10  6  1  0  0  0  0
 14 13  1  0  0  0  0
 15 14  1  0  0  0  0
 15 17  2  0  0  0  0
 16 15  1  0  0  0  0
 17 21  1  0  0  0  0
 18 16  2  0  0  0  0
 18 22  1  0  0  0  0
 19 16  1  0  0  0  0
 20 17  1  0  0  0  0
 20 24  1  0  0  0  0
 22 20  2  0  0  0  0
 23 18  1  0  0  0  0
 25 22  1  0  0  0  0
M  RAD  5   2   2   8   2   9   3  13   3  14   2
M  END
