Coordinates from ORCA-job 1a-Schema5-R6-D+-B3LYPG-6-31G_dp-scan-d49-09-n400
 OpenBabel08281819463D

 25 26  0  0  0  0  0  0  0  0999 V2000
   -3.5245   -1.1988   -3.3065 C   0  0  0  0  0  0  0  0  0  0  0  0
   -2.3986   -0.9895   -2.5275 C   0  0  0  0  0  0  0  0  0  0  0  0
   -2.4284   -0.0876   -1.4724 C   0  0  0  0  0  0  0  0  0  0  0  0
   -3.5784    0.6163   -1.1233 C   0  0  0  0  0  0  0  0  0  0  0  0
   -4.7229    0.3913   -1.8919 C   0  0  0  0  0  0  0  0  0  0  0  0
   -4.6923   -0.4971   -2.9706 C   0  0  0  0  0  0  0  0  0  0  0  0
   -3.5046   -1.8733   -4.1532 H   0  0  0  0  0  0  0  0  0  0  0  0
   -1.2006    0.1114   -0.7771 N   0  0  0  0  0  0  0  0  0  0  0  0
   -0.7010    0.6550    0.0856 N   0  0  0  0  0  0  0  0  0  0  0  0
   -5.5857   -0.6472   -3.5678 H   0  0  0  0  0  0  0  0  0  0  0  0
   -5.6376    0.9219   -1.6507 H   0  0  0  0  0  0  0  0  0  0  0  0
   -3.5690    1.3130   -0.2918 H   0  0  0  0  0  0  0  0  0  0  0  0
   -0.0978   -1.2134   -2.0345 N   0  0  0  0  0  0  0  0  0  0  0  0
   -1.0415   -1.5991   -2.7224 N   0  0  0  0  0  0  0  0  0  0  0  0
   -0.8619   -2.6214   -3.7611 C   0  0  0  0  0  0  0  0  0  0  0  0
    0.1951   -2.4515   -4.6558 C   0  0  0  0  0  0  0  0  0  0  0  0
   -1.6801   -3.7535   -3.7702 C   0  0  0  0  0  0  0  0  0  0  0  0
    0.4175   -3.4404   -5.6120 C   0  0  0  0  0  0  0  0  0  0  0  0
    0.8185   -1.5659   -4.6015 H   0  0  0  0  0  0  0  0  0  0  0  0
   -1.4309   -4.7387   -4.7259 C   0  0  0  0  0  0  0  0  0  0  0  0
   -2.4630   -3.8878   -3.0307 H   0  0  0  0  0  0  0  0  0  0  0  0
   -0.3921   -4.5795   -5.6472 C   0  0  0  0  0  0  0  0  0  0  0  0
    1.2269   -3.3224   -6.3248 H   0  0  0  0  0  0  0  0  0  0  0  0
   -2.0426   -5.6347   -4.7414 H   0  0  0  0  0  0  0  0  0  0  0  0
   -0.2084   -5.3491   -6.3901 H   0  0  0  0  0  0  0  0  0  0  0  0
  1  6  2  0  0  0  0
  1  2  1  0  0  0  0
  2  3  2  0  0  0  0
  3  4  1  0  0  0  0
  3  8  1  0  0  0  0
  4 12  1  0  0  0  0
  5 11  1  0  0  0  0
  5  4  2  0  0  0  0
  6  5  1  0  0  0  0
  7  1  1  0  0  0  0
  8  9  2  0  0  0  0
 10  6  1  0  0  0  0
 14  2  1  0  0  0  0
 14 13  1  0  0  0  0
 15 14  1  0  0  0  0
 16 19  1  0  0  0  0
 16 15  2  0  0  0  0
 17 15  1  0  0  0  0
 17 21  1  0  0  0  0
 18 16  1  0  0  0  0
 20 17  2  0  0  0  0
 22 18  2  0  0  0  0
 22 20  1  0  0  0  0
 23 18  1  0  0  0  0
 24 20  1  0  0  0  0
 25 22  1  0  0  0  0
M  RAD  2   9   2  13   3
M  END
