Coordinates from ORCA-job 1a-Schema5-R6-D+-B3LYPG-6-31G_dp-scan-d49-09-n400
 OpenBabel08281819463D

 25 25  0  0  0  0  0  0  0  0999 V2000
   -4.0086   -0.5777   -3.2341 C   0  0  0  0  0  0  0  0  0  0  0  0
   -2.9363   -0.9436   -2.3824 C   0  0  0  0  0  0  0  0  0  0  0  0
   -3.2614   -0.6287   -1.0441 C   0  0  0  0  0  0  0  0  0  0  0  0
   -4.4377   -0.0364   -0.5070 C   0  0  0  0  0  0  0  0  0  0  0  0
   -5.4161    0.2818   -1.4223 C   0  0  0  0  0  0  0  0  0  0  0  0
   -5.1945    0.0069   -2.7908 C   0  0  0  0  0  0  0  0  0  0  0  0
   -3.9130   -0.7605   -4.3050 H   0  0  0  0  0  0  0  0  0  0  0  0
   -2.2752   -0.9541   -0.1317 N   0  0  0  0  0  0  0  0  0  0  0  0
   -1.4509   -1.2343    0.5714 N   0  0  0  0  0  0  0  0  0  0  0  0
   -5.9735    0.2618   -3.5056 H   0  0  0  0  0  0  0  0  0  0  0  0
   -6.3445    0.7371   -1.0951 H   0  0  0  0  0  0  0  0  0  0  0  0
   -4.5535    0.1524    0.5560 H   0  0  0  0  0  0  0  0  0  0  0  0
    1.2879    0.0739   -4.4683 N   0  0  0  0  0  0  0  0  0  0  0  0
    0.8756   -0.9600   -4.5545 N   0  0  0  0  0  0  0  0  0  0  0  0
    0.3966   -2.2435   -4.6837 C   0  0  0  0  0  0  0  0  0  0  0  0
    1.1476   -3.1274   -5.4950 C   0  0  0  0  0  0  0  0  0  0  0  0
   -0.7940   -2.5813   -4.0090 C   0  0  0  0  0  0  0  0  0  0  0  0
    0.6648   -4.4168   -5.6287 C   0  0  0  0  0  0  0  0  0  0  0  0
    2.0580   -2.7997   -5.9844 H   0  0  0  0  0  0  0  0  0  0  0  0
   -1.2339   -3.8899   -4.1814 C   0  0  0  0  0  0  0  0  0  0  0  0
   -1.3873   -1.8698   -3.3749 H   0  0  0  0  0  0  0  0  0  0  0  0
   -0.5211   -4.7949   -4.9752 C   0  0  0  0  0  0  0  0  0  0  0  0
    1.2055   -5.1311   -6.2398 H   0  0  0  0  0  0  0  0  0  0  0  0
   -2.1500   -4.1959   -3.6866 H   0  0  0  0  0  0  0  0  0  0  0  0
   -0.8880   -5.8100   -5.0927 H   0  0  0  0  0  0  0  0  0  0  0  0
  1  6  2  0  0  0  0
  1  2  1  0  0  0  0
  2  3  2  0  0  0  0
  3  4  1  0  0  0  0
  3  8  1  0  0  0  0
  4 12  1  0  0  0  0
  5 11  1  0  0  0  0
  5  4  2  0  0  0  0
  6  5  1  0  0  0  0
  7  1  1  0  0  0  0
  8  9  1  0  0  0  0
 10  6  1  0  0  0  0
 14 13  1  0  0  0  0
 15 14  1  0  0  0  0
 15 17  2  0  0  0  0
 16 15  1  0  0  0  0
 17 21  1  0  0  0  0
 18 16  2  0  0  0  0
 18 22  1  0  0  0  0
 19 16  1  0  0  0  0
 20 17  1  0  0  0  0
 20 24  1  0  0  0  0
 22 20  2  0  0  0  0
 23 18  1  0  0  0  0
 25 22  1  0  0  0  0
M  RAD  5   2   2   8   2   9   3  13   3  14   2
M  END
