Coordinates from ORCA-job 1a-Schema5-R6-D+-B3LYPG-6-31G_dp-scan-d49-09-n400
 OpenBabel08281819463D

 25 25  0  0  0  0  0  0  0  0999 V2000
   -3.8396   -0.5504   -3.3482 C   0  0  0  0  0  0  0  0  0  0  0  0
   -2.7788   -0.8666   -2.4817 C   0  0  0  0  0  0  0  0  0  0  0  0
   -3.0255   -0.4335   -1.1637 C   0  0  0  0  0  0  0  0  0  0  0  0
   -4.1674    0.2476   -0.6624 C   0  0  0  0  0  0  0  0  0  0  0  0
   -5.1580    0.5219   -1.5817 C   0  0  0  0  0  0  0  0  0  0  0  0
   -4.9902    0.1206   -2.9236 C   0  0  0  0  0  0  0  0  0  0  0  0
   -3.7752   -0.8343   -4.3973 H   0  0  0  0  0  0  0  0  0  0  0  0
   -2.0286   -0.7135   -0.2492 N   0  0  0  0  0  0  0  0  0  0  0  0
   -1.2070   -0.9541    0.4695 N   0  0  0  0  0  0  0  0  0  0  0  0
   -5.7777    0.3438   -3.6392 H   0  0  0  0  0  0  0  0  0  0  0  0
   -6.0585    1.0409   -1.2723 H   0  0  0  0  0  0  0  0  0  0  0  0
   -4.2495    0.5332    0.3817 H   0  0  0  0  0  0  0  0  0  0  0  0
    0.5047   -0.0896   -3.8389 N   0  0  0  0  0  0  0  0  0  0  0  0
   -0.0735   -1.0597   -3.8595 N   0  0  0  0  0  0  0  0  0  0  0  0
   -0.1819   -2.4012   -4.3023 C   0  0  0  0  0  0  0  0  0  0  0  0
    0.8163   -2.8240   -5.2036 C   0  0  0  0  0  0  0  0  0  0  0  0
   -1.2078   -3.2251   -3.8456 C   0  0  0  0  0  0  0  0  0  0  0  0
    0.7544   -4.1351   -5.6523 C   0  0  0  0  0  0  0  0  0  0  0  0
    1.5958   -2.1434   -5.5283 H   0  0  0  0  0  0  0  0  0  0  0  0
   -1.2380   -4.5372   -4.3086 C   0  0  0  0  0  0  0  0  0  0  0  0
   -1.9323   -2.7823   -3.1605 H   0  0  0  0  0  0  0  0  0  0  0  0
   -0.2660   -4.9882   -5.2072 C   0  0  0  0  0  0  0  0  0  0  0  0
    1.5033   -4.4940   -6.3506 H   0  0  0  0  0  0  0  0  0  0  0  0
   -2.0221   -5.2065   -3.9715 H   0  0  0  0  0  0  0  0  0  0  0  0
   -0.3006   -6.0111   -5.5683 H   0  0  0  0  0  0  0  0  0  0  0  0
  1  6  2  0  0  0  0
  1  2  1  0  0  0  0
  2  3  2  0  0  0  0
  3  4  1  0  0  0  0
  3  8  1  0  0  0  0
  4 12  1  0  0  0  0
  5 11  1  0  0  0  0
  5  4  2  0  0  0  0
  6  5  1  0  0  0  0
  7  1  1  0  0  0  0
  8  9  1  0  0  0  0
 10  6  1  0  0  0  0
 14 13  2  0  0  0  0
 15 14  1  0  0  0  0
 15 17  1  0  0  0  0
 16 15  2  0  0  0  0
 17 21  1  0  0  0  0
 18 22  2  0  0  0  0
 18 16  1  0  0  0  0
 19 16  1  0  0  0  0
 20 24  1  0  0  0  0
 20 17  2  0  0  0  0
 22 20  1  0  0  0  0
 23 18  1  0  0  0  0
 25 22  1  0  0  0  0
M  RAD  4   2   2   8   2   9   3  13   2
M  END
