Coordinates from ORCA-job 1a-Schema5-R6-D+-B3LYPG-6-31G_dp-scan-d49-09-n400
 OpenBabel08281819463D

 25 25  0  0  0  0  0  0  0  0999 V2000
   -4.0076   -0.5555   -3.2373 C   0  0  0  0  0  0  0  0  0  0  0  0
   -2.9413   -0.9458   -2.3891 C   0  0  0  0  0  0  0  0  0  0  0  0
   -3.2609   -0.6364   -1.0482 C   0  0  0  0  0  0  0  0  0  0  0  0
   -4.4272   -0.0291   -0.5061 C   0  0  0  0  0  0  0  0  0  0  0  0
   -5.4003    0.3130   -1.4185 C   0  0  0  0  0  0  0  0  0  0  0  0
   -5.1835    0.0453   -2.7892 C   0  0  0  0  0  0  0  0  0  0  0  0
   -3.9155   -0.7321   -4.3097 H   0  0  0  0  0  0  0  0  0  0  0  0
   -2.2805   -0.9860   -0.1384 N   0  0  0  0  0  0  0  0  0  0  0  0
   -1.4614   -1.2861    0.5625 N   0  0  0  0  0  0  0  0  0  0  0  0
   -5.9583    0.3187   -3.5018 H   0  0  0  0  0  0  0  0  0  0  0  0
   -6.3209    0.7808   -1.0873 H   0  0  0  0  0  0  0  0  0  0  0  0
   -4.5399    0.1527    0.5585 H   0  0  0  0  0  0  0  0  0  0  0  0
    1.1948    0.0959   -4.4789 N   0  0  0  0  0  0  0  0  0  0  0  0
    0.8123   -0.9496   -4.5626 N   0  0  0  0  0  0  0  0  0  0  0  0
    0.3676   -2.2461   -4.6869 C   0  0  0  0  0  0  0  0  0  0  0  0
    1.1434   -3.1155   -5.4901 C   0  0  0  0  0  0  0  0  0  0  0  0
   -0.8176   -2.6087   -4.0148 C   0  0  0  0  0  0  0  0  0  0  0  0
    0.6922   -4.4167   -5.6188 C   0  0  0  0  0  0  0  0  0  0  0  0
    2.0478   -2.7685   -5.9774 H   0  0  0  0  0  0  0  0  0  0  0  0
   -1.2248   -3.9287   -4.1816 C   0  0  0  0  0  0  0  0  0  0  0  0
   -1.4244   -1.9025   -3.3862 H   0  0  0  0  0  0  0  0  0  0  0  0
   -0.4870   -4.8199   -4.9682 C   0  0  0  0  0  0  0  0  0  0  0  0
    1.2525   -5.1211   -6.2237 H   0  0  0  0  0  0  0  0  0  0  0  0
   -2.1348   -4.2557   -3.6891 H   0  0  0  0  0  0  0  0  0  0  0  0
   -0.8288   -5.8441   -5.0822 H   0  0  0  0  0  0  0  0  0  0  0  0
  1  6  2  0  0  0  0
  1  2  1  0  0  0  0
  2  3  2  0  0  0  0
  3  4  1  0  0  0  0
  3  8  1  0  0  0  0
  4 12  1  0  0  0  0
  5 11  1  0  0  0  0
  5  4  2  0  0  0  0
  6  5  1  0  0  0  0
  7  1  1  0  0  0  0
  8  9  1  0  0  0  0
 10  6  1  0  0  0  0
 14 13  1  0  0  0  0
 15 14  1  0  0  0  0
 15 17  2  0  0  0  0
 16 15  1  0  0  0  0
 17 21  1  0  0  0  0
 18 16  2  0  0  0  0
 18 22  1  0  0  0  0
 19 16  1  0  0  0  0
 20 17  1  0  0  0  0
 20 24  1  0  0  0  0
 22 20  2  0  0  0  0
 23 18  1  0  0  0  0
 25 22  1  0  0  0  0
M  RAD  5   2   2   8   2   9   3  13   3  14   2
M  END
