Coordinates from ORCA-job 1a-Schema5-R6-D+-B3LYPG-6-31G_dp-scan-d49-09-n400
 OpenBabel08281819463D

 25 26  0  0  0  0  0  0  0  0999 V2000
   -0.4105    0.0640   -2.0814 C   0  0  0  0  0  0  0  0  0  0  0  0
   -1.5713   -0.7398   -2.0124 C   0  0  0  0  0  0  0  0  0  0  0  0
   -2.7842   -0.1344   -2.4904 C   0  0  0  0  0  0  0  0  0  0  0  0
   -2.8364    1.1810   -3.0345 C   0  0  0  0  0  0  0  0  0  0  0  0
   -1.6678    1.8966   -3.1144 C   0  0  0  0  0  0  0  0  0  0  0  0
   -0.4589    1.3285   -2.6385 C   0  0  0  0  0  0  0  0  0  0  0  0
    0.5151   -0.3440   -1.6911 H   0  0  0  0  0  0  0  0  0  0  0  0
   -3.9338   -0.8408   -2.3955 N   0  0  0  0  0  0  0  0  0  0  0  0
   -4.8882   -1.4224   -2.2904 N   0  0  0  0  0  0  0  0  0  0  0  0
    0.4569    1.9080   -2.7015 H   0  0  0  0  0  0  0  0  0  0  0  0
   -1.6745    2.9001   -3.5229 H   0  0  0  0  0  0  0  0  0  0  0  0
   -3.7871    1.5881   -3.3603 H   0  0  0  0  0  0  0  0  0  0  0  0
   -1.5827   -1.8975   -1.2965 N   0  0  0  0  0  0  0  0  0  0  0  0
   -1.8295   -3.0853   -1.5764 N   0  0  0  0  0  0  0  0  0  0  0  0
   -1.9176   -3.5936   -2.8893 C   0  0  0  0  0  0  0  0  0  0  0  0
   -2.5143   -4.8682   -2.9522 C   0  0  0  0  0  0  0  0  0  0  0  0
   -1.4206   -2.9789   -4.0588 C   0  0  0  0  0  0  0  0  0  0  0  0
   -2.6768   -5.4976   -4.1819 C   0  0  0  0  0  0  0  0  0  0  0  0
   -2.8437   -5.3285   -2.0269 H   0  0  0  0  0  0  0  0  0  0  0  0
   -1.5641   -3.6316   -5.2763 C   0  0  0  0  0  0  0  0  0  0  0  0
   -0.8891   -2.0361   -4.0163 H   0  0  0  0  0  0  0  0  0  0  0  0
   -2.2019   -4.8796   -5.3417 C   0  0  0  0  0  0  0  0  0  0  0  0
   -3.1500   -6.4719   -4.2354 H   0  0  0  0  0  0  0  0  0  0  0  0
   -1.1667   -3.1805   -6.1795 H   0  0  0  0  0  0  0  0  0  0  0  0
   -2.3061   -5.3774   -6.3007 H   0  0  0  0  0  0  0  0  0  0  0  0
  1  2  1  0  0  0  0
  1  7  1  0  0  0  0
  2 13  1  0  0  0  0
  3  8  1  0  0  0  0
  3  2  2  0  0  0  0
  4  3  1  0  0  0  0
  5  4  2  0  0  0  0
  5  6  1  0  0  0  0
  6  1  2  0  0  0  0
  8  9  1  0  0  0  0
 10  6  1  0  0  0  0
 11  5  1  0  0  0  0
 12  4  1  0  0  0  0
 14 13  2  0  0  0  0
 15 14  1  0  0  0  0
 16 15  1  0  0  0  0
 16 19  1  0  0  0  0
 17 21  1  0  0  0  0
 17 15  2  0  0  0  0
 18 16  2  0  0  0  0
 20 17  1  0  0  0  0
 22 20  2  0  0  0  0
 22 18  1  0  0  0  0
 23 18  1  0  0  0  0
 24 20  1  0  0  0  0
 25 22  1  0  0  0  0
M  RAD  2   8   2   9   3
M  END
