Coordinates from ORCA-job 1a-Schema5-R6-D+-B3LYPG-6-31G_dp-scan-d49-09-n400
 OpenBabel08281819463D

 25 25  0  0  0  0  0  0  0  0999 V2000
   -3.5899   -0.9701   -3.3565 C   0  0  0  0  0  0  0  0  0  0  0  0
   -2.5138   -0.9426   -2.4738 C   0  0  0  0  0  0  0  0  0  0  0  0
   -2.7256   -0.2063   -1.2993 C   0  0  0  0  0  0  0  0  0  0  0  0
   -3.9216    0.4631   -0.9374 C   0  0  0  0  0  0  0  0  0  0  0  0
   -4.9615    0.3894   -1.8449 C   0  0  0  0  0  0  0  0  0  0  0  0
   -4.7933   -0.3211   -3.0486 C   0  0  0  0  0  0  0  0  0  0  0  0
   -3.5050   -1.5042   -4.2996 H   0  0  0  0  0  0  0  0  0  0  0  0
   -1.6669   -0.1236   -0.4124 N   0  0  0  0  0  0  0  0  0  0  0  0
   -0.8001   -0.0562    0.2872 N   0  0  0  0  0  0  0  0  0  0  0  0
   -5.6179   -0.3627   -3.7554 H   0  0  0  0  0  0  0  0  0  0  0  0
   -5.9026    0.8822   -1.6283 H   0  0  0  0  0  0  0  0  0  0  0  0
   -4.0082    1.0005    0.0015 H   0  0  0  0  0  0  0  0  0  0  0  0
    0.4707   -0.6587   -2.6837 N   0  0  0  0  0  0  0  0  0  0  0  0
   -0.3766   -1.3562   -3.0271 N   0  0  0  0  0  0  0  0  0  0  0  0
   -0.4623   -2.5078   -3.8982 C   0  0  0  0  0  0  0  0  0  0  0  0
    0.4929   -2.5998   -4.9182 C   0  0  0  0  0  0  0  0  0  0  0  0
   -1.4198   -3.4901   -3.6677 C   0  0  0  0  0  0  0  0  0  0  0  0
    0.4615   -3.7218   -5.7407 C   0  0  0  0  0  0  0  0  0  0  0  0
    1.2257   -1.8125   -5.0578 H   0  0  0  0  0  0  0  0  0  0  0  0
   -1.4171   -4.6168   -4.4891 C   0  0  0  0  0  0  0  0  0  0  0  0
   -2.1274   -3.3784   -2.8553 H   0  0  0  0  0  0  0  0  0  0  0  0
   -0.4867   -4.7280   -5.5260 C   0  0  0  0  0  0  0  0  0  0  0  0
    1.1819   -3.8115   -6.5472 H   0  0  0  0  0  0  0  0  0  0  0  0
   -2.1418   -5.4059   -4.3178 H   0  0  0  0  0  0  0  0  0  0  0  0
   -0.4986   -5.6026   -6.1687 H   0  0  0  0  0  0  0  0  0  0  0  0
  1  6  2  0  0  0  0
  1  2  1  0  0  0  0
  2  3  2  0  0  0  0
  3  4  1  0  0  0  0
  3  8  1  0  0  0  0
  4 12  1  0  0  0  0
  5 11  1  0  0  0  0
  5  4  2  0  0  0  0
  6  5  1  0  0  0  0
  7  1  1  0  0  0  0
  8  9  1  0  0  0  0
 10  6  1  0  0  0  0
 14 13  2  0  0  0  0
 15 17  1  0  0  0  0
 15 14  1  0  0  0  0
 16 15  2  0  0  0  0
 17 21  1  0  0  0  0
 18 22  2  0  0  0  0
 18 16  1  0  0  0  0
 19 16  1  0  0  0  0
 20 24  1  0  0  0  0
 20 17  2  0  0  0  0
 22 20  1  0  0  0  0
 23 18  1  0  0  0  0
 25 22  1  0  0  0  0
M  RAD  4   2   2   8   2   9   3  13   2
M  END
