Coordinates from ORCA-job 1a-Schema5-R6-D+-B3LYPG-6-31G_dp-scan-d49-09-n400
 OpenBabel08281819463D

 25 25  0  0  0  0  0  0  0  0999 V2000
   -3.9314   -0.4643   -3.2604 C   0  0  0  0  0  0  0  0  0  0  0  0
   -2.9553   -1.0128   -2.3917 C   0  0  0  0  0  0  0  0  0  0  0  0
   -3.2654   -0.6781   -1.0544 C   0  0  0  0  0  0  0  0  0  0  0  0
   -4.3466    0.0848   -0.5336 C   0  0  0  0  0  0  0  0  0  0  0  0
   -5.2331    0.5772   -1.4655 C   0  0  0  0  0  0  0  0  0  0  0  0
   -5.0198    0.2966   -2.8337 C   0  0  0  0  0  0  0  0  0  0  0  0
   -3.8405   -0.6446   -4.3324 H   0  0  0  0  0  0  0  0  0  0  0  0
   -2.3752   -1.1806   -0.1230 N   0  0  0  0  0  0  0  0  0  0  0  0
   -1.6330   -1.6082    0.5969 N   0  0  0  0  0  0  0  0  0  0  0  0
   -5.7272    0.6865   -3.5619 H   0  0  0  0  0  0  0  0  0  0  0  0
   -6.0857    1.1691   -1.1506 H   0  0  0  0  0  0  0  0  0  0  0  0
   -4.4632    0.2659    0.5307 H   0  0  0  0  0  0  0  0  0  0  0  0
    0.4127    0.1726   -4.4233 N   0  0  0  0  0  0  0  0  0  0  0  0
    0.2660   -0.9296   -4.5185 N   0  0  0  0  0  0  0  0  0  0  0  0
    0.1049   -2.2895   -4.6604 C   0  0  0  0  0  0  0  0  0  0  0  0
    1.0064   -2.9696   -5.5113 C   0  0  0  0  0  0  0  0  0  0  0  0
   -0.9502   -2.8933   -3.9482 C   0  0  0  0  0  0  0  0  0  0  0  0
    0.8232   -4.3346   -5.6460 C   0  0  0  0  0  0  0  0  0  0  0  0
    1.7979   -2.4396   -6.0295 H   0  0  0  0  0  0  0  0  0  0  0  0
   -1.0911   -4.2663   -4.1225 C   0  0  0  0  0  0  0  0  0  0  0  0
   -1.6227   -2.2693   -3.3024 H   0  0  0  0  0  0  0  0  0  0  0  0
   -0.2202   -4.9773   -4.9563 C   0  0  0  0  0  0  0  0  0  0  0  0
    1.4874   -4.9040   -6.2869 H   0  0  0  0  0  0  0  0  0  0  0  0
   -1.8912   -4.7841   -3.6035 H   0  0  0  0  0  0  0  0  0  0  0  0
   -0.3505   -6.0488   -5.0768 H   0  0  0  0  0  0  0  0  0  0  0  0
  1  6  2  0  0  0  0
  1  2  1  0  0  0  0
  2  3  2  0  0  0  0
  3  4  1  0  0  0  0
  3  8  1  0  0  0  0
  4 12  1  0  0  0  0
  5 11  1  0  0  0  0
  5  4  2  0  0  0  0
  6  5  1  0  0  0  0
  7  1  1  0  0  0  0
  8  9  1  0  0  0  0
 10  6  1  0  0  0  0
 14 13  1  0  0  0  0
 15 14  1  0  0  0  0
 15 17  2  0  0  0  0
 16 15  1  0  0  0  0
 17 21  1  0  0  0  0
 18 16  2  0  0  0  0
 18 22  1  0  0  0  0
 19 16  1  0  0  0  0
 20 17  1  0  0  0  0
 20 24  1  0  0  0  0
 22 20  2  0  0  0  0
 23 18  1  0  0  0  0
 25 22  1  0  0  0  0
M  RAD  5   2   2   8   2   9   3  13   3  14   2
M  END
