Coordinates from ORCA-job 1a-Schema5-R6-D+-B3LYPG-6-31G_dp-scan-d49-09-n400
 OpenBabel08281819463D

 25 25  0  0  0  0  0  0  0  0999 V2000
   -3.8109   -0.5740   -3.3604 C   0  0  0  0  0  0  0  0  0  0  0  0
   -2.7437   -0.8513   -2.4914 C   0  0  0  0  0  0  0  0  0  0  0  0
   -2.9897   -0.4050   -1.1784 C   0  0  0  0  0  0  0  0  0  0  0  0
   -4.1457    0.2564   -0.6838 C   0  0  0  0  0  0  0  0  0  0  0  0
   -5.1463    0.4932   -1.6032 C   0  0  0  0  0  0  0  0  0  0  0  0
   -4.9752    0.0765   -2.9397 C   0  0  0  0  0  0  0  0  0  0  0  0
   -3.7420   -0.8715   -4.4052 H   0  0  0  0  0  0  0  0  0  0  0  0
   -1.9816   -0.6457   -0.2653 N   0  0  0  0  0  0  0  0  0  0  0  0
   -1.1518   -0.8528    0.4541 N   0  0  0  0  0  0  0  0  0  0  0  0
   -5.7704    0.2712   -3.6550 H   0  0  0  0  0  0  0  0  0  0  0  0
   -6.0573    0.9956   -1.2975 H   0  0  0  0  0  0  0  0  0  0  0  0
   -4.2306    0.5561    0.3560 H   0  0  0  0  0  0  0  0  0  0  0  0
    0.5315   -0.1374   -3.7388 N   0  0  0  0  0  0  0  0  0  0  0  0
   -0.1000   -1.0763   -3.7700 N   0  0  0  0  0  0  0  0  0  0  0  0
   -0.2120   -2.4086   -4.2581 C   0  0  0  0  0  0  0  0  0  0  0  0
    0.7871   -2.8061   -5.1682 C   0  0  0  0  0  0  0  0  0  0  0  0
   -1.2370   -3.2462   -3.8296 C   0  0  0  0  0  0  0  0  0  0  0  0
    0.7271   -4.1038   -5.6560 C   0  0  0  0  0  0  0  0  0  0  0  0
    1.5674   -2.1163   -5.4707 H   0  0  0  0  0  0  0  0  0  0  0  0
   -1.2660   -4.5454   -4.3287 C   0  0  0  0  0  0  0  0  0  0  0  0
   -1.9660   -2.8323   -3.1350 H   0  0  0  0  0  0  0  0  0  0  0  0
   -0.2926   -4.9705   -5.2380 C   0  0  0  0  0  0  0  0  0  0  0  0
    1.4779   -4.4410   -6.3632 H   0  0  0  0  0  0  0  0  0  0  0  0
   -2.0501   -5.2242   -4.0112 H   0  0  0  0  0  0  0  0  0  0  0  0
   -0.3259   -5.9827   -5.6280 H   0  0  0  0  0  0  0  0  0  0  0  0
  1  6  2  0  0  0  0
  1  2  1  0  0  0  0
  2  3  2  0  0  0  0
  3  4  1  0  0  0  0
  3  8  1  0  0  0  0
  4 12  1  0  0  0  0
  5 11  1  0  0  0  0
  5  4  2  0  0  0  0
  6  5  1  0  0  0  0
  7  1  1  0  0  0  0
  8  9  1  0  0  0  0
 10  6  1  0  0  0  0
 14 13  2  0  0  0  0
 15 17  1  0  0  0  0
 15 14  1  0  0  0  0
 16 15  2  0  0  0  0
 17 21  1  0  0  0  0
 18 22  2  0  0  0  0
 18 16  1  0  0  0  0
 19 16  1  0  0  0  0
 20 24  1  0  0  0  0
 20 17  2  0  0  0  0
 22 20  1  0  0  0  0
 23 18  1  0  0  0  0
 25 22  1  0  0  0  0
M  RAD  4   2   2   8   2   9   3  13   2
M  END
