Coordinates from ORCA-job 1a-Schema5-R6-D+-B3LYPG-6-31G_dp-scan-d49-09-n400
 OpenBabel08281819463D

 25 25  0  0  0  0  0  0  0  0999 V2000
   -3.6669   -1.2071   -3.2827 C   0  0  0  0  0  0  0  0  0  0  0  0
   -2.5311   -0.9943   -2.5319 C   0  0  0  0  0  0  0  0  0  0  0  0
   -2.5160   -0.0990   -1.4892 C   0  0  0  0  0  0  0  0  0  0  0  0
   -3.6649    0.6179   -1.1055 C   0  0  0  0  0  0  0  0  0  0  0  0
   -4.8225    0.3980   -1.8440 C   0  0  0  0  0  0  0  0  0  0  0  0
   -4.8247   -0.4961   -2.9229 C   0  0  0  0  0  0  0  0  0  0  0  0
   -3.6742   -1.8893   -4.1257 H   0  0  0  0  0  0  0  0  0  0  0  0
   -1.3262    0.1766   -0.7375 N   0  0  0  0  0  0  0  0  0  0  0  0
   -0.8127    0.7032    0.1130 N   0  0  0  0  0  0  0  0  0  0  0  0
   -5.7350   -0.6416   -3.4969 H   0  0  0  0  0  0  0  0  0  0  0  0
   -5.7275    0.9346   -1.5808 H   0  0  0  0  0  0  0  0  0  0  0  0
   -3.6351    1.3126   -0.2717 H   0  0  0  0  0  0  0  0  0  0  0  0
    0.1824   -1.1670   -2.0900 N   0  0  0  0  0  0  0  0  0  0  0  0
   -0.7118   -1.6224   -2.7216 N   0  0  0  0  0  0  0  0  0  0  0  0
   -0.6439   -2.6338   -3.7641 C   0  0  0  0  0  0  0  0  0  0  0  0
    0.4135   -2.5639   -4.6737 C   0  0  0  0  0  0  0  0  0  0  0  0
   -1.5868   -3.6609   -3.7836 C   0  0  0  0  0  0  0  0  0  0  0  0
    0.5065   -3.5522   -5.6509 C   0  0  0  0  0  0  0  0  0  0  0  0
    1.1317   -1.7532   -4.6163 H   0  0  0  0  0  0  0  0  0  0  0  0
   -1.4626   -4.6525   -4.7565 C   0  0  0  0  0  0  0  0  0  0  0  0
   -2.3680   -3.7114   -3.0330 H   0  0  0  0  0  0  0  0  0  0  0  0
   -0.4265   -4.5927   -5.6923 C   0  0  0  0  0  0  0  0  0  0  0  0
    1.3123   -3.5110   -6.3767 H   0  0  0  0  0  0  0  0  0  0  0  0
   -2.1713   -5.4741   -4.7775 H   0  0  0  0  0  0  0  0  0  0  0  0
   -0.3424   -5.3623   -6.4532 H   0  0  0  0  0  0  0  0  0  0  0  0
  1  6  2  0  0  0  0
  1  2  1  0  0  0  0
  2  3  2  0  0  0  0
  3  4  1  0  0  0  0
  3  8  1  0  0  0  0
  4 12  1  0  0  0  0
  5 11  1  0  0  0  0
  5  4  2  0  0  0  0
  6  5  1  0  0  0  0
  7  1  1  0  0  0  0
  8  9  2  0  0  0  0
 10  6  1  0  0  0  0
 14 13  2  0  0  0  0
 15 14  1  0  0  0  0
 16 19  1  0  0  0  0
 16 15  2  0  0  0  0
 17 15  1  0  0  0  0
 17 21  1  0  0  0  0
 18 16  1  0  0  0  0
 20 17  2  0  0  0  0
 22 18  2  0  0  0  0
 22 20  1  0  0  0  0
 23 18  1  0  0  0  0
 24 20  1  0  0  0  0
 25 22  1  0  0  0  0
M  RAD  3   2   2   9   2  13   2
M  END
