Coordinates from ORCA-job 1a-Schema5-R6-D+-B3LYPG-6-31G_dp-scan-d49-09-n400
 OpenBabel08281819463D

 25 25  0  0  0  0  0  0  0  0999 V2000
   -4.0046   -0.5328   -3.2413 C   0  0  0  0  0  0  0  0  0  0  0  0
   -2.9458   -0.9486   -2.3958 C   0  0  0  0  0  0  0  0  0  0  0  0
   -3.2613   -0.6458   -1.0524 C   0  0  0  0  0  0  0  0  0  0  0  0
   -4.4176   -0.0233   -0.5060 C   0  0  0  0  0  0  0  0  0  0  0  0
   -5.3837    0.3438   -1.4160 C   0  0  0  0  0  0  0  0  0  0  0  0
   -5.1704    0.0845   -2.7888 C   0  0  0  0  0  0  0  0  0  0  0  0
   -3.9149   -0.7021   -4.3150 H   0  0  0  0  0  0  0  0  0  0  0  0
   -2.2884   -1.0208   -0.1447 N   0  0  0  0  0  0  0  0  0  0  0  0
   -1.4758   -1.3417    0.5545 N   0  0  0  0  0  0  0  0  0  0  0  0
   -5.9396    0.3774   -3.4996 H   0  0  0  0  0  0  0  0  0  0  0  0
   -6.2965    0.8244   -1.0813 H   0  0  0  0  0  0  0  0  0  0  0  0
   -4.5282    0.1506    0.5602 H   0  0  0  0  0  0  0  0  0  0  0  0
    1.1002    0.1160   -4.4919 N   0  0  0  0  0  0  0  0  0  0  0  0
    0.7479   -0.9401   -4.5724 N   0  0  0  0  0  0  0  0  0  0  0  0
    0.3382   -2.2485   -4.6908 C   0  0  0  0  0  0  0  0  0  0  0  0
    1.1367   -3.1028   -5.4878 C   0  0  0  0  0  0  0  0  0  0  0  0
   -0.8386   -2.6357   -4.0186 C   0  0  0  0  0  0  0  0  0  0  0  0
    0.7176   -4.4155   -5.6095 C   0  0  0  0  0  0  0  0  0  0  0  0
    2.0332   -2.7365   -5.9757 H   0  0  0  0  0  0  0  0  0  0  0  0
   -1.2133   -3.9663   -4.1777 C   0  0  0  0  0  0  0  0  0  0  0  0
   -1.4572   -1.9348   -3.3951 H   0  0  0  0  0  0  0  0  0  0  0  0
   -0.4526   -4.8436   -4.9583 C   0  0  0  0  0  0  0  0  0  0  0  0
    1.2959   -5.1095   -6.2095 H   0  0  0  0  0  0  0  0  0  0  0  0
   -2.1155   -4.3137   -3.6847 H   0  0  0  0  0  0  0  0  0  0  0  0
   -0.7693   -5.8764   -5.0670 H   0  0  0  0  0  0  0  0  0  0  0  0
  1  6  2  0  0  0  0
  1  2  1  0  0  0  0
  2  3  2  0  0  0  0
  3  4  1  0  0  0  0
  3  8  1  0  0  0  0
  4 12  1  0  0  0  0
  5 11  1  0  0  0  0
  5  4  2  0  0  0  0
  6  5  1  0  0  0  0
  7  1  1  0  0  0  0
  8  9  1  0  0  0  0
 10  6  1  0  0  0  0
 14 13  1  0  0  0  0
 15 14  1  0  0  0  0
 15 17  2  0  0  0  0
 16 15  1  0  0  0  0
 17 21  1  0  0  0  0
 18 16  2  0  0  0  0
 18 22  1  0  0  0  0
 19 16  1  0  0  0  0
 20 17  1  0  0  0  0
 20 24  1  0  0  0  0
 22 20  2  0  0  0  0
 23 18  1  0  0  0  0
 25 22  1  0  0  0  0
M  RAD  5   2   2   8   2   9   3  13   3  14   2
M  END
