Coordinates from ORCA-job 1a-Schema5-R6-D+-B3LYPG-6-31G_dp-scan-d49-09-n400
 OpenBabel08281819463D

 25 26  0  0  0  0  0  0  0  0999 V2000
   -0.3867    0.5736   -2.8150 C   0  0  0  0  0  0  0  0  0  0  0  0
   -1.4935   -0.3563   -2.8168 C   0  0  0  0  0  0  0  0  0  0  0  0
   -2.7329    0.2361   -2.2633 C   0  0  0  0  0  0  0  0  0  0  0  0
   -2.8169    1.5606   -1.7590 C   0  0  0  0  0  0  0  0  0  0  0  0
   -1.6883    2.3466   -1.7549 C   0  0  0  0  0  0  0  0  0  0  0  0
   -0.4756    1.8405   -2.2854 C   0  0  0  0  0  0  0  0  0  0  0  0
    0.5446    0.2032   -3.2289 H   0  0  0  0  0  0  0  0  0  0  0  0
   -3.8784   -0.4773   -2.2882 N   0  0  0  0  0  0  0  0  0  0  0  0
   -4.8809   -0.9886   -2.3018 N   0  0  0  0  0  0  0  0  0  0  0  0
    0.4025    2.4786   -2.2984 H   0  0  0  0  0  0  0  0  0  0  0  0
   -1.7390    3.3617   -1.3789 H   0  0  0  0  0  0  0  0  0  0  0  0
   -3.7722    1.9364   -1.4086 H   0  0  0  0  0  0  0  0  0  0  0  0
   -1.3721   -1.4157   -3.1926 N   0  0  0  0  0  0  0  0  0  0  0  0
   -2.0779   -2.4320   -2.8291 N   0  0  0  0  0  0  0  0  0  0  0  0
   -2.0261   -3.5542   -3.6163 C   0  0  0  0  0  0  0  0  0  0  0  0
   -2.7494   -4.6672   -3.1164 C   0  0  0  0  0  0  0  0  0  0  0  0
   -1.3314   -3.6475   -4.8524 C   0  0  0  0  0  0  0  0  0  0  0  0
   -2.7880   -5.8473   -3.8430 C   0  0  0  0  0  0  0  0  0  0  0  0
   -3.2584   -4.5665   -2.1639 H   0  0  0  0  0  0  0  0  0  0  0  0
   -1.3808   -4.8301   -5.5654 C   0  0  0  0  0  0  0  0  0  0  0  0
   -0.7691   -2.7931   -5.2114 H   0  0  0  0  0  0  0  0  0  0  0  0
   -2.1067   -5.9283   -5.0644 C   0  0  0  0  0  0  0  0  0  0  0  0
   -3.3371   -6.7039   -3.4677 H   0  0  0  0  0  0  0  0  0  0  0  0
   -0.8567   -4.9179   -6.5110 H   0  0  0  0  0  0  0  0  0  0  0  0
   -2.1327   -6.8533   -5.6325 H   0  0  0  0  0  0  0  0  0  0  0  0
  1  6  1  0  0  0  0
  2  1  2  0  0  0  0
  2  3  1  0  0  0  0
  3  4  2  0  0  0  0
  4  5  1  0  0  0  0
  4 12  1  0  0  0  0
  5 11  1  0  0  0  0
  6  5  2  0  0  0  0
  7  1  1  0  0  0  0
  8  3  1  0  0  0  0
  9  8  1  0  0  0  0
 10  6  1  0  0  0  0
 13 14  2  0  0  0  0
 13  2  1  0  0  0  0
 15 16  1  0  0  0  0
 15 14  1  0  0  0  0
 16 19  1  0  0  0  0
 17 15  2  0  0  0  0
 18 23  1  0  0  0  0
 18 16  2  0  0  0  0
 20 22  2  0  0  0  0
 20 17  1  0  0  0  0
 21 17  1  0  0  0  0
 22 18  1  0  0  0  0
 24 20  1  0  0  0  0
 25 22  1  0  0  0  0
M  RAD  2   8   2   9   3
M  END
