Coordinates from ORCA-job 1a-Schema5-R6-D+-B3LYPG-6-31G_dp-scan-d49-09-n400
 OpenBabel08281819463D

 25 25  0  0  0  0  0  0  0  0999 V2000
   -3.6221   -0.9203   -3.3542 C   0  0  0  0  0  0  0  0  0  0  0  0
   -2.5425   -0.9063   -2.4709 C   0  0  0  0  0  0  0  0  0  0  0  0
   -2.7786   -0.2089   -1.2763 C   0  0  0  0  0  0  0  0  0  0  0  0
   -3.9834    0.4355   -0.8957 C   0  0  0  0  0  0  0  0  0  0  0  0
   -5.0182    0.3755   -1.8086 C   0  0  0  0  0  0  0  0  0  0  0  0
   -4.8347   -0.2973   -3.0328 C   0  0  0  0  0  0  0  0  0  0  0  0
   -3.5314   -1.4256   -4.3130 H   0  0  0  0  0  0  0  0  0  0  0  0
   -1.7213   -0.1429   -0.3874 N   0  0  0  0  0  0  0  0  0  0  0  0
   -0.8497   -0.0956    0.3088 N   0  0  0  0  0  0  0  0  0  0  0  0
   -5.6567   -0.3292   -3.7433 H   0  0  0  0  0  0  0  0  0  0  0  0
   -5.9672    0.8485   -1.5822 H   0  0  0  0  0  0  0  0  0  0  0  0
   -4.0795    0.9438    0.0583 H   0  0  0  0  0  0  0  0  0  0  0  0
    0.5941   -0.6190   -2.7880 N   0  0  0  0  0  0  0  0  0  0  0  0
   -0.2459   -1.3313   -3.0997 N   0  0  0  0  0  0  0  0  0  0  0  0
   -0.3825   -2.4977   -3.9378 C   0  0  0  0  0  0  0  0  0  0  0  0
    0.5689   -2.6495   -4.9567 C   0  0  0  0  0  0  0  0  0  0  0  0
   -1.3775   -3.4354   -3.6826 C   0  0  0  0  0  0  0  0  0  0  0  0
    0.4924   -3.7891   -5.7506 C   0  0  0  0  0  0  0  0  0  0  0  0
    1.3315   -1.8951   -5.1164 H   0  0  0  0  0  0  0  0  0  0  0  0
   -1.4185   -4.5808   -4.4759 C   0  0  0  0  0  0  0  0  0  0  0  0
   -2.0802   -3.2651   -2.8767 H   0  0  0  0  0  0  0  0  0  0  0  0
   -0.4939   -4.7526   -5.5100 C   0  0  0  0  0  0  0  0  0  0  0  0
    1.2074   -3.9261   -6.5552 H   0  0  0  0  0  0  0  0  0  0  0  0
   -2.1738   -5.3362   -4.2865 H   0  0  0  0  0  0  0  0  0  0  0  0
   -0.5402   -5.6411   -6.1316 H   0  0  0  0  0  0  0  0  0  0  0  0
  1  6  2  0  0  0  0
  1  2  1  0  0  0  0
  2  3  2  0  0  0  0
  3  4  1  0  0  0  0
  3  8  1  0  0  0  0
  4 12  1  0  0  0  0
  5 11  1  0  0  0  0
  5  4  2  0  0  0  0
  6  5  1  0  0  0  0
  7  1  1  0  0  0  0
  8  9  1  0  0  0  0
 10  6  1  0  0  0  0
 14 13  2  0  0  0  0
 15 17  1  0  0  0  0
 15 14  1  0  0  0  0
 16 15  2  0  0  0  0
 17 21  1  0  0  0  0
 18 22  2  0  0  0  0
 18 16  1  0  0  0  0
 19 16  1  0  0  0  0
 20 24  1  0  0  0  0
 20 17  2  0  0  0  0
 22 20  1  0  0  0  0
 23 18  1  0  0  0  0
 25 22  1  0  0  0  0
M  RAD  4   2   2   8   2   9   3  13   2
M  END
