Coordinates from ORCA-job 1a-Schema5-R6-D+-B3LYPG-6-31G_dp-scan-d49-09-n400
 OpenBabel08281819463D

 25 25  0  0  0  0  0  0  0  0999 V2000
   -4.0063   -0.5455   -3.2391 C   0  0  0  0  0  0  0  0  0  0  0  0
   -2.9431   -0.9468   -2.3920 C   0  0  0  0  0  0  0  0  0  0  0  0
   -3.2610   -0.6405   -1.0500 C   0  0  0  0  0  0  0  0  0  0  0  0
   -4.4231   -0.0269   -0.5060 C   0  0  0  0  0  0  0  0  0  0  0  0
   -5.3933    0.3260   -1.4174 C   0  0  0  0  0  0  0  0  0  0  0  0
   -5.1779    0.0622   -2.7890 C   0  0  0  0  0  0  0  0  0  0  0  0
   -3.9151   -0.7187   -4.3121 H   0  0  0  0  0  0  0  0  0  0  0  0
   -2.2838   -1.0010   -0.1411 N   0  0  0  0  0  0  0  0  0  0  0  0
   -1.4674   -1.3101    0.5591 N   0  0  0  0  0  0  0  0  0  0  0  0
   -5.9504    0.3440   -3.5008 H   0  0  0  0  0  0  0  0  0  0  0  0
   -6.3107    0.7991   -1.0846 H   0  0  0  0  0  0  0  0  0  0  0  0
   -4.5350    0.1514    0.5593 H   0  0  0  0  0  0  0  0  0  0  0  0
    1.1543    0.1047   -4.4848 N   0  0  0  0  0  0  0  0  0  0  0  0
    0.7847   -0.9454   -4.5670 N   0  0  0  0  0  0  0  0  0  0  0  0
    0.3550   -2.2471   -4.6887 C   0  0  0  0  0  0  0  0  0  0  0  0
    1.1406   -3.1102   -5.4891 C   0  0  0  0  0  0  0  0  0  0  0  0
   -0.8265   -2.6200   -4.0167 C   0  0  0  0  0  0  0  0  0  0  0  0
    0.7032   -4.4165   -5.6147 C   0  0  0  0  0  0  0  0  0  0  0  0
    2.0417   -2.7549   -5.9766 H   0  0  0  0  0  0  0  0  0  0  0  0
   -1.2199   -3.9446   -4.1800 C   0  0  0  0  0  0  0  0  0  0  0  0
   -1.4383   -1.9161   -3.3903 H   0  0  0  0  0  0  0  0  0  0  0  0
   -0.4723   -4.8302   -4.9638 C   0  0  0  0  0  0  0  0  0  0  0  0
    1.2712   -5.1165   -6.2174 H   0  0  0  0  0  0  0  0  0  0  0  0
   -2.1267   -4.2803   -3.6872 H   0  0  0  0  0  0  0  0  0  0  0  0
   -0.8035   -5.8581   -5.0754 H   0  0  0  0  0  0  0  0  0  0  0  0
  1  6  2  0  0  0  0
  1  2  1  0  0  0  0
  2  3  2  0  0  0  0
  3  4  1  0  0  0  0
  3  8  1  0  0  0  0
  4 12  1  0  0  0  0
  5 11  1  0  0  0  0
  5  4  2  0  0  0  0
  6  5  1  0  0  0  0
  7  1  1  0  0  0  0
  8  9  1  0  0  0  0
 10  6  1  0  0  0  0
 14 13  1  0  0  0  0
 15 14  1  0  0  0  0
 15 17  2  0  0  0  0
 16 15  1  0  0  0  0
 17 21  1  0  0  0  0
 18 16  2  0  0  0  0
 18 22  1  0  0  0  0
 19 16  1  0  0  0  0
 20 17  1  0  0  0  0
 20 24  1  0  0  0  0
 22 20  2  0  0  0  0
 23 18  1  0  0  0  0
 25 22  1  0  0  0  0
M  RAD  5   2   2   8   2   9   3  13   3  14   2
M  END
