Coordinates from ORCA-job 1a-Schema5-R6-D+-B3LYPG-6-31G_dp-scan-d49-09-n400
 OpenBabel08281819463D

 25 25  0  0  0  0  0  0  0  0999 V2000
   -3.6170   -0.8525   -3.3704 C   0  0  0  0  0  0  0  0  0  0  0  0
   -2.5511   -0.8870   -2.4693 C   0  0  0  0  0  0  0  0  0  0  0  0
   -2.8117   -0.2461   -1.2468 C   0  0  0  0  0  0  0  0  0  0  0  0
   -4.0210    0.3876   -0.8599 C   0  0  0  0  0  0  0  0  0  0  0  0
   -5.0370    0.3791   -1.7951 C   0  0  0  0  0  0  0  0  0  0  0  0
   -4.8322   -0.2374   -3.0456 C   0  0  0  0  0  0  0  0  0  0  0  0
   -3.5119   -1.3138   -4.3499 H   0  0  0  0  0  0  0  0  0  0  0  0
   -1.7772   -0.2331   -0.3306 N   0  0  0  0  0  0  0  0  0  0  0  0
   -0.9257   -0.2293    0.3919 N   0  0  0  0  0  0  0  0  0  0  0  0
   -5.6395   -0.2299   -3.7734 H   0  0  0  0  0  0  0  0  0  0  0  0
   -5.9874    0.8477   -1.5656 H   0  0  0  0  0  0  0  0  0  0  0  0
   -4.1338    0.8497    0.1155 H   0  0  0  0  0  0  0  0  0  0  0  0
    0.6156   -0.5163   -2.9599 N   0  0  0  0  0  0  0  0  0  0  0  0
   -0.2067   -1.2707   -3.2042 N   0  0  0  0  0  0  0  0  0  0  0  0
   -0.3543   -2.4731   -3.9859 C   0  0  0  0  0  0  0  0  0  0  0  0
    0.5818   -2.6643   -5.0137 C   0  0  0  0  0  0  0  0  0  0  0  0
   -1.3420   -3.4018   -3.6763 C   0  0  0  0  0  0  0  0  0  0  0  0
    0.4967   -3.8360   -5.7574 C   0  0  0  0  0  0  0  0  0  0  0  0
    1.3388   -1.9147   -5.2167 H   0  0  0  0  0  0  0  0  0  0  0  0
   -1.3921   -4.5790   -4.4207 C   0  0  0  0  0  0  0  0  0  0  0  0
   -2.0335   -3.1934   -2.8693 H   0  0  0  0  0  0  0  0  0  0  0  0
   -0.4829   -4.7914   -5.4610 C   0  0  0  0  0  0  0  0  0  0  0  0
    1.1992   -4.0044   -6.5669 H   0  0  0  0  0  0  0  0  0  0  0  0
   -2.1429   -5.3270   -4.1894 H   0  0  0  0  0  0  0  0  0  0  0  0
   -0.5361   -5.7049   -6.0445 H   0  0  0  0  0  0  0  0  0  0  0  0
  1  6  2  0  0  0  0
  1  2  1  0  0  0  0
  2  3  2  0  0  0  0
  3  4  1  0  0  0  0
  3  8  1  0  0  0  0
  4 12  1  0  0  0  0
  5 11  1  0  0  0  0
  5  4  2  0  0  0  0
  6  5  1  0  0  0  0
  7  1  1  0  0  0  0
  8  9  1  0  0  0  0
 10  6  1  0  0  0  0
 14 13  2  0  0  0  0
 15 17  1  0  0  0  0
 15 14  1  0  0  0  0
 16 15  2  0  0  0  0
 17 21  1  0  0  0  0
 18 22  2  0  0  0  0
 18 16  1  0  0  0  0
 19 16  1  0  0  0  0
 20 24  1  0  0  0  0
 20 17  2  0  0  0  0
 22 20  1  0  0  0  0
 23 18  1  0  0  0  0
 25 22  1  0  0  0  0
M  RAD  4   2   2   8   2   9   3  13   2
M  END
