Coordinates from ORCA-job 1a-Schema5-R6-D+-B3LYPG-6-31G_dp-scan-d49-09-n400
 OpenBabel08281819463D

 25 25  0  0  0  0  0  0  0  0999 V2000
   -3.6274   -0.8016   -3.3720 C   0  0  0  0  0  0  0  0  0  0  0  0
   -2.5676   -0.8707   -2.4631 C   0  0  0  0  0  0  0  0  0  0  0  0
   -2.8449   -0.2698   -1.2231 C   0  0  0  0  0  0  0  0  0  0  0  0
   -4.0559    0.3571   -0.8286 C   0  0  0  0  0  0  0  0  0  0  0  0
   -5.0608    0.3848   -1.7748 C   0  0  0  0  0  0  0  0  0  0  0  0
   -4.8436   -0.1921   -3.0423 C   0  0  0  0  0  0  0  0  0  0  0  0
   -3.5152   -1.2315   -4.3650 H   0  0  0  0  0  0  0  0  0  0  0  0
   -1.8244   -0.2948   -0.2922 N   0  0  0  0  0  0  0  0  0  0  0  0
   -0.9848   -0.3233    0.4439 N   0  0  0  0  0  0  0  0  0  0  0  0
   -5.6424   -0.1573   -3.7787 H   0  0  0  0  0  0  0  0  0  0  0  0
   -6.0118    0.8504   -1.5412 H   0  0  0  0  0  0  0  0  0  0  0  0
   -4.1780    0.7871    0.1602 H   0  0  0  0  0  0  0  0  0  0  0  0
    0.6390   -0.4438   -3.0946 N   0  0  0  0  0  0  0  0  0  0  0  0
   -0.1601   -1.2320   -3.2941 N   0  0  0  0  0  0  0  0  0  0  0  0
   -0.3200   -2.4588   -4.0295 C   0  0  0  0  0  0  0  0  0  0  0  0
    0.6103   -2.6879   -5.0562 C   0  0  0  0  0  0  0  0  0  0  0  0
   -1.3116   -3.3702   -3.6846 C   0  0  0  0  0  0  0  0  0  0  0  0
    0.5144   -3.8828   -5.7598 C   0  0  0  0  0  0  0  0  0  0  0  0
    1.3704   -1.9497   -5.2871 H   0  0  0  0  0  0  0  0  0  0  0  0
   -1.3731   -4.5700   -4.3905 C   0  0  0  0  0  0  0  0  0  0  0  0
   -1.9985   -3.1238   -2.8840 H   0  0  0  0  0  0  0  0  0  0  0  0
   -0.4699   -4.8217   -5.4272 C   0  0  0  0  0  0  0  0  0  0  0  0
    1.2118   -4.0819   -6.5668 H   0  0  0  0  0  0  0  0  0  0  0  0
   -2.1285   -5.3046   -4.1331 H   0  0  0  0  0  0  0  0  0  0  0  0
   -0.5315   -5.7531   -5.9808 H   0  0  0  0  0  0  0  0  0  0  0  0
  1  6  2  0  0  0  0
  1  2  1  0  0  0  0
  2  3  2  0  0  0  0
  3  4  1  0  0  0  0
  3  8  1  0  0  0  0
  4 12  1  0  0  0  0
  5 11  1  0  0  0  0
  5  4  2  0  0  0  0
  6  5  1  0  0  0  0
  7  1  1  0  0  0  0
  8  9  1  0  0  0  0
 10  6  1  0  0  0  0
 14 13  2  0  0  0  0
 15 17  1  0  0  0  0
 15 14  1  0  0  0  0
 16 15  2  0  0  0  0
 17 21  1  0  0  0  0
 18 22  2  0  0  0  0
 18 16  1  0  0  0  0
 19 16  1  0  0  0  0
 20 24  1  0  0  0  0
 20 17  2  0  0  0  0
 22 20  1  0  0  0  0
 23 18  1  0  0  0  0
 25 22  1  0  0  0  0
M  RAD  4   2   2   8   2   9   3  13   2
M  END
