Coordinates from ORCA-job 1a-Schema5-R6-D+-B3LYPG-6-31G_dp-scan-d49-09-n400
 OpenBabel08281819463D

 25 26  0  0  0  0  0  0  0  0999 V2000
   -0.4067    0.0764   -2.0852 C   0  0  0  0  0  0  0  0  0  0  0  0
   -1.5432   -0.7474   -2.0177 C   0  0  0  0  0  0  0  0  0  0  0  0
   -2.7660   -0.1840   -2.4990 C   0  0  0  0  0  0  0  0  0  0  0  0
   -2.8541    1.1182   -3.0636 C   0  0  0  0  0  0  0  0  0  0  0  0
   -1.7008    1.8625   -3.1509 C   0  0  0  0  0  0  0  0  0  0  0  0
   -0.4820    1.3349   -2.6631 C   0  0  0  0  0  0  0  0  0  0  0  0
    0.5260   -0.3015   -1.6812 H   0  0  0  0  0  0  0  0  0  0  0  0
   -3.9004   -0.9222   -2.3991 N   0  0  0  0  0  0  0  0  0  0  0  0
   -4.8398   -1.5242   -2.2917 N   0  0  0  0  0  0  0  0  0  0  0  0
    0.4191    1.9365   -2.7313 H   0  0  0  0  0  0  0  0  0  0  0  0
   -1.7323    2.8589   -3.5759 H   0  0  0  0  0  0  0  0  0  0  0  0
   -3.8130    1.4973   -3.3991 H   0  0  0  0  0  0  0  0  0  0  0  0
   -1.5307   -1.9268   -1.2246 N   0  0  0  0  0  0  0  0  0  0  0  0
   -1.7677   -3.1062   -1.5422 N   0  0  0  0  0  0  0  0  0  0  0  0
   -1.8893   -3.5873   -2.8651 C   0  0  0  0  0  0  0  0  0  0  0  0
   -2.5576   -4.8236   -2.9529 C   0  0  0  0  0  0  0  0  0  0  0  0
   -1.3481   -2.9856   -4.0203 C   0  0  0  0  0  0  0  0  0  0  0  0
   -2.7534   -5.4186   -4.1950 C   0  0  0  0  0  0  0  0  0  0  0  0
   -2.9147   -5.2834   -2.0377 H   0  0  0  0  0  0  0  0  0  0  0  0
   -1.5222   -3.6079   -5.2509 C   0  0  0  0  0  0  0  0  0  0  0  0
   -0.7560   -2.0808   -3.9564 H   0  0  0  0  0  0  0  0  0  0  0  0
   -2.2358   -4.8112   -5.3423 C   0  0  0  0  0  0  0  0  0  0  0  0
   -3.2831   -6.3622   -4.2674 H   0  0  0  0  0  0  0  0  0  0  0  0
   -1.0883   -3.1677   -6.1426 H   0  0  0  0  0  0  0  0  0  0  0  0
   -2.3639   -5.2860   -6.3100 H   0  0  0  0  0  0  0  0  0  0  0  0
  1  2  1  0  0  0  0
  1  7  1  0  0  0  0
  2 13  1  0  0  0  0
  3  8  1  0  0  0  0
  3  2  2  0  0  0  0
  4  3  1  0  0  0  0
  5  4  2  0  0  0  0
  5  6  1  0  0  0  0
  6  1  2  0  0  0  0
  8  9  1  0  0  0  0
 10  6  1  0  0  0  0
 11  5  1  0  0  0  0
 12  4  1  0  0  0  0
 14 13  2  0  0  0  0
 15 14  1  0  0  0  0
 16 15  1  0  0  0  0
 16 19  1  0  0  0  0
 17 21  1  0  0  0  0
 17 15  2  0  0  0  0
 18 16  2  0  0  0  0
 20 17  1  0  0  0  0
 22 20  2  0  0  0  0
 22 18  1  0  0  0  0
 23 18  1  0  0  0  0
 24 20  1  0  0  0  0
 25 22  1  0  0  0  0
M  RAD  2   8   2   9   3
M  END
