Coordinates from ORCA-job 1a-Schema5-R6-D+-B3LYPG-6-31G_dp-scan-d49-09-n400
 OpenBabel08281819463D

 25 25  0  0  0  0  0  0  0  0999 V2000
   -3.9168   -0.4651   -3.2625 C   0  0  0  0  0  0  0  0  0  0  0  0
   -2.9523   -1.0233   -2.3871 C   0  0  0  0  0  0  0  0  0  0  0  0
   -3.2629   -0.6770   -1.0529 C   0  0  0  0  0  0  0  0  0  0  0  0
   -4.3343    0.1051   -0.5405 C   0  0  0  0  0  0  0  0  0  0  0  0
   -5.2093    0.6065   -1.4787 C   0  0  0  0  0  0  0  0  0  0  0  0
   -4.9950    0.3150   -2.8444 C   0  0  0  0  0  0  0  0  0  0  0  0
   -3.8254   -0.6534   -4.3331 H   0  0  0  0  0  0  0  0  0  0  0  0
   -2.3847   -1.1886   -0.1148 N   0  0  0  0  0  0  0  0  0  0  0  0
   -1.6529   -1.6245    0.6107 N   0  0  0  0  0  0  0  0  0  0  0  0
   -5.6934    0.7116   -3.5776 H   0  0  0  0  0  0  0  0  0  0  0  0
   -6.0538    1.2132   -1.1704 H   0  0  0  0  0  0  0  0  0  0  0  0
   -4.4526    0.2934    0.5224 H   0  0  0  0  0  0  0  0  0  0  0  0
    0.3195    0.1690   -4.3911 N   0  0  0  0  0  0  0  0  0  0  0  0
    0.1989   -0.9353   -4.4965 N   0  0  0  0  0  0  0  0  0  0  0  0
    0.0707   -2.2978   -4.6491 C   0  0  0  0  0  0  0  0  0  0  0  0
    0.9810   -2.9488   -5.5130 C   0  0  0  0  0  0  0  0  0  0  0  0
   -0.9640   -2.9329   -3.9335 C   0  0  0  0  0  0  0  0  0  0  0  0
    0.8291   -4.3166   -5.6573 C   0  0  0  0  0  0  0  0  0  0  0  0
    1.7554   -2.3959   -6.0332 H   0  0  0  0  0  0  0  0  0  0  0  0
   -1.0738   -4.3073   -4.1178 C   0  0  0  0  0  0  0  0  0  0  0  0
   -1.6409   -2.3222   -3.2811 H   0  0  0  0  0  0  0  0  0  0  0  0
   -0.1928   -4.9899   -4.9647 C   0  0  0  0  0  0  0  0  0  0  0  0
    1.5013   -4.8650   -6.3083 H   0  0  0  0  0  0  0  0  0  0  0  0
   -1.8566   -4.8491   -3.5969 H   0  0  0  0  0  0  0  0  0  0  0  0
   -0.2981   -6.0631   -5.0936 H   0  0  0  0  0  0  0  0  0  0  0  0
  1  6  2  0  0  0  0
  1  2  1  0  0  0  0
  2  3  2  0  0  0  0
  3  4  1  0  0  0  0
  3  8  1  0  0  0  0
  4 12  1  0  0  0  0
  5 11  1  0  0  0  0
  5  4  2  0  0  0  0
  6  5  1  0  0  0  0
  7  1  1  0  0  0  0
  8  9  1  0  0  0  0
 10  6  1  0  0  0  0
 14 13  1  0  0  0  0
 15 14  1  0  0  0  0
 15 17  2  0  0  0  0
 16 15  1  0  0  0  0
 17 21  1  0  0  0  0
 18 16  2  0  0  0  0
 18 22  1  0  0  0  0
 19 16  1  0  0  0  0
 20 17  1  0  0  0  0
 20 24  1  0  0  0  0
 22 20  2  0  0  0  0
 23 18  1  0  0  0  0
 25 22  1  0  0  0  0
M  RAD  5   2   2   8   2   9   3  13   3  14   2
M  END
