Coordinates from ORCA-job 1a-Schema5-R6-D+-B3LYPG-6-31G_dp-scan-d49-09-n400
 OpenBabel08281819463D

 25 25  0  0  0  0  0  0  0  0999 V2000
   -3.5627   -1.1005   -3.3357 C   0  0  0  0  0  0  0  0  0  0  0  0
   -2.4604   -0.9727   -2.5074 C   0  0  0  0  0  0  0  0  0  0  0  0
   -2.5862   -0.1427   -1.3911 C   0  0  0  0  0  0  0  0  0  0  0  0
   -3.7790    0.5367   -1.0409 C   0  0  0  0  0  0  0  0  0  0  0  0
   -4.8655    0.3768   -1.8849 C   0  0  0  0  0  0  0  0  0  0  0  0
   -4.7566   -0.4302   -3.0281 C   0  0  0  0  0  0  0  0  0  0  0  0
   -3.5060   -1.7148   -4.2294 H   0  0  0  0  0  0  0  0  0  0  0  0
   -1.5167    0.0702   -0.5223 N   0  0  0  0  0  0  0  0  0  0  0  0
   -0.8201    0.3412    0.3069 N   0  0  0  0  0  0  0  0  0  0  0  0
   -5.6116   -0.5333   -3.6903 H   0  0  0  0  0  0  0  0  0  0  0  0
   -5.7970    0.8836   -1.6586 H   0  0  0  0  0  0  0  0  0  0  0  0
   -3.8300    1.1522   -0.1484 H   0  0  0  0  0  0  0  0  0  0  0  0
    0.3190   -0.9094   -2.3485 N   0  0  0  0  0  0  0  0  0  0  0  0
   -0.5659   -1.4873   -2.8444 N   0  0  0  0  0  0  0  0  0  0  0  0
   -0.5796   -2.5683   -3.8138 C   0  0  0  0  0  0  0  0  0  0  0  0
    0.4054   -2.5558   -4.8045 C   0  0  0  0  0  0  0  0  0  0  0  0
   -1.5128   -3.5954   -3.6926 C   0  0  0  0  0  0  0  0  0  0  0  0
    0.4320   -3.6076   -5.7171 C   0  0  0  0  0  0  0  0  0  0  0  0
    1.1199   -1.7413   -4.8537 H   0  0  0  0  0  0  0  0  0  0  0  0
   -1.4554   -4.6499   -4.6039 C   0  0  0  0  0  0  0  0  0  0  0  0
   -2.2406   -3.5878   -2.8886 H   0  0  0  0  0  0  0  0  0  0  0  0
   -0.4933   -4.6510   -5.6172 C   0  0  0  0  0  0  0  0  0  0  0  0
    1.1797   -3.6131   -6.5038 H   0  0  0  0  0  0  0  0  0  0  0  0
   -2.1590   -5.4717   -4.5175 H   0  0  0  0  0  0  0  0  0  0  0  0
   -0.4614   -5.4699   -6.3291 H   0  0  0  0  0  0  0  0  0  0  0  0
  1  6  2  0  0  0  0
  1  2  1  0  0  0  0
  2  3  2  0  0  0  0
  3  4  1  0  0  0  0
  3  8  1  0  0  0  0
  4 12  1  0  0  0  0
  5 11  1  0  0  0  0
  5  4  2  0  0  0  0
  6  5  1  0  0  0  0
  7  1  1  0  0  0  0
  8  9  1  0  0  0  0
 10  6  1  0  0  0  0
 14 13  2  0  0  0  0
 15 17  1  0  0  0  0
 15 14  1  0  0  0  0
 16 15  2  0  0  0  0
 17 21  1  0  0  0  0
 18 22  2  0  0  0  0
 18 16  1  0  0  0  0
 19 16  1  0  0  0  0
 20 24  1  0  0  0  0
 20 17  2  0  0  0  0
 22 20  1  0  0  0  0
 23 18  1  0  0  0  0
 25 22  1  0  0  0  0
M  RAD  4   2   2   8   2   9   3  13   2
M  END
