Coordinates from ORCA-job 1a-Schema5-R6-D+-B3LYPG-6-31G_dp-scan-d49-09-n400
 OpenBabel08281819463D

 25 26  0  0  0  0  0  0  0  0999 V2000
   -3.7553   -0.3913   -3.6500 C   0  0  0  0  0  0  0  0  0  0  0  0
   -2.5253   -0.6652   -3.0055 C   0  0  0  0  0  0  0  0  0  0  0  0
   -2.4923   -0.5437   -1.5750 C   0  0  0  0  0  0  0  0  0  0  0  0
   -3.5904    0.0065   -0.8419 C   0  0  0  0  0  0  0  0  0  0  0  0
   -4.7346    0.3255   -1.5217 C   0  0  0  0  0  0  0  0  0  0  0  0
   -4.8176    0.1014   -2.9249 C   0  0  0  0  0  0  0  0  0  0  0  0
   -3.8301   -0.5529   -4.7200 H   0  0  0  0  0  0  0  0  0  0  0  0
   -1.3849   -0.9122   -0.9079 N   0  0  0  0  0  0  0  0  0  0  0  0
   -0.4506   -1.1954   -0.3442 N   0  0  0  0  0  0  0  0  0  0  0  0
   -5.7486    0.3175   -3.4392 H   0  0  0  0  0  0  0  0  0  0  0  0
   -5.5825    0.7396   -0.9886 H   0  0  0  0  0  0  0  0  0  0  0  0
   -3.4926    0.1541    0.2279 H   0  0  0  0  0  0  0  0  0  0  0  0
   -0.9616    0.0648   -3.9403 N   0  0  0  0  0  0  0  0  0  0  0  0
   -1.3890   -1.0683   -3.7360 N   0  0  0  0  0  0  0  0  0  0  0  0
   -0.9196   -2.3717   -4.1273 C   0  0  0  0  0  0  0  0  0  0  0  0
    0.2803   -2.4486   -4.8399 C   0  0  0  0  0  0  0  0  0  0  0  0
   -1.6776   -3.4957   -3.7892 C   0  0  0  0  0  0  0  0  0  0  0  0
    0.7323   -3.7062   -5.2226 C   0  0  0  0  0  0  0  0  0  0  0  0
    0.8258   -1.5417   -5.0794 H   0  0  0  0  0  0  0  0  0  0  0  0
   -1.2068   -4.7469   -4.1835 C   0  0  0  0  0  0  0  0  0  0  0  0
   -2.6128   -3.3978   -3.2468 H   0  0  0  0  0  0  0  0  0  0  0  0
   -0.0079   -4.8502   -4.8950 C   0  0  0  0  0  0  0  0  0  0  0  0
    1.6606   -3.7986   -5.7759 H   0  0  0  0  0  0  0  0  0  0  0  0
   -1.7751   -5.6375   -3.9386 H   0  0  0  0  0  0  0  0  0  0  0  0
    0.3523   -5.8273   -5.1995 H   0  0  0  0  0  0  0  0  0  0  0  0
  1  2  2  0  0  0  0
  1  6  1  0  0  0  0
  2  3  1  0  0  0  0
  3  8  1  0  0  0  0
  3  4  2  0  0  0  0
  4 12  1  0  0  0  0
  5 11  1  0  0  0  0
  5  4  1  0  0  0  0
  6  5  2  0  0  0  0
  7  1  1  0  0  0  0
  8  9  1  0  0  0  0
 10  6  1  0  0  0  0
 13 14  1  0  0  0  0
 14  2  1  0  0  0  0
 15 17  1  0  0  0  0
 15 14  1  0  0  0  0
 16 15  2  0  0  0  0
 17 21  1  0  0  0  0
 18 22  2  0  0  0  0
 18 16  1  0  0  0  0
 19 16  1  0  0  0  0
 20 24  1  0  0  0  0
 20 17  2  0  0  0  0
 22 20  1  0  0  0  0
 23 18  1  0  0  0  0
 25 22  1  0  0  0  0
M  RAD  3   8   2   9   3  13   3
M  END
