Coordinates from ORCA-job 1a-Schema5-R6-D+-B3LYPG-6-31G_dp-scan-d49-09-n400
 OpenBabel08281819463D

 25 26  0  0  0  0  0  0  0  0999 V2000
   -0.4045    0.0973   -2.1073 C   0  0  0  0  0  0  0  0  0  0  0  0
   -1.5134   -0.7479   -2.0486 C   0  0  0  0  0  0  0  0  0  0  0  0
   -2.7473   -0.2253   -2.5180 C   0  0  0  0  0  0  0  0  0  0  0  0
   -2.8797    1.0696   -3.0846 C   0  0  0  0  0  0  0  0  0  0  0  0
   -1.7448    1.8475   -3.1737 C   0  0  0  0  0  0  0  0  0  0  0  0
   -0.5134    1.3581   -2.6881 C   0  0  0  0  0  0  0  0  0  0  0  0
    0.5379   -0.2516   -1.6986 H   0  0  0  0  0  0  0  0  0  0  0  0
   -3.8625   -1.0034   -2.4218 N   0  0  0  0  0  0  0  0  0  0  0  0
   -4.7819   -1.6327   -2.3203 N   0  0  0  0  0  0  0  0  0  0  0  0
    0.3700    1.9855   -2.7575 H   0  0  0  0  0  0  0  0  0  0  0  0
   -1.8062    2.8414   -3.6016 H   0  0  0  0  0  0  0  0  0  0  0  0
   -3.8484    1.4211   -3.4221 H   0  0  0  0  0  0  0  0  0  0  0  0
   -1.4664   -1.9828   -1.1439 N   0  0  0  0  0  0  0  0  0  0  0  0
   -1.6822   -3.1462   -1.5065 N   0  0  0  0  0  0  0  0  0  0  0  0
   -1.8500   -3.6006   -2.8362 C   0  0  0  0  0  0  0  0  0  0  0  0
   -2.6076   -4.7803   -2.9505 C   0  0  0  0  0  0  0  0  0  0  0  0
   -1.2562   -3.0196   -3.9733 C   0  0  0  0  0  0  0  0  0  0  0  0
   -2.8427   -5.3303   -4.2068 C   0  0  0  0  0  0  0  0  0  0  0  0
   -3.0012   -5.2349   -2.0476 H   0  0  0  0  0  0  0  0  0  0  0  0
   -1.4693   -3.6017   -5.2192 C   0  0  0  0  0  0  0  0  0  0  0  0
   -0.5925   -2.1684   -3.8827 H   0  0  0  0  0  0  0  0  0  0  0  0
   -2.2738   -4.7416   -5.3399 C   0  0  0  0  0  0  0  0  0  0  0  0
   -3.4422   -6.2294   -4.3008 H   0  0  0  0  0  0  0  0  0  0  0  0
   -0.9933   -3.1793   -6.0981 H   0  0  0  0  0  0  0  0  0  0  0  0
   -2.4321   -5.1862   -6.3173 H   0  0  0  0  0  0  0  0  0  0  0  0
  1  2  1  0  0  0  0
  1  7  1  0  0  0  0
  2 13  1  0  0  0  0
  3  8  1  0  0  0  0
  3  2  2  0  0  0  0
  4  3  1  0  0  0  0
  5  4  2  0  0  0  0
  5  6  1  0  0  0  0
  6  1  2  0  0  0  0
  8  9  1  0  0  0  0
 10  6  1  0  0  0  0
 11  5  1  0  0  0  0
 12  4  1  0  0  0  0
 14 13  2  0  0  0  0
 15 14  1  0  0  0  0
 16 15  1  0  0  0  0
 16 19  1  0  0  0  0
 17 21  1  0  0  0  0
 17 15  2  0  0  0  0
 18 16  2  0  0  0  0
 20 17  1  0  0  0  0
 22 20  2  0  0  0  0
 22 18  1  0  0  0  0
 23 18  1  0  0  0  0
 24 20  1  0  0  0  0
 25 22  1  0  0  0  0
M  RAD  2   8   2   9   3
M  END
