Coordinates from ORCA-job 1a-Schema5-R6-D+-B3LYPG-6-31G_dp-scan-d49-09-n400
 OpenBabel08281819463D

 25 25  0  0  0  0  0  0  0  0999 V2000
   -3.8940   -0.4434   -3.2728 C   0  0  0  0  0  0  0  0  0  0  0  0
   -2.9580   -1.0421   -2.3934 C   0  0  0  0  0  0  0  0  0  0  0  0
   -3.2613   -0.6857   -1.0601 C   0  0  0  0  0  0  0  0  0  0  0  0
   -4.3011    0.1402   -0.5521 C   0  0  0  0  0  0  0  0  0  0  0  0
   -5.1488    0.6802   -1.4941 C   0  0  0  0  0  0  0  0  0  0  0  0
   -4.9402    0.3816   -2.8590 C   0  0  0  0  0  0  0  0  0  0  0  0
   -3.8071   -0.6353   -4.3432 H   0  0  0  0  0  0  0  0  0  0  0  0
   -2.4113   -1.2361   -0.1176 N   0  0  0  0  0  0  0  0  0  0  0  0
   -1.7039   -1.7039    0.6120 N   0  0  0  0  0  0  0  0  0  0  0  0
   -5.6175    0.8080   -3.5951 H   0  0  0  0  0  0  0  0  0  0  0  0
   -5.9684    1.3219   -1.1891 H   0  0  0  0  0  0  0  0  0  0  0  0
   -4.4175    0.3312    0.5105 H   0  0  0  0  0  0  0  0  0  0  0  0
    0.0962    0.1597   -4.3816 N   0  0  0  0  0  0  0  0  0  0  0  0
    0.0224   -0.9501   -4.4723 N   0  0  0  0  0  0  0  0  0  0  0  0
   -0.0215   -2.3180   -4.6306 C   0  0  0  0  0  0  0  0  0  0  0  0
    0.9209   -2.9032   -5.5068 C   0  0  0  0  0  0  0  0  0  0  0  0
   -1.0047   -3.0253   -3.9118 C   0  0  0  0  0  0  0  0  0  0  0  0
    0.8573   -4.2774   -5.6596 C   0  0  0  0  0  0  0  0  0  0  0  0
    1.6528   -2.2978   -6.0302 H   0  0  0  0  0  0  0  0  0  0  0  0
   -1.0272   -4.4028   -4.1029 C   0  0  0  0  0  0  0  0  0  0  0  0
   -1.7023   -2.4508   -3.2556 H   0  0  0  0  0  0  0  0  0  0  0  0
   -0.1114   -5.0208   -4.9627 C   0  0  0  0  0  0  0  0  0  0  0  0
    1.5575   -4.7760   -6.3209 H   0  0  0  0  0  0  0  0  0  0  0  0
   -1.7672   -4.9983   -3.5782 H   0  0  0  0  0  0  0  0  0  0  0  0
   -0.1477   -6.0978   -5.0980 H   0  0  0  0  0  0  0  0  0  0  0  0
  1  6  2  0  0  0  0
  1  2  1  0  0  0  0
  2  3  2  0  0  0  0
  3  4  1  0  0  0  0
  3  8  1  0  0  0  0
  4 12  1  0  0  0  0
  5 11  1  0  0  0  0
  5  4  2  0  0  0  0
  6  5  1  0  0  0  0
  7  1  1  0  0  0  0
  8  9  1  0  0  0  0
 10  6  1  0  0  0  0
 14 13  1  0  0  0  0
 15 14  1  0  0  0  0
 15 17  2  0  0  0  0
 16 15  1  0  0  0  0
 17 21  1  0  0  0  0
 18 16  2  0  0  0  0
 18 22  1  0  0  0  0
 19 16  1  0  0  0  0
 20 17  1  0  0  0  0
 20 24  1  0  0  0  0
 22 20  2  0  0  0  0
 23 18  1  0  0  0  0
 25 22  1  0  0  0  0
M  RAD  5   2   2   8   2   9   3  13   3  14   2
M  END
