Coordinates from ORCA-job 1a-Schema5-R6-D+-B3LYPG-6-31G_dp-scan-d49-09-n400
 OpenBabel08281819463D

 25 26  0  0  0  0  0  0  0  0999 V2000
   -0.4547    0.1119   -2.2703 C   0  0  0  0  0  0  0  0  0  0  0  0
   -1.7820   -0.6097   -2.3499 C   0  0  0  0  0  0  0  0  0  0  0  0
   -2.9320    0.3878   -2.4064 C   0  0  0  0  0  0  0  0  0  0  0  0
   -2.7486    1.8122   -2.4271 C   0  0  0  0  0  0  0  0  0  0  0  0
   -1.5019    2.3401   -2.3741 C   0  0  0  0  0  0  0  0  0  0  0  0
   -0.3664    1.4604   -2.2852 C   0  0  0  0  0  0  0  0  0  0  0  0
    0.4095   -0.5378   -2.1926 H   0  0  0  0  0  0  0  0  0  0  0  0
   -4.1447   -0.1379   -2.4169 N   0  0  0  0  0  0  0  0  0  0  0  0
   -5.1695   -0.6278   -2.4257 N   0  0  0  0  0  0  0  0  0  0  0  0
    0.6267    1.8981   -2.2221 H   0  0  0  0  0  0  0  0  0  0  0  0
   -1.3542    3.4129   -2.3903 H   0  0  0  0  0  0  0  0  0  0  0  0
   -3.6372    2.4326   -2.4827 H   0  0  0  0  0  0  0  0  0  0  0  0
   -1.8858   -1.6145   -2.3650 N   0  0  0  0  0  0  0  0  0  0  0  0
   -2.0095   -2.8316   -2.1931 N   0  0  0  0  0  0  0  0  0  0  0  0
   -2.0042   -3.6964   -3.2803 C   0  0  0  0  0  0  0  0  0  0  0  0
   -2.1850   -5.0535   -2.9390 C   0  0  0  0  0  0  0  0  0  0  0  0
   -1.8298   -3.2996   -4.6270 C   0  0  0  0  0  0  0  0  0  0  0  0
   -2.1973   -6.0131   -3.9430 C   0  0  0  0  0  0  0  0  0  0  0  0
   -2.3127   -5.3153   -1.8940 H   0  0  0  0  0  0  0  0  0  0  0  0
   -1.8410   -4.2684   -5.6145 C   0  0  0  0  0  0  0  0  0  0  0  0
   -1.6810   -2.2548   -4.8839 H   0  0  0  0  0  0  0  0  0  0  0  0
   -2.0261   -5.6215   -5.2746 C   0  0  0  0  0  0  0  0  0  0  0  0
   -2.3384   -7.0593   -3.6943 H   0  0  0  0  0  0  0  0  0  0  0  0
   -1.7046   -3.9861   -6.6530 H   0  0  0  0  0  0  0  0  0  0  0  0
   -2.0336   -6.3707   -6.0602 H   0  0  0  0  0  0  0  0  0  0  0  0
  1  7  1  0  0  0  0
  2  1  2  0  0  0  0
  3  2  1  0  0  0  0
  4  3  2  0  0  0  0
  4  5  1  0  0  0  0
  5  6  2  0  0  0  0
  6  1  1  0  0  0  0
  6 10  1  0  0  0  0
  8  3  1  0  0  0  0
  9  8  1  0  0  0  0
 11  5  1  0  0  0  0
 12  4  1  0  0  0  0
 13  2  1  0  0  0  0
 13 14  1  0  0  0  0
 15 16  1  0  0  0  0
 15 14  1  0  0  0  0
 16 19  1  0  0  0  0
 17 15  2  0  0  0  0
 18 23  1  0  0  0  0
 18 16  2  0  0  0  0
 20 22  2  0  0  0  0
 20 17  1  0  0  0  0
 21 17  1  0  0  0  0
 22 18  1  0  0  0  0
 24 20  1  0  0  0  0
 25 22  1  0  0  0  0
M  RAD  4   8   2   9   3  13   2  14   2
M  END
