Coordinates from ORCA-job 1a-Schema5-R6-D+-B3LYPG-6-31G_dp-scan-d49-09-n400
 OpenBabel08281819463D

 25 25  0  0  0  0  0  0  0  0999 V2000
   -3.8586   -0.4463   -3.2755 C   0  0  0  0  0  0  0  0  0  0  0  0
   -2.9370   -1.0447   -2.3810 C   0  0  0  0  0  0  0  0  0  0  0  0
   -3.2549   -0.6789   -1.0537 C   0  0  0  0  0  0  0  0  0  0  0  0
   -4.2963    0.1557   -0.5638 C   0  0  0  0  0  0  0  0  0  0  0  0
   -5.1290    0.6950   -1.5195 C   0  0  0  0  0  0  0  0  0  0  0  0
   -4.9052    0.3872   -2.8797 C   0  0  0  0  0  0  0  0  0  0  0  0
   -3.7603   -0.6456   -4.3437 H   0  0  0  0  0  0  0  0  0  0  0  0
   -2.4199   -1.2283   -0.0970 N   0  0  0  0  0  0  0  0  0  0  0  0
   -1.7246   -1.6958    0.6443 N   0  0  0  0  0  0  0  0  0  0  0  0
   -5.5708    0.8130   -3.6268 H   0  0  0  0  0  0  0  0  0  0  0  0
   -5.9487    1.3430   -1.2285 H   0  0  0  0  0  0  0  0  0  0  0  0
   -4.4250    0.3535    0.4961 H   0  0  0  0  0  0  0  0  0  0  0  0
    0.0268    0.1501   -4.3379 N   0  0  0  0  0  0  0  0  0  0  0  0
   -0.0368   -0.9600   -4.4326 N   0  0  0  0  0  0  0  0  0  0  0  0
   -0.0563   -2.3269   -4.6087 C   0  0  0  0  0  0  0  0  0  0  0  0
    0.8808   -2.8799   -5.5109 C   0  0  0  0  0  0  0  0  0  0  0  0
   -1.0101   -3.0658   -3.8826 C   0  0  0  0  0  0  0  0  0  0  0  0
    0.8422   -4.2529   -5.6828 C   0  0  0  0  0  0  0  0  0  0  0  0
    1.5898   -2.2522   -6.0394 H   0  0  0  0  0  0  0  0  0  0  0  0
   -1.0091   -4.4404   -4.0932 C   0  0  0  0  0  0  0  0  0  0  0  0
   -1.7027   -2.5076   -3.2110 H   0  0  0  0  0  0  0  0  0  0  0  0
   -0.0973   -5.0265   -4.9791 C   0  0  0  0  0  0  0  0  0  0  0  0
    1.5396   -4.7272   -6.3647 H   0  0  0  0  0  0  0  0  0  0  0  0
   -1.7264   -5.0586   -3.5635 H   0  0  0  0  0  0  0  0  0  0  0  0
   -0.1138   -6.1019   -5.1299 H   0  0  0  0  0  0  0  0  0  0  0  0
  1  6  2  0  0  0  0
  1  2  1  0  0  0  0
  2  3  2  0  0  0  0
  3  4  1  0  0  0  0
  3  8  1  0  0  0  0
  4 12  1  0  0  0  0
  5 11  1  0  0  0  0
  5  4  2  0  0  0  0
  6  5  1  0  0  0  0
  7  1  1  0  0  0  0
  8  9  1  0  0  0  0
 10  6  1  0  0  0  0
 14 13  1  0  0  0  0
 15 14  1  0  0  0  0
 15 17  2  0  0  0  0
 16 15  1  0  0  0  0
 17 21  1  0  0  0  0
 18 16  2  0  0  0  0
 18 22  1  0  0  0  0
 19 16  1  0  0  0  0
 20 17  1  0  0  0  0
 20 24  1  0  0  0  0
 22 20  2  0  0  0  0
 23 18  1  0  0  0  0
 25 22  1  0  0  0  0
M  RAD  5   2   2   8   2   9   3  13   3  14   2
M  END
