Coordinates from ORCA-job 1a-Schema5-R6-D+-B3LYPG-6-31G_dp-scan-d49-09-n400
 OpenBabel08281819463D

 25 26  0  0  0  0  0  0  0  0999 V2000
   -3.5625   -1.2163   -3.3126 C   0  0  0  0  0  0  0  0  0  0  0  0
   -2.4523   -0.9946   -2.5270 C   0  0  0  0  0  0  0  0  0  0  0  0
   -2.4534   -0.0955   -1.4814 C   0  0  0  0  0  0  0  0  0  0  0  0
   -3.6010    0.6194   -1.1313 C   0  0  0  0  0  0  0  0  0  0  0  0
   -4.7449    0.3932   -1.8986 C   0  0  0  0  0  0  0  0  0  0  0  0
   -4.7248   -0.5028   -2.9735 C   0  0  0  0  0  0  0  0  0  0  0  0
   -3.5438   -1.8985   -4.1534 H   0  0  0  0  0  0  0  0  0  0  0  0
   -1.2275    0.1223   -0.7635 N   0  0  0  0  0  0  0  0  0  0  0  0
   -0.7570    0.6813    0.1012 N   0  0  0  0  0  0  0  0  0  0  0  0
   -5.6224   -0.6496   -3.5657 H   0  0  0  0  0  0  0  0  0  0  0  0
   -5.6566    0.9300   -1.6596 H   0  0  0  0  0  0  0  0  0  0  0  0
   -3.5894    1.3211   -0.3036 H   0  0  0  0  0  0  0  0  0  0  0  0
    0.0370   -1.2497   -2.0152 N   0  0  0  0  0  0  0  0  0  0  0  0
   -0.9245   -1.6176   -2.6857 N   0  0  0  0  0  0  0  0  0  0  0  0
   -0.7890   -2.6259   -3.7380 C   0  0  0  0  0  0  0  0  0  0  0  0
    0.2512   -2.4738   -4.6562 C   0  0  0  0  0  0  0  0  0  0  0  0
   -1.6415   -3.7322   -3.7488 C   0  0  0  0  0  0  0  0  0  0  0  0
    0.4208   -3.4526   -5.6334 C   0  0  0  0  0  0  0  0  0  0  0  0
    0.9012   -1.6072   -4.6044 H   0  0  0  0  0  0  0  0  0  0  0  0
   -1.4441   -4.7097   -4.7245 C   0  0  0  0  0  0  0  0  0  0  0  0
   -2.4095   -3.8550   -2.9919 H   0  0  0  0  0  0  0  0  0  0  0  0
   -0.4232   -4.5664   -5.6679 C   0  0  0  0  0  0  0  0  0  0  0  0
    1.2162   -3.3464   -6.3638 H   0  0  0  0  0  0  0  0  0  0  0  0
   -2.0822   -5.5872   -4.7389 H   0  0  0  0  0  0  0  0  0  0  0  0
   -0.2804   -5.3283   -6.4276 H   0  0  0  0  0  0  0  0  0  0  0  0
  1  6  2  0  0  0  0
  1  2  1  0  0  0  0
  2  3  2  0  0  0  0
  3  4  1  0  0  0  0
  3  8  1  0  0  0  0
  4 12  1  0  0  0  0
  5 11  1  0  0  0  0
  5  4  2  0  0  0  0
  6  5  1  0  0  0  0
  7  1  1  0  0  0  0
  8  9  2  0  0  0  0
 10  6  1  0  0  0  0
 14  2  1  0  0  0  0
 14 13  1  0  0  0  0
 15 14  1  0  0  0  0
 16 19  1  0  0  0  0
 16 15  2  0  0  0  0
 17 15  1  0  0  0  0
 17 21  1  0  0  0  0
 18 16  1  0  0  0  0
 20 17  2  0  0  0  0
 22 18  2  0  0  0  0
 22 20  1  0  0  0  0
 23 18  1  0  0  0  0
 24 20  1  0  0  0  0
 25 22  1  0  0  0  0
M  RAD  2   9   2  13   3
M  END
