Coordinates from ORCA-job 1a-Schema5-R6-D+-B3LYPG-6-31G_dp-scan-d49-09-n400
 OpenBabel08281819463D

 25 25  0  0  0  0  0  0  0  0999 V2000
   -3.9508   -0.4724   -3.2582 C   0  0  0  0  0  0  0  0  0  0  0  0
   -2.9524   -0.9935   -2.3981 C   0  0  0  0  0  0  0  0  0  0  0  0
   -3.2638   -0.6738   -1.0574 C   0  0  0  0  0  0  0  0  0  0  0  0
   -4.3655    0.0520   -0.5263 C   0  0  0  0  0  0  0  0  0  0  0  0
   -5.2736    0.5192   -1.4503 C   0  0  0  0  0  0  0  0  0  0  0  0
   -5.0602    0.2512   -2.8212 C   0  0  0  0  0  0  0  0  0  0  0  0
   -3.8601   -0.6442   -4.3315 H   0  0  0  0  0  0  0  0  0  0  0  0
   -2.3514   -1.1506   -0.1343 N   0  0  0  0  0  0  0  0  0  0  0  0
   -1.5904   -1.5563    0.5786 N   0  0  0  0  0  0  0  0  0  0  0  0
   -5.7843    0.6216   -3.5432 H   0  0  0  0  0  0  0  0  0  0  0  0
   -6.1426    1.0822   -1.1275 H   0  0  0  0  0  0  0  0  0  0  0  0
   -4.4805    0.2254    0.5394 H   0  0  0  0  0  0  0  0  0  0  0  0
    0.5734    0.1709   -4.4418 N   0  0  0  0  0  0  0  0  0  0  0  0
    0.3856   -0.9249   -4.5383 N   0  0  0  0  0  0  0  0  0  0  0  0
    0.1664   -2.2772   -4.6720 C   0  0  0  0  0  0  0  0  0  0  0  0
    1.0453   -3.0045   -5.5075 C   0  0  0  0  0  0  0  0  0  0  0  0
   -0.9229   -2.8258   -3.9667 C   0  0  0  0  0  0  0  0  0  0  0  0
    0.8018   -4.3608   -5.6332 C   0  0  0  0  0  0  0  0  0  0  0  0
    1.8657   -2.5152   -6.0210 H   0  0  0  0  0  0  0  0  0  0  0  0
   -1.1238   -4.1924   -4.1320 C   0  0  0  0  0  0  0  0  0  0  0  0
   -1.5813   -2.1754   -3.3296 H   0  0  0  0  0  0  0  0  0  0  0  0
   -0.2773   -4.9495   -4.9500 C   0  0  0  0  0  0  0  0  0  0  0  0
    1.4464   -4.9652   -6.2619 H   0  0  0  0  0  0  0  0  0  0  0  0
   -1.9527   -4.6681   -3.6176 H   0  0  0  0  0  0  0  0  0  0  0  0
   -0.4548   -6.0148   -5.0634 H   0  0  0  0  0  0  0  0  0  0  0  0
  1  6  2  0  0  0  0
  1  2  1  0  0  0  0
  2  3  2  0  0  0  0
  3  4  1  0  0  0  0
  3  8  1  0  0  0  0
  4 12  1  0  0  0  0
  5 11  1  0  0  0  0
  5  4  2  0  0  0  0
  6  5  1  0  0  0  0
  7  1  1  0  0  0  0
  8  9  1  0  0  0  0
 10  6  1  0  0  0  0
 14 13  1  0  0  0  0
 15 14  1  0  0  0  0
 15 17  2  0  0  0  0
 16 15  1  0  0  0  0
 17 21  1  0  0  0  0
 18 16  2  0  0  0  0
 18 22  1  0  0  0  0
 19 16  1  0  0  0  0
 20 17  1  0  0  0  0
 20 24  1  0  0  0  0
 22 20  2  0  0  0  0
 23 18  1  0  0  0  0
 25 22  1  0  0  0  0
M  RAD  5   2   2   8   2   9   3  13   3  14   2
M  END
