Coordinates from ORCA-job 1a-Schema5-R6-D+-B3LYPG-6-31G_dp-scan-d49-09-n400
 OpenBabel08281819463D

 25 25  0  0  0  0  0  0  0  0999 V2000
   -3.9081   -0.4730   -3.2626 C   0  0  0  0  0  0  0  0  0  0  0  0
   -2.9451   -1.0251   -2.3817 C   0  0  0  0  0  0  0  0  0  0  0  0
   -3.2593   -0.6712   -1.0503 C   0  0  0  0  0  0  0  0  0  0  0  0
   -4.3326    0.1128   -0.5451 C   0  0  0  0  0  0  0  0  0  0  0  0
   -5.2058    0.6078   -1.4882 C   0  0  0  0  0  0  0  0  0  0  0  0
   -4.9881    0.3085   -2.8517 C   0  0  0  0  0  0  0  0  0  0  0  0
   -3.8142   -0.6676   -4.3319 H   0  0  0  0  0  0  0  0  0  0  0  0
   -2.3828   -1.1765   -0.1070 N   0  0  0  0  0  0  0  0  0  0  0  0
   -1.6524   -1.6073    0.6228 N   0  0  0  0  0  0  0  0  0  0  0  0
   -5.6851    0.7001   -3.5889 H   0  0  0  0  0  0  0  0  0  0  0  0
   -6.0517    1.2155   -1.1855 H   0  0  0  0  0  0  0  0  0  0  0  0
   -4.4537    0.3071    0.5164 H   0  0  0  0  0  0  0  0  0  0  0  0
    0.3068    0.1646   -4.3594 N   0  0  0  0  0  0  0  0  0  0  0  0
    0.1914   -0.9391   -4.4759 N   0  0  0  0  0  0  0  0  0  0  0  0
    0.0663   -2.3005   -4.6398 C   0  0  0  0  0  0  0  0  0  0  0  0
    0.9722   -2.9427   -5.5146 C   0  0  0  0  0  0  0  0  0  0  0  0
   -0.9627   -2.9428   -3.9230 C   0  0  0  0  0  0  0  0  0  0  0  0
    0.8216   -4.3097   -5.6689 C   0  0  0  0  0  0  0  0  0  0  0  0
    1.7422   -2.3843   -6.0353 H   0  0  0  0  0  0  0  0  0  0  0  0
   -1.0720   -4.3157   -4.1176 C   0  0  0  0  0  0  0  0  0  0  0  0
   -1.6359   -2.3355   -3.2646 H   0  0  0  0  0  0  0  0  0  0  0  0
   -0.1950   -4.9901   -4.9753 C   0  0  0  0  0  0  0  0  0  0  0  0
    1.4904   -4.8518   -6.3285 H   0  0  0  0  0  0  0  0  0  0  0  0
   -1.8508   -4.8629   -3.5963 H   0  0  0  0  0  0  0  0  0  0  0  0
   -0.2994   -6.0625   -5.1119 H   0  0  0  0  0  0  0  0  0  0  0  0
  1  6  2  0  0  0  0
  1  2  1  0  0  0  0
  2  3  2  0  0  0  0
  3  4  1  0  0  0  0
  3  8  1  0  0  0  0
  4 12  1  0  0  0  0
  5 11  1  0  0  0  0
  5  4  2  0  0  0  0
  6  5  1  0  0  0  0
  7  1  1  0  0  0  0
  8  9  1  0  0  0  0
 10  6  1  0  0  0  0
 14 13  1  0  0  0  0
 15 14  1  0  0  0  0
 15 17  2  0  0  0  0
 16 15  1  0  0  0  0
 17 21  1  0  0  0  0
 18 16  2  0  0  0  0
 18 22  1  0  0  0  0
 19 16  1  0  0  0  0
 20 17  1  0  0  0  0
 20 24  1  0  0  0  0
 22 20  2  0  0  0  0
 23 18  1  0  0  0  0
 25 22  1  0  0  0  0
M  RAD  5   2   2   8   2   9   3  13   3  14   2
M  END
