Coordinates from ORCA-job 1a-Schema5-R6-D+-B3LYPG-6-31G_dp-scan-d49-09-n400
 OpenBabel08281819463D

 25 26  0  0  0  0  0  0  0  0999 V2000
   -3.5240   -1.2001   -3.3034 C   0  0  0  0  0  0  0  0  0  0  0  0
   -2.3968   -0.9907   -2.5257 C   0  0  0  0  0  0  0  0  0  0  0  0
   -2.4272   -0.0864   -1.4721 C   0  0  0  0  0  0  0  0  0  0  0  0
   -3.5770    0.6179   -1.1238 C   0  0  0  0  0  0  0  0  0  0  0  0
   -4.7221    0.3921   -1.8913 C   0  0  0  0  0  0  0  0  0  0  0  0
   -4.6918   -0.4979   -2.9686 C   0  0  0  0  0  0  0  0  0  0  0  0
   -3.5049   -1.8759   -4.1490 H   0  0  0  0  0  0  0  0  0  0  0  0
   -1.1989    0.1138   -0.7794 N   0  0  0  0  0  0  0  0  0  0  0  0
   -0.6965    0.6575    0.0816 N   0  0  0  0  0  0  0  0  0  0  0  0
   -5.5853   -0.6489   -3.5654 H   0  0  0  0  0  0  0  0  0  0  0  0
   -5.6365    0.9233   -1.6505 H   0  0  0  0  0  0  0  0  0  0  0  0
   -3.5669    1.3161   -0.2935 H   0  0  0  0  0  0  0  0  0  0  0  0
   -0.1055   -1.2119   -2.0352 N   0  0  0  0  0  0  0  0  0  0  0  0
   -1.0472   -1.6014   -2.7223 N   0  0  0  0  0  0  0  0  0  0  0  0
   -0.8652   -2.6228   -3.7616 C   0  0  0  0  0  0  0  0  0  0  0  0
    0.1936   -2.4514   -4.6538 C   0  0  0  0  0  0  0  0  0  0  0  0
   -1.6827   -3.7553   -3.7731 C   0  0  0  0  0  0  0  0  0  0  0  0
    0.4189   -3.4397   -5.6100 C   0  0  0  0  0  0  0  0  0  0  0  0
    0.8164   -1.5655   -4.5973 H   0  0  0  0  0  0  0  0  0  0  0  0
   -1.4308   -4.7398   -4.7290 C   0  0  0  0  0  0  0  0  0  0  0  0
   -2.4674   -3.8907   -3.0357 H   0  0  0  0  0  0  0  0  0  0  0  0
   -0.3899   -4.5792   -5.6478 C   0  0  0  0  0  0  0  0  0  0  0  0
    1.2298   -3.3207   -6.3209 H   0  0  0  0  0  0  0  0  0  0  0  0
   -2.0419   -5.6361   -4.7465 H   0  0  0  0  0  0  0  0  0  0  0  0
   -0.2040   -5.3483   -6.3908 H   0  0  0  0  0  0  0  0  0  0  0  0
  1  6  2  0  0  0  0
  1  2  1  0  0  0  0
  2  3  2  0  0  0  0
  3  4  1  0  0  0  0
  3  8  1  0  0  0  0
  4 12  1  0  0  0  0
  5 11  1  0  0  0  0
  5  4  2  0  0  0  0
  6  5  1  0  0  0  0
  7  1  1  0  0  0  0
  8  9  2  0  0  0  0
 10  6  1  0  0  0  0
 14  2  1  0  0  0  0
 14 13  1  0  0  0  0
 15 14  1  0  0  0  0
 16 19  1  0  0  0  0
 16 15  2  0  0  0  0
 17 15  1  0  0  0  0
 17 21  1  0  0  0  0
 18 16  1  0  0  0  0
 20 17  2  0  0  0  0
 22 18  2  0  0  0  0
 22 20  1  0  0  0  0
 23 18  1  0  0  0  0
 24 20  1  0  0  0  0
 25 22  1  0  0  0  0
M  RAD  2   9   2  13   3
M  END
