Coordinates from ORCA-job 1a-Schema5-R6-D+-B3LYPG-6-31G_dp-scan-d49-09-n400
 OpenBabel08281819463D

 25 25  0  0  0  0  0  0  0  0999 V2000
   -3.9630   -0.4735   -3.2565 C   0  0  0  0  0  0  0  0  0  0  0  0
   -2.9537   -0.9841   -2.4028 C   0  0  0  0  0  0  0  0  0  0  0  0
   -3.2627   -0.6725   -1.0598 C   0  0  0  0  0  0  0  0  0  0  0  0
   -4.3712    0.0372   -0.5211 C   0  0  0  0  0  0  0  0  0  0  0  0
   -5.2900    0.4949   -1.4392 C   0  0  0  0  0  0  0  0  0  0  0  0
   -5.0798    0.2340   -2.8120 C   0  0  0  0  0  0  0  0  0  0  0  0
   -3.8748   -0.6403   -4.3308 H   0  0  0  0  0  0  0  0  0  0  0  0
   -2.3392   -1.1395   -0.1427 N   0  0  0  0  0  0  0  0  0  0  0  0
   -1.5691   -1.5371    0.5650 N   0  0  0  0  0  0  0  0  0  0  0  0
   -5.8122    0.5970   -3.5293 H   0  0  0  0  0  0  0  0  0  0  0  0
   -6.1648    1.0454   -1.1104 H   0  0  0  0  0  0  0  0  0  0  0  0
   -4.4831    0.2061    0.5458 H   0  0  0  0  0  0  0  0  0  0  0  0
    0.6402    0.1694   -4.4597 N   0  0  0  0  0  0  0  0  0  0  0  0
    0.4338   -0.9232   -4.5541 N   0  0  0  0  0  0  0  0  0  0  0  0
    0.1905   -2.2720   -4.6805 C   0  0  0  0  0  0  0  0  0  0  0  0
    1.0654   -3.0215   -5.5005 C   0  0  0  0  0  0  0  0  0  0  0  0
   -0.9171   -2.7953   -3.9842 C   0  0  0  0  0  0  0  0  0  0  0  0
    0.7985   -4.3740   -5.6197 C   0  0  0  0  0  0  0  0  0  0  0  0
    1.9008   -2.5512   -6.0073 H   0  0  0  0  0  0  0  0  0  0  0  0
   -1.1404   -4.1593   -4.1420 C   0  0  0  0  0  0  0  0  0  0  0  0
   -1.5731   -2.1341   -3.3550 H   0  0  0  0  0  0  0  0  0  0  0  0
   -0.2991   -4.9378   -4.9450 C   0  0  0  0  0  0  0  0  0  0  0  0
    1.4391   -4.9946   -6.2366 H   0  0  0  0  0  0  0  0  0  0  0  0
   -1.9836   -4.6156   -3.6334 H   0  0  0  0  0  0  0  0  0  0  0  0
   -0.4952   -6.0004   -5.0533 H   0  0  0  0  0  0  0  0  0  0  0  0
  1  6  2  0  0  0  0
  1  2  1  0  0  0  0
  2  3  2  0  0  0  0
  3  4  1  0  0  0  0
  3  8  1  0  0  0  0
  4 12  1  0  0  0  0
  5 11  1  0  0  0  0
  5  4  2  0  0  0  0
  6  5  1  0  0  0  0
  7  1  1  0  0  0  0
  8  9  1  0  0  0  0
 10  6  1  0  0  0  0
 14 13  1  0  0  0  0
 15 14  1  0  0  0  0
 15 17  2  0  0  0  0
 16 15  1  0  0  0  0
 17 21  1  0  0  0  0
 18 16  2  0  0  0  0
 18 22  1  0  0  0  0
 19 16  1  0  0  0  0
 20 17  1  0  0  0  0
 20 24  1  0  0  0  0
 22 20  2  0  0  0  0
 23 18  1  0  0  0  0
 25 22  1  0  0  0  0
M  RAD  5   2   2   8   2   9   3  13   3  14   2
M  END
