Coordinates from ORCA-job 1a-Schema5-R6-D+-B3LYPG-6-31G_dp-scan-d49-09-n400
 OpenBabel08281819463D

 25 26  0  0  0  0  0  0  0  0999 V2000
   -0.7779   -0.3946   -2.4093 C   0  0  0  0  0  0  0  0  0  0  0  0
   -2.1694   -0.7040   -2.1722 C   0  0  0  0  0  0  0  0  0  0  0  0
   -3.0681    0.4406   -2.2830 C   0  0  0  0  0  0  0  0  0  0  0  0
   -2.6286    1.7516   -2.6396 C   0  0  0  0  0  0  0  0  0  0  0  0
   -1.2961    1.9628   -2.8556 C   0  0  0  0  0  0  0  0  0  0  0  0
   -0.3794    0.8777   -2.7267 C   0  0  0  0  0  0  0  0  0  0  0  0
   -0.0603   -1.2001   -2.3006 H   0  0  0  0  0  0  0  0  0  0  0  0
   -4.3667    0.2332   -2.0184 N   0  0  0  0  0  0  0  0  0  0  0  0
   -5.4451    0.0387   -1.7550 N   0  0  0  0  0  0  0  0  0  0  0  0
    0.6770    1.0614   -2.8998 H   0  0  0  0  0  0  0  0  0  0  0  0
   -0.9354    2.9496   -3.1197 H   0  0  0  0  0  0  0  0  0  0  0  0
   -3.3607    2.5472   -2.7234 H   0  0  0  0  0  0  0  0  0  0  0  0
   -2.5682   -1.7956   -1.7671 N   0  0  0  0  0  0  0  0  0  0  0  0
   -2.4309   -3.0323   -1.8550 N   0  0  0  0  0  0  0  0  0  0  0  0
   -2.1655   -3.6694   -3.0664 C   0  0  0  0  0  0  0  0  0  0  0  0
   -1.9414   -5.0577   -2.9325 C   0  0  0  0  0  0  0  0  0  0  0  0
   -2.1329   -3.0539   -4.3409 C   0  0  0  0  0  0  0  0  0  0  0  0
   -1.6371   -5.8182   -4.0545 C   0  0  0  0  0  0  0  0  0  0  0  0
   -2.0021   -5.4946   -1.9413 H   0  0  0  0  0  0  0  0  0  0  0  0
   -1.8438   -3.8281   -5.4516 C   0  0  0  0  0  0  0  0  0  0  0  0
   -2.3484   -1.9976   -4.4571 H   0  0  0  0  0  0  0  0  0  0  0  0
   -1.5893   -5.2043   -5.3096 C   0  0  0  0  0  0  0  0  0  0  0  0
   -1.4476   -6.8817   -3.9577 H   0  0  0  0  0  0  0  0  0  0  0  0
   -1.8206   -3.3749   -6.4372 H   0  0  0  0  0  0  0  0  0  0  0  0
   -1.3654   -5.7976   -6.1907 H   0  0  0  0  0  0  0  0  0  0  0  0
  1  7  1  0  0  0  0
  1  2  2  0  0  0  0
  2 13  1  0  0  0  0
  3  2  1  0  0  0  0
  3  8  1  0  0  0  0
  4  3  2  0  0  0  0
  5  6  2  0  0  0  0
  5  4  1  0  0  0  0
  6  1  1  0  0  0  0
  8  9  1  0  0  0  0
 10  6  1  0  0  0  0
 11  5  1  0  0  0  0
 12  4  1  0  0  0  0
 14 13  1  0  0  0  0
 15 16  1  0  0  0  0
 15 14  1  0  0  0  0
 16 19  1  0  0  0  0
 17 15  2  0  0  0  0
 18 23  1  0  0  0  0
 18 16  2  0  0  0  0
 20 22  2  0  0  0  0
 20 17  1  0  0  0  0
 21 17  1  0  0  0  0
 22 18  1  0  0  0  0
 24 20  1  0  0  0  0
 25 22  1  0  0  0  0
M  RAD  4   8   2   9   3  13   2  14   2
M  END
