Coordinates from ORCA-job 1a-Schema5-R6-D+-B3LYPG-6-31G_dp-scan-d49-09-n400
 OpenBabel08281819463D

 25 25  0  0  0  0  0  0  0  0999 V2000
   -3.9633   -0.4742   -3.2558 C   0  0  0  0  0  0  0  0  0  0  0  0
   -2.9538   -0.9837   -2.4016 C   0  0  0  0  0  0  0  0  0  0  0  0
   -3.2636   -0.6721   -1.0588 C   0  0  0  0  0  0  0  0  0  0  0  0
   -4.3730    0.0365   -0.5206 C   0  0  0  0  0  0  0  0  0  0  0  0
   -5.2920    0.4931   -1.4391 C   0  0  0  0  0  0  0  0  0  0  0  0
   -5.0809    0.2322   -2.8118 C   0  0  0  0  0  0  0  0  0  0  0  0
   -3.8745   -0.6411   -4.3301 H   0  0  0  0  0  0  0  0  0  0  0  0
   -2.3399   -1.1379   -0.1413 N   0  0  0  0  0  0  0  0  0  0  0  0
   -1.5696   -1.5346    0.5667 N   0  0  0  0  0  0  0  0  0  0  0  0
   -5.8134    0.5944   -3.5294 H   0  0  0  0  0  0  0  0  0  0  0  0
   -6.1674    1.0428   -1.1107 H   0  0  0  0  0  0  0  0  0  0  0  0
   -4.4855    0.2056    0.5462 H   0  0  0  0  0  0  0  0  0  0  0  0
    0.6502    0.1687   -4.4625 N   0  0  0  0  0  0  0  0  0  0  0  0
    0.4396   -0.9233   -4.5553 N   0  0  0  0  0  0  0  0  0  0  0  0
    0.1928   -2.2715   -4.6808 C   0  0  0  0  0  0  0  0  0  0  0  0
    1.0658   -3.0224   -5.5016 C   0  0  0  0  0  0  0  0  0  0  0  0
   -0.9153   -2.7932   -3.9837 C   0  0  0  0  0  0  0  0  0  0  0  0
    0.7969   -4.3745   -5.6208 C   0  0  0  0  0  0  0  0  0  0  0  0
    1.9016   -2.5534   -6.0090 H   0  0  0  0  0  0  0  0  0  0  0  0
   -1.1404   -4.1570   -4.1416 C   0  0  0  0  0  0  0  0  0  0  0  0
   -1.5710   -2.1326   -3.3536 H   0  0  0  0  0  0  0  0  0  0  0  0
   -0.3009   -4.9367   -4.9454 C   0  0  0  0  0  0  0  0  0  0  0  0
    1.4362   -4.9959   -6.2383 H   0  0  0  0  0  0  0  0  0  0  0  0
   -1.9838   -4.6121   -3.6324 H   0  0  0  0  0  0  0  0  0  0  0  0
   -0.4987   -5.9990   -5.0535 H   0  0  0  0  0  0  0  0  0  0  0  0
  1  6  2  0  0  0  0
  1  2  1  0  0  0  0
  2  3  2  0  0  0  0
  3  4  1  0  0  0  0
  3  8  1  0  0  0  0
  4 12  1  0  0  0  0
  5 11  1  0  0  0  0
  5  4  2  0  0  0  0
  6  5  1  0  0  0  0
  7  1  1  0  0  0  0
  8  9  1  0  0  0  0
 10  6  1  0  0  0  0
 14 13  1  0  0  0  0
 15 14  1  0  0  0  0
 15 17  2  0  0  0  0
 16 15  1  0  0  0  0
 17 21  1  0  0  0  0
 18 16  2  0  0  0  0
 18 22  1  0  0  0  0
 19 16  1  0  0  0  0
 20 17  1  0  0  0  0
 20 24  1  0  0  0  0
 22 20  2  0  0  0  0
 23 18  1  0  0  0  0
 25 22  1  0  0  0  0
M  RAD  5   2   2   8   2   9   3  13   3  14   2
M  END
