Coordinates from ORCA-job 1a-Schema5-R6-D+-B3LYPG-6-31G_dp-scan-d49-09-n400
 OpenBabel08281819463D

 25 25  0  0  0  0  0  0  0  0999 V2000
   -3.5792   -0.9845   -3.3619 C   0  0  0  0  0  0  0  0  0  0  0  0
   -2.5029   -0.9574   -2.4818 C   0  0  0  0  0  0  0  0  0  0  0  0
   -2.6986   -0.2110   -1.3108 C   0  0  0  0  0  0  0  0  0  0  0  0
   -3.8898    0.4680   -0.9519 C   0  0  0  0  0  0  0  0  0  0  0  0
   -4.9340    0.3959   -1.8553 C   0  0  0  0  0  0  0  0  0  0  0  0
   -4.7767   -0.3237   -3.0542 C   0  0  0  0  0  0  0  0  0  0  0  0
   -3.4991   -1.5257   -4.3011 H   0  0  0  0  0  0  0  0  0  0  0  0
   -1.6411   -0.1262   -0.4227 N   0  0  0  0  0  0  0  0  0  0  0  0
   -0.7855   -0.0486    0.2890 N   0  0  0  0  0  0  0  0  0  0  0  0
   -5.6036   -0.3632   -3.7582 H   0  0  0  0  0  0  0  0  0  0  0  0
   -5.8702    0.8978   -1.6380 H   0  0  0  0  0  0  0  0  0  0  0  0
   -3.9700    1.0117   -0.0161 H   0  0  0  0  0  0  0  0  0  0  0  0
    0.4014   -0.6588   -2.6606 N   0  0  0  0  0  0  0  0  0  0  0  0
   -0.4468   -1.3576   -3.0108 N   0  0  0  0  0  0  0  0  0  0  0  0
   -0.5023   -2.5087   -3.8882 C   0  0  0  0  0  0  0  0  0  0  0  0
    0.4591   -2.5795   -4.9030 C   0  0  0  0  0  0  0  0  0  0  0  0
   -1.4415   -3.5109   -3.6670 C   0  0  0  0  0  0  0  0  0  0  0  0
    0.4542   -3.6988   -5.7301 C   0  0  0  0  0  0  0  0  0  0  0  0
    1.1774   -1.7776   -5.0348 H   0  0  0  0  0  0  0  0  0  0  0  0
   -1.4137   -4.6340   -4.4932 C   0  0  0  0  0  0  0  0  0  0  0  0
   -2.1545   -3.4206   -2.8563 H   0  0  0  0  0  0  0  0  0  0  0  0
   -0.4758   -4.7235   -5.5253 C   0  0  0  0  0  0  0  0  0  0  0  0
    1.1809   -3.7716   -6.5328 H   0  0  0  0  0  0  0  0  0  0  0  0
   -2.1239   -5.4376   -4.3286 H   0  0  0  0  0  0  0  0  0  0  0  0
   -0.4675   -5.5957   -6.1713 H   0  0  0  0  0  0  0  0  0  0  0  0
  1  6  2  0  0  0  0
  1  2  1  0  0  0  0
  2  3  2  0  0  0  0
  3  4  1  0  0  0  0
  3  8  1  0  0  0  0
  4 12  1  0  0  0  0
  5 11  1  0  0  0  0
  5  4  2  0  0  0  0
  6  5  1  0  0  0  0
  7  1  1  0  0  0  0
  8  9  1  0  0  0  0
 10  6  1  0  0  0  0
 14 13  2  0  0  0  0
 15 17  1  0  0  0  0
 15 14  1  0  0  0  0
 16 15  2  0  0  0  0
 17 21  1  0  0  0  0
 18 22  2  0  0  0  0
 18 16  1  0  0  0  0
 19 16  1  0  0  0  0
 20 24  1  0  0  0  0
 20 17  2  0  0  0  0
 22 20  1  0  0  0  0
 23 18  1  0  0  0  0
 25 22  1  0  0  0  0
M  RAD  4   2   2   8   2   9   3  13   2
M  END
