Coordinates from ORCA-job 1a-Schema5-R6-D+-B3LYPG-6-31G_dp-scan-d49-09-n400
 OpenBabel08281819463D

 25 26  0  0  0  0  0  0  0  0999 V2000
   -0.4049    0.0885   -2.0954 C   0  0  0  0  0  0  0  0  0  0  0  0
   -1.5240   -0.7492   -2.0325 C   0  0  0  0  0  0  0  0  0  0  0  0
   -2.7538   -0.2129   -2.5090 C   0  0  0  0  0  0  0  0  0  0  0  0
   -2.8691    1.0833   -3.0786 C   0  0  0  0  0  0  0  0  0  0  0  0
   -1.7274    1.8488   -3.1681 C   0  0  0  0  0  0  0  0  0  0  0  0
   -0.5009    1.3467   -2.6788 C   0  0  0  0  0  0  0  0  0  0  0  0
    0.5334   -0.2702   -1.6865 H   0  0  0  0  0  0  0  0  0  0  0  0
   -3.8763   -0.9757   -2.4099 N   0  0  0  0  0  0  0  0  0  0  0  0
   -4.8035   -1.5944   -2.3050 N   0  0  0  0  0  0  0  0  0  0  0  0
    0.3891    1.9645   -2.7485 H   0  0  0  0  0  0  0  0  0  0  0  0
   -1.7774    2.8425   -3.5976 H   0  0  0  0  0  0  0  0  0  0  0  0
   -3.8340    1.4442   -3.4171 H   0  0  0  0  0  0  0  0  0  0  0  0
   -1.4914   -1.9568   -1.1749 N   0  0  0  0  0  0  0  0  0  0  0  0
   -1.7166   -3.1277   -1.5198 N   0  0  0  0  0  0  0  0  0  0  0  0
   -1.8659   -3.5916   -2.8477 C   0  0  0  0  0  0  0  0  0  0  0  0
   -2.5890   -4.7943   -2.9520 C   0  0  0  0  0  0  0  0  0  0  0  0
   -1.2919   -3.0025   -3.9921 C   0  0  0  0  0  0  0  0  0  0  0  0
   -2.8092   -5.3624   -4.2028 C   0  0  0  0  0  0  0  0  0  0  0  0
   -2.9683   -5.2512   -2.0443 H   0  0  0  0  0  0  0  0  0  0  0  0
   -1.4898   -3.6010   -5.2320 C   0  0  0  0  0  0  0  0  0  0  0  0
   -0.6552   -2.1299   -3.9122 H   0  0  0  0  0  0  0  0  0  0  0  0
   -2.2598   -4.7663   -5.3414 C   0  0  0  0  0  0  0  0  0  0  0  0
   -3.3820   -6.2796   -4.2883 H   0  0  0  0  0  0  0  0  0  0  0  0
   -1.0295   -3.1716   -6.1158 H   0  0  0  0  0  0  0  0  0  0  0  0
   -2.4064   -5.2232   -6.3150 H   0  0  0  0  0  0  0  0  0  0  0  0
  1  2  1  0  0  0  0
  1  7  1  0  0  0  0
  2 13  1  0  0  0  0
  3  8  1  0  0  0  0
  3  2  2  0  0  0  0
  4  3  1  0  0  0  0
  5  4  2  0  0  0  0
  5  6  1  0  0  0  0
  6  1  2  0  0  0  0
  8  9  1  0  0  0  0
 10  6  1  0  0  0  0
 11  5  1  0  0  0  0
 12  4  1  0  0  0  0
 14 13  2  0  0  0  0
 15 14  1  0  0  0  0
 16 15  1  0  0  0  0
 16 19  1  0  0  0  0
 17 21  1  0  0  0  0
 17 15  2  0  0  0  0
 18 16  2  0  0  0  0
 20 17  1  0  0  0  0
 22 20  2  0  0  0  0
 22 18  1  0  0  0  0
 23 18  1  0  0  0  0
 24 20  1  0  0  0  0
 25 22  1  0  0  0  0
M  RAD  2   8   2   9   3
M  END
