Coordinates from ORCA-job 1a-Schema5-R6-D+-B3LYPG-6-31G_dp-scan-d49-09-n400
 OpenBabel08281819463D

 25 26  0  0  0  0  0  0  0  0999 V2000
   -3.7600   -0.3849   -3.6483 C   0  0  0  0  0  0  0  0  0  0  0  0
   -2.5185   -0.6449   -3.0029 C   0  0  0  0  0  0  0  0  0  0  0  0
   -2.4921   -0.5327   -1.5655 C   0  0  0  0  0  0  0  0  0  0  0  0
   -3.5922    0.0319   -0.8402 C   0  0  0  0  0  0  0  0  0  0  0  0
   -4.7307    0.3547   -1.5221 C   0  0  0  0  0  0  0  0  0  0  0  0
   -4.8151    0.1170   -2.9270 C   0  0  0  0  0  0  0  0  0  0  0  0
   -3.8373   -0.5612   -4.7156 H   0  0  0  0  0  0  0  0  0  0  0  0
   -1.3957   -0.9131   -0.8964 N   0  0  0  0  0  0  0  0  0  0  0  0
   -0.4667   -1.2097   -0.3273 N   0  0  0  0  0  0  0  0  0  0  0  0
   -5.7468    0.3303   -3.4413 H   0  0  0  0  0  0  0  0  0  0  0  0
   -5.5768    0.7786   -0.9940 H   0  0  0  0  0  0  0  0  0  0  0  0
   -3.4949    0.1837    0.2291 H   0  0  0  0  0  0  0  0  0  0  0  0
   -1.0092    0.0495   -3.9091 N   0  0  0  0  0  0  0  0  0  0  0  0
   -1.4042   -1.1027   -3.7246 N   0  0  0  0  0  0  0  0  0  0  0  0
   -0.9233   -2.3907   -4.1249 C   0  0  0  0  0  0  0  0  0  0  0  0
    0.2757   -2.4512   -4.8429 C   0  0  0  0  0  0  0  0  0  0  0  0
   -1.6709   -3.5237   -3.7895 C   0  0  0  0  0  0  0  0  0  0  0  0
    0.7371   -3.7022   -5.2342 C   0  0  0  0  0  0  0  0  0  0  0  0
    0.8131   -1.5386   -5.0792 H   0  0  0  0  0  0  0  0  0  0  0  0
   -1.1900   -4.7672   -4.1930 C   0  0  0  0  0  0  0  0  0  0  0  0
   -2.6041   -3.4353   -3.2421 H   0  0  0  0  0  0  0  0  0  0  0  0
    0.0076   -4.8544   -4.9100 C   0  0  0  0  0  0  0  0  0  0  0  0
    1.6640   -3.7838   -5.7914 H   0  0  0  0  0  0  0  0  0  0  0  0
   -1.7483   -5.6649   -3.9512 H   0  0  0  0  0  0  0  0  0  0  0  0
    0.3756   -5.8265   -5.2214 H   0  0  0  0  0  0  0  0  0  0  0  0
  1  2  2  0  0  0  0
  1  6  1  0  0  0  0
  2  3  1  0  0  0  0
  3  8  1  0  0  0  0
  3  4  2  0  0  0  0
  4 12  1  0  0  0  0
  5 11  1  0  0  0  0
  5  4  1  0  0  0  0
  6  5  2  0  0  0  0
  7  1  1  0  0  0  0
  8  9  1  0  0  0  0
 10  6  1  0  0  0  0
 13 14  1  0  0  0  0
 14  2  1  0  0  0  0
 15 17  1  0  0  0  0
 15 14  1  0  0  0  0
 16 15  2  0  0  0  0
 17 21  1  0  0  0  0
 18 22  2  0  0  0  0
 18 16  1  0  0  0  0
 19 16  1  0  0  0  0
 20 24  1  0  0  0  0
 20 17  2  0  0  0  0
 22 20  1  0  0  0  0
 23 18  1  0  0  0  0
 25 22  1  0  0  0  0
M  RAD  3   8   2   9   3  13   3
M  END
