Coordinates from ORCA-job 1a-Schema5-R6-D+-B3LYPG-6-31G_dp-scan-d49-09-n400
 OpenBabel08281819463D

 25 25  0  0  0  0  0  0  0  0999 V2000
   -3.7252   -0.6532   -3.3745 C   0  0  0  0  0  0  0  0  0  0  0  0
   -2.6607   -0.8439   -2.4836 C   0  0  0  0  0  0  0  0  0  0  0  0
   -2.9264   -0.3481   -1.1936 C   0  0  0  0  0  0  0  0  0  0  0  0
   -4.1133    0.2858   -0.7390 C   0  0  0  0  0  0  0  0  0  0  0  0
   -5.1158    0.4371   -1.6749 C   0  0  0  0  0  0  0  0  0  0  0  0
   -4.9184   -0.0323   -2.9897 C   0  0  0  0  0  0  0  0  0  0  0  0
   -3.6330   -0.9954   -4.4034 H   0  0  0  0  0  0  0  0  0  0  0  0
   -1.9134   -0.4996   -0.2669 N   0  0  0  0  0  0  0  0  0  0  0  0
   -1.0807   -0.6322    0.4661 N   0  0  0  0  0  0  0  0  0  0  0  0
   -5.7151    0.0972   -3.7179 H   0  0  0  0  0  0  0  0  0  0  0  0
   -6.0490    0.9147   -1.3979 H   0  0  0  0  0  0  0  0  0  0  0  0
   -4.2190    0.6294    0.2851 H   0  0  0  0  0  0  0  0  0  0  0  0
    0.5928   -0.2496   -3.4879 N   0  0  0  0  0  0  0  0  0  0  0  0
   -0.1233   -1.1271   -3.5713 N   0  0  0  0  0  0  0  0  0  0  0  0
   -0.2585   -2.4250   -4.1616 C   0  0  0  0  0  0  0  0  0  0  0  0
    0.7114   -2.7598   -5.1243 C   0  0  0  0  0  0  0  0  0  0  0  0
   -1.2696   -3.2923   -3.7643 C   0  0  0  0  0  0  0  0  0  0  0  0
    0.6355   -4.0204   -5.7015 C   0  0  0  0  0  0  0  0  0  0  0  0
    1.4840   -2.0506   -5.4001 H   0  0  0  0  0  0  0  0  0  0  0  0
   -1.3139   -4.5559   -4.3482 C   0  0  0  0  0  0  0  0  0  0  0  0
   -1.9828   -2.9439   -3.0236 H   0  0  0  0  0  0  0  0  0  0  0  0
   -0.3702   -4.9162   -5.3145 C   0  0  0  0  0  0  0  0  0  0  0  0
    1.3641   -4.3052   -6.4535 H   0  0  0  0  0  0  0  0  0  0  0  0
   -2.0872   -5.2564   -4.0520 H   0  0  0  0  0  0  0  0  0  0  0  0
   -0.4163   -5.8991   -5.7721 H   0  0  0  0  0  0  0  0  0  0  0  0
  1  6  2  0  0  0  0
  1  2  1  0  0  0  0
  2  3  2  0  0  0  0
  3  4  1  0  0  0  0
  3  8  1  0  0  0  0
  4 12  1  0  0  0  0
  5 11  1  0  0  0  0
  5  4  2  0  0  0  0
  6  5  1  0  0  0  0
  7  1  1  0  0  0  0
  8  9  1  0  0  0  0
 10  6  1  0  0  0  0
 14 13  2  0  0  0  0
 15 17  1  0  0  0  0
 15 14  1  0  0  0  0
 16 15  2  0  0  0  0
 17 21  1  0  0  0  0
 18 22  2  0  0  0  0
 18 16  1  0  0  0  0
 19 16  1  0  0  0  0
 20 24  1  0  0  0  0
 20 17  2  0  0  0  0
 22 20  1  0  0  0  0
 23 18  1  0  0  0  0
 25 22  1  0  0  0  0
M  RAD  4   2   2   8   2   9   3  13   2
M  END
