Coordinates from ORCA-job 1a-Schema5-R6-D+-B3LYPG-6-31G_dp-scan-d49-09-n400
 OpenBabel08281819463D

 25 25  0  0  0  0  0  0  0  0999 V2000
   -3.5961   -0.9612   -3.3560 C   0  0  0  0  0  0  0  0  0  0  0  0
   -2.5189   -0.9360   -2.4735 C   0  0  0  0  0  0  0  0  0  0  0  0
   -2.7358   -0.2066   -1.2953 C   0  0  0  0  0  0  0  0  0  0  0  0
   -3.9335    0.4579   -0.9295 C   0  0  0  0  0  0  0  0  0  0  0  0
   -4.9726    0.3861   -1.8378 C   0  0  0  0  0  0  0  0  0  0  0  0
   -4.8013   -0.3176   -3.0454 C   0  0  0  0  0  0  0  0  0  0  0  0
   -3.5103   -1.4901   -4.3021 H   0  0  0  0  0  0  0  0  0  0  0  0
   -1.6765   -0.1265   -0.4091 N   0  0  0  0  0  0  0  0  0  0  0  0
   -0.8068   -0.0632    0.2875 N   0  0  0  0  0  0  0  0  0  0  0  0
   -5.6256   -0.3578   -3.7527 H   0  0  0  0  0  0  0  0  0  0  0  0
   -5.9154    0.8748   -1.6193 H   0  0  0  0  0  0  0  0  0  0  0  0
   -4.0218    0.9901    0.0122 H   0  0  0  0  0  0  0  0  0  0  0  0
    0.4944   -0.6511   -2.7018 N   0  0  0  0  0  0  0  0  0  0  0  0
   -0.3510   -1.3517   -3.0398 N   0  0  0  0  0  0  0  0  0  0  0  0
   -0.4471   -2.5057   -3.9051 C   0  0  0  0  0  0  0  0  0  0  0  0
    0.5082   -2.6093   -4.9244 C   0  0  0  0  0  0  0  0  0  0  0  0
   -1.4127   -3.4792   -3.6705 C   0  0  0  0  0  0  0  0  0  0  0  0
    0.4678   -3.7345   -5.7421 C   0  0  0  0  0  0  0  0  0  0  0  0
    1.2475   -1.8287   -5.0670 H   0  0  0  0  0  0  0  0  0  0  0  0
   -1.4185   -4.6092   -4.4872 C   0  0  0  0  0  0  0  0  0  0  0  0
   -2.1198   -3.3562   -2.8596 H   0  0  0  0  0  0  0  0  0  0  0  0
   -0.4886   -4.7321   -5.5233 C   0  0  0  0  0  0  0  0  0  0  0  0
    1.1877   -3.8333   -6.5480 H   0  0  0  0  0  0  0  0  0  0  0  0
   -2.1496   -5.3917   -4.3130 H   0  0  0  0  0  0  0  0  0  0  0  0
   -0.5073   -5.6092   -6.1624 H   0  0  0  0  0  0  0  0  0  0  0  0
  1  6  2  0  0  0  0
  1  2  1  0  0  0  0
  2  3  2  0  0  0  0
  3  4  1  0  0  0  0
  3  8  1  0  0  0  0
  4 12  1  0  0  0  0
  5 11  1  0  0  0  0
  5  4  2  0  0  0  0
  6  5  1  0  0  0  0
  7  1  1  0  0  0  0
  8  9  1  0  0  0  0
 10  6  1  0  0  0  0
 14 13  2  0  0  0  0
 15 17  1  0  0  0  0
 15 14  1  0  0  0  0
 16 15  2  0  0  0  0
 17 21  1  0  0  0  0
 18 22  2  0  0  0  0
 18 16  1  0  0  0  0
 19 16  1  0  0  0  0
 20 24  1  0  0  0  0
 20 17  2  0  0  0  0
 22 20  1  0  0  0  0
 23 18  1  0  0  0  0
 25 22  1  0  0  0  0
M  RAD  4   2   2   8   2   9   3  13   2
M  END
