Coordinates from ORCA-job 1a-Schema5-R6-D+-B3LYPG-6-31G_dp-scan-d49-09-n400
 OpenBabel08281819463D

 25 25  0  0  0  0  0  0  0  0999 V2000
   -3.6166   -0.9248   -3.3551 C   0  0  0  0  0  0  0  0  0  0  0  0
   -2.5390   -0.9119   -2.4699 C   0  0  0  0  0  0  0  0  0  0  0  0
   -2.7732   -0.2109   -1.2772 C   0  0  0  0  0  0  0  0  0  0  0  0
   -3.9767    0.4378   -0.8999 C   0  0  0  0  0  0  0  0  0  0  0  0
   -5.0106    0.3787   -1.8141 C   0  0  0  0  0  0  0  0  0  0  0  0
   -4.8278   -0.2974   -3.0365 C   0  0  0  0  0  0  0  0  0  0  0  0
   -3.5258   -1.4327   -4.3124 H   0  0  0  0  0  0  0  0  0  0  0  0
   -1.7168   -0.1456   -0.3871 N   0  0  0  0  0  0  0  0  0  0  0  0
   -0.8457   -0.0984    0.3096 N   0  0  0  0  0  0  0  0  0  0  0  0
   -5.6489   -0.3284   -3.7480 H   0  0  0  0  0  0  0  0  0  0  0  0
   -5.9583    0.8553   -1.5899 H   0  0  0  0  0  0  0  0  0  0  0  0
   -4.0725    0.9485    0.0528 H   0  0  0  0  0  0  0  0  0  0  0  0
    0.5775   -0.6196   -2.7813 N   0  0  0  0  0  0  0  0  0  0  0  0
   -0.2634   -1.3315   -3.0935 N   0  0  0  0  0  0  0  0  0  0  0  0
   -0.3933   -2.4976   -3.9344 C   0  0  0  0  0  0  0  0  0  0  0  0
    0.5575   -2.6420   -4.9546 C   0  0  0  0  0  0  0  0  0  0  0  0
   -1.3818   -3.4423   -3.6794 C   0  0  0  0  0  0  0  0  0  0  0  0
    0.4874   -3.7809   -5.7503 C   0  0  0  0  0  0  0  0  0  0  0  0
    1.3149   -1.8823   -5.1141 H   0  0  0  0  0  0  0  0  0  0  0  0
   -1.4165   -4.5868   -4.4744 C   0  0  0  0  0  0  0  0  0  0  0  0
   -2.0843   -3.2792   -2.8718 H   0  0  0  0  0  0  0  0  0  0  0  0
   -0.4922   -4.7511   -5.5100 C   0  0  0  0  0  0  0  0  0  0  0  0
    1.2023   -3.9120   -6.5560 H   0  0  0  0  0  0  0  0  0  0  0  0
   -2.1665   -5.3475   -4.2849 H   0  0  0  0  0  0  0  0  0  0  0  0
   -0.5336   -5.6391   -6.1328 H   0  0  0  0  0  0  0  0  0  0  0  0
  1  6  2  0  0  0  0
  1  2  1  0  0  0  0
  2  3  2  0  0  0  0
  3  4  1  0  0  0  0
  3  8  1  0  0  0  0
  4 12  1  0  0  0  0
  5 11  1  0  0  0  0
  5  4  2  0  0  0  0
  6  5  1  0  0  0  0
  7  1  1  0  0  0  0
  8  9  1  0  0  0  0
 10  6  1  0  0  0  0
 14 13  2  0  0  0  0
 15 17  1  0  0  0  0
 15 14  1  0  0  0  0
 16 15  2  0  0  0  0
 17 21  1  0  0  0  0
 18 22  2  0  0  0  0
 18 16  1  0  0  0  0
 19 16  1  0  0  0  0
 20 24  1  0  0  0  0
 20 17  2  0  0  0  0
 22 20  1  0  0  0  0
 23 18  1  0  0  0  0
 25 22  1  0  0  0  0
M  RAD  4   2   2   8   2   9   3  13   2
M  END
