Coordinates from ORCA-job 1a-Schema5-R6-D+-B3LYPG-6-31G_dp-scan-d49-09-n400
 OpenBabel08281819463D

 25 25  0  0  0  0  0  0  0  0999 V2000
   -3.7273   -0.6477   -3.3740 C   0  0  0  0  0  0  0  0  0  0  0  0
   -2.6634   -0.8418   -2.4830 C   0  0  0  0  0  0  0  0  0  0  0  0
   -2.9304   -0.3504   -1.1916 C   0  0  0  0  0  0  0  0  0  0  0  0
   -4.1175    0.2825   -0.7357 C   0  0  0  0  0  0  0  0  0  0  0  0
   -5.1190    0.4373   -1.6720 C   0  0  0  0  0  0  0  0  0  0  0  0
   -4.9206   -0.0276   -2.9882 C   0  0  0  0  0  0  0  0  0  0  0  0
   -3.6345   -0.9863   -4.4040 H   0  0  0  0  0  0  0  0  0  0  0  0
   -1.9184   -0.5055   -0.2645 N   0  0  0  0  0  0  0  0  0  0  0  0
   -1.0864   -0.6411    0.4688 N   0  0  0  0  0  0  0  0  0  0  0  0
   -5.7166    0.1046   -3.7166 H   0  0  0  0  0  0  0  0  0  0  0  0
   -6.0523    0.9143   -1.3942 H   0  0  0  0  0  0  0  0  0  0  0  0
   -4.2240    0.6227    0.2894 H   0  0  0  0  0  0  0  0  0  0  0  0
    0.5959   -0.2443   -3.5011 N   0  0  0  0  0  0  0  0  0  0  0  0
   -0.1174   -1.1240   -3.5815 N   0  0  0  0  0  0  0  0  0  0  0  0
   -0.2537   -2.4239   -4.1669 C   0  0  0  0  0  0  0  0  0  0  0  0
    0.7155   -2.7630   -5.1288 C   0  0  0  0  0  0  0  0  0  0  0  0
   -1.2657   -3.2884   -3.7659 C   0  0  0  0  0  0  0  0  0  0  0  0
    0.6379   -4.0255   -5.7014 C   0  0  0  0  0  0  0  0  0  0  0  0
    1.4888   -2.0555   -5.4074 H   0  0  0  0  0  0  0  0  0  0  0  0
   -1.3117   -4.5540   -4.3454 C   0  0  0  0  0  0  0  0  0  0  0  0
   -1.9782   -2.9358   -3.0265 H   0  0  0  0  0  0  0  0  0  0  0  0
   -0.3688   -4.9188   -5.3107 C   0  0  0  0  0  0  0  0  0  0  0  0
    1.3658   -4.3139   -6.4526 H   0  0  0  0  0  0  0  0  0  0  0  0
   -2.0858   -5.2525   -4.0464 H   0  0  0  0  0  0  0  0  0  0  0  0
   -0.4161   -5.9033   -5.7647 H   0  0  0  0  0  0  0  0  0  0  0  0
  1  6  2  0  0  0  0
  1  2  1  0  0  0  0
  2  3  2  0  0  0  0
  3  4  1  0  0  0  0
  3  8  1  0  0  0  0
  4 12  1  0  0  0  0
  5 11  1  0  0  0  0
  5  4  2  0  0  0  0
  6  5  1  0  0  0  0
  7  1  1  0  0  0  0
  8  9  1  0  0  0  0
 10  6  1  0  0  0  0
 14 13  2  0  0  0  0
 15 17  1  0  0  0  0
 15 14  1  0  0  0  0
 16 15  2  0  0  0  0
 17 21  1  0  0  0  0
 18 22  2  0  0  0  0
 18 16  1  0  0  0  0
 19 16  1  0  0  0  0
 20 24  1  0  0  0  0
 20 17  2  0  0  0  0
 22 20  1  0  0  0  0
 23 18  1  0  0  0  0
 25 22  1  0  0  0  0
M  RAD  4   2   2   8   2   9   3  13   2
M  END
