Coordinates from ORCA-job 1a-Schema5-R6-D+-B3LYPG-6-31G_dp-scan-d49-09-n400
 OpenBabel08281819463D

 25 25  0  0  0  0  0  0  0  0999 V2000
   -3.5914   -0.9684   -3.3558 C   0  0  0  0  0  0  0  0  0  0  0  0
   -2.5152   -0.9409   -2.4729 C   0  0  0  0  0  0  0  0  0  0  0  0
   -2.7288   -0.2057   -1.2979 C   0  0  0  0  0  0  0  0  0  0  0  0
   -3.9254    0.4625   -0.9356 C   0  0  0  0  0  0  0  0  0  0  0  0
   -4.9648    0.3886   -1.8435 C   0  0  0  0  0  0  0  0  0  0  0  0
   -4.7954   -0.3208   -3.0478 C   0  0  0  0  0  0  0  0  0  0  0  0
   -3.5060   -1.5017   -4.2993 H   0  0  0  0  0  0  0  0  0  0  0  0
   -1.6701   -0.1232   -0.4111 N   0  0  0  0  0  0  0  0  0  0  0  0
   -0.8024   -0.0567    0.2875 N   0  0  0  0  0  0  0  0  0  0  0  0
   -5.6198   -0.3625   -3.7549 H   0  0  0  0  0  0  0  0  0  0  0  0
   -5.9065    0.8803   -1.6270 H   0  0  0  0  0  0  0  0  0  0  0  0
   -4.0127    0.9991    0.0037 H   0  0  0  0  0  0  0  0  0  0  0  0
    0.4792   -0.6587   -2.6868 N   0  0  0  0  0  0  0  0  0  0  0  0
   -0.3680   -1.3561   -3.0293 N   0  0  0  0  0  0  0  0  0  0  0  0
   -0.4573   -2.5077   -3.8996 C   0  0  0  0  0  0  0  0  0  0  0  0
    0.4972   -2.6024   -4.9201 C   0  0  0  0  0  0  0  0  0  0  0  0
   -1.4172   -3.4876   -3.6679 C   0  0  0  0  0  0  0  0  0  0  0  0
    0.4626   -3.7248   -5.7420 C   0  0  0  0  0  0  0  0  0  0  0  0
    1.2318   -1.8170   -5.0606 H   0  0  0  0  0  0  0  0  0  0  0  0
   -1.4175   -4.6146   -4.4888 C   0  0  0  0  0  0  0  0  0  0  0  0
   -2.1241   -3.3731   -2.8554 H   0  0  0  0  0  0  0  0  0  0  0  0
   -0.4879   -4.7286   -5.5262 C   0  0  0  0  0  0  0  0  0  0  0  0
    1.1822   -3.8166   -6.5489 H   0  0  0  0  0  0  0  0  0  0  0  0
   -2.1440   -5.4019   -4.3167 H   0  0  0  0  0  0  0  0  0  0  0  0
   -0.5023   -5.6035   -6.1684 H   0  0  0  0  0  0  0  0  0  0  0  0
  1  6  2  0  0  0  0
  1  2  1  0  0  0  0
  2  3  2  0  0  0  0
  3  4  1  0  0  0  0
  3  8  1  0  0  0  0
  4 12  1  0  0  0  0
  5 11  1  0  0  0  0
  5  4  2  0  0  0  0
  6  5  1  0  0  0  0
  7  1  1  0  0  0  0
  8  9  1  0  0  0  0
 10  6  1  0  0  0  0
 14 13  2  0  0  0  0
 15 17  1  0  0  0  0
 15 14  1  0  0  0  0
 16 15  2  0  0  0  0
 17 21  1  0  0  0  0
 18 22  2  0  0  0  0
 18 16  1  0  0  0  0
 19 16  1  0  0  0  0
 20 24  1  0  0  0  0
 20 17  2  0  0  0  0
 22 20  1  0  0  0  0
 23 18  1  0  0  0  0
 25 22  1  0  0  0  0
M  RAD  4   2   2   8   2   9   3  13   2
M  END
