Coordinates from ORCA-job 1a-Schema5-R6-D+-B3LYPG-6-31G_dp-scan-d49-09-n400
 OpenBabel08281819463D

 25 26  0  0  0  0  0  0  0  0999 V2000
   -3.4938   -1.0942   -3.3076 C   0  0  0  0  0  0  0  0  0  0  0  0
   -2.3246   -0.9184   -2.5600 C   0  0  0  0  0  0  0  0  0  0  0  0
   -2.4254   -0.0831   -1.4401 C   0  0  0  0  0  0  0  0  0  0  0  0
   -3.6058    0.5269   -1.0209 C   0  0  0  0  0  0  0  0  0  0  0  0
   -4.7557    0.3256   -1.7839 C   0  0  0  0  0  0  0  0  0  0  0  0
   -4.6891   -0.4678   -2.9291 C   0  0  0  0  0  0  0  0  0  0  0  0
   -3.4710   -1.7073   -4.2005 H   0  0  0  0  0  0  0  0  0  0  0  0
   -1.2081    0.1641   -0.7893 N   0  0  0  0  0  0  0  0  0  0  0  0
   -0.6037    0.6152    0.0563 N   0  0  0  0  0  0  0  0  0  0  0  0
   -5.5748   -0.6105   -3.5396 H   0  0  0  0  0  0  0  0  0  0  0  0
   -5.6855    0.8006   -1.4920 H   0  0  0  0  0  0  0  0  0  0  0  0
   -3.6033    1.1598   -0.1402 H   0  0  0  0  0  0  0  0  0  0  0  0
   -0.2857   -0.8739   -2.3253 N   0  0  0  0  0  0  0  0  0  0  0  0
   -1.1282   -1.5076   -2.9062 N   0  0  0  0  0  0  0  0  0  0  0  0
   -0.9048   -2.5930   -3.8635 C   0  0  0  0  0  0  0  0  0  0  0  0
    0.2274   -2.4964   -4.6726 C   0  0  0  0  0  0  0  0  0  0  0  0
   -1.7502   -3.7050   -3.8705 C   0  0  0  0  0  0  0  0  0  0  0  0
    0.5034   -3.5471   -5.5436 C   0  0  0  0  0  0  0  0  0  0  0  0
    0.8656   -1.6218   -4.6116 H   0  0  0  0  0  0  0  0  0  0  0  0
   -1.4473   -4.7511   -4.7419 C   0  0  0  0  0  0  0  0  0  0  0  0
   -2.5981   -3.7766   -3.1979 H   0  0  0  0  0  0  0  0  0  0  0  0
   -0.3308   -4.6696   -5.5785 C   0  0  0  0  0  0  0  0  0  0  0  0
    1.3718   -3.4912   -6.1914 H   0  0  0  0  0  0  0  0  0  0  0  0
   -2.0799   -5.6324   -4.7588 H   0  0  0  0  0  0  0  0  0  0  0  0
   -0.1061   -5.4869   -6.2562 H   0  0  0  0  0  0  0  0  0  0  0  0
  1  6  2  0  0  0  0
  1  2  1  0  0  0  0
  2  3  2  0  0  0  0
  3  4  1  0  0  0  0
  3  8  1  0  0  0  0
  4 12  1  0  0  0  0
  5 11  1  0  0  0  0
  5  4  2  0  0  0  0
  6  5  1  0  0  0  0
  7  1  1  0  0  0  0
  8  9  2  0  0  0  0
 10  6  1  0  0  0  0
 14  2  1  0  0  0  0
 14 13  1  0  0  0  0
 15 14  1  0  0  0  0
 16 19  1  0  0  0  0
 16 15  2  0  0  0  0
 17 15  1  0  0  0  0
 17 21  1  0  0  0  0
 18 16  1  0  0  0  0
 20 17  2  0  0  0  0
 22 18  2  0  0  0  0
 22 20  1  0  0  0  0
 23 18  1  0  0  0  0
 24 20  1  0  0  0  0
 25 22  1  0  0  0  0
M  RAD  2   9   2  13   3
M  END
