Coordinates from ORCA-job 1a-Schema5-R6-D+-B3LYPG-6-31G_dp-scan-d49-09-n400
 OpenBabel08281819463D

 25 26  0  0  0  0  0  0  0  0999 V2000
   -0.4486    0.6493   -2.9512 C   0  0  0  0  0  0  0  0  0  0  0  0
   -1.5146   -0.2973   -2.8768 C   0  0  0  0  0  0  0  0  0  0  0  0
   -2.6984    0.2107   -2.1825 C   0  0  0  0  0  0  0  0  0  0  0  0
   -2.7718    1.5030   -1.6077 C   0  0  0  0  0  0  0  0  0  0  0  0
   -1.6776    2.3396   -1.6970 C   0  0  0  0  0  0  0  0  0  0  0  0
   -0.5192    1.9044   -2.3733 C   0  0  0  0  0  0  0  0  0  0  0  0
    0.4436    0.3241   -3.4742 H   0  0  0  0  0  0  0  0  0  0  0  0
   -3.8280   -0.5390   -2.0869 N   0  0  0  0  0  0  0  0  0  0  0  0
   -4.8355   -1.0189   -1.9632 N   0  0  0  0  0  0  0  0  0  0  0  0
    0.3333    2.5716   -2.4533 H   0  0  0  0  0  0  0  0  0  0  0  0
   -1.7235    3.3334   -1.2668 H   0  0  0  0  0  0  0  0  0  0  0  0
   -3.6891    1.8209   -1.1237 H   0  0  0  0  0  0  0  0  0  0  0  0
   -1.3733   -1.3878   -3.3590 N   0  0  0  0  0  0  0  0  0  0  0  0
   -2.1843   -2.3372   -3.0340 N   0  0  0  0  0  0  0  0  0  0  0  0
   -2.0784   -3.5173   -3.7301 C   0  0  0  0  0  0  0  0  0  0  0  0
   -2.9251   -4.5614   -3.2801 C   0  0  0  0  0  0  0  0  0  0  0  0
   -1.2071   -3.7273   -4.8321 C   0  0  0  0  0  0  0  0  0  0  0  0
   -2.9048   -5.7915   -3.9196 C   0  0  0  0  0  0  0  0  0  0  0  0
   -3.5727   -4.3742   -2.4302 H   0  0  0  0  0  0  0  0  0  0  0  0
   -1.2013   -4.9577   -5.4618 C   0  0  0  0  0  0  0  0  0  0  0  0
   -0.5629   -2.9191   -5.1575 H   0  0  0  0  0  0  0  0  0  0  0  0
   -2.0460   -5.9889   -5.0087 C   0  0  0  0  0  0  0  0  0  0  0  0
   -3.5462   -6.5967   -3.5786 H   0  0  0  0  0  0  0  0  0  0  0  0
   -0.5439   -5.1329   -6.3069 H   0  0  0  0  0  0  0  0  0  0  0  0
   -2.0283   -6.9517   -5.5101 H   0  0  0  0  0  0  0  0  0  0  0  0
  1  2  2  0  0  0  0
  1  6  1  0  0  0  0
  2  3  1  0  0  0  0
  3  8  1  0  0  0  0
  3  4  2  0  0  0  0
  4 12  1  0  0  0  0
  5  4  1  0  0  0  0
  5 11  1  0  0  0  0
  6  5  2  0  0  0  0
  7  1  1  0  0  0  0
  8  9  1  0  0  0  0
 10  6  1  0  0  0  0
 13 14  2  0  0  0  0
 13  2  1  0  0  0  0
 15 16  1  0  0  0  0
 15 14  1  0  0  0  0
 16 19  1  0  0  0  0
 17 15  2  0  0  0  0
 18 23  1  0  0  0  0
 18 16  2  0  0  0  0
 20 22  2  0  0  0  0
 20 17  1  0  0  0  0
 21 17  1  0  0  0  0
 22 18  1  0  0  0  0
 24 20  1  0  0  0  0
 25 22  1  0  0  0  0
M  RAD  2   8   2   9   3
M  END
