Coordinates from ORCA-job 1a-Schema5-R6-D+-B3LYPG-6-31G_dp-scan-d49-09-n400
 OpenBabel08281819463D

 25 25  0  0  0  0  0  0  0  0999 V2000
   -3.8664   -0.4445   -3.2748 C   0  0  0  0  0  0  0  0  0  0  0  0
   -2.9398   -1.0403   -2.3838 C   0  0  0  0  0  0  0  0  0  0  0  0
   -3.2555   -0.6782   -1.0550 C   0  0  0  0  0  0  0  0  0  0  0  0
   -4.2992    0.1510   -0.5608 C   0  0  0  0  0  0  0  0  0  0  0  0
   -5.1371    0.6880   -1.5132 C   0  0  0  0  0  0  0  0  0  0  0  0
   -4.9157    0.3835   -2.8746 C   0  0  0  0  0  0  0  0  0  0  0  0
   -3.7698   -0.6412   -4.3436 H   0  0  0  0  0  0  0  0  0  0  0  0
   -2.4152   -1.2253   -0.1017 N   0  0  0  0  0  0  0  0  0  0  0  0
   -1.7155   -1.6908    0.6367 N   0  0  0  0  0  0  0  0  0  0  0  0
   -5.5853    0.8075   -3.6191 H   0  0  0  0  0  0  0  0  0  0  0  0
   -5.9590    1.3318   -1.2189 H   0  0  0  0  0  0  0  0  0  0  0  0
   -4.4257    0.3467    0.4999 H   0  0  0  0  0  0  0  0  0  0  0  0
    0.0568    0.1523   -4.3499 N   0  0  0  0  0  0  0  0  0  0  0  0
   -0.0175   -0.9576   -4.4397 N   0  0  0  0  0  0  0  0  0  0  0  0
   -0.0467   -2.3249   -4.6121 C   0  0  0  0  0  0  0  0  0  0  0  0
    0.8909   -2.8862   -5.5088 C   0  0  0  0  0  0  0  0  0  0  0  0
   -1.0086   -3.0559   -3.8889 C   0  0  0  0  0  0  0  0  0  0  0  0
    0.8442   -4.2593   -5.6779 C   0  0  0  0  0  0  0  0  0  0  0  0
    1.6064   -2.2643   -6.0352 H   0  0  0  0  0  0  0  0  0  0  0  0
   -1.0154   -4.4310   -4.0965 C   0  0  0  0  0  0  0  0  0  0  0  0
   -1.7022   -2.4945   -3.2205 H   0  0  0  0  0  0  0  0  0  0  0  0
   -0.1035   -5.0252   -4.9769 C   0  0  0  0  0  0  0  0  0  0  0  0
    1.5417   -4.7395   -6.3556 H   0  0  0  0  0  0  0  0  0  0  0  0
   -1.7392   -5.0433   -3.5687 H   0  0  0  0  0  0  0  0  0  0  0  0
   -0.1264   -6.1008   -5.1254 H   0  0  0  0  0  0  0  0  0  0  0  0
  1  6  2  0  0  0  0
  1  2  1  0  0  0  0
  2  3  2  0  0  0  0
  3  4  1  0  0  0  0
  3  8  1  0  0  0  0
  4 12  1  0  0  0  0
  5 11  1  0  0  0  0
  5  4  2  0  0  0  0
  6  5  1  0  0  0  0
  7  1  1  0  0  0  0
  8  9  1  0  0  0  0
 10  6  1  0  0  0  0
 14 13  1  0  0  0  0
 15 14  1  0  0  0  0
 15 17  2  0  0  0  0
 16 15  1  0  0  0  0
 17 21  1  0  0  0  0
 18 16  2  0  0  0  0
 18 22  1  0  0  0  0
 19 16  1  0  0  0  0
 20 17  1  0  0  0  0
 20 24  1  0  0  0  0
 22 20  2  0  0  0  0
 23 18  1  0  0  0  0
 25 22  1  0  0  0  0
M  RAD  5   2   2   8   2   9   3  13   3  14   2
M  END
