Coordinates from ORCA-job 1a-Schema5-R6-D+-B3LYPG-6-31G_dp-scan-d49-09-n400
 OpenBabel08281819463D

 25 25  0  0  0  0  0  0  0  0999 V2000
   -3.5637   -0.9983   -3.3691 C   0  0  0  0  0  0  0  0  0  0  0  0
   -2.4872   -0.9675   -2.4920 C   0  0  0  0  0  0  0  0  0  0  0  0
   -2.6679   -0.2126   -1.3240 C   0  0  0  0  0  0  0  0  0  0  0  0
   -3.8572    0.4705   -0.9678 C   0  0  0  0  0  0  0  0  0  0  0  0
   -4.9061    0.3966   -1.8667 C   0  0  0  0  0  0  0  0  0  0  0  0
   -4.7575   -0.3303   -3.0613 C   0  0  0  0  0  0  0  0  0  0  0  0
   -3.4859   -1.5458   -4.3045 H   0  0  0  0  0  0  0  0  0  0  0  0
   -1.6130   -0.1198   -0.4331 N   0  0  0  0  0  0  0  0  0  0  0  0
   -0.7772   -0.0230    0.2992 N   0  0  0  0  0  0  0  0  0  0  0  0
   -5.5867   -0.3701   -3.7625 H   0  0  0  0  0  0  0  0  0  0  0  0
   -5.8389    0.9041   -1.6477 H   0  0  0  0  0  0  0  0  0  0  0  0
   -3.9331    1.0195   -0.0348 H   0  0  0  0  0  0  0  0  0  0  0  0
    0.3385   -0.6677   -2.6294 N   0  0  0  0  0  0  0  0  0  0  0  0
   -0.5145   -1.3626   -2.9916 N   0  0  0  0  0  0  0  0  0  0  0  0
   -0.5430   -2.5107   -3.8772 C   0  0  0  0  0  0  0  0  0  0  0  0
    0.4234   -2.5599   -4.8872 C   0  0  0  0  0  0  0  0  0  0  0  0
   -1.4644   -3.5318   -3.6659 C   0  0  0  0  0  0  0  0  0  0  0  0
    0.4432   -3.6747   -5.7206 C   0  0  0  0  0  0  0  0  0  0  0  0
    1.1280   -1.7445   -5.0101 H   0  0  0  0  0  0  0  0  0  0  0  0
   -1.4134   -4.6497   -4.4985 C   0  0  0  0  0  0  0  0  0  0  0  0
   -2.1815   -3.4637   -2.8563 H   0  0  0  0  0  0  0  0  0  0  0  0
   -0.4693   -4.7169   -5.5264 C   0  0  0  0  0  0  0  0  0  0  0  0
    1.1752   -3.7304   -6.5197 H   0  0  0  0  0  0  0  0  0  0  0  0
   -2.1094   -5.4671   -4.3411 H   0  0  0  0  0  0  0  0  0  0  0  0
   -0.4421   -5.5854   -6.1769 H   0  0  0  0  0  0  0  0  0  0  0  0
  1  6  2  0  0  0  0
  1  2  1  0  0  0  0
  2  3  2  0  0  0  0
  3  4  1  0  0  0  0
  3  8  1  0  0  0  0
  4 12  1  0  0  0  0
  5 11  1  0  0  0  0
  5  4  2  0  0  0  0
  6  5  1  0  0  0  0
  7  1  1  0  0  0  0
  8  9  1  0  0  0  0
 10  6  1  0  0  0  0
 14 13  2  0  0  0  0
 15 17  1  0  0  0  0
 15 14  1  0  0  0  0
 16 15  2  0  0  0  0
 17 21  1  0  0  0  0
 18 22  2  0  0  0  0
 18 16  1  0  0  0  0
 19 16  1  0  0  0  0
 20 24  1  0  0  0  0
 20 17  2  0  0  0  0
 22 20  1  0  0  0  0
 23 18  1  0  0  0  0
 25 22  1  0  0  0  0
M  RAD  4   2   2   8   2   9   3  13   2
M  END
