Coordinates from ORCA-job 1a-Schema5-R6-D+-B3LYPG-6-31G_dp-scan-d49-09-n400
 OpenBabel08281819463D

 25 25  0  0  0  0  0  0  0  0999 V2000
   -3.6971   -0.6864   -3.3749 C   0  0  0  0  0  0  0  0  0  0  0  0
   -2.6351   -0.8456   -2.4761 C   0  0  0  0  0  0  0  0  0  0  0  0
   -2.9085   -0.3275   -1.1970 C   0  0  0  0  0  0  0  0  0  0  0  0
   -4.1049    0.3003   -0.7591 C   0  0  0  0  0  0  0  0  0  0  0  0
   -5.1062    0.4200   -1.7010 C   0  0  0  0  0  0  0  0  0  0  0  0
   -4.8991   -0.0726   -3.0057 C   0  0  0  0  0  0  0  0  0  0  0  0
   -3.5964   -1.0479   -4.3963 H   0  0  0  0  0  0  0  0  0  0  0  0
   -1.8958   -0.4467   -0.2655 N   0  0  0  0  0  0  0  0  0  0  0  0
   -1.0633   -0.5522    0.4721 N   0  0  0  0  0  0  0  0  0  0  0  0
   -5.6950    0.0326   -3.7386 H   0  0  0  0  0  0  0  0  0  0  0  0
   -6.0461    0.8913   -1.4363 H   0  0  0  0  0  0  0  0  0  0  0  0
   -4.2184    0.6629    0.2575 H   0  0  0  0  0  0  0  0  0  0  0  0
    0.6197   -0.2956   -3.3942 N   0  0  0  0  0  0  0  0  0  0  0  0
   -0.1213   -1.1505   -3.5028 N   0  0  0  0  0  0  0  0  0  0  0  0
   -0.2682   -2.4326   -4.1298 C   0  0  0  0  0  0  0  0  0  0  0  0
    0.6875   -2.7443   -5.1130 C   0  0  0  0  0  0  0  0  0  0  0  0
   -1.2750   -3.3084   -3.7407 C   0  0  0  0  0  0  0  0  0  0  0  0
    0.6015   -3.9896   -5.7217 C   0  0  0  0  0  0  0  0  0  0  0  0
    1.4578   -2.0294   -5.3810 H   0  0  0  0  0  0  0  0  0  0  0  0
   -1.3287   -4.5575   -4.3549 C   0  0  0  0  0  0  0  0  0  0  0  0
   -1.9788   -2.9828   -2.9820 H   0  0  0  0  0  0  0  0  0  0  0  0
   -0.3996   -4.8941   -5.3435 C   0  0  0  0  0  0  0  0  0  0  0  0
    1.3188   -4.2556   -6.4912 H   0  0  0  0  0  0  0  0  0  0  0  0
   -2.0982   -5.2646   -4.0645 H   0  0  0  0  0  0  0  0  0  0  0  0
   -0.4535   -5.8651   -5.8250 H   0  0  0  0  0  0  0  0  0  0  0  0
  1  6  2  0  0  0  0
  1  2  1  0  0  0  0
  2  3  2  0  0  0  0
  3  4  1  0  0  0  0
  3  8  1  0  0  0  0
  4 12  1  0  0  0  0
  5 11  1  0  0  0  0
  5  4  2  0  0  0  0
  6  5  1  0  0  0  0
  7  1  1  0  0  0  0
  8  9  1  0  0  0  0
 10  6  1  0  0  0  0
 14 13  2  0  0  0  0
 15 17  1  0  0  0  0
 15 14  1  0  0  0  0
 16 15  2  0  0  0  0
 17 21  1  0  0  0  0
 18 22  2  0  0  0  0
 18 16  1  0  0  0  0
 19 16  1  0  0  0  0
 20 24  1  0  0  0  0
 20 17  2  0  0  0  0
 22 20  1  0  0  0  0
 23 18  1  0  0  0  0
 25 22  1  0  0  0  0
M  RAD  4   2   2   8   2   9   3  13   2
M  END
