Coordinates from ORCA-job 1a-Schema5-R6-D+-B3LYPG-6-31G_dp-scan-d49-09-n400
 OpenBabel08281819463D

 25 25  0  0  0  0  0  0  0  0999 V2000
   -3.6729   -1.2014   -3.2800 C   0  0  0  0  0  0  0  0  0  0  0  0
   -2.5337   -0.9943   -2.5311 C   0  0  0  0  0  0  0  0  0  0  0  0
   -2.5257   -0.1000   -1.4851 C   0  0  0  0  0  0  0  0  0  0  0  0
   -3.6772    0.6157   -1.0999 C   0  0  0  0  0  0  0  0  0  0  0  0
   -4.8332    0.3982   -1.8398 C   0  0  0  0  0  0  0  0  0  0  0  0
   -4.8323   -0.4930   -2.9215 C   0  0  0  0  0  0  0  0  0  0  0  0
   -3.6807   -1.8814   -4.1251 H   0  0  0  0  0  0  0  0  0  0  0  0
   -1.3479    0.1808   -0.7240 N   0  0  0  0  0  0  0  0  0  0  0  0
   -0.8177    0.6923    0.1239 N   0  0  0  0  0  0  0  0  0  0  0  0
   -5.7414   -0.6374   -3.4977 H   0  0  0  0  0  0  0  0  0  0  0  0
   -5.7389    0.9334   -1.5760 H   0  0  0  0  0  0  0  0  0  0  0  0
   -3.6491    1.3068   -0.2630 H   0  0  0  0  0  0  0  0  0  0  0  0
    0.2041   -1.1498   -2.1077 N   0  0  0  0  0  0  0  0  0  0  0  0
   -0.6828   -1.6182   -2.7311 N   0  0  0  0  0  0  0  0  0  0  0  0
   -0.6263   -2.6326   -3.7698 C   0  0  0  0  0  0  0  0  0  0  0  0
    0.4301   -2.5736   -4.6817 C   0  0  0  0  0  0  0  0  0  0  0  0
   -1.5781   -3.6511   -3.7845 C   0  0  0  0  0  0  0  0  0  0  0  0
    0.5125   -3.5655   -5.6562 C   0  0  0  0  0  0  0  0  0  0  0  0
    1.1551   -1.7689   -4.6280 H   0  0  0  0  0  0  0  0  0  0  0  0
   -1.4639   -4.6468   -4.7545 C   0  0  0  0  0  0  0  0  0  0  0  0
   -2.3584   -3.6907   -3.0326 H   0  0  0  0  0  0  0  0  0  0  0  0
   -0.4293   -4.5983   -5.6925 C   0  0  0  0  0  0  0  0  0  0  0  0
    1.3170   -3.5332   -6.3839 H   0  0  0  0  0  0  0  0  0  0  0  0
   -2.1797   -5.4623   -4.7719 H   0  0  0  0  0  0  0  0  0  0  0  0
   -0.3533   -5.3707   -6.4514 H   0  0  0  0  0  0  0  0  0  0  0  0
  1  6  2  0  0  0  0
  1  2  1  0  0  0  0
  2  3  2  0  0  0  0
  3  4  1  0  0  0  0
  3  8  1  0  0  0  0
  4 12  1  0  0  0  0
  5 11  1  0  0  0  0
  5  4  2  0  0  0  0
  6  5  1  0  0  0  0
  7  1  1  0  0  0  0
  8  9  2  0  0  0  0
 10  6  1  0  0  0  0
 14 13  2  0  0  0  0
 15 14  1  0  0  0  0
 16 19  1  0  0  0  0
 16 15  2  0  0  0  0
 17 15  1  0  0  0  0
 17 21  1  0  0  0  0
 18 16  1  0  0  0  0
 20 17  2  0  0  0  0
 22 18  2  0  0  0  0
 22 20  1  0  0  0  0
 23 18  1  0  0  0  0
 24 20  1  0  0  0  0
 25 22  1  0  0  0  0
M  RAD  3   2   2   9   2  13   2
M  END
