Coordinates from ORCA-job 1a-Schema5-R6-D+-B3LYPG-6-31G_dp-scan-d49-09-n400
 OpenBabel08281819463D

 25 26  0  0  0  0  0  0  0  0999 V2000
   -0.4188    0.0488   -2.0903 C   0  0  0  0  0  0  0  0  0  0  0  0
   -1.6062   -0.7281   -2.0201 C   0  0  0  0  0  0  0  0  0  0  0  0
   -2.8074   -0.0739   -2.4820 C   0  0  0  0  0  0  0  0  0  0  0  0
   -2.8212    1.2568   -2.9959 C   0  0  0  0  0  0  0  0  0  0  0  0
   -1.6355    1.9393   -3.0694 C   0  0  0  0  0  0  0  0  0  0  0  0
   -0.4379    1.3233   -2.6169 C   0  0  0  0  0  0  0  0  0  0  0  0
    0.4990   -0.3949   -1.7216 H   0  0  0  0  0  0  0  0  0  0  0  0
   -3.9735   -0.7459   -2.3917 N   0  0  0  0  0  0  0  0  0  0  0  0
   -4.9436   -1.3045   -2.2899 N   0  0  0  0  0  0  0  0  0  0  0  0
    0.4940    1.8770   -2.6762 H   0  0  0  0  0  0  0  0  0  0  0  0
   -1.6151    2.9517   -3.4546 H   0  0  0  0  0  0  0  0  0  0  0  0
   -3.7626    1.6972   -3.3051 H   0  0  0  0  0  0  0  0  0  0  0  0
   -1.6434   -1.8767   -1.3685 N   0  0  0  0  0  0  0  0  0  0  0  0
   -1.8874   -3.0714   -1.6125 N   0  0  0  0  0  0  0  0  0  0  0  0
   -1.9432   -3.6088   -2.9138 C   0  0  0  0  0  0  0  0  0  0  0  0
   -2.4680   -4.9158   -2.9510 C   0  0  0  0  0  0  0  0  0  0  0  0
   -1.4902   -2.9844   -4.0967 C   0  0  0  0  0  0  0  0  0  0  0  0
   -2.5945   -5.5769   -4.1680 C   0  0  0  0  0  0  0  0  0  0  0  0
   -2.7714   -5.3749   -2.0163 H   0  0  0  0  0  0  0  0  0  0  0  0
   -1.6013   -3.6651   -5.3012 C   0  0  0  0  0  0  0  0  0  0  0  0
   -1.0216   -2.0080   -4.0745 H   0  0  0  0  0  0  0  0  0  0  0  0
   -2.1616   -4.9518   -5.3403 C   0  0  0  0  0  0  0  0  0  0  0  0
   -3.0108   -6.5776   -4.2028 H   0  0  0  0  0  0  0  0  0  0  0  0
   -1.2405   -3.2059   -6.2156 H   0  0  0  0  0  0  0  0  0  0  0  0
   -2.2408   -5.4712   -6.2902 H   0  0  0  0  0  0  0  0  0  0  0  0
  1  2  1  0  0  0  0
  1  7  1  0  0  0  0
  2 13  1  0  0  0  0
  3  8  1  0  0  0  0
  3  2  2  0  0  0  0
  4  3  1  0  0  0  0
  5  4  2  0  0  0  0
  5  6  1  0  0  0  0
  6  1  2  0  0  0  0
  8  9  1  0  0  0  0
 10  6  1  0  0  0  0
 11  5  1  0  0  0  0
 12  4  1  0  0  0  0
 14 13  1  0  0  0  0
 15 14  1  0  0  0  0
 16 15  1  0  0  0  0
 16 19  1  0  0  0  0
 17 21  1  0  0  0  0
 17 15  2  0  0  0  0
 18 16  2  0  0  0  0
 20 17  1  0  0  0  0
 22 20  2  0  0  0  0
 22 18  1  0  0  0  0
 23 18  1  0  0  0  0
 24 20  1  0  0  0  0
 25 22  1  0  0  0  0
M  RAD  4   8   2   9   3  13   2  14   2
M  END
