Coordinates from ORCA-job 1a-Schema5-R6-D+-B3LYPG-6-31G_dp-scan-d49-09-n400
 OpenBabel08281819463D

 25 25  0  0  0  0  0  0  0  0999 V2000
   -3.7096   -0.6699   -3.3761 C   0  0  0  0  0  0  0  0  0  0  0  0
   -2.6465   -0.8446   -2.4812 C   0  0  0  0  0  0  0  0  0  0  0  0
   -2.9155   -0.3378   -1.1964 C   0  0  0  0  0  0  0  0  0  0  0  0
   -4.1074    0.2926   -0.7500 C   0  0  0  0  0  0  0  0  0  0  0  0
   -5.1095    0.4279   -1.6889 C   0  0  0  0  0  0  0  0  0  0  0  0
   -4.9074   -0.0529   -2.9987 C   0  0  0  0  0  0  0  0  0  0  0  0
   -3.6132   -1.0217   -4.4012 H   0  0  0  0  0  0  0  0  0  0  0  0
   -1.9025   -0.4730   -0.2674 N   0  0  0  0  0  0  0  0  0  0  0  0
   -1.0698   -0.5917    0.4679 N   0  0  0  0  0  0  0  0  0  0  0  0
   -5.7038    0.0644   -3.7292 H   0  0  0  0  0  0  0  0  0  0  0  0
   -6.0461    0.9021   -1.4178 H   0  0  0  0  0  0  0  0  0  0  0  0
   -4.2170    0.6455    0.2704 H   0  0  0  0  0  0  0  0  0  0  0  0
    0.6039   -0.2730   -3.4388 N   0  0  0  0  0  0  0  0  0  0  0  0
   -0.1264   -1.1382   -3.5344 N   0  0  0  0  0  0  0  0  0  0  0  0
   -0.2660   -2.4285   -4.1441 C   0  0  0  0  0  0  0  0  0  0  0  0
    0.6971   -2.7507   -5.1172 C   0  0  0  0  0  0  0  0  0  0  0  0
   -1.2741   -3.3013   -3.7516 C   0  0  0  0  0  0  0  0  0  0  0  0
    0.6176   -4.0035   -5.7109 C   0  0  0  0  0  0  0  0  0  0  0  0
    1.4679   -2.0377   -5.3886 H   0  0  0  0  0  0  0  0  0  0  0  0
   -1.3218   -4.5576   -4.3513 C   0  0  0  0  0  0  0  0  0  0  0  0
   -1.9831   -2.9660   -3.0016 H   0  0  0  0  0  0  0  0  0  0  0  0
   -0.3850   -4.9048   -5.3289 C   0  0  0  0  0  0  0  0  0  0  0  0
    1.3409   -4.2778   -6.4717 H   0  0  0  0  0  0  0  0  0  0  0  0
   -2.0926   -5.2622   -4.0583 H   0  0  0  0  0  0  0  0  0  0  0  0
   -0.4340   -5.8816   -5.7989 H   0  0  0  0  0  0  0  0  0  0  0  0
  1  6  2  0  0  0  0
  1  2  1  0  0  0  0
  2  3  2  0  0  0  0
  3  4  1  0  0  0  0
  3  8  1  0  0  0  0
  4 12  1  0  0  0  0
  5 11  1  0  0  0  0
  5  4  2  0  0  0  0
  6  5  1  0  0  0  0
  7  1  1  0  0  0  0
  8  9  1  0  0  0  0
 10  6  1  0  0  0  0
 14 13  2  0  0  0  0
 15 17  1  0  0  0  0
 15 14  1  0  0  0  0
 16 15  2  0  0  0  0
 17 21  1  0  0  0  0
 18 22  2  0  0  0  0
 18 16  1  0  0  0  0
 19 16  1  0  0  0  0
 20 24  1  0  0  0  0
 20 17  2  0  0  0  0
 22 20  1  0  0  0  0
 23 18  1  0  0  0  0
 25 22  1  0  0  0  0
M  RAD  4   2   2   8   2   9   3  13   2
M  END
