Coordinates from ORCA-job 1a-Schema5-R6-D+-B3LYPG-6-31G_dp-scan-d49-09-n400
 OpenBabel08281819463D

 25 25  0  0  0  0  0  0  0  0999 V2000
   -3.9848   -0.5349   -3.2406 C   0  0  0  0  0  0  0  0  0  0  0  0
   -2.9382   -0.9571   -2.3834 C   0  0  0  0  0  0  0  0  0  0  0  0
   -3.2632   -0.6453   -1.0444 C   0  0  0  0  0  0  0  0  0  0  0  0
   -4.4183   -0.0091   -0.5116 C   0  0  0  0  0  0  0  0  0  0  0  0
   -5.3722    0.3634   -1.4324 C   0  0  0  0  0  0  0  0  0  0  0  0
   -5.1486    0.0958   -2.8019 C   0  0  0  0  0  0  0  0  0  0  0  0
   -3.8870   -0.7104   -4.3127 H   0  0  0  0  0  0  0  0  0  0  0  0
   -2.3028   -1.0261   -0.1257 N   0  0  0  0  0  0  0  0  0  0  0  0
   -1.5006   -1.3526    0.5829 N   0  0  0  0  0  0  0  0  0  0  0  0
   -5.9083    0.3930   -3.5212 H   0  0  0  0  0  0  0  0  0  0  0  0
   -6.2833    0.8543   -1.1084 H   0  0  0  0  0  0  0  0  0  0  0  0
   -4.5374    0.1705    0.5526 H   0  0  0  0  0  0  0  0  0  0  0  0
    1.0484    0.1223   -4.4746 N   0  0  0  0  0  0  0  0  0  0  0  0
    0.7108   -0.9382   -4.5603 N   0  0  0  0  0  0  0  0  0  0  0  0
    0.3191   -2.2515   -4.6855 C   0  0  0  0  0  0  0  0  0  0  0  0
    1.1141   -3.0854   -5.5069 C   0  0  0  0  0  0  0  0  0  0  0  0
   -0.8377   -2.6632   -3.9935 C   0  0  0  0  0  0  0  0  0  0  0  0
    0.7129   -4.4033   -5.6326 C   0  0  0  0  0  0  0  0  0  0  0  0
    1.9944   -2.7005   -6.0100 H   0  0  0  0  0  0  0  0  0  0  0  0
   -1.1960   -3.9975   -4.1587 C   0  0  0  0  0  0  0  0  0  0  0  0
   -1.4542   -1.9718   -3.3571 H   0  0  0  0  0  0  0  0  0  0  0  0
   -0.4372   -4.8556   -4.9620 C   0  0  0  0  0  0  0  0  0  0  0  0
    1.2893   -5.0826   -6.2508 H   0  0  0  0  0  0  0  0  0  0  0  0
   -2.0833   -4.3638   -3.6525 H   0  0  0  0  0  0  0  0  0  0  0  0
   -0.7396   -5.8924   -5.0737 H   0  0  0  0  0  0  0  0  0  0  0  0
  1  6  2  0  0  0  0
  1  2  1  0  0  0  0
  2  3  2  0  0  0  0
  3  4  1  0  0  0  0
  3  8  1  0  0  0  0
  4 12  1  0  0  0  0
  5 11  1  0  0  0  0
  5  4  2  0  0  0  0
  6  5  1  0  0  0  0
  7  1  1  0  0  0  0
  8  9  1  0  0  0  0
 10  6  1  0  0  0  0
 14 13  1  0  0  0  0
 15 14  1  0  0  0  0
 15 17  2  0  0  0  0
 16 15  1  0  0  0  0
 17 21  1  0  0  0  0
 18 16  2  0  0  0  0
 18 22  1  0  0  0  0
 19 16  1  0  0  0  0
 20 17  1  0  0  0  0
 20 24  1  0  0  0  0
 22 20  2  0  0  0  0
 23 18  1  0  0  0  0
 25 22  1  0  0  0  0
M  RAD  5   2   2   8   2   9   3  13   3  14   2
M  END
