Coordinates from ORCA-job 1a-Schema5-R6-D+-B3LYPG-6-31G_dp-scan-d49-09-n400
 OpenBabel08281819463D

 25 25  0  0  0  0  0  0  0  0999 V2000
   -3.9608   -0.4804   -3.2536 C   0  0  0  0  0  0  0  0  0  0  0  0
   -2.9516   -0.9839   -2.3955 C   0  0  0  0  0  0  0  0  0  0  0  0
   -3.2661   -0.6704   -1.0543 C   0  0  0  0  0  0  0  0  0  0  0  0
   -4.3798    0.0351   -0.5207 C   0  0  0  0  0  0  0  0  0  0  0  0
   -5.2982    0.4857   -1.4428 C   0  0  0  0  0  0  0  0  0  0  0  0
   -5.0824    0.2225   -2.8143 C   0  0  0  0  0  0  0  0  0  0  0  0
   -3.8683   -0.6494   -4.3273 H   0  0  0  0  0  0  0  0  0  0  0  0
   -2.3430   -1.1302   -0.1333 N   0  0  0  0  0  0  0  0  0  0  0  0
   -1.5729   -1.5222    0.5776 N   0  0  0  0  0  0  0  0  0  0  0  0
   -5.8144    0.5801   -3.5347 H   0  0  0  0  0  0  0  0  0  0  0  0
   -6.1767    1.0326   -1.1181 H   0  0  0  0  0  0  0  0  0  0  0  0
   -4.4958    0.2062    0.5453 H   0  0  0  0  0  0  0  0  0  0  0  0
    0.6850    0.1660   -4.4636 N   0  0  0  0  0  0  0  0  0  0  0  0
    0.4608   -0.9236   -4.5543 N   0  0  0  0  0  0  0  0  0  0  0  0
    0.2018   -2.2696   -4.6801 C   0  0  0  0  0  0  0  0  0  0  0  0
    1.0643   -3.0244   -5.5087 C   0  0  0  0  0  0  0  0  0  0  0  0
   -0.9049   -2.7864   -3.9767 C   0  0  0  0  0  0  0  0  0  0  0  0
    0.7863   -4.3744   -5.6294 C   0  0  0  0  0  0  0  0  0  0  0  0
    1.8994   -2.5593   -6.0208 H   0  0  0  0  0  0  0  0  0  0  0  0
   -1.1395   -4.1484   -4.1370 C   0  0  0  0  0  0  0  0  0  0  0  0
   -1.5566   -2.1263   -3.3415 H   0  0  0  0  0  0  0  0  0  0  0  0
   -0.3103   -4.9315   -4.9479 C   0  0  0  0  0  0  0  0  0  0  0  0
    1.4176   -4.9981   -6.2527 H   0  0  0  0  0  0  0  0  0  0  0  0
   -1.9826   -4.5992   -3.6236 H   0  0  0  0  0  0  0  0  0  0  0  0
   -0.5152   -5.9923   -5.0571 H   0  0  0  0  0  0  0  0  0  0  0  0
  1  6  2  0  0  0  0
  1  2  1  0  0  0  0
  2  3  2  0  0  0  0
  3  4  1  0  0  0  0
  3  8  1  0  0  0  0
  4 12  1  0  0  0  0
  5 11  1  0  0  0  0
  5  4  2  0  0  0  0
  6  5  1  0  0  0  0
  7  1  1  0  0  0  0
  8  9  1  0  0  0  0
 10  6  1  0  0  0  0
 14 13  1  0  0  0  0
 15 14  1  0  0  0  0
 15 17  2  0  0  0  0
 16 15  1  0  0  0  0
 17 21  1  0  0  0  0
 18 16  2  0  0  0  0
 18 22  1  0  0  0  0
 19 16  1  0  0  0  0
 20 17  1  0  0  0  0
 20 24  1  0  0  0  0
 22 20  2  0  0  0  0
 23 18  1  0  0  0  0
 25 22  1  0  0  0  0
M  RAD  5   2   2   8   2   9   3  13   3  14   2
M  END
