Coordinates from ORCA-job 1a-Schema5-R6-D+-B3LYPG-6-31G_dp-scan-d49-09-n400
 OpenBabel08281819463D

 25 25  0  0  0  0  0  0  0  0999 V2000
   -3.9130   -0.4571   -3.2664 C   0  0  0  0  0  0  0  0  0  0  0  0
   -2.9577   -1.0314   -2.3914 C   0  0  0  0  0  0  0  0  0  0  0  0
   -3.2621   -0.6800   -1.0570 C   0  0  0  0  0  0  0  0  0  0  0  0
   -4.3196    0.1204   -0.5443 C   0  0  0  0  0  0  0  0  0  0  0  0
   -5.1860    0.6370   -1.4822 C   0  0  0  0  0  0  0  0  0  0  0  0
   -4.9774    0.3416   -2.8479 C   0  0  0  0  0  0  0  0  0  0  0  0
   -3.8260   -0.6476   -4.3370 H   0  0  0  0  0  0  0  0  0  0  0  0
   -2.3928   -1.2069   -0.1190 N   0  0  0  0  0  0  0  0  0  0  0  0
   -1.6688   -1.6555    0.6065 N   0  0  0  0  0  0  0  0  0  0  0  0
   -5.6693    0.7499   -3.5809 H   0  0  0  0  0  0  0  0  0  0  0  0
   -6.0199    1.2582   -1.1736 H   0  0  0  0  0  0  0  0  0  0  0  0
   -4.4344    0.3106    0.5186 H   0  0  0  0  0  0  0  0  0  0  0  0
    0.2312    0.1661   -4.3865 N   0  0  0  0  0  0  0  0  0  0  0  0
    0.1311   -0.9408   -4.4865 N   0  0  0  0  0  0  0  0  0  0  0  0
    0.0359   -2.3059   -4.6421 C   0  0  0  0  0  0  0  0  0  0  0  0
    0.9620   -2.9318   -5.5076 C   0  0  0  0  0  0  0  0  0  0  0  0
   -0.9818   -2.9688   -3.9285 C   0  0  0  0  0  0  0  0  0  0  0  0
    0.8443   -4.3027   -5.6557 C   0  0  0  0  0  0  0  0  0  0  0  0
    1.7223   -2.3584   -6.0265 H   0  0  0  0  0  0  0  0  0  0  0  0
   -1.0577   -4.3451   -4.1156 C   0  0  0  0  0  0  0  0  0  0  0  0
   -1.6687   -2.3721   -3.2763 H   0  0  0  0  0  0  0  0  0  0  0  0
   -0.1601   -5.0032   -4.9646 C   0  0  0  0  0  0  0  0  0  0  0  0
    1.5297   -4.8322   -6.3085 H   0  0  0  0  0  0  0  0  0  0  0  0
   -1.8262   -4.9077   -3.5957 H   0  0  0  0  0  0  0  0  0  0  0  0
   -0.2388   -6.0785   -5.0962 H   0  0  0  0  0  0  0  0  0  0  0  0
  1  6  2  0  0  0  0
  1  2  1  0  0  0  0
  2  3  2  0  0  0  0
  3  4  1  0  0  0  0
  3  8  1  0  0  0  0
  4 12  1  0  0  0  0
  5 11  1  0  0  0  0
  5  4  2  0  0  0  0
  6  5  1  0  0  0  0
  7  1  1  0  0  0  0
  8  9  1  0  0  0  0
 10  6  1  0  0  0  0
 14 13  1  0  0  0  0
 15 14  1  0  0  0  0
 15 17  2  0  0  0  0
 16 15  1  0  0  0  0
 17 21  1  0  0  0  0
 18 16  2  0  0  0  0
 18 22  1  0  0  0  0
 19 16  1  0  0  0  0
 20 17  1  0  0  0  0
 20 24  1  0  0  0  0
 22 20  2  0  0  0  0
 23 18  1  0  0  0  0
 25 22  1  0  0  0  0
M  RAD  5   2   2   8   2   9   3  13   3  14   2
M  END
