Coordinates from ORCA-job 1a-Schema5-R6-D+-B3LYPG-6-31G_dp-scan-d49-09-n400
 OpenBabel08281819463D

 25 25  0  0  0  0  0  0  0  0999 V2000
   -3.5844   -0.9764   -3.3596 C   0  0  0  0  0  0  0  0  0  0  0  0
   -2.5083   -0.9495   -2.4781 C   0  0  0  0  0  0  0  0  0  0  0  0
   -2.7125   -0.2088   -1.3049 C   0  0  0  0  0  0  0  0  0  0  0  0
   -3.9062    0.4651   -0.9442 C   0  0  0  0  0  0  0  0  0  0  0  0
   -4.9481    0.3924   -1.8498 C   0  0  0  0  0  0  0  0  0  0  0  0
   -4.7850   -0.3220   -3.0516 C   0  0  0  0  0  0  0  0  0  0  0  0
   -3.5017   -1.5134   -4.3011 H   0  0  0  0  0  0  0  0  0  0  0  0
   -1.6542   -0.1258   -0.4176 N   0  0  0  0  0  0  0  0  0  0  0  0
   -0.7919   -0.0544    0.2869 N   0  0  0  0  0  0  0  0  0  0  0  0
   -5.6108   -0.3623   -3.7570 H   0  0  0  0  0  0  0  0  0  0  0  0
   -5.8869    0.8894   -1.6327 H   0  0  0  0  0  0  0  0  0  0  0  0
   -3.9897    1.0051   -0.0066 H   0  0  0  0  0  0  0  0  0  0  0  0
    0.4361   -0.6580   -2.6728 N   0  0  0  0  0  0  0  0  0  0  0  0
   -0.4114   -1.3561   -3.0197 N   0  0  0  0  0  0  0  0  0  0  0  0
   -0.4822   -2.5078   -3.8935 C   0  0  0  0  0  0  0  0  0  0  0  0
    0.4762   -2.5897   -4.9109 C   0  0  0  0  0  0  0  0  0  0  0  0
   -1.4307   -3.5000   -3.6672 C   0  0  0  0  0  0  0  0  0  0  0  0
    0.4580   -3.7107   -5.7353 C   0  0  0  0  0  0  0  0  0  0  0  0
    1.2018   -1.7951   -5.0469 H   0  0  0  0  0  0  0  0  0  0  0  0
   -1.4154   -4.6252   -4.4906 C   0  0  0  0  0  0  0  0  0  0  0  0
   -2.1411   -3.3989   -2.8558 H   0  0  0  0  0  0  0  0  0  0  0  0
   -0.4812   -4.7261   -5.5251 C   0  0  0  0  0  0  0  0  0  0  0  0
    1.1816   -3.7923   -6.5398 H   0  0  0  0  0  0  0  0  0  0  0  0
   -2.1328   -5.4216   -4.3223 H   0  0  0  0  0  0  0  0  0  0  0  0
   -0.4829   -5.5999   -6.1691 H   0  0  0  0  0  0  0  0  0  0  0  0
  1  6  2  0  0  0  0
  1  2  1  0  0  0  0
  2  3  2  0  0  0  0
  3  4  1  0  0  0  0
  3  8  1  0  0  0  0
  4 12  1  0  0  0  0
  5 11  1  0  0  0  0
  5  4  2  0  0  0  0
  6  5  1  0  0  0  0
  7  1  1  0  0  0  0
  8  9  1  0  0  0  0
 10  6  1  0  0  0  0
 14 13  2  0  0  0  0
 15 17  1  0  0  0  0
 15 14  1  0  0  0  0
 16 15  2  0  0  0  0
 17 21  1  0  0  0  0
 18 22  2  0  0  0  0
 18 16  1  0  0  0  0
 19 16  1  0  0  0  0
 20 24  1  0  0  0  0
 20 17  2  0  0  0  0
 22 20  1  0  0  0  0
 23 18  1  0  0  0  0
 25 22  1  0  0  0  0
M  RAD  4   2   2   8   2   9   3  13   2
M  END
