Coordinates from ORCA-job 1a-Schema5-R6-D+-B3LYPG-6-31G_dp-scan-d49-09-n400
 OpenBabel08281819463D

 25 26  0  0  0  0  0  0  0  0999 V2000
   -0.4082    0.0704   -2.0822 C   0  0  0  0  0  0  0  0  0  0  0  0
   -1.5559   -0.7444   -2.0137 C   0  0  0  0  0  0  0  0  0  0  0  0
   -2.7742   -0.1621   -2.4946 C   0  0  0  0  0  0  0  0  0  0  0  0
   -2.8455    1.1458   -3.0511 C   0  0  0  0  0  0  0  0  0  0  0  0
   -1.6852    1.8769   -3.1353 C   0  0  0  0  0  0  0  0  0  0  0  0
   -0.4709    1.3311   -2.6519 C   0  0  0  0  0  0  0  0  0  0  0  0
    0.5212   -0.3211   -1.6838 H   0  0  0  0  0  0  0  0  0  0  0  0
   -3.9157   -0.8856   -2.3966 N   0  0  0  0  0  0  0  0  0  0  0  0
   -4.8620   -1.4781   -2.2897 N   0  0  0  0  0  0  0  0  0  0  0  0
    0.4370    1.9225   -2.7178 H   0  0  0  0  0  0  0  0  0  0  0  0
   -1.7052    2.8762   -3.5537 H   0  0  0  0  0  0  0  0  0  0  0  0
   -3.8007    1.5375   -3.3829 H   0  0  0  0  0  0  0  0  0  0  0  0
   -1.5549   -1.9120   -1.2573 N   0  0  0  0  0  0  0  0  0  0  0  0
   -1.7973   -3.0956   -1.5576 N   0  0  0  0  0  0  0  0  0  0  0  0
   -1.9028   -3.5890   -2.8763 C   0  0  0  0  0  0  0  0  0  0  0  0
   -2.5375   -4.8439   -2.9528 C   0  0  0  0  0  0  0  0  0  0  0  0
   -1.3822   -2.9806   -4.0382 C   0  0  0  0  0  0  0  0  0  0  0  0
   -2.7180   -5.4552   -4.1891 C   0  0  0  0  0  0  0  0  0  0  0  0
   -2.8815   -5.3042   -2.0329 H   0  0  0  0  0  0  0  0  0  0  0  0
   -1.5420   -3.6173   -5.2627 C   0  0  0  0  0  0  0  0  0  0  0  0
   -0.8181   -2.0575   -3.9843 H   0  0  0  0  0  0  0  0  0  0  0  0
   -2.2204   -4.8423   -5.3422 C   0  0  0  0  0  0  0  0  0  0  0  0
   -3.2213   -6.4138   -4.2528 H   0  0  0  0  0  0  0  0  0  0  0  0
   -1.1251   -3.1716   -6.1597 H   0  0  0  0  0  0  0  0  0  0  0  0
   -2.3373   -5.3279   -6.3059 H   0  0  0  0  0  0  0  0  0  0  0  0
  1  2  1  0  0  0  0
  1  7  1  0  0  0  0
  2 13  1  0  0  0  0
  3  8  1  0  0  0  0
  3  2  2  0  0  0  0
  4  3  1  0  0  0  0
  5  4  2  0  0  0  0
  5  6  1  0  0  0  0
  6  1  2  0  0  0  0
  8  9  1  0  0  0  0
 10  6  1  0  0  0  0
 11  5  1  0  0  0  0
 12  4  1  0  0  0  0
 14 13  2  0  0  0  0
 15 14  1  0  0  0  0
 16 15  1  0  0  0  0
 16 19  1  0  0  0  0
 17 21  1  0  0  0  0
 17 15  2  0  0  0  0
 18 16  2  0  0  0  0
 20 17  1  0  0  0  0
 22 20  2  0  0  0  0
 22 18  1  0  0  0  0
 23 18  1  0  0  0  0
 24 20  1  0  0  0  0
 25 22  1  0  0  0  0
M  RAD  2   8   2   9   3
M  END
