Coordinates from ORCA-job 1a-Schema5-R6-D+-B3LYPG-6-31G_dp-scan-d49-09-n400
 OpenBabel08281819463D

 25 25  0  0  0  0  0  0  0  0999 V2000
   -3.6186   -0.9216   -3.3550 C   0  0  0  0  0  0  0  0  0  0  0  0
   -2.5407   -0.9093   -2.4698 C   0  0  0  0  0  0  0  0  0  0  0  0
   -2.7764   -0.2108   -1.2758 C   0  0  0  0  0  0  0  0  0  0  0  0
   -3.9805    0.4361   -0.8974 C   0  0  0  0  0  0  0  0  0  0  0  0
   -5.0142    0.3778   -1.8119 C   0  0  0  0  0  0  0  0  0  0  0  0
   -4.8304   -0.2960   -3.0355 C   0  0  0  0  0  0  0  0  0  0  0  0
   -3.5273   -1.4276   -4.3132 H   0  0  0  0  0  0  0  0  0  0  0  0
   -1.7203   -0.1464   -0.3854 N   0  0  0  0  0  0  0  0  0  0  0  0
   -0.8493   -0.1004    0.3116 N   0  0  0  0  0  0  0  0  0  0  0  0
   -5.6514   -0.3265   -3.7472 H   0  0  0  0  0  0  0  0  0  0  0  0
   -5.9625    0.8530   -1.5870 H   0  0  0  0  0  0  0  0  0  0  0  0
   -4.0770    0.9450    0.0562 H   0  0  0  0  0  0  0  0  0  0  0  0
    0.5853   -0.6176   -2.7873 N   0  0  0  0  0  0  0  0  0  0  0  0
   -0.2549   -1.3303   -3.0980 N   0  0  0  0  0  0  0  0  0  0  0  0
   -0.3881   -2.4972   -3.9368 C   0  0  0  0  0  0  0  0  0  0  0  0
    0.5622   -2.6453   -4.9572 C   0  0  0  0  0  0  0  0  0  0  0  0
   -1.3788   -3.4391   -3.6802 C   0  0  0  0  0  0  0  0  0  0  0  0
    0.4892   -3.7851   -5.7511 C   0  0  0  0  0  0  0  0  0  0  0  0
    1.3213   -1.8876   -5.1179 H   0  0  0  0  0  0  0  0  0  0  0  0
   -1.4164   -4.5846   -4.4735 C   0  0  0  0  0  0  0  0  0  0  0  0
   -2.0809   -3.2724   -2.8729 H   0  0  0  0  0  0  0  0  0  0  0  0
   -0.4928   -4.7526   -5.5092 C   0  0  0  0  0  0  0  0  0  0  0  0
    1.2035   -3.9190   -6.5568 H   0  0  0  0  0  0  0  0  0  0  0  0
   -2.1683   -5.3431   -4.2829 H   0  0  0  0  0  0  0  0  0  0  0  0
   -0.5365   -5.6413   -6.1307 H   0  0  0  0  0  0  0  0  0  0  0  0
  1  6  2  0  0  0  0
  1  2  1  0  0  0  0
  2  3  2  0  0  0  0
  3  4  1  0  0  0  0
  3  8  1  0  0  0  0
  4 12  1  0  0  0  0
  5 11  1  0  0  0  0
  5  4  2  0  0  0  0
  6  5  1  0  0  0  0
  7  1  1  0  0  0  0
  8  9  1  0  0  0  0
 10  6  1  0  0  0  0
 14 13  2  0  0  0  0
 15 17  1  0  0  0  0
 15 14  1  0  0  0  0
 16 15  2  0  0  0  0
 17 21  1  0  0  0  0
 18 22  2  0  0  0  0
 18 16  1  0  0  0  0
 19 16  1  0  0  0  0
 20 24  1  0  0  0  0
 20 17  2  0  0  0  0
 22 20  1  0  0  0  0
 23 18  1  0  0  0  0
 25 22  1  0  0  0  0
M  RAD  4   2   2   8   2   9   3  13   2
M  END
