Coordinates from ORCA-job 1a-Schema5-R6-D+-B3LYPG-6-31G_dp-scan-d49-09-n400
 OpenBabel08281819463D

 25 26  0  0  0  0  0  0  0  0999 V2000
   -3.5559   -1.2152   -3.3133 C   0  0  0  0  0  0  0  0  0  0  0  0
   -2.4453   -0.9946   -2.5269 C   0  0  0  0  0  0  0  0  0  0  0  0
   -2.4496   -0.0949   -1.4803 C   0  0  0  0  0  0  0  0  0  0  0  0
   -3.5974    0.6193   -1.1316 C   0  0  0  0  0  0  0  0  0  0  0  0
   -4.7406    0.3931   -1.9003 C   0  0  0  0  0  0  0  0  0  0  0  0
   -4.7188   -0.5024   -2.9754 C   0  0  0  0  0  0  0  0  0  0  0  0
   -3.5364   -1.8968   -4.1544 H   0  0  0  0  0  0  0  0  0  0  0  0
   -1.2230    0.1192   -0.7646 N   0  0  0  0  0  0  0  0  0  0  0  0
   -0.7512    0.6775    0.1005 N   0  0  0  0  0  0  0  0  0  0  0  0
   -5.6155   -0.6493   -3.5687 H   0  0  0  0  0  0  0  0  0  0  0  0
   -5.6527    0.9296   -1.6622 H   0  0  0  0  0  0  0  0  0  0  0  0
   -3.5867    1.3208   -0.3038 H   0  0  0  0  0  0  0  0  0  0  0  0
    0.0232   -1.2503   -2.0142 N   0  0  0  0  0  0  0  0  0  0  0  0
   -0.9402   -1.6158   -2.6872 N   0  0  0  0  0  0  0  0  0  0  0  0
   -0.7994   -2.6252   -3.7389 C   0  0  0  0  0  0  0  0  0  0  0  0
    0.2411   -2.4689   -4.6560 C   0  0  0  0  0  0  0  0  0  0  0  0
   -1.6458   -3.7361   -3.7488 C   0  0  0  0  0  0  0  0  0  0  0  0
    0.4171   -3.4482   -5.6315 C   0  0  0  0  0  0  0  0  0  0  0  0
    0.8865   -1.5989   -4.6046 H   0  0  0  0  0  0  0  0  0  0  0  0
   -1.4422   -4.7139   -4.7230 C   0  0  0  0  0  0  0  0  0  0  0  0
   -2.4143   -3.8621   -2.9928 H   0  0  0  0  0  0  0  0  0  0  0  0
   -0.4208   -4.5665   -5.6654 C   0  0  0  0  0  0  0  0  0  0  0  0
    1.2129   -3.3389   -6.3610 H   0  0  0  0  0  0  0  0  0  0  0  0
   -2.0757   -5.5947   -4.7370 H   0  0  0  0  0  0  0  0  0  0  0  0
   -0.2730   -5.3288   -6.4237 H   0  0  0  0  0  0  0  0  0  0  0  0
  1  6  2  0  0  0  0
  1  2  1  0  0  0  0
  2  3  2  0  0  0  0
  3  4  1  0  0  0  0
  3  8  1  0  0  0  0
  4 12  1  0  0  0  0
  5 11  1  0  0  0  0
  5  4  2  0  0  0  0
  6  5  1  0  0  0  0
  7  1  1  0  0  0  0
  8  9  2  0  0  0  0
 10  6  1  0  0  0  0
 14  2  1  0  0  0  0
 14 13  1  0  0  0  0
 15 14  1  0  0  0  0
 16 19  1  0  0  0  0
 16 15  2  0  0  0  0
 17 15  1  0  0  0  0
 17 21  1  0  0  0  0
 18 16  1  0  0  0  0
 20 17  2  0  0  0  0
 22 18  2  0  0  0  0
 22 20  1  0  0  0  0
 23 18  1  0  0  0  0
 24 20  1  0  0  0  0
 25 22  1  0  0  0  0
M  RAD  2   9   2  13   3
M  END
