Coordinates from ORCA-job 1a-Schema5-R6-D+-B3LYPG-6-31G_dp-scan-d49-09-n400
 OpenBabel08281819463D

 25 26  0  0  0  0  0  0  0  0999 V2000
   -0.4047    0.0933   -2.1027 C   0  0  0  0  0  0  0  0  0  0  0  0
   -1.5174   -0.7490   -2.0417 C   0  0  0  0  0  0  0  0  0  0  0  0
   -2.7499   -0.2216   -2.5139 C   0  0  0  0  0  0  0  0  0  0  0  0
   -2.8759    1.0732   -3.0828 C   0  0  0  0  0  0  0  0  0  0  0  0
   -1.7384    1.8464   -3.1730 C   0  0  0  0  0  0  0  0  0  0  0  0
   -0.5087    1.3526   -2.6857 C   0  0  0  0  0  0  0  0  0  0  0  0
    0.5362   -0.2590   -1.6938 H   0  0  0  0  0  0  0  0  0  0  0  0
   -3.8679   -0.9938   -2.4157 N   0  0  0  0  0  0  0  0  0  0  0  0
   -4.7903   -1.6189   -2.3123 N   0  0  0  0  0  0  0  0  0  0  0  0
    0.3771    1.9763   -2.7559 H   0  0  0  0  0  0  0  0  0  0  0  0
   -1.7955    2.8398   -3.6024 H   0  0  0  0  0  0  0  0  0  0  0  0
   -3.8432    1.4281   -3.4208 H   0  0  0  0  0  0  0  0  0  0  0  0
   -1.4758   -1.9725   -1.1550 N   0  0  0  0  0  0  0  0  0  0  0  0
   -1.6952   -3.1389   -1.5109 N   0  0  0  0  0  0  0  0  0  0  0  0
   -1.8560   -3.5964   -2.8402 C   0  0  0  0  0  0  0  0  0  0  0  0
   -2.6011   -4.7847   -2.9513 C   0  0  0  0  0  0  0  0  0  0  0  0
   -1.2691   -3.0123   -3.9797 C   0  0  0  0  0  0  0  0  0  0  0  0
   -2.8305   -5.3411   -4.2057 C   0  0  0  0  0  0  0  0  0  0  0  0
   -2.9896   -5.2404   -2.0468 H   0  0  0  0  0  0  0  0  0  0  0  0
   -1.4763   -3.6002   -5.2236 C   0  0  0  0  0  0  0  0  0  0  0  0
   -0.6152   -2.1531   -3.8927 H   0  0  0  0  0  0  0  0  0  0  0  0
   -2.2683   -4.7495   -5.3406 C   0  0  0  0  0  0  0  0  0  0  0  0
   -3.4203   -6.2469   -4.2970 H   0  0  0  0  0  0  0  0  0  0  0  0
   -1.0057   -3.1751   -6.1040 H   0  0  0  0  0  0  0  0  0  0  0  0
   -2.4221   -5.1985   -6.3168 H   0  0  0  0  0  0  0  0  0  0  0  0
  1  2  1  0  0  0  0
  1  7  1  0  0  0  0
  2 13  1  0  0  0  0
  3  8  1  0  0  0  0
  3  2  2  0  0  0  0
  4  3  1  0  0  0  0
  5  4  2  0  0  0  0
  5  6  1  0  0  0  0
  6  1  2  0  0  0  0
  8  9  1  0  0  0  0
 10  6  1  0  0  0  0
 11  5  1  0  0  0  0
 12  4  1  0  0  0  0
 14 13  2  0  0  0  0
 15 14  1  0  0  0  0
 16 15  1  0  0  0  0
 16 19  1  0  0  0  0
 17 21  1  0  0  0  0
 17 15  2  0  0  0  0
 18 16  2  0  0  0  0
 20 17  1  0  0  0  0
 22 20  2  0  0  0  0
 22 18  1  0  0  0  0
 23 18  1  0  0  0  0
 24 20  1  0  0  0  0
 25 22  1  0  0  0  0
M  RAD  2   8   2   9   3
M  END
