Coordinates from ORCA-job 1a-Schema5-R6-D+-B3LYPG-6-31G_dp-scan-d49-09-n400
 OpenBabel08281819463D

 25 26  0  0  0  0  0  0  0  0999 V2000
   -3.5310   -1.2055   -3.3094 C   0  0  0  0  0  0  0  0  0  0  0  0
   -2.4108   -0.9927   -2.5268 C   0  0  0  0  0  0  0  0  0  0  0  0
   -2.4330   -0.0902   -1.4748 C   0  0  0  0  0  0  0  0  0  0  0  0
   -3.5817    0.6181   -1.1279 C   0  0  0  0  0  0  0  0  0  0  0  0
   -4.7252    0.3926   -1.8978 C   0  0  0  0  0  0  0  0  0  0  0  0
   -4.6969   -0.4990   -2.9745 C   0  0  0  0  0  0  0  0  0  0  0  0
   -3.5106   -1.8829   -4.1537 H   0  0  0  0  0  0  0  0  0  0  0  0
   -1.2046    0.1113   -0.7740 N   0  0  0  0  0  0  0  0  0  0  0  0
   -0.7152    0.6609    0.0899 N   0  0  0  0  0  0  0  0  0  0  0  0
   -5.5909   -0.6479   -3.5711 H   0  0  0  0  0  0  0  0  0  0  0  0
   -5.6389    0.9260   -1.6592 H   0  0  0  0  0  0  0  0  0  0  0  0
   -3.5725    1.3174   -0.2984 H   0  0  0  0  0  0  0  0  0  0  0  0
   -0.0622   -1.2315   -2.0232 N   0  0  0  0  0  0  0  0  0  0  0  0
   -1.0171   -1.6052   -2.7079 N   0  0  0  0  0  0  0  0  0  0  0  0
   -0.8475   -2.6226   -3.7521 C   0  0  0  0  0  0  0  0  0  0  0  0
    0.2027   -2.4530   -4.6550 C   0  0  0  0  0  0  0  0  0  0  0  0
   -1.6705   -3.7512   -3.7612 C   0  0  0  0  0  0  0  0  0  0  0  0
    0.4131   -3.4379   -5.6180 C   0  0  0  0  0  0  0  0  0  0  0  0
    0.8300   -1.5701   -4.6019 H   0  0  0  0  0  0  0  0  0  0  0  0
   -1.4333   -4.7330   -4.7236 C   0  0  0  0  0  0  0  0  0  0  0  0
   -2.4478   -3.8861   -3.0158 H   0  0  0  0  0  0  0  0  0  0  0  0
   -0.4014   -4.5734   -5.6526 C   0  0  0  0  0  0  0  0  0  0  0  0
    1.2172   -3.3195   -6.3369 H   0  0  0  0  0  0  0  0  0  0  0  0
   -2.0487   -5.6264   -4.7384 H   0  0  0  0  0  0  0  0  0  0  0  0
   -0.2269   -5.3400   -6.4009 H   0  0  0  0  0  0  0  0  0  0  0  0
  1  6  2  0  0  0  0
  1  2  1  0  0  0  0
  2  3  2  0  0  0  0
  3  4  1  0  0  0  0
  3  8  1  0  0  0  0
  4 12  1  0  0  0  0
  5 11  1  0  0  0  0
  5  4  2  0  0  0  0
  6  5  1  0  0  0  0
  7  1  1  0  0  0  0
  8  9  2  0  0  0  0
 10  6  1  0  0  0  0
 14  2  1  0  0  0  0
 14 13  1  0  0  0  0
 15 14  1  0  0  0  0
 16 19  1  0  0  0  0
 16 15  2  0  0  0  0
 17 15  1  0  0  0  0
 17 21  1  0  0  0  0
 18 16  1  0  0  0  0
 20 17  2  0  0  0  0
 22 18  2  0  0  0  0
 22 20  1  0  0  0  0
 23 18  1  0  0  0  0
 24 20  1  0  0  0  0
 25 22  1  0  0  0  0
M  RAD  2   9   2  13   3
M  END
