Coordinates from ORCA-job 1a-Schema5-R6-D+-B3LYPG-6-31G_dp-scan-d49-09-n400
 OpenBabel08281819463D

 25 26  0  0  0  0  0  0  0  0999 V2000
   -0.4460    0.0665   -2.2480 C   0  0  0  0  0  0  0  0  0  0  0  0
   -1.7893   -0.7026   -2.3029 C   0  0  0  0  0  0  0  0  0  0  0  0
   -2.9488    0.3433   -2.4050 C   0  0  0  0  0  0  0  0  0  0  0  0
   -2.7476    1.7598   -2.5033 C   0  0  0  0  0  0  0  0  0  0  0  0
   -1.5008    2.2857   -2.4791 C   0  0  0  0  0  0  0  0  0  0  0  0
   -0.3675    1.4075   -2.3351 C   0  0  0  0  0  0  0  0  0  0  0  0
    0.4085   -0.5889   -2.1219 H   0  0  0  0  0  0  0  0  0  0  0  0
   -4.1511   -0.1901   -2.3735 N   0  0  0  0  0  0  0  0  0  0  0  0
   -5.1631   -0.7103   -2.3406 N   0  0  0  0  0  0  0  0  0  0  0  0
    0.6267    1.8469   -2.2867 H   0  0  0  0  0  0  0  0  0  0  0  0
   -1.3478    3.3550   -2.5554 H   0  0  0  0  0  0  0  0  0  0  0  0
   -3.6332    2.3813   -2.5947 H   0  0  0  0  0  0  0  0  0  0  0  0
   -1.8876   -1.6071   -2.2818 N   0  0  0  0  0  0  0  0  0  0  0  0
   -2.0209   -2.8352   -2.1247 N   0  0  0  0  0  0  0  0  0  0  0  0
   -2.0082   -3.6649   -3.2329 C   0  0  0  0  0  0  0  0  0  0  0  0
   -2.1974   -5.0329   -2.9339 C   0  0  0  0  0  0  0  0  0  0  0  0
   -1.8204   -3.2335   -4.5693 C   0  0  0  0  0  0  0  0  0  0  0  0
   -2.2046   -5.9633   -3.9639 C   0  0  0  0  0  0  0  0  0  0  0  0
   -2.3358   -5.3236   -1.8980 H   0  0  0  0  0  0  0  0  0  0  0  0
   -1.8269   -4.1745   -5.5831 C   0  0  0  0  0  0  0  0  0  0  0  0
   -1.6647   -2.1837   -4.8008 H   0  0  0  0  0  0  0  0  0  0  0  0
   -2.0203   -5.5359   -5.2833 C   0  0  0  0  0  0  0  0  0  0  0  0
   -2.3522   -7.0154   -3.7456 H   0  0  0  0  0  0  0  0  0  0  0  0
   -1.6805   -3.8635   -6.6120 H   0  0  0  0  0  0  0  0  0  0  0  0
   -2.0244   -6.2626   -6.0896 H   0  0  0  0  0  0  0  0  0  0  0  0
  1  7  1  0  0  0  0
  2 13  1  0  0  0  0
  2  1  1  0  0  0  0
  3  8  1  0  0  0  0
  3  2  2  0  0  0  0
  4  5  2  0  0  0  0
  4  3  1  0  0  0  0
  5  6  1  0  0  0  0
  6 10  1  0  0  0  0
  6  1  2  0  0  0  0
  8  9  1  0  0  0  0
 11  5  1  0  0  0  0
 12  4  1  0  0  0  0
 13 14  1  0  0  0  0
 15 16  1  0  0  0  0
 15 14  1  0  0  0  0
 16 19  1  0  0  0  0
 17 15  2  0  0  0  0
 18 23  1  0  0  0  0
 18 16  2  0  0  0  0
 20 22  2  0  0  0  0
 20 17  1  0  0  0  0
 21 17  1  0  0  0  0
 22 18  1  0  0  0  0
 24 20  1  0  0  0  0
 25 22  1  0  0  0  0
M  RAD  4   8   2   9   3  13   2  14   2
M  END
