Coordinates from ORCA-job 1a-Schema5-R6-D+-B3LYPG-6-31G_dp-scan-d49-09-n400
 OpenBabel08281819463D

 25 25  0  0  0  0  0  0  0  0999 V2000
   -3.5825   -0.9799   -3.3593 C   0  0  0  0  0  0  0  0  0  0  0  0
   -2.5064   -0.9518   -2.4781 C   0  0  0  0  0  0  0  0  0  0  0  0
   -2.7087   -0.2084   -1.3063 C   0  0  0  0  0  0  0  0  0  0  0  0
   -3.9020    0.4669   -0.9468 C   0  0  0  0  0  0  0  0  0  0  0  0
   -4.9444    0.3930   -1.8518 C   0  0  0  0  0  0  0  0  0  0  0  0
   -4.7825   -0.3239   -3.0521 C   0  0  0  0  0  0  0  0  0  0  0  0
   -3.5002   -1.5190   -4.2997 H   0  0  0  0  0  0  0  0  0  0  0  0
   -1.6506   -0.1237   -0.4189 N   0  0  0  0  0  0  0  0  0  0  0  0
   -0.7901   -0.0497    0.2874 N   0  0  0  0  0  0  0  0  0  0  0  0
   -5.6086   -0.3651   -3.7571 H   0  0  0  0  0  0  0  0  0  0  0  0
   -5.8827    0.8912   -1.6352 H   0  0  0  0  0  0  0  0  0  0  0  0
   -3.9849    1.0089   -0.0103 H   0  0  0  0  0  0  0  0  0  0  0  0
    0.4282   -0.6603   -2.6672 N   0  0  0  0  0  0  0  0  0  0  0  0
   -0.4198   -1.3579   -3.0155 N   0  0  0  0  0  0  0  0  0  0  0  0
   -0.4871   -2.5086   -3.8914 C   0  0  0  0  0  0  0  0  0  0  0  0
    0.4718   -2.5871   -4.9083 C   0  0  0  0  0  0  0  0  0  0  0  0
   -1.4336   -3.5032   -3.6672 C   0  0  0  0  0  0  0  0  0  0  0  0
    0.4565   -3.7069   -5.7344 C   0  0  0  0  0  0  0  0  0  0  0  0
    1.1958   -1.7908   -5.0426 H   0  0  0  0  0  0  0  0  0  0  0  0
   -1.4157   -4.6272   -4.4923 C   0  0  0  0  0  0  0  0  0  0  0  0
   -2.1446   -3.4055   -2.8557 H   0  0  0  0  0  0  0  0  0  0  0  0
   -0.4807   -4.7246   -5.5264 C   0  0  0  0  0  0  0  0  0  0  0  0
    1.1808   -3.7858   -6.5386 H   0  0  0  0  0  0  0  0  0  0  0  0
   -2.1316   -5.4253   -4.3256 H   0  0  0  0  0  0  0  0  0  0  0  0
   -0.4803   -5.5973   -6.1717 H   0  0  0  0  0  0  0  0  0  0  0  0
  1  6  2  0  0  0  0
  1  2  1  0  0  0  0
  2  3  2  0  0  0  0
  3  4  1  0  0  0  0
  3  8  1  0  0  0  0
  4 12  1  0  0  0  0
  5 11  1  0  0  0  0
  5  4  2  0  0  0  0
  6  5  1  0  0  0  0
  7  1  1  0  0  0  0
  8  9  1  0  0  0  0
 10  6  1  0  0  0  0
 14 13  2  0  0  0  0
 15 17  1  0  0  0  0
 15 14  1  0  0  0  0
 16 15  2  0  0  0  0
 17 21  1  0  0  0  0
 18 22  2  0  0  0  0
 18 16  1  0  0  0  0
 19 16  1  0  0  0  0
 20 24  1  0  0  0  0
 20 17  2  0  0  0  0
 22 20  1  0  0  0  0
 23 18  1  0  0  0  0
 25 22  1  0  0  0  0
M  RAD  4   2   2   8   2   9   3  13   2
M  END
