Coordinates from ORCA-job 1a-Schema5-R6-D+-B3LYPG-6-31G_dp-scan-d49-09-n400
 OpenBabel08281819463D

 25 25  0  0  0  0  0  0  0  0999 V2000
   -4.0093   -0.5855   -3.2326 C   0  0  0  0  0  0  0  0  0  0  0  0
   -2.9349   -0.9423   -2.3798 C   0  0  0  0  0  0  0  0  0  0  0  0
   -3.2621   -0.6256   -1.0424 C   0  0  0  0  0  0  0  0  0  0  0  0
   -4.4421   -0.0391   -0.5071 C   0  0  0  0  0  0  0  0  0  0  0  0
   -5.4225    0.2702   -1.4234 C   0  0  0  0  0  0  0  0  0  0  0  0
   -5.1989   -0.0072   -2.7911 C   0  0  0  0  0  0  0  0  0  0  0  0
   -3.9123   -0.7705   -4.3031 H   0  0  0  0  0  0  0  0  0  0  0  0
   -2.2738   -0.9419   -0.1290 N   0  0  0  0  0  0  0  0  0  0  0  0
   -1.4477   -1.2146    0.5748 N   0  0  0  0  0  0  0  0  0  0  0  0
   -5.9795    0.2408   -3.5067 H   0  0  0  0  0  0  0  0  0  0  0  0
   -6.3537    0.7206   -1.0976 H   0  0  0  0  0  0  0  0  0  0  0  0
   -4.5592    0.1521    0.5553 H   0  0  0  0  0  0  0  0  0  0  0  0
    1.3258    0.0643   -4.4665 N   0  0  0  0  0  0  0  0  0  0  0  0
    0.9003   -0.9643   -4.5522 N   0  0  0  0  0  0  0  0  0  0  0  0
    0.4075   -2.2426   -4.6826 C   0  0  0  0  0  0  0  0  0  0  0  0
    1.1489   -3.1318   -5.4969 C   0  0  0  0  0  0  0  0  0  0  0  0
   -0.7853   -2.5714   -4.0065 C   0  0  0  0  0  0  0  0  0  0  0  0
    0.6546   -4.4165   -5.6326 C   0  0  0  0  0  0  0  0  0  0  0  0
    2.0614   -2.8112   -5.9872 H   0  0  0  0  0  0  0  0  0  0  0  0
   -1.2369   -3.8757   -4.1813 C   0  0  0  0  0  0  0  0  0  0  0  0
   -1.3742   -1.8586   -3.3701 H   0  0  0  0  0  0  0  0  0  0  0  0
   -0.5335   -4.7855   -4.9780 C   0  0  0  0  0  0  0  0  0  0  0  0
    1.1881   -5.1342   -6.2460 H   0  0  0  0  0  0  0  0  0  0  0  0
   -2.1551   -4.1742   -3.6858 H   0  0  0  0  0  0  0  0  0  0  0  0
   -0.9095   -5.7971   -5.0968 H   0  0  0  0  0  0  0  0  0  0  0  0
  1  6  2  0  0  0  0
  1  2  1  0  0  0  0
  2  3  2  0  0  0  0
  3  4  1  0  0  0  0
  3  8  1  0  0  0  0
  4 12  1  0  0  0  0
  5 11  1  0  0  0  0
  5  4  2  0  0  0  0
  6  5  1  0  0  0  0
  7  1  1  0  0  0  0
  8  9  1  0  0  0  0
 10  6  1  0  0  0  0
 14 13  1  0  0  0  0
 15 14  1  0  0  0  0
 15 17  2  0  0  0  0
 16 15  1  0  0  0  0
 17 21  1  0  0  0  0
 18 16  2  0  0  0  0
 18 22  1  0  0  0  0
 19 16  1  0  0  0  0
 20 17  1  0  0  0  0
 20 24  1  0  0  0  0
 22 20  2  0  0  0  0
 23 18  1  0  0  0  0
 25 22  1  0  0  0  0
M  RAD  5   2   2   8   2   9   3  13   3  14   2
M  END
