Coordinates from ORCA-job 1a-Schema5-R6-D+-B3LYPG-6-31G_dp-scan-d49-09-n400
 OpenBabel08281819463D

 25 25  0  0  0  0  0  0  0  0999 V2000
   -3.8557   -0.4297   -3.2845 C   0  0  0  0  0  0  0  0  0  0  0  0
   -2.9382   -1.0404   -2.3948 C   0  0  0  0  0  0  0  0  0  0  0  0
   -3.2494   -0.6799   -1.0645 C   0  0  0  0  0  0  0  0  0  0  0  0
   -4.2821    0.1617   -0.5682 C   0  0  0  0  0  0  0  0  0  0  0  0
   -5.1118    0.7137   -1.5193 C   0  0  0  0  0  0  0  0  0  0  0  0
   -4.8938    0.4112   -2.8816 C   0  0  0  0  0  0  0  0  0  0  0  0
   -3.7616   -0.6242   -4.3538 H   0  0  0  0  0  0  0  0  0  0  0  0
   -2.4176   -1.2419   -0.1124 N   0  0  0  0  0  0  0  0  0  0  0  0
   -1.7256   -1.7194    0.6255 N   0  0  0  0  0  0  0  0  0  0  0  0
   -5.5572    0.8469   -3.6249 H   0  0  0  0  0  0  0  0  0  0  0  0
   -5.9249    1.3676   -1.2231 H   0  0  0  0  0  0  0  0  0  0  0  0
   -4.4067    0.3550    0.4930 H   0  0  0  0  0  0  0  0  0  0  0  0
   -0.0232    0.1448   -4.3543 N   0  0  0  0  0  0  0  0  0  0  0  0
   -0.0982   -0.9672   -4.4201 N   0  0  0  0  0  0  0  0  0  0  0  0
   -0.0925   -2.3358   -4.5955 C   0  0  0  0  0  0  0  0  0  0  0  0
    0.8596   -2.8656   -5.4961 C   0  0  0  0  0  0  0  0  0  0  0  0
   -1.0302   -3.0999   -3.8765 C   0  0  0  0  0  0  0  0  0  0  0  0
    0.8527   -4.2387   -5.6726 C   0  0  0  0  0  0  0  0  0  0  0  0
    1.5562   -2.2206   -6.0203 H   0  0  0  0  0  0  0  0  0  0  0  0
   -0.9984   -4.4736   -4.0903 C   0  0  0  0  0  0  0  0  0  0  0  0
   -1.7320   -2.5554   -3.2075 H   0  0  0  0  0  0  0  0  0  0  0  0
   -0.0708   -5.0361   -4.9750 C   0  0  0  0  0  0  0  0  0  0  0  0
    1.5631   -4.6942   -6.3541 H   0  0  0  0  0  0  0  0  0  0  0  0
   -1.7031   -5.1093   -3.5645 H   0  0  0  0  0  0  0  0  0  0  0  0
   -0.0623   -6.1111   -5.1295 H   0  0  0  0  0  0  0  0  0  0  0  0
  1  6  2  0  0  0  0
  1  2  1  0  0  0  0
  2  3  2  0  0  0  0
  3  4  1  0  0  0  0
  3  8  1  0  0  0  0
  4 12  1  0  0  0  0
  5 11  1  0  0  0  0
  5  4  2  0  0  0  0
  6  5  1  0  0  0  0
  7  1  1  0  0  0  0
  8  9  1  0  0  0  0
 10  6  1  0  0  0  0
 14 13  1  0  0  0  0
 15 14  1  0  0  0  0
 15 17  2  0  0  0  0
 16 15  1  0  0  0  0
 17 21  1  0  0  0  0
 18 16  2  0  0  0  0
 18 22  1  0  0  0  0
 19 16  1  0  0  0  0
 20 17  1  0  0  0  0
 20 24  1  0  0  0  0
 22 20  2  0  0  0  0
 23 18  1  0  0  0  0
 25 22  1  0  0  0  0
M  RAD  5   2   2   8   2   9   3  13   3  14   2
M  END
