Coordinates from ORCA-job 1a-Schema5-R6-D+-B3LYPG-6-31G_dp-scan-d49-09-n400
 OpenBabel08281819463D

 25 26  0  0  0  0  0  0  0  0999 V2000
   -0.4470    0.0702   -2.2503 C   0  0  0  0  0  0  0  0  0  0  0  0
   -1.7889   -0.6936   -2.3069 C   0  0  0  0  0  0  0  0  0  0  0  0
   -2.9471    0.3469   -2.4051 C   0  0  0  0  0  0  0  0  0  0  0  0
   -2.7476    1.7645   -2.4963 C   0  0  0  0  0  0  0  0  0  0  0  0
   -1.5008    2.2907   -2.4695 C   0  0  0  0  0  0  0  0  0  0  0  0
   -0.3673    1.4121   -2.3309 C   0  0  0  0  0  0  0  0  0  0  0  0
    0.4085   -0.5847   -2.1291 H   0  0  0  0  0  0  0  0  0  0  0  0
   -4.1507   -0.1852   -2.3779 N   0  0  0  0  0  0  0  0  0  0  0  0
   -5.1647   -0.7014   -2.3494 N   0  0  0  0  0  0  0  0  0  0  0  0
    0.6269    1.8512   -2.2815 H   0  0  0  0  0  0  0  0  0  0  0  0
   -1.3484    3.3604   -2.5401 H   0  0  0  0  0  0  0  0  0  0  0  0
   -3.6335    2.3859   -2.5841 H   0  0  0  0  0  0  0  0  0  0  0  0
   -1.8876   -1.6082   -2.2881 N   0  0  0  0  0  0  0  0  0  0  0  0
   -2.0197   -2.8351   -2.1305 N   0  0  0  0  0  0  0  0  0  0  0  0
   -2.0077   -3.6679   -3.2371 C   0  0  0  0  0  0  0  0  0  0  0  0
   -2.1960   -5.0349   -2.9343 C   0  0  0  0  0  0  0  0  0  0  0  0
   -1.8213   -3.2394   -4.5743 C   0  0  0  0  0  0  0  0  0  0  0  0
   -2.2037   -5.9679   -3.9621 C   0  0  0  0  0  0  0  0  0  0  0  0
   -2.3333   -5.3231   -1.8975 H   0  0  0  0  0  0  0  0  0  0  0  0
   -1.8282   -4.1828   -5.5858 C   0  0  0  0  0  0  0  0  0  0  0  0
   -1.6663   -2.1900   -4.8080 H   0  0  0  0  0  0  0  0  0  0  0  0
   -2.0208   -5.5436   -5.2825 C   0  0  0  0  0  0  0  0  0  0  0  0
   -2.3506   -7.0195   -3.7411 H   0  0  0  0  0  0  0  0  0  0  0  0
   -1.6828   -3.8743   -6.6156 H   0  0  0  0  0  0  0  0  0  0  0  0
   -2.0251   -6.2723   -6.0871 H   0  0  0  0  0  0  0  0  0  0  0  0
  1  7  1  0  0  0  0
  2 13  1  0  0  0  0
  2  1  1  0  0  0  0
  3  8  1  0  0  0  0
  3  2  2  0  0  0  0
  4  5  2  0  0  0  0
  4  3  1  0  0  0  0
  5  6  1  0  0  0  0
  6 10  1  0  0  0  0
  6  1  2  0  0  0  0
  8  9  1  0  0  0  0
 11  5  1  0  0  0  0
 12  4  1  0  0  0  0
 13 14  1  0  0  0  0
 15 16  1  0  0  0  0
 15 14  1  0  0  0  0
 16 19  1  0  0  0  0
 17 15  2  0  0  0  0
 18 23  1  0  0  0  0
 18 16  2  0  0  0  0
 20 22  2  0  0  0  0
 20 17  1  0  0  0  0
 21 17  1  0  0  0  0
 22 18  1  0  0  0  0
 24 20  1  0  0  0  0
 25 22  1  0  0  0  0
M  RAD  4   8   2   9   3  13   2  14   2
M  END
