Coordinates from ORCA-job 1a-Schema5-R6-D+-B3LYPG-6-31G_dp-scan-d49-09-n400
 OpenBabel08281819463D

 25 26  0  0  0  0  0  0  0  0999 V2000
   -3.5001   -1.1362   -3.2882 C   0  0  0  0  0  0  0  0  0  0  0  0
   -2.3371   -0.9455   -2.5383 C   0  0  0  0  0  0  0  0  0  0  0  0
   -2.4208   -0.0719   -1.4499 C   0  0  0  0  0  0  0  0  0  0  0  0
   -3.5910    0.5752   -1.0615 C   0  0  0  0  0  0  0  0  0  0  0  0
   -4.7420    0.3572   -1.8194 C   0  0  0  0  0  0  0  0  0  0  0  0
   -4.6879   -0.4835   -2.9314 C   0  0  0  0  0  0  0  0  0  0  0  0
   -3.4807   -1.7783   -4.1603 H   0  0  0  0  0  0  0  0  0  0  0  0
   -1.2013    0.1568   -0.7899 N   0  0  0  0  0  0  0  0  0  0  0  0
   -0.6219    0.6397    0.0580 N   0  0  0  0  0  0  0  0  0  0  0  0
   -5.5763   -0.6391   -3.5346 H   0  0  0  0  0  0  0  0  0  0  0  0
   -5.6665    0.8539   -1.5471 H   0  0  0  0  0  0  0  0  0  0  0  0
   -3.5835    1.2393   -0.2040 H   0  0  0  0  0  0  0  0  0  0  0  0
   -0.2612   -1.0006   -2.2066 N   0  0  0  0  0  0  0  0  0  0  0  0
   -1.1245   -1.5478   -2.8470 N   0  0  0  0  0  0  0  0  0  0  0  0
   -0.9060   -2.6096   -3.8352 C   0  0  0  0  0  0  0  0  0  0  0  0
    0.2091   -2.4810   -4.6629 C   0  0  0  0  0  0  0  0  0  0  0  0
   -1.7373   -3.7318   -3.8512 C   0  0  0  0  0  0  0  0  0  0  0  0
    0.4804   -3.5080   -5.5640 C   0  0  0  0  0  0  0  0  0  0  0  0
    0.8388   -1.6008   -4.5955 H   0  0  0  0  0  0  0  0  0  0  0  0
   -1.4392   -4.7538   -4.7525 C   0  0  0  0  0  0  0  0  0  0  0  0
   -2.5693   -3.8301   -3.1621 H   0  0  0  0  0  0  0  0  0  0  0  0
   -0.3407   -4.6392   -5.6090 C   0  0  0  0  0  0  0  0  0  0  0  0
    1.3355   -3.4262   -6.2266 H   0  0  0  0  0  0  0  0  0  0  0  0
   -2.0608   -5.6427   -4.7765 H   0  0  0  0  0  0  0  0  0  0  0  0
   -0.1195   -5.4380   -6.3096 H   0  0  0  0  0  0  0  0  0  0  0  0
  1  6  2  0  0  0  0
  1  2  1  0  0  0  0
  2  3  2  0  0  0  0
  3  4  1  0  0  0  0
  3  8  1  0  0  0  0
  4 12  1  0  0  0  0
  5 11  1  0  0  0  0
  5  4  2  0  0  0  0
  6  5  1  0  0  0  0
  7  1  1  0  0  0  0
  8  9  2  0  0  0  0
 10  6  1  0  0  0  0
 14  2  1  0  0  0  0
 14 13  1  0  0  0  0
 15 14  1  0  0  0  0
 16 19  1  0  0  0  0
 16 15  2  0  0  0  0
 17 15  1  0  0  0  0
 17 21  1  0  0  0  0
 18 16  1  0  0  0  0
 20 17  2  0  0  0  0
 22 18  2  0  0  0  0
 22 20  1  0  0  0  0
 23 18  1  0  0  0  0
 24 20  1  0  0  0  0
 25 22  1  0  0  0  0
M  RAD  2   9   2  13   3
M  END
