Coordinates from ORCA-job 1a-Schema5-R6-D+-B3LYPG-6-31G_dp-scan-d49-09-n400
 OpenBabel08281819463D

 25 26  0  0  0  0  0  0  0  0999 V2000
   -0.4581    0.1432   -2.2831 C   0  0  0  0  0  0  0  0  0  0  0  0
   -1.7764   -0.5570   -2.3847 C   0  0  0  0  0  0  0  0  0  0  0  0
   -2.9237    0.4195   -2.4087 C   0  0  0  0  0  0  0  0  0  0  0  0
   -2.7492    1.8451   -2.3767 C   0  0  0  0  0  0  0  0  0  0  0  0
   -1.5025    2.3730   -2.3031 C   0  0  0  0  0  0  0  0  0  0  0  0
   -0.3662    1.4941   -2.2480 C   0  0  0  0  0  0  0  0  0  0  0  0
    0.4095   -0.5046   -2.2336 H   0  0  0  0  0  0  0  0  0  0  0  0
   -4.1394   -0.1052   -2.4437 N   0  0  0  0  0  0  0  0  0  0  0  0
   -5.1665   -0.5864   -2.4770 N   0  0  0  0  0  0  0  0  0  0  0  0
    0.6262    1.9302   -2.1699 H   0  0  0  0  0  0  0  0  0  0  0  0
   -1.3576    3.4463   -2.2790 H   0  0  0  0  0  0  0  0  0  0  0  0
   -3.6395    2.4644   -2.4098 H   0  0  0  0  0  0  0  0  0  0  0  0
   -1.8835   -1.6106   -2.4382 N   0  0  0  0  0  0  0  0  0  0  0  0
   -2.0026   -2.8226   -2.2451 N   0  0  0  0  0  0  0  0  0  0  0  0
   -2.0024   -3.7118   -3.3145 C   0  0  0  0  0  0  0  0  0  0  0  0
   -2.1771   -5.0611   -2.9426 C   0  0  0  0  0  0  0  0  0  0  0  0
   -1.8374   -3.3428   -4.6696 C   0  0  0  0  0  0  0  0  0  0  0  0
   -2.1925   -6.0422   -3.9259 C   0  0  0  0  0  0  0  0  0  0  0  0
   -2.2976   -5.3008   -1.8914 H   0  0  0  0  0  0  0  0  0  0  0  0
   -1.8517   -4.3323   -5.6363 C   0  0  0  0  0  0  0  0  0  0  0  0
   -1.6940   -2.3026   -4.9467 H   0  0  0  0  0  0  0  0  0  0  0  0
   -2.0304   -5.6784   -5.2663 C   0  0  0  0  0  0  0  0  0  0  0  0
   -2.3288   -7.0832   -3.6542 H   0  0  0  0  0  0  0  0  0  0  0  0
   -1.7224   -4.0719   -6.6815 H   0  0  0  0  0  0  0  0  0  0  0  0
   -2.0401   -6.4443   -6.0356 H   0  0  0  0  0  0  0  0  0  0  0  0
  1  6  2  0  0  0  0
  1  7  1  0  0  0  0
  2  1  1  0  0  0  0
  3  2  2  0  0  0  0
  3  4  1  0  0  0  0
  4  5  2  0  0  0  0
  5 11  1  0  0  0  0
  5  6  1  0  0  0  0
  6 10  1  0  0  0  0
  8  3  1  0  0  0  0
  9  8  1  0  0  0  0
 12  4  1  0  0  0  0
 13  2  1  0  0  0  0
 13 14  1  0  0  0  0
 15 16  1  0  0  0  0
 15 14  1  0  0  0  0
 16 19  1  0  0  0  0
 17 15  2  0  0  0  0
 18 23  1  0  0  0  0
 18 16  2  0  0  0  0
 20 22  2  0  0  0  0
 20 17  1  0  0  0  0
 21 17  1  0  0  0  0
 22 18  1  0  0  0  0
 24 20  1  0  0  0  0
 25 22  1  0  0  0  0
M  RAD  4   8   2   9   3  13   2  14   2
M  END
