Coordinates from ORCA-job 1a-Schema5-R6-D+-B3LYPG-6-31G_dp-scan-d49-09-n400
 OpenBabel08281819463D

 25 25  0  0  0  0  0  0  0  0999 V2000
   -3.9064   -0.4743   -3.2629 C   0  0  0  0  0  0  0  0  0  0  0  0
   -2.9438   -1.0258   -2.3811 C   0  0  0  0  0  0  0  0  0  0  0  0
   -3.2583   -0.6704   -1.0502 C   0  0  0  0  0  0  0  0  0  0  0  0
   -4.3315    0.1145   -0.5462 C   0  0  0  0  0  0  0  0  0  0  0  0
   -5.2042    0.6088   -1.4901 C   0  0  0  0  0  0  0  0  0  0  0  0
   -4.9862    0.3080   -2.8532 C   0  0  0  0  0  0  0  0  0  0  0  0
   -3.8122   -0.6702   -4.3320 H   0  0  0  0  0  0  0  0  0  0  0  0
   -2.3824   -1.1751   -0.1061 N   0  0  0  0  0  0  0  0  0  0  0  0
   -1.6525   -1.6055    0.6245 N   0  0  0  0  0  0  0  0  0  0  0  0
   -5.6828    0.6991   -3.5910 H   0  0  0  0  0  0  0  0  0  0  0  0
   -6.0500    1.2171   -1.1882 H   0  0  0  0  0  0  0  0  0  0  0  0
   -4.4529    0.3099    0.5151 H   0  0  0  0  0  0  0  0  0  0  0  0
    0.2997    0.1639   -4.3526 N   0  0  0  0  0  0  0  0  0  0  0  0
    0.1873   -0.9399   -4.4717 N   0  0  0  0  0  0  0  0  0  0  0  0
    0.0646   -2.3012   -4.6382 C   0  0  0  0  0  0  0  0  0  0  0  0
    0.9704   -2.9411   -5.5146 C   0  0  0  0  0  0  0  0  0  0  0  0
   -0.9630   -2.9454   -3.9214 C   0  0  0  0  0  0  0  0  0  0  0  0
    0.8208   -4.3081   -5.6705 C   0  0  0  0  0  0  0  0  0  0  0  0
    1.7394   -2.3813   -6.0353 H   0  0  0  0  0  0  0  0  0  0  0  0
   -1.0716   -4.3181   -4.1176 C   0  0  0  0  0  0  0  0  0  0  0  0
   -1.6355   -2.3383   -3.2621 H   0  0  0  0  0  0  0  0  0  0  0  0
   -0.1946   -4.9904   -4.9770 C   0  0  0  0  0  0  0  0  0  0  0  0
    1.4895   -4.8487   -6.3314 H   0  0  0  0  0  0  0  0  0  0  0  0
   -1.8495   -4.8667   -3.5964 H   0  0  0  0  0  0  0  0  0  0  0  0
   -0.2981   -6.0627   -5.1150 H   0  0  0  0  0  0  0  0  0  0  0  0
  1  6  2  0  0  0  0
  1  2  1  0  0  0  0
  2  3  2  0  0  0  0
  3  4  1  0  0  0  0
  3  8  1  0  0  0  0
  4 12  1  0  0  0  0
  5 11  1  0  0  0  0
  5  4  2  0  0  0  0
  6  5  1  0  0  0  0
  7  1  1  0  0  0  0
  8  9  1  0  0  0  0
 10  6  1  0  0  0  0
 14 13  1  0  0  0  0
 15 14  1  0  0  0  0
 15 17  2  0  0  0  0
 16 15  1  0  0  0  0
 17 21  1  0  0  0  0
 18 16  2  0  0  0  0
 18 22  1  0  0  0  0
 19 16  1  0  0  0  0
 20 17  1  0  0  0  0
 20 24  1  0  0  0  0
 22 20  2  0  0  0  0
 23 18  1  0  0  0  0
 25 22  1  0  0  0  0
M  RAD  5   2   2   8   2   9   3  13   3  14   2
M  END
