Coordinates from ORCA-job 1a-Schema5-R6-D+-B3LYPG-6-31G_dp-scan-d49-09-n400
 OpenBabel08281819463D

 25 25  0  0  0  0  0  0  0  0999 V2000
   -3.8492   -0.4314   -3.2846 C   0  0  0  0  0  0  0  0  0  0  0  0
   -2.9360   -1.0440   -2.3917 C   0  0  0  0  0  0  0  0  0  0  0  0
   -3.2494   -0.6805   -1.0628 C   0  0  0  0  0  0  0  0  0  0  0  0
   -4.2803    0.1654   -0.5704 C   0  0  0  0  0  0  0  0  0  0  0  0
   -5.1055    0.7193   -1.5244 C   0  0  0  0  0  0  0  0  0  0  0  0
   -4.8852    0.4140   -2.8857 C   0  0  0  0  0  0  0  0  0  0  0  0
   -3.7534   -0.6280   -4.3534 H   0  0  0  0  0  0  0  0  0  0  0  0
   -2.4222   -1.2443   -0.1077 N   0  0  0  0  0  0  0  0  0  0  0  0
   -1.7341   -1.7232    0.6329 N   0  0  0  0  0  0  0  0  0  0  0  0
   -5.5451    0.8510   -3.6313 H   0  0  0  0  0  0  0  0  0  0  0  0
   -5.9170    1.3766   -1.2312 H   0  0  0  0  0  0  0  0  0  0  0  0
   -4.4071    0.3606    0.4903 H   0  0  0  0  0  0  0  0  0  0  0  0
   -0.0442    0.1432   -4.3467 N   0  0  0  0  0  0  0  0  0  0  0  0
   -0.1123   -0.9690   -4.4154 N   0  0  0  0  0  0  0  0  0  0  0  0
   -0.1003   -2.3373   -4.5928 C   0  0  0  0  0  0  0  0  0  0  0  0
    0.8511   -2.8606   -5.4979 C   0  0  0  0  0  0  0  0  0  0  0  0
   -1.0313   -3.1076   -3.8716 C   0  0  0  0  0  0  0  0  0  0  0  0
    0.8507   -4.2335   -5.6769 C   0  0  0  0  0  0  0  0  0  0  0  0
    1.5422   -2.2112   -6.0238 H   0  0  0  0  0  0  0  0  0  0  0  0
   -0.9929   -4.4806   -4.0878 C   0  0  0  0  0  0  0  0  0  0  0  0
   -1.7329   -2.5672   -3.1996 H   0  0  0  0  0  0  0  0  0  0  0  0
   -0.0658   -5.0368   -4.9771 C   0  0  0  0  0  0  0  0  0  0  0  0
    1.5609   -4.6842   -6.3618 H   0  0  0  0  0  0  0  0  0  0  0  0
   -1.6921   -5.1211   -3.5605 H   0  0  0  0  0  0  0  0  0  0  0  0
   -0.0523   -6.1115   -5.1333 H   0  0  0  0  0  0  0  0  0  0  0  0
  1  6  2  0  0  0  0
  1  2  1  0  0  0  0
  2  3  2  0  0  0  0
  3  4  1  0  0  0  0
  3  8  1  0  0  0  0
  4 12  1  0  0  0  0
  5 11  1  0  0  0  0
  5  4  2  0  0  0  0
  6  5  1  0  0  0  0
  7  1  1  0  0  0  0
  8  9  1  0  0  0  0
 10  6  1  0  0  0  0
 14 13  1  0  0  0  0
 15 14  1  0  0  0  0
 15 17  2  0  0  0  0
 16 15  1  0  0  0  0
 17 21  1  0  0  0  0
 18 16  2  0  0  0  0
 18 22  1  0  0  0  0
 19 16  1  0  0  0  0
 20 17  1  0  0  0  0
 20 24  1  0  0  0  0
 22 20  2  0  0  0  0
 23 18  1  0  0  0  0
 25 22  1  0  0  0  0
M  RAD  5   2   2   8   2   9   3  13   3  14   2
M  END
