Coordinates from ORCA-job 1a-Schema5-R6-D+-B3LYPG-6-31G_dp-scan-d49-09-n400
 OpenBabel08281819463D

 25 26  0  0  0  0  0  0  0  0999 V2000
   -3.5117   -1.1784   -3.2898 C   0  0  0  0  0  0  0  0  0  0  0  0
   -2.3667   -0.9761   -2.5263 C   0  0  0  0  0  0  0  0  0  0  0  0
   -2.4202   -0.0761   -1.4636 C   0  0  0  0  0  0  0  0  0  0  0  0
   -3.5767    0.6098   -1.1040 C   0  0  0  0  0  0  0  0  0  0  0  0
   -4.7257    0.3840   -1.8649 C   0  0  0  0  0  0  0  0  0  0  0  0
   -4.6873   -0.4939   -2.9501 C   0  0  0  0  0  0  0  0  0  0  0  0
   -3.4940   -1.8449   -4.1431 H   0  0  0  0  0  0  0  0  0  0  0  0
   -1.1953    0.1297   -0.7881 N   0  0  0  0  0  0  0  0  0  0  0  0
   -0.6572    0.6514    0.0659 N   0  0  0  0  0  0  0  0  0  0  0  0
   -5.5791   -0.6505   -3.5478 H   0  0  0  0  0  0  0  0  0  0  0  0
   -5.6435    0.9041   -1.6136 H   0  0  0  0  0  0  0  0  0  0  0  0
   -3.5659    1.2993   -0.2668 H   0  0  0  0  0  0  0  0  0  0  0  0
   -0.1933   -1.1396   -2.0872 N   0  0  0  0  0  0  0  0  0  0  0  0
   -1.0966   -1.5846   -2.7707 N   0  0  0  0  0  0  0  0  0  0  0  0
   -0.8927   -2.6206   -3.7921 C   0  0  0  0  0  0  0  0  0  0  0  0
    0.1911   -2.4594   -4.6552 C   0  0  0  0  0  0  0  0  0  0  0  0
   -1.7095   -3.7534   -3.8081 C   0  0  0  0  0  0  0  0  0  0  0  0
    0.4432   -3.4608   -5.5905 C   0  0  0  0  0  0  0  0  0  0  0  0
    0.8122   -1.5728   -4.5914 H   0  0  0  0  0  0  0  0  0  0  0  0
   -1.4306   -4.7501   -4.7434 C   0  0  0  0  0  0  0  0  0  0  0  0
   -2.5146   -3.8792   -3.0916 H   0  0  0  0  0  0  0  0  0  0  0  0
   -0.3645   -4.6012   -5.6348 C   0  0  0  0  0  0  0  0  0  0  0  0
    1.2738   -3.3516   -6.2799 H   0  0  0  0  0  0  0  0  0  0  0  0
   -2.0411   -5.6467   -4.7663 H   0  0  0  0  0  0  0  0  0  0  0  0
   -0.1578   -5.3803   -6.3615 H   0  0  0  0  0  0  0  0  0  0  0  0
  1  6  2  0  0  0  0
  1  2  1  0  0  0  0
  2  3  2  0  0  0  0
  3  4  1  0  0  0  0
  3  8  1  0  0  0  0
  4 12  1  0  0  0  0
  5 11  1  0  0  0  0
  5  4  2  0  0  0  0
  6  5  1  0  0  0  0
  7  1  1  0  0  0  0
  8  9  2  0  0  0  0
 10  6  1  0  0  0  0
 14  2  1  0  0  0  0
 14 13  1  0  0  0  0
 15 14  1  0  0  0  0
 16 19  1  0  0  0  0
 16 15  2  0  0  0  0
 17 15  1  0  0  0  0
 17 21  1  0  0  0  0
 18 16  1  0  0  0  0
 20 17  2  0  0  0  0
 22 18  2  0  0  0  0
 22 20  1  0  0  0  0
 23 18  1  0  0  0  0
 24 20  1  0  0  0  0
 25 22  1  0  0  0  0
M  RAD  2   9   2  13   3
M  END
