Coordinates from ORCA-job 1a-Schema5-R6-D+-B3LYPG-6-31G_dp-scan-d49-09-n400
 OpenBabel08281819463D

 25 26  0  0  0  0  0  0  0  0999 V2000
   -3.4953   -1.1053   -3.3013 C   0  0  0  0  0  0  0  0  0  0  0  0
   -2.3270   -0.9251   -2.5538 C   0  0  0  0  0  0  0  0  0  0  0  0
   -2.4241   -0.0792   -1.4425 C   0  0  0  0  0  0  0  0  0  0  0  0
   -3.6021    0.5403   -1.0313 C   0  0  0  0  0  0  0  0  0  0  0  0
   -4.7525    0.3340   -1.7925 C   0  0  0  0  0  0  0  0  0  0  0  0
   -4.6889   -0.4724   -2.9288 C   0  0  0  0  0  0  0  0  0  0  0  0
   -3.4734   -1.7263   -4.1888 H   0  0  0  0  0  0  0  0  0  0  0  0
   -1.2063    0.1635   -0.7895 N   0  0  0  0  0  0  0  0  0  0  0  0
   -0.6078    0.6225    0.0567 N   0  0  0  0  0  0  0  0  0  0  0  0
   -5.5753   -0.6194   -3.5373 H   0  0  0  0  0  0  0  0  0  0  0  0
   -5.6810    0.8145   -1.5055 H   0  0  0  0  0  0  0  0  0  0  0  0
   -3.5983    1.1817   -0.1568 H   0  0  0  0  0  0  0  0  0  0  0  0
   -0.2805   -0.9062   -2.2945 N   0  0  0  0  0  0  0  0  0  0  0  0
   -1.1281   -1.5182   -2.8918 N   0  0  0  0  0  0  0  0  0  0  0  0
   -0.9056   -2.5975   -3.8570 C   0  0  0  0  0  0  0  0  0  0  0  0
    0.2230   -2.4928   -4.6699 C   0  0  0  0  0  0  0  0  0  0  0  0
   -1.7477   -3.7119   -3.8669 C   0  0  0  0  0  0  0  0  0  0  0  0
    0.4983   -3.5376   -5.5486 C   0  0  0  0  0  0  0  0  0  0  0  0
    0.8592   -1.6170   -4.6068 H   0  0  0  0  0  0  0  0  0  0  0  0
   -1.4454   -4.7519   -4.7459 C   0  0  0  0  0  0  0  0  0  0  0  0
   -2.5921   -3.7902   -3.1907 H   0  0  0  0  0  0  0  0  0  0  0  0
   -0.3328   -4.6621   -5.5867 C   0  0  0  0  0  0  0  0  0  0  0  0
    1.3639   -3.4752   -6.1996 H   0  0  0  0  0  0  0  0  0  0  0  0
   -2.0754   -5.6350   -4.7651 H   0  0  0  0  0  0  0  0  0  0  0  0
   -0.1085   -5.4748   -6.2702 H   0  0  0  0  0  0  0  0  0  0  0  0
  1  6  2  0  0  0  0
  1  2  1  0  0  0  0
  2  3  2  0  0  0  0
  3  4  1  0  0  0  0
  3  8  1  0  0  0  0
  4 12  1  0  0  0  0
  5 11  1  0  0  0  0
  5  4  2  0  0  0  0
  6  5  1  0  0  0  0
  7  1  1  0  0  0  0
  8  9  2  0  0  0  0
 10  6  1  0  0  0  0
 14  2  1  0  0  0  0
 14 13  1  0  0  0  0
 15 14  1  0  0  0  0
 16 19  1  0  0  0  0
 16 15  2  0  0  0  0
 17 15  1  0  0  0  0
 17 21  1  0  0  0  0
 18 16  1  0  0  0  0
 20 17  2  0  0  0  0
 22 18  2  0  0  0  0
 22 20  1  0  0  0  0
 23 18  1  0  0  0  0
 24 20  1  0  0  0  0
 25 22  1  0  0  0  0
M  RAD  2   9   2  13   3
M  END
