Coordinates from ORCA-job 1a-Schema5-R6-D+-B3LYPG-6-31G_dp-scan-d49-09-n400
 OpenBabel08281819463D

 25 25  0  0  0  0  0  0  0  0999 V2000
   -3.9941   -0.4579   -3.2568 C   0  0  0  0  0  0  0  0  0  0  0  0
   -2.9699   -0.9705   -2.4220 C   0  0  0  0  0  0  0  0  0  0  0  0
   -3.2671   -0.6822   -1.0712 C   0  0  0  0  0  0  0  0  0  0  0  0
   -4.3771    0.0072   -0.5095 C   0  0  0  0  0  0  0  0  0  0  0  0
   -5.3112    0.4681   -1.4104 C   0  0  0  0  0  0  0  0  0  0  0  0
   -5.1134    0.2302   -2.7893 C   0  0  0  0  0  0  0  0  0  0  0  0
   -3.9154   -0.6069   -4.3345 H   0  0  0  0  0  0  0  0  0  0  0  0
   -2.3281   -1.1520   -0.1717 N   0  0  0  0  0  0  0  0  0  0  0  0
   -1.5451   -1.5509    0.5211 N   0  0  0  0  0  0  0  0  0  0  0  0
   -5.8576    0.5960   -3.4929 H   0  0  0  0  0  0  0  0  0  0  0  0
   -6.1881    1.0041   -1.0638 H   0  0  0  0  0  0  0  0  0  0  0  0
   -4.4787    0.1592    0.5609 H   0  0  0  0  0  0  0  0  0  0  0  0
    0.7290    0.1716   -4.5317 N   0  0  0  0  0  0  0  0  0  0  0  0
    0.4945   -0.9174   -4.6024 N   0  0  0  0  0  0  0  0  0  0  0  0
    0.2216   -2.2628   -4.7014 C   0  0  0  0  0  0  0  0  0  0  0  0
    1.1002   -3.0487   -5.4830 C   0  0  0  0  0  0  0  0  0  0  0  0
   -0.9139   -2.7485   -4.0216 C   0  0  0  0  0  0  0  0  0  0  0  0
    0.8085   -4.3976   -5.5805 C   0  0  0  0  0  0  0  0  0  0  0  0
    1.9581   -2.6070   -5.9780 H   0  0  0  0  0  0  0  0  0  0  0  0
   -1.1595   -4.1114   -4.1553 C   0  0  0  0  0  0  0  0  0  0  0  0
   -1.5753   -2.0728   -3.4129 H   0  0  0  0  0  0  0  0  0  0  0  0
   -0.3163   -4.9242   -4.9213 C   0  0  0  0  0  0  0  0  0  0  0  0
    1.4511   -5.0442   -6.1679 H   0  0  0  0  0  0  0  0  0  0  0  0
   -2.0234   -4.5389   -3.6566 H   0  0  0  0  0  0  0  0  0  0  0  0
   -0.5323   -5.9845   -5.0123 H   0  0  0  0  0  0  0  0  0  0  0  0
  1  6  2  0  0  0  0
  1  2  1  0  0  0  0
  2  3  2  0  0  0  0
  3  4  1  0  0  0  0
  3  8  1  0  0  0  0
  4 12  1  0  0  0  0
  5 11  1  0  0  0  0
  5  4  2  0  0  0  0
  6  5  1  0  0  0  0
  7  1  1  0  0  0  0
  8  9  1  0  0  0  0
 10  6  1  0  0  0  0
 14 13  1  0  0  0  0
 15 14  1  0  0  0  0
 15 17  2  0  0  0  0
 16 15  1  0  0  0  0
 17 21  1  0  0  0  0
 18 16  2  0  0  0  0
 18 22  1  0  0  0  0
 19 16  1  0  0  0  0
 20 17  1  0  0  0  0
 20 24  1  0  0  0  0
 22 20  2  0  0  0  0
 23 18  1  0  0  0  0
 25 22  1  0  0  0  0
M  RAD  5   2   2   8   2   9   3  13   3  14   2
M  END
