Coordinates from ORCA-job 1a-Schema5-R6-D+-B3LYPG-6-31G_dp-scan-d49-09-n400
 OpenBabel08281819463D

 25 25  0  0  0  0  0  0  0  0999 V2000
   -3.7699   -0.6025   -3.3755 C   0  0  0  0  0  0  0  0  0  0  0  0
   -2.7019   -0.8431   -2.4995 C   0  0  0  0  0  0  0  0  0  0  0  0
   -2.9512   -0.3810   -1.1934 C   0  0  0  0  0  0  0  0  0  0  0  0
   -4.1210    0.2645   -0.7110 C   0  0  0  0  0  0  0  0  0  0  0  0
   -5.1259    0.4657   -1.6346 C   0  0  0  0  0  0  0  0  0  0  0  0
   -4.9470    0.0317   -2.9642 C   0  0  0  0  0  0  0  0  0  0  0  0
   -3.6927   -0.9153   -4.4149 H   0  0  0  0  0  0  0  0  0  0  0  0
   -1.9373   -0.5842   -0.2778 N   0  0  0  0  0  0  0  0  0  0  0  0
   -1.1036   -0.7593    0.4453 N   0  0  0  0  0  0  0  0  0  0  0  0
   -5.7455    0.1996   -3.6825 H   0  0  0  0  0  0  0  0  0  0  0  0
   -6.0468    0.9548   -1.3367 H   0  0  0  0  0  0  0  0  0  0  0  0
   -4.2126    0.5792    0.3237 H   0  0  0  0  0  0  0  0  0  0  0  0
    0.5419   -0.1863   -3.6271 N   0  0  0  0  0  0  0  0  0  0  0  0
   -0.1373   -1.0936   -3.6734 N   0  0  0  0  0  0  0  0  0  0  0  0
   -0.2491   -2.4147   -4.2095 C   0  0  0  0  0  0  0  0  0  0  0  0
    0.7443   -2.7798   -5.1374 C   0  0  0  0  0  0  0  0  0  0  0  0
   -1.2649   -3.2716   -3.8015 C   0  0  0  0  0  0  0  0  0  0  0  0
    0.6885   -4.0623   -5.6657 C   0  0  0  0  0  0  0  0  0  0  0  0
    1.5189   -2.0767   -5.4235 H   0  0  0  0  0  0  0  0  0  0  0  0
   -1.2902   -4.5563   -4.3381 C   0  0  0  0  0  0  0  0  0  0  0  0
   -1.9944   -2.8932   -3.0904 H   0  0  0  0  0  0  0  0  0  0  0  0
   -0.3220   -4.9482   -5.2673 C   0  0  0  0  0  0  0  0  0  0  0  0
    1.4359   -4.3722   -6.3887 H   0  0  0  0  0  0  0  0  0  0  0  0
   -2.0675   -5.2490   -4.0342 H   0  0  0  0  0  0  0  0  0  0  0  0
   -0.3525   -5.9483   -5.6873 H   0  0  0  0  0  0  0  0  0  0  0  0
  1  6  2  0  0  0  0
  1  2  1  0  0  0  0
  2  3  2  0  0  0  0
  3  4  1  0  0  0  0
  3  8  1  0  0  0  0
  4 12  1  0  0  0  0
  5 11  1  0  0  0  0
  5  4  2  0  0  0  0
  6  5  1  0  0  0  0
  7  1  1  0  0  0  0
  8  9  1  0  0  0  0
 10  6  1  0  0  0  0
 14 13  2  0  0  0  0
 15 17  1  0  0  0  0
 15 14  1  0  0  0  0
 16 15  2  0  0  0  0
 17 21  1  0  0  0  0
 18 22  2  0  0  0  0
 18 16  1  0  0  0  0
 19 16  1  0  0  0  0
 20 24  1  0  0  0  0
 20 17  2  0  0  0  0
 22 20  1  0  0  0  0
 23 18  1  0  0  0  0
 25 22  1  0  0  0  0
M  RAD  4   2   2   8   2   9   3  13   2
M  END
