Coordinates from ORCA-job 1a-Schema5-R6-D+-B3LYPG-6-31G_dp-scan-d49-09-n400
 OpenBabel08281819463D

 25 25  0  0  0  0  0  0  0  0999 V2000
   -3.6123   -0.9362   -3.3548 C   0  0  0  0  0  0  0  0  0  0  0  0
   -2.5338   -0.9188   -2.4714 C   0  0  0  0  0  0  0  0  0  0  0  0
   -2.7628   -0.2090   -1.2831 C   0  0  0  0  0  0  0  0  0  0  0  0
   -3.9646    0.4437   -0.9081 C   0  0  0  0  0  0  0  0  0  0  0  0
   -5.0008    0.3798   -1.8197 C   0  0  0  0  0  0  0  0  0  0  0  0
   -4.8219   -0.3048   -3.0377 C   0  0  0  0  0  0  0  0  0  0  0  0
   -3.5236   -1.4506   -4.3088 H   0  0  0  0  0  0  0  0  0  0  0  0
   -1.7043   -0.1383   -0.3956 N   0  0  0  0  0  0  0  0  0  0  0  0
   -0.8320   -0.0861    0.2990 N   0  0  0  0  0  0  0  0  0  0  0  0
   -5.6445   -0.3394   -3.7472 H   0  0  0  0  0  0  0  0  0  0  0  0
   -5.9473    0.8593   -1.5965 H   0  0  0  0  0  0  0  0  0  0  0  0
   -4.0577    0.9611    0.0413 H   0  0  0  0  0  0  0  0  0  0  0  0
    0.5551   -0.6289   -2.7565 N   0  0  0  0  0  0  0  0  0  0  0  0
   -0.2863   -1.3379   -3.0776 N   0  0  0  0  0  0  0  0  0  0  0  0
   -0.4072   -2.4999   -3.9258 C   0  0  0  0  0  0  0  0  0  0  0  0
    0.5462   -2.6339   -4.9446 C   0  0  0  0  0  0  0  0  0  0  0  0
   -1.3913   -3.4512   -3.6782 C   0  0  0  0  0  0  0  0  0  0  0  0
    0.4836   -3.7686   -5.7469 C   0  0  0  0  0  0  0  0  0  0  0  0
    1.3001   -1.8695   -5.0981 H   0  0  0  0  0  0  0  0  0  0  0  0
   -1.4188   -4.5914   -4.4797 C   0  0  0  0  0  0  0  0  0  0  0  0
   -2.0962   -3.2980   -2.8707 H   0  0  0  0  0  0  0  0  0  0  0  0
   -0.4916   -4.7452   -5.5143 C   0  0  0  0  0  0  0  0  0  0  0  0
    1.2008   -3.8916   -6.5518 H   0  0  0  0  0  0  0  0  0  0  0  0
   -2.1653   -5.3569   -4.2960 H   0  0  0  0  0  0  0  0  0  0  0  0
   -0.5272   -5.6298   -6.1421 H   0  0  0  0  0  0  0  0  0  0  0  0
  1  6  2  0  0  0  0
  1  2  1  0  0  0  0
  2  3  2  0  0  0  0
  3  4  1  0  0  0  0
  3  8  1  0  0  0  0
  4 12  1  0  0  0  0
  5 11  1  0  0  0  0
  5  4  2  0  0  0  0
  6  5  1  0  0  0  0
  7  1  1  0  0  0  0
  8  9  1  0  0  0  0
 10  6  1  0  0  0  0
 14 13  2  0  0  0  0
 15 17  1  0  0  0  0
 15 14  1  0  0  0  0
 16 15  2  0  0  0  0
 17 21  1  0  0  0  0
 18 22  2  0  0  0  0
 18 16  1  0  0  0  0
 19 16  1  0  0  0  0
 20 24  1  0  0  0  0
 20 17  2  0  0  0  0
 22 20  1  0  0  0  0
 23 18  1  0  0  0  0
 25 22  1  0  0  0  0
M  RAD  4   2   2   8   2   9   3  13   2
M  END
