Coordinates from ORCA-job 1a-Schema5-R6-D+-B3LYPG-6-31G_dp-scan-d49-09-n400
 OpenBabel08281819463D

 25 26  0  0  0  0  0  0  0  0999 V2000
   -3.7569   -0.3900   -3.6494 C   0  0  0  0  0  0  0  0  0  0  0  0
   -2.5239   -0.6603   -3.0047 C   0  0  0  0  0  0  0  0  0  0  0  0
   -2.4924   -0.5411   -1.5724 C   0  0  0  0  0  0  0  0  0  0  0  0
   -3.5907    0.0141   -0.8415 C   0  0  0  0  0  0  0  0  0  0  0  0
   -4.7331    0.3347   -1.5219 C   0  0  0  0  0  0  0  0  0  0  0  0
   -4.8168    0.1062   -2.9254 C   0  0  0  0  0  0  0  0  0  0  0  0
   -3.8328   -0.5563   -4.7186 H   0  0  0  0  0  0  0  0  0  0  0  0
   -1.3884   -0.9137   -0.9046 N   0  0  0  0  0  0  0  0  0  0  0  0
   -0.4558   -1.2009   -0.3393 N   0  0  0  0  0  0  0  0  0  0  0  0
   -5.7480    0.3219   -3.4397 H   0  0  0  0  0  0  0  0  0  0  0  0
   -5.5801    0.7524   -0.9902 H   0  0  0  0  0  0  0  0  0  0  0  0
   -3.4928    0.1632    0.2281 H   0  0  0  0  0  0  0  0  0  0  0  0
   -0.9761    0.0605   -3.9313 N   0  0  0  0  0  0  0  0  0  0  0  0
   -1.3939   -1.0782   -3.7328 N   0  0  0  0  0  0  0  0  0  0  0  0
   -0.9208   -2.3772   -4.1267 C   0  0  0  0  0  0  0  0  0  0  0  0
    0.2788   -2.4491   -4.8408 C   0  0  0  0  0  0  0  0  0  0  0  0
   -1.6756   -3.5038   -3.7893 C   0  0  0  0  0  0  0  0  0  0  0  0
    0.7339   -3.7048   -5.2259 C   0  0  0  0  0  0  0  0  0  0  0  0
    0.8218   -1.5404   -5.0794 H   0  0  0  0  0  0  0  0  0  0  0  0
   -1.2016   -4.7528   -4.1861 C   0  0  0  0  0  0  0  0  0  0  0  0
   -2.6103   -3.4089   -3.2455 H   0  0  0  0  0  0  0  0  0  0  0  0
   -0.0030   -4.8512   -4.8993 C   0  0  0  0  0  0  0  0  0  0  0  0
    1.6618   -3.7939   -5.7803 H   0  0  0  0  0  0  0  0  0  0  0  0
   -1.7669   -5.6455   -3.9421 H   0  0  0  0  0  0  0  0  0  0  0  0
    0.3596   -5.8269   -5.2056 H   0  0  0  0  0  0  0  0  0  0  0  0
  1  2  2  0  0  0  0
  1  6  1  0  0  0  0
  2  3  1  0  0  0  0
  3  8  1  0  0  0  0
  3  4  2  0  0  0  0
  4 12  1  0  0  0  0
  5 11  1  0  0  0  0
  5  4  1  0  0  0  0
  6  5  2  0  0  0  0
  7  1  1  0  0  0  0
  8  9  1  0  0  0  0
 10  6  1  0  0  0  0
 13 14  1  0  0  0  0
 14  2  1  0  0  0  0
 15 17  1  0  0  0  0
 15 14  1  0  0  0  0
 16 15  2  0  0  0  0
 17 21  1  0  0  0  0
 18 22  2  0  0  0  0
 18 16  1  0  0  0  0
 19 16  1  0  0  0  0
 20 24  1  0  0  0  0
 20 17  2  0  0  0  0
 22 20  1  0  0  0  0
 23 18  1  0  0  0  0
 25 22  1  0  0  0  0
M  RAD  3   8   2   9   3  13   3
M  END
