Coordinates from ORCA-job 1a-Schema5-R6-D+-B3LYPG-6-31G_dp-scan-d49-09-n400
 OpenBabel08281819463D

 25 25  0  0  0  0  0  0  0  0999 V2000
   -3.6352   -0.7812   -3.3680 C   0  0  0  0  0  0  0  0  0  0  0  0
   -2.5784   -0.8630   -2.4558 C   0  0  0  0  0  0  0  0  0  0  0  0
   -2.8636   -0.2769   -1.2101 C   0  0  0  0  0  0  0  0  0  0  0  0
   -4.0758    0.3473   -0.8140 C   0  0  0  0  0  0  0  0  0  0  0  0
   -5.0756    0.3883   -1.7648 C   0  0  0  0  0  0  0  0  0  0  0  0
   -4.8523   -0.1740   -3.0379 C   0  0  0  0  0  0  0  0  0  0  0  0
   -3.5195   -1.1995   -4.3657 H   0  0  0  0  0  0  0  0  0  0  0  0
   -1.8495   -0.3161   -0.2728 N   0  0  0  0  0  0  0  0  0  0  0  0
   -1.0153   -0.3563    0.4689 N   0  0  0  0  0  0  0  0  0  0  0  0
   -5.6472   -0.1295   -3.7781 H   0  0  0  0  0  0  0  0  0  0  0  0
   -6.0271    0.8525   -1.5307 H   0  0  0  0  0  0  0  0  0  0  0  0
   -4.2023    0.7655    0.1794 H   0  0  0  0  0  0  0  0  0  0  0  0
    0.6640   -0.4211   -3.1543 N   0  0  0  0  0  0  0  0  0  0  0  0
   -0.1284   -1.2192   -3.3338 N   0  0  0  0  0  0  0  0  0  0  0  0
   -0.2981   -2.4546   -4.0494 C   0  0  0  0  0  0  0  0  0  0  0  0
    0.6279   -2.7020   -5.0765 C   0  0  0  0  0  0  0  0  0  0  0  0
   -1.2940   -3.3557   -3.6898 C   0  0  0  0  0  0  0  0  0  0  0  0
    0.5231   -3.9050   -5.7641 C   0  0  0  0  0  0  0  0  0  0  0  0
    1.3913   -1.9709   -5.3191 H   0  0  0  0  0  0  0  0  0  0  0  0
   -1.3643   -4.5637   -4.3803 C   0  0  0  0  0  0  0  0  0  0  0  0
   -1.9775   -3.0920   -2.8913 H   0  0  0  0  0  0  0  0  0  0  0  0
   -0.4657   -4.8339   -5.4164 C   0  0  0  0  0  0  0  0  0  0  0  0
    1.2170   -4.1184   -6.5706 H   0  0  0  0  0  0  0  0  0  0  0  0
   -2.1233   -5.2906   -4.1118 H   0  0  0  0  0  0  0  0  0  0  0  0
   -0.5342   -5.7719   -5.9580 H   0  0  0  0  0  0  0  0  0  0  0  0
  1  6  2  0  0  0  0
  1  2  1  0  0  0  0
  2  3  2  0  0  0  0
  3  4  1  0  0  0  0
  3  8  1  0  0  0  0
  4 12  1  0  0  0  0
  5 11  1  0  0  0  0
  5  4  2  0  0  0  0
  6  5  1  0  0  0  0
  7  1  1  0  0  0  0
  8  9  1  0  0  0  0
 10  6  1  0  0  0  0
 14 13  2  0  0  0  0
 15 17  1  0  0  0  0
 15 14  1  0  0  0  0
 16 15  2  0  0  0  0
 17 21  1  0  0  0  0
 18 22  2  0  0  0  0
 18 16  1  0  0  0  0
 19 16  1  0  0  0  0
 20 24  1  0  0  0  0
 20 17  2  0  0  0  0
 22 20  1  0  0  0  0
 23 18  1  0  0  0  0
 25 22  1  0  0  0  0
M  RAD  4   2   2   8   2   9   3  13   2
M  END
