Coordinates from ORCA-job 1a-Schema5-R6-D+-B3LYPG-6-31G_dp-scan-d49-09-n400
 OpenBabel08281819463D

 25 26  0  0  0  0  0  0  0  0999 V2000
   -0.4045    0.1050   -2.1170 C   0  0  0  0  0  0  0  0  0  0  0  0
   -1.5068   -0.7453   -2.0629 C   0  0  0  0  0  0  0  0  0  0  0  0
   -2.7431   -0.2300   -2.5259 C   0  0  0  0  0  0  0  0  0  0  0  0
   -2.8871    1.0655   -3.0870 C   0  0  0  0  0  0  0  0  0  0  0  0
   -1.7568    1.8518   -3.1740 C   0  0  0  0  0  0  0  0  0  0  0  0
   -0.5220    1.3691   -2.6925 C   0  0  0  0  0  0  0  0  0  0  0  0
    0.5408   -0.2382   -1.7100 H   0  0  0  0  0  0  0  0  0  0  0  0
   -3.8536   -1.0183   -2.4337 N   0  0  0  0  0  0  0  0  0  0  0  0
   -4.7678   -1.6548   -2.3361 N   0  0  0  0  0  0  0  0  0  0  0  0
    0.3569    2.0030   -2.7602 H   0  0  0  0  0  0  0  0  0  0  0  0
   -1.8256    2.8469   -3.5980 H   0  0  0  0  0  0  0  0  0  0  0  0
   -3.8583    1.4119   -3.4229 H   0  0  0  0  0  0  0  0  0  0  0  0
   -1.4484   -2.0044   -1.1240 N   0  0  0  0  0  0  0  0  0  0  0  0
   -1.6572   -3.1614   -1.4988 N   0  0  0  0  0  0  0  0  0  0  0  0
   -1.8389   -3.6108   -2.8287 C   0  0  0  0  0  0  0  0  0  0  0  0
   -2.6192   -4.7744   -2.9488 C   0  0  0  0  0  0  0  0  0  0  0  0
   -1.2326   -3.0350   -3.9610 C   0  0  0  0  0  0  0  0  0  0  0  0
   -2.8643   -5.3118   -4.2087 C   0  0  0  0  0  0  0  0  0  0  0  0
   -3.0222   -5.2271   -2.0491 H   0  0  0  0  0  0  0  0  0  0  0  0
   -1.4563   -3.6057   -5.2109 C   0  0  0  0  0  0  0  0  0  0  0  0
   -0.5516   -2.1984   -3.8632 H   0  0  0  0  0  0  0  0  0  0  0  0
   -2.2832   -4.7283   -5.3385 C   0  0  0  0  0  0  0  0  0  0  0  0
   -3.4815   -6.1984   -4.3082 H   0  0  0  0  0  0  0  0  0  0  0  0
   -0.9707   -3.1882   -6.0867 H   0  0  0  0  0  0  0  0  0  0  0  0
   -2.4497   -5.1644   -6.3183 H   0  0  0  0  0  0  0  0  0  0  0  0
  1  2  1  0  0  0  0
  1  7  1  0  0  0  0
  2 13  1  0  0  0  0
  3  8  1  0  0  0  0
  3  2  2  0  0  0  0
  4  3  1  0  0  0  0
  5  4  2  0  0  0  0
  5  6  1  0  0  0  0
  6  1  2  0  0  0  0
  8  9  1  0  0  0  0
 10  6  1  0  0  0  0
 11  5  1  0  0  0  0
 12  4  1  0  0  0  0
 14 13  2  0  0  0  0
 15 14  1  0  0  0  0
 16 15  1  0  0  0  0
 16 19  1  0  0  0  0
 17 21  1  0  0  0  0
 17 15  2  0  0  0  0
 18 16  2  0  0  0  0
 20 17  1  0  0  0  0
 22 20  2  0  0  0  0
 22 18  1  0  0  0  0
 23 18  1  0  0  0  0
 24 20  1  0  0  0  0
 25 22  1  0  0  0  0
M  RAD  2   8   2   9   3
M  END
