Coordinates from ORCA-job 1a-Schema5-R6-D+-B3LYPG-6-31G_dp-scan-d49-09-n400
 OpenBabel08281819463D

 25 26  0  0  0  0  0  0  0  0999 V2000
   -0.4599    0.1693   -2.2962 C   0  0  0  0  0  0  0  0  0  0  0  0
   -1.7718   -0.5166   -2.4225 C   0  0  0  0  0  0  0  0  0  0  0  0
   -2.9176    0.4468   -2.4136 C   0  0  0  0  0  0  0  0  0  0  0  0
   -2.7499    1.8707   -2.3281 C   0  0  0  0  0  0  0  0  0  0  0  0
   -1.5031    2.3975   -2.2327 C   0  0  0  0  0  0  0  0  0  0  0  0
   -0.3662    1.5200   -2.2097 C   0  0  0  0  0  0  0  0  0  0  0  0
    0.4099   -0.4769   -2.2729 H   0  0  0  0  0  0  0  0  0  0  0  0
   -4.1352   -0.0768   -2.4726 N   0  0  0  0  0  0  0  0  0  0  0  0
   -5.1628   -0.5525   -2.5291 N   0  0  0  0  0  0  0  0  0  0  0  0
    0.6253    1.9541   -2.1139 H   0  0  0  0  0  0  0  0  0  0  0  0
   -1.3605    3.4694   -2.1676 H   0  0  0  0  0  0  0  0  0  0  0  0
   -3.6412    2.4891   -2.3390 H   0  0  0  0  0  0  0  0  0  0  0  0
   -1.8804   -1.5971   -2.5220 N   0  0  0  0  0  0  0  0  0  0  0  0
   -1.9948   -2.8048   -2.3001 N   0  0  0  0  0  0  0  0  0  0  0  0
   -2.0004   -3.7190   -3.3490 C   0  0  0  0  0  0  0  0  0  0  0  0
   -2.1677   -5.0596   -2.9446 C   0  0  0  0  0  0  0  0  0  0  0  0
   -1.8465   -3.3808   -4.7130 C   0  0  0  0  0  0  0  0  0  0  0  0
   -2.1863   -6.0633   -3.9049 C   0  0  0  0  0  0  0  0  0  0  0  0
   -2.2798   -5.2753   -1.8873 H   0  0  0  0  0  0  0  0  0  0  0  0
   -1.8640   -4.3922   -5.6567 C   0  0  0  0  0  0  0  0  0  0  0  0
   -1.7095   -2.3461   -5.0128 H   0  0  0  0  0  0  0  0  0  0  0  0
   -2.0348   -5.7301   -5.2544 C   0  0  0  0  0  0  0  0  0  0  0  0
   -2.3166   -7.0983   -3.6083 H   0  0  0  0  0  0  0  0  0  0  0  0
   -1.7433   -4.1557   -6.7086 H   0  0  0  0  0  0  0  0  0  0  0  0
   -2.0468   -6.5137   -6.0056 H   0  0  0  0  0  0  0  0  0  0  0  0
  1  7  1  0  0  0  0
  1  6  2  0  0  0  0
  2  3  2  0  0  0  0
  2  1  1  0  0  0  0
  3  4  1  0  0  0  0
  4  5  2  0  0  0  0
  5  6  1  0  0  0  0
  5 11  1  0  0  0  0
  6 10  1  0  0  0  0
  8  3  1  0  0  0  0
  9  8  1  0  0  0  0
 12  4  1  0  0  0  0
 13  2  1  0  0  0  0
 13 14  1  0  0  0  0
 15 16  1  0  0  0  0
 15 14  1  0  0  0  0
 16 19  1  0  0  0  0
 17 15  2  0  0  0  0
 18 23  1  0  0  0  0
 18 16  2  0  0  0  0
 20 22  2  0  0  0  0
 20 17  1  0  0  0  0
 21 17  1  0  0  0  0
 22 18  1  0  0  0  0
 24 20  1  0  0  0  0
 25 22  1  0  0  0  0
M  RAD  4   8   2   9   3  13   2  14   2
M  END
