Coordinates from ORCA-job 1a-Schema5-R6-D+-B3LYPG-6-31G_dp-scan-d49-09-n400
 OpenBabel08281819463D

 25 26  0  0  0  0  0  0  0  0999 V2000
   -3.5023   -1.1467   -3.2858 C   0  0  0  0  0  0  0  0  0  0  0  0
   -2.3423   -0.9529   -2.5340 C   0  0  0  0  0  0  0  0  0  0  0  0
   -2.4200   -0.0711   -1.4529 C   0  0  0  0  0  0  0  0  0  0  0  0
   -3.5871    0.5856   -1.0720 C   0  0  0  0  0  0  0  0  0  0  0  0
   -4.7381    0.3646   -1.8295 C   0  0  0  0  0  0  0  0  0  0  0  0
   -4.6876   -0.4867   -2.9339 C   0  0  0  0  0  0  0  0  0  0  0  0
   -3.4836   -1.7955   -4.1529 H   0  0  0  0  0  0  0  0  0  0  0  0
   -1.1995    0.1522   -0.7902 N   0  0  0  0  0  0  0  0  0  0  0  0
   -0.6279    0.6441    0.0584 N   0  0  0  0  0  0  0  0  0  0  0  0
   -5.5769   -0.6440   -3.5354 H   0  0  0  0  0  0  0  0  0  0  0  0
   -5.6610    0.8670   -1.5624 H   0  0  0  0  0  0  0  0  0  0  0  0
   -3.5784    1.2569   -0.2201 H   0  0  0  0  0  0  0  0  0  0  0  0
   -0.2511   -1.0341   -2.1764 N   0  0  0  0  0  0  0  0  0  0  0  0
   -1.1213   -1.5575   -2.8300 N   0  0  0  0  0  0  0  0  0  0  0  0
   -0.9049   -2.6131   -3.8263 C   0  0  0  0  0  0  0  0  0  0  0  0
    0.2043   -2.4762   -4.6605 C   0  0  0  0  0  0  0  0  0  0  0  0
   -1.7324   -3.7381   -3.8435 C   0  0  0  0  0  0  0  0  0  0  0  0
    0.4729   -3.4969   -5.5697 C   0  0  0  0  0  0  0  0  0  0  0  0
    0.8317   -1.5944   -4.5927 H   0  0  0  0  0  0  0  0  0  0  0  0
   -1.4369   -4.7538   -4.7528 C   0  0  0  0  0  0  0  0  0  0  0  0
   -2.5591   -3.8434   -3.1490 H   0  0  0  0  0  0  0  0  0  0  0  0
   -0.3446   -4.6305   -5.6160 C   0  0  0  0  0  0  0  0  0  0  0  0
    1.3234   -3.4083   -6.2373 H   0  0  0  0  0  0  0  0  0  0  0  0
   -2.0556   -5.6447   -4.7776 H   0  0  0  0  0  0  0  0  0  0  0  0
   -0.1254   -5.4245   -6.3227 H   0  0  0  0  0  0  0  0  0  0  0  0
  1  6  2  0  0  0  0
  1  2  1  0  0  0  0
  2  3  2  0  0  0  0
  3  4  1  0  0  0  0
  3  8  1  0  0  0  0
  4 12  1  0  0  0  0
  5 11  1  0  0  0  0
  5  4  2  0  0  0  0
  6  5  1  0  0  0  0
  7  1  1  0  0  0  0
  8  9  2  0  0  0  0
 10  6  1  0  0  0  0
 14  2  1  0  0  0  0
 14 13  1  0  0  0  0
 15 14  1  0  0  0  0
 16 19  1  0  0  0  0
 16 15  2  0  0  0  0
 17 15  1  0  0  0  0
 17 21  1  0  0  0  0
 18 16  1  0  0  0  0
 20 17  2  0  0  0  0
 22 18  2  0  0  0  0
 22 20  1  0  0  0  0
 23 18  1  0  0  0  0
 24 20  1  0  0  0  0
 25 22  1  0  0  0  0
M  RAD  2   9   2  13   3
M  END
