Coordinates from ORCA-job 1a-Schema5-R6-D+-B3LYPG-6-31G_dp-scan-d49-09-n400
 OpenBabel08281819463D

 25 25  0  0  0  0  0  0  0  0999 V2000
   -3.6282   -0.8074   -3.3734 C   0  0  0  0  0  0  0  0  0  0  0  0
   -2.5668   -0.8718   -2.4668 C   0  0  0  0  0  0  0  0  0  0  0  0
   -2.8390   -0.2661   -1.2283 C   0  0  0  0  0  0  0  0  0  0  0  0
   -4.0493    0.3612   -0.8328 C   0  0  0  0  0  0  0  0  0  0  0  0
   -5.0573    0.3842   -1.7759 C   0  0  0  0  0  0  0  0  0  0  0  0
   -4.8439   -0.1974   -3.0418 C   0  0  0  0  0  0  0  0  0  0  0  0
   -3.5183   -1.2411   -4.3649 H   0  0  0  0  0  0  0  0  0  0  0  0
   -1.8148   -0.2862   -0.3013 N   0  0  0  0  0  0  0  0  0  0  0  0
   -0.9723   -0.3103    0.4315 N   0  0  0  0  0  0  0  0  0  0  0  0
   -5.6450   -0.1661   -3.7758 H   0  0  0  0  0  0  0  0  0  0  0  0
   -6.0078    0.8499   -1.5411 H   0  0  0  0  0  0  0  0  0  0  0  0
   -4.1686    0.7952    0.1547 H   0  0  0  0  0  0  0  0  0  0  0  0
    0.6354   -0.4563   -3.0757 N   0  0  0  0  0  0  0  0  0  0  0  0
   -0.1709   -1.2365   -3.2800 N   0  0  0  0  0  0  0  0  0  0  0  0
   -0.3271   -2.4606   -4.0228 C   0  0  0  0  0  0  0  0  0  0  0  0
    0.6062   -2.6844   -5.0476 C   0  0  0  0  0  0  0  0  0  0  0  0
   -1.3184   -3.3750   -3.6851 C   0  0  0  0  0  0  0  0  0  0  0  0
    0.5142   -3.8762   -5.7570 C   0  0  0  0  0  0  0  0  0  0  0  0
    1.3659   -1.9441   -5.2732 H   0  0  0  0  0  0  0  0  0  0  0  0
   -1.3759   -4.5721   -4.3962 C   0  0  0  0  0  0  0  0  0  0  0  0
   -2.0078   -3.1355   -2.8846 H   0  0  0  0  0  0  0  0  0  0  0  0
   -0.4695   -4.8182   -5.4315 C   0  0  0  0  0  0  0  0  0  0  0  0
    1.2143   -4.0707   -6.5628 H   0  0  0  0  0  0  0  0  0  0  0  0
   -2.1307   -5.3090   -4.1437 H   0  0  0  0  0  0  0  0  0  0  0  0
   -0.5281   -5.7474   -5.9890 H   0  0  0  0  0  0  0  0  0  0  0  0
  1  6  2  0  0  0  0
  1  2  1  0  0  0  0
  2  3  2  0  0  0  0
  3  4  1  0  0  0  0
  3  8  1  0  0  0  0
  4 12  1  0  0  0  0
  5 11  1  0  0  0  0
  5  4  2  0  0  0  0
  6  5  1  0  0  0  0
  7  1  1  0  0  0  0
  8  9  1  0  0  0  0
 10  6  1  0  0  0  0
 14 13  2  0  0  0  0
 15 17  1  0  0  0  0
 15 14  1  0  0  0  0
 16 15  2  0  0  0  0
 17 21  1  0  0  0  0
 18 22  2  0  0  0  0
 18 16  1  0  0  0  0
 19 16  1  0  0  0  0
 20 24  1  0  0  0  0
 20 17  2  0  0  0  0
 22 20  1  0  0  0  0
 23 18  1  0  0  0  0
 25 22  1  0  0  0  0
M  RAD  4   2   2   8   2   9   3  13   2
M  END
