Coordinates from ORCA-job 1a-Schema5-R6-D+-B3LYPG-6-31G_dp-scan-d49-09-n400
 OpenBabel08281819463D

 25 25  0  0  0  0  0  0  0  0999 V2000
   -3.9163   -0.4677   -3.2630 C   0  0  0  0  0  0  0  0  0  0  0  0
   -2.9513   -1.0241   -2.3870 C   0  0  0  0  0  0  0  0  0  0  0  0
   -3.2613   -0.6754   -1.0533 C   0  0  0  0  0  0  0  0  0  0  0  0
   -4.3325    0.1075   -0.5419 C   0  0  0  0  0  0  0  0  0  0  0  0
   -5.2080    0.6070   -1.4805 C   0  0  0  0  0  0  0  0  0  0  0  0
   -4.9944    0.3129   -2.8458 C   0  0  0  0  0  0  0  0  0  0  0  0
   -3.8254   -0.6580   -4.3333 H   0  0  0  0  0  0  0  0  0  0  0  0
   -2.3825   -1.1851   -0.1147 N   0  0  0  0  0  0  0  0  0  0  0  0
   -1.6502   -1.6194    0.6112 N   0  0  0  0  0  0  0  0  0  0  0  0
   -5.6933    0.7081   -3.5793 H   0  0  0  0  0  0  0  0  0  0  0  0
   -6.0526    1.2141   -1.1729 H   0  0  0  0  0  0  0  0  0  0  0  0
   -4.4503    0.2978    0.5207 H   0  0  0  0  0  0  0  0  0  0  0  0
    0.3150    0.1676   -4.3805 N   0  0  0  0  0  0  0  0  0  0  0  0
    0.1964   -0.9365   -4.4898 N   0  0  0  0  0  0  0  0  0  0  0  0
    0.0696   -2.2987   -4.6463 C   0  0  0  0  0  0  0  0  0  0  0  0
    0.9800   -2.9474   -5.5117 C   0  0  0  0  0  0  0  0  0  0  0  0
   -0.9647   -2.9353   -3.9321 C   0  0  0  0  0  0  0  0  0  0  0  0
    0.8282   -4.3150   -5.6590 C   0  0  0  0  0  0  0  0  0  0  0  0
    1.7541   -2.3932   -6.0309 H   0  0  0  0  0  0  0  0  0  0  0  0
   -1.0746   -4.3093   -4.1192 C   0  0  0  0  0  0  0  0  0  0  0  0
   -1.6408   -2.3250   -3.2790 H   0  0  0  0  0  0  0  0  0  0  0  0
   -0.1935   -4.9899   -4.9677 C   0  0  0  0  0  0  0  0  0  0  0  0
    1.5004   -4.8618   -6.3113 H   0  0  0  0  0  0  0  0  0  0  0  0
   -1.8572   -4.8522   -3.5992 H   0  0  0  0  0  0  0  0  0  0  0  0
   -0.2987   -6.0629   -5.0988 H   0  0  0  0  0  0  0  0  0  0  0  0
  1  6  2  0  0  0  0
  1  2  1  0  0  0  0
  2  3  2  0  0  0  0
  3  4  1  0  0  0  0
  3  8  1  0  0  0  0
  4 12  1  0  0  0  0
  5 11  1  0  0  0  0
  5  4  2  0  0  0  0
  6  5  1  0  0  0  0
  7  1  1  0  0  0  0
  8  9  1  0  0  0  0
 10  6  1  0  0  0  0
 14 13  1  0  0  0  0
 15 14  1  0  0  0  0
 15 17  2  0  0  0  0
 16 15  1  0  0  0  0
 17 21  1  0  0  0  0
 18 16  2  0  0  0  0
 18 22  1  0  0  0  0
 19 16  1  0  0  0  0
 20 17  1  0  0  0  0
 20 24  1  0  0  0  0
 22 20  2  0  0  0  0
 23 18  1  0  0  0  0
 25 22  1  0  0  0  0
M  RAD  5   2   2   8   2   9   3  13   3  14   2
M  END
