Coordinates from ORCA-job 1a-Schema5-R6-D+-B3LYPG-6-31G_dp-scan-d49-09-n400
 OpenBabel08281819463D

 25 26  0  0  0  0  0  0  0  0999 V2000
   -3.7612   -0.3441   -3.6484 C   0  0  0  0  0  0  0  0  0  0  0  0
   -2.4941   -0.5786   -3.0003 C   0  0  0  0  0  0  0  0  0  0  0  0
   -2.4860   -0.4913   -1.5446 C   0  0  0  0  0  0  0  0  0  0  0  0
   -3.6054    0.0678   -0.8316 C   0  0  0  0  0  0  0  0  0  0  0  0
   -4.7367    0.3858   -1.5165 C   0  0  0  0  0  0  0  0  0  0  0  0
   -4.8126    0.1458   -2.9304 C   0  0  0  0  0  0  0  0  0  0  0  0
   -3.8338   -0.5263   -4.7150 H   0  0  0  0  0  0  0  0  0  0  0  0
   -1.4010   -0.8692   -0.8750 N   0  0  0  0  0  0  0  0  0  0  0  0
   -0.4756   -1.1785   -0.2986 N   0  0  0  0  0  0  0  0  0  0  0  0
   -5.7457    0.3511   -3.4459 H   0  0  0  0  0  0  0  0  0  0  0  0
   -5.5897    0.8037   -0.9951 H   0  0  0  0  0  0  0  0  0  0  0  0
   -3.5157    0.2152    0.2390 H   0  0  0  0  0  0  0  0  0  0  0  0
   -1.0884    0.0099   -3.8446 N   0  0  0  0  0  0  0  0  0  0  0  0
   -1.4282   -1.1776   -3.7026 N   0  0  0  0  0  0  0  0  0  0  0  0
   -0.9300   -2.4337   -4.1208 C   0  0  0  0  0  0  0  0  0  0  0  0
    0.2687   -2.4667   -4.8478 C   0  0  0  0  0  0  0  0  0  0  0  0
   -1.6607   -3.5838   -3.7935 C   0  0  0  0  0  0  0  0  0  0  0  0
    0.7446   -3.7051   -5.2564 C   0  0  0  0  0  0  0  0  0  0  0  0
    0.7938   -1.5449   -5.0762 H   0  0  0  0  0  0  0  0  0  0  0  0
   -1.1638   -4.8128   -4.2153 C   0  0  0  0  0  0  0  0  0  0  0  0
   -2.5898   -3.5122   -3.2373 H   0  0  0  0  0  0  0  0  0  0  0  0
    0.0316   -4.8715   -4.9410 C   0  0  0  0  0  0  0  0  0  0  0  0
    1.6692   -3.7682   -5.8196 H   0  0  0  0  0  0  0  0  0  0  0  0
   -1.7056   -5.7226   -3.9816 H   0  0  0  0  0  0  0  0  0  0  0  0
    0.4123   -5.8341   -5.2663 H   0  0  0  0  0  0  0  0  0  0  0  0
  1  2  2  0  0  0  0
  1  6  1  0  0  0  0
  2  3  1  0  0  0  0
  3  8  1  0  0  0  0
  3  4  2  0  0  0  0
  4 12  1  0  0  0  0
  5 11  1  0  0  0  0
  5  4  1  0  0  0  0
  6  5  2  0  0  0  0
  7  1  1  0  0  0  0
  8  9  1  0  0  0  0
 10  6  1  0  0  0  0
 13 14  1  0  0  0  0
 14  2  1  0  0  0  0
 15 17  1  0  0  0  0
 15 14  1  0  0  0  0
 16 15  2  0  0  0  0
 17 21  1  0  0  0  0
 18 22  2  0  0  0  0
 18 16  1  0  0  0  0
 19 16  1  0  0  0  0
 20 24  1  0  0  0  0
 20 17  2  0  0  0  0
 22 20  1  0  0  0  0
 23 18  1  0  0  0  0
 25 22  1  0  0  0  0
M  RAD  3   8   2   9   3  13   3
M  END
