Coordinates from ORCA-job 1a-Schema5-R6-D+-B3LYPG-6-31G_dp-scan-d49-09-n400
 OpenBabel08281819463D

 25 25  0  0  0  0  0  0  0  0999 V2000
   -3.9071   -0.4610   -3.2665 C   0  0  0  0  0  0  0  0  0  0  0  0
   -2.9535   -1.0328   -2.3880 C   0  0  0  0  0  0  0  0  0  0  0  0
   -3.2603   -0.6772   -1.0553 C   0  0  0  0  0  0  0  0  0  0  0  0
   -4.3185    0.1251   -0.5471 C   0  0  0  0  0  0  0  0  0  0  0  0
   -5.1830    0.6391   -1.4881 C   0  0  0  0  0  0  0  0  0  0  0  0
   -4.9720    0.3394   -2.8525 C   0  0  0  0  0  0  0  0  0  0  0  0
   -3.8184   -0.6550   -4.3364 H   0  0  0  0  0  0  0  0  0  0  0  0
   -2.3930   -1.2015   -0.1140 N   0  0  0  0  0  0  0  0  0  0  0  0
   -1.6706   -1.6481    0.6143 N   0  0  0  0  0  0  0  0  0  0  0  0
   -5.6624    0.7456   -3.5880 H   0  0  0  0  0  0  0  0  0  0  0  0
   -6.0173    1.2615   -1.1830 H   0  0  0  0  0  0  0  0  0  0  0  0
   -4.4353    0.3185    0.5151 H   0  0  0  0  0  0  0  0  0  0  0  0
    0.2199    0.1636   -4.3688 N   0  0  0  0  0  0  0  0  0  0  0  0
    0.1240   -0.9430   -4.4753 N   0  0  0  0  0  0  0  0  0  0  0  0
    0.0319   -2.3076   -4.6369 C   0  0  0  0  0  0  0  0  0  0  0  0
    0.9557   -2.9276   -5.5090 C   0  0  0  0  0  0  0  0  0  0  0  0
   -0.9815   -2.9758   -3.9220 C   0  0  0  0  0  0  0  0  0  0  0  0
    0.8402   -4.2982   -5.6625 C   0  0  0  0  0  0  0  0  0  0  0  0
    1.7126   -2.3504   -6.0286 H   0  0  0  0  0  0  0  0  0  0  0  0
   -1.0555   -4.3513   -4.1149 C   0  0  0  0  0  0  0  0  0  0  0  0
   -1.6666   -2.3816   -3.2661 H   0  0  0  0  0  0  0  0  0  0  0  0
   -0.1599   -5.0038   -4.9704 C   0  0  0  0  0  0  0  0  0  0  0  0
    1.5240   -4.8234   -6.3203 H   0  0  0  0  0  0  0  0  0  0  0  0
   -1.8207   -4.9179   -3.5943 H   0  0  0  0  0  0  0  0  0  0  0  0
   -0.2366   -6.0786   -5.1064 H   0  0  0  0  0  0  0  0  0  0  0  0
  1  6  2  0  0  0  0
  1  2  1  0  0  0  0
  2  3  2  0  0  0  0
  3  4  1  0  0  0  0
  3  8  1  0  0  0  0
  4 12  1  0  0  0  0
  5 11  1  0  0  0  0
  5  4  2  0  0  0  0
  6  5  1  0  0  0  0
  7  1  1  0  0  0  0
  8  9  1  0  0  0  0
 10  6  1  0  0  0  0
 14 13  1  0  0  0  0
 15 14  1  0  0  0  0
 15 17  2  0  0  0  0
 16 15  1  0  0  0  0
 17 21  1  0  0  0  0
 18 16  2  0  0  0  0
 18 22  1  0  0  0  0
 19 16  1  0  0  0  0
 20 17  1  0  0  0  0
 20 24  1  0  0  0  0
 22 20  2  0  0  0  0
 23 18  1  0  0  0  0
 25 22  1  0  0  0  0
M  RAD  5   2   2   8   2   9   3  13   3  14   2
M  END
