Coordinates from ORCA-job 1a-Schema5-R6-D+-B3LYPG-6-31G_dp-scan-d49-09-n400
 OpenBabel08281819463D

 25 25  0  0  0  0  0  0  0  0999 V2000
   -3.9858   -0.5261   -3.2414 C   0  0  0  0  0  0  0  0  0  0  0  0
   -2.9414   -0.9574   -2.3859 C   0  0  0  0  0  0  0  0  0  0  0  0
   -3.2648   -0.6494   -1.0456 C   0  0  0  0  0  0  0  0  0  0  0  0
   -4.4165   -0.0093   -0.5103 C   0  0  0  0  0  0  0  0  0  0  0  0
   -5.3683    0.3723   -1.4295 C   0  0  0  0  0  0  0  0  0  0  0  0
   -5.1462    0.1091   -2.8001 C   0  0  0  0  0  0  0  0  0  0  0  0
   -3.8890   -0.6979   -4.3142 H   0  0  0  0  0  0  0  0  0  0  0  0
   -2.3065   -1.0391   -0.1284 N   0  0  0  0  0  0  0  0  0  0  0  0
   -1.5062   -1.3727    0.5789 N   0  0  0  0  0  0  0  0  0  0  0  0
   -5.9043    0.4133   -3.5182 H   0  0  0  0  0  0  0  0  0  0  0  0
   -6.2769    0.8667   -1.1034 H   0  0  0  0  0  0  0  0  0  0  0  0
   -4.5347    0.1665    0.5548 H   0  0  0  0  0  0  0  0  0  0  0  0
    1.0259    0.1276   -4.4884 N   0  0  0  0  0  0  0  0  0  0  0  0
    0.6946   -0.9353   -4.5689 N   0  0  0  0  0  0  0  0  0  0  0  0
    0.3111   -2.2516   -4.6887 C   0  0  0  0  0  0  0  0  0  0  0  0
    1.1136   -3.0831   -5.5054 C   0  0  0  0  0  0  0  0  0  0  0  0
   -0.8443   -2.6687   -3.9973 C   0  0  0  0  0  0  0  0  0  0  0  0
    0.7221   -4.4043   -5.6270 C   0  0  0  0  0  0  0  0  0  0  0  0
    1.9922   -2.6939   -6.0079 H   0  0  0  0  0  0  0  0  0  0  0  0
   -1.1923   -4.0063   -4.1582 C   0  0  0  0  0  0  0  0  0  0  0  0
   -1.4659   -1.9794   -3.3633 H   0  0  0  0  0  0  0  0  0  0  0  0
   -0.4260   -4.8621   -4.9571 C   0  0  0  0  0  0  0  0  0  0  0  0
    1.3046   -5.0818   -6.2416 H   0  0  0  0  0  0  0  0  0  0  0  0
   -2.0777   -4.3775   -3.6523 H   0  0  0  0  0  0  0  0  0  0  0  0
   -0.7212   -5.9014   -5.0656 H   0  0  0  0  0  0  0  0  0  0  0  0
  1  6  2  0  0  0  0
  1  2  1  0  0  0  0
  2  3  2  0  0  0  0
  3  4  1  0  0  0  0
  3  8  1  0  0  0  0
  4 12  1  0  0  0  0
  5 11  1  0  0  0  0
  5  4  2  0  0  0  0
  6  5  1  0  0  0  0
  7  1  1  0  0  0  0
  8  9  1  0  0  0  0
 10  6  1  0  0  0  0
 14 13  1  0  0  0  0
 15 14  1  0  0  0  0
 15 17  2  0  0  0  0
 16 15  1  0  0  0  0
 17 21  1  0  0  0  0
 18 16  2  0  0  0  0
 18 22  1  0  0  0  0
 19 16  1  0  0  0  0
 20 17  1  0  0  0  0
 20 24  1  0  0  0  0
 22 20  2  0  0  0  0
 23 18  1  0  0  0  0
 25 22  1  0  0  0  0
M  RAD  5   2   2   8   2   9   3  13   3  14   2
M  END
