Coordinates from ORCA-job 1a-Schema5-R6-D+-B3LYPG-6-31G_dp-scan-d49-09-n400
 OpenBabel08281819463D

 25 25  0  0  0  0  0  0  0  0999 V2000
   -3.5856   -0.9755   -3.3585 C   0  0  0  0  0  0  0  0  0  0  0  0
   -2.5095   -0.9480   -2.4766 C   0  0  0  0  0  0  0  0  0  0  0  0
   -2.7157   -0.2078   -1.3034 C   0  0  0  0  0  0  0  0  0  0  0  0
   -3.9100    0.4651   -0.9428 C   0  0  0  0  0  0  0  0  0  0  0  0
   -4.9513    0.3916   -1.8489 C   0  0  0  0  0  0  0  0  0  0  0  0
   -4.7869   -0.3224   -3.0508 C   0  0  0  0  0  0  0  0  0  0  0  0
   -3.5022   -1.5123   -4.3001 H   0  0  0  0  0  0  0  0  0  0  0  0
   -1.6573   -0.1244   -0.4163 N   0  0  0  0  0  0  0  0  0  0  0  0
   -0.7939   -0.0537    0.2870 N   0  0  0  0  0  0  0  0  0  0  0  0
   -5.6124   -0.3634   -3.7566 H   0  0  0  0  0  0  0  0  0  0  0  0
   -5.8908    0.8877   -1.6322 H   0  0  0  0  0  0  0  0  0  0  0  0
   -3.9944    1.0049   -0.0051 H   0  0  0  0  0  0  0  0  0  0  0  0
    0.4450   -0.6590   -2.6744 N   0  0  0  0  0  0  0  0  0  0  0  0
   -0.4026   -1.3567   -3.0206 N   0  0  0  0  0  0  0  0  0  0  0  0
   -0.4771   -2.5081   -3.8943 C   0  0  0  0  0  0  0  0  0  0  0  0
    0.4803   -2.5921   -4.9125 C   0  0  0  0  0  0  0  0  0  0  0  0
   -1.4280   -3.4977   -3.6673 C   0  0  0  0  0  0  0  0  0  0  0  0
    0.4587   -3.7131   -5.7368 C   0  0  0  0  0  0  0  0  0  0  0  0
    1.2077   -1.7994   -5.0492 H   0  0  0  0  0  0  0  0  0  0  0  0
   -1.4160   -4.6231   -4.4907 C   0  0  0  0  0  0  0  0  0  0  0  0
   -2.1377   -3.3942   -2.8555 H   0  0  0  0  0  0  0  0  0  0  0  0
   -0.4829   -4.7262   -5.5258 C   0  0  0  0  0  0  0  0  0  0  0  0
    1.1814   -3.7965   -6.5420 H   0  0  0  0  0  0  0  0  0  0  0  0
   -2.1354   -5.4176   -4.3218 H   0  0  0  0  0  0  0  0  0  0  0  0
   -0.4873   -5.5999   -6.1698 H   0  0  0  0  0  0  0  0  0  0  0  0
  1  6  2  0  0  0  0
  1  2  1  0  0  0  0
  2  3  2  0  0  0  0
  3  4  1  0  0  0  0
  3  8  1  0  0  0  0
  4 12  1  0  0  0  0
  5 11  1  0  0  0  0
  5  4  2  0  0  0  0
  6  5  1  0  0  0  0
  7  1  1  0  0  0  0
  8  9  1  0  0  0  0
 10  6  1  0  0  0  0
 14 13  2  0  0  0  0
 15 17  1  0  0  0  0
 15 14  1  0  0  0  0
 16 15  2  0  0  0  0
 17 21  1  0  0  0  0
 18 22  2  0  0  0  0
 18 16  1  0  0  0  0
 19 16  1  0  0  0  0
 20 24  1  0  0  0  0
 20 17  2  0  0  0  0
 22 20  1  0  0  0  0
 23 18  1  0  0  0  0
 25 22  1  0  0  0  0
M  RAD  4   2   2   8   2   9   3  13   2
M  END
