Coordinates from ORCA-job 1a-Schema5-R6-D+-B3LYPG-6-31G_dp-scan-d49-09-n400
 OpenBabel08281819463D

 25 26  0  0  0  0  0  0  0  0999 V2000
   -3.4977   -1.1231   -3.2928 C   0  0  0  0  0  0  0  0  0  0  0  0
   -2.3320   -0.9366   -2.5444 C   0  0  0  0  0  0  0  0  0  0  0  0
   -2.4221   -0.0741   -1.4465 C   0  0  0  0  0  0  0  0  0  0  0  0
   -3.5959    0.5611   -1.0485 C   0  0  0  0  0  0  0  0  0  0  0  0
   -4.7467    0.3476   -1.8076 C   0  0  0  0  0  0  0  0  0  0  0  0
   -4.6883   -0.4790   -2.9296 C   0  0  0  0  0  0  0  0  0  0  0  0
   -3.4773   -1.7565   -4.1713 H   0  0  0  0  0  0  0  0  0  0  0  0
   -1.2035    0.1606   -0.7895 N   0  0  0  0  0  0  0  0  0  0  0  0
   -0.6155    0.6330    0.0577 N   0  0  0  0  0  0  0  0  0  0  0  0
   -5.5757   -0.6315   -3.5351 H   0  0  0  0  0  0  0  0  0  0  0  0
   -5.6730    0.8374   -1.5291 H   0  0  0  0  0  0  0  0  0  0  0  0
   -3.5899    1.2159   -0.1839 H   0  0  0  0  0  0  0  0  0  0  0  0
   -0.2709   -0.9599   -2.2439 N   0  0  0  0  0  0  0  0  0  0  0  0
   -1.1269   -1.5355   -2.8667 N   0  0  0  0  0  0  0  0  0  0  0  0
   -0.9064   -2.6048   -3.8451 C   0  0  0  0  0  0  0  0  0  0  0  0
    0.2150   -2.4864   -4.6659 C   0  0  0  0  0  0  0  0  0  0  0  0
   -1.7423   -3.7236   -3.8589 C   0  0  0  0  0  0  0  0  0  0  0  0
    0.4886   -3.5209   -5.5574 C   0  0  0  0  0  0  0  0  0  0  0  0
    0.8475   -1.6081   -4.6000 H   0  0  0  0  0  0  0  0  0  0  0  0
   -1.4418   -4.7533   -4.7506 C   0  0  0  0  0  0  0  0  0  0  0  0
   -2.5800   -3.8135   -3.1756 H   0  0  0  0  0  0  0  0  0  0  0  0
   -0.3368   -4.6493   -5.5999 C   0  0  0  0  0  0  0  0  0  0  0  0
    1.3485   -3.4474   -6.2146 H   0  0  0  0  0  0  0  0  0  0  0  0
   -2.0670   -5.6398   -4.7728 H   0  0  0  0  0  0  0  0  0  0  0  0
   -0.1139   -5.4541   -6.2931 H   0  0  0  0  0  0  0  0  0  0  0  0
  1  6  2  0  0  0  0
  1  2  1  0  0  0  0
  2  3  2  0  0  0  0
  3  4  1  0  0  0  0
  3  8  1  0  0  0  0
  4 12  1  0  0  0  0
  5 11  1  0  0  0  0
  5  4  2  0  0  0  0
  6  5  1  0  0  0  0
  7  1  1  0  0  0  0
  8  9  2  0  0  0  0
 10  6  1  0  0  0  0
 14  2  1  0  0  0  0
 14 13  1  0  0  0  0
 15 14  1  0  0  0  0
 16 19  1  0  0  0  0
 16 15  2  0  0  0  0
 17 15  1  0  0  0  0
 17 21  1  0  0  0  0
 18 16  1  0  0  0  0
 20 17  2  0  0  0  0
 22 18  2  0  0  0  0
 22 20  1  0  0  0  0
 23 18  1  0  0  0  0
 24 20  1  0  0  0  0
 25 22  1  0  0  0  0
M  RAD  2   9   2  13   3
M  END
