Coordinates from ORCA-job 1a-Schema5-R6-D+-B3LYPG-6-31G_dp-scan-d49-09-n400
 OpenBabel08281819463D

 25 26  0  0  0  0  0  0  0  0999 V2000
   -0.4045    0.0963   -2.1044 C   0  0  0  0  0  0  0  0  0  0  0  0
   -1.5146   -0.7483   -2.0452 C   0  0  0  0  0  0  0  0  0  0  0  0
   -2.7480   -0.2241   -2.5163 C   0  0  0  0  0  0  0  0  0  0  0  0
   -2.8779    1.0708   -3.0838 C   0  0  0  0  0  0  0  0  0  0  0  0
   -1.7423    1.8472   -3.1730 C   0  0  0  0  0  0  0  0  0  0  0  0
   -0.5116    1.3564   -2.6861 C   0  0  0  0  0  0  0  0  0  0  0  0
    0.5373   -0.2537   -1.6952 H   0  0  0  0  0  0  0  0  0  0  0  0
   -3.8642   -1.0000   -2.4196 N   0  0  0  0  0  0  0  0  0  0  0  0
   -4.7846   -1.6279   -2.3176 N   0  0  0  0  0  0  0  0  0  0  0  0
    0.3726    1.9826   -2.7554 H   0  0  0  0  0  0  0  0  0  0  0  0
   -1.8021    2.8409   -3.6014 H   0  0  0  0  0  0  0  0  0  0  0  0
   -3.8461    1.4234   -3.4219 H   0  0  0  0  0  0  0  0  0  0  0  0
   -1.4699   -1.9775   -1.1496 N   0  0  0  0  0  0  0  0  0  0  0  0
   -1.6874   -3.1424   -1.5090 N   0  0  0  0  0  0  0  0  0  0  0  0
   -1.8525   -3.5984   -2.8384 C   0  0  0  0  0  0  0  0  0  0  0  0
   -2.6051   -4.7816   -2.9508 C   0  0  0  0  0  0  0  0  0  0  0  0
   -1.2614   -3.0168   -3.9769 C   0  0  0  0  0  0  0  0  0  0  0  0
   -2.8381   -5.3348   -4.2061 C   0  0  0  0  0  0  0  0  0  0  0  0
   -2.9967   -5.2361   -2.0471 H   0  0  0  0  0  0  0  0  0  0  0  0
   -1.4723   -3.6018   -5.2217 C   0  0  0  0  0  0  0  0  0  0  0  0
   -0.6015   -2.1624   -3.8883 H   0  0  0  0  0  0  0  0  0  0  0  0
   -2.2719   -4.7455   -5.3403 C   0  0  0  0  0  0  0  0  0  0  0  0
   -3.4338   -6.2366   -4.2985 H   0  0  0  0  0  0  0  0  0  0  0  0
   -0.9985   -3.1789   -6.1014 H   0  0  0  0  0  0  0  0  0  0  0  0
   -2.4285   -5.1924   -6.3170 H   0  0  0  0  0  0  0  0  0  0  0  0
  1  2  1  0  0  0  0
  1  7  1  0  0  0  0
  2 13  1  0  0  0  0
  3  8  1  0  0  0  0
  3  2  2  0  0  0  0
  4  3  1  0  0  0  0
  5  4  2  0  0  0  0
  5  6  1  0  0  0  0
  6  1  2  0  0  0  0
  8  9  1  0  0  0  0
 10  6  1  0  0  0  0
 11  5  1  0  0  0  0
 12  4  1  0  0  0  0
 14 13  2  0  0  0  0
 15 14  1  0  0  0  0
 16 15  1  0  0  0  0
 16 19  1  0  0  0  0
 17 21  1  0  0  0  0
 17 15  2  0  0  0  0
 18 16  2  0  0  0  0
 20 17  1  0  0  0  0
 22 20  2  0  0  0  0
 22 18  1  0  0  0  0
 23 18  1  0  0  0  0
 24 20  1  0  0  0  0
 25 22  1  0  0  0  0
M  RAD  2   8   2   9   3
M  END
