Coordinates from ORCA-job 1a-Schema5-R6-D+-B3LYPG-6-31G_dp-scan-d49-09-n400
 OpenBabel08281819463D

 25 25  0  0  0  0  0  0  0  0999 V2000
   -3.9241   -0.4592   -3.2620 C   0  0  0  0  0  0  0  0  0  0  0  0
   -2.9577   -1.0209   -2.3908 C   0  0  0  0  0  0  0  0  0  0  0  0
   -3.2659   -0.6805   -1.0545 C   0  0  0  0  0  0  0  0  0  0  0  0
   -4.3366    0.0988   -0.5367 C   0  0  0  0  0  0  0  0  0  0  0  0
   -5.2137    0.6037   -1.4709 C   0  0  0  0  0  0  0  0  0  0  0  0
   -5.0019    0.3183   -2.8384 C   0  0  0  0  0  0  0  0  0  0  0  0
   -3.8343   -0.6424   -4.3336 H   0  0  0  0  0  0  0  0  0  0  0  0
   -2.3855   -1.1956   -0.1205 N   0  0  0  0  0  0  0  0  0  0  0  0
   -1.6519   -1.6342    0.6015 N   0  0  0  0  0  0  0  0  0  0  0  0
   -5.7019    0.7178   -3.5684 H   0  0  0  0  0  0  0  0  0  0  0  0
   -6.0580    1.2086   -1.1583 H   0  0  0  0  0  0  0  0  0  0  0  0
   -4.4529    0.2825    0.5273 H   0  0  0  0  0  0  0  0  0  0  0  0
    0.3376    0.1717   -4.4166 N   0  0  0  0  0  0  0  0  0  0  0  0
    0.2089   -0.9327   -4.5119 N   0  0  0  0  0  0  0  0  0  0  0  0
    0.0756   -2.2956   -4.6560 C   0  0  0  0  0  0  0  0  0  0  0  0
    0.9885   -2.9543   -5.5115 C   0  0  0  0  0  0  0  0  0  0  0  0
   -0.9641   -2.9239   -3.9420 C   0  0  0  0  0  0  0  0  0  0  0  0
    0.8342   -4.3226   -5.6488 C   0  0  0  0  0  0  0  0  0  0  0  0
    1.7669   -2.4063   -6.0309 H   0  0  0  0  0  0  0  0  0  0  0  0
   -1.0760   -4.2992   -4.1188 C   0  0  0  0  0  0  0  0  0  0  0  0
   -1.6440   -2.3116   -3.2943 H   0  0  0  0  0  0  0  0  0  0  0  0
   -0.1927   -4.9893   -4.9573 C   0  0  0  0  0  0  0  0  0  0  0  0
    1.5084   -4.8761   -6.2933 H   0  0  0  0  0  0  0  0  0  0  0  0
   -1.8626   -4.8359   -3.5984 H   0  0  0  0  0  0  0  0  0  0  0  0
   -0.3004   -6.0630   -5.0801 H   0  0  0  0  0  0  0  0  0  0  0  0
  1  6  2  0  0  0  0
  1  2  1  0  0  0  0
  2  3  2  0  0  0  0
  3  4  1  0  0  0  0
  3  8  1  0  0  0  0
  4 12  1  0  0  0  0
  5 11  1  0  0  0  0
  5  4  2  0  0  0  0
  6  5  1  0  0  0  0
  7  1  1  0  0  0  0
  8  9  1  0  0  0  0
 10  6  1  0  0  0  0
 14 13  1  0  0  0  0
 15 14  1  0  0  0  0
 15 17  2  0  0  0  0
 16 15  1  0  0  0  0
 17 21  1  0  0  0  0
 18 16  2  0  0  0  0
 18 22  1  0  0  0  0
 19 16  1  0  0  0  0
 20 17  1  0  0  0  0
 20 24  1  0  0  0  0
 22 20  2  0  0  0  0
 23 18  1  0  0  0  0
 25 22  1  0  0  0  0
M  RAD  5   2   2   8   2   9   3  13   3  14   2
M  END
