Coordinates from ORCA-job 1a-Schema5-R6-D+-B3LYPG-6-31G_dp-scan-d49-09-n400
 OpenBabel08281819463D

 25 25  0  0  0  0  0  0  0  0999 V2000
   -3.6143   -0.9336   -3.3541 C   0  0  0  0  0  0  0  0  0  0  0  0
   -2.5361   -0.9164   -2.4703 C   0  0  0  0  0  0  0  0  0  0  0  0
   -2.7658   -0.2080   -1.2814 C   0  0  0  0  0  0  0  0  0  0  0  0
   -3.9680    0.4439   -0.9061 C   0  0  0  0  0  0  0  0  0  0  0  0
   -5.0039    0.3803   -1.8180 C   0  0  0  0  0  0  0  0  0  0  0  0
   -4.8243   -0.3031   -3.0366 C   0  0  0  0  0  0  0  0  0  0  0  0
   -3.5252   -1.4471   -4.3085 H   0  0  0  0  0  0  0  0  0  0  0  0
   -1.7075   -0.1380   -0.3938 N   0  0  0  0  0  0  0  0  0  0  0  0
   -0.8351   -0.0865    0.3009 N   0  0  0  0  0  0  0  0  0  0  0  0
   -5.6468   -0.3375   -3.7463 H   0  0  0  0  0  0  0  0  0  0  0  0
   -5.9507    0.8591   -1.5946 H   0  0  0  0  0  0  0  0  0  0  0  0
   -4.0616    0.9604    0.0438 H   0  0  0  0  0  0  0  0  0  0  0  0
    0.5628   -0.6305   -2.7604 N   0  0  0  0  0  0  0  0  0  0  0  0
   -0.2800   -1.3378   -3.0799 N   0  0  0  0  0  0  0  0  0  0  0  0
   -0.4036   -2.5003   -3.9278 C   0  0  0  0  0  0  0  0  0  0  0  0
    0.5492   -2.6363   -4.9470 C   0  0  0  0  0  0  0  0  0  0  0  0
   -1.3888   -3.4501   -3.6792 C   0  0  0  0  0  0  0  0  0  0  0  0
    0.4850   -3.7715   -5.7484 C   0  0  0  0  0  0  0  0  0  0  0  0
    1.3038   -1.8728   -5.1016 H   0  0  0  0  0  0  0  0  0  0  0  0
   -1.4177   -4.5909   -4.4797 C   0  0  0  0  0  0  0  0  0  0  0  0
   -2.0931   -3.2955   -2.8714 H   0  0  0  0  0  0  0  0  0  0  0  0
   -0.4911   -4.7467   -5.5146 C   0  0  0  0  0  0  0  0  0  0  0  0
    1.2018   -3.8959   -6.5535 H   0  0  0  0  0  0  0  0  0  0  0  0
   -2.1649   -5.3555   -4.2950 H   0  0  0  0  0  0  0  0  0  0  0  0
   -0.5280   -5.6319   -6.1416 H   0  0  0  0  0  0  0  0  0  0  0  0
  1  6  2  0  0  0  0
  1  2  1  0  0  0  0
  2  3  2  0  0  0  0
  3  4  1  0  0  0  0
  3  8  1  0  0  0  0
  4 12  1  0  0  0  0
  5 11  1  0  0  0  0
  5  4  2  0  0  0  0
  6  5  1  0  0  0  0
  7  1  1  0  0  0  0
  8  9  1  0  0  0  0
 10  6  1  0  0  0  0
 14 13  2  0  0  0  0
 15 17  1  0  0  0  0
 15 14  1  0  0  0  0
 16 15  2  0  0  0  0
 17 21  1  0  0  0  0
 18 22  2  0  0  0  0
 18 16  1  0  0  0  0
 19 16  1  0  0  0  0
 20 24  1  0  0  0  0
 20 17  2  0  0  0  0
 22 20  1  0  0  0  0
 23 18  1  0  0  0  0
 25 22  1  0  0  0  0
M  RAD  4   2   2   8   2   9   3  13   2
M  END
