Coordinates from ORCA-job 1a-Schema5-R6-D+-B3LYPG-6-31G_dp-scan-d49-09-n400
 OpenBabel08281819463D

 25 26  0  0  0  0  0  0  0  0999 V2000
   -3.5187   -1.1921   -3.2989 C   0  0  0  0  0  0  0  0  0  0  0  0
   -2.3849   -0.9855   -2.5263 C   0  0  0  0  0  0  0  0  0  0  0  0
   -2.4240   -0.0826   -1.4694 C   0  0  0  0  0  0  0  0  0  0  0  0
   -3.5760    0.6151   -1.1170 C   0  0  0  0  0  0  0  0  0  0  0  0
   -4.7226    0.3892   -1.8821 C   0  0  0  0  0  0  0  0  0  0  0  0
   -4.6894   -0.4964   -2.9622 C   0  0  0  0  0  0  0  0  0  0  0  0
   -3.5001   -1.8644   -4.1475 H   0  0  0  0  0  0  0  0  0  0  0  0
   -1.1964    0.1182   -0.7843 N   0  0  0  0  0  0  0  0  0  0  0  0
   -0.6808    0.6542    0.0745 N   0  0  0  0  0  0  0  0  0  0  0  0
   -5.5823   -0.6495   -3.5592 H   0  0  0  0  0  0  0  0  0  0  0  0
   -5.6383    0.9163   -1.6376 H   0  0  0  0  0  0  0  0  0  0  0  0
   -3.5656    1.3103   -0.2843 H   0  0  0  0  0  0  0  0  0  0  0  0
   -0.1404   -1.1889   -2.0499 N   0  0  0  0  0  0  0  0  0  0  0  0
   -1.0681   -1.5944   -2.7400 N   0  0  0  0  0  0  0  0  0  0  0  0
   -0.8771   -2.6215   -3.7729 C   0  0  0  0  0  0  0  0  0  0  0  0
    0.1909   -2.4531   -4.6544 C   0  0  0  0  0  0  0  0  0  0  0  0
   -1.6930   -3.7550   -3.7854 C   0  0  0  0  0  0  0  0  0  0  0  0
    0.4270   -3.4462   -5.6028 C   0  0  0  0  0  0  0  0  0  0  0  0
    0.8123   -1.5663   -4.5955 H   0  0  0  0  0  0  0  0  0  0  0  0
   -1.4302   -4.7440   -4.7336 C   0  0  0  0  0  0  0  0  0  0  0  0
   -2.4850   -3.8875   -3.0554 H   0  0  0  0  0  0  0  0  0  0  0  0
   -0.3802   -4.5869   -5.6426 C   0  0  0  0  0  0  0  0  0  0  0  0
    1.2451   -3.3302   -6.3059 H   0  0  0  0  0  0  0  0  0  0  0  0
   -2.0401   -5.6411   -4.7528 H   0  0  0  0  0  0  0  0  0  0  0  0
   -0.1859   -5.3597   -6.3795 H   0  0  0  0  0  0  0  0  0  0  0  0
  1  6  2  0  0  0  0
  1  2  1  0  0  0  0
  2  3  2  0  0  0  0
  3  4  1  0  0  0  0
  3  8  1  0  0  0  0
  4 12  1  0  0  0  0
  5 11  1  0  0  0  0
  5  4  2  0  0  0  0
  6  5  1  0  0  0  0
  7  1  1  0  0  0  0
  8  9  2  0  0  0  0
 10  6  1  0  0  0  0
 14  2  1  0  0  0  0
 14 13  1  0  0  0  0
 15 14  1  0  0  0  0
 16 19  1  0  0  0  0
 16 15  2  0  0  0  0
 17 15  1  0  0  0  0
 17 21  1  0  0  0  0
 18 16  1  0  0  0  0
 20 17  2  0  0  0  0
 22 18  2  0  0  0  0
 22 20  1  0  0  0  0
 23 18  1  0  0  0  0
 24 20  1  0  0  0  0
 25 22  1  0  0  0  0
M  RAD  2   9   2  13   3
M  END
