Coordinates from ORCA-job 1a-Schema5-R6-D+-B3LYPG-6-31G_dp-scan-d49-09-n400
 OpenBabel08281819463D

 25 26  0  0  0  0  0  0  0  0999 V2000
   -3.5108   -1.1762   -3.2888 C   0  0  0  0  0  0  0  0  0  0  0  0
   -2.3644   -0.9745   -2.5265 C   0  0  0  0  0  0  0  0  0  0  0  0
   -2.4199   -0.0753   -1.4628 C   0  0  0  0  0  0  0  0  0  0  0  0
   -3.5773    0.6085   -1.1018 C   0  0  0  0  0  0  0  0  0  0  0  0
   -4.7265    0.3828   -1.8622 C   0  0  0  0  0  0  0  0  0  0  0  0
   -4.6872   -0.4936   -2.9484 C   0  0  0  0  0  0  0  0  0  0  0  0
   -3.4932   -1.8417   -4.1429 H   0  0  0  0  0  0  0  0  0  0  0  0
   -1.1954    0.1317   -0.7886 N   0  0  0  0  0  0  0  0  0  0  0  0
   -0.6542    0.6513    0.0648 N   0  0  0  0  0  0  0  0  0  0  0  0
   -5.5789   -0.6506   -3.5463 H   0  0  0  0  0  0  0  0  0  0  0  0
   -5.6447    0.9016   -1.6097 H   0  0  0  0  0  0  0  0  0  0  0  0
   -3.5665    1.2970   -0.2637 H   0  0  0  0  0  0  0  0  0  0  0  0
   -0.1996   -1.1320   -2.0932 N   0  0  0  0  0  0  0  0  0  0  0  0
   -1.0996   -1.5828   -2.7754 N   0  0  0  0  0  0  0  0  0  0  0  0
   -0.8943   -2.6203   -3.7950 C   0  0  0  0  0  0  0  0  0  0  0  0
    0.1917   -2.4606   -4.6554 C   0  0  0  0  0  0  0  0  0  0  0  0
   -1.7117   -3.7526   -3.8113 C   0  0  0  0  0  0  0  0  0  0  0  0
    0.4457   -3.4634   -5.5888 C   0  0  0  0  0  0  0  0  0  0  0  0
    0.8132   -1.5743   -4.5909 H   0  0  0  0  0  0  0  0  0  0  0  0
   -1.4310   -4.7506   -4.7447 C   0  0  0  0  0  0  0  0  0  0  0  0
   -2.5188   -3.8770   -3.0968 H   0  0  0  0  0  0  0  0  0  0  0  0
   -0.3625   -4.6034   -5.6336 C   0  0  0  0  0  0  0  0  0  0  0  0
    1.2781   -3.3556   -6.2762 H   0  0  0  0  0  0  0  0  0  0  0  0
   -2.0419   -5.6469   -4.7680 H   0  0  0  0  0  0  0  0  0  0  0  0
   -0.1544   -5.3836   -6.3588 H   0  0  0  0  0  0  0  0  0  0  0  0
  1  6  2  0  0  0  0
  1  2  1  0  0  0  0
  2  3  2  0  0  0  0
  3  4  1  0  0  0  0
  3  8  1  0  0  0  0
  4 12  1  0  0  0  0
  5 11  1  0  0  0  0
  5  4  2  0  0  0  0
  6  5  1  0  0  0  0
  7  1  1  0  0  0  0
  8  9  2  0  0  0  0
 10  6  1  0  0  0  0
 14  2  1  0  0  0  0
 14 13  1  0  0  0  0
 15 14  1  0  0  0  0
 16 19  1  0  0  0  0
 16 15  2  0  0  0  0
 17 15  1  0  0  0  0
 17 21  1  0  0  0  0
 18 16  1  0  0  0  0
 20 17  2  0  0  0  0
 22 18  2  0  0  0  0
 22 20  1  0  0  0  0
 23 18  1  0  0  0  0
 24 20  1  0  0  0  0
 25 22  1  0  0  0  0
M  RAD  2   9   2  13   3
M  END
