Coordinates from ORCA-job 1a-Schema5-R6-D+-B3LYPG-6-31G_dp-scan-d49-09-n400
 OpenBabel08281819463D

 25 25  0  0  0  0  0  0  0  0999 V2000
   -3.7903   -0.5897   -3.3674 C   0  0  0  0  0  0  0  0  0  0  0  0
   -2.7215   -0.8453   -2.4953 C   0  0  0  0  0  0  0  0  0  0  0  0
   -2.9694   -0.3901   -1.1860 C   0  0  0  0  0  0  0  0  0  0  0  0
   -4.1335    0.2613   -0.6976 C   0  0  0  0  0  0  0  0  0  0  0  0
   -5.1374    0.4769   -1.6187 C   0  0  0  0  0  0  0  0  0  0  0  0
   -4.9623    0.0504   -2.9515 C   0  0  0  0  0  0  0  0  0  0  0  0
   -3.7173   -0.8958   -4.4093 H   0  0  0  0  0  0  0  0  0  0  0  0
   -1.9572   -0.6086   -0.2720 N   0  0  0  0  0  0  0  0  0  0  0  0
   -1.1244   -0.7968    0.4491 N   0  0  0  0  0  0  0  0  0  0  0  0
   -5.7600    0.2291   -3.6680 H   0  0  0  0  0  0  0  0  0  0  0  0
   -6.0544    0.9709   -1.3170 H   0  0  0  0  0  0  0  0  0  0  0  0
   -4.2217    0.5696    0.3394 H   0  0  0  0  0  0  0  0  0  0  0  0
    0.5415   -0.1642   -3.6772 N   0  0  0  0  0  0  0  0  0  0  0  0
   -0.1155   -1.0866   -3.7181 N   0  0  0  0  0  0  0  0  0  0  0  0
   -0.2294   -2.4125   -4.2323 C   0  0  0  0  0  0  0  0  0  0  0  0
    0.7673   -2.7940   -5.1510 C   0  0  0  0  0  0  0  0  0  0  0  0
   -1.2518   -3.2586   -3.8163 C   0  0  0  0  0  0  0  0  0  0  0  0
    0.7075   -4.0833   -5.6612 C   0  0  0  0  0  0  0  0  0  0  0  0
    1.5462   -2.0984   -5.4434 H   0  0  0  0  0  0  0  0  0  0  0  0
   -1.2807   -4.5499   -4.3364 C   0  0  0  0  0  0  0  0  0  0  0  0
   -1.9809   -2.8617   -3.1136 H   0  0  0  0  0  0  0  0  0  0  0  0
   -0.3096   -4.9585   -5.2554 C   0  0  0  0  0  0  0  0  0  0  0  0
    1.4568   -4.4072   -6.3761 H   0  0  0  0  0  0  0  0  0  0  0  0
   -2.0629   -5.2348   -4.0276 H   0  0  0  0  0  0  0  0  0  0  0  0
   -0.3427   -5.9641   -5.6622 H   0  0  0  0  0  0  0  0  0  0  0  0
  1  6  2  0  0  0  0
  1  2  1  0  0  0  0
  2  3  2  0  0  0  0
  3  4  1  0  0  0  0
  3  8  1  0  0  0  0
  4 12  1  0  0  0  0
  5 11  1  0  0  0  0
  5  4  2  0  0  0  0
  6  5  1  0  0  0  0
  7  1  1  0  0  0  0
  8  9  1  0  0  0  0
 10  6  1  0  0  0  0
 14 13  2  0  0  0  0
 15 17  1  0  0  0  0
 15 14  1  0  0  0  0
 16 15  2  0  0  0  0
 17 21  1  0  0  0  0
 18 22  2  0  0  0  0
 18 16  1  0  0  0  0
 19 16  1  0  0  0  0
 20 24  1  0  0  0  0
 20 17  2  0  0  0  0
 22 20  1  0  0  0  0
 23 18  1  0  0  0  0
 25 22  1  0  0  0  0
M  RAD  4   2   2   8   2   9   3  13   2
M  END
