Coordinates from ORCA-job 1a-Schema5-R6-D+-B3LYPG-6-31G_dp-scan-d49-09-n400
 OpenBabel08281819463D

 25 26  0  0  0  0  0  0  0  0999 V2000
   -0.4059    0.0803   -2.0881 C   0  0  0  0  0  0  0  0  0  0  0  0
   -1.5362   -0.7485   -2.0218 C   0  0  0  0  0  0  0  0  0  0  0  0
   -2.7615   -0.1953   -2.5021 C   0  0  0  0  0  0  0  0  0  0  0  0
   -2.8593    1.1043   -3.0697 C   0  0  0  0  0  0  0  0  0  0  0  0
   -1.7101    1.8562   -3.1583 C   0  0  0  0  0  0  0  0  0  0  0  0
   -0.4886    1.3383   -2.6691 C   0  0  0  0  0  0  0  0  0  0  0  0
    0.5287   -0.2904   -1.6818 H   0  0  0  0  0  0  0  0  0  0  0  0
   -3.8917   -0.9422   -2.4020 N   0  0  0  0  0  0  0  0  0  0  0  0
   -4.8268   -1.5501   -2.2950 N   0  0  0  0  0  0  0  0  0  0  0  0
    0.4086    1.9456   -2.7382 H   0  0  0  0  0  0  0  0  0  0  0  0
   -1.7482    2.8513   -3.5858 H   0  0  0  0  0  0  0  0  0  0  0  0
   -3.8203    1.4766   -3.4068 H   0  0  0  0  0  0  0  0  0  0  0  0
   -1.5169   -1.9367   -1.2061 N   0  0  0  0  0  0  0  0  0  0  0  0
   -1.7499   -3.1133   -1.5338 N   0  0  0  0  0  0  0  0  0  0  0  0
   -1.8811   -3.5878   -2.8588 C   0  0  0  0  0  0  0  0  0  0  0  0
   -2.5689   -4.8126   -2.9528 C   0  0  0  0  0  0  0  0  0  0  0  0
   -1.3281   -2.9903   -4.0100 C   0  0  0  0  0  0  0  0  0  0  0  0
   -2.7735   -5.3980   -4.1981 C   0  0  0  0  0  0  0  0  0  0  0  0
   -2.9338   -5.2716   -2.0403 H   0  0  0  0  0  0  0  0  0  0  0  0
   -1.5107   -3.6041   -5.2440 C   0  0  0  0  0  0  0  0  0  0  0  0
   -0.7200   -2.0967   -3.9404 H   0  0  0  0  0  0  0  0  0  0  0  0
   -2.2445   -4.7943   -5.3421 C   0  0  0  0  0  0  0  0  0  0  0  0
   -3.3185   -6.3326   -4.2752 H   0  0  0  0  0  0  0  0  0  0  0  0
   -1.0672   -3.1675   -6.1329 H   0  0  0  0  0  0  0  0  0  0  0  0
   -2.3792   -5.2627   -6.3120 H   0  0  0  0  0  0  0  0  0  0  0  0
  1  2  1  0  0  0  0
  1  7  1  0  0  0  0
  2 13  1  0  0  0  0
  3  8  1  0  0  0  0
  3  2  2  0  0  0  0
  4  3  1  0  0  0  0
  5  4  2  0  0  0  0
  5  6  1  0  0  0  0
  6  1  2  0  0  0  0
  8  9  1  0  0  0  0
 10  6  1  0  0  0  0
 11  5  1  0  0  0  0
 12  4  1  0  0  0  0
 14 13  2  0  0  0  0
 15 14  1  0  0  0  0
 16 15  1  0  0  0  0
 16 19  1  0  0  0  0
 17 21  1  0  0  0  0
 17 15  2  0  0  0  0
 18 16  2  0  0  0  0
 20 17  1  0  0  0  0
 22 20  2  0  0  0  0
 22 18  1  0  0  0  0
 23 18  1  0  0  0  0
 24 20  1  0  0  0  0
 25 22  1  0  0  0  0
M  RAD  2   8   2   9   3
M  END
