Coordinates from ORCA-job 1a-Schema5-R6-D+-B3LYPG-6-31G_dp-scan-d49-09-n400
 OpenBabel08281819463D

 25 25  0  0  0  0  0  0  0  0999 V2000
   -3.5932   -0.9665   -3.3551 C   0  0  0  0  0  0  0  0  0  0  0  0
   -2.5169   -0.9392   -2.4720 C   0  0  0  0  0  0  0  0  0  0  0  0
   -2.7321   -0.2054   -1.2964 C   0  0  0  0  0  0  0  0  0  0  0  0
   -3.9292    0.4618   -0.9336 C   0  0  0  0  0  0  0  0  0  0  0  0
   -4.9681    0.3881   -1.8420 C   0  0  0  0  0  0  0  0  0  0  0  0
   -4.7977   -0.3201   -3.0469 C   0  0  0  0  0  0  0  0  0  0  0  0
   -3.5074   -1.4989   -4.2992 H   0  0  0  0  0  0  0  0  0  0  0  0
   -1.6733   -0.1235   -0.4097 N   0  0  0  0  0  0  0  0  0  0  0  0
   -0.8048   -0.0581    0.2881 N   0  0  0  0  0  0  0  0  0  0  0  0
   -5.6219   -0.3618   -3.7543 H   0  0  0  0  0  0  0  0  0  0  0  0
   -5.9103    0.8789   -1.6254 H   0  0  0  0  0  0  0  0  0  0  0  0
   -4.0171    0.9974    0.0062 H   0  0  0  0  0  0  0  0  0  0  0  0
    0.4873   -0.6579   -2.6910 N   0  0  0  0  0  0  0  0  0  0  0  0
   -0.3597   -1.3555   -3.0321 N   0  0  0  0  0  0  0  0  0  0  0  0
   -0.4524   -2.5075   -3.9012 C   0  0  0  0  0  0  0  0  0  0  0  0
    0.5015   -2.6051   -4.9222 C   0  0  0  0  0  0  0  0  0  0  0  0
   -1.4145   -3.4849   -3.6684 C   0  0  0  0  0  0  0  0  0  0  0  0
    0.4639   -3.7280   -5.7431 C   0  0  0  0  0  0  0  0  0  0  0  0
    1.2379   -1.8215   -5.0636 H   0  0  0  0  0  0  0  0  0  0  0  0
   -1.4177   -4.6126   -4.4883 C   0  0  0  0  0  0  0  0  0  0  0  0
   -2.1209   -3.3674   -2.8559 H   0  0  0  0  0  0  0  0  0  0  0  0
   -0.4888   -4.7294   -5.5260 C   0  0  0  0  0  0  0  0  0  0  0  0
    1.1830   -3.8221   -6.5503 H   0  0  0  0  0  0  0  0  0  0  0  0
   -2.1460   -5.3980   -4.3153 H   0  0  0  0  0  0  0  0  0  0  0  0
   -0.5055   -5.6048   -6.1676 H   0  0  0  0  0  0  0  0  0  0  0  0
  1  6  2  0  0  0  0
  1  2  1  0  0  0  0
  2  3  2  0  0  0  0
  3  4  1  0  0  0  0
  3  8  1  0  0  0  0
  4 12  1  0  0  0  0
  5 11  1  0  0  0  0
  5  4  2  0  0  0  0
  6  5  1  0  0  0  0
  7  1  1  0  0  0  0
  8  9  1  0  0  0  0
 10  6  1  0  0  0  0
 14 13  2  0  0  0  0
 15 17  1  0  0  0  0
 15 14  1  0  0  0  0
 16 15  2  0  0  0  0
 17 21  1  0  0  0  0
 18 22  2  0  0  0  0
 18 16  1  0  0  0  0
 19 16  1  0  0  0  0
 20 24  1  0  0  0  0
 20 17  2  0  0  0  0
 22 20  1  0  0  0  0
 23 18  1  0  0  0  0
 25 22  1  0  0  0  0
M  RAD  4   2   2   8   2   9   3  13   2
M  END
