Coordinates from ORCA-job 1a-Schema5-R6-D+-B3LYPG-6-31G_dp-scan-d49-09-n400
 OpenBabel08281819463D

 25 25  0  0  0  0  0  0  0  0999 V2000
   -3.9222   -0.4711   -3.2613 C   0  0  0  0  0  0  0  0  0  0  0  0
   -2.9479   -1.0151   -2.3878 C   0  0  0  0  0  0  0  0  0  0  0  0
   -3.2611   -0.6738   -1.0529 C   0  0  0  0  0  0  0  0  0  0  0  0
   -4.3434    0.0915   -0.5383 C   0  0  0  0  0  0  0  0  0  0  0  0
   -5.2278    0.5795   -1.4746 C   0  0  0  0  0  0  0  0  0  0  0  0
   -5.0115    0.2919   -2.8409 C   0  0  0  0  0  0  0  0  0  0  0  0
   -3.8291   -0.6570   -4.3322 H   0  0  0  0  0  0  0  0  0  0  0  0
   -2.3731   -1.1718   -0.1168 N   0  0  0  0  0  0  0  0  0  0  0  0
   -1.6327   -1.5960    0.6069 N   0  0  0  0  0  0  0  0  0  0  0  0
   -5.7172    0.6782   -3.5726 H   0  0  0  0  0  0  0  0  0  0  0  0
   -6.0811    1.1729   -1.1645 H   0  0  0  0  0  0  0  0  0  0  0  0
   -4.4625    0.2778    0.5249 H   0  0  0  0  0  0  0  0  0  0  0  0
    0.3882    0.1698   -4.3914 N   0  0  0  0  0  0  0  0  0  0  0  0
    0.2531   -0.9325   -4.5001 N   0  0  0  0  0  0  0  0  0  0  0  0
    0.0993   -2.2921   -4.6527 C   0  0  0  0  0  0  0  0  0  0  0  0
    0.9981   -2.9634   -5.5129 C   0  0  0  0  0  0  0  0  0  0  0  0
   -0.9505   -2.9031   -3.9389 C   0  0  0  0  0  0  0  0  0  0  0  0
    0.8173   -4.3280   -5.6554 C   0  0  0  0  0  0  0  0  0  0  0  0
    1.7855   -2.4280   -6.0319 H   0  0  0  0  0  0  0  0  0  0  0  0
   -1.0898   -4.2750   -4.1215 C   0  0  0  0  0  0  0  0  0  0  0  0
   -1.6186   -2.2794   -3.2884 H   0  0  0  0  0  0  0  0  0  0  0  0
   -0.2211   -4.9779   -4.9646 C   0  0  0  0  0  0  0  0  0  0  0  0
    1.4794   -4.8918   -6.3035 H   0  0  0  0  0  0  0  0  0  0  0  0
   -1.8859   -4.7985   -3.6020 H   0  0  0  0  0  0  0  0  0  0  0  0
   -0.3491   -6.0489   -5.0919 H   0  0  0  0  0  0  0  0  0  0  0  0
  1  6  2  0  0  0  0
  1  2  1  0  0  0  0
  2  3  2  0  0  0  0
  3  4  1  0  0  0  0
  3  8  1  0  0  0  0
  4 12  1  0  0  0  0
  5 11  1  0  0  0  0
  5  4  2  0  0  0  0
  6  5  1  0  0  0  0
  7  1  1  0  0  0  0
  8  9  1  0  0  0  0
 10  6  1  0  0  0  0
 14 13  1  0  0  0  0
 15 14  1  0  0  0  0
 15 17  2  0  0  0  0
 16 15  1  0  0  0  0
 17 21  1  0  0  0  0
 18 16  2  0  0  0  0
 18 22  1  0  0  0  0
 19 16  1  0  0  0  0
 20 17  1  0  0  0  0
 20 24  1  0  0  0  0
 22 20  2  0  0  0  0
 23 18  1  0  0  0  0
 25 22  1  0  0  0  0
M  RAD  5   2   2   8   2   9   3  13   3  14   2
M  END
