Coordinates from ORCA-job 1a-Schema5-R6-D+-B3LYPG-6-31G_dp-scan-d49-09-n400
 OpenBabel08281819463D

 25 26  0  0  0  0  0  0  0  0999 V2000
   -3.7614   -0.3804   -3.6478 C   0  0  0  0  0  0  0  0  0  0  0  0
   -2.5147   -0.6343   -3.0020 C   0  0  0  0  0  0  0  0  0  0  0  0
   -2.4917   -0.5267   -1.5613 C   0  0  0  0  0  0  0  0  0  0  0  0
   -3.5936    0.0416   -0.8391 C   0  0  0  0  0  0  0  0  0  0  0  0
   -4.7300    0.3651   -1.5219 C   0  0  0  0  0  0  0  0  0  0  0  0
   -4.8142    0.1232   -2.9278 C   0  0  0  0  0  0  0  0  0  0  0  0
   -3.8392   -0.5614   -4.7143 H   0  0  0  0  0  0  0  0  0  0  0  0
   -1.3992   -0.9104   -0.8916 N   0  0  0  0  0  0  0  0  0  0  0  0
   -0.4722   -1.2123   -0.3204 N   0  0  0  0  0  0  0  0  0  0  0  0
   -5.7464    0.3348   -3.4422 H   0  0  0  0  0  0  0  0  0  0  0  0
   -5.5761    0.7914   -0.9957 H   0  0  0  0  0  0  0  0  0  0  0  0
   -3.4970    0.1945    0.2301 H   0  0  0  0  0  0  0  0  0  0  0  0
   -1.0277    0.0425   -3.8960 N   0  0  0  0  0  0  0  0  0  0  0  0
   -1.4097   -1.1174   -3.7198 N   0  0  0  0  0  0  0  0  0  0  0  0
   -0.9246   -2.3989   -4.1239 C   0  0  0  0  0  0  0  0  0  0  0  0
    0.2739   -2.4530   -4.8442 C   0  0  0  0  0  0  0  0  0  0  0  0
   -1.6682   -3.5355   -3.7898 C   0  0  0  0  0  0  0  0  0  0  0  0
    0.7389   -3.7013   -5.2392 C   0  0  0  0  0  0  0  0  0  0  0  0
    0.8083   -1.5382   -5.0791 H   0  0  0  0  0  0  0  0  0  0  0  0
   -1.1835   -4.7759   -4.1971 C   0  0  0  0  0  0  0  0  0  0  0  0
   -2.6004   -3.4509   -3.2403 H   0  0  0  0  0  0  0  0  0  0  0  0
    0.0134   -4.8567   -4.9164 C   0  0  0  0  0  0  0  0  0  0  0  0
    1.6652   -3.7786   -5.7979 H   0  0  0  0  0  0  0  0  0  0  0  0
   -1.7379   -5.6764   -3.9568 H   0  0  0  0  0  0  0  0  0  0  0  0
    0.3844   -5.8267   -5.2307 H   0  0  0  0  0  0  0  0  0  0  0  0
  1  2  2  0  0  0  0
  1  6  1  0  0  0  0
  2  3  1  0  0  0  0
  3  8  1  0  0  0  0
  3  4  2  0  0  0  0
  4 12  1  0  0  0  0
  5 11  1  0  0  0  0
  5  4  1  0  0  0  0
  6  5  2  0  0  0  0
  7  1  1  0  0  0  0
  8  9  1  0  0  0  0
 10  6  1  0  0  0  0
 13 14  1  0  0  0  0
 14  2  1  0  0  0  0
 15 17  1  0  0  0  0
 15 14  1  0  0  0  0
 16 15  2  0  0  0  0
 17 21  1  0  0  0  0
 18 22  2  0  0  0  0
 18 16  1  0  0  0  0
 19 16  1  0  0  0  0
 20 24  1  0  0  0  0
 20 17  2  0  0  0  0
 22 20  1  0  0  0  0
 23 18  1  0  0  0  0
 25 22  1  0  0  0  0
M  RAD  3   8   2   9   3  13   3
M  END
