Coordinates from ORCA-job 1a-Schema5-R6-D+-B3LYPG-6-31G_dp-scan-d49-09-n400
 OpenBabel08281819463D

 25 26  0  0  0  0  0  0  0  0999 V2000
   -0.4153    0.0549   -2.0856 C   0  0  0  0  0  0  0  0  0  0  0  0
   -1.5936   -0.7323   -2.0162 C   0  0  0  0  0  0  0  0  0  0  0  0
   -2.7990   -0.0946   -2.4850 C   0  0  0  0  0  0  0  0  0  0  0  0
   -2.8259    1.2312   -3.0092 C   0  0  0  0  0  0  0  0  0  0  0  0
   -1.6463    1.9254   -3.0841 C   0  0  0  0  0  0  0  0  0  0  0  0
   -0.4446    1.3259   -2.6227 C   0  0  0  0  0  0  0  0  0  0  0  0
    0.5053   -0.3763   -1.7090 H   0  0  0  0  0  0  0  0  0  0  0  0
   -3.9594   -0.7783   -2.3936 N   0  0  0  0  0  0  0  0  0  0  0  0
   -4.9243   -1.3449   -2.2909 N   0  0  0  0  0  0  0  0  0  0  0  0
    0.4817    1.8888   -2.6825 H   0  0  0  0  0  0  0  0  0  0  0  0
   -1.6352    2.9349   -3.4773 H   0  0  0  0  0  0  0  0  0  0  0  0
   -3.7706    1.6601   -3.3244 H   0  0  0  0  0  0  0  0  0  0  0  0
   -1.6215   -1.8825   -1.3467 N   0  0  0  0  0  0  0  0  0  0  0  0
   -1.8689   -3.0750   -1.6013 N   0  0  0  0  0  0  0  0  0  0  0  0
   -1.9351   -3.6032   -2.9062 C   0  0  0  0  0  0  0  0  0  0  0  0
   -2.4838   -4.9003   -2.9514 C   0  0  0  0  0  0  0  0  0  0  0  0
   -1.4677   -2.9820   -4.0850 C   0  0  0  0  0  0  0  0  0  0  0  0
   -2.6224   -5.5516   -4.1724 C   0  0  0  0  0  0  0  0  0  0  0  0
   -2.7956   -5.3595   -2.0196 H   0  0  0  0  0  0  0  0  0  0  0  0
   -1.5897   -3.6542   -5.2935 C   0  0  0  0  0  0  0  0  0  0  0  0
   -0.9782   -2.0162   -4.0565 H   0  0  0  0  0  0  0  0  0  0  0  0
   -2.1758   -4.9288   -5.3408 C   0  0  0  0  0  0  0  0  0  0  0  0
   -3.0576   -6.5440   -4.2130 H   0  0  0  0  0  0  0  0  0  0  0  0
   -1.2169   -3.1977   -6.2044 H   0  0  0  0  0  0  0  0  0  0  0  0
   -2.2634   -5.4416   -6.2936 H   0  0  0  0  0  0  0  0  0  0  0  0
  1  2  1  0  0  0  0
  1  7  1  0  0  0  0
  2 13  1  0  0  0  0
  3  8  1  0  0  0  0
  3  2  2  0  0  0  0
  4  3  1  0  0  0  0
  5  4  2  0  0  0  0
  5  6  1  0  0  0  0
  6  1  2  0  0  0  0
  8  9  1  0  0  0  0
 10  6  1  0  0  0  0
 11  5  1  0  0  0  0
 12  4  1  0  0  0  0
 14 13  1  0  0  0  0
 15 14  1  0  0  0  0
 16 15  1  0  0  0  0
 16 19  1  0  0  0  0
 17 21  1  0  0  0  0
 17 15  2  0  0  0  0
 18 16  2  0  0  0  0
 20 17  1  0  0  0  0
 22 20  2  0  0  0  0
 22 18  1  0  0  0  0
 23 18  1  0  0  0  0
 24 20  1  0  0  0  0
 25 22  1  0  0  0  0
M  RAD  4   8   2   9   3  13   2  14   2
M  END
