Coordinates from ORCA-job 1a-Schema5-R6-D+-B3LYPG-6-31G_dp-scan-d49-09-n400
 OpenBabel08281819463D

 25 25  0  0  0  0  0  0  0  0999 V2000
   -3.6285   -0.8001   -3.3710 C   0  0  0  0  0  0  0  0  0  0  0  0
   -2.5692   -0.8694   -2.4616 C   0  0  0  0  0  0  0  0  0  0  0  0
   -2.8472   -0.2691   -1.2215 C   0  0  0  0  0  0  0  0  0  0  0  0
   -4.0585    0.3573   -0.8274 C   0  0  0  0  0  0  0  0  0  0  0  0
   -5.0630    0.3852   -1.7740 C   0  0  0  0  0  0  0  0  0  0  0  0
   -4.8450   -0.1911   -3.0416 C   0  0  0  0  0  0  0  0  0  0  0  0
   -3.5157   -1.2297   -4.3641 H   0  0  0  0  0  0  0  0  0  0  0  0
   -1.8271   -0.2945   -0.2901 N   0  0  0  0  0  0  0  0  0  0  0  0
   -0.9879   -0.3232    0.4465 N   0  0  0  0  0  0  0  0  0  0  0  0
   -5.6434   -0.1562   -3.7785 H   0  0  0  0  0  0  0  0  0  0  0  0
   -6.0141    0.8505   -1.5407 H   0  0  0  0  0  0  0  0  0  0  0  0
   -4.1812    0.7868    0.1617 H   0  0  0  0  0  0  0  0  0  0  0  0
    0.6469   -0.4461   -3.0996 N   0  0  0  0  0  0  0  0  0  0  0  0
   -0.1554   -1.2318   -3.2960 N   0  0  0  0  0  0  0  0  0  0  0  0
   -0.3174   -2.4588   -4.0306 C   0  0  0  0  0  0  0  0  0  0  0  0
    0.6119   -2.6894   -5.0580 C   0  0  0  0  0  0  0  0  0  0  0  0
   -1.3097   -3.3695   -3.6849 C   0  0  0  0  0  0  0  0  0  0  0  0
    0.5148   -3.8843   -5.7612 C   0  0  0  0  0  0  0  0  0  0  0  0
    1.3724   -1.9517   -5.2896 H   0  0  0  0  0  0  0  0  0  0  0  0
   -1.3721   -4.5696   -4.3903 C   0  0  0  0  0  0  0  0  0  0  0  0
   -1.9958   -3.1227   -2.8838 H   0  0  0  0  0  0  0  0  0  0  0  0
   -0.4699   -4.8225   -5.4276 C   0  0  0  0  0  0  0  0  0  0  0  0
    1.2115   -4.0841   -6.5686 H   0  0  0  0  0  0  0  0  0  0  0  0
   -2.1277   -5.3037   -4.1319 H   0  0  0  0  0  0  0  0  0  0  0  0
   -0.5325   -5.7541   -5.9807 H   0  0  0  0  0  0  0  0  0  0  0  0
  1  6  2  0  0  0  0
  1  2  1  0  0  0  0
  2  3  2  0  0  0  0
  3  4  1  0  0  0  0
  3  8  1  0  0  0  0
  4 12  1  0  0  0  0
  5 11  1  0  0  0  0
  5  4  2  0  0  0  0
  6  5  1  0  0  0  0
  7  1  1  0  0  0  0
  8  9  1  0  0  0  0
 10  6  1  0  0  0  0
 14 13  2  0  0  0  0
 15 17  1  0  0  0  0
 15 14  1  0  0  0  0
 16 15  2  0  0  0  0
 17 21  1  0  0  0  0
 18 22  2  0  0  0  0
 18 16  1  0  0  0  0
 19 16  1  0  0  0  0
 20 24  1  0  0  0  0
 20 17  2  0  0  0  0
 22 20  1  0  0  0  0
 23 18  1  0  0  0  0
 25 22  1  0  0  0  0
M  RAD  4   2   2   8   2   9   3  13   2
M  END
