Coordinates from ORCA-job 1a-Schema5-R6-D+-B3LYPG-6-31G_dp-scan-d49-09-n400
 OpenBabel08281819463D

 25 25  0  0  0  0  0  0  0  0999 V2000
   -3.6192   -0.8409   -3.3691 C   0  0  0  0  0  0  0  0  0  0  0  0
   -2.5550   -0.8805   -2.4653 C   0  0  0  0  0  0  0  0  0  0  0  0
   -2.8226   -0.2488   -1.2394 C   0  0  0  0  0  0  0  0  0  0  0  0
   -4.0341    0.3808   -0.8519 C   0  0  0  0  0  0  0  0  0  0  0  0
   -5.0466    0.3778   -1.7906 C   0  0  0  0  0  0  0  0  0  0  0  0
   -4.8364   -0.2298   -3.0447 C   0  0  0  0  0  0  0  0  0  0  0  0
   -3.5108   -1.2953   -4.3515 H   0  0  0  0  0  0  0  0  0  0  0  0
   -1.7922   -0.2419   -0.3187 N   0  0  0  0  0  0  0  0  0  0  0  0
   -0.9437   -0.2434    0.4075 N   0  0  0  0  0  0  0  0  0  0  0  0
   -5.6411   -0.2184   -3.7753 H   0  0  0  0  0  0  0  0  0  0  0  0
   -5.9985    0.8437   -1.5614 H   0  0  0  0  0  0  0  0  0  0  0  0
   -4.1509    0.8358    0.1264 H   0  0  0  0  0  0  0  0  0  0  0  0
    0.6365   -0.5044   -2.9887 N   0  0  0  0  0  0  0  0  0  0  0  0
   -0.1820   -1.2645   -3.2239 N   0  0  0  0  0  0  0  0  0  0  0  0
   -0.3391   -2.4708   -3.9959 C   0  0  0  0  0  0  0  0  0  0  0  0
    0.5926   -2.6727   -5.0261 C   0  0  0  0  0  0  0  0  0  0  0  0
   -1.3305   -3.3923   -3.6769 C   0  0  0  0  0  0  0  0  0  0  0  0
    0.4989   -3.8486   -5.7619 C   0  0  0  0  0  0  0  0  0  0  0  0
    1.3526   -1.9282   -5.2363 H   0  0  0  0  0  0  0  0  0  0  0  0
   -1.3890   -4.5737   -4.4138 C   0  0  0  0  0  0  0  0  0  0  0  0
   -2.0184   -3.1730   -2.8697 H   0  0  0  0  0  0  0  0  0  0  0  0
   -0.4845   -4.7971   -5.4559 C   0  0  0  0  0  0  0  0  0  0  0  0
    1.1977   -4.0255   -6.5729 H   0  0  0  0  0  0  0  0  0  0  0  0
   -2.1430   -5.3163   -4.1756 H   0  0  0  0  0  0  0  0  0  0  0  0
   -0.5444   -5.7138   -6.0336 H   0  0  0  0  0  0  0  0  0  0  0  0
  1  6  2  0  0  0  0
  1  2  1  0  0  0  0
  2  3  2  0  0  0  0
  3  4  1  0  0  0  0
  3  8  1  0  0  0  0
  4 12  1  0  0  0  0
  5 11  1  0  0  0  0
  5  4  2  0  0  0  0
  6  5  1  0  0  0  0
  7  1  1  0  0  0  0
  8  9  1  0  0  0  0
 10  6  1  0  0  0  0
 14 13  2  0  0  0  0
 15 17  1  0  0  0  0
 15 14  1  0  0  0  0
 16 15  2  0  0  0  0
 17 21  1  0  0  0  0
 18 22  2  0  0  0  0
 18 16  1  0  0  0  0
 19 16  1  0  0  0  0
 20 24  1  0  0  0  0
 20 17  2  0  0  0  0
 22 20  1  0  0  0  0
 23 18  1  0  0  0  0
 25 22  1  0  0  0  0
M  RAD  4   2   2   8   2   9   3  13   2
M  END
