Coordinates from ORCA-job 1a-Schema5-R6-D+-B3LYPG-6-31G_dp-scan-d49-09-n400
 OpenBabel08281819463D

 25 26  0  0  0  0  0  0  0  0999 V2000
   -3.5372   -1.2091   -3.3119 C   0  0  0  0  0  0  0  0  0  0  0  0
   -2.4211   -0.9938   -2.5268 C   0  0  0  0  0  0  0  0  0  0  0  0
   -2.4377   -0.0922   -1.4765 C   0  0  0  0  0  0  0  0  0  0  0  0
   -3.5858    0.6186   -1.1300 C   0  0  0  0  0  0  0  0  0  0  0  0
   -4.7287    0.3930   -1.9007 C   0  0  0  0  0  0  0  0  0  0  0  0
   -4.7020   -0.5000   -2.9767 C   0  0  0  0  0  0  0  0  0  0  0  0
   -3.5165   -1.8879   -4.1551 H   0  0  0  0  0  0  0  0  0  0  0  0
   -1.2094    0.1119   -0.7707 N   0  0  0  0  0  0  0  0  0  0  0  0
   -0.7271    0.6649    0.0942 N   0  0  0  0  0  0  0  0  0  0  0  0
   -5.5966   -0.6479   -3.5729 H   0  0  0  0  0  0  0  0  0  0  0  0
   -5.6419    0.9277   -1.6631 H   0  0  0  0  0  0  0  0  0  0  0  0
   -3.5767    1.3187   -0.3012 H   0  0  0  0  0  0  0  0  0  0  0  0
   -0.0334   -1.2413   -2.0176 N   0  0  0  0  0  0  0  0  0  0  0  0
   -0.9945   -1.6088   -2.6991 N   0  0  0  0  0  0  0  0  0  0  0  0
   -0.8339   -2.6231   -3.7464 C   0  0  0  0  0  0  0  0  0  0  0  0
    0.2118   -2.4560   -4.6553 C   0  0  0  0  0  0  0  0  0  0  0  0
   -1.6624   -3.7477   -3.7550 C   0  0  0  0  0  0  0  0  0  0  0  0
    0.4116   -3.4387   -5.6229 C   0  0  0  0  0  0  0  0  0  0  0  0
    0.8435   -1.5761   -4.6034 H   0  0  0  0  0  0  0  0  0  0  0  0
   -1.4356   -4.7277   -4.7218 C   0  0  0  0  0  0  0  0  0  0  0  0
   -2.4357   -3.8813   -3.0052 H   0  0  0  0  0  0  0  0  0  0  0  0
   -0.4085   -4.5701   -5.6564 C   0  0  0  0  0  0  0  0  0  0  0  0
    1.2119   -3.3217   -6.3462 H   0  0  0  0  0  0  0  0  0  0  0  0
   -2.0553   -5.6182   -4.7357 H   0  0  0  0  0  0  0  0  0  0  0  0
   -0.2423   -5.3350   -6.4083 H   0  0  0  0  0  0  0  0  0  0  0  0
  1  6  2  0  0  0  0
  1  2  1  0  0  0  0
  2  3  2  0  0  0  0
  3  4  1  0  0  0  0
  3  8  1  0  0  0  0
  4 12  1  0  0  0  0
  5 11  1  0  0  0  0
  5  4  2  0  0  0  0
  6  5  1  0  0  0  0
  7  1  1  0  0  0  0
  8  9  2  0  0  0  0
 10  6  1  0  0  0  0
 14  2  1  0  0  0  0
 14 13  1  0  0  0  0
 15 14  1  0  0  0  0
 16 19  1  0  0  0  0
 16 15  2  0  0  0  0
 17 15  1  0  0  0  0
 17 21  1  0  0  0  0
 18 16  1  0  0  0  0
 20 17  2  0  0  0  0
 22 18  2  0  0  0  0
 22 20  1  0  0  0  0
 23 18  1  0  0  0  0
 24 20  1  0  0  0  0
 25 22  1  0  0  0  0
M  RAD  2   9   2  13   3
M  END
