Coordinates from ORCA-job 1a-Schema5-R6-D+-B3LYPG-6-31G_dp-scan-d49-09-n400
 OpenBabel08281819463D

 25 25  0  0  0  0  0  0  0  0999 V2000
   -3.5600   -1.0040   -3.3691 C   0  0  0  0  0  0  0  0  0  0  0  0
   -2.4823   -0.9650   -2.4947 C   0  0  0  0  0  0  0  0  0  0  0  0
   -2.6598   -0.2064   -1.3288 C   0  0  0  0  0  0  0  0  0  0  0  0
   -3.8509    0.4737   -0.9729 C   0  0  0  0  0  0  0  0  0  0  0  0
   -4.9022    0.3927   -1.8685 C   0  0  0  0  0  0  0  0  0  0  0  0
   -4.7551   -0.3382   -3.0606 C   0  0  0  0  0  0  0  0  0  0  0  0
   -3.4821   -1.5549   -4.3023 H   0  0  0  0  0  0  0  0  0  0  0  0
   -1.6048   -0.1043   -0.4386 N   0  0  0  0  0  0  0  0  0  0  0  0
   -0.7789    0.0058    0.3028 N   0  0  0  0  0  0  0  0  0  0  0  0
   -5.5861   -0.3832   -3.7594 H   0  0  0  0  0  0  0  0  0  0  0  0
   -5.8359    0.8981   -1.6484 H   0  0  0  0  0  0  0  0  0  0  0  0
   -3.9264    1.0264   -0.0420 H   0  0  0  0  0  0  0  0  0  0  0  0
    0.3365   -0.6859   -2.6074 N   0  0  0  0  0  0  0  0  0  0  0  0
   -0.5215   -1.3702   -2.9802 N   0  0  0  0  0  0  0  0  0  0  0  0
   -0.5482   -2.5140   -3.8726 C   0  0  0  0  0  0  0  0  0  0  0  0
    0.4194   -2.5586   -4.8814 C   0  0  0  0  0  0  0  0  0  0  0  0
   -1.4697   -3.5364   -3.6675 C   0  0  0  0  0  0  0  0  0  0  0  0
    0.4406   -3.6693   -5.7202 C   0  0  0  0  0  0  0  0  0  0  0  0
    1.1240   -1.7425   -4.9991 H   0  0  0  0  0  0  0  0  0  0  0  0
   -1.4173   -4.6504   -4.5054 C   0  0  0  0  0  0  0  0  0  0  0  0
   -2.1881   -3.4745   -2.8584 H   0  0  0  0  0  0  0  0  0  0  0  0
   -0.4719   -4.7127   -5.5323 C   0  0  0  0  0  0  0  0  0  0  0  0
    1.1738   -3.7210   -6.5185 H   0  0  0  0  0  0  0  0  0  0  0  0
   -2.1133   -5.4687   -4.3526 H   0  0  0  0  0  0  0  0  0  0  0  0
   -0.4436   -5.5781   -6.1869 H   0  0  0  0  0  0  0  0  0  0  0  0
  1  6  2  0  0  0  0
  1  2  1  0  0  0  0
  2  3  2  0  0  0  0
  3  4  1  0  0  0  0
  3  8  1  0  0  0  0
  4 12  1  0  0  0  0
  5 11  1  0  0  0  0
  5  4  2  0  0  0  0
  6  5  1  0  0  0  0
  7  1  1  0  0  0  0
  8  9  1  0  0  0  0
 10  6  1  0  0  0  0
 14 13  2  0  0  0  0
 15 17  1  0  0  0  0
 15 14  1  0  0  0  0
 16 15  2  0  0  0  0
 17 21  1  0  0  0  0
 18 22  2  0  0  0  0
 18 16  1  0  0  0  0
 19 16  1  0  0  0  0
 20 24  1  0  0  0  0
 20 17  2  0  0  0  0
 22 20  1  0  0  0  0
 23 18  1  0  0  0  0
 25 22  1  0  0  0  0
M  RAD  4   2   2   8   2   9   3  13   2
M  END
