Coordinates from ORCA-job 1a-Schema5-R6-D+-B3LYPG-6-31G_dp-scan-d49-09-n400
 OpenBabel08281819463D

 25 26  0  0  0  0  0  0  0  0999 V2000
   -0.4132    0.0585   -2.0833 C   0  0  0  0  0  0  0  0  0  0  0  0
   -1.5849   -0.7353   -2.0141 C   0  0  0  0  0  0  0  0  0  0  0  0
   -2.7932   -0.1099   -2.4871 C   0  0  0  0  0  0  0  0  0  0  0  0
   -2.8297    1.2120   -3.0191 C   0  0  0  0  0  0  0  0  0  0  0  0
   -1.6543    1.9143   -3.0957 C   0  0  0  0  0  0  0  0  0  0  0  0
   -0.4498    1.3270   -2.6283 C   0  0  0  0  0  0  0  0  0  0  0  0
    0.5093   -0.3637   -1.7012 H   0  0  0  0  0  0  0  0  0  0  0  0
   -3.9495   -0.8023   -2.3945 N   0  0  0  0  0  0  0  0  0  0  0  0
   -4.9104   -1.3747   -2.2909 N   0  0  0  0  0  0  0  0  0  0  0  0
    0.4725    1.8962   -2.6891 H   0  0  0  0  0  0  0  0  0  0  0  0
   -1.6500    2.9216   -3.4949 H   0  0  0  0  0  0  0  0  0  0  0  0
   -3.7767    1.6325   -3.3386 H   0  0  0  0  0  0  0  0  0  0  0  0
   -1.6065   -1.8876   -1.3283 N   0  0  0  0  0  0  0  0  0  0  0  0
   -1.8545   -3.0785   -1.5920 N   0  0  0  0  0  0  0  0  0  0  0  0
   -1.9288   -3.5993   -2.8999 C   0  0  0  0  0  0  0  0  0  0  0  0
   -2.4953   -4.8883   -2.9517 C   0  0  0  0  0  0  0  0  0  0  0  0
   -1.4504   -2.9803   -4.0754 C   0  0  0  0  0  0  0  0  0  0  0  0
   -2.6430   -5.5316   -4.1759 C   0  0  0  0  0  0  0  0  0  0  0  0
   -2.8135   -5.3480   -2.0223 H   0  0  0  0  0  0  0  0  0  0  0  0
   -1.5805   -3.6454   -5.2872 C   0  0  0  0  0  0  0  0  0  0  0  0
   -0.9452   -2.0227   -4.0417 H   0  0  0  0  0  0  0  0  0  0  0  0
   -2.1859   -4.9104   -5.3411 C   0  0  0  0  0  0  0  0  0  0  0  0
   -3.0922   -6.5175   -4.2213 H   0  0  0  0  0  0  0  0  0  0  0  0
   -1.1986   -3.1907   -6.1953 H   0  0  0  0  0  0  0  0  0  0  0  0
   -2.2797   -5.4177   -6.2962 H   0  0  0  0  0  0  0  0  0  0  0  0
  1  2  1  0  0  0  0
  1  7  1  0  0  0  0
  2 13  1  0  0  0  0
  3  8  1  0  0  0  0
  3  2  2  0  0  0  0
  4  3  1  0  0  0  0
  5  4  2  0  0  0  0
  5  6  1  0  0  0  0
  6  1  2  0  0  0  0
  8  9  1  0  0  0  0
 10  6  1  0  0  0  0
 11  5  1  0  0  0  0
 12  4  1  0  0  0  0
 14 13  2  0  0  0  0
 15 14  1  0  0  0  0
 16 15  1  0  0  0  0
 16 19  1  0  0  0  0
 17 21  1  0  0  0  0
 17 15  2  0  0  0  0
 18 16  2  0  0  0  0
 20 17  1  0  0  0  0
 22 20  2  0  0  0  0
 22 18  1  0  0  0  0
 23 18  1  0  0  0  0
 24 20  1  0  0  0  0
 25 22  1  0  0  0  0
M  RAD  2   8   2   9   3
M  END
