Coordinates from ORCA-job 1a-Schema5-R6-D+-B3LYPG-6-31G_dp-scan-d49-09-n400
 OpenBabel08281819463D

 25 26  0  0  0  0  0  0  0  0999 V2000
   -3.5099   -1.1737   -3.2880 C   0  0  0  0  0  0  0  0  0  0  0  0
   -2.3620   -0.9727   -2.5268 C   0  0  0  0  0  0  0  0  0  0  0  0
   -2.4197   -0.0745   -1.4619 C   0  0  0  0  0  0  0  0  0  0  0  0
   -3.5779    0.6071   -1.0994 C   0  0  0  0  0  0  0  0  0  0  0  0
   -4.7274    0.3816   -1.8593 C   0  0  0  0  0  0  0  0  0  0  0  0
   -4.6871   -0.4931   -2.9467 C   0  0  0  0  0  0  0  0  0  0  0  0
   -3.4923   -1.8380   -4.1430 H   0  0  0  0  0  0  0  0  0  0  0  0
   -1.1956    0.1337   -0.7890 N   0  0  0  0  0  0  0  0  0  0  0  0
   -0.6512    0.6508    0.0638 N   0  0  0  0  0  0  0  0  0  0  0  0
   -5.5786   -0.6504   -3.5448 H   0  0  0  0  0  0  0  0  0  0  0  0
   -5.6460    0.8991   -1.6057 H   0  0  0  0  0  0  0  0  0  0  0  0
   -3.5671    1.2944   -0.2603 H   0  0  0  0  0  0  0  0  0  0  0  0
   -0.2058   -1.1239   -2.0998 N   0  0  0  0  0  0  0  0  0  0  0  0
   -1.1026   -1.5809   -2.7803 N   0  0  0  0  0  0  0  0  0  0  0  0
   -0.8958   -2.6199   -3.7979 C   0  0  0  0  0  0  0  0  0  0  0  0
    0.1925   -2.4619   -4.6557 C   0  0  0  0  0  0  0  0  0  0  0  0
   -1.7139   -3.7518   -3.8146 C   0  0  0  0  0  0  0  0  0  0  0  0
    0.4483   -3.4661   -5.5870 C   0  0  0  0  0  0  0  0  0  0  0  0
    0.8143   -1.5759   -4.5907 H   0  0  0  0  0  0  0  0  0  0  0  0
   -1.4313   -4.7512   -4.7459 C   0  0  0  0  0  0  0  0  0  0  0  0
   -2.5228   -3.8748   -3.1020 H   0  0  0  0  0  0  0  0  0  0  0  0
   -0.3605   -4.6058   -5.6322 C   0  0  0  0  0  0  0  0  0  0  0  0
    1.2825   -3.3598   -6.2725 H   0  0  0  0  0  0  0  0  0  0  0  0
   -2.0427   -5.6472   -4.7696 H   0  0  0  0  0  0  0  0  0  0  0  0
   -0.1510   -5.3871   -6.3558 H   0  0  0  0  0  0  0  0  0  0  0  0
  1  6  2  0  0  0  0
  1  2  1  0  0  0  0
  2  3  2  0  0  0  0
  3  4  1  0  0  0  0
  3  8  1  0  0  0  0
  4 12  1  0  0  0  0
  5 11  1  0  0  0  0
  5  4  2  0  0  0  0
  6  5  1  0  0  0  0
  7  1  1  0  0  0  0
  8  9  2  0  0  0  0
 10  6  1  0  0  0  0
 14  2  1  0  0  0  0
 14 13  1  0  0  0  0
 15 14  1  0  0  0  0
 16 19  1  0  0  0  0
 16 15  2  0  0  0  0
 17 15  1  0  0  0  0
 17 21  1  0  0  0  0
 18 16  1  0  0  0  0
 20 17  2  0  0  0  0
 22 18  2  0  0  0  0
 22 20  1  0  0  0  0
 23 18  1  0  0  0  0
 24 20  1  0  0  0  0
 25 22  1  0  0  0  0
M  RAD  2   9   2  13   3
M  END
