Coordinates from ORCA-job 1a-Schema5-R6-D+-B3LYPG-6-31G_dp-scan-d49-09-n400
 OpenBabel08281819463D

 25 25  0  0  0  0  0  0  0  0999 V2000
   -3.5872   -0.9730   -3.3582 C   0  0  0  0  0  0  0  0  0  0  0  0
   -2.5111   -0.9461   -2.4760 C   0  0  0  0  0  0  0  0  0  0  0  0
   -2.7192   -0.2077   -1.3021 C   0  0  0  0  0  0  0  0  0  0  0  0
   -3.9140    0.4640   -0.9407 C   0  0  0  0  0  0  0  0  0  0  0  0
   -4.9548    0.3910   -1.8473 C   0  0  0  0  0  0  0  0  0  0  0  0
   -4.7891   -0.3213   -3.0502 C   0  0  0  0  0  0  0  0  0  0  0  0
   -3.5034   -1.5085   -4.3006 H   0  0  0  0  0  0  0  0  0  0  0  0
   -1.6607   -0.1251   -0.4150 N   0  0  0  0  0  0  0  0  0  0  0  0
   -0.7959   -0.0560    0.2869 N   0  0  0  0  0  0  0  0  0  0  0  0
   -5.6143   -0.3621   -3.7563 H   0  0  0  0  0  0  0  0  0  0  0  0
   -5.8948    0.8859   -1.6305 H   0  0  0  0  0  0  0  0  0  0  0  0
   -3.9990    1.0026   -0.0024 H   0  0  0  0  0  0  0  0  0  0  0  0
    0.4533   -0.6581   -2.6785 N   0  0  0  0  0  0  0  0  0  0  0  0
   -0.3940   -1.3561   -3.0234 N   0  0  0  0  0  0  0  0  0  0  0  0
   -0.4722   -2.5078   -3.8958 C   0  0  0  0  0  0  0  0  0  0  0  0
    0.4845   -2.5947   -4.9146 C   0  0  0  0  0  0  0  0  0  0  0  0
   -1.4251   -3.4951   -3.6673 C   0  0  0  0  0  0  0  0  0  0  0  0
    0.4597   -3.7163   -5.7380 C   0  0  0  0  0  0  0  0  0  0  0  0
    1.2135   -1.8036   -5.0525 H   0  0  0  0  0  0  0  0  0  0  0  0
   -1.4161   -4.6211   -4.4897 C   0  0  0  0  0  0  0  0  0  0  0  0
   -2.1341   -3.3887   -2.8553 H   0  0  0  0  0  0  0  0  0  0  0  0
   -0.4838   -4.7271   -5.5254 C   0  0  0  0  0  0  0  0  0  0  0  0
    1.1816   -3.8019   -6.5436 H   0  0  0  0  0  0  0  0  0  0  0  0
   -2.1371   -5.4139   -4.3197 H   0  0  0  0  0  0  0  0  0  0  0  0
   -0.4906   -5.6014   -6.1687 H   0  0  0  0  0  0  0  0  0  0  0  0
  1  6  2  0  0  0  0
  1  2  1  0  0  0  0
  2  3  2  0  0  0  0
  3  4  1  0  0  0  0
  3  8  1  0  0  0  0
  4 12  1  0  0  0  0
  5 11  1  0  0  0  0
  5  4  2  0  0  0  0
  6  5  1  0  0  0  0
  7  1  1  0  0  0  0
  8  9  1  0  0  0  0
 10  6  1  0  0  0  0
 14 13  2  0  0  0  0
 15 17  1  0  0  0  0
 15 14  1  0  0  0  0
 16 15  2  0  0  0  0
 17 21  1  0  0  0  0
 18 22  2  0  0  0  0
 18 16  1  0  0  0  0
 19 16  1  0  0  0  0
 20 24  1  0  0  0  0
 20 17  2  0  0  0  0
 22 20  1  0  0  0  0
 23 18  1  0  0  0  0
 25 22  1  0  0  0  0
M  RAD  4   2   2   8   2   9   3  13   2
M  END
