Coordinates from ORCA-job 1a-Schema5-R6-D+-B3LYPG-6-31G_dp-scan-d49-09-n400
 OpenBabel08281819463D

 25 25  0  0  0  0  0  0  0  0999 V2000
   -4.0081   -0.5647   -3.2359 C   0  0  0  0  0  0  0  0  0  0  0  0
   -2.9391   -0.9446   -2.3863 C   0  0  0  0  0  0  0  0  0  0  0  0
   -3.2611   -0.6330   -1.0464 C   0  0  0  0  0  0  0  0  0  0  0  0
   -4.4316   -0.0323   -0.5064 C   0  0  0  0  0  0  0  0  0  0  0  0
   -5.4072    0.2996   -1.4199 C   0  0  0  0  0  0  0  0  0  0  0  0
   -5.1883    0.0291   -2.7897 C   0  0  0  0  0  0  0  0  0  0  0  0
   -3.9145   -0.7438   -4.3077 H   0  0  0  0  0  0  0  0  0  0  0  0
   -2.2780   -0.9724   -0.1355 N   0  0  0  0  0  0  0  0  0  0  0  0
   -1.4566   -1.2639    0.5662 N   0  0  0  0  0  0  0  0  0  0  0  0
   -5.9650    0.2946   -3.5032 H   0  0  0  0  0  0  0  0  0  0  0  0
   -6.3311    0.7620   -1.0904 H   0  0  0  0  0  0  0  0  0  0  0  0
   -4.5457    0.1524    0.5576 H   0  0  0  0  0  0  0  0  0  0  0  0
    1.2346    0.0866   -4.4748 N   0  0  0  0  0  0  0  0  0  0  0  0
    0.8391   -0.9539   -4.5592 N   0  0  0  0  0  0  0  0  0  0  0  0
    0.3798   -2.2449   -4.6856 C   0  0  0  0  0  0  0  0  0  0  0  0
    1.1454   -3.1207   -5.4919 C   0  0  0  0  0  0  0  0  0  0  0  0
   -0.8078   -2.5969   -4.0128 C   0  0  0  0  0  0  0  0  0  0  0  0
    0.6809   -4.4170   -5.6228 C   0  0  0  0  0  0  0  0  0  0  0  0
    2.0525   -2.7818   -5.9798 H   0  0  0  0  0  0  0  0  0  0  0  0
   -1.2288   -3.9122   -4.1819 C   0  0  0  0  0  0  0  0  0  0  0  0
   -1.4090   -1.8886   -3.3819 H   0  0  0  0  0  0  0  0  0  0  0  0
   -0.5015   -4.8095   -4.9713 C   0  0  0  0  0  0  0  0  0  0  0  0
    1.2331   -5.1257   -6.2302 H   0  0  0  0  0  0  0  0  0  0  0  0
   -2.1416   -4.2302   -3.6886 H   0  0  0  0  0  0  0  0  0  0  0  0
   -0.8540   -5.8299   -5.0867 H   0  0  0  0  0  0  0  0  0  0  0  0
  1  6  2  0  0  0  0
  1  2  1  0  0  0  0
  2  3  2  0  0  0  0
  3  4  1  0  0  0  0
  3  8  1  0  0  0  0
  4 12  1  0  0  0  0
  5 11  1  0  0  0  0
  5  4  2  0  0  0  0
  6  5  1  0  0  0  0
  7  1  1  0  0  0  0
  8  9  1  0  0  0  0
 10  6  1  0  0  0  0
 14 13  1  0  0  0  0
 15 14  1  0  0  0  0
 15 17  2  0  0  0  0
 16 15  1  0  0  0  0
 17 21  1  0  0  0  0
 18 16  2  0  0  0  0
 18 22  1  0  0  0  0
 19 16  1  0  0  0  0
 20 17  1  0  0  0  0
 20 24  1  0  0  0  0
 22 20  2  0  0  0  0
 23 18  1  0  0  0  0
 25 22  1  0  0  0  0
M  RAD  5   2   2   8   2   9   3  13   3  14   2
M  END
