Coordinates from ORCA-job 1a-Schema5-R6-D+-B3LYPG-6-31G_dp-scan-d49-09-n400
 OpenBabel08281819463D

 25 26  0  0  0  0  0  0  0  0999 V2000
   -3.5533   -1.2145   -3.3134 C   0  0  0  0  0  0  0  0  0  0  0  0
   -2.4422   -0.9948   -2.5268 C   0  0  0  0  0  0  0  0  0  0  0  0
   -2.4480   -0.0948   -1.4799 C   0  0  0  0  0  0  0  0  0  0  0  0
   -3.5956    0.6193   -1.1317 C   0  0  0  0  0  0  0  0  0  0  0  0
   -4.7387    0.3934   -1.9009 C   0  0  0  0  0  0  0  0  0  0  0  0
   -4.7163   -0.5018   -2.9760 C   0  0  0  0  0  0  0  0  0  0  0  0
   -3.5336   -1.8957   -4.1547 H   0  0  0  0  0  0  0  0  0  0  0  0
   -1.2208    0.1176   -0.7659 N   0  0  0  0  0  0  0  0  0  0  0  0
   -0.7475    0.6751    0.0991 N   0  0  0  0  0  0  0  0  0  0  0  0
   -5.6127   -0.6486   -3.5699 H   0  0  0  0  0  0  0  0  0  0  0  0
   -5.6508    0.9300   -1.6631 H   0  0  0  0  0  0  0  0  0  0  0  0
   -3.5851    1.3208   -0.3038 H   0  0  0  0  0  0  0  0  0  0  0  0
    0.0158   -1.2504   -2.0135 N   0  0  0  0  0  0  0  0  0  0  0  0
   -0.9481   -1.6152   -2.6879 N   0  0  0  0  0  0  0  0  0  0  0  0
   -0.8046   -2.6250   -3.7394 C   0  0  0  0  0  0  0  0  0  0  0  0
    0.2362   -2.4665   -4.6558 C   0  0  0  0  0  0  0  0  0  0  0  0
   -1.6479   -3.7384   -3.7490 C   0  0  0  0  0  0  0  0  0  0  0  0
    0.4157   -3.4460   -5.6305 C   0  0  0  0  0  0  0  0  0  0  0  0
    0.8793   -1.5948   -4.6043 H   0  0  0  0  0  0  0  0  0  0  0  0
   -1.4409   -4.7162   -4.7225 C   0  0  0  0  0  0  0  0  0  0  0  0
   -2.4165   -3.8661   -2.9934 H   0  0  0  0  0  0  0  0  0  0  0  0
   -0.4193   -4.5666   -5.6642 C   0  0  0  0  0  0  0  0  0  0  0  0
    1.2117   -3.3351   -6.3594 H   0  0  0  0  0  0  0  0  0  0  0  0
   -2.0719   -5.5988   -4.7363 H   0  0  0  0  0  0  0  0  0  0  0  0
   -0.2688   -5.3290   -6.4219 H   0  0  0  0  0  0  0  0  0  0  0  0
  1  6  2  0  0  0  0
  1  2  1  0  0  0  0
  2  3  2  0  0  0  0
  3  4  1  0  0  0  0
  3  8  1  0  0  0  0
  4 12  1  0  0  0  0
  5 11  1  0  0  0  0
  5  4  2  0  0  0  0
  6  5  1  0  0  0  0
  7  1  1  0  0  0  0
  8  9  2  0  0  0  0
 10  6  1  0  0  0  0
 14  2  1  0  0  0  0
 14 13  1  0  0  0  0
 15 14  1  0  0  0  0
 16 19  1  0  0  0  0
 16 15  2  0  0  0  0
 17 15  1  0  0  0  0
 17 21  1  0  0  0  0
 18 16  1  0  0  0  0
 20 17  2  0  0  0  0
 22 18  2  0  0  0  0
 22 20  1  0  0  0  0
 23 18  1  0  0  0  0
 24 20  1  0  0  0  0
 25 22  1  0  0  0  0
M  RAD  2   9   2  13   3
M  END
