Coordinates from ORCA-job 1a-Schema5-R6-D+-B3LYPG-6-31G_dp-scan-d49-09-n400
 OpenBabel08281819463D

 25 26  0  0  0  0  0  0  0  0999 V2000
   -3.7622   -0.3766   -3.6475 C   0  0  0  0  0  0  0  0  0  0  0  0
   -2.5119   -0.6265   -3.0015 C   0  0  0  0  0  0  0  0  0  0  0  0
   -2.4912   -0.5222   -1.5584 C   0  0  0  0  0  0  0  0  0  0  0  0
   -3.5949    0.0477   -0.8382 C   0  0  0  0  0  0  0  0  0  0  0  0
   -4.7299    0.3712   -1.5215 C   0  0  0  0  0  0  0  0  0  0  0  0
   -4.8138    0.1271   -2.9284 C   0  0  0  0  0  0  0  0  0  0  0  0
   -3.8399   -0.5601   -4.7136 H   0  0  0  0  0  0  0  0  0  0  0  0
   -1.4012   -0.9074   -0.8884 N   0  0  0  0  0  0  0  0  0  0  0  0
   -0.4752   -1.2124   -0.3160 N   0  0  0  0  0  0  0  0  0  0  0  0
   -5.7462    0.3376   -3.4428 H   0  0  0  0  0  0  0  0  0  0  0  0
   -5.5763    0.7983   -0.9966 H   0  0  0  0  0  0  0  0  0  0  0  0
   -3.4989    0.2009    0.2310 H   0  0  0  0  0  0  0  0  0  0  0  0
   -1.0394    0.0377   -3.8873 N   0  0  0  0  0  0  0  0  0  0  0  0
   -1.4132   -1.1273   -3.7167 N   0  0  0  0  0  0  0  0  0  0  0  0
   -0.9255   -2.4044   -4.1233 C   0  0  0  0  0  0  0  0  0  0  0  0
    0.2729   -2.4544   -4.8450 C   0  0  0  0  0  0  0  0  0  0  0  0
   -1.6665   -3.5435   -3.7901 C   0  0  0  0  0  0  0  0  0  0  0  0
    0.7400   -3.7010   -5.2424 C   0  0  0  0  0  0  0  0  0  0  0  0
    0.8053   -1.5383   -5.0790 H   0  0  0  0  0  0  0  0  0  0  0  0
   -1.1794   -4.7818   -4.1999 C   0  0  0  0  0  0  0  0  0  0  0  0
   -2.5981   -3.4613   -3.2392 H   0  0  0  0  0  0  0  0  0  0  0  0
    0.0171   -4.8585   -4.9206 C   0  0  0  0  0  0  0  0  0  0  0  0
    1.6659   -3.7756   -5.8022 H   0  0  0  0  0  0  0  0  0  0  0  0
   -1.7313   -5.6840   -3.9605 H   0  0  0  0  0  0  0  0  0  0  0  0
    0.3900   -5.8271   -5.2368 H   0  0  0  0  0  0  0  0  0  0  0  0
  1  2  2  0  0  0  0
  1  6  1  0  0  0  0
  2  3  1  0  0  0  0
  3  8  1  0  0  0  0
  3  4  2  0  0  0  0
  4 12  1  0  0  0  0
  5 11  1  0  0  0  0
  5  4  1  0  0  0  0
  6  5  2  0  0  0  0
  7  1  1  0  0  0  0
  8  9  1  0  0  0  0
 10  6  1  0  0  0  0
 13 14  1  0  0  0  0
 14  2  1  0  0  0  0
 15 17  1  0  0  0  0
 15 14  1  0  0  0  0
 16 15  2  0  0  0  0
 17 21  1  0  0  0  0
 18 22  2  0  0  0  0
 18 16  1  0  0  0  0
 19 16  1  0  0  0  0
 20 24  1  0  0  0  0
 20 17  2  0  0  0  0
 22 20  1  0  0  0  0
 23 18  1  0  0  0  0
 25 22  1  0  0  0  0
M  RAD  3   8   2   9   3  13   3
M  END
