Coordinates from ORCA-job 1a-Schema5-R6-D+-B3LYPG-6-31G_dp-scan-d49-09-n400
 OpenBabel08281819463D

 25 26  0  0  0  0  0  0  0  0999 V2000
   -3.6468   -1.2139   -3.2900 C   0  0  0  0  0  0  0  0  0  0  0  0
   -2.5190   -0.9946   -2.5312 C   0  0  0  0  0  0  0  0  0  0  0  0
   -2.4994   -0.0981   -1.4914 C   0  0  0  0  0  0  0  0  0  0  0  0
   -3.6462    0.6200   -1.1145 C   0  0  0  0  0  0  0  0  0  0  0  0
   -4.8027    0.3971   -1.8567 C   0  0  0  0  0  0  0  0  0  0  0  0
   -4.8040   -0.4999   -2.9326 C   0  0  0  0  0  0  0  0  0  0  0  0
   -3.6493   -1.8984   -4.1305 H   0  0  0  0  0  0  0  0  0  0  0  0
   -1.2944    0.1651   -0.7516 N   0  0  0  0  0  0  0  0  0  0  0  0
   -0.8016    0.7097    0.1023 N   0  0  0  0  0  0  0  0  0  0  0  0
   -5.7131   -0.6464   -3.5079 H   0  0  0  0  0  0  0  0  0  0  0  0
   -5.7083    0.9353   -1.5983 H   0  0  0  0  0  0  0  0  0  0  0  0
   -3.6177    1.3188   -0.2842 H   0  0  0  0  0  0  0  0  0  0  0  0
    0.1474   -1.1952   -2.0631 N   0  0  0  0  0  0  0  0  0  0  0  0
   -0.7630   -1.6261   -2.7062 N   0  0  0  0  0  0  0  0  0  0  0  0
   -0.6775   -2.6339   -3.7537 C   0  0  0  0  0  0  0  0  0  0  0  0
    0.3771   -2.5425   -4.6644 C   0  0  0  0  0  0  0  0  0  0  0  0
   -1.6008   -3.6795   -3.7758 C   0  0  0  0  0  0  0  0  0  0  0  0
    0.4880   -3.5258   -5.6450 C   0  0  0  0  0  0  0  0  0  0  0  0
    1.0802   -1.7190   -4.6051 H   0  0  0  0  0  0  0  0  0  0  0  0
   -1.4594   -4.6651   -4.7528 C   0  0  0  0  0  0  0  0  0  0  0  0
   -2.3797   -3.7502   -3.0241 H   0  0  0  0  0  0  0  0  0  0  0  0
   -0.4256   -4.5832   -5.6893 C   0  0  0  0  0  0  0  0  0  0  0  0
    1.2924   -3.4675   -6.3711 H   0  0  0  0  0  0  0  0  0  0  0  0
   -2.1526   -5.4998   -4.7754 H   0  0  0  0  0  0  0  0  0  0  0  0
   -0.3279   -5.3488   -6.4525 H   0  0  0  0  0  0  0  0  0  0  0  0
  1  6  2  0  0  0  0
  1  2  1  0  0  0  0
  2  3  2  0  0  0  0
  3  4  1  0  0  0  0
  3  8  1  0  0  0  0
  4 12  1  0  0  0  0
  5 11  1  0  0  0  0
  5  4  2  0  0  0  0
  6  5  1  0  0  0  0
  7  1  1  0  0  0  0
  8  9  2  0  0  0  0
 10  6  1  0  0  0  0
 14  2  1  0  0  0  0
 14 13  1  0  0  0  0
 15 14  1  0  0  0  0
 16 19  1  0  0  0  0
 16 15  2  0  0  0  0
 17 15  1  0  0  0  0
 17 21  1  0  0  0  0
 18 16  1  0  0  0  0
 20 17  2  0  0  0  0
 22 18  2  0  0  0  0
 22 20  1  0  0  0  0
 23 18  1  0  0  0  0
 24 20  1  0  0  0  0
 25 22  1  0  0  0  0
M  RAD  2   9   2  13   3
M  END
