Coordinates from ORCA-job 1a-Schema5-R6-D+-B3LYPG-6-31G_dp-scan-d49-09-n400
 OpenBabel08281819463D

 25 26  0  0  0  0  0  0  0  0999 V2000
   -0.4541    0.1054   -2.2668 C   0  0  0  0  0  0  0  0  0  0  0  0
   -1.7830   -0.6204   -2.3416 C   0  0  0  0  0  0  0  0  0  0  0  0
   -2.9337    0.3812   -2.4055 C   0  0  0  0  0  0  0  0  0  0  0  0
   -2.7484    1.8049   -2.4386 C   0  0  0  0  0  0  0  0  0  0  0  0
   -1.5018    2.3328   -2.3905 C   0  0  0  0  0  0  0  0  0  0  0  0
   -0.3666    1.4532   -2.2934 C   0  0  0  0  0  0  0  0  0  0  0  0
    0.4087   -0.5454   -2.1824 H   0  0  0  0  0  0  0  0  0  0  0  0
   -4.1453   -0.1457   -2.4098 N   0  0  0  0  0  0  0  0  0  0  0  0
   -5.1685   -0.6395   -2.4126 N   0  0  0  0  0  0  0  0  0  0  0  0
    0.6269    1.8909   -2.2335 H   0  0  0  0  0  0  0  0  0  0  0  0
   -1.3533    3.4054   -2.4161 H   0  0  0  0  0  0  0  0  0  0  0  0
   -3.6369    2.4251   -2.4996 H   0  0  0  0  0  0  0  0  0  0  0  0
   -1.8864   -1.6152   -2.3493 N   0  0  0  0  0  0  0  0  0  0  0  0
   -2.0114   -2.8334   -2.1819 N   0  0  0  0  0  0  0  0  0  0  0  0
   -2.0048   -3.6927   -3.2730 C   0  0  0  0  0  0  0  0  0  0  0  0
   -2.1872   -5.0515   -2.9385 C   0  0  0  0  0  0  0  0  0  0  0  0
   -1.8280   -3.2900   -4.6179 C   0  0  0  0  0  0  0  0  0  0  0  0
   -2.1987   -6.0064   -3.9469 C   0  0  0  0  0  0  0  0  0  0  0  0
   -2.3168   -5.3180   -1.8950 H   0  0  0  0  0  0  0  0  0  0  0  0
   -1.8384   -4.2543   -5.6097 C   0  0  0  0  0  0  0  0  0  0  0  0
   -1.6778   -2.2444   -4.8704 H   0  0  0  0  0  0  0  0  0  0  0  0
   -2.0251   -5.6088   -5.2764 C   0  0  0  0  0  0  0  0  0  0  0  0
   -2.3411   -7.0536   -3.7032 H   0  0  0  0  0  0  0  0  0  0  0  0
   -1.7001   -3.9673   -6.6467 H   0  0  0  0  0  0  0  0  0  0  0  0
   -2.0321   -6.3543   -6.0655 H   0  0  0  0  0  0  0  0  0  0  0  0
  1  7  1  0  0  0  0
  2  1  2  0  0  0  0
  3  2  1  0  0  0  0
  4  3  2  0  0  0  0
  4  5  1  0  0  0  0
  5  6  2  0  0  0  0
  6  1  1  0  0  0  0
  6 10  1  0  0  0  0
  8  3  1  0  0  0  0
  9  8  1  0  0  0  0
 11  5  1  0  0  0  0
 12  4  1  0  0  0  0
 13  2  1  0  0  0  0
 13 14  1  0  0  0  0
 15 16  1  0  0  0  0
 15 14  1  0  0  0  0
 16 19  1  0  0  0  0
 17 15  2  0  0  0  0
 18 23  1  0  0  0  0
 18 16  2  0  0  0  0
 20 22  2  0  0  0  0
 20 17  1  0  0  0  0
 21 17  1  0  0  0  0
 22 18  1  0  0  0  0
 24 20  1  0  0  0  0
 25 22  1  0  0  0  0
M  RAD  4   8   2   9   3  13   2  14   2
M  END
