Coordinates from ORCA-job 1a-Schema5-R6-D+-B3LYPG-6-31G_dp-scan-d49-09-n400
 OpenBabel08281819463D

 25 25  0  0  0  0  0  0  0  0999 V2000
   -3.8870   -0.4715   -3.2668 C   0  0  0  0  0  0  0  0  0  0  0  0
   -2.9398   -1.0367   -2.3771 C   0  0  0  0  0  0  0  0  0  0  0  0
   -3.2551   -0.6692   -1.0496 C   0  0  0  0  0  0  0  0  0  0  0  0
   -4.3155    0.1388   -0.5554 C   0  0  0  0  0  0  0  0  0  0  0  0
   -5.1730    0.6459   -1.5067 C   0  0  0  0  0  0  0  0  0  0  0  0
   -4.9534    0.3341   -2.8669 C   0  0  0  0  0  0  0  0  0  0  0  0
   -3.7920   -0.6753   -4.3343 H   0  0  0  0  0  0  0  0  0  0  0  0
   -2.3948   -1.1865   -0.0977 N   0  0  0  0  0  0  0  0  0  0  0  0
   -1.6782   -1.6278    0.6394 N   0  0  0  0  0  0  0  0  0  0  0  0
   -5.6383    0.7348   -3.6105 H   0  0  0  0  0  0  0  0  0  0  0  0
   -6.0084    1.2721   -1.2125 H   0  0  0  0  0  0  0  0  0  0  0  0
   -4.4393    0.3414    0.5042 H   0  0  0  0  0  0  0  0  0  0  0  0
    0.1839    0.1562   -4.3204 N   0  0  0  0  0  0  0  0  0  0  0  0
    0.0985   -0.9496   -4.4423 N   0  0  0  0  0  0  0  0  0  0  0  0
    0.0172   -2.3128   -4.6212 C   0  0  0  0  0  0  0  0  0  0  0  0
    0.9343   -2.9137   -5.5131 C   0  0  0  0  0  0  0  0  0  0  0  0
   -0.9813   -2.9987   -3.9020 C   0  0  0  0  0  0  0  0  0  0  0  0
    0.8276   -4.2832   -5.6827 C   0  0  0  0  0  0  0  0  0  0  0  0
    1.6795   -2.3237   -6.0352 H   0  0  0  0  0  0  0  0  0  0  0  0
   -1.0476   -4.3720   -4.1117 C   0  0  0  0  0  0  0  0  0  0  0  0
   -1.6610   -2.4130   -3.2344 H   0  0  0  0  0  0  0  0  0  0  0  0
   -0.1577   -5.0058   -4.9871 C   0  0  0  0  0  0  0  0  0  0  0  0
    1.5067   -4.7945   -6.3562 H   0  0  0  0  0  0  0  0  0  0  0  0
   -1.8014   -4.9516   -3.5889 H   0  0  0  0  0  0  0  0  0  0  0  0
   -0.2275   -6.0794   -5.1360 H   0  0  0  0  0  0  0  0  0  0  0  0
  1  6  2  0  0  0  0
  1  2  1  0  0  0  0
  2  3  2  0  0  0  0
  3  4  1  0  0  0  0
  3  8  1  0  0  0  0
  4 12  1  0  0  0  0
  5 11  1  0  0  0  0
  5  4  2  0  0  0  0
  6  5  1  0  0  0  0
  7  1  1  0  0  0  0
  8  9  1  0  0  0  0
 10  6  1  0  0  0  0
 14 13  1  0  0  0  0
 15 14  1  0  0  0  0
 15 17  2  0  0  0  0
 16 15  1  0  0  0  0
 17 21  1  0  0  0  0
 18 16  2  0  0  0  0
 18 22  1  0  0  0  0
 19 16  1  0  0  0  0
 20 17  1  0  0  0  0
 20 24  1  0  0  0  0
 22 20  2  0  0  0  0
 23 18  1  0  0  0  0
 25 22  1  0  0  0  0
M  RAD  5   2   2   8   2   9   3  13   3  14   2
M  END
