Coordinates from ORCA-job 1a-Schema5-R6-D+-B3LYPG-6-31G_dp-scan-d49-09-n400
 OpenBabel08281819463D

 25 25  0  0  0  0  0  0  0  0999 V2000
   -3.7798   -0.5959   -3.3712 C   0  0  0  0  0  0  0  0  0  0  0  0
   -2.7123   -0.8456   -2.4966 C   0  0  0  0  0  0  0  0  0  0  0  0
   -2.9608   -0.3869   -1.1889 C   0  0  0  0  0  0  0  0  0  0  0  0
   -4.1272    0.2632   -0.7041 C   0  0  0  0  0  0  0  0  0  0  0  0
   -5.1308    0.4732   -1.6270 C   0  0  0  0  0  0  0  0  0  0  0  0
   -4.9537    0.0428   -2.9581 C   0  0  0  0  0  0  0  0  0  0  0  0
   -3.7045   -0.9055   -4.4119 H   0  0  0  0  0  0  0  0  0  0  0  0
   -1.9486   -0.5994   -0.2736 N   0  0  0  0  0  0  0  0  0  0  0  0
   -1.1160   -0.7825    0.4489 N   0  0  0  0  0  0  0  0  0  0  0  0
   -5.7512    0.2173   -3.6760 H   0  0  0  0  0  0  0  0  0  0  0  0
   -6.0492    0.9659   -1.3277 H   0  0  0  0  0  0  0  0  0  0  0  0
   -4.2172    0.5746    0.3318 H   0  0  0  0  0  0  0  0  0  0  0  0
    0.5390   -0.1738   -3.6558 N   0  0  0  0  0  0  0  0  0  0  0  0
   -0.1288   -1.0891   -3.6973 N   0  0  0  0  0  0  0  0  0  0  0  0
   -0.2402   -2.4133   -4.2217 C   0  0  0  0  0  0  0  0  0  0  0  0
    0.7548   -2.7862   -5.1453 C   0  0  0  0  0  0  0  0  0  0  0  0
   -1.2581   -3.2657   -3.8087 C   0  0  0  0  0  0  0  0  0  0  0  0
    0.6982   -4.0725   -5.6636 C   0  0  0  0  0  0  0  0  0  0  0  0
    1.5306   -2.0861   -5.4354 H   0  0  0  0  0  0  0  0  0  0  0  0
   -1.2840   -4.5541   -4.3361 C   0  0  0  0  0  0  0  0  0  0  0  0
   -1.9876   -2.8787   -3.1016 H   0  0  0  0  0  0  0  0  0  0  0  0
   -0.3144   -4.9540   -5.2605 C   0  0  0  0  0  0  0  0  0  0  0  0
    1.4466   -4.3890   -6.3828 H   0  0  0  0  0  0  0  0  0  0  0  0
   -2.0629   -5.2435   -4.0289 H   0  0  0  0  0  0  0  0  0  0  0  0
   -0.3453   -5.9572   -5.6732 H   0  0  0  0  0  0  0  0  0  0  0  0
  1  6  2  0  0  0  0
  1  2  1  0  0  0  0
  2  3  2  0  0  0  0
  3  4  1  0  0  0  0
  3  8  1  0  0  0  0
  4 12  1  0  0  0  0
  5 11  1  0  0  0  0
  5  4  2  0  0  0  0
  6  5  1  0  0  0  0
  7  1  1  0  0  0  0
  8  9  1  0  0  0  0
 10  6  1  0  0  0  0
 14 13  2  0  0  0  0
 15 17  1  0  0  0  0
 15 14  1  0  0  0  0
 16 15  2  0  0  0  0
 17 21  1  0  0  0  0
 18 22  2  0  0  0  0
 18 16  1  0  0  0  0
 19 16  1  0  0  0  0
 20 24  1  0  0  0  0
 20 17  2  0  0  0  0
 22 20  1  0  0  0  0
 23 18  1  0  0  0  0
 25 22  1  0  0  0  0
M  RAD  4   2   2   8   2   9   3  13   2
M  END
