Coordinates from ORCA-job 1a-Schema5-R6-D+-B3LYPG-6-31G_dp-scan-d49-09-n400
 OpenBabel08281819463D

 25 27  0  0  1  0  0  0  0  0999 V2000
   -3.7563   -0.3184   -3.6502 C   0  0  0  0  0  0  0  0  0  0  0  0
   -2.4839   -0.5519   -3.0009 C   0  0  2  0  0  0  0  0  0  0  0  0
   -2.4809   -0.4710   -1.5399 C   0  0  0  0  0  0  0  0  0  0  0  0
   -3.6130    0.0662   -0.8272 C   0  0  0  0  0  0  0  0  0  0  0  0
   -4.7453    0.3764   -1.5114 C   0  0  0  0  0  0  0  0  0  0  0  0
   -4.8126    0.1522   -2.9306 C   0  0  0  0  0  0  0  0  0  0  0  0
   -3.8223   -0.4871   -4.7196 H   0  0  0  0  0  0  0  0  0  0  0  0
   -1.3912   -0.8304   -0.8720 N   0  0  0  0  0  0  0  0  0  0  0  0
   -0.4612   -1.1291   -0.2956 N   0  0  0  0  0  0  0  0  0  0  0  0
   -5.7453    0.3564   -3.4474 H   0  0  0  0  0  0  0  0  0  0  0  0
   -5.6057    0.7775   -0.9892 H   0  0  0  0  0  0  0  0  0  0  0  0
   -3.5282    0.2039    0.2452 H   0  0  0  0  0  0  0  0  0  0  0  0
   -1.1003   -0.0052   -3.8277 N   0  0  0  0  0  0  0  0  0  0  0  0
   -1.4336   -1.1993   -3.6980 N   0  0  0  0  0  0  0  0  0  0  0  0
   -0.9327   -2.4475   -4.1200 C   0  0  0  0  0  0  0  0  0  0  0  0
    0.2677   -2.4761   -4.8466 C   0  0  0  0  0  0  0  0  0  0  0  0
   -1.6620   -3.6013   -3.7977 C   0  0  0  0  0  0  0  0  0  0  0  0
    0.7457   -3.7118   -5.2592 C   0  0  0  0  0  0  0  0  0  0  0  0
    0.7922   -1.5529   -5.0711 H   0  0  0  0  0  0  0  0  0  0  0  0
   -1.1626   -4.8273   -4.2235 C   0  0  0  0  0  0  0  0  0  0  0  0
   -2.5910   -3.5324   -3.2413 H   0  0  0  0  0  0  0  0  0  0  0  0
    0.0338   -4.8806   -4.9486 C   0  0  0  0  0  0  0  0  0  0  0  0
    1.6709   -3.7717   -5.8217 H   0  0  0  0  0  0  0  0  0  0  0  0
   -1.7025   -5.7391   -3.9938 H   0  0  0  0  0  0  0  0  0  0  0  0
    0.4165   -5.8413   -5.2771 H   0  0  0  0  0  0  0  0  0  0  0  0
  1  2  1  0  0  0  0
  1  6  1  0  0  0  0
  2 13  1  6  0  0  0
  2  3  1  0  0  0  0
  3  8  1  0  0  0  0
  3  4  2  0  0  0  0
  4 12  1  0  0  0  0
  5 11  1  0  0  0  0
  5  4  1  0  0  0  0
  6  5  2  0  0  0  0
  7  1  1  0  0  0  0
  8  9  1  0  0  0  0
 10  6  1  0  0  0  0
 13 14  1  0  0  0  0
 14  2  1  0  0  0  0
 15 17  1  0  0  0  0
 15 14  1  0  0  0  0
 16 15  2  0  0  0  0
 17 21  1  0  0  0  0
 18 22  2  0  0  0  0
 18 16  1  0  0  0  0
 19 16  1  0  0  0  0
 20 24  1  0  0  0  0
 20 17  2  0  0  0  0
 22 20  1  0  0  0  0
 23 18  1  0  0  0  0
 25 22  1  0  0  0  0
M  RAD  4   1   2   8   2   9   3  13   2
M  END
