Coordinates from ORCA-job 1a-Schema5-R6-D+-B3LYPG-6-31G_dp-scan-d49-09-n400
 OpenBabel08281819463D

 25 26  0  0  0  0  0  0  0  0999 V2000
   -3.4927   -1.0821   -3.3147 C   0  0  0  0  0  0  0  0  0  0  0  0
   -2.3225   -0.9111   -2.5669 C   0  0  0  0  0  0  0  0  0  0  0  0
   -2.4268   -0.0877   -1.4379 C   0  0  0  0  0  0  0  0  0  0  0  0
   -3.6096    0.5119   -1.0098 C   0  0  0  0  0  0  0  0  0  0  0  0
   -4.7591    0.3162   -1.7745 C   0  0  0  0  0  0  0  0  0  0  0  0
   -4.6896   -0.4626   -2.9294 C   0  0  0  0  0  0  0  0  0  0  0  0
   -3.4691   -1.6864   -4.2136 H   0  0  0  0  0  0  0  0  0  0  0  0
   -1.2098    0.1642   -0.7894 N   0  0  0  0  0  0  0  0  0  0  0  0
   -0.5987    0.6075    0.0548 N   0  0  0  0  0  0  0  0  0  0  0  0
   -5.5747   -0.6006   -3.5419 H   0  0  0  0  0  0  0  0  0  0  0  0
   -5.6902    0.7853   -1.4771 H   0  0  0  0  0  0  0  0  0  0  0  0
   -3.6083    1.1355   -0.1225 H   0  0  0  0  0  0  0  0  0  0  0  0
   -0.2915   -0.8394   -2.3590 N   0  0  0  0  0  0  0  0  0  0  0  0
   -1.1284   -1.4964   -2.9218 N   0  0  0  0  0  0  0  0  0  0  0  0
   -0.9037   -2.5881   -3.8703 C   0  0  0  0  0  0  0  0  0  0  0  0
    0.2323   -2.5001   -4.6750 C   0  0  0  0  0  0  0  0  0  0  0  0
   -1.7528   -3.6974   -3.8743 C   0  0  0  0  0  0  0  0  0  0  0  0
    0.5090   -3.5573   -5.5378 C   0  0  0  0  0  0  0  0  0  0  0  0
    0.8727   -1.6269   -4.6165 H   0  0  0  0  0  0  0  0  0  0  0  0
   -1.4493   -4.7501   -4.7375 C   0  0  0  0  0  0  0  0  0  0  0  0
   -2.6045   -3.7616   -3.2059 H   0  0  0  0  0  0  0  0  0  0  0  0
   -0.3287   -4.6774   -5.5693 C   0  0  0  0  0  0  0  0  0  0  0  0
    1.3805   -3.5083   -6.1820 H   0  0  0  0  0  0  0  0  0  0  0  0
   -2.0848   -5.6293   -4.7520 H   0  0  0  0  0  0  0  0  0  0  0  0
   -0.1034   -5.4998   -6.2407 H   0  0  0  0  0  0  0  0  0  0  0  0
  1  6  2  0  0  0  0
  1  2  1  0  0  0  0
  2  3  2  0  0  0  0
  3  4  1  0  0  0  0
  3  8  1  0  0  0  0
  4 12  1  0  0  0  0
  5 11  1  0  0  0  0
  5  4  2  0  0  0  0
  6  5  1  0  0  0  0
  7  1  1  0  0  0  0
  8  9  2  0  0  0  0
 10  6  1  0  0  0  0
 14  2  1  0  0  0  0
 14 13  1  0  0  0  0
 15 14  1  0  0  0  0
 16 19  1  0  0  0  0
 16 15  2  0  0  0  0
 17 15  1  0  0  0  0
 17 21  1  0  0  0  0
 18 16  1  0  0  0  0
 20 17  2  0  0  0  0
 22 18  2  0  0  0  0
 22 20  1  0  0  0  0
 23 18  1  0  0  0  0
 24 20  1  0  0  0  0
 25 22  1  0  0  0  0
M  RAD  2   9   2  13   3
M  END
