Coordinates from ORCA-job 1a-Schema5-R6-D+-B3LYPG-6-31G_dp-scan-d49-09-n400
 OpenBabel08281819463D

 25 27  0  0  1  0  0  0  0  0999 V2000
   -3.7363   -0.2214   -3.6568 C   0  0  0  0  0  0  0  0  0  0  0  0
   -2.4584   -0.4739   -3.0069 C   0  0  2  0  0  0  0  0  0  0  0  0
   -2.4600   -0.4018   -1.5373 C   0  0  0  0  0  0  0  0  0  0  0  0
   -3.6331    0.0283   -0.8137 C   0  0  0  0  0  0  0  0  0  0  0  0
   -4.7758    0.3045   -1.4907 C   0  0  0  0  0  0  0  0  0  0  0  0
   -4.8143    0.1648   -2.9255 C   0  0  0  0  0  0  0  0  0  0  0  0
   -3.7806   -0.3181   -4.7363 H   0  0  0  0  0  0  0  0  0  0  0  0
   -1.3420   -0.6719   -0.8794 N   0  0  0  0  0  0  0  0  0  0  0  0
   -0.3879   -0.9073   -0.3106 N   0  0  0  0  0  0  0  0  0  0  0  0
   -5.7451    0.3741   -3.4438 H   0  0  0  0  0  0  0  0  0  0  0  0
   -5.6628    0.6262   -0.9587 H   0  0  0  0  0  0  0  0  0  0  0  0
   -3.5627    0.1188    0.2648 H   0  0  0  0  0  0  0  0  0  0  0  0
   -1.1082   -0.0471   -3.7975 N   0  0  0  0  0  0  0  0  0  0  0  0
   -1.4503   -1.2487   -3.6984 N   0  0  0  0  0  0  0  0  0  0  0  0
   -0.9433   -2.4841   -4.1225 C   0  0  0  0  0  0  0  0  0  0  0  0
    0.2700   -2.5107   -4.8325 C   0  0  0  0  0  0  0  0  0  0  0  0
   -1.6800   -3.6415   -3.8218 C   0  0  0  0  0  0  0  0  0  0  0  0
    0.7505   -3.7433   -5.2482 C   0  0  0  0  0  0  0  0  0  0  0  0
    0.8012   -1.5876   -5.0415 H   0  0  0  0  0  0  0  0  0  0  0  0
   -1.1772   -4.8641   -4.2500 C   0  0  0  0  0  0  0  0  0  0  0  0
   -2.6161   -3.5731   -3.2776 H   0  0  0  0  0  0  0  0  0  0  0  0
    0.0304   -4.9131   -4.9578 C   0  0  0  0  0  0  0  0  0  0  0  0
    1.6837   -3.8017   -5.7974 H   0  0  0  0  0  0  0  0  0  0  0  0
   -1.7214   -5.7772   -4.0362 H   0  0  0  0  0  0  0  0  0  0  0  0
    0.4160   -5.8719   -5.2888 H   0  0  0  0  0  0  0  0  0  0  0  0
  1  2  1  0  0  0  0
  1  6  1  0  0  0  0
  2 13  1  6  0  0  0
  2  3  1  0  0  0  0
  3  8  1  0  0  0  0
  3  4  2  0  0  0  0
  4 12  1  0  0  0  0
  5 11  1  0  0  0  0
  5  4  1  0  0  0  0
  6  5  2  0  0  0  0
  7  1  1  0  0  0  0
  8  9  1  0  0  0  0
 10  6  1  0  0  0  0
 13 14  1  0  0  0  0
 14  2  1  0  0  0  0
 15 17  1  0  0  0  0
 15 14  1  0  0  0  0
 16 15  2  0  0  0  0
 17 21  1  0  0  0  0
 18 22  2  0  0  0  0
 18 16  1  0  0  0  0
 19 16  1  0  0  0  0
 20 24  1  0  0  0  0
 20 17  2  0  0  0  0
 22 20  1  0  0  0  0
 23 18  1  0  0  0  0
 25 22  1  0  0  0  0
M  RAD  4   1   2   8   2   9   3  13   2
M  END
