Coordinates from ORCA-job 1a-Schema5-R6-D+-B3LYPG-6-31G_dp-scan-d49-09-n400
 OpenBabel08281819463D

 25 25  0  0  0  0  0  0  0  0999 V2000
   -4.0069   -0.5534   -3.2380 C   0  0  0  0  0  0  0  0  0  0  0  0
   -2.9414   -0.9463   -2.3899 C   0  0  0  0  0  0  0  0  0  0  0  0
   -3.2606   -0.6375   -1.0488 C   0  0  0  0  0  0  0  0  0  0  0  0
   -4.4259   -0.0285   -0.5064 C   0  0  0  0  0  0  0  0  0  0  0  0
   -5.3982    0.3160   -1.4186 C   0  0  0  0  0  0  0  0  0  0  0  0
   -5.1818    0.0491   -2.7894 C   0  0  0  0  0  0  0  0  0  0  0  0
   -3.9150   -0.7293   -4.3105 H   0  0  0  0  0  0  0  0  0  0  0  0
   -2.2810   -0.9898   -0.1391 N   0  0  0  0  0  0  0  0  0  0  0  0
   -1.4626   -1.2920    0.5617 N   0  0  0  0  0  0  0  0  0  0  0  0
   -5.9559    0.3245   -3.5019 H   0  0  0  0  0  0  0  0  0  0  0  0
   -6.3181    0.7853   -1.0871 H   0  0  0  0  0  0  0  0  0  0  0  0
   -4.5384    0.1525    0.5584 H   0  0  0  0  0  0  0  0  0  0  0  0
    1.1829    0.0984   -4.4787 N   0  0  0  0  0  0  0  0  0  0  0  0
    0.8048   -0.9485   -4.5630 N   0  0  0  0  0  0  0  0  0  0  0  0
    0.3645   -2.2464   -4.6872 C   0  0  0  0  0  0  0  0  0  0  0  0
    1.1426   -3.1141   -5.4900 C   0  0  0  0  0  0  0  0  0  0  0  0
   -0.8195   -2.6114   -4.0151 C   0  0  0  0  0  0  0  0  0  0  0  0
    0.6946   -4.4166   -5.6179 C   0  0  0  0  0  0  0  0  0  0  0  0
    2.0461   -2.7651   -5.9775 H   0  0  0  0  0  0  0  0  0  0  0  0
   -1.2237   -3.9324   -4.1809 C   0  0  0  0  0  0  0  0  0  0  0  0
   -1.4270   -1.9054   -3.3872 H   0  0  0  0  0  0  0  0  0  0  0  0
   -0.4837   -4.8223   -4.9670 C   0  0  0  0  0  0  0  0  0  0  0  0
    1.2566   -5.1199   -6.2225 H   0  0  0  0  0  0  0  0  0  0  0  0
   -2.1329   -4.2613   -3.6881 H   0  0  0  0  0  0  0  0  0  0  0  0
   -0.8231   -5.8474   -5.0804 H   0  0  0  0  0  0  0  0  0  0  0  0
  1  6  2  0  0  0  0
  1  2  1  0  0  0  0
  2  3  2  0  0  0  0
  3  4  1  0  0  0  0
  3  8  1  0  0  0  0
  4 12  1  0  0  0  0
  5 11  1  0  0  0  0
  5  4  2  0  0  0  0
  6  5  1  0  0  0  0
  7  1  1  0  0  0  0
  8  9  1  0  0  0  0
 10  6  1  0  0  0  0
 14 13  1  0  0  0  0
 15 14  1  0  0  0  0
 15 17  2  0  0  0  0
 16 15  1  0  0  0  0
 17 21  1  0  0  0  0
 18 16  2  0  0  0  0
 18 22  1  0  0  0  0
 19 16  1  0  0  0  0
 20 17  1  0  0  0  0
 20 24  1  0  0  0  0
 22 20  2  0  0  0  0
 23 18  1  0  0  0  0
 25 22  1  0  0  0  0
M  RAD  5   2   2   8   2   9   3  13   3  14   2
M  END
