Coordinates from ORCA-job 1a-Schema5-R6-D+-B3LYPG-6-31G_dp-scan-d49-09-n400
 OpenBabel08281819463D

 25 26  0  0  0  0  0  0  0  0999 V2000
   -0.4046    0.0986   -2.1102 C   0  0  0  0  0  0  0  0  0  0  0  0
   -1.5118   -0.7478   -2.0520 C   0  0  0  0  0  0  0  0  0  0  0  0
   -2.7464   -0.2273   -2.5196 C   0  0  0  0  0  0  0  0  0  0  0  0
   -2.8819    1.0674   -3.0855 C   0  0  0  0  0  0  0  0  0  0  0  0
   -1.7482    1.8474   -3.1749 C   0  0  0  0  0  0  0  0  0  0  0  0
   -0.5158    1.3599   -2.6904 C   0  0  0  0  0  0  0  0  0  0  0  0
    0.5386   -0.2486   -1.7020 H   0  0  0  0  0  0  0  0  0  0  0  0
   -3.8606   -1.0079   -2.4236 N   0  0  0  0  0  0  0  0  0  0  0  0
   -4.7786   -1.6389   -2.3225 N   0  0  0  0  0  0  0  0  0  0  0  0
    0.3664    1.9889   -2.7600 H   0  0  0  0  0  0  0  0  0  0  0  0
   -1.8116    2.8413   -3.6024 H   0  0  0  0  0  0  0  0  0  0  0  0
   -3.8514    1.4175   -3.4225 H   0  0  0  0  0  0  0  0  0  0  0  0
   -1.4615   -1.9884   -1.1381 N   0  0  0  0  0  0  0  0  0  0  0  0
   -1.6753   -3.1502   -1.5039 N   0  0  0  0  0  0  0  0  0  0  0  0
   -1.8471   -3.6029   -2.8338 C   0  0  0  0  0  0  0  0  0  0  0  0
   -2.6111   -4.7780   -2.9502 C   0  0  0  0  0  0  0  0  0  0  0  0
   -1.2493   -3.0231   -3.9693 C   0  0  0  0  0  0  0  0  0  0  0  0
   -2.8487   -5.3241   -4.2077 C   0  0  0  0  0  0  0  0  0  0  0  0
   -3.0076   -5.2323   -2.0485 H   0  0  0  0  0  0  0  0  0  0  0  0
   -1.4651   -3.6017   -5.2165 C   0  0  0  0  0  0  0  0  0  0  0  0
   -0.5807   -2.1760   -3.8762 H   0  0  0  0  0  0  0  0  0  0  0  0
   -2.2760   -4.7367   -5.3396 C   0  0  0  0  0  0  0  0  0  0  0  0
   -3.4533   -6.2197   -4.3037 H   0  0  0  0  0  0  0  0  0  0  0  0
   -0.9860   -3.1806   -6.0943 H   0  0  0  0  0  0  0  0  0  0  0  0
   -2.4364   -5.1787   -6.3178 H   0  0  0  0  0  0  0  0  0  0  0  0
  1  2  1  0  0  0  0
  1  7  1  0  0  0  0
  2 13  1  0  0  0  0
  3  8  1  0  0  0  0
  3  2  2  0  0  0  0
  4  3  1  0  0  0  0
  5  4  2  0  0  0  0
  5  6  1  0  0  0  0
  6  1  2  0  0  0  0
  8  9  1  0  0  0  0
 10  6  1  0  0  0  0
 11  5  1  0  0  0  0
 12  4  1  0  0  0  0
 14 13  2  0  0  0  0
 15 14  1  0  0  0  0
 16 15  1  0  0  0  0
 16 19  1  0  0  0  0
 17 21  1  0  0  0  0
 17 15  2  0  0  0  0
 18 16  2  0  0  0  0
 20 17  1  0  0  0  0
 22 20  2  0  0  0  0
 22 18  1  0  0  0  0
 23 18  1  0  0  0  0
 24 20  1  0  0  0  0
 25 22  1  0  0  0  0
M  RAD  2   8   2   9   3
M  END
