Coordinates from ORCA-job 1a-Schema5-R6-D+-B3LYPG-6-31G_dp-scan-d49-09-n400
 OpenBabel08281819463D

 25 25  0  0  0  0  0  0  0  0999 V2000
   -3.9135   -0.4548   -3.2660 C   0  0  0  0  0  0  0  0  0  0  0  0
   -2.9586   -1.0305   -2.3915 C   0  0  0  0  0  0  0  0  0  0  0  0
   -3.2636   -0.6814   -1.0567 C   0  0  0  0  0  0  0  0  0  0  0  0
   -4.3214    0.1181   -0.5431 C   0  0  0  0  0  0  0  0  0  0  0  0
   -5.1874    0.6361   -1.4805 C   0  0  0  0  0  0  0  0  0  0  0  0
   -4.9782    0.3431   -2.8466 C   0  0  0  0  0  0  0  0  0  0  0  0
   -3.8260   -0.6433   -4.3369 H   0  0  0  0  0  0  0  0  0  0  0  0
   -2.3947   -1.2098   -0.1191 N   0  0  0  0  0  0  0  0  0  0  0  0
   -1.6709   -1.6595    0.6060 N   0  0  0  0  0  0  0  0  0  0  0  0
   -5.6698    0.7526   -3.5792 H   0  0  0  0  0  0  0  0  0  0  0  0
   -6.0215    1.2568   -1.1712 H   0  0  0  0  0  0  0  0  0  0  0  0
   -4.4367    0.3064    0.5201 H   0  0  0  0  0  0  0  0  0  0  0  0
    0.2366    0.1674   -4.3962 N   0  0  0  0  0  0  0  0  0  0  0  0
    0.1341   -0.9396   -4.4926 N   0  0  0  0  0  0  0  0  0  0  0  0
    0.0373   -2.3050   -4.6446 C   0  0  0  0  0  0  0  0  0  0  0  0
    0.9631   -2.9333   -5.5088 C   0  0  0  0  0  0  0  0  0  0  0  0
   -0.9810   -2.9663   -3.9298 C   0  0  0  0  0  0  0  0  0  0  0  0
    0.8449   -4.3044   -5.6543 C   0  0  0  0  0  0  0  0  0  0  0  0
    1.7237   -2.3613   -6.0287 H   0  0  0  0  0  0  0  0  0  0  0  0
   -1.0572   -4.3428   -4.1144 C   0  0  0  0  0  0  0  0  0  0  0  0
   -1.6684   -2.3692   -3.2784 H   0  0  0  0  0  0  0  0  0  0  0  0
   -0.1599   -5.0031   -4.9620 C   0  0  0  0  0  0  0  0  0  0  0  0
    1.5302   -4.8354   -6.3059 H   0  0  0  0  0  0  0  0  0  0  0  0
   -1.8260   -4.9042   -3.5935 H   0  0  0  0  0  0  0  0  0  0  0  0
   -0.2390   -6.0786   -5.0914 H   0  0  0  0  0  0  0  0  0  0  0  0
  1  6  2  0  0  0  0
  1  2  1  0  0  0  0
  2  3  2  0  0  0  0
  3  4  1  0  0  0  0
  3  8  1  0  0  0  0
  4 12  1  0  0  0  0
  5 11  1  0  0  0  0
  5  4  2  0  0  0  0
  6  5  1  0  0  0  0
  7  1  1  0  0  0  0
  8  9  1  0  0  0  0
 10  6  1  0  0  0  0
 14 13  1  0  0  0  0
 15 14  1  0  0  0  0
 15 17  2  0  0  0  0
 16 15  1  0  0  0  0
 17 21  1  0  0  0  0
 18 16  2  0  0  0  0
 18 22  1  0  0  0  0
 19 16  1  0  0  0  0
 20 17  1  0  0  0  0
 20 24  1  0  0  0  0
 22 20  2  0  0  0  0
 23 18  1  0  0  0  0
 25 22  1  0  0  0  0
M  RAD  5   2   2   8   2   9   3  13   3  14   2
M  END
