Coordinates from ORCA-job 1a-Schema5-R6-D+-B3LYPG-6-31G_dp-scan-d49-09-n400
 OpenBabel08281819463D

 25 26  0  0  0  0  0  0  0  0999 V2000
   -0.4117    0.0615   -2.0820 C   0  0  0  0  0  0  0  0  0  0  0  0
   -1.5776   -0.7378   -2.0129 C   0  0  0  0  0  0  0  0  0  0  0  0
   -2.7884   -0.1230   -2.4889 C   0  0  0  0  0  0  0  0  0  0  0  0
   -2.8331    1.1955   -3.0274 C   0  0  0  0  0  0  0  0  0  0  0  0
   -1.6614    1.9049   -3.1057 C   0  0  0  0  0  0  0  0  0  0  0  0
   -0.4546    1.3278   -2.6335 C   0  0  0  0  0  0  0  0  0  0  0  0
    0.5125   -0.3531   -1.6954 H   0  0  0  0  0  0  0  0  0  0  0  0
   -3.9410   -0.8228   -2.3952 N   0  0  0  0  0  0  0  0  0  0  0  0
   -4.8985   -1.4001   -2.2908 N   0  0  0  0  0  0  0  0  0  0  0  0
    0.4643    1.9025   -2.6954 H   0  0  0  0  0  0  0  0  0  0  0  0
   -1.6629    2.9102   -3.5098 H   0  0  0  0  0  0  0  0  0  0  0  0
   -3.7821    1.6088   -3.3503 H   0  0  0  0  0  0  0  0  0  0  0  0
   -1.5938   -1.8926   -1.3117 N   0  0  0  0  0  0  0  0  0  0  0  0
   -1.8414   -3.0819   -1.5838 N   0  0  0  0  0  0  0  0  0  0  0  0
   -1.9230   -3.5961   -2.8943 C   0  0  0  0  0  0  0  0  0  0  0  0
   -2.5053   -4.8777   -2.9519 C   0  0  0  0  0  0  0  0  0  0  0  0
   -1.4349   -2.9793   -4.0667 C   0  0  0  0  0  0  0  0  0  0  0  0
   -2.6608   -5.5138   -4.1790 C   0  0  0  0  0  0  0  0  0  0  0  0
   -2.8293   -5.3377   -2.0247 H   0  0  0  0  0  0  0  0  0  0  0  0
   -1.5720   -3.6379   -5.2815 C   0  0  0  0  0  0  0  0  0  0  0  0
   -0.9158   -2.0294   -4.0284 H   0  0  0  0  0  0  0  0  0  0  0  0
   -2.1945   -4.8942   -5.3414 C   0  0  0  0  0  0  0  0  0  0  0  0
   -3.1227   -6.4937   -4.2287 H   0  0  0  0  0  0  0  0  0  0  0  0
   -1.1821   -3.1851   -6.1871 H   0  0  0  0  0  0  0  0  0  0  0  0
   -2.2938   -5.3966   -6.2986 H   0  0  0  0  0  0  0  0  0  0  0  0
  1  2  1  0  0  0  0
  1  7  1  0  0  0  0
  2 13  1  0  0  0  0
  3  8  1  0  0  0  0
  3  2  2  0  0  0  0
  4  3  1  0  0  0  0
  5  4  2  0  0  0  0
  5  6  1  0  0  0  0
  6  1  2  0  0  0  0
  8  9  1  0  0  0  0
 10  6  1  0  0  0  0
 11  5  1  0  0  0  0
 12  4  1  0  0  0  0
 14 13  2  0  0  0  0
 15 14  1  0  0  0  0
 16 15  1  0  0  0  0
 16 19  1  0  0  0  0
 17 21  1  0  0  0  0
 17 15  2  0  0  0  0
 18 16  2  0  0  0  0
 20 17  1  0  0  0  0
 22 20  2  0  0  0  0
 22 18  1  0  0  0  0
 23 18  1  0  0  0  0
 24 20  1  0  0  0  0
 25 22  1  0  0  0  0
M  RAD  2   8   2   9   3
M  END
