Coordinates from ORCA-job 1a-Schema5-R6-D+-B3LYPG-6-31G_dp-scan-d49-09-n400
 OpenBabel08281819463D

 25 26  0  0  0  0  0  0  0  0999 V2000
   -3.6229   -1.2168   -3.2981 C   0  0  0  0  0  0  0  0  0  0  0  0
   -2.5026   -0.9946   -2.5300 C   0  0  0  0  0  0  0  0  0  0  0  0
   -2.4852   -0.0979   -1.4900 C   0  0  0  0  0  0  0  0  0  0  0  0
   -3.6319    0.6198   -1.1209 C   0  0  0  0  0  0  0  0  0  0  0  0
   -4.7851    0.3954   -1.8701 C   0  0  0  0  0  0  0  0  0  0  0  0
   -4.7812   -0.5019   -2.9453 C   0  0  0  0  0  0  0  0  0  0  0  0
   -3.6189   -1.9012   -4.1381 H   0  0  0  0  0  0  0  0  0  0  0  0
   -1.2713    0.1525   -0.7576 N   0  0  0  0  0  0  0  0  0  0  0  0
   -0.7905    0.7056    0.0998 N   0  0  0  0  0  0  0  0  0  0  0  0
   -5.6874   -0.6485   -3.5250 H   0  0  0  0  0  0  0  0  0  0  0  0
   -5.6922    0.9337   -1.6175 H   0  0  0  0  0  0  0  0  0  0  0  0
   -3.6077    1.3202   -0.2919 H   0  0  0  0  0  0  0  0  0  0  0  0
    0.1181   -1.2156   -2.0444 N   0  0  0  0  0  0  0  0  0  0  0  0
   -0.8087   -1.6253   -2.6960 N   0  0  0  0  0  0  0  0  0  0  0  0
   -0.7091   -2.6319   -3.7463 C   0  0  0  0  0  0  0  0  0  0  0  0
    0.3409   -2.5217   -4.6601 C   0  0  0  0  0  0  0  0  0  0  0  0
   -1.6126   -3.6954   -3.7662 C   0  0  0  0  0  0  0  0  0  0  0  0
    0.4675   -3.5024   -5.6415 C   0  0  0  0  0  0  0  0  0  0  0  0
    1.0291   -1.6856   -4.6022 H   0  0  0  0  0  0  0  0  0  0  0  0
   -1.4562   -4.6774   -4.7447 C   0  0  0  0  0  0  0  0  0  0  0  0
   -2.3874   -3.7833   -3.0119 H   0  0  0  0  0  0  0  0  0  0  0  0
   -0.4267   -4.5761   -5.6841 C   0  0  0  0  0  0  0  0  0  0  0  0
    1.2690   -3.4291   -6.3695 H   0  0  0  0  0  0  0  0  0  0  0  0
   -2.1338   -5.5247   -4.7656 H   0  0  0  0  0  0  0  0  0  0  0  0
   -0.3169   -5.3396   -6.4479 H   0  0  0  0  0  0  0  0  0  0  0  0
  1  6  2  0  0  0  0
  1  2  1  0  0  0  0
  2  3  2  0  0  0  0
  3  4  1  0  0  0  0
  3  8  1  0  0  0  0
  4 12  1  0  0  0  0
  5 11  1  0  0  0  0
  5  4  2  0  0  0  0
  6  5  1  0  0  0  0
  7  1  1  0  0  0  0
  8  9  2  0  0  0  0
 10  6  1  0  0  0  0
 14  2  1  0  0  0  0
 14 13  1  0  0  0  0
 15 14  1  0  0  0  0
 16 19  1  0  0  0  0
 16 15  2  0  0  0  0
 17 15  1  0  0  0  0
 17 21  1  0  0  0  0
 18 16  1  0  0  0  0
 20 17  2  0  0  0  0
 22 18  2  0  0  0  0
 22 20  1  0  0  0  0
 23 18  1  0  0  0  0
 24 20  1  0  0  0  0
 25 22  1  0  0  0  0
M  RAD  2   9   2  13   3
M  END
