Coordinates from ORCA-job 1a-Schema5-R6-D+-B3LYPG-6-31G_dp-scan-d49-09-n400
 OpenBabel08281819463D

 25 25  0  0  0  0  0  0  0  0999 V2000
   -4.0093   -0.5894   -3.2319 C   0  0  0  0  0  0  0  0  0  0  0  0
   -2.9340   -0.9413   -2.3782 C   0  0  0  0  0  0  0  0  0  0  0  0
   -3.2630   -0.6243   -1.0413 C   0  0  0  0  0  0  0  0  0  0  0  0
   -4.4454   -0.0417   -0.5072 C   0  0  0  0  0  0  0  0  0  0  0  0
   -5.4266    0.2628   -1.4242 C   0  0  0  0  0  0  0  0  0  0  0  0
   -5.2013   -0.0152   -2.7915 C   0  0  0  0  0  0  0  0  0  0  0  0
   -3.9112   -0.7751   -4.3021 H   0  0  0  0  0  0  0  0  0  0  0  0
   -2.2738   -0.9357   -0.1272 N   0  0  0  0  0  0  0  0  0  0  0  0
   -1.4468   -1.2043    0.5772 N   0  0  0  0  0  0  0  0  0  0  0  0
   -5.9825    0.2290   -3.5077 H   0  0  0  0  0  0  0  0  0  0  0  0
   -6.3596    0.7100   -1.0993 H   0  0  0  0  0  0  0  0  0  0  0  0
   -4.5637    0.1503    0.5550 H   0  0  0  0  0  0  0  0  0  0  0  0
    1.3497    0.0584   -4.4678 N   0  0  0  0  0  0  0  0  0  0  0  0
    0.9158   -0.9669   -4.5524 N   0  0  0  0  0  0  0  0  0  0  0  0
    0.4142   -2.2417   -4.6825 C   0  0  0  0  0  0  0  0  0  0  0  0
    1.1494   -3.1346   -5.4987 C   0  0  0  0  0  0  0  0  0  0  0  0
   -0.7793   -2.5647   -4.0048 C   0  0  0  0  0  0  0  0  0  0  0  0
    0.6481   -4.4165   -5.6347 C   0  0  0  0  0  0  0  0  0  0  0  0
    2.0628   -2.8185   -5.9902 H   0  0  0  0  0  0  0  0  0  0  0  0
   -1.2380   -3.8665   -4.1801 C   0  0  0  0  0  0  0  0  0  0  0  0
   -1.3653   -1.8511   -3.3670 H   0  0  0  0  0  0  0  0  0  0  0  0
   -0.5409   -4.7795   -4.9785 C   0  0  0  0  0  0  0  0  0  0  0  0
    1.1767   -5.1366   -6.2495 H   0  0  0  0  0  0  0  0  0  0  0  0
   -2.1572   -4.1600   -3.6834 H   0  0  0  0  0  0  0  0  0  0  0  0
   -0.9226   -5.7890   -5.0973 H   0  0  0  0  0  0  0  0  0  0  0  0
  1  6  2  0  0  0  0
  1  2  1  0  0  0  0
  2  3  2  0  0  0  0
  3  4  1  0  0  0  0
  3  8  1  0  0  0  0
  4 12  1  0  0  0  0
  5 11  1  0  0  0  0
  5  4  2  0  0  0  0
  6  5  1  0  0  0  0
  7  1  1  0  0  0  0
  8  9  1  0  0  0  0
 10  6  1  0  0  0  0
 14 13  1  0  0  0  0
 15 14  1  0  0  0  0
 15 17  2  0  0  0  0
 16 15  1  0  0  0  0
 17 21  1  0  0  0  0
 18 16  2  0  0  0  0
 18 22  1  0  0  0  0
 19 16  1  0  0  0  0
 20 17  1  0  0  0  0
 20 24  1  0  0  0  0
 22 20  2  0  0  0  0
 23 18  1  0  0  0  0
 25 22  1  0  0  0  0
M  RAD  5   2   2   8   2   9   3  13   3  14   2
M  END
