Coordinates from ORCA-job 1a-Schema5-R6-D+-B3LYPG-6-31G_dp-scan-d49-09-n400
 OpenBabel08281819463D

 25 26  0  0  0  0  0  0  0  0999 V2000
   -0.4604    0.1802   -2.3031 C   0  0  0  0  0  0  0  0  0  0  0  0
   -1.7695   -0.5004   -2.4411 C   0  0  0  0  0  0  0  0  0  0  0  0
   -2.9150    0.4579   -2.4168 C   0  0  0  0  0  0  0  0  0  0  0  0
   -2.7504    1.8802   -2.3056 C   0  0  0  0  0  0  0  0  0  0  0  0
   -1.5037    2.4063   -2.1995 C   0  0  0  0  0  0  0  0  0  0  0  0
   -0.3664    1.5302   -2.1918 C   0  0  0  0  0  0  0  0  0  0  0  0
    0.4109   -0.4643   -2.2919 H   0  0  0  0  0  0  0  0  0  0  0  0
   -4.1332   -0.0650   -2.4879 N   0  0  0  0  0  0  0  0  0  0  0  0
   -5.1608   -0.5383   -2.5548 N   0  0  0  0  0  0  0  0  0  0  0  0
    0.6246    1.9633   -2.0873 H   0  0  0  0  0  0  0  0  0  0  0  0
   -1.3626    3.4771   -2.1149 H   0  0  0  0  0  0  0  0  0  0  0  0
   -3.6421    2.4980   -2.3059 H   0  0  0  0  0  0  0  0  0  0  0  0
   -1.8782   -1.5887   -2.5632 N   0  0  0  0  0  0  0  0  0  0  0  0
   -1.9904   -2.7945   -2.3262 N   0  0  0  0  0  0  0  0  0  0  0  0
   -1.9991   -3.7204   -3.3649 C   0  0  0  0  0  0  0  0  0  0  0  0
   -2.1630   -5.0565   -2.9451 C   0  0  0  0  0  0  0  0  0  0  0  0
   -1.8506   -3.3971   -4.7330 C   0  0  0  0  0  0  0  0  0  0  0  0
   -2.1836   -6.0709   -3.8941 C   0  0  0  0  0  0  0  0  0  0  0  0
   -2.2708   -5.2608   -1.8850 H   0  0  0  0  0  0  0  0  0  0  0  0
   -1.8700   -4.4190   -5.6654 C   0  0  0  0  0  0  0  0  0  0  0  0
   -1.7164   -2.3654   -5.0436 H   0  0  0  0  0  0  0  0  0  0  0  0
   -2.0374   -5.7525   -5.2477 C   0  0  0  0  0  0  0  0  0  0  0  0
   -2.3112   -7.1028   -3.5857 H   0  0  0  0  0  0  0  0  0  0  0  0
   -1.7534   -4.1939   -6.7204 H   0  0  0  0  0  0  0  0  0  0  0  0
   -2.0510   -6.5445   -5.9901 H   0  0  0  0  0  0  0  0  0  0  0  0
  1  7  1  0  0  0  0
  1  6  2  0  0  0  0
  2  3  2  0  0  0  0
  2  1  1  0  0  0  0
  3  4  1  0  0  0  0
  4  5  2  0  0  0  0
  5  6  1  0  0  0  0
  5 11  1  0  0  0  0
  6 10  1  0  0  0  0
  8  3  1  0  0  0  0
  9  8  1  0  0  0  0
 12  4  1  0  0  0  0
 13  2  1  0  0  0  0
 13 14  1  0  0  0  0
 15 16  1  0  0  0  0
 15 14  1  0  0  0  0
 16 19  1  0  0  0  0
 17 15  2  0  0  0  0
 18 23  1  0  0  0  0
 18 16  2  0  0  0  0
 20 22  2  0  0  0  0
 20 17  1  0  0  0  0
 21 17  1  0  0  0  0
 22 18  1  0  0  0  0
 24 20  1  0  0  0  0
 25 22  1  0  0  0  0
M  RAD  4   8   2   9   3  13   2  14   2
M  END
