Coordinates from ORCA-job 1a-Schema5-R6-D+-B3LYPG-6-31G_dp-scan-d49-09-n400
 OpenBabel08281819463D

 25 26  0  0  0  0  0  0  0  0999 V2000
   -0.4071    0.0744   -2.0839 C   0  0  0  0  0  0  0  0  0  0  0  0
   -1.5470   -0.7467   -2.0159 C   0  0  0  0  0  0  0  0  0  0  0  0
   -2.7685   -0.1776   -2.4974 C   0  0  0  0  0  0  0  0  0  0  0  0
   -2.8515    1.1261   -3.0600 C   0  0  0  0  0  0  0  0  0  0  0  0
   -1.6960    1.8663   -3.1467 C   0  0  0  0  0  0  0  0  0  0  0  0
   -0.4786    1.3334   -2.6599 C   0  0  0  0  0  0  0  0  0  0  0  0
    0.5246   -0.3075   -1.6815 H   0  0  0  0  0  0  0  0  0  0  0  0
   -3.9051   -0.9113   -2.3978 N   0  0  0  0  0  0  0  0  0  0  0  0
   -4.8467   -1.5102   -2.2903 N   0  0  0  0  0  0  0  0  0  0  0  0
    0.4246    1.9318   -2.7275 H   0  0  0  0  0  0  0  0  0  0  0  0
   -1.7240    2.8635   -3.5700 H   0  0  0  0  0  0  0  0  0  0  0  0
   -3.8092    1.5089   -3.3946 H   0  0  0  0  0  0  0  0  0  0  0  0
   -1.5379   -1.9220   -1.2346 N   0  0  0  0  0  0  0  0  0  0  0  0
   -1.7770   -3.1027   -1.5468 N   0  0  0  0  0  0  0  0  0  0  0  0
   -1.8935   -3.5875   -2.8685 C   0  0  0  0  0  0  0  0  0  0  0  0
   -2.5515   -4.8296   -2.9530 C   0  0  0  0  0  0  0  0  0  0  0  0
   -1.3585   -2.9836   -4.0257 C   0  0  0  0  0  0  0  0  0  0  0  0
   -2.7426   -5.4296   -4.1934 C   0  0  0  0  0  0  0  0  0  0  0  0
   -2.9047   -5.2896   -2.0364 H   0  0  0  0  0  0  0  0  0  0  0  0
   -1.5282   -3.6103   -5.2544 C   0  0  0  0  0  0  0  0  0  0  0  0
   -0.7750   -2.0731   -3.9648 H   0  0  0  0  0  0  0  0  0  0  0  0
   -2.2311   -4.8204   -5.3423 C   0  0  0  0  0  0  0  0  0  0  0  0
   -3.2643   -6.3779   -4.2631 H   0  0  0  0  0  0  0  0  0  0  0  0
   -1.0994   -3.1684   -6.1478 H   0  0  0  0  0  0  0  0  0  0  0  0
   -2.3557   -5.2985   -6.3088 H   0  0  0  0  0  0  0  0  0  0  0  0
  1  2  1  0  0  0  0
  1  7  1  0  0  0  0
  2 13  1  0  0  0  0
  3  8  1  0  0  0  0
  3  2  2  0  0  0  0
  4  3  1  0  0  0  0
  5  4  2  0  0  0  0
  5  6  1  0  0  0  0
  6  1  2  0  0  0  0
  8  9  1  0  0  0  0
 10  6  1  0  0  0  0
 11  5  1  0  0  0  0
 12  4  1  0  0  0  0
 14 13  2  0  0  0  0
 15 14  1  0  0  0  0
 16 15  1  0  0  0  0
 16 19  1  0  0  0  0
 17 21  1  0  0  0  0
 17 15  2  0  0  0  0
 18 16  2  0  0  0  0
 20 17  1  0  0  0  0
 22 20  2  0  0  0  0
 22 18  1  0  0  0  0
 23 18  1  0  0  0  0
 24 20  1  0  0  0  0
 25 22  1  0  0  0  0
M  RAD  2   8   2   9   3
M  END
