Coordinates from ORCA-job 1a-Schema5-R6-D+-B3LYPG-6-31G_dp-scan-d49-09-n400
 OpenBabel08281819463D

 25 25  0  0  0  0  0  0  0  0999 V2000
   -3.6007   -0.9560   -3.3552 C   0  0  0  0  0  0  0  0  0  0  0  0
   -2.5229   -0.9318   -2.4728 C   0  0  0  0  0  0  0  0  0  0  0  0
   -2.7424   -0.2064   -1.2926 C   0  0  0  0  0  0  0  0  0  0  0  0
   -3.9410    0.4554   -0.9244 C   0  0  0  0  0  0  0  0  0  0  0  0
   -4.9797    0.3846   -1.8330 C   0  0  0  0  0  0  0  0  0  0  0  0
   -4.8070   -0.3152   -3.0428 C   0  0  0  0  0  0  0  0  0  0  0  0
   -3.5146   -1.4820   -4.3029 H   0  0  0  0  0  0  0  0  0  0  0  0
   -1.6827   -0.1278   -0.4068 N   0  0  0  0  0  0  0  0  0  0  0  0
   -0.8116   -0.0668    0.2883 N   0  0  0  0  0  0  0  0  0  0  0  0
   -5.6312   -0.3547   -3.7502 H   0  0  0  0  0  0  0  0  0  0  0  0
   -5.9234    0.8711   -1.6133 H   0  0  0  0  0  0  0  0  0  0  0  0
   -4.0300    0.9847    0.0188 H   0  0  0  0  0  0  0  0  0  0  0  0
    0.5097   -0.6473   -2.7133 N   0  0  0  0  0  0  0  0  0  0  0  0
   -0.3350   -1.3493   -3.0478 N   0  0  0  0  0  0  0  0  0  0  0  0
   -0.4374   -2.5047   -3.9097 C   0  0  0  0  0  0  0  0  0  0  0  0
    0.5181   -2.6156   -4.9284 C   0  0  0  0  0  0  0  0  0  0  0  0
   -1.4080   -3.4726   -3.6730 C   0  0  0  0  0  0  0  0  0  0  0  0
    0.4723   -3.7427   -5.7430 C   0  0  0  0  0  0  0  0  0  0  0  0
    1.2614   -1.8391   -5.0729 H   0  0  0  0  0  0  0  0  0  0  0  0
   -1.4190   -4.6047   -4.4866 C   0  0  0  0  0  0  0  0  0  0  0  0
   -2.1150   -3.3426   -2.8631 H   0  0  0  0  0  0  0  0  0  0  0  0
   -0.4892   -4.7349   -5.5220 C   0  0  0  0  0  0  0  0  0  0  0  0
    1.1920   -3.8472   -6.5484 H   0  0  0  0  0  0  0  0  0  0  0  0
   -2.1543   -5.3829   -4.3109 H   0  0  0  0  0  0  0  0  0  0  0  0
   -0.5120   -5.6135   -6.1588 H   0  0  0  0  0  0  0  0  0  0  0  0
  1  6  2  0  0  0  0
  1  2  1  0  0  0  0
  2  3  2  0  0  0  0
  3  4  1  0  0  0  0
  3  8  1  0  0  0  0
  4 12  1  0  0  0  0
  5 11  1  0  0  0  0
  5  4  2  0  0  0  0
  6  5  1  0  0  0  0
  7  1  1  0  0  0  0
  8  9  1  0  0  0  0
 10  6  1  0  0  0  0
 14 13  2  0  0  0  0
 15 17  1  0  0  0  0
 15 14  1  0  0  0  0
 16 15  2  0  0  0  0
 17 21  1  0  0  0  0
 18 22  2  0  0  0  0
 18 16  1  0  0  0  0
 19 16  1  0  0  0  0
 20 24  1  0  0  0  0
 20 17  2  0  0  0  0
 22 20  1  0  0  0  0
 23 18  1  0  0  0  0
 25 22  1  0  0  0  0
M  RAD  4   2   2   8   2   9   3  13   2
M  END
