Coordinates from ORCA-job 1a-Schema5-R6-D+-B3LYPG-6-31G_dp-scan-d49-09-n400
 OpenBabel08281819463D

 25 27  0  0  1  0  0  0  0  0999 V2000
   -3.7317   -0.1994   -3.6574 C   0  0  0  0  0  0  0  0  0  0  0  0
   -2.4544   -0.4583   -3.0076 C   0  0  2  0  0  0  0  0  0  0  0  0
   -2.4555   -0.3862   -1.5376 C   0  0  0  0  0  0  0  0  0  0  0  0
   -3.6365    0.0174   -0.8110 C   0  0  0  0  0  0  0  0  0  0  0  0
   -4.7818    0.2851   -1.4864 C   0  0  0  0  0  0  0  0  0  0  0  0
   -4.8146    0.1666   -2.9236 C   0  0  0  0  0  0  0  0  0  0  0  0
   -3.7714   -0.2781   -4.7386 H   0  0  0  0  0  0  0  0  0  0  0  0
   -1.3309   -0.6336   -0.8820 N   0  0  0  0  0  0  0  0  0  0  0  0
   -0.3715   -0.8513   -0.3152 N   0  0  0  0  0  0  0  0  0  0  0  0
   -5.7450    0.3779   -3.4418 H   0  0  0  0  0  0  0  0  0  0  0  0
   -5.6744    0.5873   -0.9523 H   0  0  0  0  0  0  0  0  0  0  0  0
   -3.5687    0.0965    0.2687 H   0  0  0  0  0  0  0  0  0  0  0  0
   -1.1061   -0.0564   -3.7939 N   0  0  0  0  0  0  0  0  0  0  0  0
   -1.4540   -1.2577   -3.6994 N   0  0  0  0  0  0  0  0  0  0  0  0
   -0.9459   -2.4916   -4.1235 C   0  0  0  0  0  0  0  0  0  0  0  0
    0.2709   -2.5186   -4.8283 C   0  0  0  0  0  0  0  0  0  0  0  0
   -1.6852   -3.6490   -3.8284 C   0  0  0  0  0  0  0  0  0  0  0  0
    0.7516   -3.7511   -5.2442 C   0  0  0  0  0  0  0  0  0  0  0  0
    0.8043   -1.5960   -5.0333 H   0  0  0  0  0  0  0  0  0  0  0  0
   -1.1819   -4.8715   -4.2564 C   0  0  0  0  0  0  0  0  0  0  0  0
   -2.6234   -3.5801   -3.2881 H   0  0  0  0  0  0  0  0  0  0  0  0
    0.0287   -4.9206   -4.9589 C   0  0  0  0  0  0  0  0  0  0  0  0
    1.6872   -3.8096   -5.7894 H   0  0  0  0  0  0  0  0  0  0  0  0
   -1.7281   -5.7843   -4.0466 H   0  0  0  0  0  0  0  0  0  0  0  0
    0.4148   -5.8792   -5.2899 H   0  0  0  0  0  0  0  0  0  0  0  0
  1  2  1  0  0  0  0
  1  6  1  0  0  0  0
  2 13  1  6  0  0  0
  2  3  1  0  0  0  0
  3  8  1  0  0  0  0
  3  4  2  0  0  0  0
  4 12  1  0  0  0  0
  5 11  1  0  0  0  0
  5  4  1  0  0  0  0
  6  5  2  0  0  0  0
  7  1  1  0  0  0  0
  8  9  1  0  0  0  0
 10  6  1  0  0  0  0
 13 14  1  0  0  0  0
 14  2  1  0  0  0  0
 15 17  1  0  0  0  0
 15 14  1  0  0  0  0
 16 15  2  0  0  0  0
 17 21  1  0  0  0  0
 18 22  2  0  0  0  0
 18 16  1  0  0  0  0
 19 16  1  0  0  0  0
 20 24  1  0  0  0  0
 20 17  2  0  0  0  0
 22 20  1  0  0  0  0
 23 18  1  0  0  0  0
 25 22  1  0  0  0  0
M  RAD  4   1   2   8   2   9   3  13   2
M  END
