Coordinates from ORCA-job 1a-Schema5-R6-D+-B3LYPG-6-31G_dp-scan-d49-09-n400
 OpenBabel08281819463D

 25 26  0  0  0  0  0  0  0  0999 V2000
   -3.7588   -0.3873   -3.6487 C   0  0  0  0  0  0  0  0  0  0  0  0
   -2.5208   -0.6514   -3.0036 C   0  0  0  0  0  0  0  0  0  0  0  0
   -2.4923   -0.5363   -1.5683 C   0  0  0  0  0  0  0  0  0  0  0  0
   -3.5915    0.0250   -0.8408 C   0  0  0  0  0  0  0  0  0  0  0  0
   -4.7315    0.3471   -1.5221 C   0  0  0  0  0  0  0  0  0  0  0  0
   -4.8157    0.1128   -2.9264 C   0  0  0  0  0  0  0  0  0  0  0  0
   -3.8357   -0.5598   -4.7167 H   0  0  0  0  0  0  0  0  0  0  0  0
   -1.3930   -0.9138   -0.8996 N   0  0  0  0  0  0  0  0  0  0  0  0
   -0.4626   -1.2067   -0.3320 N   0  0  0  0  0  0  0  0  0  0  0  0
   -5.7472    0.3271   -3.4407 H   0  0  0  0  0  0  0  0  0  0  0  0
   -5.5778    0.7688   -0.9926 H   0  0  0  0  0  0  0  0  0  0  0  0
   -3.4939    0.1759    0.2286 H   0  0  0  0  0  0  0  0  0  0  0  0
   -0.9963    0.0540   -3.9179 N   0  0  0  0  0  0  0  0  0  0  0  0
   -1.4002   -1.0929   -3.7278 N   0  0  0  0  0  0  0  0  0  0  0  0
   -0.9223   -2.3853   -4.1256 C   0  0  0  0  0  0  0  0  0  0  0  0
    0.2769   -2.4502   -4.8421 C   0  0  0  0  0  0  0  0  0  0  0  0
   -1.6727   -3.5158   -3.7894 C   0  0  0  0  0  0  0  0  0  0  0  0
    0.7358   -3.7031   -5.2309 C   0  0  0  0  0  0  0  0  0  0  0  0
    0.8165   -1.5391   -5.0793 H   0  0  0  0  0  0  0  0  0  0  0  0
   -1.1945   -4.7614   -4.1902 C   0  0  0  0  0  0  0  0  0  0  0  0
   -2.6065   -3.4248   -3.2434 H   0  0  0  0  0  0  0  0  0  0  0  0
    0.0034   -4.8531   -4.9057 C   0  0  0  0  0  0  0  0  0  0  0  0
    1.6632   -3.7876   -5.7870 H   0  0  0  0  0  0  0  0  0  0  0  0
   -1.7556   -5.6572   -3.9476 H   0  0  0  0  0  0  0  0  0  0  0  0
    0.3694   -5.8265   -5.2151 H   0  0  0  0  0  0  0  0  0  0  0  0
  1  2  2  0  0  0  0
  1  6  1  0  0  0  0
  2  3  1  0  0  0  0
  3  8  1  0  0  0  0
  3  4  2  0  0  0  0
  4 12  1  0  0  0  0
  5 11  1  0  0  0  0
  5  4  1  0  0  0  0
  6  5  2  0  0  0  0
  7  1  1  0  0  0  0
  8  9  1  0  0  0  0
 10  6  1  0  0  0  0
 13 14  1  0  0  0  0
 14  2  1  0  0  0  0
 15 17  1  0  0  0  0
 15 14  1  0  0  0  0
 16 15  2  0  0  0  0
 17 21  1  0  0  0  0
 18 22  2  0  0  0  0
 18 16  1  0  0  0  0
 19 16  1  0  0  0  0
 20 24  1  0  0  0  0
 20 17  2  0  0  0  0
 22 20  1  0  0  0  0
 23 18  1  0  0  0  0
 25 22  1  0  0  0  0
M  RAD  3   8   2   9   3  13   3
M  END
