Coordinates from ORCA-job 1a-Schema5-R6-D+-B3LYPG-6-31G_dp-scan-d49-09-n400
 OpenBabel08281819463D

 25 25  0  0  0  0  0  0  0  0999 V2000
   -3.5808   -0.9830   -3.3611 C   0  0  0  0  0  0  0  0  0  0  0  0
   -2.5045   -0.9559   -2.4807 C   0  0  0  0  0  0  0  0  0  0  0  0
   -2.7021   -0.2106   -1.3094 C   0  0  0  0  0  0  0  0  0  0  0  0
   -3.8938    0.4675   -0.9501 C   0  0  0  0  0  0  0  0  0  0  0  0
   -4.9375    0.3952   -1.8540 C   0  0  0  0  0  0  0  0  0  0  0  0
   -4.7789   -0.3234   -3.0535 C   0  0  0  0  0  0  0  0  0  0  0  0
   -3.5003   -1.5234   -4.3008 H   0  0  0  0  0  0  0  0  0  0  0  0
   -1.6443   -0.1262   -0.4216 N   0  0  0  0  0  0  0  0  0  0  0  0
   -0.7866   -0.0504    0.2879 N   0  0  0  0  0  0  0  0  0  0  0  0
   -5.6056   -0.3632   -3.7578 H   0  0  0  0  0  0  0  0  0  0  0  0
   -5.8742    0.8962   -1.6368 H   0  0  0  0  0  0  0  0  0  0  0  0
   -3.9746    1.0105   -0.0140 H   0  0  0  0  0  0  0  0  0  0  0  0
    0.4098   -0.6586   -2.6635 N   0  0  0  0  0  0  0  0  0  0  0  0
   -0.4382   -1.3572   -3.0130 N   0  0  0  0  0  0  0  0  0  0  0  0
   -0.4972   -2.5084   -3.8894 C   0  0  0  0  0  0  0  0  0  0  0  0
    0.4635   -2.5820   -4.9047 C   0  0  0  0  0  0  0  0  0  0  0  0
   -1.4388   -3.5082   -3.6670 C   0  0  0  0  0  0  0  0  0  0  0  0
    0.4553   -3.7016   -5.7313 C   0  0  0  0  0  0  0  0  0  0  0  0
    1.1837   -1.7819   -5.0374 H   0  0  0  0  0  0  0  0  0  0  0  0
   -1.4142   -4.6317   -4.4928 C   0  0  0  0  0  0  0  0  0  0  0  0
   -2.1511   -3.4152   -2.8561 H   0  0  0  0  0  0  0  0  0  0  0  0
   -0.4771   -4.7240   -5.5253 C   0  0  0  0  0  0  0  0  0  0  0  0
    1.1813   -3.7767   -6.5343 H   0  0  0  0  0  0  0  0  0  0  0  0
   -2.1263   -5.4335   -4.3274 H   0  0  0  0  0  0  0  0  0  0  0  0
   -0.4713   -5.5965   -6.1710 H   0  0  0  0  0  0  0  0  0  0  0  0
  1  6  2  0  0  0  0
  1  2  1  0  0  0  0
  2  3  2  0  0  0  0
  3  4  1  0  0  0  0
  3  8  1  0  0  0  0
  4 12  1  0  0  0  0
  5 11  1  0  0  0  0
  5  4  2  0  0  0  0
  6  5  1  0  0  0  0
  7  1  1  0  0  0  0
  8  9  1  0  0  0  0
 10  6  1  0  0  0  0
 14 13  2  0  0  0  0
 15 17  1  0  0  0  0
 15 14  1  0  0  0  0
 16 15  2  0  0  0  0
 17 21  1  0  0  0  0
 18 22  2  0  0  0  0
 18 16  1  0  0  0  0
 19 16  1  0  0  0  0
 20 24  1  0  0  0  0
 20 17  2  0  0  0  0
 22 20  1  0  0  0  0
 23 18  1  0  0  0  0
 25 22  1  0  0  0  0
M  RAD  4   2   2   8   2   9   3  13   2
M  END
