Coordinates from ORCA-job 1a-Schema5-R6-D+-B3LYPG-6-31G_dp-scan-d49-09-n400
 OpenBabel08281819463D

 25 26  0  0  0  0  0  0  0  0999 V2000
   -3.5503   -1.2140   -3.3133 C   0  0  0  0  0  0  0  0  0  0  0  0
   -2.4387   -0.9946   -2.5268 C   0  0  0  0  0  0  0  0  0  0  0  0
   -2.4462   -0.0943   -1.4793 C   0  0  0  0  0  0  0  0  0  0  0  0
   -3.5940    0.6192   -1.1317 C   0  0  0  0  0  0  0  0  0  0  0  0
   -4.7369    0.3931   -1.9013 C   0  0  0  0  0  0  0  0  0  0  0  0
   -4.7136   -0.5019   -2.9765 C   0  0  0  0  0  0  0  0  0  0  0  0
   -3.5302   -1.8950   -4.1548 H   0  0  0  0  0  0  0  0  0  0  0  0
   -1.2190    0.1168   -0.7659 N   0  0  0  0  0  0  0  0  0  0  0  0
   -0.7454    0.6742    0.0994 N   0  0  0  0  0  0  0  0  0  0  0  0
   -5.6097   -0.6491   -3.5707 H   0  0  0  0  0  0  0  0  0  0  0  0
   -5.6493    0.9292   -1.6637 H   0  0  0  0  0  0  0  0  0  0  0  0
   -3.5840    1.3205   -0.3037 H   0  0  0  0  0  0  0  0  0  0  0  0
    0.0092   -1.2498   -2.0140 N   0  0  0  0  0  0  0  0  0  0  0  0
   -0.9550   -1.6141   -2.6893 N   0  0  0  0  0  0  0  0  0  0  0  0
   -0.8089   -2.6246   -3.7402 C   0  0  0  0  0  0  0  0  0  0  0  0
    0.2322   -2.4647   -4.6558 C   0  0  0  0  0  0  0  0  0  0  0  0
   -1.6501   -3.7396   -3.7496 C   0  0  0  0  0  0  0  0  0  0  0  0
    0.4145   -3.4447   -5.6295 C   0  0  0  0  0  0  0  0  0  0  0  0
    0.8736   -1.5918   -4.6045 H   0  0  0  0  0  0  0  0  0  0  0  0
   -1.4404   -4.7177   -4.7222 C   0  0  0  0  0  0  0  0  0  0  0  0
   -2.4194   -3.8682   -2.9948 H   0  0  0  0  0  0  0  0  0  0  0  0
   -0.4181   -4.5669   -5.6631 C   0  0  0  0  0  0  0  0  0  0  0  0
    1.2111   -3.3328   -6.3578 H   0  0  0  0  0  0  0  0  0  0  0  0
   -2.0698   -5.6015   -4.7359 H   0  0  0  0  0  0  0  0  0  0  0  0
   -0.2655   -5.3297   -6.4200 H   0  0  0  0  0  0  0  0  0  0  0  0
  1  6  2  0  0  0  0
  1  2  1  0  0  0  0
  2  3  2  0  0  0  0
  3  4  1  0  0  0  0
  3  8  1  0  0  0  0
  4 12  1  0  0  0  0
  5 11  1  0  0  0  0
  5  4  2  0  0  0  0
  6  5  1  0  0  0  0
  7  1  1  0  0  0  0
  8  9  2  0  0  0  0
 10  6  1  0  0  0  0
 14  2  1  0  0  0  0
 14 13  1  0  0  0  0
 15 14  1  0  0  0  0
 16 19  1  0  0  0  0
 16 15  2  0  0  0  0
 17 15  1  0  0  0  0
 17 21  1  0  0  0  0
 18 16  1  0  0  0  0
 20 17  2  0  0  0  0
 22 18  2  0  0  0  0
 22 20  1  0  0  0  0
 23 18  1  0  0  0  0
 24 20  1  0  0  0  0
 25 22  1  0  0  0  0
M  RAD  2   9   2  13   3
M  END
