Coordinates from ORCA-job 1a-Schema5-R6-D+-B3LYPG-6-31G_dp-scan-d49-09-n400
 OpenBabel08281819463D

 25 26  0  0  0  0  0  0  0  0999 V2000
   -0.8013   -0.4349   -2.4145 C   0  0  0  0  0  0  0  0  0  0  0  0
   -2.1935   -0.7168   -2.1686 C   0  0  0  0  0  0  0  0  0  0  0  0
   -3.0725    0.4394   -2.2828 C   0  0  0  0  0  0  0  0  0  0  0  0
   -2.6165    1.7394   -2.6537 C   0  0  0  0  0  0  0  0  0  0  0  0
   -1.2809    1.9263   -2.8802 C   0  0  0  0  0  0  0  0  0  0  0  0
   -0.3819    0.8287   -2.7463 C   0  0  0  0  0  0  0  0  0  0  0  0
   -0.0956   -1.2503   -2.3020 H   0  0  0  0  0  0  0  0  0  0  0  0
   -4.3737    0.2551   -2.0049 N   0  0  0  0  0  0  0  0  0  0  0  0
   -5.4519    0.0816   -1.7295 N   0  0  0  0  0  0  0  0  0  0  0  0
    0.6764    0.9934   -2.9262 H   0  0  0  0  0  0  0  0  0  0  0  0
   -0.9060    2.9049   -3.1551 H   0  0  0  0  0  0  0  0  0  0  0  0
   -3.3355    2.5466   -2.7394 H   0  0  0  0  0  0  0  0  0  0  0  0
   -2.6153   -1.8010   -1.7370 N   0  0  0  0  0  0  0  0  0  0  0  0
   -2.4708   -3.0376   -1.8432 N   0  0  0  0  0  0  0  0  0  0  0  0
   -2.1799   -3.6591   -3.0571 C   0  0  0  0  0  0  0  0  0  0  0  0
   -1.9230   -5.0426   -2.9300 C   0  0  0  0  0  0  0  0  0  0  0  0
   -2.1608   -3.0383   -4.3294 C   0  0  0  0  0  0  0  0  0  0  0  0
   -1.5939   -5.7895   -4.0540 C   0  0  0  0  0  0  0  0  0  0  0  0
   -1.9781   -5.4861   -1.9415 H   0  0  0  0  0  0  0  0  0  0  0  0
   -1.8498   -3.8000   -5.4429 C   0  0  0  0  0  0  0  0  0  0  0  0
   -2.4072   -1.9887   -4.4427 H   0  0  0  0  0  0  0  0  0  0  0  0
   -1.5583   -5.1692   -5.3065 C   0  0  0  0  0  0  0  0  0  0  0  0
   -1.3776   -6.8483   -3.9613 H   0  0  0  0  0  0  0  0  0  0  0  0
   -1.8390   -3.3424   -6.4267 H   0  0  0  0  0  0  0  0  0  0  0  0
   -1.3172   -5.7526   -6.1896 H   0  0  0  0  0  0  0  0  0  0  0  0
  1  7  1  0  0  0  0
  1  2  2  0  0  0  0
  2 13  1  0  0  0  0
  3  2  1  0  0  0  0
  3  8  1  0  0  0  0
  4  3  2  0  0  0  0
  5  6  2  0  0  0  0
  5  4  1  0  0  0  0
  6  1  1  0  0  0  0
  8  9  1  0  0  0  0
 10  6  1  0  0  0  0
 11  5  1  0  0  0  0
 12  4  1  0  0  0  0
 14 13  1  0  0  0  0
 15 16  1  0  0  0  0
 15 14  1  0  0  0  0
 16 19  1  0  0  0  0
 17 15  2  0  0  0  0
 18 23  1  0  0  0  0
 18 16  2  0  0  0  0
 20 22  2  0  0  0  0
 20 17  1  0  0  0  0
 21 17  1  0  0  0  0
 22 18  1  0  0  0  0
 24 20  1  0  0  0  0
 25 22  1  0  0  0  0
M  RAD  4   8   2   9   3  13   2  14   2
M  END
