Coordinates from ORCA-job 1a-Schema5-R6-D+-B3LYPG-6-31G_dp-scan-d49-09-n400
 OpenBabel08281819463D

 25 25  0  0  0  0  0  0  0  0999 V2000
   -4.0082   -0.5619   -3.2363 C   0  0  0  0  0  0  0  0  0  0  0  0
   -2.9399   -0.9450   -2.3872 C   0  0  0  0  0  0  0  0  0  0  0  0
   -3.2609   -0.6338   -1.0470 C   0  0  0  0  0  0  0  0  0  0  0  0
   -4.4300   -0.0308   -0.5063 C   0  0  0  0  0  0  0  0  0  0  0  0
   -5.4049    0.3042   -1.4194 C   0  0  0  0  0  0  0  0  0  0  0  0
   -5.1869    0.0343   -2.7894 C   0  0  0  0  0  0  0  0  0  0  0  0
   -3.9153   -0.7404   -4.3083 H   0  0  0  0  0  0  0  0  0  0  0  0
   -2.2786   -0.9763   -0.1365 N   0  0  0  0  0  0  0  0  0  0  0  0
   -1.4578   -1.2705    0.5649 N   0  0  0  0  0  0  0  0  0  0  0  0
   -5.9631    0.3022   -3.5026 H   0  0  0  0  0  0  0  0  0  0  0  0
   -6.3277    0.7684   -1.0892 H   0  0  0  0  0  0  0  0  0  0  0  0
   -4.5434    0.1531    0.5579 H   0  0  0  0  0  0  0  0  0  0  0  0
    1.2216    0.0896   -4.4756 N   0  0  0  0  0  0  0  0  0  0  0  0
    0.8303   -0.9526   -4.5598 N   0  0  0  0  0  0  0  0  0  0  0  0
    0.3757   -2.2454   -4.6857 C   0  0  0  0  0  0  0  0  0  0  0  0
    1.1449   -3.1189   -5.4910 C   0  0  0  0  0  0  0  0  0  0  0  0
   -0.8114   -2.6012   -4.0135 C   0  0  0  0  0  0  0  0  0  0  0  0
    0.6848   -4.4169   -5.6216 C   0  0  0  0  0  0  0  0  0  0  0  0
    2.0513   -2.7773   -5.9785 H   0  0  0  0  0  0  0  0  0  0  0  0
   -1.2277   -3.9181   -4.1823 C   0  0  0  0  0  0  0  0  0  0  0  0
   -1.4147   -1.8937   -3.3833 H   0  0  0  0  0  0  0  0  0  0  0  0
   -0.4966   -4.8131   -4.9708 C   0  0  0  0  0  0  0  0  0  0  0  0
    1.2399   -5.1240   -6.2281 H   0  0  0  0  0  0  0  0  0  0  0  0
   -2.1397   -4.2393   -3.6896 H   0  0  0  0  0  0  0  0  0  0  0  0
   -0.8456   -5.8347   -5.0861 H   0  0  0  0  0  0  0  0  0  0  0  0
  1  6  2  0  0  0  0
  1  2  1  0  0  0  0
  2  3  2  0  0  0  0
  3  4  1  0  0  0  0
  3  8  1  0  0  0  0
  4 12  1  0  0  0  0
  5 11  1  0  0  0  0
  5  4  2  0  0  0  0
  6  5  1  0  0  0  0
  7  1  1  0  0  0  0
  8  9  1  0  0  0  0
 10  6  1  0  0  0  0
 14 13  1  0  0  0  0
 15 14  1  0  0  0  0
 15 17  2  0  0  0  0
 16 15  1  0  0  0  0
 17 21  1  0  0  0  0
 18 16  2  0  0  0  0
 18 22  1  0  0  0  0
 19 16  1  0  0  0  0
 20 17  1  0  0  0  0
 20 24  1  0  0  0  0
 22 20  2  0  0  0  0
 23 18  1  0  0  0  0
 25 22  1  0  0  0  0
M  RAD  5   2   2   8   2   9   3  13   3  14   2
M  END
