Coordinates from ORCA-job 1a-Schema5-R6-D+-B3LYPG-6-31G_dp-scan-d49-09-n400
 OpenBabel08281819463D

 25 26  0  0  0  0  0  0  0  0999 V2000
   -3.5284   -1.2035   -3.3078 C   0  0  0  0  0  0  0  0  0  0  0  0
   -2.4059   -0.9919   -2.5267 C   0  0  0  0  0  0  0  0  0  0  0  0
   -2.4310   -0.0890   -1.4739 C   0  0  0  0  0  0  0  0  0  0  0  0
   -3.5800    0.6179   -1.1265 C   0  0  0  0  0  0  0  0  0  0  0  0
   -4.7240    0.3924   -1.8958 C   0  0  0  0  0  0  0  0  0  0  0  0
   -4.6949   -0.4985   -2.9728 C   0  0  0  0  0  0  0  0  0  0  0  0
   -3.5083   -1.8802   -4.1527 H   0  0  0  0  0  0  0  0  0  0  0  0
   -1.2026    0.1116   -0.7759 N   0  0  0  0  0  0  0  0  0  0  0  0
   -0.7090    0.6591    0.0873 N   0  0  0  0  0  0  0  0  0  0  0  0
   -5.5887   -0.6480   -3.5697 H   0  0  0  0  0  0  0  0  0  0  0  0
   -5.6380    0.9250   -1.6565 H   0  0  0  0  0  0  0  0  0  0  0  0
   -3.5706    1.3166   -0.2966 H   0  0  0  0  0  0  0  0  0  0  0  0
   -0.0766   -1.2255   -2.0267 N   0  0  0  0  0  0  0  0  0  0  0  0
   -1.0276   -1.6035   -2.7128 N   0  0  0  0  0  0  0  0  0  0  0  0
   -0.8538   -2.6224   -3.7552 C   0  0  0  0  0  0  0  0  0  0  0  0
    0.1991   -2.4521   -4.6548 C   0  0  0  0  0  0  0  0  0  0  0  0
   -1.6746   -3.7526   -3.7648 C   0  0  0  0  0  0  0  0  0  0  0  0
    0.4147   -3.4383   -5.6154 C   0  0  0  0  0  0  0  0  0  0  0  0
    0.8247   -1.5680   -4.6008 H   0  0  0  0  0  0  0  0  0  0  0  0
   -1.4323   -4.7354   -4.7249 C   0  0  0  0  0  0  0  0  0  0  0  0
   -2.4541   -3.8878   -3.0219 H   0  0  0  0  0  0  0  0  0  0  0  0
   -0.3976   -4.5754   -5.6507 C   0  0  0  0  0  0  0  0  0  0  0  0
    1.2209   -3.3196   -6.3318 H   0  0  0  0  0  0  0  0  0  0  0  0
   -2.0460   -5.6300   -4.7403 H   0  0  0  0  0  0  0  0  0  0  0  0
   -0.2192   -5.3428   -6.3972 H   0  0  0  0  0  0  0  0  0  0  0  0
  1  6  2  0  0  0  0
  1  2  1  0  0  0  0
  2  3  2  0  0  0  0
  3  4  1  0  0  0  0
  3  8  1  0  0  0  0
  4 12  1  0  0  0  0
  5 11  1  0  0  0  0
  5  4  2  0  0  0  0
  6  5  1  0  0  0  0
  7  1  1  0  0  0  0
  8  9  2  0  0  0  0
 10  6  1  0  0  0  0
 14  2  1  0  0  0  0
 14 13  1  0  0  0  0
 15 14  1  0  0  0  0
 16 19  1  0  0  0  0
 16 15  2  0  0  0  0
 17 15  1  0  0  0  0
 17 21  1  0  0  0  0
 18 16  1  0  0  0  0
 20 17  2  0  0  0  0
 22 18  2  0  0  0  0
 22 20  1  0  0  0  0
 23 18  1  0  0  0  0
 24 20  1  0  0  0  0
 25 22  1  0  0  0  0
M  RAD  2   9   2  13   3
M  END
