Coordinates from ORCA-job 1a-Schema5-R6-D+-B3LYPG-6-31G_dp-scan-d49-09-n400
 OpenBabel08281819463D

 25 26  0  0  0  0  0  0  0  0999 V2000
   -3.5159   -1.1882   -3.2951 C   0  0  0  0  0  0  0  0  0  0  0  0
   -2.3781   -0.9830   -2.5258 C   0  0  0  0  0  0  0  0  0  0  0  0
   -2.4221   -0.0801   -1.4674 C   0  0  0  0  0  0  0  0  0  0  0  0
   -3.5755    0.6141   -1.1133 C   0  0  0  0  0  0  0  0  0  0  0  0
   -4.7229    0.3879   -1.8769 C   0  0  0  0  0  0  0  0  0  0  0  0
   -4.6881   -0.4960   -2.9579 C   0  0  0  0  0  0  0  0  0  0  0  0
   -3.4978   -1.8593   -4.1447 H   0  0  0  0  0  0  0  0  0  0  0  0
   -1.1955    0.1219   -0.7855 N   0  0  0  0  0  0  0  0  0  0  0  0
   -0.6723    0.6537    0.0715 N   0  0  0  0  0  0  0  0  0  0  0  0
   -5.5807   -0.6507   -3.5550 H   0  0  0  0  0  0  0  0  0  0  0  0
   -5.6393    0.9130   -1.6303 H   0  0  0  0  0  0  0  0  0  0  0  0
   -3.5648    1.3079   -0.2795 H   0  0  0  0  0  0  0  0  0  0  0  0
   -0.1605   -1.1725   -2.0622 N   0  0  0  0  0  0  0  0  0  0  0  0
   -1.0795   -1.5918   -2.7498 N   0  0  0  0  0  0  0  0  0  0  0  0
   -0.8834   -2.6216   -3.7791 C   0  0  0  0  0  0  0  0  0  0  0  0
    0.1900   -2.4548   -4.6542 C   0  0  0  0  0  0  0  0  0  0  0  0
   -1.6992   -3.7552   -3.7934 C   0  0  0  0  0  0  0  0  0  0  0  0
    0.4323   -3.4504   -5.5985 C   0  0  0  0  0  0  0  0  0  0  0  0
    0.8108   -1.5678   -4.5933 H   0  0  0  0  0  0  0  0  0  0  0  0
   -1.4302   -4.7464   -4.7375 C   0  0  0  0  0  0  0  0  0  0  0  0
   -2.4958   -3.8859   -3.0682 H   0  0  0  0  0  0  0  0  0  0  0  0
   -0.3746   -4.5913   -5.6403 C   0  0  0  0  0  0  0  0  0  0  0  0
    1.2547   -3.3361   -6.2967 H   0  0  0  0  0  0  0  0  0  0  0  0
   -2.0399   -5.6436   -4.7583 H   0  0  0  0  0  0  0  0  0  0  0  0
   -0.1754   -5.3660   -6.3739 H   0  0  0  0  0  0  0  0  0  0  0  0
  1  6  2  0  0  0  0
  1  2  1  0  0  0  0
  2  3  2  0  0  0  0
  3  4  1  0  0  0  0
  3  8  1  0  0  0  0
  4 12  1  0  0  0  0
  5 11  1  0  0  0  0
  5  4  2  0  0  0  0
  6  5  1  0  0  0  0
  7  1  1  0  0  0  0
  8  9  2  0  0  0  0
 10  6  1  0  0  0  0
 14  2  1  0  0  0  0
 14 13  1  0  0  0  0
 15 14  1  0  0  0  0
 16 19  1  0  0  0  0
 16 15  2  0  0  0  0
 17 15  1  0  0  0  0
 17 21  1  0  0  0  0
 18 16  1  0  0  0  0
 20 17  2  0  0  0  0
 22 18  2  0  0  0  0
 22 20  1  0  0  0  0
 23 18  1  0  0  0  0
 24 20  1  0  0  0  0
 25 22  1  0  0  0  0
M  RAD  2   9   2  13   3
M  END
