Coordinates from ORCA-job 1a-Schema5-R6-D+-B3LYPG-6-31G_dp-scan-d49-09-n400
 OpenBabel08281819463D

 25 25  0  0  0  0  0  0  0  0999 V2000
   -4.0081   -0.5649   -3.2355 C   0  0  0  0  0  0  0  0  0  0  0  0
   -2.9391   -0.9440   -2.3855 C   0  0  0  0  0  0  0  0  0  0  0  0
   -3.2619   -0.6332   -1.0457 C   0  0  0  0  0  0  0  0  0  0  0  0
   -4.4334   -0.0339   -0.5060 C   0  0  0  0  0  0  0  0  0  0  0  0
   -5.4089    0.2972   -1.4199 C   0  0  0  0  0  0  0  0  0  0  0  0
   -5.1892    0.0273   -2.7896 C   0  0  0  0  0  0  0  0  0  0  0  0
   -3.9138   -0.7436   -4.3073 H   0  0  0  0  0  0  0  0  0  0  0  0
   -2.2789   -0.9716   -0.1345 N   0  0  0  0  0  0  0  0  0  0  0  0
   -1.4574   -1.2625    0.5675 N   0  0  0  0  0  0  0  0  0  0  0  0
   -5.9658    0.2923   -3.5034 H   0  0  0  0  0  0  0  0  0  0  0  0
   -6.3335    0.7585   -1.0906 H   0  0  0  0  0  0  0  0  0  0  0  0
   -4.5481    0.1503    0.5580 H   0  0  0  0  0  0  0  0  0  0  0  0
    1.2441    0.0851   -4.4792 N   0  0  0  0  0  0  0  0  0  0  0  0
    0.8450   -0.9543   -4.5617 N   0  0  0  0  0  0  0  0  0  0  0  0
    0.3822   -2.2443   -4.6863 C   0  0  0  0  0  0  0  0  0  0  0  0
    1.1456   -3.1218   -5.4928 C   0  0  0  0  0  0  0  0  0  0  0  0
   -0.8059   -2.5941   -4.0125 C   0  0  0  0  0  0  0  0  0  0  0  0
    0.6790   -4.4174   -5.6230 C   0  0  0  0  0  0  0  0  0  0  0  0
    2.0530   -2.7847   -5.9814 H   0  0  0  0  0  0  0  0  0  0  0  0
   -1.2288   -3.9089   -4.1811 C   0  0  0  0  0  0  0  0  0  0  0  0
   -1.4067   -1.8857   -3.3812 H   0  0  0  0  0  0  0  0  0  0  0  0
   -0.5035   -4.8077   -4.9705 C   0  0  0  0  0  0  0  0  0  0  0  0
    1.2297   -5.1272   -6.2304 H   0  0  0  0  0  0  0  0  0  0  0  0
   -2.1418   -4.2254   -3.6871 H   0  0  0  0  0  0  0  0  0  0  0  0
   -0.8577   -5.8276   -5.0853 H   0  0  0  0  0  0  0  0  0  0  0  0
  1  6  2  0  0  0  0
  1  2  1  0  0  0  0
  2  3  2  0  0  0  0
  3  4  1  0  0  0  0
  3  8  1  0  0  0  0
  4 12  1  0  0  0  0
  5 11  1  0  0  0  0
  5  4  2  0  0  0  0
  6  5  1  0  0  0  0
  7  1  1  0  0  0  0
  8  9  1  0  0  0  0
 10  6  1  0  0  0  0
 14 13  1  0  0  0  0
 15 14  1  0  0  0  0
 15 17  2  0  0  0  0
 16 15  1  0  0  0  0
 17 21  1  0  0  0  0
 18 16  2  0  0  0  0
 18 22  1  0  0  0  0
 19 16  1  0  0  0  0
 20 17  1  0  0  0  0
 20 24  1  0  0  0  0
 22 20  2  0  0  0  0
 23 18  1  0  0  0  0
 25 22  1  0  0  0  0
M  RAD  5   2   2   8   2   9   3  13   3  14   2
M  END
