Coordinates from ORCA-job 1a-Schema5-R6-D+-B3LYPG-6-31G_dp-scan-d49-09-n400
 OpenBabel08281819463D

 25 25  0  0  0  0  0  0  0  0999 V2000
   -3.5731   -0.9913   -3.3651 C   0  0  0  0  0  0  0  0  0  0  0  0
   -2.4966   -0.9637   -2.4865 C   0  0  0  0  0  0  0  0  0  0  0  0
   -2.6841   -0.2129   -1.3169 C   0  0  0  0  0  0  0  0  0  0  0  0
   -3.8735    0.4696   -0.9592 C   0  0  0  0  0  0  0  0  0  0  0  0
   -4.9201    0.3979   -1.8604 C   0  0  0  0  0  0  0  0  0  0  0  0
   -4.7680   -0.3255   -3.0572 C   0  0  0  0  0  0  0  0  0  0  0  0
   -3.4949   -1.5356   -4.3025 H   0  0  0  0  0  0  0  0  0  0  0  0
   -1.6275   -0.1256   -0.4278 N   0  0  0  0  0  0  0  0  0  0  0  0
   -0.7801   -0.0404    0.2927 N   0  0  0  0  0  0  0  0  0  0  0  0
   -5.5961   -0.3642   -3.7598 H   0  0  0  0  0  0  0  0  0  0  0  0
   -5.8540    0.9036   -1.6422 H   0  0  0  0  0  0  0  0  0  0  0  0
   -3.9508    1.0158   -0.0248 H   0  0  0  0  0  0  0  0  0  0  0  0
    0.3678   -0.6608   -2.6481 N   0  0  0  0  0  0  0  0  0  0  0  0
   -0.4822   -1.3587   -3.0029 N   0  0  0  0  0  0  0  0  0  0  0  0
   -0.5228   -2.5092   -3.8835 C   0  0  0  0  0  0  0  0  0  0  0  0
    0.4417   -2.5696   -4.8954 C   0  0  0  0  0  0  0  0  0  0  0  0
   -1.4528   -3.5212   -3.6671 C   0  0  0  0  0  0  0  0  0  0  0  0
    0.4501   -3.6874   -5.7248 C   0  0  0  0  0  0  0  0  0  0  0  0
    1.1528   -1.7607   -5.0230 H   0  0  0  0  0  0  0  0  0  0  0  0
   -1.4125   -4.6423   -4.4957 C   0  0  0  0  0  0  0  0  0  0  0  0
   -2.1685   -3.4417   -2.8574 H   0  0  0  0  0  0  0  0  0  0  0  0
   -0.4709   -4.7211   -5.5250 C   0  0  0  0  0  0  0  0  0  0  0  0
    1.1800   -3.7520   -6.5252 H   0  0  0  0  0  0  0  0  0  0  0  0
   -2.1155   -5.4530   -4.3345 H   0  0  0  0  0  0  0  0  0  0  0  0
   -0.4524   -5.5920   -6.1727 H   0  0  0  0  0  0  0  0  0  0  0  0
  1  6  2  0  0  0  0
  1  2  1  0  0  0  0
  2  3  2  0  0  0  0
  3  4  1  0  0  0  0
  3  8  1  0  0  0  0
  4 12  1  0  0  0  0
  5 11  1  0  0  0  0
  5  4  2  0  0  0  0
  6  5  1  0  0  0  0
  7  1  1  0  0  0  0
  8  9  1  0  0  0  0
 10  6  1  0  0  0  0
 14 13  2  0  0  0  0
 15 17  1  0  0  0  0
 15 14  1  0  0  0  0
 16 15  2  0  0  0  0
 17 21  1  0  0  0  0
 18 22  2  0  0  0  0
 18 16  1  0  0  0  0
 19 16  1  0  0  0  0
 20 24  1  0  0  0  0
 20 17  2  0  0  0  0
 22 20  1  0  0  0  0
 23 18  1  0  0  0  0
 25 22  1  0  0  0  0
M  RAD  4   2   2   8   2   9   3  13   2
M  END
