Coordinates from ORCA-job 1a-Schema5-R6-D+-B3LYPG-6-31G_dp-scan-d49-09-n400
 OpenBabel08281819463D

 25 25  0  0  0  0  0  0  0  0999 V2000
   -3.8833   -0.4712   -3.2669 C   0  0  0  0  0  0  0  0  0  0  0  0
   -2.9380   -1.0374   -2.3758 C   0  0  0  0  0  0  0  0  0  0  0  0
   -3.2550   -0.6696   -1.0488 C   0  0  0  0  0  0  0  0  0  0  0  0
   -4.3153    0.1395   -0.5562 C   0  0  0  0  0  0  0  0  0  0  0  0
   -5.1708    0.6476   -1.5088 C   0  0  0  0  0  0  0  0  0  0  0  0
   -4.9495    0.3355   -2.8687 C   0  0  0  0  0  0  0  0  0  0  0  0
   -3.7869   -0.6751   -4.3343 H   0  0  0  0  0  0  0  0  0  0  0  0
   -2.3969   -1.1881   -0.0956 N   0  0  0  0  0  0  0  0  0  0  0  0
   -1.6820   -1.6304    0.6426 N   0  0  0  0  0  0  0  0  0  0  0  0
   -5.6328    0.7371   -3.6133 H   0  0  0  0  0  0  0  0  0  0  0  0
   -6.0059    1.2747   -1.2158 H   0  0  0  0  0  0  0  0  0  0  0  0
   -4.4405    0.3421    0.5032 H   0  0  0  0  0  0  0  0  0  0  0  0
    0.1737    0.1560   -4.3181 N   0  0  0  0  0  0  0  0  0  0  0  0
    0.0920   -0.9499   -4.4411 N   0  0  0  0  0  0  0  0  0  0  0  0
    0.0143   -2.3133   -4.6208 C   0  0  0  0  0  0  0  0  0  0  0  0
    0.9309   -2.9118   -5.5148 C   0  0  0  0  0  0  0  0  0  0  0  0
   -0.9812   -3.0013   -3.8999 C   0  0  0  0  0  0  0  0  0  0  0  0
    0.8265   -4.2815   -5.6845 C   0  0  0  0  0  0  0  0  0  0  0  0
    1.6738   -2.3202   -6.0383 H   0  0  0  0  0  0  0  0  0  0  0  0
   -1.0454   -4.3747   -4.1097 C   0  0  0  0  0  0  0  0  0  0  0  0
   -1.6600   -2.4160   -3.2313 H   0  0  0  0  0  0  0  0  0  0  0  0
   -0.1560   -5.0064   -4.9870 C   0  0  0  0  0  0  0  0  0  0  0  0
    1.5053   -4.7913   -6.3595 H   0  0  0  0  0  0  0  0  0  0  0  0
   -1.7970   -4.9559   -3.5855 H   0  0  0  0  0  0  0  0  0  0  0  0
   -0.2239   -6.0801   -5.1361 H   0  0  0  0  0  0  0  0  0  0  0  0
  1  6  2  0  0  0  0
  1  2  1  0  0  0  0
  2  3  2  0  0  0  0
  3  4  1  0  0  0  0
  3  8  1  0  0  0  0
  4 12  1  0  0  0  0
  5 11  1  0  0  0  0
  5  4  2  0  0  0  0
  6  5  1  0  0  0  0
  7  1  1  0  0  0  0
  8  9  1  0  0  0  0
 10  6  1  0  0  0  0
 14 13  1  0  0  0  0
 15 14  1  0  0  0  0
 15 17  2  0  0  0  0
 16 15  1  0  0  0  0
 17 21  1  0  0  0  0
 18 16  2  0  0  0  0
 18 22  1  0  0  0  0
 19 16  1  0  0  0  0
 20 17  1  0  0  0  0
 20 24  1  0  0  0  0
 22 20  2  0  0  0  0
 23 18  1  0  0  0  0
 25 22  1  0  0  0  0
M  RAD  5   2   2   8   2   9   3  13   3  14   2
M  END
