Coordinates from ORCA-job 1a-Schema5-R6-D+-B3LYPG-6-31G_dp-scan-d49-09-n400
 OpenBabel08281819463D

 25 26  0  0  0  0  0  0  0  0999 V2000
   -3.7576   -0.3892   -3.6492 C   0  0  0  0  0  0  0  0  0  0  0  0
   -2.5229   -0.6574   -3.0043 C   0  0  0  0  0  0  0  0  0  0  0  0
   -2.4924   -0.5396   -1.5710 C   0  0  0  0  0  0  0  0  0  0  0  0
   -3.5909    0.0178   -0.8413 C   0  0  0  0  0  0  0  0  0  0  0  0
   -4.7325    0.3390   -1.5220 C   0  0  0  0  0  0  0  0  0  0  0  0
   -4.8165    0.1084   -2.9257 C   0  0  0  0  0  0  0  0  0  0  0  0
   -3.8338   -0.5577   -4.7179 H   0  0  0  0  0  0  0  0  0  0  0  0
   -1.3900   -0.9139   -0.9030 N   0  0  0  0  0  0  0  0  0  0  0  0
   -0.4581   -1.2030   -0.3368 N   0  0  0  0  0  0  0  0  0  0  0  0
   -5.7477    0.3237   -3.4400 H   0  0  0  0  0  0  0  0  0  0  0  0
   -5.5793    0.7581   -0.9910 H   0  0  0  0  0  0  0  0  0  0  0  0
   -3.4931    0.1675    0.2282 H   0  0  0  0  0  0  0  0  0  0  0  0
   -0.9829    0.0584   -3.9268 N   0  0  0  0  0  0  0  0  0  0  0  0
   -1.3960   -1.0831   -3.7311 N   0  0  0  0  0  0  0  0  0  0  0  0
   -0.9213   -2.3799   -4.1263 C   0  0  0  0  0  0  0  0  0  0  0  0
    0.2782   -2.4494   -4.8412 C   0  0  0  0  0  0  0  0  0  0  0  0
   -1.6746   -3.5078   -3.7893 C   0  0  0  0  0  0  0  0  0  0  0  0
    0.7345   -3.7042   -5.2276 C   0  0  0  0  0  0  0  0  0  0  0  0
    0.8200   -1.5399   -5.0794 H   0  0  0  0  0  0  0  0  0  0  0  0
   -1.1992   -4.7557   -4.1875 C   0  0  0  0  0  0  0  0  0  0  0  0
   -2.6090   -3.4142   -3.2448 H   0  0  0  0  0  0  0  0  0  0  0  0
   -0.0008   -4.8518   -4.9014 C   0  0  0  0  0  0  0  0  0  0  0  0
    1.6623   -3.7917   -5.7826 H   0  0  0  0  0  0  0  0  0  0  0  0
   -1.7630   -5.6494   -3.9440 H   0  0  0  0  0  0  0  0  0  0  0  0
    0.3629   -5.8267   -5.2088 H   0  0  0  0  0  0  0  0  0  0  0  0
  1  2  2  0  0  0  0
  1  6  1  0  0  0  0
  2  3  1  0  0  0  0
  3  8  1  0  0  0  0
  3  4  2  0  0  0  0
  4 12  1  0  0  0  0
  5 11  1  0  0  0  0
  5  4  1  0  0  0  0
  6  5  2  0  0  0  0
  7  1  1  0  0  0  0
  8  9  1  0  0  0  0
 10  6  1  0  0  0  0
 13 14  1  0  0  0  0
 14  2  1  0  0  0  0
 15 17  1  0  0  0  0
 15 14  1  0  0  0  0
 16 15  2  0  0  0  0
 17 21  1  0  0  0  0
 18 22  2  0  0  0  0
 18 16  1  0  0  0  0
 19 16  1  0  0  0  0
 20 24  1  0  0  0  0
 20 17  2  0  0  0  0
 22 20  1  0  0  0  0
 23 18  1  0  0  0  0
 25 22  1  0  0  0  0
M  RAD  3   8   2   9   3  13   3
M  END
