15
Coordinates from ORCA-job o-NO2-Ph-N2+-B3LYPG-aug-cc-pVDZ-scan-d09-49-n400
  C   -1.68221376245590      0.21568393895927     -0.76733200011717
  C   -0.51832931430928      0.13620425531226     -0.07130397551038
  C   -0.22664595957318      0.97639026769218      1.07552514850176
  C   -1.51218574070077      2.02069620061366      1.37288550340024
  C   -2.70056736455773      2.01157419133403      0.56313293917630
  C   -2.76708644761581      1.13393126692886     -0.46494111036971
  H   -1.81531158003588     -0.45638969295075     -1.61656681110446
  H   0.28426017979700     -0.55527160298891     -0.32908913899882
  N   3.01844952220730      0.58724290044767     -1.39661606296902
  N   4.04244290731938      0.73569107024656     -1.78175623410626
  H   -3.65722861755291      1.10808066522766     -1.09184043243761
  H   -3.49935970386863      2.70945678383538      0.80929122055293
  N   -1.13511595933337      2.68025008662435      2.36493815262779
  O   0.72258642370849      1.04117780107932      1.78969326736398
  O   -0.31939458302874      2.89958186763846      3.16337953399044
