15
Coordinates from ORCA-job o-NO2-Ph-N2+-B3LYPG-aug-cc-pVDZ-scan-d09-49-n400
  C   -2.03228582166414      0.16321461673434     -0.99168522226948
  C   -0.58688737318498      0.20753900366815     -0.85432350176315
  C   -0.41180243879404      1.04986071146938      0.14580885507004
  C   -1.03858804823824      1.83960407722555      1.03687270391653
  C   -2.42742507219668      1.73410795700579      0.83096202800407
  C   -2.90459169941284      0.89427903318597     -0.18406473894950
  H   -2.38736090134997     -0.49677210212381     -1.78818247900166
  H   0.10578695901020     -0.35634658729937     -1.47607488730489
  N   3.16229193500652      0.28954123513309     -0.53549104993966
  N   4.26473650048788      0.23496666025903     -0.53384168892883
  H   -3.97751879850192      0.80564442004379     -0.35150975087314
  H   -3.06264918580753      2.33141053235541      1.49537577471886
  N   -0.34011504060128      2.66025219694519      2.04244358319357
  O   0.88129587576917      2.55508774241064      1.99091674927399
  O   -1.01058689052216      3.33191050298685      2.79219362485327
