Coordinates from ORCA-job p-NO2-Ph-N2-X-Cl-B3LYPG-6-31G_dp-scan-d09-49-n400
 OpenBabel08281820523D

 16 16  0  0  0  0  0  0  0  0999 V2000
   -1.4102   -1.4606   -0.9096 C   0  0  0  0  0  0  0  0  0  0  0  0
   -0.0559   -1.2365   -1.1329 C   0  0  0  0  0  0  0  0  0  0  0  0
    0.4049    0.0823   -1.1838 C   0  0  0  0  0  0  0  0  0  0  0  0
   -0.4517    1.1790   -1.0578 C   0  0  0  0  0  0  0  0  0  0  0  0
   -1.8036    0.9484   -0.8272 C   0  0  0  0  0  0  0  0  0  0  0  0
   -2.2595   -0.3664   -0.7584 C   0  0  0  0  0  0  0  0  0  0  0  0
   -1.8151   -2.4629   -0.8499 H   0  0  0  0  0  0  0  0  0  0  0  0
    0.6314   -2.0647   -1.2596 H   0  0  0  0  0  0  0  0  0  0  0  0
   -0.0602    2.1876   -1.1241 H   0  0  0  0  0  0  0  0  0  0  0  0
   -2.5046    1.7639   -0.7041 H   0  0  0  0  0  0  0  0  0  0  0  0
   -3.6950   -0.6085   -0.5243 N   0  0  0  0  0  0  0  0  0  0  0  0
   -4.4202    0.3752   -0.3928 O   0  0  0  0  0  0  0  0  0  0  0  0
   -4.0714   -1.7774   -0.4774 O   0  0  0  0  0  0  0  0  0  0  0  0
    1.7775    0.3238   -1.4716 N   0  0  0  0  0  0  0  0  0  0  0  0
    2.7509    0.3489   -0.8012 N   0  0  0  0  0  0  0  0  0  0  0  0
    2.4640    0.0157    1.1709 Cl  0  0  0  0  0  0  0  0  0  0  0  0
  1  7  1  0  0  0  0
  1  6  2  0  0  0  0
  2  1  1  0  0  0  0
  3  2  2  0  0  0  0
  3  4  1  0  0  0  0
  4  5  2  0  0  0  0
  5  6  1  0  0  0  0
  5 10  1  0  0  0  0
  6 11  1  0  0  0  0
  8  2  1  0  0  0  0
  9  4  1  0  0  0  0
 11 13  2  0  0  0  0
 11 12  2  0  0  0  0
 14  3  1  0  0  0  0
 14 15  2  0  0  0  0
 15 16  1  0  0  0  0
M  END
