Coordinates from ORCA-job p-NO2-Ph-N2-X-Cl-B3LYPG-6-31G_dp-scan-d09-49-n400
 OpenBabel08281820523D

 16 16  0  0  0  0  0  0  0  0999 V2000
   -1.4741   -1.5252   -1.0035 C   0  0  0  0  0  0  0  0  0  0  0  0
   -0.1130   -1.3585   -1.2340 C   0  0  0  0  0  0  0  0  0  0  0  0
    0.4285   -0.0733   -1.1746 C   0  0  0  0  0  0  0  0  0  0  0  0
   -0.3549    1.0592   -0.9309 C   0  0  0  0  0  0  0  0  0  0  0  0
   -1.7194    0.8905   -0.7231 C   0  0  0  0  0  0  0  0  0  0  0  0
   -2.2538   -0.3963   -0.7594 C   0  0  0  0  0  0  0  0  0  0  0  0
   -1.9383   -2.5031   -1.0177 H   0  0  0  0  0  0  0  0  0  0  0  0
    0.5356   -2.2032   -1.4299 H   0  0  0  0  0  0  0  0  0  0  0  0
    0.0990    2.0422   -0.8969 H   0  0  0  0  0  0  0  0  0  0  0  0
   -2.3702    1.7329   -0.5266 H   0  0  0  0  0  0  0  0  0  0  0  0
   -3.7015   -0.5696   -0.5345 N   0  0  0  0  0  0  0  0  0  0  0  0
   -4.3676    0.4432   -0.3329 O   0  0  0  0  0  0  0  0  0  0  0  0
   -4.1474   -1.7139   -0.5780 O   0  0  0  0  0  0  0  0  0  0  0  0
    1.8129    0.0742   -1.4582 N   0  0  0  0  0  0  0  0  0  0  0  0
    2.7315    0.4449   -0.8120 N   0  0  0  0  0  0  0  0  0  0  0  0
    2.3142    0.9038    1.1086 Cl  0  0  0  0  0  0  0  0  0  0  0  0
  1  6  2  0  0  0  0
  2  3  2  0  0  0  0
  2  1  1  0  0  0  0
  3  4  1  0  0  0  0
  4  9  1  0  0  0  0
  4  5  2  0  0  0  0
  5 10  1  0  0  0  0
  6  5  1  0  0  0  0
  6 11  1  0  0  0  0
  7  1  1  0  0  0  0
  8  2  1  0  0  0  0
 11 12  2  0  0  0  0
 13 11  2  0  0  0  0
 14  3  1  0  0  0  0
 14 15  2  0  0  0  0
 15 16  1  0  0  0  0
M  END
