Coordinates from ORCA-job p-NO2-Ph-N2-X-Cl-B3LYPG-6-31G_dp-scan-d09-49-n400
 OpenBabel08281820523D

 16 16  0  0  0  0  0  0  0  0999 V2000
   -1.3632   -1.3882   -0.7742 C   0  0  0  0  0  0  0  0  0  0  0  0
   -0.0107   -1.1041   -0.9321 C   0  0  0  0  0  0  0  0  0  0  0  0
    0.3781    0.2334   -1.0811 C   0  0  0  0  0  0  0  0  0  0  0  0
   -0.5513    1.2795   -1.1080 C   0  0  0  0  0  0  0  0  0  0  0  0
   -1.8982    0.9927   -0.9206 C   0  0  0  0  0  0  0  0  0  0  0  0
   -2.2792   -0.3381   -0.7603 C   0  0  0  0  0  0  0  0  0  0  0  0
   -1.7153   -2.4050   -0.6555 H   0  0  0  0  0  0  0  0  0  0  0  0
    0.7240   -1.8984   -0.9453 H   0  0  0  0  0  0  0  0  0  0  0  0
   -0.2109    2.2976   -1.2600 H   0  0  0  0  0  0  0  0  0  0  0  0
   -2.6509    1.7703   -0.9110 H   0  0  0  0  0  0  0  0  0  0  0  0
   -3.7120   -0.6483   -0.5822 N   0  0  0  0  0  0  0  0  0  0  0  0
   -4.4966    0.2974   -0.5725 O   0  0  0  0  0  0  0  0  0  0  0  0
   -4.0236   -1.8306   -0.4643 O   0  0  0  0  0  0  0  0  0  0  0  0
    1.7313    0.5801   -1.3117 N   0  0  0  0  0  0  0  0  0  0  0  0
    2.7794    0.3140   -0.8425 N   0  0  0  0  0  0  0  0  0  0  0  0
    2.7803   -0.9042    0.8173 Cl  0  0  0  0  0  0  0  0  0  0  0  0
  1  6  1  0  0  0  0
  1  7  1  0  0  0  0
  2  1  2  0  0  0  0
  3  2  1  0  0  0  0
  4  3  2  0  0  0  0
  4  5  1  0  0  0  0
  5 10  1  0  0  0  0
  5  6  2  0  0  0  0
  6 11  1  0  0  0  0
  8  2  1  0  0  0  0
  9  4  1  0  0  0  0
 11 12  2  0  0  0  0
 11 13  2  0  0  0  0
 14  3  1  0  0  0  0
 14 15  2  0  0  0  0
 15 16  1  0  0  0  0
M  END
