Coordinates from ORCA-job p-NO2-Ph-N2-X-Cl-B3LYPG-6-31G_dp-scan-d09-49-n400
 OpenBabel08281820523D

 16 16  0  0  0  0  0  0  0  0999 V2000
   -1.3984   -1.4452   -0.8849 C   0  0  0  0  0  0  0  0  0  0  0  0
   -0.0447   -1.2079   -1.0982 C   0  0  0  0  0  0  0  0  0  0  0  0
    0.3992    0.1164   -1.1702 C   0  0  0  0  0  0  0  0  0  0  0  0
   -0.4744    1.2029   -1.0749 C   0  0  0  0  0  0  0  0  0  0  0  0
   -1.8244    0.9594   -0.8475 C   0  0  0  0  0  0  0  0  0  0  0  0
   -2.2631   -0.3600   -0.7584 C   0  0  0  0  0  0  0  0  0  0  0  0
   -1.7908   -2.4517   -0.8125 H   0  0  0  0  0  0  0  0  0  0  0  0
    0.6517   -2.0309   -1.2076 H   0  0  0  0  0  0  0  0  0  0  0  0
   -0.0959    2.2150   -1.1614 H   0  0  0  0  0  0  0  0  0  0  0  0
   -2.5372    1.7675   -0.7455 H   0  0  0  0  0  0  0  0  0  0  0  0
   -3.6973   -0.6173   -0.5310 N   0  0  0  0  0  0  0  0  0  0  0  0
   -4.4360    0.3589   -0.4209 O   0  0  0  0  0  0  0  0  0  0  0  0
   -4.0586   -1.7901   -0.4678 O   0  0  0  0  0  0  0  0  0  0  0  0
    1.7679    0.3793   -1.4520 N   0  0  0  0  0  0  0  0  0  0  0  0
    2.7581    0.3314   -0.8090 N   0  0  0  0  0  0  0  0  0  0  0  0
    2.5250   -0.1799    1.1379 Cl  0  0  0  0  0  0  0  0  0  0  0  0
  1  7  1  0  0  0  0
  1  6  2  0  0  0  0
  2  1  1  0  0  0  0
  3  2  2  0  0  0  0
  3  4  1  0  0  0  0
  4  5  2  0  0  0  0
  5  6  1  0  0  0  0
  5 10  1  0  0  0  0
  6 11  1  0  0  0  0
  8  2  1  0  0  0  0
  9  4  1  0  0  0  0
 11 13  2  0  0  0  0
 11 12  2  0  0  0  0
 14  3  1  0  0  0  0
 14 15  2  0  0  0  0
 15 16  1  0  0  0  0
M  END
