Coordinates from ORCA-job p-NO2-Ph-N2-X-Cl-B3LYPG-6-31G_dp-scan-d09-49-n400
 OpenBabel08281820523D

 16 16  0  0  0  0  0  0  0  0999 V2000
   -1.5083   -1.5489   -1.0454 C   0  0  0  0  0  0  0  0  0  0  0  0
   -0.1412   -1.4053   -1.2516 C   0  0  0  0  0  0  0  0  0  0  0  0
    0.4355   -0.1386   -1.1254 C   0  0  0  0  0  0  0  0  0  0  0  0
   -0.3240    1.0036   -0.8455 C   0  0  0  0  0  0  0  0  0  0  0  0
   -1.6958    0.8601   -0.6682 C   0  0  0  0  0  0  0  0  0  0  0  0
   -2.2611   -0.4104   -0.7637 C   0  0  0  0  0  0  0  0  0  0  0  0
   -1.9977   -2.5123   -1.1108 H   0  0  0  0  0  0  0  0  0  0  0  0
    0.4895   -2.2544   -1.4848 H   0  0  0  0  0  0  0  0  0  0  0  0
    0.1522    1.9723   -0.7633 H   0  0  0  0  0  0  0  0  0  0  0  0
   -2.3291    1.7103   -0.4499 H   0  0  0  0  0  0  0  0  0  0  0  0
   -3.7172   -0.5553   -0.5662 N   0  0  0  0  0  0  0  0  0  0  0  0
   -4.3590    0.4643   -0.3257 O   0  0  0  0  0  0  0  0  0  0  0  0
   -4.1894   -1.6860   -0.6568 O   0  0  0  0  0  0  0  0  0  0  0  0
    1.8259   -0.0404   -1.3830 N   0  0  0  0  0  0  0  0  0  0  0  0
    2.7450    0.4563   -0.8320 N   0  0  0  0  0  0  0  0  0  0  0  0
    2.3560    1.3326    0.9685 Cl  0  0  0  0  0  0  0  0  0  0  0  0
  1  6  2  0  0  0  0
  2  3  2  0  0  0  0
  2  1  1  0  0  0  0
  3  4  1  0  0  0  0
  4  9  1  0  0  0  0
  4  5  2  0  0  0  0
  5 10  1  0  0  0  0
  6  5  1  0  0  0  0
  6 11  1  0  0  0  0
  7  1  1  0  0  0  0
  8  2  1  0  0  0  0
 11 12  2  0  0  0  0
 13 11  2  0  0  0  0
 14  3  1  0  0  0  0
 14 15  2  0  0  0  0
 15 16  1  0  0  0  0
M  END
