Coordinates from ORCA-job p-NO2-Ph-N2-X-Cl-B3LYPG-6-31G_dp-scan-d09-49-n400
 OpenBabel08281820523D

 16 16  0  0  0  0  0  0  0  0999 V2000
   -1.3943   -1.4394   -0.8750 C   0  0  0  0  0  0  0  0  0  0  0  0
   -0.0407   -1.1973   -1.0835 C   0  0  0  0  0  0  0  0  0  0  0  0
    0.3971    0.1289   -1.1633 C   0  0  0  0  0  0  0  0  0  0  0  0
   -0.4830    1.2115   -1.0802 C   0  0  0  0  0  0  0  0  0  0  0  0
   -1.8325    0.9633   -0.8551 C   0  0  0  0  0  0  0  0  0  0  0  0
   -2.2648   -0.3576   -0.7585 C   0  0  0  0  0  0  0  0  0  0  0  0
   -1.7823   -2.4472   -0.7980 H   0  0  0  0  0  0  0  0  0  0  0  0
    0.6588   -2.0184   -1.1860 H   0  0  0  0  0  0  0  0  0  0  0  0
   -0.1091    2.2247   -1.1742 H   0  0  0  0  0  0  0  0  0  0  0  0
   -2.5497    1.7686   -0.7617 H   0  0  0  0  0  0  0  0  0  0  0  0
   -3.6986   -0.6205   -0.5346 N   0  0  0  0  0  0  0  0  0  0  0  0
   -4.4424    0.3527   -0.4333 O   0  0  0  0  0  0  0  0  0  0  0  0
   -4.0544   -1.7946   -0.4656 O   0  0  0  0  0  0  0  0  0  0  0  0
    1.7640    0.4008   -1.4420 N   0  0  0  0  0  0  0  0  0  0  0  0
    2.7612    0.3263   -0.8129 N   0  0  0  0  0  0  0  0  0  0  0  0
    2.5521   -0.2539    1.1200 Cl  0  0  0  0  0  0  0  0  0  0  0  0
  1  7  1  0  0  0  0
  1  6  2  0  0  0  0
  2  1  1  0  0  0  0
  3  2  2  0  0  0  0
  3  4  1  0  0  0  0
  4  5  2  0  0  0  0
  5 10  1  0  0  0  0
  5  6  1  0  0  0  0
  6 11  1  0  0  0  0
  8  2  1  0  0  0  0
  9  4  1  0  0  0  0
 11 13  2  0  0  0  0
 11 12  2  0  0  0  0
 14  3  1  0  0  0  0
 14 15  2  0  0  0  0
 15 16  1  0  0  0  0
M  END
