Coordinates from ORCA-job p-NO2-Ph-N2-X-Cl-B3LYPG-6-31G_dp-scan-d09-49-n400
 OpenBabel08281820523D

 16 16  0  0  0  0  0  0  0  0999 V2000
   -1.3663   -1.3939   -0.7877 C   0  0  0  0  0  0  0  0  0  0  0  0
   -0.0136   -1.1146   -0.9518 C   0  0  0  0  0  0  0  0  0  0  0  0
    0.3803    0.2222   -1.0924 C   0  0  0  0  0  0  0  0  0  0  0  0
   -0.5444    1.2725   -1.1066 C   0  0  0  0  0  0  0  0  0  0  0  0
   -1.8914    0.9899   -0.9137 C   0  0  0  0  0  0  0  0  0  0  0  0
   -2.2777   -0.3402   -0.7609 C   0  0  0  0  0  0  0  0  0  0  0  0
   -1.7222   -2.4101   -0.6743 H   0  0  0  0  0  0  0  0  0  0  0  0
    0.7163   -1.9132   -0.9779 H   0  0  0  0  0  0  0  0  0  0  0  0
   -0.2007    2.2903   -1.2525 H   0  0  0  0  0  0  0  0  0  0  0  0
   -2.6404    1.7708   -0.8942 H   0  0  0  0  0  0  0  0  0  0  0  0
   -3.7106   -0.6453   -0.5771 N   0  0  0  0  0  0  0  0  0  0  0  0
   -4.4906    0.3040   -0.5517 O   0  0  0  0  0  0  0  0  0  0  0  0
   -4.0263   -1.8267   -0.4603 O   0  0  0  0  0  0  0  0  0  0  0  0
    1.7348    0.5609   -1.3301 N   0  0  0  0  0  0  0  0  0  0  0  0
    2.7781    0.3132   -0.8396 N   0  0  0  0  0  0  0  0  0  0  0  0
    2.7560   -0.8320    0.8669 Cl  0  0  0  0  0  0  0  0  0  0  0  0
  1  6  1  0  0  0  0
  1  7  1  0  0  0  0
  2  1  2  0  0  0  0
  3  2  1  0  0  0  0
  4  3  2  0  0  0  0
  4  5  1  0  0  0  0
  5 10  1  0  0  0  0
  5  6  2  0  0  0  0
  6 11  1  0  0  0  0
  8  2  1  0  0  0  0
  9  4  1  0  0  0  0
 11 12  2  0  0  0  0
 11 13  2  0  0  0  0
 14  3  1  0  0  0  0
 14 15  2  0  0  0  0
 15 16  1  0  0  0  0
M  END
