Coordinates from ORCA-job p-NO2-Ph-N2-X-Cl-B3LYPG-6-31G_dp-scan-d09-49-n400
 OpenBabel08281820523D

 16 15  0  0  0  0  0  0  0  0999 V2000
   -1.3074   -1.2623   -0.5550 C   0  0  0  0  0  0  0  0  0  0  0  0
    0.0732   -0.9376   -0.5811 C   0  0  0  0  0  0  0  0  0  0  0  0
    0.2669    0.4200   -0.8561 C   0  0  0  0  0  0  0  0  0  0  0  0
   -0.6799    1.4474   -1.0962 C   0  0  0  0  0  0  0  0  0  0  0  0
   -1.9993    1.0559   -1.0532 C   0  0  0  0  0  0  0  0  0  0  0  0
   -2.2798   -0.2989   -0.7813 C   0  0  0  0  0  0  0  0  0  0  0  0
   -1.6300   -2.2788   -0.3539 H   0  0  0  0  0  0  0  0  0  0  0  0
    1.4908   -1.9514   -0.3370 H   0  0  0  0  0  0  0  0  0  0  0  0
   -0.3903    2.4732   -1.3018 H   0  0  0  0  0  0  0  0  0  0  0  0
   -2.8133    1.7483   -1.2204 H   0  0  0  0  0  0  0  0  0  0  0  0
   -3.7135   -0.6951   -0.7405 N   0  0  0  0  0  0  0  0  0  0  0  0
   -4.5466    0.1861   -0.9451 O   0  0  0  0  0  0  0  0  0  0  0  0
   -3.9692   -1.8709   -0.5062 O   0  0  0  0  0  0  0  0  0  0  0  0
    1.6189    0.7799   -0.8895 N   0  0  0  0  0  0  0  0  0  0  0  0
    2.7179    0.9699   -0.8959 N   0  0  0  0  0  0  0  0  0  0  0  0
    2.6429   -2.5378   -0.1905 Cl  0  0  0  0  0  0  0  0  0  0  0  0
  1  7  1  0  0  0  0
  2  1  1  0  0  0  0
  3  2  2  0  0  0  0
  4  5  2  0  0  0  0
  4  3  1  0  0  0  0
  5  6  1  0  0  0  0
  6 11  1  0  0  0  0
  6  1  2  0  0  0  0
  8 16  1  0  0  0  0
  9  4  1  0  0  0  0
 10  5  1  0  0  0  0
 11 13  2  0  0  0  0
 12 11  2  0  0  0  0
 14  3  1  0  0  0  0
 15 14  1  0  0  0  0
M  RAD  3   2   2  14   2  15   3
M  END
