Coordinates from ORCA-job p-NO2-Ph-N2-X-Cl-B3LYPG-6-31G_dp-scan-d09-49-n400
 OpenBabel08281820523D

 16 16  0  0  0  0  0  0  0  0999 V2000
   -1.3514   -1.3192   -0.5493 C   0  0  0  0  0  0  0  0  0  0  0  0
   -0.0002   -0.9873   -0.5806 C   0  0  0  0  0  0  0  0  0  0  0  0
    0.3498    0.3459   -0.8428 C   0  0  0  0  0  0  0  0  0  0  0  0
   -0.6121    1.3403   -1.0716 C   0  0  0  0  0  0  0  0  0  0  0  0
   -1.9587    1.0020   -1.0381 C   0  0  0  0  0  0  0  0  0  0  0  0
   -2.3003   -0.3243   -0.7769 C   0  0  0  0  0  0  0  0  0  0  0  0
   -1.6776   -2.3323   -0.3509 H   0  0  0  0  0  0  0  0  0  0  0  0
    0.7857   -1.7156   -0.4100 H   0  0  0  0  0  0  0  0  0  0  0  0
   -0.2917    2.3564   -1.2720 H   0  0  0  0  0  0  0  0  0  0  0  0
   -2.7381    1.7332   -1.2083 H   0  0  0  0  0  0  0  0  0  0  0  0
   -3.7342   -0.6894   -0.7411 N   0  0  0  0  0  0  0  0  0  0  0  0
   -4.5481    0.2076   -0.9454 O   0  0  0  0  0  0  0  0  0  0  0  0
   -4.0111   -1.8628   -0.5100 O   0  0  0  0  0  0  0  0  0  0  0  0
    1.6921    0.7793   -0.8961 N   0  0  0  0  0  0  0  0  0  0  0  0
    2.7899    0.3838   -0.7798 N   0  0  0  0  0  0  0  0  0  0  0  0
    3.0874   -1.6698   -0.3308 Cl  0  0  0  0  0  0  0  0  0  0  0  0
  1  7  1  0  0  0  0
  2  1  1  0  0  0  0
  2  8  1  0  0  0  0
  3  2  2  0  0  0  0
  4  5  2  0  0  0  0
  4  3  1  0  0  0  0
  5  6  1  0  0  0  0
  6 11  1  0  0  0  0
  6  1  2  0  0  0  0
  9  4  1  0  0  0  0
 10  5  1  0  0  0  0
 11 13  2  0  0  0  0
 12 11  2  0  0  0  0
 14  3  1  0  0  0  0
 14 15  2  0  0  0  0
 15 16  1  0  0  0  0
M  END
