Coordinates from ORCA-job p-NO2-Ph-N2-X-Cl-B3LYPG-6-31G_dp-scan-d09-49-n400
 OpenBabel08281820523D

 16 15  0  0  0  0  0  0  0  0999 V2000
   -1.2762   -1.2860   -0.5499 C   0  0  0  0  0  0  0  0  0  0  0  0
    0.0690   -0.9096   -0.5895 C   0  0  0  0  0  0  0  0  0  0  0  0
    0.3195    0.4327   -0.8586 C   0  0  0  0  0  0  0  0  0  0  0  0
   -0.6432    1.4216   -1.0887 C   0  0  0  0  0  0  0  0  0  0  0  0
   -1.9719    1.0237   -1.0443 C   0  0  0  0  0  0  0  0  0  0  0  0
   -2.2562   -0.3207   -0.7760 C   0  0  0  0  0  0  0  0  0  0  0  0
   -1.5760   -2.3074   -0.3474 H   0  0  0  0  0  0  0  0  0  0  0  0
    1.0725   -1.5670   -0.4258 H   0  0  0  0  0  0  0  0  0  0  0  0
   -0.3595    2.4482   -1.2934 H   0  0  0  0  0  0  0  0  0  0  0  0
   -2.7853    1.7175   -1.2106 H   0  0  0  0  0  0  0  0  0  0  0  0
   -3.6809   -0.7302   -0.7331 N   0  0  0  0  0  0  0  0  0  0  0  0
   -4.5246    0.1404   -0.9343 O   0  0  0  0  0  0  0  0  0  0  0  0
   -3.9215   -1.9107   -0.4995 O   0  0  0  0  0  0  0  0  0  0  0  0
    1.6995    0.7850   -0.8924 N   0  0  0  0  0  0  0  0  0  0  0  0
    2.7322    0.2896   -0.7618 N   0  0  0  0  0  0  0  0  0  0  0  0
    2.5839   -1.9792   -0.2985 Cl  0  0  0  0  0  0  0  0  0  0  0  0
  1  7  1  0  0  0  0
  2  1  1  0  0  0  0
  2  8  1  0  0  0  0
  3  2  2  0  0  0  0
  4  5  2  0  0  0  0
  4  3  1  0  0  0  0
  5  6  1  0  0  0  0
  6 11  1  0  0  0  0
  6  1  2  0  0  0  0
  9  4  1  0  0  0  0
 10  5  1  0  0  0  0
 11 13  2  0  0  0  0
 12 11  2  0  0  0  0
 14  3  1  0  0  0  0
 14 15  2  0  0  0  0
M  RAD  2  15   2  16   2
M  END
