Coordinates from ORCA-job p-NO2-Ph-N2-X-Cl-B3LYPG-6-31G_dp-scan-d09-49-n400
 OpenBabel08281820523D

 16 16  0  0  0  0  0  0  0  0999 V2000
   -1.4118   -1.4624   -0.9124 C   0  0  0  0  0  0  0  0  0  0  0  0
   -0.0574   -1.2399   -1.1364 C   0  0  0  0  0  0  0  0  0  0  0  0
    0.4055    0.0782   -1.1848 C   0  0  0  0  0  0  0  0  0  0  0  0
   -0.4492    1.1760   -1.0555 C   0  0  0  0  0  0  0  0  0  0  0  0
   -1.8013    0.9470   -0.8248 C   0  0  0  0  0  0  0  0  0  0  0  0
   -2.2593   -0.3671   -0.7585 C   0  0  0  0  0  0  0  0  0  0  0  0
   -1.8183   -2.4641   -0.8543 H   0  0  0  0  0  0  0  0  0  0  0  0
    0.6286   -2.0689   -1.2652 H   0  0  0  0  0  0  0  0  0  0  0  0
   -0.0561    2.1841   -1.1194 H   0  0  0  0  0  0  0  0  0  0  0  0
   -2.5010    1.7634   -0.6995 H   0  0  0  0  0  0  0  0  0  0  0  0
   -3.6951   -0.6075   -0.5239 N   0  0  0  0  0  0  0  0  0  0  0  0
   -4.4186    0.3771   -0.3902 O   0  0  0  0  0  0  0  0  0  0  0  0
   -4.0732   -1.7758   -0.4790 O   0  0  0  0  0  0  0  0  0  0  0  0
    1.7784    0.3178   -1.4729 N   0  0  0  0  0  0  0  0  0  0  0  0
    2.7504    0.3514   -0.8007 N   0  0  0  0  0  0  0  0  0  0  0  0
    2.4595    0.0386    1.1737 Cl  0  0  0  0  0  0  0  0  0  0  0  0
  1  7  1  0  0  0  0
  1  6  2  0  0  0  0
  2  1  1  0  0  0  0
  3  2  2  0  0  0  0
  3  4  1  0  0  0  0
  4  5  2  0  0  0  0
  5  6  1  0  0  0  0
  5 10  1  0  0  0  0
  6 11  1  0  0  0  0
  8  2  1  0  0  0  0
  9  4  1  0  0  0  0
 11 13  2  0  0  0  0
 11 12  2  0  0  0  0
 14  3  1  0  0  0  0
 14 15  2  0  0  0  0
 15 16  1  0  0  0  0
M  END
