Coordinates from ORCA-job p-NO2-Ph-N2-X-Cl-B3LYPG-6-31G_dp-scan-d09-49-n400
 OpenBabel08281820523D

 16 15  0  0  0  0  0  0  0  0999 V2000
   -1.2858   -1.2932   -0.5489 C   0  0  0  0  0  0  0  0  0  0  0  0
    0.0570   -0.9192   -0.5882 C   0  0  0  0  0  0  0  0  0  0  0  0
    0.3309    0.4223   -0.8565 C   0  0  0  0  0  0  0  0  0  0  0  0
   -0.6351    1.4078   -1.0860 C   0  0  0  0  0  0  0  0  0  0  0  0
   -1.9671    1.0180   -1.0431 C   0  0  0  0  0  0  0  0  0  0  0  0
   -2.2611   -0.3229   -0.7757 C   0  0  0  0  0  0  0  0  0  0  0  0
   -1.5875   -2.3138   -0.3467 H   0  0  0  0  0  0  0  0  0  0  0  0
    0.9983   -1.5662   -0.4283 H   0  0  0  0  0  0  0  0  0  0  0  0
   -0.3472    2.4332   -1.2902 H   0  0  0  0  0  0  0  0  0  0  0  0
   -2.7755    1.7176   -1.2103 H   0  0  0  0  0  0  0  0  0  0  0  0
   -3.6866   -0.7262   -0.7338 N   0  0  0  0  0  0  0  0  0  0  0  0
   -4.5262    0.1480   -0.9355 O   0  0  0  0  0  0  0  0  0  0  0  0
   -3.9319   -1.9059   -0.5005 O   0  0  0  0  0  0  0  0  0  0  0  0
    1.7023    0.7870   -0.8927 N   0  0  0  0  0  0  0  0  0  0  0  0
    2.7376    0.2800   -0.7587 N   0  0  0  0  0  0  0  0  0  0  0  0
    2.6591   -1.9187   -0.3088 Cl  0  0  0  0  0  0  0  0  0  0  0  0
  1  7  1  0  0  0  0
  2  1  1  0  0  0  0
  2  8  1  0  0  0  0
  3  2  2  0  0  0  0
  4  5  2  0  0  0  0
  4  3  1  0  0  0  0
  5  6  1  0  0  0  0
  6 11  1  0  0  0  0
  6  1  2  0  0  0  0
  9  4  1  0  0  0  0
 10  5  1  0  0  0  0
 11 13  2  0  0  0  0
 12 11  2  0  0  0  0
 14  3  1  0  0  0  0
 14 15  2  0  0  0  0
M  RAD  2  15   2  16   2
M  END
