Coordinates from ORCA-job p-NO2-Ph-N2-X-Cl-B3LYPG-6-31G_dp-scan-d09-49-n400
 OpenBabel08281820523D

 16 15  0  0  0  0  0  0  0  0999 V2000
   -1.2949   -1.2981   -0.5500 C   0  0  0  0  0  0  0  0  0  0  0  0
    0.0480   -0.9288   -0.5889 C   0  0  0  0  0  0  0  0  0  0  0  0
    0.3361    0.4120   -0.8556 C   0  0  0  0  0  0  0  0  0  0  0  0
   -0.6306    1.3973   -1.0843 C   0  0  0  0  0  0  0  0  0  0  0  0
   -1.9650    1.0148   -1.0423 C   0  0  0  0  0  0  0  0  0  0  0  0
   -2.2663   -0.3238   -0.7760 C   0  0  0  0  0  0  0  0  0  0  0  0
   -1.5995   -2.3177   -0.3484 H   0  0  0  0  0  0  0  0  0  0  0  0
    0.9577   -1.5809   -0.4286 H   0  0  0  0  0  0  0  0  0  0  0  0
   -0.3383    2.4215   -1.2877 H   0  0  0  0  0  0  0  0  0  0  0  0
   -2.7693    1.7192   -1.2093 H   0  0  0  0  0  0  0  0  0  0  0  0
   -3.6929   -0.7214   -0.7339 N   0  0  0  0  0  0  0  0  0  0  0  0
   -4.5289    0.1562   -0.9353 O   0  0  0  0  0  0  0  0  0  0  0  0
   -3.9427   -1.9003   -0.5008 O   0  0  0  0  0  0  0  0  0  0  0  0
    1.7019    0.7876   -0.8936 N   0  0  0  0  0  0  0  0  0  0  0  0
    2.7447    0.2877   -0.7589 N   0  0  0  0  0  0  0  0  0  0  0  0
    2.7213   -1.8775   -0.3101 Cl  0  0  0  0  0  0  0  0  0  0  0  0
  1  7  1  0  0  0  0
  2  1  1  0  0  0  0
  2  8  1  0  0  0  0
  3  2  2  0  0  0  0
  4  5  2  0  0  0  0
  4  3  1  0  0  0  0
  5  6  1  0  0  0  0
  6 11  1  0  0  0  0
  6  1  2  0  0  0  0
  9  4  1  0  0  0  0
 10  5  1  0  0  0  0
 11 13  2  0  0  0  0
 12 11  2  0  0  0  0
 14  3  1  0  0  0  0
 14 15  2  0  0  0  0
M  RAD  2  15   2  16   2
M  END
