Coordinates from ORCA-job p-NO2-Ph-N2-X-Cl-B3LYPG-6-31G_dp-scan-d09-49-n400
 OpenBabel08281820523D

 16 16  0  0  0  0  0  0  0  0999 V2000
   -1.4277   -1.4809   -0.9404 C   0  0  0  0  0  0  0  0  0  0  0  0
   -0.0721   -1.2746   -1.1728 C   0  0  0  0  0  0  0  0  0  0  0  0
    0.4124    0.0355   -1.1941 C   0  0  0  0  0  0  0  0  0  0  0  0
   -0.4211    1.1448   -1.0288 C   0  0  0  0  0  0  0  0  0  0  0  0
   -1.7761    0.9325   -0.7988 C   0  0  0  0  0  0  0  0  0  0  0  0
   -2.2558   -0.3751   -0.7589 C   0  0  0  0  0  0  0  0  0  0  0  0
   -1.8500   -2.4769   -0.8989 H   0  0  0  0  0  0  0  0  0  0  0  0
    0.6035   -2.1089   -1.3200 H   0  0  0  0  0  0  0  0  0  0  0  0
   -0.0109    2.1474   -1.0665 H   0  0  0  0  0  0  0  0  0  0  0  0
   -2.4612    1.7572   -0.6502 H   0  0  0  0  0  0  0  0  0  0  0  0
   -3.6940   -0.5965   -0.5207 N   0  0  0  0  0  0  0  0  0  0  0  0
   -4.4007    0.3968   -0.3640 O   0  0  0  0  0  0  0  0  0  0  0  0
   -4.0909   -1.7592   -0.4959 O   0  0  0  0  0  0  0  0  0  0  0  0
    1.7893    0.2495   -1.4854 N   0  0  0  0  0  0  0  0  0  0  0  0
    2.7416    0.3788   -0.7959 N   0  0  0  0  0  0  0  0  0  0  0  0
    2.3950    0.2774    1.1874 Cl  0  0  0  0  0  0  0  0  0  0  0  0
  1  7  1  0  0  0  0
  1  6  2  0  0  0  0
  2  1  1  0  0  0  0
  3  2  2  0  0  0  0
  3  4  1  0  0  0  0
  4  5  2  0  0  0  0
  5  6  1  0  0  0  0
  5 10  1  0  0  0  0
  6 11  1  0  0  0  0
  8  2  1  0  0  0  0
  9  4  1  0  0  0  0
 11 13  2  0  0  0  0
 11 12  2  0  0  0  0
 14  3  1  0  0  0  0
 14 15  2  0  0  0  0
 15 16  1  0  0  0  0
M  END
