Coordinates from ORCA-job p-NO2-Ph-N2-X-Cl-B3LYPG-6-31G_dp-scan-d09-49-n400
 OpenBabel08281820523D

 16 16  0  0  0  0  0  0  0  0999 V2000
   -1.3619   -1.3847   -0.7668 C   0  0  0  0  0  0  0  0  0  0  0  0
   -0.0094   -1.0978   -0.9195 C   0  0  0  0  0  0  0  0  0  0  0  0
    0.3765    0.2402   -1.0731 C   0  0  0  0  0  0  0  0  0  0  0  0
   -0.5559    1.2836   -1.1086 C   0  0  0  0  0  0  0  0  0  0  0  0
   -1.9028    0.9942   -0.9262 C   0  0  0  0  0  0  0  0  0  0  0  0
   -2.2807   -0.3370   -0.7619 C   0  0  0  0  0  0  0  0  0  0  0  0
   -1.7120   -2.4019   -0.6451 H   0  0  0  0  0  0  0  0  0  0  0  0
    0.7282   -1.8893   -0.9234 H   0  0  0  0  0  0  0  0  0  0  0  0
   -0.2172    2.3018   -1.2638 H   0  0  0  0  0  0  0  0  0  0  0  0
   -2.6577    1.7697   -0.9236 H   0  0  0  0  0  0  0  0  0  0  0  0
   -3.7137   -0.6503   -0.5889 N   0  0  0  0  0  0  0  0  0  0  0  0
   -4.5003    0.2937   -0.5829 O   0  0  0  0  0  0  0  0  0  0  0  0
   -4.0222   -1.8325   -0.4635 O   0  0  0  0  0  0  0  0  0  0  0  0
    1.7290    0.5922   -1.2978 N   0  0  0  0  0  0  0  0  0  0  0  0
    2.7808    0.3157   -0.8432 N   0  0  0  0  0  0  0  0  0  0  0  0
    2.8003   -0.9497    0.7844 Cl  0  0  0  0  0  0  0  0  0  0  0  0
  1  6  1  0  0  0  0
  1  7  1  0  0  0  0
  2  1  2  0  0  0  0
  3  2  1  0  0  0  0
  4  3  2  0  0  0  0
  4  5  1  0  0  0  0
  5 10  1  0  0  0  0
  5  6  2  0  0  0  0
  6 11  1  0  0  0  0
  8  2  1  0  0  0  0
  9  4  1  0  0  0  0
 11 12  2  0  0  0  0
 11 13  2  0  0  0  0
 14  3  1  0  0  0  0
 14 15  2  0  0  0  0
 15 16  1  0  0  0  0
M  END
