Coordinates from ORCA-job p-NO2-Ph-N2-X-Cl-B3LYPG-6-31G_dp-scan-d09-49-n400
 OpenBabel08281820523D

 16 15  0  0  0  0  0  0  0  0999 V2000
   -1.2878   -1.2944   -0.5492 C   0  0  0  0  0  0  0  0  0  0  0  0
    0.0550   -0.9214   -0.5884 C   0  0  0  0  0  0  0  0  0  0  0  0
    0.3323    0.4201   -0.8564 C   0  0  0  0  0  0  0  0  0  0  0  0
   -0.6340    1.4054   -1.0856 C   0  0  0  0  0  0  0  0  0  0  0  0
   -1.9665    1.0172   -1.0429 C   0  0  0  0  0  0  0  0  0  0  0  0
   -2.2622   -0.3231   -0.7757 C   0  0  0  0  0  0  0  0  0  0  0  0
   -1.5901   -2.3147   -0.3471 H   0  0  0  0  0  0  0  0  0  0  0  0
    0.9885   -1.5694   -0.4285 H   0  0  0  0  0  0  0  0  0  0  0  0
   -0.3451    2.4305   -1.2896 H   0  0  0  0  0  0  0  0  0  0  0  0
   -2.7740    1.7179   -1.2099 H   0  0  0  0  0  0  0  0  0  0  0  0
   -3.6880   -0.7252   -0.7338 N   0  0  0  0  0  0  0  0  0  0  0  0
   -4.5268    0.1498   -0.9354 O   0  0  0  0  0  0  0  0  0  0  0  0
   -3.9342   -1.9047   -0.5006 O   0  0  0  0  0  0  0  0  0  0  0  0
    1.7023    0.7873   -0.8931 N   0  0  0  0  0  0  0  0  0  0  0  0
    2.7391    0.2811   -0.7587 N   0  0  0  0  0  0  0  0  0  0  0  0
    2.6726   -1.9086   -0.3090 Cl  0  0  0  0  0  0  0  0  0  0  0  0
  1  7  1  0  0  0  0
  2  1  1  0  0  0  0
  2  8  1  0  0  0  0
  3  2  2  0  0  0  0
  4  5  2  0  0  0  0
  4  3  1  0  0  0  0
  5  6  1  0  0  0  0
  6 11  1  0  0  0  0
  6  1  2  0  0  0  0
  9  4  1  0  0  0  0
 10  5  1  0  0  0  0
 11 13  2  0  0  0  0
 12 11  2  0  0  0  0
 14  3  1  0  0  0  0
 14 15  2  0  0  0  0
M  RAD  2  15   2  16   2
M  END
