Coordinates from ORCA-job p-NO2-Ph-N2-X-Cl-B3LYPG-6-31G_dp-scan-d09-49-n400
 OpenBabel08281820523D

 16 16  0  0  0  0  0  0  0  0999 V2000
   -1.4259   -1.4789   -0.9372 C   0  0  0  0  0  0  0  0  0  0  0  0
   -0.0704   -1.2709   -1.1689 C   0  0  0  0  0  0  0  0  0  0  0  0
    0.4116    0.0402   -1.1932 C   0  0  0  0  0  0  0  0  0  0  0  0
   -0.4242    1.1483   -1.0319 C   0  0  0  0  0  0  0  0  0  0  0  0
   -1.7789    0.9341   -0.8015 C   0  0  0  0  0  0  0  0  0  0  0  0
   -2.2561   -0.3742   -0.7585 C   0  0  0  0  0  0  0  0  0  0  0  0
   -1.8464   -2.4755   -0.8939 H   0  0  0  0  0  0  0  0  0  0  0  0
    0.6060   -2.1048   -1.3145 H   0  0  0  0  0  0  0  0  0  0  0  0
   -0.0159    2.1515   -1.0727 H   0  0  0  0  0  0  0  0  0  0  0  0
   -2.4656    1.7580   -0.6554 H   0  0  0  0  0  0  0  0  0  0  0  0
   -3.6940   -0.5977   -0.5204 N   0  0  0  0  0  0  0  0  0  0  0  0
   -4.4028    0.3947   -0.3672 O   0  0  0  0  0  0  0  0  0  0  0  0
   -4.0891   -1.7611   -0.4944 O   0  0  0  0  0  0  0  0  0  0  0  0
    1.7881    0.2573   -1.4845 N   0  0  0  0  0  0  0  0  0  0  0  0
    2.7427    0.3755   -0.7965 N   0  0  0  0  0  0  0  0  0  0  0  0
    2.4021    0.2514    1.1869 Cl  0  0  0  0  0  0  0  0  0  0  0  0
  1  7  1  0  0  0  0
  1  6  2  0  0  0  0
  2  1  1  0  0  0  0
  3  2  2  0  0  0  0
  3  4  1  0  0  0  0
  4  5  2  0  0  0  0
  5  6  1  0  0  0  0
  5 10  1  0  0  0  0
  6 11  1  0  0  0  0
  8  2  1  0  0  0  0
  9  4  1  0  0  0  0
 11 13  2  0  0  0  0
 11 12  2  0  0  0  0
 14  3  1  0  0  0  0
 14 15  2  0  0  0  0
 15 16  1  0  0  0  0
M  END
