Coordinates from ORCA-job p-NO2-Ph-N2-X-Cl-B3LYPG-6-31G_dp-scan-d09-49-n400
 OpenBabel08281820523D

 16 16  0  0  0  0  0  0  0  0999 V2000
   -1.4693   -1.5208   -0.9979 C   0  0  0  0  0  0  0  0  0  0  0  0
   -0.1089   -1.3501   -1.2296 C   0  0  0  0  0  0  0  0  0  0  0  0
    0.4267   -0.0620   -1.1794 C   0  0  0  0  0  0  0  0  0  0  0  0
   -0.3616    1.0685   -0.9434 C   0  0  0  0  0  0  0  0  0  0  0  0
   -1.7251    0.8953   -0.7329 C   0  0  0  0  0  0  0  0  0  0  0  0
   -2.2540   -0.3940   -0.7608 C   0  0  0  0  0  0  0  0  0  0  0  0
   -1.9292   -2.5009   -1.0053 H   0  0  0  0  0  0  0  0  0  0  0  0
    0.5427   -2.1942   -1.4196 H   0  0  0  0  0  0  0  0  0  0  0  0
    0.0879    2.0539   -0.9168 H   0  0  0  0  0  0  0  0  0  0  0  0
   -2.3793    1.7361   -0.5412 H   0  0  0  0  0  0  0  0  0  0  0  0
   -3.7007   -0.5721   -0.5341 N   0  0  0  0  0  0  0  0  0  0  0  0
   -4.3701    0.4384   -0.3321 O   0  0  0  0  0  0  0  0  0  0  0  0
   -4.1406   -1.7192   -0.5639 O   0  0  0  0  0  0  0  0  0  0  0  0
    1.8106    0.0931   -1.4647 N   0  0  0  0  0  0  0  0  0  0  0  0
    2.7318    0.4399   -0.8083 N   0  0  0  0  0  0  0  0  0  0  0  0
    2.3203    0.8361    1.1262 Cl  0  0  0  0  0  0  0  0  0  0  0  0
  1  6  2  0  0  0  0
  2  3  2  0  0  0  0
  2  1  1  0  0  0  0
  3  4  1  0  0  0  0
  4  9  1  0  0  0  0
  4  5  2  0  0  0  0
  5 10  1  0  0  0  0
  6  5  1  0  0  0  0
  6 11  1  0  0  0  0
  7  1  1  0  0  0  0
  8  2  1  0  0  0  0
 11 12  2  0  0  0  0
 13 11  2  0  0  0  0
 14  3  1  0  0  0  0
 14 15  2  0  0  0  0
 15 16  1  0  0  0  0
M  END
