Coordinates from ORCA-job p-NO2-Ph-N2-X-Cl-B3LYPG-6-31G_dp-scan-d09-49-n400
 OpenBabel08281820523D

 16 15  0  0  0  0  0  0  0  0999 V2000
   -1.2996   -1.2756   -0.5518 C   0  0  0  0  0  0  0  0  0  0  0  0
    0.0748   -0.9452   -0.5797 C   0  0  0  0  0  0  0  0  0  0  0  0
    0.2812    0.4098   -0.8536 C   0  0  0  0  0  0  0  0  0  0  0  0
   -0.6648    1.4343   -1.0926 C   0  0  0  0  0  0  0  0  0  0  0  0
   -1.9859    1.0435   -1.0500 C   0  0  0  0  0  0  0  0  0  0  0  0
   -2.2701   -0.3092   -0.7788 C   0  0  0  0  0  0  0  0  0  0  0  0
   -1.6190   -2.2929   -0.3504 H   0  0  0  0  0  0  0  0  0  0  0  0
    1.3572   -1.8353   -0.3637 H   0  0  0  0  0  0  0  0  0  0  0  0
   -0.3744    2.4597   -1.2978 H   0  0  0  0  0  0  0  0  0  0  0  0
   -2.7985    1.7377   -1.2174 H   0  0  0  0  0  0  0  0  0  0  0  0
   -3.7043   -0.7039   -0.7387 N   0  0  0  0  0  0  0  0  0  0  0  0
   -4.5356    0.1784   -0.9439 O   0  0  0  0  0  0  0  0  0  0  0  0
   -3.9597   -1.8796   -0.5046 O   0  0  0  0  0  0  0  0  0  0  0  0
    1.6374    0.7566   -0.8849 N   0  0  0  0  0  0  0  0  0  0  0  0
    2.7440    0.8922   -0.8808 N   0  0  0  0  0  0  0  0  0  0  0  0
    2.5984   -2.4227   -0.2148 Cl  0  0  0  0  0  0  0  0  0  0  0  0
  1  7  1  0  0  0  0
  2  1  1  0  0  0  0
  3  2  2  0  0  0  0
  4  5  2  0  0  0  0
  4  3  1  0  0  0  0
  5  6  1  0  0  0  0
  6 11  1  0  0  0  0
  6  1  2  0  0  0  0
  8 16  1  0  0  0  0
  9  4  1  0  0  0  0
 10  5  1  0  0  0  0
 11 13  2  0  0  0  0
 12 11  2  0  0  0  0
 14 15  1  0  0  0  0
 14  3  1  0  0  0  0
M  RAD  3   2   2  14   2  15   3
M  END
