Coordinates from ORCA-job p-NO2-Ph-N2-X-Cl-B3LYPG-6-31G_dp-scan-d09-49-n400
 OpenBabel08281820523D

 16 16  0  0  0  0  0  0  0  0999 V2000
   -1.3613   -1.3226   -0.5497 C   0  0  0  0  0  0  0  0  0  0  0  0
   -0.0083   -0.9980   -0.5797 C   0  0  0  0  0  0  0  0  0  0  0  0
    0.3504    0.3338   -0.8410 C   0  0  0  0  0  0  0  0  0  0  0  0
   -0.6096    1.3309   -1.0697 C   0  0  0  0  0  0  0  0  0  0  0  0
   -1.9580    1.0001   -1.0374 C   0  0  0  0  0  0  0  0  0  0  0  0
   -2.3062   -0.3242   -0.7771 C   0  0  0  0  0  0  0  0  0  0  0  0
   -1.6919   -2.3345   -0.3519 H   0  0  0  0  0  0  0  0  0  0  0  0
    0.7616   -1.7398   -0.4075 H   0  0  0  0  0  0  0  0  0  0  0  0
   -0.2843    2.3456   -1.2695 H   0  0  0  0  0  0  0  0  0  0  0  0
   -2.7332    1.7358   -1.2079 H   0  0  0  0  0  0  0  0  0  0  0  0
   -3.7415   -0.6834   -0.7421 N   0  0  0  0  0  0  0  0  0  0  0  0
   -4.5514    0.2172   -0.9467 O   0  0  0  0  0  0  0  0  0  0  0  0
   -4.0234   -1.8556   -0.5114 O   0  0  0  0  0  0  0  0  0  0  0  0
    1.6899    0.7750   -0.8964 N   0  0  0  0  0  0  0  0  0  0  0  0
    2.7965    0.4028   -0.7838 N   0  0  0  0  0  0  0  0  0  0  0  0
    3.1518   -1.6353   -0.3322 Cl  0  0  0  0  0  0  0  0  0  0  0  0
  1  7  1  0  0  0  0
  2  1  1  0  0  0  0
  2  8  1  0  0  0  0
  3  2  2  0  0  0  0
  4  5  2  0  0  0  0
  4  3  1  0  0  0  0
  5  6  1  0  0  0  0
  6 11  1  0  0  0  0
  6  1  2  0  0  0  0
  9  4  1  0  0  0  0
 10  5  1  0  0  0  0
 11 13  2  0  0  0  0
 12 11  2  0  0  0  0
 14  3  1  0  0  0  0
 14 15  2  0  0  0  0
 15 16  1  0  0  0  0
M  END
