Coordinates from ORCA-job p-NO2-Ph-N2-X-Cl-B3LYPG-6-31G_dp-scan-d09-49-n400
 OpenBabel08281820523D

 16 16  0  0  0  0  0  0  0  0999 V2000
   -1.3929   -1.4377   -0.8721 C   0  0  0  0  0  0  0  0  0  0  0  0
   -0.0395   -1.1940   -1.0795 C   0  0  0  0  0  0  0  0  0  0  0  0
    0.3965    0.1328   -1.1617 C   0  0  0  0  0  0  0  0  0  0  0  0
   -0.4853    1.2142   -1.0818 C   0  0  0  0  0  0  0  0  0  0  0  0
   -1.8346    0.9645   -0.8572 C   0  0  0  0  0  0  0  0  0  0  0  0
   -2.2650   -0.3569   -0.7585 C   0  0  0  0  0  0  0  0  0  0  0  0
   -1.7795   -2.4459   -0.7936 H   0  0  0  0  0  0  0  0  0  0  0  0
    0.6614   -2.0142   -1.1795 H   0  0  0  0  0  0  0  0  0  0  0  0
   -0.1129    2.2277   -1.1779 H   0  0  0  0  0  0  0  0  0  0  0  0
   -2.5531    1.7689   -0.7662 H   0  0  0  0  0  0  0  0  0  0  0  0
   -3.6988   -0.6215   -0.5355 N   0  0  0  0  0  0  0  0  0  0  0  0
   -4.4440    0.3508   -0.4367 O   0  0  0  0  0  0  0  0  0  0  0  0
   -4.0529   -1.7960   -0.4647 O   0  0  0  0  0  0  0  0  0  0  0  0
    1.7631    0.4065   -1.4397 N   0  0  0  0  0  0  0  0  0  0  0  0
    2.7616    0.3246   -0.8136 N   0  0  0  0  0  0  0  0  0  0  0  0
    2.5573   -0.2759    1.1143 Cl  0  0  0  0  0  0  0  0  0  0  0  0
  1  7  1  0  0  0  0
  1  6  1  0  0  0  0
  2  1  2  0  0  0  0
  3  4  2  0  0  0  0
  3  2  1  0  0  0  0
  4  5  1  0  0  0  0
  5 10  1  0  0  0  0
  5  6  2  0  0  0  0
  6 11  1  0  0  0  0
  8  2  1  0  0  0  0
  9  4  1  0  0  0  0
 11 13  2  0  0  0  0
 11 12  2  0  0  0  0
 14  3  1  0  0  0  0
 14 15  2  0  0  0  0
 15 16  1  0  0  0  0
M  END
