Coordinates from ORCA-job p-NO2-Ph-N2-X-Cl-B3LYPG-6-31G_dp-scan-d09-49-n400
 OpenBabel08281820523D

 16 16  0  0  0  0  0  0  0  0999 V2000
   -1.4423   -1.4963   -0.9626 C   0  0  0  0  0  0  0  0  0  0  0  0
   -0.0853   -1.3034   -1.1983 C   0  0  0  0  0  0  0  0  0  0  0  0
    0.4180   -0.0010   -1.1952 C   0  0  0  0  0  0  0  0  0  0  0  0
   -0.3977    1.1171   -1.0013 C   0  0  0  0  0  0  0  0  0  0  0  0
   -1.7555    0.9193   -0.7756 C   0  0  0  0  0  0  0  0  0  0  0  0
   -2.2539   -0.3820   -0.7596 C   0  0  0  0  0  0  0  0  0  0  0  0
   -1.8785   -2.4868   -0.9371 H   0  0  0  0  0  0  0  0  0  0  0  0
    0.5818   -2.1416   -1.3603 H   0  0  0  0  0  0  0  0  0  0  0  0
    0.0275    2.1139   -1.0154 H   0  0  0  0  0  0  0  0  0  0  0  0
   -2.4286    1.7505   -0.6090 H   0  0  0  0  0  0  0  0  0  0  0  0
   -3.6947   -0.5871   -0.5222 N   0  0  0  0  0  0  0  0  0  0  0  0
   -4.3871    0.4131   -0.3473 O   0  0  0  0  0  0  0  0  0  0  0  0
   -4.1079   -1.7445   -0.5162 O   0  0  0  0  0  0  0  0  0  0  0  0
    1.7979    0.1913   -1.4864 N   0  0  0  0  0  0  0  0  0  0  0  0
    2.7353    0.4035   -0.7965 N   0  0  0  0  0  0  0  0  0  0  0  0
    2.3523    0.4820    1.1791 Cl  0  0  0  0  0  0  0  0  0  0  0  0
  1  7  1  0  0  0  0
  1  6  2  0  0  0  0
  2  3  2  0  0  0  0
  2  1  1  0  0  0  0
  3  4  1  0  0  0  0
  4  5  2  0  0  0  0
  5  6  1  0  0  0  0
  5 10  1  0  0  0  0
  6 11  1  0  0  0  0
  8  2  1  0  0  0  0
  9  4  1  0  0  0  0
 11 13  2  0  0  0  0
 11 12  2  0  0  0  0
 14  3  1  0  0  0  0
 14 15  2  0  0  0  0
 15 16  1  0  0  0  0
M  END
