Coordinates from ORCA-job p-NO2-Ph-N2-X-Cl-B3LYPG-6-31G_dp-scan-d09-49-n400
 OpenBabel08281820523D

 16 16  0  0  0  0  0  0  0  0999 V2000
   -1.3481   -1.3181   -0.5495 C   0  0  0  0  0  0  0  0  0  0  0  0
    0.0024   -0.9838   -0.5814 C   0  0  0  0  0  0  0  0  0  0  0  0
    0.3493    0.3499   -0.8438 C   0  0  0  0  0  0  0  0  0  0  0  0
   -0.6131    1.3436   -1.0723 C   0  0  0  0  0  0  0  0  0  0  0  0
   -1.9590    1.0027   -1.0382 C   0  0  0  0  0  0  0  0  0  0  0  0
   -2.2983   -0.3243   -0.7769 C   0  0  0  0  0  0  0  0  0  0  0  0
   -1.6729   -2.3316   -0.3509 H   0  0  0  0  0  0  0  0  0  0  0  0
    0.7945   -1.7070   -0.4116 H   0  0  0  0  0  0  0  0  0  0  0  0
   -0.2944    2.3602   -1.2729 H   0  0  0  0  0  0  0  0  0  0  0  0
   -2.7399    1.7324   -1.2082 H   0  0  0  0  0  0  0  0  0  0  0  0
   -3.7318   -0.6914   -0.7405 N   0  0  0  0  0  0  0  0  0  0  0  0
   -4.5470    0.2046   -0.9445 O   0  0  0  0  0  0  0  0  0  0  0  0
   -4.0071   -1.8651   -0.5095 O   0  0  0  0  0  0  0  0  0  0  0  0
    1.6928    0.7802   -0.8965 N   0  0  0  0  0  0  0  0  0  0  0  0
    2.7875    0.3771   -0.7785 N   0  0  0  0  0  0  0  0  0  0  0  0
    3.0663   -1.6815   -0.3286 Cl  0  0  0  0  0  0  0  0  0  0  0  0
  1  7  1  0  0  0  0
  2  1  1  0  0  0  0
  2  8  1  0  0  0  0
  3  2  2  0  0  0  0
  4  5  2  0  0  0  0
  4  3  1  0  0  0  0
  5  6  1  0  0  0  0
  6 11  1  0  0  0  0
  6  1  2  0  0  0  0
  9  4  1  0  0  0  0
 10  5  1  0  0  0  0
 11 13  2  0  0  0  0
 12 11  2  0  0  0  0
 14  3  1  0  0  0  0
 14 15  2  0  0  0  0
 15 16  1  0  0  0  0
M  END
