Coordinates from ORCA-job p-NO2-Ph-N2-X-Cl-B3LYPG-6-31G_dp-scan-d09-49-n400
 OpenBabel08281820523D

 16 16  0  0  0  0  0  0  0  0999 V2000
   -1.3699   -1.3264   -0.5541 C   0  0  0  0  0  0  0  0  0  0  0  0
   -0.0152   -1.0086   -0.5861 C   0  0  0  0  0  0  0  0  0  0  0  0
    0.3509    0.3224   -0.8446 C   0  0  0  0  0  0  0  0  0  0  0  0
   -0.6075    1.3227   -1.0691 C   0  0  0  0  0  0  0  0  0  0  0  0
   -1.9575    0.9991   -1.0340 C   0  0  0  0  0  0  0  0  0  0  0  0
   -2.3114   -0.3238   -0.7762 C   0  0  0  0  0  0  0  0  0  0  0  0
   -1.7040   -2.3374   -0.3583 H   0  0  0  0  0  0  0  0  0  0  0  0
    0.7414   -1.7625   -0.4166 H   0  0  0  0  0  0  0  0  0  0  0  0
   -0.2781    2.3362   -1.2680 H   0  0  0  0  0  0  0  0  0  0  0  0
   -2.7291    1.7393   -1.2011 H   0  0  0  0  0  0  0  0  0  0  0  0
   -3.7479   -0.6772   -0.7383 N   0  0  0  0  0  0  0  0  0  0  0  0
   -4.5544    0.2266   -0.9422 O   0  0  0  0  0  0  0  0  0  0  0  0
   -4.0339   -1.8495   -0.5130 O   0  0  0  0  0  0  0  0  0  0  0  0
    1.6883    0.7685   -0.9057 N   0  0  0  0  0  0  0  0  0  0  0  0
    2.8020    0.4183   -0.7904 N   0  0  0  0  0  0  0  0  0  0  0  0
    3.2075   -1.5998   -0.3061 Cl  0  0  0  0  0  0  0  0  0  0  0  0
  1  7  1  0  0  0  0
  2  1  1  0  0  0  0
  2  8  1  0  0  0  0
  3  2  2  0  0  0  0
  4  5  2  0  0  0  0
  4  3  1  0  0  0  0
  5  6  1  0  0  0  0
  6 11  1  0  0  0  0
  6  1  2  0  0  0  0
  9  4  1  0  0  0  0
 10  5  1  0  0  0  0
 11 13  2  0  0  0  0
 12 11  2  0  0  0  0
 14  3  1  0  0  0  0
 14 15  2  0  0  0  0
 15 16  1  0  0  0  0
M  END
