Coordinates from ORCA-job p-NO2-Ph-N2-X-Cl-B3LYPG-6-31G_dp-scan-d09-49-n400
 OpenBabel08281820523D

 16 16  0  0  0  0  0  0  0  0999 V2000
   -1.3136   -1.3055   -0.5481 C   0  0  0  0  0  0  0  0  0  0  0  0
    0.0311   -0.9471   -0.5839 C   0  0  0  0  0  0  0  0  0  0  0  0
    0.3427    0.3913   -0.8502 C   0  0  0  0  0  0  0  0  0  0  0  0
   -0.6236    1.3782   -1.0794 C   0  0  0  0  0  0  0  0  0  0  0  0
   -1.9623    1.0099   -1.0409 C   0  0  0  0  0  0  0  0  0  0  0  0
   -2.2774   -0.3244   -0.7761 C   0  0  0  0  0  0  0  0  0  0  0  0
   -1.6246   -2.3231   -0.3471 H   0  0  0  0  0  0  0  0  0  0  0  0
    0.8923   -1.6195   -0.4203 H   0  0  0  0  0  0  0  0  0  0  0  0
   -0.3223    2.3998   -1.2822 H   0  0  0  0  0  0  0  0  0  0  0  0
   -2.7584    1.7232   -1.2099 H   0  0  0  0  0  0  0  0  0  0  0  0
   -3.7063   -0.7117   -0.7375 N   0  0  0  0  0  0  0  0  0  0  0  0
   -4.5351    0.1722   -0.9400 O   0  0  0  0  0  0  0  0  0  0  0  0
   -3.9647   -1.8889   -0.5051 O   0  0  0  0  0  0  0  0  0  0  0  0
    1.6995    0.7871   -0.8940 N   0  0  0  0  0  0  0  0  0  0  0  0
    2.7602    0.3137   -0.7658 N   0  0  0  0  0  0  0  0  0  0  0  0
    2.8435   -1.8075   -0.3233 Cl  0  0  0  0  0  0  0  0  0  0  0  0
  1  7  1  0  0  0  0
  2  1  1  0  0  0  0
  2  8  1  0  0  0  0
  3  2  2  0  0  0  0
  4  5  2  0  0  0  0
  4  3  1  0  0  0  0
  5  6  1  0  0  0  0
  6 11  1  0  0  0  0
  6  1  2  0  0  0  0
  9  4  1  0  0  0  0
 10  5  1  0  0  0  0
 11 13  2  0  0  0  0
 12 11  2  0  0  0  0
 14  3  1  0  0  0  0
 14 15  2  0  0  0  0
 15 16  1  0  0  0  0
M  END
