Coordinates from ORCA-job p-NO2-Ph-N2-X-Cl-B3LYPG-6-31G_dp-scan-d09-49-n400
 OpenBabel08281820523D

 16 15  0  0  0  0  0  0  0  0999 V2000
   -1.3365   -1.2189   -0.5593 C   0  0  0  0  0  0  0  0  0  0  0  0
    0.0529   -0.8967   -0.5831 C   0  0  0  0  0  0  0  0  0  0  0  0
    0.2188    0.4638   -0.8630 C   0  0  0  0  0  0  0  0  0  0  0  0
   -0.7302    1.4918   -1.1079 C   0  0  0  0  0  0  0  0  0  0  0  0
   -2.0460    1.0941   -1.0648 C   0  0  0  0  0  0  0  0  0  0  0  0
   -2.3156   -0.2645   -0.7884 C   0  0  0  0  0  0  0  0  0  0  0  0
   -1.6610   -2.2349   -0.3560 H   0  0  0  0  0  0  0  0  0  0  0  0
    1.9230   -2.3308   -0.2556 H   0  0  0  0  0  0  0  0  0  0  0  0
   -0.4453    2.5188   -1.3164 H   0  0  0  0  0  0  0  0  0  0  0  0
   -2.8651    1.7798   -1.2344 H   0  0  0  0  0  0  0  0  0  0  0  0
   -3.7470   -0.6684   -0.7475 N   0  0  0  0  0  0  0  0  0  0  0  0
   -4.5869    0.2064   -0.9555 O   0  0  0  0  0  0  0  0  0  0  0  0
   -3.9992   -1.8450   -0.5098 O   0  0  0  0  0  0  0  0  0  0  0  0
    1.5688    0.8358   -0.8975 N   0  0  0  0  0  0  0  0  0  0  0  0
    2.6639    1.0551   -0.9085 N   0  0  0  0  0  0  0  0  0  0  0  0
    2.7865   -2.7386   -0.1561 Cl  0  0  0  0  0  0  0  0  0  0  0  0
  1  7  1  0  0  0  0
  2  1  1  0  0  0  0
  3  2  2  0  0  0  0
  4  5  2  0  0  0  0
  4  3  1  0  0  0  0
  5  6  1  0  0  0  0
  6 11  1  0  0  0  0
  6  1  2  0  0  0  0
  8 16  1  0  0  0  0
  9  4  1  0  0  0  0
 10  5  1  0  0  0  0
 11 13  2  0  0  0  0
 12 11  2  0  0  0  0
 14  3  1  0  0  0  0
 15 14  1  0  0  0  0
M  RAD  3   2   2  14   2  15   3
M  END
