Coordinates from ORCA-job p-NO2-Ph-N2-X-Cl-B3LYPG-6-31G_dp-scan-d09-49-n400
 OpenBabel08281820523D

 16 16  0  0  0  0  0  0  0  0999 V2000
   -1.4134   -1.4644   -0.9156 C   0  0  0  0  0  0  0  0  0  0  0  0
   -0.0589   -1.2437   -1.1409 C   0  0  0  0  0  0  0  0  0  0  0  0
    0.4063    0.0736   -1.1864 C   0  0  0  0  0  0  0  0  0  0  0  0
   -0.4460    1.1727   -1.0529 C   0  0  0  0  0  0  0  0  0  0  0  0
   -1.7984    0.9455   -0.8220 C   0  0  0  0  0  0  0  0  0  0  0  0
   -2.2587   -0.3680   -0.7585 C   0  0  0  0  0  0  0  0  0  0  0  0
   -1.8215   -2.4656   -0.8591 H   0  0  0  0  0  0  0  0  0  0  0  0
    0.6262   -2.0731   -1.2717 H   0  0  0  0  0  0  0  0  0  0  0  0
   -0.0511    2.1803   -1.1140 H   0  0  0  0  0  0  0  0  0  0  0  0
   -2.4964    1.7628   -0.6939 H   0  0  0  0  0  0  0  0  0  0  0  0
   -3.6947   -0.6062   -0.5232 N   0  0  0  0  0  0  0  0  0  0  0  0
   -4.4164    0.3793   -0.3868 O   0  0  0  0  0  0  0  0  0  0  0  0
   -4.0749   -1.7740   -0.4804 O   0  0  0  0  0  0  0  0  0  0  0  0
    1.7798    0.3100   -1.4752 N   0  0  0  0  0  0  0  0  0  0  0  0
    2.7492    0.3542   -0.7998 N   0  0  0  0  0  0  0  0  0  0  0  0
    2.4504    0.0647    1.1764 Cl  0  0  0  0  0  0  0  0  0  0  0  0
  1  7  1  0  0  0  0
  1  6  2  0  0  0  0
  2  1  1  0  0  0  0
  3  2  2  0  0  0  0
  3  4  1  0  0  0  0
  4  5  2  0  0  0  0
  5  6  1  0  0  0  0
  5 10  1  0  0  0  0
  6 11  1  0  0  0  0
  8  2  1  0  0  0  0
  9  4  1  0  0  0  0
 11 13  2  0  0  0  0
 11 12  2  0  0  0  0
 14  3  1  0  0  0  0
 14 15  2  0  0  0  0
 15 16  1  0  0  0  0
M  END
