Coordinates from ORCA-job p-NO2-Ph-N2-X-Cl-B3LYPG-6-31G_dp-scan-d09-49-n400
 OpenBabel08281820523D

 16 16  0  0  0  0  0  0  0  0999 V2000
   -1.4653   -1.5178   -0.9923 C   0  0  0  0  0  0  0  0  0  0  0  0
   -0.1055   -1.3442   -1.2259 C   0  0  0  0  0  0  0  0  0  0  0  0
    0.4258   -0.0542   -1.1827 C   0  0  0  0  0  0  0  0  0  0  0  0
   -0.3657    1.0748   -0.9512 C   0  0  0  0  0  0  0  0  0  0  0  0
   -1.7283    0.8985   -0.7374 C   0  0  0  0  0  0  0  0  0  0  0  0
   -2.2533   -0.3925   -0.7590 C   0  0  0  0  0  0  0  0  0  0  0  0
   -1.9220   -2.4993   -0.9947 H   0  0  0  0  0  0  0  0  0  0  0  0
    0.5481   -2.1874   -1.4124 H   0  0  0  0  0  0  0  0  0  0  0  0
    0.0810    2.0617   -0.9301 H   0  0  0  0  0  0  0  0  0  0  0  0
   -2.3847    1.7381   -0.5482 H   0  0  0  0  0  0  0  0  0  0  0  0
   -3.6990   -0.5741   -0.5294 N   0  0  0  0  0  0  0  0  0  0  0  0
   -4.3722    0.4357   -0.3365 O   0  0  0  0  0  0  0  0  0  0  0  0
   -4.1365   -1.7221   -0.5602 O   0  0  0  0  0  0  0  0  0  0  0  0
    1.8088    0.1057   -1.4703 N   0  0  0  0  0  0  0  0  0  0  0  0
    2.7313    0.4358   -0.8074 N   0  0  0  0  0  0  0  0  0  0  0  0
    2.3185    0.7892    1.1337 Cl  0  0  0  0  0  0  0  0  0  0  0  0
  1  6  2  0  0  0  0
  2  3  2  0  0  0  0
  2  1  1  0  0  0  0
  3  4  1  0  0  0  0
  4  9  1  0  0  0  0
  4  5  2  0  0  0  0
  5 10  1  0  0  0  0
  6  5  1  0  0  0  0
  6 11  1  0  0  0  0
  7  1  1  0  0  0  0
  8  2  1  0  0  0  0
 11 12  2  0  0  0  0
 13 11  2  0  0  0  0
 14  3  1  0  0  0  0
 14 15  2  0  0  0  0
 15 16  1  0  0  0  0
M  END
