Coordinates from ORCA-job p-NO2-Ph-N2-X-Cl-B3LYPG-6-31G_dp-scan-d09-49-n400
 OpenBabel08281820523D

 16 16  0  0  0  0  0  0  0  0999 V2000
   -1.3733   -1.4080   -0.8176 C   0  0  0  0  0  0  0  0  0  0  0  0
   -0.0206   -1.1396   -0.9983 C   0  0  0  0  0  0  0  0  0  0  0  0
    0.3858    0.1947   -1.1199 C   0  0  0  0  0  0  0  0  0  0  0  0
   -0.5259    1.2552   -1.1022 C   0  0  0  0  0  0  0  0  0  0  0  0
   -1.8732    0.9826   -0.8951 C   0  0  0  0  0  0  0  0  0  0  0  0
   -2.2728   -0.3453   -0.7594 C   0  0  0  0  0  0  0  0  0  0  0  0
   -1.7383   -2.4222   -0.7156 H   0  0  0  0  0  0  0  0  0  0  0  0
    0.6996   -1.9461   -1.0528 H   0  0  0  0  0  0  0  0  0  0  0  0
   -0.1744    2.2723   -1.2331 H   0  0  0  0  0  0  0  0  0  0  0  0
   -2.6130    1.7713   -0.8502 H   0  0  0  0  0  0  0  0  0  0  0  0
   -3.7054   -0.6378   -0.5593 N   0  0  0  0  0  0  0  0  0  0  0  0
   -4.4750    0.3190   -0.5085 O   0  0  0  0  0  0  0  0  0  0  0  0
   -4.0328   -1.8176   -0.4579 O   0  0  0  0  0  0  0  0  0  0  0  0
    1.7445    0.5114   -1.3742 N   0  0  0  0  0  0  0  0  0  0  0  0
    2.7727    0.3102   -0.8309 N   0  0  0  0  0  0  0  0  0  0  0  0
    2.6833   -0.6521    0.9714 Cl  0  0  0  0  0  0  0  0  0  0  0  0
  1  6  1  0  0  0  0
  1  7  1  0  0  0  0
  2  1  2  0  0  0  0
  3  4  2  0  0  0  0
  3  2  1  0  0  0  0
  4  5  1  0  0  0  0
  5 10  1  0  0  0  0
  5  6  2  0  0  0  0
  6 11  1  0  0  0  0
  8  2  1  0  0  0  0
  9  4  1  0  0  0  0
 11 12  2  0  0  0  0
 11 13  2  0  0  0  0
 14  3  1  0  0  0  0
 14 15  2  0  0  0  0
 15 16  1  0  0  0  0
M  END
