Coordinates from ORCA-job p-NO2-Ph-N2-X-Cl-B3LYPG-6-31G_dp-scan-d09-49-n400
 OpenBabel08281820523D

 16 15  0  0  0  0  0  0  0  0999 V2000
   -1.3167   -1.2414   -0.5618 C   0  0  0  0  0  0  0  0  0  0  0  0
    0.0690   -0.9179   -0.5876 C   0  0  0  0  0  0  0  0  0  0  0  0
    0.2455    0.4426   -0.8626 C   0  0  0  0  0  0  0  0  0  0  0  0
   -0.7040    1.4703   -1.1014 C   0  0  0  0  0  0  0  0  0  0  0  0
   -2.0209    1.0746   -1.0571 C   0  0  0  0  0  0  0  0  0  0  0  0
   -2.2938   -0.2832   -0.7855 C   0  0  0  0  0  0  0  0  0  0  0  0
   -1.6396   -2.2583   -0.3615 H   0  0  0  0  0  0  0  0  0  0  0  0
    1.6726   -2.1178   -0.2986 H   0  0  0  0  0  0  0  0  0  0  0  0
   -0.4180    2.4974   -1.3068 H   0  0  0  0  0  0  0  0  0  0  0  0
   -2.8385    1.7631   -1.2225 H   0  0  0  0  0  0  0  0  0  0  0  0
   -3.7260   -0.6849   -0.7430 N   0  0  0  0  0  0  0  0  0  0  0  0
   -4.5637    0.1931   -0.9441 O   0  0  0  0  0  0  0  0  0  0  0  0
   -3.9784   -1.8616   -0.5080 O   0  0  0  0  0  0  0  0  0  0  0  0
    1.5950    0.8122   -0.8979 N   0  0  0  0  0  0  0  0  0  0  0  0
    2.6905    1.0262   -0.9093 N   0  0  0  0  0  0  0  0  0  0  0  0
    2.7084   -2.6664   -0.1561 Cl  0  0  0  0  0  0  0  0  0  0  0  0
  1  7  1  0  0  0  0
  2  1  1  0  0  0  0
  3  2  2  0  0  0  0
  4  5  2  0  0  0  0
  4  3  1  0  0  0  0
  5  6  1  0  0  0  0
  6 11  1  0  0  0  0
  6  1  2  0  0  0  0
  8 16  1  0  0  0  0
  9  4  1  0  0  0  0
 10  5  1  0  0  0  0
 11 13  2  0  0  0  0
 12 11  2  0  0  0  0
 14  3  1  0  0  0  0
 15 14  1  0  0  0  0
M  RAD  3   2   2  14   2  15   3
M  END
