Coordinates from ORCA-job p-NO2-Ph-N2-X-Cl-B3LYPG-6-31G_dp-scan-d09-49-n400
 OpenBabel08281820523D

 16 16  0  0  0  0  0  0  0  0999 V2000
   -1.3758   -1.4124   -0.8264 C   0  0  0  0  0  0  0  0  0  0  0  0
   -0.0231   -1.1476   -1.0117 C   0  0  0  0  0  0  0  0  0  0  0  0
    0.3875    0.1858   -1.1275 C   0  0  0  0  0  0  0  0  0  0  0  0
   -0.5200    1.2494   -1.1001 C   0  0  0  0  0  0  0  0  0  0  0  0
   -1.8675    0.9801   -0.8894 C   0  0  0  0  0  0  0  0  0  0  0  0
   -2.2714   -0.3470   -0.7591 C   0  0  0  0  0  0  0  0  0  0  0  0
   -1.7438   -2.4258   -0.7281 H   0  0  0  0  0  0  0  0  0  0  0  0
    0.6942   -1.9564   -1.0739 H   0  0  0  0  0  0  0  0  0  0  0  0
   -0.1657    2.2662   -1.2261 H   0  0  0  0  0  0  0  0  0  0  0  0
   -2.6042    1.7713   -0.8370 H   0  0  0  0  0  0  0  0  0  0  0  0
   -3.7041   -0.6354   -0.5547 N   0  0  0  0  0  0  0  0  0  0  0  0
   -4.4702    0.3237   -0.4957 O   0  0  0  0  0  0  0  0  0  0  0  0
   -4.0353   -1.8146   -0.4584 O   0  0  0  0  0  0  0  0  0  0  0  0
    1.7474    0.4957   -1.3862 N   0  0  0  0  0  0  0  0  0  0  0  0
    2.7711    0.3103   -0.8284 N   0  0  0  0  0  0  0  0  0  0  0  0
    2.6620   -0.5954    0.9989 Cl  0  0  0  0  0  0  0  0  0  0  0  0
  1  6  1  0  0  0  0
  1  7  1  0  0  0  0
  2  1  2  0  0  0  0
  3  4  2  0  0  0  0
  3  2  1  0  0  0  0
  4  5  1  0  0  0  0
  5 10  1  0  0  0  0
  5  6  2  0  0  0  0
  6 11  1  0  0  0  0
  8  2  1  0  0  0  0
  9  4  1  0  0  0  0
 11 12  2  0  0  0  0
 11 13  2  0  0  0  0
 14  3  1  0  0  0  0
 14 15  2  0  0  0  0
 15 16  1  0  0  0  0
M  END
