Coordinates from ORCA-job p-NO2-Ph-N2-X-Cl-B3LYPG-6-31G_dp-scan-d09-49-n400
 OpenBabel08281820523D

 16 15  0  0  0  0  0  0  0  0999 V2000
   -1.3068   -1.3030   -0.5492 C   0  0  0  0  0  0  0  0  0  0  0  0
    0.0370   -0.9404   -0.5866 C   0  0  0  0  0  0  0  0  0  0  0  0
    0.3407    0.3990   -0.8527 C   0  0  0  0  0  0  0  0  0  0  0  0
   -0.6260    1.3850   -1.0814 C   0  0  0  0  0  0  0  0  0  0  0  0
   -1.9632    1.0116   -1.0414 C   0  0  0  0  0  0  0  0  0  0  0  0
   -2.2734   -0.3242   -0.7761 C   0  0  0  0  0  0  0  0  0  0  0  0
   -1.6152   -2.3214   -0.3481 H   0  0  0  0  0  0  0  0  0  0  0  0
    0.9142   -1.6045   -0.4249 H   0  0  0  0  0  0  0  0  0  0  0  0
   -0.3281    2.4076   -1.2843 H   0  0  0  0  0  0  0  0  0  0  0  0
   -2.7623    1.7217   -1.2094 H   0  0  0  0  0  0  0  0  0  0  0  0
   -3.7014   -0.7152   -0.7356 N   0  0  0  0  0  0  0  0  0  0  0  0
   -4.5329    0.1664   -0.9378 O   0  0  0  0  0  0  0  0  0  0  0  0
   -3.9567   -1.8931   -0.5030 O   0  0  0  0  0  0  0  0  0  0  0  0
    1.7007    0.7876   -0.8941 N   0  0  0  0  0  0  0  0  0  0  0  0
    2.7545    0.3029   -0.7624 N   0  0  0  0  0  0  0  0  0  0  0  0
    2.8000   -1.8321   -0.3166 Cl  0  0  0  0  0  0  0  0  0  0  0  0
  1  7  1  0  0  0  0
  2  1  1  0  0  0  0
  2  8  1  0  0  0  0
  3  2  2  0  0  0  0
  4  5  2  0  0  0  0
  4  3  1  0  0  0  0
  5  6  1  0  0  0  0
  6 11  1  0  0  0  0
  6  1  2  0  0  0  0
  9  4  1  0  0  0  0
 10  5  1  0  0  0  0
 11 13  2  0  0  0  0
 12 11  2  0  0  0  0
 14  3  1  0  0  0  0
 14 15  2  0  0  0  0
M  RAD  2  15   2  16   2
M  END
