Coordinates from ORCA-job p-NO2-Ph-N2-X-Cl-B3LYPG-6-31G_dp-scan-d09-49-n400
 OpenBabel08281820523D

 16 16  0  0  0  0  0  0  0  0999 V2000
   -1.3282   -1.3112   -0.5487 C   0  0  0  0  0  0  0  0  0  0  0  0
    0.0188   -0.9629   -0.5834 C   0  0  0  0  0  0  0  0  0  0  0  0
    0.3463    0.3736   -0.8481 C   0  0  0  0  0  0  0  0  0  0  0  0
   -0.6187    1.3631   -1.0764 C   0  0  0  0  0  0  0  0  0  0  0  0
   -1.9607    1.0067   -1.0390 C   0  0  0  0  0  0  0  0  0  0  0  0
   -2.2863   -0.3244   -0.7758 C   0  0  0  0  0  0  0  0  0  0  0  0
   -1.6450   -2.3271   -0.3488 H   0  0  0  0  0  0  0  0  0  0  0  0
    0.8487   -1.6564   -0.4176 H   0  0  0  0  0  0  0  0  0  0  0  0
   -0.3099    2.3825   -1.2783 H   0  0  0  0  0  0  0  0  0  0  0  0
   -2.7503    1.7272   -1.2078 H   0  0  0  0  0  0  0  0  0  0  0  0
   -3.7171   -0.7029   -0.7377 N   0  0  0  0  0  0  0  0  0  0  0  0
   -4.5401    0.1860   -0.9419 O   0  0  0  0  0  0  0  0  0  0  0  0
   -3.9827   -1.8793   -0.5087 O   0  0  0  0  0  0  0  0  0  0  0  0
    1.6968    0.7850   -0.8970 N   0  0  0  0  0  0  0  0  0  0  0  0
    2.7723    0.3392   -0.7721 N   0  0  0  0  0  0  0  0  0  0  0  0
    2.9374   -1.7514   -0.3226 Cl  0  0  0  0  0  0  0  0  0  0  0  0
  1  7  1  0  0  0  0
  2  1  1  0  0  0  0
  2  8  1  0  0  0  0
  3  2  2  0  0  0  0
  4  5  2  0  0  0  0
  4  3  1  0  0  0  0
  5  6  1  0  0  0  0
  6 11  1  0  0  0  0
  6  1  2  0  0  0  0
  9  4  1  0  0  0  0
 10  5  1  0  0  0  0
 11 13  2  0  0  0  0
 12 11  2  0  0  0  0
 14  3  1  0  0  0  0
 14 15  2  0  0  0  0
 15 16  1  0  0  0  0
M  END
