Coordinates from ORCA-job p-NO2-Ph-N2-X-Cl-B3LYPG-6-31G_dp-scan-d09-49-n400
 OpenBabel08281820523D

 16 16  0  0  0  0  0  0  0  0999 V2000
   -1.3607   -1.3823   -0.7616 C   0  0  0  0  0  0  0  0  0  0  0  0
   -0.0082   -1.0935   -0.9108 C   0  0  0  0  0  0  0  0  0  0  0  0
    0.3757    0.2448   -1.0677 C   0  0  0  0  0  0  0  0  0  0  0  0
   -0.5587    1.2865   -1.1091 C   0  0  0  0  0  0  0  0  0  0  0  0
   -1.9056    0.9953   -0.9302 C   0  0  0  0  0  0  0  0  0  0  0  0
   -2.2815   -0.3362   -0.7629 C   0  0  0  0  0  0  0  0  0  0  0  0
   -1.7093   -2.3998   -0.6379 H   0  0  0  0  0  0  0  0  0  0  0  0
    0.7314   -1.8830   -0.9089 H   0  0  0  0  0  0  0  0  0  0  0  0
   -0.2212    2.3047   -1.2665 H   0  0  0  0  0  0  0  0  0  0  0  0
   -2.6620    1.7693   -0.9325 H   0  0  0  0  0  0  0  0  0  0  0  0
   -3.7145   -0.6517   -0.5934 N   0  0  0  0  0  0  0  0  0  0  0  0
   -4.5025    0.2910   -0.5897 O   0  0  0  0  0  0  0  0  0  0  0  0
   -4.0208   -1.8339   -0.4622 O   0  0  0  0  0  0  0  0  0  0  0  0
    1.7275    0.6006   -1.2881 N   0  0  0  0  0  0  0  0  0  0  0  0
    2.7813    0.3171   -0.8431 N   0  0  0  0  0  0  0  0  0  0  0  0
    2.8102   -0.9809    0.7607 Cl  0  0  0  0  0  0  0  0  0  0  0  0
  1  7  1  0  0  0  0
  2  8  1  0  0  0  0
  2  1  2  0  0  0  0
  3  2  1  0  0  0  0
  4  3  2  0  0  0  0
  4  5  1  0  0  0  0
  5  6  2  0  0  0  0
  6  1  1  0  0  0  0
  6 11  1  0  0  0  0
  9  4  1  0  0  0  0
 10  5  1  0  0  0  0
 11 12  2  0  0  0  0
 11 13  2  0  0  0  0
 14  3  1  0  0  0  0
 14 15  2  0  0  0  0
 15 16  1  0  0  0  0
M  END
