Coordinates from ORCA-job p-NO2-Ph-N2-X-Cl-B3LYPG-6-31G_dp-scan-d09-49-n400
 OpenBabel08281820523D

 16 16  0  0  0  0  0  0  0  0999 V2000
   -1.3583   -1.3545   -0.6795 C   0  0  0  0  0  0  0  0  0  0  0  0
   -0.0049   -1.0480   -0.7818 C   0  0  0  0  0  0  0  0  0  0  0  0
    0.3621    0.2910   -0.9811 C   0  0  0  0  0  0  0  0  0  0  0  0
   -0.5906    1.3123   -1.1006 C   0  0  0  0  0  0  0  0  0  0  0  0
   -1.9390    1.0034   -0.9752 C   0  0  0  0  0  0  0  0  0  0  0  0
   -2.2962   -0.3279   -0.7686 C   0  0  0  0  0  0  0  0  0  0  0  0
   -1.6943   -2.3722   -0.5257 H   0  0  0  0  0  0  0  0  0  0  0  0
    0.7531   -1.8156   -0.7035 H   0  0  0  0  0  0  0  0  0  0  0  0
   -0.2619    2.3294   -1.2819 H   0  0  0  0  0  0  0  0  0  0  0  0
   -2.7088    1.7608   -1.0454 H   0  0  0  0  0  0  0  0  0  0  0  0
   -3.7311   -0.6648   -0.6487 N   0  0  0  0  0  0  0  0  0  0  0  0
   -4.5351    0.2604   -0.7316 O   0  0  0  0  0  0  0  0  0  0  0  0
   -4.0207   -1.8453   -0.4755 O   0  0  0  0  0  0  0  0  0  0  0  0
    1.7068    0.6941   -1.1394 N   0  0  0  0  0  0  0  0  0  0  0  0
    2.7926    0.3593   -0.8381 N   0  0  0  0  0  0  0  0  0  0  0  0
    3.0075   -1.3347    0.3730 Cl  0  0  0  0  0  0  0  0  0  0  0  0
  1  7  1  0  0  0  0
  2  8  1  0  0  0  0
  2  1  2  0  0  0  0
  3  2  1  0  0  0  0
  4  3  2  0  0  0  0
  4  5  1  0  0  0  0
  5  6  2  0  0  0  0
  6  1  1  0  0  0  0
  6 11  1  0  0  0  0
  9  4  1  0  0  0  0
 10  5  1  0  0  0  0
 11 13  2  0  0  0  0
 12 11  2  0  0  0  0
 14  3  1  0  0  0  0
 14 15  2  0  0  0  0
 15 16  1  0  0  0  0
M  END
