Coordinates from ORCA-job p-NO2-Ph-N2-X-Cl-B3LYPG-6-31G_dp-scan-d09-49-n400
 OpenBabel08281820523D

 16 16  0  0  0  0  0  0  0  0999 V2000
   -1.4480   -1.5019   -0.9706 C   0  0  0  0  0  0  0  0  0  0  0  0
   -0.0904   -1.3140   -1.2065 C   0  0  0  0  0  0  0  0  0  0  0  0
    0.4200   -0.0146   -1.1938 C   0  0  0  0  0  0  0  0  0  0  0  0
   -0.3892    1.1065   -0.9897 C   0  0  0  0  0  0  0  0  0  0  0  0
   -1.7482    0.9142   -0.7665 C   0  0  0  0  0  0  0  0  0  0  0  0
   -2.2535   -0.3846   -0.7599 C   0  0  0  0  0  0  0  0  0  0  0  0
   -1.8895   -2.4903   -0.9516 H   0  0  0  0  0  0  0  0  0  0  0  0
    0.5736   -2.1534   -1.3740 H   0  0  0  0  0  0  0  0  0  0  0  0
    0.0417    2.1008   -0.9946 H   0  0  0  0  0  0  0  0  0  0  0  0
   -2.4170    1.7476   -0.5938 H   0  0  0  0  0  0  0  0  0  0  0  0
   -3.6955   -0.5837   -0.5239 N   0  0  0  0  0  0  0  0  0  0  0  0
   -4.3826    0.4190   -0.3425 O   0  0  0  0  0  0  0  0  0  0  0  0
   -4.1148   -1.7389   -0.5254 O   0  0  0  0  0  0  0  0  0  0  0  0
    1.8009    0.1694   -1.4844 N   0  0  0  0  0  0  0  0  0  0  0  0
    2.7336    0.4125   -0.7981 N   0  0  0  0  0  0  0  0  0  0  0  0
    2.3402    0.5593    1.1714 Cl  0  0  0  0  0  0  0  0  0  0  0  0
  1  7  1  0  0  0  0
  1  6  2  0  0  0  0
  2  3  2  0  0  0  0
  2  1  1  0  0  0  0
  3  4  1  0  0  0  0
  4  5  2  0  0  0  0
  5  6  1  0  0  0  0
  5 10  1  0  0  0  0
  6 11  1  0  0  0  0
  8  2  1  0  0  0  0
  9  4  1  0  0  0  0
 11 12  2  0  0  0  0
 13 11  2  0  0  0  0
 14  3  1  0  0  0  0
 14 15  2  0  0  0  0
 15 16  1  0  0  0  0
M  END
