Coordinates from ORCA-job p-NO2-Ph-N2-X-Cl-B3LYPG-6-31G_dp-scan-d09-49-n400
 OpenBabel08281820523D

 16 15  0  0  0  0  0  0  0  0999 V2000
   -1.2850   -1.2927   -0.5489 C   0  0  0  0  0  0  0  0  0  0  0  0
    0.0579   -0.9184   -0.5882 C   0  0  0  0  0  0  0  0  0  0  0  0
    0.3304    0.4232   -0.8566 C   0  0  0  0  0  0  0  0  0  0  0  0
   -0.6356    1.4088   -1.0861 C   0  0  0  0  0  0  0  0  0  0  0  0
   -1.9673    1.0184   -1.0431 C   0  0  0  0  0  0  0  0  0  0  0  0
   -2.2606   -0.3228   -0.7756 C   0  0  0  0  0  0  0  0  0  0  0  0
   -1.5864   -2.3133   -0.3466 H   0  0  0  0  0  0  0  0  0  0  0  0
    1.0030   -1.5656   -0.4281 H   0  0  0  0  0  0  0  0  0  0  0  0
   -0.3480    2.4342   -1.2904 H   0  0  0  0  0  0  0  0  0  0  0  0
   -2.7761    1.7175   -1.2102 H   0  0  0  0  0  0  0  0  0  0  0  0
   -3.6860   -0.7266   -0.7337 N   0  0  0  0  0  0  0  0  0  0  0  0
   -4.5260    0.1472   -0.9356 O   0  0  0  0  0  0  0  0  0  0  0  0
   -3.9309   -1.9064   -0.5007 O   0  0  0  0  0  0  0  0  0  0  0  0
    1.7023    0.7871   -0.8928 N   0  0  0  0  0  0  0  0  0  0  0  0
    2.7369    0.2794   -0.7591 N   0  0  0  0  0  0  0  0  0  0  0  0
    2.6527   -1.9222   -0.3082 Cl  0  0  0  0  0  0  0  0  0  0  0  0
  1  7  1  0  0  0  0
  2  1  1  0  0  0  0
  2  8  1  0  0  0  0
  3  2  2  0  0  0  0
  4  5  2  0  0  0  0
  4  3  1  0  0  0  0
  5  6  1  0  0  0  0
  6 11  1  0  0  0  0
  6  1  2  0  0  0  0
  9  4  1  0  0  0  0
 10  5  1  0  0  0  0
 11 13  2  0  0  0  0
 12 11  2  0  0  0  0
 14  3  1  0  0  0  0
 14 15  2  0  0  0  0
M  RAD  2  15   2  16   2
M  END
