Coordinates from ORCA-job p-NO2-Ph-N2-X-Cl-B3LYPG-6-31G_dp-scan-d09-49-n400
 OpenBabel08281820523D

 16 16  0  0  0  0  0  0  0  0999 V2000
   -1.4673   -1.5192   -0.9954 C   0  0  0  0  0  0  0  0  0  0  0  0
   -0.1072   -1.3470   -1.2278 C   0  0  0  0  0  0  0  0  0  0  0  0
    0.4262   -0.0577   -1.1811 C   0  0  0  0  0  0  0  0  0  0  0  0
   -0.3640    1.0720   -0.9478 C   0  0  0  0  0  0  0  0  0  0  0  0
   -1.7271    0.8971   -0.7361 C   0  0  0  0  0  0  0  0  0  0  0  0
   -2.2539   -0.3931   -0.7607 C   0  0  0  0  0  0  0  0  0  0  0  0
   -1.9255   -2.5000   -1.0002 H   0  0  0  0  0  0  0  0  0  0  0  0
    0.5454   -2.1907   -1.4157 H   0  0  0  0  0  0  0  0  0  0  0  0
    0.0839    2.0582   -0.9241 H   0  0  0  0  0  0  0  0  0  0  0  0
   -2.3826    1.7372   -0.5460 H   0  0  0  0  0  0  0  0  0  0  0  0
   -3.7001   -0.5731   -0.5330 N   0  0  0  0  0  0  0  0  0  0  0  0
   -4.3711    0.4367   -0.3329 O   0  0  0  0  0  0  0  0  0  0  0  0
   -4.1382   -1.7210   -0.5601 O   0  0  0  0  0  0  0  0  0  0  0  0
    1.8097    0.1002   -1.4672 N   0  0  0  0  0  0  0  0  0  0  0  0
    2.7318    0.4377   -0.8072 N   0  0  0  0  0  0  0  0  0  0  0  0
    2.3212    0.8107    1.1315 Cl  0  0  0  0  0  0  0  0  0  0  0  0
  1  6  2  0  0  0  0
  2  3  2  0  0  0  0
  2  1  1  0  0  0  0
  3  4  1  0  0  0  0
  4  9  1  0  0  0  0
  4  5  2  0  0  0  0
  5 10  1  0  0  0  0
  6  5  1  0  0  0  0
  6 11  1  0  0  0  0
  7  1  1  0  0  0  0
  8  2  1  0  0  0  0
 11 12  2  0  0  0  0
 13 11  2  0  0  0  0
 14  3  1  0  0  0  0
 14 15  2  0  0  0  0
 15 16  1  0  0  0  0
M  END
