Coordinates from ORCA-job p-NO2-Ph-N2-X-Cl-B3LYPG-6-31G_dp-scan-d09-49-n400
 OpenBabel08281820523D

 16 15  0  0  0  0  0  0  0  0999 V2000
   -1.3373   -1.2182   -0.5587 C   0  0  0  0  0  0  0  0  0  0  0  0
    0.0522   -0.8961   -0.5821 C   0  0  0  0  0  0  0  0  0  0  0  0
    0.2179    0.4643   -0.8625 C   0  0  0  0  0  0  0  0  0  0  0  0
   -0.7310    1.4923   -1.1082 C   0  0  0  0  0  0  0  0  0  0  0  0
   -2.0467    1.0946   -1.0656 C   0  0  0  0  0  0  0  0  0  0  0  0
   -2.3164   -0.2639   -0.7887 C   0  0  0  0  0  0  0  0  0  0  0  0
   -1.6620   -2.2341   -0.3551 H   0  0  0  0  0  0  0  0  0  0  0  0
    1.9323   -2.3379   -0.2546 H   0  0  0  0  0  0  0  0  0  0  0  0
   -0.4460    2.5192   -1.3171 H   0  0  0  0  0  0  0  0  0  0  0  0
   -2.8658    1.7801   -1.2358 H   0  0  0  0  0  0  0  0  0  0  0  0
   -3.7478   -0.6679   -0.7483 N   0  0  0  0  0  0  0  0  0  0  0  0
   -4.5876    0.2071   -0.9556 O   0  0  0  0  0  0  0  0  0  0  0  0
   -4.0002   -1.8442   -0.5093 O   0  0  0  0  0  0  0  0  0  0  0  0
    1.5680    0.8362   -0.8966 N   0  0  0  0  0  0  0  0  0  0  0  0
    2.6632    1.0553   -0.9073 N   0  0  0  0  0  0  0  0  0  0  0  0
    2.7883   -2.7388   -0.1583 Cl  0  0  0  0  0  0  0  0  0  0  0  0
  1  7  1  0  0  0  0
  2  1  1  0  0  0  0
  3  2  2  0  0  0  0
  4  5  2  0  0  0  0
  4  3  1  0  0  0  0
  5  6  1  0  0  0  0
  6 11  1  0  0  0  0
  6  1  2  0  0  0  0
  8 16  1  0  0  0  0
  9  4  1  0  0  0  0
 10  5  1  0  0  0  0
 11 13  2  0  0  0  0
 12 11  2  0  0  0  0
 14  3  1  0  0  0  0
 15 14  1  0  0  0  0
M  RAD  3   2   2  14   2  15   3
M  END
