Coordinates from ORCA-job p-NO2-Ph-N2-X-Cl-B3LYPG-6-31G_dp-scan-d09-49-n400
 OpenBabel08281820523D

 16 16  0  0  0  0  0  0  0  0999 V2000
   -1.5023   -1.5453   -1.0381 C   0  0  0  0  0  0  0  0  0  0  0  0
   -0.1364   -1.3977   -1.2496 C   0  0  0  0  0  0  0  0  0  0  0  0
    0.4345   -0.1277   -1.1359 C   0  0  0  0  0  0  0  0  0  0  0  0
   -0.3286    1.0132   -0.8617 C   0  0  0  0  0  0  0  0  0  0  0  0
   -1.6991    0.8655   -0.6784 C   0  0  0  0  0  0  0  0  0  0  0  0
   -2.2594   -0.4080   -0.7631 C   0  0  0  0  0  0  0  0  0  0  0  0
   -1.9877   -2.5113   -1.0937 H   0  0  0  0  0  0  0  0  0  0  0  0
    0.4978   -2.2460   -1.4757 H   0  0  0  0  0  0  0  0  0  0  0  0
    0.1442    1.9844   -0.7879 H   0  0  0  0  0  0  0  0  0  0  0  0
   -2.3352    1.7146   -0.4636 H   0  0  0  0  0  0  0  0  0  0  0  0
   -3.7140   -0.5574   -0.5603 N   0  0  0  0  0  0  0  0  0  0  0  0
   -4.3595    0.4612   -0.3253 O   0  0  0  0  0  0  0  0  0  0  0  0
   -4.1820   -1.6907   -0.6412 O   0  0  0  0  0  0  0  0  0  0  0  0
    1.8237   -0.0208   -1.3996 N   0  0  0  0  0  0  0  0  0  0  0  0
    2.7414    0.4568   -0.8289 N   0  0  0  0  0  0  0  0  0  0  0  0
    2.3438    1.2569    0.9993 Cl  0  0  0  0  0  0  0  0  0  0  0  0
  1  6  2  0  0  0  0
  2  3  2  0  0  0  0
  2  1  1  0  0  0  0
  3  4  1  0  0  0  0
  4  9  1  0  0  0  0
  4  5  2  0  0  0  0
  5 10  1  0  0  0  0
  6  5  1  0  0  0  0
  6 11  1  0  0  0  0
  7  1  1  0  0  0  0
  8  2  1  0  0  0  0
 11 12  2  0  0  0  0
 13 11  2  0  0  0  0
 14  3  1  0  0  0  0
 14 15  2  0  0  0  0
 15 16  1  0  0  0  0
M  END
