Coordinates from ORCA-job p-NO2-Ph-N2-X-Cl-B3LYPG-6-31G_dp-scan-d09-49-n400
 OpenBabel08281820523D

 16 15  0  0  0  0  0  0  0  0999 V2000
   -1.2763   -1.2783   -0.5507 C   0  0  0  0  0  0  0  0  0  0  0  0
    0.0751   -0.9067   -0.5889 C   0  0  0  0  0  0  0  0  0  0  0  0
    0.3002    0.4356   -0.8591 C   0  0  0  0  0  0  0  0  0  0  0  0
   -0.6548    1.4330   -1.0911 C   0  0  0  0  0  0  0  0  0  0  0  0
   -1.9807    1.0316   -1.0462 C   0  0  0  0  0  0  0  0  0  0  0  0
   -2.2586   -0.3162   -0.7767 C   0  0  0  0  0  0  0  0  0  0  0  0
   -1.5782   -2.2997   -0.3481 H   0  0  0  0  0  0  0  0  0  0  0  0
    1.1729   -1.6066   -0.4146 H   0  0  0  0  0  0  0  0  0  0  0  0
   -0.3717    2.4600   -1.2961 H   0  0  0  0  0  0  0  0  0  0  0  0
   -2.7971    1.7218   -1.2122 H   0  0  0  0  0  0  0  0  0  0  0  0
   -3.6838   -0.7280   -0.7339 N   0  0  0  0  0  0  0  0  0  0  0  0
   -4.5289    0.1414   -0.9357 O   0  0  0  0  0  0  0  0  0  0  0  0
   -3.9234   -1.9085   -0.5004 O   0  0  0  0  0  0  0  0  0  0  0  0
    1.6896    0.7769   -0.8908 N   0  0  0  0  0  0  0  0  0  0  0  0
    2.7389    0.3455   -0.7735 N   0  0  0  0  0  0  0  0  0  0  0  0
    2.5581   -2.0542   -0.2858 Cl  0  0  0  0  0  0  0  0  0  0  0  0
  1  7  1  0  0  0  0
  2  1  1  0  0  0  0
  2  8  1  0  0  0  0
  3  2  2  0  0  0  0
  4  5  2  0  0  0  0
  4  3  1  0  0  0  0
  5  6  1  0  0  0  0
  6 11  1  0  0  0  0
  6  1  2  0  0  0  0
  9  4  1  0  0  0  0
 10  5  1  0  0  0  0
 11 13  2  0  0  0  0
 12 11  2  0  0  0  0
 14  3  1  0  0  0  0
 14 15  2  0  0  0  0
M  RAD  2  15   2  16   2
M  END
