Coordinates from ORCA-job p-NO2-Ph-N2-X-Cl-B3LYPG-6-31G_dp-scan-d09-49-n400
 OpenBabel08281820523D

 16 16  0  0  0  0  0  0  0  0999 V2000
   -1.4339   -1.4877   -0.9498 C   0  0  0  0  0  0  0  0  0  0  0  0
   -0.0778   -1.2874   -1.1843 C   0  0  0  0  0  0  0  0  0  0  0  0
    0.4149    0.0195   -1.1953 C   0  0  0  0  0  0  0  0  0  0  0  0
   -0.4107    1.1327   -1.0171 C   0  0  0  0  0  0  0  0  0  0  0  0
   -1.7669    0.9268   -0.7882 C   0  0  0  0  0  0  0  0  0  0  0  0
   -2.2547   -0.3781   -0.7584 C   0  0  0  0  0  0  0  0  0  0  0  0
   -1.8622   -2.4814   -0.9150 H   0  0  0  0  0  0  0  0  0  0  0  0
    0.5939   -2.1235   -1.3384 H   0  0  0  0  0  0  0  0  0  0  0  0
    0.0060    2.1329   -1.0449 H   0  0  0  0  0  0  0  0  0  0  0  0
   -2.4467    1.7544   -0.6314 H   0  0  0  0  0  0  0  0  0  0  0  0
   -3.6939   -0.5924   -0.5197 N   0  0  0  0  0  0  0  0  0  0  0  0
   -4.3949    0.4041   -0.3577 O   0  0  0  0  0  0  0  0  0  0  0  0
   -4.0984   -1.7528   -0.5057 O   0  0  0  0  0  0  0  0  0  0  0  0
    1.7930    0.2243   -1.4872 N   0  0  0  0  0  0  0  0  0  0  0  0
    2.7387    0.3895   -0.7961 N   0  0  0  0  0  0  0  0  0  0  0  0
    2.3747    0.3669    1.1853 Cl  0  0  0  0  0  0  0  0  0  0  0  0
  1  7  1  0  0  0  0
  1  6  2  0  0  0  0
  2  1  1  0  0  0  0
  3  2  2  0  0  0  0
  3  4  1  0  0  0  0
  4  5  2  0  0  0  0
  5  6  1  0  0  0  0
  5 10  1  0  0  0  0
  6 11  1  0  0  0  0
  8  2  1  0  0  0  0
  9  4  1  0  0  0  0
 11 13  2  0  0  0  0
 11 12  2  0  0  0  0
 14  3  1  0  0  0  0
 14 15  2  0  0  0  0
 15 16  1  0  0  0  0
M  END
