Coordinates from ORCA-job p-NO2-Ph-N2-X-Cl-B3LYPG-6-31G_dp-scan-d09-49-n400
 OpenBabel08281820523D

 16 16  0  0  0  0  0  0  0  0999 V2000
   -1.3603   -1.3222   -0.5493 C   0  0  0  0  0  0  0  0  0  0  0  0
   -0.0075   -0.9968   -0.5795 C   0  0  0  0  0  0  0  0  0  0  0  0
    0.3503    0.3352   -0.8410 C   0  0  0  0  0  0  0  0  0  0  0  0
   -0.6099    1.3320   -1.0698 C   0  0  0  0  0  0  0  0  0  0  0  0
   -1.9581    1.0004   -1.0373 C   0  0  0  0  0  0  0  0  0  0  0  0
   -2.3056   -0.3241   -0.7769 C   0  0  0  0  0  0  0  0  0  0  0  0
   -1.6904   -2.3341   -0.3513 H   0  0  0  0  0  0  0  0  0  0  0  0
    0.7644   -1.7367   -0.4074 H   0  0  0  0  0  0  0  0  0  0  0  0
   -0.2852    2.3468   -1.2698 H   0  0  0  0  0  0  0  0  0  0  0  0
   -2.7338    1.7355   -1.2079 H   0  0  0  0  0  0  0  0  0  0  0  0
   -3.7407   -0.6840   -0.7417 N   0  0  0  0  0  0  0  0  0  0  0  0
   -4.5510    0.2160   -0.9474 O   0  0  0  0  0  0  0  0  0  0  0  0
   -4.0220   -1.8565   -0.5119 O   0  0  0  0  0  0  0  0  0  0  0  0
    1.6901    0.7755   -0.8963 N   0  0  0  0  0  0  0  0  0  0  0  0
    2.7958    0.4005   -0.7834 N   0  0  0  0  0  0  0  0  0  0  0  0
    3.1450   -1.6395   -0.3329 Cl  0  0  0  0  0  0  0  0  0  0  0  0
  1  7  1  0  0  0  0
  2  1  1  0  0  0  0
  2  8  1  0  0  0  0
  3  2  2  0  0  0  0
  4  5  2  0  0  0  0
  4  3  1  0  0  0  0
  5  6  1  0  0  0  0
  6 11  1  0  0  0  0
  6  1  2  0  0  0  0
  9  4  1  0  0  0  0
 10  5  1  0  0  0  0
 11 13  2  0  0  0  0
 12 11  2  0  0  0  0
 14  3  1  0  0  0  0
 14 15  2  0  0  0  0
 15 16  1  0  0  0  0
M  END
