Coordinates from ORCA-job p-NO2-Ph-N2-X-Cl-B3LYPG-6-31G_dp-scan-d09-49-n400
 OpenBabel08281820523D

 16 16  0  0  0  0  0  0  0  0999 V2000
   -1.4376   -1.4914   -0.9561 C   0  0  0  0  0  0  0  0  0  0  0  0
   -0.0810   -1.2945   -1.1909 C   0  0  0  0  0  0  0  0  0  0  0  0
    0.4163    0.0105   -1.1955 C   0  0  0  0  0  0  0  0  0  0  0  0
   -0.4049    1.1259   -1.0105 C   0  0  0  0  0  0  0  0  0  0  0  0
   -1.7619    0.9235   -0.7834 C   0  0  0  0  0  0  0  0  0  0  0  0
   -2.2544   -0.3798   -0.7598 C   0  0  0  0  0  0  0  0  0  0  0  0
   -1.8694   -2.4837   -0.9256 H   0  0  0  0  0  0  0  0  0  0  0  0
    0.5885   -2.1316   -1.3483 H   0  0  0  0  0  0  0  0  0  0  0  0
    0.0155    2.1246   -1.0322 H   0  0  0  0  0  0  0  0  0  0  0  0
   -2.4387    1.7528   -0.6224 H   0  0  0  0  0  0  0  0  0  0  0  0
   -3.6944   -0.5900   -0.5221 N   0  0  0  0  0  0  0  0  0  0  0  0
   -4.3910    0.4080   -0.3508 O   0  0  0  0  0  0  0  0  0  0  0  0
   -4.1021   -1.7492   -0.5080 O   0  0  0  0  0  0  0  0  0  0  0  0
    1.7953    0.2099   -1.4867 N   0  0  0  0  0  0  0  0  0  0  0  0
    2.7372    0.3956   -0.7954 N   0  0  0  0  0  0  0  0  0  0  0  0
    2.3639    0.4175    1.1838 Cl  0  0  0  0  0  0  0  0  0  0  0  0
  1  7  1  0  0  0  0
  1  6  2  0  0  0  0
  2  1  1  0  0  0  0
  3  2  2  0  0  0  0
  3  4  1  0  0  0  0
  4  5  2  0  0  0  0
  5  6  1  0  0  0  0
  5 10  1  0  0  0  0
  6 11  1  0  0  0  0
  8  2  1  0  0  0  0
  9  4  1  0  0  0  0
 11 13  2  0  0  0  0
 11 12  2  0  0  0  0
 14  3  1  0  0  0  0
 14 15  2  0  0  0  0
 15 16  1  0  0  0  0
M  END
