Coordinates from ORCA-job p-NO2-Ph-N2-X-Cl-B3LYPG-6-31G_dp-scan-d09-49-n400
 OpenBabel08281820523D

 16 16  0  0  0  0  0  0  0  0999 V2000
   -1.3504   -1.3189   -0.5494 C   0  0  0  0  0  0  0  0  0  0  0  0
    0.0005   -0.9862   -0.5809 C   0  0  0  0  0  0  0  0  0  0  0  0
    0.3493    0.3473   -0.8432 C   0  0  0  0  0  0  0  0  0  0  0  0
   -0.6126    1.3416   -1.0719 C   0  0  0  0  0  0  0  0  0  0  0  0
   -1.9589    1.0023   -1.0381 C   0  0  0  0  0  0  0  0  0  0  0  0
   -2.2997   -0.3243   -0.7769 C   0  0  0  0  0  0  0  0  0  0  0  0
   -1.6763   -2.3321   -0.3509 H   0  0  0  0  0  0  0  0  0  0  0  0
    0.7895   -1.7117   -0.4108 H   0  0  0  0  0  0  0  0  0  0  0  0
   -0.2929    2.3579   -1.2724 H   0  0  0  0  0  0  0  0  0  0  0  0
   -2.7389    1.7328   -1.2082 H   0  0  0  0  0  0  0  0  0  0  0  0
   -3.7334   -0.6900   -0.7408 N   0  0  0  0  0  0  0  0  0  0  0  0
   -4.5477    0.2067   -0.9451 O   0  0  0  0  0  0  0  0  0  0  0  0
   -4.0099   -1.8635   -0.5099 O   0  0  0  0  0  0  0  0  0  0  0  0
    1.6923    0.7792   -0.8963 N   0  0  0  0  0  0  0  0  0  0  0  0
    2.7890    0.3811   -0.7793 N   0  0  0  0  0  0  0  0  0  0  0  0
    3.0813   -1.6743   -0.3296 Cl  0  0  0  0  0  0  0  0  0  0  0  0
  1  7  1  0  0  0  0
  2  1  1  0  0  0  0
  2  8  1  0  0  0  0
  3  2  2  0  0  0  0
  4  5  2  0  0  0  0
  4  3  1  0  0  0  0
  5  6  1  0  0  0  0
  6 11  1  0  0  0  0
  6  1  2  0  0  0  0
  9  4  1  0  0  0  0
 10  5  1  0  0  0  0
 11 13  2  0  0  0  0
 12 11  2  0  0  0  0
 14  3  1  0  0  0  0
 14 15  2  0  0  0  0
 15 16  1  0  0  0  0
M  END
