Coordinates from ORCA-job p-NO2-Ph-N2-X-Cl-B3LYPG-6-31G_dp-scan-d09-49-n400
 OpenBabel08281820523D

 16 16  0  0  0  0  0  0  0  0999 V2000
   -1.3582   -1.3668   -0.7188 C   0  0  0  0  0  0  0  0  0  0  0  0
   -0.0052   -1.0677   -0.8439 C   0  0  0  0  0  0  0  0  0  0  0  0
    0.3682    0.2716   -1.0231 C   0  0  0  0  0  0  0  0  0  0  0  0
   -0.5774    1.3019   -1.1057 C   0  0  0  0  0  0  0  0  0  0  0  0
   -1.9251    1.0008   -0.9533 C   0  0  0  0  0  0  0  0  0  0  0  0
   -2.2895   -0.3312   -0.7652 C   0  0  0  0  0  0  0  0  0  0  0  0
   -1.6990   -2.3849   -0.5794 H   0  0  0  0  0  0  0  0  0  0  0  0
    0.7450   -1.8455   -0.8012 H   0  0  0  0  0  0  0  0  0  0  0  0
   -0.2456    2.3197   -1.2774 H   0  0  0  0  0  0  0  0  0  0  0  0
   -2.6896    1.7657   -0.9911 H   0  0  0  0  0  0  0  0  0  0  0  0
   -3.7234   -0.6590   -0.6213 N   0  0  0  0  0  0  0  0  0  0  0  0
   -4.5214    0.2742   -0.6643 O   0  0  0  0  0  0  0  0  0  0  0  0
   -4.0197   -1.8410   -0.4694 O   0  0  0  0  0  0  0  0  0  0  0  0
    1.7158    0.6536   -1.2140 N   0  0  0  0  0  0  0  0  0  0  0  0
    2.7879    0.3373   -0.8454 N   0  0  0  0  0  0  0  0  0  0  0  0
    2.9186   -1.1806    0.5697 Cl  0  0  0  0  0  0  0  0  0  0  0  0
  1  7  1  0  0  0  0
  2  8  1  0  0  0  0
  2  1  2  0  0  0  0
  3  2  1  0  0  0  0
  4  3  2  0  0  0  0
  4  5  1  0  0  0  0
  5  6  2  0  0  0  0
  6  1  1  0  0  0  0
  6 11  1  0  0  0  0
  9  4  1  0  0  0  0
 10  5  1  0  0  0  0
 11 13  2  0  0  0  0
 12 11  2  0  0  0  0
 14  3  1  0  0  0  0
 14 15  2  0  0  0  0
 15 16  1  0  0  0  0
M  END
