Coordinates from ORCA-job p-NO2-Ph-N2-X-Cl-B3LYPG-6-31G_dp-scan-d09-49-n400
 OpenBabel08281820523D

 16 16  0  0  0  0  0  0  0  0999 V2000
   -1.4208   -1.4731   -0.9288 C   0  0  0  0  0  0  0  0  0  0  0  0
   -0.0658   -1.2600   -1.1582 C   0  0  0  0  0  0  0  0  0  0  0  0
    0.4095    0.0536   -1.1911 C   0  0  0  0  0  0  0  0  0  0  0  0
   -0.4329    1.1582   -1.0408 C   0  0  0  0  0  0  0  0  0  0  0  0
   -1.7866    0.9387   -0.8099 C   0  0  0  0  0  0  0  0  0  0  0  0
   -2.2571   -0.3717   -0.7586 C   0  0  0  0  0  0  0  0  0  0  0  0
   -1.8364   -2.4717   -0.8801 H   0  0  0  0  0  0  0  0  0  0  0  0
    0.6142   -2.0921   -1.2979 H   0  0  0  0  0  0  0  0  0  0  0  0
   -0.0301    2.1633   -1.0898 H   0  0  0  0  0  0  0  0  0  0  0  0
   -2.4779    1.7600   -0.6708 H   0  0  0  0  0  0  0  0  0  0  0  0
   -3.6942   -0.6011   -0.5214 N   0  0  0  0  0  0  0  0  0  0  0  0
   -4.4080    0.3886   -0.3742 O   0  0  0  0  0  0  0  0  0  0  0  0
   -4.0832   -1.7664   -0.4879 O   0  0  0  0  0  0  0  0  0  0  0  0
    1.7848    0.2783   -1.4817 N   0  0  0  0  0  0  0  0  0  0  0  0
    2.7452    0.3668   -0.7973 N   0  0  0  0  0  0  0  0  0  0  0  0
    2.4204    0.1764    1.1847 Cl  0  0  0  0  0  0  0  0  0  0  0  0
  1  7  1  0  0  0  0
  1  6  2  0  0  0  0
  2  1  1  0  0  0  0
  3  2  2  0  0  0  0
  3  4  1  0  0  0  0
  4  5  2  0  0  0  0
  5  6  1  0  0  0  0
  5 10  1  0  0  0  0
  6 11  1  0  0  0  0
  8  2  1  0  0  0  0
  9  4  1  0  0  0  0
 11 13  2  0  0  0  0
 11 12  2  0  0  0  0
 14  3  1  0  0  0  0
 14 15  2  0  0  0  0
 15 16  1  0  0  0  0
M  END
