Coordinates from ORCA-job p-NO2-Ph-N2-X-Cl-B3LYPG-6-31G_dp-scan-d09-49-n400
 OpenBabel08281820523D

 16 16  0  0  0  0  0  0  0  0999 V2000
   -1.3426   -1.3163   -0.5498 C   0  0  0  0  0  0  0  0  0  0  0  0
    0.0068   -0.9780   -0.5827 C   0  0  0  0  0  0  0  0  0  0  0  0
    0.3485    0.3565   -0.8454 C   0  0  0  0  0  0  0  0  0  0  0  0
   -0.6147    1.3491   -1.0736 C   0  0  0  0  0  0  0  0  0  0  0  0
   -1.9595    1.0038   -1.0384 C   0  0  0  0  0  0  0  0  0  0  0  0
   -2.2950   -0.3244   -0.7767 C   0  0  0  0  0  0  0  0  0  0  0  0
   -1.6652   -2.3305   -0.3510 H   0  0  0  0  0  0  0  0  0  0  0  0
    0.8094   -1.6927   -0.4142 H   0  0  0  0  0  0  0  0  0  0  0  0
   -0.2988    2.3665   -1.2745 H   0  0  0  0  0  0  0  0  0  0  0  0
   -2.7429    1.7310   -1.2077 H   0  0  0  0  0  0  0  0  0  0  0  0
   -3.7277   -0.6946   -0.7397 N   0  0  0  0  0  0  0  0  0  0  0  0
   -4.5451    0.1995   -0.9428 O   0  0  0  0  0  0  0  0  0  0  0  0
   -4.0002   -1.8690   -0.5088 O   0  0  0  0  0  0  0  0  0  0  0  0
    1.6940    0.7816   -0.8971 N   0  0  0  0  0  0  0  0  0  0  0  0
    2.7834    0.3662   -0.7765 N   0  0  0  0  0  0  0  0  0  0  0  0
    3.0308   -1.7007   -0.3247 Cl  0  0  0  0  0  0  0  0  0  0  0  0
  1  7  1  0  0  0  0
  2  1  1  0  0  0  0
  2  8  1  0  0  0  0
  3  2  2  0  0  0  0
  4  5  2  0  0  0  0
  4  3  1  0  0  0  0
  5  6  1  0  0  0  0
  6 11  1  0  0  0  0
  6  1  2  0  0  0  0
  9  4  1  0  0  0  0
 10  5  1  0  0  0  0
 11 13  2  0  0  0  0
 12 11  2  0  0  0  0
 14  3  1  0  0  0  0
 14 15  2  0  0  0  0
 15 16  1  0  0  0  0
M  END
