Coordinates from ORCA-job p-NO2-Ph-N2-X-Cl-B3LYPG-6-31G_dp-scan-d09-49-n400
 OpenBabel08281820523D

 16 15  0  0  0  0  0  0  0  0999 V2000
   -1.3399   -1.2151   -0.5561 C   0  0  0  0  0  0  0  0  0  0  0  0
    0.0499   -0.8927   -0.5788 C   0  0  0  0  0  0  0  0  0  0  0  0
    0.2147    0.4671   -0.8614 C   0  0  0  0  0  0  0  0  0  0  0  0
   -0.7341    1.4947   -1.1098 C   0  0  0  0  0  0  0  0  0  0  0  0
   -2.0497    1.0966   -1.0675 C   0  0  0  0  0  0  0  0  0  0  0  0
   -2.3191   -0.2616   -0.7885 C   0  0  0  0  0  0  0  0  0  0  0  0
   -1.6647   -2.2308   -0.3513 H   0  0  0  0  0  0  0  0  0  0  0  0
    1.9734   -2.3672   -0.2487 H   0  0  0  0  0  0  0  0  0  0  0  0
   -0.4493    2.5213   -1.3203 H   0  0  0  0  0  0  0  0  0  0  0  0
   -2.8687    1.7818   -1.2396 H   0  0  0  0  0  0  0  0  0  0  0  0
   -3.7505   -0.6660   -0.7486 N   0  0  0  0  0  0  0  0  0  0  0  0
   -4.5906    0.2089   -0.9555 O   0  0  0  0  0  0  0  0  0  0  0  0
   -4.0027   -1.8430   -0.5128 O   0  0  0  0  0  0  0  0  0  0  0  0
    1.5648    0.8393   -0.8950 N   0  0  0  0  0  0  0  0  0  0  0  0
    2.6604    1.0568   -0.9049 N   0  0  0  0  0  0  0  0  0  0  0  0
    2.7872   -2.7423   -0.1648 Cl  0  0  0  0  0  0  0  0  0  0  0  0
  1  7  1  0  0  0  0
  2  1  1  0  0  0  0
  3  2  2  0  0  0  0
  4  5  2  0  0  0  0
  4  3  1  0  0  0  0
  5  6  1  0  0  0  0
  6 11  1  0  0  0  0
  6  1  2  0  0  0  0
  8 16  1  0  0  0  0
  9  4  1  0  0  0  0
 10  5  1  0  0  0  0
 11 13  2  0  0  0  0
 12 11  2  0  0  0  0
 14  3  1  0  0  0  0
 15 14  1  0  0  0  0
M  RAD  3   2   2  14   2  15   3
M  END
