Coordinates from ORCA-job p-NO2-Ph-N2-X-Cl-B3LYPG-6-31G_dp-scan-d09-49-n400
 OpenBabel08281820523D

 16 15  0  0  0  0  0  0  0  0999 V2000
   -1.2939   -1.2973   -0.5485 C   0  0  0  0  0  0  0  0  0  0  0  0
    0.0490   -0.9274   -0.5877 C   0  0  0  0  0  0  0  0  0  0  0  0
    0.3356    0.4134   -0.8553 C   0  0  0  0  0  0  0  0  0  0  0  0
   -0.6312    1.3986   -1.0842 C   0  0  0  0  0  0  0  0  0  0  0  0
   -1.9653    1.0153   -1.0419 C   0  0  0  0  0  0  0  0  0  0  0  0
   -2.2658   -0.3234   -0.7749 C   0  0  0  0  0  0  0  0  0  0  0  0
   -1.5981   -2.3169   -0.3462 H   0  0  0  0  0  0  0  0  0  0  0  0
    0.9622   -1.5786   -0.4269 H   0  0  0  0  0  0  0  0  0  0  0  0
   -0.3394    2.4228   -1.2882 H   0  0  0  0  0  0  0  0  0  0  0  0
   -2.7700    1.7191   -1.2091 H   0  0  0  0  0  0  0  0  0  0  0  0
   -3.6923   -0.7217   -0.7324 N   0  0  0  0  0  0  0  0  0  0  0  0
   -4.5286    0.1545   -0.9386 O   0  0  0  0  0  0  0  0  0  0  0  0
   -3.9414   -1.9015   -0.5033 O   0  0  0  0  0  0  0  0  0  0  0  0
    1.7020    0.7876   -0.8935 N   0  0  0  0  0  0  0  0  0  0  0  0
    2.7438    0.2861   -0.7598 N   0  0  0  0  0  0  0  0  0  0  0  0
    2.7145   -1.8830   -0.3133 Cl  0  0  0  0  0  0  0  0  0  0  0  0
  1  7  1  0  0  0  0
  2  1  1  0  0  0  0
  2  8  1  0  0  0  0
  3  2  2  0  0  0  0
  4  5  2  0  0  0  0
  4  3  1  0  0  0  0
  5  6  1  0  0  0  0
  6 11  1  0  0  0  0
  6  1  2  0  0  0  0
  9  4  1  0  0  0  0
 10  5  1  0  0  0  0
 11 13  2  0  0  0  0
 12 11  2  0  0  0  0
 14  3  1  0  0  0  0
 14 15  2  0  0  0  0
M  RAD  2  15   2  16   2
M  END
