Coordinates from ORCA-job p-NO2-Ph-N2-X-Cl-B3LYPG-6-31G_dp-scan-d09-49-n400
 OpenBabel08281820523D

 16 16  0  0  0  0  0  0  0  0999 V2000
   -1.5161   -1.5535   -1.0554 C   0  0  0  0  0  0  0  0  0  0  0  0
   -0.1475   -1.4151   -1.2537 C   0  0  0  0  0  0  0  0  0  0  0  0
    0.4367   -0.1530   -1.1103 C   0  0  0  0  0  0  0  0  0  0  0  0
   -0.3184    0.9908   -0.8230 C   0  0  0  0  0  0  0  0  0  0  0  0
   -1.6920    0.8527   -0.6541 C   0  0  0  0  0  0  0  0  0  0  0  0
   -2.2636   -0.4137   -0.7646 C   0  0  0  0  0  0  0  0  0  0  0  0
   -2.0108   -2.5131   -1.1344 H   0  0  0  0  0  0  0  0  0  0  0  0
    0.4783   -2.2652   -1.4964 H   0  0  0  0  0  0  0  0  0  0  0  0
    0.1622    1.9559   -0.7292 H   0  0  0  0  0  0  0  0  0  0  0  0
   -2.3218    1.7043   -0.4310 H   0  0  0  0  0  0  0  0  0  0  0  0
   -3.7216   -0.5525   -0.5747 N   0  0  0  0  0  0  0  0  0  0  0  0
   -4.3588    0.4680   -0.3266 O   0  0  0  0  0  0  0  0  0  0  0  0
   -4.1994   -1.6797   -0.6786 O   0  0  0  0  0  0  0  0  0  0  0  0
    1.8287   -0.0662   -1.3584 N   0  0  0  0  0  0  0  0  0  0  0  0
    2.7503    0.4539   -0.8354 N   0  0  0  0  0  0  0  0  0  0  0  0
    2.3750    1.4344    0.9222 Cl  0  0  0  0  0  0  0  0  0  0  0  0
  1  6  2  0  0  0  0
  2  3  2  0  0  0  0
  2  1  1  0  0  0  0
  3  4  1  0  0  0  0
  4  9  1  0  0  0  0
  4  5  2  0  0  0  0
  5 10  1  0  0  0  0
  6  5  1  0  0  0  0
  6 11  1  0  0  0  0
  7  1  1  0  0  0  0
  8  2  1  0  0  0  0
 11 12  2  0  0  0  0
 13 11  2  0  0  0  0
 14  3  1  0  0  0  0
 14 15  2  0  0  0  0
 15 16  1  0  0  0  0
M  END
