Coordinates from ORCA-job p-NO2-Ph-N2-X-Cl-B3LYPG-6-31G_dp-scan-d09-49-n400
 OpenBabel08281820523D

 16 15  0  0  0  0  0  0  0  0999 V2000
   -1.3193   -1.2371   -0.5624 C   0  0  0  0  0  0  0  0  0  0  0  0
    0.0672   -0.9137   -0.5885 C   0  0  0  0  0  0  0  0  0  0  0  0
    0.2409    0.4472   -0.8637 C   0  0  0  0  0  0  0  0  0  0  0  0
   -0.7090    1.4749   -1.1024 C   0  0  0  0  0  0  0  0  0  0  0  0
   -2.0256    1.0784   -1.0577 C   0  0  0  0  0  0  0  0  0  0  0  0
   -2.2973   -0.2798   -0.7859 C   0  0  0  0  0  0  0  0  0  0  0  0
   -1.6423   -2.2540   -0.3621 H   0  0  0  0  0  0  0  0  0  0  0  0
    1.7128   -2.1546   -0.2903 H   0  0  0  0  0  0  0  0  0  0  0  0
   -0.4236    2.5022   -1.3079 H   0  0  0  0  0  0  0  0  0  0  0  0
   -2.8437    1.7663   -1.2229 H   0  0  0  0  0  0  0  0  0  0  0  0
   -3.7291   -0.6823   -0.7429 N   0  0  0  0  0  0  0  0  0  0  0  0
   -4.5676    0.1947   -0.9455 O   0  0  0  0  0  0  0  0  0  0  0  0
   -3.9811   -1.8595   -0.5094 O   0  0  0  0  0  0  0  0  0  0  0  0
    1.5902    0.8179   -0.8995 N   0  0  0  0  0  0  0  0  0  0  0  0
    2.6853    1.0342   -0.9115 N   0  0  0  0  0  0  0  0  0  0  0  0
    2.7233   -2.6869   -0.1511 Cl  0  0  0  0  0  0  0  0  0  0  0  0
  1  7  1  0  0  0  0
  2  1  1  0  0  0  0
  3  2  2  0  0  0  0
  4  5  2  0  0  0  0
  4  3  1  0  0  0  0
  5  6  1  0  0  0  0
  6 11  1  0  0  0  0
  6  1  2  0  0  0  0
  8 16  1  0  0  0  0
  9  4  1  0  0  0  0
 10  5  1  0  0  0  0
 11 13  2  0  0  0  0
 12 11  2  0  0  0  0
 14  3  1  0  0  0  0
 15 14  1  0  0  0  0
M  RAD  3   2   2  14   2  15   3
M  END
