Coordinates from ORCA-job p-NO2-Ph-N2-X-Cl-B3LYPG-6-31G_dp-scan-d09-49-n400
 OpenBabel08281820523D

 16 16  0  0  0  0  0  0  0  0999 V2000
   -1.4348   -1.4885   -0.9515 C   0  0  0  0  0  0  0  0  0  0  0  0
   -0.0786   -1.2890   -1.1859 C   0  0  0  0  0  0  0  0  0  0  0  0
    0.4151    0.0175   -1.1953 C   0  0  0  0  0  0  0  0  0  0  0  0
   -0.4095    1.1312   -1.0158 C   0  0  0  0  0  0  0  0  0  0  0  0
   -1.7659    0.9261   -0.7875 C   0  0  0  0  0  0  0  0  0  0  0  0
   -2.2548   -0.3785   -0.7592 C   0  0  0  0  0  0  0  0  0  0  0  0
   -1.8640   -2.4819   -0.9178 H   0  0  0  0  0  0  0  0  0  0  0  0
    0.5925   -2.1255   -1.3406 H   0  0  0  0  0  0  0  0  0  0  0  0
    0.0079    2.1311   -1.0421 H   0  0  0  0  0  0  0  0  0  0  0  0
   -2.4451    1.7541   -0.6299 H   0  0  0  0  0  0  0  0  0  0  0  0
   -3.6942   -0.5919   -0.5210 N   0  0  0  0  0  0  0  0  0  0  0  0
   -4.3939    0.4049   -0.3553 O   0  0  0  0  0  0  0  0  0  0  0  0
   -4.0992   -1.7521   -0.5052 O   0  0  0  0  0  0  0  0  0  0  0  0
    1.7936    0.2213   -1.4868 N   0  0  0  0  0  0  0  0  0  0  0  0
    2.7386    0.3909   -0.7956 N   0  0  0  0  0  0  0  0  0  0  0  0
    2.3736    0.3781    1.1857 Cl  0  0  0  0  0  0  0  0  0  0  0  0
  1  7  1  0  0  0  0
  1  6  2  0  0  0  0
  2  1  1  0  0  0  0
  3  2  2  0  0  0  0
  3  4  1  0  0  0  0
  4  5  2  0  0  0  0
  5  6  1  0  0  0  0
  5 10  1  0  0  0  0
  6 11  1  0  0  0  0
  8  2  1  0  0  0  0
  9  4  1  0  0  0  0
 11 13  2  0  0  0  0
 11 12  2  0  0  0  0
 14  3  1  0  0  0  0
 14 15  2  0  0  0  0
 15 16  1  0  0  0  0
M  END
