Coordinates from ORCA-job p-NO2-Ph-N2-X-Cl-B3LYPG-6-31G_dp-scan-d09-49-n400
 OpenBabel08281820523D

 16 16  0  0  0  0  0  0  0  0999 V2000
   -1.4142   -1.4654   -0.9166 C   0  0  0  0  0  0  0  0  0  0  0  0
   -0.0596   -1.2455   -1.1425 C   0  0  0  0  0  0  0  0  0  0  0  0
    0.4067    0.0714   -1.1868 C   0  0  0  0  0  0  0  0  0  0  0  0
   -0.4446    1.1711   -1.0515 C   0  0  0  0  0  0  0  0  0  0  0  0
   -1.7971    0.9448   -0.8203 C   0  0  0  0  0  0  0  0  0  0  0  0
   -2.2585   -0.3684   -0.7579 C   0  0  0  0  0  0  0  0  0  0  0  0
   -1.8231   -2.4663   -0.8609 H   0  0  0  0  0  0  0  0  0  0  0  0
    0.6247   -2.0754   -1.2747 H   0  0  0  0  0  0  0  0  0  0  0  0
   -0.0488    2.1784   -1.1114 H   0  0  0  0  0  0  0  0  0  0  0  0
   -2.4944    1.7625   -0.6909 H   0  0  0  0  0  0  0  0  0  0  0  0
   -3.6945   -0.6057   -0.5221 N   0  0  0  0  0  0  0  0  0  0  0  0
   -4.4158    0.3803   -0.3867 O   0  0  0  0  0  0  0  0  0  0  0  0
   -4.0761   -1.7732   -0.4825 O   0  0  0  0  0  0  0  0  0  0  0  0
    1.7802    0.3068   -1.4761 N   0  0  0  0  0  0  0  0  0  0  0  0
    2.7488    0.3555   -0.8000 N   0  0  0  0  0  0  0  0  0  0  0  0
    2.4474    0.0770    1.1770 Cl  0  0  0  0  0  0  0  0  0  0  0  0
  1  7  1  0  0  0  0
  1  6  2  0  0  0  0
  2  1  1  0  0  0  0
  3  2  2  0  0  0  0
  3  4  1  0  0  0  0
  4  5  2  0  0  0  0
  5  6  1  0  0  0  0
  5 10  1  0  0  0  0
  6 11  1  0  0  0  0
  8  2  1  0  0  0  0
  9  4  1  0  0  0  0
 11 13  2  0  0  0  0
 11 12  2  0  0  0  0
 14  3  1  0  0  0  0
 14 15  2  0  0  0  0
 15 16  1  0  0  0  0
M  END
