Coordinates from ORCA-job p-NO2-Ph-N2-X-Cl-B3LYPG-6-31G_dp-scan-d09-49-n400
 OpenBabel08281820523D

 16 15  0  0  0  0  0  0  0  0999 V2000
   -1.2750   -1.2841   -0.5500 C   0  0  0  0  0  0  0  0  0  0  0  0
    0.0713   -0.9082   -0.5895 C   0  0  0  0  0  0  0  0  0  0  0  0
    0.3154    0.4342   -0.8589 C   0  0  0  0  0  0  0  0  0  0  0  0
   -0.6457    1.4247   -1.0894 C   0  0  0  0  0  0  0  0  0  0  0  0
   -1.9736    1.0255   -1.0447 C   0  0  0  0  0  0  0  0  0  0  0  0
   -2.2560   -0.3198   -0.7759 C   0  0  0  0  0  0  0  0  0  0  0  0
   -1.5751   -2.3056   -0.3474 H   0  0  0  0  0  0  0  0  0  0  0  0
    1.0947   -1.5726   -0.4241 H   0  0  0  0  0  0  0  0  0  0  0  0
   -0.3625    2.4515   -1.2942 H   0  0  0  0  0  0  0  0  0  0  0  0
   -2.7880    1.7181   -1.2108 H   0  0  0  0  0  0  0  0  0  0  0  0
   -3.6806   -0.7303   -0.7330 N   0  0  0  0  0  0  0  0  0  0  0  0
   -4.5250    0.1396   -0.9345 O   0  0  0  0  0  0  0  0  0  0  0  0
   -3.9206   -1.9109   -0.4997 O   0  0  0  0  0  0  0  0  0  0  0  0
    1.6979    0.7836   -0.8922 N   0  0  0  0  0  0  0  0  0  0  0  0
    2.7325    0.2984   -0.7633 N   0  0  0  0  0  0  0  0  0  0  0  0
    2.5714   -1.9961   -0.2961 Cl  0  0  0  0  0  0  0  0  0  0  0  0
  1  7  1  0  0  0  0
  2  1  1  0  0  0  0
  2  8  1  0  0  0  0
  3  2  2  0  0  0  0
  4  5  2  0  0  0  0
  4  3  1  0  0  0  0
  5  6  1  0  0  0  0
  6 11  1  0  0  0  0
  6  1  2  0  0  0  0
  9  4  1  0  0  0  0
 10  5  1  0  0  0  0
 11 13  2  0  0  0  0
 12 11  2  0  0  0  0
 14  3  1  0  0  0  0
 14 15  2  0  0  0  0
M  RAD  2  15   2  16   2
M  END
