Coordinates from ORCA-job p-NO2-Ph-N2-X-Cl-B3LYPG-6-31G_dp-scan-d09-49-n400
 OpenBabel08281820523D

 16 16  0  0  0  0  0  0  0  0999 V2000
   -1.3591   -1.3758   -0.7446 C   0  0  0  0  0  0  0  0  0  0  0  0
   -0.0065   -1.0825   -0.8847 C   0  0  0  0  0  0  0  0  0  0  0  0
    0.3726    0.2564   -1.0507 C   0  0  0  0  0  0  0  0  0  0  0  0
   -0.5667    1.2933   -1.1084 C   0  0  0  0  0  0  0  0  0  0  0  0
   -1.9137    0.9978   -0.9391 C   0  0  0  0  0  0  0  0  0  0  0  0
   -2.2845   -0.3340   -0.7633 C   0  0  0  0  0  0  0  0  0  0  0  0
   -1.7042   -2.3937   -0.6145 H   0  0  0  0  0  0  0  0  0  0  0  0
    0.7378   -1.8671   -0.8662 H   0  0  0  0  0  0  0  0  0  0  0  0
   -0.2318    2.3114   -1.2720 H   0  0  0  0  0  0  0  0  0  0  0  0
   -2.6738    1.7681   -0.9551 H   0  0  0  0  0  0  0  0  0  0  0  0
   -3.7177   -0.6548   -0.6033 N   0  0  0  0  0  0  0  0  0  0  0  0
   -4.5103    0.2840   -0.6191 O   0  0  0  0  0  0  0  0  0  0  0  0
   -4.0198   -1.8373   -0.4659 O   0  0  0  0  0  0  0  0  0  0  0  0
    1.7228    0.6225   -1.2604 N   0  0  0  0  0  0  0  0  0  0  0  0
    2.7839    0.3235   -0.8452 N   0  0  0  0  0  0  0  0  0  0  0  0
    2.8521   -1.0639    0.6887 Cl  0  0  0  0  0  0  0  0  0  0  0  0
  1  7  1  0  0  0  0
  2  8  1  0  0  0  0
  2  1  2  0  0  0  0
  3  2  1  0  0  0  0
  4  3  2  0  0  0  0
  4  5  1  0  0  0  0
  5  6  2  0  0  0  0
  6  1  1  0  0  0  0
  6 11  1  0  0  0  0
  9  4  1  0  0  0  0
 10  5  1  0  0  0  0
 11 13  2  0  0  0  0
 12 11  2  0  0  0  0
 14  3  1  0  0  0  0
 14 15  2  0  0  0  0
 15 16  1  0  0  0  0
M  END
