Coordinates from ORCA-job p-NO2-Ph-N2-X-Cl-B3LYPG-6-31G_dp-scan-d09-49-n400
 OpenBabel08281820523D

 16 15  0  0  0  0  0  0  0  0999 V2000
   -1.3002   -1.3005   -0.5500 C   0  0  0  0  0  0  0  0  0  0  0  0
    0.0430   -0.9341   -0.5885 C   0  0  0  0  0  0  0  0  0  0  0  0
    0.3385    0.4061   -0.8547 C   0  0  0  0  0  0  0  0  0  0  0  0
   -0.6284    1.3917   -1.0831 C   0  0  0  0  0  0  0  0  0  0  0  0
   -1.9641    1.0133   -1.0419 C   0  0  0  0  0  0  0  0  0  0  0  0
   -2.2695   -0.3240   -0.7761 C   0  0  0  0  0  0  0  0  0  0  0  0
   -1.6064   -2.3196   -0.3487 H   0  0  0  0  0  0  0  0  0  0  0  0
    0.9372   -1.5911   -0.4278 H   0  0  0  0  0  0  0  0  0  0  0  0
   -0.3336    2.4152   -1.2862 H   0  0  0  0  0  0  0  0  0  0  0  0
   -2.7660    1.7203   -1.2091 H   0  0  0  0  0  0  0  0  0  0  0  0
   -3.6967   -0.7186   -0.7344 N   0  0  0  0  0  0  0  0  0  0  0  0
   -4.5307    0.1608   -0.9360 O   0  0  0  0  0  0  0  0  0  0  0  0
   -3.9489   -1.8970   -0.5014 O   0  0  0  0  0  0  0  0  0  0  0  0
    1.7014    0.7877   -0.8940 N   0  0  0  0  0  0  0  0  0  0  0  0
    2.7490    0.2940   -0.7600 N   0  0  0  0  0  0  0  0  0  0  0  0
    2.7567   -1.8563   -0.3119 Cl  0  0  0  0  0  0  0  0  0  0  0  0
  1  7  1  0  0  0  0
  2  1  1  0  0  0  0
  2  8  1  0  0  0  0
  3  2  2  0  0  0  0
  4  5  2  0  0  0  0
  4  3  1  0  0  0  0
  5  6  1  0  0  0  0
  6 11  1  0  0  0  0
  6  1  2  0  0  0  0
  9  4  1  0  0  0  0
 10  5  1  0  0  0  0
 11 13  2  0  0  0  0
 12 11  2  0  0  0  0
 14  3  1  0  0  0  0
 14 15  2  0  0  0  0
M  RAD  2  15   2  16   2
M  END
