Coordinates from ORCA-job p-NO2-Ph-N2-X-Cl-B3LYPG-6-31G_dp-scan-d09-49-n400
 OpenBabel08281820523D

 16 16  0  0  0  0  0  0  0  0999 V2000
   -1.5102   -1.5501   -1.0479 C   0  0  0  0  0  0  0  0  0  0  0  0
   -0.1428   -1.4078   -1.2522 C   0  0  0  0  0  0  0  0  0  0  0  0
    0.4358   -0.1422   -1.1217 C   0  0  0  0  0  0  0  0  0  0  0  0
   -0.3226    1.0004   -0.8400 C   0  0  0  0  0  0  0  0  0  0  0  0
   -1.6948    0.8583   -0.6647 C   0  0  0  0  0  0  0  0  0  0  0  0
   -2.2617   -0.4113   -0.7639 C   0  0  0  0  0  0  0  0  0  0  0  0
   -2.0010   -2.5125   -1.1166 H   0  0  0  0  0  0  0  0  0  0  0  0
    0.4867   -2.2571   -1.4878 H   0  0  0  0  0  0  0  0  0  0  0  0
    0.1548    1.9682   -0.7550 H   0  0  0  0  0  0  0  0  0  0  0  0
   -2.3272    1.7089   -0.4453 H   0  0  0  0  0  0  0  0  0  0  0  0
   -3.7182   -0.5546   -0.5683 N   0  0  0  0  0  0  0  0  0  0  0  0
   -4.3589    0.4652   -0.3258 O   0  0  0  0  0  0  0  0  0  0  0  0
   -4.1919   -1.6844   -0.6621 O   0  0  0  0  0  0  0  0  0  0  0  0
    1.8266   -0.0468   -1.3771 N   0  0  0  0  0  0  0  0  0  0  0  0
    2.7462    0.4559   -0.8329 N   0  0  0  0  0  0  0  0  0  0  0  0
    2.3605    1.3579    0.9576 Cl  0  0  0  0  0  0  0  0  0  0  0  0
  1  6  2  0  0  0  0
  2  3  2  0  0  0  0
  2  1  1  0  0  0  0
  3  4  1  0  0  0  0
  4  9  1  0  0  0  0
  4  5  2  0  0  0  0
  5 10  1  0  0  0  0
  6  5  1  0  0  0  0
  6 11  1  0  0  0  0
  7  1  1  0  0  0  0
  8  2  1  0  0  0  0
 11 12  2  0  0  0  0
 13 11  2  0  0  0  0
 14  3  1  0  0  0  0
 14 15  2  0  0  0  0
 15 16  1  0  0  0  0
M  END
