Coordinates from ORCA-job p-NO2-Ph-N2-X-Cl-B3LYPG-6-31G_dp-scan-d09-49-n400
 OpenBabel08281820523D

 16 16  0  0  0  0  0  0  0  0999 V2000
   -1.3739   -1.4088   -0.8190 C   0  0  0  0  0  0  0  0  0  0  0  0
   -0.0211   -1.1412   -1.0004 C   0  0  0  0  0  0  0  0  0  0  0  0
    0.3861    0.1929   -1.1210 C   0  0  0  0  0  0  0  0  0  0  0  0
   -0.5249    1.2540   -1.1017 C   0  0  0  0  0  0  0  0  0  0  0  0
   -1.8723    0.9821   -0.8941 C   0  0  0  0  0  0  0  0  0  0  0  0
   -2.2727   -0.3456   -0.7592 C   0  0  0  0  0  0  0  0  0  0  0  0
   -1.7394   -2.4228   -0.7177 H   0  0  0  0  0  0  0  0  0  0  0  0
    0.6983   -1.9483   -1.0566 H   0  0  0  0  0  0  0  0  0  0  0  0
   -0.1728    2.2710   -1.2319 H   0  0  0  0  0  0  0  0  0  0  0  0
   -2.6115    1.7714   -0.8480 H   0  0  0  0  0  0  0  0  0  0  0  0
   -3.7053   -0.6373   -0.5584 N   0  0  0  0  0  0  0  0  0  0  0  0
   -4.4743    0.3199   -0.5067 O   0  0  0  0  0  0  0  0  0  0  0  0
   -4.0335   -1.8170   -0.4584 O   0  0  0  0  0  0  0  0  0  0  0  0
    1.7448    0.5090   -1.3758 N   0  0  0  0  0  0  0  0  0  0  0  0
    2.7727    0.3107   -0.8307 N   0  0  0  0  0  0  0  0  0  0  0  0
    2.6810   -0.6421    0.9760 Cl  0  0  0  0  0  0  0  0  0  0  0  0
  1  6  1  0  0  0  0
  1  7  1  0  0  0  0
  2  1  2  0  0  0  0
  3  4  2  0  0  0  0
  3  2  1  0  0  0  0
  4  5  1  0  0  0  0
  5 10  1  0  0  0  0
  5  6  2  0  0  0  0
  6 11  1  0  0  0  0
  8  2  1  0  0  0  0
  9  4  1  0  0  0  0
 11 12  2  0  0  0  0
 11 13  2  0  0  0  0
 14  3  1  0  0  0  0
 14 15  2  0  0  0  0
 15 16  1  0  0  0  0
M  END
