Coordinates from ORCA-job p-NO2-Ph-N2-X-Cl-B3LYPG-6-31G_dp-scan-d09-49-n400
 OpenBabel08281820523D

 16 15  0  0  0  0  0  0  0  0999 V2000
   -1.3035   -1.3020   -0.5502 C   0  0  0  0  0  0  0  0  0  0  0  0
    0.0400   -0.9375   -0.5876 C   0  0  0  0  0  0  0  0  0  0  0  0
    0.3396    0.4024   -0.8536 C   0  0  0  0  0  0  0  0  0  0  0  0
   -0.6271    1.3882   -1.0823 C   0  0  0  0  0  0  0  0  0  0  0  0
   -1.9635    1.0123   -1.0421 C   0  0  0  0  0  0  0  0  0  0  0  0
   -2.2713   -0.3243   -0.7769 C   0  0  0  0  0  0  0  0  0  0  0  0
   -1.6110   -2.3207   -0.3491 H   0  0  0  0  0  0  0  0  0  0  0  0
    0.9251   -1.5977   -0.4262 H   0  0  0  0  0  0  0  0  0  0  0  0
   -0.3306    2.4113   -1.2851 H   0  0  0  0  0  0  0  0  0  0  0  0
   -2.7640    1.7209   -1.2099 H   0  0  0  0  0  0  0  0  0  0  0  0
   -3.6990   -0.7172   -0.7362 N   0  0  0  0  0  0  0  0  0  0  0  0
   -4.5317    0.1640   -0.9353 O   0  0  0  0  0  0  0  0  0  0  0  0
   -3.9528   -1.8947   -0.5006 O   0  0  0  0  0  0  0  0  0  0  0  0
    1.7011    0.7876   -0.8935 N   0  0  0  0  0  0  0  0  0  0  0  0
    2.7518    0.2989   -0.7606 N   0  0  0  0  0  0  0  0  0  0  0  0
    2.7779   -1.8435   -0.3146 Cl  0  0  0  0  0  0  0  0  0  0  0  0
  1  7  1  0  0  0  0
  2  1  1  0  0  0  0
  2  8  1  0  0  0  0
  3  2  2  0  0  0  0
  4  5  2  0  0  0  0
  4  3  1  0  0  0  0
  5  6  1  0  0  0  0
  6 11  1  0  0  0  0
  6  1  2  0  0  0  0
  9  4  1  0  0  0  0
 10  5  1  0  0  0  0
 11 13  2  0  0  0  0
 12 11  2  0  0  0  0
 14  3  1  0  0  0  0
 14 15  2  0  0  0  0
M  RAD  2  15   2  16   2
M  END
