Coordinates from ORCA-job p-NO2-Ph-N2-X-Cl-B3LYPG-6-31G_dp-scan-d09-49-n400
 OpenBabel08281820523D

 16 15  0  0  0  0  0  0  0  0999 V2000
   -1.3018   -1.2725   -0.5525 C   0  0  0  0  0  0  0  0  0  0  0  0
    0.0741   -0.9436   -0.5799 C   0  0  0  0  0  0  0  0  0  0  0  0
    0.2776    0.4119   -0.8541 C   0  0  0  0  0  0  0  0  0  0  0  0
   -0.6685    1.4371   -1.0935 C   0  0  0  0  0  0  0  0  0  0  0  0
   -1.9893    1.0465   -1.0508 C   0  0  0  0  0  0  0  0  0  0  0  0
   -2.2727   -0.3067   -0.7794 C   0  0  0  0  0  0  0  0  0  0  0  0
   -1.6220   -2.2896   -0.3512 H   0  0  0  0  0  0  0  0  0  0  0  0
    1.3911   -1.8622   -0.3574 H   0  0  0  0  0  0  0  0  0  0  0  0
   -0.3783    2.4627   -1.2988 H   0  0  0  0  0  0  0  0  0  0  0  0
   -2.8020    1.7404   -1.2182 H   0  0  0  0  0  0  0  0  0  0  0  0
   -3.7069   -0.7015   -0.7392 N   0  0  0  0  0  0  0  0  0  0  0  0
   -4.5385    0.1805   -0.9444 O   0  0  0  0  0  0  0  0  0  0  0  0
   -3.9625   -1.8772   -0.5050 O   0  0  0  0  0  0  0  0  0  0  0  0
    1.6329    0.7620   -0.8859 N   0  0  0  0  0  0  0  0  0  0  0  0
    2.7380    0.9098   -0.8842 N   0  0  0  0  0  0  0  0  0  0  0  0
    2.6100   -2.4497   -0.2093 Cl  0  0  0  0  0  0  0  0  0  0  0  0
  1  7  1  0  0  0  0
  2  1  1  0  0  0  0
  3  2  2  0  0  0  0
  4  5  2  0  0  0  0
  4  3  1  0  0  0  0
  5  6  1  0  0  0  0
  6 11  1  0  0  0  0
  6  1  2  0  0  0  0
  8 16  1  0  0  0  0
  9  4  1  0  0  0  0
 10  5  1  0  0  0  0
 11 13  2  0  0  0  0
 12 11  2  0  0  0  0
 14 15  1  0  0  0  0
 14  3  1  0  0  0  0
M  RAD  3   2   2  14   2  15   3
M  END
