Coordinates from ORCA-job p-NO2-Ph-N2-X-Cl-B3LYPG-6-31G_dp-scan-d09-49-n400
 OpenBabel08281820523D

 16 16  0  0  0  0  0  0  0  0999 V2000
   -1.3970   -1.4432   -0.8814 C   0  0  0  0  0  0  0  0  0  0  0  0
   -0.0434   -1.2043   -1.0930 C   0  0  0  0  0  0  0  0  0  0  0  0
    0.3985    0.1207   -1.1677 C   0  0  0  0  0  0  0  0  0  0  0  0
   -0.4774    1.2059   -1.0768 C   0  0  0  0  0  0  0  0  0  0  0  0
   -1.8273    0.9607   -0.8502 C   0  0  0  0  0  0  0  0  0  0  0  0
   -2.2638   -0.3592   -0.7585 C   0  0  0  0  0  0  0  0  0  0  0  0
   -1.7879   -2.4501   -0.8075 H   0  0  0  0  0  0  0  0  0  0  0  0
    0.6540   -2.0267   -1.2002 H   0  0  0  0  0  0  0  0  0  0  0  0
   -0.1006    2.2184   -1.1659 H   0  0  0  0  0  0  0  0  0  0  0  0
   -2.5417    1.7679   -0.7512 H   0  0  0  0  0  0  0  0  0  0  0  0
   -3.6978   -0.6184   -0.5323 N   0  0  0  0  0  0  0  0  0  0  0  0
   -4.4384    0.3567   -0.4253 O   0  0  0  0  0  0  0  0  0  0  0  0
   -4.0573   -1.7917   -0.4671 O   0  0  0  0  0  0  0  0  0  0  0  0
    1.7665    0.3871   -1.4484 N   0  0  0  0  0  0  0  0  0  0  0  0
    2.7593    0.3296   -0.8104 N   0  0  0  0  0  0  0  0  0  0  0  0
    2.5355   -0.2057    1.1320 Cl  0  0  0  0  0  0  0  0  0  0  0  0
  1  7  1  0  0  0  0
  1  6  2  0  0  0  0
  2  1  1  0  0  0  0
  3  2  2  0  0  0  0
  3  4  1  0  0  0  0
  4  5  2  0  0  0  0
  5  6  1  0  0  0  0
  5 10  1  0  0  0  0
  6 11  1  0  0  0  0
  8  2  1  0  0  0  0
  9  4  1  0  0  0  0
 11 13  2  0  0  0  0
 11 12  2  0  0  0  0
 14  3  1  0  0  0  0
 14 15  2  0  0  0  0
 15 16  1  0  0  0  0
M  END
