Coordinates from ORCA-job p-NO2-Ph-N2-X-Cl-B3LYPG-6-31G_dp-scan-d09-49-n400
 OpenBabel08281820523D

 16 16  0  0  0  0  0  0  0  0999 V2000
   -1.3646   -1.3238   -0.5502 C   0  0  0  0  0  0  0  0  0  0  0  0
   -0.0110   -1.0017   -0.5801 C   0  0  0  0  0  0  0  0  0  0  0  0
    0.3506    0.3298   -0.8409 C   0  0  0  0  0  0  0  0  0  0  0  0
   -0.6088    1.3278   -1.0692 C   0  0  0  0  0  0  0  0  0  0  0  0
   -1.9578    0.9996   -1.0369 C   0  0  0  0  0  0  0  0  0  0  0  0
   -2.3082   -0.3241   -0.7772 C   0  0  0  0  0  0  0  0  0  0  0  0
   -1.6965   -2.3353   -0.3528 H   0  0  0  0  0  0  0  0  0  0  0  0
    0.7538   -1.7478   -0.4078 H   0  0  0  0  0  0  0  0  0  0  0  0
   -0.2820    2.3420   -1.2687 H   0  0  0  0  0  0  0  0  0  0  0  0
   -2.7316    1.7368   -1.2072 H   0  0  0  0  0  0  0  0  0  0  0  0
   -3.7439   -0.6813   -0.7421 N   0  0  0  0  0  0  0  0  0  0  0  0
   -4.5525    0.2205   -0.9464 O   0  0  0  0  0  0  0  0  0  0  0  0
   -4.0274   -1.8533   -0.5118 O   0  0  0  0  0  0  0  0  0  0  0  0
    1.6892    0.7732   -0.8973 N   0  0  0  0  0  0  0  0  0  0  0  0
    2.7986    0.4090   -0.7853 N   0  0  0  0  0  0  0  0  0  0  0  0
    3.1732   -1.6235   -0.3299 Cl  0  0  0  0  0  0  0  0  0  0  0  0
  1  7  1  0  0  0  0
  2  1  1  0  0  0  0
  2  8  1  0  0  0  0
  3  2  2  0  0  0  0
  4  5  2  0  0  0  0
  4  3  1  0  0  0  0
  5  6  1  0  0  0  0
  6 11  1  0  0  0  0
  6  1  2  0  0  0  0
  9  4  1  0  0  0  0
 10  5  1  0  0  0  0
 11 13  2  0  0  0  0
 12 11  2  0  0  0  0
 14  3  1  0  0  0  0
 14 15  2  0  0  0  0
 15 16  1  0  0  0  0
M  END
