Coordinates from ORCA-job p-NO2-Ph-N2-X-Cl-B3LYPG-6-31G_dp-scan-d09-49-n400
 OpenBabel08281820523D

 16 16  0  0  0  0  0  0  0  0999 V2000
   -1.3949   -1.4404   -0.8765 C   0  0  0  0  0  0  0  0  0  0  0  0
   -0.0413   -1.1991   -1.0861 C   0  0  0  0  0  0  0  0  0  0  0  0
    0.3975    0.1267   -1.1646 C   0  0  0  0  0  0  0  0  0  0  0  0
   -0.4814    1.2100   -1.0793 C   0  0  0  0  0  0  0  0  0  0  0  0
   -1.8310    0.9627   -0.8536 C   0  0  0  0  0  0  0  0  0  0  0  0
   -2.2644   -0.3580   -0.7582 C   0  0  0  0  0  0  0  0  0  0  0  0
   -1.7836   -2.4480   -0.8003 H   0  0  0  0  0  0  0  0  0  0  0  0
    0.6576   -2.0206   -1.1900 H   0  0  0  0  0  0  0  0  0  0  0  0
   -0.1067    2.2230   -1.1720 H   0  0  0  0  0  0  0  0  0  0  0  0
   -2.5474    1.7685   -0.7585 H   0  0  0  0  0  0  0  0  0  0  0  0
   -3.6982   -0.6200   -0.5334 N   0  0  0  0  0  0  0  0  0  0  0  0
   -4.4413    0.3537   -0.4315 O   0  0  0  0  0  0  0  0  0  0  0  0
   -4.0551   -1.7939   -0.4664 O   0  0  0  0  0  0  0  0  0  0  0  0
    1.7646    0.3969   -1.4440 N   0  0  0  0  0  0  0  0  0  0  0  0
    2.7605    0.3271   -0.8124 N   0  0  0  0  0  0  0  0  0  0  0  0
    2.5463   -0.2408    1.1232 Cl  0  0  0  0  0  0  0  0  0  0  0  0
  1  7  1  0  0  0  0
  1  6  2  0  0  0  0
  2  1  1  0  0  0  0
  3  2  2  0  0  0  0
  3  4  1  0  0  0  0
  4  5  2  0  0  0  0
  5 10  1  0  0  0  0
  5  6  1  0  0  0  0
  6 11  1  0  0  0  0
  8  2  1  0  0  0  0
  9  4  1  0  0  0  0
 11 13  2  0  0  0  0
 11 12  2  0  0  0  0
 14  3  1  0  0  0  0
 14 15  2  0  0  0  0
 15 16  1  0  0  0  0
M  END
