Coordinates from ORCA-job p-NO2-Ph-N2-X-Cl-B3LYPG-6-31G_dp-scan-d09-49-n400
 OpenBabel08281820523D

 16 16  0  0  0  0  0  0  0  0999 V2000
   -1.3935   -1.4386   -0.8731 C   0  0  0  0  0  0  0  0  0  0  0  0
   -0.0400   -1.1958   -1.0815 C   0  0  0  0  0  0  0  0  0  0  0  0
    0.3969    0.1306   -1.1625 C   0  0  0  0  0  0  0  0  0  0  0  0
   -0.4839    1.2127   -1.0808 C   0  0  0  0  0  0  0  0  0  0  0  0
   -1.8333    0.9639   -0.8556 C   0  0  0  0  0  0  0  0  0  0  0  0
   -2.2647   -0.3573   -0.7577 C   0  0  0  0  0  0  0  0  0  0  0  0
   -1.7808   -2.4466   -0.7954 H   0  0  0  0  0  0  0  0  0  0  0  0
    0.6601   -2.0164   -1.1832 H   0  0  0  0  0  0  0  0  0  0  0  0
   -0.1108    2.2260   -1.1759 H   0  0  0  0  0  0  0  0  0  0  0  0
   -2.5511    1.7688   -0.7631 H   0  0  0  0  0  0  0  0  0  0  0  0
   -3.6984   -0.6210   -0.5338 N   0  0  0  0  0  0  0  0  0  0  0  0
   -4.4433    0.3518   -0.4363 O   0  0  0  0  0  0  0  0  0  0  0  0
   -4.0539   -1.7953   -0.4666 O   0  0  0  0  0  0  0  0  0  0  0  0
    1.7635    0.4034   -1.4413 N   0  0  0  0  0  0  0  0  0  0  0  0
    2.7612    0.3255   -0.8137 N   0  0  0  0  0  0  0  0  0  0  0  0
    2.5534   -0.2638    1.1168 Cl  0  0  0  0  0  0  0  0  0  0  0  0
  1  7  1  0  0  0  0
  1  6  2  0  0  0  0
  2  1  1  0  0  0  0
  3  2  2  0  0  0  0
  3  4  1  0  0  0  0
  4  5  2  0  0  0  0
  5 10  1  0  0  0  0
  5  6  1  0  0  0  0
  6 11  1  0  0  0  0
  8  2  1  0  0  0  0
  9  4  1  0  0  0  0
 11 13  2  0  0  0  0
 11 12  2  0  0  0  0
 14  3  1  0  0  0  0
 14 15  2  0  0  0  0
 15 16  1  0  0  0  0
M  END
