Coordinates from ORCA-job p-NO2-Ph-N2-X-Cl-B3LYPG-6-31G_dp-scan-d09-49-n400
 OpenBabel08281820523D

 16 16  0  0  0  0  0  0  0  0999 V2000
   -1.4367   -1.4905   -0.9544 C   0  0  0  0  0  0  0  0  0  0  0  0
   -0.0803   -1.2927   -1.1893 C   0  0  0  0  0  0  0  0  0  0  0  0
    0.4159    0.0128   -1.1956 C   0  0  0  0  0  0  0  0  0  0  0  0
   -0.4064    1.1276   -1.0122 C   0  0  0  0  0  0  0  0  0  0  0  0
   -1.7631    0.9243   -0.7845 C   0  0  0  0  0  0  0  0  0  0  0  0
   -2.2545   -0.3794   -0.7593 C   0  0  0  0  0  0  0  0  0  0  0  0
   -1.8677   -2.4832   -0.9227 H   0  0  0  0  0  0  0  0  0  0  0  0
    0.5899   -2.1295   -1.3457 H   0  0  0  0  0  0  0  0  0  0  0  0
    0.0131    2.1267   -1.0354 H   0  0  0  0  0  0  0  0  0  0  0  0
   -2.4407    1.7532   -0.6245 H   0  0  0  0  0  0  0  0  0  0  0  0
   -3.6942   -0.5906   -0.5212 N   0  0  0  0  0  0  0  0  0  0  0  0
   -4.3921    0.4071   -0.3530 O   0  0  0  0  0  0  0  0  0  0  0  0
   -4.1013   -1.7501   -0.5077 O   0  0  0  0  0  0  0  0  0  0  0  0
    1.7947    0.2133   -1.4871 N   0  0  0  0  0  0  0  0  0  0  0  0
    2.7375    0.3942   -0.7957 N   0  0  0  0  0  0  0  0  0  0  0  0
    2.3671    0.4047    1.1845 Cl  0  0  0  0  0  0  0  0  0  0  0  0
  1  7  1  0  0  0  0
  1  6  2  0  0  0  0
  2  1  1  0  0  0  0
  3  2  2  0  0  0  0
  3  4  1  0  0  0  0
  4  5  2  0  0  0  0
  5  6  1  0  0  0  0
  5 10  1  0  0  0  0
  6 11  1  0  0  0  0
  8  2  1  0  0  0  0
  9  4  1  0  0  0  0
 11 13  2  0  0  0  0
 11 12  2  0  0  0  0
 14  3  1  0  0  0  0
 14 15  2  0  0  0  0
 15 16  1  0  0  0  0
M  END
