Coordinates from ORCA-job p-NO2-Ph-N2-X-Cl-B3LYPG-6-31G_dp-scan-d09-49-n400
 OpenBabel08281820523D

 16 16  0  0  0  0  0  0  0  0999 V2000
   -1.4557   -1.5091   -0.9808 C   0  0  0  0  0  0  0  0  0  0  0  0
   -0.0971   -1.3276   -1.2159 C   0  0  0  0  0  0  0  0  0  0  0  0
    0.4225   -0.0322   -1.1900 C   0  0  0  0  0  0  0  0  0  0  0  0
   -0.3787    1.0926   -0.9736 C   0  0  0  0  0  0  0  0  0  0  0  0
   -1.7393    0.9074   -0.7544 C   0  0  0  0  0  0  0  0  0  0  0  0
   -2.2534   -0.3880   -0.7603 C   0  0  0  0  0  0  0  0  0  0  0  0
   -1.9040   -2.4945   -0.9709 H   0  0  0  0  0  0  0  0  0  0  0  0
    0.5625   -2.1687   -1.3912 H   0  0  0  0  0  0  0  0  0  0  0  0
    0.0594    2.0836   -0.9666 H   0  0  0  0  0  0  0  0  0  0  0  0
   -2.4025    1.7437   -0.5742 H   0  0  0  0  0  0  0  0  0  0  0  0
   -3.6970   -0.5793   -0.5270 N   0  0  0  0  0  0  0  0  0  0  0  0
   -4.3775    0.4264   -0.3375 O   0  0  0  0  0  0  0  0  0  0  0  0
   -4.1241   -1.7316   -0.5387 O   0  0  0  0  0  0  0  0  0  0  0  0
    1.8045    0.1411   -1.4794 N   0  0  0  0  0  0  0  0  0  0  0  0
    2.7322    0.4234   -0.8013 N   0  0  0  0  0  0  0  0  0  0  0  0
    2.3294    0.6607    1.1580 Cl  0  0  0  0  0  0  0  0  0  0  0  0
  1  7  1  0  0  0  0
  1  6  2  0  0  0  0
  2  3  2  0  0  0  0
  2  1  1  0  0  0  0
  3  4  1  0  0  0  0
  4  9  1  0  0  0  0
  4  5  2  0  0  0  0
  5 10  1  0  0  0  0
  6  5  1  0  0  0  0
  6 11  1  0  0  0  0
  8  2  1  0  0  0  0
 11 12  2  0  0  0  0
 13 11  2  0  0  0  0
 14  3  1  0  0  0  0
 14 15  2  0  0  0  0
 15 16  1  0  0  0  0
M  END
