Coordinates from ORCA-job p-NO2-Ph-N2-X-Cl-B3LYPG-6-31G_dp-scan-d09-49-n400
 OpenBabel08281820523D

 16 16  0  0  0  0  0  0  0  0999 V2000
   -1.4952   -1.5407   -1.0291 C   0  0  0  0  0  0  0  0  0  0  0  0
   -0.1306   -1.3886   -1.2468 C   0  0  0  0  0  0  0  0  0  0  0  0
    0.4333   -0.1148   -1.1473 C   0  0  0  0  0  0  0  0  0  0  0  0
   -0.3342    1.0243   -0.8799 C   0  0  0  0  0  0  0  0  0  0  0  0
   -1.7031    0.8718   -0.6895 C   0  0  0  0  0  0  0  0  0  0  0  0
   -2.2574   -0.4051   -0.7615 C   0  0  0  0  0  0  0  0  0  0  0  0
   -1.9755   -2.5098   -1.0737 H   0  0  0  0  0  0  0  0  0  0  0  0
    0.5069   -2.2363   -1.4653 H   0  0  0  0  0  0  0  0  0  0  0  0
    0.1344    1.9985   -0.8162 H   0  0  0  0  0  0  0  0  0  0  0  0
   -2.3425    1.7194   -0.4787 H   0  0  0  0  0  0  0  0  0  0  0  0
   -3.7102   -0.5602   -0.5521 N   0  0  0  0  0  0  0  0  0  0  0  0
   -4.3608    0.4575   -0.3273 O   0  0  0  0  0  0  0  0  0  0  0  0
   -4.1734   -1.6960   -0.6253 O   0  0  0  0  0  0  0  0  0  0  0  0
    1.8212    0.0028   -1.4177 N   0  0  0  0  0  0  0  0  0  0  0  0
    2.7376    0.4565   -0.8248 N   0  0  0  0  0  0  0  0  0  0  0  0
    2.3308    1.1687    1.0312 Cl  0  0  0  0  0  0  0  0  0  0  0  0
  1  6  2  0  0  0  0
  2  3  2  0  0  0  0
  2  1  1  0  0  0  0
  3  4  1  0  0  0  0
  4  9  1  0  0  0  0
  4  5  2  0  0  0  0
  5 10  1  0  0  0  0
  6  5  1  0  0  0  0
  6 11  1  0  0  0  0
  7  1  1  0  0  0  0
  8  2  1  0  0  0  0
 11 12  2  0  0  0  0
 13 11  2  0  0  0  0
 14  3  1  0  0  0  0
 14 15  2  0  0  0  0
 15 16  1  0  0  0  0
M  END
