Coordinates from ORCA-job p-NO2-Ph-N2-X-Cl-B3LYPG-6-31G_dp-scan-d09-49-n400
 OpenBabel08281820523D

 16 16  0  0  0  0  0  0  0  0999 V2000
   -1.4331   -1.4867   -0.9489 C   0  0  0  0  0  0  0  0  0  0  0  0
   -0.0770   -1.2855   -1.1830 C   0  0  0  0  0  0  0  0  0  0  0  0
    0.4145    0.0218   -1.1954 C   0  0  0  0  0  0  0  0  0  0  0  0
   -0.4121    1.1345   -1.0190 C   0  0  0  0  0  0  0  0  0  0  0  0
   -1.7682    0.9276   -0.7902 C   0  0  0  0  0  0  0  0  0  0  0  0
   -2.2549   -0.3777   -0.7591 C   0  0  0  0  0  0  0  0  0  0  0  0
   -1.8606   -2.4807   -0.9132 H   0  0  0  0  0  0  0  0  0  0  0  0
    0.5954   -2.1213   -1.3358 H   0  0  0  0  0  0  0  0  0  0  0  0
    0.0036    2.1350   -1.0480 H   0  0  0  0  0  0  0  0  0  0  0  0
   -2.4487    1.7548   -0.6346 H   0  0  0  0  0  0  0  0  0  0  0  0
   -3.6940   -0.5929   -0.5208 N   0  0  0  0  0  0  0  0  0  0  0  0
   -4.3954    0.4031   -0.3572 O   0  0  0  0  0  0  0  0  0  0  0  0
   -4.0971   -1.7537   -0.5027 O   0  0  0  0  0  0  0  0  0  0  0  0
    1.7927    0.2275   -1.4869 N   0  0  0  0  0  0  0  0  0  0  0  0
    2.7390    0.3881   -0.7955 N   0  0  0  0  0  0  0  0  0  0  0  0
    2.3771    0.3541    1.1864 Cl  0  0  0  0  0  0  0  0  0  0  0  0
  1  7  1  0  0  0  0
  1  6  2  0  0  0  0
  2  1  1  0  0  0  0
  3  2  2  0  0  0  0
  3  4  1  0  0  0  0
  4  5  2  0  0  0  0
  5  6  1  0  0  0  0
  5 10  1  0  0  0  0
  6 11  1  0  0  0  0
  8  2  1  0  0  0  0
  9  4  1  0  0  0  0
 11 13  2  0  0  0  0
 11 12  2  0  0  0  0
 14  3  1  0  0  0  0
 14 15  2  0  0  0  0
 15 16  1  0  0  0  0
M  END
