Coordinates from ORCA-job p-NO2-Ph-N2-X-Cl-B3LYPG-6-31G_dp-scan-d09-49-n400
 OpenBabel08281820523D

 16 16  0  0  0  0  0  0  0  0999 V2000
   -1.3327   -1.3129   -0.5495 C   0  0  0  0  0  0  0  0  0  0  0  0
    0.0150   -0.9676   -0.5837 C   0  0  0  0  0  0  0  0  0  0  0  0
    0.3469    0.3684   -0.8476 C   0  0  0  0  0  0  0  0  0  0  0  0
   -0.6175    1.3588   -1.0756 C   0  0  0  0  0  0  0  0  0  0  0  0
   -1.9604    1.0058   -1.0390 C   0  0  0  0  0  0  0  0  0  0  0  0
   -2.2890   -0.3245   -0.7764 C   0  0  0  0  0  0  0  0  0  0  0  0
   -1.6513   -2.3283   -0.3502 H   0  0  0  0  0  0  0  0  0  0  0  0
    0.8367   -1.6673   -0.4172 H   0  0  0  0  0  0  0  0  0  0  0  0
   -0.3065    2.3777   -1.2771 H   0  0  0  0  0  0  0  0  0  0  0  0
   -2.7481    1.7284   -1.2078 H   0  0  0  0  0  0  0  0  0  0  0  0
   -3.7204   -0.7004   -0.7386 N   0  0  0  0  0  0  0  0  0  0  0  0
   -4.5417    0.1904   -0.9410 O   0  0  0  0  0  0  0  0  0  0  0  0
   -3.9882   -1.8760   -0.5080 O   0  0  0  0  0  0  0  0  0  0  0  0
    1.6960    0.7840   -0.8972 N   0  0  0  0  0  0  0  0  0  0  0  0
    2.7758    0.3473   -0.7732 N   0  0  0  0  0  0  0  0  0  0  0  0
    2.9665   -1.7357   -0.3218 Cl  0  0  0  0  0  0  0  0  0  0  0  0
  1  7  1  0  0  0  0
  2  1  1  0  0  0  0
  2  8  1  0  0  0  0
  3  2  2  0  0  0  0
  4  5  2  0  0  0  0
  4  3  1  0  0  0  0
  5  6  1  0  0  0  0
  6 11  1  0  0  0  0
  6  1  2  0  0  0  0
  9  4  1  0  0  0  0
 10  5  1  0  0  0  0
 11 13  2  0  0  0  0
 12 11  2  0  0  0  0
 14  3  1  0  0  0  0
 14 15  2  0  0  0  0
 15 16  1  0  0  0  0
M  END
