Coordinates from ORCA-job p-NO2-Ph-N2-X-Cl-B3LYPG-6-31G_dp-scan-d09-49-n400
 OpenBabel08281820523D

 16 15  0  0  0  0  0  0  0  0999 V2000
   -1.3327   -1.2223   -0.5616 C   0  0  0  0  0  0  0  0  0  0  0  0
    0.0562   -0.8998   -0.5862 C   0  0  0  0  0  0  0  0  0  0  0  0
    0.2230    0.4611   -0.8642 C   0  0  0  0  0  0  0  0  0  0  0  0
   -0.7265    1.4891   -1.1066 C   0  0  0  0  0  0  0  0  0  0  0  0
   -2.0423    1.0915   -1.0629 C   0  0  0  0  0  0  0  0  0  0  0  0
   -2.3119   -0.2673   -0.7883 C   0  0  0  0  0  0  0  0  0  0  0  0
   -1.6568   -2.2387   -0.3596 H   0  0  0  0  0  0  0  0  0  0  0  0
    1.8769   -2.2954   -0.2617 H   0  0  0  0  0  0  0  0  0  0  0  0
   -0.4418    2.5164   -1.3139 H   0  0  0  0  0  0  0  0  0  0  0  0
   -2.8614    1.7776   -1.2307 H   0  0  0  0  0  0  0  0  0  0  0  0
   -3.7432   -0.6713   -0.7466 N   0  0  0  0  0  0  0  0  0  0  0  0
   -4.5832    0.2040   -0.9520 O   0  0  0  0  0  0  0  0  0  0  0  0
   -3.9952   -1.8480   -0.5095 O   0  0  0  0  0  0  0  0  0  0  0  0
    1.5727    0.8334   -0.8992 N   0  0  0  0  0  0  0  0  0  0  0  0
    2.6677    1.0529   -0.9108 N   0  0  0  0  0  0  0  0  0  0  0  0
    2.7795   -2.7352   -0.1499 Cl  0  0  0  0  0  0  0  0  0  0  0  0
  1  7  1  0  0  0  0
  2  1  1  0  0  0  0
  3  2  2  0  0  0  0
  4  5  2  0  0  0  0
  4  3  1  0  0  0  0
  5  6  1  0  0  0  0
  6 11  1  0  0  0  0
  6  1  2  0  0  0  0
  8 16  1  0  0  0  0
  9  4  1  0  0  0  0
 10  5  1  0  0  0  0
 11 13  2  0  0  0  0
 12 11  2  0  0  0  0
 14  3  1  0  0  0  0
 15 14  1  0  0  0  0
M  RAD  3   2   2  14   2  15   3
M  END
