Coordinates from ORCA-job p-NO2-Ph-N2-X-Cl-B3LYPG-6-31G_dp-scan-d09-49-n400
 OpenBabel08281820523D

 16 16  0  0  0  0  0  0  0  0999 V2000
   -1.4615   -1.5141   -0.9880 C   0  0  0  0  0  0  0  0  0  0  0  0
   -0.1021   -1.3373   -1.2220 C   0  0  0  0  0  0  0  0  0  0  0  0
    0.4243   -0.0449   -1.1860 C   0  0  0  0  0  0  0  0  0  0  0  0
   -0.3714    1.0823   -0.9610 C   0  0  0  0  0  0  0  0  0  0  0  0
   -1.7332    0.9023   -0.7454 C   0  0  0  0  0  0  0  0  0  0  0  0
   -2.2536   -0.3906   -0.7605 C   0  0  0  0  0  0  0  0  0  0  0  0
   -1.9147   -2.4973   -0.9854 H   0  0  0  0  0  0  0  0  0  0  0  0
    0.5539   -2.1799   -1.4035 H   0  0  0  0  0  0  0  0  0  0  0  0
    0.0717    2.0710   -0.9457 H   0  0  0  0  0  0  0  0  0  0  0  0
   -2.3925    1.7405   -0.5602 H   0  0  0  0  0  0  0  0  0  0  0  0
   -3.6985   -0.5762   -0.5299 N   0  0  0  0  0  0  0  0  0  0  0  0
   -4.3743    0.4316   -0.3351 O   0  0  0  0  0  0  0  0  0  0  0  0
   -4.1311   -1.7264   -0.5491 O   0  0  0  0  0  0  0  0  0  0  0  0
    1.8071    0.1209   -1.4739 N   0  0  0  0  0  0  0  0  0  0  0  0
    2.7319    0.4308   -0.8041 N   0  0  0  0  0  0  0  0  0  0  0  0
    2.3252    0.7351    1.1460 Cl  0  0  0  0  0  0  0  0  0  0  0  0
  1  7  1  0  0  0  0
  1  6  2  0  0  0  0
  2  3  2  0  0  0  0
  2  1  1  0  0  0  0
  3  4  1  0  0  0  0
  4  9  1  0  0  0  0
  4  5  2  0  0  0  0
  5 10  1  0  0  0  0
  6  5  1  0  0  0  0
  6 11  1  0  0  0  0
  8  2  1  0  0  0  0
 11 12  2  0  0  0  0
 13 11  2  0  0  0  0
 14  3  1  0  0  0  0
 14 15  2  0  0  0  0
 15 16  1  0  0  0  0
M  END
