Coordinates from ORCA-job p-NO2-Ph-N2-X-Cl-B3LYPG-6-31G_dp-scan-d09-49-n400
 OpenBabel08281820523D

 16 15  0  0  0  0  0  0  0  0999 V2000
   -1.3056   -1.3028   -0.5510 C   0  0  0  0  0  0  0  0  0  0  0  0
    0.0381   -0.9394   -0.5894 C   0  0  0  0  0  0  0  0  0  0  0  0
    0.3404    0.4001   -0.8548 C   0  0  0  0  0  0  0  0  0  0  0  0
   -0.6266    1.3862   -1.0822 C   0  0  0  0  0  0  0  0  0  0  0  0
   -1.9636    1.0120   -1.0412 C   0  0  0  0  0  0  0  0  0  0  0  0
   -2.2728   -0.3242   -0.7763 C   0  0  0  0  0  0  0  0  0  0  0  0
   -1.6134   -2.3214   -0.3506 H   0  0  0  0  0  0  0  0  0  0  0  0
    0.9186   -1.6031   -0.4304 H   0  0  0  0  0  0  0  0  0  0  0  0
   -0.3292    2.4090   -1.2846 H   0  0  0  0  0  0  0  0  0  0  0  0
   -2.7631    1.7218   -1.2080 H   0  0  0  0  0  0  0  0  0  0  0  0
   -3.7007   -0.7158   -0.7349 N   0  0  0  0  0  0  0  0  0  0  0  0
   -4.5327    0.1659   -0.9346 O   0  0  0  0  0  0  0  0  0  0  0  0
   -3.9553   -1.8936   -0.5016 O   0  0  0  0  0  0  0  0  0  0  0  0
    1.7008    0.7874   -0.8959 N   0  0  0  0  0  0  0  0  0  0  0  0
    2.7536    0.3010   -0.7615 N   0  0  0  0  0  0  0  0  0  0  0  0
    2.7927   -1.8353   -0.3070 Cl  0  0  0  0  0  0  0  0  0  0  0  0
  1  7  1  0  0  0  0
  2  1  1  0  0  0  0
  2  8  1  0  0  0  0
  3  2  2  0  0  0  0
  4  5  2  0  0  0  0
  4  3  1  0  0  0  0
  5  6  1  0  0  0  0
  6 11  1  0  0  0  0
  6  1  2  0  0  0  0
  9  4  1  0  0  0  0
 10  5  1  0  0  0  0
 11 13  2  0  0  0  0
 12 11  2  0  0  0  0
 14  3  1  0  0  0  0
 14 15  2  0  0  0  0
M  RAD  2  15   2  16   2
M  END
