Coordinates from ORCA-job p-NO2-Ph-N2-X-Cl-B3LYPG-6-31G_dp-scan-d09-49-n400
 OpenBabel08281820523D

 16 16  0  0  0  0  0  0  0  0999 V2000
   -1.3546   -1.3205   -0.5496 C   0  0  0  0  0  0  0  0  0  0  0  0
   -0.0028   -0.9914   -0.5801 C   0  0  0  0  0  0  0  0  0  0  0  0
    0.3505    0.3414   -0.8420 C   0  0  0  0  0  0  0  0  0  0  0  0
   -0.6107    1.3367   -1.0708 C   0  0  0  0  0  0  0  0  0  0  0  0
   -1.9580    1.0012   -1.0381 C   0  0  0  0  0  0  0  0  0  0  0  0
   -2.3021   -0.3244   -0.7773 C   0  0  0  0  0  0  0  0  0  0  0  0
   -1.6825   -2.3332   -0.3514 H   0  0  0  0  0  0  0  0  0  0  0  0
    0.7760   -1.7255   -0.4087 H   0  0  0  0  0  0  0  0  0  0  0  0
   -0.2885    2.3522   -1.2710 H   0  0  0  0  0  0  0  0  0  0  0  0
   -2.7359    1.7341   -1.2086 H   0  0  0  0  0  0  0  0  0  0  0  0
   -3.7365   -0.6874   -0.7420 N   0  0  0  0  0  0  0  0  0  0  0  0
   -4.5489    0.2111   -0.9453 O   0  0  0  0  0  0  0  0  0  0  0  0
   -4.0152   -1.8601   -0.5097 O   0  0  0  0  0  0  0  0  0  0  0  0
    1.6912    0.7782   -0.8959 N   0  0  0  0  0  0  0  0  0  0  0  0
    2.7920    0.3915   -0.7810 N   0  0  0  0  0  0  0  0  0  0  0  0
    3.1073   -1.6560   -0.3322 Cl  0  0  0  0  0  0  0  0  0  0  0  0
  1  7  1  0  0  0  0
  2  1  1  0  0  0  0
  2  8  1  0  0  0  0
  3  2  2  0  0  0  0
  4  5  2  0  0  0  0
  4  3  1  0  0  0  0
  5  6  1  0  0  0  0
  6 11  1  0  0  0  0
  6  1  2  0  0  0  0
  9  4  1  0  0  0  0
 10  5  1  0  0  0  0
 11 13  2  0  0  0  0
 12 11  2  0  0  0  0
 14  3  1  0  0  0  0
 14 15  2  0  0  0  0
 15 16  1  0  0  0  0
M  END
