Coordinates from ORCA-job p-NO2-Ph-N2-X-Cl-B3LYPG-6-31G_dp-scan-d09-49-n400
 OpenBabel08281820523D

 16 16  0  0  0  0  0  0  0  0999 V2000
   -1.3570   -1.3211   -0.5493 C   0  0  0  0  0  0  0  0  0  0  0  0
   -0.0048   -0.9932   -0.5797 C   0  0  0  0  0  0  0  0  0  0  0  0
    0.3501    0.3393   -0.8416 C   0  0  0  0  0  0  0  0  0  0  0  0
   -0.6108    1.3351   -1.0705 C   0  0  0  0  0  0  0  0  0  0  0  0
   -1.9583    1.0009   -1.0378 C   0  0  0  0  0  0  0  0  0  0  0  0
   -2.3036   -0.3243   -0.7771 C   0  0  0  0  0  0  0  0  0  0  0  0
   -1.6856   -2.3334   -0.3511 H   0  0  0  0  0  0  0  0  0  0  0  0
    0.7724   -1.7287   -0.4081 H   0  0  0  0  0  0  0  0  0  0  0  0
   -0.2877    2.3504   -1.2706 H   0  0  0  0  0  0  0  0  0  0  0  0
   -2.7354    1.7346   -1.2084 H   0  0  0  0  0  0  0  0  0  0  0  0
   -3.7383   -0.6861   -0.7418 N   0  0  0  0  0  0  0  0  0  0  0  0
   -4.5499    0.2129   -0.9465 O   0  0  0  0  0  0  0  0  0  0  0  0
   -4.0180   -1.8588   -0.5109 O   0  0  0  0  0  0  0  0  0  0  0  0
    1.6908    0.7770   -0.8959 N   0  0  0  0  0  0  0  0  0  0  0  0
    2.7936    0.3942   -0.7818 N   0  0  0  0  0  0  0  0  0  0  0  0
    3.1235   -1.6510   -0.3328 Cl  0  0  0  0  0  0  0  0  0  0  0  0
  1  7  1  0  0  0  0
  2  1  1  0  0  0  0
  2  8  1  0  0  0  0
  3  2  2  0  0  0  0
  4  5  2  0  0  0  0
  4  3  1  0  0  0  0
  5  6  1  0  0  0  0
  6 11  1  0  0  0  0
  6  1  2  0  0  0  0
  9  4  1  0  0  0  0
 10  5  1  0  0  0  0
 11 13  2  0  0  0  0
 12 11  2  0  0  0  0
 14  3  1  0  0  0  0
 14 15  2  0  0  0  0
 15 16  1  0  0  0  0
M  END
