Coordinates from ORCA-job p-NO2-Ph-N2-X-Cl-B3LYPG-6-31G_dp-scan-d09-49-n400
 OpenBabel08281820523D

 16 16  0  0  0  0  0  0  0  0999 V2000
   -1.3437   -1.3167   -0.5502 C   0  0  0  0  0  0  0  0  0  0  0  0
    0.0060   -0.9793   -0.5826 C   0  0  0  0  0  0  0  0  0  0  0  0
    0.3488    0.3551   -0.8451 C   0  0  0  0  0  0  0  0  0  0  0  0
   -0.6142    1.3478   -1.0734 C   0  0  0  0  0  0  0  0  0  0  0  0
   -1.9593    1.0035   -1.0387 C   0  0  0  0  0  0  0  0  0  0  0  0
   -2.2956   -0.3245   -0.7772 C   0  0  0  0  0  0  0  0  0  0  0  0
   -1.6667   -2.3309   -0.3515 H   0  0  0  0  0  0  0  0  0  0  0  0
    0.8058   -1.6961   -0.4137 H   0  0  0  0  0  0  0  0  0  0  0  0
   -0.2977    2.3651   -1.2741 H   0  0  0  0  0  0  0  0  0  0  0  0
   -2.7421    1.7312   -1.2082 H   0  0  0  0  0  0  0  0  0  0  0  0
   -3.7285   -0.6941   -0.7405 N   0  0  0  0  0  0  0  0  0  0  0  0
   -4.5455    0.2007   -0.9421 O   0  0  0  0  0  0  0  0  0  0  0  0
   -4.0017   -1.8680   -0.5078 O   0  0  0  0  0  0  0  0  0  0  0  0
    1.6937    0.7816   -0.8968 N   0  0  0  0  0  0  0  0  0  0  0  0
    2.7843    0.3687   -0.7766 N   0  0  0  0  0  0  0  0  0  0  0  0
    3.0374   -1.6962   -0.3253 Cl  0  0  0  0  0  0  0  0  0  0  0  0
  1  7  1  0  0  0  0
  2  1  1  0  0  0  0
  2  8  1  0  0  0  0
  3  2  2  0  0  0  0
  4  5  2  0  0  0  0
  4  3  1  0  0  0  0
  5  6  1  0  0  0  0
  6 11  1  0  0  0  0
  6  1  2  0  0  0  0
  9  4  1  0  0  0  0
 10  5  1  0  0  0  0
 11 13  2  0  0  0  0
 12 11  2  0  0  0  0
 14  3  1  0  0  0  0
 14 15  2  0  0  0  0
 15 16  1  0  0  0  0
M  END
