Coordinates from ORCA-job p-NO2-Ph-N2-X-Cl-B3LYPG-6-31G_dp-scan-d09-49-n400
 OpenBabel08281820523D

 16 16  0  0  0  0  0  0  0  0999 V2000
   -1.3573   -1.3596   -0.6978 C   0  0  0  0  0  0  0  0  0  0  0  0
   -0.0042   -1.0558   -0.8108 C   0  0  0  0  0  0  0  0  0  0  0  0
    0.3648    0.2836   -1.0008 C   0  0  0  0  0  0  0  0  0  0  0  0
   -0.5852    1.3086   -1.1034 C   0  0  0  0  0  0  0  0  0  0  0  0
   -1.9331    1.0026   -0.9653 C   0  0  0  0  0  0  0  0  0  0  0  0
   -2.2929   -0.3293   -0.7671 C   0  0  0  0  0  0  0  0  0  0  0  0
   -1.6949   -2.3777   -0.5504 H   0  0  0  0  0  0  0  0  0  0  0  0
    0.7510   -1.8273   -0.7476 H   0  0  0  0  0  0  0  0  0  0  0  0
   -0.2556    2.3261   -1.2808 H   0  0  0  0  0  0  0  0  0  0  0  0
   -2.7010    1.7632   -1.0205 H   0  0  0  0  0  0  0  0  0  0  0  0
   -3.7272   -0.6626   -0.6359 N   0  0  0  0  0  0  0  0  0  0  0  0
   -4.5290    0.2659   -0.7003 O   0  0  0  0  0  0  0  0  0  0  0  0
   -4.0191   -1.8440   -0.4718 O   0  0  0  0  0  0  0  0  0  0  0  0
    1.7110    0.6767   -1.1747 N   0  0  0  0  0  0  0  0  0  0  0  0
    2.7902    0.3477   -0.8421 N   0  0  0  0  0  0  0  0  0  0  0  0
    2.9637   -1.2701    0.4656 Cl  0  0  0  0  0  0  0  0  0  0  0  0
  1  7  1  0  0  0  0
  2  8  1  0  0  0  0
  2  1  2  0  0  0  0
  3  2  1  0  0  0  0
  4  3  2  0  0  0  0
  4  5  1  0  0  0  0
  5  6  2  0  0  0  0
  6  1  1  0  0  0  0
  6 11  1  0  0  0  0
  9  4  1  0  0  0  0
 10  5  1  0  0  0  0
 11 13  2  0  0  0  0
 12 11  2  0  0  0  0
 14  3  1  0  0  0  0
 14 15  2  0  0  0  0
 15 16  1  0  0  0  0
M  END
