Coordinates from ORCA-job p-NO2-Ph-N2-X-Cl-B3LYPG-6-31G_dp-scan-d09-49-n400
 OpenBabel08281820523D

 16 16  0  0  0  0  0  0  0  0999 V2000
   -1.4902   -1.5370   -1.0236 C   0  0  0  0  0  0  0  0  0  0  0  0
   -0.1265   -1.3815   -1.2446 C   0  0  0  0  0  0  0  0  0  0  0  0
    0.4321   -0.1048   -1.1550 C   0  0  0  0  0  0  0  0  0  0  0  0
   -0.3391    1.0329   -0.8936 C   0  0  0  0  0  0  0  0  0  0  0  0
   -1.7070    0.8766   -0.6991 C   0  0  0  0  0  0  0  0  0  0  0  0
   -2.2566   -0.4029   -0.7621 C   0  0  0  0  0  0  0  0  0  0  0  0
   -1.9668   -2.5083   -1.0604 H   0  0  0  0  0  0  0  0  0  0  0  0
    0.5139   -2.2286   -1.4572 H   0  0  0  0  0  0  0  0  0  0  0  0
    0.1260    2.0093   -0.8372 H   0  0  0  0  0  0  0  0  0  0  0  0
   -2.3492    1.7231   -0.4921 H   0  0  0  0  0  0  0  0  0  0  0  0
   -3.7082   -0.5623   -0.5490 N   0  0  0  0  0  0  0  0  0  0  0  0
   -4.3618    0.4539   -0.3256 O   0  0  0  0  0  0  0  0  0  0  0  0
   -4.1666   -1.7008   -0.6102 O   0  0  0  0  0  0  0  0  0  0  0  0
    1.8194    0.0203   -1.4286 N   0  0  0  0  0  0  0  0  0  0  0  0
    2.7358    0.4549   -0.8205 N   0  0  0  0  0  0  0  0  0  0  0  0
    2.3261    1.1031    1.0549 Cl  0  0  0  0  0  0  0  0  0  0  0  0
  1  6  2  0  0  0  0
  2  3  2  0  0  0  0
  2  1  1  0  0  0  0
  3  4  1  0  0  0  0
  4  9  1  0  0  0  0
  4  5  2  0  0  0  0
  5 10  1  0  0  0  0
  6  5  1  0  0  0  0
  6 11  1  0  0  0  0
  7  1  1  0  0  0  0
  8  2  1  0  0  0  0
 11 12  2  0  0  0  0
 13 11  2  0  0  0  0
 14  3  1  0  0  0  0
 14 15  2  0  0  0  0
 15 16  1  0  0  0  0
M  END
