Coordinates from ORCA-job p-NO2-Ph-N2-X-Cl-B3LYPG-6-31G_dp-scan-d09-49-n400
 OpenBabel08281820523D

 16 16  0  0  0  0  0  0  0  0999 V2000
   -1.4200   -1.4720   -0.9271 C   0  0  0  0  0  0  0  0  0  0  0  0
   -0.0650   -1.2580   -1.1560 C   0  0  0  0  0  0  0  0  0  0  0  0
    0.4090    0.0561   -1.1905 C   0  0  0  0  0  0  0  0  0  0  0  0
   -0.4346    1.1600   -1.0423 C   0  0  0  0  0  0  0  0  0  0  0  0
   -1.7882    0.9396   -0.8114 C   0  0  0  0  0  0  0  0  0  0  0  0
   -2.2574   -0.3712   -0.7586 C   0  0  0  0  0  0  0  0  0  0  0  0
   -1.8346   -2.4709   -0.8775 H   0  0  0  0  0  0  0  0  0  0  0  0
    0.6154   -2.0900   -1.2947 H   0  0  0  0  0  0  0  0  0  0  0  0
   -0.0328    2.1654   -1.0929 H   0  0  0  0  0  0  0  0  0  0  0  0
   -2.4803    1.7604   -0.6738 H   0  0  0  0  0  0  0  0  0  0  0  0
   -3.6943   -0.6018   -0.5217 N   0  0  0  0  0  0  0  0  0  0  0  0
   -4.4092    0.3874   -0.3759 O   0  0  0  0  0  0  0  0  0  0  0  0
   -4.0823   -1.7673   -0.4872 O   0  0  0  0  0  0  0  0  0  0  0  0
    1.7841    0.2825   -1.4808 N   0  0  0  0  0  0  0  0  0  0  0  0
    2.7459    0.3652   -0.7977 N   0  0  0  0  0  0  0  0  0  0  0  0
    2.4255    0.1626    1.1842 Cl  0  0  0  0  0  0  0  0  0  0  0  0
  1  7  1  0  0  0  0
  1  6  2  0  0  0  0
  2  1  1  0  0  0  0
  3  2  2  0  0  0  0
  3  4  1  0  0  0  0
  4  5  2  0  0  0  0
  5  6  1  0  0  0  0
  5 10  1  0  0  0  0
  6 11  1  0  0  0  0
  8  2  1  0  0  0  0
  9  4  1  0  0  0  0
 11 13  2  0  0  0  0
 11 12  2  0  0  0  0
 14  3  1  0  0  0  0
 14 15  2  0  0  0  0
 15 16  1  0  0  0  0
M  END
