Coordinates from ORCA-job p-NO2-Ph-N2-X-Cl-B3LYPG-6-31G_dp-scan-d09-49-n400
 OpenBabel08281820523D

 16 15  0  0  0  0  0  0  0  0999 V2000
   -1.3301   -1.2247   -0.5623 C   0  0  0  0  0  0  0  0  0  0  0  0
    0.0585   -0.9021   -0.5876 C   0  0  0  0  0  0  0  0  0  0  0  0
    0.2261    0.4590   -0.8647 C   0  0  0  0  0  0  0  0  0  0  0  0
   -0.7236    1.4870   -1.1057 C   0  0  0  0  0  0  0  0  0  0  0  0
   -2.0395    1.0895   -1.0615 C   0  0  0  0  0  0  0  0  0  0  0  0
   -2.3092   -0.2694   -0.7877 C   0  0  0  0  0  0  0  0  0  0  0  0
   -1.6539   -2.2413   -0.3608 H   0  0  0  0  0  0  0  0  0  0  0  0
    1.8459   -2.2705   -0.2663 H   0  0  0  0  0  0  0  0  0  0  0  0
   -0.4389    2.5144   -1.3125 H   0  0  0  0  0  0  0  0  0  0  0  0
   -2.8586    1.7758   -1.2283 H   0  0  0  0  0  0  0  0  0  0  0  0
   -3.7406   -0.6732   -0.7453 N   0  0  0  0  0  0  0  0  0  0  0  0
   -4.5804    0.2021   -0.9509 O   0  0  0  0  0  0  0  0  0  0  0  0
   -3.9923   -1.8504   -0.5104 O   0  0  0  0  0  0  0  0  0  0  0  0
    1.5756    0.8312   -0.9003 N   0  0  0  0  0  0  0  0  0  0  0  0
    2.6705    1.0506   -0.9124 N   0  0  0  0  0  0  0  0  0  0  0  0
    2.7716   -2.7300   -0.1473 Cl  0  0  0  0  0  0  0  0  0  0  0  0
  1  7  1  0  0  0  0
  2  1  1  0  0  0  0
  3  2  2  0  0  0  0
  4  5  2  0  0  0  0
  4  3  1  0  0  0  0
  5  6  1  0  0  0  0
  6 11  1  0  0  0  0
  6  1  2  0  0  0  0
  8 16  1  0  0  0  0
  9  4  1  0  0  0  0
 10  5  1  0  0  0  0
 11 13  2  0  0  0  0
 12 11  2  0  0  0  0
 14  3  1  0  0  0  0
 15 14  1  0  0  0  0
M  RAD  3   2   2  14   2  15   3
M  END
