Coordinates from ORCA-job p-NO2-Ph-N2-X-Cl-B3LYPG-6-31G_dp-scan-d09-49-n400
 OpenBabel08281820523D

 16 16  0  0  0  0  0  0  0  0999 V2000
   -1.3851   -1.4267   -0.8520 C   0  0  0  0  0  0  0  0  0  0  0  0
   -0.0320   -1.1739   -1.0508 C   0  0  0  0  0  0  0  0  0  0  0  0
    0.3927    0.1559   -1.1478 C   0  0  0  0  0  0  0  0  0  0  0  0
   -0.5005    1.2298   -1.0903 C   0  0  0  0  0  0  0  0  0  0  0  0
   -1.8488    0.9715   -0.8703 C   0  0  0  0  0  0  0  0  0  0  0  0
   -2.2675   -0.3525   -0.7574 C   0  0  0  0  0  0  0  0  0  0  0  0
   -1.7634   -2.4374   -0.7650 H   0  0  0  0  0  0  0  0  0  0  0  0
    0.6757   -1.9896   -1.1364 H   0  0  0  0  0  0  0  0  0  0  0  0
   -0.1363    2.2449   -1.2000 H   0  0  0  0  0  0  0  0  0  0  0  0
   -2.5753    1.7704   -0.7952 H   0  0  0  0  0  0  0  0  0  0  0  0
   -3.7006   -0.6275   -0.5412 N   0  0  0  0  0  0  0  0  0  0  0  0
   -4.4557    0.3391   -0.4631 O   0  0  0  0  0  0  0  0  0  0  0  0
   -4.0453   -1.8044   -0.4639 O   0  0  0  0  0  0  0  0  0  0  0  0
    1.7561    0.4452   -1.4195 N   0  0  0  0  0  0  0  0  0  0  0  0
    2.7659    0.3162   -0.8213 N   0  0  0  0  0  0  0  0  0  0  0  0
    2.6011   -0.4131    1.0704 Cl  0  0  0  0  0  0  0  0  0  0  0  0
  1  7  1  0  0  0  0
  1  6  1  0  0  0  0
  2  1  2  0  0  0  0
  3  4  2  0  0  0  0
  3  2  1  0  0  0  0
  4  5  1  0  0  0  0
  5 10  1  0  0  0  0
  5  6  2  0  0  0  0
  6 11  1  0  0  0  0
  8  2  1  0  0  0  0
  9  4  1  0  0  0  0
 11 13  2  0  0  0  0
 11 12  2  0  0  0  0
 14  3  1  0  0  0  0
 14 15  2  0  0  0  0
 15 16  1  0  0  0  0
M  END
