Coordinates from ORCA-job p-NO2-Ph-N2-X-Cl-B3LYPG-6-31G_dp-scan-d09-49-n400
 OpenBabel08281820523D

 16 15  0  0  0  0  0  0  0  0999 V2000
   -1.2832   -1.2916   -0.5488 C   0  0  0  0  0  0  0  0  0  0  0  0
    0.0599   -0.9166   -0.5884 C   0  0  0  0  0  0  0  0  0  0  0  0
    0.3289    0.4252   -0.8571 C   0  0  0  0  0  0  0  0  0  0  0  0
   -0.6367    1.4110   -1.0868 C   0  0  0  0  0  0  0  0  0  0  0  0
   -1.9679    1.0191   -1.0434 C   0  0  0  0  0  0  0  0  0  0  0  0
   -2.2596   -0.3225   -0.7756 C   0  0  0  0  0  0  0  0  0  0  0  0
   -1.5842   -2.3124   -0.3465 H   0  0  0  0  0  0  0  0  0  0  0  0
    1.0133   -1.5640   -0.4285 H   0  0  0  0  0  0  0  0  0  0  0  0
   -0.3500    2.4367   -1.2912 H   0  0  0  0  0  0  0  0  0  0  0  0
   -2.7775    1.7173   -1.2105 H   0  0  0  0  0  0  0  0  0  0  0  0
   -3.6848   -0.7274   -0.7335 N   0  0  0  0  0  0  0  0  0  0  0  0
   -4.5255    0.1457   -0.9353 O   0  0  0  0  0  0  0  0  0  0  0  0
   -3.9289   -1.9074   -0.5001 O   0  0  0  0  0  0  0  0  0  0  0  0
    1.7021    0.7869   -0.8926 N   0  0  0  0  0  0  0  0  0  0  0  0
    2.7357    0.2797   -0.7578 N   0  0  0  0  0  0  0  0  0  0  0  0
    2.6398   -1.9318   -0.3078 Cl  0  0  0  0  0  0  0  0  0  0  0  0
  1  7  1  0  0  0  0
  2  1  1  0  0  0  0
  2  8  1  0  0  0  0
  3  2  2  0  0  0  0
  4  5  2  0  0  0  0
  4  3  1  0  0  0  0
  5  6  1  0  0  0  0
  6 11  1  0  0  0  0
  6  1  2  0  0  0  0
  9  4  1  0  0  0  0
 10  5  1  0  0  0  0
 11 13  2  0  0  0  0
 12 11  2  0  0  0  0
 14  3  1  0  0  0  0
 14 15  2  0  0  0  0
M  RAD  2  15   2  16   2
M  END
