Coordinates from ORCA-job p-NO2-Ph-N2-X-Cl-B3LYPG-6-31G_dp-scan-d09-49-n400
 OpenBabel08281820523D

 16 16  0  0  0  0  0  0  0  0999 V2000
   -1.3204   -1.3082   -0.5484 C   0  0  0  0  0  0  0  0  0  0  0  0
    0.0253   -0.9543   -0.5835 C   0  0  0  0  0  0  0  0  0  0  0  0
    0.3445    0.3832   -0.8491 C   0  0  0  0  0  0  0  0  0  0  0  0
   -0.6213    1.3711   -1.0780 C   0  0  0  0  0  0  0  0  0  0  0  0
   -1.9615    1.0084   -1.0402 C   0  0  0  0  0  0  0  0  0  0  0  0
   -2.2815   -0.3245   -0.7763 C   0  0  0  0  0  0  0  0  0  0  0  0
   -1.6340   -2.3250   -0.3481 H   0  0  0  0  0  0  0  0  0  0  0  0
    0.8717   -1.6363   -0.4190 H   0  0  0  0  0  0  0  0  0  0  0  0
   -0.3165    2.3918   -1.2803 H   0  0  0  0  0  0  0  0  0  0  0  0
   -2.7546    1.7250   -1.2092 H   0  0  0  0  0  0  0  0  0  0  0  0
   -3.7113   -0.7079   -0.7385 N   0  0  0  0  0  0  0  0  0  0  0  0
   -4.5374    0.1788   -0.9399 O   0  0  0  0  0  0  0  0  0  0  0  0
   -3.9731   -1.8844   -0.5062 O   0  0  0  0  0  0  0  0  0  0  0  0
    1.6983    0.7865   -0.8953 N   0  0  0  0  0  0  0  0  0  0  0  0
    2.7659    0.3251   -0.7686 N   0  0  0  0  0  0  0  0  0  0  0  0
    2.8870   -1.7813   -0.3231 Cl  0  0  0  0  0  0  0  0  0  0  0  0
  1  7  1  0  0  0  0
  2  1  1  0  0  0  0
  2  8  1  0  0  0  0
  3  2  2  0  0  0  0
  4  5  2  0  0  0  0
  4  3  1  0  0  0  0
  5  6  1  0  0  0  0
  6 11  1  0  0  0  0
  6  1  2  0  0  0  0
  9  4  1  0  0  0  0
 10  5  1  0  0  0  0
 11 13  2  0  0  0  0
 12 11  2  0  0  0  0
 14  3  1  0  0  0  0
 14 15  2  0  0  0  0
 15 16  1  0  0  0  0
M  END
