Coordinates from ORCA-job p-NO2-Ph-N2-X-Cl-B3LYPG-6-31G_dp-scan-d09-49-n400
 OpenBabel08281820523D

 16 16  0  0  0  0  0  0  0  0999 V2000
   -1.3558   -1.3206   -0.5493 C   0  0  0  0  0  0  0  0  0  0  0  0
   -0.0038   -0.9920   -0.5799 C   0  0  0  0  0  0  0  0  0  0  0  0
    0.3502    0.3406   -0.8418 C   0  0  0  0  0  0  0  0  0  0  0  0
   -0.6110    1.3361   -1.0707 C   0  0  0  0  0  0  0  0  0  0  0  0
   -1.9584    1.0012   -1.0379 C   0  0  0  0  0  0  0  0  0  0  0  0
   -2.3030   -0.3243   -0.7771 C   0  0  0  0  0  0  0  0  0  0  0  0
   -1.6839   -2.3332   -0.3511 H   0  0  0  0  0  0  0  0  0  0  0  0
    0.7746   -1.7266   -0.4084 H   0  0  0  0  0  0  0  0  0  0  0  0
   -0.2884    2.3515   -1.2708 H   0  0  0  0  0  0  0  0  0  0  0  0
   -2.7359    1.7343   -1.2084 H   0  0  0  0  0  0  0  0  0  0  0  0
   -3.7374   -0.6868   -0.7417 N   0  0  0  0  0  0  0  0  0  0  0  0
   -4.5495    0.2118   -0.9463 O   0  0  0  0  0  0  0  0  0  0  0  0
   -4.0166   -1.8596   -0.5106 O   0  0  0  0  0  0  0  0  0  0  0  0
    1.6911    0.7777   -0.8960 N   0  0  0  0  0  0  0  0  0  0  0  0
    2.7930    0.3924   -0.7814 N   0  0  0  0  0  0  0  0  0  0  0  0
    3.1159   -1.6544   -0.3325 Cl  0  0  0  0  0  0  0  0  0  0  0  0
  1  7  1  0  0  0  0
  2  1  1  0  0  0  0
  2  8  1  0  0  0  0
  3  2  2  0  0  0  0
  4  5  2  0  0  0  0
  4  3  1  0  0  0  0
  5  6  1  0  0  0  0
  6 11  1  0  0  0  0
  6  1  2  0  0  0  0
  9  4  1  0  0  0  0
 10  5  1  0  0  0  0
 11 13  2  0  0  0  0
 12 11  2  0  0  0  0
 14  3  1  0  0  0  0
 14 15  2  0  0  0  0
 15 16  1  0  0  0  0
M  END
