Coordinates from ORCA-job p-NO2-Ph-N2-X-Cl-B3LYPG-6-31G_dp-scan-d09-49-n400
 OpenBabel08281820523D

 16 16  0  0  0  0  0  0  0  0999 V2000
   -1.4575   -1.5108   -0.9826 C   0  0  0  0  0  0  0  0  0  0  0  0
   -0.0987   -1.3310   -1.2178 C   0  0  0  0  0  0  0  0  0  0  0  0
    0.4232   -0.0367   -1.1887 C   0  0  0  0  0  0  0  0  0  0  0  0
   -0.3760    1.0889   -0.9690 C   0  0  0  0  0  0  0  0  0  0  0  0
   -1.7369    0.9056   -0.7505 C   0  0  0  0  0  0  0  0  0  0  0  0
   -2.2532   -0.3890   -0.7593 C   0  0  0  0  0  0  0  0  0  0  0  0
   -1.9075   -2.4955   -0.9751 H   0  0  0  0  0  0  0  0  0  0  0  0
    0.5594   -2.1727   -1.3956 H   0  0  0  0  0  0  0  0  0  0  0  0
    0.0640    2.0791   -0.9592 H   0  0  0  0  0  0  0  0  0  0  0  0
   -2.3987    1.7426   -0.5682 H   0  0  0  0  0  0  0  0  0  0  0  0
   -3.6972   -0.5783   -0.5263 N   0  0  0  0  0  0  0  0  0  0  0  0
   -4.3766    0.4284   -0.3387 O   0  0  0  0  0  0  0  0  0  0  0  0
   -4.1268   -1.7296   -0.5446 O   0  0  0  0  0  0  0  0  0  0  0  0
    1.8053    0.1342   -1.4782 N   0  0  0  0  0  0  0  0  0  0  0  0
    2.7319    0.4260   -0.8029 N   0  0  0  0  0  0  0  0  0  0  0  0
    2.3265    0.6868    1.1529 Cl  0  0  0  0  0  0  0  0  0  0  0  0
  1  7  1  0  0  0  0
  1  6  2  0  0  0  0
  2  3  2  0  0  0  0
  2  1  1  0  0  0  0
  3  4  1  0  0  0  0
  4  9  1  0  0  0  0
  4  5  2  0  0  0  0
  5 10  1  0  0  0  0
  6  5  1  0  0  0  0
  6 11  1  0  0  0  0
  8  2  1  0  0  0  0
 11 12  2  0  0  0  0
 13 11  2  0  0  0  0
 14  3  1  0  0  0  0
 14 15  2  0  0  0  0
 15 16  1  0  0  0  0
M  END
