Coordinates from ORCA-job p-NO2-Ph-N2-X-Cl-B3LYPG-6-31G_dp-scan-d09-49-n400
 OpenBabel08281820523D

 16 16  0  0  0  0  0  0  0  0999 V2000
   -1.4312   -1.4846   -0.9459 C   0  0  0  0  0  0  0  0  0  0  0  0
   -0.0753   -1.2817   -1.1792 C   0  0  0  0  0  0  0  0  0  0  0  0
    0.4137    0.0267   -1.1947 C   0  0  0  0  0  0  0  0  0  0  0  0
   -0.4155    1.1382   -1.0225 C   0  0  0  0  0  0  0  0  0  0  0  0
   -1.7712    0.9294   -0.7933 C   0  0  0  0  0  0  0  0  0  0  0  0
   -2.2554   -0.3767   -0.7590 C   0  0  0  0  0  0  0  0  0  0  0  0
   -1.8569   -2.4793   -0.9082 H   0  0  0  0  0  0  0  0  0  0  0  0
    0.5979   -2.1172   -1.3302 H   0  0  0  0  0  0  0  0  0  0  0  0
   -0.0018    2.1394   -1.0548 H   0  0  0  0  0  0  0  0  0  0  0  0
   -2.4534    1.7557   -0.6403 H   0  0  0  0  0  0  0  0  0  0  0  0
   -3.6941   -0.5942   -0.5208 N   0  0  0  0  0  0  0  0  0  0  0  0
   -4.3975    0.4008   -0.3597 O   0  0  0  0  0  0  0  0  0  0  0  0
   -4.0950   -1.7558   -0.5004 O   0  0  0  0  0  0  0  0  0  0  0  0
    1.7914    0.2359   -1.4861 N   0  0  0  0  0  0  0  0  0  0  0  0
    2.7403    0.3846   -0.7957 N   0  0  0  0  0  0  0  0  0  0  0  0
    2.3851    0.3267    1.1872 Cl  0  0  0  0  0  0  0  0  0  0  0  0
  1  7  1  0  0  0  0
  1  6  2  0  0  0  0
  2  1  1  0  0  0  0
  3  2  2  0  0  0  0
  3  4  1  0  0  0  0
  4  5  2  0  0  0  0
  5  6  1  0  0  0  0
  5 10  1  0  0  0  0
  6 11  1  0  0  0  0
  8  2  1  0  0  0  0
  9  4  1  0  0  0  0
 11 13  2  0  0  0  0
 11 12  2  0  0  0  0
 14  3  1  0  0  0  0
 14 15  2  0  0  0  0
 15 16  1  0  0  0  0
M  END
