Coordinates from ORCA-job p-NO2-Ph-N2-X-Cl-B3LYPG-6-31G_dp-scan-d09-49-n400
 OpenBabel08281820523D

 16 16  0  0  0  0  0  0  0  0999 V2000
   -1.4080   -1.4576   -0.9049 C   0  0  0  0  0  0  0  0  0  0  0  0
   -0.0537   -1.2310   -1.1261 C   0  0  0  0  0  0  0  0  0  0  0  0
    0.4038    0.0891   -1.1813 C   0  0  0  0  0  0  0  0  0  0  0  0
   -0.4563    1.1838   -1.0614 C   0  0  0  0  0  0  0  0  0  0  0  0
   -1.8078    0.9506   -0.8313 C   0  0  0  0  0  0  0  0  0  0  0  0
   -2.2603   -0.3651   -0.7584 C   0  0  0  0  0  0  0  0  0  0  0  0
   -1.8104   -2.4607   -0.8426 H   0  0  0  0  0  0  0  0  0  0  0  0
    0.6351   -2.0583   -1.2498 H   0  0  0  0  0  0  0  0  0  0  0  0
   -0.0675    2.1931   -1.1318 H   0  0  0  0  0  0  0  0  0  0  0  0
   -2.5112    1.7647   -0.7123 H   0  0  0  0  0  0  0  0  0  0  0  0
   -3.6956   -0.6102   -0.5255 N   0  0  0  0  0  0  0  0  0  0  0  0
   -4.4234    0.3719   -0.3981 O   0  0  0  0  0  0  0  0  0  0  0  0
   -4.0690   -1.7799   -0.4755 O   0  0  0  0  0  0  0  0  0  0  0  0
    1.7755    0.3352   -1.4680 N   0  0  0  0  0  0  0  0  0  0  0  0
    2.7527    0.3451   -0.8027 N   0  0  0  0  0  0  0  0  0  0  0  0
    2.4773   -0.0227    1.1659 Cl  0  0  0  0  0  0  0  0  0  0  0  0
  1  7  1  0  0  0  0
  1  6  2  0  0  0  0
  2  1  1  0  0  0  0
  3  2  2  0  0  0  0
  3  4  1  0  0  0  0
  4  5  2  0  0  0  0
  5  6  1  0  0  0  0
  5 10  1  0  0  0  0
  6 11  1  0  0  0  0
  8  2  1  0  0  0  0
  9  4  1  0  0  0  0
 11 13  2  0  0  0  0
 11 12  2  0  0  0  0
 14  3  1  0  0  0  0
 14 15  2  0  0  0  0
 15 16  1  0  0  0  0
M  END
