Coordinates from ORCA-job p-NO2-Ph-N2-X-Cl-B3LYPG-6-31G_dp-scan-d09-49-n400
 OpenBabel08281820523D

 16 16  0  0  0  0  0  0  0  0999 V2000
   -1.3382   -1.3147   -0.5494 C   0  0  0  0  0  0  0  0  0  0  0  0
    0.0105   -0.9734   -0.5832 C   0  0  0  0  0  0  0  0  0  0  0  0
    0.3478    0.3618   -0.8466 C   0  0  0  0  0  0  0  0  0  0  0  0
   -0.6159    1.3534   -1.0745 C   0  0  0  0  0  0  0  0  0  0  0  0
   -1.9599    1.0048   -1.0382 C   0  0  0  0  0  0  0  0  0  0  0  0
   -2.2923   -0.3243   -0.7760 C   0  0  0  0  0  0  0  0  0  0  0  0
   -1.6590   -2.3295   -0.3502 H   0  0  0  0  0  0  0  0  0  0  0  0
    0.8215   -1.6813   -0.4159 H   0  0  0  0  0  0  0  0  0  0  0  0
   -0.3023    2.3715   -1.2758 H   0  0  0  0  0  0  0  0  0  0  0  0
   -2.7453    1.7299   -1.2071 H   0  0  0  0  0  0  0  0  0  0  0  0
   -3.7245   -0.6970   -0.7381 N   0  0  0  0  0  0  0  0  0  0  0  0
   -4.5436    0.1952   -0.9432 O   0  0  0  0  0  0  0  0  0  0  0  0
   -3.9949   -1.8724   -0.5096 O   0  0  0  0  0  0  0  0  0  0  0  0
    1.6949    0.7826   -0.8977 N   0  0  0  0  0  0  0  0  0  0  0  0
    2.7801    0.3575   -0.7755 N   0  0  0  0  0  0  0  0  0  0  0  0
    3.0024   -1.7163   -0.3229 Cl  0  0  0  0  0  0  0  0  0  0  0  0
  1  7  1  0  0  0  0
  2  1  1  0  0  0  0
  2  8  1  0  0  0  0
  3  2  2  0  0  0  0
  4  5  2  0  0  0  0
  4  3  1  0  0  0  0
  5  6  1  0  0  0  0
  6 11  1  0  0  0  0
  6  1  2  0  0  0  0
  9  4  1  0  0  0  0
 10  5  1  0  0  0  0
 11 13  2  0  0  0  0
 12 11  2  0  0  0  0
 14  3  1  0  0  0  0
 14 15  2  0  0  0  0
 15 16  1  0  0  0  0
M  END
