Coordinates from ORCA-job p-NO2-Ph-N2-X-Cl-B3LYPG-6-31G_dp-scan-d09-49-n400
 OpenBabel08281820523D

 16 15  0  0  0  0  0  0  0  0999 V2000
   -1.3158   -1.2430   -0.5610 C   0  0  0  0  0  0  0  0  0  0  0  0
    0.0695   -0.9195   -0.5871 C   0  0  0  0  0  0  0  0  0  0  0  0
    0.2472    0.4409   -0.8621 C   0  0  0  0  0  0  0  0  0  0  0  0
   -0.7021    1.4686   -1.1010 C   0  0  0  0  0  0  0  0  0  0  0  0
   -2.0192    1.0731   -1.0565 C   0  0  0  0  0  0  0  0  0  0  0  0
   -2.2927   -0.2844   -0.7849 C   0  0  0  0  0  0  0  0  0  0  0  0
   -1.6388   -2.2598   -0.3606 H   0  0  0  0  0  0  0  0  0  0  0  0
    1.6582   -2.1042   -0.3016 H   0  0  0  0  0  0  0  0  0  0  0  0
   -0.4159    2.4956   -1.3064 H   0  0  0  0  0  0  0  0  0  0  0  0
   -2.8365    1.7620   -1.2220 H   0  0  0  0  0  0  0  0  0  0  0  0
   -3.7249   -0.6857   -0.7423 N   0  0  0  0  0  0  0  0  0  0  0  0
   -4.5623    0.1923   -0.9448 O   0  0  0  0  0  0  0  0  0  0  0  0
   -3.9776   -1.8626   -0.5086 O   0  0  0  0  0  0  0  0  0  0  0  0
    1.5968    0.8098   -0.8975 N   0  0  0  0  0  0  0  0  0  0  0  0
    2.6925    1.0226   -0.9088 N   0  0  0  0  0  0  0  0  0  0  0  0
    2.7027   -2.6577   -0.1585 Cl  0  0  0  0  0  0  0  0  0  0  0  0
  1  7  1  0  0  0  0
  2  1  1  0  0  0  0
  3  2  2  0  0  0  0
  4  5  2  0  0  0  0
  4  3  1  0  0  0  0
  5  6  1  0  0  0  0
  6 11  1  0  0  0  0
  6  1  2  0  0  0  0
  8 16  1  0  0  0  0
  9  4  1  0  0  0  0
 10  5  1  0  0  0  0
 11 13  2  0  0  0  0
 12 11  2  0  0  0  0
 14  3  1  0  0  0  0
 15 14  1  0  0  0  0
M  RAD  3   2   2  14   2  15   3
M  END
