Coordinates from ORCA-job p-NO2-Ph-N2-X-Cl-B3LYPG-6-31G_dp-scan-d09-49-n400
 OpenBabel08281820523D

 16 16  0  0  0  0  0  0  0  0999 V2000
   -1.4268   -1.4798   -0.9387 C   0  0  0  0  0  0  0  0  0  0  0  0
   -0.0713   -1.2726   -1.1707 C   0  0  0  0  0  0  0  0  0  0  0  0
    0.4119    0.0381   -1.1936 C   0  0  0  0  0  0  0  0  0  0  0  0
   -0.4229    1.1467   -1.0305 C   0  0  0  0  0  0  0  0  0  0  0  0
   -1.7777    0.9334   -0.8004 C   0  0  0  0  0  0  0  0  0  0  0  0
   -2.2561   -0.3746   -0.7588 C   0  0  0  0  0  0  0  0  0  0  0  0
   -1.8482   -2.4762   -0.8963 H   0  0  0  0  0  0  0  0  0  0  0  0
    0.6047   -2.1067   -1.3169 H   0  0  0  0  0  0  0  0  0  0  0  0
   -0.0138    2.1496   -1.0699 H   0  0  0  0  0  0  0  0  0  0  0  0
   -2.4637    1.7576   -0.6531 H   0  0  0  0  0  0  0  0  0  0  0  0
   -3.6941   -0.5971   -0.5209 N   0  0  0  0  0  0  0  0  0  0  0  0
   -4.4019    0.3956   -0.3657 O   0  0  0  0  0  0  0  0  0  0  0  0
   -4.0900   -1.7603   -0.4950 O   0  0  0  0  0  0  0  0  0  0  0  0
    1.7886    0.2538   -1.4848 N   0  0  0  0  0  0  0  0  0  0  0  0
    2.7424    0.3771   -0.7962 N   0  0  0  0  0  0  0  0  0  0  0  0
    2.4000    0.2633    1.1875 Cl  0  0  0  0  0  0  0  0  0  0  0  0
  1  7  1  0  0  0  0
  1  6  2  0  0  0  0
  2  1  1  0  0  0  0
  3  2  2  0  0  0  0
  3  4  1  0  0  0  0
  4  5  2  0  0  0  0
  5  6  1  0  0  0  0
  5 10  1  0  0  0  0
  6 11  1  0  0  0  0
  8  2  1  0  0  0  0
  9  4  1  0  0  0  0
 11 13  2  0  0  0  0
 11 12  2  0  0  0  0
 14  3  1  0  0  0  0
 14 15  2  0  0  0  0
 15 16  1  0  0  0  0
M  END
