Coordinates from ORCA-job p-NO2-Ph-N2-X-Cl-B3LYPG-6-31G_dp-scan-d09-49-n400
 OpenBabel08281820523D

 16 15  0  0  0  0  0  0  0  0999 V2000
   -1.2807   -1.2900   -0.5490 C   0  0  0  0  0  0  0  0  0  0  0  0
    0.0628   -0.9142   -0.5887 C   0  0  0  0  0  0  0  0  0  0  0  0
    0.3265    0.4278   -0.8576 C   0  0  0  0  0  0  0  0  0  0  0  0
   -0.6385    1.4142   -1.0874 C   0  0  0  0  0  0  0  0  0  0  0  0
   -1.9689    1.0204   -1.0437 C   0  0  0  0  0  0  0  0  0  0  0  0
   -2.2583   -0.3221   -0.7756 C   0  0  0  0  0  0  0  0  0  0  0  0
   -1.5811   -2.3110   -0.3466 H   0  0  0  0  0  0  0  0  0  0  0  0
    1.0293   -1.5630   -0.4282 H   0  0  0  0  0  0  0  0  0  0  0  0
   -0.3528    2.4402   -1.2919 H   0  0  0  0  0  0  0  0  0  0  0  0
   -2.7797    1.7171   -1.2105 H   0  0  0  0  0  0  0  0  0  0  0  0
   -3.6833   -0.7285   -0.7332 N   0  0  0  0  0  0  0  0  0  0  0  0
   -4.5250    0.1437   -0.9351 O   0  0  0  0  0  0  0  0  0  0  0  0
   -3.9262   -1.9087   -0.4999 O   0  0  0  0  0  0  0  0  0  0  0  0
    1.7017    0.7865   -0.8926 N   0  0  0  0  0  0  0  0  0  0  0  0
    2.7340    0.2804   -0.7584 N   0  0  0  0  0  0  0  0  0  0  0  0
    2.6213   -1.9452   -0.3055 Cl  0  0  0  0  0  0  0  0  0  0  0  0
  1  7  1  0  0  0  0
  2  1  1  0  0  0  0
  2  8  1  0  0  0  0
  3  2  2  0  0  0  0
  4  5  2  0  0  0  0
  4  3  1  0  0  0  0
  5  6  1  0  0  0  0
  6 11  1  0  0  0  0
  6  1  2  0  0  0  0
  9  4  1  0  0  0  0
 10  5  1  0  0  0  0
 11 13  2  0  0  0  0
 12 11  2  0  0  0  0
 14  3  1  0  0  0  0
 14 15  2  0  0  0  0
M  RAD  2  15   2  16   2
M  END
