Coordinates from ORCA-job p-NO2-Ph-N2-X-Cl-B3LYPG-6-31G_dp-scan-d09-49-n400
 OpenBabel08281820523D

 16 16  0  0  0  0  0  0  0  0999 V2000
   -1.3755   -1.4114   -0.8244 C   0  0  0  0  0  0  0  0  0  0  0  0
   -0.0226   -1.1459   -1.0083 C   0  0  0  0  0  0  0  0  0  0  0  0
    0.3871    0.1877   -1.1254 C   0  0  0  0  0  0  0  0  0  0  0  0
   -0.5215    1.2506   -1.1005 C   0  0  0  0  0  0  0  0  0  0  0  0
   -1.8689    0.9807   -0.8909 C   0  0  0  0  0  0  0  0  0  0  0  0
   -2.2719   -0.3466   -0.7593 C   0  0  0  0  0  0  0  0  0  0  0  0
   -1.7428   -2.4250   -0.7253 H   0  0  0  0  0  0  0  0  0  0  0  0
    0.6950   -1.9544   -1.0690 H   0  0  0  0  0  0  0  0  0  0  0  0
   -0.1677    2.2674   -1.2277 H   0  0  0  0  0  0  0  0  0  0  0  0
   -2.6063    1.7713   -0.8404 H   0  0  0  0  0  0  0  0  0  0  0  0
   -3.7046   -0.6359   -0.5560 N   0  0  0  0  0  0  0  0  0  0  0  0
   -4.4715    0.3227   -0.4988 O   0  0  0  0  0  0  0  0  0  0  0  0
   -4.0349   -1.8152   -0.4583 O   0  0  0  0  0  0  0  0  0  0  0  0
    1.7465    0.4999   -1.3826 N   0  0  0  0  0  0  0  0  0  0  0  0
    2.7718    0.3109   -0.8292 N   0  0  0  0  0  0  0  0  0  0  0  0
    2.6692   -0.6088    0.9925 Cl  0  0  0  0  0  0  0  0  0  0  0  0
  1  6  1  0  0  0  0
  1  7  1  0  0  0  0
  2  1  2  0  0  0  0
  3  4  2  0  0  0  0
  3  2  1  0  0  0  0
  4  5  1  0  0  0  0
  5 10  1  0  0  0  0
  5  6  2  0  0  0  0
  6 11  1  0  0  0  0
  8  2  1  0  0  0  0
  9  4  1  0  0  0  0
 11 12  2  0  0  0  0
 11 13  2  0  0  0  0
 14  3  1  0  0  0  0
 14 15  2  0  0  0  0
 15 16  1  0  0  0  0
M  END
