Coordinates from ORCA-job p-NO2-Ph-N2-X-Cl-B3LYPG-6-31G_dp-scan-d09-49-n400
 OpenBabel08281820523D

 16 16  0  0  0  0  0  0  0  0999 V2000
   -1.3625   -1.3230   -0.5498 C   0  0  0  0  0  0  0  0  0  0  0  0
   -0.0093   -0.9992   -0.5797 C   0  0  0  0  0  0  0  0  0  0  0  0
    0.3504    0.3325   -0.8408 C   0  0  0  0  0  0  0  0  0  0  0  0
   -0.6094    1.3299   -1.0695 C   0  0  0  0  0  0  0  0  0  0  0  0
   -1.9579    0.9999   -1.0373 C   0  0  0  0  0  0  0  0  0  0  0  0
   -2.3069   -0.3242   -0.7772 C   0  0  0  0  0  0  0  0  0  0  0  0
   -1.6935   -2.3347   -0.3521 H   0  0  0  0  0  0  0  0  0  0  0  0
    0.7593   -1.7420   -0.4074 H   0  0  0  0  0  0  0  0  0  0  0  0
   -0.2836    2.3445   -1.2692 H   0  0  0  0  0  0  0  0  0  0  0  0
   -2.7327    1.7360   -1.2078 H   0  0  0  0  0  0  0  0  0  0  0  0
   -3.7423   -0.6827   -0.7423 N   0  0  0  0  0  0  0  0  0  0  0  0
   -4.5518    0.2183   -0.9467 O   0  0  0  0  0  0  0  0  0  0  0  0
   -4.0247   -1.8548   -0.5115 O   0  0  0  0  0  0  0  0  0  0  0  0
    1.6896    0.7744   -0.8965 N   0  0  0  0  0  0  0  0  0  0  0  0
    2.7972    0.4047   -0.7841 N   0  0  0  0  0  0  0  0  0  0  0  0
    3.1593   -1.6317   -0.3320 Cl  0  0  0  0  0  0  0  0  0  0  0  0
  1  7  1  0  0  0  0
  2  1  1  0  0  0  0
  2  8  1  0  0  0  0
  3  2  2  0  0  0  0
  4  5  2  0  0  0  0
  4  3  1  0  0  0  0
  5  6  1  0  0  0  0
  6 11  1  0  0  0  0
  6  1  2  0  0  0  0
  9  4  1  0  0  0  0
 10  5  1  0  0  0  0
 11 13  2  0  0  0  0
 12 11  2  0  0  0  0
 14  3  1  0  0  0  0
 14 15  2  0  0  0  0
 15 16  1  0  0  0  0
M  END
