Coordinates from ORCA-job p-NO2-Ph-N2-X-Cl-B3LYPG-6-31G_dp-scan-d09-49-n400
 OpenBabel08281820523D

 16 15  0  0  0  0  0  0  0  0999 V2000
   -1.2757   -1.2854   -0.5498 C   0  0  0  0  0  0  0  0  0  0  0  0
    0.0698   -0.9092   -0.5895 C   0  0  0  0  0  0  0  0  0  0  0  0
    0.3181    0.4332   -0.8588 C   0  0  0  0  0  0  0  0  0  0  0  0
   -0.6440    1.4226   -1.0891 C   0  0  0  0  0  0  0  0  0  0  0  0
   -1.9724    1.0243   -1.0445 C   0  0  0  0  0  0  0  0  0  0  0  0
   -2.2561   -0.3204   -0.7758 C   0  0  0  0  0  0  0  0  0  0  0  0
   -1.5757   -2.3068   -0.3473 H   0  0  0  0  0  0  0  0  0  0  0  0
    1.0796   -1.5686   -0.4256 H   0  0  0  0  0  0  0  0  0  0  0  0
   -0.3605    2.4492   -1.2938 H   0  0  0  0  0  0  0  0  0  0  0  0
   -2.7862    1.7177   -1.2107 H   0  0  0  0  0  0  0  0  0  0  0  0
   -3.6807   -0.7302   -0.7329 N   0  0  0  0  0  0  0  0  0  0  0  0
   -4.5247    0.1401   -0.9344 O   0  0  0  0  0  0  0  0  0  0  0  0
   -3.9211   -1.9108   -0.4995 O   0  0  0  0  0  0  0  0  0  0  0  0
    1.6990    0.7845   -0.8923 N   0  0  0  0  0  0  0  0  0  0  0  0
    2.7322    0.2925   -0.7614 N   0  0  0  0  0  0  0  0  0  0  0  0
    2.5794   -1.9848   -0.2983 Cl  0  0  0  0  0  0  0  0  0  0  0  0
  1  7  1  0  0  0  0
  2  1  1  0  0  0  0
  2  8  1  0  0  0  0
  3  2  2  0  0  0  0
  4  5  2  0  0  0  0
  4  3  1  0  0  0  0
  5  6  1  0  0  0  0
  6 11  1  0  0  0  0
  6  1  2  0  0  0  0
  9  4  1  0  0  0  0
 10  5  1  0  0  0  0
 11 13  2  0  0  0  0
 12 11  2  0  0  0  0
 14  3  1  0  0  0  0
 14 15  2  0  0  0  0
M  RAD  2  15   2  16   2
M  END
