Coordinates from ORCA-job p-NO2-Ph-N2-X-Cl-B3LYPG-6-31G_dp-scan-d09-49-n400
 OpenBabel08281820523D

 16 16  0  0  0  0  0  0  0  0999 V2000
   -1.4451   -1.4990   -0.9671 C   0  0  0  0  0  0  0  0  0  0  0  0
   -0.0877   -1.3088   -1.2025 C   0  0  0  0  0  0  0  0  0  0  0  0
    0.4191   -0.0078   -1.1946 C   0  0  0  0  0  0  0  0  0  0  0  0
   -0.3934    1.1118   -0.9958 C   0  0  0  0  0  0  0  0  0  0  0  0
   -1.7519    0.9168   -0.7716 C   0  0  0  0  0  0  0  0  0  0  0  0
   -2.2537   -0.3832   -0.7603 C   0  0  0  0  0  0  0  0  0  0  0  0
   -1.8839   -2.4884   -0.9450 H   0  0  0  0  0  0  0  0  0  0  0  0
    0.5775   -2.1477   -1.3673 H   0  0  0  0  0  0  0  0  0  0  0  0
    0.0347    2.1074   -1.0053 H   0  0  0  0  0  0  0  0  0  0  0  0
   -2.4228    1.7492   -0.6020 H   0  0  0  0  0  0  0  0  0  0  0  0
   -3.6951   -0.5853   -0.5239 N   0  0  0  0  0  0  0  0  0  0  0  0
   -4.3846    0.4160   -0.3432 O   0  0  0  0  0  0  0  0  0  0  0  0
   -4.1109   -1.7418   -0.5191 O   0  0  0  0  0  0  0  0  0  0  0  0
    1.7995    0.1807   -1.4852 N   0  0  0  0  0  0  0  0  0  0  0  0
    2.7344    0.4078   -0.7967 N   0  0  0  0  0  0  0  0  0  0  0  0
    2.3453    0.5204    1.1759 Cl  0  0  0  0  0  0  0  0  0  0  0  0
  1  7  1  0  0  0  0
  1  6  2  0  0  0  0
  2  3  2  0  0  0  0
  2  1  1  0  0  0  0
  3  4  1  0  0  0  0
  4  5  2  0  0  0  0
  5  6  1  0  0  0  0
  5 10  1  0  0  0  0
  6 11  1  0  0  0  0
  8  2  1  0  0  0  0
  9  4  1  0  0  0  0
 11 13  2  0  0  0  0
 11 12  2  0  0  0  0
 14  3  1  0  0  0  0
 14 15  2  0  0  0  0
 15 16  1  0  0  0  0
M  END
