Coordinates from ORCA-job p-NO2-Ph-N2-X-Cl-B3LYPG-6-31G_dp-scan-d09-49-n400
 OpenBabel08281820523D

 16 15  0  0  0  0  0  0  0  0999 V2000
   -1.2785   -1.2883   -0.5494 C   0  0  0  0  0  0  0  0  0  0  0  0
    0.0656   -0.9120   -0.5891 C   0  0  0  0  0  0  0  0  0  0  0  0
    0.3238    0.4302   -0.8580 C   0  0  0  0  0  0  0  0  0  0  0  0
   -0.6404    1.4175   -1.0878 C   0  0  0  0  0  0  0  0  0  0  0  0
   -1.9700    1.0218   -1.0438 C   0  0  0  0  0  0  0  0  0  0  0  0
   -2.2572   -0.3215   -0.7757 C   0  0  0  0  0  0  0  0  0  0  0  0
   -1.5785   -2.3095   -0.3469 H   0  0  0  0  0  0  0  0  0  0  0  0
    1.0467   -1.5634   -0.4273 H   0  0  0  0  0  0  0  0  0  0  0  0
   -0.3557    2.4437   -1.2924 H   0  0  0  0  0  0  0  0  0  0  0  0
   -2.7820    1.7172   -1.2103 H   0  0  0  0  0  0  0  0  0  0  0  0
   -3.6820   -0.7294   -0.7331 N   0  0  0  0  0  0  0  0  0  0  0  0
   -4.5247    0.1420   -0.9349 O   0  0  0  0  0  0  0  0  0  0  0  0
   -3.9238   -1.9098   -0.5000 O   0  0  0  0  0  0  0  0  0  0  0  0
    1.7010    0.7860   -0.8927 N   0  0  0  0  0  0  0  0  0  0  0  0
    2.7328    0.2827   -0.7603 N   0  0  0  0  0  0  0  0  0  0  0  0
    2.6041   -1.9593   -0.3022 Cl  0  0  0  0  0  0  0  0  0  0  0  0
  1  7  1  0  0  0  0
  2  1  1  0  0  0  0
  2  8  1  0  0  0  0
  3  2  2  0  0  0  0
  4  5  2  0  0  0  0
  4  3  1  0  0  0  0
  5  6  1  0  0  0  0
  6 11  1  0  0  0  0
  6  1  2  0  0  0  0
  9  4  1  0  0  0  0
 10  5  1  0  0  0  0
 11 13  2  0  0  0  0
 12 11  2  0  0  0  0
 14  3  1  0  0  0  0
 14 15  2  0  0  0  0
M  RAD  2  15   2  16   2
M  END
