Coordinates from ORCA-job p-NO2-Ph-N2-X-Cl-B3LYPG-6-31G_dp-scan-d09-49-n400
 OpenBabel08281820523D

 16 16  0  0  0  0  0  0  0  0999 V2000
   -1.3628   -1.3873   -0.7731 C   0  0  0  0  0  0  0  0  0  0  0  0
   -0.0103   -1.1025   -0.9297 C   0  0  0  0  0  0  0  0  0  0  0  0
    0.3777    0.2352   -1.0795 C   0  0  0  0  0  0  0  0  0  0  0  0
   -0.5525    1.2807   -1.1083 C   0  0  0  0  0  0  0  0  0  0  0  0
   -1.8993    0.9930   -0.9223 C   0  0  0  0  0  0  0  0  0  0  0  0
   -2.2796   -0.3379   -0.7614 C   0  0  0  0  0  0  0  0  0  0  0  0
   -1.7144   -2.4043   -0.6538 H   0  0  0  0  0  0  0  0  0  0  0  0
    0.7253   -1.8958   -0.9400 H   0  0  0  0  0  0  0  0  0  0  0  0
   -0.2126    2.2988   -1.2609 H   0  0  0  0  0  0  0  0  0  0  0  0
   -2.6526    1.7701   -0.9143 H   0  0  0  0  0  0  0  0  0  0  0  0
   -3.7124   -0.6489   -0.5848 N   0  0  0  0  0  0  0  0  0  0  0  0
   -4.4972    0.2965   -0.5731 O   0  0  0  0  0  0  0  0  0  0  0  0
   -4.0229   -1.8310   -0.4625 O   0  0  0  0  0  0  0  0  0  0  0  0
    1.7310    0.5827   -1.3087 N   0  0  0  0  0  0  0  0  0  0  0  0
    2.7797    0.3138   -0.8420 N   0  0  0  0  0  0  0  0  0  0  0  0
    2.7841   -0.9151    0.8106 Cl  0  0  0  0  0  0  0  0  0  0  0  0
  1  6  1  0  0  0  0
  1  7  1  0  0  0  0
  2  1  2  0  0  0  0
  3  2  1  0  0  0  0
  4  3  2  0  0  0  0
  4  5  1  0  0  0  0
  5 10  1  0  0  0  0
  5  6  2  0  0  0  0
  6 11  1  0  0  0  0
  8  2  1  0  0  0  0
  9  4  1  0  0  0  0
 11 12  2  0  0  0  0
 11 13  2  0  0  0  0
 14  3  1  0  0  0  0
 14 15  2  0  0  0  0
 15 16  1  0  0  0  0
M  END
