Coordinates from ORCA-job p-NO2-Ph-N2-X-Cl-B3LYPG-6-31G_dp-scan-d09-49-n400
 OpenBabel08281820523D

 16 16  0  0  0  0  0  0  0  0999 V2000
   -1.3731   -1.4069   -0.8151 C   0  0  0  0  0  0  0  0  0  0  0  0
   -0.0203   -1.1379   -0.9942 C   0  0  0  0  0  0  0  0  0  0  0  0
    0.3853    0.1967   -1.1172 C   0  0  0  0  0  0  0  0  0  0  0  0
   -0.5276    1.2563   -1.1023 C   0  0  0  0  0  0  0  0  0  0  0  0
   -1.8749    0.9832   -0.8967 C   0  0  0  0  0  0  0  0  0  0  0  0
   -2.2735   -0.3449   -0.7595 C   0  0  0  0  0  0  0  0  0  0  0  0
   -1.7374   -2.4212   -0.7124 H   0  0  0  0  0  0  0  0  0  0  0  0
    0.7002   -1.9442   -1.0469 H   0  0  0  0  0  0  0  0  0  0  0  0
   -0.1766    2.2735   -1.2346 H   0  0  0  0  0  0  0  0  0  0  0  0
   -2.6154    1.7714   -0.8542 H   0  0  0  0  0  0  0  0  0  0  0  0
   -3.7063   -0.6383   -0.5610 N   0  0  0  0  0  0  0  0  0  0  0  0
   -4.4767    0.3179   -0.5127 O   0  0  0  0  0  0  0  0  0  0  0  0
   -4.0327   -1.8182   -0.4583 O   0  0  0  0  0  0  0  0  0  0  0  0
    1.7434    0.5160   -1.3699 N   0  0  0  0  0  0  0  0  0  0  0  0
    2.7737    0.3113   -0.8321 N   0  0  0  0  0  0  0  0  0  0  0  0
    2.6932   -0.6669    0.9633 Cl  0  0  0  0  0  0  0  0  0  0  0  0
  1  6  1  0  0  0  0
  1  7  1  0  0  0  0
  2  1  2  0  0  0  0
  3  4  2  0  0  0  0
  3  2  1  0  0  0  0
  4  5  1  0  0  0  0
  5 10  1  0  0  0  0
  5  6  2  0  0  0  0
  6 11  1  0  0  0  0
  8  2  1  0  0  0  0
  9  4  1  0  0  0  0
 11 12  2  0  0  0  0
 11 13  2  0  0  0  0
 14  3  1  0  0  0  0
 14 15  2  0  0  0  0
 15 16  1  0  0  0  0
M  END
