Coordinates from ORCA-job p-NO2-Ph-N2-X-Cl-B3LYPG-6-31G_dp-scan-d09-49-n400
 OpenBabel08281820523D

 16 15  0  0  0  0  0  0  0  0999 V2000
   -1.3335   -1.2215   -0.5612 C   0  0  0  0  0  0  0  0  0  0  0  0
    0.0556   -0.8991   -0.5858 C   0  0  0  0  0  0  0  0  0  0  0  0
    0.2221    0.4618   -0.8641 C   0  0  0  0  0  0  0  0  0  0  0  0
   -0.7273    1.4898   -1.1068 C   0  0  0  0  0  0  0  0  0  0  0  0
   -2.0431    1.0921   -1.0631 C   0  0  0  0  0  0  0  0  0  0  0  0
   -2.3127   -0.2667   -0.7882 C   0  0  0  0  0  0  0  0  0  0  0  0
   -1.6576   -2.2379   -0.3590 H   0  0  0  0  0  0  0  0  0  0  0  0
    1.8866   -2.3029   -0.2602 H   0  0  0  0  0  0  0  0  0  0  0  0
   -0.4426    2.5170   -1.3143 H   0  0  0  0  0  0  0  0  0  0  0  0
   -2.8623    1.7781   -1.2312 H   0  0  0  0  0  0  0  0  0  0  0  0
   -3.7440   -0.6707   -0.7465 N   0  0  0  0  0  0  0  0  0  0  0  0
   -4.5839    0.2044   -0.9530 O   0  0  0  0  0  0  0  0  0  0  0  0
   -3.9960   -1.8475   -0.5099 O   0  0  0  0  0  0  0  0  0  0  0  0
    1.5718    0.8340   -0.8992 N   0  0  0  0  0  0  0  0  0  0  0  0
    2.6668    1.0536   -0.9108 N   0  0  0  0  0  0  0  0  0  0  0  0
    2.7812   -2.7367   -0.1506 Cl  0  0  0  0  0  0  0  0  0  0  0  0
  1  7  1  0  0  0  0
  2  1  1  0  0  0  0
  3  2  2  0  0  0  0
  4  5  2  0  0  0  0
  4  3  1  0  0  0  0
  5  6  1  0  0  0  0
  6 11  1  0  0  0  0
  6  1  2  0  0  0  0
  8 16  1  0  0  0  0
  9  4  1  0  0  0  0
 10  5  1  0  0  0  0
 11 13  2  0  0  0  0
 12 11  2  0  0  0  0
 14  3  1  0  0  0  0
 15 14  1  0  0  0  0
M  RAD  3   2   2  14   2  15   3
M  END
