Coordinates from ORCA-job p-NO2-Ph-N2-X-Cl-B3LYPG-6-31G_dp-scan-d09-49-n400
 OpenBabel08281820523D

 16 16  0  0  0  0  0  0  0  0999 V2000
   -1.5013   -1.5445   -1.0371 C   0  0  0  0  0  0  0  0  0  0  0  0
   -0.1356   -1.3962   -1.2493 C   0  0  0  0  0  0  0  0  0  0  0  0
    0.4342   -0.1257   -1.1375 C   0  0  0  0  0  0  0  0  0  0  0  0
   -0.3296    1.0150   -0.8647 C   0  0  0  0  0  0  0  0  0  0  0  0
   -1.6999    0.8666   -0.6808 C   0  0  0  0  0  0  0  0  0  0  0  0
   -2.2593   -0.4075   -0.7636 C   0  0  0  0  0  0  0  0  0  0  0  0
   -1.9859   -2.5110   -1.0913 H   0  0  0  0  0  0  0  0  0  0  0  0
    0.4992   -2.2443   -1.4741 H   0  0  0  0  0  0  0  0  0  0  0  0
    0.1425    1.9867   -0.7925 H   0  0  0  0  0  0  0  0  0  0  0  0
   -2.3366    1.7155   -0.4670 H   0  0  0  0  0  0  0  0  0  0  0  0
   -3.7137   -0.5577   -0.5603 N   0  0  0  0  0  0  0  0  0  0  0  0
   -4.3596    0.4603   -0.3240 O   0  0  0  0  0  0  0  0  0  0  0  0
   -4.1804   -1.6919   -0.6370 O   0  0  0  0  0  0  0  0  0  0  0  0
    1.8234   -0.0174   -1.4020 N   0  0  0  0  0  0  0  0  0  0  0  0
    2.7410    0.4567   -0.8278 N   0  0  0  0  0  0  0  0  0  0  0  0
    2.3429    1.2433    1.0052 Cl  0  0  0  0  0  0  0  0  0  0  0  0
  1  6  2  0  0  0  0
  2  3  2  0  0  0  0
  2  1  1  0  0  0  0
  3  4  1  0  0  0  0
  4  9  1  0  0  0  0
  4  5  2  0  0  0  0
  5 10  1  0  0  0  0
  6  5  1  0  0  0  0
  6 11  1  0  0  0  0
  7  1  1  0  0  0  0
  8  2  1  0  0  0  0
 11 12  2  0  0  0  0
 13 11  2  0  0  0  0
 14  3  1  0  0  0  0
 14 15  2  0  0  0  0
 15 16  1  0  0  0  0
M  END
