Coordinates from ORCA-job p-NO2-Ph-N2-X-Cl-B3LYPG-6-31G_dp-scan-d09-49-n400
 OpenBabel08281820523D

 16 16  0  0  0  0  0  0  0  0999 V2000
   -1.3575   -1.3538   -0.6783 C   0  0  0  0  0  0  0  0  0  0  0  0
   -0.0042   -1.0466   -0.7800 C   0  0  0  0  0  0  0  0  0  0  0  0
    0.3621    0.2925   -0.9800 C   0  0  0  0  0  0  0  0  0  0  0  0
   -0.5911    1.3132   -1.1006 C   0  0  0  0  0  0  0  0  0  0  0  0
   -1.9394    1.0036   -0.9760 C   0  0  0  0  0  0  0  0  0  0  0  0
   -2.2960   -0.3278   -0.7688 C   0  0  0  0  0  0  0  0  0  0  0  0
   -1.6930   -2.3715   -0.5238 H   0  0  0  0  0  0  0  0  0  0  0  0
    0.7546   -1.8132   -0.7000 H   0  0  0  0  0  0  0  0  0  0  0  0
   -0.2628    2.3304   -1.2824 H   0  0  0  0  0  0  0  0  0  0  0  0
   -2.7096    1.7605   -1.0472 H   0  0  0  0  0  0  0  0  0  0  0  0
   -3.7307   -0.6654   -0.6495 N   0  0  0  0  0  0  0  0  0  0  0  0
   -4.5352    0.2593   -0.7332 O   0  0  0  0  0  0  0  0  0  0  0  0
   -4.0197   -1.8459   -0.4752 O   0  0  0  0  0  0  0  0  0  0  0  0
    1.7068    0.6956   -1.1374 N   0  0  0  0  0  0  0  0  0  0  0  0
    2.7923    0.3586   -0.8374 N   0  0  0  0  0  0  0  0  0  0  0  0
    3.0046   -1.3416    0.3661 Cl  0  0  0  0  0  0  0  0  0  0  0  0
  1  7  1  0  0  0  0
  2  8  1  0  0  0  0
  2  1  2  0  0  0  0
  3  2  1  0  0  0  0
  4  3  2  0  0  0  0
  4  5  1  0  0  0  0
  5  6  2  0  0  0  0
  6  1  1  0  0  0  0
  6 11  1  0  0  0  0
  9  4  1  0  0  0  0
 10  5  1  0  0  0  0
 11 13  2  0  0  0  0
 12 11  2  0  0  0  0
 14  3  1  0  0  0  0
 14 15  2  0  0  0  0
 15 16  1  0  0  0  0
M  END
