Coordinates from ORCA-job p-NO2-Ph-N2-X-Cl-B3LYPG-6-31G_dp-scan-d09-49-n400
 OpenBabel08281820523D

 16 15  0  0  0  0  0  0  0  0999 V2000
   -1.2746   -1.2821   -0.5502 C   0  0  0  0  0  0  0  0  0  0  0  0
    0.0732   -0.9071   -0.5894 C   0  0  0  0  0  0  0  0  0  0  0  0
    0.3107    0.4353   -0.8591 C   0  0  0  0  0  0  0  0  0  0  0  0
   -0.6486    1.4278   -1.0901 C   0  0  0  0  0  0  0  0  0  0  0  0
   -1.9758    1.0274   -1.0452 C   0  0  0  0  0  0  0  0  0  0  0  0
   -2.2563   -0.3187   -0.7762 C   0  0  0  0  0  0  0  0  0  0  0  0
   -1.5750   -2.3036   -0.3477 H   0  0  0  0  0  0  0  0  0  0  0  0
    1.1198   -1.5814   -0.4215 H   0  0  0  0  0  0  0  0  0  0  0  0
   -0.3657    2.4547   -1.2949 H   0  0  0  0  0  0  0  0  0  0  0  0
   -2.7910    1.7190   -1.2113 H   0  0  0  0  0  0  0  0  0  0  0  0
   -3.6809   -0.7301   -0.7333 N   0  0  0  0  0  0  0  0  0  0  0  0
   -4.5259    0.1395   -0.9346 O   0  0  0  0  0  0  0  0  0  0  0  0
   -3.9205   -1.9107   -0.4997 O   0  0  0  0  0  0  0  0  0  0  0  0
    1.6957    0.7820   -0.8918 N   0  0  0  0  0  0  0  0  0  0  0  0
    2.7338    0.3107   -0.7660 N   0  0  0  0  0  0  0  0  0  0  0  0
    2.5622   -2.0147   -0.2929 Cl  0  0  0  0  0  0  0  0  0  0  0  0
  1  7  1  0  0  0  0
  2  1  1  0  0  0  0
  2  8  1  0  0  0  0
  3  2  2  0  0  0  0
  4  5  2  0  0  0  0
  4  3  1  0  0  0  0
  5  6  1  0  0  0  0
  6 11  1  0  0  0  0
  6  1  2  0  0  0  0
  9  4  1  0  0  0  0
 10  5  1  0  0  0  0
 11 13  2  0  0  0  0
 12 11  2  0  0  0  0
 14  3  1  0  0  0  0
 14 15  2  0  0  0  0
M  RAD  2  15   2  16   2
M  END
