Coordinates from ORCA-job p-NO2-Ph-N2-X-Cl-B3LYPG-6-31G_dp-scan-d09-49-n400
 OpenBabel08281820523D

 16 16  0  0  0  0  0  0  0  0999 V2000
   -1.4110   -1.4615   -0.9114 C   0  0  0  0  0  0  0  0  0  0  0  0
   -0.0566   -1.2383   -1.1348 C   0  0  0  0  0  0  0  0  0  0  0  0
    0.4053    0.0802   -1.1843 C   0  0  0  0  0  0  0  0  0  0  0  0
   -0.4503    1.1774   -1.0568 C   0  0  0  0  0  0  0  0  0  0  0  0
   -1.8024    0.9477   -0.8263 C   0  0  0  0  0  0  0  0  0  0  0  0
   -2.2594   -0.3667   -0.7589 C   0  0  0  0  0  0  0  0  0  0  0  0
   -1.8167   -2.4635   -0.8527 H   0  0  0  0  0  0  0  0  0  0  0  0
    0.6300   -2.0669   -1.2627 H   0  0  0  0  0  0  0  0  0  0  0  0
   -0.0580    2.1858   -1.1217 H   0  0  0  0  0  0  0  0  0  0  0  0
   -2.5027    1.7637   -0.7022 H   0  0  0  0  0  0  0  0  0  0  0  0
   -3.6951   -0.6079   -0.5249 N   0  0  0  0  0  0  0  0  0  0  0  0
   -4.4191    0.3761   -0.3900 O   0  0  0  0  0  0  0  0  0  0  0  0
   -4.0720   -1.7766   -0.4769 O   0  0  0  0  0  0  0  0  0  0  0  0
    1.7781    0.3207   -1.4721 N   0  0  0  0  0  0  0  0  0  0  0  0
    2.7505    0.3501   -0.8006 N   0  0  0  0  0  0  0  0  0  0  0  0
    2.4604    0.0276    1.1726 Cl  0  0  0  0  0  0  0  0  0  0  0  0
  1  7  1  0  0  0  0
  1  6  2  0  0  0  0
  2  1  1  0  0  0  0
  3  2  2  0  0  0  0
  3  4  1  0  0  0  0
  4  5  2  0  0  0  0
  5  6  1  0  0  0  0
  5 10  1  0  0  0  0
  6 11  1  0  0  0  0
  8  2  1  0  0  0  0
  9  4  1  0  0  0  0
 11 13  2  0  0  0  0
 11 12  2  0  0  0  0
 14  3  1  0  0  0  0
 14 15  2  0  0  0  0
 15 16  1  0  0  0  0
M  END
