Coordinates from ORCA-job p-NO2-Ph-N2-X-Cl-B3LYPG-6-31G_dp-scan-d09-49-n400
 OpenBabel08281820523D

 16 16  0  0  0  0  0  0  0  0999 V2000
   -1.3654   -1.3923   -0.7842 C   0  0  0  0  0  0  0  0  0  0  0  0
   -0.0128   -1.1116   -0.9463 C   0  0  0  0  0  0  0  0  0  0  0  0
    0.3796    0.2254   -1.0893 C   0  0  0  0  0  0  0  0  0  0  0  0
   -0.5464    1.2745   -1.1071 C   0  0  0  0  0  0  0  0  0  0  0  0
   -1.8934    0.9907   -0.9160 C   0  0  0  0  0  0  0  0  0  0  0  0
   -2.2782   -0.3396   -0.7611 C   0  0  0  0  0  0  0  0  0  0  0  0
   -1.7202   -2.4087   -0.6694 H   0  0  0  0  0  0  0  0  0  0  0  0
    0.7185   -1.9089   -0.9686 H   0  0  0  0  0  0  0  0  0  0  0  0
   -0.2037    2.2925   -1.2547 H   0  0  0  0  0  0  0  0  0  0  0  0
   -2.6435    1.7706   -0.8993 H   0  0  0  0  0  0  0  0  0  0  0  0
   -3.7111   -0.6462   -0.5792 N   0  0  0  0  0  0  0  0  0  0  0  0
   -4.4922    0.3021   -0.5565 O   0  0  0  0  0  0  0  0  0  0  0  0
   -4.0254   -1.8277   -0.4605 O   0  0  0  0  0  0  0  0  0  0  0  0
    1.7339    0.5665   -1.3248 N   0  0  0  0  0  0  0  0  0  0  0  0
    2.7785    0.3133   -0.8400 N   0  0  0  0  0  0  0  0  0  0  0  0
    2.7629   -0.8528    0.8534 Cl  0  0  0  0  0  0  0  0  0  0  0  0
  1  6  1  0  0  0  0
  1  7  1  0  0  0  0
  2  1  2  0  0  0  0
  3  2  1  0  0  0  0
  4  3  2  0  0  0  0
  4  5  1  0  0  0  0
  5 10  1  0  0  0  0
  5  6  2  0  0  0  0
  6 11  1  0  0  0  0
  8  2  1  0  0  0  0
  9  4  1  0  0  0  0
 11 12  2  0  0  0  0
 11 13  2  0  0  0  0
 14  3  1  0  0  0  0
 14 15  2  0  0  0  0
 15 16  1  0  0  0  0
M  END
