Coordinates from ORCA-job p-NO2-Ph-N2-X-Cl-B3LYPG-6-31G_dp-scan-d09-49-n400
 OpenBabel08281820523D

 16 16  0  0  0  0  0  0  0  0999 V2000
   -1.3840   -1.4247   -0.8491 C   0  0  0  0  0  0  0  0  0  0  0  0
   -0.0309   -1.1703   -1.0457 C   0  0  0  0  0  0  0  0  0  0  0  0
    0.3919    0.1601   -1.1451 C   0  0  0  0  0  0  0  0  0  0  0  0
   -0.5034    1.2325   -1.0919 C   0  0  0  0  0  0  0  0  0  0  0  0
   -1.8517    0.9728   -0.8734 C   0  0  0  0  0  0  0  0  0  0  0  0
   -2.2684   -0.3517   -0.7584 C   0  0  0  0  0  0  0  0  0  0  0  0
   -1.7609   -2.4358   -0.7606 H   0  0  0  0  0  0  0  0  0  0  0  0
    0.6779   -1.9852   -1.1278 H   0  0  0  0  0  0  0  0  0  0  0  0
   -0.1406    2.2479   -1.2037 H   0  0  0  0  0  0  0  0  0  0  0  0
   -2.5796    1.7706   -0.8016 H   0  0  0  0  0  0  0  0  0  0  0  0
   -3.7014   -0.6287   -0.5442 N   0  0  0  0  0  0  0  0  0  0  0  0
   -4.4577    0.3370   -0.4660 O   0  0  0  0  0  0  0  0  0  0  0  0
   -4.0438   -1.8058   -0.4618 O   0  0  0  0  0  0  0  0  0  0  0  0
    1.7548    0.4524   -1.4146 N   0  0  0  0  0  0  0  0  0  0  0  0
    2.7671    0.3152   -0.8222 N   0  0  0  0  0  0  0  0  0  0  0  0
    2.6118   -0.4385    1.0625 Cl  0  0  0  0  0  0  0  0  0  0  0  0
  1  7  1  0  0  0  0
  1  6  1  0  0  0  0
  2  1  2  0  0  0  0
  3  4  2  0  0  0  0
  3  2  1  0  0  0  0
  4  5  1  0  0  0  0
  5 10  1  0  0  0  0
  5  6  2  0  0  0  0
  6 11  1  0  0  0  0
  8  2  1  0  0  0  0
  9  4  1  0  0  0  0
 11 12  2  0  0  0  0
 11 13  2  0  0  0  0
 14  3  1  0  0  0  0
 14 15  2  0  0  0  0
 15 16  1  0  0  0  0
M  END
