Coordinates from ORCA-job p-NO2-Ph-N2-X-Cl-B3LYPG-6-31G_dp-scan-d09-49-n400
 OpenBabel08281820523D

 16 16  0  0  0  0  0  0  0  0999 V2000
   -1.5210   -1.5562   -1.0619 C   0  0  0  0  0  0  0  0  0  0  0  0
   -0.1514   -1.4210   -1.2546 C   0  0  0  0  0  0  0  0  0  0  0  0
    0.4373   -0.1619   -1.1000 C   0  0  0  0  0  0  0  0  0  0  0  0
   -0.3152    0.9827   -0.8081 C   0  0  0  0  0  0  0  0  0  0  0  0
   -1.6899    0.8479   -0.6448 C   0  0  0  0  0  0  0  0  0  0  0  0
   -2.2653   -0.4157   -0.7653 C   0  0  0  0  0  0  0  0  0  0  0  0
   -2.0190   -2.5133   -1.1497 H   0  0  0  0  0  0  0  0  0  0  0  0
    0.4714   -2.2719   -1.5031 H   0  0  0  0  0  0  0  0  0  0  0  0
    0.1682    1.9455   -0.7066 H   0  0  0  0  0  0  0  0  0  0  0  0
   -2.3175    1.7003   -0.4187 H   0  0  0  0  0  0  0  0  0  0  0  0
   -3.7246   -0.5509   -0.5807 N   0  0  0  0  0  0  0  0  0  0  0  0
   -4.3589    0.4700   -0.3275 O   0  0  0  0  0  0  0  0  0  0  0  0
   -4.2057   -1.6758   -0.6933 O   0  0  0  0  0  0  0  0  0  0  0  0
    1.8304   -0.0822   -1.3417 N   0  0  0  0  0  0  0  0  0  0  0  0
    2.7539    0.4514   -0.8372 N   0  0  0  0  0  0  0  0  0  0  0  0
    2.3886    1.4989    0.8894 Cl  0  0  0  0  0  0  0  0  0  0  0  0
  1  6  2  0  0  0  0
  2  3  2  0  0  0  0
  2  1  1  0  0  0  0
  3  4  1  0  0  0  0
  4  9  1  0  0  0  0
  4  5  2  0  0  0  0
  5 10  1  0  0  0  0
  6  5  1  0  0  0  0
  6 11  1  0  0  0  0
  7  1  1  0  0  0  0
  8  2  1  0  0  0  0
 11 12  2  0  0  0  0
 13 11  2  0  0  0  0
 14  3  1  0  0  0  0
 14 15  2  0  0  0  0
 15 16  1  0  0  0  0
M  END
