Coordinates from ORCA-job p-NO2-Ph-N2-X-Cl-B3LYPG-6-31G_dp-scan-d09-49-n400
 OpenBabel08281820523D

 16 16  0  0  0  0  0  0  0  0999 V2000
   -1.3604   -1.3813   -0.7590 C   0  0  0  0  0  0  0  0  0  0  0  0
   -0.0080   -1.0919   -0.9073 C   0  0  0  0  0  0  0  0  0  0  0  0
    0.3752    0.2465   -1.0656 C   0  0  0  0  0  0  0  0  0  0  0  0
   -0.5599    1.2875   -1.1090 C   0  0  0  0  0  0  0  0  0  0  0  0
   -1.9067    0.9957   -0.9309 C   0  0  0  0  0  0  0  0  0  0  0  0
   -2.2818   -0.3359   -0.7624 C   0  0  0  0  0  0  0  0  0  0  0  0
   -1.7085   -2.3989   -0.6341 H   0  0  0  0  0  0  0  0  0  0  0  0
    0.7325   -1.8806   -0.9029 H   0  0  0  0  0  0  0  0  0  0  0  0
   -0.2228    2.3057   -1.2674 H   0  0  0  0  0  0  0  0  0  0  0  0
   -2.6637    1.7692   -0.9348 H   0  0  0  0  0  0  0  0  0  0  0  0
   -3.7148   -0.6521   -0.5936 N   0  0  0  0  0  0  0  0  0  0  0  0
   -4.5038    0.2899   -0.5949 O   0  0  0  0  0  0  0  0  0  0  0  0
   -4.0207   -1.8345   -0.4642 O   0  0  0  0  0  0  0  0  0  0  0  0
    1.7270    0.6034   -1.2851 N   0  0  0  0  0  0  0  0  0  0  0  0
    2.7817    0.3174   -0.8438 N   0  0  0  0  0  0  0  0  0  0  0  0
    2.8160   -0.9923    0.7513 Cl  0  0  0  0  0  0  0  0  0  0  0  0
  1  7  1  0  0  0  0
  2  8  1  0  0  0  0
  2  1  2  0  0  0  0
  3  2  1  0  0  0  0
  4  3  2  0  0  0  0
  4  5  1  0  0  0  0
  5  6  2  0  0  0  0
  6  1  1  0  0  0  0
  6 11  1  0  0  0  0
  9  4  1  0  0  0  0
 10  5  1  0  0  0  0
 11 13  2  0  0  0  0
 12 11  2  0  0  0  0
 14  3  1  0  0  0  0
 14 15  2  0  0  0  0
 15 16  1  0  0  0  0
M  END
