Coordinates from ORCA-job p-NO2-Ph-N2-X-Cl-B3LYPG-6-31G_dp-scan-d09-49-n400
 OpenBabel08281820523D

 16 16  0  0  0  0  0  0  0  0999 V2000
   -1.4295   -1.4827   -0.9431 C   0  0  0  0  0  0  0  0  0  0  0  0
   -0.0737   -1.2781   -1.1760 C   0  0  0  0  0  0  0  0  0  0  0  0
    0.4130    0.0312   -1.1944 C   0  0  0  0  0  0  0  0  0  0  0  0
   -0.4184    1.1416   -1.0258 C   0  0  0  0  0  0  0  0  0  0  0  0
   -1.7737    0.9310   -0.7962 C   0  0  0  0  0  0  0  0  0  0  0  0
   -2.2556   -0.3759   -0.7590 C   0  0  0  0  0  0  0  0  0  0  0  0
   -1.8534   -2.4781   -0.9035 H   0  0  0  0  0  0  0  0  0  0  0  0
    0.6007   -2.1130   -1.3251 H   0  0  0  0  0  0  0  0  0  0  0  0
   -0.0065    2.1435   -1.0608 H   0  0  0  0  0  0  0  0  0  0  0  0
   -2.4575    1.7565   -0.6454 H   0  0  0  0  0  0  0  0  0  0  0  0
   -3.6941   -0.5954   -0.5208 N   0  0  0  0  0  0  0  0  0  0  0  0
   -4.3992    0.3987   -0.3619 O   0  0  0  0  0  0  0  0  0  0  0  0
   -4.0929   -1.7576   -0.4980 O   0  0  0  0  0  0  0  0  0  0  0  0
    1.7903    0.2430   -1.4857 N   0  0  0  0  0  0  0  0  0  0  0  0
    2.7410    0.3816   -0.7957 N   0  0  0  0  0  0  0  0  0  0  0  0
    2.3906    0.3015    1.1876 Cl  0  0  0  0  0  0  0  0  0  0  0  0
  1  7  1  0  0  0  0
  1  6  2  0  0  0  0
  2  1  1  0  0  0  0
  3  2  2  0  0  0  0
  3  4  1  0  0  0  0
  4  5  2  0  0  0  0
  5  6  1  0  0  0  0
  5 10  1  0  0  0  0
  6 11  1  0  0  0  0
  8  2  1  0  0  0  0
  9  4  1  0  0  0  0
 11 13  2  0  0  0  0
 11 12  2  0  0  0  0
 14  3  1  0  0  0  0
 14 15  2  0  0  0  0
 15 16  1  0  0  0  0
M  END
