Coordinates from ORCA-job p-NO2-Ph-N2-X-Cl-B3LYPG-6-31G_dp-scan-d09-49-n400
 OpenBabel08281820523D

 16 15  0  0  0  0  0  0  0  0999 V2000
   -1.3240   -1.2309   -0.5635 C   0  0  0  0  0  0  0  0  0  0  0  0
    0.0635   -0.9078   -0.5894 C   0  0  0  0  0  0  0  0  0  0  0  0
    0.2337    0.4534   -0.8649 C   0  0  0  0  0  0  0  0  0  0  0  0
   -0.7164    1.4813   -1.1040 C   0  0  0  0  0  0  0  0  0  0  0  0
   -2.0325    1.0840   -1.0592 C   0  0  0  0  0  0  0  0  0  0  0  0
   -2.3029   -0.2747   -0.7870 C   0  0  0  0  0  0  0  0  0  0  0  0
   -1.6472   -2.2478   -0.3630 H   0  0  0  0  0  0  0  0  0  0  0  0
    1.7764   -2.2108   -0.2779 H   0  0  0  0  0  0  0  0  0  0  0  0
   -0.4316    2.5088   -1.3096 H   0  0  0  0  0  0  0  0  0  0  0  0
   -2.8513    1.7711   -1.2246 H   0  0  0  0  0  0  0  0  0  0  0  0
   -3.7344   -0.6782   -0.7441 N   0  0  0  0  0  0  0  0  0  0  0  0
   -4.5738    0.1981   -0.9468 O   0  0  0  0  0  0  0  0  0  0  0  0
   -3.9859   -1.8554   -0.5100 O   0  0  0  0  0  0  0  0  0  0  0  0
    1.5829    0.8253   -0.9009 N   0  0  0  0  0  0  0  0  0  0  0  0
    2.6778    1.0439   -0.9133 N   0  0  0  0  0  0  0  0  0  0  0  0
    2.7469   -2.7125   -0.1457 Cl  0  0  0  0  0  0  0  0  0  0  0  0
  1  7  1  0  0  0  0
  2  1  1  0  0  0  0
  3  2  2  0  0  0  0
  4  5  2  0  0  0  0
  4  3  1  0  0  0  0
  5  6  1  0  0  0  0
  6 11  1  0  0  0  0
  6  1  2  0  0  0  0
  8 16  1  0  0  0  0
  9  4  1  0  0  0  0
 10  5  1  0  0  0  0
 11 13  2  0  0  0  0
 12 11  2  0  0  0  0
 14  3  1  0  0  0  0
 15 14  1  0  0  0  0
M  RAD  3   2   2  14   2  15   3
M  END
