Coordinates from ORCA-job p-NO2-Ph-N2-X-Cl-B3LYPG-6-31G_dp-scan-d09-49-n400
 OpenBabel08281820523D

 16 16  0  0  0  0  0  0  0  0999 V2000
   -1.4863   -1.5343   -1.0190 C   0  0  0  0  0  0  0  0  0  0  0  0
   -0.1232   -1.3759   -1.2426 C   0  0  0  0  0  0  0  0  0  0  0  0
    0.4313   -0.0971   -1.1607 C   0  0  0  0  0  0  0  0  0  0  0  0
   -0.3427    1.0394   -0.9033 C   0  0  0  0  0  0  0  0  0  0  0  0
   -1.7098    0.8801   -0.7055 C   0  0  0  0  0  0  0  0  0  0  0  0
   -2.2558   -0.4013   -0.7619 C   0  0  0  0  0  0  0  0  0  0  0  0
   -1.9599   -2.5072   -1.0500 H   0  0  0  0  0  0  0  0  0  0  0  0
    0.5196   -2.2223   -1.4506 H   0  0  0  0  0  0  0  0  0  0  0  0
    0.1198    2.0174   -0.8522 H   0  0  0  0  0  0  0  0  0  0  0  0
   -2.3539    1.7256   -0.5009 H   0  0  0  0  0  0  0  0  0  0  0  0
   -3.7065   -0.5639   -0.5457 N   0  0  0  0  0  0  0  0  0  0  0  0
   -4.3627    0.4515   -0.3259 O   0  0  0  0  0  0  0  0  0  0  0  0
   -4.1617   -1.7039   -0.6008 O   0  0  0  0  0  0  0  0  0  0  0  0
    1.8180    0.0330   -1.4365 N   0  0  0  0  0  0  0  0  0  0  0  0
    2.7343    0.4530   -0.8181 N   0  0  0  0  0  0  0  0  0  0  0  0
    2.3209    1.0539    1.0699 Cl  0  0  0  0  0  0  0  0  0  0  0  0
  1  6  2  0  0  0  0
  2  3  2  0  0  0  0
  2  1  1  0  0  0  0
  3  4  1  0  0  0  0
  4  9  1  0  0  0  0
  4  5  2  0  0  0  0
  5 10  1  0  0  0  0
  6  5  1  0  0  0  0
  6 11  1  0  0  0  0
  7  1  1  0  0  0  0
  8  2  1  0  0  0  0
 11 12  2  0  0  0  0
 13 11  2  0  0  0  0
 14  3  1  0  0  0  0
 14 15  2  0  0  0  0
 15 16  1  0  0  0  0
M  END
