Coordinates from ORCA-job p-NO2-Ph-N2-X-Cl-B3LYPG-6-31G_dp-scan-d09-49-n400
 OpenBabel08281820523D

 16 16  0  0  0  0  0  0  0  0999 V2000
   -1.4733   -1.5241   -1.0029 C   0  0  0  0  0  0  0  0  0  0  0  0
   -0.1122   -1.3564   -1.2331 C   0  0  0  0  0  0  0  0  0  0  0  0
    0.4279   -0.0705   -1.1757 C   0  0  0  0  0  0  0  0  0  0  0  0
   -0.3569    1.0616   -0.9343 C   0  0  0  0  0  0  0  0  0  0  0  0
   -1.7212    0.8917   -0.7266 C   0  0  0  0  0  0  0  0  0  0  0  0
   -2.2543   -0.3957   -0.7610 C   0  0  0  0  0  0  0  0  0  0  0  0
   -1.9364   -2.5025   -1.0156 H   0  0  0  0  0  0  0  0  0  0  0  0
    0.5372   -2.2012   -1.4273 H   0  0  0  0  0  0  0  0  0  0  0  0
    0.0959    2.0452   -0.9020 H   0  0  0  0  0  0  0  0  0  0  0  0
   -2.3729    1.7337   -0.5317 H   0  0  0  0  0  0  0  0  0  0  0  0
   -3.7018   -0.5701   -0.5365 N   0  0  0  0  0  0  0  0  0  0  0  0
   -4.3681    0.4417   -0.3303 O   0  0  0  0  0  0  0  0  0  0  0  0
   -4.1455   -1.7155   -0.5719 O   0  0  0  0  0  0  0  0  0  0  0  0
    1.8124    0.0790   -1.4591 N   0  0  0  0  0  0  0  0  0  0  0  0
    2.7320    0.4438   -0.8103 N   0  0  0  0  0  0  0  0  0  0  0  0
    2.3186    0.8872    1.1147 Cl  0  0  0  0  0  0  0  0  0  0  0  0
  1  6  2  0  0  0  0
  2  3  2  0  0  0  0
  2  1  1  0  0  0  0
  3  4  1  0  0  0  0
  4  9  1  0  0  0  0
  4  5  2  0  0  0  0
  5 10  1  0  0  0  0
  6  5  1  0  0  0  0
  6 11  1  0  0  0  0
  7  1  1  0  0  0  0
  8  2  1  0  0  0  0
 11 12  2  0  0  0  0
 13 11  2  0  0  0  0
 14  3  1  0  0  0  0
 14 15  2  0  0  0  0
 15 16  1  0  0  0  0
M  END
