Coordinates from ORCA-job p-NO2-Ph-N2-X-Cl-B3LYPG-6-31G_dp-scan-d09-49-n400
 OpenBabel08281820523D

 16 16  0  0  0  0  0  0  0  0999 V2000
   -1.4086   -1.4585   -0.9063 C   0  0  0  0  0  0  0  0  0  0  0  0
   -0.0544   -1.2328   -1.1283 C   0  0  0  0  0  0  0  0  0  0  0  0
    0.4042    0.0868   -1.1821 C   0  0  0  0  0  0  0  0  0  0  0  0
   -0.4547    1.1821   -1.0602 C   0  0  0  0  0  0  0  0  0  0  0  0
   -1.8063    0.9499   -0.8297 C   0  0  0  0  0  0  0  0  0  0  0  0
   -2.2600   -0.3655   -0.7582 C   0  0  0  0  0  0  0  0  0  0  0  0
   -1.8119   -2.4614   -0.8449 H   0  0  0  0  0  0  0  0  0  0  0  0
    0.6338   -2.0605   -1.2532 H   0  0  0  0  0  0  0  0  0  0  0  0
   -0.0650    2.1912   -1.1292 H   0  0  0  0  0  0  0  0  0  0  0  0
   -2.5089    1.7645   -0.7093 H   0  0  0  0  0  0  0  0  0  0  0  0
   -3.6953   -0.6097   -0.5247 N   0  0  0  0  0  0  0  0  0  0  0  0
   -4.4224    0.3730   -0.3968 O   0  0  0  0  0  0  0  0  0  0  0  0
   -4.0698   -1.7791   -0.4767 O   0  0  0  0  0  0  0  0  0  0  0  0
    1.7761    0.3314   -1.4692 N   0  0  0  0  0  0  0  0  0  0  0  0
    2.7521    0.3463   -0.8025 N   0  0  0  0  0  0  0  0  0  0  0  0
    2.4724   -0.0096    1.1675 Cl  0  0  0  0  0  0  0  0  0  0  0  0
  1  7  1  0  0  0  0
  1  6  2  0  0  0  0
  2  1  1  0  0  0  0
  3  2  2  0  0  0  0
  3  4  1  0  0  0  0
  4  5  2  0  0  0  0
  5  6  1  0  0  0  0
  5 10  1  0  0  0  0
  6 11  1  0  0  0  0
  8  2  1  0  0  0  0
  9  4  1  0  0  0  0
 11 13  2  0  0  0  0
 11 12  2  0  0  0  0
 14  3  1  0  0  0  0
 14 15  2  0  0  0  0
 15 16  1  0  0  0  0
M  END
