Coordinates from ORCA-job p-NO2-Ph-N2-X-Cl-B3LYPG-6-31G_dp-scan-d09-49-n400
 OpenBabel08281820523D

 16 16  0  0  0  0  0  0  0  0999 V2000
   -1.3622   -1.3855   -0.7686 C   0  0  0  0  0  0  0  0  0  0  0  0
   -0.0097   -1.0995   -0.9228 C   0  0  0  0  0  0  0  0  0  0  0  0
    0.3770    0.2384   -1.0753 C   0  0  0  0  0  0  0  0  0  0  0  0
   -0.5547    1.2826   -1.1085 C   0  0  0  0  0  0  0  0  0  0  0  0
   -1.9015    0.9939   -0.9246 C   0  0  0  0  0  0  0  0  0  0  0  0
   -2.2803   -0.3372   -0.7612 C   0  0  0  0  0  0  0  0  0  0  0  0
   -1.7127   -2.4027   -0.6476 H   0  0  0  0  0  0  0  0  0  0  0  0
    0.7272   -1.8917   -0.9293 H   0  0  0  0  0  0  0  0  0  0  0  0
   -0.2155    2.3007   -1.2629 H   0  0  0  0  0  0  0  0  0  0  0  0
   -2.6559    1.7699   -0.9202 H   0  0  0  0  0  0  0  0  0  0  0  0
   -3.7131   -0.6497   -0.5867 N   0  0  0  0  0  0  0  0  0  0  0  0
   -4.4994    0.2946   -0.5805 O   0  0  0  0  0  0  0  0  0  0  0  0
   -4.0225   -1.8321   -0.4642 O   0  0  0  0  0  0  0  0  0  0  0  0
    1.7296    0.5891   -1.3015 N   0  0  0  0  0  0  0  0  0  0  0  0
    2.7804    0.3153   -0.8432 N   0  0  0  0  0  0  0  0  0  0  0  0
    2.7945   -0.9379    0.7931 Cl  0  0  0  0  0  0  0  0  0  0  0  0
  1  6  1  0  0  0  0
  1  7  1  0  0  0  0
  2  1  2  0  0  0  0
  3  2  1  0  0  0  0
  4  3  2  0  0  0  0
  4  5  1  0  0  0  0
  5 10  1  0  0  0  0
  5  6  2  0  0  0  0
  6 11  1  0  0  0  0
  8  2  1  0  0  0  0
  9  4  1  0  0  0  0
 11 12  2  0  0  0  0
 11 13  2  0  0  0  0
 14  3  1  0  0  0  0
 14 15  2  0  0  0  0
 15 16  1  0  0  0  0
M  END
