Coordinates from ORCA-job p-NO2-Ph-N2-X-Cl-B3LYPG-6-31G_dp-scan-d09-49-n400
 OpenBabel08281820523D

 16 16  0  0  0  0  0  0  0  0999 V2000
   -1.3786   -1.4168   -0.8349 C   0  0  0  0  0  0  0  0  0  0  0  0
   -0.0257   -1.1556   -1.0245 C   0  0  0  0  0  0  0  0  0  0  0  0
    0.3891    0.1767   -1.1344 C   0  0  0  0  0  0  0  0  0  0  0  0
   -0.5141    1.2435   -1.0975 C   0  0  0  0  0  0  0  0  0  0  0  0
   -1.8618    0.9776   -0.8838 C   0  0  0  0  0  0  0  0  0  0  0  0
   -2.2702   -0.3487   -0.7590 C   0  0  0  0  0  0  0  0  0  0  0  0
   -1.7497   -2.4295   -0.7401 H   0  0  0  0  0  0  0  0  0  0  0  0
    0.6886   -1.9666   -1.0940 H   0  0  0  0  0  0  0  0  0  0  0  0
   -0.1568    2.2599   -1.2185 H   0  0  0  0  0  0  0  0  0  0  0  0
   -2.5954    1.7711   -0.8241 H   0  0  0  0  0  0  0  0  0  0  0  0
   -3.7030   -0.6331   -0.5507 N   0  0  0  0  0  0  0  0  0  0  0  0
   -4.4655    0.3285   -0.4839 O   0  0  0  0  0  0  0  0  0  0  0  0
   -4.0381   -1.8115   -0.4591 O   0  0  0  0  0  0  0  0  0  0  0  0
    1.7502    0.4800   -1.3972 N   0  0  0  0  0  0  0  0  0  0  0  0
    2.7696    0.3113   -0.8260 N   0  0  0  0  0  0  0  0  0  0  0  0
    2.6426   -0.5389    1.0238 Cl  0  0  0  0  0  0  0  0  0  0  0  0
  1  6  1  0  0  0  0
  1  7  1  0  0  0  0
  2  1  2  0  0  0  0
  3  4  2  0  0  0  0
  3  2  1  0  0  0  0
  4  5  1  0  0  0  0
  5 10  1  0  0  0  0
  5  6  2  0  0  0  0
  6 11  1  0  0  0  0
  8  2  1  0  0  0  0
  9  4  1  0  0  0  0
 11 12  2  0  0  0  0
 11 13  2  0  0  0  0
 14  3  1  0  0  0  0
 14 15  2  0  0  0  0
 15 16  1  0  0  0  0
M  END
