Coordinates from ORCA-job p-NO2-Ph-N2-X-Cl-B3LYPG-6-31G_dp-scan-d09-49-n400
 OpenBabel08281820523D

 16 15  0  0  0  0  0  0  0  0999 V2000
   -1.3082   -1.2606   -0.5559 C   0  0  0  0  0  0  0  0  0  0  0  0
    0.0729   -0.9361   -0.5817 C   0  0  0  0  0  0  0  0  0  0  0  0
    0.2651    0.4218   -0.8566 C   0  0  0  0  0  0  0  0  0  0  0  0
   -0.6818    1.4492   -1.0967 C   0  0  0  0  0  0  0  0  0  0  0  0
   -2.0010    1.0574   -1.0538 C   0  0  0  0  0  0  0  0  0  0  0  0
   -2.2809   -0.2977   -0.7821 C   0  0  0  0  0  0  0  0  0  0  0  0
   -1.6309   -2.2772   -0.3550 H   0  0  0  0  0  0  0  0  0  0  0  0
    1.5063   -1.9649   -0.3339 H   0  0  0  0  0  0  0  0  0  0  0  0
   -0.3925    2.4751   -1.3022 H   0  0  0  0  0  0  0  0  0  0  0  0
   -2.8153    1.7495   -1.2210 H   0  0  0  0  0  0  0  0  0  0  0  0
   -3.7145   -0.6944   -0.7414 N   0  0  0  0  0  0  0  0  0  0  0  0
   -4.5480    0.1869   -0.9440 O   0  0  0  0  0  0  0  0  0  0  0  0
   -3.9700   -1.8699   -0.5054 O   0  0  0  0  0  0  0  0  0  0  0  0
    1.6169    0.7827   -0.8899 N   0  0  0  0  0  0  0  0  0  0  0  0
    2.7154    0.9757   -0.8968 N   0  0  0  0  0  0  0  0  0  0  0  0
    2.6480   -2.5494   -0.1874 Cl  0  0  0  0  0  0  0  0  0  0  0  0
  1  7  1  0  0  0  0
  2  1  1  0  0  0  0
  3  2  2  0  0  0  0
  4  5  2  0  0  0  0
  4  3  1  0  0  0  0
  5  6  1  0  0  0  0
  6 11  1  0  0  0  0
  6  1  2  0  0  0  0
  8 16  1  0  0  0  0
  9  4  1  0  0  0  0
 10  5  1  0  0  0  0
 11 13  2  0  0  0  0
 12 11  2  0  0  0  0
 14  3  1  0  0  0  0
 15 14  1  0  0  0  0
M  RAD  3   2   2  14   2  15   3
M  END
