Coordinates from ORCA-job p-NO2-Ph-N2-X-Cl-B3LYPG-6-31G_dp-scan-d09-49-n400
 OpenBabel08281820523D

 16 15  0  0  0  0  0  0  0  0999 V2000
   -1.2981   -1.2996   -0.5501 C   0  0  0  0  0  0  0  0  0  0  0  0
    0.0450   -0.9320   -0.5888 C   0  0  0  0  0  0  0  0  0  0  0  0
    0.3377    0.4085   -0.8551 C   0  0  0  0  0  0  0  0  0  0  0  0
   -0.6293    1.3939   -1.0836 C   0  0  0  0  0  0  0  0  0  0  0  0
   -1.9645    1.0139   -1.0421 C   0  0  0  0  0  0  0  0  0  0  0  0
   -2.2682   -0.3239   -0.7761 C   0  0  0  0  0  0  0  0  0  0  0  0
   -1.6036   -2.3189   -0.3487 H   0  0  0  0  0  0  0  0  0  0  0  0
    0.9452   -1.5869   -0.4282 H   0  0  0  0  0  0  0  0  0  0  0  0
   -0.3355    2.4177   -1.2868 H   0  0  0  0  0  0  0  0  0  0  0  0
   -2.7673    1.7199   -1.2092 H   0  0  0  0  0  0  0  0  0  0  0  0
   -3.6952   -0.7197   -0.7341 N   0  0  0  0  0  0  0  0  0  0  0  0
   -4.5300    0.1590   -0.9355 O   0  0  0  0  0  0  0  0  0  0  0  0
   -3.9464   -1.8983   -0.5011 O   0  0  0  0  0  0  0  0  0  0  0  0
    1.7017    0.7878   -0.8939 N   0  0  0  0  0  0  0  0  0  0  0  0
    2.7472    0.2911   -0.7594 N   0  0  0  0  0  0  0  0  0  0  0  0
    2.7424   -1.8645   -0.3110 Cl  0  0  0  0  0  0  0  0  0  0  0  0
  1  7  1  0  0  0  0
  2  1  1  0  0  0  0
  2  8  1  0  0  0  0
  3  2  2  0  0  0  0
  4  5  2  0  0  0  0
  4  3  1  0  0  0  0
  5  6  1  0  0  0  0
  6 11  1  0  0  0  0
  6  1  2  0  0  0  0
  9  4  1  0  0  0  0
 10  5  1  0  0  0  0
 11 13  2  0  0  0  0
 12 11  2  0  0  0  0
 14  3  1  0  0  0  0
 14 15  2  0  0  0  0
M  RAD  2  15   2  16   2
M  END
