Coordinates from ORCA-job p-NO2-Ph-N2-X-Cl-B3LYPG-6-31G_dp-scan-d09-49-n400
 OpenBabel08281820523D

 16 16  0  0  0  0  0  0  0  0999 V2000
   -1.4943   -1.5399   -1.0285 C   0  0  0  0  0  0  0  0  0  0  0  0
   -0.1298   -1.3871   -1.2465 C   0  0  0  0  0  0  0  0  0  0  0  0
    0.4330   -0.1127   -1.1490 C   0  0  0  0  0  0  0  0  0  0  0  0
   -0.3352    1.0262   -0.8829 C   0  0  0  0  0  0  0  0  0  0  0  0
   -1.7040    0.8728   -0.6920 C   0  0  0  0  0  0  0  0  0  0  0  0
   -2.2574   -0.4046   -0.7624 C   0  0  0  0  0  0  0  0  0  0  0  0
   -1.9739   -2.5095   -1.0715 H   0  0  0  0  0  0  0  0  0  0  0  0
    0.5086   -2.2345   -1.4636 H   0  0  0  0  0  0  0  0  0  0  0  0
    0.1326    2.0008   -0.8205 H   0  0  0  0  0  0  0  0  0  0  0  0
   -2.3440    1.7202   -0.4822 H   0  0  0  0  0  0  0  0  0  0  0  0
   -3.7100   -0.5605   -0.5526 N   0  0  0  0  0  0  0  0  0  0  0  0
   -4.3607    0.4566   -0.3253 O   0  0  0  0  0  0  0  0  0  0  0  0
   -4.1718   -1.6972   -0.6205 O   0  0  0  0  0  0  0  0  0  0  0  0
    1.8209    0.0059   -1.4195 N   0  0  0  0  0  0  0  0  0  0  0  0
    2.7374    0.4560   -0.8235 N   0  0  0  0  0  0  0  0  0  0  0  0
    2.3300    1.1554    1.0368 Cl  0  0  0  0  0  0  0  0  0  0  0  0
  1  6  2  0  0  0  0
  2  3  2  0  0  0  0
  2  1  1  0  0  0  0
  3  4  1  0  0  0  0
  4  9  1  0  0  0  0
  4  5  2  0  0  0  0
  5 10  1  0  0  0  0
  6  5  1  0  0  0  0
  6 11  1  0  0  0  0
  7  1  1  0  0  0  0
  8  2  1  0  0  0  0
 11 12  2  0  0  0  0
 13 11  2  0  0  0  0
 14  3  1  0  0  0  0
 14 15  2  0  0  0  0
 15 16  1  0  0  0  0
M  END
