Coordinates from ORCA-job p-NO2-Ph-N2-X-Cl-B3LYPG-6-31G_dp-scan-d09-49-n400
 OpenBabel08281820523D

 16 16  0  0  0  0  0  0  0  0999 V2000
   -1.4225   -1.4749   -0.9316 C   0  0  0  0  0  0  0  0  0  0  0  0
   -0.0673   -1.2635   -1.1617 C   0  0  0  0  0  0  0  0  0  0  0  0
    0.4101    0.0494   -1.1919 C   0  0  0  0  0  0  0  0  0  0  0  0
   -0.4302    1.1550   -1.0381 C   0  0  0  0  0  0  0  0  0  0  0  0
   -1.7843    0.9373   -0.8074 C   0  0  0  0  0  0  0  0  0  0  0  0
   -2.2569   -0.3725   -0.7588 C   0  0  0  0  0  0  0  0  0  0  0  0
   -1.8397   -2.4729   -0.8846 H   0  0  0  0  0  0  0  0  0  0  0  0
    0.6115   -2.0963   -1.3033 H   0  0  0  0  0  0  0  0  0  0  0  0
   -0.0257    2.1595   -1.0845 H   0  0  0  0  0  0  0  0  0  0  0  0
   -2.4741    1.7594   -0.6661 H   0  0  0  0  0  0  0  0  0  0  0  0
   -3.6942   -0.6000   -0.5213 N   0  0  0  0  0  0  0  0  0  0  0  0
   -4.4064    0.3905   -0.3716 O   0  0  0  0  0  0  0  0  0  0  0  0
   -4.0850   -1.7647   -0.4897 O   0  0  0  0  0  0  0  0  0  0  0  0
    1.7859    0.2718   -1.4824 N   0  0  0  0  0  0  0  0  0  0  0  0
    2.7445    0.3696   -0.7968 N   0  0  0  0  0  0  0  0  0  0  0  0
    2.4154    0.2003    1.1861 Cl  0  0  0  0  0  0  0  0  0  0  0  0
  1  7  1  0  0  0  0
  1  6  2  0  0  0  0
  2  1  1  0  0  0  0
  3  2  2  0  0  0  0
  3  4  1  0  0  0  0
  4  5  2  0  0  0  0
  5  6  1  0  0  0  0
  5 10  1  0  0  0  0
  6 11  1  0  0  0  0
  8  2  1  0  0  0  0
  9  4  1  0  0  0  0
 11 13  2  0  0  0  0
 11 12  2  0  0  0  0
 14  3  1  0  0  0  0
 14 15  2  0  0  0  0
 15 16  1  0  0  0  0
M  END
