Coordinates from ORCA-job p-NO2-Ph-N2-X-Cl-B3LYPG-6-31G_dp-scan-d09-49-n400
 OpenBabel08281820523D

 16 15  0  0  0  0  0  0  0  0999 V2000
   -1.3352   -1.2200   -0.5599 C   0  0  0  0  0  0  0  0  0  0  0  0
    0.0541   -0.8978   -0.5842 C   0  0  0  0  0  0  0  0  0  0  0  0
    0.2203    0.4628   -0.8634 C   0  0  0  0  0  0  0  0  0  0  0  0
   -0.7289    1.4908   -1.1074 C   0  0  0  0  0  0  0  0  0  0  0  0
   -2.0447    1.0933   -1.0639 C   0  0  0  0  0  0  0  0  0  0  0  0
   -2.3143   -0.2654   -0.7881 C   0  0  0  0  0  0  0  0  0  0  0  0
   -1.6596   -2.2362   -0.3570 H   0  0  0  0  0  0  0  0  0  0  0  0
    1.9056   -2.3178   -0.2579 H   0  0  0  0  0  0  0  0  0  0  0  0
   -0.4440    2.5179   -1.3155 H   0  0  0  0  0  0  0  0  0  0  0  0
   -2.8638    1.7791   -1.2328 H   0  0  0  0  0  0  0  0  0  0  0  0
   -3.7457   -0.6693   -0.7467 N   0  0  0  0  0  0  0  0  0  0  0  0
   -4.5855    0.2054   -0.9551 O   0  0  0  0  0  0  0  0  0  0  0  0
   -3.9978   -1.8462   -0.5103 O   0  0  0  0  0  0  0  0  0  0  0  0
    1.5702    0.8349   -0.8983 N   0  0  0  0  0  0  0  0  0  0  0  0
    2.6652    1.0542   -0.9096 N   0  0  0  0  0  0  0  0  0  0  0  0
    2.7852   -2.7377   -0.1538 Cl  0  0  0  0  0  0  0  0  0  0  0  0
  1  7  1  0  0  0  0
  2  1  1  0  0  0  0
  3  2  2  0  0  0  0
  4  5  2  0  0  0  0
  4  3  1  0  0  0  0
  5  6  1  0  0  0  0
  6 11  1  0  0  0  0
  6  1  2  0  0  0  0
  8 16  1  0  0  0  0
  9  4  1  0  0  0  0
 10  5  1  0  0  0  0
 11 13  2  0  0  0  0
 12 11  2  0  0  0  0
 14  3  1  0  0  0  0
 15 14  1  0  0  0  0
M  RAD  3   2   2  14   2  15   3
M  END
