Coordinates from ORCA-job p-NO2-Ph-N2-X-Cl-B3LYPG-6-31G_dp-scan-d09-49-n400
 OpenBabel08281820523D

 16 15  0  0  0  0  0  0  0  0999 V2000
   -1.3151   -1.2446   -0.5605 C   0  0  0  0  0  0  0  0  0  0  0  0
    0.0699   -0.9211   -0.5866 C   0  0  0  0  0  0  0  0  0  0  0  0
    0.2488    0.4391   -0.8616 C   0  0  0  0  0  0  0  0  0  0  0  0
   -0.7003    1.4668   -1.1006 C   0  0  0  0  0  0  0  0  0  0  0  0
   -2.0176    1.0717   -1.0563 C   0  0  0  0  0  0  0  0  0  0  0  0
   -2.2916   -0.2856   -0.7846 C   0  0  0  0  0  0  0  0  0  0  0  0
   -1.6381   -2.2614   -0.3601 H   0  0  0  0  0  0  0  0  0  0  0  0
    1.6445   -2.0909   -0.3047 H   0  0  0  0  0  0  0  0  0  0  0  0
   -0.4138    2.4937   -1.3061 H   0  0  0  0  0  0  0  0  0  0  0  0
   -2.8346    1.7609   -1.2219 H   0  0  0  0  0  0  0  0  0  0  0  0
   -3.7240   -0.6864   -0.7421 N   0  0  0  0  0  0  0  0  0  0  0  0
   -4.5610    0.1918   -0.9448 O   0  0  0  0  0  0  0  0  0  0  0  0
   -3.9769   -1.8633   -0.5085 O   0  0  0  0  0  0  0  0  0  0  0  0
    1.5986    0.8073   -0.8969 N   0  0  0  0  0  0  0  0  0  0  0  0
    2.6944    1.0188   -0.9078 N   0  0  0  0  0  0  0  0  0  0  0  0
    2.6979   -2.6490   -0.1608 Cl  0  0  0  0  0  0  0  0  0  0  0  0
  1  7  1  0  0  0  0
  2  1  1  0  0  0  0
  3  2  2  0  0  0  0
  4  5  2  0  0  0  0
  4  3  1  0  0  0  0
  5  6  1  0  0  0  0
  6 11  1  0  0  0  0
  6  1  2  0  0  0  0
  8 16  1  0  0  0  0
  9  4  1  0  0  0  0
 10  5  1  0  0  0  0
 11 13  2  0  0  0  0
 12 11  2  0  0  0  0
 14  3  1  0  0  0  0
 15 14  1  0  0  0  0
M  RAD  3   2   2  14   2  15   3
M  END
