Coordinates from ORCA-job p-NO2-Ph-N2-X-Cl-B3LYPG-6-31G_dp-scan-d09-49-n400
 OpenBabel08281820523D

 16 16  0  0  0  0  0  0  0  0999 V2000
   -1.3719   -1.4053   -0.8120 C   0  0  0  0  0  0  0  0  0  0  0  0
   -0.0192   -1.1348   -0.9898 C   0  0  0  0  0  0  0  0  0  0  0  0
    0.3847    0.2000   -1.1149 C   0  0  0  0  0  0  0  0  0  0  0  0
   -0.5295    1.2586   -1.1031 C   0  0  0  0  0  0  0  0  0  0  0  0
   -1.8767    0.9840   -0.8986 C   0  0  0  0  0  0  0  0  0  0  0  0
   -2.2738   -0.3443   -0.7595 C   0  0  0  0  0  0  0  0  0  0  0  0
   -1.7351   -2.4199   -0.7079 H   0  0  0  0  0  0  0  0  0  0  0  0
    0.7028   -1.9399   -1.0392 H   0  0  0  0  0  0  0  0  0  0  0  0
   -0.1796    2.2759   -1.2370 H   0  0  0  0  0  0  0  0  0  0  0  0
   -2.6183    1.7713   -0.8584 H   0  0  0  0  0  0  0  0  0  0  0  0
   -3.7064   -0.6392   -0.5624 N   0  0  0  0  0  0  0  0  0  0  0  0
   -4.4781    0.3161   -0.5169 O   0  0  0  0  0  0  0  0  0  0  0  0
   -4.0315   -1.8193   -0.4581 O   0  0  0  0  0  0  0  0  0  0  0  0
    1.7426    0.5209   -1.3665 N   0  0  0  0  0  0  0  0  0  0  0  0
    2.7739    0.3106   -0.8327 N   0  0  0  0  0  0  0  0  0  0  0  0
    2.6975   -0.6866    0.9533 Cl  0  0  0  0  0  0  0  0  0  0  0  0
  1  6  1  0  0  0  0
  1  7  1  0  0  0  0
  2  1  2  0  0  0  0
  3  4  2  0  0  0  0
  3  2  1  0  0  0  0
  4  5  1  0  0  0  0
  5 10  1  0  0  0  0
  5  6  2  0  0  0  0
  6 11  1  0  0  0  0
  8  2  1  0  0  0  0
  9  4  1  0  0  0  0
 11 12  2  0  0  0  0
 11 13  2  0  0  0  0
 14  3  1  0  0  0  0
 14 15  2  0  0  0  0
 15 16  1  0  0  0  0
M  END
