Coordinates from ORCA-job p-NO2-Ph-N2-X-Cl-B3LYPG-6-31G_dp-scan-d09-49-n400
 OpenBabel08281820523D

 16 16  0  0  0  0  0  0  0  0999 V2000
   -1.4126   -1.4633   -0.9140 C   0  0  0  0  0  0  0  0  0  0  0  0
   -0.0581   -1.2418   -1.1386 C   0  0  0  0  0  0  0  0  0  0  0  0
    0.4060    0.0759   -1.1855 C   0  0  0  0  0  0  0  0  0  0  0  0
   -0.4476    1.1744   -1.0542 C   0  0  0  0  0  0  0  0  0  0  0  0
   -1.7999    0.9463   -0.8235 C   0  0  0  0  0  0  0  0  0  0  0  0
   -2.2590   -0.3675   -0.7586 C   0  0  0  0  0  0  0  0  0  0  0  0
   -1.8198   -2.4648   -0.8568 H   0  0  0  0  0  0  0  0  0  0  0  0
    0.6273   -2.0711   -1.2686 H   0  0  0  0  0  0  0  0  0  0  0  0
   -0.0536    2.1822   -1.1168 H   0  0  0  0  0  0  0  0  0  0  0  0
   -2.4987    1.7631   -0.6969 H   0  0  0  0  0  0  0  0  0  0  0  0
   -3.6949   -0.6069   -0.5237 N   0  0  0  0  0  0  0  0  0  0  0  0
   -4.4175    0.3781   -0.3882 O   0  0  0  0  0  0  0  0  0  0  0  0
   -4.0740   -1.7750   -0.4794 O   0  0  0  0  0  0  0  0  0  0  0  0
    1.7791    0.3140   -1.4739 N   0  0  0  0  0  0  0  0  0  0  0  0
    2.7498    0.3527   -0.8003 N   0  0  0  0  0  0  0  0  0  0  0  0
    2.4546    0.0516    1.1751 Cl  0  0  0  0  0  0  0  0  0  0  0  0
  1  7  1  0  0  0  0
  1  6  2  0  0  0  0
  2  1  1  0  0  0  0
  3  2  2  0  0  0  0
  3  4  1  0  0  0  0
  4  5  2  0  0  0  0
  5  6  1  0  0  0  0
  5 10  1  0  0  0  0
  6 11  1  0  0  0  0
  8  2  1  0  0  0  0
  9  4  1  0  0  0  0
 11 13  2  0  0  0  0
 11 12  2  0  0  0  0
 14  3  1  0  0  0  0
 14 15  2  0  0  0  0
 15 16  1  0  0  0  0
M  END
