Coordinates from ORCA-job p-NO2-Ph-N2-X-Cl-B3LYPG-6-31G_dp-scan-d09-49-n400
 OpenBabel08281820523D

 16 16  0  0  0  0  0  0  0  0999 V2000
   -1.3614   -1.3829   -0.7625 C   0  0  0  0  0  0  0  0  0  0  0  0
   -0.0088   -1.0948   -0.9127 C   0  0  0  0  0  0  0  0  0  0  0  0
    0.3758    0.2434   -1.0688 C   0  0  0  0  0  0  0  0  0  0  0  0
   -0.5581    1.2856   -1.1087 C   0  0  0  0  0  0  0  0  0  0  0  0
   -1.9050    0.9950   -0.9288 C   0  0  0  0  0  0  0  0  0  0  0  0
   -2.2815   -0.3364   -0.7622 C   0  0  0  0  0  0  0  0  0  0  0  0
   -1.7104   -2.4003   -0.6392 H   0  0  0  0  0  0  0  0  0  0  0  0
    0.7301   -1.8850   -0.9122 H   0  0  0  0  0  0  0  0  0  0  0  0
   -0.2202    2.3037   -1.2656 H   0  0  0  0  0  0  0  0  0  0  0  0
   -2.6610    1.7694   -0.9298 H   0  0  0  0  0  0  0  0  0  0  0  0
   -3.7145   -0.6512   -0.5916 N   0  0  0  0  0  0  0  0  0  0  0  0
   -4.5023    0.2918   -0.5896 O   0  0  0  0  0  0  0  0  0  0  0  0
   -4.0217   -1.8335   -0.4641 O   0  0  0  0  0  0  0  0  0  0  0  0
    1.7278    0.5984   -1.2905 N   0  0  0  0  0  0  0  0  0  0  0  0
    2.7815    0.3171   -0.8438 N   0  0  0  0  0  0  0  0  0  0  0  0
    2.8108   -0.9725    0.7665 Cl  0  0  0  0  0  0  0  0  0  0  0  0
  1  6  1  0  0  0  0
  1  7  1  0  0  0  0
  2  8  1  0  0  0  0
  2  1  2  0  0  0  0
  3  2  1  0  0  0  0
  4  3  2  0  0  0  0
  4  5  1  0  0  0  0
  5  6  2  0  0  0  0
  6 11  1  0  0  0  0
  9  4  1  0  0  0  0
 10  5  1  0  0  0  0
 11 12  2  0  0  0  0
 11 13  2  0  0  0  0
 14  3  1  0  0  0  0
 14 15  2  0  0  0  0
 15 16  1  0  0  0  0
M  END
