Coordinates from ORCA-job p-NO2-Ph-N2-X-Cl-B3LYPG-6-31G_dp-scan-d09-49-n400
 OpenBabel08281820523D

 16 16  0  0  0  0  0  0  0  0999 V2000
   -1.3585   -1.3709   -0.7307 C   0  0  0  0  0  0  0  0  0  0  0  0
   -0.0057   -1.0743   -0.8627 C   0  0  0  0  0  0  0  0  0  0  0  0
    0.3702    0.2648   -1.0358 C   0  0  0  0  0  0  0  0  0  0  0  0
   -0.5727    1.2981   -1.1070 C   0  0  0  0  0  0  0  0  0  0  0  0
   -1.9200    0.9995   -0.9467 C   0  0  0  0  0  0  0  0  0  0  0  0
   -2.2872   -0.3325   -0.7643 C   0  0  0  0  0  0  0  0  0  0  0  0
   -1.7012   -2.3890   -0.5956 H   0  0  0  0  0  0  0  0  0  0  0  0
    0.7418   -1.8553   -0.8311 H   0  0  0  0  0  0  0  0  0  0  0  0
   -0.2395    2.3161   -1.2752 H   0  0  0  0  0  0  0  0  0  0  0  0
   -2.6826    1.7669   -0.9745 H   0  0  0  0  0  0  0  0  0  0  0  0
   -3.7209   -0.6571   -0.6130 N   0  0  0  0  0  0  0  0  0  0  0  0
   -4.5165    0.2787   -0.6435 O   0  0  0  0  0  0  0  0  0  0  0  0
   -4.0197   -1.8394   -0.4678 O   0  0  0  0  0  0  0  0  0  0  0  0
    1.7189    0.6396   -1.2358 N   0  0  0  0  0  0  0  0  0  0  0  0
    2.7861    0.3307   -0.8459 N   0  0  0  0  0  0  0  0  0  0  0  0
    2.8887   -1.1281    0.6257 Cl  0  0  0  0  0  0  0  0  0  0  0  0
  1  7  1  0  0  0  0
  2  8  1  0  0  0  0
  2  1  2  0  0  0  0
  3  2  1  0  0  0  0
  4  3  2  0  0  0  0
  4  5  1  0  0  0  0
  5  6  2  0  0  0  0
  6  1  1  0  0  0  0
  6 11  1  0  0  0  0
  9  4  1  0  0  0  0
 10  5  1  0  0  0  0
 11 13  2  0  0  0  0
 12 11  2  0  0  0  0
 14  3  1  0  0  0  0
 14 15  2  0  0  0  0
 15 16  1  0  0  0  0
M  END
