Coordinates from ORCA-job p-NO2-Ph-N2-X-Cl-B3LYPG-6-31G_dp-scan-d09-49-n400
 OpenBabel08281820523D

 16 15  0  0  0  0  0  0  0  0999 V2000
   -1.3117   -1.2514   -0.5591 C   0  0  0  0  0  0  0  0  0  0  0  0
    0.0720   -0.9276   -0.5847 C   0  0  0  0  0  0  0  0  0  0  0  0
    0.2557    0.4318   -0.8596 C   0  0  0  0  0  0  0  0  0  0  0  0
   -0.6925    1.4595   -1.0991 C   0  0  0  0  0  0  0  0  0  0  0  0
   -2.0105    1.0657   -1.0556 C   0  0  0  0  0  0  0  0  0  0  0  0
   -2.2867   -0.2909   -0.7841 C   0  0  0  0  0  0  0  0  0  0  0  0
   -1.6347   -2.2681   -0.3587 H   0  0  0  0  0  0  0  0  0  0  0  0
    1.5847   -2.0372   -0.3171 H   0  0  0  0  0  0  0  0  0  0  0  0
   -0.4048    2.4860   -1.3044 H   0  0  0  0  0  0  0  0  0  0  0  0
   -2.8265    1.7559   -1.2219 H   0  0  0  0  0  0  0  0  0  0  0  0
   -3.7196   -0.6902   -0.7427 N   0  0  0  0  0  0  0  0  0  0  0  0
   -4.5553    0.1898   -0.9429 O   0  0  0  0  0  0  0  0  0  0  0  0
   -3.9736   -1.8660   -0.5059 O   0  0  0  0  0  0  0  0  0  0  0  0
    1.6062    0.7975   -0.8938 N   0  0  0  0  0  0  0  0  0  0  0  0
    2.7028    1.0035   -0.9032 N   0  0  0  0  0  0  0  0  0  0  0  0
    2.6755   -2.6104   -0.1710 Cl  0  0  0  0  0  0  0  0  0  0  0  0
  1  7  1  0  0  0  0
  2  1  1  0  0  0  0
  3  2  2  0  0  0  0
  4  5  2  0  0  0  0
  4  3  1  0  0  0  0
  5  6  1  0  0  0  0
  6 11  1  0  0  0  0
  6  1  2  0  0  0  0
  8 16  1  0  0  0  0
  9  4  1  0  0  0  0
 10  5  1  0  0  0  0
 11 13  2  0  0  0  0
 12 11  2  0  0  0  0
 14  3  1  0  0  0  0
 15 14  1  0  0  0  0
M  RAD  3   2   2  14   2  15   3
M  END
