Coordinates from ORCA-job p-NO2-Ph-N2-X-Cl-B3LYPG-6-31G_dp-scan-d09-49-n400
 OpenBabel08281820523D

 16 16  0  0  0  0  0  0  0  0999 V2000
   -1.3811   -1.4202   -0.8411 C   0  0  0  0  0  0  0  0  0  0  0  0
   -0.0281   -1.1620   -1.0334 C   0  0  0  0  0  0  0  0  0  0  0  0
    0.3902    0.1696   -1.1388 C   0  0  0  0  0  0  0  0  0  0  0  0
   -0.5097    1.2388   -1.0951 C   0  0  0  0  0  0  0  0  0  0  0  0
   -1.8576    0.9755   -0.8795 C   0  0  0  0  0  0  0  0  0  0  0  0
   -2.2696   -0.3500   -0.7589 C   0  0  0  0  0  0  0  0  0  0  0  0
   -1.7547   -2.4322   -0.7491 H   0  0  0  0  0  0  0  0  0  0  0  0
    0.6837   -1.9748   -1.1084 H   0  0  0  0  0  0  0  0  0  0  0  0
   -0.1500    2.2548   -1.2122 H   0  0  0  0  0  0  0  0  0  0  0  0
   -2.5888    1.7709   -0.8147 H   0  0  0  0  0  0  0  0  0  0  0  0
   -3.7025   -0.6312   -0.5483 N   0  0  0  0  0  0  0  0  0  0  0  0
   -4.4623    0.3321   -0.4762 O   0  0  0  0  0  0  0  0  0  0  0  0
   -4.0407   -1.8091   -0.4602 O   0  0  0  0  0  0  0  0  0  0  0  0
    1.7520    0.4685   -1.4044 N   0  0  0  0  0  0  0  0  0  0  0  0
    2.7688    0.3130   -0.8246 N   0  0  0  0  0  0  0  0  0  0  0  0
    2.6315   -0.4960    1.0411 Cl  0  0  0  0  0  0  0  0  0  0  0  0
  1  6  1  0  0  0  0
  1  7  1  0  0  0  0
  2  1  2  0  0  0  0
  3  4  2  0  0  0  0
  3  2  1  0  0  0  0
  4  5  1  0  0  0  0
  5 10  1  0  0  0  0
  5  6  2  0  0  0  0
  6 11  1  0  0  0  0
  8  2  1  0  0  0  0
  9  4  1  0  0  0  0
 11 12  2  0  0  0  0
 11 13  2  0  0  0  0
 14  3  1  0  0  0  0
 14 15  2  0  0  0  0
 15 16  1  0  0  0  0
M  END
