Coordinates from ORCA-job p-NO2-Ph-N2-X-Cl-B3LYPG-6-31G_dp-scan-d09-49-n400
 OpenBabel08281820523D

 16 15  0  0  0  0  0  0  0  0999 V2000
   -1.3056   -1.2659   -0.5540 C   0  0  0  0  0  0  0  0  0  0  0  0
    0.0737   -0.9404   -0.5803 C   0  0  0  0  0  0  0  0  0  0  0  0
    0.2708    0.4166   -0.8552 C   0  0  0  0  0  0  0  0  0  0  0  0
   -0.6757    1.4435   -1.0952 C   0  0  0  0  0  0  0  0  0  0  0  0
   -1.9956    1.0526   -1.0524 C   0  0  0  0  0  0  0  0  0  0  0  0
   -2.2772   -0.3016   -0.7806 C   0  0  0  0  0  0  0  0  0  0  0  0
   -1.6277   -2.2825   -0.3527 H   0  0  0  0  0  0  0  0  0  0  0  0
    1.4575   -1.9229   -0.3437 H   0  0  0  0  0  0  0  0  0  0  0  0
   -0.3857    2.4692   -1.3008 H   0  0  0  0  0  0  0  0  0  0  0  0
   -2.8090    1.7456   -1.2198 H   0  0  0  0  0  0  0  0  0  0  0  0
   -3.7112   -0.6971   -0.7401 N   0  0  0  0  0  0  0  0  0  0  0  0
   -4.5436    0.1845   -0.9451 O   0  0  0  0  0  0  0  0  0  0  0  0
   -3.9672   -1.8728   -0.5058 O   0  0  0  0  0  0  0  0  0  0  0  0
    1.6235    0.7743   -0.8883 N   0  0  0  0  0  0  0  0  0  0  0  0
    2.7236    0.9568   -0.8932 N   0  0  0  0  0  0  0  0  0  0  0  0
    2.6307   -2.5121   -0.1966 Cl  0  0  0  0  0  0  0  0  0  0  0  0
  1  7  1  0  0  0  0
  2  1  1  0  0  0  0
  3  2  2  0  0  0  0
  4  5  2  0  0  0  0
  4  3  1  0  0  0  0
  5  6  1  0  0  0  0
  6 11  1  0  0  0  0
  6  1  2  0  0  0  0
  8 16  1  0  0  0  0
  9  4  1  0  0  0  0
 10  5  1  0  0  0  0
 11 13  2  0  0  0  0
 12 11  2  0  0  0  0
 14  3  1  0  0  0  0
 15 14  1  0  0  0  0
M  RAD  3   2   2  14   2  15   3
M  END
