Coordinates from ORCA-job p-NO2-Ph-N2-X-Cl-B3LYPG-6-31G_dp-scan-d09-49-n400
 OpenBabel08281820523D

 16 15  0  0  0  0  0  0  0  0999 V2000
   -1.3185   -1.2385   -0.5621 C   0  0  0  0  0  0  0  0  0  0  0  0
    0.0677   -0.9151   -0.5882 C   0  0  0  0  0  0  0  0  0  0  0  0
    0.2424    0.4457   -0.8633 C   0  0  0  0  0  0  0  0  0  0  0  0
   -0.7074    1.4734   -1.1021 C   0  0  0  0  0  0  0  0  0  0  0  0
   -2.0241    1.0772   -1.0574 C   0  0  0  0  0  0  0  0  0  0  0  0
   -2.2962   -0.2809   -0.7857 C   0  0  0  0  0  0  0  0  0  0  0  0
   -1.6414   -2.2554   -0.3618 H   0  0  0  0  0  0  0  0  0  0  0  0
    1.6999   -2.1424   -0.2930 H   0  0  0  0  0  0  0  0  0  0  0  0
   -0.4218    2.5006   -1.3075 H   0  0  0  0  0  0  0  0  0  0  0  0
   -2.8420    1.7653   -1.2227 H   0  0  0  0  0  0  0  0  0  0  0  0
   -3.7281   -0.6831   -0.7428 N   0  0  0  0  0  0  0  0  0  0  0  0
   -4.5664    0.1942   -0.9453 O   0  0  0  0  0  0  0  0  0  0  0  0
   -3.9802   -1.8602   -0.5092 O   0  0  0  0  0  0  0  0  0  0  0  0
    1.5917    0.8160   -0.8991 N   0  0  0  0  0  0  0  0  0  0  0  0
    2.6870    1.0316   -0.9109 N   0  0  0  0  0  0  0  0  0  0  0  0
    2.7186   -2.6806   -0.1527 Cl  0  0  0  0  0  0  0  0  0  0  0  0
  1  7  1  0  0  0  0
  2  1  1  0  0  0  0
  3  2  2  0  0  0  0
  4  5  2  0  0  0  0
  4  3  1  0  0  0  0
  5  6  1  0  0  0  0
  6 11  1  0  0  0  0
  6  1  2  0  0  0  0
  8 16  1  0  0  0  0
  9  4  1  0  0  0  0
 10  5  1  0  0  0  0
 11 13  2  0  0  0  0
 12 11  2  0  0  0  0
 14  3  1  0  0  0  0
 15 14  1  0  0  0  0
M  RAD  3   2   2  14   2  15   3
M  END
