Coordinates from ORCA-job p-NO2-Ph-N2-X-Cl-B3LYPG-6-31G_dp-scan-d09-49-n400
 OpenBabel08281820523D

 16 16  0  0  0  0  0  0  0  0999 V2000
   -1.4394   -1.4933   -0.9588 C   0  0  0  0  0  0  0  0  0  0  0  0
   -0.0827   -1.2980   -1.1938 C   0  0  0  0  0  0  0  0  0  0  0  0
    0.4170    0.0059   -1.1954 C   0  0  0  0  0  0  0  0  0  0  0  0
   -0.4021    1.1224   -1.0070 C   0  0  0  0  0  0  0  0  0  0  0  0
   -1.7594    0.9219   -0.7804 C   0  0  0  0  0  0  0  0  0  0  0  0
   -2.2542   -0.3806   -0.7598 C   0  0  0  0  0  0  0  0  0  0  0  0
   -1.8730   -2.4849   -0.9302 H   0  0  0  0  0  0  0  0  0  0  0  0
    0.5857   -2.1357   -1.3532 H   0  0  0  0  0  0  0  0  0  0  0  0
    0.0202    2.1204   -1.0257 H   0  0  0  0  0  0  0  0  0  0  0  0
   -2.4348    1.7519   -0.6172 H   0  0  0  0  0  0  0  0  0  0  0  0
   -3.6945   -0.5889   -0.5222 N   0  0  0  0  0  0  0  0  0  0  0  0
   -4.3894    0.4100   -0.3492 O   0  0  0  0  0  0  0  0  0  0  0  0
   -4.1043   -1.7474   -0.5110 O   0  0  0  0  0  0  0  0  0  0  0  0
    1.7963    0.2027   -1.4866 N   0  0  0  0  0  0  0  0  0  0  0  0
    2.7365    0.3986   -0.7958 N   0  0  0  0  0  0  0  0  0  0  0  0
    2.3592    0.4429    1.1823 Cl  0  0  0  0  0  0  0  0  0  0  0  0
  1  7  1  0  0  0  0
  1  6  2  0  0  0  0
  2  1  1  0  0  0  0
  3  2  2  0  0  0  0
  3  4  1  0  0  0  0
  4  5  2  0  0  0  0
  5  6  1  0  0  0  0
  5 10  1  0  0  0  0
  6 11  1  0  0  0  0
  8  2  1  0  0  0  0
  9  4  1  0  0  0  0
 11 13  2  0  0  0  0
 11 12  2  0  0  0  0
 14  3  1  0  0  0  0
 14 15  2  0  0  0  0
 15 16  1  0  0  0  0
M  END
