Coordinates from ORCA-job p-NO2-Ph-N2-X-Cl-B3LYPG-6-31G_dp-scan-d09-49-n400
 OpenBabel08281820523D

 16 16  0  0  0  0  0  0  0  0999 V2000
   -1.3580   -1.3648   -0.7129 C   0  0  0  0  0  0  0  0  0  0  0  0
   -0.0050   -1.0643   -0.8345 C   0  0  0  0  0  0  0  0  0  0  0  0
    0.3672    0.2750   -1.0167 C   0  0  0  0  0  0  0  0  0  0  0  0
   -0.5797    1.3038   -1.1050 C   0  0  0  0  0  0  0  0  0  0  0  0
   -1.9275    1.0013   -0.9567 C   0  0  0  0  0  0  0  0  0  0  0  0
   -2.2905   -0.3307   -0.7657 C   0  0  0  0  0  0  0  0  0  0  0  0
   -1.6979   -2.3829   -0.5713 H   0  0  0  0  0  0  0  0  0  0  0  0
    0.7466   -1.8404   -0.7860 H   0  0  0  0  0  0  0  0  0  0  0  0
   -0.2485    2.3215   -1.2784 H   0  0  0  0  0  0  0  0  0  0  0  0
   -2.6930    1.7651   -0.9995 H   0  0  0  0  0  0  0  0  0  0  0  0
   -3.7246   -0.6600   -0.6255 N   0  0  0  0  0  0  0  0  0  0  0  0
   -4.5237    0.2719   -0.6746 O   0  0  0  0  0  0  0  0  0  0  0  0
   -4.0196   -1.8419   -0.4701 O   0  0  0  0  0  0  0  0  0  0  0  0
    1.7143    0.6603   -1.2029 N   0  0  0  0  0  0  0  0  0  0  0  0
    2.7886    0.3404   -0.8447 N   0  0  0  0  0  0  0  0  0  0  0  0
    2.9324   -1.2065    0.5407 Cl  0  0  0  0  0  0  0  0  0  0  0  0
  1  7  1  0  0  0  0
  2  8  1  0  0  0  0
  2  1  2  0  0  0  0
  3  2  1  0  0  0  0
  4  3  2  0  0  0  0
  4  5  1  0  0  0  0
  5  6  2  0  0  0  0
  6  1  1  0  0  0  0
  6 11  1  0  0  0  0
  9  4  1  0  0  0  0
 10  5  1  0  0  0  0
 11 13  2  0  0  0  0
 12 11  2  0  0  0  0
 14  3  1  0  0  0  0
 14 15  2  0  0  0  0
 15 16  1  0  0  0  0
M  END
