Coordinates from ORCA-job p-NO2-Ph-N2-X-Cl-B3LYPG-6-31G_dp-scan-d09-49-n400
 OpenBabel08281820523D

 16 15  0  0  0  0  0  0  0  0999 V2000
   -1.3385   -1.2169   -0.5574 C   0  0  0  0  0  0  0  0  0  0  0  0
    0.0512   -0.8948   -0.5806 C   0  0  0  0  0  0  0  0  0  0  0  0
    0.2165    0.4653   -0.8619 C   0  0  0  0  0  0  0  0  0  0  0  0
   -0.7322    1.4932   -1.1087 C   0  0  0  0  0  0  0  0  0  0  0  0
   -2.0479    1.0955   -1.0662 C   0  0  0  0  0  0  0  0  0  0  0  0
   -2.3175   -0.2629   -0.7884 C   0  0  0  0  0  0  0  0  0  0  0  0
   -1.6632   -2.2327   -0.3531 H   0  0  0  0  0  0  0  0  0  0  0  0
    1.9488   -2.3501   -0.2525 H   0  0  0  0  0  0  0  0  0  0  0  0
   -0.4472    2.5200   -1.3182 H   0  0  0  0  0  0  0  0  0  0  0  0
   -2.8670    1.7808   -1.2372 H   0  0  0  0  0  0  0  0  0  0  0  0
   -3.7489   -0.6670   -0.7482 N   0  0  0  0  0  0  0  0  0  0  0  0
   -4.5888    0.2077   -0.9569 O   0  0  0  0  0  0  0  0  0  0  0  0
   -4.0013   -1.8436   -0.5106 O   0  0  0  0  0  0  0  0  0  0  0  0
    1.5667    0.8372   -0.8960 N   0  0  0  0  0  0  0  0  0  0  0  0
    2.6621    1.0559   -0.9065 N   0  0  0  0  0  0  0  0  0  0  0  0
    2.7884   -2.7398   -0.1613 Cl  0  0  0  0  0  0  0  0  0  0  0  0
  1  7  1  0  0  0  0
  2  1  1  0  0  0  0
  3  2  2  0  0  0  0
  4  5  2  0  0  0  0
  4  3  1  0  0  0  0
  5  6  1  0  0  0  0
  6 11  1  0  0  0  0
  6  1  2  0  0  0  0
  8 16  1  0  0  0  0
  9  4  1  0  0  0  0
 10  5  1  0  0  0  0
 11 13  2  0  0  0  0
 12 11  2  0  0  0  0
 14  3  1  0  0  0  0
 15 14  1  0  0  0  0
M  RAD  3   2   2  14   2  15   3
M  END
