Coordinates from ORCA-job p-NO2-Ph-N2-X-Cl-B3LYPG-6-31G_dp-scan-d09-49-n400
 OpenBabel08281820523D

 16 16  0  0  0  0  0  0  0  0999 V2000
   -1.4241   -1.4770   -0.9341 C   0  0  0  0  0  0  0  0  0  0  0  0
   -0.0689   -1.2673   -1.1653 C   0  0  0  0  0  0  0  0  0  0  0  0
    0.4109    0.0446   -1.1926 C   0  0  0  0  0  0  0  0  0  0  0  0
   -0.4270    1.1515   -1.0347 C   0  0  0  0  0  0  0  0  0  0  0  0
   -1.7813    0.9356   -0.8039 C   0  0  0  0  0  0  0  0  0  0  0  0
   -2.2563   -0.3734   -0.7580 C   0  0  0  0  0  0  0  0  0  0  0  0
   -1.8431   -2.4743   -0.8889 H   0  0  0  0  0  0  0  0  0  0  0  0
    0.6087   -2.1006   -1.3092 H   0  0  0  0  0  0  0  0  0  0  0  0
   -0.0205    2.1553   -1.0783 H   0  0  0  0  0  0  0  0  0  0  0  0
   -2.4695    1.7586   -0.6599 H   0  0  0  0  0  0  0  0  0  0  0  0
   -3.6939   -0.5988   -0.5199 N   0  0  0  0  0  0  0  0  0  0  0  0
   -4.4047    0.3927   -0.3706 O   0  0  0  0  0  0  0  0  0  0  0  0
   -4.0873   -1.7628   -0.4934 O   0  0  0  0  0  0  0  0  0  0  0  0
    1.7870    0.2641   -1.4840 N   0  0  0  0  0  0  0  0  0  0  0  0
    2.7434    0.3727   -0.7970 N   0  0  0  0  0  0  0  0  0  0  0  0
    2.4076    0.2270    1.1860 Cl  0  0  0  0  0  0  0  0  0  0  0  0
  1  7  1  0  0  0  0
  1  6  2  0  0  0  0
  2  1  1  0  0  0  0
  3  2  2  0  0  0  0
  3  4  1  0  0  0  0
  4  5  2  0  0  0  0
  5  6  1  0  0  0  0
  5 10  1  0  0  0  0
  6 11  1  0  0  0  0
  8  2  1  0  0  0  0
  9  4  1  0  0  0  0
 11 13  2  0  0  0  0
 11 12  2  0  0  0  0
 14  3  1  0  0  0  0
 14 15  2  0  0  0  0
 15 16  1  0  0  0  0
M  END
