Coordinates from ORCA-job p-NO2-Ph-N2-X-Cl-B3LYPG-6-31G_dp-scan-d09-49-n400
 OpenBabel08281820523D

 16 15  0  0  0  0  0  0  0  0999 V2000
   -1.3342   -1.2208   -0.5607 C   0  0  0  0  0  0  0  0  0  0  0  0
    0.0549   -0.8985   -0.5852 C   0  0  0  0  0  0  0  0  0  0  0  0
    0.2213    0.4623   -0.8638 C   0  0  0  0  0  0  0  0  0  0  0  0
   -0.7281    1.4903   -1.1071 C   0  0  0  0  0  0  0  0  0  0  0  0
   -2.0439    1.0926   -1.0635 C   0  0  0  0  0  0  0  0  0  0  0  0
   -2.3134   -0.2661   -0.7882 C   0  0  0  0  0  0  0  0  0  0  0  0
   -1.6584   -2.2371   -0.3583 H   0  0  0  0  0  0  0  0  0  0  0  0
    1.8958   -2.3100   -0.2590 H   0  0  0  0  0  0  0  0  0  0  0  0
   -0.4433    2.5175   -1.3148 H   0  0  0  0  0  0  0  0  0  0  0  0
   -2.8630    1.7786   -1.2319 H   0  0  0  0  0  0  0  0  0  0  0  0
   -3.7448   -0.6701   -0.7467 N   0  0  0  0  0  0  0  0  0  0  0  0
   -4.5847    0.2049   -0.9537 O   0  0  0  0  0  0  0  0  0  0  0  0
   -3.9968   -1.8469   -0.5099 O   0  0  0  0  0  0  0  0  0  0  0  0
    1.5710    0.8345   -0.8988 N   0  0  0  0  0  0  0  0  0  0  0  0
    2.6661    1.0540   -0.9103 N   0  0  0  0  0  0  0  0  0  0  0  0
    2.7826   -2.7373   -0.1518 Cl  0  0  0  0  0  0  0  0  0  0  0  0
  1  7  1  0  0  0  0
  2  1  1  0  0  0  0
  3  2  2  0  0  0  0
  4  5  2  0  0  0  0
  4  3  1  0  0  0  0
  5  6  1  0  0  0  0
  6 11  1  0  0  0  0
  6  1  2  0  0  0  0
  8 16  1  0  0  0  0
  9  4  1  0  0  0  0
 10  5  1  0  0  0  0
 11 13  2  0  0  0  0
 12 11  2  0  0  0  0
 14  3  1  0  0  0  0
 15 14  1  0  0  0  0
M  RAD  3   2   2  14   2  15   3
M  END
