Coordinates from ORCA-job p-NO2-Ph-N2-X-Cl-B3LYPG-6-31G_dp-scan-d09-49-n400
 OpenBabel08281820523D

 16 16  0  0  0  0  0  0  0  0999 V2000
   -1.4843   -1.5328   -1.0166 C   0  0  0  0  0  0  0  0  0  0  0  0
   -0.1216   -1.3731   -1.2414 C   0  0  0  0  0  0  0  0  0  0  0  0
    0.4308   -0.0932   -1.1633 C   0  0  0  0  0  0  0  0  0  0  0  0
   -0.3447    1.0427   -0.9083 C   0  0  0  0  0  0  0  0  0  0  0  0
   -1.7114    0.8819   -0.7088 C   0  0  0  0  0  0  0  0  0  0  0  0
   -2.2555   -0.4004   -0.7618 C   0  0  0  0  0  0  0  0  0  0  0  0
   -1.9564   -2.5066   -1.0447 H   0  0  0  0  0  0  0  0  0  0  0  0
    0.5223   -2.2192   -1.4472 H   0  0  0  0  0  0  0  0  0  0  0  0
    0.1164    2.0216   -0.8601 H   0  0  0  0  0  0  0  0  0  0  0  0
   -2.3566    1.7269   -0.5056 H   0  0  0  0  0  0  0  0  0  0  0  0
   -3.7056   -0.5648   -0.5441 N   0  0  0  0  0  0  0  0  0  0  0  0
   -4.3633    0.4501   -0.3262 O   0  0  0  0  0  0  0  0  0  0  0  0
   -4.1592   -1.7057   -0.5961 O   0  0  0  0  0  0  0  0  0  0  0  0
    1.8172    0.0400   -1.4405 N   0  0  0  0  0  0  0  0  0  0  0  0
    2.7337    0.4520   -0.8167 N   0  0  0  0  0  0  0  0  0  0  0  0
    2.3193    1.0284    1.0776 Cl  0  0  0  0  0  0  0  0  0  0  0  0
  1  6  2  0  0  0  0
  2  3  2  0  0  0  0
  2  1  1  0  0  0  0
  3  4  1  0  0  0  0
  4  9  1  0  0  0  0
  4  5  2  0  0  0  0
  5 10  1  0  0  0  0
  6  5  1  0  0  0  0
  6 11  1  0  0  0  0
  7  1  1  0  0  0  0
  8  2  1  0  0  0  0
 11 12  2  0  0  0  0
 13 11  2  0  0  0  0
 14  3  1  0  0  0  0
 14 15  2  0  0  0  0
 15 16  1  0  0  0  0
M  END
