Coordinates from ORCA-job p-NO2-Ph-N2-X-Cl-B3LYPG-6-31G_dp-scan-d09-49-n400
 OpenBabel08281820523D

 16 16  0  0  0  0  0  0  0  0999 V2000
   -1.3865   -1.4283   -0.8557 C   0  0  0  0  0  0  0  0  0  0  0  0
   -0.0333   -1.1769   -1.0553 C   0  0  0  0  0  0  0  0  0  0  0  0
    0.3932    0.1525   -1.1498 C   0  0  0  0  0  0  0  0  0  0  0  0
   -0.4984    1.2274   -1.0892 C   0  0  0  0  0  0  0  0  0  0  0  0
   -1.8470    0.9705   -0.8689 C   0  0  0  0  0  0  0  0  0  0  0  0
   -2.2675   -0.3532   -0.7584 C   0  0  0  0  0  0  0  0  0  0  0  0
   -1.7660   -2.4387   -0.7701 H   0  0  0  0  0  0  0  0  0  0  0  0
    0.6732   -1.9935   -1.1428 H   0  0  0  0  0  0  0  0  0  0  0  0
   -0.1330    2.2424   -1.1967 H   0  0  0  0  0  0  0  0  0  0  0  0
   -2.5723    1.7702   -0.7917 H   0  0  0  0  0  0  0  0  0  0  0  0
   -3.7007   -0.6267   -0.5417 N   0  0  0  0  0  0  0  0  0  0  0  0
   -4.4539    0.3409   -0.4575 O   0  0  0  0  0  0  0  0  0  0  0  0
   -4.0464   -1.8031   -0.4624 O   0  0  0  0  0  0  0  0  0  0  0  0
    1.7571    0.4397   -1.4220 N   0  0  0  0  0  0  0  0  0  0  0  0
    2.7657    0.3176   -0.8199 N   0  0  0  0  0  0  0  0  0  0  0  0
    2.5970   -0.3929    1.0784 Cl  0  0  0  0  0  0  0  0  0  0  0  0
  1  7  1  0  0  0  0
  1  6  1  0  0  0  0
  2  1  2  0  0  0  0
  3  4  2  0  0  0  0
  3  2  1  0  0  0  0
  4  5  1  0  0  0  0
  5 10  1  0  0  0  0
  5  6  2  0  0  0  0
  6 11  1  0  0  0  0
  8  2  1  0  0  0  0
  9  4  1  0  0  0  0
 11 13  2  0  0  0  0
 11 12  2  0  0  0  0
 14  3  1  0  0  0  0
 14 15  2  0  0  0  0
 15 16  1  0  0  0  0
M  END
