Coordinates from ORCA-job p-NO2-Ph-N2-X-Cl-B3LYPG-6-31G_dp-scan-d09-49-n400
 OpenBabel08281820523D

 16 16  0  0  0  0  0  0  0  0999 V2000
   -1.5221   -1.5567   -1.0633 C   0  0  0  0  0  0  0  0  0  0  0  0
   -0.1523   -1.4222   -1.2547 C   0  0  0  0  0  0  0  0  0  0  0  0
    0.4374   -0.1636   -1.0978 C   0  0  0  0  0  0  0  0  0  0  0  0
   -0.3146    0.9811   -0.8048 C   0  0  0  0  0  0  0  0  0  0  0  0
   -1.6895    0.8469   -0.6427 C   0  0  0  0  0  0  0  0  0  0  0  0
   -2.2657   -0.4162   -0.7654 C   0  0  0  0  0  0  0  0  0  0  0  0
   -2.0206   -2.5134   -1.1530 H   0  0  0  0  0  0  0  0  0  0  0  0
    0.4702   -2.2730   -1.5042 H   0  0  0  0  0  0  0  0  0  0  0  0
    0.1693    1.9434   -0.7016 H   0  0  0  0  0  0  0  0  0  0  0  0
   -2.3167    1.6994   -0.4159 H   0  0  0  0  0  0  0  0  0  0  0  0
   -3.7253   -0.5506   -0.5821 N   0  0  0  0  0  0  0  0  0  0  0  0
   -4.3590    0.4705   -0.3278 O   0  0  0  0  0  0  0  0  0  0  0  0
   -4.2070   -1.6750   -0.6967 O   0  0  0  0  0  0  0  0  0  0  0  0
    1.8307   -0.0858   -1.3380 N   0  0  0  0  0  0  0  0  0  0  0  0
    2.7547    0.4506   -0.8379 N   0  0  0  0  0  0  0  0  0  0  0  0
    2.3917    1.5125    0.8819 Cl  0  0  0  0  0  0  0  0  0  0  0  0
  1  6  2  0  0  0  0
  2  3  2  0  0  0  0
  2  1  1  0  0  0  0
  3  4  1  0  0  0  0
  4  9  1  0  0  0  0
  4  5  2  0  0  0  0
  5 10  1  0  0  0  0
  6  5  1  0  0  0  0
  6 11  1  0  0  0  0
  7  1  1  0  0  0  0
  8  2  1  0  0  0  0
 11 12  2  0  0  0  0
 13 11  2  0  0  0  0
 14  3  1  0  0  0  0
 14 15  2  0  0  0  0
 15 16  1  0  0  0  0
M  END
