Coordinates from ORCA-job p-NO2-Ph-N2-X-Cl-B3LYPG-6-31G_dp-scan-d09-49-n400
 OpenBabel08281820523D

 16 15  0  0  0  0  0  0  0  0999 V2000
   -1.2746   -1.2828   -0.5501 C   0  0  0  0  0  0  0  0  0  0  0  0
    0.0726   -0.9074   -0.5895 C   0  0  0  0  0  0  0  0  0  0  0  0
    0.3124    0.4350   -0.8591 C   0  0  0  0  0  0  0  0  0  0  0  0
   -0.6476    1.4267   -1.0898 C   0  0  0  0  0  0  0  0  0  0  0  0
   -1.9750    1.0267   -1.0450 C   0  0  0  0  0  0  0  0  0  0  0  0
   -2.2561   -0.3191   -0.7761 C   0  0  0  0  0  0  0  0  0  0  0  0
   -1.5749   -2.3043   -0.3476 H   0  0  0  0  0  0  0  0  0  0  0  0
    1.1109   -1.5780   -0.4225 H   0  0  0  0  0  0  0  0  0  0  0  0
   -0.3646    2.4536   -1.2947 H   0  0  0  0  0  0  0  0  0  0  0  0
   -2.7899    1.7187   -1.2111 H   0  0  0  0  0  0  0  0  0  0  0  0
   -3.6807   -0.7302   -0.7331 N   0  0  0  0  0  0  0  0  0  0  0  0
   -4.5255    0.1394   -0.9346 O   0  0  0  0  0  0  0  0  0  0  0  0
   -3.9204   -1.9109   -0.4997 O   0  0  0  0  0  0  0  0  0  0  0  0
    1.6965    0.7826   -0.8920 N   0  0  0  0  0  0  0  0  0  0  0  0
    2.7333    0.3060   -0.7649 N   0  0  0  0  0  0  0  0  0  0  0  0
    2.5648   -2.0081   -0.2941 Cl  0  0  0  0  0  0  0  0  0  0  0  0
  1  7  1  0  0  0  0
  2  1  1  0  0  0  0
  2  8  1  0  0  0  0
  3  2  2  0  0  0  0
  4  5  2  0  0  0  0
  4  3  1  0  0  0  0
  5  6  1  0  0  0  0
  6 11  1  0  0  0  0
  6  1  2  0  0  0  0
  9  4  1  0  0  0  0
 10  5  1  0  0  0  0
 11 13  2  0  0  0  0
 12 11  2  0  0  0  0
 14  3  1  0  0  0  0
 14 15  2  0  0  0  0
M  RAD  2  15   2  16   2
M  END
