Coordinates from ORCA-job p-NO2-Ph-N2-X-Cl-B3LYPG-6-31G_dp-scan-d09-49-n400
 OpenBabel08281820523D

 16 15  0  0  0  0  0  0  0  0999 V2000
   -1.2792   -1.2888   -0.5492 C   0  0  0  0  0  0  0  0  0  0  0  0
    0.0647   -0.9127   -0.5890 C   0  0  0  0  0  0  0  0  0  0  0  0
    0.3247    0.4294   -0.8580 C   0  0  0  0  0  0  0  0  0  0  0  0
   -0.6397    1.4164   -1.0880 C   0  0  0  0  0  0  0  0  0  0  0  0
   -1.9696    1.0213   -1.0440 C   0  0  0  0  0  0  0  0  0  0  0  0
   -2.2575   -0.3217   -0.7757 C   0  0  0  0  0  0  0  0  0  0  0  0
   -1.5793   -2.3100   -0.3468 H   0  0  0  0  0  0  0  0  0  0  0  0
    1.0409   -1.5632   -0.4281 H   0  0  0  0  0  0  0  0  0  0  0  0
   -0.3548    2.4426   -1.2926 H   0  0  0  0  0  0  0  0  0  0  0  0
   -2.7813    1.7171   -1.2107 H   0  0  0  0  0  0  0  0  0  0  0  0
   -3.6824   -0.7291   -0.7331 N   0  0  0  0  0  0  0  0  0  0  0  0
   -4.5248    0.1426   -0.9346 O   0  0  0  0  0  0  0  0  0  0  0  0
   -3.9245   -1.9093   -0.4993 O   0  0  0  0  0  0  0  0  0  0  0  0
    1.7012    0.7862   -0.8924 N   0  0  0  0  0  0  0  0  0  0  0  0
    2.7330    0.2820   -0.7577 N   0  0  0  0  0  0  0  0  0  0  0  0
    2.6098   -1.9549   -0.3044 Cl  0  0  0  0  0  0  0  0  0  0  0  0
  1  7  1  0  0  0  0
  2  1  1  0  0  0  0
  2  8  1  0  0  0  0
  3  2  2  0  0  0  0
  4  5  2  0  0  0  0
  4  3  1  0  0  0  0
  5  6  1  0  0  0  0
  6 11  1  0  0  0  0
  6  1  2  0  0  0  0
  9  4  1  0  0  0  0
 10  5  1  0  0  0  0
 11 13  2  0  0  0  0
 12 11  2  0  0  0  0
 14  3  1  0  0  0  0
 14 15  2  0  0  0  0
M  RAD  2  15   2  16   2
M  END
