Coordinates from ORCA-job p-NO2-Ph-N2-X-Cl-B3LYPG-6-31G_dp-scan-d09-49-n400
 OpenBabel08281820523D

 16 16  0  0  0  0  0  0  0  0999 V2000
   -1.3891   -1.4320   -0.8621 C   0  0  0  0  0  0  0  0  0  0  0  0
   -0.0357   -1.1836   -1.0647 C   0  0  0  0  0  0  0  0  0  0  0  0
    0.3944    0.1448   -1.1544 C   0  0  0  0  0  0  0  0  0  0  0  0
   -0.4935    1.2223   -1.0864 C   0  0  0  0  0  0  0  0  0  0  0  0
   -1.8423    0.9682   -0.8645 C   0  0  0  0  0  0  0  0  0  0  0  0
   -2.2667   -0.3546   -0.7586 C   0  0  0  0  0  0  0  0  0  0  0  0
   -1.7714   -2.4415   -0.7794 H   0  0  0  0  0  0  0  0  0  0  0  0
    0.6684   -2.0017   -1.1572 H   0  0  0  0  0  0  0  0  0  0  0  0
   -0.1254    2.2367   -1.1895 H   0  0  0  0  0  0  0  0  0  0  0  0
   -2.5650    1.7697   -0.7820 H   0  0  0  0  0  0  0  0  0  0  0  0
   -3.7001   -0.6247   -0.5396 N   0  0  0  0  0  0  0  0  0  0  0  0
   -4.4502    0.3448   -0.4493 O   0  0  0  0  0  0  0  0  0  0  0  0
   -4.0490   -1.8004   -0.4631 O   0  0  0  0  0  0  0  0  0  0  0  0
    1.7593    0.4271   -1.4288 N   0  0  0  0  0  0  0  0  0  0  0  0
    2.7643    0.3203   -0.8176 N   0  0  0  0  0  0  0  0  0  0  0  0
    2.5831   -0.3476    1.0932 Cl  0  0  0  0  0  0  0  0  0  0  0  0
  1  7  1  0  0  0  0
  1  6  1  0  0  0  0
  2  1  2  0  0  0  0
  3  4  2  0  0  0  0
  3  2  1  0  0  0  0
  4  5  1  0  0  0  0
  5 10  1  0  0  0  0
  5  6  2  0  0  0  0
  6 11  1  0  0  0  0
  8  2  1  0  0  0  0
  9  4  1  0  0  0  0
 11 13  2  0  0  0  0
 11 12  2  0  0  0  0
 14  3  1  0  0  0  0
 14 15  2  0  0  0  0
 15 16  1  0  0  0  0
M  END
