Coordinates from ORCA-job p-NO2-Ph-N2-X-Cl-B3LYPG-6-31G_dp-scan-d09-49-n400
 OpenBabel08281820523D

 16 16  0  0  0  0  0  0  0  0999 V2000
   -1.5249   -1.5582   -1.0653 C   0  0  0  0  0  0  0  0  0  0  0  0
   -0.1546   -1.4249   -1.2541 C   0  0  0  0  0  0  0  0  0  0  0  0
    0.4371   -0.1678   -1.0911 C   0  0  0  0  0  0  0  0  0  0  0  0
   -0.3141    0.9771   -0.7958 C   0  0  0  0  0  0  0  0  0  0  0  0
   -1.6894    0.8441   -0.6363 C   0  0  0  0  0  0  0  0  0  0  0  0
   -2.2672   -0.4178   -0.7640 C   0  0  0  0  0  0  0  0  0  0  0  0
   -2.0248   -2.5137   -1.1599 H   0  0  0  0  0  0  0  0  0  0  0  0
    0.4664   -2.2757   -1.5074 H   0  0  0  0  0  0  0  0  0  0  0  0
    0.1708    1.9383   -0.6891 H   0  0  0  0  0  0  0  0  0  0  0  0
   -2.3159    1.6968   -0.4079 H   0  0  0  0  0  0  0  0  0  0  0  0
   -3.7273   -0.5509   -0.5830 N   0  0  0  0  0  0  0  0  0  0  0  0
   -4.3610    0.4713   -0.3334 O   0  0  0  0  0  0  0  0  0  0  0  0
   -4.2114   -1.6729   -0.7100 O   0  0  0  0  0  0  0  0  0  0  0  0
    1.8309   -0.0940   -1.3286 N   0  0  0  0  0  0  0  0  0  0  0  0
    2.7577    0.4485   -0.8408 N   0  0  0  0  0  0  0  0  0  0  0  0
    2.4089    1.5476    0.8630 Cl  0  0  0  0  0  0  0  0  0  0  0  0
  1  6  2  0  0  0  0
  2  3  2  0  0  0  0
  2  1  1  0  0  0  0
  3  4  1  0  0  0  0
  4  9  1  0  0  0  0
  4  5  2  0  0  0  0
  5 10  1  0  0  0  0
  6  5  1  0  0  0  0
  6 11  1  0  0  0  0
  7  1  1  0  0  0  0
  8  2  1  0  0  0  0
 11 12  2  0  0  0  0
 13 11  2  0  0  0  0
 14  3  1  0  0  0  0
 14 15  2  0  0  0  0
 15 16  1  0  0  0  0
M  END
