Coordinates from ORCA-job p-NO2-Ph-N2-X-Cl-B3LYPG-6-31G_dp-scan-d09-49-n400
 OpenBabel08281820523D

 16 16  0  0  0  0  0  0  0  0999 V2000
   -1.4853   -1.5334   -1.0179 C   0  0  0  0  0  0  0  0  0  0  0  0
   -0.1223   -1.3746   -1.2420 C   0  0  0  0  0  0  0  0  0  0  0  0
    0.4311   -0.0952   -1.1620 C   0  0  0  0  0  0  0  0  0  0  0  0
   -0.3437    1.0410   -0.9060 C   0  0  0  0  0  0  0  0  0  0  0  0
   -1.7106    0.8810   -0.7074 C   0  0  0  0  0  0  0  0  0  0  0  0
   -2.2556   -0.4008   -0.7621 C   0  0  0  0  0  0  0  0  0  0  0  0
   -1.9581   -2.5068   -1.0475 H   0  0  0  0  0  0  0  0  0  0  0  0
    0.5207   -2.2210   -1.4490 H   0  0  0  0  0  0  0  0  0  0  0  0
    0.1182    2.0194   -0.8564 H   0  0  0  0  0  0  0  0  0  0  0  0
   -2.3553    1.7263   -0.5036 H   0  0  0  0  0  0  0  0  0  0  0  0
   -3.7061   -0.5642   -0.5452 N   0  0  0  0  0  0  0  0  0  0  0  0
   -4.3629    0.4507   -0.3254 O   0  0  0  0  0  0  0  0  0  0  0  0
   -4.1602   -1.7049   -0.5977 O   0  0  0  0  0  0  0  0  0  0  0  0
    1.8176    0.0370   -1.4386 N   0  0  0  0  0  0  0  0  0  0  0  0
    2.7339    0.4526   -0.8170 N   0  0  0  0  0  0  0  0  0  0  0  0
    2.3197    1.0407    1.0740 Cl  0  0  0  0  0  0  0  0  0  0  0  0
  1  6  2  0  0  0  0
  2  3  2  0  0  0  0
  2  1  1  0  0  0  0
  3  4  1  0  0  0  0
  4  9  1  0  0  0  0
  4  5  2  0  0  0  0
  5 10  1  0  0  0  0
  6  5  1  0  0  0  0
  6 11  1  0  0  0  0
  7  1  1  0  0  0  0
  8  2  1  0  0  0  0
 11 12  2  0  0  0  0
 13 11  2  0  0  0  0
 14  3  1  0  0  0  0
 14 15  2  0  0  0  0
 15 16  1  0  0  0  0
M  END
