Coordinates from ORCA-job p-NO2-Ph-N2-X-Cl-B3LYPG-6-31G_dp-scan-d09-49-n400
 OpenBabel08281820523D

 16 16  0  0  0  0  0  0  0  0999 V2000
   -1.4404   -1.4944   -0.9599 C   0  0  0  0  0  0  0  0  0  0  0  0
   -0.0837   -1.2999   -1.1955 C   0  0  0  0  0  0  0  0  0  0  0  0
    0.4172    0.0036   -1.1955 C   0  0  0  0  0  0  0  0  0  0  0  0
   -0.4006    1.1206   -1.0050 C   0  0  0  0  0  0  0  0  0  0  0  0
   -1.7581    0.9210   -0.7786 C   0  0  0  0  0  0  0  0  0  0  0  0
   -2.2541   -0.3811   -0.7595 C   0  0  0  0  0  0  0  0  0  0  0  0
   -1.8749   -2.4856   -0.9323 H   0  0  0  0  0  0  0  0  0  0  0  0
    0.5846   -2.1375   -1.3555 H   0  0  0  0  0  0  0  0  0  0  0  0
    0.0227    2.1182   -1.0221 H   0  0  0  0  0  0  0  0  0  0  0  0
   -2.4326    1.7514   -0.6142 H   0  0  0  0  0  0  0  0  0  0  0  0
   -3.6945   -0.5883   -0.5218 N   0  0  0  0  0  0  0  0  0  0  0  0
   -4.3887    0.4111   -0.3491 O   0  0  0  0  0  0  0  0  0  0  0  0
   -4.1057   -1.7464   -0.5132 O   0  0  0  0  0  0  0  0  0  0  0  0
    1.7969    0.1985   -1.4868 N   0  0  0  0  0  0  0  0  0  0  0  0
    2.7360    0.4005   -0.7961 N   0  0  0  0  0  0  0  0  0  0  0  0
    2.3571    0.4562    1.1813 Cl  0  0  0  0  0  0  0  0  0  0  0  0
  1  7  1  0  0  0  0
  1  6  2  0  0  0  0
  2  1  1  0  0  0  0
  3  2  2  0  0  0  0
  3  4  1  0  0  0  0
  4  5  2  0  0  0  0
  5  6  1  0  0  0  0
  5 10  1  0  0  0  0
  6 11  1  0  0  0  0
  8  2  1  0  0  0  0
  9  4  1  0  0  0  0
 11 13  2  0  0  0  0
 11 12  2  0  0  0  0
 14  3  1  0  0  0  0
 14 15  2  0  0  0  0
 15 16  1  0  0  0  0
M  END
