Coordinates from ORCA-job p-NO2-Ph-N2-X-Cl-B3LYPG-6-31G_dp-scan-d09-49-n400
 OpenBabel08281820523D

 16 16  0  0  0  0  0  0  0  0999 V2000
   -1.4049   -1.4536   -0.8987 C   0  0  0  0  0  0  0  0  0  0  0  0
   -0.0509   -1.2237   -1.1174 C   0  0  0  0  0  0  0  0  0  0  0  0
    0.4023    0.0977   -1.1779 C   0  0  0  0  0  0  0  0  0  0  0  0
   -0.4621    1.1899   -1.0659 C   0  0  0  0  0  0  0  0  0  0  0  0
   -1.8132    0.9534   -0.8365 C   0  0  0  0  0  0  0  0  0  0  0  0
   -2.2612   -0.3635   -0.7584 C   0  0  0  0  0  0  0  0  0  0  0  0
   -1.8042   -2.4579   -0.8332 H   0  0  0  0  0  0  0  0  0  0  0  0
    0.6402   -2.0499   -1.2368 H   0  0  0  0  0  0  0  0  0  0  0  0
   -0.0766    2.2001   -1.1414 H   0  0  0  0  0  0  0  0  0  0  0  0
   -2.5195    1.7657   -0.7228 H   0  0  0  0  0  0  0  0  0  0  0  0
   -3.6961   -0.6125   -0.5271 N   0  0  0  0  0  0  0  0  0  0  0  0
   -4.4275    0.3678   -0.4050 O   0  0  0  0  0  0  0  0  0  0  0  0
   -4.0657   -1.7832   -0.4730 O   0  0  0  0  0  0  0  0  0  0  0  0
    1.7731    0.3493   -1.4632 N   0  0  0  0  0  0  0  0  0  0  0  0
    2.7546    0.3404   -0.8048 N   0  0  0  0  0  0  0  0  0  0  0  0
    2.4930   -0.0722    1.1585 Cl  0  0  0  0  0  0  0  0  0  0  0  0
  1  7  1  0  0  0  0
  1  6  2  0  0  0  0
  2  1  1  0  0  0  0
  3  2  2  0  0  0  0
  3  4  1  0  0  0  0
  4  5  2  0  0  0  0
  5  6  1  0  0  0  0
  5 10  1  0  0  0  0
  6 11  1  0  0  0  0
  8  2  1  0  0  0  0
  9  4  1  0  0  0  0
 11 13  2  0  0  0  0
 11 12  2  0  0  0  0
 14  3  1  0  0  0  0
 14 15  2  0  0  0  0
 15 16  1  0  0  0  0
M  END
