Coordinates from ORCA-job p-NO2-Ph-N2-X-Cl-B3LYPG-6-31G_dp-scan-d09-49-n400
 OpenBabel08281820523D

 16 16  0  0  0  0  0  0  0  0999 V2000
   -1.3708   -1.3273   -0.5568 C   0  0  0  0  0  0  0  0  0  0  0  0
   -0.0159   -1.0104   -0.5894 C   0  0  0  0  0  0  0  0  0  0  0  0
    0.3510    0.3206   -0.8465 C   0  0  0  0  0  0  0  0  0  0  0  0
   -0.6072    1.3215   -1.0696 C   0  0  0  0  0  0  0  0  0  0  0  0
   -1.9574    0.9990   -1.0336 C   0  0  0  0  0  0  0  0  0  0  0  0
   -2.3120   -0.3239   -0.7770 C   0  0  0  0  0  0  0  0  0  0  0  0
   -1.7054   -2.3384   -0.3620 H   0  0  0  0  0  0  0  0  0  0  0  0
    0.7390   -1.7660   -0.4212 H   0  0  0  0  0  0  0  0  0  0  0  0
   -0.2773    2.3350   -1.2679 H   0  0  0  0  0  0  0  0  0  0  0  0
   -2.7286    1.7400   -1.1993 H   0  0  0  0  0  0  0  0  0  0  0  0
   -3.7487   -0.6765   -0.7383 N   0  0  0  0  0  0  0  0  0  0  0  0
   -4.5548    0.2286   -0.9371 O   0  0  0  0  0  0  0  0  0  0  0  0
   -4.0353   -1.8482   -0.5106 O   0  0  0  0  0  0  0  0  0  0  0  0
    1.6882    0.7671   -0.9089 N   0  0  0  0  0  0  0  0  0  0  0  0
    2.8026    0.4202   -0.7912 N   0  0  0  0  0  0  0  0  0  0  0  0
    3.2138   -1.5935   -0.2943 Cl  0  0  0  0  0  0  0  0  0  0  0  0
  1  7  1  0  0  0  0
  2  1  1  0  0  0  0
  2  8  1  0  0  0  0
  3  2  2  0  0  0  0
  4  5  2  0  0  0  0
  4  3  1  0  0  0  0
  5  6  1  0  0  0  0
  6 11  1  0  0  0  0
  6  1  2  0  0  0  0
  9  4  1  0  0  0  0
 10  5  1  0  0  0  0
 11 13  2  0  0  0  0
 12 11  2  0  0  0  0
 14  3  1  0  0  0  0
 14 15  2  0  0  0  0
 15 16  1  0  0  0  0
M  END
