Coordinates from ORCA-job p-NO2-Ph-N2-X-Cl-B3LYPG-6-31G_dp-scan-d09-49-n400
 OpenBabel08281820523D

 16 16  0  0  0  0  0  0  0  0999 V2000
   -1.5132   -1.5517   -1.0519 C   0  0  0  0  0  0  0  0  0  0  0  0
   -0.1451   -1.4113   -1.2531 C   0  0  0  0  0  0  0  0  0  0  0  0
    0.4362   -0.1475   -1.1161 C   0  0  0  0  0  0  0  0  0  0  0  0
   -0.3206    0.9957   -0.8320 C   0  0  0  0  0  0  0  0  0  0  0  0
   -1.6935    0.8556   -0.6601 C   0  0  0  0  0  0  0  0  0  0  0  0
   -2.2627   -0.4124   -0.7648 C   0  0  0  0  0  0  0  0  0  0  0  0
   -2.0059   -2.5127   -1.1257 H   0  0  0  0  0  0  0  0  0  0  0  0
    0.4825   -2.2611   -1.4922 H   0  0  0  0  0  0  0  0  0  0  0  0
    0.1583    1.9623   -0.7428 H   0  0  0  0  0  0  0  0  0  0  0  0
   -2.3247    1.7068   -0.4392 H   0  0  0  0  0  0  0  0  0  0  0  0
   -3.7200   -0.5535   -0.5723 N   0  0  0  0  0  0  0  0  0  0  0  0
   -4.3587    0.4663   -0.3249 O   0  0  0  0  0  0  0  0  0  0  0  0
   -4.1953   -1.6824   -0.6686 O   0  0  0  0  0  0  0  0  0  0  0  0
    1.8277   -0.0563   -1.3678 N   0  0  0  0  0  0  0  0  0  0  0  0
    2.7482    0.4549   -0.8337 N   0  0  0  0  0  0  0  0  0  0  0  0
    2.3680    1.3951    0.9414 Cl  0  0  0  0  0  0  0  0  0  0  0  0
  1  6  2  0  0  0  0
  2  3  2  0  0  0  0
  2  1  1  0  0  0  0
  3  4  1  0  0  0  0
  4  9  1  0  0  0  0
  4  5  2  0  0  0  0
  5 10  1  0  0  0  0
  6  5  1  0  0  0  0
  6 11  1  0  0  0  0
  7  1  1  0  0  0  0
  8  2  1  0  0  0  0
 11 12  2  0  0  0  0
 13 11  2  0  0  0  0
 14  3  1  0  0  0  0
 14 15  2  0  0  0  0
 15 16  1  0  0  0  0
M  END
