Coordinates from ORCA-job p-NO2-Ph-N2-X-Cl-B3LYPG-6-31G_dp-scan-d09-49-n400
 OpenBabel08281820523D

 16 16  0  0  0  0  0  0  0  0999 V2000
   -1.3846   -1.4258   -0.8513 C   0  0  0  0  0  0  0  0  0  0  0  0
   -0.0315   -1.1720   -1.0490 C   0  0  0  0  0  0  0  0  0  0  0  0
    0.3922    0.1581   -1.1470 C   0  0  0  0  0  0  0  0  0  0  0  0
   -0.5019    1.2313   -1.0913 C   0  0  0  0  0  0  0  0  0  0  0  0
   -1.8502    0.9721   -0.8722 C   0  0  0  0  0  0  0  0  0  0  0  0
   -2.2679   -0.3522   -0.7586 C   0  0  0  0  0  0  0  0  0  0  0  0
   -1.7621   -2.4367   -0.7636 H   0  0  0  0  0  0  0  0  0  0  0  0
    0.6772   -1.9870   -1.1322 H   0  0  0  0  0  0  0  0  0  0  0  0
   -0.1384    2.2466   -1.2017 H   0  0  0  0  0  0  0  0  0  0  0  0
   -2.5774    1.7704   -0.7986 H   0  0  0  0  0  0  0  0  0  0  0  0
   -3.7010   -0.6281   -0.5436 N   0  0  0  0  0  0  0  0  0  0  0  0
   -4.4563    0.3381   -0.4626 O   0  0  0  0  0  0  0  0  0  0  0  0
   -4.0442   -1.8050   -0.4611 O   0  0  0  0  0  0  0  0  0  0  0  0
    1.7558    0.4481   -1.4176 N   0  0  0  0  0  0  0  0  0  0  0  0
    2.7663    0.3154   -0.8208 N   0  0  0  0  0  0  0  0  0  0  0  0
    2.6053   -0.4253    1.0677 Cl  0  0  0  0  0  0  0  0  0  0  0  0
  1  7  1  0  0  0  0
  1  6  1  0  0  0  0
  2  1  2  0  0  0  0
  3  4  2  0  0  0  0
  3  2  1  0  0  0  0
  4  5  1  0  0  0  0
  5 10  1  0  0  0  0
  5  6  2  0  0  0  0
  6 11  1  0  0  0  0
  8  2  1  0  0  0  0
  9  4  1  0  0  0  0
 11 12  2  0  0  0  0
 11 13  2  0  0  0  0
 14  3  1  0  0  0  0
 14 15  2  0  0  0  0
 15 16  1  0  0  0  0
M  END
