Coordinates from ORCA-job p-NO2-Ph-N2-X-Cl-B3LYPG-6-31G_dp-scan-d09-49-n400
 OpenBabel08281820523D

 16 16  0  0  0  0  0  0  0  0999 V2000
   -1.3645   -1.3907   -0.7806 C   0  0  0  0  0  0  0  0  0  0  0  0
   -0.0119   -1.1085   -0.9413 C   0  0  0  0  0  0  0  0  0  0  0  0
    0.3790    0.2288   -1.0865 C   0  0  0  0  0  0  0  0  0  0  0  0
   -0.5484    1.2767   -1.1075 C   0  0  0  0  0  0  0  0  0  0  0  0
   -1.8953    0.9915   -0.9177 C   0  0  0  0  0  0  0  0  0  0  0  0
   -2.2785   -0.3390   -0.7609 C   0  0  0  0  0  0  0  0  0  0  0  0
   -1.7181   -2.4073   -0.6642 H   0  0  0  0  0  0  0  0  0  0  0  0
    0.7210   -1.9043   -0.9595 H   0  0  0  0  0  0  0  0  0  0  0  0
   -0.2067    2.2947   -1.2568 H   0  0  0  0  0  0  0  0  0  0  0  0
   -2.6464    1.7705   -0.9036 H   0  0  0  0  0  0  0  0  0  0  0  0
   -3.7113   -0.6471   -0.5804 N   0  0  0  0  0  0  0  0  0  0  0  0
   -4.4938    0.3002   -0.5623 O   0  0  0  0  0  0  0  0  0  0  0  0
   -4.0245   -1.8289   -0.4616 O   0  0  0  0  0  0  0  0  0  0  0  0
    1.7331    0.5713   -1.3206 N   0  0  0  0  0  0  0  0  0  0  0  0
    2.7788    0.3128   -0.8408 N   0  0  0  0  0  0  0  0  0  0  0  0
    2.7689   -0.8728    0.8404 Cl  0  0  0  0  0  0  0  0  0  0  0  0
  1  6  1  0  0  0  0
  1  7  1  0  0  0  0
  2  1  2  0  0  0  0
  3  2  1  0  0  0  0
  4  3  2  0  0  0  0
  4  5  1  0  0  0  0
  5 10  1  0  0  0  0
  5  6  2  0  0  0  0
  6 11  1  0  0  0  0
  8  2  1  0  0  0  0
  9  4  1  0  0  0  0
 11 12  2  0  0  0  0
 11 13  2  0  0  0  0
 14  3  1  0  0  0  0
 14 15  2  0  0  0  0
 15 16  1  0  0  0  0
M  END
