Coordinates from ORCA-job p-NO2-Ph-N2-X-Cl-B3LYPG-6-31G_dp-scan-d09-49-n400
 OpenBabel08281820523D

 16 16  0  0  0  0  0  0  0  0999 V2000
   -1.3956   -1.4415   -0.8787 C   0  0  0  0  0  0  0  0  0  0  0  0
   -0.0421   -1.2010   -1.0893 C   0  0  0  0  0  0  0  0  0  0  0  0
    0.3978    0.1245   -1.1664 C   0  0  0  0  0  0  0  0  0  0  0  0
   -0.4797    1.2086   -1.0785 C   0  0  0  0  0  0  0  0  0  0  0  0
   -1.8294    0.9619   -0.8523 C   0  0  0  0  0  0  0  0  0  0  0  0
   -2.2639   -0.3585   -0.7584 C   0  0  0  0  0  0  0  0  0  0  0  0
   -1.7851   -2.4489   -0.8032 H   0  0  0  0  0  0  0  0  0  0  0  0
    0.6568   -2.0224   -1.1940 H   0  0  0  0  0  0  0  0  0  0  0  0
   -0.1043    2.2214   -1.1697 H   0  0  0  0  0  0  0  0  0  0  0  0
   -2.5450    1.7682   -0.7554 H   0  0  0  0  0  0  0  0  0  0  0  0
   -3.6979   -0.6194   -0.5329 N   0  0  0  0  0  0  0  0  0  0  0  0
   -4.4398    0.3549   -0.4284 O   0  0  0  0  0  0  0  0  0  0  0  0
   -4.0557   -1.7930   -0.4661 O   0  0  0  0  0  0  0  0  0  0  0  0
    1.7656    0.3924   -1.4466 N   0  0  0  0  0  0  0  0  0  0  0  0
    2.7597    0.3278   -0.8110 N   0  0  0  0  0  0  0  0  0  0  0  0
    2.5397   -0.2271    1.1270 Cl  0  0  0  0  0  0  0  0  0  0  0  0
  1  7  1  0  0  0  0
  1  6  2  0  0  0  0
  2  1  1  0  0  0  0
  3  2  2  0  0  0  0
  3  4  1  0  0  0  0
  4  5  2  0  0  0  0
  5  6  1  0  0  0  0
  5 10  1  0  0  0  0
  6 11  1  0  0  0  0
  8  2  1  0  0  0  0
  9  4  1  0  0  0  0
 11 13  2  0  0  0  0
 11 12  2  0  0  0  0
 14  3  1  0  0  0  0
 14 15  2  0  0  0  0
 15 16  1  0  0  0  0
M  END
