Coordinates from ORCA-job p-NO2-Ph-N2-X-Cl-B3LYPG-6-31G_dp-scan-d09-49-n400
 OpenBabel08281820523D

 16 16  0  0  0  0  0  0  0  0999 V2000
   -1.4321   -1.4856   -0.9474 C   0  0  0  0  0  0  0  0  0  0  0  0
   -0.0761   -1.2836   -1.1811 C   0  0  0  0  0  0  0  0  0  0  0  0
    0.4142    0.0243   -1.1950 C   0  0  0  0  0  0  0  0  0  0  0  0
   -0.4138    1.1363   -1.0208 C   0  0  0  0  0  0  0  0  0  0  0  0
   -1.7697    0.9285   -0.7918 C   0  0  0  0  0  0  0  0  0  0  0  0
   -2.2551   -0.3772   -0.7591 C   0  0  0  0  0  0  0  0  0  0  0  0
   -1.8587   -2.4800   -0.9107 H   0  0  0  0  0  0  0  0  0  0  0  0
    0.5965   -2.1193   -1.3331 H   0  0  0  0  0  0  0  0  0  0  0  0
    0.0009    2.1372   -1.0515 H   0  0  0  0  0  0  0  0  0  0  0  0
   -2.4511    1.7553   -0.6376 H   0  0  0  0  0  0  0  0  0  0  0  0
   -3.6940   -0.5936   -0.5208 N   0  0  0  0  0  0  0  0  0  0  0  0
   -4.3964    0.4019   -0.3583 O   0  0  0  0  0  0  0  0  0  0  0  0
   -4.0960   -1.7548   -0.5015 O   0  0  0  0  0  0  0  0  0  0  0  0
    1.7920    0.2320   -1.4864 N   0  0  0  0  0  0  0  0  0  0  0  0
    2.7397    0.3862   -0.7957 N   0  0  0  0  0  0  0  0  0  0  0  0
    2.3809    0.3403    1.1868 Cl  0  0  0  0  0  0  0  0  0  0  0  0
  1  7  1  0  0  0  0
  1  6  2  0  0  0  0
  2  1  1  0  0  0  0
  3  2  2  0  0  0  0
  3  4  1  0  0  0  0
  4  5  2  0  0  0  0
  5  6  1  0  0  0  0
  5 10  1  0  0  0  0
  6 11  1  0  0  0  0
  8  2  1  0  0  0  0
  9  4  1  0  0  0  0
 11 13  2  0  0  0  0
 11 12  2  0  0  0  0
 14  3  1  0  0  0  0
 14 15  2  0  0  0  0
 15 16  1  0  0  0  0
M  END
