Coordinates from ORCA-job p-NO2-Ph-N2-X-Cl-B3LYPG-6-31G_dp-scan-d09-49-n400
 OpenBabel08281820523D

 16 16  0  0  0  0  0  0  0  0999 V2000
   -1.3583   -1.3678   -0.7218 C   0  0  0  0  0  0  0  0  0  0  0  0
   -0.0053   -1.0694   -0.8487 C   0  0  0  0  0  0  0  0  0  0  0  0
    0.3687    0.2699   -1.0263 C   0  0  0  0  0  0  0  0  0  0  0  0
   -0.5763    1.3010   -1.1060 C   0  0  0  0  0  0  0  0  0  0  0  0
   -1.9238    1.0005   -0.9516 C   0  0  0  0  0  0  0  0  0  0  0  0
   -2.2889   -0.3315   -0.7650 C   0  0  0  0  0  0  0  0  0  0  0  0
   -1.6996   -2.3860   -0.5836 H   0  0  0  0  0  0  0  0  0  0  0  0
    0.7442   -1.8480   -0.8088 H   0  0  0  0  0  0  0  0  0  0  0  0
   -0.2441    2.3188   -1.2768 H   0  0  0  0  0  0  0  0  0  0  0  0
   -2.6879    1.7661   -0.9869 H   0  0  0  0  0  0  0  0  0  0  0  0
   -3.7228   -0.6585   -0.6193 N   0  0  0  0  0  0  0  0  0  0  0  0
   -4.5202    0.2753   -0.6590 O   0  0  0  0  0  0  0  0  0  0  0  0
   -4.0197   -1.8406   -0.4689 O   0  0  0  0  0  0  0  0  0  0  0  0
    1.7166    0.6501   -1.2196 N   0  0  0  0  0  0  0  0  0  0  0  0
    2.7875    0.3356   -0.8456 N   0  0  0  0  0  0  0  0  0  0  0  0
    2.9112   -1.1675    0.5841 Cl  0  0  0  0  0  0  0  0  0  0  0  0
  1  7  1  0  0  0  0
  2  8  1  0  0  0  0
  2  1  2  0  0  0  0
  3  2  1  0  0  0  0
  4  3  2  0  0  0  0
  4  5  1  0  0  0  0
  5  6  2  0  0  0  0
  6  1  1  0  0  0  0
  6 11  1  0  0  0  0
  9  4  1  0  0  0  0
 10  5  1  0  0  0  0
 11 13  2  0  0  0  0
 12 11  2  0  0  0  0
 14  3  1  0  0  0  0
 14 15  2  0  0  0  0
 15 16  1  0  0  0  0
M  END
