Coordinates from ORCA-job p-NO2-Ph-N2-X-Cl-B3LYPG-6-31G_dp-scan-d09-49-n400
 OpenBabel08281820523D

 16 16  0  0  0  0  0  0  0  0999 V2000
   -1.3584   -1.3688   -0.7248 C   0  0  0  0  0  0  0  0  0  0  0  0
   -0.0055   -1.0710   -0.8534 C   0  0  0  0  0  0  0  0  0  0  0  0
    0.3692    0.2682   -1.0295 C   0  0  0  0  0  0  0  0  0  0  0  0
   -0.5751    1.3000   -1.1063 C   0  0  0  0  0  0  0  0  0  0  0  0
   -1.9226    1.0002   -0.9499 C   0  0  0  0  0  0  0  0  0  0  0  0
   -2.2883   -0.3318   -0.7647 C   0  0  0  0  0  0  0  0  0  0  0  0
   -1.7001   -2.3870   -0.5876 H   0  0  0  0  0  0  0  0  0  0  0  0
    0.7434   -1.8505   -0.8163 H   0  0  0  0  0  0  0  0  0  0  0  0
   -0.2426    2.3179   -1.2763 H   0  0  0  0  0  0  0  0  0  0  0  0
   -2.6862    1.7664   -0.9827 H   0  0  0  0  0  0  0  0  0  0  0  0
   -3.7222   -0.6580   -0.6171 N   0  0  0  0  0  0  0  0  0  0  0  0
   -4.5190    0.2765   -0.6539 O   0  0  0  0  0  0  0  0  0  0  0  0
   -4.0197   -1.8402   -0.4686 O   0  0  0  0  0  0  0  0  0  0  0  0
    1.7173    0.6466   -1.2251 N   0  0  0  0  0  0  0  0  0  0  0  0
    2.7870    0.3340   -0.8458 N   0  0  0  0  0  0  0  0  0  0  0  0
    2.9038   -1.1544    0.5982 Cl  0  0  0  0  0  0  0  0  0  0  0  0
  1  7  1  0  0  0  0
  2  8  1  0  0  0  0
  2  1  2  0  0  0  0
  3  2  1  0  0  0  0
  4  3  2  0  0  0  0
  4  5  1  0  0  0  0
  5  6  2  0  0  0  0
  6  1  1  0  0  0  0
  6 11  1  0  0  0  0
  9  4  1  0  0  0  0
 10  5  1  0  0  0  0
 11 13  2  0  0  0  0
 12 11  2  0  0  0  0
 14  3  1  0  0  0  0
 14 15  2  0  0  0  0
 15 16  1  0  0  0  0
M  END
