Coordinates from ORCA-job p-NO2-Ph-N2-X-Cl-B3LYPG-6-31G_dp-scan-d09-49-n400
 OpenBabel08281820523D

 16 16  0  0  0  0  0  0  0  0999 V2000
   -1.3079   -1.3034   -0.5491 C   0  0  0  0  0  0  0  0  0  0  0  0
    0.0360   -0.9414   -0.5863 C   0  0  0  0  0  0  0  0  0  0  0  0
    0.3411    0.3977   -0.8524 C   0  0  0  0  0  0  0  0  0  0  0  0
   -0.6256    1.3839   -1.0811 C   0  0  0  0  0  0  0  0  0  0  0  0
   -1.9631    1.0113   -1.0413 C   0  0  0  0  0  0  0  0  0  0  0  0
   -2.2741   -0.3242   -0.7761 C   0  0  0  0  0  0  0  0  0  0  0  0
   -1.6167   -2.3217   -0.3480 H   0  0  0  0  0  0  0  0  0  0  0  0
    0.9105   -1.6070   -0.4244 H   0  0  0  0  0  0  0  0  0  0  0  0
   -0.3271    2.4063   -1.2840 H   0  0  0  0  0  0  0  0  0  0  0  0
   -2.7617    1.7220   -1.2093 H   0  0  0  0  0  0  0  0  0  0  0  0
   -3.7022   -0.7146   -0.7358 N   0  0  0  0  0  0  0  0  0  0  0  0
   -4.5333    0.1673   -0.9381 O   0  0  0  0  0  0  0  0  0  0  0  0
   -3.9580   -1.8924   -0.5034 O   0  0  0  0  0  0  0  0  0  0  0  0
    1.7005    0.7876   -0.8942 N   0  0  0  0  0  0  0  0  0  0  0  0
    2.7555    0.3046   -0.7630 N   0  0  0  0  0  0  0  0  0  0  0  0
    2.8072   -1.8280   -0.3174 Cl  0  0  0  0  0  0  0  0  0  0  0  0
  1  7  1  0  0  0  0
  2  1  1  0  0  0  0
  2  8  1  0  0  0  0
  3  2  2  0  0  0  0
  4  5  2  0  0  0  0
  4  3  1  0  0  0  0
  5  6  1  0  0  0  0
  6 11  1  0  0  0  0
  6  1  2  0  0  0  0
  9  4  1  0  0  0  0
 10  5  1  0  0  0  0
 11 13  2  0  0  0  0
 12 11  2  0  0  0  0
 14  3  1  0  0  0  0
 14 15  2  0  0  0  0
 15 16  1  0  0  0  0
M  END
