Coordinates from ORCA-job p-NO2-Ph-N2-X-Cl-B3LYPG-6-31G_dp-scan-d09-49-n400
 OpenBabel08281820523D

 16 16  0  0  0  0  0  0  0  0999 V2000
   -1.5053   -1.5470   -1.0420 C   0  0  0  0  0  0  0  0  0  0  0  0
   -0.1388   -1.4014   -1.2507 C   0  0  0  0  0  0  0  0  0  0  0  0
    0.4349   -0.1330   -1.1306 C   0  0  0  0  0  0  0  0  0  0  0  0
   -0.3264    1.0086   -0.8540 C   0  0  0  0  0  0  0  0  0  0  0  0
   -1.6976    0.8630   -0.6740 C   0  0  0  0  0  0  0  0  0  0  0  0
   -2.2604   -0.4091   -0.7640 C   0  0  0  0  0  0  0  0  0  0  0  0
   -1.9926   -2.5117   -1.1026 H   0  0  0  0  0  0  0  0  0  0  0  0
    0.4937   -2.2500   -1.4802 H   0  0  0  0  0  0  0  0  0  0  0  0
    0.1480    1.9786   -0.7762 H   0  0  0  0  0  0  0  0  0  0  0  0
   -2.3324    1.7127   -0.4578 H   0  0  0  0  0  0  0  0  0  0  0  0
   -3.7158   -0.5563   -0.5642 N   0  0  0  0  0  0  0  0  0  0  0  0
   -4.3591    0.4624   -0.3241 O   0  0  0  0  0  0  0  0  0  0  0  0
   -4.1854   -1.6887   -0.6473 O   0  0  0  0  0  0  0  0  0  0  0  0
    1.8248   -0.0305   -1.3913 N   0  0  0  0  0  0  0  0  0  0  0  0
    2.7432    0.4565   -0.8300 N   0  0  0  0  0  0  0  0  0  0  0  0
    2.3505    1.2938    0.9853 Cl  0  0  0  0  0  0  0  0  0  0  0  0
  1  6  2  0  0  0  0
  2  3  2  0  0  0  0
  2  1  1  0  0  0  0
  3  4  1  0  0  0  0
  4  9  1  0  0  0  0
  4  5  2  0  0  0  0
  5 10  1  0  0  0  0
  6  5  1  0  0  0  0
  6 11  1  0  0  0  0
  7  1  1  0  0  0  0
  8  2  1  0  0  0  0
 11 12  2  0  0  0  0
 13 11  2  0  0  0  0
 14  3  1  0  0  0  0
 14 15  2  0  0  0  0
 15 16  1  0  0  0  0
M  END
