Coordinates from ORCA-job p-NO2-Ph-N2-X-Cl-B3LYPG-6-31G_dp-scan-d09-49-n400
 OpenBabel08281820523D

 16 16  0  0  0  0  0  0  0  0999 V2000
   -1.3657   -1.3243   -0.5505 C   0  0  0  0  0  0  0  0  0  0  0  0
   -0.0119   -1.0029   -0.5803 C   0  0  0  0  0  0  0  0  0  0  0  0
    0.3505    0.3285   -0.8408 C   0  0  0  0  0  0  0  0  0  0  0  0
   -0.6086    1.3269   -1.0690 C   0  0  0  0  0  0  0  0  0  0  0  0
   -1.9577    0.9994   -1.0368 C   0  0  0  0  0  0  0  0  0  0  0  0
   -2.3089   -0.3241   -0.7773 C   0  0  0  0  0  0  0  0  0  0  0  0
   -1.6981   -2.3356   -0.3532 H   0  0  0  0  0  0  0  0  0  0  0  0
    0.7515   -1.7501   -0.4080 H   0  0  0  0  0  0  0  0  0  0  0  0
   -0.2813    2.3409   -1.2685 H   0  0  0  0  0  0  0  0  0  0  0  0
   -2.7311    1.7370   -1.2070 H   0  0  0  0  0  0  0  0  0  0  0  0
   -3.7447   -0.6806   -0.7422 N   0  0  0  0  0  0  0  0  0  0  0  0
   -4.5529    0.2216   -0.9462 O   0  0  0  0  0  0  0  0  0  0  0  0
   -4.0288   -1.8524   -0.5118 O   0  0  0  0  0  0  0  0  0  0  0  0
    1.6889    0.7725   -0.8975 N   0  0  0  0  0  0  0  0  0  0  0  0
    2.7993    0.4109   -0.7857 N   0  0  0  0  0  0  0  0  0  0  0  0
    3.1806   -1.6198   -0.3291 Cl  0  0  0  0  0  0  0  0  0  0  0  0
  1  7  1  0  0  0  0
  2  1  1  0  0  0  0
  2  8  1  0  0  0  0
  3  2  2  0  0  0  0
  4  5  2  0  0  0  0
  4  3  1  0  0  0  0
  5  6  1  0  0  0  0
  6 11  1  0  0  0  0
  6  1  2  0  0  0  0
  9  4  1  0  0  0  0
 10  5  1  0  0  0  0
 11 13  2  0  0  0  0
 12 11  2  0  0  0  0
 14  3  1  0  0  0  0
 14 15  2  0  0  0  0
 15 16  1  0  0  0  0
M  END
