Coordinates from ORCA-job p-NO2-Ph-N2-X-Cl-B3LYPG-6-31G_dp-scan-d09-49-n400
 OpenBabel08281820523D

 16 15  0  0  0  0  0  0  0  0999 V2000
   -1.2957   -1.2987   -0.5507 C   0  0  0  0  0  0  0  0  0  0  0  0
    0.0471   -0.9297   -0.5891 C   0  0  0  0  0  0  0  0  0  0  0  0
    0.3372    0.4110   -0.8554 C   0  0  0  0  0  0  0  0  0  0  0  0
   -0.6299    1.3960   -1.0841 C   0  0  0  0  0  0  0  0  0  0  0  0
   -1.9646    1.0143   -1.0428 C   0  0  0  0  0  0  0  0  0  0  0  0
   -2.2668   -0.3240   -0.7769 C   0  0  0  0  0  0  0  0  0  0  0  0
   -1.6003   -2.3183   -0.3493 H   0  0  0  0  0  0  0  0  0  0  0  0
    0.9519   -1.5828   -0.4284 H   0  0  0  0  0  0  0  0  0  0  0  0
   -0.3371    2.4201   -1.2872 H   0  0  0  0  0  0  0  0  0  0  0  0
   -2.7684    1.7193   -1.2100 H   0  0  0  0  0  0  0  0  0  0  0  0
   -3.6935   -0.7213   -0.7353 N   0  0  0  0  0  0  0  0  0  0  0  0
   -4.5292    0.1572   -0.9336 O   0  0  0  0  0  0  0  0  0  0  0  0
   -3.9437   -1.8995   -0.4990 O   0  0  0  0  0  0  0  0  0  0  0  0
    1.7018    0.7883   -0.8932 N   0  0  0  0  0  0  0  0  0  0  0  0
    2.7454    0.2883   -0.7582 N   0  0  0  0  0  0  0  0  0  0  0  0
    2.7269   -1.8722   -0.3107 Cl  0  0  0  0  0  0  0  0  0  0  0  0
  1  7  1  0  0  0  0
  2  1  1  0  0  0  0
  2  8  1  0  0  0  0
  3  2  2  0  0  0  0
  4  5  2  0  0  0  0
  4  3  1  0  0  0  0
  5  6  1  0  0  0  0
  6 11  1  0  0  0  0
  6  1  2  0  0  0  0
  9  4  1  0  0  0  0
 10  5  1  0  0  0  0
 11 13  2  0  0  0  0
 12 11  2  0  0  0  0
 14  3  1  0  0  0  0
 14 15  2  0  0  0  0
M  RAD  2  15   2  16   2
M  END
