Coordinates from ORCA-job p-NO2-Ph-N2-X-Cl-B3LYPG-6-31G_dp-scan-d09-49-n400
 OpenBabel08281820523D

 16 16  0  0  0  0  0  0  0  0999 V2000
   -1.4933   -1.5392   -1.0273 C   0  0  0  0  0  0  0  0  0  0  0  0
   -0.1290   -1.3858   -1.2461 C   0  0  0  0  0  0  0  0  0  0  0  0
    0.4328   -0.1108   -1.1505 C   0  0  0  0  0  0  0  0  0  0  0  0
   -0.3361    1.0278   -0.8856 C   0  0  0  0  0  0  0  0  0  0  0  0
   -1.7047    0.8738   -0.6939 C   0  0  0  0  0  0  0  0  0  0  0  0
   -2.2572   -0.4042   -0.7624 C   0  0  0  0  0  0  0  0  0  0  0  0
   -1.9721   -2.5092   -1.0688 H   0  0  0  0  0  0  0  0  0  0  0  0
    0.5098   -2.2332   -1.4620 H   0  0  0  0  0  0  0  0  0  0  0  0
    0.1310    2.0029   -0.8247 H   0  0  0  0  0  0  0  0  0  0  0  0
   -2.3452    1.7210   -0.4847 H   0  0  0  0  0  0  0  0  0  0  0  0
   -3.7096   -0.5609   -0.5518 N   0  0  0  0  0  0  0  0  0  0  0  0
   -4.3609    0.4559   -0.3252 O   0  0  0  0  0  0  0  0  0  0  0  0
   -4.1704   -1.6981   -0.6177 O   0  0  0  0  0  0  0  0  0  0  0  0
    1.8205    0.0098   -1.4219 N   0  0  0  0  0  0  0  0  0  0  0  0
    2.7369    0.4559   -0.8227 N   0  0  0  0  0  0  0  0  0  0  0  0
    2.3287    1.1422    1.0414 Cl  0  0  0  0  0  0  0  0  0  0  0  0
  1  6  2  0  0  0  0
  2  3  2  0  0  0  0
  2  1  1  0  0  0  0
  3  4  1  0  0  0  0
  4  9  1  0  0  0  0
  4  5  2  0  0  0  0
  5 10  1  0  0  0  0
  6  5  1  0  0  0  0
  6 11  1  0  0  0  0
  7  1  1  0  0  0  0
  8  2  1  0  0  0  0
 11 12  2  0  0  0  0
 13 11  2  0  0  0  0
 14  3  1  0  0  0  0
 14 15  2  0  0  0  0
 15 16  1  0  0  0  0
M  END
