Coordinates from ORCA-job p-NO2-Ph-N2-X-Cl-B3LYPG-6-31G_dp-scan-d09-49-n400
 OpenBabel08281820523D

 16 16  0  0  0  0  0  0  0  0999 V2000
   -1.3583   -1.3580   -0.6915 C   0  0  0  0  0  0  0  0  0  0  0  0
   -0.0050   -1.0536   -0.8001 C   0  0  0  0  0  0  0  0  0  0  0  0
    0.3638    0.2856   -0.9933 C   0  0  0  0  0  0  0  0  0  0  0  0
   -0.5872    1.3094   -1.1024 C   0  0  0  0  0  0  0  0  0  0  0  0
   -1.9354    1.0027   -0.9694 C   0  0  0  0  0  0  0  0  0  0  0  0
   -2.2945   -0.3288   -0.7683 C   0  0  0  0  0  0  0  0  0  0  0  0
   -1.6956   -2.3759   -0.5421 H   0  0  0  0  0  0  0  0  0  0  0  0
    0.7508   -1.8242   -0.7319 H   0  0  0  0  0  0  0  0  0  0  0  0
   -0.2576    2.3267   -1.2810 H   0  0  0  0  0  0  0  0  0  0  0  0
   -2.7038    1.7624   -1.0304 H   0  0  0  0  0  0  0  0  0  0  0  0
   -3.7292   -0.6632   -0.6417 N   0  0  0  0  0  0  0  0  0  0  0  0
   -4.5315    0.2646   -0.7107 O   0  0  0  0  0  0  0  0  0  0  0  0
   -4.0204   -1.8440   -0.4721 O   0  0  0  0  0  0  0  0  0  0  0  0
    1.7092    0.6834   -1.1606 N   0  0  0  0  0  0  0  0  0  0  0  0
    2.7916    0.3536   -0.8403 N   0  0  0  0  0  0  0  0  0  0  0  0
    2.9844   -1.2928    0.4320 Cl  0  0  0  0  0  0  0  0  0  0  0  0
  1  7  1  0  0  0  0
  2  8  1  0  0  0  0
  2  1  2  0  0  0  0
  3  2  1  0  0  0  0
  4  3  2  0  0  0  0
  4  5  1  0  0  0  0
  5  6  2  0  0  0  0
  6  1  1  0  0  0  0
  6 11  1  0  0  0  0
  9  4  1  0  0  0  0
 10  5  1  0  0  0  0
 11 13  2  0  0  0  0
 12 11  2  0  0  0  0
 14  3  1  0  0  0  0
 14 15  2  0  0  0  0
 15 16  1  0  0  0  0
M  END
