13
Coordinates from ORCA-job o-NO2-Ph+-B3LYPG-aug-cc-pVDZ-scan-d09-49-n400
  C   -1.51004743567957      0.43983911459980     -0.71786254905637
  C   -0.26185071486799      0.32382193155108     -0.11655776762294
  C   0.25393577388719      0.87583709595472      1.03235346672216
  C   -2.01862172054689      2.25588339788693      1.69413555302760
  C   -2.94312258860376      1.96562341268978      0.68331904218410
  C   -2.70035892783246      1.14792579563620     -0.39419393479491
  H   -1.57973185907914     -0.14428150955985     -1.63821434784101
  H   0.49453522315651     -0.30864377005180     -0.59612288215568
  H   -3.52135428052088      1.01882180871517     -1.09849977400464
  H   -3.92737799625084      2.43457158891185      0.77603182220645
  N   -1.60052609847767      2.74909807221702      2.69401838763992
  O   0.87050458575054      1.21888140933899      1.93008402826660
  O   -1.02318396093502      3.14592165211013      3.64750895542873
