Coordinates from ORCA-job p-NO2-Ph-N2-OTf-B3LYPG-aug-cc-pVDZ-scan-d09-29-n200
 OpenBabel01151817083D

 23 22  0  0  0  0  0  0  0  0999 V2000
   -2.0795   -0.6497   -6.0619 C   0  0  0  0  0  0  0  0  0  0  0  0
   -1.1221    0.2460   -6.5460 C   0  0  0  0  0  0  0  0  0  0  0  0
   -1.1143    1.4877   -5.9364 C   0  0  0  0  0  0  0  0  0  0  0  0
   -1.8983    1.9222   -4.8756 C   0  0  0  0  0  0  0  0  0  0  0  0
   -2.8340    1.0040   -4.4069 C   0  0  0  0  0  0  0  0  0  0  0  0
   -2.9087   -0.2536   -5.0155 C   0  0  0  0  0  0  0  0  0  0  0  0
   -2.1621   -1.6516   -6.4738 H   0  0  0  0  0  0  0  0  0  0  0  0
   -0.4223   -0.0226   -7.3303 H   0  0  0  0  0  0  0  0  0  0  0  0
   -1.7821    2.9076   -4.4329 H   0  0  0  0  0  0  0  0  0  0  0  0
   -3.4968    1.2480   -3.5811 H   0  0  0  0  0  0  0  0  0  0  0  0
   -3.9213   -1.2175   -4.5115 N   0  0  0  0  0  0  0  0  0  0  0  0
   -4.6113   -0.8599   -3.5637 O   0  0  0  0  0  0  0  0  0  0  0  0
   -3.9966   -2.3004   -5.0776 O   0  0  0  0  0  0  0  0  0  0  0  0
   -0.0820    2.5354   -6.4951 N   0  0  0  0  0  0  0  0  0  0  0  0
    0.4347    3.3736   -7.0036 N   0  0  0  0  0  0  0  0  0  0  0  0
    2.1132    0.2622   -4.9886 S   0  0  0  0  0  0  0  0  0  0  0  0
    3.0923    0.2394   -6.6136 C   0  0  0  0  0  0  0  0  0  0  0  0
    1.5330    1.6748   -5.0143 O   0  0  0  0  0  0  0  0  0  0  0  0
    3.1165    0.0288   -3.9241 O   0  0  0  0  0  0  0  0  0  0  0  0
    1.0736   -0.7971   -5.2122 O   0  0  0  0  0  0  0  0  0  0  0  0
    2.2476    0.5187   -7.6532 F   0  0  0  0  0  0  0  0  0  0  0  0
    4.0613    1.1663   -6.6190 F   0  0  0  0  0  0  0  0  0  0  0  0
    3.6384   -0.9614   -6.8413 F   0  0  0  0  0  0  0  0  0  0  0  0
  1  6  1  0  0  0  0
  2  1  2  0  0  0  0
  2  3  1  0  0  0  0
  3  4  2  0  0  0  0
  4  9  1  0  0  0  0
  4  5  1  0  0  0  0
  5 10  1  0  0  0  0
  6 11  1  0  0  0  0
  6  5  2  0  0  0  0
  7  1  1  0  0  0  0
  8  2  1  0  0  0  0
 11 12  2  0  0  0  0
 13 11  2  0  0  0  0
 14  3  1  0  0  0  0
 15 14  1  0  0  0  0
 16 19  1  0  0  0  0
 17 16  1  0  0  0  0
 18 16  2  0  0  0  0
 20 16  2  0  0  0  0
 21 17  1  0  0  0  0
 22 17  1  0  0  0  0
 23 17  1  0  0  0  0
M  RAD  3  14   2  15   3  19   2
M  END
