Coordinates from ORCA-job p-NO2-Ph-N2-OTf-B3LYPG-aug-cc-pVDZ-scan-d29-49-n200
 OpenBabel01151817083D

 23 22  0  0  1  0  0  0  0  0999 V2000
   -1.2815   -0.4377   -5.7023 C   0  0  0  0  0  0  0  0  0  0  0  0
   -0.4431    0.7829   -5.4997 C   0  0  1  0  0  0  0  0  0  0  0  0
   -1.0141    1.8444   -4.7026 C   0  0  0  0  0  0  0  0  0  0  0  0
   -2.3852    1.9460   -4.5189 C   0  0  0  0  0  0  0  0  0  0  0  0
   -3.0553    0.7212   -4.4569 C   0  0  0  0  0  0  0  0  0  0  0  0
   -2.5076   -0.4250   -5.1208 C   0  0  0  0  0  0  0  0  0  0  0  0
   -0.9870   -1.2207   -6.3975 H   0  0  0  0  0  0  0  0  0  0  0  0
   -0.2642    1.2402   -6.5015 H   0  0  0  0  0  0  0  0  0  0  0  0
   -2.8543    2.8549   -4.1387 H   0  0  0  0  0  0  0  0  0  0  0  0
   -3.9731    0.5986   -3.8833 H   0  0  0  0  0  0  0  0  0  0  0  0
   -3.3741   -1.6248   -5.2490 N   0  0  0  0  0  0  0  0  0  0  0  0
   -4.3830   -1.6600   -4.5520 O   0  0  0  0  0  0  0  0  0  0  0  0
   -3.0238   -2.5001   -6.0303 O   0  0  0  0  0  0  0  0  0  0  0  0
   -0.6270    4.3133   -6.3450 N   0  0  0  0  0  0  0  0  0  0  0  0
   -0.1513    5.2953   -6.1759 N   0  0  0  0  0  0  0  0  0  0  0  0
    2.2328    0.7055   -5.8693 S   0  0  0  0  0  0  0  0  0  0  0  0
    2.6590   -1.0692   -6.4016 C   0  0  0  0  0  0  0  0  0  0  0  0
    1.8479    1.4363   -7.0969 O   0  0  0  0  0  0  0  0  0  0  0  0
    3.3017    1.1493   -4.9685 O   0  0  0  0  0  0  0  0  0  0  0  0
    0.8937    0.3842   -4.9661 O   0  0  0  0  0  0  0  0  0  0  0  0
    1.6366   -1.5761   -7.1070 F   0  0  0  0  0  0  0  0  0  0  0  0
    3.7514   -1.0306   -7.1656 F   0  0  0  0  0  0  0  0  0  0  0  0
    2.8808   -1.8266   -5.3286 F   0  0  0  0  0  0  0  0  0  0  0  0
  1  2  1  0  0  0  0
  1  6  2  0  0  0  0
  2  8  1  6  0  0  0
  2 20  1  0  0  0  0
  2  3  1  0  0  0  0
  3  4  1  0  0  0  0
  4  5  1  0  0  0  0
  4  9  1  0  0  0  0
  5 10  1  0  0  0  0
  6  5  1  0  0  0  0
  7  1  1  0  0  0  0
 11  6  1  0  0  0  0
 11 12  2  0  0  0  0
 13 11  2  0  0  0  0
 14 15  3  0  0  0  0
 16 19  2  0  0  0  0
 16 20  1  0  0  0  0
 17 16  1  0  0  0  0
 17 23  1  0  0  0  0
 18 16  2  0  0  0  0
 21 17  1  0  0  0  0
 22 17  1  0  0  0  0
M  RAD  3   3   3   4   2   5   2
M  END
