Coordinates from ORCA-job p-NO2-Ph-N2-OTf-B3LYPG-aug-cc-pVDZ-scan-d09-29-n200
 OpenBabel01151817083D

 23 22  0  0  0  0  0  0  0  0999 V2000
   -2.3625   -0.6575   -6.1776 C   0  0  0  0  0  0  0  0  0  0  0  0
   -1.0879   -0.2403   -6.5451 C   0  0  0  0  0  0  0  0  0  0  0  0
   -0.4331    0.7248   -5.7661 C   0  0  0  0  0  0  0  0  0  0  0  0
   -0.9475    1.1197   -4.5226 C   0  0  0  0  0  0  0  0  0  0  0  0
   -2.2222    0.7056   -4.1526 C   0  0  0  0  0  0  0  0  0  0  0  0
   -2.9227   -0.1582   -4.9989 C   0  0  0  0  0  0  0  0  0  0  0  0
   -2.9194   -1.3722   -6.7780 H   0  0  0  0  0  0  0  0  0  0  0  0
   -0.6128   -0.6145   -7.4492 H   0  0  0  0  0  0  0  0  0  0  0  0
   -0.3635    1.7808   -3.8859 H   0  0  0  0  0  0  0  0  0  0  0  0
   -2.6722    1.0247   -3.2162 H   0  0  0  0  0  0  0  0  0  0  0  0
   -4.2766   -0.5970   -4.6096 N   0  0  0  0  0  0  0  0  0  0  0  0
   -4.7370   -0.1586   -3.5588 O   0  0  0  0  0  0  0  0  0  0  0  0
   -4.8616   -1.3729   -5.3608 O   0  0  0  0  0  0  0  0  0  0  0  0
   -0.9367    2.4018   -6.8623 N   0  0  0  0  0  0  0  0  0  0  0  0
   -1.9060    2.8773   -7.1146 N   0  0  0  0  0  0  0  0  0  0  0  0
    2.0680   -0.0209   -5.5007 S   0  0  0  0  0  0  0  0  0  0  0  0
    3.5066    1.0030   -6.2193 C   0  0  0  0  0  0  0  0  0  0  0  0
    0.9060    1.0482   -6.0716 O   0  0  0  0  0  0  0  0  0  0  0  0
    2.1380    0.0363   -4.0318 O   0  0  0  0  0  0  0  0  0  0  0  0
    1.9911   -1.2971   -6.2300 O   0  0  0  0  0  0  0  0  0  0  0  0
    3.3851    1.0903   -7.5424 F   0  0  0  0  0  0  0  0  0  0  0  0
    3.5134    2.2191   -5.6769 F   0  0  0  0  0  0  0  0  0  0  0  0
    4.6326    0.3588   -5.9069 F   0  0  0  0  0  0  0  0  0  0  0  0
  1  6  1  0  0  0  0
  2  1  2  0  0  0  0
  2  3  1  0  0  0  0
  3  4  2  0  0  0  0
  4  5  1  0  0  0  0
  4  9  1  0  0  0  0
  5 10  1  0  0  0  0
  6 11  1  0  0  0  0
  6  5  2  0  0  0  0
  7  1  1  0  0  0  0
  8  2  1  0  0  0  0
 11 12  2  0  0  0  0
 13 11  2  0  0  0  0
 15 14  3  0  0  0  0
 16 19  2  0  0  0  0
 17 23  1  0  0  0  0
 17 22  1  0  0  0  0
 17 16  1  0  0  0  0
 18  3  1  0  0  0  0
 18 16  1  0  0  0  0
 20 16  2  0  0  0  0
 21 17  1  0  0  0  0
M  END
