Coordinates from ORCA-job p-NO2-Ph-N2-OTf-B3LYPG-aug-cc-pVDZ-scan-d29-49-n200
 OpenBabel01151817083D

 23 22  0  0  1  0  0  0  0  0999 V2000
   -1.2815   -0.4412   -5.6973 C   0  0  0  0  0  0  0  0  0  0  0  0
   -0.4419    0.7757   -5.4783 C   0  0  1  0  0  0  0  0  0  0  0  0
   -1.0111    1.8278   -4.6687 C   0  0  0  0  0  0  0  0  0  0  0  0
   -2.3827    1.9313   -4.4896 C   0  0  0  0  0  0  0  0  0  0  0  0
   -3.0568    0.7077   -4.4451 C   0  0  0  0  0  0  0  0  0  0  0  0
   -2.5097   -0.4323   -5.1200 C   0  0  0  0  0  0  0  0  0  0  0  0
   -0.9860   -1.2174   -6.3998 H   0  0  0  0  0  0  0  0  0  0  0  0
   -0.2659    1.2480   -6.4743 H   0  0  0  0  0  0  0  0  0  0  0  0
   -2.8507    2.8372   -4.1009 H   0  0  0  0  0  0  0  0  0  0  0  0
   -3.9776    0.5809   -3.8772 H   0  0  0  0  0  0  0  0  0  0  0  0
   -3.3781   -1.6289   -5.2640 N   0  0  0  0  0  0  0  0  0  0  0  0
   -4.3884   -1.6703   -4.5693 O   0  0  0  0  0  0  0  0  0  0  0  0
   -3.0272   -2.4959   -6.0540 O   0  0  0  0  0  0  0  0  0  0  0  0
   -0.6190    4.3846   -6.4152 N   0  0  0  0  0  0  0  0  0  0  0  0
   -0.1412    5.3666   -6.2513 N   0  0  0  0  0  0  0  0  0  0  0  0
    2.2319    0.6984   -5.8599 S   0  0  0  0  0  0  0  0  0  0  0  0
    2.6580   -1.0731   -6.4031 C   0  0  0  0  0  0  0  0  0  0  0  0
    1.8422    1.4356   -7.0821 O   0  0  0  0  0  0  0  0  0  0  0  0
    3.3032    1.1385   -4.9602 O   0  0  0  0  0  0  0  0  0  0  0  0
    0.8957    0.3700   -4.9542 O   0  0  0  0  0  0  0  0  0  0  0  0
    1.6342   -1.5767   -7.1088 F   0  0  0  0  0  0  0  0  0  0  0  0
    3.7484   -1.0293   -7.1697 F   0  0  0  0  0  0  0  0  0  0  0  0
    2.8832   -1.8363   -5.3350 F   0  0  0  0  0  0  0  0  0  0  0  0
  1  2  1  0  0  0  0
  1  6  2  0  0  0  0
  2  8  1  6  0  0  0
  2 20  1  0  0  0  0
  2  3  1  0  0  0  0
  3  4  1  0  0  0  0
  4  5  1  0  0  0  0
  4  9  1  0  0  0  0
  5 10  1  0  0  0  0
  6  5  1  0  0  0  0
  7  1  1  0  0  0  0
 11  6  1  0  0  0  0
 11 12  2  0  0  0  0
 13 11  2  0  0  0  0
 14 15  3  0  0  0  0
 16 19  2  0  0  0  0
 16 20  1  0  0  0  0
 17 16  1  0  0  0  0
 17 23  1  0  0  0  0
 18 16  2  0  0  0  0
 21 17  1  0  0  0  0
 22 17  1  0  0  0  0
M  RAD  3   3   3   4   2   5   2
M  END
