Coordinates from ORCA-job p-NO2-Ph-N2-OTf-B3LYPG-aug-cc-pVDZ-scan-d09-29-n200
 OpenBabel01151817083D

 23 22  0  0  0  0  0  0  0  0999 V2000
   -2.2108   -0.8810   -5.6684 C   0  0  0  0  0  0  0  0  0  0  0  0
   -1.3039   -0.0965   -6.4037 C   0  0  0  0  0  0  0  0  0  0  0  0
   -1.3832    1.2102   -6.0422 C   0  0  0  0  0  0  0  0  0  0  0  0
   -2.1120    1.9231   -5.1350 C   0  0  0  0  0  0  0  0  0  0  0  0
   -2.9968    1.0940   -4.4276 C   0  0  0  0  0  0  0  0  0  0  0  0
   -3.0294   -0.2736   -4.7142 C   0  0  0  0  0  0  0  0  0  0  0  0
   -2.2565   -1.9555   -5.8302 H   0  0  0  0  0  0  0  0  0  0  0  0
   -0.5649   -0.4815   -7.1095 H   0  0  0  0  0  0  0  0  0  0  0  0
   -2.0180    2.9892   -4.9550 H   0  0  0  0  0  0  0  0  0  0  0  0
   -3.6466    1.5094   -3.6609 H   0  0  0  0  0  0  0  0  0  0  0  0
   -3.9801   -1.1242   -3.9540 N   0  0  0  0  0  0  0  0  0  0  0  0
   -4.6666   -0.5717   -3.1022 O   0  0  0  0  0  0  0  0  0  0  0  0
   -4.0131   -2.3150   -4.2340 O   0  0  0  0  0  0  0  0  0  0  0  0
   -0.2339    2.3341   -7.0645 N   0  0  0  0  0  0  0  0  0  0  0  0
    0.1991    3.1245   -7.7005 N   0  0  0  0  0  0  0  0  0  0  0  0
    1.9181    0.2921   -5.9401 S   0  0  0  0  0  0  0  0  0  0  0  0
    3.7925    0.5314   -6.0818 C   0  0  0  0  0  0  0  0  0  0  0  0
    1.4378    1.5595   -5.2646 O   0  0  0  0  0  0  0  0  0  0  0  0
    1.7347   -0.9606   -5.1536 O   0  0  0  0  0  0  0  0  0  0  0  0
    1.4555    0.2150   -7.3834 O   0  0  0  0  0  0  0  0  0  0  0  0
    4.0678    1.6485   -6.7816 F   0  0  0  0  0  0  0  0  0  0  0  0
    4.3392    0.6454   -4.8610 F   0  0  0  0  0  0  0  0  0  0  0  0
    4.3502   -0.5157   -6.7098 F   0  0  0  0  0  0  0  0  0  0  0  0
  1  6  2  0  0  0  0
  2  3  2  0  0  0  0
  2  1  1  0  0  0  0
  3  4  1  0  0  0  0
  4  9  1  0  0  0  0
  4  5  2  0  0  0  0
  5 10  1  0  0  0  0
  6  5  1  0  0  0  0
  6 11  1  0  0  0  0
  7  1  1  0  0  0  0
  8  2  1  0  0  0  0
 11 12  2  0  0  0  0
 13 11  2  0  0  0  0
 14  3  1  0  0  0  0
 15 14  1  0  0  0  0
 16 18  2  0  0  0  0
 16 19  1  0  0  0  0
 17 16  1  0  0  0  0
 17 22  1  0  0  0  0
 20 16  2  0  0  0  0
 21 17  1  0  0  0  0
 23 17  1  0  0  0  0
M  RAD  3  14   2  15   3  19   2
M  END
