Coordinates from ORCA-job p-NO2-Ph-N2-OTf-B3LYPG-aug-cc-pVDZ-scan-d29-49-n200
 OpenBabel01151817083D

 23 22  0  0  1  0  0  0  0  0999 V2000
   -1.3010   -0.2325   -5.6462 C   0  0  0  0  0  0  0  0  0  0  0  0
   -0.4064    0.7803   -5.0069 C   0  0  1  0  0  0  0  0  0  0  0  0
   -0.9276    1.5065   -3.8709 C   0  0  0  0  0  0  0  0  0  0  0  0
   -2.3007    1.6144   -3.6793 C   0  0  0  0  0  0  0  0  0  0  0  0
   -3.0491    0.5086   -4.0892 C   0  0  0  0  0  0  0  0  0  0  0  0
   -2.5452   -0.3520   -5.1185 C   0  0  0  0  0  0  0  0  0  0  0  0
   -1.0218   -0.7345   -6.5699 H   0  0  0  0  0  0  0  0  0  0  0  0
   -0.2026    1.5643   -5.7781 H   0  0  0  0  0  0  0  0  0  0  0  0
   -2.7308    2.3427   -2.9896 H   0  0  0  0  0  0  0  0  0  0  0  0
   -4.0004    0.2550   -3.6228 H   0  0  0  0  0  0  0  0  0  0  0  0
   -3.4711   -1.3655   -5.6860 N   0  0  0  0  0  0  0  0  0  0  0  0
   -4.5074   -1.5812   -5.0662 O   0  0  0  0  0  0  0  0  0  0  0  0
   -3.1387   -1.9227   -6.7242 O   0  0  0  0  0  0  0  0  0  0  0  0
   -0.4866    3.7847   -7.9106 N   0  0  0  0  0  0  0  0  0  0  0  0
   -0.1114    4.5596   -8.6015 N   0  0  0  0  0  0  0  0  0  0  0  0
    2.2632    0.6963   -5.4234 S   0  0  0  0  0  0  0  0  0  0  0  0
    2.6027   -0.8036   -6.5412 C   0  0  0  0  0  0  0  0  0  0  0  0
    1.9262    1.8246   -6.3186 O   0  0  0  0  0  0  0  0  0  0  0  0
    3.3453    0.7449   -4.4350 O   0  0  0  0  0  0  0  0  0  0  0  0
    0.9018    0.1480   -4.6758 O   0  0  0  0  0  0  0  0  0  0  0  0
    1.5632   -0.9804   -7.3711 F   0  0  0  0  0  0  0  0  0  0  0  0
    3.7038   -0.5593   -7.2530 F   0  0  0  0  0  0  0  0  0  0  0  0
    2.7736   -1.8969   -5.7999 F   0  0  0  0  0  0  0  0  0  0  0  0
  1  6  2  0  0  0  0
  1  2  1  0  0  0  0
  2  8  1  6  0  0  0
  2 20  1  0  0  0  0
  2  3  1  0  0  0  0
  3  4  1  0  0  0  0
  4  9  1  0  0  0  0
  5  4  1  0  0  0  0
  5 10  1  0  0  0  0
  6  5  1  0  0  0  0
  7  1  1  0  0  0  0
 11  6  1  0  0  0  0
 11 12  2  0  0  0  0
 13 11  2  0  0  0  0
 15 14  3  0  0  0  0
 16 20  1  0  0  0  0
 16 19  2  0  0  0  0
 17 23  1  0  0  0  0
 17 16  1  0  0  0  0
 18 16  2  0  0  0  0
 21 17  1  0  0  0  0
 22 17  1  0  0  0  0
M  RAD  3   3   3   4   2   5   2
M  END
