Coordinates from ORCA-job p-NO2-Ph-N2-OTf-B3LYPG-aug-cc-pVDZ-scan-d29-49-n200
 OpenBabel01151817083D

 23 22  0  0  1  0  0  0  0  0999 V2000
   -1.2834   -0.4460   -5.6840 C   0  0  0  0  0  0  0  0  0  0  0  0
   -0.4408    0.7616   -5.4282 C   0  0  1  0  0  0  0  0  0  0  0  0
   -1.0026    1.7946   -4.5897 C   0  0  0  0  0  0  0  0  0  0  0  0
   -2.3769    1.8973   -4.4169 C   0  0  0  0  0  0  0  0  0  0  0  0
   -3.0613    0.6792   -4.4154 C   0  0  0  0  0  0  0  0  0  0  0  0
   -2.5160   -0.4458   -5.1165 C   0  0  0  0  0  0  0  0  0  0  0  0
   -0.9846   -1.2070   -6.4016 H   0  0  0  0  0  0  0  0  0  0  0  0
   -0.2701    1.2647   -6.4114 H   0  0  0  0  0  0  0  0  0  0  0  0
   -2.8430    2.7936   -4.0043 H   0  0  0  0  0  0  0  0  0  0  0  0
   -3.9909    0.5442   -3.8639 H   0  0  0  0  0  0  0  0  0  0  0  0
   -3.3893   -1.6337   -5.2984 N   0  0  0  0  0  0  0  0  0  0  0  0
   -4.4054   -1.6876   -4.6132 O   0  0  0  0  0  0  0  0  0  0  0  0
   -3.0358   -2.4824   -6.1070 O   0  0  0  0  0  0  0  0  0  0  0  0
   -0.5913    4.4961   -6.5831 N   0  0  0  0  0  0  0  0  0  0  0  0
   -0.1045    5.4775   -6.4445 N   0  0  0  0  0  0  0  0  0  0  0  0
    2.2292    0.6888   -5.8300 S   0  0  0  0  0  0  0  0  0  0  0  0
    2.6552   -1.0700   -6.4132 C   0  0  0  0  0  0  0  0  0  0  0  0
    1.8314    1.4513   -7.0338 O   0  0  0  0  0  0  0  0  0  0  0  0
    3.3043    1.1112   -4.9265 O   0  0  0  0  0  0  0  0  0  0  0  0
    0.8975    0.3372   -4.9256 O   0  0  0  0  0  0  0  0  0  0  0  0
    1.6290   -1.5601   -7.1247 F   0  0  0  0  0  0  0  0  0  0  0  0
    3.7420   -1.0079   -7.1835 F   0  0  0  0  0  0  0  0  0  0  0  0
    2.8865   -1.8556   -5.3627 F   0  0  0  0  0  0  0  0  0  0  0  0
  1  2  1  0  0  0  0
  1  6  2  0  0  0  0
  2  8  1  6  0  0  0
  2 20  1  0  0  0  0
  2  3  1  0  0  0  0
  3  4  1  0  0  0  0
  4  5  1  0  0  0  0
  4  9  1  0  0  0  0
  5 10  1  0  0  0  0
  6  5  1  0  0  0  0
  7  1  1  0  0  0  0
 11  6  1  0  0  0  0
 11 12  2  0  0  0  0
 13 11  2  0  0  0  0
 14 15  3  0  0  0  0
 16 19  2  0  0  0  0
 16 20  1  0  0  0  0
 17 16  1  0  0  0  0
 17 23  1  0  0  0  0
 18 16  2  0  0  0  0
 21 17  1  0  0  0  0
 22 17  1  0  0  0  0
M  RAD  3   3   3   4   2   5   2
M  END
