Coordinates from ORCA-job p-NO2-Ph-N2-OTf-B3LYPG-aug-cc-pVDZ-scan-d29-49-n200
 OpenBabel01151817083D

 23 22  0  0  1  0  0  0  0  0999 V2000
   -1.2678   -0.2121   -5.6759 C   0  0  0  0  0  0  0  0  0  0  0  0
   -0.3653    0.7940   -5.0381 C   0  0  1  0  0  0  0  0  0  0  0  0
   -0.8847    1.5517   -3.9230 C   0  0  0  0  0  0  0  0  0  0  0  0
   -2.2608    1.6894   -3.7603 C   0  0  0  0  0  0  0  0  0  0  0  0
   -3.0283    0.5975   -4.1687 C   0  0  0  0  0  0  0  0  0  0  0  0
   -2.5249   -0.2935   -5.1725 C   0  0  0  0  0  0  0  0  0  0  0  0
   -0.9795   -0.7415   -6.5813 H   0  0  0  0  0  0  0  0  0  0  0  0
   -0.1456    1.5680   -5.8159 H   0  0  0  0  0  0  0  0  0  0  0  0
   -2.6878    2.4387   -3.0914 H   0  0  0  0  0  0  0  0  0  0  0  0
   -3.9976    0.3780   -3.7224 H   0  0  0  0  0  0  0  0  0  0  0  0
   -3.4622   -1.2960   -5.7406 N   0  0  0  0  0  0  0  0  0  0  0  0
   -4.5108   -1.4843   -5.1325 O   0  0  0  0  0  0  0  0  0  0  0  0
   -3.1148   -1.8914   -6.7525 O   0  0  0  0  0  0  0  0  0  0  0  0
   -0.7620    3.5068   -7.5773 N   0  0  0  0  0  0  0  0  0  0  0  0
   -0.5283    4.3339   -8.2698 N   0  0  0  0  0  0  0  0  0  0  0  0
    2.3066    0.6743   -5.4210 S   0  0  0  0  0  0  0  0  0  0  0  0
    2.6405   -0.8355   -6.5271 C   0  0  0  0  0  0  0  0  0  0  0  0
    1.9954    1.8020   -6.3262 O   0  0  0  0  0  0  0  0  0  0  0  0
    3.3772    0.7140   -4.4198 O   0  0  0  0  0  0  0  0  0  0  0  0
    0.9294    0.1468   -4.6881 O   0  0  0  0  0  0  0  0  0  0  0  0
    1.6080   -1.0045   -7.3673 F   0  0  0  0  0  0  0  0  0  0  0  0
    3.7521   -0.6084   -7.2282 F   0  0  0  0  0  0  0  0  0  0  0  0
    2.7902   -1.9268   -5.7782 F   0  0  0  0  0  0  0  0  0  0  0  0
  1  6  2  0  0  0  0
  1  2  1  0  0  0  0
  2  8  1  6  0  0  0
  2 20  1  0  0  0  0
  2  3  1  0  0  0  0
  3  4  1  0  0  0  0
  4  9  1  0  0  0  0
  5  4  1  0  0  0  0
  5 10  1  0  0  0  0
  6  5  1  0  0  0  0
  7  1  1  0  0  0  0
 11  6  1  0  0  0  0
 11 12  2  0  0  0  0
 13 11  2  0  0  0  0
 15 14  3  0  0  0  0
 16 20  1  0  0  0  0
 16 19  2  0  0  0  0
 17 23  1  0  0  0  0
 17 16  1  0  0  0  0
 18 16  2  0  0  0  0
 21 17  1  0  0  0  0
 22 17  1  0  0  0  0
M  RAD  3   3   3   4   2   5   2
M  END
