Coordinates from ORCA-job p-NO2-Ph-N2-OTf-B3LYPG-aug-cc-pVDZ-scan-d29-49-n200
 OpenBabel01151817083D

 23 22  0  0  1  0  0  0  0  0999 V2000
   -1.2818   -0.4421   -5.6955 C   0  0  0  0  0  0  0  0  0  0  0  0
   -0.4416    0.7734   -5.4710 C   0  0  1  0  0  0  0  0  0  0  0  0
   -1.0097    1.8229   -4.6574 C   0  0  0  0  0  0  0  0  0  0  0  0
   -2.3818    1.9266   -4.4798 C   0  0  0  0  0  0  0  0  0  0  0  0
   -3.0576    0.7038   -4.4416 C   0  0  0  0  0  0  0  0  0  0  0  0
   -2.5107   -0.4342   -5.1199 C   0  0  0  0  0  0  0  0  0  0  0  0
   -0.9855   -1.2163   -6.3999 H   0  0  0  0  0  0  0  0  0  0  0  0
   -0.2665    1.2503   -6.4652 H   0  0  0  0  0  0  0  0  0  0  0  0
   -2.8494    2.8313   -4.0880 H   0  0  0  0  0  0  0  0  0  0  0  0
   -3.9800    0.5760   -3.8765 H   0  0  0  0  0  0  0  0  0  0  0  0
   -3.3800   -1.6295   -5.2696 N   0  0  0  0  0  0  0  0  0  0  0  0
   -4.3899   -1.6739   -4.5745 O   0  0  0  0  0  0  0  0  0  0  0  0
   -3.0272   -2.4954   -6.0601 O   0  0  0  0  0  0  0  0  0  0  0  0
   -0.6156    4.4048   -6.4385 N   0  0  0  0  0  0  0  0  0  0  0  0
   -0.1369    5.3867   -6.2771 N   0  0  0  0  0  0  0  0  0  0  0  0
    2.2315    0.6964   -5.8560 S   0  0  0  0  0  0  0  0  0  0  0  0
    2.6575   -1.0735   -6.4044 C   0  0  0  0  0  0  0  0  0  0  0  0
    1.8404    1.4368   -7.0758 O   0  0  0  0  0  0  0  0  0  0  0  0
    3.3035    1.1342   -4.9560 O   0  0  0  0  0  0  0  0  0  0  0  0
    0.8961    0.3650   -4.9501 O   0  0  0  0  0  0  0  0  0  0  0  0
    1.6333   -1.5754   -7.1107 F   0  0  0  0  0  0  0  0  0  0  0  0
    3.7473   -1.0273   -7.1717 F   0  0  0  0  0  0  0  0  0  0  0  0
    2.8837   -1.8395   -5.3386 F   0  0  0  0  0  0  0  0  0  0  0  0
  1  2  1  0  0  0  0
  1  6  2  0  0  0  0
  2  8  1  6  0  0  0
  2 20  1  0  0  0  0
  2  3  1  0  0  0  0
  3  4  1  0  0  0  0
  4  5  1  0  0  0  0
  4  9  1  0  0  0  0
  5 10  1  0  0  0  0
  6  5  1  0  0  0  0
  7  1  1  0  0  0  0
 11  6  1  0  0  0  0
 11 12  2  0  0  0  0
 13 11  2  0  0  0  0
 14 15  3  0  0  0  0
 16 19  2  0  0  0  0
 16 20  1  0  0  0  0
 17 16  1  0  0  0  0
 17 23  1  0  0  0  0
 18 16  2  0  0  0  0
 21 17  1  0  0  0  0
 22 17  1  0  0  0  0
M  RAD  3   3   3   4   2   5   2
M  END
