Coordinates from ORCA-job p-NO2-Ph-N2-OTf-B3LYPG-aug-cc-pVDZ-scan-d09-29-n200
 OpenBabel01151817083D

 23 22  0  0  0  0  0  0  0  0999 V2000
   -2.0908   -0.6553   -6.0603 C   0  0  0  0  0  0  0  0  0  0  0  0
   -1.1283    0.2361   -6.5451 C   0  0  0  0  0  0  0  0  0  0  0  0
   -1.1229    1.4711   -5.9296 C   0  0  0  0  0  0  0  0  0  0  0  0
   -1.8973    1.9164   -4.8711 C   0  0  0  0  0  0  0  0  0  0  0  0
   -2.8386    1.0007   -4.4042 C   0  0  0  0  0  0  0  0  0  0  0  0
   -2.9188   -0.2558   -5.0137 C   0  0  0  0  0  0  0  0  0  0  0  0
   -2.1778   -1.6566   -6.4731 H   0  0  0  0  0  0  0  0  0  0  0  0
   -0.4273   -0.0343   -7.3276 H   0  0  0  0  0  0  0  0  0  0  0  0
   -1.7743    2.9006   -4.4279 H   0  0  0  0  0  0  0  0  0  0  0  0
   -3.5004    1.2475   -3.5784 H   0  0  0  0  0  0  0  0  0  0  0  0
   -3.9355   -1.2155   -4.5107 N   0  0  0  0  0  0  0  0  0  0  0  0
   -4.6259   -0.8546   -3.5645 O   0  0  0  0  0  0  0  0  0  0  0  0
   -4.0150   -2.2979   -5.0772 O   0  0  0  0  0  0  0  0  0  0  0  0
   -0.0561    2.5393   -6.4993 N   0  0  0  0  0  0  0  0  0  0  0  0
    0.4491    3.3797   -7.0147 N   0  0  0  0  0  0  0  0  0  0  0  0
    2.1204    0.2647   -4.9909 S   0  0  0  0  0  0  0  0  0  0  0  0
    3.1006    0.2480   -6.6153 C   0  0  0  0  0  0  0  0  0  0  0  0
    1.5358    1.6764   -5.0141 O   0  0  0  0  0  0  0  0  0  0  0  0
    3.1240    0.0347   -3.9259 O   0  0  0  0  0  0  0  0  0  0  0  0
    1.0849   -0.7976   -5.2167 O   0  0  0  0  0  0  0  0  0  0  0  0
    2.2553    0.5237   -7.6552 F   0  0  0  0  0  0  0  0  0  0  0  0
    4.0651    1.1797   -6.6195 F   0  0  0  0  0  0  0  0  0  0  0  0
    3.6528   -0.9499   -6.8432 F   0  0  0  0  0  0  0  0  0  0  0  0
  1  6  1  0  0  0  0
  2  1  2  0  0  0  0
  2  3  1  0  0  0  0
  3  4  2  0  0  0  0
  4  9  1  0  0  0  0
  4  5  1  0  0  0  0
  5 10  1  0  0  0  0
  6 11  1  0  0  0  0
  6  5  2  0  0  0  0
  7  1  1  0  0  0  0
  8  2  1  0  0  0  0
 11 12  2  0  0  0  0
 13 11  2  0  0  0  0
 14  3  1  0  0  0  0
 15 14  1  0  0  0  0
 16 19  1  0  0  0  0
 17 16  1  0  0  0  0
 18 16  2  0  0  0  0
 20 16  2  0  0  0  0
 21 17  1  0  0  0  0
 22 17  1  0  0  0  0
 23 17  1  0  0  0  0
M  RAD  3  14   2  15   3  19   2
M  END
