Coordinates from ORCA-job p-NO2-Ph-N2-OTf-B3LYPG-aug-cc-pVDZ-scan-d29-49-n200
 OpenBabel01151817083D

 23 22  0  0  1  0  0  0  0  0999 V2000
   -1.2989   -0.4006   -5.6717 C   0  0  0  0  0  0  0  0  0  0  0  0
   -0.4510    0.7651   -5.2760 C   0  0  1  0  0  0  0  0  0  0  0  0
   -1.0041    1.6923   -4.3162 C   0  0  0  0  0  0  0  0  0  0  0  0
   -2.3795    1.7770   -4.1326 C   0  0  0  0  0  0  0  0  0  0  0  0
   -3.0744    0.5749   -4.2834 C   0  0  0  0  0  0  0  0  0  0  0  0
   -2.5333   -0.4618   -5.1121 C   0  0  0  0  0  0  0  0  0  0  0  0
   -1.0006   -1.0751   -6.4713 H   0  0  0  0  0  0  0  0  0  0  0  0
   -0.2846    1.3801   -6.1951 H   0  0  0  0  0  0  0  0  0  0  0  0
   -2.8410    2.6173   -3.6111 H   0  0  0  0  0  0  0  0  0  0  0  0
   -4.0097    0.3830   -3.7590 H   0  0  0  0  0  0  0  0  0  0  0  0
   -3.4112   -1.6157   -5.4359 N   0  0  0  0  0  0  0  0  0  0  0  0
   -4.4289   -1.7462   -4.7636 O   0  0  0  0  0  0  0  0  0  0  0  0
   -3.0533   -2.3703   -6.3311 O   0  0  0  0  0  0  0  0  0  0  0  0
   -0.4340    4.5412   -7.1027 N   0  0  0  0  0  0  0  0  0  0  0  0
    0.1029    5.5020   -7.1893 N   0  0  0  0  0  0  0  0  0  0  0  0
    2.2118    0.6969   -5.7253 S   0  0  0  0  0  0  0  0  0  0  0  0
    2.6236   -1.0150   -6.4431 C   0  0  0  0  0  0  0  0  0  0  0  0
    1.8035    1.5488   -6.8642 O   0  0  0  0  0  0  0  0  0  0  0  0
    3.2995    1.0469   -4.8061 O   0  0  0  0  0  0  0  0  0  0  0  0
    0.8886    0.2833   -4.8346 O   0  0  0  0  0  0  0  0  0  0  0  0
    1.5905   -1.4446   -7.1829 F   0  0  0  0  0  0  0  0  0  0  0  0
    3.7058   -0.8996   -7.2138 F   0  0  0  0  0  0  0  0  0  0  0  0
    2.8574   -1.8789   -5.4567 F   0  0  0  0  0  0  0  0  0  0  0  0
  1  2  1  0  0  0  0
  1  6  2  0  0  0  0
  2  8  1  6  0  0  0
  2 20  1  0  0  0  0
  2  3  1  0  0  0  0
  3  4  1  0  0  0  0
  4  9  1  0  0  0  0
  5  4  1  0  0  0  0
  5 10  1  0  0  0  0
  6  5  1  0  0  0  0
  7  1  1  0  0  0  0
 11  6  1  0  0  0  0
 11 12  2  0  0  0  0
 13 11  2  0  0  0  0
 15 14  3  0  0  0  0
 16 20  1  0  0  0  0
 16 19  2  0  0  0  0
 17 16  1  0  0  0  0
 17 23  1  0  0  0  0
 18 16  2  0  0  0  0
 21 17  1  0  0  0  0
 22 17  1  0  0  0  0
M  RAD  3   3   3   4   2   5   2
M  END
