Coordinates from ORCA-job p-NO2-Ph-N2-OTf-B3LYPG-aug-cc-pVDZ-scan-d29-49-n200
 OpenBabel01151817083D

 23 22  0  0  1  0  0  0  0  0999 V2000
   -1.3104   -0.2462   -5.6317 C   0  0  0  0  0  0  0  0  0  0  0  0
   -0.4182    0.7677   -4.9910 C   0  0  1  0  0  0  0  0  0  0  0  0
   -0.9383    1.4867   -3.8499 C   0  0  0  0  0  0  0  0  0  0  0  0
   -2.3112    1.5876   -3.6530 C   0  0  0  0  0  0  0  0  0  0  0  0
   -3.0560    0.4802   -4.0650 C   0  0  0  0  0  0  0  0  0  0  0  0
   -2.5521   -0.3736   -5.1000 C   0  0  0  0  0  0  0  0  0  0  0  0
   -1.0321   -0.7433   -6.5584 H   0  0  0  0  0  0  0  0  0  0  0  0
   -0.2206    1.5573   -5.7584 H   0  0  0  0  0  0  0  0  0  0  0  0
   -2.7421    2.3112   -2.9589 H   0  0  0  0  0  0  0  0  0  0  0  0
   -4.0045    0.2204   -3.5965 H   0  0  0  0  0  0  0  0  0  0  0  0
   -3.4755   -1.3890   -5.6685 N   0  0  0  0  0  0  0  0  0  0  0  0
   -4.5084   -1.6124   -5.0456 O   0  0  0  0  0  0  0  0  0  0  0  0
   -3.1443   -1.9403   -6.7102 O   0  0  0  0  0  0  0  0  0  0  0  0
   -0.4119    3.9216   -8.0461 N   0  0  0  0  0  0  0  0  0  0  0  0
    0.0201    4.6782   -8.7240 N   0  0  0  0  0  0  0  0  0  0  0  0
    2.2489    0.6985   -5.4237 S   0  0  0  0  0  0  0  0  0  0  0  0
    2.5926   -0.7999   -6.5422 C   0  0  0  0  0  0  0  0  0  0  0  0
    1.8993    1.8240   -6.3177 O   0  0  0  0  0  0  0  0  0  0  0  0
    3.3359    0.7553   -4.4411 O   0  0  0  0  0  0  0  0  0  0  0  0
    0.8948    0.1411   -4.6689 O   0  0  0  0  0  0  0  0  0  0  0  0
    1.5504   -0.9839   -7.3669 F   0  0  0  0  0  0  0  0  0  0  0  0
    3.6887   -0.5489   -7.2594 F   0  0  0  0  0  0  0  0  0  0  0  0
    2.7742   -1.8914   -5.8009 F   0  0  0  0  0  0  0  0  0  0  0  0
  1  6  2  0  0  0  0
  1  2  1  0  0  0  0
  2  8  1  6  0  0  0
  2 20  1  0  0  0  0
  2  3  1  0  0  0  0
  3  4  1  0  0  0  0
  4  9  1  0  0  0  0
  5  4  1  0  0  0  0
  5 10  1  0  0  0  0
  6  5  1  0  0  0  0
  7  1  1  0  0  0  0
 11  6  1  0  0  0  0
 11 12  2  0  0  0  0
 13 11  2  0  0  0  0
 15 14  3  0  0  0  0
 16 20  1  0  0  0  0
 16 19  2  0  0  0  0
 17 23  1  0  0  0  0
 17 16  1  0  0  0  0
 18 16  2  0  0  0  0
 21 17  1  0  0  0  0
 22 17  1  0  0  0  0
M  RAD  3   3   3   4   2   5   2
M  END
