Coordinates from ORCA-job p-NO2-Ph-N2-OTf-B3LYPG-aug-cc-pVDZ-scan-d29-49-n200
 OpenBabel01151817083D

 23 22  0  0  1  0  0  0  0  0999 V2000
   -1.2932   -0.4156   -5.6733 C   0  0  0  0  0  0  0  0  0  0  0  0
   -0.4430    0.7572   -5.3054 C   0  0  1  0  0  0  0  0  0  0  0  0
   -0.9956    1.7107   -4.3719 C   0  0  0  0  0  0  0  0  0  0  0  0
   -2.3705    1.8049   -4.1925 C   0  0  0  0  0  0  0  0  0  0  0  0
   -3.0674    0.5999   -4.3118 C   0  0  0  0  0  0  0  0  0  0  0  0
   -2.5283   -0.4590   -5.1132 C   0  0  0  0  0  0  0  0  0  0  0  0
   -0.9963   -1.1103   -6.4560 H   0  0  0  0  0  0  0  0  0  0  0  0
   -0.2729    1.3490   -6.2389 H   0  0  0  0  0  0  0  0  0  0  0  0
   -2.8310    2.6599   -3.6947 H   0  0  0  0  0  0  0  0  0  0  0  0
   -4.0026    0.4231   -3.7820 H   0  0  0  0  0  0  0  0  0  0  0  0
   -3.4092   -1.6183   -5.4080 N   0  0  0  0  0  0  0  0  0  0  0  0
   -4.4302   -1.7261   -4.7367 O   0  0  0  0  0  0  0  0  0  0  0  0
   -3.0576   -2.3914   -6.2898 O   0  0  0  0  0  0  0  0  0  0  0  0
   -0.5015    4.5661   -7.0045 N   0  0  0  0  0  0  0  0  0  0  0  0
    0.0153    5.5408   -7.0468 N   0  0  0  0  0  0  0  0  0  0  0  0
    2.2218    0.6848   -5.7391 S   0  0  0  0  0  0  0  0  0  0  0  0
    2.6348   -1.0352   -6.4364 C   0  0  0  0  0  0  0  0  0  0  0  0
    1.8192    1.5247   -6.8888 O   0  0  0  0  0  0  0  0  0  0  0  0
    3.3056    1.0438   -4.8188 O   0  0  0  0  0  0  0  0  0  0  0  0
    0.8942    0.2819   -4.8499 O   0  0  0  0  0  0  0  0  0  0  0  0
    1.6032   -1.4725   -7.1739 F   0  0  0  0  0  0  0  0  0  0  0  0
    3.7190   -0.9293   -7.2056 F   0  0  0  0  0  0  0  0  0  0  0  0
    2.8656   -1.8881   -5.4398 F   0  0  0  0  0  0  0  0  0  0  0  0
  1  2  1  0  0  0  0
  1  6  2  0  0  0  0
  2  8  1  6  0  0  0
  2 20  1  0  0  0  0
  2  3  1  0  0  0  0
  3  4  1  0  0  0  0
  4  9  1  0  0  0  0
  5  4  1  0  0  0  0
  5 10  1  0  0  0  0
  6  5  1  0  0  0  0
  7  1  1  0  0  0  0
 11  6  1  0  0  0  0
 11 12  2  0  0  0  0
 13 11  2  0  0  0  0
 15 14  3  0  0  0  0
 16 20  1  0  0  0  0
 16 19  2  0  0  0  0
 17 16  1  0  0  0  0
 17 23  1  0  0  0  0
 18 16  2  0  0  0  0
 21 17  1  0  0  0  0
 22 17  1  0  0  0  0
M  RAD  3   3   3   4   2   5   2
M  END
