Coordinates from ORCA-job p-NO2-Ph-N2-OTf-B3LYPG-aug-cc-pVDZ-scan-d29-49-n200
 OpenBabel01151817083D

 23 22  0  0  1  0  0  0  0  0999 V2000
   -1.2840   -0.4383   -5.7004 C   0  0  0  0  0  0  0  0  0  0  0  0
   -0.4454    0.7841   -5.5069 C   0  0  1  0  0  0  0  0  0  0  0  0
   -1.0148    1.8509   -4.7156 C   0  0  0  0  0  0  0  0  0  0  0  0
   -2.3866    1.9527   -4.5324 C   0  0  0  0  0  0  0  0  0  0  0  0
   -3.0589    0.7301   -4.4661 C   0  0  0  0  0  0  0  0  0  0  0  0
   -2.5109   -0.4214   -5.1215 C   0  0  0  0  0  0  0  0  0  0  0  0
   -0.9870   -1.2272   -6.3880 H   0  0  0  0  0  0  0  0  0  0  0  0
   -0.2682    1.2342   -6.5120 H   0  0  0  0  0  0  0  0  0  0  0  0
   -2.8548    2.8640   -4.1566 H   0  0  0  0  0  0  0  0  0  0  0  0
   -3.9795    0.6126   -3.8959 H   0  0  0  0  0  0  0  0  0  0  0  0
   -3.3777   -1.6215   -5.2435 N   0  0  0  0  0  0  0  0  0  0  0  0
   -4.3873   -1.6522   -4.5471 O   0  0  0  0  0  0  0  0  0  0  0  0
   -3.0185   -2.5089   -6.0067 O   0  0  0  0  0  0  0  0  0  0  0  0
   -0.6180    4.2668   -6.3071 N   0  0  0  0  0  0  0  0  0  0  0  0
   -0.1407    5.2485   -6.1386 N   0  0  0  0  0  0  0  0  0  0  0  0
    2.2307    0.7123   -5.8752 S   0  0  0  0  0  0  0  0  0  0  0  0
    2.6629   -1.0619   -6.4045 C   0  0  0  0  0  0  0  0  0  0  0  0
    1.8443    1.4401   -7.1040 O   0  0  0  0  0  0  0  0  0  0  0  0
    3.2973    1.1611   -4.9743 O   0  0  0  0  0  0  0  0  0  0  0  0
    0.8917    0.3863   -4.9735 O   0  0  0  0  0  0  0  0  0  0  0  0
    1.6420   -1.5732   -7.1089 F   0  0  0  0  0  0  0  0  0  0  0  0
    3.7551   -1.0210   -7.1688 F   0  0  0  0  0  0  0  0  0  0  0  0
    2.8875   -1.8168   -5.3303 F   0  0  0  0  0  0  0  0  0  0  0  0
  1  2  1  0  0  0  0
  1  6  2  0  0  0  0
  2  8  1  6  0  0  0
  2 20  1  0  0  0  0
  2  3  1  0  0  0  0
  3  4  1  0  0  0  0
  4  5  1  0  0  0  0
  4  9  1  0  0  0  0
  5 10  1  0  0  0  0
  6  5  1  0  0  0  0
  7  1  1  0  0  0  0
 11  6  1  0  0  0  0
 11 12  2  0  0  0  0
 13 11  2  0  0  0  0
 14 15  3  0  0  0  0
 16 19  2  0  0  0  0
 16 20  1  0  0  0  0
 17 16  1  0  0  0  0
 17 23  1  0  0  0  0
 18 16  2  0  0  0  0
 21 17  1  0  0  0  0
 22 17  1  0  0  0  0
M  RAD  3   3   3   4   2   5   2
M  END
