Coordinates from ORCA-job p-NO2-Ph-N2-OTf-B3LYPG-aug-cc-pVDZ-scan-d29-49-n200
 OpenBabel01151817083D

 23 22  0  0  1  0  0  0  0  0999 V2000
   -1.2943   -0.4125   -5.6733 C   0  0  0  0  0  0  0  0  0  0  0  0
   -0.4442    0.7593   -5.3010 C   0  0  1  0  0  0  0  0  0  0  0  0
   -0.9974    1.7076   -4.3626 C   0  0  0  0  0  0  0  0  0  0  0  0
   -2.3724    1.8000   -4.1823 C   0  0  0  0  0  0  0  0  0  0  0  0
   -3.0691    0.5958   -4.3075 C   0  0  0  0  0  0  0  0  0  0  0  0
   -2.5293   -0.4592   -5.1135 C   0  0  0  0  0  0  0  0  0  0  0  0
   -0.9969   -1.1039   -6.4587 H   0  0  0  0  0  0  0  0  0  0  0  0
   -0.2746    1.3548   -6.2323 H   0  0  0  0  0  0  0  0  0  0  0  0
   -2.8329    2.6525   -3.6801 H   0  0  0  0  0  0  0  0  0  0  0  0
   -4.0046    0.4164   -3.7790 H   0  0  0  0  0  0  0  0  0  0  0  0
   -3.4094   -1.6178   -5.4137 N   0  0  0  0  0  0  0  0  0  0  0  0
   -4.4283   -1.7316   -4.7402 O   0  0  0  0  0  0  0  0  0  0  0  0
   -3.0544   -2.3896   -6.2953 O   0  0  0  0  0  0  0  0  0  0  0  0
   -0.4900    4.5647   -7.0207 N   0  0  0  0  0  0  0  0  0  0  0  0
    0.0302    5.5373   -7.0694 N   0  0  0  0  0  0  0  0  0  0  0  0
    2.2203    0.6867   -5.7374 S   0  0  0  0  0  0  0  0  0  0  0  0
    2.6320   -1.0327   -6.4370 C   0  0  0  0  0  0  0  0  0  0  0  0
    1.8173    1.5279   -6.8861 O   0  0  0  0  0  0  0  0  0  0  0  0
    3.3049    1.0443   -4.8175 O   0  0  0  0  0  0  0  0  0  0  0  0
    0.8934    0.2831   -4.8476 O   0  0  0  0  0  0  0  0  0  0  0  0
    1.5998   -1.4687   -7.1743 F   0  0  0  0  0  0  0  0  0  0  0  0
    3.7158   -0.9263   -7.2069 F   0  0  0  0  0  0  0  0  0  0  0  0
    2.8632   -1.8868   -5.4415 F   0  0  0  0  0  0  0  0  0  0  0  0
  1  2  1  0  0  0  0
  1  6  2  0  0  0  0
  2  8  1  6  0  0  0
  2 20  1  0  0  0  0
  2  3  1  0  0  0  0
  3  4  1  0  0  0  0
  4  9  1  0  0  0  0
  5  4  1  0  0  0  0
  5 10  1  0  0  0  0
  6  5  1  0  0  0  0
  7  1  1  0  0  0  0
 11  6  1  0  0  0  0
 11 12  2  0  0  0  0
 13 11  2  0  0  0  0
 15 14  3  0  0  0  0
 16 20  1  0  0  0  0
 16 19  2  0  0  0  0
 17 16  1  0  0  0  0
 17 23  1  0  0  0  0
 18 16  2  0  0  0  0
 21 17  1  0  0  0  0
 22 17  1  0  0  0  0
M  RAD  3   3   3   4   2   5   2
M  END
