Coordinates from ORCA-job p-NO2-Ph-N2-OTf-B3LYPG-aug-cc-pVDZ-scan-d29-49-n200
 OpenBabel01151817083D

 23 22  0  0  1  0  0  0  0  0999 V2000
   -1.2821   -0.4375   -5.7021 C   0  0  0  0  0  0  0  0  0  0  0  0
   -0.4439    0.7844   -5.5047 C   0  0  1  0  0  0  0  0  0  0  0  0
   -1.0148    1.8486   -4.7110 C   0  0  0  0  0  0  0  0  0  0  0  0
   -2.3860    1.9499   -4.5266 C   0  0  0  0  0  0  0  0  0  0  0  0
   -3.0560    0.7255   -4.4608 C   0  0  0  0  0  0  0  0  0  0  0  0
   -2.5081   -0.4231   -5.1206 C   0  0  0  0  0  0  0  0  0  0  0  0
   -0.9870   -1.2231   -6.3941 H   0  0  0  0  0  0  0  0  0  0  0  0
   -0.2652    1.2373   -6.5082 H   0  0  0  0  0  0  0  0  0  0  0  0
   -2.8551    2.8600   -4.1490 H   0  0  0  0  0  0  0  0  0  0  0  0
   -3.9741    0.6048   -3.8872 H   0  0  0  0  0  0  0  0  0  0  0  0
   -3.3742   -1.6235   -5.2446 N   0  0  0  0  0  0  0  0  0  0  0  0
   -4.3846   -1.6553   -4.5496 O   0  0  0  0  0  0  0  0  0  0  0  0
   -3.0230   -2.5022   -6.0217 O   0  0  0  0  0  0  0  0  0  0  0  0
   -0.6254    4.2879   -6.3241 N   0  0  0  0  0  0  0  0  0  0  0  0
   -0.1495    5.2701   -6.1552 N   0  0  0  0  0  0  0  0  0  0  0  0
    2.2322    0.7088   -5.8725 S   0  0  0  0  0  0  0  0  0  0  0  0
    2.6605   -1.0663   -6.4021 C   0  0  0  0  0  0  0  0  0  0  0  0
    1.8473    1.4375   -7.1011 O   0  0  0  0  0  0  0  0  0  0  0  0
    3.3003    1.1548   -4.9718 O   0  0  0  0  0  0  0  0  0  0  0  0
    0.8930    0.3872   -4.9698 O   0  0  0  0  0  0  0  0  0  0  0  0
    1.6387   -1.5752   -7.1071 F   0  0  0  0  0  0  0  0  0  0  0  0
    3.7530   -1.0276   -7.1660 F   0  0  0  0  0  0  0  0  0  0  0  0
    2.8829   -1.8220   -5.3281 F   0  0  0  0  0  0  0  0  0  0  0  0
  1  2  1  0  0  0  0
  1  6  2  0  0  0  0
  2  8  1  6  0  0  0
  2 20  1  0  0  0  0
  2  3  1  0  0  0  0
  3  4  1  0  0  0  0
  4  5  1  0  0  0  0
  4  9  1  0  0  0  0
  5 10  1  0  0  0  0
  6  5  1  0  0  0  0
  7  1  1  0  0  0  0
 11  6  1  0  0  0  0
 11 12  2  0  0  0  0
 13 11  2  0  0  0  0
 14 15  3  0  0  0  0
 16 19  2  0  0  0  0
 16 20  1  0  0  0  0
 17 16  1  0  0  0  0
 17 23  1  0  0  0  0
 18 16  2  0  0  0  0
 21 17  1  0  0  0  0
 22 17  1  0  0  0  0
M  RAD  3   3   3   4   2   5   2
M  END
