Coordinates from ORCA-job p-NO2-Ph-N2-OTf-B3LYPG-aug-cc-pVDZ-scan-d29-49-n200
 OpenBabel01151817083D

 23 22  0  0  1  0  0  0  0  0999 V2000
   -1.2825   -0.2171   -5.6652 C   0  0  0  0  0  0  0  0  0  0  0  0
   -0.3836    0.7921   -5.0266 C   0  0  1  0  0  0  0  0  0  0  0  0
   -0.9046    1.5328   -3.9000 C   0  0  0  0  0  0  0  0  0  0  0  0
   -2.2790    1.6554   -3.7217 C   0  0  0  0  0  0  0  0  0  0  0  0
   -3.0364    0.5558   -4.1308 C   0  0  0  0  0  0  0  0  0  0  0  0
   -2.5328   -0.3187   -5.1485 C   0  0  0  0  0  0  0  0  0  0  0  0
   -0.9993   -0.7314   -6.5810 H   0  0  0  0  0  0  0  0  0  0  0  0
   -0.1703    1.5696   -5.8022 H   0  0  0  0  0  0  0  0  0  0  0  0
   -2.7074    2.3933   -3.0412 H   0  0  0  0  0  0  0  0  0  0  0  0
   -3.9958    0.3177   -3.6729 H   0  0  0  0  0  0  0  0  0  0  0  0
   -3.4644   -1.3269   -5.7163 N   0  0  0  0  0  0  0  0  0  0  0  0
   -4.5108   -1.5230   -5.1070 O   0  0  0  0  0  0  0  0  0  0  0  0
   -3.1296   -1.8947   -6.7481 O   0  0  0  0  0  0  0  0  0  0  0  0
   -0.6393    3.6162   -7.7178 N   0  0  0  0  0  0  0  0  0  0  0  0
   -0.3495    4.4177   -8.4192 N   0  0  0  0  0  0  0  0  0  0  0  0
    2.2884    0.6855   -5.4223 S   0  0  0  0  0  0  0  0  0  0  0  0
    2.6243   -0.8212   -6.5320 C   0  0  0  0  0  0  0  0  0  0  0  0
    1.9687    1.8131   -6.3246 O   0  0  0  0  0  0  0  0  0  0  0  0
    3.3630    0.7286   -4.4255 O   0  0  0  0  0  0  0  0  0  0  0  0
    0.9169    0.1508   -4.6840 O   0  0  0  0  0  0  0  0  0  0  0  0
    1.5894   -0.9931   -7.3686 F   0  0  0  0  0  0  0  0  0  0  0  0
    3.7323   -0.5883   -7.2370 F   0  0  0  0  0  0  0  0  0  0  0  0
    2.7814   -1.9131   -5.7855 F   0  0  0  0  0  0  0  0  0  0  0  0
  1  6  2  0  0  0  0
  1  2  1  0  0  0  0
  2  8  1  6  0  0  0
  2 20  1  0  0  0  0
  2  3  1  0  0  0  0
  3  4  1  0  0  0  0
  4  9  1  0  0  0  0
  5  4  1  0  0  0  0
  5 10  1  0  0  0  0
  6  5  1  0  0  0  0
  7  1  1  0  0  0  0
 11  6  1  0  0  0  0
 11 12  2  0  0  0  0
 13 11  2  0  0  0  0
 15 14  3  0  0  0  0
 16 20  1  0  0  0  0
 16 19  2  0  0  0  0
 17 23  1  0  0  0  0
 17 16  1  0  0  0  0
 18 16  2  0  0  0  0
 21 17  1  0  0  0  0
 22 17  1  0  0  0  0
M  RAD  3   3   3   4   2   5   2
M  END
