Coordinates from ORCA-job p-NO2-Ph-N2-OTf-B3LYPG-aug-cc-pVDZ-scan-d09-29-n200
 OpenBabel01151817083D

 23 23  0  0  1  0  0  0  0  0999 V2000
   -1.4097   -0.2647   -5.9830 C   0  0  0  0  0  0  0  0  0  0  0  0
   -0.5254    0.9308   -6.0433 C   0  0  1  0  0  0  0  0  0  0  0  0
   -1.1765    2.1578   -5.4574 C   0  0  0  0  0  0  0  0  0  0  0  0
   -2.2710    2.0244   -4.5094 C   0  0  0  0  0  0  0  0  0  0  0  0
   -2.8939    0.8323   -4.3393 C   0  0  0  0  0  0  0  0  0  0  0  0
   -2.4686   -0.2865   -5.1459 C   0  0  0  0  0  0  0  0  0  0  0  0
   -1.1598   -1.1332   -6.5860 H   0  0  0  0  0  0  0  0  0  0  0  0
   -0.1328    1.1222   -7.0456 H   0  0  0  0  0  0  0  0  0  0  0  0
   -2.5829    2.9107   -3.9583 H   0  0  0  0  0  0  0  0  0  0  0  0
   -3.7182    0.7075   -3.6447 H   0  0  0  0  0  0  0  0  0  0  0  0
   -3.2718   -1.5371   -5.0683 N   0  0  0  0  0  0  0  0  0  0  0  0
   -4.1968   -1.5538   -4.2623 O   0  0  0  0  0  0  0  0  0  0  0  0
   -2.9680   -2.4655   -5.8084 O   0  0  0  0  0  0  0  0  0  0  0  0
   -0.7389    3.2374   -5.7516 N   0  0  0  0  0  0  0  0  0  0  0  0
   -0.3161    4.2615   -6.0354 N   0  0  0  0  0  0  0  0  0  0  0  0
    2.2056    0.7979   -5.7949 S   0  0  0  0  0  0  0  0  0  0  0  0
    2.5770   -0.9783   -6.3636 C   0  0  0  0  0  0  0  0  0  0  0  0
    2.1469    1.6304   -7.0149 O   0  0  0  0  0  0  0  0  0  0  0  0
    3.0995    1.0872   -4.6672 O   0  0  0  0  0  0  0  0  0  0  0  0
    0.6947    0.5795   -5.1849 O   0  0  0  0  0  0  0  0  0  0  0  0
    1.6507   -1.3549   -7.2590 F   0  0  0  0  0  0  0  0  0  0  0  0
    3.7822   -0.9984   -6.9337 F   0  0  0  0  0  0  0  0  0  0  0  0
    2.5527   -1.8061   -5.3209 F   0  0  0  0  0  0  0  0  0  0  0  0
  1  6  2  0  0  0  0
  2  8  1  6  0  0  0
  2  1  1  0  0  0  0
  2  3  1  0  0  0  0
  2 20  1  0  0  0  0
  3  4  2  0  0  0  0
  4  5  1  0  0  0  0
  4  9  1  0  0  0  0
  5 10  1  0  0  0  0
  6 11  1  0  0  0  0
  6  5  1  0  0  0  0
  7  1  1  0  0  0  0
 11 12  2  0  0  0  0
 13 11  2  0  0  0  0
 14  3  1  0  0  0  0
 15 14  1  0  0  0  0
 16 20  1  0  0  0  0
 16 19  2  0  0  0  0
 17 16  1  0  0  0  0
 17 23  1  0  0  0  0
 18 16  2  0  0  0  0
 21 17  1  0  0  0  0
 22 17  1  0  0  0  0
M  RAD  3   5   2  14   2  15   3
M  END
