Coordinates from ORCA-job p-NO2-Ph-N2-OTf-B3LYPG-aug-cc-pVDZ-scan-d29-49-n200
 OpenBabel01151817083D

 23 22  0  0  1  0  0  0  0  0999 V2000
   -1.2916   -0.4277   -5.6733 C   0  0  0  0  0  0  0  0  0  0  0  0
   -0.4406    0.7515   -5.3288 C   0  0  1  0  0  0  0  0  0  0  0  0
   -0.9943    1.7241   -4.4170 C   0  0  0  0  0  0  0  0  0  0  0  0
   -2.3686    1.8267   -4.2439 C   0  0  0  0  0  0  0  0  0  0  0  0
   -3.0663    0.6198   -4.3371 C   0  0  0  0  0  0  0  0  0  0  0  0
   -2.5274   -0.4573   -5.1138 C   0  0  0  0  0  0  0  0  0  0  0  0
   -0.9944   -1.1394   -6.4405 H   0  0  0  0  0  0  0  0  0  0  0  0
   -0.2703    1.3261   -6.2732 H   0  0  0  0  0  0  0  0  0  0  0  0
   -2.8286    2.6948   -3.7688 H   0  0  0  0  0  0  0  0  0  0  0  0
   -4.0025    0.4557   -3.8048 H   0  0  0  0  0  0  0  0  0  0  0  0
   -3.4096   -1.6216   -5.3843 N   0  0  0  0  0  0  0  0  0  0  0  0
   -4.4280   -1.7172   -4.7071 O   0  0  0  0  0  0  0  0  0  0  0  0
   -3.0549   -2.4172   -6.2446 O   0  0  0  0  0  0  0  0  0  0  0  0
   -0.5299    4.5683   -6.9162 N   0  0  0  0  0  0  0  0  0  0  0  0
   -0.0210    5.5481   -6.9228 N   0  0  0  0  0  0  0  0  0  0  0  0
    2.2254    0.6821   -5.7536 S   0  0  0  0  0  0  0  0  0  0  0  0
    2.6422   -1.0434   -6.4349 C   0  0  0  0  0  0  0  0  0  0  0  0
    1.8243    1.5112   -6.9119 O   0  0  0  0  0  0  0  0  0  0  0  0
    3.3063    1.0508   -4.8338 O   0  0  0  0  0  0  0  0  0  0  0  0
    0.8962    0.2844   -4.8639 O   0  0  0  0  0  0  0  0  0  0  0  0
    1.6121   -1.4891   -7.1694 F   0  0  0  0  0  0  0  0  0  0  0  0
    3.7271   -0.9428   -7.2039 F   0  0  0  0  0  0  0  0  0  0  0  0
    2.8733   -1.8869   -5.4303 F   0  0  0  0  0  0  0  0  0  0  0  0
  1  2  1  0  0  0  0
  1  6  2  0  0  0  0
  2  8  1  6  0  0  0
  2 20  1  0  0  0  0
  2  3  1  0  0  0  0
  3  4  1  0  0  0  0
  4  9  1  0  0  0  0
  5  4  1  0  0  0  0
  5 10  1  0  0  0  0
  6  5  1  0  0  0  0
  7  1  1  0  0  0  0
 11  6  1  0  0  0  0
 11 12  2  0  0  0  0
 13 11  2  0  0  0  0
 15 14  3  0  0  0  0
 16 20  1  0  0  0  0
 16 19  2  0  0  0  0
 17 16  1  0  0  0  0
 17 23  1  0  0  0  0
 18 16  2  0  0  0  0
 21 17  1  0  0  0  0
 22 17  1  0  0  0  0
M  RAD  3   3   3   4   2   5   2
M  END
