Coordinates from ORCA-job p-NO2-Ph-N2-OTf-B3LYPG-aug-cc-pVDZ-scan-d09-29-n200
 OpenBabel01151817083D

 23 23  0  0  1  0  0  0  0  0999 V2000
   -1.4008   -0.2490   -5.9929 C   0  0  0  0  0  0  0  0  0  0  0  0
   -0.5210    0.9514   -6.0446 C   0  0  1  0  0  0  0  0  0  0  0  0
   -1.1739    2.1827   -5.4485 C   0  0  0  0  0  0  0  0  0  0  0  0
   -2.2682    2.0231   -4.4941 C   0  0  0  0  0  0  0  0  0  0  0  0
   -2.8850    0.8279   -4.3371 C   0  0  0  0  0  0  0  0  0  0  0  0
   -2.4585   -0.2824   -5.1566 C   0  0  0  0  0  0  0  0  0  0  0  0
   -1.1473   -1.1111   -6.6037 H   0  0  0  0  0  0  0  0  0  0  0  0
   -0.1386    1.1550   -7.0490 H   0  0  0  0  0  0  0  0  0  0  0  0
   -2.5799    2.9014   -3.9299 H   0  0  0  0  0  0  0  0  0  0  0  0
   -3.7062    0.6920   -3.6407 H   0  0  0  0  0  0  0  0  0  0  0  0
   -3.2576   -1.5358   -5.0897 N   0  0  0  0  0  0  0  0  0  0  0  0
   -4.1806   -1.5629   -4.2817 O   0  0  0  0  0  0  0  0  0  0  0  0
   -2.9481   -2.4582   -5.8348 O   0  0  0  0  0  0  0  0  0  0  0  0
   -0.7623    3.2213   -5.7268 N   0  0  0  0  0  0  0  0  0  0  0  0
   -0.3451    4.2534   -6.0081 N   0  0  0  0  0  0  0  0  0  0  0  0
    2.2074    0.7996   -5.8262 S   0  0  0  0  0  0  0  0  0  0  0  0
    2.5629   -0.9975   -6.3374 C   0  0  0  0  0  0  0  0  0  0  0  0
    2.1435    1.5919   -7.0717 O   0  0  0  0  0  0  0  0  0  0  0  0
    3.1082    1.1196   -4.7127 O   0  0  0  0  0  0  0  0  0  0  0  0
    0.6971    0.6087   -5.1969 O   0  0  0  0  0  0  0  0  0  0  0  0
    1.6319   -1.3952   -7.2181 F   0  0  0  0  0  0  0  0  0  0  0  0
    3.7666   -1.0448   -6.9085 F   0  0  0  0  0  0  0  0  0  0  0  0
    2.5345   -1.7901   -5.2679 F   0  0  0  0  0  0  0  0  0  0  0  0
  1  6  2  0  0  0  0
  2  8  1  6  0  0  0
  2  1  1  0  0  0  0
  2  3  1  0  0  0  0
  2 20  1  0  0  0  0
  3  4  2  0  0  0  0
  4  5  1  0  0  0  0
  4  9  1  0  0  0  0
  5 10  1  0  0  0  0
  6 11  1  0  0  0  0
  6  5  1  0  0  0  0
  7  1  1  0  0  0  0
 11 12  2  0  0  0  0
 13 11  2  0  0  0  0
 14  3  1  0  0  0  0
 15 14  1  0  0  0  0
 16 20  1  0  0  0  0
 16 19  2  0  0  0  0
 17 16  1  0  0  0  0
 17 23  1  0  0  0  0
 18 16  2  0  0  0  0
 21 17  1  0  0  0  0
 22 17  1  0  0  0  0
M  RAD  3   5   2  14   2  15   3
M  END
