Coordinates from ORCA-job p-NO2-Ph-N2-OTf-B3LYPG-aug-cc-pVDZ-scan-d29-49-n200
 OpenBabel01151817083D

 23 22  0  0  1  0  0  0  0  0999 V2000
   -1.2740   -0.2144   -5.6713 C   0  0  0  0  0  0  0  0  0  0  0  0
   -0.3730    0.7933   -5.0335 C   0  0  1  0  0  0  0  0  0  0  0  0
   -0.8934    1.5435   -3.9136 C   0  0  0  0  0  0  0  0  0  0  0  0
   -2.2686    1.6744   -3.7434 C   0  0  0  0  0  0  0  0  0  0  0  0
   -3.0314    0.5786   -4.1514 C   0  0  0  0  0  0  0  0  0  0  0  0
   -2.5279   -0.3051   -5.1614 C   0  0  0  0  0  0  0  0  0  0  0  0
   -0.9883   -0.7368   -6.5817 H   0  0  0  0  0  0  0  0  0  0  0  0
   -0.1557    1.5687   -5.8102 H   0  0  0  0  0  0  0  0  0  0  0  0
   -2.6962    2.4189   -3.0696 H   0  0  0  0  0  0  0  0  0  0  0  0
   -3.9959    0.3505   -3.6993 H   0  0  0  0  0  0  0  0  0  0  0  0
   -3.4625   -1.3106   -5.7287 N   0  0  0  0  0  0  0  0  0  0  0  0
   -4.5125   -1.4984   -5.1228 O   0  0  0  0  0  0  0  0  0  0  0  0
   -3.1234   -1.8898   -6.7527 O   0  0  0  0  0  0  0  0  0  0  0  0
   -0.7096    3.5546   -7.6380 N   0  0  0  0  0  0  0  0  0  0  0  0
   -0.4529    4.3694   -8.3370 N   0  0  0  0  0  0  0  0  0  0  0  0
    2.2989    0.6790   -5.4212 S   0  0  0  0  0  0  0  0  0  0  0  0
    2.6342   -0.8294   -6.5288 C   0  0  0  0  0  0  0  0  0  0  0  0
    1.9840    1.8067   -6.3251 O   0  0  0  0  0  0  0  0  0  0  0  0
    3.3710    0.7204   -4.4216 O   0  0  0  0  0  0  0  0  0  0  0  0
    0.9241    0.1481   -4.6863 O   0  0  0  0  0  0  0  0  0  0  0  0
    1.6009   -0.9996   -7.3679 F   0  0  0  0  0  0  0  0  0  0  0  0
    3.7445   -0.5996   -7.2312 F   0  0  0  0  0  0  0  0  0  0  0  0
    2.7869   -1.9210   -5.7810 F   0  0  0  0  0  0  0  0  0  0  0  0
  1  6  2  0  0  0  0
  1  2  1  0  0  0  0
  2  8  1  6  0  0  0
  2 20  1  0  0  0  0
  2  3  1  0  0  0  0
  3  4  1  0  0  0  0
  4  9  1  0  0  0  0
  5  4  1  0  0  0  0
  5 10  1  0  0  0  0
  6  5  1  0  0  0  0
  7  1  1  0  0  0  0
 11  6  1  0  0  0  0
 11 12  2  0  0  0  0
 13 11  2  0  0  0  0
 15 14  3  0  0  0  0
 16 20  1  0  0  0  0
 16 19  2  0  0  0  0
 17 23  1  0  0  0  0
 17 16  1  0  0  0  0
 18 16  2  0  0  0  0
 21 17  1  0  0  0  0
 22 17  1  0  0  0  0
M  RAD  3   3   3   4   2   5   2
M  END
