Coordinates from ORCA-job p-NO2-Ph-N2-OTf-B3LYPG-aug-cc-pVDZ-scan-d29-49-n200
 OpenBabel01151817083D

 23 22  0  0  1  0  0  0  0  0999 V2000
   -1.2815   -0.4386   -5.7013 C   0  0  0  0  0  0  0  0  0  0  0  0
   -0.4427    0.7809   -5.4936 C   0  0  1  0  0  0  0  0  0  0  0  0
   -1.0134    1.8393   -4.6926 C   0  0  0  0  0  0  0  0  0  0  0  0
   -2.3846    1.9416   -4.5102 C   0  0  0  0  0  0  0  0  0  0  0  0
   -3.0555    0.7169   -4.4531 C   0  0  0  0  0  0  0  0  0  0  0  0
   -2.5081   -0.4272   -5.1207 C   0  0  0  0  0  0  0  0  0  0  0  0
   -0.9870   -1.2193   -6.3992 H   0  0  0  0  0  0  0  0  0  0  0  0
   -0.2646    1.2427   -6.4936 H   0  0  0  0  0  0  0  0  0  0  0  0
   -2.8534    2.8496   -4.1275 H   0  0  0  0  0  0  0  0  0  0  0  0
   -3.9738    0.5928   -3.8806 H   0  0  0  0  0  0  0  0  0  0  0  0
   -3.3751   -1.6261   -5.2536 N   0  0  0  0  0  0  0  0  0  0  0  0
   -4.3841   -1.6635   -4.5568 O   0  0  0  0  0  0  0  0  0  0  0  0
   -3.0251   -2.4986   -6.0381 O   0  0  0  0  0  0  0  0  0  0  0  0
   -0.6250    4.3362   -6.3657 N   0  0  0  0  0  0  0  0  0  0  0  0
   -0.1488    5.3182   -6.1977 N   0  0  0  0  0  0  0  0  0  0  0  0
    2.2325    0.7032   -5.8669 S   0  0  0  0  0  0  0  0  0  0  0  0
    2.6587   -1.0709   -6.4015 C   0  0  0  0  0  0  0  0  0  0  0  0
    1.8462    1.4351   -7.0933 O   0  0  0  0  0  0  0  0  0  0  0  0
    3.3021    1.1464   -4.9667 O   0  0  0  0  0  0  0  0  0  0  0  0
    0.8943    0.3802   -4.9627 O   0  0  0  0  0  0  0  0  0  0  0  0
    1.6359   -1.5772   -7.1068 F   0  0  0  0  0  0  0  0  0  0  0  0
    3.7506   -1.0312   -7.1662 F   0  0  0  0  0  0  0  0  0  0  0  0
    2.8815   -1.8295   -5.3295 F   0  0  0  0  0  0  0  0  0  0  0  0
  1  2  1  0  0  0  0
  1  6  2  0  0  0  0
  2  8  1  6  0  0  0
  2 20  1  0  0  0  0
  2  3  1  0  0  0  0
  3  4  1  0  0  0  0
  4  5  1  0  0  0  0
  4  9  1  0  0  0  0
  5 10  1  0  0  0  0
  6  5  1  0  0  0  0
  7  1  1  0  0  0  0
 11  6  1  0  0  0  0
 11 12  2  0  0  0  0
 13 11  2  0  0  0  0
 14 15  3  0  0  0  0
 16 19  2  0  0  0  0
 16 20  1  0  0  0  0
 17 16  1  0  0  0  0
 17 23  1  0  0  0  0
 18 16  2  0  0  0  0
 21 17  1  0  0  0  0
 22 17  1  0  0  0  0
M  RAD  3   3   3   4   2   5   2
M  END
