Coordinates from ORCA-job p-NO2-Ph-N2-OTf-B3LYPG-aug-cc-pVDZ-scan-d09-29-n200
 OpenBabel01151817083D

 23 23  0  0  1  0  0  0  0  0999 V2000
   -1.3925   -0.2333   -6.0037 C   0  0  0  0  0  0  0  0  0  0  0  0
   -0.5165    0.9712   -6.0466 C   0  0  1  0  0  0  0  0  0  0  0  0
   -1.1693    2.2112   -5.4385 C   0  0  0  0  0  0  0  0  0  0  0  0
   -2.2637    2.0205   -4.4758 C   0  0  0  0  0  0  0  0  0  0  0  0
   -2.8749    0.8228   -4.3345 C   0  0  0  0  0  0  0  0  0  0  0  0
   -2.4489   -0.2783   -5.1684 C   0  0  0  0  0  0  0  0  0  0  0  0
   -1.1362   -1.0886   -6.6231 H   0  0  0  0  0  0  0  0  0  0  0  0
   -0.1475    1.1892   -7.0536 H   0  0  0  0  0  0  0  0  0  0  0  0
   -2.5728    2.8898   -3.8962 H   0  0  0  0  0  0  0  0  0  0  0  0
   -3.6924    0.6752   -3.6357 H   0  0  0  0  0  0  0  0  0  0  0  0
   -3.2451   -1.5338   -5.1133 N   0  0  0  0  0  0  0  0  0  0  0  0
   -4.1687   -1.5696   -4.3063 O   0  0  0  0  0  0  0  0  0  0  0  0
   -2.9328   -2.4489   -5.8661 O   0  0  0  0  0  0  0  0  0  0  0  0
   -0.7854    3.1988   -5.6979 N   0  0  0  0  0  0  0  0  0  0  0  0
   -0.3721    4.2405   -5.9759 N   0  0  0  0  0  0  0  0  0  0  0  0
    2.2085    0.8021   -5.8633 S   0  0  0  0  0  0  0  0  0  0  0  0
    2.5506   -1.0158   -6.3068 C   0  0  0  0  0  0  0  0  0  0  0  0
    2.1349    1.5466   -7.1366 O   0  0  0  0  0  0  0  0  0  0  0  0
    3.1166    1.1599   -4.7680 O   0  0  0  0  0  0  0  0  0  0  0  0
    0.6993    0.6390   -5.2123 O   0  0  0  0  0  0  0  0  0  0  0  0
    1.6153   -1.4400   -7.1697 F   0  0  0  0  0  0  0  0  0  0  0  0
    3.7527   -1.0910   -6.8779 F   0  0  0  0  0  0  0  0  0  0  0  0
    2.5199   -1.7664   -5.2078 F   0  0  0  0  0  0  0  0  0  0  0  0
  1  6  2  0  0  0  0
  2  8  1  6  0  0  0
  2  1  1  0  0  0  0
  2  3  1  0  0  0  0
  2 20  1  0  0  0  0
  3  4  2  0  0  0  0
  4  5  1  0  0  0  0
  4  9  1  0  0  0  0
  5 10  1  0  0  0  0
  6 11  1  0  0  0  0
  6  5  1  0  0  0  0
  7  1  1  0  0  0  0
 11 12  2  0  0  0  0
 13 11  2  0  0  0  0
 14  3  1  0  0  0  0
 15 14  1  0  0  0  0
 16 20  1  0  0  0  0
 16 19  2  0  0  0  0
 17 16  1  0  0  0  0
 17 23  1  0  0  0  0
 18 16  2  0  0  0  0
 21 17  1  0  0  0  0
 22 17  1  0  0  0  0
M  RAD  3   5   2  14   2  15   3
M  END
