Coordinates from ORCA-job p-NO2-Ph-N2-OTf-B3LYPG-aug-cc-pVDZ-scan-d29-49-n200
 OpenBabel01151817083D

 23 22  0  0  1  0  0  0  0  0999 V2000
   -1.2815   -0.4402   -5.6991 C   0  0  0  0  0  0  0  0  0  0  0  0
   -0.4422    0.7779   -5.4853 C   0  0  1  0  0  0  0  0  0  0  0  0
   -1.0124    1.8326   -4.6796 C   0  0  0  0  0  0  0  0  0  0  0  0
   -2.3836    1.9360   -4.4990 C   0  0  0  0  0  0  0  0  0  0  0  0
   -3.0561    0.7117   -4.4486 C   0  0  0  0  0  0  0  0  0  0  0  0
   -2.5088   -0.4302   -5.1201 C   0  0  0  0  0  0  0  0  0  0  0  0
   -0.9865   -1.2183   -6.3996 H   0  0  0  0  0  0  0  0  0  0  0  0
   -0.2653    1.2456   -6.4831 H   0  0  0  0  0  0  0  0  0  0  0  0
   -2.8518    2.8430   -4.1133 H   0  0  0  0  0  0  0  0  0  0  0  0
   -3.9756    0.5860   -3.8783 H   0  0  0  0  0  0  0  0  0  0  0  0
   -3.3765   -1.6279   -5.2588 N   0  0  0  0  0  0  0  0  0  0  0  0
   -4.3869   -1.6669   -4.5641 O   0  0  0  0  0  0  0  0  0  0  0  0
   -3.0270   -2.4967   -6.0475 O   0  0  0  0  0  0  0  0  0  0  0  0
   -0.6220    4.3634   -6.3927 N   0  0  0  0  0  0  0  0  0  0  0  0
   -0.1450    5.3454   -6.2266 N   0  0  0  0  0  0  0  0  0  0  0  0
    2.2323    0.7005   -5.8633 S   0  0  0  0  0  0  0  0  0  0  0  0
    2.6585   -1.0722   -6.4022 C   0  0  0  0  0  0  0  0  0  0  0  0
    1.8440    1.4350   -7.0876 O   0  0  0  0  0  0  0  0  0  0  0  0
    3.3028    1.1424   -4.9635 O   0  0  0  0  0  0  0  0  0  0  0  0
    0.8952    0.3747   -4.9581 O   0  0  0  0  0  0  0  0  0  0  0  0
    1.6352   -1.5773   -7.1075 F   0  0  0  0  0  0  0  0  0  0  0  0
    3.7496   -1.0304   -7.1680 F   0  0  0  0  0  0  0  0  0  0  0  0
    2.8827   -1.8330   -5.3321 F   0  0  0  0  0  0  0  0  0  0  0  0
  1  2  1  0  0  0  0
  1  6  2  0  0  0  0
  2  8  1  6  0  0  0
  2 20  1  0  0  0  0
  2  3  1  0  0  0  0
  3  4  1  0  0  0  0
  4  5  1  0  0  0  0
  4  9  1  0  0  0  0
  5 10  1  0  0  0  0
  6  5  1  0  0  0  0
  7  1  1  0  0  0  0
 11  6  1  0  0  0  0
 11 12  2  0  0  0  0
 13 11  2  0  0  0  0
 14 15  3  0  0  0  0
 16 19  2  0  0  0  0
 16 20  1  0  0  0  0
 17 16  1  0  0  0  0
 17 23  1  0  0  0  0
 18 16  2  0  0  0  0
 21 17  1  0  0  0  0
 22 17  1  0  0  0  0
M  RAD  3   3   3   4   2   5   2
M  END
