Coordinates from ORCA-job p-NO2-Ph-N2-OTf-B3LYPG-aug-cc-pVDZ-scan-d29-49-n200
 OpenBabel01151817083D

 23 22  0  0  1  0  0  0  0  0999 V2000
   -1.2970   -0.4047   -5.6718 C   0  0  0  0  0  0  0  0  0  0  0  0
   -0.4487    0.7633   -5.2842 C   0  0  1  0  0  0  0  0  0  0  0  0
   -1.0019    1.6976   -4.3314 C   0  0  0  0  0  0  0  0  0  0  0  0
   -2.3772    1.7845   -4.1490 C   0  0  0  0  0  0  0  0  0  0  0  0
   -3.0726    0.5816   -4.2913 C   0  0  0  0  0  0  0  0  0  0  0  0
   -2.5317   -0.4613   -5.1122 C   0  0  0  0  0  0  0  0  0  0  0  0
   -0.9988   -1.0851   -6.4665 H   0  0  0  0  0  0  0  0  0  0  0  0
   -0.2815    1.3717   -6.2075 H   0  0  0  0  0  0  0  0  0  0  0  0
   -2.8385    2.6288   -3.6339 H   0  0  0  0  0  0  0  0  0  0  0  0
   -4.0081    0.3939   -3.7657 H   0  0  0  0  0  0  0  0  0  0  0  0
   -3.4100   -1.6171   -5.4280 N   0  0  0  0  0  0  0  0  0  0  0  0
   -4.4295   -1.7407   -4.7570 O   0  0  0  0  0  0  0  0  0  0  0  0
   -3.0539   -2.3763   -6.3200 O   0  0  0  0  0  0  0  0  0  0  0  0
   -0.4525    4.5494   -7.0754 N   0  0  0  0  0  0  0  0  0  0  0  0
    0.0788    5.5144   -7.1492 N   0  0  0  0  0  0  0  0  0  0  0  0
    2.2146    0.6936   -5.7297 S   0  0  0  0  0  0  0  0  0  0  0  0
    2.6263   -1.0210   -6.4410 C   0  0  0  0  0  0  0  0  0  0  0  0
    1.8079    1.5416   -6.8722 O   0  0  0  0  0  0  0  0  0  0  0  0
    3.3015    1.0465   -4.8107 O   0  0  0  0  0  0  0  0  0  0  0  0
    0.8904    0.2837   -4.8388 O   0  0  0  0  0  0  0  0  0  0  0  0
    1.5934   -1.4531   -7.1797 F   0  0  0  0  0  0  0  0  0  0  0  0
    3.7090   -0.9090   -7.2115 F   0  0  0  0  0  0  0  0  0  0  0  0
    2.8593   -1.8814   -5.4513 F   0  0  0  0  0  0  0  0  0  0  0  0
  1  2  1  0  0  0  0
  1  6  2  0  0  0  0
  2  8  1  6  0  0  0
  2 20  1  0  0  0  0
  2  3  1  0  0  0  0
  3  4  1  0  0  0  0
  4  9  1  0  0  0  0
  5  4  1  0  0  0  0
  5 10  1  0  0  0  0
  6  5  1  0  0  0  0
  7  1  1  0  0  0  0
 11  6  1  0  0  0  0
 11 12  2  0  0  0  0
 13 11  2  0  0  0  0
 15 14  3  0  0  0  0
 16 20  1  0  0  0  0
 16 19  2  0  0  0  0
 17 16  1  0  0  0  0
 17 23  1  0  0  0  0
 18 16  2  0  0  0  0
 21 17  1  0  0  0  0
 22 17  1  0  0  0  0
M  RAD  3   3   3   4   2   5   2
M  END
