Coordinates from ORCA-job p-NO2-Ph-N2-OTf-B3LYPG-aug-cc-pVDZ-scan-d09-29-n200
 OpenBabel01151817083D

 23 22  0  0  0  0  0  0  0  0999 V2000
   -2.2334   -0.8839   -5.6864 C   0  0  0  0  0  0  0  0  0  0  0  0
   -1.3217   -0.1070   -6.4205 C   0  0  0  0  0  0  0  0  0  0  0  0
   -1.3660    1.2054   -6.0569 C   0  0  0  0  0  0  0  0  0  0  0  0
   -2.0841    1.9096   -5.1290 C   0  0  0  0  0  0  0  0  0  0  0  0
   -2.9758    1.0916   -4.4210 C   0  0  0  0  0  0  0  0  0  0  0  0
   -3.0333   -0.2725   -4.7193 C   0  0  0  0  0  0  0  0  0  0  0  0
   -2.3006   -1.9555   -5.8576 H   0  0  0  0  0  0  0  0  0  0  0  0
   -0.6024   -0.5024   -7.1383 H   0  0  0  0  0  0  0  0  0  0  0  0
   -1.9715    2.9721   -4.9371 H   0  0  0  0  0  0  0  0  0  0  0  0
   -3.6117    1.5093   -3.6443 H   0  0  0  0  0  0  0  0  0  0  0  0
   -3.9910   -1.1149   -3.9582 N   0  0  0  0  0  0  0  0  0  0  0  0
   -4.6624   -0.5593   -3.0965 O   0  0  0  0  0  0  0  0  0  0  0  0
   -4.0456   -2.3026   -4.2484 O   0  0  0  0  0  0  0  0  0  0  0  0
   -0.2399    2.2859   -7.0404 N   0  0  0  0  0  0  0  0  0  0  0  0
    0.1772    3.0735   -7.6910 N   0  0  0  0  0  0  0  0  0  0  0  0
    1.9247    0.3034   -5.9334 S   0  0  0  0  0  0  0  0  0  0  0  0
    3.7977    0.5520   -6.0780 C   0  0  0  0  0  0  0  0  0  0  0  0
    1.4395    1.5767   -5.2691 O   0  0  0  0  0  0  0  0  0  0  0  0
    1.7482   -0.9414   -5.1341 O   0  0  0  0  0  0  0  0  0  0  0  0
    1.4601    0.2148   -7.3747 O   0  0  0  0  0  0  0  0  0  0  0  0
    4.0665    1.6642   -6.7879 F   0  0  0  0  0  0  0  0  0  0  0  0
    4.3443    0.6797   -4.8587 F   0  0  0  0  0  0  0  0  0  0  0  0
    4.3601   -0.4978   -6.6970 F   0  0  0  0  0  0  0  0  0  0  0  0
  1  6  2  0  0  0  0
  2  3  2  0  0  0  0
  2  1  1  0  0  0  0
  3  4  1  0  0  0  0
  4  9  1  0  0  0  0
  4  5  2  0  0  0  0
  5 10  1  0  0  0  0
  6  5  1  0  0  0  0
  6 11  1  0  0  0  0
  7  1  1  0  0  0  0
  8  2  1  0  0  0  0
 11 12  2  0  0  0  0
 13 11  2  0  0  0  0
 14  3  1  0  0  0  0
 15 14  1  0  0  0  0
 16 18  2  0  0  0  0
 16 19  1  0  0  0  0
 17 16  1  0  0  0  0
 17 22  1  0  0  0  0
 20 16  2  0  0  0  0
 21 17  1  0  0  0  0
 23 17  1  0  0  0  0
M  RAD  3  14   2  15   3  19   2
M  END
