Coordinates from ORCA-job p-NO2-Ph-N2-OTf-B3LYPG-aug-cc-pVDZ-scan-d09-29-n200
 OpenBabel01151817083D

 23 23  0  0  1  0  0  0  0  0999 V2000
   -1.4833   -0.3482   -5.9471 C   0  0  0  0  0  0  0  0  0  0  0  0
   -0.5621    0.8061   -6.0565 C   0  0  1  0  0  0  0  0  0  0  0  0
   -1.1773    2.0305   -5.5107 C   0  0  1  0  0  0  0  0  0  0  0  0
   -2.2625    2.0275   -4.5786 C   0  0  0  0  0  0  0  0  0  0  0  0
   -2.9311    0.8622   -4.3463 C   0  0  0  0  0  0  0  0  0  0  0  0
   -2.5397   -0.2983   -5.0983 C   0  0  0  0  0  0  0  0  0  0  0  0
   -1.2716   -1.2483   -6.5166 H   0  0  0  0  0  0  0  0  0  0  0  0
   -0.1228    0.9349   -7.0465 H   0  0  0  0  0  0  0  0  0  0  0  0
   -2.5473    2.9540   -4.0828 H   0  0  0  0  0  0  0  0  0  0  0  0
   -3.7619    0.8007   -3.6518 H   0  0  0  0  0  0  0  0  0  0  0  0
   -3.3815   -1.5195   -4.9659 N   0  0  0  0  0  0  0  0  0  0  0  0
   -4.2970   -1.4787   -4.1499 O   0  0  0  0  0  0  0  0  0  0  0  0
   -3.1153   -2.4838   -5.6739 O   0  0  0  0  0  0  0  0  0  0  0  0
   -0.6155    3.2407   -5.8726 N   0  0  0  0  0  0  0  0  0  0  0  0
   -0.1546    4.2272   -6.1701 N   0  0  0  0  0  0  0  0  0  0  0  0
    2.1806    0.7792   -5.6381 S   0  0  0  0  0  0  0  0  0  0  0  0
    2.6858   -0.8448   -6.4858 C   0  0  0  0  0  0  0  0  0  0  0  0
    2.1179    1.8033   -6.7072 O   0  0  0  0  0  0  0  0  0  0  0  0
    3.0358    0.9285   -4.4524 O   0  0  0  0  0  0  0  0  0  0  0  0
    0.6794    0.3892   -5.1489 O   0  0  0  0  0  0  0  0  0  0  0  0
    1.8021   -1.1276   -7.4584 F   0  0  0  0  0  0  0  0  0  0  0  0
    3.8992   -0.6942   -7.0201 F   0  0  0  0  0  0  0  0  0  0  0  0
    2.7016   -1.8395   -5.5992 F   0  0  0  0  0  0  0  0  0  0  0  0
  1  6  2  0  0  0  0
  2  8  1  6  0  0  0
  2  1  1  0  0  0  0
  2  3  1  0  0  0  0
  2 20  1  0  0  0  0
  3 14  1  1  0  0  0
  3  4  1  0  0  0  0
  4  5  2  0  0  0  0
  4  9  1  0  0  0  0
  5 10  1  0  0  0  0
  6 11  1  0  0  0  0
  6  5  1  0  0  0  0
  7  1  1  0  0  0  0
 11 12  2  0  0  0  0
 13 11  2  0  0  0  0
 15 14  1  0  0  0  0
 16 20  1  0  0  0  0
 16 19  2  0  0  0  0
 17 16  1  0  0  0  0
 17 23  1  0  0  0  0
 18 16  2  0  0  0  0
 21 17  1  0  0  0  0
 22 17  1  0  0  0  0
M  RAD  3   3   2  14   2  15   3
M  END
