Coordinates from ORCA-job p-NO2-Ph-N2-OTf-B3LYPG-aug-cc-pVDZ-scan-d09-29-n200
 OpenBabel01151817083D

 23 23  0  0  1  0  0  0  0  0999 V2000
   -1.3818   -0.2253   -6.0060 C   0  0  0  0  0  0  0  0  0  0  0  0
   -0.5031    0.9774   -6.0436 C   0  0  1  0  0  0  0  0  0  0  0  0
   -1.1403    2.2801   -5.4095 C   0  0  0  0  0  0  0  0  0  0  0  0
   -2.2630    2.0169   -4.4436 C   0  0  0  0  0  0  0  0  0  0  0  0
   -2.8747    0.8232   -4.3439 C   0  0  0  0  0  0  0  0  0  0  0  0
   -2.4485   -0.2731   -5.1901 C   0  0  0  0  0  0  0  0  0  0  0  0
   -1.1187   -1.0788   -6.6267 H   0  0  0  0  0  0  0  0  0  0  0  0
   -0.1820    1.2358   -7.0593 H   0  0  0  0  0  0  0  0  0  0  0  0
   -2.5574    2.8773   -3.8425 H   0  0  0  0  0  0  0  0  0  0  0  0
   -3.6979    0.6630   -3.6533 H   0  0  0  0  0  0  0  0  0  0  0  0
   -3.2521   -1.5242   -5.1550 N   0  0  0  0  0  0  0  0  0  0  0  0
   -4.1933   -1.5556   -4.3686 O   0  0  0  0  0  0  0  0  0  0  0  0
   -2.9322   -2.4362   -5.9081 O   0  0  0  0  0  0  0  0  0  0  0  0
   -0.8050    3.1012   -5.6133 N   0  0  0  0  0  0  0  0  0  0  0  0
   -0.3594    4.1643   -5.8745 N   0  0  0  0  0  0  0  0  0  0  0  0
    2.2105    0.8190   -5.9495 S   0  0  0  0  0  0  0  0  0  0  0  0
    2.5542   -1.0275   -6.2584 C   0  0  0  0  0  0  0  0  0  0  0  0
    2.0932    1.4657   -7.2697 O   0  0  0  0  0  0  0  0  0  0  0  0
    3.1265    1.2651   -4.8960 O   0  0  0  0  0  0  0  0  0  0  0  0
    0.7039    0.6784   -5.2498 O   0  0  0  0  0  0  0  0  0  0  0  0
    1.6100   -1.5170   -7.0739 F   0  0  0  0  0  0  0  0  0  0  0  0
    3.7490   -1.1382   -6.8374 F   0  0  0  0  0  0  0  0  0  0  0  0
    2.5412   -1.6905   -5.1049 F   0  0  0  0  0  0  0  0  0  0  0  0
  1  6  2  0  0  0  0
  2  8  1  6  0  0  0
  2  1  1  0  0  0  0
  2  3  1  0  0  0  0
  2 20  1  0  0  0  0
  3  4  2  0  0  0  0
  4  5  1  0  0  0  0
  4  9  1  0  0  0  0
  5 10  1  0  0  0  0
  6 11  1  0  0  0  0
  6  5  1  0  0  0  0
  7  1  1  0  0  0  0
 11 12  2  0  0  0  0
 13 11  2  0  0  0  0
 14  3  1  0  0  0  0
 15 14  1  0  0  0  0
 16 20  1  0  0  0  0
 16 19  2  0  0  0  0
 17 16  1  0  0  0  0
 17 23  1  0  0  0  0
 18 16  2  0  0  0  0
 21 17  1  0  0  0  0
 22 17  1  0  0  0  0
M  RAD  3   5   2  14   2  15   3
M  END
