Coordinates from ORCA-job p-NO2-Ph-N2-OTf-B3LYPG-aug-cc-pVDZ-scan-d09-29-n200
 OpenBabel01151817083D

 23 22  0  0  0  0  0  0  0  0999 V2000
   -2.0607   -0.6411   -6.0633 C   0  0  0  0  0  0  0  0  0  0  0  0
   -1.1142    0.2630   -6.5505 C   0  0  0  0  0  0  0  0  0  0  0  0
   -1.1080    1.5134   -5.9486 C   0  0  0  0  0  0  0  0  0  0  0  0
   -1.9027    1.9336   -4.8838 C   0  0  0  0  0  0  0  0  0  0  0  0
   -2.8262    1.0088   -4.4098 C   0  0  0  0  0  0  0  0  0  0  0  0
   -2.8904   -0.2513   -5.0157 C   0  0  0  0  0  0  0  0  0  0  0  0
   -2.1343   -1.6446   -6.4729 H   0  0  0  0  0  0  0  0  0  0  0  0
   -0.4172   -0.0011   -7.3389 H   0  0  0  0  0  0  0  0  0  0  0  0
   -1.7979    2.9216   -4.4434 H   0  0  0  0  0  0  0  0  0  0  0  0
   -3.4890    1.2473   -3.5824 H   0  0  0  0  0  0  0  0  0  0  0  0
   -3.8926   -1.2240   -4.5071 N   0  0  0  0  0  0  0  0  0  0  0  0
   -4.5840   -0.8704   -3.5588 O   0  0  0  0  0  0  0  0  0  0  0  0
   -3.9648   -2.3056   -5.0759 O   0  0  0  0  0  0  0  0  0  0  0  0
   -0.1233    2.5378   -6.4970 N   0  0  0  0  0  0  0  0  0  0  0  0
    0.4179    3.3692   -6.9922 N   0  0  0  0  0  0  0  0  0  0  0  0
    2.0976    0.2567   -4.9859 S   0  0  0  0  0  0  0  0  0  0  0  0
    3.0805    0.2254   -6.6084 C   0  0  0  0  0  0  0  0  0  0  0  0
    1.5290    1.6718   -5.0124 O   0  0  0  0  0  0  0  0  0  0  0  0
    3.0955    0.0082   -3.9198 O   0  0  0  0  0  0  0  0  0  0  0  0
    1.0485   -0.7939   -5.2142 O   0  0  0  0  0  0  0  0  0  0  0  0
    2.2415    0.5146   -7.6501 F   0  0  0  0  0  0  0  0  0  0  0  0
    4.0590    1.1423   -6.6103 F   0  0  0  0  0  0  0  0  0  0  0  0
    3.6150   -0.9806   -6.8366 F   0  0  0  0  0  0  0  0  0  0  0  0
  1  6  1  0  0  0  0
  2  1  2  0  0  0  0
  2  3  1  0  0  0  0
  3  4  2  0  0  0  0
  4  9  1  0  0  0  0
  4  5  1  0  0  0  0
  5 10  1  0  0  0  0
  6 11  1  0  0  0  0
  6  5  2  0  0  0  0
  7  1  1  0  0  0  0
  8  2  1  0  0  0  0
 11 12  2  0  0  0  0
 13 11  2  0  0  0  0
 14  3  1  0  0  0  0
 15 14  1  0  0  0  0
 16 19  1  0  0  0  0
 17 16  1  0  0  0  0
 18 16  2  0  0  0  0
 20 16  2  0  0  0  0
 21 17  1  0  0  0  0
 22 17  1  0  0  0  0
 23 17  1  0  0  0  0
M  RAD  3  14   2  15   3  19   2
M  END
