Coordinates from ORCA-job p-NO2-Ph-N2-OTf-B3LYPG-aug-cc-pVDZ-scan-d29-49-n200
 OpenBabel01151817083D

 23 22  0  0  1  0  0  0  0  0999 V2000
   -1.2818   -0.4372   -5.7027 C   0  0  0  0  0  0  0  0  0  0  0  0
   -0.4434    0.7840   -5.5026 C   0  0  1  0  0  0  0  0  0  0  0  0
   -1.0151    1.8461   -4.7072 C   0  0  0  0  0  0  0  0  0  0  0  0
   -2.3859    1.9485   -4.5234 C   0  0  0  0  0  0  0  0  0  0  0  0
   -3.0558    0.7236   -4.4593 C   0  0  0  0  0  0  0  0  0  0  0  0
   -2.5079   -0.4237   -5.1213 C   0  0  0  0  0  0  0  0  0  0  0  0
   -0.9870   -1.2214   -6.3966 H   0  0  0  0  0  0  0  0  0  0  0  0
   -0.2642    1.2394   -6.5050 H   0  0  0  0  0  0  0  0  0  0  0  0
   -2.8546    2.8583   -4.1448 H   0  0  0  0  0  0  0  0  0  0  0  0
   -3.9734    0.6018   -3.8853 H   0  0  0  0  0  0  0  0  0  0  0  0
   -3.3741   -1.6239   -5.2474 N   0  0  0  0  0  0  0  0  0  0  0  0
   -4.3823   -1.6587   -4.5492 O   0  0  0  0  0  0  0  0  0  0  0  0
   -3.0219   -2.5020   -6.0245 O   0  0  0  0  0  0  0  0  0  0  0  0
   -0.6269    4.3008   -6.3341 N   0  0  0  0  0  0  0  0  0  0  0  0
   -0.1512    5.2828   -6.1644 N   0  0  0  0  0  0  0  0  0  0  0  0
    2.2327    0.7069   -5.8706 S   0  0  0  0  0  0  0  0  0  0  0  0
    2.6592   -1.0681   -6.4019 C   0  0  0  0  0  0  0  0  0  0  0  0
    1.8482    1.4371   -7.0985 O   0  0  0  0  0  0  0  0  0  0  0  0
    3.3014    1.1510   -4.9697 O   0  0  0  0  0  0  0  0  0  0  0  0
    0.8934    0.3861   -4.9678 O   0  0  0  0  0  0  0  0  0  0  0  0
    1.6369   -1.5754   -7.1072 F   0  0  0  0  0  0  0  0  0  0  0  0
    3.7517   -1.0297   -7.1658 F   0  0  0  0  0  0  0  0  0  0  0  0
    2.8811   -1.8250   -5.3286 F   0  0  0  0  0  0  0  0  0  0  0  0
  1  2  1  0  0  0  0
  1  6  2  0  0  0  0
  2  8  1  6  0  0  0
  2 20  1  0  0  0  0
  2  3  1  0  0  0  0
  3  4  1  0  0  0  0
  4  5  1  0  0  0  0
  4  9  1  0  0  0  0
  5 10  1  0  0  0  0
  6  5  1  0  0  0  0
  7  1  1  0  0  0  0
 11  6  1  0  0  0  0
 11 12  2  0  0  0  0
 13 11  2  0  0  0  0
 14 15  3  0  0  0  0
 16 19  2  0  0  0  0
 16 20  1  0  0  0  0
 17 16  1  0  0  0  0
 17 23  1  0  0  0  0
 18 16  2  0  0  0  0
 21 17  1  0  0  0  0
 22 17  1  0  0  0  0
M  RAD  3   3   3   4   2   5   2
M  END
