Coordinates from ORCA-job p-NO2-Ph-N2-OTf-B3LYPG-aug-cc-pVDZ-scan-d29-49-n200
 OpenBabel01151817083D

 23 22  0  0  1  0  0  0  0  0999 V2000
   -1.2977   -0.2288   -5.6503 C   0  0  0  0  0  0  0  0  0  0  0  0
   -0.4023    0.7834   -5.0110 C   0  0  1  0  0  0  0  0  0  0  0  0
   -0.9237    1.5119   -3.8768 C   0  0  0  0  0  0  0  0  0  0  0  0
   -2.2969    1.6224   -3.6873 C   0  0  0  0  0  0  0  0  0  0  0  0
   -3.0467    0.5174   -4.0969 C   0  0  0  0  0  0  0  0  0  0  0  0
   -2.5429   -0.3454   -5.1243 C   0  0  0  0  0  0  0  0  0  0  0  0
   -1.0179   -0.7327   -6.5729 H   0  0  0  0  0  0  0  0  0  0  0  0
   -0.1964    1.5661   -5.7829 H   0  0  0  0  0  0  0  0  0  0  0  0
   -2.7266    2.3523   -2.9992 H   0  0  0  0  0  0  0  0  0  0  0  0
   -3.9992    0.2663   -3.6317 H   0  0  0  0  0  0  0  0  0  0  0  0
   -3.4697   -1.3581   -5.6919 N   0  0  0  0  0  0  0  0  0  0  0  0
   -4.5075   -1.5712   -5.0734 O   0  0  0  0  0  0  0  0  0  0  0  0
   -3.1367   -1.9174   -6.7289 O   0  0  0  0  0  0  0  0  0  0  0  0
   -0.5141    3.7501   -7.8729 N   0  0  0  0  0  0  0  0  0  0  0  0
   -0.1560    4.5309   -8.5662 N   0  0  0  0  0  0  0  0  0  0  0  0
    2.2679    0.6944   -5.4232 S   0  0  0  0  0  0  0  0  0  0  0  0
    2.6065   -0.8068   -6.5396 C   0  0  0  0  0  0  0  0  0  0  0  0
    1.9346    1.8228   -6.3197 O   0  0  0  0  0  0  0  0  0  0  0  0
    3.3485    0.7416   -4.4332 O   0  0  0  0  0  0  0  0  0  0  0  0
    0.9044    0.1491   -4.6775 O   0  0  0  0  0  0  0  0  0  0  0  0
    1.5679   -0.9822   -7.3709 F   0  0  0  0  0  0  0  0  0  0  0  0
    3.7091   -0.5649   -7.2499 F   0  0  0  0  0  0  0  0  0  0  0  0
    2.7743   -1.8999   -5.7974 F   0  0  0  0  0  0  0  0  0  0  0  0
  1  6  2  0  0  0  0
  1  2  1  0  0  0  0
  2  8  1  6  0  0  0
  2 20  1  0  0  0  0
  2  3  1  0  0  0  0
  3  4  1  0  0  0  0
  4  9  1  0  0  0  0
  5  4  1  0  0  0  0
  5 10  1  0  0  0  0
  6  5  1  0  0  0  0
  7  1  1  0  0  0  0
 11  6  1  0  0  0  0
 11 12  2  0  0  0  0
 13 11  2  0  0  0  0
 15 14  3  0  0  0  0
 16 20  1  0  0  0  0
 16 19  2  0  0  0  0
 17 23  1  0  0  0  0
 17 16  1  0  0  0  0
 18 16  2  0  0  0  0
 21 17  1  0  0  0  0
 22 17  1  0  0  0  0
M  RAD  3   3   3   4   2   5   2
M  END
