Coordinates from ORCA-job p-NO2-Ph-N2-OTf-B3LYPG-aug-cc-pVDZ-scan-d09-29-n200
 OpenBabel01151817083D

 23 22  0  0  0  0  0  0  0  0999 V2000
   -2.0485   -0.6349   -6.0645 C   0  0  0  0  0  0  0  0  0  0  0  0
   -1.1060    0.2726   -6.5501 C   0  0  0  0  0  0  0  0  0  0  0  0
   -1.0975    1.5323   -5.9566 C   0  0  0  0  0  0  0  0  0  0  0  0
   -1.9038    1.9404   -4.8891 C   0  0  0  0  0  0  0  0  0  0  0  0
   -2.8218    1.0138   -4.4138 C   0  0  0  0  0  0  0  0  0  0  0  0
   -2.8805   -0.2478   -5.0185 C   0  0  0  0  0  0  0  0  0  0  0  0
   -2.1174   -1.6391   -6.4730 H   0  0  0  0  0  0  0  0  0  0  0  0
   -0.4095    0.0094   -7.3396 H   0  0  0  0  0  0  0  0  0  0  0  0
   -1.8063    2.9299   -4.4496 H   0  0  0  0  0  0  0  0  0  0  0  0
   -3.4861    1.2500   -3.5870 H   0  0  0  0  0  0  0  0  0  0  0  0
   -3.8796   -1.2239   -4.5097 N   0  0  0  0  0  0  0  0  0  0  0  0
   -4.5648   -0.8762   -3.5547 O   0  0  0  0  0  0  0  0  0  0  0  0
   -3.9435   -2.3083   -5.0742 O   0  0  0  0  0  0  0  0  0  0  0  0
   -0.1543    2.5290   -6.4917 N   0  0  0  0  0  0  0  0  0  0  0  0
    0.3942    3.3594   -6.9832 N   0  0  0  0  0  0  0  0  0  0  0  0
    2.0899    0.2533   -4.9841 S   0  0  0  0  0  0  0  0  0  0  0  0
    3.0731    0.2178   -6.6063 C   0  0  0  0  0  0  0  0  0  0  0  0
    1.5284    1.6698   -5.0082 O   0  0  0  0  0  0  0  0  0  0  0  0
    3.0856   -0.0065   -3.9187 O   0  0  0  0  0  0  0  0  0  0  0  0
    1.0339   -0.7911   -5.2151 O   0  0  0  0  0  0  0  0  0  0  0  0
    2.2363    0.5137   -7.6479 F   0  0  0  0  0  0  0  0  0  0  0  0
    4.0572    1.1285   -6.6064 F   0  0  0  0  0  0  0  0  0  0  0  0
    3.6000   -0.9913   -6.8359 F   0  0  0  0  0  0  0  0  0  0  0  0
  1  6  1  0  0  0  0
  2  1  2  0  0  0  0
  2  3  1  0  0  0  0
  3  4  2  0  0  0  0
  4  9  1  0  0  0  0
  4  5  1  0  0  0  0
  5 10  1  0  0  0  0
  6 11  1  0  0  0  0
  6  5  2  0  0  0  0
  7  1  1  0  0  0  0
  8  2  1  0  0  0  0
 11 12  2  0  0  0  0
 13 11  2  0  0  0  0
 14  3  1  0  0  0  0
 15 14  1  0  0  0  0
 16 19  1  0  0  0  0
 17 16  1  0  0  0  0
 18 16  2  0  0  0  0
 20 16  2  0  0  0  0
 21 17  1  0  0  0  0
 22 17  1  0  0  0  0
 23 17  1  0  0  0  0
M  RAD  3  14   2  15   3  19   2
M  END
