Coordinates from ORCA-job p-NO2-Ph-N2-OTf-B3LYPG-aug-cc-pVDZ-scan-d09-29-n200
 OpenBabel01151817083D

 23 22  0  0  0  0  0  0  0  0999 V2000
   -2.0416   -0.6330   -6.0637 C   0  0  0  0  0  0  0  0  0  0  0  0
   -1.1000    0.2753   -6.5479 C   0  0  0  0  0  0  0  0  0  0  0  0
   -1.0905    1.5404   -5.9590 C   0  0  0  0  0  0  0  0  0  0  0  0
   -1.9027    1.9427   -4.8900 C   0  0  0  0  0  0  0  0  0  0  0  0
   -2.8184    1.0153   -4.4143 C   0  0  0  0  0  0  0  0  0  0  0  0
   -2.8749   -0.2468   -5.0187 C   0  0  0  0  0  0  0  0  0  0  0  0
   -2.1093   -1.6376   -6.4716 H   0  0  0  0  0  0  0  0  0  0  0  0
   -0.4021    0.0119   -7.3361 H   0  0  0  0  0  0  0  0  0  0  0  0
   -1.8087    2.9329   -4.4513 H   0  0  0  0  0  0  0  0  0  0  0  0
   -3.4833    1.2503   -3.5876 H   0  0  0  0  0  0  0  0  0  0  0  0
   -3.8733   -1.2241   -4.5103 N   0  0  0  0  0  0  0  0  0  0  0  0
   -4.5601   -0.8766   -3.5565 O   0  0  0  0  0  0  0  0  0  0  0  0
   -3.9465   -2.3025   -5.0850 O   0  0  0  0  0  0  0  0  0  0  0  0
   -0.1725    2.5202   -6.4870 N   0  0  0  0  0  0  0  0  0  0  0  0
    0.3760    3.3513   -6.9794 N   0  0  0  0  0  0  0  0  0  0  0  0
    2.0891    0.2542   -4.9830 S   0  0  0  0  0  0  0  0  0  0  0  0
    3.0699    0.2149   -6.6065 C   0  0  0  0  0  0  0  0  0  0  0  0
    1.5292    1.6704   -5.0068 O   0  0  0  0  0  0  0  0  0  0  0  0
    3.0862   -0.0087   -3.9197 O   0  0  0  0  0  0  0  0  0  0  0  0
    1.0300   -0.7882   -5.2120 O   0  0  0  0  0  0  0  0  0  0  0  0
    2.2326    0.5109   -7.6476 F   0  0  0  0  0  0  0  0  0  0  0  0
    4.0558    1.1237   -6.6090 F   0  0  0  0  0  0  0  0  0  0  0  0
    3.5941   -0.9956   -6.8348 F   0  0  0  0  0  0  0  0  0  0  0  0
  1  6  1  0  0  0  0
  2  1  2  0  0  0  0
  2  3  1  0  0  0  0
  3  4  2  0  0  0  0
  4  9  1  0  0  0  0
  4  5  1  0  0  0  0
  5 10  1  0  0  0  0
  6 11  1  0  0  0  0
  6  5  2  0  0  0  0
  7  1  1  0  0  0  0
  8  2  1  0  0  0  0
 11 12  2  0  0  0  0
 13 11  2  0  0  0  0
 14  3  1  0  0  0  0
 15 14  1  0  0  0  0
 16 19  1  0  0  0  0
 17 16  1  0  0  0  0
 18 16  2  0  0  0  0
 20 16  2  0  0  0  0
 21 17  1  0  0  0  0
 22 17  1  0  0  0  0
 23 17  1  0  0  0  0
M  RAD  3  14   2  15   3  19   2
M  END
