Coordinates from ORCA-job p-NO2-Ph-N2-OTf-B3LYPG-aug-cc-pVDZ-scan-d29-49-n200
 OpenBabel01151817083D

 23 22  0  0  1  0  0  0  0  0999 V2000
   -1.2901   -0.2216   -5.6589 C   0  0  0  0  0  0  0  0  0  0  0  0
   -0.3928    0.7888   -5.0198 C   0  0  1  0  0  0  0  0  0  0  0  0
   -0.9140    1.5232   -3.8891 C   0  0  0  0  0  0  0  0  0  0  0  0
   -2.2877    1.6399   -3.7051 C   0  0  0  0  0  0  0  0  0  0  0  0
   -3.0414    0.5377   -4.1146 C   0  0  0  0  0  0  0  0  0  0  0  0
   -2.5379   -0.3307   -5.1374 C   0  0  0  0  0  0  0  0  0  0  0  0
   -1.0087   -0.7305   -6.5782 H   0  0  0  0  0  0  0  0  0  0  0  0
   -0.1828    1.5688   -5.7936 H   0  0  0  0  0  0  0  0  0  0  0  0
   -2.7167    2.3736   -3.0205 H   0  0  0  0  0  0  0  0  0  0  0  0
   -3.9972    0.2930   -3.6529 H   0  0  0  0  0  0  0  0  0  0  0  0
   -3.4672   -1.3410   -5.7053 N   0  0  0  0  0  0  0  0  0  0  0  0
   -4.5083   -1.5472   -5.0901 O   0  0  0  0  0  0  0  0  0  0  0  0
   -3.1325   -1.9057   -6.7388 O   0  0  0  0  0  0  0  0  0  0  0  0
   -0.5782    3.6761   -7.7896 N   0  0  0  0  0  0  0  0  0  0  0  0
   -0.2572    4.4683   -8.4881 N   0  0  0  0  0  0  0  0  0  0  0  0
    2.2787    0.6900   -5.4228 S   0  0  0  0  0  0  0  0  0  0  0  0
    2.6157   -0.8140   -6.5359 C   0  0  0  0  0  0  0  0  0  0  0  0
    1.9531    1.8182   -6.3221 O   0  0  0  0  0  0  0  0  0  0  0  0
    3.3559    0.7344   -4.4288 O   0  0  0  0  0  0  0  0  0  0  0  0
    0.9106    0.1505   -4.6814 O   0  0  0  0  0  0  0  0  0  0  0  0
    1.5791   -0.9871   -7.3702 F   0  0  0  0  0  0  0  0  0  0  0  0
    3.7213   -0.5770   -7.2431 F   0  0  0  0  0  0  0  0  0  0  0  0
    2.7774   -1.9066   -5.7916 F   0  0  0  0  0  0  0  0  0  0  0  0
  1  6  2  0  0  0  0
  1  2  1  0  0  0  0
  2  8  1  6  0  0  0
  2 20  1  0  0  0  0
  2  3  1  0  0  0  0
  3  4  1  0  0  0  0
  4  9  1  0  0  0  0
  5  4  1  0  0  0  0
  5 10  1  0  0  0  0
  6  5  1  0  0  0  0
  7  1  1  0  0  0  0
 11  6  1  0  0  0  0
 11 12  2  0  0  0  0
 13 11  2  0  0  0  0
 15 14  3  0  0  0  0
 16 20  1  0  0  0  0
 16 19  2  0  0  0  0
 17 23  1  0  0  0  0
 17 16  1  0  0  0  0
 18 16  2  0  0  0  0
 21 17  1  0  0  0  0
 22 17  1  0  0  0  0
M  RAD  3   3   3   4   2   5   2
M  END
