Coordinates from ORCA-job p-NO2-Ph-N2-OTf-B3LYPG-aug-cc-pVDZ-scan-d29-49-n200
 OpenBabel01151817083D

 23 22  0  0  1  0  0  0  0  0999 V2000
   -1.2819   -0.4435   -5.6925 C   0  0  0  0  0  0  0  0  0  0  0  0
   -0.4414    0.7708   -5.4627 C   0  0  1  0  0  0  0  0  0  0  0  0
   -1.0080    1.8179   -4.6451 C   0  0  0  0  0  0  0  0  0  0  0  0
   -2.3807    1.9213   -4.4691 C   0  0  0  0  0  0  0  0  0  0  0  0
   -3.0587    0.6997   -4.4378 C   0  0  0  0  0  0  0  0  0  0  0  0
   -2.5119   -0.4366   -5.1193 C   0  0  0  0  0  0  0  0  0  0  0  0
   -0.9846   -1.2161   -6.3982 H   0  0  0  0  0  0  0  0  0  0  0  0
   -0.2677    1.2524   -6.4552 H   0  0  0  0  0  0  0  0  0  0  0  0
   -2.8482    2.8247   -4.0739 H   0  0  0  0  0  0  0  0  0  0  0  0
   -3.9832    0.5713   -3.8763 H   0  0  0  0  0  0  0  0  0  0  0  0
   -3.3820   -1.6306   -5.2746 N   0  0  0  0  0  0  0  0  0  0  0  0
   -4.3933   -1.6763   -4.5817 O   0  0  0  0  0  0  0  0  0  0  0  0
   -3.0283   -2.4942   -6.0671 O   0  0  0  0  0  0  0  0  0  0  0  0
   -0.6108    4.4229   -6.4634 N   0  0  0  0  0  0  0  0  0  0  0  0
   -0.1305    5.4046   -6.3058 N   0  0  0  0  0  0  0  0  0  0  0  0
    2.2309    0.6950   -5.8517 S   0  0  0  0  0  0  0  0  0  0  0  0
    2.6573   -1.0729   -6.4065 C   0  0  0  0  0  0  0  0  0  0  0  0
    1.8380    1.4392   -7.0687 O   0  0  0  0  0  0  0  0  0  0  0  0
    3.3036    1.1304   -4.9515 O   0  0  0  0  0  0  0  0  0  0  0  0
    0.8966    0.3595   -4.9457 O   0  0  0  0  0  0  0  0  0  0  0  0
    1.6326   -1.5730   -7.1133 F   0  0  0  0  0  0  0  0  0  0  0  0
    3.7463   -1.0236   -7.1747 F   0  0  0  0  0  0  0  0  0  0  0  0
    2.8849   -1.8423   -5.3433 F   0  0  0  0  0  0  0  0  0  0  0  0
  1  2  1  0  0  0  0
  1  6  2  0  0  0  0
  2  8  1  6  0  0  0
  2 20  1  0  0  0  0
  2  3  1  0  0  0  0
  3  4  1  0  0  0  0
  4  5  1  0  0  0  0
  4  9  1  0  0  0  0
  5 10  1  0  0  0  0
  6  5  1  0  0  0  0
  7  1  1  0  0  0  0
 11  6  1  0  0  0  0
 11 12  2  0  0  0  0
 13 11  2  0  0  0  0
 14 15  3  0  0  0  0
 16 19  2  0  0  0  0
 16 20  1  0  0  0  0
 17 16  1  0  0  0  0
 17 23  1  0  0  0  0
 18 16  2  0  0  0  0
 21 17  1  0  0  0  0
 22 17  1  0  0  0  0
M  RAD  3   3   3   4   2   5   2
M  END
