Coordinates from ORCA-job p-NO2-Ph-N2-OTf-B3LYPG-aug-cc-pVDZ-scan-d29-49-n200
 OpenBabel01151817083D

 23 22  0  0  1  0  0  0  0  0999 V2000
   -1.2959   -0.2271   -5.6522 C   0  0  0  0  0  0  0  0  0  0  0  0
   -0.4001    0.7847   -5.0130 C   0  0  1  0  0  0  0  0  0  0  0  0
   -0.9216    1.5145   -3.8797 C   0  0  0  0  0  0  0  0  0  0  0  0
   -2.2949    1.6264   -3.6914 C   0  0  0  0  0  0  0  0  0  0  0  0
   -3.0455    0.5220   -4.1009 C   0  0  0  0  0  0  0  0  0  0  0  0
   -2.5417   -0.3421   -5.1273 C   0  0  0  0  0  0  0  0  0  0  0  0
   -1.0158   -0.7320   -6.5742 H   0  0  0  0  0  0  0  0  0  0  0  0
   -0.1933    1.5668   -5.7853 H   0  0  0  0  0  0  0  0  0  0  0  0
   -2.7244    2.3572   -3.0041 H   0  0  0  0  0  0  0  0  0  0  0  0
   -3.9987    0.2722   -3.6364 H   0  0  0  0  0  0  0  0  0  0  0  0
   -3.4691   -1.3543   -5.6949 N   0  0  0  0  0  0  0  0  0  0  0  0
   -4.5076   -1.5658   -5.0772 O   0  0  0  0  0  0  0  0  0  0  0  0
   -3.1357   -1.9148   -6.7311 O   0  0  0  0  0  0  0  0  0  0  0  0
   -0.5283    3.7330   -7.8538 N   0  0  0  0  0  0  0  0  0  0  0  0
   -0.1788    4.5165   -8.5483 N   0  0  0  0  0  0  0  0  0  0  0  0
    2.2703    0.6934   -5.4232 S   0  0  0  0  0  0  0  0  0  0  0  0
    2.6085   -0.8084   -6.5388 C   0  0  0  0  0  0  0  0  0  0  0  0
    1.9386    1.8218   -6.3202 O   0  0  0  0  0  0  0  0  0  0  0  0
    3.3502    0.7400   -4.4323 O   0  0  0  0  0  0  0  0  0  0  0  0
    0.9058    0.1494   -4.6783 O   0  0  0  0  0  0  0  0  0  0  0  0
    1.5704   -0.9833   -7.3709 F   0  0  0  0  0  0  0  0  0  0  0  0
    3.7118   -0.5676   -7.2484 F   0  0  0  0  0  0  0  0  0  0  0  0
    2.7749   -1.9014   -5.7961 F   0  0  0  0  0  0  0  0  0  0  0  0
  1  6  2  0  0  0  0
  1  2  1  0  0  0  0
  2  8  1  6  0  0  0
  2 20  1  0  0  0  0
  2  3  1  0  0  0  0
  3  4  1  0  0  0  0
  4  9  1  0  0  0  0
  5  4  1  0  0  0  0
  5 10  1  0  0  0  0
  6  5  1  0  0  0  0
  7  1  1  0  0  0  0
 11  6  1  0  0  0  0
 11 12  2  0  0  0  0
 13 11  2  0  0  0  0
 15 14  3  0  0  0  0
 16 20  1  0  0  0  0
 16 19  2  0  0  0  0
 17 23  1  0  0  0  0
 17 16  1  0  0  0  0
 18 16  2  0  0  0  0
 21 17  1  0  0  0  0
 22 17  1  0  0  0  0
M  RAD  3   3   3   4   2   5   2
M  END
