Coordinates from ORCA-job p-NO2-Ph-N2-OTf-B3LYPG-aug-cc-pVDZ-scan-d09-29-n200
 OpenBabel01151817083D

 23 22  0  0  0  0  0  0  0  0999 V2000
   -2.3781   -0.6625   -6.1808 C   0  0  0  0  0  0  0  0  0  0  0  0
   -1.0895   -0.2694   -6.5318 C   0  0  0  0  0  0  0  0  0  0  0  0
   -0.4130    0.6458   -5.7192 C   0  0  0  0  0  0  0  0  0  0  0  0
   -0.9412    1.0718   -4.4964 C   0  0  0  0  0  0  0  0  0  0  0  0
   -2.2296    0.6807   -4.1426 C   0  0  0  0  0  0  0  0  0  0  0  0
   -2.9347   -0.1677   -4.9992 C   0  0  0  0  0  0  0  0  0  0  0  0
   -2.9492   -1.3501   -6.7991 H   0  0  0  0  0  0  0  0  0  0  0  0
   -0.6166   -0.6382   -7.4393 H   0  0  0  0  0  0  0  0  0  0  0  0
   -0.3549    1.7244   -3.8531 H   0  0  0  0  0  0  0  0  0  0  0  0
   -2.6879    1.0121   -3.2146 H   0  0  0  0  0  0  0  0  0  0  0  0
   -4.3025   -0.5816   -4.6268 N   0  0  0  0  0  0  0  0  0  0  0  0
   -4.7638   -0.1431   -3.5765 O   0  0  0  0  0  0  0  0  0  0  0  0
   -4.8958   -1.3388   -5.3901 O   0  0  0  0  0  0  0  0  0  0  0  0
   -0.9472    2.4768   -6.8875 N   0  0  0  0  0  0  0  0  0  0  0  0
   -1.9061    2.9677   -7.1411 N   0  0  0  0  0  0  0  0  0  0  0  0
    2.1111   -0.0231   -5.4708 S   0  0  0  0  0  0  0  0  0  0  0  0
    3.5074    1.0174   -6.2470 C   0  0  0  0  0  0  0  0  0  0  0  0
    0.9076    0.9980   -6.0468 O   0  0  0  0  0  0  0  0  0  0  0  0
    2.2067    0.0780   -4.0055 O   0  0  0  0  0  0  0  0  0  0  0  0
    2.0513   -1.3214   -6.1616 O   0  0  0  0  0  0  0  0  0  0  0  0
    3.3582    1.0616   -7.5693 F   0  0  0  0  0  0  0  0  0  0  0  0
    3.4901    2.2487   -5.7407 F   0  0  0  0  0  0  0  0  0  0  0  0
    4.6567    0.4140   -5.9381 F   0  0  0  0  0  0  0  0  0  0  0  0
  1  6  1  0  0  0  0
  2  1  2  0  0  0  0
  2  3  1  0  0  0  0
  3  4  2  0  0  0  0
  4  5  1  0  0  0  0
  4  9  1  0  0  0  0
  5 10  1  0  0  0  0
  6 11  1  0  0  0  0
  6  5  2  0  0  0  0
  7  1  1  0  0  0  0
  8  2  1  0  0  0  0
 11 12  2  0  0  0  0
 13 11  2  0  0  0  0
 15 14  3  0  0  0  0
 16 19  2  0  0  0  0
 17 23  1  0  0  0  0
 17 22  1  0  0  0  0
 17 16  1  0  0  0  0
 18  3  1  0  0  0  0
 18 16  1  0  0  0  0
 20 16  2  0  0  0  0
 21 17  1  0  0  0  0
M  END
