Coordinates from ORCA-job p-NO2-Ph-N2-OTf-B3LYPG-aug-cc-pVDZ-scan-d29-49-n200
 OpenBabel01151817083D

 23 22  0  0  1  0  0  0  0  0999 V2000
   -1.2691   -0.2149   -5.6721 C   0  0  0  0  0  0  0  0  0  0  0  0
   -0.3679    0.7932   -5.0355 C   0  0  1  0  0  0  0  0  0  0  0  0
   -0.8878    1.5476   -3.9181 C   0  0  0  0  0  0  0  0  0  0  0  0
   -2.2636    1.6809   -3.7513 C   0  0  0  0  0  0  0  0  0  0  0  0
   -3.0281    0.5862   -4.1585 C   0  0  0  0  0  0  0  0  0  0  0  0
   -2.5242   -0.3016   -5.1648 C   0  0  0  0  0  0  0  0  0  0  0  0
   -0.9818   -0.7415   -6.5796 H   0  0  0  0  0  0  0  0  0  0  0  0
   -0.1504    1.5671   -5.8140 H   0  0  0  0  0  0  0  0  0  0  0  0
   -2.6912    2.4278   -3.0802 H   0  0  0  0  0  0  0  0  0  0  0  0
   -3.9947    0.3620   -3.7089 H   0  0  0  0  0  0  0  0  0  0  0  0
   -3.4595   -1.3072   -5.7310 N   0  0  0  0  0  0  0  0  0  0  0  0
   -4.5196   -1.4770   -5.1375 O   0  0  0  0  0  0  0  0  0  0  0  0
   -3.1275   -1.8767   -6.7628 O   0  0  0  0  0  0  0  0  0  0  0  0
   -0.7427    3.5235   -7.6060 N   0  0  0  0  0  0  0  0  0  0  0  0
   -0.5003    4.3443   -8.3030 N   0  0  0  0  0  0  0  0  0  0  0  0
    2.3043    0.6778   -5.4214 S   0  0  0  0  0  0  0  0  0  0  0  0
    2.6396   -0.8324   -6.5265 C   0  0  0  0  0  0  0  0  0  0  0  0
    1.9909    1.8041   -6.3275 O   0  0  0  0  0  0  0  0  0  0  0  0
    3.3755    0.7201   -4.4210 O   0  0  0  0  0  0  0  0  0  0  0  0
    0.9287    0.1485   -4.6869 O   0  0  0  0  0  0  0  0  0  0  0  0
    1.6066   -1.0038   -7.3657 F   0  0  0  0  0  0  0  0  0  0  0  0
    3.7502   -0.6041   -7.2288 F   0  0  0  0  0  0  0  0  0  0  0  0
    2.7918   -1.9229   -5.7768 F   0  0  0  0  0  0  0  0  0  0  0  0
  1  6  2  0  0  0  0
  1  2  1  0  0  0  0
  2  8  1  6  0  0  0
  2 20  1  0  0  0  0
  2  3  1  0  0  0  0
  3  4  1  0  0  0  0
  4  9  1  0  0  0  0
  5  4  1  0  0  0  0
  5 10  1  0  0  0  0
  6  5  1  0  0  0  0
  7  1  1  0  0  0  0
 11  6  1  0  0  0  0
 11 12  2  0  0  0  0
 13 11  2  0  0  0  0
 15 14  3  0  0  0  0
 16 20  1  0  0  0  0
 16 19  2  0  0  0  0
 17 23  1  0  0  0  0
 17 16  1  0  0  0  0
 18 16  2  0  0  0  0
 21 17  1  0  0  0  0
 22 17  1  0  0  0  0
M  RAD  3   3   3   4   2   5   2
M  END
