Coordinates from ORCA-job p-NO2-Ph-N2-OTf-B3LYPG-aug-cc-pVDZ-scan-d09-29-n200
 OpenBabel01151817083D

 23 22  0  0  0  0  0  0  0  0999 V2000
   -2.3768   -0.6615   -6.1810 C   0  0  0  0  0  0  0  0  0  0  0  0
   -1.0897   -0.2658   -6.5339 C   0  0  0  0  0  0  0  0  0  0  0  0
   -0.4152    0.6541   -5.7246 C   0  0  0  0  0  0  0  0  0  0  0  0
   -0.9415    1.0766   -4.4996 C   0  0  0  0  0  0  0  0  0  0  0  0
   -2.2285    0.6831   -4.1438 C   0  0  0  0  0  0  0  0  0  0  0  0
   -2.9335   -0.1667   -4.9993 C   0  0  0  0  0  0  0  0  0  0  0  0
   -2.9467   -1.3518   -6.7975 H   0  0  0  0  0  0  0  0  0  0  0  0
   -0.6168   -0.6349   -7.4413 H   0  0  0  0  0  0  0  0  0  0  0  0
   -0.3552    1.7299   -3.8570 H   0  0  0  0  0  0  0  0  0  0  0  0
   -2.6856    1.0129   -3.2146 H   0  0  0  0  0  0  0  0  0  0  0  0
   -4.2997   -0.5834   -4.6248 N   0  0  0  0  0  0  0  0  0  0  0  0
   -4.7607   -0.1448   -3.5745 O   0  0  0  0  0  0  0  0  0  0  0  0
   -4.8926   -1.3419   -5.3871 O   0  0  0  0  0  0  0  0  0  0  0  0
   -0.9455    2.4676   -6.8837 N   0  0  0  0  0  0  0  0  0  0  0  0
   -1.9056    2.9567   -7.1367 N   0  0  0  0  0  0  0  0  0  0  0  0
    2.1065   -0.0224   -5.4735 S   0  0  0  0  0  0  0  0  0  0  0  0
    3.5073    1.0160   -6.2442 C   0  0  0  0  0  0  0  0  0  0  0  0
    0.9072    1.0031   -6.0502 O   0  0  0  0  0  0  0  0  0  0  0  0
    2.1989    0.0751   -4.0078 O   0  0  0  0  0  0  0  0  0  0  0  0
    2.0450   -1.3191   -6.1672 O   0  0  0  0  0  0  0  0  0  0  0  0
    3.3613    1.0636   -7.5667 F   0  0  0  0  0  0  0  0  0  0  0  0
    3.4923    2.2462   -5.7351 F   0  0  0  0  0  0  0  0  0  0  0  0
    4.6542    0.4087   -5.9340 F   0  0  0  0  0  0  0  0  0  0  0  0
  1  6  1  0  0  0  0
  2  1  2  0  0  0  0
  2  3  1  0  0  0  0
  3  4  2  0  0  0  0
  4  5  1  0  0  0  0
  4  9  1  0  0  0  0
  5 10  1  0  0  0  0
  6 11  1  0  0  0  0
  6  5  2  0  0  0  0
  7  1  1  0  0  0  0
  8  2  1  0  0  0  0
 11 12  2  0  0  0  0
 13 11  2  0  0  0  0
 15 14  3  0  0  0  0
 16 19  2  0  0  0  0
 17 23  1  0  0  0  0
 17 22  1  0  0  0  0
 17 16  1  0  0  0  0
 18  3  1  0  0  0  0
 18 16  1  0  0  0  0
 20 16  2  0  0  0  0
 21 17  1  0  0  0  0
M  END
