Coordinates from ORCA-job p-NO2-Ph-N2-OTf-B3LYPG-aug-cc-pVDZ-scan-d09-29-n200
 OpenBabel01151817083D

 23 22  0  0  0  0  0  0  0  0999 V2000
   -2.2122   -0.8813   -5.6696 C   0  0  0  0  0  0  0  0  0  0  0  0
   -1.3047   -0.0979   -6.4051 C   0  0  0  0  0  0  0  0  0  0  0  0
   -1.3809    1.2097   -6.0443 C   0  0  0  0  0  0  0  0  0  0  0  0
   -2.1091    1.9222   -5.1357 C   0  0  0  0  0  0  0  0  0  0  0  0
   -2.9947    1.0945   -4.4280 C   0  0  0  0  0  0  0  0  0  0  0  0
   -3.0293   -0.2730   -4.7148 C   0  0  0  0  0  0  0  0  0  0  0  0
   -2.2597   -1.9557   -5.8316 H   0  0  0  0  0  0  0  0  0  0  0  0
   -0.5673   -0.4840   -7.1115 H   0  0  0  0  0  0  0  0  0  0  0  0
   -2.0137    2.9882   -4.9553 H   0  0  0  0  0  0  0  0  0  0  0  0
   -3.6434    1.5106   -3.6608 H   0  0  0  0  0  0  0  0  0  0  0  0
   -3.9808   -1.1224   -3.9541 N   0  0  0  0  0  0  0  0  0  0  0  0
   -4.6671   -0.5688   -3.1029 O   0  0  0  0  0  0  0  0  0  0  0  0
   -4.0166   -2.3129   -4.2352 O   0  0  0  0  0  0  0  0  0  0  0  0
   -0.2366    2.3279   -7.0597 N   0  0  0  0  0  0  0  0  0  0  0  0
    0.1946    3.1192   -7.6959 N   0  0  0  0  0  0  0  0  0  0  0  0
    1.9190    0.2917   -5.9394 S   0  0  0  0  0  0  0  0  0  0  0  0
    3.7929    0.5339   -6.0819 C   0  0  0  0  0  0  0  0  0  0  0  0
    1.4371    1.5581   -5.2630 O   0  0  0  0  0  0  0  0  0  0  0  0
    1.7378   -0.9616   -5.1533 O   0  0  0  0  0  0  0  0  0  0  0  0
    1.4558    0.2149   -7.3825 O   0  0  0  0  0  0  0  0  0  0  0  0
    4.0661    1.6519   -6.7811 F   0  0  0  0  0  0  0  0  0  0  0  0
    4.3401    0.6480   -4.8614 F   0  0  0  0  0  0  0  0  0  0  0  0
    4.3517   -0.5120   -6.7109 F   0  0  0  0  0  0  0  0  0  0  0  0
  1  6  2  0  0  0  0
  2  3  2  0  0  0  0
  2  1  1  0  0  0  0
  3  4  1  0  0  0  0
  4  9  1  0  0  0  0
  4  5  2  0  0  0  0
  5 10  1  0  0  0  0
  6  5  1  0  0  0  0
  6 11  1  0  0  0  0
  7  1  1  0  0  0  0
  8  2  1  0  0  0  0
 11 12  2  0  0  0  0
 13 11  2  0  0  0  0
 14  3  1  0  0  0  0
 15 14  1  0  0  0  0
 16 18  2  0  0  0  0
 16 19  1  0  0  0  0
 17 16  1  0  0  0  0
 17 22  1  0  0  0  0
 20 16  2  0  0  0  0
 21 17  1  0  0  0  0
 23 17  1  0  0  0  0
M  RAD  3  14   2  15   3  19   2
M  END
