Coordinates from ORCA-job p-NO2-Ph-N2-OTf-B3LYPG-aug-cc-pVDZ-scan-d09-29-n200
 OpenBabel01151817083D

 23 23  0  0  1  0  0  0  0  0999 V2000
   -1.4075   -0.2602   -5.9855 C   0  0  0  0  0  0  0  0  0  0  0  0
   -0.5242    0.9364   -6.0439 C   0  0  1  0  0  0  0  0  0  0  0  0
   -1.1752    2.1647   -5.4555 C   0  0  0  0  0  0  0  0  0  0  0  0
   -2.2706    2.0254   -4.5064 C   0  0  0  0  0  0  0  0  0  0  0  0
   -2.8925    0.8326   -4.3396 C   0  0  0  0  0  0  0  0  0  0  0  0
   -2.4663   -0.2842   -5.1488 C   0  0  0  0  0  0  0  0  0  0  0  0
   -1.1569   -1.1274   -6.5901 H   0  0  0  0  0  0  0  0  0  0  0  0
   -0.1331    1.1301   -7.0464 H   0  0  0  0  0  0  0  0  0  0  0  0
   -2.5831    2.9097   -3.9524 H   0  0  0  0  0  0  0  0  0  0  0  0
   -3.7166    0.7053   -3.6453 H   0  0  0  0  0  0  0  0  0  0  0  0
   -3.2685   -1.5354   -5.0739 N   0  0  0  0  0  0  0  0  0  0  0  0
   -4.1915   -1.5553   -4.2657 O   0  0  0  0  0  0  0  0  0  0  0  0
   -2.9615   -2.4634   -5.8131 O   0  0  0  0  0  0  0  0  0  0  0  0
   -0.7467    3.2273   -5.7437 N   0  0  0  0  0  0  0  0  0  0  0  0
   -0.3248    4.2536   -6.0270 N   0  0  0  0  0  0  0  0  0  0  0  0
    2.2063    0.7982   -5.8019 S   0  0  0  0  0  0  0  0  0  0  0  0
    2.5739   -0.9828   -6.3580 C   0  0  0  0  0  0  0  0  0  0  0  0
    2.1465    1.6218   -7.0278 O   0  0  0  0  0  0  0  0  0  0  0  0
    3.1020    1.0943   -4.6775 O   0  0  0  0  0  0  0  0  0  0  0  0
    0.6957    0.5863   -5.1876 O   0  0  0  0  0  0  0  0  0  0  0  0
    1.6459   -1.3642   -7.2495 F   0  0  0  0  0  0  0  0  0  0  0  0
    3.7784   -1.0090   -6.9292 F   0  0  0  0  0  0  0  0  0  0  0  0
    2.5493   -1.8028   -5.3092 F   0  0  0  0  0  0  0  0  0  0  0  0
  1  6  2  0  0  0  0
  2  8  1  6  0  0  0
  2  1  1  0  0  0  0
  2  3  1  0  0  0  0
  2 20  1  0  0  0  0
  3  4  2  0  0  0  0
  4  5  1  0  0  0  0
  4  9  1  0  0  0  0
  5 10  1  0  0  0  0
  6 11  1  0  0  0  0
  6  5  1  0  0  0  0
  7  1  1  0  0  0  0
 11 12  2  0  0  0  0
 13 11  2  0  0  0  0
 14  3  1  0  0  0  0
 15 14  1  0  0  0  0
 16 20  1  0  0  0  0
 16 19  2  0  0  0  0
 17 16  1  0  0  0  0
 17 23  1  0  0  0  0
 18 16  2  0  0  0  0
 21 17  1  0  0  0  0
 22 17  1  0  0  0  0
M  RAD  3   5   2  14   2  15   3
M  END
