Coordinates from ORCA-job p-NO2-Ph-N2-OTf-B3LYPG-aug-cc-pVDZ-scan-d09-29-n200
 OpenBabel01151817083D

 23 22  0  0  0  0  0  0  0  0999 V2000
   -2.3878   -0.6845   -6.1677 C   0  0  0  0  0  0  0  0  0  0  0  0
   -1.0854   -0.3178   -6.5016 C   0  0  0  0  0  0  0  0  0  0  0  0
   -0.3905    0.5512   -5.6585 C   0  0  0  0  0  0  0  0  0  0  0  0
   -0.9365    1.0195   -4.4620 C   0  0  0  0  0  0  0  0  0  0  0  0
   -2.2387    0.6542   -4.1259 C   0  0  0  0  0  0  0  0  0  0  0  0
   -2.9454   -0.1861   -4.9886 C   0  0  0  0  0  0  0  0  0  0  0  0
   -2.9701   -1.3484   -6.8012 H   0  0  0  0  0  0  0  0  0  0  0  0
   -0.6125   -0.6861   -7.4094 H   0  0  0  0  0  0  0  0  0  0  0  0
   -0.3502    1.6697   -3.8165 H   0  0  0  0  0  0  0  0  0  0  0  0
   -2.7080    1.0056   -3.2108 H   0  0  0  0  0  0  0  0  0  0  0  0
   -4.3274   -0.5715   -4.6350 N   0  0  0  0  0  0  0  0  0  0  0  0
   -4.7934   -0.1243   -3.5907 O   0  0  0  0  0  0  0  0  0  0  0  0
   -4.9261   -1.3151   -5.4071 O   0  0  0  0  0  0  0  0  0  0  0  0
   -0.9814    2.6350   -6.9817 N   0  0  0  0  0  0  0  0  0  0  0  0
   -1.9195    3.1528   -7.2517 N   0  0  0  0  0  0  0  0  0  0  0  0
    2.1583   -0.0426   -5.4526 S   0  0  0  0  0  0  0  0  0  0  0  0
    3.5078    1.0326   -6.2633 C   0  0  0  0  0  0  0  0  0  0  0  0
    0.9115    0.9391   -6.0081 O   0  0  0  0  0  0  0  0  0  0  0  0
    2.2794    0.0699   -3.9899 O   0  0  0  0  0  0  0  0  0  0  0  0
    2.1195   -1.3466   -6.1344 O   0  0  0  0  0  0  0  0  0  0  0  0
    3.3301    1.0637   -7.5824 F   0  0  0  0  0  0  0  0  0  0  0  0
    3.4647    2.2660   -5.7640 F   0  0  0  0  0  0  0  0  0  0  0  0
    4.6805    0.4650   -5.9749 F   0  0  0  0  0  0  0  0  0  0  0  0
  1  6  1  0  0  0  0
  2  1  2  0  0  0  0
  2  3  1  0  0  0  0
  3  4  2  0  0  0  0
  4  5  1  0  0  0  0
  4  9  1  0  0  0  0
  5 10  1  0  0  0  0
  6 11  1  0  0  0  0
  6  5  2  0  0  0  0
  7  1  1  0  0  0  0
  8  2  1  0  0  0  0
 11 12  2  0  0  0  0
 13 11  2  0  0  0  0
 15 14  3  0  0  0  0
 16 19  2  0  0  0  0
 17 23  1  0  0  0  0
 17 22  1  0  0  0  0
 17 16  1  0  0  0  0
 18  3  1  0  0  0  0
 18 16  1  0  0  0  0
 20 16  2  0  0  0  0
 21 17  1  0  0  0  0
M  END
