Coordinates from ORCA-job p-NO2-Ph-N2-OTf-B3LYPG-aug-cc-pVDZ-scan-d29-49-n200
 OpenBabel01151817083D

 23 22  0  0  1  0  0  0  0  0999 V2000
   -1.2840   -0.4393   -5.6986 C   0  0  0  0  0  0  0  0  0  0  0  0
   -0.4456    0.7837   -5.5074 C   0  0  1  0  0  0  0  0  0  0  0  0
   -1.0138    1.8522   -4.7170 C   0  0  0  0  0  0  0  0  0  0  0  0
   -2.3860    1.9526   -4.5332 C   0  0  0  0  0  0  0  0  0  0  0  0
   -3.0588    0.7307   -4.4661 C   0  0  0  0  0  0  0  0  0  0  0  0
   -2.5109   -0.4219   -5.1199 C   0  0  0  0  0  0  0  0  0  0  0  0
   -0.9864   -1.2295   -6.3843 H   0  0  0  0  0  0  0  0  0  0  0  0
   -0.2697    1.2321   -6.5134 H   0  0  0  0  0  0  0  0  0  0  0  0
   -2.8545    2.8638   -4.1574 H   0  0  0  0  0  0  0  0  0  0  0  0
   -3.9803    0.6144   -3.8970 H   0  0  0  0  0  0  0  0  0  0  0  0
   -3.3775   -1.6222   -5.2403 N   0  0  0  0  0  0  0  0  0  0  0  0
   -4.3925   -1.6474   -4.5516 O   0  0  0  0  0  0  0  0  0  0  0  0
   -3.0216   -2.5079   -6.0071 O   0  0  0  0  0  0  0  0  0  0  0  0
   -0.6163    4.2597   -6.3027 N   0  0  0  0  0  0  0  0  0  0  0  0
   -0.1390    5.2414   -6.1353 N   0  0  0  0  0  0  0  0  0  0  0  0
    2.2302    0.7138   -5.8767 S   0  0  0  0  0  0  0  0  0  0  0  0
    2.6646   -1.0602   -6.4048 C   0  0  0  0  0  0  0  0  0  0  0  0
    1.8426    1.4402   -7.1059 O   0  0  0  0  0  0  0  0  0  0  0  0
    3.2962    1.1648   -4.9761 O   0  0  0  0  0  0  0  0  0  0  0  0
    0.8915    0.3860   -4.9749 O   0  0  0  0  0  0  0  0  0  0  0  0
    1.6441   -1.5732   -7.1087 F   0  0  0  0  0  0  0  0  0  0  0  0
    3.7565   -1.0185   -7.1694 F   0  0  0  0  0  0  0  0  0  0  0  0
    2.8903   -1.8141   -5.3302 F   0  0  0  0  0  0  0  0  0  0  0  0
  1  2  1  0  0  0  0
  1  6  2  0  0  0  0
  2  8  1  6  0  0  0
  2 20  1  0  0  0  0
  2  3  1  0  0  0  0
  3  4  1  0  0  0  0
  4  5  1  0  0  0  0
  4  9  1  0  0  0  0
  5 10  1  0  0  0  0
  6  5  1  0  0  0  0
  7  1  1  0  0  0  0
 11  6  1  0  0  0  0
 11 12  2  0  0  0  0
 13 11  2  0  0  0  0
 14 15  3  0  0  0  0
 16 19  2  0  0  0  0
 16 20  1  0  0  0  0
 17 16  1  0  0  0  0
 17 23  1  0  0  0  0
 18 16  2  0  0  0  0
 21 17  1  0  0  0  0
 22 17  1  0  0  0  0
M  RAD  3   3   3   4   2   5   2
M  END
