Coordinates from ORCA-job p-NO2-Ph-N2-OTf-B3LYPG-aug-cc-pVDZ-scan-d29-49-n200
 OpenBabel01151817083D

 23 22  0  0  1  0  0  0  0  0999 V2000
   -1.2967   -0.2270   -5.6519 C   0  0  0  0  0  0  0  0  0  0  0  0
   -0.4010    0.7848   -5.0125 C   0  0  1  0  0  0  0  0  0  0  0  0
   -0.9224    1.5136   -3.8781 C   0  0  0  0  0  0  0  0  0  0  0  0
   -2.2956    1.6247   -3.6892 C   0  0  0  0  0  0  0  0  0  0  0  0
   -3.0459    0.5202   -4.0993 C   0  0  0  0  0  0  0  0  0  0  0  0
   -2.5422   -0.3429   -5.1265 C   0  0  0  0  0  0  0  0  0  0  0  0
   -1.0167   -0.7312   -6.5743 H   0  0  0  0  0  0  0  0  0  0  0  0
   -0.1946    1.5670   -5.7851 H   0  0  0  0  0  0  0  0  0  0  0  0
   -2.7252    2.3547   -3.0011 H   0  0  0  0  0  0  0  0  0  0  0  0
   -3.9987    0.2697   -3.6345 H   0  0  0  0  0  0  0  0  0  0  0  0
   -3.4693   -1.3550   -5.6945 N   0  0  0  0  0  0  0  0  0  0  0  0
   -4.5072   -1.5679   -5.0761 O   0  0  0  0  0  0  0  0  0  0  0  0
   -3.1359   -1.9150   -6.7309 O   0  0  0  0  0  0  0  0  0  0  0  0
   -0.5233    3.7374   -7.8603 N   0  0  0  0  0  0  0  0  0  0  0  0
   -0.1711    4.5200   -8.5546 N   0  0  0  0  0  0  0  0  0  0  0  0
    2.2696    0.6941   -5.4234 S   0  0  0  0  0  0  0  0  0  0  0  0
    2.6077   -0.8079   -6.5389 C   0  0  0  0  0  0  0  0  0  0  0  0
    1.9380    1.8222   -6.3207 O   0  0  0  0  0  0  0  0  0  0  0  0
    3.3496    0.7407   -4.4325 O   0  0  0  0  0  0  0  0  0  0  0  0
    0.9053    0.1500   -4.6784 O   0  0  0  0  0  0  0  0  0  0  0  0
    1.5695   -0.9830   -7.3706 F   0  0  0  0  0  0  0  0  0  0  0  0
    3.7108   -0.5672   -7.2487 F   0  0  0  0  0  0  0  0  0  0  0  0
    2.7744   -1.9008   -5.7960 F   0  0  0  0  0  0  0  0  0  0  0  0
  1  6  2  0  0  0  0
  1  2  1  0  0  0  0
  2  8  1  6  0  0  0
  2 20  1  0  0  0  0
  2  3  1  0  0  0  0
  3  4  1  0  0  0  0
  4  9  1  0  0  0  0
  5  4  1  0  0  0  0
  5 10  1  0  0  0  0
  6  5  1  0  0  0  0
  7  1  1  0  0  0  0
 11  6  1  0  0  0  0
 11 12  2  0  0  0  0
 13 11  2  0  0  0  0
 15 14  3  0  0  0  0
 16 20  1  0  0  0  0
 16 19  2  0  0  0  0
 17 23  1  0  0  0  0
 17 16  1  0  0  0  0
 18 16  2  0  0  0  0
 21 17  1  0  0  0  0
 22 17  1  0  0  0  0
M  RAD  3   3   3   4   2   5   2
M  END
