Coordinates from ORCA-job p-NO2-Ph-N2-OTf-B3LYPG-aug-cc-pVDZ-scan-d29-49-n200
 OpenBabel01151817083D

 23 22  0  0  1  0  0  0  0  0999 V2000
   -1.2879   -0.4378   -5.6763 C   0  0  0  0  0  0  0  0  0  0  0  0
   -0.4407    0.7539   -5.3675 C   0  0  1  0  0  0  0  0  0  0  0  0
   -0.9968    1.7527   -4.4852 C   0  0  0  0  0  0  0  0  0  0  0  0
   -2.3716    1.8539   -4.3120 C   0  0  0  0  0  0  0  0  0  0  0  0
   -3.0641    0.6418   -4.3673 C   0  0  0  0  0  0  0  0  0  0  0  0
   -2.5226   -0.4554   -5.1138 C   0  0  0  0  0  0  0  0  0  0  0  0
   -0.9896   -1.1702   -6.4233 H   0  0  0  0  0  0  0  0  0  0  0  0
   -0.2709    1.3000   -6.3285 H   0  0  0  0  0  0  0  0  0  0  0  0
   -2.8342    2.7336   -3.8618 H   0  0  0  0  0  0  0  0  0  0  0  0
   -3.9981    0.4894   -3.8277 H   0  0  0  0  0  0  0  0  0  0  0  0
   -3.4011   -1.6300   -5.3488 N   0  0  0  0  0  0  0  0  0  0  0  0
   -4.4214   -1.7062   -4.6719 O   0  0  0  0  0  0  0  0  0  0  0  0
   -3.0495   -2.4448   -6.1922 O   0  0  0  0  0  0  0  0  0  0  0  0
   -0.5543    4.5564   -6.7860 N   0  0  0  0  0  0  0  0  0  0  0  0
   -0.0522    5.5383   -6.7366 N   0  0  0  0  0  0  0  0  0  0  0  0
    2.2263    0.6836   -5.7843 S   0  0  0  0  0  0  0  0  0  0  0  0
    2.6479   -1.0559   -6.4256 C   0  0  0  0  0  0  0  0  0  0  0  0
    1.8253    1.4854   -6.9614 O   0  0  0  0  0  0  0  0  0  0  0  0
    3.3052    1.0751   -4.8715 O   0  0  0  0  0  0  0  0  0  0  0  0
    0.8969    0.3039   -4.8878 O   0  0  0  0  0  0  0  0  0  0  0  0
    1.6193   -1.5208   -7.1505 F   0  0  0  0  0  0  0  0  0  0  0  0
    3.7330   -0.9703   -7.1961 F   0  0  0  0  0  0  0  0  0  0  0  0
    2.8802   -1.8757   -5.4019 F   0  0  0  0  0  0  0  0  0  0  0  0
  1  2  1  0  0  0  0
  1  6  2  0  0  0  0
  2  8  1  6  0  0  0
  2 20  1  0  0  0  0
  2  3  1  0  0  0  0
  3  4  1  0  0  0  0
  4  9  1  0  0  0  0
  5  4  1  0  0  0  0
  5 10  1  0  0  0  0
  6  5  1  0  0  0  0
  7  1  1  0  0  0  0
 11  6  1  0  0  0  0
 11 12  2  0  0  0  0
 13 11  2  0  0  0  0
 14 15  3  0  0  0  0
 16 20  1  0  0  0  0
 16 19  2  0  0  0  0
 17 16  1  0  0  0  0
 17 23  1  0  0  0  0
 18 16  2  0  0  0  0
 21 17  1  0  0  0  0
 22 17  1  0  0  0  0
M  RAD  3   3   3   4   2   5   2
M  END
