Coordinates from ORCA-job p-NO2-Ph-N2-OTf-B3LYPG-aug-cc-pVDZ-scan-d09-29-n200
 OpenBabel01151817083D

 23 22  0  0  0  0  0  0  0  0999 V2000
   -2.3688   -0.6588   -6.1792 C   0  0  0  0  0  0  0  0  0  0  0  0
   -1.0887   -0.2507   -6.5404 C   0  0  0  0  0  0  0  0  0  0  0  0
   -0.4254    0.6949   -5.7481 C   0  0  0  0  0  0  0  0  0  0  0  0
   -0.9450    1.1018   -4.5128 C   0  0  0  0  0  0  0  0  0  0  0  0
   -2.2252    0.6965   -4.1490 C   0  0  0  0  0  0  0  0  0  0  0  0
   -2.9274   -0.1614   -4.9993 C   0  0  0  0  0  0  0  0  0  0  0  0
   -2.9313   -1.3630   -6.7866 H   0  0  0  0  0  0  0  0  0  0  0  0
   -0.6146   -0.6227   -7.4461 H   0  0  0  0  0  0  0  0  0  0  0  0
   -0.3601    1.7594   -3.8735 H   0  0  0  0  0  0  0  0  0  0  0  0
   -2.6784    1.0202   -3.2158 H   0  0  0  0  0  0  0  0  0  0  0  0
   -4.2867   -0.5909   -4.6164 N   0  0  0  0  0  0  0  0  0  0  0  0
   -4.7477   -0.1519   -3.5661 O   0  0  0  0  0  0  0  0  0  0  0  0
   -4.8751   -1.3593   -5.3724 O   0  0  0  0  0  0  0  0  0  0  0  0
   -0.9400    2.4262   -6.8697 N   0  0  0  0  0  0  0  0  0  0  0  0
   -1.9057    2.9069   -7.1219 N   0  0  0  0  0  0  0  0  0  0  0  0
    2.0847   -0.0215   -5.4892 S   0  0  0  0  0  0  0  0  0  0  0  0
    3.5072    1.0090   -6.2302 C   0  0  0  0  0  0  0  0  0  0  0  0
    0.9064    1.0294   -6.0620 O   0  0  0  0  0  0  0  0  0  0  0  0
    2.1647    0.0525   -4.0215 O   0  0  0  0  0  0  0  0  0  0  0  0
    2.0139   -1.3064   -6.2036 O   0  0  0  0  0  0  0  0  0  0  0  0
    3.3748    1.0795   -7.5532 F   0  0  0  0  0  0  0  0  0  0  0  0
    3.5049    2.2312   -5.7019 F   0  0  0  0  0  0  0  0  0  0  0  0
    4.6423    0.3804   -5.9189 F   0  0  0  0  0  0  0  0  0  0  0  0
  1  6  1  0  0  0  0
  2  1  2  0  0  0  0
  2  3  1  0  0  0  0
  3  4  2  0  0  0  0
  4  5  1  0  0  0  0
  4  9  1  0  0  0  0
  5 10  1  0  0  0  0
  6 11  1  0  0  0  0
  6  5  2  0  0  0  0
  7  1  1  0  0  0  0
  8  2  1  0  0  0  0
 11 12  2  0  0  0  0
 13 11  2  0  0  0  0
 15 14  3  0  0  0  0
 16 19  2  0  0  0  0
 17 23  1  0  0  0  0
 17 22  1  0  0  0  0
 17 16  1  0  0  0  0
 18  3  1  0  0  0  0
 18 16  1  0  0  0  0
 20 16  2  0  0  0  0
 21 17  1  0  0  0  0
M  END
