Coordinates from ORCA-job p-NO2-Ph-N2-OTf-B3LYPG-aug-cc-pVDZ-scan-d09-29-n200
 OpenBabel01151817083D

 23 22  0  0  0  0  0  0  0  0999 V2000
   -2.2036   -0.8795   -5.6661 C   0  0  0  0  0  0  0  0  0  0  0  0
   -1.2989   -0.0931   -6.4035 C   0  0  0  0  0  0  0  0  0  0  0  0
   -1.3863    1.2117   -6.0412 C   0  0  0  0  0  0  0  0  0  0  0  0
   -2.1153    1.9270   -5.1376 C   0  0  0  0  0  0  0  0  0  0  0  0
   -2.9972    1.0948   -4.4289 C   0  0  0  0  0  0  0  0  0  0  0  0
   -3.0246   -0.2734   -4.7132 C   0  0  0  0  0  0  0  0  0  0  0  0
   -2.2442   -1.9545   -5.8259 H   0  0  0  0  0  0  0  0  0  0  0  0
   -0.5560   -0.4755   -7.1070 H   0  0  0  0  0  0  0  0  0  0  0  0
   -2.0252    2.9938   -4.9603 H   0  0  0  0  0  0  0  0  0  0  0  0
   -3.6486    1.5095   -3.6631 H   0  0  0  0  0  0  0  0  0  0  0  0
   -3.9724   -1.1260   -3.9516 N   0  0  0  0  0  0  0  0  0  0  0  0
   -4.6614   -0.5744   -3.1013 O   0  0  0  0  0  0  0  0  0  0  0  0
   -4.0020   -2.3172   -4.2306 O   0  0  0  0  0  0  0  0  0  0  0  0
   -0.2398    2.3470   -7.0728 N   0  0  0  0  0  0  0  0  0  0  0  0
    0.1965    3.1379   -7.7056 N   0  0  0  0  0  0  0  0  0  0  0  0
    1.9131    0.2882   -5.9419 S   0  0  0  0  0  0  0  0  0  0  0  0
    3.7880    0.5254   -6.0787 C   0  0  0  0  0  0  0  0  0  0  0  0
    1.4318    1.5532   -5.2637 O   0  0  0  0  0  0  0  0  0  0  0  0
    1.7263   -0.9669   -5.1593 O   0  0  0  0  0  0  0  0  0  0  0  0
    1.4542    0.2142   -7.3867 O   0  0  0  0  0  0  0  0  0  0  0  0
    4.0664    1.6440   -6.7749 F   0  0  0  0  0  0  0  0  0  0  0  0
    4.3321    0.6357   -4.8563 F   0  0  0  0  0  0  0  0  0  0  0  0
    4.3460   -0.5207   -6.7079 F   0  0  0  0  0  0  0  0  0  0  0  0
  1  6  2  0  0  0  0
  2  3  2  0  0  0  0
  2  1  1  0  0  0  0
  3  4  1  0  0  0  0
  4  9  1  0  0  0  0
  4  5  2  0  0  0  0
  5 10  1  0  0  0  0
  6  5  1  0  0  0  0
  6 11  1  0  0  0  0
  7  1  1  0  0  0  0
  8  2  1  0  0  0  0
 11 12  2  0  0  0  0
 13 11  2  0  0  0  0
 14  3  1  0  0  0  0
 15 14  1  0  0  0  0
 16 18  2  0  0  0  0
 16 19  1  0  0  0  0
 17 16  1  0  0  0  0
 17 22  1  0  0  0  0
 20 16  2  0  0  0  0
 21 17  1  0  0  0  0
 23 17  1  0  0  0  0
M  RAD  3  14   2  15   3  19   2
M  END
