Coordinates from ORCA-job p-NO2-Ph-N2-OTf-B3LYPG-aug-cc-pVDZ-scan-d29-49-n200
 OpenBabel01151817083D

 23 22  0  0  1  0  0  0  0  0999 V2000
   -1.2926   -0.4191   -5.6733 C   0  0  0  0  0  0  0  0  0  0  0  0
   -0.4410    0.7545   -5.3111 C   0  0  1  0  0  0  0  0  0  0  0  0
   -0.9942    1.7122   -4.3827 C   0  0  0  0  0  0  0  0  0  0  0  0
   -2.3687    1.8105   -4.2051 C   0  0  0  0  0  0  0  0  0  0  0  0
   -3.0664    0.6052   -4.3177 C   0  0  0  0  0  0  0  0  0  0  0  0
   -2.5279   -0.4583   -5.1132 C   0  0  0  0  0  0  0  0  0  0  0  0
   -0.9965   -1.1178   -6.4529 H   0  0  0  0  0  0  0  0  0  0  0  0
   -0.2703    1.3424   -6.2469 H   0  0  0  0  0  0  0  0  0  0  0  0
   -2.8286    2.6692   -3.7133 H   0  0  0  0  0  0  0  0  0  0  0  0
   -4.0014    0.4318   -3.7865 H   0  0  0  0  0  0  0  0  0  0  0  0
   -3.4098   -1.6183   -5.4022 N   0  0  0  0  0  0  0  0  0  0  0  0
   -4.4313   -1.7215   -4.7309 O   0  0  0  0  0  0  0  0  0  0  0  0
   -3.0593   -2.3955   -6.2809 O   0  0  0  0  0  0  0  0  0  0  0  0
   -0.5150    4.5706   -6.9848 N   0  0  0  0  0  0  0  0  0  0  0  0
   -0.0023    5.5478   -7.0178 N   0  0  0  0  0  0  0  0  0  0  0  0
    2.2240    0.6826   -5.7417 S   0  0  0  0  0  0  0  0  0  0  0  0
    2.6379   -1.0386   -6.4355 C   0  0  0  0  0  0  0  0  0  0  0  0
    1.8223    1.5202   -6.8934 O   0  0  0  0  0  0  0  0  0  0  0  0
    3.3069    1.0437   -4.8210 O   0  0  0  0  0  0  0  0  0  0  0  0
    0.8957    0.2805   -4.8530 O   0  0  0  0  0  0  0  0  0  0  0  0
    1.6067   -1.4776   -7.1725 F   0  0  0  0  0  0  0  0  0  0  0  0
    3.7224   -0.9339   -7.2045 F   0  0  0  0  0  0  0  0  0  0  0  0
    2.8684   -1.8895   -5.4371 F   0  0  0  0  0  0  0  0  0  0  0  0
  1  2  1  0  0  0  0
  1  6  2  0  0  0  0
  2  8  1  6  0  0  0
  2 20  1  0  0  0  0
  2  3  1  0  0  0  0
  3  4  1  0  0  0  0
  4  9  1  0  0  0  0
  5  4  1  0  0  0  0
  5 10  1  0  0  0  0
  6  5  1  0  0  0  0
  7  1  1  0  0  0  0
 11  6  1  0  0  0  0
 11 12  2  0  0  0  0
 13 11  2  0  0  0  0
 15 14  3  0  0  0  0
 16 20  1  0  0  0  0
 16 19  2  0  0  0  0
 17 16  1  0  0  0  0
 17 23  1  0  0  0  0
 18 16  2  0  0  0  0
 21 17  1  0  0  0  0
 22 17  1  0  0  0  0
M  RAD  3   3   3   4   2   5   2
M  END
