Coordinates from ORCA-job p-NO2-Ph-N2-OTf-B3LYPG-aug-cc-pVDZ-scan-d09-29-n200
 OpenBabel01151817083D

 23 22  0  0  0  0  0  0  0  0999 V2000
   -2.3632   -0.6577   -6.1778 C   0  0  0  0  0  0  0  0  0  0  0  0
   -1.0879   -0.2414   -6.5446 C   0  0  0  0  0  0  0  0  0  0  0  0
   -0.4320    0.7207   -5.7636 C   0  0  0  0  0  0  0  0  0  0  0  0
   -0.9471    1.1176   -4.5215 C   0  0  0  0  0  0  0  0  0  0  0  0
   -2.2225    0.7044   -4.1522 C   0  0  0  0  0  0  0  0  0  0  0  0
   -2.9231   -0.1588   -4.9988 C   0  0  0  0  0  0  0  0  0  0  0  0
   -2.9207   -1.3709   -6.7791 H   0  0  0  0  0  0  0  0  0  0  0  0
   -0.6130   -0.6151   -7.4491 H   0  0  0  0  0  0  0  0  0  0  0  0
   -0.3632    1.7785   -3.8846 H   0  0  0  0  0  0  0  0  0  0  0  0
   -2.6729    1.0242   -3.2162 H   0  0  0  0  0  0  0  0  0  0  0  0
   -4.2775   -0.5968   -4.6102 N   0  0  0  0  0  0  0  0  0  0  0  0
   -4.7379   -0.1586   -3.5592 O   0  0  0  0  0  0  0  0  0  0  0  0
   -4.8628   -1.3722   -5.3617 O   0  0  0  0  0  0  0  0  0  0  0  0
   -0.9378    2.4065   -6.8643 N   0  0  0  0  0  0  0  0  0  0  0  0
   -1.9066    2.8827   -7.1166 N   0  0  0  0  0  0  0  0  0  0  0  0
    2.0697   -0.0210   -5.4992 S   0  0  0  0  0  0  0  0  0  0  0  0
    3.5068    1.0033   -6.2205 C   0  0  0  0  0  0  0  0  0  0  0  0
    0.9059    1.0462   -6.0705 O   0  0  0  0  0  0  0  0  0  0  0  0
    2.1408    0.0383   -4.0304 O   0  0  0  0  0  0  0  0  0  0  0  0
    1.9933   -1.2982   -6.2266 O   0  0  0  0  0  0  0  0  0  0  0  0
    3.3842    1.0885   -7.5435 F   0  0  0  0  0  0  0  0  0  0  0  0
    3.5128    2.2201   -5.6798 F   0  0  0  0  0  0  0  0  0  0  0  0
    4.6338    0.3607   -5.9080 F   0  0  0  0  0  0  0  0  0  0  0  0
  1  6  1  0  0  0  0
  2  1  2  0  0  0  0
  2  3  1  0  0  0  0
  3  4  2  0  0  0  0
  4  5  1  0  0  0  0
  4  9  1  0  0  0  0
  5 10  1  0  0  0  0
  6 11  1  0  0  0  0
  6  5  2  0  0  0  0
  7  1  1  0  0  0  0
  8  2  1  0  0  0  0
 11 12  2  0  0  0  0
 13 11  2  0  0  0  0
 15 14  3  0  0  0  0
 16 19  2  0  0  0  0
 17 23  1  0  0  0  0
 17 22  1  0  0  0  0
 17 16  1  0  0  0  0
 18  3  1  0  0  0  0
 18 16  1  0  0  0  0
 20 16  2  0  0  0  0
 21 17  1  0  0  0  0
M  END
