Coordinates from ORCA-job p-NO2-Ph-N2-OTf-B3LYPG-aug-cc-pVDZ-scan-d29-49-n200
 OpenBabel01151817083D

 23 22  0  0  1  0  0  0  0  0999 V2000
   -1.2840   -0.4446   -5.6842 C   0  0  0  0  0  0  0  0  0  0  0  0
   -0.4406    0.7603   -5.4194 C   0  0  1  0  0  0  0  0  0  0  0  0
   -1.0011    1.7889   -4.5738 C   0  0  0  0  0  0  0  0  0  0  0  0
   -2.3757    1.8900   -4.3992 C   0  0  0  0  0  0  0  0  0  0  0  0
   -3.0609    0.6723   -4.4063 C   0  0  0  0  0  0  0  0  0  0  0  0
   -2.5166   -0.4476   -5.1163 C   0  0  0  0  0  0  0  0  0  0  0  0
   -0.9860   -1.2004   -6.4076 H   0  0  0  0  0  0  0  0  0  0  0  0
   -0.2694    1.2701   -6.3990 H   0  0  0  0  0  0  0  0  0  0  0  0
   -2.8418    2.7830   -3.9794 H   0  0  0  0  0  0  0  0  0  0  0  0
   -3.9903    0.5337   -3.8553 H   0  0  0  0  0  0  0  0  0  0  0  0
   -3.3908   -1.6335   -5.3069 N   0  0  0  0  0  0  0  0  0  0  0  0
   -4.4071   -1.6916   -4.6223 O   0  0  0  0  0  0  0  0  0  0  0  0
   -3.0388   -2.4756   -6.1230 O   0  0  0  0  0  0  0  0  0  0  0  0
   -0.5887    4.5150   -6.6186 N   0  0  0  0  0  0  0  0  0  0  0  0
   -0.0996    5.4967   -6.4920 N   0  0  0  0  0  0  0  0  0  0  0  0
    2.2290    0.6863   -5.8228 S   0  0  0  0  0  0  0  0  0  0  0  0
    2.6543   -1.0701   -6.4136 C   0  0  0  0  0  0  0  0  0  0  0  0
    1.8310    1.4542   -7.0230 O   0  0  0  0  0  0  0  0  0  0  0  0
    3.3045    1.1043   -4.9178 O   0  0  0  0  0  0  0  0  0  0  0  0
    0.8974    0.3315   -4.9199 O   0  0  0  0  0  0  0  0  0  0  0  0
    1.6279   -1.5566   -7.1274 F   0  0  0  0  0  0  0  0  0  0  0  0
    3.7411   -1.0050   -7.1837 F   0  0  0  0  0  0  0  0  0  0  0  0
    2.8853   -1.8603   -5.3666 F   0  0  0  0  0  0  0  0  0  0  0  0
  1  2  1  0  0  0  0
  1  6  2  0  0  0  0
  2  8  1  6  0  0  0
  2 20  1  0  0  0  0
  2  3  1  0  0  0  0
  3  4  1  0  0  0  0
  4  9  1  0  0  0  0
  5  4  1  0  0  0  0
  5 10  1  0  0  0  0
  6  5  1  0  0  0  0
  7  1  1  0  0  0  0
 11  6  1  0  0  0  0
 11 12  2  0  0  0  0
 13 11  2  0  0  0  0
 14 15  3  0  0  0  0
 16 20  1  0  0  0  0
 16 19  2  0  0  0  0
 17 16  1  0  0  0  0
 17 23  1  0  0  0  0
 18 16  2  0  0  0  0
 21 17  1  0  0  0  0
 22 17  1  0  0  0  0
M  RAD  3   3   3   4   2   5   2
M  END
