Coordinates from ORCA-job p-NO2-Ph-N2-OTf-B3LYPG-aug-cc-pVDZ-scan-d09-29-n200
 OpenBabel01151817083D

 23 23  0  0  1  0  0  0  0  0999 V2000
   -1.3949   -0.2401   -5.9970 C   0  0  0  0  0  0  0  0  0  0  0  0
   -0.5175    0.9627   -6.0446 C   0  0  1  0  0  0  0  0  0  0  0  0
   -1.1728    2.1948   -5.4439 C   0  0  0  0  0  0  0  0  0  0  0  0
   -2.2644    2.0228   -4.4860 C   0  0  0  0  0  0  0  0  0  0  0  0
   -2.8770    0.8260   -4.3339 C   0  0  0  0  0  0  0  0  0  0  0  0
   -2.4510   -0.2804   -5.1600 C   0  0  0  0  0  0  0  0  0  0  0  0
   -1.1394   -1.0986   -6.6122 H   0  0  0  0  0  0  0  0  0  0  0  0
   -0.1432    1.1735   -7.0509 H   0  0  0  0  0  0  0  0  0  0  0  0
   -2.5747    2.8977   -3.9156 H   0  0  0  0  0  0  0  0  0  0  0  0
   -3.6952    0.6846   -3.6349 H   0  0  0  0  0  0  0  0  0  0  0  0
   -3.2479   -1.5355   -5.0974 N   0  0  0  0  0  0  0  0  0  0  0  0
   -4.1797   -1.5617   -4.2996 O   0  0  0  0  0  0  0  0  0  0  0  0
   -2.9463   -2.4491   -5.8564 O   0  0  0  0  0  0  0  0  0  0  0  0
   -0.7800    3.1990   -5.7119 N   0  0  0  0  0  0  0  0  0  0  0  0
   -0.3669    4.2337   -5.9927 N   0  0  0  0  0  0  0  0  0  0  0  0
    2.2096    0.8021   -5.8447 S   0  0  0  0  0  0  0  0  0  0  0  0
    2.5565   -1.0061   -6.3223 C   0  0  0  0  0  0  0  0  0  0  0  0
    2.1416    1.5710   -7.1043 O   0  0  0  0  0  0  0  0  0  0  0  0
    3.1144    1.1402   -4.7402 O   0  0  0  0  0  0  0  0  0  0  0  0
    0.6994    0.6268   -5.2040 O   0  0  0  0  0  0  0  0  0  0  0  0
    1.6239   -1.4157   -7.1953 F   0  0  0  0  0  0  0  0  0  0  0  0
    3.7601   -1.0688   -6.8922 F   0  0  0  0  0  0  0  0  0  0  0  0
    2.5248   -1.7780   -5.2380 F   0  0  0  0  0  0  0  0  0  0  0  0
  1  6  2  0  0  0  0
  2  8  1  6  0  0  0
  2  1  1  0  0  0  0
  2  3  1  0  0  0  0
  2 20  1  0  0  0  0
  3  4  2  0  0  0  0
  4  5  1  0  0  0  0
  4  9  1  0  0  0  0
  5 10  1  0  0  0  0
  6 11  1  0  0  0  0
  6  5  1  0  0  0  0
  7  1  1  0  0  0  0
 11 12  2  0  0  0  0
 13 11  2  0  0  0  0
 14  3  1  0  0  0  0
 15 14  1  0  0  0  0
 16 20  1  0  0  0  0
 16 19  2  0  0  0  0
 17 16  1  0  0  0  0
 17 23  1  0  0  0  0
 18 16  2  0  0  0  0
 21 17  1  0  0  0  0
 22 17  1  0  0  0  0
M  RAD  3   5   2  14   2  15   3
M  END
