Coordinates from ORCA-job p-NO2-Ph-N2-OTf-B3LYPG-aug-cc-pVDZ-scan-d09-29-n200
 OpenBabel01151817083D

 23 22  0  0  0  0  0  0  0  0999 V2000
   -2.3605   -0.6595   -6.1755 C   0  0  0  0  0  0  0  0  0  0  0  0
   -1.0876   -0.2399   -6.5453 C   0  0  0  0  0  0  0  0  0  0  0  0
   -0.4352    0.7331   -5.7718 C   0  0  0  0  0  0  0  0  0  0  0  0
   -0.9478    1.1235   -4.5248 C   0  0  0  0  0  0  0  0  0  0  0  0
   -2.2207    0.7070   -4.1526 C   0  0  0  0  0  0  0  0  0  0  0  0
   -2.9210   -0.1587   -4.9974 C   0  0  0  0  0  0  0  0  0  0  0  0
   -2.9157   -1.3777   -6.7732 H   0  0  0  0  0  0  0  0  0  0  0  0
   -0.6122   -0.6155   -7.4487 H   0  0  0  0  0  0  0  0  0  0  0  0
   -0.3641    1.7857   -3.8889 H   0  0  0  0  0  0  0  0  0  0  0  0
   -2.6695    1.0247   -3.2151 H   0  0  0  0  0  0  0  0  0  0  0  0
   -4.2732   -0.5999   -4.6060 N   0  0  0  0  0  0  0  0  0  0  0  0
   -4.7377   -0.1526   -3.5606 O   0  0  0  0  0  0  0  0  0  0  0  0
   -4.8621   -1.3691   -5.3610 O   0  0  0  0  0  0  0  0  0  0  0  0
   -0.9353    2.3920   -6.8594 N   0  0  0  0  0  0  0  0  0  0  0  0
   -1.9058    2.8658   -7.1117 N   0  0  0  0  0  0  0  0  0  0  0  0
    2.0639   -0.0207   -5.5058 S   0  0  0  0  0  0  0  0  0  0  0  0
    3.5065    1.0035   -6.2161 C   0  0  0  0  0  0  0  0  0  0  0  0
    0.9059    1.0532   -6.0753 O   0  0  0  0  0  0  0  0  0  0  0  0
    2.1306    0.0297   -4.0365 O   0  0  0  0  0  0  0  0  0  0  0  0
    1.9868   -1.2932   -6.2413 O   0  0  0  0  0  0  0  0  0  0  0  0
    3.3885    1.0977   -7.5390 F   0  0  0  0  0  0  0  0  0  0  0  0
    3.5148    2.2169   -5.6677 F   0  0  0  0  0  0  0  0  0  0  0  0
    4.6303    0.3552   -5.9042 F   0  0  0  0  0  0  0  0  0  0  0  0
  1  6  1  0  0  0  0
  2  1  2  0  0  0  0
  2  3  1  0  0  0  0
  3  4  2  0  0  0  0
  4  5  1  0  0  0  0
  4  9  1  0  0  0  0
  5 10  1  0  0  0  0
  6 11  1  0  0  0  0
  6  5  2  0  0  0  0
  7  1  1  0  0  0  0
  8  2  1  0  0  0  0
 11 12  2  0  0  0  0
 13 11  2  0  0  0  0
 15 14  3  0  0  0  0
 16 19  2  0  0  0  0
 17 23  1  0  0  0  0
 17 22  1  0  0  0  0
 17 16  1  0  0  0  0
 18  3  1  0  0  0  0
 18 16  1  0  0  0  0
 20 16  2  0  0  0  0
 21 17  1  0  0  0  0
M  END
