Coordinates from ORCA-job p-NO2-Ph-N2-OTf-B3LYPG-aug-cc-pVDZ-scan-d29-49-n200
 OpenBabel01151817083D

 23 22  0  0  1  0  0  0  0  0999 V2000
   -1.2815   -0.4375   -5.7025 C   0  0  0  0  0  0  0  0  0  0  0  0
   -0.4431    0.7834   -5.5013 C   0  0  1  0  0  0  0  0  0  0  0  0
   -1.0144    1.8455   -4.7051 C   0  0  0  0  0  0  0  0  0  0  0  0
   -2.3854    1.9472   -4.5210 C   0  0  0  0  0  0  0  0  0  0  0  0
   -3.0552    0.7223   -4.4577 C   0  0  0  0  0  0  0  0  0  0  0  0
   -2.5075   -0.4245   -5.1207 C   0  0  0  0  0  0  0  0  0  0  0  0
   -0.9870   -1.2211   -6.3972 H   0  0  0  0  0  0  0  0  0  0  0  0
   -0.2640    1.2395   -6.5034 H   0  0  0  0  0  0  0  0  0  0  0  0
   -2.8545    2.8564   -4.1416 H   0  0  0  0  0  0  0  0  0  0  0  0
   -3.9727    0.5999   -3.8836 H   0  0  0  0  0  0  0  0  0  0  0  0
   -3.3738   -1.6245   -5.2477 N   0  0  0  0  0  0  0  0  0  0  0  0
   -4.3831   -1.6588   -4.5512 O   0  0  0  0  0  0  0  0  0  0  0  0
   -3.0237   -2.5003   -6.0284 O   0  0  0  0  0  0  0  0  0  0  0  0
   -0.6278    4.3073   -6.3400 N   0  0  0  0  0  0  0  0  0  0  0  0
   -0.1522    5.2895   -6.1706 N   0  0  0  0  0  0  0  0  0  0  0  0
    2.2328    0.7061   -5.8698 S   0  0  0  0  0  0  0  0  0  0  0  0
    2.6592   -1.0688   -6.4016 C   0  0  0  0  0  0  0  0  0  0  0  0
    1.8483    1.4366   -7.0975 O   0  0  0  0  0  0  0  0  0  0  0  0
    3.3016    1.1498   -4.9689 O   0  0  0  0  0  0  0  0  0  0  0  0
    0.8936    0.3852   -4.9668 O   0  0  0  0  0  0  0  0  0  0  0  0
    1.6369   -1.5758   -7.1072 F   0  0  0  0  0  0  0  0  0  0  0  0
    3.7517   -1.0303   -7.1655 F   0  0  0  0  0  0  0  0  0  0  0  0
    2.8809   -1.8260   -5.3285 F   0  0  0  0  0  0  0  0  0  0  0  0
  1  2  1  0  0  0  0
  1  6  2  0  0  0  0
  2  8  1  6  0  0  0
  2 20  1  0  0  0  0
  2  3  1  0  0  0  0
  3  4  1  0  0  0  0
  4  5  1  0  0  0  0
  4  9  1  0  0  0  0
  5 10  1  0  0  0  0
  6  5  1  0  0  0  0
  7  1  1  0  0  0  0
 11  6  1  0  0  0  0
 11 12  2  0  0  0  0
 13 11  2  0  0  0  0
 14 15  3  0  0  0  0
 16 19  2  0  0  0  0
 16 20  1  0  0  0  0
 17 16  1  0  0  0  0
 17 23  1  0  0  0  0
 18 16  2  0  0  0  0
 21 17  1  0  0  0  0
 22 17  1  0  0  0  0
M  RAD  3   3   3   4   2   5   2
M  END
