Coordinates from ORCA-job p-NO2-Ph-N2-OTf-B3LYPG-aug-cc-pVDZ-scan-d09-29-n200
 OpenBabel01151817083D

 23 22  0  0  0  0  0  0  0  0999 V2000
   -2.3893   -0.7109   -6.1506 C   0  0  0  0  0  0  0  0  0  0  0  0
   -1.0819   -0.3546   -6.4783 C   0  0  0  0  0  0  0  0  0  0  0  0
   -0.3796    0.4933   -5.6215 C   0  0  0  0  0  0  0  0  0  0  0  0
   -0.9329    0.9825   -4.4381 C   0  0  0  0  0  0  0  0  0  0  0  0
   -2.2402    0.6273   -4.1086 C   0  0  0  0  0  0  0  0  0  0  0  0
   -2.9469   -0.2116   -4.9722 C   0  0  0  0  0  0  0  0  0  0  0  0
   -2.9762   -1.3645   -6.7905 H   0  0  0  0  0  0  0  0  0  0  0  0
   -0.6086   -0.7190   -7.3874 H   0  0  0  0  0  0  0  0  0  0  0  0
   -0.3464    1.6352   -3.7952 H   0  0  0  0  0  0  0  0  0  0  0  0
   -2.7140    0.9887   -3.1996 H   0  0  0  0  0  0  0  0  0  0  0  0
   -4.3340   -0.5857   -4.6257 N   0  0  0  0  0  0  0  0  0  0  0  0
   -4.8025   -0.1330   -3.5850 O   0  0  0  0  0  0  0  0  0  0  0  0
   -4.9352   -1.3233   -5.4016 O   0  0  0  0  0  0  0  0  0  0  0  0
   -1.0251    2.8362   -7.1098 N   0  0  0  0  0  0  0  0  0  0  0  0
   -1.9367    3.3875   -7.4009 N   0  0  0  0  0  0  0  0  0  0  0  0
    2.1808   -0.0630   -5.4396 S   0  0  0  0  0  0  0  0  0  0  0  0
    3.5077    1.0304   -6.2629 C   0  0  0  0  0  0  0  0  0  0  0  0
    0.9137    0.9003   -5.9830 O   0  0  0  0  0  0  0  0  0  0  0  0
    2.3132    0.0515   -3.9779 O   0  0  0  0  0  0  0  0  0  0  0  0
    2.1531   -1.3678   -6.1206 O   0  0  0  0  0  0  0  0  0  0  0  0
    3.3172    1.0586   -7.5802 F   0  0  0  0  0  0  0  0  0  0  0  0
    3.4519    2.2633   -5.7634 F   0  0  0  0  0  0  0  0  0  0  0  0
    4.6910    0.4795   -5.9853 F   0  0  0  0  0  0  0  0  0  0  0  0
  1  6  1  0  0  0  0
  2  1  2  0  0  0  0
  2  3  1  0  0  0  0
  3  4  2  0  0  0  0
  4  5  1  0  0  0  0
  4  9  1  0  0  0  0
  5 10  1  0  0  0  0
  6 11  1  0  0  0  0
  6  5  2  0  0  0  0
  7  1  1  0  0  0  0
  8  2  1  0  0  0  0
 11 12  2  0  0  0  0
 13 11  2  0  0  0  0
 15 14  3  0  0  0  0
 16 19  2  0  0  0  0
 17 23  1  0  0  0  0
 17 22  1  0  0  0  0
 17 16  1  0  0  0  0
 18  3  1  0  0  0  0
 18 16  1  0  0  0  0
 20 16  2  0  0  0  0
 21 17  1  0  0  0  0
M  END
