Coordinates from ORCA-job p-NO2-Ph-N2-OTf-B3LYPG-aug-cc-pVDZ-scan-d29-49-n200
 OpenBabel01151817083D

 23 22  0  0  1  0  0  0  0  0999 V2000
   -1.2850   -0.4435   -5.6821 C   0  0  0  0  0  0  0  0  0  0  0  0
   -0.4403    0.7581   -5.4062 C   0  0  1  0  0  0  0  0  0  0  0  0
   -1.0010    1.7775   -4.5513 C   0  0  0  0  0  0  0  0  0  0  0  0
   -2.3748    1.8814   -4.3783 C   0  0  0  0  0  0  0  0  0  0  0  0
   -3.0619    0.6647   -4.3974 C   0  0  0  0  0  0  0  0  0  0  0  0
   -2.5182   -0.4500   -5.1157 C   0  0  0  0  0  0  0  0  0  0  0  0
   -0.9870   -1.1936   -6.4114 H   0  0  0  0  0  0  0  0  0  0  0  0
   -0.2696    1.2779   -6.3809 H   0  0  0  0  0  0  0  0  0  0  0  0
   -2.8390    2.7723   -3.9523 H   0  0  0  0  0  0  0  0  0  0  0  0
   -3.9924    0.5227   -3.8489 H   0  0  0  0  0  0  0  0  0  0  0  0
   -3.3935   -1.6333   -5.3171 N   0  0  0  0  0  0  0  0  0  0  0  0
   -4.4109   -1.6956   -4.6345 O   0  0  0  0  0  0  0  0  0  0  0  0
   -3.0413   -2.4692   -6.1394 O   0  0  0  0  0  0  0  0  0  0  0  0
   -0.5814    4.5310   -6.6591 N   0  0  0  0  0  0  0  0  0  0  0  0
   -0.0888    5.5132   -6.5509 N   0  0  0  0  0  0  0  0  0  0  0  0
    2.2286    0.6850   -5.8140 S   0  0  0  0  0  0  0  0  0  0  0  0
    2.6531   -1.0677   -6.4162 C   0  0  0  0  0  0  0  0  0  0  0  0
    1.8293    1.4603   -7.0094 O   0  0  0  0  0  0  0  0  0  0  0  0
    3.3052    1.0977   -4.9078 O   0  0  0  0  0  0  0  0  0  0  0  0
    0.8979    0.3242   -4.9116 O   0  0  0  0  0  0  0  0  0  0  0  0
    1.6260   -1.5497   -7.1320 F   0  0  0  0  0  0  0  0  0  0  0  0
    3.7392   -0.9979   -7.1869 F   0  0  0  0  0  0  0  0  0  0  0  0
    2.8850   -1.8644   -5.3743 F   0  0  0  0  0  0  0  0  0  0  0  0
  1  2  1  0  0  0  0
  1  6  2  0  0  0  0
  2  8  1  6  0  0  0
  2 20  1  0  0  0  0
  2  3  1  0  0  0  0
  3  4  1  0  0  0  0
  4  9  1  0  0  0  0
  5  4  1  0  0  0  0
  5 10  1  0  0  0  0
  6  5  1  0  0  0  0
  7  1  1  0  0  0  0
 11  6  1  0  0  0  0
 11 12  2  0  0  0  0
 13 11  2  0  0  0  0
 14 15  3  0  0  0  0
 16 20  1  0  0  0  0
 16 19  2  0  0  0  0
 17 16  1  0  0  0  0
 17 23  1  0  0  0  0
 18 16  2  0  0  0  0
 21 17  1  0  0  0  0
 22 17  1  0  0  0  0
M  RAD  3   3   3   4   2   5   2
M  END
