Coordinates from ORCA-job p-NO2-Ph-N2-OTf-B3LYPG-aug-cc-pVDZ-scan-d09-29-n200
 OpenBabel01151817083D

 23 22  0  0  0  0  0  0  0  0999 V2000
   -2.3832   -0.6703   -6.1767 C   0  0  0  0  0  0  0  0  0  0  0  0
   -1.0878   -0.2898   -6.5191 C   0  0  0  0  0  0  0  0  0  0  0  0
   -0.4022    0.6023   -5.6912 C   0  0  0  0  0  0  0  0  0  0  0  0
   -0.9391    1.0481   -4.4810 C   0  0  0  0  0  0  0  0  0  0  0  0
   -2.2343    0.6693   -4.1359 C   0  0  0  0  0  0  0  0  0  0  0  0
   -2.9403   -0.1745   -4.9960 C   0  0  0  0  0  0  0  0  0  0  0  0
   -2.9600   -1.3460   -6.8027 H   0  0  0  0  0  0  0  0  0  0  0  0
   -0.6149   -0.6580   -7.4269 H   0  0  0  0  0  0  0  0  0  0  0  0
   -0.3528    1.6990   -3.8361 H   0  0  0  0  0  0  0  0  0  0  0  0
   -2.6980    1.0098   -3.2139 H   0  0  0  0  0  0  0  0  0  0  0  0
   -4.3150   -0.5750   -4.6328 N   0  0  0  0  0  0  0  0  0  0  0  0
   -4.7785   -0.1332   -3.5850 O   0  0  0  0  0  0  0  0  0  0  0  0
   -4.9110   -1.3251   -5.4008 O   0  0  0  0  0  0  0  0  0  0  0  0
   -0.9593    2.5355   -6.9198 N   0  0  0  0  0  0  0  0  0  0  0  0
   -1.9102    3.0369   -7.1790 N   0  0  0  0  0  0  0  0  0  0  0  0
    2.1334   -0.0299   -5.4613 S   0  0  0  0  0  0  0  0  0  0  0  0
    3.5076    1.0252   -6.2569 C   0  0  0  0  0  0  0  0  0  0  0  0
    0.9091    0.9716   -6.0292 O   0  0  0  0  0  0  0  0  0  0  0  0
    2.2418    0.0797   -3.9974 O   0  0  0  0  0  0  0  0  0  0  0  0
    2.0828   -1.3325   -6.1449 O   0  0  0  0  0  0  0  0  0  0  0  0
    3.3443    1.0602   -7.5778 F   0  0  0  0  0  0  0  0  0  0  0  0
    3.4784    2.2588   -5.7569 F   0  0  0  0  0  0  0  0  0  0  0  0
    4.6682    0.4393   -5.9567 F   0  0  0  0  0  0  0  0  0  0  0  0
  1  6  1  0  0  0  0
  2  1  2  0  0  0  0
  2  3  1  0  0  0  0
  3  4  2  0  0  0  0
  4  5  1  0  0  0  0
  4  9  1  0  0  0  0
  5 10  1  0  0  0  0
  6 11  1  0  0  0  0
  6  5  2  0  0  0  0
  7  1  1  0  0  0  0
  8  2  1  0  0  0  0
 11 12  2  0  0  0  0
 13 11  2  0  0  0  0
 15 14  3  0  0  0  0
 16 19  2  0  0  0  0
 17 23  1  0  0  0  0
 17 22  1  0  0  0  0
 17 16  1  0  0  0  0
 18  3  1  0  0  0  0
 18 16  1  0  0  0  0
 20 16  2  0  0  0  0
 21 17  1  0  0  0  0
M  END
