Coordinates from ORCA-job p-NO2-Ph-N2-OTf-B3LYPG-aug-cc-pVDZ-scan-d29-49-n200
 OpenBabel01151817083D

 23 22  0  0  1  0  0  0  0  0999 V2000
   -1.2819   -0.4448   -5.6892 C   0  0  0  0  0  0  0  0  0  0  0  0
   -0.4412    0.7680   -5.4526 C   0  0  1  0  0  0  0  0  0  0  0  0
   -1.0056    1.8125   -4.6297 C   0  0  0  0  0  0  0  0  0  0  0  0
   -2.3792    1.9143   -4.4543 C   0  0  0  0  0  0  0  0  0  0  0  0
   -3.0592    0.6938   -4.4314 C   0  0  0  0  0  0  0  0  0  0  0  0
   -2.5128   -0.4396   -5.1179 C   0  0  0  0  0  0  0  0  0  0  0  0
   -0.9837   -1.2147   -6.3974 H   0  0  0  0  0  0  0  0  0  0  0  0
   -0.2689    1.2551   -6.4429 H   0  0  0  0  0  0  0  0  0  0  0  0
   -2.8470    2.8153   -4.0541 H   0  0  0  0  0  0  0  0  0  0  0  0
   -3.9857    0.5639   -3.8736 H   0  0  0  0  0  0  0  0  0  0  0  0
   -3.3837   -1.6321   -5.2804 N   0  0  0  0  0  0  0  0  0  0  0  0
   -4.3981   -1.6784   -4.5921 O   0  0  0  0  0  0  0  0  0  0  0  0
   -3.0314   -2.4904   -6.0793 O   0  0  0  0  0  0  0  0  0  0  0  0
   -0.6053    4.4445   -6.4968 N   0  0  0  0  0  0  0  0  0  0  0  0
   -0.1233    5.4264   -6.3451 N   0  0  0  0  0  0  0  0  0  0  0  0
    2.2303    0.6933   -5.8459 S   0  0  0  0  0  0  0  0  0  0  0  0
    2.6569   -1.0721   -6.4084 C   0  0  0  0  0  0  0  0  0  0  0  0
    1.8354    1.4424   -7.0591 O   0  0  0  0  0  0  0  0  0  0  0  0
    3.3038    1.1253   -4.9450 O   0  0  0  0  0  0  0  0  0  0  0  0
    0.8969    0.3532   -4.9401 O   0  0  0  0  0  0  0  0  0  0  0  0
    1.6318   -1.5697   -7.1164 F   0  0  0  0  0  0  0  0  0  0  0  0
    3.7451   -1.0190   -7.1775 F   0  0  0  0  0  0  0  0  0  0  0  0
    2.8859   -1.8458   -5.3488 F   0  0  0  0  0  0  0  0  0  0  0  0
  1  2  1  0  0  0  0
  1  6  2  0  0  0  0
  2  8  1  6  0  0  0
  2 20  1  0  0  0  0
  2  3  1  0  0  0  0
  3  4  1  0  0  0  0
  4  5  1  0  0  0  0
  4  9  1  0  0  0  0
  5 10  1  0  0  0  0
  6  5  1  0  0  0  0
  7  1  1  0  0  0  0
 11  6  1  0  0  0  0
 11 12  2  0  0  0  0
 13 11  2  0  0  0  0
 14 15  3  0  0  0  0
 16 19  2  0  0  0  0
 16 20  1  0  0  0  0
 17 16  1  0  0  0  0
 17 23  1  0  0  0  0
 18 16  2  0  0  0  0
 21 17  1  0  0  0  0
 22 17  1  0  0  0  0
M  RAD  3   3   3   4   2   5   2
M  END
