Coordinates from ORCA-job p-NO2-Ph-N2-OTf-B3LYPG-aug-cc-pVDZ-scan-d29-49-n200
 OpenBabel01151817083D

 23 22  0  0  1  0  0  0  0  0999 V2000
   -1.2974   -0.4038   -5.6712 C   0  0  0  0  0  0  0  0  0  0  0  0
   -0.4497    0.7634   -5.2801 C   0  0  1  0  0  0  0  0  0  0  0  0
   -1.0023    1.6959   -4.3252 C   0  0  0  0  0  0  0  0  0  0  0  0
   -2.3778    1.7817   -4.1424 C   0  0  0  0  0  0  0  0  0  0  0  0
   -3.0727    0.5787   -4.2876 C   0  0  0  0  0  0  0  0  0  0  0  0
   -2.5319   -0.4621   -5.1114 C   0  0  0  0  0  0  0  0  0  0  0  0
   -0.9990   -1.0818   -6.4679 H   0  0  0  0  0  0  0  0  0  0  0  0
   -0.2832    1.3745   -6.2018 H   0  0  0  0  0  0  0  0  0  0  0  0
   -2.8395    2.6244   -3.6251 H   0  0  0  0  0  0  0  0  0  0  0  0
   -4.0081    0.3894   -3.7624 H   0  0  0  0  0  0  0  0  0  0  0  0
   -3.4101   -1.6172   -5.4298 N   0  0  0  0  0  0  0  0  0  0  0  0
   -4.4315   -1.7403   -4.7616 O   0  0  0  0  0  0  0  0  0  0  0  0
   -3.0562   -2.3720   -6.3263 O   0  0  0  0  0  0  0  0  0  0  0  0
   -0.4451    4.5434   -7.0866 N   0  0  0  0  0  0  0  0  0  0  0  0
    0.0885    5.5066   -7.1669 N   0  0  0  0  0  0  0  0  0  0  0  0
    2.2132    0.6952   -5.7274 S   0  0  0  0  0  0  0  0  0  0  0  0
    2.6258   -1.0177   -6.4424 C   0  0  0  0  0  0  0  0  0  0  0  0
    1.8051    1.5453   -6.8676 O   0  0  0  0  0  0  0  0  0  0  0  0
    3.3004    1.0468   -4.8083 O   0  0  0  0  0  0  0  0  0  0  0  0
    0.8897    0.2829   -4.8366 O   0  0  0  0  0  0  0  0  0  0  0  0
    1.5932   -1.4488   -7.1821 F   0  0  0  0  0  0  0  0  0  0  0  0
    3.7084   -0.9032   -7.2127 F   0  0  0  0  0  0  0  0  0  0  0  0
    2.8594   -1.8801   -5.4546 F   0  0  0  0  0  0  0  0  0  0  0  0
  1  2  1  0  0  0  0
  1  6  2  0  0  0  0
  2  8  1  6  0  0  0
  2 20  1  0  0  0  0
  2  3  1  0  0  0  0
  3  4  1  0  0  0  0
  4  9  1  0  0  0  0
  5  4  1  0  0  0  0
  5 10  1  0  0  0  0
  6  5  1  0  0  0  0
  7  1  1  0  0  0  0
 11  6  1  0  0  0  0
 11 12  2  0  0  0  0
 13 11  2  0  0  0  0
 15 14  3  0  0  0  0
 16 20  1  0  0  0  0
 16 19  2  0  0  0  0
 17 16  1  0  0  0  0
 17 23  1  0  0  0  0
 18 16  2  0  0  0  0
 21 17  1  0  0  0  0
 22 17  1  0  0  0  0
M  RAD  3   3   3   4   2   5   2
M  END
