Coordinates from ORCA-job p-NO2-Ph-N2-OTf-B3LYPG-aug-cc-pVDZ-scan-d09-29-n200
 OpenBabel01151817083D

 23 23  0  0  1  0  0  0  0  0999 V2000
   -1.4315   -0.2981   -5.9635 C   0  0  0  0  0  0  0  0  0  0  0  0
   -0.5339    0.8841   -6.0418 C   0  0  1  0  0  0  0  0  0  0  0  0
   -1.1781    2.1078   -5.4768 C   0  0  0  0  0  0  0  0  0  0  0  0
   -2.2737    2.0276   -4.5412 C   0  0  0  0  0  0  0  0  0  0  0  0
   -2.9126    0.8442   -4.3457 C   0  0  0  0  0  0  0  0  0  0  0  0
   -2.4932   -0.2924   -5.1261 C   0  0  0  0  0  0  0  0  0  0  0  0
   -1.1915   -1.1801   -6.5504 H   0  0  0  0  0  0  0  0  0  0  0  0
   -0.1229    1.0504   -7.0403 H   0  0  0  0  0  0  0  0  0  0  0  0
   -2.5815    2.9309   -4.0163 H   0  0  0  0  0  0  0  0  0  0  0  0
   -3.7434    0.7441   -3.6553 H   0  0  0  0  0  0  0  0  0  0  0  0
   -3.3089   -1.5339   -5.0276 N   0  0  0  0  0  0  0  0  0  0  0  0
   -4.2320   -1.5298   -4.2193 O   0  0  0  0  0  0  0  0  0  0  0  0
   -3.0111   -2.4794   -5.7482 O   0  0  0  0  0  0  0  0  0  0  0  0
   -0.6903    3.2486   -5.7991 N   0  0  0  0  0  0  0  0  0  0  0  0
   -0.2516    4.2567   -6.0887 N   0  0  0  0  0  0  0  0  0  0  0  0
    2.2001    0.7936   -5.7301 S   0  0  0  0  0  0  0  0  0  0  0  0
    2.6100   -0.9308   -6.4178 C   0  0  0  0  0  0  0  0  0  0  0  0
    2.1470    1.7084   -6.8915 O   0  0  0  0  0  0  0  0  0  0  0  0
    3.0792    1.0188   -4.5757 O   0  0  0  0  0  0  0  0  0  0  0  0
    0.6892    0.5141   -5.1628 O   0  0  0  0  0  0  0  0  0  0  0  0
    1.6940   -1.2640   -7.3416 F   0  0  0  0  0  0  0  0  0  0  0  0
    3.8174   -0.8899   -6.9830 F   0  0  0  0  0  0  0  0  0  0  0  0
    2.5984   -1.8296   -5.4350 F   0  0  0  0  0  0  0  0  0  0  0  0
  1  6  2  0  0  0  0
  2  8  1  6  0  0  0
  2  1  1  0  0  0  0
  2  3  1  0  0  0  0
  2 20  1  0  0  0  0
  3  4  2  0  0  0  0
  4  5  1  0  0  0  0
  4  9  1  0  0  0  0
  5 10  1  0  0  0  0
  6 11  1  0  0  0  0
  6  5  1  0  0  0  0
  7  1  1  0  0  0  0
 11 12  2  0  0  0  0
 13 11  2  0  0  0  0
 14  3  1  0  0  0  0
 15 14  1  0  0  0  0
 16 20  1  0  0  0  0
 16 19  2  0  0  0  0
 17 16  1  0  0  0  0
 17 23  1  0  0  0  0
 18 16  2  0  0  0  0
 21 17  1  0  0  0  0
 22 17  1  0  0  0  0
M  RAD  3   5   2  14   2  15   3
M  END
