Coordinates from ORCA-job p-NO2-Ph-N2-OTf-B3LYPG-aug-cc-pVDZ-scan-d29-49-n200
 OpenBabel01151817083D

 23 22  0  0  1  0  0  0  0  0999 V2000
   -1.2933   -0.4169   -5.6741 C   0  0  0  0  0  0  0  0  0  0  0  0
   -0.4419    0.7561   -5.3093 C   0  0  1  0  0  0  0  0  0  0  0  0
   -0.9952    1.7114   -4.3783 C   0  0  0  0  0  0  0  0  0  0  0  0
   -2.3698    1.8082   -4.1999 C   0  0  0  0  0  0  0  0  0  0  0  0
   -3.0674    0.6033   -4.3158 C   0  0  0  0  0  0  0  0  0  0  0  0
   -2.5286   -0.4579   -5.1142 C   0  0  0  0  0  0  0  0  0  0  0  0
   -0.9970   -1.1137   -6.4552 H   0  0  0  0  0  0  0  0  0  0  0  0
   -0.2711    1.3459   -6.2440 H   0  0  0  0  0  0  0  0  0  0  0  0
   -2.8296    2.6653   -3.7050 H   0  0  0  0  0  0  0  0  0  0  0  0
   -4.0026    0.4284   -3.7853 H   0  0  0  0  0  0  0  0  0  0  0  0
   -3.4101   -1.6174   -5.4064 N   0  0  0  0  0  0  0  0  0  0  0  0
   -4.4282   -1.7264   -4.7308 O   0  0  0  0  0  0  0  0  0  0  0  0
   -3.0558   -2.3960   -6.2823 O   0  0  0  0  0  0  0  0  0  0  0  0
   -0.5090    4.5709   -6.9929 N   0  0  0  0  0  0  0  0  0  0  0  0
    0.0056    5.5470   -7.0290 N   0  0  0  0  0  0  0  0  0  0  0  0
    2.2231    0.6832   -5.7408 S   0  0  0  0  0  0  0  0  0  0  0  0
    2.6360   -1.0378   -6.4356 C   0  0  0  0  0  0  0  0  0  0  0  0
    1.8217    1.5216   -6.8921 O   0  0  0  0  0  0  0  0  0  0  0  0
    3.3063    1.0433   -4.8201 O   0  0  0  0  0  0  0  0  0  0  0  0
    0.8948    0.2814   -4.8521 O   0  0  0  0  0  0  0  0  0  0  0  0
    1.6044   -1.4760   -7.1725 F   0  0  0  0  0  0  0  0  0  0  0  0
    3.7204   -0.9333   -7.2048 F   0  0  0  0  0  0  0  0  0  0  0  0
    2.8664   -1.8894   -5.4377 F   0  0  0  0  0  0  0  0  0  0  0  0
  1  2  1  0  0  0  0
  1  6  2  0  0  0  0
  2  8  1  6  0  0  0
  2 20  1  0  0  0  0
  2  3  1  0  0  0  0
  3  4  1  0  0  0  0
  4  9  1  0  0  0  0
  5  4  1  0  0  0  0
  5 10  1  0  0  0  0
  6  5  1  0  0  0  0
  7  1  1  0  0  0  0
 11  6  1  0  0  0  0
 11 12  2  0  0  0  0
 13 11  2  0  0  0  0
 15 14  3  0  0  0  0
 16 20  1  0  0  0  0
 16 19  2  0  0  0  0
 17 16  1  0  0  0  0
 17 23  1  0  0  0  0
 18 16  2  0  0  0  0
 21 17  1  0  0  0  0
 22 17  1  0  0  0  0
M  RAD  3   3   3   4   2   5   2
M  END
