Coordinates from ORCA-job p-NO2-Ph-N2-OTf-B3LYPG-aug-cc-pVDZ-scan-d09-29-n200
 OpenBabel01151817083D

 23 22  0  0  0  0  0  0  0  0999 V2000
   -2.1367   -0.6785   -6.0494 C   0  0  0  0  0  0  0  0  0  0  0  0
   -1.1562    0.1937   -6.5434 C   0  0  0  0  0  0  0  0  0  0  0  0
   -1.1559    1.4110   -5.9145 C   0  0  0  0  0  0  0  0  0  0  0  0
   -1.8934    1.8970   -4.8613 C   0  0  0  0  0  0  0  0  0  0  0  0
   -2.8526    0.9933   -4.3932 C   0  0  0  0  0  0  0  0  0  0  0  0
   -2.9558   -0.2616   -5.0013 C   0  0  0  0  0  0  0  0  0  0  0  0
   -2.2410   -1.6792   -6.4605 H   0  0  0  0  0  0  0  0  0  0  0  0
   -0.4549   -0.0875   -7.3212 H   0  0  0  0  0  0  0  0  0  0  0  0
   -1.7435    2.8781   -4.4213 H   0  0  0  0  0  0  0  0  0  0  0  0
   -3.5074    1.2548   -3.5659 H   0  0  0  0  0  0  0  0  0  0  0  0
   -3.9868   -1.2029   -4.4942 N   0  0  0  0  0  0  0  0  0  0  0  0
   -4.6728   -0.8265   -3.5509 O   0  0  0  0  0  0  0  0  0  0  0  0
   -4.0843   -2.2855   -5.0574 O   0  0  0  0  0  0  0  0  0  0  0  0
    0.0216    2.5403   -6.5312 N   0  0  0  0  0  0  0  0  0  0  0  0
    0.4929    3.3804   -7.0758 N   0  0  0  0  0  0  0  0  0  0  0  0
    2.1373    0.2602   -5.0088 S   0  0  0  0  0  0  0  0  0  0  0  0
    3.1480    0.2989   -6.6139 C   0  0  0  0  0  0  0  0  0  0  0  0
    1.5405    1.6671   -4.9967 O   0  0  0  0  0  0  0  0  0  0  0  0
    3.1232    0.0056   -3.9325 O   0  0  0  0  0  0  0  0  0  0  0  0
    1.1156   -0.8037   -5.2866 O   0  0  0  0  0  0  0  0  0  0  0  0
    2.3195    0.5855   -7.6633 F   0  0  0  0  0  0  0  0  0  0  0  0
    4.0976    1.2453   -6.5764 F   0  0  0  0  0  0  0  0  0  0  0  0
    3.7241   -0.8848   -6.8581 F   0  0  0  0  0  0  0  0  0  0  0  0
  1  6  1  0  0  0  0
  2  1  2  0  0  0  0
  2  3  1  0  0  0  0
  3  4  2  0  0  0  0
  4  9  1  0  0  0  0
  4  5  1  0  0  0  0
  5 10  1  0  0  0  0
  6 11  1  0  0  0  0
  6  5  2  0  0  0  0
  7  1  1  0  0  0  0
  8  2  1  0  0  0  0
 11 12  2  0  0  0  0
 13 11  2  0  0  0  0
 14  3  1  0  0  0  0
 15 14  1  0  0  0  0
 16 18  2  0  0  0  0
 16 19  1  0  0  0  0
 17 22  1  0  0  0  0
 17 16  1  0  0  0  0
 20 16  2  0  0  0  0
 21 17  1  0  0  0  0
 23 17  1  0  0  0  0
M  RAD  3  14   2  15   3  19   2
M  END
