Coordinates from ORCA-job p-NO2-Ph-N2-OTf-B3LYPG-aug-cc-pVDZ-scan-d29-49-n200
 OpenBabel01151817083D

 23 22  0  0  1  0  0  0  0  0999 V2000
   -1.2886   -0.2207   -5.6599 C   0  0  0  0  0  0  0  0  0  0  0  0
   -0.3910    0.7897   -5.0209 C   0  0  1  0  0  0  0  0  0  0  0  0
   -0.9123    1.5249   -3.8907 C   0  0  0  0  0  0  0  0  0  0  0  0
   -2.2861    1.6422   -3.7074 C   0  0  0  0  0  0  0  0  0  0  0  0
   -3.0402    0.5404   -4.1169 C   0  0  0  0  0  0  0  0  0  0  0  0
   -2.5366   -0.3289   -5.1391 C   0  0  0  0  0  0  0  0  0  0  0  0
   -1.0069   -0.7303   -6.5787 H   0  0  0  0  0  0  0  0  0  0  0  0
   -0.1807    1.5690   -5.7954 H   0  0  0  0  0  0  0  0  0  0  0  0
   -2.7151    2.3764   -3.0233 H   0  0  0  0  0  0  0  0  0  0  0  0
   -3.9965    0.2964   -3.6558 H   0  0  0  0  0  0  0  0  0  0  0  0
   -3.4661   -1.3389   -5.7069 N   0  0  0  0  0  0  0  0  0  0  0  0
   -4.5098   -1.5409   -5.0947 O   0  0  0  0  0  0  0  0  0  0  0  0
   -3.1333   -1.9012   -6.7423 O   0  0  0  0  0  0  0  0  0  0  0  0
   -0.5895    3.6640   -7.7769 N   0  0  0  0  0  0  0  0  0  0  0  0
   -0.2745    4.4575   -8.4765 N   0  0  0  0  0  0  0  0  0  0  0  0
    2.2807    0.6895   -5.4228 S   0  0  0  0  0  0  0  0  0  0  0  0
    2.6174   -0.8153   -6.5349 C   0  0  0  0  0  0  0  0  0  0  0  0
    1.9563    1.8174   -6.3231 O   0  0  0  0  0  0  0  0  0  0  0  0
    3.3573    0.7340   -4.4283 O   0  0  0  0  0  0  0  0  0  0  0  0
    0.9120    0.1512   -4.6819 O   0  0  0  0  0  0  0  0  0  0  0  0
    1.5811   -0.9884   -7.3695 F   0  0  0  0  0  0  0  0  0  0  0  0
    3.7234   -0.5792   -7.2418 F   0  0  0  0  0  0  0  0  0  0  0  0
    2.7783   -1.9076   -5.7898 F   0  0  0  0  0  0  0  0  0  0  0  0
  1  6  2  0  0  0  0
  1  2  1  0  0  0  0
  2  8  1  6  0  0  0
  2 20  1  0  0  0  0
  2  3  1  0  0  0  0
  3  4  1  0  0  0  0
  4  9  1  0  0  0  0
  5  4  1  0  0  0  0
  5 10  1  0  0  0  0
  6  5  1  0  0  0  0
  7  1  1  0  0  0  0
 11  6  1  0  0  0  0
 11 12  2  0  0  0  0
 13 11  2  0  0  0  0
 15 14  3  0  0  0  0
 16 20  1  0  0  0  0
 16 19  2  0  0  0  0
 17 23  1  0  0  0  0
 17 16  1  0  0  0  0
 18 16  2  0  0  0  0
 21 17  1  0  0  0  0
 22 17  1  0  0  0  0
M  RAD  3   3   3   4   2   5   2
M  END
