Coordinates from ORCA-job p-NO2-Ph-N2-OTf-B3LYPG-aug-cc-pVDZ-scan-d09-29-n200
 OpenBabel01151817083D

 23 22  0  0  0  0  0  0  0  0999 V2000
   -2.3862   -0.6781   -6.1718 C   0  0  0  0  0  0  0  0  0  0  0  0
   -1.0865   -0.3060   -6.5090 C   0  0  0  0  0  0  0  0  0  0  0  0
   -0.3951    0.5719   -5.6717 C   0  0  0  0  0  0  0  0  0  0  0  0
   -0.9377    1.0313   -4.4699 C   0  0  0  0  0  0  0  0  0  0  0  0
   -2.2371    0.6608   -4.1303 C   0  0  0  0  0  0  0  0  0  0  0  0
   -2.9436   -0.1808   -4.9921 C   0  0  0  0  0  0  0  0  0  0  0  0
   -2.9664   -1.3465   -6.8025 H   0  0  0  0  0  0  0  0  0  0  0  0
   -0.6136   -0.6743   -7.4168 H   0  0  0  0  0  0  0  0  0  0  0  0
   -0.3513    1.6817   -3.8245 H   0  0  0  0  0  0  0  0  0  0  0  0
   -2.7043    1.0079   -3.2125 H   0  0  0  0  0  0  0  0  0  0  0  0
   -4.3228   -0.5720   -4.6347 N   0  0  0  0  0  0  0  0  0  0  0  0
   -4.7878   -0.1270   -3.5891 O   0  0  0  0  0  0  0  0  0  0  0  0
   -4.9205   -1.3181   -5.4054 O   0  0  0  0  0  0  0  0  0  0  0  0
   -0.9708    2.5889   -6.9527 N   0  0  0  0  0  0  0  0  0  0  0  0
   -1.9146    3.0995   -7.2179 N   0  0  0  0  0  0  0  0  0  0  0  0
    2.1485   -0.0369   -5.4562 S   0  0  0  0  0  0  0  0  0  0  0  0
    3.5077    1.0302   -6.2613 C   0  0  0  0  0  0  0  0  0  0  0  0
    0.9104    0.9525   -6.0168 O   0  0  0  0  0  0  0  0  0  0  0  0
    2.2647    0.0748   -3.9930 O   0  0  0  0  0  0  0  0  0  0  0  0
    2.1050   -1.3406   -6.1384 O   0  0  0  0  0  0  0  0  0  0  0  0
    3.3356    1.0625   -7.5812 F   0  0  0  0  0  0  0  0  0  0  0  0
    3.4700    2.2639   -5.7621 F   0  0  0  0  0  0  0  0  0  0  0  0
    4.6757    0.4555   -5.9681 F   0  0  0  0  0  0  0  0  0  0  0  0
  1  6  1  0  0  0  0
  2  1  2  0  0  0  0
  2  3  1  0  0  0  0
  3  4  2  0  0  0  0
  4  5  1  0  0  0  0
  4  9  1  0  0  0  0
  5 10  1  0  0  0  0
  6 11  1  0  0  0  0
  6  5  2  0  0  0  0
  7  1  1  0  0  0  0
  8  2  1  0  0  0  0
 11 12  2  0  0  0  0
 13 11  2  0  0  0  0
 15 14  3  0  0  0  0
 16 19  2  0  0  0  0
 17 23  1  0  0  0  0
 17 22  1  0  0  0  0
 17 16  1  0  0  0  0
 18  3  1  0  0  0  0
 18 16  1  0  0  0  0
 20 16  2  0  0  0  0
 21 17  1  0  0  0  0
M  END
