Coordinates from ORCA-job p-NO2-Ph-N2-OTf-B3LYPG-aug-cc-pVDZ-scan-d29-49-n200
 OpenBabel01151817083D

 23 22  0  0  1  0  0  0  0  0999 V2000
   -1.2861   -0.4415   -5.6791 C   0  0  0  0  0  0  0  0  0  0  0  0
   -0.4406    0.7562   -5.3892 C   0  0  1  0  0  0  0  0  0  0  0  0
   -0.9987    1.7675   -4.5227 C   0  0  0  0  0  0  0  0  0  0  0  0
   -2.3734    1.8692   -4.3495 C   0  0  0  0  0  0  0  0  0  0  0  0
   -3.0629    0.6545   -4.3844 C   0  0  0  0  0  0  0  0  0  0  0  0
   -2.5200   -0.4528   -5.1147 C   0  0  0  0  0  0  0  0  0  0  0  0
   -0.9876   -1.1844   -6.4156 H   0  0  0  0  0  0  0  0  0  0  0  0
   -0.2705    1.2870   -6.3584 H   0  0  0  0  0  0  0  0  0  0  0  0
   -2.8373    2.7550   -3.9128 H   0  0  0  0  0  0  0  0  0  0  0  0
   -3.9953    0.5083   -3.8404 H   0  0  0  0  0  0  0  0  0  0  0  0
   -3.3966   -1.6326   -5.3306 N   0  0  0  0  0  0  0  0  0  0  0  0
   -4.4156   -1.7006   -4.6510 O   0  0  0  0  0  0  0  0  0  0  0  0
   -3.0446   -2.4593   -6.1622 O   0  0  0  0  0  0  0  0  0  0  0  0
   -0.5687    4.5441   -6.7142 N   0  0  0  0  0  0  0  0  0  0  0  0
   -0.0716    5.5263   -6.6322 N   0  0  0  0  0  0  0  0  0  0  0  0
    2.2273    0.6845   -5.8012 S   0  0  0  0  0  0  0  0  0  0  0  0
    2.6505   -1.0626   -6.4204 C   0  0  0  0  0  0  0  0  0  0  0  0
    1.8271    1.4714   -6.9885 O   0  0  0  0  0  0  0  0  0  0  0  0
    3.3050    1.0879   -4.8921 O   0  0  0  0  0  0  0  0  0  0  0  0
    0.8973    0.3155   -4.9012 O   0  0  0  0  0  0  0  0  0  0  0  0
    1.6227   -1.5371   -7.1402 F   0  0  0  0  0  0  0  0  0  0  0  0
    3.7361   -0.9859   -7.1911 F   0  0  0  0  0  0  0  0  0  0  0  0
    2.8826   -1.8694   -5.3864 F   0  0  0  0  0  0  0  0  0  0  0  0
  1  2  1  0  0  0  0
  1  6  2  0  0  0  0
  2  8  1  6  0  0  0
  2 20  1  0  0  0  0
  2  3  1  0  0  0  0
  3  4  1  0  0  0  0
  4  9  1  0  0  0  0
  5  4  1  0  0  0  0
  5 10  1  0  0  0  0
  6  5  1  0  0  0  0
  7  1  1  0  0  0  0
 11  6  1  0  0  0  0
 11 12  2  0  0  0  0
 13 11  2  0  0  0  0
 14 15  3  0  0  0  0
 16 20  1  0  0  0  0
 16 19  2  0  0  0  0
 17 16  1  0  0  0  0
 17 23  1  0  0  0  0
 18 16  2  0  0  0  0
 21 17  1  0  0  0  0
 22 17  1  0  0  0  0
M  RAD  3   3   3   4   2   5   2
M  END
