Coordinates from ORCA-job p-NO2-Ph-N2-OTf-B3LYPG-aug-cc-pVDZ-scan-d09-29-n200
 OpenBabel01151817083D

 23 23  0  0  1  0  0  0  0  0999 V2000
   -1.4945   -0.3555   -5.9462 C   0  0  0  0  0  0  0  0  0  0  0  0
   -0.5697    0.7931   -6.0617 C   0  0  1  0  0  0  0  0  0  0  0  0
   -1.1797    2.0150   -5.5176 C   0  0  1  0  0  0  0  0  0  0  0  0
   -2.2624    2.0283   -4.5871 C   0  0  0  0  0  0  0  0  0  0  0  0
   -2.9371    0.8663   -4.3488 C   0  0  0  0  0  0  0  0  0  0  0  0
   -2.5502   -0.2978   -5.0953 C   0  0  0  0  0  0  0  0  0  0  0  0
   -1.2880   -1.2590   -6.5123 H   0  0  0  0  0  0  0  0  0  0  0  0
   -0.1226    0.9149   -7.0486 H   0  0  0  0  0  0  0  0  0  0  0  0
   -2.5426    2.9589   -4.0968 H   0  0  0  0  0  0  0  0  0  0  0  0
   -3.7683    0.8119   -3.6542 H   0  0  0  0  0  0  0  0  0  0  0  0
   -3.3962   -1.5156   -4.9568 N   0  0  0  0  0  0  0  0  0  0  0  0
   -4.3036   -1.4723   -4.1321 O   0  0  0  0  0  0  0  0  0  0  0  0
   -3.1280   -2.4870   -5.6542 O   0  0  0  0  0  0  0  0  0  0  0  0
   -0.6000    3.2387   -5.8831 N   0  0  0  0  0  0  0  0  0  0  0  0
   -0.1326    4.2208   -6.1784 N   0  0  0  0  0  0  0  0  0  0  0  0
    2.1774    0.7746   -5.6215 S   0  0  0  0  0  0  0  0  0  0  0  0
    2.6992   -0.8287   -6.4975 C   0  0  0  0  0  0  0  0  0  0  0  0
    2.1116    1.8173   -6.6733 O   0  0  0  0  0  0  0  0  0  0  0  0
    3.0313    0.9107   -4.4328 O   0  0  0  0  0  0  0  0  0  0  0  0
    0.6801    0.3665   -5.1462 O   0  0  0  0  0  0  0  0  0  0  0  0
    1.8208   -1.1015   -7.4781 F   0  0  0  0  0  0  0  0  0  0  0  0
    3.9129   -0.6586   -7.0258 F   0  0  0  0  0  0  0  0  0  0  0  0
    2.7212   -1.8400   -5.6297 F   0  0  0  0  0  0  0  0  0  0  0  0
  1  6  2  0  0  0  0
  2  8  1  6  0  0  0
  2  1  1  0  0  0  0
  2  3  1  0  0  0  0
  2 20  1  0  0  0  0
  3 14  1  1  0  0  0
  3  4  1  0  0  0  0
  4  5  2  0  0  0  0
  4  9  1  0  0  0  0
  5 10  1  0  0  0  0
  6 11  1  0  0  0  0
  6  5  1  0  0  0  0
  7  1  1  0  0  0  0
 11 12  2  0  0  0  0
 13 11  2  0  0  0  0
 15 14  1  0  0  0  0
 16 20  1  0  0  0  0
 16 19  2  0  0  0  0
 17 23  1  0  0  0  0
 17 16  1  0  0  0  0
 18 16  2  0  0  0  0
 21 17  1  0  0  0  0
 22 17  1  0  0  0  0
M  RAD  3   3   2  14   2  15   3
M  END
