Coordinates from ORCA-job p-NO2-Ph-N2-OTf-B3LYPG-aug-cc-pVDZ-scan-d29-49-n200
 OpenBabel01151817083D

 23 22  0  0  1  0  0  0  0  0999 V2000
   -1.2545   -0.2091   -5.6772 C   0  0  0  0  0  0  0  0  0  0  0  0
   -0.3549    0.7966   -5.0351 C   0  0  1  0  0  0  0  0  0  0  0  0
   -0.8775    1.5596   -3.9270 C   0  0  0  0  0  0  0  0  0  0  0  0
   -2.2553    1.7019   -3.7747 C   0  0  0  0  0  0  0  0  0  0  0  0
   -3.0235    0.6124   -4.1861 C   0  0  0  0  0  0  0  0  0  0  0  0
   -2.5157   -0.2840   -5.1830 C   0  0  0  0  0  0  0  0  0  0  0  0
   -0.9613   -0.7444   -6.5776 H   0  0  0  0  0  0  0  0  0  0  0  0
   -0.1373    1.5754   -5.8086 H   0  0  0  0  0  0  0  0  0  0  0  0
   -2.6853    2.4559   -3.1132 H   0  0  0  0  0  0  0  0  0  0  0  0
   -3.9984    0.3995   -3.7490 H   0  0  0  0  0  0  0  0  0  0  0  0
   -3.4523   -1.2854   -5.7543 N   0  0  0  0  0  0  0  0  0  0  0  0
   -4.5134   -1.4561   -5.1630 O   0  0  0  0  0  0  0  0  0  0  0  0
   -3.1037   -1.8787   -6.7671 O   0  0  0  0  0  0  0  0  0  0  0  0
   -0.8235    3.4702   -7.4927 N   0  0  0  0  0  0  0  0  0  0  0  0
   -0.6052    4.2911   -8.1978 N   0  0  0  0  0  0  0  0  0  0  0  0
    2.3125    0.6733   -5.4340 S   0  0  0  0  0  0  0  0  0  0  0  0
    2.6442   -0.8512   -6.5201 C   0  0  0  0  0  0  0  0  0  0  0  0
    1.9934    1.7870   -6.3546 O   0  0  0  0  0  0  0  0  0  0  0  0
    3.3894    0.7296   -4.4401 O   0  0  0  0  0  0  0  0  0  0  0  0
    0.9411    0.1546   -4.6836 O   0  0  0  0  0  0  0  0  0  0  0  0
    1.6096   -1.0335   -7.3552 F   0  0  0  0  0  0  0  0  0  0  0  0
    3.7533   -0.6319   -7.2276 F   0  0  0  0  0  0  0  0  0  0  0  0
    2.7974   -1.9317   -5.7566 F   0  0  0  0  0  0  0  0  0  0  0  0
  1  6  2  0  0  0  0
  1  2  1  0  0  0  0
  2  8  1  6  0  0  0
  2 20  1  0  0  0  0
  2  3  1  0  0  0  0
  3  4  1  0  0  0  0
  4  9  1  0  0  0  0
  5  4  1  0  0  0  0
  5 10  1  0  0  0  0
  6  5  1  0  0  0  0
  7  1  1  0  0  0  0
 11  6  1  0  0  0  0
 11 12  2  0  0  0  0
 13 11  2  0  0  0  0
 15 14  3  0  0  0  0
 16 20  1  0  0  0  0
 16 19  2  0  0  0  0
 17 23  1  0  0  0  0
 17 16  1  0  0  0  0
 18 16  2  0  0  0  0
 21 17  1  0  0  0  0
 22 17  1  0  0  0  0
M  RAD  3   3   3   4   2   5   2
M  END
