Coordinates from ORCA-job p-NO2-Ph-N2-OTf-B3LYPG-aug-cc-pVDZ-scan-d09-29-n200
 OpenBabel01151817083D

 23 22  0  0  0  0  0  0  0  0999 V2000
   -2.3870   -0.6844   -6.1676 C   0  0  0  0  0  0  0  0  0  0  0  0
   -1.0851   -0.3167   -6.5021 C   0  0  0  0  0  0  0  0  0  0  0  0
   -0.3908    0.5530   -5.6597 C   0  0  0  0  0  0  0  0  0  0  0  0
   -0.9362    1.0204   -4.4629 C   0  0  0  0  0  0  0  0  0  0  0  0
   -2.2380    0.6541   -4.1261 C   0  0  0  0  0  0  0  0  0  0  0  0
   -2.9447   -0.1864   -4.9884 C   0  0  0  0  0  0  0  0  0  0  0  0
   -2.9690   -1.3490   -6.8007 H   0  0  0  0  0  0  0  0  0  0  0  0
   -0.6122   -0.6847   -7.4099 H   0  0  0  0  0  0  0  0  0  0  0  0
   -0.3500    1.6708   -3.8175 H   0  0  0  0  0  0  0  0  0  0  0  0
   -2.7069    1.0050   -3.2106 H   0  0  0  0  0  0  0  0  0  0  0  0
   -4.3261   -0.5729   -4.6341 N   0  0  0  0  0  0  0  0  0  0  0  0
   -4.7942   -0.1211   -3.5928 O   0  0  0  0  0  0  0  0  0  0  0  0
   -4.9268   -1.3119   -5.4091 O   0  0  0  0  0  0  0  0  0  0  0  0
   -0.9805    2.6284   -6.9775 N   0  0  0  0  0  0  0  0  0  0  0  0
   -1.9195    3.1449   -7.2466 N   0  0  0  0  0  0  0  0  0  0  0  0
    2.1571   -0.0416   -5.4532 S   0  0  0  0  0  0  0  0  0  0  0  0
    3.5076    1.0328   -6.2634 C   0  0  0  0  0  0  0  0  0  0  0  0
    0.9110    0.9407   -6.0090 O   0  0  0  0  0  0  0  0  0  0  0  0
    2.2777    0.0706   -3.9905 O   0  0  0  0  0  0  0  0  0  0  0  0
    2.1178   -1.3457   -6.1350 O   0  0  0  0  0  0  0  0  0  0  0  0
    3.3303    1.0640   -7.5825 F   0  0  0  0  0  0  0  0  0  0  0  0
    3.4649    2.2662   -5.7640 F   0  0  0  0  0  0  0  0  0  0  0  0
    4.6798    0.4646   -5.9745 F   0  0  0  0  0  0  0  0  0  0  0  0
  1  6  1  0  0  0  0
  2  1  2  0  0  0  0
  2  3  1  0  0  0  0
  3  4  2  0  0  0  0
  4  5  1  0  0  0  0
  4  9  1  0  0  0  0
  5 10  1  0  0  0  0
  6 11  1  0  0  0  0
  6  5  2  0  0  0  0
  7  1  1  0  0  0  0
  8  2  1  0  0  0  0
 11 12  2  0  0  0  0
 13 11  2  0  0  0  0
 15 14  3  0  0  0  0
 16 19  2  0  0  0  0
 17 23  1  0  0  0  0
 17 22  1  0  0  0  0
 17 16  1  0  0  0  0
 18  3  1  0  0  0  0
 18 16  1  0  0  0  0
 20 16  2  0  0  0  0
 21 17  1  0  0  0  0
M  END
