Coordinates from ORCA-job p-NO2-Ph-N2-OTf-B3LYPG-aug-cc-pVDZ-scan-d29-49-n200
 OpenBabel01151817083D

 23 22  0  0  1  0  0  0  0  0999 V2000
   -1.2874   -0.2206   -5.6610 C   0  0  0  0  0  0  0  0  0  0  0  0
   -0.3894    0.7894   -5.0221 C   0  0  1  0  0  0  0  0  0  0  0  0
   -0.9107    1.5267   -3.8937 C   0  0  0  0  0  0  0  0  0  0  0  0
   -2.2846    1.6459   -3.7119 C   0  0  0  0  0  0  0  0  0  0  0  0
   -3.0397    0.5446   -4.1208 C   0  0  0  0  0  0  0  0  0  0  0  0
   -2.5361   -0.3266   -5.1413 C   0  0  0  0  0  0  0  0  0  0  0  0
   -1.0054   -0.7316   -6.5789 H   0  0  0  0  0  0  0  0  0  0  0  0
   -0.1780    1.5688   -5.7960 H   0  0  0  0  0  0  0  0  0  0  0  0
   -2.7133    2.3818   -3.0295 H   0  0  0  0  0  0  0  0  0  0  0  0
   -3.9970    0.3026   -3.6605 H   0  0  0  0  0  0  0  0  0  0  0  0
   -3.4664   -1.3362   -5.7089 N   0  0  0  0  0  0  0  0  0  0  0  0
   -4.5091   -1.5390   -5.0954 O   0  0  0  0  0  0  0  0  0  0  0  0
   -3.1311   -1.9033   -6.7409 O   0  0  0  0  0  0  0  0  0  0  0  0
   -0.5996    3.6557   -7.7634 N   0  0  0  0  0  0  0  0  0  0  0  0
   -0.2897    4.4513   -8.4630 N   0  0  0  0  0  0  0  0  0  0  0  0
    2.2819    0.6880   -5.4223 S   0  0  0  0  0  0  0  0  0  0  0  0
    2.6188   -0.8163   -6.5350 C   0  0  0  0  0  0  0  0  0  0  0  0
    1.9577    1.8165   -6.3220 O   0  0  0  0  0  0  0  0  0  0  0  0
    3.3584    0.7319   -4.4276 O   0  0  0  0  0  0  0  0  0  0  0  0
    0.9128    0.1497   -4.6820 O   0  0  0  0  0  0  0  0  0  0  0  0
    1.5829   -0.9888   -7.3703 F   0  0  0  0  0  0  0  0  0  0  0  0
    3.7252   -0.5803   -7.2412 F   0  0  0  0  0  0  0  0  0  0  0  0
    2.7790   -1.9090   -5.7903 F   0  0  0  0  0  0  0  0  0  0  0  0
  1  6  2  0  0  0  0
  1  2  1  0  0  0  0
  2  8  1  6  0  0  0
  2 20  1  0  0  0  0
  2  3  1  0  0  0  0
  3  4  1  0  0  0  0
  4  9  1  0  0  0  0
  5  4  1  0  0  0  0
  5 10  1  0  0  0  0
  6  5  1  0  0  0  0
  7  1  1  0  0  0  0
 11  6  1  0  0  0  0
 11 12  2  0  0  0  0
 13 11  2  0  0  0  0
 15 14  3  0  0  0  0
 16 20  1  0  0  0  0
 16 19  2  0  0  0  0
 17 23  1  0  0  0  0
 17 16  1  0  0  0  0
 18 16  2  0  0  0  0
 21 17  1  0  0  0  0
 22 17  1  0  0  0  0
M  RAD  3   3   3   4   2   5   2
M  END
