Coordinates from ORCA-job p-NO2-Ph-N2-OTf-B3LYPG-aug-cc-pVDZ-scan-d09-29-n200
 OpenBabel01151817083D

 23 22  0  0  0  0  0  0  0  0999 V2000
   -2.0755   -0.6479   -6.0619 C   0  0  0  0  0  0  0  0  0  0  0  0
   -1.1192    0.2487   -6.5459 C   0  0  0  0  0  0  0  0  0  0  0  0
   -1.1107    1.4930   -5.9383 C   0  0  0  0  0  0  0  0  0  0  0  0
   -1.8975    1.9243   -4.8766 C   0  0  0  0  0  0  0  0  0  0  0  0
   -2.8320    1.0056   -4.4076 C   0  0  0  0  0  0  0  0  0  0  0  0
   -2.9052   -0.2523   -5.0159 C   0  0  0  0  0  0  0  0  0  0  0  0
   -2.1571   -1.6501   -6.4734 H   0  0  0  0  0  0  0  0  0  0  0  0
   -0.4196   -0.0201   -7.3304 H   0  0  0  0  0  0  0  0  0  0  0  0
   -1.7832    2.9100   -4.4338 H   0  0  0  0  0  0  0  0  0  0  0  0
   -3.4951    1.2488   -3.5818 H   0  0  0  0  0  0  0  0  0  0  0  0
   -3.9168   -1.2171   -4.5118 N   0  0  0  0  0  0  0  0  0  0  0  0
   -4.6092   -0.8588   -3.5660 O   0  0  0  0  0  0  0  0  0  0  0  0
   -3.9933   -2.2989   -5.0798 O   0  0  0  0  0  0  0  0  0  0  0  0
   -0.0937    2.5287   -6.4912 N   0  0  0  0  0  0  0  0  0  0  0  0
    0.4242    3.3669   -6.9991 N   0  0  0  0  0  0  0  0  0  0  0  0
    2.1120    0.2615   -4.9882 S   0  0  0  0  0  0  0  0  0  0  0  0
    3.0905    0.2377   -6.6135 C   0  0  0  0  0  0  0  0  0  0  0  0
    1.5311    1.6733   -5.0136 O   0  0  0  0  0  0  0  0  0  0  0  0
    3.1163    0.0277   -3.9248 O   0  0  0  0  0  0  0  0  0  0  0  0
    1.0715   -0.7973   -5.2112 O   0  0  0  0  0  0  0  0  0  0  0  0
    2.2460    0.5175   -7.6531 F   0  0  0  0  0  0  0  0  0  0  0  0
    4.0602    1.1638   -6.6191 F   0  0  0  0  0  0  0  0  0  0  0  0
    3.6356   -0.9637   -6.8409 F   0  0  0  0  0  0  0  0  0  0  0  0
  1  6  1  0  0  0  0
  2  1  2  0  0  0  0
  2  3  1  0  0  0  0
  3  4  2  0  0  0  0
  4  9  1  0  0  0  0
  4  5  1  0  0  0  0
  5 10  1  0  0  0  0
  6 11  1  0  0  0  0
  6  5  2  0  0  0  0
  7  1  1  0  0  0  0
  8  2  1  0  0  0  0
 11 12  2  0  0  0  0
 13 11  2  0  0  0  0
 14  3  1  0  0  0  0
 15 14  1  0  0  0  0
 16 19  1  0  0  0  0
 17 16  1  0  0  0  0
 18 16  2  0  0  0  0
 20 16  2  0  0  0  0
 21 17  1  0  0  0  0
 22 17  1  0  0  0  0
 23 17  1  0  0  0  0
M  RAD  3  14   2  15   3  19   2
M  END
