Coordinates from ORCA-job p-NO2-Ph-N2-OTf-B3LYPG-aug-cc-pVDZ-scan-d29-49-n200
 OpenBabel01151817083D

 23 22  0  0  1  0  0  0  0  0999 V2000
   -1.2814   -0.4420   -5.6955 C   0  0  0  0  0  0  0  0  0  0  0  0
   -0.4416    0.7740   -5.4726 C   0  0  1  0  0  0  0  0  0  0  0  0
   -1.0095    1.8248   -4.6601 C   0  0  0  0  0  0  0  0  0  0  0  0
   -2.3818    1.9274   -4.4818 C   0  0  0  0  0  0  0  0  0  0  0  0
   -3.0571    0.7045   -4.4420 C   0  0  0  0  0  0  0  0  0  0  0  0
   -2.5102   -0.4340   -5.1195 C   0  0  0  0  0  0  0  0  0  0  0  0
   -0.9853   -1.2168   -6.3993 H   0  0  0  0  0  0  0  0  0  0  0  0
   -0.2665    1.2494   -6.4675 H   0  0  0  0  0  0  0  0  0  0  0  0
   -2.8500    2.8320   -4.0903 H   0  0  0  0  0  0  0  0  0  0  0  0
   -3.9792    0.5770   -3.8763 H   0  0  0  0  0  0  0  0  0  0  0  0
   -3.3791   -1.6297   -5.2677 N   0  0  0  0  0  0  0  0  0  0  0  0
   -4.3904   -1.6723   -4.5745 O   0  0  0  0  0  0  0  0  0  0  0  0
   -3.0282   -2.4946   -6.0601 O   0  0  0  0  0  0  0  0  0  0  0  0
   -0.6166    4.3999   -6.4334 N   0  0  0  0  0  0  0  0  0  0  0  0
   -0.1382    5.3819   -6.2719 N   0  0  0  0  0  0  0  0  0  0  0  0
    2.2316    0.6969   -5.8569 S   0  0  0  0  0  0  0  0  0  0  0  0
    2.6577   -1.0733   -6.4041 C   0  0  0  0  0  0  0  0  0  0  0  0
    1.8406    1.4365   -7.0772 O   0  0  0  0  0  0  0  0  0  0  0  0
    3.3035    1.1353   -4.9571 O   0  0  0  0  0  0  0  0  0  0  0  0
    0.8961    0.3663   -4.9510 O   0  0  0  0  0  0  0  0  0  0  0  0
    1.6335   -1.5758   -7.1102 F   0  0  0  0  0  0  0  0  0  0  0  0
    3.7476   -1.0277   -7.1712 F   0  0  0  0  0  0  0  0  0  0  0  0
    2.8837   -1.8387   -5.3377 F   0  0  0  0  0  0  0  0  0  0  0  0
  1  2  1  0  0  0  0
  1  6  2  0  0  0  0
  2  8  1  6  0  0  0
  2 20  1  0  0  0  0
  2  3  1  0  0  0  0
  3  4  1  0  0  0  0
  4  5  1  0  0  0  0
  4  9  1  0  0  0  0
  5 10  1  0  0  0  0
  6  5  1  0  0  0  0
  7  1  1  0  0  0  0
 11  6  1  0  0  0  0
 11 12  2  0  0  0  0
 13 11  2  0  0  0  0
 14 15  3  0  0  0  0
 16 19  2  0  0  0  0
 16 20  1  0  0  0  0
 17 16  1  0  0  0  0
 17 23  1  0  0  0  0
 18 16  2  0  0  0  0
 21 17  1  0  0  0  0
 22 17  1  0  0  0  0
M  RAD  3   3   3   4   2   5   2
M  END
