Coordinates from ORCA-job p-NO2-Ph-N2-OTf-B3LYPG-aug-cc-pVDZ-scan-d29-49-n200
 OpenBabel01151817083D

 23 22  0  0  1  0  0  0  0  0999 V2000
   -1.2816   -0.4385   -5.7015 C   0  0  0  0  0  0  0  0  0  0  0  0
   -0.4427    0.7813   -5.4952 C   0  0  1  0  0  0  0  0  0  0  0  0
   -1.0141    1.8398   -4.6951 C   0  0  0  0  0  0  0  0  0  0  0  0
   -2.3849    1.9429   -4.5127 C   0  0  0  0  0  0  0  0  0  0  0  0
   -3.0555    0.7180   -4.4541 C   0  0  0  0  0  0  0  0  0  0  0  0
   -2.5080   -0.4267   -5.1206 C   0  0  0  0  0  0  0  0  0  0  0  0
   -0.9871   -1.2197   -6.3988 H   0  0  0  0  0  0  0  0  0  0  0  0
   -0.2644    1.2422   -6.4955 H   0  0  0  0  0  0  0  0  0  0  0  0
   -2.8533    2.8516   -4.1311 H   0  0  0  0  0  0  0  0  0  0  0  0
   -3.9735    0.5942   -3.8810 H   0  0  0  0  0  0  0  0  0  0  0  0
   -3.3748   -1.6259   -5.2520 N   0  0  0  0  0  0  0  0  0  0  0  0
   -4.3843   -1.6622   -4.5558 O   0  0  0  0  0  0  0  0  0  0  0  0
   -3.0252   -2.4988   -6.0362 O   0  0  0  0  0  0  0  0  0  0  0  0
   -0.6257    4.3300   -6.3600 N   0  0  0  0  0  0  0  0  0  0  0  0
   -0.1495    5.3120   -6.1914 N   0  0  0  0  0  0  0  0  0  0  0  0
    2.2327    0.7039   -5.8677 S   0  0  0  0  0  0  0  0  0  0  0  0
    2.6590   -1.0704   -6.4015 C   0  0  0  0  0  0  0  0  0  0  0  0
    1.8467    1.4354   -7.0946 O   0  0  0  0  0  0  0  0  0  0  0  0
    3.3021    1.1476   -4.9675 O   0  0  0  0  0  0  0  0  0  0  0  0
    0.8943    0.3812   -4.9636 O   0  0  0  0  0  0  0  0  0  0  0  0
    1.6363   -1.5770   -7.1067 F   0  0  0  0  0  0  0  0  0  0  0  0
    3.7509   -1.0310   -7.1661 F   0  0  0  0  0  0  0  0  0  0  0  0
    2.8817   -1.8285   -5.3292 F   0  0  0  0  0  0  0  0  0  0  0  0
  1  2  1  0  0  0  0
  1  6  2  0  0  0  0
  2  8  1  6  0  0  0
  2 20  1  0  0  0  0
  2  3  1  0  0  0  0
  3  4  1  0  0  0  0
  4  5  1  0  0  0  0
  4  9  1  0  0  0  0
  5 10  1  0  0  0  0
  6  5  1  0  0  0  0
  7  1  1  0  0  0  0
 11  6  1  0  0  0  0
 11 12  2  0  0  0  0
 13 11  2  0  0  0  0
 14 15  3  0  0  0  0
 16 19  2  0  0  0  0
 16 20  1  0  0  0  0
 17 16  1  0  0  0  0
 17 23  1  0  0  0  0
 18 16  2  0  0  0  0
 21 17  1  0  0  0  0
 22 17  1  0  0  0  0
M  RAD  3   3   3   4   2   5   2
M  END
