Coordinates from ORCA-job p-NO2-Ph-N2-OTf-B3LYPG-aug-cc-pVDZ-scan-d29-49-n200
 OpenBabel01151817083D

 23 22  0  0  1  0  0  0  0  0999 V2000
   -1.2814   -0.4431   -5.6932 C   0  0  0  0  0  0  0  0  0  0  0  0
   -0.4414    0.7721   -5.4663 C   0  0  1  0  0  0  0  0  0  0  0  0
   -1.0082    1.8213   -4.6510 C   0  0  0  0  0  0  0  0  0  0  0  0
   -2.3810    1.9235   -4.4737 C   0  0  0  0  0  0  0  0  0  0  0  0
   -3.0579    0.7014   -4.4391 C   0  0  0  0  0  0  0  0  0  0  0  0
   -2.5110   -0.4358   -5.1189 C   0  0  0  0  0  0  0  0  0  0  0  0
   -0.9843   -1.2167   -6.3979 H   0  0  0  0  0  0  0  0  0  0  0  0
   -0.2673    1.2509   -6.4600 H   0  0  0  0  0  0  0  0  0  0  0  0
   -2.8492    2.8271   -4.0799 H   0  0  0  0  0  0  0  0  0  0  0  0
   -3.9816    0.5734   -3.8762 H   0  0  0  0  0  0  0  0  0  0  0  0
   -3.3804   -1.6306   -5.2713 N   0  0  0  0  0  0  0  0  0  0  0  0
   -4.3931   -1.6739   -4.5802 O   0  0  0  0  0  0  0  0  0  0  0  0
   -3.0291   -2.4936   -6.0656 O   0  0  0  0  0  0  0  0  0  0  0  0
   -0.6132    4.4139   -6.4519 N   0  0  0  0  0  0  0  0  0  0  0  0
   -0.1339    5.3957   -6.2933 N   0  0  0  0  0  0  0  0  0  0  0  0
    2.2312    0.6958   -5.8538 S   0  0  0  0  0  0  0  0  0  0  0  0
    2.6575   -1.0730   -6.4055 C   0  0  0  0  0  0  0  0  0  0  0  0
    1.8388    1.4381   -7.0720 O   0  0  0  0  0  0  0  0  0  0  0  0
    3.3037    1.1324   -4.9539 O   0  0  0  0  0  0  0  0  0  0  0  0
    0.8965    0.3623   -4.9477 O   0  0  0  0  0  0  0  0  0  0  0  0
    1.6329   -1.5742   -7.1119 F   0  0  0  0  0  0  0  0  0  0  0  0
    3.7467   -1.0252   -7.1735 F   0  0  0  0  0  0  0  0  0  0  0  0
    2.8847   -1.8408   -5.3411 F   0  0  0  0  0  0  0  0  0  0  0  0
  1  2  1  0  0  0  0
  1  6  2  0  0  0  0
  2  8  1  6  0  0  0
  2 20  1  0  0  0  0
  2  3  1  0  0  0  0
  3  4  1  0  0  0  0
  4  5  1  0  0  0  0
  4  9  1  0  0  0  0
  5 10  1  0  0  0  0
  6  5  1  0  0  0  0
  7  1  1  0  0  0  0
 11  6  1  0  0  0  0
 11 12  2  0  0  0  0
 13 11  2  0  0  0  0
 14 15  3  0  0  0  0
 16 19  2  0  0  0  0
 16 20  1  0  0  0  0
 17 16  1  0  0  0  0
 17 23  1  0  0  0  0
 18 16  2  0  0  0  0
 21 17  1  0  0  0  0
 22 17  1  0  0  0  0
M  RAD  3   3   3   4   2   5   2
M  END
