Coordinates from ORCA-job p-NO2-Ph-N2-OTf-B3LYPG-aug-cc-pVDZ-scan-d29-49-n200
 OpenBabel01151817083D

 23 22  0  0  1  0  0  0  0  0999 V2000
   -1.3074   -0.2413   -5.6372 C   0  0  0  0  0  0  0  0  0  0  0  0
   -0.4143    0.7724   -4.9975 C   0  0  1  0  0  0  0  0  0  0  0  0
   -0.9346    1.4946   -3.8585 C   0  0  0  0  0  0  0  0  0  0  0  0
   -2.3076    1.5983   -3.6635 C   0  0  0  0  0  0  0  0  0  0  0  0
   -3.0537    0.4912   -4.0742 C   0  0  0  0  0  0  0  0  0  0  0  0
   -2.5499   -0.3655   -5.1068 C   0  0  0  0  0  0  0  0  0  0  0  0
   -1.0288   -0.7407   -6.5626 H   0  0  0  0  0  0  0  0  0  0  0  0
   -0.2144    1.5599   -5.7665 H   0  0  0  0  0  0  0  0  0  0  0  0
   -2.7381    2.3239   -2.9713 H   0  0  0  0  0  0  0  0  0  0  0  0
   -4.0031    0.2339   -3.6062 H   0  0  0  0  0  0  0  0  0  0  0  0
   -3.4743   -1.3804   -5.6744 N   0  0  0  0  0  0  0  0  0  0  0  0
   -4.5086   -1.6005   -5.0526 O   0  0  0  0  0  0  0  0  0  0  0  0
   -3.1430   -1.9341   -6.7148 O   0  0  0  0  0  0  0  0  0  0  0  0
   -0.4366    3.8643   -7.9907 N   0  0  0  0  0  0  0  0  0  0  0  0
   -0.0259    4.6262   -8.6759 N   0  0  0  0  0  0  0  0  0  0  0  0
    2.2541    0.6986   -5.4233 S   0  0  0  0  0  0  0  0  0  0  0  0
    2.5963   -0.7991   -6.5433 C   0  0  0  0  0  0  0  0  0  0  0  0
    1.9096    1.8262   -6.3166 O   0  0  0  0  0  0  0  0  0  0  0  0
    3.3391    0.7510   -4.4383 O   0  0  0  0  0  0  0  0  0  0  0  0
    0.8971    0.1438   -4.6722 O   0  0  0  0  0  0  0  0  0  0  0  0
    1.5551   -0.9795   -7.3701 F   0  0  0  0  0  0  0  0  0  0  0  0
    3.6942   -0.5498   -7.2582 F   0  0  0  0  0  0  0  0  0  0  0  0
    2.7739   -1.8921   -5.8032 F   0  0  0  0  0  0  0  0  0  0  0  0
  1  6  2  0  0  0  0
  1  2  1  0  0  0  0
  2  8  1  6  0  0  0
  2 20  1  0  0  0  0
  2  3  1  0  0  0  0
  3  4  1  0  0  0  0
  4  9  1  0  0  0  0
  5  4  1  0  0  0  0
  5 10  1  0  0  0  0
  6  5  1  0  0  0  0
  7  1  1  0  0  0  0
 11  6  1  0  0  0  0
 11 12  2  0  0  0  0
 13 11  2  0  0  0  0
 15 14  3  0  0  0  0
 16 20  1  0  0  0  0
 16 19  2  0  0  0  0
 17 23  1  0  0  0  0
 17 16  1  0  0  0  0
 18 16  2  0  0  0  0
 21 17  1  0  0  0  0
 22 17  1  0  0  0  0
M  RAD  3   3   3   4   2   5   2
M  END
