Coordinates from ORCA-job p-NO2-Ph-N2-OTf-B3LYPG-aug-cc-pVDZ-scan-d29-49-n200
 OpenBabel01151817083D

 23 22  0  0  1  0  0  0  0  0999 V2000
   -1.2817   -0.4380   -5.7021 C   0  0  0  0  0  0  0  0  0  0  0  0
   -0.4430    0.7823   -5.4983 C   0  0  1  0  0  0  0  0  0  0  0  0
   -1.0145    1.8423   -4.7001 C   0  0  0  0  0  0  0  0  0  0  0  0
   -2.3853    1.9452   -4.5171 C   0  0  0  0  0  0  0  0  0  0  0  0
   -3.0556    0.7203   -4.4563 C   0  0  0  0  0  0  0  0  0  0  0  0
   -2.5079   -0.4255   -5.1209 C   0  0  0  0  0  0  0  0  0  0  0  0
   -0.9872   -1.2203   -6.3981 H   0  0  0  0  0  0  0  0  0  0  0  0
   -0.2642    1.2411   -6.4995 H   0  0  0  0  0  0  0  0  0  0  0  0
   -2.8538    2.8543   -4.1368 H   0  0  0  0  0  0  0  0  0  0  0  0
   -3.9733    0.5973   -3.8827 H   0  0  0  0  0  0  0  0  0  0  0  0
   -3.3745   -1.6251   -5.2502 N   0  0  0  0  0  0  0  0  0  0  0  0
   -4.3831   -1.6611   -4.5527 O   0  0  0  0  0  0  0  0  0  0  0  0
   -3.0239   -2.5001   -6.0315 O   0  0  0  0  0  0  0  0  0  0  0  0
   -0.6265    4.3186   -6.3495 N   0  0  0  0  0  0  0  0  0  0  0  0
   -0.1505    5.3006   -6.1803 N   0  0  0  0  0  0  0  0  0  0  0  0
    2.2328    0.7050   -5.8688 S   0  0  0  0  0  0  0  0  0  0  0  0
    2.6590   -1.0696   -6.4016 C   0  0  0  0  0  0  0  0  0  0  0  0
    1.8477    1.4361   -7.0962 O   0  0  0  0  0  0  0  0  0  0  0  0
    3.3018    1.1488   -4.9682 O   0  0  0  0  0  0  0  0  0  0  0  0
    0.8939    0.3831   -4.9653 O   0  0  0  0  0  0  0  0  0  0  0  0
    1.6365   -1.5763   -7.1070 F   0  0  0  0  0  0  0  0  0  0  0  0
    3.7513   -1.0308   -7.1658 F   0  0  0  0  0  0  0  0  0  0  0  0
    2.8811   -1.8273   -5.3289 F   0  0  0  0  0  0  0  0  0  0  0  0
  1  2  1  0  0  0  0
  1  6  2  0  0  0  0
  2  8  1  6  0  0  0
  2 20  1  0  0  0  0
  2  3  1  0  0  0  0
  3  4  1  0  0  0  0
  4  5  1  0  0  0  0
  4  9  1  0  0  0  0
  5 10  1  0  0  0  0
  6  5  1  0  0  0  0
  7  1  1  0  0  0  0
 11  6  1  0  0  0  0
 11 12  2  0  0  0  0
 13 11  2  0  0  0  0
 14 15  3  0  0  0  0
 16 19  2  0  0  0  0
 16 20  1  0  0  0  0
 17 16  1  0  0  0  0
 17 23  1  0  0  0  0
 18 16  2  0  0  0  0
 21 17  1  0  0  0  0
 22 17  1  0  0  0  0
M  RAD  3   3   3   4   2   5   2
M  END
