Coordinates from ORCA-job p-NO2-Ph-N2-OTf-B3LYPG-aug-cc-pVDZ-scan-d29-49-n200
 OpenBabel01151817083D

 23 22  0  0  1  0  0  0  0  0999 V2000
   -1.2834   -0.4461   -5.6834 C   0  0  0  0  0  0  0  0  0  0  0  0
   -0.4408    0.7611   -5.4261 C   0  0  1  0  0  0  0  0  0  0  0  0
   -1.0022    1.7935   -4.5864 C   0  0  0  0  0  0  0  0  0  0  0  0
   -2.3766    1.8957   -4.4135 C   0  0  0  0  0  0  0  0  0  0  0  0
   -3.0614    0.6779   -4.4139 C   0  0  0  0  0  0  0  0  0  0  0  0
   -2.5162   -0.4464   -5.1162 C   0  0  0  0  0  0  0  0  0  0  0  0
   -0.9844   -1.2065   -6.4014 H   0  0  0  0  0  0  0  0  0  0  0  0
   -0.2703    1.2654   -6.4087 H   0  0  0  0  0  0  0  0  0  0  0  0
   -2.8427    2.7914   -3.9997 H   0  0  0  0  0  0  0  0  0  0  0  0
   -3.9914    0.5425   -3.8631 H   0  0  0  0  0  0  0  0  0  0  0  0
   -3.3896   -1.6340   -5.2996 N   0  0  0  0  0  0  0  0  0  0  0  0
   -4.4064   -1.6880   -4.6155 O   0  0  0  0  0  0  0  0  0  0  0  0
   -3.0365   -2.4813   -6.1098 O   0  0  0  0  0  0  0  0  0  0  0  0
   -0.5899    4.4995   -6.5906 N   0  0  0  0  0  0  0  0  0  0  0  0
   -0.1027    5.4808   -6.4534 N   0  0  0  0  0  0  0  0  0  0  0  0
    2.2290    0.6886   -5.8285 S   0  0  0  0  0  0  0  0  0  0  0  0
    2.6550   -1.0696   -6.4136 C   0  0  0  0  0  0  0  0  0  0  0  0
    1.8310    1.4524   -7.0315 O   0  0  0  0  0  0  0  0  0  0  0  0
    3.3043    1.1100   -4.9247 O   0  0  0  0  0  0  0  0  0  0  0  0
    0.8975    0.3360   -4.9243 O   0  0  0  0  0  0  0  0  0  0  0  0
    1.6286   -1.5589   -7.1256 F   0  0  0  0  0  0  0  0  0  0  0  0
    3.7416   -1.0066   -7.1841 F   0  0  0  0  0  0  0  0  0  0  0  0
    2.8865   -1.8563   -5.3640 F   0  0  0  0  0  0  0  0  0  0  0  0
  1  2  1  0  0  0  0
  1  6  2  0  0  0  0
  2  8  1  6  0  0  0
  2 20  1  0  0  0  0
  2  3  1  0  0  0  0
  3  4  1  0  0  0  0
  4  9  1  0  0  0  0
  5  4  1  0  0  0  0
  5 10  1  0  0  0  0
  6  5  1  0  0  0  0
  7  1  1  0  0  0  0
 11  6  1  0  0  0  0
 11 12  2  0  0  0  0
 13 11  2  0  0  0  0
 14 15  3  0  0  0  0
 16 19  2  0  0  0  0
 16 20  1  0  0  0  0
 17 16  1  0  0  0  0
 17 23  1  0  0  0  0
 18 16  2  0  0  0  0
 21 17  1  0  0  0  0
 22 17  1  0  0  0  0
M  RAD  3   3   3   4   2   5   2
M  END
