Coordinates from ORCA-job p-NO2-Ph-N2-OTf-B3LYPG-aug-cc-pVDZ-scan-d09-29-n200
 OpenBabel01151817083D

 23 22  0  0  0  0  0  0  0  0999 V2000
   -2.3863   -0.6788   -6.1712 C   0  0  0  0  0  0  0  0  0  0  0  0
   -1.0862   -0.3074   -6.5080 C   0  0  0  0  0  0  0  0  0  0  0  0
   -0.3945    0.5690   -5.6699 C   0  0  0  0  0  0  0  0  0  0  0  0
   -0.9373    1.0298   -4.4691 C   0  0  0  0  0  0  0  0  0  0  0  0
   -2.2372    0.6599   -4.1299 C   0  0  0  0  0  0  0  0  0  0  0  0
   -2.9437   -0.1815   -4.9915 C   0  0  0  0  0  0  0  0  0  0  0  0
   -2.9667   -1.3467   -6.8023 H   0  0  0  0  0  0  0  0  0  0  0  0
   -0.6133   -0.6755   -7.4158 H   0  0  0  0  0  0  0  0  0  0  0  0
   -0.3510    1.6803   -3.8238 H   0  0  0  0  0  0  0  0  0  0  0  0
   -2.7046    1.0076   -3.2123 H   0  0  0  0  0  0  0  0  0  0  0  0
   -4.3233   -0.5721   -4.6347 N   0  0  0  0  0  0  0  0  0  0  0  0
   -4.7886   -0.1263   -3.5895 O   0  0  0  0  0  0  0  0  0  0  0  0
   -4.9213   -1.3173   -5.4058 O   0  0  0  0  0  0  0  0  0  0  0  0
   -0.9721    2.5944   -6.9561 N   0  0  0  0  0  0  0  0  0  0  0  0
   -1.9152    3.1057   -7.2218 N   0  0  0  0  0  0  0  0  0  0  0  0
    2.1495   -0.0375   -5.4558 S   0  0  0  0  0  0  0  0  0  0  0  0
    3.5076    1.0305   -6.2616 C   0  0  0  0  0  0  0  0  0  0  0  0
    0.9103    0.9508   -6.0157 O   0  0  0  0  0  0  0  0  0  0  0  0
    2.2663    0.0742   -3.9927 O   0  0  0  0  0  0  0  0  0  0  0  0
    2.1065   -1.3413   -6.1378 O   0  0  0  0  0  0  0  0  0  0  0  0
    3.3348    1.0627   -7.5813 F   0  0  0  0  0  0  0  0  0  0  0  0
    3.4692    2.2642   -5.7624 F   0  0  0  0  0  0  0  0  0  0  0  0
    4.6762    0.4568   -5.9690 F   0  0  0  0  0  0  0  0  0  0  0  0
  1  6  1  0  0  0  0
  2  1  2  0  0  0  0
  2  3  1  0  0  0  0
  3  4  2  0  0  0  0
  4  5  1  0  0  0  0
  4  9  1  0  0  0  0
  5 10  1  0  0  0  0
  6 11  1  0  0  0  0
  6  5  2  0  0  0  0
  7  1  1  0  0  0  0
  8  2  1  0  0  0  0
 11 12  2  0  0  0  0
 13 11  2  0  0  0  0
 15 14  3  0  0  0  0
 16 19  2  0  0  0  0
 17 23  1  0  0  0  0
 17 22  1  0  0  0  0
 17 16  1  0  0  0  0
 18  3  1  0  0  0  0
 18 16  1  0  0  0  0
 20 16  2  0  0  0  0
 21 17  1  0  0  0  0
M  END
