Coordinates from ORCA-job p-NO2-Ph-N2-OTf-B3LYPG-aug-cc-pVDZ-scan-d09-29-n200
 OpenBabel01151817083D

 23 23  0  0  1  0  0  0  0  0999 V2000
   -1.3813   -0.2229   -6.0074 C   0  0  0  0  0  0  0  0  0  0  0  0
   -0.5043    0.9813   -6.0440 C   0  0  1  0  0  0  0  0  0  0  0  0
   -1.1453    2.2738   -5.4117 C   0  0  0  0  0  0  0  0  0  0  0  0
   -2.2625    2.0166   -4.4451 C   0  0  0  0  0  0  0  0  0  0  0  0
   -2.8730    0.8217   -4.3421 C   0  0  0  0  0  0  0  0  0  0  0  0
   -2.4464   -0.2733   -5.1891 C   0  0  0  0  0  0  0  0  0  0  0  0
   -1.1175   -1.0753   -6.6290 H   0  0  0  0  0  0  0  0  0  0  0  0
   -0.1794    1.2362   -7.0592 H   0  0  0  0  0  0  0  0  0  0  0  0
   -2.5585    2.8765   -3.8442 H   0  0  0  0  0  0  0  0  0  0  0  0
   -3.6946    0.6611   -3.6498 H   0  0  0  0  0  0  0  0  0  0  0  0
   -3.2476   -1.5260   -5.1533 N   0  0  0  0  0  0  0  0  0  0  0  0
   -4.1877   -1.5596   -4.3656 O   0  0  0  0  0  0  0  0  0  0  0  0
   -2.9275   -2.4369   -5.9075 O   0  0  0  0  0  0  0  0  0  0  0  0
   -0.8052    3.1141   -5.6202 N   0  0  0  0  0  0  0  0  0  0  0  0
   -0.3657    4.1750   -5.8827 N   0  0  0  0  0  0  0  0  0  0  0  0
    2.2104    0.8165   -5.9446 S   0  0  0  0  0  0  0  0  0  0  0  0
    2.5504   -1.0295   -6.2595 C   0  0  0  0  0  0  0  0  0  0  0  0
    2.0973    1.4679   -7.2630 O   0  0  0  0  0  0  0  0  0  0  0  0
    3.1274    1.2566   -4.8892 O   0  0  0  0  0  0  0  0  0  0  0  0
    0.7039    0.6796   -5.2471 O   0  0  0  0  0  0  0  0  0  0  0  0
    1.6062   -1.5143   -7.0780 F   0  0  0  0  0  0  0  0  0  0  0  0
    3.7457   -1.1412   -6.8372 F   0  0  0  0  0  0  0  0  0  0  0  0
    2.5342   -1.6967   -5.1083 F   0  0  0  0  0  0  0  0  0  0  0  0
  1  6  2  0  0  0  0
  2  8  1  6  0  0  0
  2  1  1  0  0  0  0
  2  3  1  0  0  0  0
  2 20  1  0  0  0  0
  3  4  2  0  0  0  0
  4  5  1  0  0  0  0
  4  9  1  0  0  0  0
  5 10  1  0  0  0  0
  6 11  1  0  0  0  0
  6  5  1  0  0  0  0
  7  1  1  0  0  0  0
 11 12  2  0  0  0  0
 13 11  2  0  0  0  0
 14  3  1  0  0  0  0
 15 14  1  0  0  0  0
 16 20  1  0  0  0  0
 16 19  2  0  0  0  0
 17 16  1  0  0  0  0
 17 23  1  0  0  0  0
 18 16  2  0  0  0  0
 21 17  1  0  0  0  0
 22 17  1  0  0  0  0
M  RAD  3   5   2  14   2  15   3
M  END
