Coordinates from ORCA-job p-NO2-Ph-N2-OTf-B3LYPG-aug-cc-pVDZ-scan-d09-29-n200
 OpenBabel01151817083D

 23 22  0  0  0  0  0  0  0  0999 V2000
   -2.3843   -0.6722   -6.1754 C   0  0  0  0  0  0  0  0  0  0  0  0
   -1.0874   -0.2945   -6.5161 C   0  0  0  0  0  0  0  0  0  0  0  0
   -0.4000    0.5926   -5.6850 C   0  0  0  0  0  0  0  0  0  0  0  0
   -0.9386    1.0430   -4.4778 C   0  0  0  0  0  0  0  0  0  0  0  0
   -2.2353    0.6670   -4.1345 C   0  0  0  0  0  0  0  0  0  0  0  0
   -2.9415   -0.1760   -4.9951 C   0  0  0  0  0  0  0  0  0  0  0  0
   -2.9621   -1.3456   -6.8030 H   0  0  0  0  0  0  0  0  0  0  0  0
   -0.6144   -0.6627   -7.4238 H   0  0  0  0  0  0  0  0  0  0  0  0
   -0.3522    1.6938   -3.8328 H   0  0  0  0  0  0  0  0  0  0  0  0
   -2.7001    1.0096   -3.2138 H   0  0  0  0  0  0  0  0  0  0  0  0
   -4.3178   -0.5734   -4.6338 N   0  0  0  0  0  0  0  0  0  0  0  0
   -4.7810   -0.1322   -3.5857 O   0  0  0  0  0  0  0  0  0  0  0  0
   -4.9135   -1.3238   -5.4017 O   0  0  0  0  0  0  0  0  0  0  0  0
   -0.9623    2.5510   -6.9293 N   0  0  0  0  0  0  0  0  0  0  0  0
   -1.9111    3.0552   -7.1903 N   0  0  0  0  0  0  0  0  0  0  0  0
    2.1380   -0.0320   -5.4596 S   0  0  0  0  0  0  0  0  0  0  0  0
    3.5075    1.0268   -6.2583 C   0  0  0  0  0  0  0  0  0  0  0  0
    0.9093    0.9656   -6.0253 O   0  0  0  0  0  0  0  0  0  0  0  0
    2.2488    0.0783   -3.9960 O   0  0  0  0  0  0  0  0  0  0  0  0
    2.0895   -1.3351   -6.1426 O   0  0  0  0  0  0  0  0  0  0  0  0
    3.3414    1.0608   -7.5789 F   0  0  0  0  0  0  0  0  0  0  0  0
    3.4756    2.2604   -5.7587 F   0  0  0  0  0  0  0  0  0  0  0  0
    4.6705    0.4444   -5.9603 F   0  0  0  0  0  0  0  0  0  0  0  0
  1  6  1  0  0  0  0
  2  1  2  0  0  0  0
  2  3  1  0  0  0  0
  3  4  2  0  0  0  0
  4  5  1  0  0  0  0
  4  9  1  0  0  0  0
  5 10  1  0  0  0  0
  6 11  1  0  0  0  0
  6  5  2  0  0  0  0
  7  1  1  0  0  0  0
  8  2  1  0  0  0  0
 11 12  2  0  0  0  0
 13 11  2  0  0  0  0
 15 14  3  0  0  0  0
 16 19  2  0  0  0  0
 17 23  1  0  0  0  0
 17 22  1  0  0  0  0
 17 16  1  0  0  0  0
 18  3  1  0  0  0  0
 18 16  1  0  0  0  0
 20 16  2  0  0  0  0
 21 17  1  0  0  0  0
M  END
