Coordinates from ORCA-job p-NO2-Ph-N2-OTf-B3LYPG-aug-cc-pVDZ-scan-d29-49-n200
 OpenBabel01151817083D

 23 22  0  0  1  0  0  0  0  0999 V2000
   -1.2595   -0.2109   -5.6770 C   0  0  0  0  0  0  0  0  0  0  0  0
   -0.3578    0.7943   -5.0374 C   0  0  1  0  0  0  0  0  0  0  0  0
   -0.8786    1.5586   -3.9285 C   0  0  0  0  0  0  0  0  0  0  0  0
   -2.2559    1.7014   -3.7743 C   0  0  0  0  0  0  0  0  0  0  0  0
   -3.0257    0.6120   -4.1838 C   0  0  0  0  0  0  0  0  0  0  0  0
   -2.5200   -0.2850   -5.1812 C   0  0  0  0  0  0  0  0  0  0  0  0
   -0.9677   -0.7465   -6.5777 H   0  0  0  0  0  0  0  0  0  0  0  0
   -0.1377    1.5704   -5.8136 H   0  0  0  0  0  0  0  0  0  0  0  0
   -2.6840    2.4556   -3.1118 H   0  0  0  0  0  0  0  0  0  0  0  0
   -3.9997    0.3995   -3.7445 H   0  0  0  0  0  0  0  0  0  0  0  0
   -3.4580   -1.2858   -5.7512 N   0  0  0  0  0  0  0  0  0  0  0  0
   -4.5107   -1.4682   -5.1483 O   0  0  0  0  0  0  0  0  0  0  0  0
   -3.1046   -1.8903   -6.7556 O   0  0  0  0  0  0  0  0  0  0  0  0
   -0.8062    3.4709   -7.5159 N   0  0  0  0  0  0  0  0  0  0  0  0
   -0.5835    4.2966   -8.2136 N   0  0  0  0  0  0  0  0  0  0  0  0
    2.3117    0.6720   -5.4251 S   0  0  0  0  0  0  0  0  0  0  0  0
    2.6427   -0.8422   -6.5259 C   0  0  0  0  0  0  0  0  0  0  0  0
    1.9967    1.7961   -6.3339 O   0  0  0  0  0  0  0  0  0  0  0  0
    3.3860    0.7162   -4.4280 O   0  0  0  0  0  0  0  0  0  0  0  0
    0.9367    0.1492   -4.6843 O   0  0  0  0  0  0  0  0  0  0  0  0
    1.6088   -1.0141   -7.3639 F   0  0  0  0  0  0  0  0  0  0  0  0
    3.7532   -0.6182   -7.2295 F   0  0  0  0  0  0  0  0  0  0  0  0
    2.7930   -1.9305   -5.7729 F   0  0  0  0  0  0  0  0  0  0  0  0
  1  6  2  0  0  0  0
  1  2  1  0  0  0  0
  2  8  1  6  0  0  0
  2 20  1  0  0  0  0
  2  3  1  0  0  0  0
  3  4  1  0  0  0  0
  4  9  1  0  0  0  0
  5  4  1  0  0  0  0
  5 10  1  0  0  0  0
  6  5  1  0  0  0  0
  7  1  1  0  0  0  0
 11  6  1  0  0  0  0
 11 12  2  0  0  0  0
 13 11  2  0  0  0  0
 15 14  3  0  0  0  0
 16 20  1  0  0  0  0
 16 19  2  0  0  0  0
 17 23  1  0  0  0  0
 17 16  1  0  0  0  0
 18 16  2  0  0  0  0
 21 17  1  0  0  0  0
 22 17  1  0  0  0  0
M  RAD  3   3   3   4   2   5   2
M  END
