Coordinates from ORCA-job p-NO2-Ph-N2-OTf-B3LYPG-aug-cc-pVDZ-scan-d29-49-n200
 OpenBabel01151817083D

 23 22  0  0  1  0  0  0  0  0999 V2000
   -1.2857   -0.4418   -5.6800 C   0  0  0  0  0  0  0  0  0  0  0  0
   -0.4408    0.7572   -5.3939 C   0  0  1  0  0  0  0  0  0  0  0  0
   -0.9988    1.7720   -4.5307 C   0  0  0  0  0  0  0  0  0  0  0  0
   -2.3738    1.8722   -4.3568 C   0  0  0  0  0  0  0  0  0  0  0  0
   -3.0627    0.6572   -4.3878 C   0  0  0  0  0  0  0  0  0  0  0  0
   -2.5195   -0.4521   -5.1151 C   0  0  0  0  0  0  0  0  0  0  0  0
   -0.9870   -1.1869   -6.4141 H   0  0  0  0  0  0  0  0  0  0  0  0
   -0.2706    1.2844   -6.3649 H   0  0  0  0  0  0  0  0  0  0  0  0
   -2.8385    2.7585   -3.9217 H   0  0  0  0  0  0  0  0  0  0  0  0
   -3.9949    0.5121   -3.8431 H   0  0  0  0  0  0  0  0  0  0  0  0
   -3.3956   -1.6329   -5.3272 N   0  0  0  0  0  0  0  0  0  0  0  0
   -4.4136   -1.7001   -4.6460 O   0  0  0  0  0  0  0  0  0  0  0  0
   -3.0432   -2.4623   -6.1560 O   0  0  0  0  0  0  0  0  0  0  0  0
   -0.5713    4.5406   -6.7000 N   0  0  0  0  0  0  0  0  0  0  0  0
   -0.0752    5.5229   -6.6118 N   0  0  0  0  0  0  0  0  0  0  0  0
    2.2275    0.6846   -5.8042 S   0  0  0  0  0  0  0  0  0  0  0  0
    2.6507   -1.0639   -6.4195 C   0  0  0  0  0  0  0  0  0  0  0  0
    1.8280    1.4690   -6.9933 O   0  0  0  0  0  0  0  0  0  0  0  0
    3.3048    1.0896   -4.8955 O   0  0  0  0  0  0  0  0  0  0  0  0
    0.8970    0.3181   -4.9041 O   0  0  0  0  0  0  0  0  0  0  0  0
    1.6231   -1.5399   -7.1385 F   0  0  0  0  0  0  0  0  0  0  0  0
    3.7366   -0.9890   -7.1899 F   0  0  0  0  0  0  0  0  0  0  0  0
    2.8824   -1.8684   -5.3836 F   0  0  0  0  0  0  0  0  0  0  0  0
  1  2  1  0  0  0  0
  1  6  2  0  0  0  0
  2  8  1  6  0  0  0
  2 20  1  0  0  0  0
  2  3  1  0  0  0  0
  3  4  1  0  0  0  0
  4  9  1  0  0  0  0
  5  4  1  0  0  0  0
  5 10  1  0  0  0  0
  6  5  1  0  0  0  0
  7  1  1  0  0  0  0
 11  6  1  0  0  0  0
 11 12  2  0  0  0  0
 13 11  2  0  0  0  0
 14 15  3  0  0  0  0
 16 20  1  0  0  0  0
 16 19  2  0  0  0  0
 17 16  1  0  0  0  0
 17 23  1  0  0  0  0
 18 16  2  0  0  0  0
 21 17  1  0  0  0  0
 22 17  1  0  0  0  0
M  RAD  3   3   3   4   2   5   2
M  END
