Coordinates from ORCA-job p-NO2-Ph-N2-OTf-B3LYPG-aug-cc-pVDZ-scan-d09-29-n200
 OpenBabel01151817083D

 23 22  0  0  0  0  0  0  0  0999 V2000
   -2.3871   -0.6818   -6.1693 C   0  0  0  0  0  0  0  0  0  0  0  0
   -1.0857   -0.3131   -6.5043 C   0  0  0  0  0  0  0  0  0  0  0  0
   -0.3921    0.5584   -5.6631 C   0  0  0  0  0  0  0  0  0  0  0  0
   -0.9368    1.0239   -4.4653 C   0  0  0  0  0  0  0  0  0  0  0  0
   -2.2381    0.6568   -4.1279 C   0  0  0  0  0  0  0  0  0  0  0  0
   -2.9448   -0.1839   -4.9900 C   0  0  0  0  0  0  0  0  0  0  0  0
   -2.9687   -1.3472   -6.8019 H   0  0  0  0  0  0  0  0  0  0  0  0
   -0.6128   -0.6812   -7.4122 H   0  0  0  0  0  0  0  0  0  0  0  0
   -0.3505    1.6744   -3.8199 H   0  0  0  0  0  0  0  0  0  0  0  0
   -2.7065    1.0069   -3.2118 H   0  0  0  0  0  0  0  0  0  0  0  0
   -4.3258   -0.5713   -4.6351 N   0  0  0  0  0  0  0  0  0  0  0  0
   -4.7910   -0.1259   -3.5898 O   0  0  0  0  0  0  0  0  0  0  0  0
   -4.9237   -1.3168   -5.4061 O   0  0  0  0  0  0  0  0  0  0  0  0
   -0.9770    2.6172   -6.9705 N   0  0  0  0  0  0  0  0  0  0  0  0
   -1.9174    3.1321   -7.2386 N   0  0  0  0  0  0  0  0  0  0  0  0
    2.1544   -0.0404   -5.4540 S   0  0  0  0  0  0  0  0  0  0  0  0
    3.5076    1.0317   -6.2626 C   0  0  0  0  0  0  0  0  0  0  0  0
    0.9107    0.9441   -6.0113 O   0  0  0  0  0  0  0  0  0  0  0  0
    2.2736    0.0716   -3.9911 O   0  0  0  0  0  0  0  0  0  0  0  0
    2.1138   -1.3444   -6.1358 O   0  0  0  0  0  0  0  0  0  0  0  0
    3.3320    1.0633   -7.5819 F   0  0  0  0  0  0  0  0  0  0  0  0
    3.4665    2.2652   -5.7633 F   0  0  0  0  0  0  0  0  0  0  0  0
    4.6786    0.4615   -5.9723 F   0  0  0  0  0  0  0  0  0  0  0  0
  1  6  1  0  0  0  0
  2  1  2  0  0  0  0
  2  3  1  0  0  0  0
  3  4  2  0  0  0  0
  4  5  1  0  0  0  0
  4  9  1  0  0  0  0
  5 10  1  0  0  0  0
  6 11  1  0  0  0  0
  6  5  2  0  0  0  0
  7  1  1  0  0  0  0
  8  2  1  0  0  0  0
 11 12  2  0  0  0  0
 13 11  2  0  0  0  0
 15 14  3  0  0  0  0
 16 19  2  0  0  0  0
 17 23  1  0  0  0  0
 17 22  1  0  0  0  0
 17 16  1  0  0  0  0
 18  3  1  0  0  0  0
 18 16  1  0  0  0  0
 20 16  2  0  0  0  0
 21 17  1  0  0  0  0
M  END
