Coordinates from ORCA-job p-NO2-Ph-N2-OTf-B3LYPG-aug-cc-pVDZ-scan-d09-29-n200
 OpenBabel01151817083D

 23 23  0  0  1  0  0  0  0  0999 V2000
   -1.3932   -0.2346   -6.0032 C   0  0  0  0  0  0  0  0  0  0  0  0
   -0.5171    0.9697   -6.0464 C   0  0  1  0  0  0  0  0  0  0  0  0
   -1.1701    2.2088   -5.4390 C   0  0  0  0  0  0  0  0  0  0  0  0
   -2.2639    2.0198   -4.4766 C   0  0  0  0  0  0  0  0  0  0  0  0
   -2.8752    0.8223   -4.3343 C   0  0  0  0  0  0  0  0  0  0  0  0
   -2.4495   -0.2794   -5.1677 C   0  0  0  0  0  0  0  0  0  0  0  0
   -1.1369   -1.0902   -6.6222 H   0  0  0  0  0  0  0  0  0  0  0  0
   -0.1475    1.1871   -7.0533 H   0  0  0  0  0  0  0  0  0  0  0  0
   -2.5728    2.8897   -3.8978 H   0  0  0  0  0  0  0  0  0  0  0  0
   -3.6926    0.6753   -3.6353 H   0  0  0  0  0  0  0  0  0  0  0  0
   -3.2458   -1.5349   -5.1117 N   0  0  0  0  0  0  0  0  0  0  0  0
   -4.1696   -1.5703   -4.3049 O   0  0  0  0  0  0  0  0  0  0  0  0
   -2.9344   -2.4502   -5.8647 O   0  0  0  0  0  0  0  0  0  0  0  0
   -0.7824    3.2054   -5.7010 N   0  0  0  0  0  0  0  0  0  0  0  0
   -0.3691    4.2462   -5.9790 N   0  0  0  0  0  0  0  0  0  0  0  0
    2.2081    0.8018   -5.8610 S   0  0  0  0  0  0  0  0  0  0  0  0
    2.5511   -1.0150   -6.3083 C   0  0  0  0  0  0  0  0  0  0  0  0
    2.1352    1.5490   -7.1329 O   0  0  0  0  0  0  0  0  0  0  0  0
    3.1157    1.1575   -4.7646 O   0  0  0  0  0  0  0  0  0  0  0  0
    0.6988    0.6370   -5.2114 O   0  0  0  0  0  0  0  0  0  0  0  0
    1.6164   -1.4376   -7.1725 F   0  0  0  0  0  0  0  0  0  0  0  0
    3.7535   -1.0886   -6.8791 F   0  0  0  0  0  0  0  0  0  0  0  0
    2.5202   -1.7680   -5.2110 F   0  0  0  0  0  0  0  0  0  0  0  0
  1  6  2  0  0  0  0
  2  8  1  6  0  0  0
  2  1  1  0  0  0  0
  2  3  1  0  0  0  0
  2 20  1  0  0  0  0
  3  4  2  0  0  0  0
  4  5  1  0  0  0  0
  4  9  1  0  0  0  0
  5 10  1  0  0  0  0
  6 11  1  0  0  0  0
  6  5  1  0  0  0  0
  7  1  1  0  0  0  0
 11 12  2  0  0  0  0
 13 11  2  0  0  0  0
 14  3  1  0  0  0  0
 15 14  1  0  0  0  0
 16 20  1  0  0  0  0
 16 19  2  0  0  0  0
 17 16  1  0  0  0  0
 17 23  1  0  0  0  0
 18 16  2  0  0  0  0
 21 17  1  0  0  0  0
 22 17  1  0  0  0  0
M  RAD  3   5   2  14   2  15   3
M  END
