Coordinates from ORCA-job p-NO2-Ph-N2-OTf-B3LYPG-aug-cc-pVDZ-scan-d09-29-n200
 OpenBabel01151817083D

 23 22  0  0  0  0  0  0  0  0999 V2000
   -2.0833   -0.6516   -6.0612 C   0  0  0  0  0  0  0  0  0  0  0  0
   -1.1236    0.2422   -6.5457 C   0  0  0  0  0  0  0  0  0  0  0  0
   -1.1171    1.4811   -5.9333 C   0  0  0  0  0  0  0  0  0  0  0  0
   -1.8971    1.9204   -4.8736 C   0  0  0  0  0  0  0  0  0  0  0  0
   -2.8352    1.0032   -4.4058 C   0  0  0  0  0  0  0  0  0  0  0  0
   -2.9122   -0.2540   -5.0148 C   0  0  0  0  0  0  0  0  0  0  0  0
   -2.1678   -1.6533   -6.4735 H   0  0  0  0  0  0  0  0  0  0  0  0
   -0.4233   -0.0273   -7.3291 H   0  0  0  0  0  0  0  0  0  0  0  0
   -1.7780    2.9052   -4.4306 H   0  0  0  0  0  0  0  0  0  0  0  0
   -3.4977    1.2483   -3.5801 H   0  0  0  0  0  0  0  0  0  0  0  0
   -3.9265   -1.2161   -4.5113 N   0  0  0  0  0  0  0  0  0  0  0  0
   -4.6183   -0.8563   -3.5656 O   0  0  0  0  0  0  0  0  0  0  0  0
   -4.0050   -2.2980   -5.0788 O   0  0  0  0  0  0  0  0  0  0  0  0
   -0.0749    2.5328   -6.4945 N   0  0  0  0  0  0  0  0  0  0  0  0
    0.4363    3.3723   -7.0064 N   0  0  0  0  0  0  0  0  0  0  0  0
    2.1165    0.2633   -4.9896 S   0  0  0  0  0  0  0  0  0  0  0  0
    3.0958    0.2431   -6.6146 C   0  0  0  0  0  0  0  0  0  0  0  0
    1.5328    1.6746   -5.0141 O   0  0  0  0  0  0  0  0  0  0  0  0
    3.1207    0.0324   -3.9255 O   0  0  0  0  0  0  0  0  0  0  0  0
    1.0787   -0.7976   -5.2138 O   0  0  0  0  0  0  0  0  0  0  0  0
    2.2509    0.5204   -7.6545 F   0  0  0  0  0  0  0  0  0  0  0  0
    4.0625    1.1724   -6.6196 F   0  0  0  0  0  0  0  0  0  0  0  0
    3.6448   -0.9564   -6.8420 F   0  0  0  0  0  0  0  0  0  0  0  0
  1  6  1  0  0  0  0
  2  1  2  0  0  0  0
  2  3  1  0  0  0  0
  3  4  2  0  0  0  0
  4  9  1  0  0  0  0
  4  5  1  0  0  0  0
  5 10  1  0  0  0  0
  6 11  1  0  0  0  0
  6  5  2  0  0  0  0
  7  1  1  0  0  0  0
  8  2  1  0  0  0  0
 11 12  2  0  0  0  0
 13 11  2  0  0  0  0
 14  3  1  0  0  0  0
 15 14  1  0  0  0  0
 16 19  1  0  0  0  0
 17 16  1  0  0  0  0
 18 16  2  0  0  0  0
 20 16  2  0  0  0  0
 21 17  1  0  0  0  0
 22 17  1  0  0  0  0
 23 17  1  0  0  0  0
M  RAD  3  14   2  15   3  19   2
M  END
