Coordinates from ORCA-job p-NO2-Ph-N2-OTf-B3LYPG-aug-cc-pVDZ-scan-d29-49-n200
 OpenBabel01151817083D

 23 22  0  0  1  0  0  0  0  0999 V2000
   -1.2696   -0.2131   -5.6741 C   0  0  0  0  0  0  0  0  0  0  0  0
   -0.3677    0.7938   -5.0366 C   0  0  1  0  0  0  0  0  0  0  0  0
   -0.8874    1.5488   -3.9196 C   0  0  0  0  0  0  0  0  0  0  0  0
   -2.2632    1.6839   -3.7541 C   0  0  0  0  0  0  0  0  0  0  0  0
   -3.0289    0.5904   -4.1621 C   0  0  0  0  0  0  0  0  0  0  0  0
   -2.5254   -0.2980   -5.1682 C   0  0  0  0  0  0  0  0  0  0  0  0
   -0.9822   -0.7401   -6.5813 H   0  0  0  0  0  0  0  0  0  0  0  0
   -0.1490    1.5680   -5.8144 H   0  0  0  0  0  0  0  0  0  0  0  0
   -2.6904    2.4314   -3.0834 H   0  0  0  0  0  0  0  0  0  0  0  0
   -3.9963    0.3677   -3.7136 H   0  0  0  0  0  0  0  0  0  0  0  0
   -3.4617   -1.3019   -5.7356 N   0  0  0  0  0  0  0  0  0  0  0  0
   -4.5135   -1.4856   -5.1317 O   0  0  0  0  0  0  0  0  0  0  0  0
   -3.1201   -1.8872   -6.7553 O   0  0  0  0  0  0  0  0  0  0  0  0
   -0.7458    3.5216   -7.5980 N   0  0  0  0  0  0  0  0  0  0  0  0
   -0.5051    4.3441   -8.2936 N   0  0  0  0  0  0  0  0  0  0  0  0
    2.3044    0.6761   -5.4210 S   0  0  0  0  0  0  0  0  0  0  0  0
    2.6391   -0.8334   -6.5272 C   0  0  0  0  0  0  0  0  0  0  0  0
    1.9923    1.8035   -6.3263 O   0  0  0  0  0  0  0  0  0  0  0  0
    3.3752    0.7168   -4.4201 O   0  0  0  0  0  0  0  0  0  0  0  0
    0.9280    0.1475   -4.6876 O   0  0  0  0  0  0  0  0  0  0  0  0
    1.6063   -1.0032   -7.3670 F   0  0  0  0  0  0  0  0  0  0  0  0
    3.7501   -0.6055   -7.2288 F   0  0  0  0  0  0  0  0  0  0  0  0
    2.7899   -1.9246   -5.7784 F   0  0  0  0  0  0  0  0  0  0  0  0
  1  6  2  0  0  0  0
  1  2  1  0  0  0  0
  2  8  1  6  0  0  0
  2 20  1  0  0  0  0
  2  3  1  0  0  0  0
  3  4  1  0  0  0  0
  4  9  1  0  0  0  0
  5  4  1  0  0  0  0
  5 10  1  0  0  0  0
  6  5  1  0  0  0  0
  7  1  1  0  0  0  0
 11  6  1  0  0  0  0
 11 12  2  0  0  0  0
 13 11  2  0  0  0  0
 15 14  3  0  0  0  0
 16 20  1  0  0  0  0
 16 19  2  0  0  0  0
 17 23  1  0  0  0  0
 17 16  1  0  0  0  0
 18 16  2  0  0  0  0
 21 17  1  0  0  0  0
 22 17  1  0  0  0  0
M  RAD  3   3   3   4   2   5   2
M  END
