Coordinates from ORCA-job p-NO2-Ph-N2-OTf-B3LYPG-aug-cc-pVDZ-scan-d09-29-n200
 OpenBabel01151817083D

 23 23  0  0  1  0  0  0  0  0999 V2000
   -1.4087   -0.2620   -5.9849 C   0  0  0  0  0  0  0  0  0  0  0  0
   -0.5249    0.9341   -6.0438 C   0  0  1  0  0  0  0  0  0  0  0  0
   -1.1758    2.1619   -5.4563 C   0  0  0  0  0  0  0  0  0  0  0  0
   -2.2707    2.0248   -4.5076 C   0  0  0  0  0  0  0  0  0  0  0  0
   -2.8931    0.8324   -4.3396 C   0  0  0  0  0  0  0  0  0  0  0  0
   -2.4675   -0.2852   -5.1480 C   0  0  0  0  0  0  0  0  0  0  0  0
   -1.1583   -1.1296   -6.5889 H   0  0  0  0  0  0  0  0  0  0  0  0
   -0.1331    1.1270   -7.0462 H   0  0  0  0  0  0  0  0  0  0  0  0
   -2.5827    2.9099   -3.9545 H   0  0  0  0  0  0  0  0  0  0  0  0
   -3.7172    0.7060   -3.6451 H   0  0  0  0  0  0  0  0  0  0  0  0
   -3.2703   -1.5362   -5.0721 N   0  0  0  0  0  0  0  0  0  0  0  0
   -4.1929   -1.5556   -4.2634 O   0  0  0  0  0  0  0  0  0  0  0  0
   -2.9637   -2.4650   -5.8105 O   0  0  0  0  0  0  0  0  0  0  0  0
   -0.7428    3.2331   -5.7472 N   0  0  0  0  0  0  0  0  0  0  0  0
   -0.3204    4.2584   -6.0305 N   0  0  0  0  0  0  0  0  0  0  0  0
    2.2057    0.7980   -5.7990 S   0  0  0  0  0  0  0  0  0  0  0  0
    2.5751   -0.9811   -6.3601 C   0  0  0  0  0  0  0  0  0  0  0  0
    2.1466    1.6252   -7.0226 O   0  0  0  0  0  0  0  0  0  0  0  0
    3.1006    1.0914   -4.6731 O   0  0  0  0  0  0  0  0  0  0  0  0
    0.6950    0.5834   -5.1866 O   0  0  0  0  0  0  0  0  0  0  0  0
    1.6480   -1.3605   -7.2535 F   0  0  0  0  0  0  0  0  0  0  0  0
    3.7800   -1.0048   -6.9306 F   0  0  0  0  0  0  0  0  0  0  0  0
    2.5503   -1.8043   -5.3138 F   0  0  0  0  0  0  0  0  0  0  0  0
  1  6  2  0  0  0  0
  2  8  1  6  0  0  0
  2  1  1  0  0  0  0
  2  3  1  0  0  0  0
  2 20  1  0  0  0  0
  3  4  2  0  0  0  0
  4  5  1  0  0  0  0
  4  9  1  0  0  0  0
  5 10  1  0  0  0  0
  6 11  1  0  0  0  0
  6  5  1  0  0  0  0
  7  1  1  0  0  0  0
 11 12  2  0  0  0  0
 13 11  2  0  0  0  0
 14  3  1  0  0  0  0
 15 14  1  0  0  0  0
 16 20  1  0  0  0  0
 16 19  2  0  0  0  0
 17 16  1  0  0  0  0
 17 23  1  0  0  0  0
 18 16  2  0  0  0  0
 21 17  1  0  0  0  0
 22 17  1  0  0  0  0
M  RAD  3   5   2  14   2  15   3
M  END
