Coordinates from ORCA-job p-NO2-Ph-N2-OTf-B3LYPG-aug-cc-pVDZ-scan-d09-29-n200
 OpenBabel01151817083D

 23 22  0  0  0  0  0  0  0  0999 V2000
   -2.0886   -0.6544   -6.0603 C   0  0  0  0  0  0  0  0  0  0  0  0
   -1.1266    0.2374   -6.5450 C   0  0  0  0  0  0  0  0  0  0  0  0
   -1.1210    1.4735   -5.9303 C   0  0  0  0  0  0  0  0  0  0  0  0
   -1.8968    1.9174   -4.8715 C   0  0  0  0  0  0  0  0  0  0  0  0
   -2.8373    1.0014   -4.4044 C   0  0  0  0  0  0  0  0  0  0  0  0
   -2.9168   -0.2553   -5.0138 C   0  0  0  0  0  0  0  0  0  0  0  0
   -2.1751   -1.6558   -6.4729 H   0  0  0  0  0  0  0  0  0  0  0  0
   -0.4258   -0.0329   -7.3276 H   0  0  0  0  0  0  0  0  0  0  0  0
   -1.7747    2.9017   -4.4284 H   0  0  0  0  0  0  0  0  0  0  0  0
   -3.4994    1.2479   -3.5787 H   0  0  0  0  0  0  0  0  0  0  0  0
   -3.9331   -1.2155   -4.5107 N   0  0  0  0  0  0  0  0  0  0  0  0
   -4.6253   -0.8540   -3.5660 O   0  0  0  0  0  0  0  0  0  0  0  0
   -4.0137   -2.2970   -5.0787 O   0  0  0  0  0  0  0  0  0  0  0  0
   -0.0619    2.5358   -6.4971 N   0  0  0  0  0  0  0  0  0  0  0  0
    0.4441    3.3762   -7.0121 N   0  0  0  0  0  0  0  0  0  0  0  0
    2.1197    0.2645   -4.9907 S   0  0  0  0  0  0  0  0  0  0  0  0
    3.0995    0.2471   -6.6153 C   0  0  0  0  0  0  0  0  0  0  0  0
    1.5346    1.6757   -5.0141 O   0  0  0  0  0  0  0  0  0  0  0  0
    3.1238    0.0348   -3.9262 O   0  0  0  0  0  0  0  0  0  0  0  0
    1.0837   -0.7976   -5.2159 O   0  0  0  0  0  0  0  0  0  0  0  0
    2.2543    0.5229   -7.6553 F   0  0  0  0  0  0  0  0  0  0  0  0
    4.0643    1.1785   -6.6198 F   0  0  0  0  0  0  0  0  0  0  0  0
    3.6512   -0.9511   -6.8430 F   0  0  0  0  0  0  0  0  0  0  0  0
  1  6  1  0  0  0  0
  2  1  2  0  0  0  0
  2  3  1  0  0  0  0
  3  4  2  0  0  0  0
  4  9  1  0  0  0  0
  4  5  1  0  0  0  0
  5 10  1  0  0  0  0
  6 11  1  0  0  0  0
  6  5  2  0  0  0  0
  7  1  1  0  0  0  0
  8  2  1  0  0  0  0
 11 12  2  0  0  0  0
 13 11  2  0  0  0  0
 14  3  1  0  0  0  0
 15 14  1  0  0  0  0
 16 19  1  0  0  0  0
 17 16  1  0  0  0  0
 18 16  2  0  0  0  0
 20 16  2  0  0  0  0
 21 17  1  0  0  0  0
 22 17  1  0  0  0  0
 23 17  1  0  0  0  0
M  RAD  3  14   2  15   3  19   2
M  END
